FTK.pdb
 OpenBabel07022419013D

 57 57  0  0  1  0  0  0  0  0999 V2000
    3.0200   -1.0560   -0.2630 N   0  0  0  0  0  0  0  0  0  0  0  0
    2.5440   -0.5370    1.0050 C   0  0  1  0  0  0  0  0  0  0  0  0
    3.2420    0.7720    1.3090 C   0  0  0  0  0  0  0  0  0  0  0  0
    4.6930    0.4910    1.3750 C   0  0  0  0  0  0  0  0  0  0  0  0
    5.5040    0.5630    0.2840 C   0  0  0  0  0  0  0  0  0  0  0  0
    6.8660    0.2890    0.3960 C   0  0  0  0  0  0  0  0  0  0  0  0
    7.4240   -0.0600    1.6020 C   0  0  0  0  0  0  0  0  0  0  0  0
    6.6050   -0.1340    2.7050 C   0  0  0  0  0  0  0  0  0  0  0  0
    5.2500    0.1410    2.5860 C   0  0  0  0  0  0  0  0  0  0  0  0
    1.0680   -0.3230    0.9170 C   0  0  0  0  0  0  0  0  0  0  0  0
    0.4620   -0.5930   -0.1470 O   0  0  0  0  0  0  0  0  0  0  0  0
    2.3270   -1.7980   -0.5800 H   0  0  0  0  0  0  0  0  0  0  0  0
    3.9120   -1.5880   -0.0890 H   0  0  0  0  0  0  0  0  0  0  0  0
    2.7720   -1.3110    1.7660 H   0  0  0  0  0  0  0  0  0  0  0  0
    3.0720    1.5140    0.5260 H   0  0  0  0  0  0  0  0  0  0  0  0
    2.8600    1.1620    2.2590 H   0  0  0  0  0  0  0  0  0  0  0  0
    5.0920    0.8350   -0.6720 H   0  0  0  0  0  0  0  0  0  0  0  0
    7.5030    0.3500   -0.4780 H   0  0  0  0  0  0  0  0  0  0  0  0
    8.4990   -0.2690    1.6520 H   0  0  0  0  0  0  0  0  0  0  0  0
    7.0480   -0.4060    3.6400 H   0  0  0  0  0  0  0  0  0  0  0  0
    4.5920    0.0850    3.4550 H   0  0  0  0  0  0  0  0  0  0  0  0
   -1.0230    2.8490    1.6920 C   0  0  0  0  0  0  0  0  0  0  0  0
   -1.5120    1.5430    1.0600 C   0  0  1  0  0  0  0  0  0  0  0  0
   -1.0640    1.5490   -0.2440 O   0  0  0  0  0  0  0  0  0  0  0  0
   -1.1020    0.3600    1.8620 C   0  0  2  0  0  0  0  0  0  0  0  0
    0.3090    0.1800    2.0010 N   0  0  0  0  0  0  0  0  0  0  0  0
   -1.8050   -0.9080    1.4720 C   0  0  0  0  0  0  0  0  0  0  0  0
   -1.1550   -1.9740    1.3240 O   0  0  0  0  0  0  0  0  0  0  0  0
   -0.6410    3.5530    0.9390 H   0  0  0  0  0  0  0  0  0  0  0  0
   -1.8090    3.3510    2.2640 H   0  0  0  0  0  0  0  0  0  0  0  0
   -0.1970    2.5600    2.3780 H   0  0  0  0  0  0  0  0  0  0  0  0
   -2.6130    1.6200    1.0560 H   0  0  0  0  0  0  0  0  0  0  0  0
   -1.2040    2.4810   -0.5940 H   0  0  0  0  0  0  0  0  0  0  0  0
   -1.4600    0.5940    2.9200 H   0  0  0  0  0  0  0  0  0  0  0  0
    0.8690    0.3970    2.8790 H   0  0  0  0  0  0  0  0  0  0  0  0
   -3.1940   -0.9820    1.2530 N   0  0  0  0  0  0  0  0  0  0  0  0
   -3.9760   -2.1010    0.8930 C   0  0  1  0  0  0  0  0  0  0  0  0
   -3.8770   -2.6250   -0.4910 C   0  0  0  0  0  0  0  0  0  0  0  0
   -4.2650   -1.6060   -1.5010 C   0  0  0  0  0  0  0  0  0  0  0  0
   -4.2210   -1.9960   -2.9200 C   0  0  0  0  0  0  0  0  0  0  0  0
   -2.9260   -2.4250   -3.5000 C   0  0  0  0  0  0  0  0  0  0  0  0
   -2.3150   -3.5770   -2.9060 N   0  0  0  0  0  0  0  0  0  0  0  0
   -3.6720   -3.2290    1.8480 C   0  0  0  0  0  0  0  0  0  0  0  0
   -4.1900   -4.3550    1.6930 O   0  0  0  0  0  0  0  0  0  0  0  0
   -2.8210   -3.0520    2.9180 O   0  0  0  0  0  0  0  0  0  0  0  0
   -3.7000   -0.0490    1.3850 H   0  0  0  0  0  0  0  0  0  0  0  0
   -5.0540   -1.8800    1.1180 H   0  0  0  0  0  0  0  0  0  0  0  0
   -4.6450   -3.4550   -0.5640 H   0  0  0  0  0  0  0  0  0  0  0  0
   -2.9100   -3.1500   -0.6920 H   0  0  0  0  0  0  0  0  0  0  0  0
   -3.7370   -0.6270   -1.3670 H   0  0  0  0  0  0  0  0  0  0  0  0
   -5.3430   -1.3450   -1.2740 H   0  0  0  0  0  0  0  0  0  0  0  0
   -4.9650   -2.8090   -3.1630 H   0  0  0  0  0  0  0  0  0  0  0  0
   -4.5840   -1.1350   -3.5560 H   0  0  0  0  0  0  0  0  0  0  0  0
   -3.1510   -2.7210   -4.5700 H   0  0  0  0  0  0  0  0  0  0  0  0
   -2.1960   -1.5820   -3.6260 H   0  0  0  0  0  0  0  0  0  0  0  0
   -2.4160   -4.4530   -3.4530 H   0  0  0  0  0  0  0  0  0  0  0  0
   -1.3760   -3.4180   -2.5220 H   0  0  0  0  0  0  0  0  0  0  0  0
  1 13  1  0  0  0  0
  1  2  1  0  0  0  0
  2  3  1  0  0  0  0
  2 14  1  1  0  0  0
  3  4  1  0  0  0  0
  3 16  1  0  0  0  0
  4  9  1  0  0  0  0
  5  6  1  0  0  0  0
  5  4  2  0  0  0  0
  6  7  2  0  0  0  0
  7 19  1  0  0  0  0
  7  8  1  0  0  0  0
  8 20  1  0  0  0  0
  9  8  2  0  0  0  0
  9 21  1  0  0  0  0
 10  2  1  0  0  0  0
 10 26  1  0  0  0  0
 11 10  2  0  0  0  0
 12  1  1  0  0  0  0
 15  3  1  0  0  0  0
 17  5  1  0  0  0  0
 18  6  1  0  0  0  0
 22 30  1  0  0  0  0
 22 31  1  0  0  0  0
 23 32  1  6  0  0  0
 23 22  1  0  0  0  0
 23 25  1  0  0  0  0
 24 23  1  0  0  0  0
 25 26  1  0  0  0  0
 25 34  1  1  0  0  0
 26 35  1  0  0  0  0
 27 25  1  0  0  0  0
 28 27  2  0  0  0  0
 29 22  1  0  0  0  0
 33 24  1  0  0  0  0
 36 46  1  0  0  0  0
 36 27  1  0  0  0  0
 37 47  1  1  0  0  0
 37 36  1  0  0  0  0
 37 43  1  0  0  0  0
 38 37  1  0  0  0  0
 39 50  1  0  0  0  0
 39 51  1  0  0  0  0
 39 38  1  0  0  0  0
 40 39  1  0  0  0  0
 41 40  1  0  0  0  0
 41 42  1  0  0  0  0
 42 57  1  0  0  0  0
 43 45  1  0  0  0  0
 44 43  2  0  0  0  0
 48 38  1  0  0  0  0
 49 38  1  0  0  0  0
 52 40  1  0  0  0  0
 53 40  1  0  0  0  0
 54 41  1  0  0  0  0
 55 41  1  0  0  0  0
 56 42  1  0  0  0  0
M  END
$$$$
