FTN.pdb
 OpenBabel07022419013D

 50 50  0  0  1  0  0  0  0  0999 V2000
   -0.1290    4.0420   -1.2430 N   0  0  0  0  0  0  0  0  0  0  0  0
   -0.0640    2.5620   -1.0700 C   0  0  1  0  0  0  0  0  0  0  0  0
    1.0730    2.1460   -1.9380 C   0  0  0  0  0  0  0  0  0  0  0  0
    1.3950    0.7150   -1.9650 C   0  0  0  0  0  0  0  0  0  0  0  0
    2.3570    0.1650   -1.1110 C   0  0  0  0  0  0  0  0  0  0  0  0
    2.6610   -1.1740   -1.1500 C   0  0  0  0  0  0  0  0  0  0  0  0
    2.0430   -2.0450   -2.0220 C   0  0  0  0  0  0  0  0  0  0  0  0
    1.0920   -1.5040   -2.8660 C   0  0  0  0  0  0  0  0  0  0  0  0
    0.7810   -0.1610   -2.8340 C   0  0  0  0  0  0  0  0  0  0  0  0
    0.0730    2.2400    0.3620 C   0  0  0  0  0  0  0  0  0  0  0  0
    0.5300    3.1120    1.1880 O   0  0  0  0  0  0  0  0  0  0  0  0
   -0.0840    4.1720   -2.2780 H   0  0  0  0  0  0  0  0  0  0  0  0
   -1.0800    4.3720   -0.9480 H   0  0  0  0  0  0  0  0  0  0  0  0
   -1.0160    2.1800   -1.4720 H   0  0  0  0  0  0  0  0  0  0  0  0
    0.8120    2.4130   -3.0080 H   0  0  0  0  0  0  0  0  0  0  0  0
    1.9970    2.7520   -1.7440 H   0  0  0  0  0  0  0  0  0  0  0  0
    2.8460    0.8440   -0.4230 H   0  0  0  0  0  0  0  0  0  0  0  0
    3.4200   -1.6000   -0.4820 H   0  0  0  0  0  0  0  0  0  0  0  0
    2.2840   -3.0970   -2.0510 H   0  0  0  0  0  0  0  0  0  0  0  0
    0.5960   -2.1620   -3.5550 H   0  0  0  0  0  0  0  0  0  0  0  0
    0.0250    0.2690   -3.5060 H   0  0  0  0  0  0  0  0  0  0  0  0
   -1.3140    0.9190    4.4100 C   0  0  0  0  0  0  0  0  0  0  0  0
   -1.5450    1.0730    2.9240 C   0  0  1  0  0  0  0  0  0  0  0  0
   -1.6800    2.4350    2.6900 O   0  0  0  0  0  0  0  0  0  0  0  0
   -0.1990    0.6380    2.2360 C   0  0  2  0  0  0  0  0  0  0  0  0
   -0.3140    0.9540    0.8350 N   0  0  0  0  0  0  0  0  0  0  0  0
    0.0240   -0.7480    2.5870 C   0  0  0  0  0  0  0  0  0  0  0  0
    0.1900   -0.9880    3.8380 O   0  0  0  0  0  0  0  0  0  0  0  0
   -1.9420    1.6890    4.9630 H   0  0  0  0  0  0  0  0  0  0  0  0
   -1.6710   -0.0450    4.8160 H   0  0  0  0  0  0  0  0  0  0  0  0
   -0.2520    1.1340    4.6470 H   0  0  0  0  0  0  0  0  0  0  0  0
   -2.3660    0.4540    2.5670 H   0  0  0  0  0  0  0  0  0  0  0  0
   -1.1360    2.9110    3.3590 H   0  0  0  0  0  0  0  0  0  0  0  0
    0.5230    1.3030    2.7260 H   0  0  0  0  0  0  0  0  0  0  0  0
   -0.6710    0.2730    0.1440 H   0  0  0  0  0  0  0  0  0  0  0  0
   -2.7040   -4.7830    0.4720 N   0  0  0  0  0  0  0  0  0  0  0  0
   -1.5040   -4.1160    0.7860 C   0  0  0  0  0  0  0  0  0  0  0  0
   -0.8350   -3.6460   -0.1690 O   0  0  0  0  0  0  0  0  0  0  0  0
   -1.0270   -3.9590    2.1630 C   0  0  0  0  0  0  0  0  0  0  0  0
    0.2840   -3.1640    2.2480 C   0  0  2  0  0  0  0  0  0  0  0  0
    0.0750   -1.8700    1.7060 N   0  0  0  0  0  0  0  0  0  0  0  0
    1.3930   -3.9490    1.7110 C   0  0  0  0  0  0  0  0  0  0  0  0
    2.2010   -3.6570    0.8320 O   0  0  0  0  0  0  0  0  0  0  0  0
    1.5540   -5.2270    2.2920 O   0  0  0  0  0  0  0  0  0  0  0  0
   -3.4840   -4.7690    1.1490 H   0  0  0  0  0  0  0  0  0  0  0  0
   -2.8040   -5.2790   -0.4230 H   0  0  0  0  0  0  0  0  0  0  0  0
   -1.7700   -3.3680    2.7430 H   0  0  0  0  0  0  0  0  0  0  0  0
   -0.8850   -4.9070    2.7080 H   0  0  0  0  0  0  0  0  0  0  0  0
    0.4600   -3.0780    3.3510 H   0  0  0  0  0  0  0  0  0  0  0  0
   -0.0480   -1.6410    0.6960 H   0  0  0  0  0  0  0  0  0  0  0  0
  1  2  1  0  0  0  0
  1 13  1  0  0  0  0
  2 14  1  6  0  0  0
  2 10  1  0  0  0  0
  3 16  1  0  0  0  0
  3  2  1  0  0  0  0
  4  3  1  0  0  0  0
  4  5  1  0  0  0  0
  5 17  1  0  0  0  0
  6  5  2  0  0  0  0
  6 18  1  0  0  0  0
  7  6  1  0  0  0  0
  8  9  1  0  0  0  0
  8  7  2  0  0  0  0
  9  4  2  0  0  0  0
 10 26  1  0  0  0  0
 10 11  2  0  0  0  0
 12  1  1  0  0  0  0
 15  3  1  0  0  0  0
 19  7  1  0  0  0  0
 20  8  1  0  0  0  0
 21  9  1  0  0  0  0
 22 31  1  0  0  0  0
 22 30  1  0  0  0  0
 22 29  1  0  0  0  0
 23 32  1  6  0  0  0
 23 22  1  0  0  0  0
 24 23  1  0  0  0  0
 24 33  1  0  0  0  0
 25 27  1  0  0  0  0
 25 34  1  1  0  0  0
 25 23  1  0  0  0  0
 26 25  1  0  0  0  0
 27 28  2  0  0  0  0
 35 26  1  0  0  0  0
 36 37  1  0  0  0  0
 36 45  1  0  0  0  0
 37 39  1  0  0  0  0
 38 37  2  0  0  0  0
 39 40  1  0  0  0  0
 39 48  1  0  0  0  0
 39 47  1  0  0  0  0
 40 49  1  1  0  0  0
 41 40  1  0  0  0  0
 41 27  1  0  0  0  0
 42 40  1  0  0  0  0
 42 44  1  0  0  0  0
 43 42  2  0  0  0  0
 46 36  1  0  0  0  0
 50 41  1  0  0  0  0
M  END
$$$$
