FTP.pdb
 OpenBabel07022419013D

 50 51  0  0  1  0  0  0  0  0999 V2000
    0.7450   -2.9940   -0.7540 N   0  0  0  0  0  0  0  0  0  0  0  0
    1.3640   -2.4840    0.4670 C   0  0  1  0  0  0  0  0  0  0  0  0
    2.8700   -2.5900    0.3200 C   0  0  0  0  0  0  0  0  0  0  0  0
    3.6200   -2.1080    1.4790 C   0  0  0  0  0  0  0  0  0  0  0  0
    4.0640   -0.8050    1.6260 C   0  0  0  0  0  0  0  0  0  0  0  0
    4.7710   -0.3710    2.7300 C   0  0  0  0  0  0  0  0  0  0  0  0
    5.0640   -1.2540    3.7510 C   0  0  0  0  0  0  0  0  0  0  0  0
    4.6320   -2.5580    3.6250 C   0  0  0  0  0  0  0  0  0  0  0  0
    3.9270   -2.9830    2.5190 C   0  0  0  0  0  0  0  0  0  0  0  0
    0.9250   -1.1180    0.7710 C   0  0  0  0  0  0  0  0  0  0  0  0
    1.3310   -0.5680    1.8170 O   0  0  0  0  0  0  0  0  0  0  0  0
    1.3120   -3.8270   -1.0350 H   0  0  0  0  0  0  0  0  0  0  0  0
   -0.2100   -3.3420   -0.4990 H   0  0  0  0  0  0  0  0  0  0  0  0
    1.0750   -3.2130    1.2770 H   0  0  0  0  0  0  0  0  0  0  0  0
    3.1500   -3.6390    0.1310 H   0  0  0  0  0  0  0  0  0  0  0  0
    3.1330   -1.9790   -0.5690 H   0  0  0  0  0  0  0  0  0  0  0  0
    3.8450   -0.0910    0.8330 H   0  0  0  0  0  0  0  0  0  0  0  0
    5.1210    0.6460    2.8540 H   0  0  0  0  0  0  0  0  0  0  0  0
    5.6160   -0.9520    4.6320 H   0  0  0  0  0  0  0  0  0  0  0  0
    4.8540   -3.2710    4.4210 H   0  0  0  0  0  0  0  0  0  0  0  0
    3.5840   -4.0220    2.4200 H   0  0  0  0  0  0  0  0  0  0  0  0
   -0.2900    3.3700   -0.4960 C   0  0  0  0  0  0  0  0  0  0  0  0
    0.0920    1.9470   -0.8320 C   0  0  1  0  0  0  0  0  0  0  0  0
    1.4920    1.9440   -0.9100 O   0  0  0  0  0  0  0  0  0  0  0  0
   -0.3850    0.9480    0.2070 C   0  0  2  0  0  0  0  0  0  0  0  0
    0.0390   -0.3780   -0.0910 N   0  0  0  0  0  0  0  0  0  0  0  0
   -1.8200    1.1350    0.4560 C   0  0  0  0  0  0  0  0  0  0  0  0
   -2.2100    2.3430    0.7280 O   0  0  0  0  0  0  0  0  0  0  0  0
    0.4450    4.0930   -0.9740 H   0  0  0  0  0  0  0  0  0  0  0  0
   -0.2610    3.5720    0.5890 H   0  0  0  0  0  0  0  0  0  0  0  0
   -1.2640    3.6510   -0.9170 H   0  0  0  0  0  0  0  0  0  0  0  0
   -0.3230    1.7060   -1.8260 H   0  0  0  0  0  0  0  0  0  0  0  0
    1.8970    2.4650   -0.1720 H   0  0  0  0  0  0  0  0  0  0  0  0
    0.1260    1.2480    1.1710 H   0  0  0  0  0  0  0  0  0  0  0  0
   -0.2470   -0.9000   -0.9490 H   0  0  0  0  0  0  0  0  0  0  0  0
   -2.8430    0.1830    0.4430 N   0  0  0  0  0  0  0  0  0  0  0  0
   -4.2420    0.4470    0.6920 C   0  0  0  0  0  0  0  0  0  0  0  0
   -4.6170   -0.6600    1.6670 C   0  0  0  0  0  0  0  0  0  0  0  0
   -3.9020   -1.8410    1.0440 C   0  0  0  0  0  0  0  0  0  0  0  0
   -2.7650   -1.2280    0.1960 C   0  0  1  0  0  0  0  0  0  0  0  0
   -3.0240   -1.5740   -1.2210 C   0  0  0  0  0  0  0  0  0  0  0  0
   -2.9900   -2.7760   -1.5650 O   0  0  0  0  0  0  0  0  0  0  0  0
   -3.3000   -0.6200   -2.1770 O   0  0  0  0  0  0  0  0  0  0  0  0
   -4.4140    1.4510    1.1130 H   0  0  0  0  0  0  0  0  0  0  0  0
   -4.8460    0.3640   -0.2340 H   0  0  0  0  0  0  0  0  0  0  0  0
   -4.2240   -0.4050    2.6710 H   0  0  0  0  0  0  0  0  0  0  0  0
   -5.7120   -0.7630    1.6550 H   0  0  0  0  0  0  0  0  0  0  0  0
   -4.6280   -2.3430    0.3880 H   0  0  0  0  0  0  0  0  0  0  0  0
   -3.5330   -2.5290    1.8050 H   0  0  0  0  0  0  0  0  0  0  0  0
   -1.8590   -1.7260    0.5680 H   0  0  0  0  0  0  0  0  0  0  0  0
  1 13  1  0  0  0  0
  1  2  1  0  0  0  0
  2 10  1  0  0  0  0
  2 14  1  1  0  0  0
  3  2  1  0  0  0  0
  3  4  1  0  0  0  0
  4  5  2  0  0  0  0
  4  9  1  0  0  0  0
  5  6  1  0  0  0  0
  6 18  1  0  0  0  0
  6  7  2  0  0  0  0
  7 19  1  0  0  0  0
  8  7  1  0  0  0  0
  8 20  1  0  0  0  0
  9  8  2  0  0  0  0
 10 11  2  0  0  0  0
 12  1  1  0  0  0  0
 15  3  1  0  0  0  0
 16  3  1  0  0  0  0
 17  5  1  0  0  0  0
 21  9  1  0  0  0  0
 22 30  1  0  0  0  0
 23 32  1  6  0  0  0
 23 22  1  0  0  0  0
 23 25  1  0  0  0  0
 24 23  1  0  0  0  0
 24 33  1  0  0  0  0
 25 27  1  0  0  0  0
 25 34  1  1  0  0  0
 26 25  1  0  0  0  0
 26 10  1  0  0  0  0
 27 28  2  0  0  0  0
 29 22  1  0  0  0  0
 31 22  1  0  0  0  0
 35 26  1  0  0  0  0
 36 27  1  0  0  0  0
 36 37  1  0  0  0  0
 37 44  1  0  0  0  0
 37 38  1  0  0  0  0
 38 46  1  0  0  0  0
 39 38  1  0  0  0  0
 39 49  1  0  0  0  0
 40 36  1  0  0  0  0
 40 50  1  1  0  0  0
 40 39  1  0  0  0  0
 41 40  1  0  0  0  0
 42 41  1  0  0  0  0
 43 41  2  0  0  0  0
 45 37  1  0  0  0  0
 47 38  1  0  0  0  0
 48 39  1  0  0  0  0
M  END
$$$$
