FTS.pdb
 OpenBabel07022419013D

 47 47  0  0  1  0  0  0  0  0999 V2000
    1.7250   -3.6980    3.8460 N   0  0  0  0  0  0  0  0  0  0  0  0
    1.8790   -2.9400    2.5820 C   0  0  1  0  0  0  0  0  0  0  0  0
    1.6480   -3.9330    1.5000 C   0  0  0  0  0  0  0  0  0  0  0  0
    1.7370   -3.4660    0.1280 C   0  0  0  0  0  0  0  0  0  0  0  0
    0.6180   -3.0630   -0.5510 C   0  0  0  0  0  0  0  0  0  0  0  0
    0.6870   -2.6070   -1.8540 C   0  0  0  0  0  0  0  0  0  0  0  0
    1.8920   -2.5470   -2.5010 C   0  0  0  0  0  0  0  0  0  0  0  0
    3.0140   -2.9550   -1.8080 C   0  0  0  0  0  0  0  0  0  0  0  0
    2.9480   -3.4070   -0.5190 C   0  0  0  0  0  0  0  0  0  0  0  0
    0.9340   -1.8110    2.6530 C   0  0  0  0  0  0  0  0  0  0  0  0
    0.0980   -1.7310    3.6170 O   0  0  0  0  0  0  0  0  0  0  0  0
    0.9450   -4.4010    3.6830 H   0  0  0  0  0  0  0  0  0  0  0  0
    1.4670   -3.0640    4.6370 H   0  0  0  0  0  0  0  0  0  0  0  0
    2.9420   -2.6030    2.6140 H   0  0  0  0  0  0  0  0  0  0  0  0
    0.6880   -4.4990    1.6980 H   0  0  0  0  0  0  0  0  0  0  0  0
    2.4350   -4.7390    1.6260 H   0  0  0  0  0  0  0  0  0  0  0  0
   -0.3730   -3.0950   -0.0750 H   0  0  0  0  0  0  0  0  0  0  0  0
   -0.2110   -2.2970   -2.3580 H   0  0  0  0  0  0  0  0  0  0  0  0
    1.9900   -2.1900   -3.5370 H   0  0  0  0  0  0  0  0  0  0  0  0
    3.9600   -2.8890   -2.3650 H   0  0  0  0  0  0  0  0  0  0  0  0
    3.8880   -3.7070   -0.0570 H   0  0  0  0  0  0  0  0  0  0  0  0
    1.7330    1.7240    0.8390 C   0  0  0  0  0  0  0  0  0  0  0  0
    0.7870    1.5690    2.0290 C   0  0  1  0  0  0  0  0  0  0  0  0
    0.0160    2.6960    2.1890 O   0  0  0  0  0  0  0  0  0  0  0  0
   -0.0610    0.3040    1.8510 C   0  0  2  0  0  0  0  0  0  0  0  0
    0.8880   -0.7680    1.6970 N   0  0  0  0  0  0  0  0  0  0  0  0
   -0.9900    0.4580    0.7150 C   0  0  0  0  0  0  0  0  0  0  0  0
   -0.9170   -0.2360   -0.3400 O   0  0  0  0  0  0  0  0  0  0  0  0
    1.2300    1.4780   -0.1010 H   0  0  0  0  0  0  0  0  0  0  0  0
    2.6140    1.0320    0.9830 H   0  0  0  0  0  0  0  0  0  0  0  0
    2.1170    2.7610    0.8750 H   0  0  0  0  0  0  0  0  0  0  0  0
    1.4510    1.4560    2.9110 H   0  0  0  0  0  0  0  0  0  0  0  0
   -0.2300    2.7870    3.1430 H   0  0  0  0  0  0  0  0  0  0  0  0
   -0.6270    0.1530    2.7830 H   0  0  0  0  0  0  0  0  0  0  0  0
    1.5490   -0.7570    0.8660 H   0  0  0  0  0  0  0  0  0  0  0  0
   -4.4590   -0.0020    0.5830 O   0  0  0  0  0  0  0  0  0  0  0  0
   -4.4020    1.3200    0.2240 C   0  0  0  0  0  0  0  0  0  0  0  0
   -2.9890    1.6650   -0.2600 C   0  0  2  0  0  0  0  0  0  0  0  0
   -2.0240    1.4290    0.7960 N   0  0  0  0  0  0  0  0  0  0  0  0
   -2.9120    3.0350   -0.7910 C   0  0  0  0  0  0  0  0  0  0  0  0
   -3.6880    3.3890   -1.7110 O   0  0  0  0  0  0  0  0  0  0  0  0
   -2.0090    3.9650   -0.3150 O   0  0  0  0  0  0  0  0  0  0  0  0
   -5.1070   -0.1610    1.3080 H   0  0  0  0  0  0  0  0  0  0  0  0
   -4.5950    1.9170    1.1630 H   0  0  0  0  0  0  0  0  0  0  0  0
   -5.1140    1.6320   -0.5580 H   0  0  0  0  0  0  0  0  0  0  0  0
   -2.7550    0.9650   -1.0930 H   0  0  0  0  0  0  0  0  0  0  0  0
   -2.1070    2.0030    1.6610 H   0  0  0  0  0  0  0  0  0  0  0  0
  1 13  1  0  0  0  0
  2 14  1  6  0  0  0
  2 10  1  0  0  0  0
  2  1  1  0  0  0  0
  3 16  1  0  0  0  0
  3 15  1  0  0  0  0
  3  2  1  0  0  0  0
  4  3  1  0  0  0  0
  5 17  1  0  0  0  0
  5  4  2  0  0  0  0
  6  5  1  0  0  0  0
  7  6  2  0  0  0  0
  7  8  1  0  0  0  0
  8  9  2  0  0  0  0
  9 21  1  0  0  0  0
  9  4  1  0  0  0  0
 10 11  2  0  0  0  0
 12  1  1  0  0  0  0
 18  6  1  0  0  0  0
 19  7  1  0  0  0  0
 20  8  1  0  0  0  0
 22 31  1  0  0  0  0
 22 30  1  0  0  0  0
 22 23  1  0  0  0  0
 23 24  1  0  0  0  0
 23 32  1  1  0  0  0
 24 33  1  0  0  0  0
 25 23  1  0  0  0  0
 25 34  1  1  0  0  0
 26 25  1  0  0  0  0
 26 10  1  0  0  0  0
 27 39  1  0  0  0  0
 27 25  1  0  0  0  0
 28 27  2  0  0  0  0
 29 22  1  0  0  0  0
 35 26  1  0  0  0  0
 36 43  1  0  0  0  0
 37 36  1  0  0  0  0
 37 44  1  0  0  0  0
 38 46  1  6  0  0  0
 38 37  1  0  0  0  0
 38 39  1  0  0  0  0
 39 47  1  0  0  0  0
 40 42  1  0  0  0  0
 40 38  1  0  0  0  0
 41 40  2  0  0  0  0
 45 37  1  0  0  0  0
M  END
$$$$
