FTT.pdb
 OpenBabel07022419013D

 50 50  0  0  1  0  0  0  0  0999 V2000
    1.7000   -2.5080    4.8480 N   0  0  0  0  0  0  0  0  0  0  0  0
    1.9550   -2.2800    3.3990 C   0  0  1  0  0  0  0  0  0  0  0  0
    1.7060   -3.5910    2.7470 C   0  0  0  0  0  0  0  0  0  0  0  0
    1.8930   -3.6570    1.3000 C   0  0  0  0  0  0  0  0  0  0  0  0
    0.8540   -3.5350    0.4030 C   0  0  0  0  0  0  0  0  0  0  0  0
    1.0720   -3.5910   -0.9440 C   0  0  0  0  0  0  0  0  0  0  0  0
    2.3310   -3.7700   -1.4480 C   0  0  0  0  0  0  0  0  0  0  0  0
    3.3850   -3.8950   -0.5690 C   0  0  0  0  0  0  0  0  0  0  0  0
    3.1690   -3.8390    0.7870 C   0  0  0  0  0  0  0  0  0  0  0  0
    1.1510   -1.1340    2.9600 C   0  0  0  0  0  0  0  0  0  0  0  0
    0.3220   -0.6290    3.8070 O   0  0  0  0  0  0  0  0  0  0  0  0
    0.6510   -2.6470    4.8960 H   0  0  0  0  0  0  0  0  0  0  0  0
    1.9070   -1.6100    5.3180 H   0  0  0  0  0  0  0  0  0  0  0  0
    3.0500   -2.0280    3.3090 H   0  0  0  0  0  0  0  0  0  0  0  0
    2.4270   -4.3400    3.1930 H   0  0  0  0  0  0  0  0  0  0  0  0
    0.6980   -3.9920    3.0350 H   0  0  0  0  0  0  0  0  0  0  0  0
   -0.1650   -3.3900    0.8020 H   0  0  0  0  0  0  0  0  0  0  0  0
    0.2310   -3.4910   -1.6480 H   0  0  0  0  0  0  0  0  0  0  0  0
    2.4880   -3.8110   -2.5260 H   0  0  0  0  0  0  0  0  0  0  0  0
    4.3780   -4.0350   -0.9880 H   0  0  0  0  0  0  0  0  0  0  0  0
    4.0190   -3.9400    1.4440 H   0  0  0  0  0  0  0  0  0  0  0  0
    0.6740    3.0600    0.7880 C   0  0  0  0  0  0  0  0  0  0  0  0
    1.3610    1.7640    1.0920 C   0  0  1  0  0  0  0  0  0  0  0  0
    2.1810    1.9900    2.2020 O   0  0  0  0  0  0  0  0  0  0  0  0
    0.3900    0.6170    1.3880 C   0  0  2  0  0  0  0  0  0  0  0  0
    1.2330   -0.5450    1.6730 N   0  0  0  0  0  0  0  0  0  0  0  0
   -0.4950    0.3140    0.2480 C   0  0  0  0  0  0  0  0  0  0  0  0
   -0.4030   -0.7600   -0.4410 O   0  0  0  0  0  0  0  0  0  0  0  0
   -0.1330    3.3100    1.4860 H   0  0  0  0  0  0  0  0  0  0  0  0
    0.3090    3.1140   -0.2560 H   0  0  0  0  0  0  0  0  0  0  0  0
    1.4220    3.9120    0.9030 H   0  0  0  0  0  0  0  0  0  0  0  0
    1.9520    1.4410    0.2230 H   0  0  0  0  0  0  0  0  0  0  0  0
    2.2090    1.2110    2.8010 H   0  0  0  0  0  0  0  0  0  0  0  0
   -0.1740    0.8780    2.3020 H   0  0  0  0  0  0  0  0  0  0  0  0
    1.8770   -0.9250    0.9590 H   0  0  0  0  0  0  0  0  0  0  0  0
   -3.7270   -0.4750    0.2630 C   0  0  0  0  0  0  0  0  0  0  0  0
   -3.8030    0.6350   -0.7490 C   0  0  1  0  0  0  0  0  0  0  0  0
   -4.2420    1.7950   -0.1050 O   0  0  0  0  0  0  0  0  0  0  0  0
   -2.4040    0.8490   -1.3300 C   0  0  2  0  0  0  0  0  0  0  0  0
   -1.5450    1.1700   -0.2090 N   0  0  0  0  0  0  0  0  0  0  0  0
   -2.3950    1.8480   -2.3850 C   0  0  0  0  0  0  0  0  0  0  0  0
   -1.6980    2.8860   -2.2710 O   0  0  0  0  0  0  0  0  0  0  0  0
   -3.1390    1.7010   -3.5390 O   0  0  0  0  0  0  0  0  0  0  0  0
   -3.2620   -0.0950    1.2030 H   0  0  0  0  0  0  0  0  0  0  0  0
   -4.7890   -0.7320    0.5440 H   0  0  0  0  0  0  0  0  0  0  0  0
   -3.2000   -1.3780   -0.1020 H   0  0  0  0  0  0  0  0  0  0  0  0
   -4.4510    0.3290   -1.5910 H   0  0  0  0  0  0  0  0  0  0  0  0
   -3.9830    2.6110   -0.6310 H   0  0  0  0  0  0  0  0  0  0  0  0
   -2.0860   -0.1410   -1.7160 H   0  0  0  0  0  0  0  0  0  0  0  0
   -1.7240    2.0570    0.2710 H   0  0  0  0  0  0  0  0  0  0  0  0
  1 12  1  0  0  0  0
  1 13  1  0  0  0  0
  2 14  1  6  0  0  0
  2  1  1  0  0  0  0
  3 16  1  0  0  0  0
  3 15  1  0  0  0  0
  3  2  1  0  0  0  0
  4  3  1  0  0  0  0
  5 17  1  0  0  0  0
  5  4  2  0  0  0  0
  6  5  1  0  0  0  0
  7  6  2  0  0  0  0
  7  8  1  0  0  0  0
  8  9  2  0  0  0  0
  9  4  1  0  0  0  0
  9 21  1  0  0  0  0
 10  2  1  0  0  0  0
 10 11  2  0  0  0  0
 18  6  1  0  0  0  0
 19  7  1  0  0  0  0
 20  8  1  0  0  0  0
 22 31  1  0  0  0  0
 22 23  1  0  0  0  0
 22 29  1  0  0  0  0
 23 32  1  6  0  0  0
 23 25  1  0  0  0  0
 23 24  1  0  0  0  0
 24 33  1  0  0  0  0
 25 26  1  0  0  0  0
 25 34  1  1  0  0  0
 26 10  1  0  0  0  0
 27 25  1  0  0  0  0
 28 27  2  0  0  0  0
 30 22  1  0  0  0  0
 35 26  1  0  0  0  0
 36 45  1  0  0  0  0
 36 44  1  0  0  0  0
 37 47  1  6  0  0  0
 37 38  1  0  0  0  0
 37 36  1  0  0  0  0
 39 49  1  6  0  0  0
 39 37  1  0  0  0  0
 39 40  1  0  0  0  0
 40 27  1  0  0  0  0
 40 50  1  0  0  0  0
 41 42  1  0  0  0  0
 41 39  1  0  0  0  0
 43 41  2  0  0  0  0
 46 36  1  0  0  0  0
 48 38  1  0  0  0  0
M  END
$$$$
