FTV.pdb
 OpenBabel07022419013D

 52 52  0  0  1  0  0  0  0  0999 V2000
    3.0180   -4.1160    2.4340 N   0  0  0  0  0  0  0  0  0  0  0  0
    2.7600   -2.8180    1.7420 C   0  0  1  0  0  0  0  0  0  0  0  0
    2.8990   -2.9910    0.3010 C   0  0  0  0  0  0  0  0  0  0  0  0
    2.7120   -1.8250   -0.5740 C   0  0  0  0  0  0  0  0  0  0  0  0
    1.5360   -1.5950   -1.2560 C   0  0  0  0  0  0  0  0  0  0  0  0
    1.3720   -0.5040   -2.0830 C   0  0  0  0  0  0  0  0  0  0  0  0
    2.4130    0.4110   -2.2520 C   0  0  0  0  0  0  0  0  0  0  0  0
    3.5720    0.1820   -1.5780 C   0  0  0  0  0  0  0  0  0  0  0  0
    3.7560   -0.8970   -0.7510 C   0  0  0  0  0  0  0  0  0  0  0  0
    1.6060   -2.1780    2.3390 C   0  0  0  0  0  0  0  0  0  0  0  0
    0.9490   -2.7980    3.2990 O   0  0  0  0  0  0  0  0  0  0  0  0
    3.8460   -4.5880    2.0170 H   0  0  0  0  0  0  0  0  0  0  0  0
    3.1420   -3.8820    3.4410 H   0  0  0  0  0  0  0  0  0  0  0  0
    3.6630   -2.2110    2.0910 H   0  0  0  0  0  0  0  0  0  0  0  0
    2.1930   -3.8210   -0.0420 H   0  0  0  0  0  0  0  0  0  0  0  0
    3.9440   -3.4200    0.1070 H   0  0  0  0  0  0  0  0  0  0  0  0
    0.6820   -2.2820   -1.1630 H   0  0  0  0  0  0  0  0  0  0  0  0
    0.4520   -0.3430   -2.6130 H   0  0  0  0  0  0  0  0  0  0  0  0
    2.2170    1.2420   -2.9130 H   0  0  0  0  0  0  0  0  0  0  0  0
    4.3820    0.8960   -1.7110 H   0  0  0  0  0  0  0  0  0  0  0  0
    4.6920   -1.0700   -0.2150 H   0  0  0  0  0  0  0  0  0  0  0  0
   -0.6720    1.7530    3.9270 C   0  0  0  0  0  0  0  0  0  0  0  0
    0.3740    1.0430    3.1380 C   0  0  1  0  0  0  0  0  0  0  0  0
    1.4850    0.8770    3.9880 O   0  0  0  0  0  0  0  0  0  0  0  0
   -0.0240   -0.3440    2.6740 C   0  0  2  0  0  0  0  0  0  0  0  0
    1.1080   -0.9030    1.9830 N   0  0  0  0  0  0  0  0  0  0  0  0
   -1.3010   -0.2640    2.0010 C   0  0  0  0  0  0  0  0  0  0  0  0
   -2.2500    0.2490    2.7210 O   0  0  0  0  0  0  0  0  0  0  0  0
   -0.1300    2.4930    4.5870 H   0  0  0  0  0  0  0  0  0  0  0  0
   -1.3570    2.3330    3.2690 H   0  0  0  0  0  0  0  0  0  0  0  0
   -1.1730    1.0700    4.6190 H   0  0  0  0  0  0  0  0  0  0  0  0
    0.7380    1.6100    2.2740 H   0  0  0  0  0  0  0  0  0  0  0  0
    2.0980    1.6460    3.9180 H   0  0  0  0  0  0  0  0  0  0  0  0
   -0.2180   -0.9530    3.6310 H   0  0  0  0  0  0  0  0  0  0  0  0
    1.5630   -0.3630    1.2400 H   0  0  0  0  0  0  0  0  0  0  0  0
   -4.5820    0.6840   -1.3090 C   0  0  0  0  0  0  0  0  0  0  0  0
   -3.1410    0.4940   -0.8640 C   0  0  0  0  0  0  0  0  0  0  0  0
   -2.3020    0.0480   -2.0410 C   0  0  0  0  0  0  0  0  0  0  0  0
   -3.0450   -0.4720    0.2700 C   0  0  2  0  0  0  0  0  0  0  0  0
   -1.6780   -0.6470    0.7100 N   0  0  0  0  0  0  0  0  0  0  0  0
   -3.6850   -1.7790   -0.0420 C   0  0  0  0  0  0  0  0  0  0  0  0
   -2.9990   -2.8100    0.1100 O   0  0  0  0  0  0  0  0  0  0  0  0
   -4.9720   -1.9130   -0.4810 O   0  0  0  0  0  0  0  0  0  0  0  0
   -4.6190    1.6570   -1.8530 H   0  0  0  0  0  0  0  0  0  0  0  0
   -5.2250    0.7350   -0.4110 H   0  0  0  0  0  0  0  0  0  0  0  0
   -4.9040   -0.1010   -2.0110 H   0  0  0  0  0  0  0  0  0  0  0  0
   -2.7790    1.4800   -0.5200 H   0  0  0  0  0  0  0  0  0  0  0  0
   -1.7270   -0.8480   -1.7610 H   0  0  0  0  0  0  0  0  0  0  0  0
   -2.9790   -0.2380   -2.8770 H   0  0  0  0  0  0  0  0  0  0  0  0
   -1.6660    0.8630   -2.3810 H   0  0  0  0  0  0  0  0  0  0  0  0
   -3.6470   -0.0430    1.0990 H   0  0  0  0  0  0  0  0  0  0  0  0
   -0.9340   -1.0580    0.1010 H   0  0  0  0  0  0  0  0  0  0  0  0
  1 13  1  0  0  0  0
  2 14  1  1  0  0  0
  2 10  1  0  0  0  0
  2  1  1  0  0  0  0
  3  2  1  0  0  0  0
  4  3  1  0  0  0  0
  5 17  1  0  0  0  0
  5  4  2  0  0  0  0
  6  5  1  0  0  0  0
  7  6  2  0  0  0  0
  7  8  1  0  0  0  0
  8  9  2  0  0  0  0
  9  4  1  0  0  0  0
  9 21  1  0  0  0  0
 10 11  2  0  0  0  0
 12  1  1  0  0  0  0
 15  3  1  0  0  0  0
 16  3  1  0  0  0  0
 18  6  1  0  0  0  0
 19  7  1  0  0  0  0
 20  8  1  0  0  0  0
 22 29  1  0  0  0  0
 22 31  1  0  0  0  0
 23 32  1  6  0  0  0
 23 22  1  0  0  0  0
 23 24  1  0  0  0  0
 25 23  1  0  0  0  0
 25 34  1  1  0  0  0
 26 10  1  0  0  0  0
 26 25  1  0  0  0  0
 27 25  1  0  0  0  0
 27 28  2  0  0  0  0
 30 22  1  0  0  0  0
 33 24  1  0  0  0  0
 35 26  1  0  0  0  0
 36 37  1  0  0  0  0
 36 45  1  0  0  0  0
 37 47  1  0  0  0  0
 37 39  1  0  0  0  0
 38 48  1  0  0  0  0
 38 37  1  0  0  0  0
 39 40  1  0  0  0  0
 39 51  1  1  0  0  0
 40 27  1  0  0  0  0
 41 42  1  0  0  0  0
 41 39  1  0  0  0  0
 43 41  2  0  0  0  0
 44 36  1  0  0  0  0
 46 36  1  0  0  0  0
 49 38  1  0  0  0  0
 50 38  1  0  0  0  0
 52 40  1  0  0  0  0
M  END
$$$$
