FVA.pdb
 OpenBabel07022419023D

 48 48  0  0  1  0  0  0  0  0999 V2000
    0.9710   -3.2830    3.8910 N   0  0  0  0  0  0  0  0  0  0  0  0
    1.5270   -2.4220    2.8520 C   0  0  1  0  0  0  0  0  0  0  0  0
    2.0830   -3.2000    1.7120 C   0  0  0  0  0  0  0  0  0  0  0  0
    1.1460   -4.0620    1.0110 C   0  0  0  0  0  0  0  0  0  0  0  0
    0.9580   -5.3640    1.4230 C   0  0  0  0  0  0  0  0  0  0  0  0
    0.0590   -6.2060    0.7540 C   0  0  0  0  0  0  0  0  0  0  0  0
   -0.6510   -5.7320   -0.3320 C   0  0  0  0  0  0  0  0  0  0  0  0
   -0.4670   -4.4130   -0.7570 C   0  0  0  0  0  0  0  0  0  0  0  0
    0.4370   -3.5970   -0.0710 C   0  0  0  0  0  0  0  0  0  0  0  0
    0.6120   -1.3310    2.5030 C   0  0  0  0  0  0  0  0  0  0  0  0
   -0.5190   -1.3070    3.0990 O   0  0  0  0  0  0  0  0  0  0  0  0
    0.4240   -2.6390    4.5240 H   0  0  0  0  0  0  0  0  0  0  0  0
    0.3640   -4.0350    3.5030 H   0  0  0  0  0  0  0  0  0  0  0  0
    2.4140   -1.9270    3.3550 H   0  0  0  0  0  0  0  0  0  0  0  0
    2.6250   -2.4880    1.0480 H   0  0  0  0  0  0  0  0  0  0  0  0
    2.8940   -3.8570    2.1380 H   0  0  0  0  0  0  0  0  0  0  0  0
    1.4900   -5.7810    2.2670 H   0  0  0  0  0  0  0  0  0  0  0  0
   -0.0550   -7.2190    1.1150 H   0  0  0  0  0  0  0  0  0  0  0  0
   -1.3530   -6.3740   -0.8600 H   0  0  0  0  0  0  0  0  0  0  0  0
   -1.0210   -4.0300   -1.6110 H   0  0  0  0  0  0  0  0  0  0  0  0
    0.6140   -2.5720   -0.3610 H   0  0  0  0  0  0  0  0  0  0  0  0
    1.6870    2.3690    1.0220 C   0  0  0  0  0  0  0  0  0  0  0  0
    0.4280    2.0460    1.7930 C   0  0  0  0  0  0  0  0  0  0  0  0
    0.7680    2.0210    3.2590 C   0  0  0  0  0  0  0  0  0  0  0  0
   -0.1280    0.7110    1.3290 C   0  0  2  0  0  0  0  0  0  0  0  0
    0.8800   -0.3140    1.5710 N   0  0  0  0  0  0  0  0  0  0  0  0
   -0.5120    0.7810   -0.0960 C   0  0  0  0  0  0  0  0  0  0  0  0
    0.0070    0.0260   -0.9600 O   0  0  0  0  0  0  0  0  0  0  0  0
    1.8250    3.4700    1.0850 H   0  0  0  0  0  0  0  0  0  0  0  0
    1.6020    2.1000   -0.0490 H   0  0  0  0  0  0  0  0  0  0  0  0
    2.5490    1.9150    1.5330 H   0  0  0  0  0  0  0  0  0  0  0  0
   -0.3170    2.8250    1.5850 H   0  0  0  0  0  0  0  0  0  0  0  0
    1.0160    3.0530    3.5710 H   0  0  0  0  0  0  0  0  0  0  0  0
    1.6460    1.3360    3.3830 H   0  0  0  0  0  0  0  0  0  0  0  0
   -0.0310    1.6110    3.8900 H   0  0  0  0  0  0  0  0  0  0  0  0
   -1.0390    0.5190    1.9200 H   0  0  0  0  0  0  0  0  0  0  0  0
    1.7900   -0.3280    1.0850 H   0  0  0  0  0  0  0  0  0  0  0  0
   -3.2890    1.3740   -2.1290 C   0  0  0  0  0  0  0  0  0  0  0  0
   -1.8380    1.7380   -2.0050 C   0  0  2  0  0  0  0  0  0  0  0  0
   -1.4850    1.6990   -0.5870 N   0  0  0  0  0  0  0  0  0  0  0  0
   -1.6050    3.1010   -2.5480 C   0  0  0  0  0  0  0  0  0  0  0  0
   -1.8290    3.4020   -3.7450 O   0  0  0  0  0  0  0  0  0  0  0  0
   -1.1200    4.0930   -1.7110 O   0  0  0  0  0  0  0  0  0  0  0  0
   -3.7660    2.0950   -2.8240 H   0  0  0  0  0  0  0  0  0  0  0  0
   -3.8180    1.4620   -1.1480 H   0  0  0  0  0  0  0  0  0  0  0  0
   -3.3930    0.3440   -2.5480 H   0  0  0  0  0  0  0  0  0  0  0  0
   -1.2470    0.9750   -2.5580 H   0  0  0  0  0  0  0  0  0  0  0  0
   -1.9580    2.3530    0.0500 H   0  0  0  0  0  0  0  0  0  0  0  0
  1 12  1  0  0  0  0
  2 14  1  1  0  0  0
  2  1  1  0  0  0  0
  3 16  1  0  0  0  0
  3  2  1  0  0  0  0
  4  5  1  0  0  0  0
  4  3  1  0  0  0  0
  5 17  1  0  0  0  0
  6 18  1  0  0  0  0
  6  5  2  0  0  0  0
  7  6  1  0  0  0  0
  8  7  2  0  0  0  0
  8  9  1  0  0  0  0
  9  4  2  0  0  0  0
 10  2  1  0  0  0  0
 10 11  2  0  0  0  0
 13  1  1  0  0  0  0
 15  3  1  0  0  0  0
 19  7  1  0  0  0  0
 20  8  1  0  0  0  0
 21  9  1  0  0  0  0
 22 29  1  0  0  0  0
 22 31  1  0  0  0  0
 22 23  1  0  0  0  0
 23 24  1  0  0  0  0
 24 34  1  0  0  0  0
 24 33  1  0  0  0  0
 24 35  1  0  0  0  0
 25 26  1  0  0  0  0
 25 23  1  0  0  0  0
 25 36  1  1  0  0  0
 26 10  1  0  0  0  0
 27 25  1  0  0  0  0
 28 27  2  0  0  0  0
 30 22  1  0  0  0  0
 32 23  1  0  0  0  0
 37 26  1  0  0  0  0
 38 39  1  0  0  0  0
 38 45  1  0  0  0  0
 39 47  1  6  0  0  0
 39 40  1  0  0  0  0
 40 27  1  0  0  0  0
 40 48  1  0  0  0  0
 41 39  1  0  0  0  0
 41 43  1  0  0  0  0
 42 41  2  0  0  0  0
 44 38  1  0  0  0  0
 46 38  1  0  0  0  0
M  END
$$$$
