FVE.pdb
 OpenBabel07022419023D

 54 54  0  0  1  0  0  0  0  0999 V2000
    2.3730   -1.5540    3.8190 N   0  0  0  0  0  0  0  0  0  0  0  0
    1.7740   -0.6910    2.8340 C   0  0  1  0  0  0  0  0  0  0  0  0
    2.3100   -1.0450    1.4860 C   0  0  0  0  0  0  0  0  0  0  0  0
    3.7880   -0.8550    1.5380 C   0  0  0  0  0  0  0  0  0  0  0  0
    4.6420   -1.9030    1.8770 C   0  0  0  0  0  0  0  0  0  0  0  0
    6.0020   -1.7220    1.9300 C   0  0  0  0  0  0  0  0  0  0  0  0
    6.5870   -0.4960    1.6510 C   0  0  0  0  0  0  0  0  0  0  0  0
    5.7560    0.5660    1.3090 C   0  0  0  0  0  0  0  0  0  0  0  0
    4.4000    0.3410    1.2670 C   0  0  0  0  0  0  0  0  0  0  0  0
    0.2930   -0.7770    2.9150 C   0  0  0  0  0  0  0  0  0  0  0  0
   -0.2350   -1.4830    3.8150 O   0  0  0  0  0  0  0  0  0  0  0  0
    1.6190   -1.7860    4.5340 H   0  0  0  0  0  0  0  0  0  0  0  0
    3.1110   -1.0440    4.3860 H   0  0  0  0  0  0  0  0  0  0  0  0
    2.1350    0.3460    3.0540 H   0  0  0  0  0  0  0  0  0  0  0  0
    1.8820   -0.3120    0.7560 H   0  0  0  0  0  0  0  0  0  0  0  0
    2.0970   -2.0640    1.1420 H   0  0  0  0  0  0  0  0  0  0  0  0
    4.1990   -2.8670    2.0980 H   0  0  0  0  0  0  0  0  0  0  0  0
    6.6710   -2.5490    2.1970 H   0  0  0  0  0  0  0  0  0  0  0  0
    7.6660   -0.4150    1.7110 H   0  0  0  0  0  0  0  0  0  0  0  0
    6.1960    1.5200    1.0890 H   0  0  0  0  0  0  0  0  0  0  0  0
    3.7440    1.1790    0.9990 H   0  0  0  0  0  0  0  0  0  0  0  0
   -4.1250    1.1510    2.3140 C   0  0  0  0  0  0  0  0  0  0  0  0
   -2.6020    1.2130    2.2380 C   0  0  0  0  0  0  0  0  0  0  0  0
   -2.1480    2.0610    1.0820 C   0  0  0  0  0  0  0  0  0  0  0  0
   -2.0200   -0.1820    2.0940 C   0  0  2  0  0  0  0  0  0  0  0  0
   -0.5840   -0.1090    2.0320 N   0  0  0  0  0  0  0  0  0  0  0  0
   -2.6190   -0.8120    0.9010 C   0  0  0  0  0  0  0  0  0  0  0  0
   -3.8690   -0.9080    0.8630 O   0  0  0  0  0  0  0  0  0  0  0  0
   -4.3740    0.2120    2.8490 H   0  0  0  0  0  0  0  0  0  0  0  0
   -4.5000    1.9890    2.9570 H   0  0  0  0  0  0  0  0  0  0  0  0
   -4.6190    1.2370    1.3440 H   0  0  0  0  0  0  0  0  0  0  0  0
   -2.2180    1.6370    3.1670 H   0  0  0  0  0  0  0  0  0  0  0  0
   -2.9690    2.6850    0.7220 H   0  0  0  0  0  0  0  0  0  0  0  0
   -1.3650    2.7540    1.4440 H   0  0  0  0  0  0  0  0  0  0  0  0
   -1.7920    1.4490    0.2240 H   0  0  0  0  0  0  0  0  0  0  0  0
   -2.3850   -0.7720    2.9630 H   0  0  0  0  0  0  0  0  0  0  0  0
   -0.1480    0.4770    1.2840 H   0  0  0  0  0  0  0  0  0  0  0  0
   -1.8100   -1.2920   -0.1640 N   0  0  0  0  0  0  0  0  0  0  0  0
   -2.4350   -1.9130   -1.3430 C   0  0  1  0  0  0  0  0  0  0  0  0
   -2.0550   -1.0950   -2.5370 C   0  0  0  0  0  0  0  0  0  0  0  0
   -2.6350   -1.5970   -3.8340 C   0  0  0  0  0  0  0  0  0  0  0  0
   -2.2020   -0.6830   -4.9130 C   0  0  0  0  0  0  0  0  0  0  0  0
   -1.0060   -0.3950   -5.1210 O   0  0  0  0  0  0  0  0  0  0  0  0
   -2.0060   -3.3210   -1.4020 C   0  0  0  0  0  0  0  0  0  0  0  0
   -2.4220   -4.0680   -2.3340 O   0  0  0  0  0  0  0  0  0  0  0  0
   -3.1860   -0.1340   -5.7110 O   0  0  0  0  0  0  0  0  0  0  0  0
   -1.1530   -3.8990   -0.4730 O   0  0  0  0  0  0  0  0  0  0  0  0
   -0.7820   -1.1810   -0.0580 H   0  0  0  0  0  0  0  0  0  0  0  0
   -3.5560   -1.8600   -1.1790 H   0  0  0  0  0  0  0  0  0  0  0  0
   -2.4500   -0.0730   -2.3770 H   0  0  0  0  0  0  0  0  0  0  0  0
   -0.9500   -1.1410   -2.6250 H   0  0  0  0  0  0  0  0  0  0  0  0
   -3.7110   -1.7340   -3.8010 H   0  0  0  0  0  0  0  0  0  0  0  0
   -2.2090   -2.5940   -4.1200 H   0  0  0  0  0  0  0  0  0  0  0  0
   -3.0610    0.4450   -6.5100 H   0  0  0  0  0  0  0  0  0  0  0  0
  1 13  1  0  0  0  0
  1 12  1  0  0  0  0
  2 10  1  0  0  0  0
  2 14  1  1  0  0  0
  2  1  1  0  0  0  0
  3  4  1  0  0  0  0
  3  2  1  0  0  0  0
  4  5  1  0  0  0  0
  5  6  2  0  0  0  0
  5 17  1  0  0  0  0
  6 18  1  0  0  0  0
  7 19  1  0  0  0  0
  7  6  1  0  0  0  0
  8  7  2  0  0  0  0
  9  8  1  0  0  0  0
  9  4  2  0  0  0  0
 10 11  2  0  0  0  0
 15  3  1  0  0  0  0
 16  3  1  0  0  0  0
 20  8  1  0  0  0  0
 21  9  1  0  0  0  0
 22 29  1  0  0  0  0
 22 30  1  0  0  0  0
 23 22  1  0  0  0  0
 23 32  1  0  0  0  0
 24 34  1  0  0  0  0
 24 23  1  0  0  0  0
 25 23  1  0  0  0  0
 25 36  1  1  0  0  0
 26 25  1  0  0  0  0
 26 10  1  0  0  0  0
 27 25  1  0  0  0  0
 28 27  2  0  0  0  0
 31 22  1  0  0  0  0
 33 24  1  0  0  0  0
 35 24  1  0  0  0  0
 37 26  1  0  0  0  0
 38 48  1  0  0  0  0
 38 27  1  0  0  0  0
 39 49  1  1  0  0  0
 39 38  1  0  0  0  0
 40 50  1  0  0  0  0
 40 39  1  0  0  0  0
 41 52  1  0  0  0  0
 41 40  1  0  0  0  0
 42 41  1  0  0  0  0
 43 42  2  0  0  0  0
 44 39  1  0  0  0  0
 44 47  1  0  0  0  0
 45 44  2  0  0  0  0
 46 42  1  0  0  0  0
 51 40  1  0  0  0  0
 53 41  1  0  0  0  0
 54 46  1  0  0  0  0
M  END
$$$$
