FVH.pdb
 OpenBabel07022419023D

 55 56  0  0  1  0  0  0  0  0999 V2000
    2.2850   -0.4480   -0.1430 N   0  0  0  0  0  0  0  0  0  0  0  0
    2.2720    0.0530    1.2090 C   0  0  1  0  0  0  0  0  0  0  0  0
    3.3580    1.1260    1.2840 C   0  0  0  0  0  0  0  0  0  0  0  0
    4.6400    0.4340    0.9400 C   0  0  0  0  0  0  0  0  0  0  0  0
    5.1110    0.3360   -0.3460 C   0  0  0  0  0  0  0  0  0  0  0  0
    6.2990   -0.3110   -0.6260 C   0  0  0  0  0  0  0  0  0  0  0  0
    7.0630   -0.8860    0.3810 C   0  0  0  0  0  0  0  0  0  0  0  0
    6.5900   -0.7880    1.6720 C   0  0  0  0  0  0  0  0  0  0  0  0
    5.4050   -0.1430    1.9520 C   0  0  0  0  0  0  0  0  0  0  0  0
    0.9390    0.5990    1.5410 C   0  0  0  0  0  0  0  0  0  0  0  0
    0.7050    1.0860    2.6750 O   0  0  0  0  0  0  0  0  0  0  0  0
    3.0060   -1.1520   -0.3300 H   0  0  0  0  0  0  0  0  0  0  0  0
    2.2070    0.3140   -0.8240 H   0  0  0  0  0  0  0  0  0  0  0  0
    2.5500   -0.7350    1.9370 H   0  0  0  0  0  0  0  0  0  0  0  0
    3.4570    1.5040    2.3070 H   0  0  0  0  0  0  0  0  0  0  0  0
    3.1270    1.9010    0.5280 H   0  0  0  0  0  0  0  0  0  0  0  0
    4.5360    0.7770   -1.1660 H   0  0  0  0  0  0  0  0  0  0  0  0
    6.6710   -0.3870   -1.6490 H   0  0  0  0  0  0  0  0  0  0  0  0
    7.9900   -1.3850    0.1170 H   0  0  0  0  0  0  0  0  0  0  0  0
    7.1810   -1.2350    2.4700 H   0  0  0  0  0  0  0  0  0  0  0  0
    5.0420   -0.0700    2.9650 H   0  0  0  0  0  0  0  0  0  0  0  0
   -0.9450    3.4630    0.1960 C   0  0  0  0  0  0  0  0  0  0  0  0
   -1.8760    2.2900    0.0710 C   0  0  0  0  0  0  0  0  0  0  0  0
   -3.2390    2.7510    0.5860 C   0  0  0  0  0  0  0  0  0  0  0  0
   -1.4530    1.1390    0.9270 C   0  0  2  0  0  0  0  0  0  0  0  0
   -0.1560    0.6190    0.6340 N   0  0  0  0  0  0  0  0  0  0  0  0
   -2.4310    0.0350    0.8670 C   0  0  0  0  0  0  0  0  0  0  0  0
   -3.6320    0.2840    1.0940 O   0  0  0  0  0  0  0  0  0  0  0  0
   -0.6580    3.8970   -0.7860 H   0  0  0  0  0  0  0  0  0  0  0  0
   -1.4040    4.3170    0.7660 H   0  0  0  0  0  0  0  0  0  0  0  0
    0.0310    3.1650    0.6740 H   0  0  0  0  0  0  0  0  0  0  0  0
   -2.0580    1.9950   -0.9860 H   0  0  0  0  0  0  0  0  0  0  0  0
   -3.3160    3.8510    0.4670 H   0  0  0  0  0  0  0  0  0  0  0  0
   -3.3410    2.5370    1.6720 H   0  0  0  0  0  0  0  0  0  0  0  0
   -4.0660    2.3170   -0.0050 H   0  0  0  0  0  0  0  0  0  0  0  0
   -1.4480    1.5110    1.9860 H   0  0  0  0  0  0  0  0  0  0  0  0
    0.0010    0.2220   -0.3180 H   0  0  0  0  0  0  0  0  0  0  0  0
   -2.0380   -1.2860    0.5620 N   0  0  0  0  0  0  0  0  0  0  0  0
   -2.9850   -2.3900    0.4970 C   0  0  1  0  0  0  0  0  0  0  0  0
   -3.0400   -2.9500   -0.9110 C   0  0  0  0  0  0  0  0  0  0  0  0
   -3.9750   -4.0660   -1.0500 C   0  0  0  0  0  0  0  0  0  0  0  0
   -3.7810   -5.4190   -0.9030 C   0  0  0  0  0  0  0  0  0  0  0  0
   -4.9330   -6.0890   -1.1300 N   0  0  0  0  0  0  0  0  0  0  0  0
   -5.8570   -5.1760   -1.4210 C   0  0  0  0  0  0  0  0  0  0  0  0
   -5.2950   -3.9480   -1.3770 N   0  0  0  0  0  0  0  0  0  0  0  0
   -2.6970   -3.4160    1.5140 C   0  0  0  0  0  0  0  0  0  0  0  0
   -3.3790   -4.4520    1.6500 O   0  0  0  0  0  0  0  0  0  0  0  0
   -1.6150   -3.2740    2.3990 O   0  0  0  0  0  0  0  0  0  0  0  0
   -1.0030   -1.4530    0.3750 H   0  0  0  0  0  0  0  0  0  0  0  0
   -3.9860   -1.9680    0.7210 H   0  0  0  0  0  0  0  0  0  0  0  0
   -3.3100   -2.1270   -1.6000 H   0  0  0  0  0  0  0  0  0  0  0  0
   -2.0310   -3.2950   -1.1950 H   0  0  0  0  0  0  0  0  0  0  0  0
   -2.8310   -5.8680   -0.6400 H   0  0  0  0  0  0  0  0  0  0  0  0
   -5.0890   -7.1180   -1.0910 H   0  0  0  0  0  0  0  0  0  0  0  0
   -6.8980   -5.3840   -1.6570 H   0  0  0  0  0  0  0  0  0  0  0  0
  1  2  1  0  0  0  0
  2  3  1  0  0  0  0
  2 10  1  0  0  0  0
  2 14  1  1  0  0  0
  3 15  1  0  0  0  0
  4  3  1  0  0  0  0
  4  9  1  0  0  0  0
  5  4  2  0  0  0  0
  6  5  1  0  0  0  0
  6  7  2  0  0  0  0
  7  8  1  0  0  0  0
  8  9  2  0  0  0  0
  8 20  1  0  0  0  0
  9 21  1  0  0  0  0
 10 11  2  0  0  0  0
 12  1  1  0  0  0  0
 13  1  1  0  0  0  0
 16  3  1  0  0  0  0
 17  5  1  0  0  0  0
 18  6  1  0  0  0  0
 19  7  1  0  0  0  0
 22 31  1  0  0  0  0
 22 30  1  0  0  0  0
 23 22  1  0  0  0  0
 23 24  1  0  0  0  0
 23 25  1  0  0  0  0
 24 34  1  0  0  0  0
 25 36  1  1  0  0  0
 26 25  1  0  0  0  0
 26 10  1  0  0  0  0
 27 25  1  0  0  0  0
 27 28  2  0  0  0  0
 29 22  1  0  0  0  0
 32 23  1  0  0  0  0
 33 24  1  0  0  0  0
 35 24  1  0  0  0  0
 37 26  1  0  0  0  0
 38 27  1  0  0  0  0
 39 38  1  0  0  0  0
 39 50  1  1  0  0  0
 39 46  1  0  0  0  0
 40 39  1  0  0  0  0
 41 40  1  0  0  0  0
 41 42  2  0  0  0  0
 42 53  1  0  0  0  0
 43 54  1  0  0  0  0
 43 42  1  0  0  0  0
 44 45  2  0  0  0  0
 44 43  1  0  0  0  0
 45 41  1  0  0  0  0
 46 47  2  0  0  0  0
 46 48  1  0  0  0  0
 49 38  1  0  0  0  0
 51 40  1  0  0  0  0
 52 40  1  0  0  0  0
 55 44  1  0  0  0  0
M  END
$$$$
