FVI.pdb
 OpenBabel07022419023D

 57 57  0  0  1  0  0  0  0  0999 V2000
   -0.2310   -1.1360    5.4610 N   0  0  0  0  0  0  0  0  0  0  0  0
    0.0980   -0.1710    4.4490 C   0  0  1  0  0  0  0  0  0  0  0  0
    1.6000   -0.3210    4.1580 C   0  0  0  0  0  0  0  0  0  0  0  0
    1.8700   -1.7040    3.6870 C   0  0  0  0  0  0  0  0  0  0  0  0
    1.8300   -2.0800    2.3630 C   0  0  0  0  0  0  0  0  0  0  0  0
    2.0980   -3.3970    2.0100 C   0  0  0  0  0  0  0  0  0  0  0  0
    2.4090   -4.3720    2.9300 C   0  0  0  0  0  0  0  0  0  0  0  0
    2.4480   -3.9900    4.2560 C   0  0  0  0  0  0  0  0  0  0  0  0
    2.1860   -2.6980    4.6130 C   0  0  0  0  0  0  0  0  0  0  0  0
   -0.5960   -0.4000    3.1560 C   0  0  0  0  0  0  0  0  0  0  0  0
   -1.3420   -1.3930    2.9530 O   0  0  0  0  0  0  0  0  0  0  0  0
   -0.9410   -1.8400    5.1620 H   0  0  0  0  0  0  0  0  0  0  0  0
   -0.4500   -0.7170    6.3930 H   0  0  0  0  0  0  0  0  0  0  0  0
   -0.1320    0.8560    4.7740 H   0  0  0  0  0  0  0  0  0  0  0  0
    1.9250    0.4320    3.4150 H   0  0  0  0  0  0  0  0  0  0  0  0
    2.1490   -0.1500    5.1030 H   0  0  0  0  0  0  0  0  0  0  0  0
    1.5950   -1.3700    1.6100 H   0  0  0  0  0  0  0  0  0  0  0  0
    2.0710   -3.7160    0.9600 H   0  0  0  0  0  0  0  0  0  0  0  0
    2.6150   -5.3920    2.6420 H   0  0  0  0  0  0  0  0  0  0  0  0
    2.6890   -4.7170    5.0350 H   0  0  0  0  0  0  0  0  0  0  0  0
    2.2250   -2.4320    5.6590 H   0  0  0  0  0  0  0  0  0  0  0  0
   -3.0300    1.1750    1.9750 C   0  0  0  0  0  0  0  0  0  0  0  0
   -2.1130    1.5030    0.7880 C   0  0  0  0  0  0  0  0  0  0  0  0
   -2.9590    1.5310   -0.4330 C   0  0  0  0  0  0  0  0  0  0  0  0
   -1.0670    0.3860    0.8000 C   0  0  2  0  0  0  0  0  0  0  0  0
   -0.4330    0.5130    2.1040 N   0  0  0  0  0  0  0  0  0  0  0  0
   -0.1060    0.4750   -0.2990 C   0  0  0  0  0  0  0  0  0  0  0  0
    1.1320    0.7200   -0.0920 O   0  0  0  0  0  0  0  0  0  0  0  0
   -3.8560    1.9290    2.0220 H   0  0  0  0  0  0  0  0  0  0  0  0
   -2.4580    1.2220    2.9180 H   0  0  0  0  0  0  0  0  0  0  0  0
   -3.4730    0.1640    1.8630 H   0  0  0  0  0  0  0  0  0  0  0  0
   -1.6770    2.4920    0.9640 H   0  0  0  0  0  0  0  0  0  0  0  0
   -2.4830    2.0910   -1.2640 H   0  0  0  0  0  0  0  0  0  0  0  0
   -3.8620    2.1660   -0.1670 H   0  0  0  0  0  0  0  0  0  0  0  0
   -3.3770    0.5720   -0.7430 H   0  0  0  0  0  0  0  0  0  0  0  0
   -1.6160   -0.5580    0.7910 H   0  0  0  0  0  0  0  0  0  0  0  0
    0.1790    1.3440    2.2470 H   0  0  0  0  0  0  0  0  0  0  0  0
   -0.3090   -2.8070   -4.5740 C   0  0  0  0  0  0  0  0  0  0  0  0
   -0.5810   -1.4670   -3.9220 C   0  0  0  0  0  0  0  0  0  0  0  0
    0.7020   -0.9690   -3.3400 C   0  0  2  0  0  0  0  0  0  0  0  0
    1.1680   -1.9870   -2.3200 C   0  0  0  0  0  0  0  0  0  0  0  0
    0.5860    0.4110   -2.7330 C   0  0  2  0  0  0  0  0  0  0  0  0
   -0.4230    0.3060   -1.6730 N   0  0  0  0  0  0  0  0  0  0  0  0
    0.2480    1.4410   -3.7120 C   0  0  0  0  0  0  0  0  0  0  0  0
    1.0030    1.6570   -4.6770 O   0  0  0  0  0  0  0  0  0  0  0  0
   -0.9040    2.1810   -3.5810 O   0  0  0  0  0  0  0  0  0  0  0  0
   -0.6400   -3.6510   -3.9120 H   0  0  0  0  0  0  0  0  0  0  0  0
   -0.8380   -2.9000   -5.5670 H   0  0  0  0  0  0  0  0  0  0  0  0
    0.7700   -2.8790   -4.8210 H   0  0  0  0  0  0  0  0  0  0  0  0
   -1.0030   -0.8130   -4.7100 H   0  0  0  0  0  0  0  0  0  0  0  0
   -1.3540   -1.6570   -3.1370 H   0  0  0  0  0  0  0  0  0  0  0  0
    1.4630   -0.9730   -4.1570 H   0  0  0  0  0  0  0  0  0  0  0  0
    0.9660   -3.0030   -2.6960 H   0  0  0  0  0  0  0  0  0  0  0  0
    0.6230   -1.8100   -1.3700 H   0  0  0  0  0  0  0  0  0  0  0  0
    2.2560   -1.9220   -2.1330 H   0  0  0  0  0  0  0  0  0  0  0  0
    1.5810    0.6440   -2.3000 H   0  0  0  0  0  0  0  0  0  0  0  0
   -1.3970    0.0950   -1.9620 H   0  0  0  0  0  0  0  0  0  0  0  0
  1 13  1  0  0  0  0
  2 14  1  1  0  0  0
  2  1  1  0  0  0  0
  3  2  1  0  0  0  0
  3 16  1  0  0  0  0
  4  3  1  0  0  0  0
  4  9  1  0  0  0  0
  5  4  2  0  0  0  0
  6  5  1  0  0  0  0
  6  7  2  0  0  0  0
  7  8  1  0  0  0  0
  8  9  2  0  0  0  0
  8 20  1  0  0  0  0
  9 21  1  0  0  0  0
 10  2  1  0  0  0  0
 11 10  2  0  0  0  0
 12  1  1  0  0  0  0
 15  3  1  0  0  0  0
 17  5  1  0  0  0  0
 18  6  1  0  0  0  0
 19  7  1  0  0  0  0
 22 29  1  0  0  0  0
 22 30  1  0  0  0  0
 23 25  1  0  0  0  0
 23 32  1  0  0  0  0
 23 22  1  0  0  0  0
 24 34  1  0  0  0  0
 24 23  1  0  0  0  0
 25 36  1  6  0  0  0
 25 26  1  0  0  0  0
 26 37  1  0  0  0  0
 26 10  1  0  0  0  0
 27 28  2  0  0  0  0
 27 25  1  0  0  0  0
 31 22  1  0  0  0  0
 33 24  1  0  0  0  0
 35 24  1  0  0  0  0
 38 39  1  0  0  0  0
 38 47  1  0  0  0  0
 39 40  1  0  0  0  0
 39 51  1  0  0  0  0
 40 52  1  6  0  0  0
 40 42  1  0  0  0  0
 40 41  1  0  0  0  0
 41 55  1  0  0  0  0
 41 54  1  0  0  0  0
 42 56  1  1  0  0  0
 42 43  1  0  0  0  0
 43 27  1  0  0  0  0
 44 46  1  0  0  0  0
 44 42  1  0  0  0  0
 45 44  2  0  0  0  0
 48 38  1  0  0  0  0
 49 38  1  0  0  0  0
 50 39  1  0  0  0  0
 53 41  1  0  0  0  0
 57 43  1  0  0  0  0
M  END
$$$$
