FVK.pdb
 OpenBabel07022419023D

 59 59  0  0  1  0  0  0  0  0999 V2000
    1.9740    2.7260    3.0550 N   0  0  0  0  0  0  0  0  0  0  0  0
    1.0570    2.4750    1.9620 C   0  0  1  0  0  0  0  0  0  0  0  0
    1.7720    2.4040    0.6370 C   0  0  0  0  0  0  0  0  0  0  0  0
    2.8090    1.3350    0.5930 C   0  0  0  0  0  0  0  0  0  0  0  0
    2.5110    0.0670    0.1730 C   0  0  0  0  0  0  0  0  0  0  0  0
    3.5070   -0.8820    0.1500 C   0  0  0  0  0  0  0  0  0  0  0  0
    4.8050   -0.6270    0.5300 C   0  0  0  0  0  0  0  0  0  0  0  0
    5.0600    0.6660    0.9460 C   0  0  0  0  0  0  0  0  0  0  0  0
    4.0910    1.6400    0.9820 C   0  0  0  0  0  0  0  0  0  0  0  0
    0.2440    1.2930    2.2880 C   0  0  0  0  0  0  0  0  0  0  0  0
    0.5360    0.6050    3.2960 O   0  0  0  0  0  0  0  0  0  0  0  0
    1.6300    3.4600    3.7000 H   0  0  0  0  0  0  0  0  0  0  0  0
    2.1400    1.8060    3.5600 H   0  0  0  0  0  0  0  0  0  0  0  0
    0.3920    3.3950    1.9180 H   0  0  0  0  0  0  0  0  0  0  0  0
    2.2060    3.3780    0.3570 H   0  0  0  0  0  0  0  0  0  0  0  0
    1.0130    2.1530   -0.1350 H   0  0  0  0  0  0  0  0  0  0  0  0
    1.4840   -0.1980   -0.1440 H   0  0  0  0  0  0  0  0  0  0  0  0
    3.2740   -1.9030   -0.1870 H   0  0  0  0  0  0  0  0  0  0  0  0
    5.5890   -1.3960    0.5060 H   0  0  0  0  0  0  0  0  0  0  0  0
    6.0790    0.9110    1.2560 H   0  0  0  0  0  0  0  0  0  0  0  0
    4.3390    2.6680    1.3240 H   0  0  0  0  0  0  0  0  0  0  0  0
   -3.9600   -0.9810    2.6170 C   0  0  0  0  0  0  0  0  0  0  0  0
   -3.0800    0.1880    2.2720 C   0  0  0  0  0  0  0  0  0  0  0  0
   -3.6970    1.0420    1.2140 C   0  0  0  0  0  0  0  0  0  0  0  0
   -1.6760   -0.2750    1.8370 C   0  0  2  0  0  0  0  0  0  0  0  0
   -0.8860    0.8590    1.5240 N   0  0  0  0  0  0  0  0  0  0  0  0
   -1.9380   -1.2000    0.6800 C   0  0  0  0  0  0  0  0  0  0  0  0
   -2.6430   -2.2260    0.8600 O   0  0  0  0  0  0  0  0  0  0  0  0
   -4.5960   -1.3180    1.7680 H   0  0  0  0  0  0  0  0  0  0  0  0
   -4.6800   -0.6190    3.3940 H   0  0  0  0  0  0  0  0  0  0  0  0
   -3.3640   -1.7990    3.0420 H   0  0  0  0  0  0  0  0  0  0  0  0
   -2.9210    0.7780    3.1840 H   0  0  0  0  0  0  0  0  0  0  0  0
   -3.8790    2.0650    1.6020 H   0  0  0  0  0  0  0  0  0  0  0  0
   -3.0840    1.1310    0.2890 H   0  0  0  0  0  0  0  0  0  0  0  0
   -4.6840    0.6340    0.8670 H   0  0  0  0  0  0  0  0  0  0  0  0
   -1.3110   -0.8470    2.7240 H   0  0  0  0  0  0  0  0  0  0  0  0
   -1.1110    1.4500    0.6980 H   0  0  0  0  0  0  0  0  0  0  0  0
   -1.4050   -0.9280   -0.5910 N   0  0  0  0  0  0  0  0  0  0  0  0
   -1.5420   -1.7060   -1.7890 C   0  0  1  0  0  0  0  0  0  0  0  0
   -1.7910   -3.1710   -1.5860 C   0  0  0  0  0  0  0  0  0  0  0  0
   -0.7250   -3.9290   -0.8840 C   0  0  0  0  0  0  0  0  0  0  0  0
    0.6050   -3.8880   -1.6240 C   0  0  0  0  0  0  0  0  0  0  0  0
    1.6230   -4.7040   -0.8250 C   0  0  0  0  0  0  0  0  0  0  0  0
    1.7970   -4.1710    0.4940 N   0  0  0  0  0  0  0  0  0  0  0  0
   -2.5480   -1.1620   -2.7150 C   0  0  0  0  0  0  0  0  0  0  0  0
   -3.1960   -0.1070   -2.4260 O   0  0  0  0  0  0  0  0  0  0  0  0
   -2.8530   -1.7430   -3.9360 O   0  0  0  0  0  0  0  0  0  0  0  0
   -0.8280   -0.0100   -0.6300 H   0  0  0  0  0  0  0  0  0  0  0  0
   -0.5010   -1.6480   -2.2790 H   0  0  0  0  0  0  0  0  0  0  0  0
   -2.7580   -3.3360   -1.0760 H   0  0  0  0  0  0  0  0  0  0  0  0
   -1.8910   -3.6320   -2.6170 H   0  0  0  0  0  0  0  0  0  0  0  0
   -0.6310   -3.6620    0.1530 H   0  0  0  0  0  0  0  0  0  0  0  0
   -1.0360   -5.0130   -0.9050 H   0  0  0  0  0  0  0  0  0  0  0  0
    0.9700   -2.8540   -1.5800 H   0  0  0  0  0  0  0  0  0  0  0  0
    0.4780   -4.3030   -2.6240 H   0  0  0  0  0  0  0  0  0  0  0  0
    1.4060   -5.7730   -0.8650 H   0  0  0  0  0  0  0  0  0  0  0  0
    2.6010   -4.5630   -1.3630 H   0  0  0  0  0  0  0  0  0  0  0  0
    1.6640   -4.8460    1.2550 H   0  0  0  0  0  0  0  0  0  0  0  0
    1.3340   -3.2530    0.6300 H   0  0  0  0  0  0  0  0  0  0  0  0
  1 13  1  0  0  0  0
  1 12  1  0  0  0  0
  2 14  1  6  0  0  0
  2 10  1  0  0  0  0
  2  1  1  0  0  0  0
  3  2  1  0  0  0  0
  4  3  1  0  0  0  0
  4  9  1  0  0  0  0
  5  4  2  0  0  0  0
  6  5  1  0  0  0  0
  6  7  2  0  0  0  0
  7  8  1  0  0  0  0
  8  9  2  0  0  0  0
  8 20  1  0  0  0  0
  9 21  1  0  0  0  0
 10 11  2  0  0  0  0
 15  3  1  0  0  0  0
 16  3  1  0  0  0  0
 17  5  1  0  0  0  0
 18  6  1  0  0  0  0
 19  7  1  0  0  0  0
 22 31  1  0  0  0  0
 22 30  1  0  0  0  0
 23 22  1  0  0  0  0
 23 32  1  0  0  0  0
 24 33  1  0  0  0  0
 24 23  1  0  0  0  0
 25 23  1  0  0  0  0
 25 36  1  1  0  0  0
 26 25  1  0  0  0  0
 26 10  1  0  0  0  0
 27 28  2  0  0  0  0
 27 25  1  0  0  0  0
 29 22  1  0  0  0  0
 34 24  1  0  0  0  0
 35 24  1  0  0  0  0
 37 26  1  0  0  0  0
 38 27  1  0  0  0  0
 39 49  1  6  0  0  0
 39 40  1  0  0  0  0
 39 38  1  0  0  0  0
 40 50  1  0  0  0  0
 40 41  1  0  0  0  0
 41 52  1  0  0  0  0
 42 54  1  0  0  0  0
 42 41  1  0  0  0  0
 42 43  1  0  0  0  0
 43 44  1  0  0  0  0
 44 59  1  0  0  0  0
 44 58  1  0  0  0  0
 45 46  1  0  0  0  0
 45 39  1  0  0  0  0
 47 45  2  0  0  0  0
 48 38  1  0  0  0  0
 51 40  1  0  0  0  0
 53 41  1  0  0  0  0
 55 42  1  0  0  0  0
 56 43  1  0  0  0  0
 57 43  1  0  0  0  0
M  END
$$$$
