FVM.pdb
 OpenBabel07022419023D

 55 55  0  0  1  0  0  0  0  0999 V2000
    0.1870   -0.8030    5.5120 N   0  0  0  0  0  0  0  0  0  0  0  0
    0.9870   -0.7430    4.2630 C   0  0  1  0  0  0  0  0  0  0  0  0
    1.5440   -2.1060    4.0340 C   0  0  0  0  0  0  0  0  0  0  0  0
    2.3850   -2.2330    2.8420 C   0  0  0  0  0  0  0  0  0  0  0  0
    3.7260   -1.8970    2.9910 C   0  0  0  0  0  0  0  0  0  0  0  0
    4.5940   -2.0190    1.9360 C   0  0  0  0  0  0  0  0  0  0  0  0
    4.1890   -2.4720    0.6980 C   0  0  0  0  0  0  0  0  0  0  0  0
    2.8610   -2.8060    0.5430 C   0  0  0  0  0  0  0  0  0  0  0  0
    1.9890   -2.6790    1.6170 C   0  0  0  0  0  0  0  0  0  0  0  0
    0.1130   -0.2480    3.1920 C   0  0  0  0  0  0  0  0  0  0  0  0
   -1.1380   -0.1820    3.4010 O   0  0  0  0  0  0  0  0  0  0  0  0
    0.3390    0.0500    6.0860 H   0  0  0  0  0  0  0  0  0  0  0  0
   -0.8020   -0.8790    5.2400 H   0  0  0  0  0  0  0  0  0  0  0  0
    1.8370   -0.0320    4.4040 H   0  0  0  0  0  0  0  0  0  0  0  0
    2.0850   -2.4340    4.9660 H   0  0  0  0  0  0  0  0  0  0  0  0
    0.6730   -2.8240    3.9160 H   0  0  0  0  0  0  0  0  0  0  0  0
    4.0980   -1.5370    3.9390 H   0  0  0  0  0  0  0  0  0  0  0  0
    5.6470   -1.7480    2.0770 H   0  0  0  0  0  0  0  0  0  0  0  0
    4.8810   -2.5630   -0.1230 H   0  0  0  0  0  0  0  0  0  0  0  0
    2.4530   -3.1700   -0.3900 H   0  0  0  0  0  0  0  0  0  0  0  0
    0.9440   -2.9440    1.4850 H   0  0  0  0  0  0  0  0  0  0  0  0
   -0.3570    2.7090    2.2380 C   0  0  0  0  0  0  0  0  0  0  0  0
   -0.1340    2.1680    0.8120 C   0  0  0  0  0  0  0  0  0  0  0  0
   -1.0780    2.9060   -0.0680 C   0  0  0  0  0  0  0  0  0  0  0  0
   -0.4240    0.6810    0.9240 C   0  0  2  0  0  0  0  0  0  0  0  0
    0.5390    0.1810    1.9170 N   0  0  0  0  0  0  0  0  0  0  0  0
   -0.3580   -0.0430   -0.3490 C   0  0  0  0  0  0  0  0  0  0  0  0
    0.5360   -0.9090   -0.6130 O   0  0  0  0  0  0  0  0  0  0  0  0
   -1.3660    2.4440    2.6070 H   0  0  0  0  0  0  0  0  0  0  0  0
    0.3910    2.2500    2.9210 H   0  0  0  0  0  0  0  0  0  0  0  0
   -0.2280    3.8170    2.1770 H   0  0  0  0  0  0  0  0  0  0  0  0
    0.8950    2.4020    0.5510 H   0  0  0  0  0  0  0  0  0  0  0  0
   -2.1460    2.7060    0.1540 H   0  0  0  0  0  0  0  0  0  0  0  0
   -0.8650    2.8510   -1.1440 H   0  0  0  0  0  0  0  0  0  0  0  0
   -0.9460    4.0100    0.1760 H   0  0  0  0  0  0  0  0  0  0  0  0
   -1.4400    0.5800    1.3400 H   0  0  0  0  0  0  0  0  0  0  0  0
    1.5410    0.1540    1.6640 H   0  0  0  0  0  0  0  0  0  0  0  0
   -3.9340   -4.3530   -3.3230 C   0  0  0  0  0  0  0  0  0  0  0  0
   -4.0990   -3.3190   -1.8610 S   0  0  0  0  0  0  0  0  0  0  0  0
   -2.5560   -2.3750   -1.6110 C   0  0  0  0  0  0  0  0  0  0  0  0
   -2.4370   -1.4270   -2.7660 C   0  0  0  0  0  0  0  0  0  0  0  0
   -1.1840   -0.5860   -2.6650 C   0  0  2  0  0  0  0  0  0  0  0  0
   -1.2960    0.1610   -1.4050 N   0  0  0  0  0  0  0  0  0  0  0  0
   -1.0910    0.3300   -3.8170 C   0  0  0  0  0  0  0  0  0  0  0  0
   -1.1170    1.5680   -3.6040 O   0  0  0  0  0  0  0  0  0  0  0  0
   -0.9750   -0.0970   -5.1260 O   0  0  0  0  0  0  0  0  0  0  0  0
   -4.8390   -4.2560   -3.9690 H   0  0  0  0  0  0  0  0  0  0  0  0
   -3.7140   -5.3970   -3.0690 H   0  0  0  0  0  0  0  0  0  0  0  0
   -3.0990   -3.9400   -3.9480 H   0  0  0  0  0  0  0  0  0  0  0  0
   -1.6930   -3.0610   -1.6190 H   0  0  0  0  0  0  0  0  0  0  0  0
   -2.6410   -1.8910   -0.6390 H   0  0  0  0  0  0  0  0  0  0  0  0
   -2.3380   -2.0560   -3.6920 H   0  0  0  0  0  0  0  0  0  0  0  0
   -3.3520   -0.7970   -2.8760 H   0  0  0  0  0  0  0  0  0  0  0  0
   -0.3290   -1.2850   -2.6390 H   0  0  0  0  0  0  0  0  0  0  0  0
   -2.0730    0.8390   -1.2730 H   0  0  0  0  0  0  0  0  0  0  0  0
  1 12  1  0  0  0  0
  2 14  1  1  0  0  0
  2  1  1  0  0  0  0
  3  2  1  0  0  0  0
  3 15  1  0  0  0  0
  4  5  1  0  0  0  0
  4  3  1  0  0  0  0
  5 17  1  0  0  0  0
  6 18  1  0  0  0  0
  6  5  2  0  0  0  0
  7  6  1  0  0  0  0
  8  7  2  0  0  0  0
  8  9  1  0  0  0  0
  9  4  2  0  0  0  0
 10 11  2  0  0  0  0
 10  2  1  0  0  0  0
 13  1  1  0  0  0  0
 16  3  1  0  0  0  0
 19  7  1  0  0  0  0
 20  8  1  0  0  0  0
 21  9  1  0  0  0  0
 22 29  1  0  0  0  0
 22 30  1  0  0  0  0
 23 25  1  0  0  0  0
 23 22  1  0  0  0  0
 24 33  1  0  0  0  0
 24 35  1  0  0  0  0
 24 23  1  0  0  0  0
 25 36  1  1  0  0  0
 25 26  1  0  0  0  0
 26 10  1  0  0  0  0
 27 25  1  0  0  0  0
 28 27  2  0  0  0  0
 31 22  1  0  0  0  0
 32 23  1  0  0  0  0
 34 24  1  0  0  0  0
 37 26  1  0  0  0  0
 38 48  1  0  0  0  0
 38 39  1  0  0  0  0
 39 40  1  0  0  0  0
 40 51  1  0  0  0  0
 41 42  1  0  0  0  0
 41 40  1  0  0  0  0
 42 54  1  1  0  0  0
 42 43  1  0  0  0  0
 43 55  1  0  0  0  0
 43 27  1  0  0  0  0
 44 45  1  0  0  0  0
 44 42  1  0  0  0  0
 46 44  2  0  0  0  0
 47 38  1  0  0  0  0
 49 38  1  0  0  0  0
 50 40  1  0  0  0  0
 52 41  1  0  0  0  0
 53 41  1  0  0  0  0
M  END
$$$$
