FVP.pdb
 OpenBabel07022419023D

 52 53  0  0  1  0  0  0  0  0999 V2000
    2.8090   -4.2610    1.6410 N   0  0  0  0  0  0  0  0  0  0  0  0
    2.6950   -2.8390    1.2690 C   0  0  1  0  0  0  0  0  0  0  0  0
    3.3700   -2.6740   -0.0460 C   0  0  0  0  0  0  0  0  0  0  0  0
    3.3800   -1.3320   -0.6080 C   0  0  0  0  0  0  0  0  0  0  0  0
    4.4130   -0.4620   -0.2420 C   0  0  0  0  0  0  0  0  0  0  0  0
    4.4560    0.8080   -0.7760 C   0  0  0  0  0  0  0  0  0  0  0  0
    3.5180    1.2780   -1.6700 C   0  0  0  0  0  0  0  0  0  0  0  0
    2.5110    0.3940   -2.0110 C   0  0  0  0  0  0  0  0  0  0  0  0
    2.4350   -0.8830   -1.4980 C   0  0  0  0  0  0  0  0  0  0  0  0
    1.2840   -2.4880    1.3450 C   0  0  0  0  0  0  0  0  0  0  0  0
    0.4090   -3.4090    1.5020 O   0  0  0  0  0  0  0  0  0  0  0  0
    3.8290   -4.5140    1.7640 H   0  0  0  0  0  0  0  0  0  0  0  0
    2.3720   -4.3730    2.5700 H   0  0  0  0  0  0  0  0  0  0  0  0
    3.3250   -2.3080    2.0340 H   0  0  0  0  0  0  0  0  0  0  0  0
    2.9830   -3.4090   -0.7910 H   0  0  0  0  0  0  0  0  0  0  0  0
    4.4410   -2.9810    0.1000 H   0  0  0  0  0  0  0  0  0  0  0  0
    5.1880   -0.7520    0.4530 H   0  0  0  0  0  0  0  0  0  0  0  0
    5.2520    1.4820   -0.4950 H   0  0  0  0  0  0  0  0  0  0  0  0
    3.5530    2.2750   -2.0890 H   0  0  0  0  0  0  0  0  0  0  0  0
    1.7670    0.7460   -2.7110 H   0  0  0  0  0  0  0  0  0  0  0  0
    1.6130   -1.5510   -1.7990 H   0  0  0  0  0  0  0  0  0  0  0  0
   -0.4300   -1.0930    3.8490 C   0  0  0  0  0  0  0  0  0  0  0  0
   -0.9380   -0.2540    2.6980 C   0  0  0  0  0  0  0  0  0  0  0  0
   -0.1010    1.0300    2.7410 C   0  0  0  0  0  0  0  0  0  0  0  0
   -0.7240   -0.9710    1.3680 C   0  0  2  0  0  0  0  0  0  0  0  0
    0.7370   -1.1690    1.2650 N   0  0  0  0  0  0  0  0  0  0  0  0
   -1.2600   -0.1950    0.2410 C   0  0  0  0  0  0  0  0  0  0  0  0
   -0.3690    0.3390   -0.5200 O   0  0  0  0  0  0  0  0  0  0  0  0
   -1.1010   -1.9280    4.0920 H   0  0  0  0  0  0  0  0  0  0  0  0
   -0.3340   -0.3950    4.7200 H   0  0  0  0  0  0  0  0  0  0  0  0
    0.5990   -1.4100    3.5890 H   0  0  0  0  0  0  0  0  0  0  0  0
   -1.9730    0.0630    2.7940 H   0  0  0  0  0  0  0  0  0  0  0  0
   -0.2540    1.6300    1.8230 H   0  0  0  0  0  0  0  0  0  0  0  0
   -0.4830    1.6070    3.6090 H   0  0  0  0  0  0  0  0  0  0  0  0
    0.9640    0.8100    2.9490 H   0  0  0  0  0  0  0  0  0  0  0  0
   -1.2590   -1.9280    1.4340 H   0  0  0  0  0  0  0  0  0  0  0  0
    1.4010   -0.3900    1.1390 H   0  0  0  0  0  0  0  0  0  0  0  0
   -2.6110    0.0090   -0.0750 N   0  0  0  0  0  0  0  0  0  0  0  0
   -3.0980    0.8150   -1.1720 C   0  0  0  0  0  0  0  0  0  0  0  0
   -4.1510    1.6620   -0.4460 C   0  0  0  0  0  0  0  0  0  0  0  0
   -4.7600    0.6520    0.4970 C   0  0  0  0  0  0  0  0  0  0  0  0
   -3.7800   -0.5250    0.5560 C   0  0  1  0  0  0  0  0  0  0  0  0
   -4.3540   -1.6280   -0.3090 C   0  0  0  0  0  0  0  0  0  0  0  0
   -5.4070   -2.2110    0.0710 O   0  0  0  0  0  0  0  0  0  0  0  0
   -3.7890   -2.0280   -1.4880 O   0  0  0  0  0  0  0  0  0  0  0  0
   -3.6370    0.2450   -1.9490 H   0  0  0  0  0  0  0  0  0  0  0  0
   -2.3080    1.4600   -1.6040 H   0  0  0  0  0  0  0  0  0  0  0  0
   -3.5480    2.4280    0.1200 H   0  0  0  0  0  0  0  0  0  0  0  0
   -4.8620    2.1210   -1.1310 H   0  0  0  0  0  0  0  0  0  0  0  0
   -4.9400    1.0630    1.5030 H   0  0  0  0  0  0  0  0  0  0  0  0
   -5.7220    0.3180    0.0590 H   0  0  0  0  0  0  0  0  0  0  0  0
   -3.6670   -0.9140    1.5620 H   0  0  0  0  0  0  0  0  0  0  0  0
  1 12  1  0  0  0  0
  1 13  1  0  0  0  0
  2 10  1  0  0  0  0
  2  1  1  0  0  0  0
  2 14  1  1  0  0  0
  3 16  1  0  0  0  0
  3  2  1  0  0  0  0
  4  5  1  0  0  0  0
  4  3  1  0  0  0  0
  5 17  1  0  0  0  0
  6 18  1  0  0  0  0
  6  5  2  0  0  0  0
  7  6  1  0  0  0  0
  8  7  2  0  0  0  0
  8  9  1  0  0  0  0
  9  4  2  0  0  0  0
 10 11  2  0  0  0  0
 15  3  1  0  0  0  0
 19  7  1  0  0  0  0
 20  8  1  0  0  0  0
 21  9  1  0  0  0  0
 22 29  1  0  0  0  0
 22 30  1  0  0  0  0
 23 24  1  0  0  0  0
 23 32  1  0  0  0  0
 23 22  1  0  0  0  0
 24 35  1  0  0  0  0
 24 34  1  0  0  0  0
 25 36  1  1  0  0  0
 25 23  1  0  0  0  0
 26 10  1  0  0  0  0
 26 25  1  0  0  0  0
 27 25  1  0  0  0  0
 28 27  2  0  0  0  0
 31 22  1  0  0  0  0
 33 24  1  0  0  0  0
 37 26  1  0  0  0  0
 38 27  1  0  0  0  0
 38 42  1  0  0  0  0
 39 40  1  0  0  0  0
 39 38  1  0  0  0  0
 40 48  1  0  0  0  0
 40 41  1  0  0  0  0
 41 42  1  0  0  0  0
 41 50  1  0  0  0  0
 42 52  1  1  0  0  0
 43 44  1  0  0  0  0
 43 42  1  0  0  0  0
 45 43  2  0  0  0  0
 46 39  1  0  0  0  0
 47 39  1  0  0  0  0
 49 40  1  0  0  0  0
 51 41  1  0  0  0  0
M  END
$$$$
