FVR.pdb
 OpenBabel07022419023D

 61 61  0  0  1  0  0  0  0  0999 V2000
   -2.9430    1.3380    3.8020 N   0  0  0  0  0  0  0  0  0  0  0  0
   -2.5460    0.6630    2.5850 C   0  0  1  0  0  0  0  0  0  0  0  0
   -1.9040    1.6810    1.6730 C   0  0  0  0  0  0  0  0  0  0  0  0
   -2.9130    2.7360    1.3920 C   0  0  0  0  0  0  0  0  0  0  0  0
   -2.9980    3.8380    2.2130 C   0  0  0  0  0  0  0  0  0  0  0  0
   -3.9270    4.8530    1.9930 C   0  0  0  0  0  0  0  0  0  0  0  0
   -4.7720    4.7120    0.9080 C   0  0  0  0  0  0  0  0  0  0  0  0
   -4.6760    3.5950    0.0880 C   0  0  0  0  0  0  0  0  0  0  0  0
   -3.7540    2.5970    0.3140 C   0  0  0  0  0  0  0  0  0  0  0  0
   -1.6980   -0.4750    2.9160 C   0  0  0  0  0  0  0  0  0  0  0  0
   -1.4330   -0.7350    4.1150 O   0  0  0  0  0  0  0  0  0  0  0  0
   -2.0540    1.6890    4.2610 H   0  0  0  0  0  0  0  0  0  0  0  0
   -3.3900    0.6750    4.4570 H   0  0  0  0  0  0  0  0  0  0  0  0
   -3.4900    0.3390    2.0560 H   0  0  0  0  0  0  0  0  0  0  0  0
   -1.0120    2.1600    2.1280 H   0  0  0  0  0  0  0  0  0  0  0  0
   -1.6260    1.2420    0.6890 H   0  0  0  0  0  0  0  0  0  0  0  0
   -2.3510    3.9910    3.0800 H   0  0  0  0  0  0  0  0  0  0  0  0
   -4.0010    5.7210    2.6310 H   0  0  0  0  0  0  0  0  0  0  0  0
   -5.5180    5.4510    0.6670 H   0  0  0  0  0  0  0  0  0  0  0  0
   -5.3530    3.5130   -0.7570 H   0  0  0  0  0  0  0  0  0  0  0  0
   -3.7230    1.7410   -0.3640 H   0  0  0  0  0  0  0  0  0  0  0  0
   -0.2910   -4.9760    2.2610 C   0  0  0  0  0  0  0  0  0  0  0  0
   -1.0280   -3.7190    1.9260 C   0  0  0  0  0  0  0  0  0  0  0  0
   -1.4370   -3.6670    0.4620 C   0  0  0  0  0  0  0  0  0  0  0  0
   -0.2890   -2.4720    2.3330 C   0  0  2  0  0  0  0  0  0  0  0  0
   -1.1310   -1.3440    1.9410 N   0  0  0  0  0  0  0  0  0  0  0  0
    1.0590   -2.3650    1.8000 C   0  0  0  0  0  0  0  0  0  0  0  0
    1.9040   -3.2580    2.0550 O   0  0  0  0  0  0  0  0  0  0  0  0
    0.3660   -5.3360    1.4470 H   0  0  0  0  0  0  0  0  0  0  0  0
    0.2360   -4.8150    3.2200 H   0  0  0  0  0  0  0  0  0  0  0  0
   -1.0380   -5.7800    2.4300 H   0  0  0  0  0  0  0  0  0  0  0  0
   -1.9720   -3.7310    2.5130 H   0  0  0  0  0  0  0  0  0  0  0  0
   -0.5580   -3.3420   -0.1670 H   0  0  0  0  0  0  0  0  0  0  0  0
   -2.3240   -3.0210    0.2940 H   0  0  0  0  0  0  0  0  0  0  0  0
   -1.7000   -4.6730    0.0760 H   0  0  0  0  0  0  0  0  0  0  0  0
   -0.2100   -2.4940    3.4540 H   0  0  0  0  0  0  0  0  0  0  0  0
   -1.3320   -1.1540    0.9530 H   0  0  0  0  0  0  0  0  0  0  0  0
    1.3600   -4.1930   -3.1780 N   0  0  0  0  0  0  0  0  0  0  0  0
    1.7700   -2.8930   -3.5380 C   0  0  0  0  0  0  0  0  0  0  0  0
    0.9010   -1.9230   -3.6940 N   0  0  0  0  0  0  0  0  0  0  0  0
    3.1320   -2.5350   -3.7570 N   0  0  0  0  0  0  0  0  0  0  0  0
    3.7120   -1.3010   -3.3150 C   0  0  0  0  0  0  0  0  0  0  0  0
    3.8950   -1.1730   -1.8440 C   0  0  0  0  0  0  0  0  0  0  0  0
    2.6080   -1.2740   -1.0850 C   0  0  0  0  0  0  0  0  0  0  0  0
    2.8030   -1.1220    0.4360 C   0  0  2  0  0  0  0  0  0  0  0  0
    1.4350   -1.2640    0.9960 N   0  0  0  0  0  0  0  0  0  0  0  0
    3.3270    0.2030    0.7740 C   0  0  0  0  0  0  0  0  0  0  0  0
    4.4880    0.5300    0.4670 O   0  0  0  0  0  0  0  0  0  0  0  0
    2.5210    1.1350    1.4560 O   0  0  0  0  0  0  0  0  0  0  0  0
    1.6430   -4.9980   -3.7930 H   0  0  0  0  0  0  0  0  0  0  0  0
    0.7870   -4.3780   -2.3250 H   0  0  0  0  0  0  0  0  0  0  0  0
   -0.1080   -2.0870   -3.5580 H   0  0  0  0  0  0  0  0  0  0  0  0
    3.6960   -3.2720   -4.2820 H   0  0  0  0  0  0  0  0  0  0  0  0
    4.7230   -1.2330   -3.8240 H   0  0  0  0  0  0  0  0  0  0  0  0
    3.0760   -0.4710   -3.7140 H   0  0  0  0  0  0  0  0  0  0  0  0
    4.5640   -2.0290   -1.5340 H   0  0  0  0  0  0  0  0  0  0  0  0
    4.4740   -0.2390   -1.6310 H   0  0  0  0  0  0  0  0  0  0  0  0
    1.9010   -0.5280   -1.4710 H   0  0  0  0  0  0  0  0  0  0  0  0
    2.2100   -2.3000   -1.2840 H   0  0  0  0  0  0  0  0  0  0  0  0
    3.3920   -1.9770    0.7660 H   0  0  0  0  0  0  0  0  0  0  0  0
    0.7120   -0.5420    0.8020 H   0  0  0  0  0  0  0  0  0  0  0  0
  1 12  1  0  0  0  0
  1 13  1  0  0  0  0
  2 14  1  6  0  0  0
  2 10  1  0  0  0  0
  2  1  1  0  0  0  0
  3 15  1  0  0  0  0
  3  2  1  0  0  0  0
  4  3  1  0  0  0  0
  4  5  1  0  0  0  0
  5 17  1  0  0  0  0
  6  5  2  0  0  0  0
  6 18  1  0  0  0  0
  7  6  1  0  0  0  0
  8  9  1  0  0  0  0
  8  7  2  0  0  0  0
  9  4  2  0  0  0  0
 10 11  2  0  0  0  0
 16  3  1  0  0  0  0
 19  7  1  0  0  0  0
 20  8  1  0  0  0  0
 21  9  1  0  0  0  0
 22 31  1  0  0  0  0
 22 30  1  0  0  0  0
 23 22  1  0  0  0  0
 23 25  1  0  0  0  0
 23 32  1  0  0  0  0
 24 23  1  0  0  0  0
 25 36  1  1  0  0  0
 26 25  1  0  0  0  0
 26 10  1  0  0  0  0
 27 28  2  0  0  0  0
 27 25  1  0  0  0  0
 29 22  1  0  0  0  0
 33 24  1  0  0  0  0
 34 24  1  0  0  0  0
 35 24  1  0  0  0  0
 37 26  1  0  0  0  0
 38 51  1  0  0  0  0
 39 38  1  0  0  0  0
 40 52  1  0  0  0  0
 40 39  2  0  0  0  0
 41 39  1  0  0  0  0
 41 42  1  0  0  0  0
 42 43  1  0  0  0  0
 43 57  1  0  0  0  0
 43 56  1  0  0  0  0
 43 44  1  0  0  0  0
 44 45  1  0  0  0  0
 45 60  1  1  0  0  0
 45 47  1  0  0  0  0
 45 46  1  0  0  0  0
 46 27  1  0  0  0  0
 47 49  1  0  0  0  0
 48 47  2  0  0  0  0
 50 38  1  0  0  0  0
 53 41  1  0  0  0  0
 54 42  1  0  0  0  0
 55 42  1  0  0  0  0
 58 44  1  0  0  0  0
 59 44  1  0  0  0  0
 61 46  1  0  0  0  0
M  END
$$$$
