FVS.pdb
 OpenBabel07022419023D

 49 49  0  0  1  0  0  0  0  0999 V2000
    2.8120   -3.4180    3.2970 N   0  0  0  0  0  0  0  0  0  0  0  0
    2.6610   -2.5850    2.0800 C   0  0  1  0  0  0  0  0  0  0  0  0
    2.5570   -3.5290    0.9420 C   0  0  0  0  0  0  0  0  0  0  0  0
    2.4010   -2.9610   -0.3940 C   0  0  0  0  0  0  0  0  0  0  0  0
    1.1880   -2.8060   -1.0130 C   0  0  0  0  0  0  0  0  0  0  0  0
    1.0930   -2.2570   -2.2660 C   0  0  0  0  0  0  0  0  0  0  0  0
    2.2170   -1.8440   -2.9430 C   0  0  0  0  0  0  0  0  0  0  0  0
    3.4210   -1.9970   -2.3310 C   0  0  0  0  0  0  0  0  0  0  0  0
    3.5500   -2.5450   -1.0730 C   0  0  0  0  0  0  0  0  0  0  0  0
    1.4950   -1.7210    2.2980 C   0  0  0  0  0  0  0  0  0  0  0  0
    0.7610   -1.8820    3.3310 O   0  0  0  0  0  0  0  0  0  0  0  0
    1.9250   -4.0050    3.3230 H   0  0  0  0  0  0  0  0  0  0  0  0
    2.7260   -2.7320    4.0840 H   0  0  0  0  0  0  0  0  0  0  0  0
    3.6210   -1.9990    2.0470 H   0  0  0  0  0  0  0  0  0  0  0  0
    3.4470   -4.2250    0.9660 H   0  0  0  0  0  0  0  0  0  0  0  0
    1.6750   -4.2310    1.0840 H   0  0  0  0  0  0  0  0  0  0  0  0
    0.2840   -3.1260   -0.4940 H   0  0  0  0  0  0  0  0  0  0  0  0
    0.1330   -2.1400   -2.7410 H   0  0  0  0  0  0  0  0  0  0  0  0
    2.1150   -1.4220   -3.9180 H   0  0  0  0  0  0  0  0  0  0  0  0
    4.3120   -1.6600   -2.8840 H   0  0  0  0  0  0  0  0  0  0  0  0
    4.5280   -2.6550   -0.6060 H   0  0  0  0  0  0  0  0  0  0  0  0
    1.3250    1.8460    2.9420 C   0  0  0  0  0  0  0  0  0  0  0  0
    0.2940    1.6100    1.8650 C   0  0  0  0  0  0  0  0  0  0  0  0
    0.9230    2.0880    0.5550 C   0  0  0  0  0  0  0  0  0  0  0  0
   -0.0820    0.1400    1.7570 C   0  0  2  0  0  0  0  0  0  0  0  0
    1.0730   -0.6630    1.4400 N   0  0  0  0  0  0  0  0  0  0  0  0
   -1.2080   -0.0350    0.7900 C   0  0  0  0  0  0  0  0  0  0  0  0
   -1.1410   -0.7870   -0.1900 O   0  0  0  0  0  0  0  0  0  0  0  0
    2.0340    2.6720    2.6470 H   0  0  0  0  0  0  0  0  0  0  0  0
    1.9680    0.9670    3.1140 H   0  0  0  0  0  0  0  0  0  0  0  0
    0.8310    2.2050    3.8930 H   0  0  0  0  0  0  0  0  0  0  0  0
   -0.5910    2.2350    2.0560 H   0  0  0  0  0  0  0  0  0  0  0  0
    0.8400    3.1930    0.5480 H   0  0  0  0  0  0  0  0  0  0  0  0
    1.9890    1.8330    0.5000 H   0  0  0  0  0  0  0  0  0  0  0  0
    0.3440    1.7120   -0.3180 H   0  0  0  0  0  0  0  0  0  0  0  0
   -0.4660   -0.1780    2.7450 H   0  0  0  0  0  0  0  0  0  0  0  0
    1.6520   -0.5020    0.5810 H   0  0  0  0  0  0  0  0  0  0  0  0
   -4.4610   -1.3000    1.1650 O   0  0  0  0  0  0  0  0  0  0  0  0
   -4.7880   -0.0280    0.7450 C   0  0  0  0  0  0  0  0  0  0  0  0
   -3.5620    0.5830    0.1040 C   0  0  2  0  0  0  0  0  0  0  0  0
   -2.4390    0.6830    0.9730 N   0  0  0  0  0  0  0  0  0  0  0  0
   -3.8720    1.8460   -0.6070 C   0  0  0  0  0  0  0  0  0  0  0  0
   -3.2080    2.8960   -0.4530 O   0  0  0  0  0  0  0  0  0  0  0  0
   -4.9410    1.8900   -1.4840 O   0  0  0  0  0  0  0  0  0  0  0  0
   -5.0430   -1.9880    0.7620 H   0  0  0  0  0  0  0  0  0  0  0  0
   -5.2720    0.6000    1.4910 H   0  0  0  0  0  0  0  0  0  0  0  0
   -5.5320   -0.1410   -0.0990 H   0  0  0  0  0  0  0  0  0  0  0  0
   -3.2700   -0.1510   -0.7070 H   0  0  0  0  0  0  0  0  0  0  0  0
   -2.4420    1.3110    1.8320 H   0  0  0  0  0  0  0  0  0  0  0  0
  1 12  1  0  0  0  0
  1 13  1  0  0  0  0
  2 14  1  6  0  0  0
  2 10  1  0  0  0  0
  2  1  1  0  0  0  0
  3 15  1  0  0  0  0
  3 16  1  0  0  0  0
  3  2  1  0  0  0  0
  4  3  1  0  0  0  0
  5 17  1  0  0  0  0
  5  4  1  0  0  0  0
  6  5  2  0  0  0  0
  7  8  2  0  0  0  0
  7  6  1  0  0  0  0
  8  9  1  0  0  0  0
  9 21  1  0  0  0  0
  9  4  2  0  0  0  0
 10 11  2  0  0  0  0
 18  6  1  0  0  0  0
 19  7  1  0  0  0  0
 20  8  1  0  0  0  0
 22 30  1  0  0  0  0
 22 31  1  0  0  0  0
 23 32  1  0  0  0  0
 23 22  1  0  0  0  0
 24 23  1  0  0  0  0
 25 23  1  0  0  0  0
 25 36  1  1  0  0  0
 26 25  1  0  0  0  0
 26 10  1  0  0  0  0
 27 41  1  0  0  0  0
 27 25  1  0  0  0  0
 28 27  2  0  0  0  0
 29 22  1  0  0  0  0
 33 24  1  0  0  0  0
 34 24  1  0  0  0  0
 35 24  1  0  0  0  0
 37 26  1  0  0  0  0
 39 38  1  0  0  0  0
 39 46  1  0  0  0  0
 40 48  1  6  0  0  0
 40 39  1  0  0  0  0
 40 41  1  0  0  0  0
 41 49  1  0  0  0  0
 42 43  1  0  0  0  0
 42 40  1  0  0  0  0
 44 42  2  0  0  0  0
 45 38  1  0  0  0  0
 47 39  1  0  0  0  0
M  END
$$$$
