FVW.pdb
 OpenBabel07022419023D

 62 64  0  0  1  0  0  0  0  0999 V2000
    1.3170    1.9660    3.9170 N   0  0  0  0  0  0  0  0  0  0  0  0
    2.1850    2.0560    2.7480 C   0  0  1  0  0  0  0  0  0  0  0  0
    3.5180    1.5270    3.1510 C   0  0  0  0  0  0  0  0  0  0  0  0
    4.5330    1.5510    2.0810 C   0  0  0  0  0  0  0  0  0  0  0  0
    4.7860    0.4920    1.2410 C   0  0  0  0  0  0  0  0  0  0  0  0
    5.7350    0.5250    0.2350 C   0  0  0  0  0  0  0  0  0  0  0  0
    6.4710    1.6800    0.0600 C   0  0  0  0  0  0  0  0  0  0  0  0
    6.2210    2.7390    0.8960 C   0  0  0  0  0  0  0  0  0  0  0  0
    5.2790    2.7140    1.8990 C   0  0  0  0  0  0  0  0  0  0  0  0
    1.6490    1.2240    1.6350 C   0  0  0  0  0  0  0  0  0  0  0  0
    2.2680    1.2660    0.5460 O   0  0  0  0  0  0  0  0  0  0  0  0
    0.4220    2.4840    3.7820 H   0  0  0  0  0  0  0  0  0  0  0  0
    1.8220    2.4880    4.6720 H   0  0  0  0  0  0  0  0  0  0  0  0
    2.2870    3.0870    2.3610 H   0  0  0  0  0  0  0  0  0  0  0  0
    3.4000    0.4390    3.4440 H   0  0  0  0  0  0  0  0  0  0  0  0
    3.9090    2.0400    4.0770 H   0  0  0  0  0  0  0  0  0  0  0  0
    4.2340   -0.4450    1.3450 H   0  0  0  0  0  0  0  0  0  0  0  0
    5.9410   -0.2910   -0.4280 H   0  0  0  0  0  0  0  0  0  0  0  0
    7.2150    1.7030   -0.7320 H   0  0  0  0  0  0  0  0  0  0  0  0
    6.8090    3.6420    0.7420 H   0  0  0  0  0  0  0  0  0  0  0  0
    5.1310    3.5850    2.5280 H   0  0  0  0  0  0  0  0  0  0  0  0
   -1.1800   -1.9280    2.3540 C   0  0  0  0  0  0  0  0  0  0  0  0
   -0.2410   -1.8260    1.1600 C   0  0  0  0  0  0  0  0  0  0  0  0
    1.0510   -2.5430    1.4200 C   0  0  0  0  0  0  0  0  0  0  0  0
   -0.0480   -0.4040    0.7340 C   0  0  2  0  0  0  0  0  0  0  0  0
    0.4960    0.4190    1.7830 N   0  0  0  0  0  0  0  0  0  0  0  0
   -1.3040    0.2230    0.2060 C   0  0  0  0  0  0  0  0  0  0  0  0
   -1.7050    1.3050    0.7350 O   0  0  0  0  0  0  0  0  0  0  0  0
   -1.6740   -2.9240    2.3900 H   0  0  0  0  0  0  0  0  0  0  0  0
   -1.9860   -1.1780    2.2170 H   0  0  0  0  0  0  0  0  0  0  0  0
   -0.6400   -1.8200    3.3230 H   0  0  0  0  0  0  0  0  0  0  0  0
   -0.7470   -2.3610    0.3320 H   0  0  0  0  0  0  0  0  0  0  0  0
    1.0810   -3.5650    0.9600 H   0  0  0  0  0  0  0  0  0  0  0  0
    1.9510   -2.0170    1.0270 H   0  0  0  0  0  0  0  0  0  0  0  0
    1.1360   -2.7460    2.5280 H   0  0  0  0  0  0  0  0  0  0  0  0
    0.6540   -0.3690   -0.1490 H   0  0  0  0  0  0  0  0  0  0  0  0
    0.0240    0.4370    2.7250 H   0  0  0  0  0  0  0  0  0  0  0  0
   -2.0310   -0.3540   -0.8500 N   0  0  0  0  0  0  0  0  0  0  0  0
   -3.1840    0.0600   -1.5270 C   0  0  1  0  0  0  0  0  0  0  0  0
   -4.4360   -0.7210   -1.4510 C   0  0  0  0  0  0  0  0  0  0  0  0
   -4.3510   -2.0890   -1.9530 C   0  0  0  0  0  0  0  0  0  0  0  0
   -4.7440   -2.4990   -3.2290 C   0  0  0  0  0  0  0  0  0  0  0  0
   -4.5020   -3.8090   -3.3470 N   0  0  0  0  0  0  0  0  0  0  0  0
   -3.9660   -4.3040   -2.2180 C   0  0  0  0  0  0  0  0  0  0  0  0
   -3.5650   -5.5600   -1.8610 C   0  0  0  0  0  0  0  0  0  0  0  0
   -3.0550   -5.7620   -0.6000 C   0  0  0  0  0  0  0  0  0  0  0  0
   -2.9580   -4.6810    0.2880 C   0  0  0  0  0  0  0  0  0  0  0  0
   -3.3630   -3.4270   -0.0800 C   0  0  0  0  0  0  0  0  0  0  0  0
   -3.8740   -3.2380   -1.3560 C   0  0  0  0  0  0  0  0  0  0  0  0
   -3.4440    1.5420   -1.5680 C   0  0  0  0  0  0  0  0  0  0  0  0
   -4.5550    1.9850   -1.9840 O   0  0  0  0  0  0  0  0  0  0  0  0
   -2.5120    2.4510   -1.1750 O   0  0  0  0  0  0  0  0  0  0  0  0
   -1.5990   -1.2940   -1.1810 H   0  0  0  0  0  0  0  0  0  0  0  0
   -2.8720   -0.0630   -2.6710 H   0  0  0  0  0  0  0  0  0  0  0  0
   -5.1940   -0.1660   -2.0900 H   0  0  0  0  0  0  0  0  0  0  0  0
   -4.9200   -0.7130   -0.4430 H   0  0  0  0  0  0  0  0  0  0  0  0
   -5.1690   -1.8520   -3.9900 H   0  0  0  0  0  0  0  0  0  0  0  0
   -4.6950   -4.3940   -4.1940 H   0  0  0  0  0  0  0  0  0  0  0  0
   -3.6220   -6.4180   -2.5250 H   0  0  0  0  0  0  0  0  0  0  0  0
   -2.7400   -6.7560   -0.3160 H   0  0  0  0  0  0  0  0  0  0  0  0
   -2.5490   -4.8970    1.2650 H   0  0  0  0  0  0  0  0  0  0  0  0
   -3.2990   -2.5750    0.5950 H   0  0  0  0  0  0  0  0  0  0  0  0
  1 13  1  0  0  0  0
  2 14  1  6  0  0  0
  2  3  1  0  0  0  0
  2  1  1  0  0  0  0
  3 15  1  0  0  0  0
  3 16  1  0  0  0  0
  4  3  1  0  0  0  0
  5 17  1  0  0  0  0
  5  4  2  0  0  0  0
  6  5  1  0  0  0  0
  7  6  2  0  0  0  0
  7  8  1  0  0  0  0
  8  9  2  0  0  0  0
  9  4  1  0  0  0  0
  9 21  1  0  0  0  0
 10 26  1  0  0  0  0
 10  2  1  0  0  0  0
 11 10  2  0  0  0  0
 12  1  1  0  0  0  0
 18  6  1  0  0  0  0
 19  7  1  0  0  0  0
 20  8  1  0  0  0  0
 22 29  1  0  0  0  0
 22 31  1  0  0  0  0
 23 24  1  0  0  0  0
 23 22  1  0  0  0  0
 24 35  1  0  0  0  0
 25 36  1  6  0  0  0
 25 23  1  0  0  0  0
 25 26  1  0  0  0  0
 26 37  1  0  0  0  0
 27 25  1  0  0  0  0
 27 28  2  0  0  0  0
 30 22  1  0  0  0  0
 32 23  1  0  0  0  0
 33 24  1  0  0  0  0
 34 24  1  0  0  0  0
 38 27  1  0  0  0  0
 39 54  1  6  0  0  0
 39 40  1  0  0  0  0
 39 38  1  0  0  0  0
 40 56  1  0  0  0  0
 41 40  1  0  0  0  0
 41 49  1  0  0  0  0
 42 41  2  0  0  0  0
 43 42  1  0  0  0  0
 43 44  1  0  0  0  0
 44 45  2  0  0  0  0
 44 49  1  0  0  0  0
 45 46  1  0  0  0  0
 46 60  1  0  0  0  0
 46 47  2  0  0  0  0
 47 61  1  0  0  0  0
 48 47  1  0  0  0  0
 48 62  1  0  0  0  0
 49 48  2  0  0  0  0
 50 39  1  0  0  0  0
 50 52  1  0  0  0  0
 51 50  2  0  0  0  0
 53 38  1  0  0  0  0
 55 40  1  0  0  0  0
 57 42  1  0  0  0  0
 58 43  1  0  0  0  0
 59 45  1  0  0  0  0
M  END
$$$$
