FWA.pdb
 OpenBabel07022419013D

 56 58  0  0  1  0  0  0  0  0999 V2000
    3.1370   -0.7980   -2.0040 N   0  0  0  0  0  0  0  0  0  0  0  0
    3.2200   -0.9780   -0.5840 C   0  0  1  0  0  0  0  0  0  0  0  0
    4.2600    0.0130   -0.0940 C   0  0  0  0  0  0  0  0  0  0  0  0
    4.4840   -0.0170    1.3510 C   0  0  0  0  0  0  0  0  0  0  0  0
    5.4280   -0.8410    1.9560 C   0  0  0  0  0  0  0  0  0  0  0  0
    5.6390   -0.8630    3.3160 C   0  0  0  0  0  0  0  0  0  0  0  0
    4.9020   -0.0490    4.1280 C   0  0  0  0  0  0  0  0  0  0  0  0
    3.9600    0.7780    3.5590 C   0  0  0  0  0  0  0  0  0  0  0  0
    3.7510    0.7980    2.2000 C   0  0  0  0  0  0  0  0  0  0  0  0
    1.9490   -0.9150    0.1290 C   0  0  0  0  0  0  0  0  0  0  0  0
    1.9750   -1.1370    1.3760 O   0  0  0  0  0  0  0  0  0  0  0  0
    2.8320    0.1190   -2.3210 H   0  0  0  0  0  0  0  0  0  0  0  0
    2.8360   -1.6150   -2.5350 H   0  0  0  0  0  0  0  0  0  0  0  0
    3.6600   -2.0010   -0.4110 H   0  0  0  0  0  0  0  0  0  0  0  0
    5.2140   -0.2760   -0.6200 H   0  0  0  0  0  0  0  0  0  0  0  0
    4.0380    1.0510   -0.4030 H   0  0  0  0  0  0  0  0  0  0  0  0
    6.0240   -1.4940    1.3390 H   0  0  0  0  0  0  0  0  0  0  0  0
    6.3780   -1.5120    3.7640 H   0  0  0  0  0  0  0  0  0  0  0  0
    5.0370   -0.0350    5.2150 H   0  0  0  0  0  0  0  0  0  0  0  0
    3.3720    1.4280    4.2140 H   0  0  0  0  0  0  0  0  0  0  0  0
    3.0050    1.4500    1.7340 H   0  0  0  0  0  0  0  0  0  0  0  0
    0.6780   -0.6280   -0.4350 N   0  0  0  0  0  0  0  0  0  0  0  0
   -0.5360   -0.5920    0.3770 C   0  0  1  0  0  0  0  0  0  0  0  0
   -1.1000    0.7840    0.4350 C   0  0  0  0  0  0  0  0  0  0  0  0
   -2.3410    0.9660    1.2000 C   0  0  0  0  0  0  0  0  0  0  0  0
   -2.4460    1.3430    2.5480 C   0  0  0  0  0  0  0  0  0  0  0  0
   -3.7390    1.3700    2.8940 N   0  0  0  0  0  0  0  0  0  0  0  0
   -4.5320    1.0270    1.8420 C   0  0  0  0  0  0  0  0  0  0  0  0
   -5.8980    0.9310    1.7170 C   0  0  0  0  0  0  0  0  0  0  0  0
   -6.4220    0.5750    0.5010 C   0  0  0  0  0  0  0  0  0  0  0  0
   -5.5420    0.3250   -0.5570 C   0  0  0  0  0  0  0  0  0  0  0  0
   -4.1840    0.4220   -0.4240 C   0  0  0  0  0  0  0  0  0  0  0  0
   -3.6460    0.7800    0.7970 C   0  0  0  0  0  0  0  0  0  0  0  0
   -1.4110   -1.6780   -0.0460 C   0  0  0  0  0  0  0  0  0  0  0  0
   -2.4860   -2.0020    0.5280 O   0  0  0  0  0  0  0  0  0  0  0  0
    0.6550   -0.4420   -1.4580 H   0  0  0  0  0  0  0  0  0  0  0  0
   -0.2560   -0.8420    1.4560 H   0  0  0  0  0  0  0  0  0  0  0  0
   -1.3150    1.1950   -0.5930 H   0  0  0  0  0  0  0  0  0  0  0  0
   -0.2910    1.4550    0.8220 H   0  0  0  0  0  0  0  0  0  0  0  0
   -1.5700    1.5610    3.1410 H   0  0  0  0  0  0  0  0  0  0  0  0
   -4.1320    1.6140    3.8300 H   0  0  0  0  0  0  0  0  0  0  0  0
   -6.5510    1.1270    2.5400 H   0  0  0  0  0  0  0  0  0  0  0  0
   -7.4820    0.4910    0.3670 H   0  0  0  0  0  0  0  0  0  0  0  0
   -5.9770    0.0440   -1.5160 H   0  0  0  0  0  0  0  0  0  0  0  0
   -3.4870    0.2300   -1.2390 H   0  0  0  0  0  0  0  0  0  0  0  0
   -2.2950   -3.2470   -3.0750 C   0  0  0  0  0  0  0  0  0  0  0  0
   -1.8830   -3.5420   -1.6530 C   0  0  2  0  0  0  0  0  0  0  0  0
   -1.0440   -2.4510   -1.1940 N   0  0  0  0  0  0  0  0  0  0  0  0
   -1.1010   -4.7830   -1.6070 C   0  0  0  0  0  0  0  0  0  0  0  0
   -1.6490   -5.8570   -1.9670 O   0  0  0  0  0  0  0  0  0  0  0  0
    0.2040   -4.8010   -1.1850 O   0  0  0  0  0  0  0  0  0  0  0  0
   -2.2000   -4.1780   -3.6540 H   0  0  0  0  0  0  0  0  0  0  0  0
   -1.5940   -2.5170   -3.5130 H   0  0  0  0  0  0  0  0  0  0  0  0
   -3.3330   -2.8570   -3.1470 H   0  0  0  0  0  0  0  0  0  0  0  0
   -2.7810   -3.6680   -1.0110 H   0  0  0  0  0  0  0  0  0  0  0  0
   -0.1780   -2.2680   -1.7370 H   0  0  0  0  0  0  0  0  0  0  0  0
  1  2  1  0  0  0  0
  2 14  1  1  0  0  0
  2  3  1  0  0  0  0
  2 10  1  0  0  0  0
  3  4  1  0  0  0  0
  4  5  2  0  0  0  0
  4  9  1  0  0  0  0
  5  6  1  0  0  0  0
  6 18  1  0  0  0  0
  6  7  2  0  0  0  0
  7 19  1  0  0  0  0
  8  7  1  0  0  0  0
  8 20  1  0  0  0  0
  9  8  2  0  0  0  0
 10 11  2  0  0  0  0
 12  1  1  0  0  0  0
 13  1  1  0  0  0  0
 15  3  1  0  0  0  0
 16  3  1  0  0  0  0
 17  5  1  0  0  0  0
 21  9  1  0  0  0  0
 22 10  1  0  0  0  0
 22 23  1  0  0  0  0
 23 24  1  0  0  0  0
 23 37  1  1  0  0  0
 24 39  1  0  0  0  0
 24 25  1  0  0  0  0
 25 26  2  0  0  0  0
 26 27  1  0  0  0  0
 26 40  1  0  0  0  0
 27 41  1  0  0  0  0
 28 27  1  0  0  0  0
 29 28  1  0  0  0  0
 29 42  1  0  0  0  0
 30 29  2  0  0  0  0
 31 32  2  0  0  0  0
 31 30  1  0  0  0  0
 32 33  1  0  0  0  0
 33 25  1  0  0  0  0
 33 28  2  0  0  0  0
 34 23  1  0  0  0  0
 34 35  2  0  0  0  0
 36 22  1  0  0  0  0
 38 24  1  0  0  0  0
 43 30  1  0  0  0  0
 44 31  1  0  0  0  0
 45 32  1  0  0  0  0
 46 47  1  0  0  0  0
 47 49  1  0  0  0  0
 47 48  1  0  0  0  0
 47 55  1  1  0  0  0
 48 34  1  0  0  0  0
 49 51  1  0  0  0  0
 50 49  2  0  0  0  0
 52 46  1  0  0  0  0
 53 46  1  0  0  0  0
 54 46  1  0  0  0  0
 56 48  1  0  0  0  0
M  END
$$$$
