FWC.pdb
 OpenBabel07022419013D

 57 59  0  0  1  0  0  0  0  0999 V2000
    1.7510   -0.2370    3.3460 N   0  0  0  0  0  0  0  0  0  0  0  0
    1.1540    0.9300    2.6930 C   0  0  1  0  0  0  0  0  0  0  0  0
    2.2840    1.6440    1.9460 C   0  0  0  0  0  0  0  0  0  0  0  0
    3.3590    2.1100    2.8090 C   0  0  0  0  0  0  0  0  0  0  0  0
    4.3940    1.2850    3.1770 C   0  0  0  0  0  0  0  0  0  0  0  0
    5.4390    1.7140    3.9850 C   0  0  0  0  0  0  0  0  0  0  0  0
    5.4510    3.0120    4.4420 C   0  0  0  0  0  0  0  0  0  0  0  0
    4.4280    3.8620    4.0900 C   0  0  0  0  0  0  0  0  0  0  0  0
    3.3950    3.4070    3.2800 C   0  0  0  0  0  0  0  0  0  0  0  0
    0.1230    0.5410    1.6920 C   0  0  0  0  0  0  0  0  0  0  0  0
   -0.9760    1.1800    1.5760 O   0  0  0  0  0  0  0  0  0  0  0  0
    2.2780   -0.7880    2.6590 H   0  0  0  0  0  0  0  0  0  0  0  0
    2.4120    0.1540    4.0540 H   0  0  0  0  0  0  0  0  0  0  0  0
    0.7130    1.5570    3.4540 H   0  0  0  0  0  0  0  0  0  0  0  0
    1.8250    2.4050    1.2950 H   0  0  0  0  0  0  0  0  0  0  0  0
    2.6600    0.8470    1.2260 H   0  0  0  0  0  0  0  0  0  0  0  0
    4.4490    0.2430    2.8450 H   0  0  0  0  0  0  0  0  0  0  0  0
    6.2630    1.0560    4.2800 H   0  0  0  0  0  0  0  0  0  0  0  0
    6.2480    3.3750    5.0750 H   0  0  0  0  0  0  0  0  0  0  0  0
    4.4380    4.8840    4.4450 H   0  0  0  0  0  0  0  0  0  0  0  0
    2.6160    4.1400    3.0360 H   0  0  0  0  0  0  0  0  0  0  0  0
    0.3140   -0.5670    0.8050 N   0  0  0  0  0  0  0  0  0  0  0  0
   -0.6940   -0.9460   -0.1620 C   0  0  1  0  0  0  0  0  0  0  0  0
   -0.4250   -0.2740   -1.5040 C   0  0  0  0  0  0  0  0  0  0  0  0
   -1.4930   -0.7190   -2.4520 C   0  0  0  0  0  0  0  0  0  0  0  0
   -1.3540   -1.6250   -3.4890 C   0  0  0  0  0  0  0  0  0  0  0  0
   -2.5450   -1.7220   -4.0850 N   0  0  0  0  0  0  0  0  0  0  0  0
   -3.4490   -0.9240   -3.4820 C   0  0  0  0  0  0  0  0  0  0  0  0
   -4.7710   -0.6710   -3.7030 C   0  0  0  0  0  0  0  0  0  0  0  0
   -5.4910    0.2150   -2.9190 C   0  0  0  0  0  0  0  0  0  0  0  0
   -4.8790    0.8790   -1.8740 C   0  0  0  0  0  0  0  0  0  0  0  0
   -3.5350    0.6190   -1.6540 C   0  0  0  0  0  0  0  0  0  0  0  0
   -2.8010   -0.2720   -2.4370 C   0  0  0  0  0  0  0  0  0  0  0  0
   -0.9420   -2.3930   -0.2690 C   0  0  0  0  0  0  0  0  0  0  0  0
   -1.7820   -2.8430   -1.0780 O   0  0  0  0  0  0  0  0  0  0  0  0
    1.2400   -1.0670    0.9040 H   0  0  0  0  0  0  0  0  0  0  0  0
   -1.6410   -0.4240    0.1890 H   0  0  0  0  0  0  0  0  0  0  0  0
    0.5830   -0.4380   -1.8800 H   0  0  0  0  0  0  0  0  0  0  0  0
   -0.5640    0.8350   -1.3760 H   0  0  0  0  0  0  0  0  0  0  0  0
   -0.4150   -2.1200   -3.7120 H   0  0  0  0  0  0  0  0  0  0  0  0
   -2.7510   -2.3460   -4.9290 H   0  0  0  0  0  0  0  0  0  0  0  0
   -5.2740   -1.1900   -4.5360 H   0  0  0  0  0  0  0  0  0  0  0  0
   -6.5460    0.3490   -3.1770 H   0  0  0  0  0  0  0  0  0  0  0  0
   -5.4670    1.5620   -1.2790 H   0  0  0  0  0  0  0  0  0  0  0  0
   -3.0510    1.1310   -0.8570 H   0  0  0  0  0  0  0  0  0  0  0  0
   -0.2240   -3.2900    0.5490 N   0  0  0  0  0  0  0  0  0  0  0  0
   -0.3900   -4.7270    0.5170 C   0  0  1  0  0  0  0  0  0  0  0  0
   -1.6810   -5.0650    1.2180 C   0  0  0  0  0  0  0  0  0  0  0  0
   -1.6890   -4.5210    2.9390 S   0  0  0  0  0  0  0  0  0  0  0  0
   -0.2850   -5.3000   -0.8230 C   0  0  0  0  0  0  0  0  0  0  0  0
   -0.4690   -6.5240   -0.9860 O   0  0  0  0  0  0  0  0  0  0  0  0
    0.0120   -4.5130   -1.9050 O   0  0  0  0  0  0  0  0  0  0  0  0
    0.4620   -2.9010    1.2200 H   0  0  0  0  0  0  0  0  0  0  0  0
    0.4420   -5.1660    1.1580 H   0  0  0  0  0  0  0  0  0  0  0  0
   -1.9430   -6.1200    1.0700 H   0  0  0  0  0  0  0  0  0  0  0  0
   -2.4730   -4.4350    0.7020 H   0  0  0  0  0  0  0  0  0  0  0  0
   -0.6110   -5.1480    3.6120 H   0  0  0  0  0  0  0  0  0  0  0  0
  1 13  1  0  0  0  0
  2  1  1  0  0  0  0
  2 14  1  1  0  0  0
  3  2  1  0  0  0  0
  3  4  1  0  0  0  0
  4  5  2  0  0  0  0
  4  9  1  0  0  0  0
  5  6  1  0  0  0  0
  6 18  1  0  0  0  0
  6  7  2  0  0  0  0
  7 19  1  0  0  0  0
  8  7  1  0  0  0  0
  8 20  1  0  0  0  0
  9  8  2  0  0  0  0
 10  2  1  0  0  0  0
 11 10  2  0  0  0  0
 12  1  1  0  0  0  0
 15  3  1  0  0  0  0
 16  3  1  0  0  0  0
 17  5  1  0  0  0  0
 21  9  1  0  0  0  0
 22 36  1  0  0  0  0
 22 10  1  0  0  0  0
 23 37  1  1  0  0  0
 23 22  1  0  0  0  0
 24 39  1  0  0  0  0
 24 23  1  0  0  0  0
 25 33  1  0  0  0  0
 25 24  1  0  0  0  0
 26 25  2  0  0  0  0
 27 26  1  0  0  0  0
 27 28  1  0  0  0  0
 28 33  1  0  0  0  0
 29 28  2  0  0  0  0
 29 30  1  0  0  0  0
 30 31  2  0  0  0  0
 31 32  1  0  0  0  0
 31 44  1  0  0  0  0
 32 45  1  0  0  0  0
 33 32  2  0  0  0  0
 34 23  1  0  0  0  0
 34 46  1  0  0  0  0
 35 34  2  0  0  0  0
 38 24  1  0  0  0  0
 40 26  1  0  0  0  0
 41 27  1  0  0  0  0
 42 29  1  0  0  0  0
 43 30  1  0  0  0  0
 46 53  1  0  0  0  0
 47 46  1  0  0  0  0
 47 54  1  1  0  0  0
 47 48  1  0  0  0  0
 48 49  1  0  0  0  0
 49 57  1  0  0  0  0
 50 47  1  0  0  0  0
 51 50  1  0  0  0  0
 52 50  2  0  0  0  0
 55 48  1  0  0  0  0
 56 48  1  0  0  0  0
M  END
$$$$
