FWD.pdb
 OpenBabel07022419013D

 59 61  0  0  1  0  0  0  0  0999 V2000
    1.3520   -0.0290    4.4790 N   0  0  0  0  0  0  0  0  0  0  0  0
    0.6010    0.4750    3.3590 C   0  0  1  0  0  0  0  0  0  0  0  0
    1.3770    1.2680    2.3750 C   0  0  0  0  0  0  0  0  0  0  0  0
    2.4830    0.4680    1.8040 C   0  0  0  0  0  0  0  0  0  0  0  0
    3.6820    0.5030    2.5040 C   0  0  0  0  0  0  0  0  0  0  0  0
    4.7550   -0.1930    2.0210 C   0  0  0  0  0  0  0  0  0  0  0  0
    4.6690   -0.9240    0.8600 C   0  0  0  0  0  0  0  0  0  0  0  0
    3.4760   -0.9520    0.1760 C   0  0  0  0  0  0  0  0  0  0  0  0
    2.3660   -0.2540    0.6410 C   0  0  0  0  0  0  0  0  0  0  0  0
   -0.4400   -0.4140    2.8470 C   0  0  0  0  0  0  0  0  0  0  0  0
   -0.8730   -1.3570    3.5990 O   0  0  0  0  0  0  0  0  0  0  0  0
    1.6180    0.6720    5.1760 H   0  0  0  0  0  0  0  0  0  0  0  0
    2.0910   -0.7040    4.2150 H   0  0  0  0  0  0  0  0  0  0  0  0
   -0.0480    1.3090    3.8900 H   0  0  0  0  0  0  0  0  0  0  0  0
    0.7440    1.7000    1.5630 H   0  0  0  0  0  0  0  0  0  0  0  0
    1.8500    2.1860    2.8390 H   0  0  0  0  0  0  0  0  0  0  0  0
    3.7580    1.0880    3.4380 H   0  0  0  0  0  0  0  0  0  0  0  0
    5.6980   -0.1520    2.5900 H   0  0  0  0  0  0  0  0  0  0  0  0
    5.5540   -1.4720    0.5060 H   0  0  0  0  0  0  0  0  0  0  0  0
    3.3930   -1.5070   -0.7310 H   0  0  0  0  0  0  0  0  0  0  0  0
    1.4250   -0.2780    0.0980 H   0  0  0  0  0  0  0  0  0  0  0  0
   -1.0420   -0.3480    1.5760 N   0  0  0  0  0  0  0  0  0  0  0  0
   -2.0850   -1.1990    1.0820 C   0  0  1  0  0  0  0  0  0  0  0  0
   -3.0900   -0.4010    0.3410 C   0  0  0  0  0  0  0  0  0  0  0  0
   -2.5900    0.3320   -0.8240 C   0  0  0  0  0  0  0  0  0  0  0  0
   -1.4560    0.1600   -1.5790 C   0  0  0  0  0  0  0  0  0  0  0  0
   -1.4480    1.0880   -2.5490 N   0  0  0  0  0  0  0  0  0  0  0  0
   -2.5440    1.8640   -2.4510 C   0  0  0  0  0  0  0  0  0  0  0  0
   -3.0110    2.9290   -3.1720 C   0  0  0  0  0  0  0  0  0  0  0  0
   -4.1930    3.5800   -2.8720 C   0  0  0  0  0  0  0  0  0  0  0  0
   -4.9090    3.0980   -1.7830 C   0  0  0  0  0  0  0  0  0  0  0  0
   -4.4650    2.0270   -1.0380 C   0  0  0  0  0  0  0  0  0  0  0  0
   -3.2700    1.4110   -1.3830 C   0  0  0  0  0  0  0  0  0  0  0  0
   -1.6710   -2.4140    0.3880 C   0  0  0  0  0  0  0  0  0  0  0  0
   -2.5790   -3.0620   -0.2150 O   0  0  0  0  0  0  0  0  0  0  0  0
   -0.6860    0.4090    0.9380 H   0  0  0  0  0  0  0  0  0  0  0  0
   -2.6550   -1.6220    2.0030 H   0  0  0  0  0  0  0  0  0  0  0  0
   -3.5420    0.3440    1.0570 H   0  0  0  0  0  0  0  0  0  0  0  0
   -3.9220   -1.0780   -0.0150 H   0  0  0  0  0  0  0  0  0  0  0  0
   -0.7280   -0.6120   -1.3770 H   0  0  0  0  0  0  0  0  0  0  0  0
   -0.6900    1.1940   -3.2820 H   0  0  0  0  0  0  0  0  0  0  0  0
   -2.4420    3.3050   -4.0300 H   0  0  0  0  0  0  0  0  0  0  0  0
   -4.5480    4.4220   -3.4550 H   0  0  0  0  0  0  0  0  0  0  0  0
   -5.8360    3.6130   -1.5530 H   0  0  0  0  0  0  0  0  0  0  0  0
   -5.0350    1.6750   -0.2020 H   0  0  0  0  0  0  0  0  0  0  0  0
   -0.3580   -2.9170    0.3430 N   0  0  0  0  0  0  0  0  0  0  0  0
   -0.1420   -4.1470   -0.3930 C   0  0  1  0  0  0  0  0  0  0  0  0
    1.1660   -4.2120   -1.1080 C   0  0  0  0  0  0  0  0  0  0  0  0
    2.2980   -4.1170   -0.1370 C   0  0  0  0  0  0  0  0  0  0  0  0
    2.1500   -3.9570    1.1000 O   0  0  0  0  0  0  0  0  0  0  0  0
   -0.0890   -5.2420    0.6450 C   0  0  0  0  0  0  0  0  0  0  0  0
   -0.2580   -4.9330    1.8370 O   0  0  0  0  0  0  0  0  0  0  0  0
    3.6310   -4.2070   -0.5820 O   0  0  0  0  0  0  0  0  0  0  0  0
    0.1420   -6.5710    0.3160 O   0  0  0  0  0  0  0  0  0  0  0  0
    0.3970   -2.4020    0.8290 H   0  0  0  0  0  0  0  0  0  0  0  0
   -0.9790   -4.3500   -1.0920 H   0  0  0  0  0  0  0  0  0  0  0  0
    1.2420   -5.2190   -1.5730 H   0  0  0  0  0  0  0  0  0  0  0  0
    1.2780   -3.4900   -1.9420 H   0  0  0  0  0  0  0  0  0  0  0  0
    4.3620   -4.4700    0.0980 H   0  0  0  0  0  0  0  0  0  0  0  0
  1 12  1  0  0  0  0
  2 14  1  1  0  0  0
  2  1  1  0  0  0  0
  3 16  1  0  0  0  0
  3  2  1  0  0  0  0
  4  3  1  0  0  0  0
  4  5  1  0  0  0  0
  5 17  1  0  0  0  0
  6  5  2  0  0  0  0
  6 18  1  0  0  0  0
  7  6  1  0  0  0  0
  8  9  1  0  0  0  0
  8  7  2  0  0  0  0
  9  4  2  0  0  0  0
 10  2  1  0  0  0  0
 10 11  2  0  0  0  0
 13  1  1  0  0  0  0
 15  3  1  0  0  0  0
 19  7  1  0  0  0  0
 20  8  1  0  0  0  0
 21  9  1  0  0  0  0
 22 10  1  0  0  0  0
 23 22  1  0  0  0  0
 23 37  1  1  0  0  0
 24 38  1  0  0  0  0
 24 23  1  0  0  0  0
 25 24  1  0  0  0  0
 26 40  1  0  0  0  0
 26 25  2  0  0  0  0
 27 28  1  0  0  0  0
 27 26  1  0  0  0  0
 28 33  1  0  0  0  0
 29 30  1  0  0  0  0
 29 28  2  0  0  0  0
 30 31  2  0  0  0  0
 31 44  1  0  0  0  0
 31 32  1  0  0  0  0
 32 45  1  0  0  0  0
 33 32  2  0  0  0  0
 33 25  1  0  0  0  0
 34 23  1  0  0  0  0
 35 34  2  0  0  0  0
 36 22  1  0  0  0  0
 39 24  1  0  0  0  0
 41 27  1  0  0  0  0
 42 29  1  0  0  0  0
 43 30  1  0  0  0  0
 46 34  1  0  0  0  0
 46 55  1  0  0  0  0
 47 56  1  6  0  0  0
 47 46  1  0  0  0  0
 47 51  1  0  0  0  0
 48 47  1  0  0  0  0
 48 49  1  0  0  0  0
 49 50  2  0  0  0  0
 51 52  1  0  0  0  0
 53 49  1  0  0  0  0
 53 59  1  0  0  0  0
 54 51  2  0  0  0  0
 57 48  1  0  0  0  0
 58 48  1  0  0  0  0
M  END
$$$$
