FWE.pdb
 OpenBabel07022419013D

 62 64  0  0  1  0  0  0  0  0999 V2000
    2.6400   -2.0470    3.0890 N   0  0  0  0  0  0  0  0  0  0  0  0
    1.9770   -0.7610    3.2520 C   0  0  1  0  0  0  0  0  0  0  0  0
    3.0070    0.2960    3.3830 C   0  0  0  0  0  0  0  0  0  0  0  0
    2.5400    1.6650    3.5510 C   0  0  0  0  0  0  0  0  0  0  0  0
    2.3070    2.4450    2.4420 C   0  0  0  0  0  0  0  0  0  0  0  0
    1.8800    3.7480    2.5470 C   0  0  0  0  0  0  0  0  0  0  0  0
    1.6790    4.2890    3.7950 C   0  0  0  0  0  0  0  0  0  0  0  0
    1.9110    3.5100    4.9160 C   0  0  0  0  0  0  0  0  0  0  0  0
    2.3380    2.2060    4.7910 C   0  0  0  0  0  0  0  0  0  0  0  0
    0.9850   -0.5770    2.1670 C   0  0  0  0  0  0  0  0  0  0  0  0
    0.1790    0.3740    2.1140 O   0  0  0  0  0  0  0  0  0  0  0  0
    1.9680   -2.8450    3.1050 H   0  0  0  0  0  0  0  0  0  0  0  0
    3.2960   -2.0730    2.2830 H   0  0  0  0  0  0  0  0  0  0  0  0
    1.3710   -0.8710    4.2000 H   0  0  0  0  0  0  0  0  0  0  0  0
    3.6140    0.0350    4.3110 H   0  0  0  0  0  0  0  0  0  0  0  0
    3.7790    0.1750    2.5670 H   0  0  0  0  0  0  0  0  0  0  0  0
    2.4630    2.0300    1.4280 H   0  0  0  0  0  0  0  0  0  0  0  0
    1.7080    4.3310    1.6510 H   0  0  0  0  0  0  0  0  0  0  0  0
    1.3410    5.3180    3.9130 H   0  0  0  0  0  0  0  0  0  0  0  0
    1.7380    3.9820    5.8920 H   0  0  0  0  0  0  0  0  0  0  0  0
    2.5220    1.5960    5.6880 H   0  0  0  0  0  0  0  0  0  0  0  0
    0.8780   -1.5000    1.0780 N   0  0  0  0  0  0  0  0  0  0  0  0
   -0.0210   -1.4680   -0.0000 C   0  0  1  0  0  0  0  0  0  0  0  0
    0.4550   -0.9860   -1.3340 C   0  0  0  0  0  0  0  0  0  0  0  0
    0.9430    0.4100   -1.3170 C   0  0  0  0  0  0  0  0  0  0  0  0
    2.2500    0.8350   -1.3710 C   0  0  0  0  0  0  0  0  0  0  0  0
    2.2910    2.1920   -1.3500 N   0  0  0  0  0  0  0  0  0  0  0  0
    1.0510    2.6670   -1.2830 C   0  0  0  0  0  0  0  0  0  0  0  0
    0.5850    3.9840   -1.2390 C   0  0  0  0  0  0  0  0  0  0  0  0
   -0.7910    4.1300   -1.1720 C   0  0  0  0  0  0  0  0  0  0  0  0
   -1.6590    3.0610   -1.1500 C   0  0  0  0  0  0  0  0  0  0  0  0
   -1.1570    1.7730   -1.1960 C   0  0  0  0  0  0  0  0  0  0  0  0
    0.1960    1.5850   -1.2620 C   0  0  0  0  0  0  0  0  0  0  0  0
   -0.6260   -2.8200   -0.1370 C   0  0  0  0  0  0  0  0  0  0  0  0
   -0.2900   -3.7790    0.6450 O   0  0  0  0  0  0  0  0  0  0  0  0
    1.5840   -2.3030    1.1290 H   0  0  0  0  0  0  0  0  0  0  0  0
   -0.8670   -0.7690    0.2720 H   0  0  0  0  0  0  0  0  0  0  0  0
   -0.4660   -0.9780   -1.9970 H   0  0  0  0  0  0  0  0  0  0  0  0
    1.1410   -1.6750   -1.8610 H   0  0  0  0  0  0  0  0  0  0  0  0
    3.1250    0.2360   -1.4250 H   0  0  0  0  0  0  0  0  0  0  0  0
    3.1550    2.7600   -1.3820 H   0  0  0  0  0  0  0  0  0  0  0  0
    1.2790    4.8120   -1.2580 H   0  0  0  0  0  0  0  0  0  0  0  0
   -1.1710    5.1550   -1.1370 H   0  0  0  0  0  0  0  0  0  0  0  0
   -2.7440    3.1930   -1.0960 H   0  0  0  0  0  0  0  0  0  0  0  0
   -1.7950    0.9070   -1.1830 H   0  0  0  0  0  0  0  0  0  0  0  0
   -1.6010   -3.1670   -1.1190 N   0  0  0  0  0  0  0  0  0  0  0  0
   -2.1200   -4.5510   -1.1660 C   0  0  1  0  0  0  0  0  0  0  0  0
   -3.6050   -4.4550   -0.9340 C   0  0  0  0  0  0  0  0  0  0  0  0
   -4.3110   -5.7770   -0.9330 C   0  0  0  0  0  0  0  0  0  0  0  0
   -5.7730   -5.5670   -0.7100 C   0  0  0  0  0  0  0  0  0  0  0  0
   -6.2710   -4.4210   -0.5720 O   0  0  0  0  0  0  0  0  0  0  0  0
   -1.8280   -5.0700   -2.5410 C   0  0  0  0  0  0  0  0  0  0  0  0
   -2.1310   -6.2560   -2.8120 O   0  0  0  0  0  0  0  0  0  0  0  0
   -6.6540   -6.6510   -0.6450 O   0  0  0  0  0  0  0  0  0  0  0  0
   -1.2330   -4.2700   -3.5160 O   0  0  0  0  0  0  0  0  0  0  0  0
   -1.9230   -2.4340   -1.7800 H   0  0  0  0  0  0  0  0  0  0  0  0
   -1.6770   -5.1690   -0.3910 H   0  0  0  0  0  0  0  0  0  0  0  0
   -4.0040   -3.8000   -1.7630 H   0  0  0  0  0  0  0  0  0  0  0  0
   -3.7680   -3.8840    0.0100 H   0  0  0  0  0  0  0  0  0  0  0  0
   -4.2230   -6.2910   -1.8940 H   0  0  0  0  0  0  0  0  0  0  0  0
   -3.9010   -6.4490   -0.1440 H   0  0  0  0  0  0  0  0  0  0  0  0
   -7.6770   -6.5320   -0.6470 H   0  0  0  0  0  0  0  0  0  0  0  0
  1 12  1  0  0  0  0
  1  2  1  0  0  0  0
  2  3  1  0  0  0  0
  2 14  1  1  0  0  0
  3  4  1  0  0  0  0
  3 15  1  0  0  0  0
  4  9  1  0  0  0  0
  5  6  1  0  0  0  0
  5  4  2  0  0  0  0
  6  7  2  0  0  0  0
  7 19  1  0  0  0  0
  7  8  1  0  0  0  0
  8 20  1  0  0  0  0
  9  8  2  0  0  0  0
  9 21  1  0  0  0  0
 10  2  1  0  0  0  0
 11 10  2  0  0  0  0
 13  1  1  0  0  0  0
 16  3  1  0  0  0  0
 17  5  1  0  0  0  0
 18  6  1  0  0  0  0
 22 36  1  0  0  0  0
 22 10  1  0  0  0  0
 23 37  1  1  0  0  0
 23 22  1  0  0  0  0
 24 25  1  0  0  0  0
 24 23  1  0  0  0  0
 25 33  1  0  0  0  0
 26 27  1  0  0  0  0
 26 25  2  0  0  0  0
 27 28  1  0  0  0  0
 28 33  2  0  0  0  0
 28 29  1  0  0  0  0
 29 30  2  0  0  0  0
 30 31  1  0  0  0  0
 30 43  1  0  0  0  0
 31 44  1  0  0  0  0
 32 45  1  0  0  0  0
 32 31  2  0  0  0  0
 33 32  1  0  0  0  0
 34 23  1  0  0  0  0
 34 35  2  0  0  0  0
 38 24  1  0  0  0  0
 39 24  1  0  0  0  0
 40 26  1  0  0  0  0
 41 27  1  0  0  0  0
 42 29  1  0  0  0  0
 46 34  1  0  0  0  0
 47 46  1  0  0  0  0
 47 48  1  0  0  0  0
 47 57  1  1  0  0  0
 48 49  1  0  0  0  0
 48 59  1  0  0  0  0
 49 50  1  0  0  0  0
 49 61  1  0  0  0  0
 50 54  1  0  0  0  0
 50 51  2  0  0  0  0
 52 47  1  0  0  0  0
 53 52  1  0  0  0  0
 55 52  2  0  0  0  0
 56 46  1  0  0  0  0
 58 48  1  0  0  0  0
 60 49  1  0  0  0  0
 62 54  1  0  0  0  0
M  END
$$$$
