FWF.pdb
 OpenBabel07022419013D

 66 69  0  0  1  0  0  0  0  0999 V2000
    3.5410    1.7900    1.1170 N   0  0  0  0  0  0  0  0  0  0  0  0
    2.5870    1.2200    2.0650 C   0  0  1  0  0  0  0  0  0  0  0  0
    2.0290    2.3330    2.8850 C   0  0  0  0  0  0  0  0  0  0  0  0
    1.0520    1.8960    3.9090 C   0  0  0  0  0  0  0  0  0  0  0  0
    1.5160    1.4970    5.1380 C   0  0  0  0  0  0  0  0  0  0  0  0
    0.6140    1.0830    6.0890 C   0  0  0  0  0  0  0  0  0  0  0  0
   -0.7610    1.0420    5.8800 C   0  0  0  0  0  0  0  0  0  0  0  0
   -1.1790    1.4500    4.6360 C   0  0  0  0  0  0  0  0  0  0  0  0
   -0.2970    1.8750    3.6530 C   0  0  0  0  0  0  0  0  0  0  0  0
    1.6030    0.3710    1.3930 C   0  0  0  0  0  0  0  0  0  0  0  0
    0.5920   -0.0760    1.9650 O   0  0  0  0  0  0  0  0  0  0  0  0
    3.7940    2.7610    1.3380 H   0  0  0  0  0  0  0  0  0  0  0  0
    4.3030    1.1520    0.8660 H   0  0  0  0  0  0  0  0  0  0  0  0
    3.2060    0.5700    2.7290 H   0  0  0  0  0  0  0  0  0  0  0  0
    1.5680    3.1320    2.2660 H   0  0  0  0  0  0  0  0  0  0  0  0
    2.8590    2.8600    3.4350 H   0  0  0  0  0  0  0  0  0  0  0  0
    2.5750    1.4970    5.3950 H   0  0  0  0  0  0  0  0  0  0  0  0
    0.9880    0.7640    7.0740 H   0  0  0  0  0  0  0  0  0  0  0  0
   -1.4210    0.6970    6.6660 H   0  0  0  0  0  0  0  0  0  0  0  0
   -2.2580    1.4160    4.4670 H   0  0  0  0  0  0  0  0  0  0  0  0
   -0.7380    2.1760    2.7110 H   0  0  0  0  0  0  0  0  0  0  0  0
    1.7840    0.0160    0.0110 N   0  0  0  0  0  0  0  0  0  0  0  0
    0.8450   -0.8000   -0.7040 C   0  0  1  0  0  0  0  0  0  0  0  0
    0.7820   -0.5600   -2.1750 C   0  0  0  0  0  0  0  0  0  0  0  0
    0.4180    0.8080   -2.5700 C   0  0  0  0  0  0  0  0  0  0  0  0
    1.2570    1.7710   -3.0640 C   0  0  0  0  0  0  0  0  0  0  0  0
    0.5520    2.9010   -3.3220 N   0  0  0  0  0  0  0  0  0  0  0  0
   -0.7500    2.6910   -3.0000 C   0  0  0  0  0  0  0  0  0  0  0  0
   -1.8630    3.4960   -3.0670 C   0  0  0  0  0  0  0  0  0  0  0  0
   -3.0870    3.0000   -2.6610 C   0  0  0  0  0  0  0  0  0  0  0  0
   -3.2130    1.7070   -2.1890 C   0  0  0  0  0  0  0  0  0  0  0  0
   -2.0800    0.9300   -2.1350 C   0  0  0  0  0  0  0  0  0  0  0  0
   -0.8300    1.3820   -2.5300 C   0  0  0  0  0  0  0  0  0  0  0  0
    1.0240   -2.2490   -0.4000 C   0  0  0  0  0  0  0  0  0  0  0  0
    1.8930   -2.5420    0.4800 O   0  0  0  0  0  0  0  0  0  0  0  0
    2.6420    0.3930   -0.4480 H   0  0  0  0  0  0  0  0  0  0  0  0
   -0.1640   -0.5780   -0.2510 H   0  0  0  0  0  0  0  0  0  0  0  0
   -0.0290   -1.2210   -2.6080 H   0  0  0  0  0  0  0  0  0  0  0  0
    1.7080   -0.9040   -2.7030 H   0  0  0  0  0  0  0  0  0  0  0  0
    2.3320    1.6370   -3.2230 H   0  0  0  0  0  0  0  0  0  0  0  0
    0.9890    3.7630   -3.7000 H   0  0  0  0  0  0  0  0  0  0  0  0
   -1.7510    4.5080   -3.4390 H   0  0  0  0  0  0  0  0  0  0  0  0
   -3.9630    3.6080   -2.7060 H   0  0  0  0  0  0  0  0  0  0  0  0
   -4.1750    1.3440   -1.8720 H   0  0  0  0  0  0  0  0  0  0  0  0
   -2.1040   -0.1010   -1.7710 H   0  0  0  0  0  0  0  0  0  0  0  0
    0.3050   -3.2830   -1.0160 N   0  0  0  0  0  0  0  0  0  0  0  0
    0.4870   -4.6890   -0.6940 C   0  0  1  0  0  0  0  0  0  0  0  0
   -0.8010   -5.4000   -0.4490 C   0  0  0  0  0  0  0  0  0  0  0  0
   -1.5900   -4.8450    0.6510 C   0  0  0  0  0  0  0  0  0  0  0  0
   -2.5060   -3.8660    0.3300 C   0  0  0  0  0  0  0  0  0  0  0  0
   -3.2960   -3.2860    1.3180 C   0  0  0  0  0  0  0  0  0  0  0  0
   -3.1610   -3.6960    2.6300 C   0  0  0  0  0  0  0  0  0  0  0  0
   -2.2530   -4.6700    2.9670 C   0  0  0  0  0  0  0  0  0  0  0  0
   -1.4790   -5.2300    1.9640 C   0  0  0  0  0  0  0  0  0  0  0  0
    1.1820   -5.4080   -1.7970 C   0  0  0  0  0  0  0  0  0  0  0  0
    1.3850   -6.6380   -1.6410 O   0  0  0  0  0  0  0  0  0  0  0  0
    1.6200   -4.8260   -2.9700 O   0  0  0  0  0  0  0  0  0  0  0  0
   -0.4030   -3.0120   -1.7440 H   0  0  0  0  0  0  0  0  0  0  0  0
    1.1460   -4.7670    0.1860 H   0  0  0  0  0  0  0  0  0  0  0  0
   -1.4180   -5.3930   -1.3890 H   0  0  0  0  0  0  0  0  0  0  0  0
   -0.5650   -6.4730   -0.2830 H   0  0  0  0  0  0  0  0  0  0  0  0
   -2.6500   -3.5190   -0.6760 H   0  0  0  0  0  0  0  0  0  0  0  0
   -4.0150   -2.5230    1.0760 H   0  0  0  0  0  0  0  0  0  0  0  0
   -3.8060   -3.2100    3.3790 H   0  0  0  0  0  0  0  0  0  0  0  0
   -2.1390   -4.9950    3.9700 H   0  0  0  0  0  0  0  0  0  0  0  0
   -0.7720   -5.9920    2.2020 H   0  0  0  0  0  0  0  0  0  0  0  0
  1 12  1  0  0  0  0
  1  2  1  0  0  0  0
  2 14  1  1  0  0  0
  2  3  1  0  0  0  0
  3 16  1  0  0  0  0
  3  4  1  0  0  0  0
  4  5  1  0  0  0  0
  5 17  1  0  0  0  0
  5  6  2  0  0  0  0
  6 18  1  0  0  0  0
  7  6  1  0  0  0  0
  7 19  1  0  0  0  0
  8  7  2  0  0  0  0
  9  4  2  0  0  0  0
  9  8  1  0  0  0  0
 10 11  2  0  0  0  0
 10  2  1  0  0  0  0
 13  1  1  0  0  0  0
 15  3  1  0  0  0  0
 20  8  1  0  0  0  0
 21  9  1  0  0  0  0
 22 10  1  0  0  0  0
 23 34  1  0  0  0  0
 23 37  1  1  0  0  0
 23 22  1  0  0  0  0
 24 23  1  0  0  0  0
 25 33  1  0  0  0  0
 25 24  1  0  0  0  0
 26 25  2  0  0  0  0
 27 26  1  0  0  0  0
 27 28  1  0  0  0  0
 28 33  1  0  0  0  0
 29 28  2  0  0  0  0
 29 30  1  0  0  0  0
 30 31  2  0  0  0  0
 31 32  1  0  0  0  0
 31 44  1  0  0  0  0
 32 45  1  0  0  0  0
 33 32  2  0  0  0  0
 34 35  2  0  0  0  0
 36 22  1  0  0  0  0
 38 24  1  0  0  0  0
 39 24  1  0  0  0  0
 40 26  1  0  0  0  0
 41 27  1  0  0  0  0
 42 29  1  0  0  0  0
 43 30  1  0  0  0  0
 46 47  1  0  0  0  0
 46 34  1  0  0  0  0
 47 48  1  0  0  0  0
 47 59  1  1  0  0  0
 48 61  1  0  0  0  0
 48 49  1  0  0  0  0
 49 54  1  0  0  0  0
 50 49  2  0  0  0  0
 50 51  1  0  0  0  0
 51 52  2  0  0  0  0
 52 53  1  0  0  0  0
 52 64  1  0  0  0  0
 53 65  1  0  0  0  0
 54 66  1  0  0  0  0
 54 53  2  0  0  0  0
 55 56  1  0  0  0  0
 55 47  1  0  0  0  0
 57 55  2  0  0  0  0
 58 46  1  0  0  0  0
 60 48  1  0  0  0  0
 62 50  1  0  0  0  0
 63 51  1  0  0  0  0
M  END
$$$$
