FWG.pdb
 OpenBabel07022419013D

 53 55  0  0  1  0  0  0  0  0999 V2000
    3.0770   -1.0870   -1.9640 N   0  0  0  0  0  0  0  0  0  0  0  0
    3.3030   -0.9820   -0.5210 C   0  0  1  0  0  0  0  0  0  0  0  0
    4.1470    0.2120   -0.1980 C   0  0  0  0  0  0  0  0  0  0  0  0
    4.3680    0.3050    1.2540 C   0  0  0  0  0  0  0  0  0  0  0  0
    5.4210   -0.4060    1.8390 C   0  0  0  0  0  0  0  0  0  0  0  0
    5.6410   -0.2990    3.1970 C   0  0  0  0  0  0  0  0  0  0  0  0
    4.8590    0.4900    4.0180 C   0  0  0  0  0  0  0  0  0  0  0  0
    3.8220    1.1900    3.4420 C   0  0  0  0  0  0  0  0  0  0  0  0
    3.5870    1.0920    2.0680 C   0  0  0  0  0  0  0  0  0  0  0  0
    2.0100   -0.8980    0.1960 C   0  0  0  0  0  0  0  0  0  0  0  0
    1.9020   -0.9290    1.4450 O   0  0  0  0  0  0  0  0  0  0  0  0
    2.5910   -0.2100   -2.2640 H   0  0  0  0  0  0  0  0  0  0  0  0
    2.4270   -1.8740   -2.1840 H   0  0  0  0  0  0  0  0  0  0  0  0
    3.8910   -1.8950   -0.2390 H   0  0  0  0  0  0  0  0  0  0  0  0
    3.7080    1.1590   -0.5820 H   0  0  0  0  0  0  0  0  0  0  0  0
    5.1670    0.0420   -0.6560 H   0  0  0  0  0  0  0  0  0  0  0  0
    6.0270   -1.0200    1.1860 H   0  0  0  0  0  0  0  0  0  0  0  0
    6.4600   -0.8530    3.6460 H   0  0  0  0  0  0  0  0  0  0  0  0
    5.0270    0.5780    5.0810 H   0  0  0  0  0  0  0  0  0  0  0  0
    3.1540    1.8390    4.0210 H   0  0  0  0  0  0  0  0  0  0  0  0
    2.7770    1.6430    1.6010 H   0  0  0  0  0  0  0  0  0  0  0  0
    0.7830   -0.7720   -0.5210 N   0  0  0  0  0  0  0  0  0  0  0  0
   -0.4990   -0.6880    0.2090 C   0  0  1  0  0  0  0  0  0  0  0  0
   -1.1560    0.6260   -0.0700 C   0  0  0  0  0  0  0  0  0  0  0  0
   -2.4590    0.8100    0.5820 C   0  0  0  0  0  0  0  0  0  0  0  0
   -2.6930    1.4070    1.8260 C   0  0  0  0  0  0  0  0  0  0  0  0
   -4.0070    1.3590    2.0970 N   0  0  0  0  0  0  0  0  0  0  0  0
   -4.6860    0.7480    1.0790 C   0  0  0  0  0  0  0  0  0  0  0  0
   -6.0250    0.4790    0.8870 C   0  0  0  0  0  0  0  0  0  0  0  0
   -6.4580   -0.1420   -0.2600 C   0  0  0  0  0  0  0  0  0  0  0  0
   -5.5150   -0.4850   -1.2050 C   0  0  0  0  0  0  0  0  0  0  0  0
   -4.1850   -0.2130   -1.0010 C   0  0  0  0  0  0  0  0  0  0  0  0
   -3.7170    0.4180    0.1570 C   0  0  0  0  0  0  0  0  0  0  0  0
   -1.2760   -1.9010   -0.0680 C   0  0  0  0  0  0  0  0  0  0  0  0
   -2.3550   -2.2100    0.4990 O   0  0  0  0  0  0  0  0  0  0  0  0
    0.7500   -0.7370   -1.5610 H   0  0  0  0  0  0  0  0  0  0  0  0
   -0.2790   -0.6870    1.3200 H   0  0  0  0  0  0  0  0  0  0  0  0
   -0.5110    1.4870    0.2700 H   0  0  0  0  0  0  0  0  0  0  0  0
   -1.2670    0.8130   -1.1680 H   0  0  0  0  0  0  0  0  0  0  0  0
   -1.8900    1.8230    2.4230 H   0  0  0  0  0  0  0  0  0  0  0  0
   -4.4670    1.7250    2.9470 H   0  0  0  0  0  0  0  0  0  0  0  0
   -6.7630    0.7480    1.6260 H   0  0  0  0  0  0  0  0  0  0  0  0
   -7.5260   -0.3620   -0.4260 H   0  0  0  0  0  0  0  0  0  0  0  0
   -5.8280   -0.9710   -2.1100 H   0  0  0  0  0  0  0  0  0  0  0  0
   -3.3980   -0.4640   -1.7190 H   0  0  0  0  0  0  0  0  0  0  0  0
   -0.8420   -2.8700   -1.0510 N   0  0  0  0  0  0  0  0  0  0  0  0
   -1.6120   -4.0750   -1.3240 C   0  0  0  0  0  0  0  0  0  0  0  0
   -1.7000   -4.8560   -0.0630 C   0  0  0  0  0  0  0  0  0  0  0  0
   -2.3210   -5.9510   -0.0200 O   0  0  0  0  0  0  0  0  0  0  0  0
   -1.1160   -4.4390    1.1230 O   0  0  0  0  0  0  0  0  0  0  0  0
    0.0460   -2.6720   -1.5600 H   0  0  0  0  0  0  0  0  0  0  0  0
   -1.1370   -4.6820   -2.0980 H   0  0  0  0  0  0  0  0  0  0  0  0
   -2.6520   -3.7660   -1.5880 H   0  0  0  0  0  0  0  0  0  0  0  0
  1  2  1  0  0  0  0
  2 14  1  1  0  0  0
  2  3  1  0  0  0  0
  2 10  1  0  0  0  0
  3  4  1  0  0  0  0
  4  5  2  0  0  0  0
  4  9  1  0  0  0  0
  5  6  1  0  0  0  0
  6 18  1  0  0  0  0
  6  7  2  0  0  0  0
  7 19  1  0  0  0  0
  8  7  1  0  0  0  0
  8 20  1  0  0  0  0
  9  8  2  0  0  0  0
 10 11  2  0  0  0  0
 12  1  1  0  0  0  0
 13  1  1  0  0  0  0
 15  3  1  0  0  0  0
 16  3  1  0  0  0  0
 17  5  1  0  0  0  0
 21  9  1  0  0  0  0
 22 10  1  0  0  0  0
 22 23  1  0  0  0  0
 23 37  1  1  0  0  0
 24 23  1  0  0  0  0
 24 38  1  0  0  0  0
 24 25  1  0  0  0  0
 25 26  2  0  0  0  0
 26 27  1  0  0  0  0
 26 40  1  0  0  0  0
 27 41  1  0  0  0  0
 28 27  1  0  0  0  0
 29 28  1  0  0  0  0
 29 42  1  0  0  0  0
 30 29  2  0  0  0  0
 31 32  2  0  0  0  0
 31 30  1  0  0  0  0
 32 33  1  0  0  0  0
 33 25  1  0  0  0  0
 33 28  2  0  0  0  0
 34 23  1  0  0  0  0
 34 35  2  0  0  0  0
 36 22  1  0  0  0  0
 39 24  1  0  0  0  0
 43 30  1  0  0  0  0
 44 31  1  0  0  0  0
 45 32  1  0  0  0  0
 46 34  1  0  0  0  0
 47 46  1  0  0  0  0
 47 48  1  0  0  0  0
 48 49  2  0  0  0  0
 48 50  1  0  0  0  0
 51 46  1  0  0  0  0
 52 47  1  0  0  0  0
 53 47  1  0  0  0  0
M  END
$$$$
