FWI.pdb
 OpenBabel07022419013D

 65 67  0  0  1  0  0  0  0  0999 V2000
    0.4840   -0.6590    5.7740 N   0  0  0  0  0  0  0  0  0  0  0  0
    0.8690    0.4300    4.8480 C   0  0  1  0  0  0  0  0  0  0  0  0
    2.3450    0.5230    4.7340 C   0  0  0  0  0  0  0  0  0  0  0  0
    3.0480   -0.6710    4.2350 C   0  0  0  0  0  0  0  0  0  0  0  0
    3.3310   -1.7150    5.1210 C   0  0  0  0  0  0  0  0  0  0  0  0
    4.0060   -2.8400    4.7460 C   0  0  0  0  0  0  0  0  0  0  0  0
    4.4160   -2.9320    3.4340 C   0  0  0  0  0  0  0  0  0  0  0  0
    4.1530   -1.9180    2.5300 C   0  0  0  0  0  0  0  0  0  0  0  0
    3.4750   -0.8050    2.9410 C   0  0  0  0  0  0  0  0  0  0  0  0
    0.1750    0.2380    3.5930 C   0  0  0  0  0  0  0  0  0  0  0  0
   -0.6500   -0.7290    3.5230 O   0  0  0  0  0  0  0  0  0  0  0  0
    0.7330   -1.5590    5.3270 H   0  0  0  0  0  0  0  0  0  0  0  0
   -0.5580   -0.6200    5.8130 H   0  0  0  0  0  0  0  0  0  0  0  0
    0.5300    1.3890    5.3680 H   0  0  0  0  0  0  0  0  0  0  0  0
    2.5890    1.3600    4.0380 H   0  0  0  0  0  0  0  0  0  0  0  0
    2.7800    0.7410    5.7490 H   0  0  0  0  0  0  0  0  0  0  0  0
    3.0120   -1.6500    6.1550 H   0  0  0  0  0  0  0  0  0  0  0  0
    4.2100   -3.6380    5.4680 H   0  0  0  0  0  0  0  0  0  0  0  0
    4.9540   -3.7940    3.0690 H   0  0  0  0  0  0  0  0  0  0  0  0
    4.4970   -2.0200    1.4820 H   0  0  0  0  0  0  0  0  0  0  0  0
    3.2820    0.0150    2.2320 H   0  0  0  0  0  0  0  0  0  0  0  0
    0.3000    1.0230    2.4020 N   0  0  0  0  0  0  0  0  0  0  0  0
   -0.5120    0.7240    1.2120 C   0  0  1  0  0  0  0  0  0  0  0  0
   -1.3540    1.9160    0.9080 C   0  0  0  0  0  0  0  0  0  0  0  0
   -2.2560    1.8300   -0.2380 C   0  0  0  0  0  0  0  0  0  0  0  0
   -2.1510    2.4080   -1.4780 C   0  0  0  0  0  0  0  0  0  0  0  0
   -3.2260    2.0590   -2.1800 N   0  0  0  0  0  0  0  0  0  0  0  0
   -4.0370    1.2750   -1.4560 C   0  0  0  0  0  0  0  0  0  0  0  0
   -5.2620    0.6770   -1.7800 C   0  0  0  0  0  0  0  0  0  0  0  0
   -5.8770   -0.0910   -0.8170 C   0  0  0  0  0  0  0  0  0  0  0  0
   -5.2750   -0.2440    0.4150 C   0  0  0  0  0  0  0  0  0  0  0  0
   -4.0780    0.3390    0.7340 C   0  0  0  0  0  0  0  0  0  0  0  0
   -3.4470    1.1180   -0.2320 C   0  0  0  0  0  0  0  0  0  0  0  0
    0.2600    0.1580    0.1210 C   0  0  0  0  0  0  0  0  0  0  0  0
    1.5310    0.0750    0.2700 O   0  0  0  0  0  0  0  0  0  0  0  0
    0.9900    1.8030    2.4310 H   0  0  0  0  0  0  0  0  0  0  0  0
   -1.2200   -0.0910    1.5420 H   0  0  0  0  0  0  0  0  0  0  0  0
   -2.0020    2.1260    1.8100 H   0  0  0  0  0  0  0  0  0  0  0  0
   -0.7660    2.8550    0.7930 H   0  0  0  0  0  0  0  0  0  0  0  0
   -1.3460    3.0240   -1.8090 H   0  0  0  0  0  0  0  0  0  0  0  0
   -3.4700    2.3310   -3.1820 H   0  0  0  0  0  0  0  0  0  0  0  0
   -5.7140    0.8130   -2.7530 H   0  0  0  0  0  0  0  0  0  0  0  0
   -6.8360   -0.5920   -0.9900 H   0  0  0  0  0  0  0  0  0  0  0  0
   -5.7600   -0.8520    1.1790 H   0  0  0  0  0  0  0  0  0  0  0  0
   -3.5870    0.2370    1.6880 H   0  0  0  0  0  0  0  0  0  0  0  0
    0.7770   -4.5550   -3.3290 C   0  0  0  0  0  0  0  0  0  0  0  0
    1.1790   -3.0990   -3.2590 C   0  0  0  0  0  0  0  0  0  0  0  0
    0.3150   -2.3480   -2.2670 C   0  0  2  0  0  0  0  0  0  0  0  0
   -1.1350   -2.3920   -2.6370 C   0  0  0  0  0  0  0  0  0  0  0  0
    0.7280   -0.8950   -2.1110 C   0  0  2  0  0  0  0  0  0  0  0  0
   -0.2070   -0.3370   -1.1200 N   0  0  0  0  0  0  0  0  0  0  0  0
    0.5810   -0.1340   -3.3640 C   0  0  0  0  0  0  0  0  0  0  0  0
   -0.2620    0.8040   -3.5350 O   0  0  0  0  0  0  0  0  0  0  0  0
    1.3740   -0.3820   -4.5000 O   0  0  0  0  0  0  0  0  0  0  0  0
    0.4150   -4.8320   -4.3500 H   0  0  0  0  0  0  0  0  0  0  0  0
    0.0050   -4.8180   -2.5600 H   0  0  0  0  0  0  0  0  0  0  0  0
    1.6510   -5.1900   -3.1110 H   0  0  0  0  0  0  0  0  0  0  0  0
    1.1510   -2.6690   -4.2730 H   0  0  0  0  0  0  0  0  0  0  0  0
    2.2360   -3.0610   -2.9170 H   0  0  0  0  0  0  0  0  0  0  0  0
    0.4490   -2.8250   -1.2690 H   0  0  0  0  0  0  0  0  0  0  0  0
   -1.4130   -1.4200   -3.1010 H   0  0  0  0  0  0  0  0  0  0  0  0
   -1.7340   -2.4770   -1.7100 H   0  0  0  0  0  0  0  0  0  0  0  0
   -1.3650   -3.2520   -3.3230 H   0  0  0  0  0  0  0  0  0  0  0  0
    1.7640   -0.8520   -1.7360 H   0  0  0  0  0  0  0  0  0  0  0  0
   -1.2080   -0.3020   -1.3060 H   0  0  0  0  0  0  0  0  0  0  0  0
  1 13  1  0  0  0  0
  2 14  1  1  0  0  0
  2  1  1  0  0  0  0
  3  2  1  0  0  0  0
  3 16  1  0  0  0  0
  4  3  1  0  0  0  0
  4  5  1  0  0  0  0
  5 17  1  0  0  0  0
  6  5  2  0  0  0  0
  6 18  1  0  0  0  0
  7  6  1  0  0  0  0
  8  9  1  0  0  0  0
  8  7  2  0  0  0  0
  9  4  2  0  0  0  0
 10  2  1  0  0  0  0
 11 10  2  0  0  0  0
 12  1  1  0  0  0  0
 15  3  1  0  0  0  0
 19  7  1  0  0  0  0
 20  8  1  0  0  0  0
 21  9  1  0  0  0  0
 22 36  1  0  0  0  0
 22 10  1  0  0  0  0
 23 37  1  1  0  0  0
 23 22  1  0  0  0  0
 24 23  1  0  0  0  0
 24 38  1  0  0  0  0
 25 33  1  0  0  0  0
 25 24  1  0  0  0  0
 26 25  2  0  0  0  0
 27 26  1  0  0  0  0
 27 28  1  0  0  0  0
 28 33  1  0  0  0  0
 29 28  2  0  0  0  0
 29 30  1  0  0  0  0
 30 31  2  0  0  0  0
 31 32  1  0  0  0  0
 31 44  1  0  0  0  0
 32 45  1  0  0  0  0
 33 32  2  0  0  0  0
 34 35  2  0  0  0  0
 34 23  1  0  0  0  0
 39 24  1  0  0  0  0
 40 26  1  0  0  0  0
 41 27  1  0  0  0  0
 42 29  1  0  0  0  0
 43 30  1  0  0  0  0
 46 47  1  0  0  0  0
 46 57  1  0  0  0  0
 46 56  1  0  0  0  0
 47 59  1  0  0  0  0
 47 48  1  0  0  0  0
 48 50  1  0  0  0  0
 48 60  1  1  0  0  0
 49 48  1  0  0  0  0
 49 62  1  0  0  0  0
 50 64  1  1  0  0  0
 50 51  1  0  0  0  0
 51 34  1  0  0  0  0
 52 50  1  0  0  0  0
 53 52  1  0  0  0  0
 54 52  2  0  0  0  0
 55 46  1  0  0  0  0
 58 47  1  0  0  0  0
 61 49  1  0  0  0  0
 63 49  1  0  0  0  0
 65 51  1  0  0  0  0
M  END
$$$$
