FWK.pdb
 OpenBabel07022419013D

 67 69  0  0  1  0  0  0  0  0999 V2000
    0.2690   -1.8370    2.9180 N   0  0  0  0  0  0  0  0  0  0  0  0
   -1.0450   -1.2680    2.7050 C   0  0  1  0  0  0  0  0  0  0  0  0
   -1.4830   -0.3010    3.7350 C   0  0  0  0  0  0  0  0  0  0  0  0
   -0.6600    0.8880    3.9200 C   0  0  0  0  0  0  0  0  0  0  0  0
    0.3970    0.8710    4.7970 C   0  0  0  0  0  0  0  0  0  0  0  0
    1.1540    2.0080    4.9670 C   0  0  0  0  0  0  0  0  0  0  0  0
    0.8930    3.1760    4.2880 C   0  0  0  0  0  0  0  0  0  0  0  0
   -0.1700    3.1670    3.4170 C   0  0  0  0  0  0  0  0  0  0  0  0
   -0.9370    2.0460    3.2320 C   0  0  0  0  0  0  0  0  0  0  0  0
   -1.1950   -0.7340    1.3290 C   0  0  0  0  0  0  0  0  0  0  0  0
   -2.2160   -0.1190    1.0120 O   0  0  0  0  0  0  0  0  0  0  0  0
    0.4080   -2.0650    3.9200 H   0  0  0  0  0  0  0  0  0  0  0  0
    0.3710   -2.7660    2.4120 H   0  0  0  0  0  0  0  0  0  0  0  0
   -1.7480   -2.1570    2.7840 H   0  0  0  0  0  0  0  0  0  0  0  0
   -2.5620   -0.0340    3.5370 H   0  0  0  0  0  0  0  0  0  0  0  0
   -1.5450   -0.8620    4.7150 H   0  0  0  0  0  0  0  0  0  0  0  0
    0.6720   -0.0200    5.3760 H   0  0  0  0  0  0  0  0  0  0  0  0
    1.9860    1.9620    5.6710 H   0  0  0  0  0  0  0  0  0  0  0  0
    1.5060    4.0740    4.4400 H   0  0  0  0  0  0  0  0  0  0  0  0
   -0.3970    4.0740    2.8670 H   0  0  0  0  0  0  0  0  0  0  0  0
   -1.7570    2.1290    2.5270 H   0  0  0  0  0  0  0  0  0  0  0  0
   -0.2210   -0.8870    0.3250 N   0  0  0  0  0  0  0  0  0  0  0  0
   -0.3360   -0.3980   -0.9690 C   0  0  1  0  0  0  0  0  0  0  0  0
    0.7290    0.3680   -1.6110 C   0  0  0  0  0  0  0  0  0  0  0  0
    1.0310    1.6160   -0.8510 C   0  0  0  0  0  0  0  0  0  0  0  0
    2.1180    1.8180   -0.0330 C   0  0  0  0  0  0  0  0  0  0  0  0
    2.0440    3.0660    0.4760 N   0  0  0  0  0  0  0  0  0  0  0  0
    0.9450    3.6840    0.0160 C   0  0  0  0  0  0  0  0  0  0  0  0
    0.4010    4.9580    0.2210 C   0  0  0  0  0  0  0  0  0  0  0  0
   -0.7690    5.2540   -0.4310 C   0  0  0  0  0  0  0  0  0  0  0  0
   -1.4070    4.3520   -1.2620 C   0  0  0  0  0  0  0  0  0  0  0  0
   -0.8650    3.0980   -1.4590 C   0  0  0  0  0  0  0  0  0  0  0  0
    0.3060    2.7880   -0.8130 C   0  0  0  0  0  0  0  0  0  0  0  0
   -0.7310   -1.4990   -1.9370 C   0  0  0  0  0  0  0  0  0  0  0  0
   -0.8040   -1.2990   -3.1760 O   0  0  0  0  0  0  0  0  0  0  0  0
    0.6420   -1.4080    0.5940 H   0  0  0  0  0  0  0  0  0  0  0  0
   -1.2830    0.2400   -1.0020 H   0  0  0  0  0  0  0  0  0  0  0  0
    1.6830   -0.1030   -1.7970 H   0  0  0  0  0  0  0  0  0  0  0  0
    0.3720    0.7290   -2.6260 H   0  0  0  0  0  0  0  0  0  0  0  0
    2.9280    1.1310    0.2040 H   0  0  0  0  0  0  0  0  0  0  0  0
    2.7280    3.4970    1.1260 H   0  0  0  0  0  0  0  0  0  0  0  0
    0.9200    5.6360    0.8730 H   0  0  0  0  0  0  0  0  0  0  0  0
   -1.2120    6.2280   -0.2930 H   0  0  0  0  0  0  0  0  0  0  0  0
   -2.3300    4.6230   -1.7580 H   0  0  0  0  0  0  0  0  0  0  0  0
   -1.3410    2.3710   -2.1050 H   0  0  0  0  0  0  0  0  0  0  0  0
   -1.0370   -2.8040   -1.4610 N   0  0  0  0  0  0  0  0  0  0  0  0
   -1.4100   -3.9070   -2.2600 C   0  0  1  0  0  0  0  0  0  0  0  0
   -0.4670   -5.0200   -2.2630 C   0  0  0  0  0  0  0  0  0  0  0  0
   -0.0750   -5.7650   -1.0850 C   0  0  0  0  0  0  0  0  0  0  0  0
    0.6460   -5.1620    0.0420 C   0  0  0  0  0  0  0  0  0  0  0  0
    1.9980   -4.5850   -0.3070 C   0  0  0  0  0  0  0  0  0  0  0  0
    1.9910   -3.5520   -1.2810 N   0  0  0  0  0  0  0  0  0  0  0  0
   -2.8440   -4.2900   -2.1170 C   0  0  0  0  0  0  0  0  0  0  0  0
   -3.6620   -3.6930   -1.3690 O   0  0  0  0  0  0  0  0  0  0  0  0
   -3.3550   -5.3660   -2.8340 O   0  0  0  0  0  0  0  0  0  0  0  0
   -0.9840   -2.9110   -0.4310 H   0  0  0  0  0  0  0  0  0  0  0  0
   -1.3760   -3.4880   -3.3370 H   0  0  0  0  0  0  0  0  0  0  0  0
    0.4900   -4.6340   -2.7630 H   0  0  0  0  0  0  0  0  0  0  0  0
   -0.8170   -5.7710   -3.0440 H   0  0  0  0  0  0  0  0  0  0  0  0
   -0.9650   -6.3750   -0.6830 H   0  0  0  0  0  0  0  0  0  0  0  0
    0.5870   -6.6240   -1.4500 H   0  0  0  0  0  0  0  0  0  0  0  0
    0.9270   -6.0570    0.7220 H   0  0  0  0  0  0  0  0  0  0  0  0
    0.1330   -4.5050    0.7290 H   0  0  0  0  0  0  0  0  0  0  0  0
    2.4620   -4.1370    0.6230 H   0  0  0  0  0  0  0  0  0  0  0  0
    2.7330   -5.3960   -0.5880 H   0  0  0  0  0  0  0  0  0  0  0  0
    2.2920   -2.6250   -0.8970 H   0  0  0  0  0  0  0  0  0  0  0  0
    2.6690   -3.7900   -2.0370 H   0  0  0  0  0  0  0  0  0  0  0  0
  1 12  1  0  0  0  0
  2 14  1  1  0  0  0
  2  1  1  0  0  0  0
  2  3  1  0  0  0  0
  3  4  1  0  0  0  0
  3 16  1  0  0  0  0
  4  5  1  0  0  0  0
  5  6  2  0  0  0  0
  5 17  1  0  0  0  0
  6 18  1  0  0  0  0
  7 19  1  0  0  0  0
  7  6  1  0  0  0  0
  8  7  2  0  0  0  0
  9  8  1  0  0  0  0
  9  4  2  0  0  0  0
 10  2  1  0  0  0  0
 11 10  2  0  0  0  0
 13  1  1  0  0  0  0
 15  3  1  0  0  0  0
 20  8  1  0  0  0  0
 21  9  1  0  0  0  0
 22 36  1  0  0  0  0
 22 10  1  0  0  0  0
 23 37  1  1  0  0  0
 23 22  1  0  0  0  0
 24 23  1  0  0  0  0
 24 25  1  0  0  0  0
 25 33  1  0  0  0  0
 25 26  2  0  0  0  0
 26 40  1  0  0  0  0
 26 27  1  0  0  0  0
 27 41  1  0  0  0  0
 28 29  1  0  0  0  0
 28 27  1  0  0  0  0
 29 42  1  0  0  0  0
 30 43  1  0  0  0  0
 30 29  2  0  0  0  0
 31 30  1  0  0  0  0
 32 31  2  0  0  0  0
 32 33  1  0  0  0  0
 33 28  2  0  0  0  0
 34 46  1  0  0  0  0
 34 23  1  0  0  0  0
 35 34  2  0  0  0  0
 38 24  1  0  0  0  0
 39 24  1  0  0  0  0
 44 31  1  0  0  0  0
 45 32  1  0  0  0  0
 46 56  1  0  0  0  0
 47 57  1  6  0  0  0
 47 53  1  0  0  0  0
 47 46  1  0  0  0  0
 48 47  1  0  0  0  0
 48 49  1  0  0  0  0
 49 60  1  0  0  0  0
 49 50  1  0  0  0  0
 50 62  1  0  0  0  0
 50 63  1  0  0  0  0
 51 50  1  0  0  0  0
 51 64  1  0  0  0  0
 52 66  1  0  0  0  0
 52 51  1  0  0  0  0
 53 54  1  0  0  0  0
 55 53  2  0  0  0  0
 58 48  1  0  0  0  0
 59 48  1  0  0  0  0
 61 49  1  0  0  0  0
 65 51  1  0  0  0  0
 67 52  1  0  0  0  0
M  END
$$$$
