FWL.pdb
 OpenBabel07022419013D

 65 67  0  0  1  0  0  0  0  0999 V2000
    0.6810    0.9800    5.6620 N   0  0  0  0  0  0  0  0  0  0  0  0
    1.0960    1.6480    4.4090 C   0  0  1  0  0  0  0  0  0  0  0  0
    2.5590    1.3250    4.2620 C   0  0  0  0  0  0  0  0  0  0  0  0
    2.7720   -0.1330    4.1910 C   0  0  0  0  0  0  0  0  0  0  0  0
    2.9430   -0.8760    5.3590 C   0  0  0  0  0  0  0  0  0  0  0  0
    3.1550   -2.2340    5.3390 C   0  0  0  0  0  0  0  0  0  0  0  0
    3.2000   -2.8750    4.1270 C   0  0  0  0  0  0  0  0  0  0  0  0
    3.0340   -2.1710    2.9370 C   0  0  0  0  0  0  0  0  0  0  0  0
    2.8250   -0.8210    3.0050 C   0  0  0  0  0  0  0  0  0  0  0  0
    0.2740    1.1010    3.3210 C   0  0  0  0  0  0  0  0  0  0  0  0
   -0.5180    0.1440    3.5510 O   0  0  0  0  0  0  0  0  0  0  0  0
    0.4910   -0.0210    5.4230 H   0  0  0  0  0  0  0  0  0  0  0  0
   -0.1890    1.4390    6.0350 H   0  0  0  0  0  0  0  0  0  0  0  0
    0.9530    2.7470    4.5360 H   0  0  0  0  0  0  0  0  0  0  0  0
    2.9460    1.8160    3.3460 H   0  0  0  0  0  0  0  0  0  0  0  0
    3.1040    1.6870    5.1800 H   0  0  0  0  0  0  0  0  0  0  0  0
    2.9160   -0.4050    6.3440 H   0  0  0  0  0  0  0  0  0  0  0  0
    3.2830   -2.7770    6.2900 H   0  0  0  0  0  0  0  0  0  0  0  0
    3.3660   -3.9480    4.1240 H   0  0  0  0  0  0  0  0  0  0  0  0
    3.0770   -2.7120    2.0020 H   0  0  0  0  0  0  0  0  0  0  0  0
    2.7020   -0.2590    2.0900 H   0  0  0  0  0  0  0  0  0  0  0  0
    0.2710    1.5610    1.9720 N   0  0  0  0  0  0  0  0  0  0  0  0
   -0.5970    0.9650    0.9500 C   0  0  1  0  0  0  0  0  0  0  0  0
   -1.6390    1.9660    0.5790 C   0  0  0  0  0  0  0  0  0  0  0  0
   -2.6060    1.5180   -0.4230 C   0  0  0  0  0  0  0  0  0  0  0  0
   -2.7130    1.8550   -1.7460 C   0  0  0  0  0  0  0  0  0  0  0  0
   -3.7580    1.2210   -2.2750 N   0  0  0  0  0  0  0  0  0  0  0  0
   -4.3340    0.4760   -1.3240 C   0  0  0  0  0  0  0  0  0  0  0  0
   -5.4490   -0.3670   -1.3470 C   0  0  0  0  0  0  0  0  0  0  0  0
   -5.8230   -1.0170   -0.1900 C   0  0  0  0  0  0  0  0  0  0  0  0
   -5.1350   -0.8670    1.0010 C   0  0  0  0  0  0  0  0  0  0  0  0
   -4.0360   -0.0330    1.0150 C   0  0  0  0  0  0  0  0  0  0  0  0
   -3.6450    0.6320   -0.1480 C   0  0  0  0  0  0  0  0  0  0  0  0
    0.1830    0.3900   -0.1500 C   0  0  0  0  0  0  0  0  0  0  0  0
    1.4380    0.6180   -0.1320 O   0  0  0  0  0  0  0  0  0  0  0  0
    0.9050    2.3380    1.7230 H   0  0  0  0  0  0  0  0  0  0  0  0
   -1.1230    0.1290    1.4520 H   0  0  0  0  0  0  0  0  0  0  0  0
   -1.2000    2.9570    0.3130 H   0  0  0  0  0  0  0  0  0  0  0  0
   -2.2230    2.1710    1.5240 H   0  0  0  0  0  0  0  0  0  0  0  0
   -2.0680    2.5180   -2.2750 H   0  0  0  0  0  0  0  0  0  0  0  0
   -4.1120    1.2680   -3.2810 H   0  0  0  0  0  0  0  0  0  0  0  0
   -5.9850   -0.4810   -2.2870 H   0  0  0  0  0  0  0  0  0  0  0  0
   -6.6960   -1.6640   -0.2470 H   0  0  0  0  0  0  0  0  0  0  0  0
   -5.4450   -1.3850    1.8940 H   0  0  0  0  0  0  0  0  0  0  0  0
   -3.4540    0.1290    1.9210 H   0  0  0  0  0  0  0  0  0  0  0  0
    1.1770   -3.3840   -4.3270 C   0  0  0  0  0  0  0  0  0  0  0  0
    1.5700   -3.2390   -2.8990 C   0  0  0  0  0  0  0  0  0  0  0  0
    1.5760   -4.6530   -2.2770 C   0  0  0  0  0  0  0  0  0  0  0  0
    0.7530   -2.3920   -2.0200 C   0  0  0  0  0  0  0  0  0  0  0  0
    0.6110   -0.9340   -2.2630 C   0  0  2  0  0  0  0  0  0  0  0  0
   -0.2900   -0.3820   -1.2060 N   0  0  0  0  0  0  0  0  0  0  0  0
    0.1970   -0.4540   -3.5530 C   0  0  0  0  0  0  0  0  0  0  0  0
   -0.9330    0.1270   -3.7130 O   0  0  0  0  0  0  0  0  0  0  0  0
    0.9450   -0.5540   -4.7120 O   0  0  0  0  0  0  0  0  0  0  0  0
    0.1390   -3.0630   -4.5610 H   0  0  0  0  0  0  0  0  0  0  0  0
    1.2180   -4.5010   -4.6260 H   0  0  0  0  0  0  0  0  0  0  0  0
    1.9570   -2.9560   -4.9890 H   0  0  0  0  0  0  0  0  0  0  0  0
    2.6630   -2.9260   -2.8160 H   0  0  0  0  0  0  0  0  0  0  0  0
    2.5600   -5.1190   -2.3370 H   0  0  0  0  0  0  0  0  0  0  0  0
    0.8360   -5.3010   -2.7760 H   0  0  0  0  0  0  0  0  0  0  0  0
    1.2830   -4.6110   -1.2010 H   0  0  0  0  0  0  0  0  0  0  0  0
    1.1800   -2.5390   -0.9670 H   0  0  0  0  0  0  0  0  0  0  0  0
   -0.3000   -2.8020   -1.9500 H   0  0  0  0  0  0  0  0  0  0  0  0
    1.6240   -0.4850   -2.0020 H   0  0  0  0  0  0  0  0  0  0  0  0
   -1.2910   -0.6090   -1.3000 H   0  0  0  0  0  0  0  0  0  0  0  0
  1 13  1  0  0  0  0
  2 14  1  1  0  0  0
  2  1  1  0  0  0  0
  3  2  1  0  0  0  0
  3 16  1  0  0  0  0
  4  3  1  0  0  0  0
  4  5  1  0  0  0  0
  5 17  1  0  0  0  0
  6  5  2  0  0  0  0
  6 18  1  0  0  0  0
  7  6  1  0  0  0  0
  8  9  1  0  0  0  0
  8  7  2  0  0  0  0
  9  4  2  0  0  0  0
 10 11  2  0  0  0  0
 10  2  1  0  0  0  0
 12  1  1  0  0  0  0
 15  3  1  0  0  0  0
 19  7  1  0  0  0  0
 20  8  1  0  0  0  0
 21  9  1  0  0  0  0
 22 10  1  0  0  0  0
 23 37  1  1  0  0  0
 23 22  1  0  0  0  0
 24 23  1  0  0  0  0
 24 39  1  0  0  0  0
 25 33  1  0  0  0  0
 25 24  1  0  0  0  0
 26 25  2  0  0  0  0
 27 26  1  0  0  0  0
 27 28  1  0  0  0  0
 28 33  1  0  0  0  0
 29 28  2  0  0  0  0
 29 30  1  0  0  0  0
 30 31  2  0  0  0  0
 31 32  1  0  0  0  0
 31 44  1  0  0  0  0
 32 45  1  0  0  0  0
 33 32  2  0  0  0  0
 34 35  2  0  0  0  0
 34 23  1  0  0  0  0
 36 22  1  0  0  0  0
 38 24  1  0  0  0  0
 40 26  1  0  0  0  0
 41 27  1  0  0  0  0
 42 29  1  0  0  0  0
 43 30  1  0  0  0  0
 46 47  1  0  0  0  0
 47 58  1  0  0  0  0
 47 48  1  0  0  0  0
 47 49  1  0  0  0  0
 48 61  1  0  0  0  0
 49 63  1  0  0  0  0
 49 62  1  0  0  0  0
 50 49  1  0  0  0  0
 50 64  1  1  0  0  0
 50 51  1  0  0  0  0
 51 34  1  0  0  0  0
 52 50  1  0  0  0  0
 53 52  1  0  0  0  0
 54 52  2  0  0  0  0
 55 46  1  0  0  0  0
 56 46  1  0  0  0  0
 57 46  1  0  0  0  0
 59 48  1  0  0  0  0
 60 48  1  0  0  0  0
 65 51  1  0  0  0  0
M  END
$$$$
