FWM.pdb
 OpenBabel07022419013D

 63 65  0  0  1  0  0  0  0  0999 V2000
    0.1050    0.5110    5.5110 N   0  0  0  0  0  0  0  0  0  0  0  0
    0.4870    1.4290    4.4110 C   0  0  1  0  0  0  0  0  0  0  0  0
    1.9570    1.5510    4.4030 C   0  0  0  0  0  0  0  0  0  0  0  0
    2.7260    0.3220    4.2050 C   0  0  0  0  0  0  0  0  0  0  0  0
    3.0030   -0.5470    5.2430 C   0  0  0  0  0  0  0  0  0  0  0  0
    3.7580   -1.7010    5.0690 C   0  0  0  0  0  0  0  0  0  0  0  0
    4.2310   -1.9610    3.8140 C   0  0  0  0  0  0  0  0  0  0  0  0
    3.9650   -1.1050    2.7680 C   0  0  0  0  0  0  0  0  0  0  0  0
    3.2160    0.0350    2.9500 C   0  0  0  0  0  0  0  0  0  0  0  0
   -0.1310    0.9110    3.1840 C   0  0  0  0  0  0  0  0  0  0  0  0
   -0.8230   -0.1500    3.2700 O   0  0  0  0  0  0  0  0  0  0  0  0
    0.3800   -0.4730    5.2280 H   0  0  0  0  0  0  0  0  0  0  0  0
   -0.9540    0.5150    5.5300 H   0  0  0  0  0  0  0  0  0  0  0  0
    0.0380    2.4210    4.7040 H   0  0  0  0  0  0  0  0  0  0  0  0
    2.2780    2.3610    3.6860 H   0  0  0  0  0  0  0  0  0  0  0  0
    2.2550    1.9720    5.4120 H   0  0  0  0  0  0  0  0  0  0  0  0
    2.6430   -0.3720    6.2480 H   0  0  0  0  0  0  0  0  0  0  0  0
    3.9750   -2.3770    5.8710 H   0  0  0  0  0  0  0  0  0  0  0  0
    4.8280   -2.8590    3.6420 H   0  0  0  0  0  0  0  0  0  0  0  0
    4.3520   -1.3260    1.7640 H   0  0  0  0  0  0  0  0  0  0  0  0
    3.0310    0.7060    2.1130 H   0  0  0  0  0  0  0  0  0  0  0  0
   -0.0430    1.4810    1.8920 N   0  0  0  0  0  0  0  0  0  0  0  0
   -0.7440    0.8640    0.7670 C   0  0  1  0  0  0  0  0  0  0  0  0
   -1.7570    1.7970    0.2080 C   0  0  0  0  0  0  0  0  0  0  0  0
   -2.5360    1.2850   -0.9120 C   0  0  0  0  0  0  0  0  0  0  0  0
   -2.4620    1.5780   -2.2550 C   0  0  0  0  0  0  0  0  0  0  0  0
   -3.3980    0.8740   -2.8900 N   0  0  0  0  0  0  0  0  0  0  0  0
   -4.0790    0.1330   -2.0070 C   0  0  0  0  0  0  0  0  0  0  0  0
   -5.1450   -0.7650   -2.1530 C   0  0  0  0  0  0  0  0  0  0  0  0
   -5.6240   -1.3680   -1.0340 C   0  0  0  0  0  0  0  0  0  0  0  0
   -5.1380   -1.1620    0.2340 C   0  0  0  0  0  0  0  0  0  0  0  0
   -4.0840   -0.2760    0.3820 C   0  0  0  0  0  0  0  0  0  0  0  0
   -3.5690    0.3610   -0.7560 C   0  0  0  0  0  0  0  0  0  0  0  0
    0.2160    0.2820   -0.1970 C   0  0  0  0  0  0  0  0  0  0  0  0
    1.4450    0.5460   -0.0010 O   0  0  0  0  0  0  0  0  0  0  0  0
    0.5240    2.3340    1.7750 H   0  0  0  0  0  0  0  0  0  0  0  0
   -1.2930   -0.0120    1.1710 H   0  0  0  0  0  0  0  0  0  0  0  0
   -2.5020    2.0360    1.0250 H   0  0  0  0  0  0  0  0  0  0  0  0
   -1.3600    2.7880   -0.0800 H   0  0  0  0  0  0  0  0  0  0  0  0
   -1.7520    2.2660   -2.6790 H   0  0  0  0  0  0  0  0  0  0  0  0
   -3.6270    0.8520   -3.9250 H   0  0  0  0  0  0  0  0  0  0  0  0
   -5.5390   -0.9370   -3.1540 H   0  0  0  0  0  0  0  0  0  0  0  0
   -6.4470   -2.0620   -1.1420 H   0  0  0  0  0  0  0  0  0  0  0  0
   -5.5540   -1.6690    1.1130 H   0  0  0  0  0  0  0  0  0  0  0  0
   -3.6630   -0.0730    1.3580 H   0  0  0  0  0  0  0  0  0  0  0  0
    0.1910   -5.7530   -2.8130 C   0  0  0  0  0  0  0  0  0  0  0  0
    1.7840   -5.0800   -2.3190 S   0  0  0  0  0  0  0  0  0  0  0  0
    1.9600   -3.3100   -2.7680 C   0  0  0  0  0  0  0  0  0  0  0  0
    0.9620   -2.5630   -1.9670 C   0  0  0  0  0  0  0  0  0  0  0  0
    0.9600   -1.0630   -2.1590 C   0  0  2  0  0  0  0  0  0  0  0  0
   -0.0840   -0.5340   -1.2970 N   0  0  0  0  0  0  0  0  0  0  0  0
    0.8400   -0.6620   -3.5700 C   0  0  0  0  0  0  0  0  0  0  0  0
    1.6560   -1.0120   -4.4590 O   0  0  0  0  0  0  0  0  0  0  0  0
   -0.2040    0.1380   -3.9860 O   0  0  0  0  0  0  0  0  0  0  0  0
   -0.5460   -4.9540   -3.0580 H   0  0  0  0  0  0  0  0  0  0  0  0
   -0.2940   -6.3690   -2.0130 H   0  0  0  0  0  0  0  0  0  0  0  0
    0.2530   -6.4300   -3.6930 H   0  0  0  0  0  0  0  0  0  0  0  0
    1.8820   -3.1940   -3.8690 H   0  0  0  0  0  0  0  0  0  0  0  0
    2.9920   -3.0260   -2.4830 H   0  0  0  0  0  0  0  0  0  0  0  0
   -0.0720   -2.9710   -2.0500 H   0  0  0  0  0  0  0  0  0  0  0  0
    1.2370   -2.7160   -0.8830 H   0  0  0  0  0  0  0  0  0  0  0  0
    1.9320   -0.6840   -1.7520 H   0  0  0  0  0  0  0  0  0  0  0  0
   -1.0610   -0.7870   -1.5140 H   0  0  0  0  0  0  0  0  0  0  0  0
  1 13  1  0  0  0  0
  2 14  1  1  0  0  0
  2  1  1  0  0  0  0
  3  2  1  0  0  0  0
  3 16  1  0  0  0  0
  4  3  1  0  0  0  0
  4  5  1  0  0  0  0
  5 17  1  0  0  0  0
  6  5  2  0  0  0  0
  6 18  1  0  0  0  0
  7  6  1  0  0  0  0
  8  9  1  0  0  0  0
  8  7  2  0  0  0  0
  9  4  2  0  0  0  0
 10 11  2  0  0  0  0
 10  2  1  0  0  0  0
 12  1  1  0  0  0  0
 15  3  1  0  0  0  0
 19  7  1  0  0  0  0
 20  8  1  0  0  0  0
 21  9  1  0  0  0  0
 22 10  1  0  0  0  0
 23 37  1  1  0  0  0
 23 22  1  0  0  0  0
 24 23  1  0  0  0  0
 24 38  1  0  0  0  0
 25 33  1  0  0  0  0
 25 24  1  0  0  0  0
 26 25  2  0  0  0  0
 27 26  1  0  0  0  0
 27 28  1  0  0  0  0
 28 33  1  0  0  0  0
 29 28  2  0  0  0  0
 29 30  1  0  0  0  0
 30 31  2  0  0  0  0
 31 32  1  0  0  0  0
 31 44  1  0  0  0  0
 32 45  1  0  0  0  0
 33 32  2  0  0  0  0
 34 35  2  0  0  0  0
 34 23  1  0  0  0  0
 36 22  1  0  0  0  0
 39 24  1  0  0  0  0
 40 26  1  0  0  0  0
 41 27  1  0  0  0  0
 42 29  1  0  0  0  0
 43 30  1  0  0  0  0
 46 47  1  0  0  0  0
 46 56  1  0  0  0  0
 48 59  1  0  0  0  0
 48 47  1  0  0  0  0
 48 49  1  0  0  0  0
 49 61  1  0  0  0  0
 50 49  1  0  0  0  0
 50 62  1  1  0  0  0
 50 51  1  0  0  0  0
 51 34  1  0  0  0  0
 52 50  1  0  0  0  0
 53 52  2  0  0  0  0
 54 52  1  0  0  0  0
 55 46  1  0  0  0  0
 57 46  1  0  0  0  0
 58 48  1  0  0  0  0
 60 49  1  0  0  0  0
 63 51  1  0  0  0  0
M  END
$$$$
