FWP.pdb
 OpenBabel07022419013D

 60 63  0  0  1  0  0  0  0  0999 V2000
    1.9610    1.5640    2.9870 N   0  0  0  0  0  0  0  0  0  0  0  0
    1.9060    0.8460    1.7280 C   0  0  1  0  0  0  0  0  0  0  0  0
    2.8060   -0.3610    1.8530 C   0  0  0  0  0  0  0  0  0  0  0  0
    4.2020    0.0710    2.1400 C   0  0  0  0  0  0  0  0  0  0  0  0
    5.0700    0.3050    1.1200 C   0  0  0  0  0  0  0  0  0  0  0  0
    6.3690    0.7070    1.4350 C   0  0  0  0  0  0  0  0  0  0  0  0
    6.7430    0.8570    2.7560 C   0  0  0  0  0  0  0  0  0  0  0  0
    5.8390    0.6120    3.7790 C   0  0  0  0  0  0  0  0  0  0  0  0
    4.5580    0.2150    3.4570 C   0  0  0  0  0  0  0  0  0  0  0  0
    0.5330    0.5430    1.3180 C   0  0  0  0  0  0  0  0  0  0  0  0
   -0.4200    0.8890    2.0660 O   0  0  0  0  0  0  0  0  0  0  0  0
    1.8810    2.5770    2.7890 H   0  0  0  0  0  0  0  0  0  0  0  0
    1.1410    1.3020    3.5820 H   0  0  0  0  0  0  0  0  0  0  0  0
    2.3510    1.4700    0.9000 H   0  0  0  0  0  0  0  0  0  0  0  0
    2.8520   -0.9230    0.8940 H   0  0  0  0  0  0  0  0  0  0  0  0
    2.4540   -1.0310    2.6490 H   0  0  0  0  0  0  0  0  0  0  0  0
    4.7900    0.1940    0.0810 H   0  0  0  0  0  0  0  0  0  0  0  0
    7.1080    0.9080    0.6660 H   0  0  0  0  0  0  0  0  0  0  0  0
    7.7570    1.1710    3.0070 H   0  0  0  0  0  0  0  0  0  0  0  0
    6.1470    0.7320    4.8290 H   0  0  0  0  0  0  0  0  0  0  0  0
    3.8240    0.0180    4.2440 H   0  0  0  0  0  0  0  0  0  0  0  0
    0.1480   -0.1220    0.1180 N   0  0  0  0  0  0  0  0  0  0  0  0
   -1.2070   -0.3880   -0.2480 C   0  0  1  0  0  0  0  0  0  0  0  0
   -1.6920    0.5140   -1.3640 C   0  0  0  0  0  0  0  0  0  0  0  0
   -3.0960    0.2520   -1.7620 C   0  0  0  0  0  0  0  0  0  0  0  0
   -3.5350   -0.3880   -2.9140 C   0  0  0  0  0  0  0  0  0  0  0  0
   -4.8680   -0.4310   -2.9300 N   0  0  0  0  0  0  0  0  0  0  0  0
   -5.3050    0.1710   -1.8090 C   0  0  0  0  0  0  0  0  0  0  0  0
   -6.5840    0.3950   -1.3400 C   0  0  0  0  0  0  0  0  0  0  0  0
   -6.7850    1.0510   -0.1270 C   0  0  0  0  0  0  0  0  0  0  0  0
   -5.7280    1.4930    0.6350 C   0  0  0  0  0  0  0  0  0  0  0  0
   -4.4600    1.2580    0.1450 C   0  0  0  0  0  0  0  0  0  0  0  0
   -4.2360    0.6020   -1.0690 C   0  0  0  0  0  0  0  0  0  0  0  0
   -1.5320   -1.7840   -0.4140 C   0  0  0  0  0  0  0  0  0  0  0  0
   -2.7610   -1.9850   -0.8310 O   0  0  0  0  0  0  0  0  0  0  0  0
    0.9610   -0.4010   -0.5030 H   0  0  0  0  0  0  0  0  0  0  0  0
   -1.8290   -0.0290    0.6390 H   0  0  0  0  0  0  0  0  0  0  0  0
   -1.0270    0.5430   -2.2360 H   0  0  0  0  0  0  0  0  0  0  0  0
   -1.6940    1.5770   -0.9740 H   0  0  0  0  0  0  0  0  0  0  0  0
   -2.8560   -0.7820   -3.6670 H   0  0  0  0  0  0  0  0  0  0  0  0
   -5.4670   -0.8490   -3.6680 H   0  0  0  0  0  0  0  0  0  0  0  0
   -7.4190    0.0650   -1.9060 H   0  0  0  0  0  0  0  0  0  0  0  0
   -7.7840    1.2210    0.2300 H   0  0  0  0  0  0  0  0  0  0  0  0
   -5.9030    1.9970    1.5690 H   0  0  0  0  0  0  0  0  0  0  0  0
   -3.6110    1.5990    0.7290 H   0  0  0  0  0  0  0  0  0  0  0  0
   -0.7970   -2.9580   -0.2180 N   0  0  0  0  0  0  0  0  0  0  0  0
   -1.2810   -4.2820   -0.4900 C   0  0  0  0  0  0  0  0  0  0  0  0
   -0.5790   -5.1390    0.5280 C   0  0  0  0  0  0  0  0  0  0  0  0
    0.3680   -4.2660    1.2740 C   0  0  0  0  0  0  0  0  0  0  0  0
    0.5200   -3.0970    0.2800 C   0  0  1  0  0  0  0  0  0  0  0  0
    1.5320   -3.5550   -0.6950 C   0  0  0  0  0  0  0  0  0  0  0  0
    2.7080   -3.6870   -0.2350 O   0  0  0  0  0  0  0  0  0  0  0  0
    1.3320   -3.8430   -2.0110 O   0  0  0  0  0  0  0  0  0  0  0  0
   -2.3720   -4.3900   -0.3040 H   0  0  0  0  0  0  0  0  0  0  0  0
   -1.0840   -4.6090   -1.5310 H   0  0  0  0  0  0  0  0  0  0  0  0
   -1.2880   -5.5900    1.2690 H   0  0  0  0  0  0  0  0  0  0  0  0
    0.0110   -5.9570    0.0620 H   0  0  0  0  0  0  0  0  0  0  0  0
   -0.0480   -3.8330    2.2000 H   0  0  0  0  0  0  0  0  0  0  0  0
    1.3600   -4.7230    1.4910 H   0  0  0  0  0  0  0  0  0  0  0  0
    0.8770   -2.2580    0.9040 H   0  0  0  0  0  0  0  0  0  0  0  0
  1 13  1  0  0  0  0
  2 14  1  6  0  0  0
  2  3  1  0  0  0  0
  2  1  1  0  0  0  0
  3  4  1  0  0  0  0
  3 16  1  0  0  0  0
  4  9  1  0  0  0  0
  5  6  1  0  0  0  0
  5  4  2  0  0  0  0
  6  7  2  0  0  0  0
  7 19  1  0  0  0  0
  7  8  1  0  0  0  0
  8 20  1  0  0  0  0
  9  8  2  0  0  0  0
  9 21  1  0  0  0  0
 10  2  1  0  0  0  0
 10 11  2  0  0  0  0
 12  1  1  0  0  0  0
 15  3  1  0  0  0  0
 17  5  1  0  0  0  0
 18  6  1  0  0  0  0
 22 10  1  0  0  0  0
 23 22  1  0  0  0  0
 23 37  1  1  0  0  0
 24 39  1  0  0  0  0
 24 23  1  0  0  0  0
 25 24  1  0  0  0  0
 25 33  1  0  0  0  0
 26 25  2  0  0  0  0
 27 26  1  0  0  0  0
 27 28  1  0  0  0  0
 28 29  2  0  0  0  0
 28 33  1  0  0  0  0
 29 30  1  0  0  0  0
 30 43  1  0  0  0  0
 30 31  2  0  0  0  0
 31 44  1  0  0  0  0
 32 31  1  0  0  0  0
 32 45  1  0  0  0  0
 33 32  2  0  0  0  0
 34 23  1  0  0  0  0
 34 46  1  0  0  0  0
 35 34  2  0  0  0  0
 36 22  1  0  0  0  0
 38 24  1  0  0  0  0
 40 26  1  0  0  0  0
 41 27  1  0  0  0  0
 42 29  1  0  0  0  0
 46 50  1  0  0  0  0
 47 54  1  0  0  0  0
 47 46  1  0  0  0  0
 47 48  1  0  0  0  0
 48 56  1  0  0  0  0
 48 49  1  0  0  0  0
 49 59  1  0  0  0  0
 49 58  1  0  0  0  0
 50 60  1  1  0  0  0
 50 49  1  0  0  0  0
 51 52  1  0  0  0  0
 51 50  1  0  0  0  0
 53 51  2  0  0  0  0
 55 47  1  0  0  0  0
 57 48  1  0  0  0  0
M  END
$$$$
