FWQ.pdb
 OpenBabel07022419013D

 63 65  0  0  1  0  0  0  0  0999 V2000
    4.4790    0.5190    1.8710 N   0  0  0  0  0  0  0  0  0  0  0  0
    3.1360    0.2320    2.4020 C   0  0  1  0  0  0  0  0  0  0  0  0
    2.8940    1.3360    3.4500 C   0  0  0  0  0  0  0  0  0  0  0  0
    2.9900    2.6580    2.8170 C   0  0  0  0  0  0  0  0  0  0  0  0
    4.2670    3.2570    2.7560 C   0  0  0  0  0  0  0  0  0  0  0  0
    4.4030    4.4790    2.1680 C   0  0  0  0  0  0  0  0  0  0  0  0
    3.3060    5.1370    1.6280 C   0  0  0  0  0  0  0  0  0  0  0  0
    2.0630    4.5560    1.6850 C   0  0  0  0  0  0  0  0  0  0  0  0
    1.9220    3.3210    2.2810 C   0  0  0  0  0  0  0  0  0  0  0  0
    2.1550    0.2720    1.3290 C   0  0  0  0  0  0  0  0  0  0  0  0
    2.1080    1.2120    0.5100 O   0  0  0  0  0  0  0  0  0  0  0  0
    4.7060   -0.1160    1.0760 H   0  0  0  0  0  0  0  0  0  0  0  0
    5.1750    0.3980    2.6390 H   0  0  0  0  0  0  0  0  0  0  0  0
    3.2020   -0.7100    2.9670 H   0  0  0  0  0  0  0  0  0  0  0  0
    1.9080    1.1820    3.9530 H   0  0  0  0  0  0  0  0  0  0  0  0
    3.6530    1.2320    4.2560 H   0  0  0  0  0  0  0  0  0  0  0  0
    5.1280    2.7620    3.1700 H   0  0  0  0  0  0  0  0  0  0  0  0
    5.3740    4.9880    2.0870 H   0  0  0  0  0  0  0  0  0  0  0  0
    3.3990    6.1180    1.1510 H   0  0  0  0  0  0  0  0  0  0  0  0
    1.1740    5.0310    1.2790 H   0  0  0  0  0  0  0  0  0  0  0  0
    0.9040    2.8960    2.3060 H   0  0  0  0  0  0  0  0  0  0  0  0
    1.1710   -0.7800    1.1330 N   0  0  0  0  0  0  0  0  0  0  0  0
    0.1930   -0.7500    0.0830 C   0  0  1  0  0  0  0  0  0  0  0  0
    0.8440   -1.1160   -1.2640 C   0  0  0  0  0  0  0  0  0  0  0  0
   -0.1830   -1.0900   -2.3460 C   0  0  0  0  0  0  0  0  0  0  0  0
   -0.7830   -2.1800   -2.9470 C   0  0  0  0  0  0  0  0  0  0  0  0
   -1.6470   -1.7060   -3.8500 N   0  0  0  0  0  0  0  0  0  0  0  0
   -1.6230   -0.3520   -3.8490 C   0  0  0  0  0  0  0  0  0  0  0  0
   -2.3560    0.5560   -4.6170 C   0  0  0  0  0  0  0  0  0  0  0  0
   -2.1090    1.8800   -4.3800 C   0  0  0  0  0  0  0  0  0  0  0  0
   -1.2180    2.3410   -3.4640 C   0  0  0  0  0  0  0  0  0  0  0  0
   -0.5020    1.4160   -2.7160 C   0  0  0  0  0  0  0  0  0  0  0  0
   -0.7100    0.0510   -2.9070 C   0  0  0  0  0  0  0  0  0  0  0  0
   -0.9950   -1.5610    0.3240 C   0  0  0  0  0  0  0  0  0  0  0  0
   -1.9250   -1.4920   -0.5750 O   0  0  0  0  0  0  0  0  0  0  0  0
    1.2440   -1.5560    1.8240 H   0  0  0  0  0  0  0  0  0  0  0  0
   -0.0930    0.3020   -0.0850 H   0  0  0  0  0  0  0  0  0  0  0  0
    1.6190   -0.3720   -1.5180 H   0  0  0  0  0  0  0  0  0  0  0  0
    1.3020   -2.1060   -1.2570 H   0  0  0  0  0  0  0  0  0  0  0  0
   -0.5720   -3.1910   -2.7140 H   0  0  0  0  0  0  0  0  0  0  0  0
   -2.2640   -2.2700   -4.4770 H   0  0  0  0  0  0  0  0  0  0  0  0
   -3.0670    0.1980   -5.3390 H   0  0  0  0  0  0  0  0  0  0  0  0
   -2.6560    2.6500   -4.9550 H   0  0  0  0  0  0  0  0  0  0  0  0
   -1.0170    3.3970   -3.2790 H   0  0  0  0  0  0  0  0  0  0  0  0
    0.2220    1.7120   -1.9770 H   0  0  0  0  0  0  0  0  0  0  0  0
   -5.2690   -6.5160    0.5280 N   0  0  0  0  0  0  0  0  0  0  0  0
   -4.2160   -5.5090    0.5400 C   0  0  0  0  0  0  0  0  0  0  0  0
   -4.2750   -4.6090   -0.2960 O   0  0  0  0  0  0  0  0  0  0  0  0
   -3.1520   -5.6310    1.5470 C   0  0  0  0  0  0  0  0  0  0  0  0
   -2.0580   -4.6470    1.4220 C   0  0  0  0  0  0  0  0  0  0  0  0
   -2.5020   -3.2010    1.5500 C   0  0  2  0  0  0  0  0  0  0  0  0
   -1.2840   -2.4140    1.3890 N   0  0  0  0  0  0  0  0  0  0  0  0
   -3.1580   -2.9600    2.8300 C   0  0  0  0  0  0  0  0  0  0  0  0
   -4.2560   -3.5200    3.0800 O   0  0  0  0  0  0  0  0  0  0  0  0
   -2.6500   -2.1330    3.8230 O   0  0  0  0  0  0  0  0  0  0  0  0
   -5.5160   -6.9270   -0.4190 H   0  0  0  0  0  0  0  0  0  0  0  0
   -5.7340   -6.8010    1.3890 H   0  0  0  0  0  0  0  0  0  0  0  0
   -2.6750   -6.6530    1.3920 H   0  0  0  0  0  0  0  0  0  0  0  0
   -3.6170   -5.6700    2.5580 H   0  0  0  0  0  0  0  0  0  0  0  0
   -1.5650   -4.8070    0.4240 H   0  0  0  0  0  0  0  0  0  0  0  0
   -1.2200   -4.8580    2.1540 H   0  0  0  0  0  0  0  0  0  0  0  0
   -3.1600   -2.9020    0.7190 H   0  0  0  0  0  0  0  0  0  0  0  0
   -0.5740   -2.5100    2.1490 H   0  0  0  0  0  0  0  0  0  0  0  0
  1  2  1  0  0  0  0
  1 13  1  0  0  0  0
  2 14  1  1  0  0  0
  2  3  1  0  0  0  0
  3 15  1  0  0  0  0
  3 16  1  0  0  0  0
  4  3  1  0  0  0  0
  5  4  1  0  0  0  0
  5 17  1  0  0  0  0
  6  5  2  0  0  0  0
  7  8  2  0  0  0  0
  7  6  1  0  0  0  0
  8  9  1  0  0  0  0
  9 21  1  0  0  0  0
  9  4  2  0  0  0  0
 10  2  1  0  0  0  0
 11 10  2  0  0  0  0
 12  1  1  0  0  0  0
 18  6  1  0  0  0  0
 19  7  1  0  0  0  0
 20  8  1  0  0  0  0
 22 10  1  0  0  0  0
 22 36  1  0  0  0  0
 23 37  1  6  0  0  0
 23 34  1  0  0  0  0
 23 22  1  0  0  0  0
 24 39  1  0  0  0  0
 24 23  1  0  0  0  0
 25 24  1  0  0  0  0
 26 40  1  0  0  0  0
 26 25  2  0  0  0  0
 27 28  1  0  0  0  0
 27 26  1  0  0  0  0
 28 33  1  0  0  0  0
 29 30  1  0  0  0  0
 29 28  2  0  0  0  0
 30 31  2  0  0  0  0
 31 44  1  0  0  0  0
 31 32  1  0  0  0  0
 32 45  1  0  0  0  0
 33 32  2  0  0  0  0
 33 25  1  0  0  0  0
 34 52  1  0  0  0  0
 35 34  2  0  0  0  0
 38 24  1  0  0  0  0
 41 27  1  0  0  0  0
 42 29  1  0  0  0  0
 43 30  1  0  0  0  0
 46 47  1  0  0  0  0
 46 57  1  0  0  0  0
 47 49  1  0  0  0  0
 48 47  2  0  0  0  0
 49 59  1  0  0  0  0
 50 49  1  0  0  0  0
 50 51  1  0  0  0  0
 50 61  1  0  0  0  0
 51 62  1  6  0  0  0
 51 53  1  0  0  0  0
 52 51  1  0  0  0  0
 52 63  1  0  0  0  0
 53 54  2  0  0  0  0
 53 55  1  0  0  0  0
 56 46  1  0  0  0  0
 58 49  1  0  0  0  0
 60 50  1  0  0  0  0
M  END
$$$$
