FWR.pdb
 OpenBabel07022419013D

 69 71  0  0  1  0  0  0  0  0999 V2000
    4.1130    0.6530    1.8080 N   0  0  0  0  0  0  0  0  0  0  0  0
    3.0050    0.9360    2.7370 C   0  0  1  0  0  0  0  0  0  0  0  0
    3.1790    2.2880    3.3650 C   0  0  0  0  0  0  0  0  0  0  0  0
    2.1100    2.6500    4.3180 C   0  0  0  0  0  0  0  0  0  0  0  0
    2.2850    2.2770    5.6470 C   0  0  0  0  0  0  0  0  0  0  0  0
    1.3530    2.5760    6.6270 C   0  0  0  0  0  0  0  0  0  0  0  0
    0.2010    3.2710    6.2900 C   0  0  0  0  0  0  0  0  0  0  0  0
    0.0200    3.6440    4.9780 C   0  0  0  0  0  0  0  0  0  0  0  0
    0.9650    3.3350    4.0090 C   0  0  0  0  0  0  0  0  0  0  0  0
    1.7440    0.8220    1.9300 C   0  0  0  0  0  0  0  0  0  0  0  0
    0.6070    0.9580    2.4680 O   0  0  0  0  0  0  0  0  0  0  0  0
    5.0000    1.0640    2.1570 H   0  0  0  0  0  0  0  0  0  0  0  0
    4.2920   -0.3940    1.8030 H   0  0  0  0  0  0  0  0  0  0  0  0
    3.0740    0.1710    3.5320 H   0  0  0  0  0  0  0  0  0  0  0  0
    4.1480    2.2650    3.9180 H   0  0  0  0  0  0  0  0  0  0  0  0
    3.3110    3.0830    2.5910 H   0  0  0  0  0  0  0  0  0  0  0  0
    3.1790    1.7260    5.9690 H   0  0  0  0  0  0  0  0  0  0  0  0
    1.4990    2.2820    7.6540 H   0  0  0  0  0  0  0  0  0  0  0  0
   -0.5550    3.5280    7.0180 H   0  0  0  0  0  0  0  0  0  0  0  0
   -0.8820    4.1900    4.6990 H   0  0  0  0  0  0  0  0  0  0  0  0
    0.8120    3.6370    2.9810 H   0  0  0  0  0  0  0  0  0  0  0  0
    1.7640    0.5620    0.5450 N   0  0  0  0  0  0  0  0  0  0  0  0
    0.5750    0.4380   -0.3070 C   0  0  1  0  0  0  0  0  0  0  0  0
    0.5000    1.5560   -1.2600 C   0  0  0  0  0  0  0  0  0  0  0  0
   -0.5700    1.5930   -2.2460 C   0  0  0  0  0  0  0  0  0  0  0  0
   -1.7990    2.2010   -2.1720 C   0  0  0  0  0  0  0  0  0  0  0  0
   -2.4680    1.9780   -3.3240 N   0  0  0  0  0  0  0  0  0  0  0  0
   -1.7230    1.2420   -4.1640 C   0  0  0  0  0  0  0  0  0  0  0  0
   -1.8890    0.7620   -5.4410 C   0  0  0  0  0  0  0  0  0  0  0  0
   -0.8900    0.0290   -6.0900 C   0  0  0  0  0  0  0  0  0  0  0  0
    0.2890   -0.2150   -5.4250 C   0  0  0  0  0  0  0  0  0  0  0  0
    0.4590    0.2710   -4.1310 C   0  0  0  0  0  0  0  0  0  0  0  0
   -0.5410    0.9920   -3.5130 C   0  0  0  0  0  0  0  0  0  0  0  0
    0.3800   -0.9220   -0.7820 C   0  0  0  0  0  0  0  0  0  0  0  0
    1.3210   -1.7820   -0.6390 O   0  0  0  0  0  0  0  0  0  0  0  0
    2.7190    0.4510    0.1030 H   0  0  0  0  0  0  0  0  0  0  0  0
   -0.2760    0.6130    0.4470 H   0  0  0  0  0  0  0  0  0  0  0  0
    0.6030    2.5600   -0.7460 H   0  0  0  0  0  0  0  0  0  0  0  0
    1.4730    1.5270   -1.8680 H   0  0  0  0  0  0  0  0  0  0  0  0
   -2.2130    2.7730   -1.3540 H   0  0  0  0  0  0  0  0  0  0  0  0
   -3.4200    2.3160   -3.5520 H   0  0  0  0  0  0  0  0  0  0  0  0
   -2.8300    0.9730   -5.9330 H   0  0  0  0  0  0  0  0  0  0  0  0
   -1.0390   -0.3350   -7.0910 H   0  0  0  0  0  0  0  0  0  0  0  0
    1.1050   -0.7710   -5.8560 H   0  0  0  0  0  0  0  0  0  0  0  0
    1.3660    0.1030   -3.5740 H   0  0  0  0  0  0  0  0  0  0  0  0
   -2.6610   -7.4210    2.5820 N   0  0  0  0  0  0  0  0  0  0  0  0
   -2.9930   -6.0600    2.3440 C   0  0  0  0  0  0  0  0  0  0  0  0
   -3.9820   -5.4870    2.8990 N   0  0  0  0  0  0  0  0  0  0  0  0
   -2.2080   -5.2510    1.4460 N   0  0  0  0  0  0  0  0  0  0  0  0
   -2.0290   -3.8440    1.6950 C   0  0  0  0  0  0  0  0  0  0  0  0
   -1.1770   -3.2550    0.5860 C   0  0  0  0  0  0  0  0  0  0  0  0
   -1.8340   -3.4360   -0.7610 C   0  0  0  0  0  0  0  0  0  0  0  0
   -0.8820   -2.7790   -1.8000 C   0  0  2  0  0  0  0  0  0  0  0  0
   -0.7980   -1.4060   -1.3970 N   0  0  0  0  0  0  0  0  0  0  0  0
   -1.4180   -3.0010   -3.1490 C   0  0  0  0  0  0  0  0  0  0  0  0
   -1.8260   -2.0310   -3.8210 O   0  0  0  0  0  0  0  0  0  0  0  0
   -1.4840   -4.2640   -3.7030 O   0  0  0  0  0  0  0  0  0  0  0  0
   -2.4230   -7.7700    3.5210 H   0  0  0  0  0  0  0  0  0  0  0  0
   -2.6650   -8.0700    1.7670 H   0  0  0  0  0  0  0  0  0  0  0  0
   -4.6580   -5.8970    3.5710 H   0  0  0  0  0  0  0  0  0  0  0  0
   -1.7770   -5.6960    0.6240 H   0  0  0  0  0  0  0  0  0  0  0  0
   -1.5140   -3.6940    2.6580 H   0  0  0  0  0  0  0  0  0  0  0  0
   -3.0100   -3.3260    1.7650 H   0  0  0  0  0  0  0  0  0  0  0  0
   -0.1780   -3.7300    0.5850 H   0  0  0  0  0  0  0  0  0  0  0  0
   -1.0050   -2.1610    0.7740 H   0  0  0  0  0  0  0  0  0  0  0  0
   -2.8150   -2.9580   -0.7830 H   0  0  0  0  0  0  0  0  0  0  0  0
   -1.8690   -4.4950   -1.0400 H   0  0  0  0  0  0  0  0  0  0  0  0
    0.0810   -3.2860   -1.6100 H   0  0  0  0  0  0  0  0  0  0  0  0
   -1.6070   -0.7700   -1.5500 H   0  0  0  0  0  0  0  0  0  0  0  0
  1 12  1  0  0  0  0
  1  2  1  0  0  0  0
  2  3  1  0  0  0  0
  2 14  1  1  0  0  0
  3 15  1  0  0  0  0
  3  4  1  0  0  0  0
  4  5  1  0  0  0  0
  5 17  1  0  0  0  0
  5  6  2  0  0  0  0
  6 18  1  0  0  0  0
  7  6  1  0  0  0  0
  7 19  1  0  0  0  0
  8  7  2  0  0  0  0
  9  4  2  0  0  0  0
  9  8  1  0  0  0  0
 10 11  2  0  0  0  0
 10  2  1  0  0  0  0
 13  1  1  0  0  0  0
 16  3  1  0  0  0  0
 20  8  1  0  0  0  0
 21  9  1  0  0  0  0
 22 10  1  0  0  0  0
 23 37  1  1  0  0  0
 23 22  1  0  0  0  0
 24 38  1  0  0  0  0
 24 23  1  0  0  0  0
 25 26  2  0  0  0  0
 25 24  1  0  0  0  0
 26 40  1  0  0  0  0
 27 26  1  0  0  0  0
 28 33  1  0  0  0  0
 28 27  1  0  0  0  0
 29 28  2  0  0  0  0
 30 29  1  0  0  0  0
 30 31  2  0  0  0  0
 31 32  1  0  0  0  0
 32 45  1  0  0  0  0
 32 33  2  0  0  0  0
 33 25  1  0  0  0  0
 34 35  2  0  0  0  0
 34 23  1  0  0  0  0
 36 22  1  0  0  0  0
 39 24  1  0  0  0  0
 41 27  1  0  0  0  0
 42 29  1  0  0  0  0
 43 30  1  0  0  0  0
 44 31  1  0  0  0  0
 46 58  1  0  0  0  0
 47 46  1  0  0  0  0
 47 48  2  0  0  0  0
 48 60  1  0  0  0  0
 49 50  1  0  0  0  0
 49 47  1  0  0  0  0
 50 63  1  0  0  0  0
 50 62  1  0  0  0  0
 51 65  1  0  0  0  0
 51 50  1  0  0  0  0
 52 51  1  0  0  0  0
 53 68  1  1  0  0  0
 53 54  1  0  0  0  0
 53 52  1  0  0  0  0
 54 34  1  0  0  0  0
 55 53  1  0  0  0  0
 56 55  2  0  0  0  0
 57 55  1  0  0  0  0
 59 46  1  0  0  0  0
 61 49  1  0  0  0  0
 64 51  1  0  0  0  0
 66 52  1  0  0  0  0
 67 52  1  0  0  0  0
 69 54  1  0  0  0  0
M  END
$$$$
