FWW.pdb
 OpenBabel07022419013D

 70 74  0  0  1  0  0  0  0  0999 V2000
    0.0430   -0.5680    5.4390 N   0  0  0  0  0  0  0  0  0  0  0  0
   -0.2510   -0.4620    4.0280 C   0  0  1  0  0  0  0  0  0  0  0  0
    0.2650    0.9150    3.5750 C   0  0  0  0  0  0  0  0  0  0  0  0
    1.7370    1.0000    3.8350 C   0  0  0  0  0  0  0  0  0  0  0  0
    2.2530    1.5530    4.9870 C   0  0  0  0  0  0  0  0  0  0  0  0
    3.6060    1.6120    5.2200 C   0  0  0  0  0  0  0  0  0  0  0  0
    4.4910    1.1150    4.3010 C   0  0  0  0  0  0  0  0  0  0  0  0
    3.9870    0.5610    3.1490 C   0  0  0  0  0  0  0  0  0  0  0  0
    2.6200    0.4980    2.9070 C   0  0  0  0  0  0  0  0  0  0  0  0
    0.4360   -1.5230    3.2420 C   0  0  0  0  0  0  0  0  0  0  0  0
    1.2740   -2.2590    3.8060 O   0  0  0  0  0  0  0  0  0  0  0  0
   -0.6830   -0.0440    5.9540 H   0  0  0  0  0  0  0  0  0  0  0  0
    0.0400   -1.5590    5.7700 H   0  0  0  0  0  0  0  0  0  0  0  0
   -1.3300   -0.5560    3.8630 H   0  0  0  0  0  0  0  0  0  0  0  0
    0.0190    1.0290    2.5160 H   0  0  0  0  0  0  0  0  0  0  0  0
   -0.2180    1.7160    4.1670 H   0  0  0  0  0  0  0  0  0  0  0  0
    1.5760    1.9560    5.7350 H   0  0  0  0  0  0  0  0  0  0  0  0
    4.0200    2.0430    6.1170 H   0  0  0  0  0  0  0  0  0  0  0  0
    5.5740    1.1390    4.4380 H   0  0  0  0  0  0  0  0  0  0  0  0
    4.6790    0.1700    2.4260 H   0  0  0  0  0  0  0  0  0  0  0  0
    2.3210    0.0400    1.9790 H   0  0  0  0  0  0  0  0  0  0  0  0
    0.1620   -1.7270    1.8360 N   0  0  0  0  0  0  0  0  0  0  0  0
    0.8580   -2.7550    1.0900 C   0  0  1  0  0  0  0  0  0  0  0  0
    0.0030   -3.9730    0.8100 C   0  0  0  0  0  0  0  0  0  0  0  0
   -1.2100   -3.7290    0.0340 C   0  0  0  0  0  0  0  0  0  0  0  0
   -1.3300   -3.9690   -1.3160 C   0  0  0  0  0  0  0  0  0  0  0  0
   -2.5570   -3.6230   -1.7160 N   0  0  0  0  0  0  0  0  0  0  0  0
   -3.2510   -3.1580   -0.6530 C   0  0  0  0  0  0  0  0  0  0  0  0
   -4.5660   -2.6850   -0.5600 C   0  0  0  0  0  0  0  0  0  0  0  0
   -5.0420   -2.2700    0.6670 C   0  0  0  0  0  0  0  0  0  0  0  0
   -4.2060   -2.3350    1.7600 C   0  0  0  0  0  0  0  0  0  0  0  0
   -2.9080   -2.8010    1.6740 C   0  0  0  0  0  0  0  0  0  0  0  0
   -2.4170   -3.2230    0.4370 C   0  0  0  0  0  0  0  0  0  0  0  0
    1.4670   -2.2110   -0.1500 C   0  0  0  0  0  0  0  0  0  0  0  0
    2.1990   -2.9460   -0.8640 O   0  0  0  0  0  0  0  0  0  0  0  0
   -0.5590   -1.0840    1.4290 H   0  0  0  0  0  0  0  0  0  0  0  0
    1.6610   -3.1450    1.7770 H   0  0  0  0  0  0  0  0  0  0  0  0
    0.6430   -4.7910    0.4190 H   0  0  0  0  0  0  0  0  0  0  0  0
   -0.3010   -4.3440    1.8360 H   0  0  0  0  0  0  0  0  0  0  0  0
   -0.5450   -4.3820   -1.9770 H   0  0  0  0  0  0  0  0  0  0  0  0
   -2.9760   -3.6760   -2.6750 H   0  0  0  0  0  0  0  0  0  0  0  0
   -5.1900   -2.6510   -1.4490 H   0  0  0  0  0  0  0  0  0  0  0  0
   -6.0560   -1.9060    0.7310 H   0  0  0  0  0  0  0  0  0  0  0  0
   -4.5600   -2.0120    2.7450 H   0  0  0  0  0  0  0  0  0  0  0  0
   -2.2540   -2.8590    2.5330 H   0  0  0  0  0  0  0  0  0  0  0  0
    1.2630   -0.8730   -0.5910 N   0  0  0  0  0  0  0  0  0  0  0  0
    1.8410   -0.3370   -1.7750 C   0  0  1  0  0  0  0  0  0  0  0  0
    0.9450   -0.2050   -2.9610 C   0  0  0  0  0  0  0  0  0  0  0  0
   -0.2300    0.6440   -2.8360 C   0  0  0  0  0  0  0  0  0  0  0  0
   -0.6300    1.5410   -1.8920 C   0  0  0  0  0  0  0  0  0  0  0  0
   -1.8040    2.0490   -2.2880 N   0  0  0  0  0  0  0  0  0  0  0  0
   -2.1880    1.5200   -3.4560 C   0  0  0  0  0  0  0  0  0  0  0  0
   -3.2960    1.7120   -4.2570 C   0  0  0  0  0  0  0  0  0  0  0  0
   -3.4140    0.9900   -5.4470 C   0  0  0  0  0  0  0  0  0  0  0  0
   -2.4570    0.0890   -5.8490 C   0  0  0  0  0  0  0  0  0  0  0  0
   -1.3660   -0.0780   -5.0280 C   0  0  0  0  0  0  0  0  0  0  0  0
   -1.2190    0.6280   -3.8330 C   0  0  0  0  0  0  0  0  0  0  0  0
    2.5030    0.9560   -1.5220 C   0  0  0  0  0  0  0  0  0  0  0  0
    3.0710    1.6240   -2.4300 O   0  0  0  0  0  0  0  0  0  0  0  0
    2.5600    1.5570   -0.2510 O   0  0  0  0  0  0  0  0  0  0  0  0
    0.6600   -0.2580   -0.0140 H   0  0  0  0  0  0  0  0  0  0  0  0
    2.6660   -1.0880   -2.0550 H   0  0  0  0  0  0  0  0  0  0  0  0
    1.5440    0.1600   -3.8440 H   0  0  0  0  0  0  0  0  0  0  0  0
    0.6560   -1.2520   -3.2760 H   0  0  0  0  0  0  0  0  0  0  0  0
   -0.0620    1.7730   -0.9940 H   0  0  0  0  0  0  0  0  0  0  0  0
   -2.3570    2.7780   -1.7450 H   0  0  0  0  0  0  0  0  0  0  0  0
   -4.0460    2.4090   -3.9580 H   0  0  0  0  0  0  0  0  0  0  0  0
   -4.3040    1.1600   -6.0690 H   0  0  0  0  0  0  0  0  0  0  0  0
   -2.5930   -0.4450   -6.7760 H   0  0  0  0  0  0  0  0  0  0  0  0
   -0.6110   -0.7840   -5.3380 H   0  0  0  0  0  0  0  0  0  0  0  0
  1 13  1  0  0  0  0
  1 12  1  0  0  0  0
  2 14  1  6  0  0  0
  2  1  1  0  0  0  0
  3  4  1  0  0  0  0
  3  2  1  0  0  0  0
  3 16  1  0  0  0  0
  4  5  1  0  0  0  0
  5  6  2  0  0  0  0
  5 17  1  0  0  0  0
  6 18  1  0  0  0  0
  7 19  1  0  0  0  0
  7  6  1  0  0  0  0
  8  7  2  0  0  0  0
  9  8  1  0  0  0  0
  9  4  2  0  0  0  0
 10 11  2  0  0  0  0
 10  2  1  0  0  0  0
 15  3  1  0  0  0  0
 20  8  1  0  0  0  0
 21  9  1  0  0  0  0
 22 10  1  0  0  0  0
 23 37  1  1  0  0  0
 23 22  1  0  0  0  0
 24 23  1  0  0  0  0
 24 39  1  0  0  0  0
 25 33  1  0  0  0  0
 25 24  1  0  0  0  0
 26 25  2  0  0  0  0
 27 26  1  0  0  0  0
 27 28  1  0  0  0  0
 28 29  2  0  0  0  0
 28 33  1  0  0  0  0
 29 30  1  0  0  0  0
 30 43  1  0  0  0  0
 30 31  2  0  0  0  0
 31 44  1  0  0  0  0
 32 31  1  0  0  0  0
 32 45  1  0  0  0  0
 33 32  2  0  0  0  0
 34 23  1  0  0  0  0
 35 34  2  0  0  0  0
 36 22  1  0  0  0  0
 38 24  1  0  0  0  0
 40 26  1  0  0  0  0
 41 27  1  0  0  0  0
 42 29  1  0  0  0  0
 46 34  1  0  0  0  0
 46 61  1  0  0  0  0
 47 62  1  6  0  0  0
 47 58  1  0  0  0  0
 47 46  1  0  0  0  0
 48 49  1  0  0  0  0
 48 47  1  0  0  0  0
 49 50  2  0  0  0  0
 50 65  1  0  0  0  0
 51 50  1  0  0  0  0
 51 66  1  0  0  0  0
 52 51  1  0  0  0  0
 53 67  1  0  0  0  0
 53 52  2  0  0  0  0
 54 53  1  0  0  0  0
 55 54  2  0  0  0  0
 55 56  1  0  0  0  0
 56 57  2  0  0  0  0
 57 52  1  0  0  0  0
 57 49  1  0  0  0  0
 58 60  1  0  0  0  0
 59 58  2  0  0  0  0
 63 48  1  0  0  0  0
 64 48  1  0  0  0  0
 68 54  1  0  0  0  0
 69 55  1  0  0  0  0
 70 56  1  0  0  0  0
M  END
$$$$
