FWY.pdb
 OpenBabel07022419013D

 67 70  0  0  1  0  0  0  0  0999 V2000
   -2.8890    1.2930    3.2220 N   0  0  0  0  0  0  0  0  0  0  0  0
   -1.5240    0.7570    3.0580 C   0  0  1  0  0  0  0  0  0  0  0  0
   -1.4480   -0.4250    3.9680 C   0  0  0  0  0  0  0  0  0  0  0  0
   -0.1520   -1.1180    3.9690 C   0  0  0  0  0  0  0  0  0  0  0  0
    0.8260   -0.6530    4.8470 C   0  0  0  0  0  0  0  0  0  0  0  0
    2.0390   -1.2930    4.8920 C   0  0  0  0  0  0  0  0  0  0  0  0
    2.3030   -2.3770    4.0920 C   0  0  0  0  0  0  0  0  0  0  0  0
    1.3380   -2.8260    3.2360 C   0  0  0  0  0  0  0  0  0  0  0  0
    0.1170   -2.2060    3.1690 C   0  0  0  0  0  0  0  0  0  0  0  0
   -1.3030    0.4750    1.6320 C   0  0  0  0  0  0  0  0  0  0  0  0
   -2.3210    0.4990    0.8480 O   0  0  0  0  0  0  0  0  0  0  0  0
   -3.1400    1.1790    4.2290 H   0  0  0  0  0  0  0  0  0  0  0  0
   -3.5110    0.7070    2.6220 H   0  0  0  0  0  0  0  0  0  0  0  0
   -0.8500    1.5540    3.4600 H   0  0  0  0  0  0  0  0  0  0  0  0
   -2.2890   -1.1430    3.8040 H   0  0  0  0  0  0  0  0  0  0  0  0
   -1.6320   -0.0320    5.0080 H   0  0  0  0  0  0  0  0  0  0  0  0
    0.6620    0.1990    5.4950 H   0  0  0  0  0  0  0  0  0  0  0  0
    2.8440   -0.9660    5.5650 H   0  0  0  0  0  0  0  0  0  0  0  0
    3.2510   -2.8990    4.1100 H   0  0  0  0  0  0  0  0  0  0  0  0
    1.5530   -3.6950    2.5970 H   0  0  0  0  0  0  0  0  0  0  0  0
   -0.6690   -2.5390    2.5000 H   0  0  0  0  0  0  0  0  0  0  0  0
   -0.0220    0.1830    1.0730 N   0  0  0  0  0  0  0  0  0  0  0  0
    0.0780   -0.0660   -0.3150 C   0  0  1  0  0  0  0  0  0  0  0  0
    0.7980    1.1010   -1.0090 C   0  0  0  0  0  0  0  0  0  0  0  0
    0.1080    2.3850   -0.8520 C   0  0  0  0  0  0  0  0  0  0  0  0
   -0.8000    2.9690   -1.7550 C   0  0  0  0  0  0  0  0  0  0  0  0
   -1.2510    4.1190   -1.2430 N   0  0  0  0  0  0  0  0  0  0  0  0
   -0.6630    4.3050   -0.0300 C   0  0  0  0  0  0  0  0  0  0  0  0
   -0.7560    5.3110    0.9140 C   0  0  0  0  0  0  0  0  0  0  0  0
   -0.0460    5.3020    2.0970 C   0  0  0  0  0  0  0  0  0  0  0  0
    0.7930    4.2320    2.3330 C   0  0  0  0  0  0  0  0  0  0  0  0
    0.9070    3.2220    1.4200 C   0  0  0  0  0  0  0  0  0  0  0  0
    0.1850    3.2390    0.2300 C   0  0  0  0  0  0  0  0  0  0  0  0
    0.7810   -1.3030   -0.7060 C   0  0  0  0  0  0  0  0  0  0  0  0
    1.2990   -2.1220    0.0950 O   0  0  0  0  0  0  0  0  0  0  0  0
    0.8190    0.1580    1.7220 H   0  0  0  0  0  0  0  0  0  0  0  0
   -0.9570   -0.1500   -0.7450 H   0  0  0  0  0  0  0  0  0  0  0  0
    0.9710    0.8210   -2.0610 H   0  0  0  0  0  0  0  0  0  0  0  0
    1.8150    1.2220   -0.5510 H   0  0  0  0  0  0  0  0  0  0  0  0
   -1.0650    2.5260   -2.7050 H   0  0  0  0  0  0  0  0  0  0  0  0
   -1.9300    4.8040   -1.6390 H   0  0  0  0  0  0  0  0  0  0  0  0
   -1.4220    6.1350    0.7000 H   0  0  0  0  0  0  0  0  0  0  0  0
   -0.1350    6.1080    2.8310 H   0  0  0  0  0  0  0  0  0  0  0  0
    1.3890    4.1530    3.2460 H   0  0  0  0  0  0  0  0  0  0  0  0
    1.5720    2.3710    1.5650 H   0  0  0  0  0  0  0  0  0  0  0  0
   -3.8130   -5.6020   -0.5490 O   0  0  0  0  0  0  0  0  0  0  0  0
   -2.7120   -5.1290   -1.2400 C   0  0  0  0  0  0  0  0  0  0  0  0
   -2.7730   -3.9590   -1.9950 C   0  0  0  0  0  0  0  0  0  0  0  0
   -1.6520   -3.5250   -2.6680 C   0  0  0  0  0  0  0  0  0  0  0  0
   -0.4710   -4.2270   -2.6080 C   0  0  0  0  0  0  0  0  0  0  0  0
    0.7260   -3.7800   -3.3160 C   0  0  0  0  0  0  0  0  0  0  0  0
    1.6000   -2.8580   -2.4980 C   0  0  2  0  0  0  0  0  0  0  0  0
    0.9190   -1.6590   -2.0980 N   0  0  0  0  0  0  0  0  0  0  0  0
    2.7470   -2.4680   -3.3650 C   0  0  0  0  0  0  0  0  0  0  0  0
    2.9960   -1.2620   -3.6430 O   0  0  0  0  0  0  0  0  0  0  0  0
   -0.4390   -5.3790   -1.8560 C   0  0  0  0  0  0  0  0  0  0  0  0
   -1.5380   -5.8420   -1.1710 C   0  0  0  0  0  0  0  0  0  0  0  0
    3.6020   -3.4190   -3.9130 O   0  0  0  0  0  0  0  0  0  0  0  0
   -3.7050   -6.2560    0.2020 H   0  0  0  0  0  0  0  0  0  0  0  0
   -3.7110   -3.4370   -2.0190 H   0  0  0  0  0  0  0  0  0  0  0  0
   -1.7460   -2.6030   -3.2460 H   0  0  0  0  0  0  0  0  0  0  0  0
    0.4270   -3.2550   -4.2470 H   0  0  0  0  0  0  0  0  0  0  0  0
    1.3640   -4.6370   -3.6490 H   0  0  0  0  0  0  0  0  0  0  0  0
    1.9960   -3.4460   -1.6680 H   0  0  0  0  0  0  0  0  0  0  0  0
    0.5040   -1.0120   -2.8030 H   0  0  0  0  0  0  0  0  0  0  0  0
    0.4740   -5.9830   -1.7690 H   0  0  0  0  0  0  0  0  0  0  0  0
   -1.4710   -6.7630   -0.5850 H   0  0  0  0  0  0  0  0  0  0  0  0
  1 12  1  0  0  0  0
  2  1  1  0  0  0  0
  2 14  1  1  0  0  0
  2  3  1  0  0  0  0
  3  4  1  0  0  0  0
  3 16  1  0  0  0  0
  4  5  1  0  0  0  0
  5  6  2  0  0  0  0
  5 17  1  0  0  0  0
  6 18  1  0  0  0  0
  7 19  1  0  0  0  0
  7  6  1  0  0  0  0
  8  7  2  0  0  0  0
  9  8  1  0  0  0  0
  9  4  2  0  0  0  0
 10  2  1  0  0  0  0
 11 10  2  0  0  0  0
 13  1  1  0  0  0  0
 15  3  1  0  0  0  0
 20  8  1  0  0  0  0
 21  9  1  0  0  0  0
 22 10  1  0  0  0  0
 22 36  1  0  0  0  0
 23 37  1  6  0  0  0
 23 22  1  0  0  0  0
 24 25  1  0  0  0  0
 24 39  1  0  0  0  0
 24 23  1  0  0  0  0
 25 33  1  0  0  0  0
 26 27  1  0  0  0  0
 26 25  2  0  0  0  0
 27 28  1  0  0  0  0
 28 33  2  0  0  0  0
 28 29  1  0  0  0  0
 29 30  2  0  0  0  0
 30 31  1  0  0  0  0
 30 43  1  0  0  0  0
 31 44  1  0  0  0  0
 32 45  1  0  0  0  0
 32 31  2  0  0  0  0
 33 32  1  0  0  0  0
 34 23  1  0  0  0  0
 34 35  2  0  0  0  0
 38 24  1  0  0  0  0
 40 26  1  0  0  0  0
 41 27  1  0  0  0  0
 42 29  1  0  0  0  0
 46 59  1  0  0  0  0
 47 57  1  0  0  0  0
 47 46  1  0  0  0  0
 48 47  2  0  0  0  0
 49 50  2  0  0  0  0
 49 48  1  0  0  0  0
 50 56  1  0  0  0  0
 51 50  1  0  0  0  0
 51 52  1  0  0  0  0
 52 53  1  0  0  0  0
 52 64  1  1  0  0  0
 53 34  1  0  0  0  0
 54 52  1  0  0  0  0
 55 54  1  0  0  0  0
 56 66  1  0  0  0  0
 56 57  2  0  0  0  0
 57 67  1  0  0  0  0
 58 54  2  0  0  0  0
 60 48  1  0  0  0  0
 61 49  1  0  0  0  0
 62 51  1  0  0  0  0
 63 51  1  0  0  0  0
 65 53  1  0  0  0  0
M  END
$$$$
