FYD.pdb
 OpenBabel07022419013D

 56 57  0  0  1  0  0  0  0  0999 V2000
    2.5310    0.4580    1.2920 N   0  0  0  0  0  0  0  0  0  0  0  0
    2.8080   -0.8920    0.9130 C   0  0  1  0  0  0  0  0  0  0  0  0
    3.5000   -1.6720    2.0080 C   0  0  0  0  0  0  0  0  0  0  0  0
    4.8010   -1.0120    2.3450 C   0  0  0  0  0  0  0  0  0  0  0  0
    4.8770   -0.0370    3.3260 C   0  0  0  0  0  0  0  0  0  0  0  0
    6.0710    0.5700    3.6360 C   0  0  0  0  0  0  0  0  0  0  0  0
    7.2420    0.2390    2.9890 C   0  0  0  0  0  0  0  0  0  0  0  0
    7.1710   -0.7320    2.0110 C   0  0  0  0  0  0  0  0  0  0  0  0
    5.9750   -1.3420    1.6980 C   0  0  0  0  0  0  0  0  0  0  0  0
    1.6050   -1.6210    0.4340 C   0  0  0  0  0  0  0  0  0  0  0  0
    1.6910   -2.8010    0.0740 O   0  0  0  0  0  0  0  0  0  0  0  0
    1.7860    0.5600    2.0120 H   0  0  0  0  0  0  0  0  0  0  0  0
    2.1420    0.9420    0.4330 H   0  0  0  0  0  0  0  0  0  0  0  0
    3.5170   -0.8600    0.0550 H   0  0  0  0  0  0  0  0  0  0  0  0
    3.7490   -2.6940    1.6850 H   0  0  0  0  0  0  0  0  0  0  0  0
    2.9030   -1.7320    2.9380 H   0  0  0  0  0  0  0  0  0  0  0  0
    3.9710    0.2440    3.8530 H   0  0  0  0  0  0  0  0  0  0  0  0
    6.1340    1.3340    4.4040 H   0  0  0  0  0  0  0  0  0  0  0  0
    8.1910    0.7140    3.2270 H   0  0  0  0  0  0  0  0  0  0  0  0
    8.1040   -0.9880    1.5030 H   0  0  0  0  0  0  0  0  0  0  0  0
    5.9850   -2.0940    0.9230 H   0  0  0  0  0  0  0  0  0  0  0  0
   -3.3830    3.0650    3.5550 O   0  0  0  0  0  0  0  0  0  0  0  0
   -3.0220    1.8630    2.9290 C   0  0  0  0  0  0  0  0  0  0  0  0
   -3.7370    1.3880    1.8520 C   0  0  0  0  0  0  0  0  0  0  0  0
   -3.3820    0.1950    1.2260 C   0  0  0  0  0  0  0  0  0  0  0  0
   -2.3110   -0.5560    1.6510 C   0  0  0  0  0  0  0  0  0  0  0  0
   -1.8830   -1.8330    1.0270 C   0  0  0  0  0  0  0  0  0  0  0  0
   -0.8760   -1.6440   -0.0800 C   0  0  2  0  0  0  0  0  0  0  0  0
    0.3210   -0.9930    0.3730 N   0  0  0  0  0  0  0  0  0  0  0  0
   -1.4260   -1.0760   -1.3180 C   0  0  0  0  0  0  0  0  0  0  0  0
   -0.9030   -0.0650   -1.9010 O   0  0  0  0  0  0  0  0  0  0  0  0
   -1.5990   -0.0600    2.7410 C   0  0  0  0  0  0  0  0  0  0  0  0
   -1.9460    1.1230    3.3650 C   0  0  0  0  0  0  0  0  0  0  0  0
   -4.0840    3.1170    4.2610 H   0  0  0  0  0  0  0  0  0  0  0  0
   -4.5810    1.9730    1.5140 H   0  0  0  0  0  0  0  0  0  0  0  0
   -3.9520   -0.1630    0.3880 H   0  0  0  0  0  0  0  0  0  0  0  0
   -2.7560   -2.4330    0.7030 H   0  0  0  0  0  0  0  0  0  0  0  0
   -1.3660   -2.4780    1.7960 H   0  0  0  0  0  0  0  0  0  0  0  0
   -0.5550   -2.6970   -0.3500 H   0  0  0  0  0  0  0  0  0  0  0  0
    0.3190    0.0210    0.6970 H   0  0  0  0  0  0  0  0  0  0  0  0
   -0.7530   -0.6490    3.0780 H   0  0  0  0  0  0  0  0  0  0  0  0
   -1.3670    1.4690    4.2060 H   0  0  0  0  0  0  0  0  0  0  0  0
   -2.5840   -1.5940   -1.9840 N   0  0  0  0  0  0  0  0  0  0  0  0
   -3.1220   -1.0590   -3.1830 C   0  0  1  0  0  0  0  0  0  0  0  0
   -3.0660   -1.9830   -4.3680 C   0  0  0  0  0  0  0  0  0  0  0  0
   -3.8100   -3.2470   -4.1680 C   0  0  0  0  0  0  0  0  0  0  0  0
   -4.4260   -3.4720   -3.0980 O   0  0  0  0  0  0  0  0  0  0  0  0
   -4.5480   -0.7170   -2.9870 C   0  0  0  0  0  0  0  0  0  0  0  0
   -5.1950   -0.8880   -1.9270 O   0  0  0  0  0  0  0  0  0  0  0  0
   -3.8660   -4.2350   -5.1400 O   0  0  0  0  0  0  0  0  0  0  0  0
   -5.2780   -0.1520   -4.0520 O   0  0  0  0  0  0  0  0  0  0  0  0
   -3.0570   -2.4170   -1.5540 H   0  0  0  0  0  0  0  0  0  0  0  0
   -2.6040   -0.1200   -3.5200 H   0  0  0  0  0  0  0  0  0  0  0  0
   -3.5810   -1.4450   -5.2040 H   0  0  0  0  0  0  0  0  0  0  0  0
   -2.0300   -2.1520   -4.7300 H   0  0  0  0  0  0  0  0  0  0  0  0
   -4.0130   -5.2250   -4.8900 H   0  0  0  0  0  0  0  0  0  0  0  0
  1 12  1  0  0  0  0
  2 14  1  6  0  0  0
  2  1  1  0  0  0  0
  2  3  1  0  0  0  0
  3  4  1  0  0  0  0
  3 16  1  0  0  0  0
  4  5  1  0  0  0  0
  5  6  2  0  0  0  0
  5 17  1  0  0  0  0
  6 18  1  0  0  0  0
  7 19  1  0  0  0  0
  7  6  1  0  0  0  0
  8  7  2  0  0  0  0
  9  8  1  0  0  0  0
  9  4  2  0  0  0  0
 10  2  1  0  0  0  0
 11 10  2  0  0  0  0
 13  1  1  0  0  0  0
 15  3  1  0  0  0  0
 20  8  1  0  0  0  0
 21  9  1  0  0  0  0
 22 34  1  0  0  0  0
 23 33  1  0  0  0  0
 23 22  1  0  0  0  0
 24 23  2  0  0  0  0
 25 26  2  0  0  0  0
 25 24  1  0  0  0  0
 26 32  1  0  0  0  0
 27 26  1  0  0  0  0
 27 38  1  0  0  0  0
 28 39  1  6  0  0  0
 28 29  1  0  0  0  0
 28 27  1  0  0  0  0
 29 10  1  0  0  0  0
 29 40  1  0  0  0  0
 30 28  1  0  0  0  0
 31 30  2  0  0  0  0
 32 41  1  0  0  0  0
 32 33  2  0  0  0  0
 33 42  1  0  0  0  0
 35 24  1  0  0  0  0
 36 25  1  0  0  0  0
 37 27  1  0  0  0  0
 43 52  1  0  0  0  0
 43 30  1  0  0  0  0
 44 53  1  6  0  0  0
 44 48  1  0  0  0  0
 44 43  1  0  0  0  0
 45 46  1  0  0  0  0
 45 44  1  0  0  0  0
 46 47  2  0  0  0  0
 48 49  1  0  0  0  0
 50 56  1  0  0  0  0
 50 46  1  0  0  0  0
 51 48  2  0  0  0  0
 54 45  1  0  0  0  0
 55 45  1  0  0  0  0
M  END
$$$$
