FYE.pdb
 OpenBabel07022419013D

 59 60  0  0  1  0  0  0  0  0999 V2000
    2.1990   -1.5750    4.4620 N   0  0  0  0  0  0  0  0  0  0  0  0
    1.4690   -0.6360    3.6380 C   0  0  1  0  0  0  0  0  0  0  0  0
    2.4280    0.3410    3.0000 C   0  0  0  0  0  0  0  0  0  0  0  0
    3.4320   -0.3400    2.1520 C   0  0  0  0  0  0  0  0  0  0  0  0
    4.6410   -0.7870    2.6360 C   0  0  0  0  0  0  0  0  0  0  0  0
    5.5400   -1.4130    1.8030 C   0  0  0  0  0  0  0  0  0  0  0  0
    5.2490   -1.6060    0.4700 C   0  0  0  0  0  0  0  0  0  0  0  0
    4.0490   -1.1680   -0.0340 C   0  0  0  0  0  0  0  0  0  0  0  0
    3.1640   -0.5440    0.8130 C   0  0  0  0  0  0  0  0  0  0  0  0
    0.6000   -1.3480    2.7040 C   0  0  0  0  0  0  0  0  0  0  0  0
    0.6380   -2.6030    2.6620 O   0  0  0  0  0  0  0  0  0  0  0  0
    2.7040   -2.2930    3.8970 H   0  0  0  0  0  0  0  0  0  0  0  0
    1.5780   -2.1010    5.1130 H   0  0  0  0  0  0  0  0  0  0  0  0
    0.7860   -0.0920    4.3550 H   0  0  0  0  0  0  0  0  0  0  0  0
    2.9680    0.8420    3.8280 H   0  0  0  0  0  0  0  0  0  0  0  0
    1.9320    1.1110    2.4100 H   0  0  0  0  0  0  0  0  0  0  0  0
    4.8540   -0.6270    3.6870 H   0  0  0  0  0  0  0  0  0  0  0  0
    6.4960   -1.7740    2.1570 H   0  0  0  0  0  0  0  0  0  0  0  0
    5.9740   -2.1070   -0.1890 H   0  0  0  0  0  0  0  0  0  0  0  0
    3.8340   -1.3280   -1.0940 H   0  0  0  0  0  0  0  0  0  0  0  0
    2.2030   -0.1870    0.4320 H   0  0  0  0  0  0  0  0  0  0  0  0
   -4.4920    3.9320    1.8460 O   0  0  0  0  0  0  0  0  0  0  0  0
   -4.0310    2.6230    1.7220 C   0  0  0  0  0  0  0  0  0  0  0  0
   -3.3460    2.0070    2.7490 C   0  0  0  0  0  0  0  0  0  0  0  0
   -2.8670    0.7220    2.6860 C   0  0  0  0  0  0  0  0  0  0  0  0
   -3.0760   -0.0040    1.5390 C   0  0  0  0  0  0  0  0  0  0  0  0
   -2.5770   -1.3880    1.4430 C   0  0  0  0  0  0  0  0  0  0  0  0
   -1.1620   -1.4820    0.9010 C   0  0  2  0  0  0  0  0  0  0  0  0
   -0.3170   -0.7150    1.8090 N   0  0  0  0  0  0  0  0  0  0  0  0
   -1.0040   -1.0060   -0.4630 C   0  0  0  0  0  0  0  0  0  0  0  0
   -0.2810    0.0280   -0.6780 O   0  0  0  0  0  0  0  0  0  0  0  0
   -3.7500    0.5630    0.4950 C   0  0  0  0  0  0  0  0  0  0  0  0
   -4.2240    1.8670    0.5840 C   0  0  0  0  0  0  0  0  0  0  0  0
   -3.9480    4.6740    1.4370 H   0  0  0  0  0  0  0  0  0  0  0  0
   -3.1800    2.5880    3.6610 H   0  0  0  0  0  0  0  0  0  0  0  0
   -2.3280    0.2960    3.5490 H   0  0  0  0  0  0  0  0  0  0  0  0
   -2.5950   -1.8310    2.4500 H   0  0  0  0  0  0  0  0  0  0  0  0
   -3.2310   -2.0370    0.8120 H   0  0  0  0  0  0  0  0  0  0  0  0
   -0.8750   -2.5540    1.0290 H   0  0  0  0  0  0  0  0  0  0  0  0
   -0.3550    0.3180    1.8340 H   0  0  0  0  0  0  0  0  0  0  0  0
   -3.9470    0.0320   -0.4400 H   0  0  0  0  0  0  0  0  0  0  0  0
   -4.7590    2.3370   -0.2280 H   0  0  0  0  0  0  0  0  0  0  0  0
   -1.6370   -1.6750   -1.5550 N   0  0  0  0  0  0  0  0  0  0  0  0
   -1.4510   -1.1840   -2.8650 C   0  0  1  0  0  0  0  0  0  0  0  0
   -0.7030   -2.0150   -3.8420 C   0  0  0  0  0  0  0  0  0  0  0  0
    0.6940   -2.3760   -3.5580 C   0  0  0  0  0  0  0  0  0  0  0  0
    0.9940   -3.2040   -2.4030 C   0  0  0  0  0  0  0  0  0  0  0  0
    0.0930   -3.7220   -1.7190 O   0  0  0  0  0  0  0  0  0  0  0  0
   -2.8060   -0.9290   -3.4750 C   0  0  0  0  0  0  0  0  0  0  0  0
   -2.8120   -0.4460   -4.6480 O   0  0  0  0  0  0  0  0  0  0  0  0
    2.3030   -3.4670   -1.9940 O   0  0  0  0  0  0  0  0  0  0  0  0
   -3.9930   -1.1810   -2.8560 O   0  0  0  0  0  0  0  0  0  0  0  0
   -2.2290   -2.4920   -1.3500 H   0  0  0  0  0  0  0  0  0  0  0  0
   -0.9570   -0.1500   -2.8430 H   0  0  0  0  0  0  0  0  0  0  0  0
   -0.6920   -1.4360   -4.8190 H   0  0  0  0  0  0  0  0  0  0  0  0
   -1.2730   -2.9400   -4.1120 H   0  0  0  0  0  0  0  0  0  0  0  0
    1.0570   -2.9670   -4.4630 H   0  0  0  0  0  0  0  0  0  0  0  0
    1.3800   -1.4710   -3.6000 H   0  0  0  0  0  0  0  0  0  0  0  0
    2.4470   -3.6100   -0.9950 H   0  0  0  0  0  0  0  0  0  0  0  0
  1 13  1  0  0  0  0
  2 14  1  1  0  0  0
  2  1  1  0  0  0  0
  3  2  1  0  0  0  0
  3 15  1  0  0  0  0
  4  5  1  0  0  0  0
  4  3  1  0  0  0  0
  5 17  1  0  0  0  0
  6 18  1  0  0  0  0
  6  5  2  0  0  0  0
  7  6  1  0  0  0  0
  8  7  2  0  0  0  0
  8  9  1  0  0  0  0
  9  4  2  0  0  0  0
 10  2  1  0  0  0  0
 11 10  2  0  0  0  0
 12  1  1  0  0  0  0
 16  3  1  0  0  0  0
 19  7  1  0  0  0  0
 20  8  1  0  0  0  0
 21  9  1  0  0  0  0
 23 22  1  0  0  0  0
 23 24  1  0  0  0  0
 24 35  1  0  0  0  0
 25 24  2  0  0  0  0
 25 36  1  0  0  0  0
 26 25  1  0  0  0  0
 27 26  1  0  0  0  0
 27 37  1  0  0  0  0
 28 39  1  1  0  0  0
 28 27  1  0  0  0  0
 28 29  1  0  0  0  0
 29 40  1  0  0  0  0
 29 10  1  0  0  0  0
 30 28  1  0  0  0  0
 31 30  2  0  0  0  0
 32 33  1  0  0  0  0
 32 26  2  0  0  0  0
 33 23  2  0  0  0  0
 34 22  1  0  0  0  0
 38 27  1  0  0  0  0
 41 32  1  0  0  0  0
 42 33  1  0  0  0  0
 43 53  1  0  0  0  0
 43 30  1  0  0  0  0
 44 54  1  1  0  0  0
 44 43  1  0  0  0  0
 45 46  1  0  0  0  0
 45 44  1  0  0  0  0
 46 47  1  0  0  0  0
 47 51  1  0  0  0  0
 47 48  2  0  0  0  0
 49 44  1  0  0  0  0
 49 52  1  0  0  0  0
 50 49  2  0  0  0  0
 51 59  1  0  0  0  0
 55 45  1  0  0  0  0
 56 45  1  0  0  0  0
 57 46  1  0  0  0  0
 58 46  1  0  0  0  0
M  END
$$$$
