FYF.pdb
 OpenBabel07022419023D

 63 65  0  0  1  0  0  0  0  0999 V2000
    1.4980   -3.6660    2.7440 N   0  0  0  0  0  0  0  0  0  0  0  0
    0.8460   -2.5250    3.3650 C   0  0  1  0  0  0  0  0  0  0  0  0
    1.8090   -1.9370    4.4020 C   0  0  0  0  0  0  0  0  0  0  0  0
    1.2410   -0.7690    5.0810 C   0  0  0  0  0  0  0  0  0  0  0  0
    1.4560    0.4710    4.5170 C   0  0  0  0  0  0  0  0  0  0  0  0
    0.9680    1.6230    5.1030 C   0  0  0  0  0  0  0  0  0  0  0  0
    0.2470    1.5840    6.2740 C   0  0  0  0  0  0  0  0  0  0  0  0
    0.0350    0.3470    6.8320 C   0  0  0  0  0  0  0  0  0  0  0  0
    0.5160   -0.8050    6.2580 C   0  0  0  0  0  0  0  0  0  0  0  0
    0.4350   -1.4870    2.3960 C   0  0  0  0  0  0  0  0  0  0  0  0
   -0.3860   -0.5850    2.8040 O   0  0  0  0  0  0  0  0  0  0  0  0
    2.3280   -3.4380    2.1910 H   0  0  0  0  0  0  0  0  0  0  0  0
    1.7520   -4.3050    3.5420 H   0  0  0  0  0  0  0  0  0  0  0  0
   -0.0050   -2.9280    3.9610 H   0  0  0  0  0  0  0  0  0  0  0  0
    2.1370   -2.7330    5.0920 H   0  0  0  0  0  0  0  0  0  0  0  0
    2.7080   -1.6280    3.8280 H   0  0  0  0  0  0  0  0  0  0  0  0
    2.0210    0.5370    3.5950 H   0  0  0  0  0  0  0  0  0  0  0  0
    1.1750    2.5680    4.6040 H   0  0  0  0  0  0  0  0  0  0  0  0
   -0.1370    2.4630    6.7430 H   0  0  0  0  0  0  0  0  0  0  0  0
   -0.5440    0.3240    7.7700 H   0  0  0  0  0  0  0  0  0  0  0  0
    0.3300   -1.7550    6.7200 H   0  0  0  0  0  0  0  0  0  0  0  0
    0.1760    5.1720   -3.1200 O   0  0  0  0  0  0  0  0  0  0  0  0
    0.4950    4.0650   -2.3110 C   0  0  0  0  0  0  0  0  0  0  0  0
    0.0050    4.0280   -1.0260 C   0  0  0  0  0  0  0  0  0  0  0  0
    0.3300    2.9230   -0.2430 C   0  0  0  0  0  0  0  0  0  0  0  0
    1.1150    1.8970   -0.7240 C   0  0  0  0  0  0  0  0  0  0  0  0
    1.4450    0.7670    0.1290 C   0  0  0  0  0  0  0  0  0  0  0  0
    0.3740   -0.3130    0.1700 C   0  0  2  0  0  0  0  0  0  0  0  0
    0.8390   -1.3650    1.0590 N   0  0  0  0  0  0  0  0  0  0  0  0
   -0.0040   -0.7550   -1.1620 C   0  0  0  0  0  0  0  0  0  0  0  0
   -0.4260    0.1070   -1.9730 O   0  0  0  0  0  0  0  0  0  0  0  0
    1.5810    1.9760   -2.0060 C   0  0  0  0  0  0  0  0  0  0  0  0
    1.2830    3.0550   -2.8190 C   0  0  0  0  0  0  0  0  0  0  0  0
   -0.7580    5.5480   -2.9860 H   0  0  0  0  0  0  0  0  0  0  0  0
   -0.6230    4.8330   -0.6180 H   0  0  0  0  0  0  0  0  0  0  0  0
   -0.0800    2.9320    0.7670 H   0  0  0  0  0  0  0  0  0  0  0  0
    1.5940    1.0530    1.2080 H   0  0  0  0  0  0  0  0  0  0  0  0
    2.3870    0.2430   -0.1650 H   0  0  0  0  0  0  0  0  0  0  0  0
   -0.5230    0.1300    0.6690 H   0  0  0  0  0  0  0  0  0  0  0  0
    1.5230   -2.0900    0.6920 H   0  0  0  0  0  0  0  0  0  0  0  0
    2.2200    1.1840   -2.4440 H   0  0  0  0  0  0  0  0  0  0  0  0
    1.6750    3.0830   -3.8340 H   0  0  0  0  0  0  0  0  0  0  0  0
    0.0670   -2.0940   -1.6200 N   0  0  0  0  0  0  0  0  0  0  0  0
   -0.3340   -2.4530   -2.9360 C   0  0  1  0  0  0  0  0  0  0  0  0
   -1.7510   -2.0530   -3.2970 C   0  0  0  0  0  0  0  0  0  0  0  0
   -2.7740   -2.6500   -2.4280 C   0  0  0  0  0  0  0  0  0  0  0  0
   -3.3170   -3.8740   -2.7200 C   0  0  0  0  0  0  0  0  0  0  0  0
   -4.2910   -4.4680   -1.9350 C   0  0  0  0  0  0  0  0  0  0  0  0
   -4.7370   -3.7940   -0.8000 C   0  0  0  0  0  0  0  0  0  0  0  0
   -4.2070   -2.5650   -0.4860 C   0  0  0  0  0  0  0  0  0  0  0  0
   -3.2310   -2.0050   -1.3030 C   0  0  0  0  0  0  0  0  0  0  0  0
    0.5620   -1.9340   -4.0160 C   0  0  0  0  0  0  0  0  0  0  0  0
    0.3340   -2.1430   -5.2250 O   0  0  0  0  0  0  0  0  0  0  0  0
    1.6870   -1.1960   -3.6730 O   0  0  0  0  0  0  0  0  0  0  0  0
    0.4280   -2.8310   -0.9510 H   0  0  0  0  0  0  0  0  0  0  0  0
   -0.3190   -3.5820   -3.0680 H   0  0  0  0  0  0  0  0  0  0  0  0
   -1.9800   -2.4430   -4.3390 H   0  0  0  0  0  0  0  0  0  0  0  0
   -1.8720   -0.9580   -3.4050 H   0  0  0  0  0  0  0  0  0  0  0  0
   -3.0070   -4.4550   -3.6050 H   0  0  0  0  0  0  0  0  0  0  0  0
   -4.7380   -5.4170   -2.1330 H   0  0  0  0  0  0  0  0  0  0  0  0
   -5.4890   -4.2380   -0.1820 H   0  0  0  0  0  0  0  0  0  0  0  0
   -4.5500   -2.0290    0.3980 H   0  0  0  0  0  0  0  0  0  0  0  0
   -2.8650   -1.0380   -0.9880 H   0  0  0  0  0  0  0  0  0  0  0  0
  1  2  1  0  0  0  0
  1 13  1  0  0  0  0
  2 14  1  1  0  0  0
  2  3  1  0  0  0  0
  3  4  1  0  0  0  0
  3 15  1  0  0  0  0
  4  9  1  0  0  0  0
  5  4  2  0  0  0  0
  5  6  1  0  0  0  0
  6  7  2  0  0  0  0
  7 19  1  0  0  0  0
  7  8  1  0  0  0  0
  8 20  1  0  0  0  0
  9 21  1  0  0  0  0
  9  8  2  0  0  0  0
 10 11  2  0  0  0  0
 10  2  1  0  0  0  0
 12  1  1  0  0  0  0
 16  3  1  0  0  0  0
 17  5  1  0  0  0  0
 18  6  1  0  0  0  0
 22 34  1  0  0  0  0
 22 23  1  0  0  0  0
 23 24  1  0  0  0  0
 24 35  1  0  0  0  0
 24 25  2  0  0  0  0
 25 36  1  0  0  0  0
 26 25  1  0  0  0  0
 26 27  1  0  0  0  0
 27 28  1  0  0  0  0
 27 37  1  0  0  0  0
 28 39  1  1  0  0  0
 28 29  1  0  0  0  0
 29 10  1  0  0  0  0
 30 28  1  0  0  0  0
 31 30  2  0  0  0  0
 32 26  2  0  0  0  0
 33 23  2  0  0  0  0
 33 32  1  0  0  0  0
 38 27  1  0  0  0  0
 40 29  1  0  0  0  0
 41 32  1  0  0  0  0
 42 33  1  0  0  0  0
 43 30  1  0  0  0  0
 43 55  1  0  0  0  0
 44 56  1  6  0  0  0
 44 43  1  0  0  0  0
 45 44  1  0  0  0  0
 45 46  1  0  0  0  0
 46 51  1  0  0  0  0
 47 46  2  0  0  0  0
 47 48  1  0  0  0  0
 48 49  2  0  0  0  0
 49 50  1  0  0  0  0
 49 61  1  0  0  0  0
 50 62  1  0  0  0  0
 51 63  1  0  0  0  0
 51 50  2  0  0  0  0
 52 54  1  0  0  0  0
 52 44  1  0  0  0  0
 53 52  2  0  0  0  0
 57 45  1  0  0  0  0
 58 45  1  0  0  0  0
 59 47  1  0  0  0  0
 60 48  1  0  0  0  0
M  END
$$$$
