FYH.pdb
 OpenBabel07022419013D

 60 62  0  0  1  0  0  0  0  0999 V2000
    1.7330   -3.1440    1.8260 N   0  0  0  0  0  0  0  0  0  0  0  0
    0.8150   -2.7680    2.8860 C   0  0  1  0  0  0  0  0  0  0  0  0
    1.5940   -2.2140    4.0570 C   0  0  0  0  0  0  0  0  0  0  0  0
    2.3950   -1.0090    3.6920 C   0  0  0  0  0  0  0  0  0  0  0  0
    3.6930   -1.1790    3.2090 C   0  0  0  0  0  0  0  0  0  0  0  0
    4.4170   -0.0550    2.8820 C   0  0  0  0  0  0  0  0  0  0  0  0
    3.9130    1.2330    3.0120 C   0  0  0  0  0  0  0  0  0  0  0  0
    2.6320    1.3580    3.4920 C   0  0  0  0  0  0  0  0  0  0  0  0
    1.8620    0.2490    3.8350 C   0  0  0  0  0  0  0  0  0  0  0  0
   -0.1230   -1.7080    2.4250 C   0  0  0  0  0  0  0  0  0  0  0  0
   -1.0410   -1.2850    3.1910 O   0  0  0  0  0  0  0  0  0  0  0  0
    2.4840   -3.7300    2.2340 H   0  0  0  0  0  0  0  0  0  0  0  0
    1.1640   -3.6640    1.1050 H   0  0  0  0  0  0  0  0  0  0  0  0
    0.2830   -3.6600    3.2500 H   0  0  0  0  0  0  0  0  0  0  0  0
    2.3230   -2.9650    4.4250 H   0  0  0  0  0  0  0  0  0  0  0  0
    0.9510   -1.9390    4.9000 H   0  0  0  0  0  0  0  0  0  0  0  0
    4.0880   -2.1720    3.1050 H   0  0  0  0  0  0  0  0  0  0  0  0
    5.4260   -0.1590    2.5050 H   0  0  0  0  0  0  0  0  0  0  0  0
    4.4870    2.1020    2.7550 H   0  0  0  0  0  0  0  0  0  0  0  0
    2.1780    2.3450    3.6180 H   0  0  0  0  0  0  0  0  0  0  0  0
    0.8510    0.3820    4.2150 H   0  0  0  0  0  0  0  0  0  0  0  0
   -3.6140    5.3730   -1.2570 O   0  0  0  0  0  0  0  0  0  0  0  0
   -2.7890    4.3500   -0.8060 C   0  0  0  0  0  0  0  0  0  0  0  0
   -2.1650    3.5410   -1.7340 C   0  0  0  0  0  0  0  0  0  0  0  0
   -1.3540    2.5350   -1.2660 C   0  0  0  0  0  0  0  0  0  0  0  0
   -1.1390    2.3030    0.0670 C   0  0  0  0  0  0  0  0  0  0  0  0
   -0.2680    1.2170    0.4920 C   0  0  0  0  0  0  0  0  0  0  0  0
   -0.9700   -0.1010    0.7240 C   0  0  2  0  0  0  0  0  0  0  0  0
   -0.0440   -1.1300    1.1410 N   0  0  0  0  0  0  0  0  0  0  0  0
   -1.7640   -0.5560   -0.4160 C   0  0  0  0  0  0  0  0  0  0  0  0
   -2.6570    0.1180   -0.9860 O   0  0  0  0  0  0  0  0  0  0  0  0
   -1.7570    3.1040    0.9920 C   0  0  0  0  0  0  0  0  0  0  0  0
   -2.5770    4.1220    0.5450 C   0  0  0  0  0  0  0  0  0  0  0  0
   -4.5880    5.1390   -1.4090 H   0  0  0  0  0  0  0  0  0  0  0  0
   -2.2910    3.6700   -2.7990 H   0  0  0  0  0  0  0  0  0  0  0  0
   -0.8670    1.9070   -2.0300 H   0  0  0  0  0  0  0  0  0  0  0  0
    0.2690    1.5420    1.4080 H   0  0  0  0  0  0  0  0  0  0  0  0
    0.5470    0.9920   -0.2530 H   0  0  0  0  0  0  0  0  0  0  0  0
   -1.6650    0.0840    1.5860 H   0  0  0  0  0  0  0  0  0  0  0  0
    0.7200   -1.4920    0.5200 H   0  0  0  0  0  0  0  0  0  0  0  0
   -1.6310    2.9760    2.0650 H   0  0  0  0  0  0  0  0  0  0  0  0
   -3.0900    4.7860    1.2320 H   0  0  0  0  0  0  0  0  0  0  0  0
   -1.5340   -1.8550   -0.9450 N   0  0  0  0  0  0  0  0  0  0  0  0
   -2.2920   -2.3500   -2.0680 C   0  0  1  0  0  0  0  0  0  0  0  0
   -1.3100   -2.6050   -3.1950 C   0  0  0  0  0  0  0  0  0  0  0  0
   -0.2870   -3.6210   -2.7670 C   0  0  0  0  0  0  0  0  0  0  0  0
    0.9240   -3.3790   -2.1520 C   0  0  0  0  0  0  0  0  0  0  0  0
    1.5740   -4.5330   -1.9180 N   0  0  0  0  0  0  0  0  0  0  0  0
    0.7640   -5.5000   -2.3900 C   0  0  0  0  0  0  0  0  0  0  0  0
   -0.3570   -4.9620   -2.9030 N   0  0  0  0  0  0  0  0  0  0  0  0
   -2.9920   -3.6070   -1.7920 C   0  0  0  0  0  0  0  0  0  0  0  0
   -3.6820   -4.1140   -2.7130 O   0  0  0  0  0  0  0  0  0  0  0  0
   -2.9580   -4.2930   -0.5860 O   0  0  0  0  0  0  0  0  0  0  0  0
   -0.8120   -2.5080   -0.5490 H   0  0  0  0  0  0  0  0  0  0  0  0
   -3.0300   -1.6230   -2.4440 H   0  0  0  0  0  0  0  0  0  0  0  0
   -1.7980   -3.0430   -4.0900 H   0  0  0  0  0  0  0  0  0  0  0  0
   -0.7340   -1.6830   -3.4200 H   0  0  0  0  0  0  0  0  0  0  0  0
    1.3280   -2.4060   -1.8790 H   0  0  0  0  0  0  0  0  0  0  0  0
    2.5190   -4.6590   -1.4610 H   0  0  0  0  0  0  0  0  0  0  0  0
    0.9760   -6.5470   -2.3640 H   0  0  0  0  0  0  0  0  0  0  0  0
  1 12  1  0  0  0  0
  1  2  1  0  0  0  0
  2 14  1  1  0  0  0
  2  3  1  0  0  0  0
  3 15  1  0  0  0  0
  3 16  1  0  0  0  0
  4  9  1  0  0  0  0
  4  3  1  0  0  0  0
  5  4  2  0  0  0  0
  6  7  2  0  0  0  0
  6  5  1  0  0  0  0
  7  8  1  0  0  0  0
  8 20  1  0  0  0  0
  8  9  2  0  0  0  0
  9 21  1  0  0  0  0
 10  2  1  0  0  0  0
 10 11  2  0  0  0  0
 13  1  1  0  0  0  0
 17  5  1  0  0  0  0
 18  6  1  0  0  0  0
 19  7  1  0  0  0  0
 22 23  1  0  0  0  0
 23 33  1  0  0  0  0
 24 25  1  0  0  0  0
 24 23  2  0  0  0  0
 25 26  2  0  0  0  0
 26 27  1  0  0  0  0
 26 32  1  0  0  0  0
 27 28  1  0  0  0  0
 27 37  1  0  0  0  0
 28 29  1  0  0  0  0
 28 39  1  1  0  0  0
 29 10  1  0  0  0  0
 30 28  1  0  0  0  0
 31 30  2  0  0  0  0
 32 41  1  0  0  0  0
 33 32  2  0  0  0  0
 33 42  1  0  0  0  0
 34 22  1  0  0  0  0
 35 24  1  0  0  0  0
 36 25  1  0  0  0  0
 38 27  1  0  0  0  0
 40 29  1  0  0  0  0
 43 54  1  0  0  0  0
 43 30  1  0  0  0  0
 44 55  1  6  0  0  0
 44 51  1  0  0  0  0
 44 43  1  0  0  0  0
 45 46  1  0  0  0  0
 45 44  1  0  0  0  0
 46 47  2  0  0  0  0
 47 48  1  0  0  0  0
 47 58  1  0  0  0  0
 48 59  1  0  0  0  0
 49 60  1  0  0  0  0
 49 48  1  0  0  0  0
 50 46  1  0  0  0  0
 50 49  2  0  0  0  0
 51 53  1  0  0  0  0
 52 51  2  0  0  0  0
 56 45  1  0  0  0  0
 57 45  1  0  0  0  0
M  END
$$$$
