FYK.pdb
 OpenBabel07022419013D

 64 65  0  0  1  0  0  0  0  0999 V2000
    0.6510   -5.1870    0.6480 N   0  0  0  0  0  0  0  0  0  0  0  0
    0.3710   -4.0870    1.5550 C   0  0  1  0  0  0  0  0  0  0  0  0
    1.5900   -3.6530    2.2750 C   0  0  0  0  0  0  0  0  0  0  0  0
    2.6580   -3.1790    1.3580 C   0  0  0  0  0  0  0  0  0  0  0  0
    3.5800   -4.0470    0.7940 C   0  0  0  0  0  0  0  0  0  0  0  0
    4.5930   -3.6060   -0.0620 C   0  0  0  0  0  0  0  0  0  0  0  0
    4.7110   -2.2700   -0.3810 C   0  0  0  0  0  0  0  0  0  0  0  0
    3.7870   -1.4060    0.1840 C   0  0  0  0  0  0  0  0  0  0  0  0
    2.7880   -1.8380    1.0280 C   0  0  0  0  0  0  0  0  0  0  0  0
   -0.4720   -3.0550    0.9600 C   0  0  0  0  0  0  0  0  0  0  0  0
   -1.0410   -3.3740   -0.1450 O   0  0  0  0  0  0  0  0  0  0  0  0
    0.9270   -6.0510    1.1330 H   0  0  0  0  0  0  0  0  0  0  0  0
   -0.0220   -5.2880   -0.1190 H   0  0  0  0  0  0  0  0  0  0  0  0
   -0.3000   -4.5760    2.3500 H   0  0  0  0  0  0  0  0  0  0  0  0
    2.0390   -4.4760    2.8810 H   0  0  0  0  0  0  0  0  0  0  0  0
    1.4060   -2.8410    3.0180 H   0  0  0  0  0  0  0  0  0  0  0  0
    3.5460   -5.1230    1.0070 H   0  0  0  0  0  0  0  0  0  0  0  0
    5.3160   -4.2880   -0.5010 H   0  0  0  0  0  0  0  0  0  0  0  0
    5.4960   -1.9110   -1.0480 H   0  0  0  0  0  0  0  0  0  0  0  0
    3.8720   -0.3510   -0.0630 H   0  0  0  0  0  0  0  0  0  0  0  0
    2.0780   -1.1810    1.4710 H   0  0  0  0  0  0  0  0  0  0  0  0
   -0.8680    1.6200    6.6510 O   0  0  0  0  0  0  0  0  0  0  0  0
   -1.3320    1.1420    5.4110 C   0  0  0  0  0  0  0  0  0  0  0  0
   -1.5310   -0.2020    5.1980 C   0  0  0  0  0  0  0  0  0  0  0  0
   -1.9810   -0.6840    3.9930 C   0  0  0  0  0  0  0  0  0  0  0  0
   -2.2600    0.1710    2.9170 C   0  0  0  0  0  0  0  0  0  0  0  0
   -2.7400   -0.4270    1.6510 C   0  0  0  0  0  0  0  0  0  0  0  0
   -1.6160   -0.8350    0.7480 C   0  0  2  0  0  0  0  0  0  0  0  0
   -0.7280   -1.7760    1.4430 N   0  0  0  0  0  0  0  0  0  0  0  0
   -0.9500    0.2800    0.1090 C   0  0  0  0  0  0  0  0  0  0  0  0
    0.2970    0.4500    0.2850 O   0  0  0  0  0  0  0  0  0  0  0  0
   -2.0600    1.5100    3.1400 C   0  0  0  0  0  0  0  0  0  0  0  0
   -1.6010    1.9970    4.3700 C   0  0  0  0  0  0  0  0  0  0  0  0
    0.1550    1.7280    6.7100 H   0  0  0  0  0  0  0  0  0  0  0  0
   -1.3270   -0.9140    6.0040 H   0  0  0  0  0  0  0  0  0  0  0  0
   -2.1420   -1.7480    3.8200 H   0  0  0  0  0  0  0  0  0  0  0  0
   -3.3110    0.3890    1.1350 H   0  0  0  0  0  0  0  0  0  0  0  0
   -3.4210   -1.2700    1.8220 H   0  0  0  0  0  0  0  0  0  0  0  0
   -2.1270   -1.4620   -0.0690 H   0  0  0  0  0  0  0  0  0  0  0  0
   -0.2670   -1.4860    2.3400 H   0  0  0  0  0  0  0  0  0  0  0  0
   -2.2680    2.2040    2.3450 H   0  0  0  0  0  0  0  0  0  0  0  0
   -1.4710    3.0510    4.4670 H   0  0  0  0  0  0  0  0  0  0  0  0
   -1.5790    1.2640   -0.7550 N   0  0  0  0  0  0  0  0  0  0  0  0
   -0.8180    2.3120   -1.3490 C   0  0  1  0  0  0  0  0  0  0  0  0
   -1.0010    2.5570   -2.7800 C   0  0  0  0  0  0  0  0  0  0  0  0
   -0.7370    1.6110   -3.8520 C   0  0  0  0  0  0  0  0  0  0  0  0
   -1.4350    0.3570   -4.0820 C   0  0  0  0  0  0  0  0  0  0  0  0
   -1.4430   -0.7530   -3.1260 C   0  0  0  0  0  0  0  0  0  0  0  0
   -0.1280   -1.2520   -2.7650 N   0  0  0  0  0  0  0  0  0  0  0  0
   -1.1220    3.6490   -0.6720 C   0  0  0  0  0  0  0  0  0  0  0  0
   -0.4410    4.6430   -1.0450 O   0  0  0  0  0  0  0  0  0  0  0  0
   -2.0620    3.8210    0.2840 O   0  0  0  0  0  0  0  0  0  0  0  0
   -2.6130    1.1530   -0.9070 H   0  0  0  0  0  0  0  0  0  0  0  0
    0.2760    2.1640   -1.1380 H   0  0  0  0  0  0  0  0  0  0  0  0
   -0.3610    3.4970   -3.0490 H   0  0  0  0  0  0  0  0  0  0  0  0
   -2.0470    3.0260   -2.9310 H   0  0  0  0  0  0  0  0  0  0  0  0
   -0.8810    2.2330   -4.8310 H   0  0  0  0  0  0  0  0  0  0  0  0
    0.4090    1.4720   -3.9340 H   0  0  0  0  0  0  0  0  0  0  0  0
   -2.5460    0.6260   -4.2470 H   0  0  0  0  0  0  0  0  0  0  0  0
   -1.1850   -0.0430   -5.1370 H   0  0  0  0  0  0  0  0  0  0  0  0
   -2.1230   -0.7430   -2.2900 H   0  0  0  0  0  0  0  0  0  0  0  0
   -1.8600   -1.6590   -3.7480 H   0  0  0  0  0  0  0  0  0  0  0  0
    0.3920   -0.4280   -2.3440 H   0  0  0  0  0  0  0  0  0  0  0  0
    0.4370   -1.4430   -3.6530 H   0  0  0  0  0  0  0  0  0  0  0  0
  1 12  1  0  0  0  0
  1  2  1  0  0  0  0
  2  3  1  0  0  0  0
  2 14  1  1  0  0  0
  3 15  1  0  0  0  0
  3 16  1  0  0  0  0
  4  3  1  0  0  0  0
  5 17  1  0  0  0  0
  5  4  2  0  0  0  0
  6  5  1  0  0  0  0
  7  6  2  0  0  0  0
  7  8  1  0  0  0  0
  8  9  2  0  0  0  0
  9  4  1  0  0  0  0
  9 21  1  0  0  0  0
 10 29  1  0  0  0  0
 10  2  1  0  0  0  0
 11 10  2  0  0  0  0
 13  1  1  0  0  0  0
 18  6  1  0  0  0  0
 19  7  1  0  0  0  0
 20  8  1  0  0  0  0
 22 34  1  0  0  0  0
 23 22  1  0  0  0  0
 24 23  1  0  0  0  0
 24 35  1  0  0  0  0
 25 24  2  0  0  0  0
 26 32  2  0  0  0  0
 26 25  1  0  0  0  0
 27 38  1  0  0  0  0
 27 26  1  0  0  0  0
 28 39  1  6  0  0  0
 28 29  1  0  0  0  0
 28 27  1  0  0  0  0
 29 40  1  0  0  0  0
 30 31  2  0  0  0  0
 30 28  1  0  0  0  0
 32 33  1  0  0  0  0
 33 42  1  0  0  0  0
 33 23  2  0  0  0  0
 36 25  1  0  0  0  0
 37 27  1  0  0  0  0
 41 32  1  0  0  0  0
 43 30  1  0  0  0  0
 44 54  1  1  0  0  0
 44 43  1  0  0  0  0
 44 50  1  0  0  0  0
 45 44  1  0  0  0  0
 46 45  1  0  0  0  0
 47 46  1  0  0  0  0
 47 48  1  0  0  0  0
 48 49  1  0  0  0  0
 48 61  1  0  0  0  0
 49 63  1  0  0  0  0
 50 52  1  0  0  0  0
 51 50  2  0  0  0  0
 53 43  1  0  0  0  0
 55 45  1  0  0  0  0
 56 45  1  0  0  0  0
 57 46  1  0  0  0  0
 58 46  1  0  0  0  0
 59 47  1  0  0  0  0
 60 47  1  0  0  0  0
 62 48  1  0  0  0  0
 64 49  1  0  0  0  0
M  END
$$$$
