FYP.pdb
 OpenBabel07022419023D

 57 59  0  0  1  0  0  0  0  0999 V2000
    2.3190    0.5240    1.5940 N   0  0  0  0  0  0  0  0  0  0  0  0
    2.5880   -0.8950    1.5140 C   0  0  1  0  0  0  0  0  0  0  0  0
    2.8870   -1.3730    2.9170 C   0  0  0  0  0  0  0  0  0  0  0  0
    4.0780   -0.6150    3.3880 C   0  0  0  0  0  0  0  0  0  0  0  0
    3.9610    0.5850    4.0330 C   0  0  0  0  0  0  0  0  0  0  0  0
    5.0550    1.3010    4.4810 C   0  0  0  0  0  0  0  0  0  0  0  0
    6.3330    0.8210    4.2880 C   0  0  0  0  0  0  0  0  0  0  0  0
    6.4790   -0.3960    3.6360 C   0  0  0  0  0  0  0  0  0  0  0  0
    5.3700   -1.0870    3.2010 C   0  0  0  0  0  0  0  0  0  0  0  0
    1.5230   -1.6530    0.8540 C   0  0  0  0  0  0  0  0  0  0  0  0
    1.6310   -2.8820    0.6890 O   0  0  0  0  0  0  0  0  0  0  0  0
    2.1620    0.9110    0.6320 H   0  0  0  0  0  0  0  0  0  0  0  0
    1.4960    0.6680    2.2100 H   0  0  0  0  0  0  0  0  0  0  0  0
    3.5320   -0.9870    0.9200 H   0  0  0  0  0  0  0  0  0  0  0  0
    2.0190   -1.1390    3.5550 H   0  0  0  0  0  0  0  0  0  0  0  0
    3.1220   -2.4600    2.9290 H   0  0  0  0  0  0  0  0  0  0  0  0
    2.9580    0.9600    4.1810 H   0  0  0  0  0  0  0  0  0  0  0  0
    4.9260    2.2540    4.9860 H   0  0  0  0  0  0  0  0  0  0  0  0
    7.2280    1.3420    4.6190 H   0  0  0  0  0  0  0  0  0  0  0  0
    7.4840   -0.7620    3.4920 H   0  0  0  0  0  0  0  0  0  0  0  0
    5.4950   -2.0240    2.6940 H   0  0  0  0  0  0  0  0  0  0  0  0
   -3.2990    3.5520    2.2970 O   0  0  0  0  0  0  0  0  0  0  0  0
   -2.9330    2.2510    1.9260 C   0  0  0  0  0  0  0  0  0  0  0  0
   -1.9490    1.5600    2.5770 C   0  0  0  0  0  0  0  0  0  0  0  0
   -1.6260    0.2840    2.1730 C   0  0  0  0  0  0  0  0  0  0  0  0
   -2.2570   -0.3460    1.1230 C   0  0  0  0  0  0  0  0  0  0  0  0
   -1.8570   -1.7080    0.7510 C   0  0  0  0  0  0  0  0  0  0  0  0
   -0.7300   -1.7150   -0.2750 C   0  0  2  0  0  0  0  0  0  0  0  0
    0.3670   -1.0030    0.3970 N   0  0  0  0  0  0  0  0  0  0  0  0
   -1.0670   -1.1140   -1.5470 C   0  0  0  0  0  0  0  0  0  0  0  0
   -0.5490    0.0230   -1.8080 O   0  0  0  0  0  0  0  0  0  0  0  0
   -3.2470    0.3570    0.4720 C   0  0  0  0  0  0  0  0  0  0  0  0
   -3.5820    1.6360    0.8650 C   0  0  0  0  0  0  0  0  0  0  0  0
   -3.6320    4.1700    1.5660 H   0  0  0  0  0  0  0  0  0  0  0  0
   -1.4560    2.0550    3.4030 H   0  0  0  0  0  0  0  0  0  0  0  0
   -0.8360   -0.2160    2.7220 H   0  0  0  0  0  0  0  0  0  0  0  0
   -2.6880   -2.3190    0.3790 H   0  0  0  0  0  0  0  0  0  0  0  0
   -1.5110   -2.2160    1.6910 H   0  0  0  0  0  0  0  0  0  0  0  0
   -0.3970   -2.7580   -0.3830 H   0  0  0  0  0  0  0  0  0  0  0  0
    0.2120    0.0240    0.5020 H   0  0  0  0  0  0  0  0  0  0  0  0
   -3.7940   -0.0610   -0.3660 H   0  0  0  0  0  0  0  0  0  0  0  0
   -4.3500    2.2150    0.3750 H   0  0  0  0  0  0  0  0  0  0  0  0
   -1.9110   -1.6540   -2.5400 N   0  0  0  0  0  0  0  0  0  0  0  0
   -2.2470   -0.9760   -3.8220 C   0  0  0  0  0  0  0  0  0  0  0  0
   -3.7540   -1.2360   -3.9110 C   0  0  0  0  0  0  0  0  0  0  0  0
   -3.9720   -2.5250   -3.1610 C   0  0  0  0  0  0  0  0  0  0  0  0
   -2.6120   -2.9030   -2.6650 C   0  0  1  0  0  0  0  0  0  0  0  0
   -1.9250   -3.8220   -3.6180 C   0  0  0  0  0  0  0  0  0  0  0  0
   -2.4580   -4.9220   -3.8600 O   0  0  0  0  0  0  0  0  0  0  0  0
   -0.7370   -3.4930   -4.2260 O   0  0  0  0  0  0  0  0  0  0  0  0
   -2.1230    0.0980   -3.6480 H   0  0  0  0  0  0  0  0  0  0  0  0
   -1.6940   -1.4050   -4.6550 H   0  0  0  0  0  0  0  0  0  0  0  0
   -4.1210   -1.2610   -4.9360 H   0  0  0  0  0  0  0  0  0  0  0  0
   -4.3080   -0.4250   -3.3920 H   0  0  0  0  0  0  0  0  0  0  0  0
   -4.6990   -2.4370   -2.3290 H   0  0  0  0  0  0  0  0  0  0  0  0
   -4.3950   -3.2930   -3.8490 H   0  0  0  0  0  0  0  0  0  0  0  0
   -2.7330   -3.3550   -1.6790 H   0  0  0  0  0  0  0  0  0  0  0  0
  1 13  1  0  0  0  0
  2 14  1  6  0  0  0
  2  1  1  0  0  0  0
  2  3  1  0  0  0  0
  3 16  1  0  0  0  0
  3  4  1  0  0  0  0
  3 15  1  0  0  0  0
  4  5  1  0  0  0  0
  5 17  1  0  0  0  0
  5  6  2  0  0  0  0
  6 18  1  0  0  0  0
  7  6  1  0  0  0  0
  7 19  1  0  0  0  0
  8  7  2  0  0  0  0
  9  4  2  0  0  0  0
  9  8  1  0  0  0  0
 10  2  1  0  0  0  0
 11 10  2  0  0  0  0
 12  1  1  0  0  0  0
 20  8  1  0  0  0  0
 21  9  1  0  0  0  0
 23 22  1  0  0  0  0
 23 24  1  0  0  0  0
 24 35  1  0  0  0  0
 25 24  2  0  0  0  0
 25 36  1  0  0  0  0
 26 25  1  0  0  0  0
 27 26  1  0  0  0  0
 27 38  1  0  0  0  0
 28 39  1  6  0  0  0
 28 29  1  0  0  0  0
 28 27  1  0  0  0  0
 29 40  1  0  0  0  0
 29 10  1  0  0  0  0
 30 28  1  0  0  0  0
 31 30  2  0  0  0  0
 32 33  1  0  0  0  0
 32 26  2  0  0  0  0
 33 23  2  0  0  0  0
 34 22  1  0  0  0  0
 37 27  1  0  0  0  0
 41 32  1  0  0  0  0
 42 33  1  0  0  0  0
 43 30  1  0  0  0  0
 44 51  1  0  0  0  0
 44 43  1  0  0  0  0
 45 44  1  0  0  0  0
 45 54  1  0  0  0  0
 45 46  1  0  0  0  0
 46 47  1  0  0  0  0
 46 55  1  0  0  0  0
 47 43  1  0  0  0  0
 47 57  1  1  0  0  0
 48 47  1  0  0  0  0
 49 48  1  0  0  0  0
 50 48  2  0  0  0  0
 52 44  1  0  0  0  0
 53 45  1  0  0  0  0
 56 46  1  0  0  0  0
M  END
$$$$
