FYR.pdb
 OpenBabel07022419013D

 66 67  0  0  1  0  0  0  0  0999 V2000
    4.0990   -1.9810   -2.8350 N   0  0  0  0  0  0  0  0  0  0  0  0
    2.9870   -2.1700   -1.9450 C   0  0  1  0  0  0  0  0  0  0  0  0
    3.4260   -2.4550   -0.5270 C   0  0  0  0  0  0  0  0  0  0  0  0
    4.2360   -1.3910    0.0530 C   0  0  0  0  0  0  0  0  0  0  0  0
    5.6120   -1.3560   -0.0150 C   0  0  0  0  0  0  0  0  0  0  0  0
    6.3340   -0.3210    0.5460 C   0  0  0  0  0  0  0  0  0  0  0  0
    5.6850    0.7150    1.1980 C   0  0  0  0  0  0  0  0  0  0  0  0
    4.3160    0.6920    1.2730 C   0  0  0  0  0  0  0  0  0  0  0  0
    3.6060   -0.3530    0.7050 C   0  0  0  0  0  0  0  0  0  0  0  0
    1.9930   -1.0930   -2.0660 C   0  0  0  0  0  0  0  0  0  0  0  0
    2.2540   -0.1200   -2.8180 O   0  0  0  0  0  0  0  0  0  0  0  0
    3.7240   -1.9990   -3.8150 H   0  0  0  0  0  0  0  0  0  0  0  0
    4.7200   -2.8230   -2.7440 H   0  0  0  0  0  0  0  0  0  0  0  0
    2.4700   -3.1130   -2.2920 H   0  0  0  0  0  0  0  0  0  0  0  0
    3.9360   -3.4320   -0.5240 H   0  0  0  0  0  0  0  0  0  0  0  0
    2.5010   -2.5780    0.0760 H   0  0  0  0  0  0  0  0  0  0  0  0
    6.1880   -2.1350   -0.5110 H   0  0  0  0  0  0  0  0  0  0  0  0
    7.4140   -0.2650    0.5090 H   0  0  0  0  0  0  0  0  0  0  0  0
    6.2640    1.5240    1.6360 H   0  0  0  0  0  0  0  0  0  0  0  0
    3.8080    1.4880    1.7740 H   0  0  0  0  0  0  0  0  0  0  0  0
    2.5290   -0.3120    0.7940 H   0  0  0  0  0  0  0  0  0  0  0  0
   -5.2900    3.3340   -3.7420 O   0  0  0  0  0  0  0  0  0  0  0  0
   -4.3260    2.3880   -3.4190 C   0  0  0  0  0  0  0  0  0  0  0  0
   -4.4610    1.5290   -2.3470 C   0  0  0  0  0  0  0  0  0  0  0  0
   -3.4860    0.5970   -2.0490 C   0  0  0  0  0  0  0  0  0  0  0  0
   -2.3310    0.4650   -2.7900 C   0  0  0  0  0  0  0  0  0  0  0  0
   -1.2780   -0.5210   -2.4790 C   0  0  0  0  0  0  0  0  0  0  0  0
   -0.1770    0.0330   -1.5790 C   0  0  2  0  0  0  0  0  0  0  0  0
    0.7420   -1.0690   -1.3910 N   0  0  0  0  0  0  0  0  0  0  0  0
   -0.7230    0.4430   -0.2820 C   0  0  0  0  0  0  0  0  0  0  0  0
   -1.5360    1.4100   -0.2900 O   0  0  0  0  0  0  0  0  0  0  0  0
   -2.1980    1.3340   -3.8720 C   0  0  0  0  0  0  0  0  0  0  0  0
   -3.1730    2.2620   -4.1660 C   0  0  0  0  0  0  0  0  0  0  0  0
   -5.1070    4.3360   -3.6130 H   0  0  0  0  0  0  0  0  0  0  0  0
   -5.3790    1.6350   -1.7590 H   0  0  0  0  0  0  0  0  0  0  0  0
   -3.6370   -0.0640   -1.1960 H   0  0  0  0  0  0  0  0  0  0  0  0
   -1.7580   -1.3540   -1.9280 H   0  0  0  0  0  0  0  0  0  0  0  0
   -0.7790   -0.8740   -3.3970 H   0  0  0  0  0  0  0  0  0  0  0  0
    0.3010    0.8580   -2.1630 H   0  0  0  0  0  0  0  0  0  0  0  0
    0.4800   -1.8480   -0.7570 H   0  0  0  0  0  0  0  0  0  0  0  0
   -1.2840    1.2260   -4.4550 H   0  0  0  0  0  0  0  0  0  0  0  0
   -3.0490    2.9260   -5.0110 H   0  0  0  0  0  0  0  0  0  0  0  0
   -1.7570   -5.2150    5.1960 N   0  0  0  0  0  0  0  0  0  0  0  0
   -2.7190   -4.1700    5.0760 C   0  0  0  0  0  0  0  0  0  0  0  0
   -3.9750   -4.4050    5.3110 N   0  0  0  0  0  0  0  0  0  0  0  0
   -2.3010   -2.8500    4.6920 N   0  0  0  0  0  0  0  0  0  0  0  0
   -3.2580   -1.7980    4.4750 C   0  0  0  0  0  0  0  0  0  0  0  0
   -2.5260   -0.5500    4.0470 C   0  0  0  0  0  0  0  0  0  0  0  0
   -1.8120   -0.8380    2.7540 C   0  0  0  0  0  0  0  0  0  0  0  0
   -1.0450    0.3410    2.2040 C   0  0  2  0  0  0  0  0  0  0  0  0
   -0.4310   -0.1380    0.9600 N   0  0  0  0  0  0  0  0  0  0  0  0
   -0.0850    0.9380    3.1130 C   0  0  0  0  0  0  0  0  0  0  0  0
   -0.4520    1.4050    4.2140 O   0  0  0  0  0  0  0  0  0  0  0  0
    1.2520    1.0040    2.7840 O   0  0  0  0  0  0  0  0  0  0  0  0
   -0.7470   -4.9820    5.3670 H   0  0  0  0  0  0  0  0  0  0  0  0
   -1.9980   -6.2130    5.1240 H   0  0  0  0  0  0  0  0  0  0  0  0
   -4.2680   -5.3520    5.5840 H   0  0  0  0  0  0  0  0  0  0  0  0
   -1.2800   -2.7140    4.5940 H   0  0  0  0  0  0  0  0  0  0  0  0
   -3.8880   -1.6190    5.3720 H   0  0  0  0  0  0  0  0  0  0  0  0
   -3.9130   -2.0780    3.6000 H   0  0  0  0  0  0  0  0  0  0  0  0
   -1.7900   -0.3540    4.8840 H   0  0  0  0  0  0  0  0  0  0  0  0
   -3.2130    0.3200    3.9660 H   0  0  0  0  0  0  0  0  0  0  0  0
   -2.6260   -1.1350    2.0290 H   0  0  0  0  0  0  0  0  0  0  0  0
   -1.1150   -1.6780    2.9200 H   0  0  0  0  0  0  0  0  0  0  0  0
   -1.7600    1.1530    1.8980 H   0  0  0  0  0  0  0  0  0  0  0  0
    0.2240   -0.9180    1.0290 H   0  0  0  0  0  0  0  0  0  0  0  0
  1 13  1  0  0  0  0
  1  2  1  0  0  0  0
  2 14  1  6  0  0  0
  2  3  1  0  0  0  0
  3 15  1  0  0  0  0
  3  4  1  0  0  0  0
  3 16  1  0  0  0  0
  4  9  1  0  0  0  0
  5  4  2  0  0  0  0
  5  6  1  0  0  0  0
  6  7  2  0  0  0  0
  7  8  1  0  0  0  0
  7 19  1  0  0  0  0
  8 20  1  0  0  0  0
  9 21  1  0  0  0  0
  9  8  2  0  0  0  0
 10  2  1  0  0  0  0
 10 29  1  0  0  0  0
 11 10  2  0  0  0  0
 12  1  1  0  0  0  0
 17  5  1  0  0  0  0
 18  6  1  0  0  0  0
 22 34  1  0  0  0  0
 22 23  1  0  0  0  0
 23 24  1  0  0  0  0
 24 25  2  0  0  0  0
 24 35  1  0  0  0  0
 25 36  1  0  0  0  0
 26 27  1  0  0  0  0
 26 25  1  0  0  0  0
 27 37  1  0  0  0  0
 27 28  1  0  0  0  0
 28 39  1  6  0  0  0
 28 29  1  0  0  0  0
 28 30  1  0  0  0  0
 29 40  1  0  0  0  0
 30 51  1  0  0  0  0
 31 30  2  0  0  0  0
 32 26  2  0  0  0  0
 33 32  1  0  0  0  0
 33 23  2  0  0  0  0
 38 27  1  0  0  0  0
 41 32  1  0  0  0  0
 42 33  1  0  0  0  0
 43 55  1  0  0  0  0
 44 43  1  0  0  0  0
 44 45  2  0  0  0  0
 45 57  1  0  0  0  0
 46 44  1  0  0  0  0
 47 46  1  0  0  0  0
 47 59  1  0  0  0  0
 48 47  1  0  0  0  0
 48 61  1  0  0  0  0
 49 64  1  0  0  0  0
 49 48  1  0  0  0  0
 50 65  1  6  0  0  0
 50 49  1  0  0  0  0
 50 52  1  0  0  0  0
 51 66  1  0  0  0  0
 51 50  1  0  0  0  0
 52 53  1  0  0  0  0
 54 52  2  0  0  0  0
 56 43  1  0  0  0  0
 58 46  1  0  0  0  0
 60 47  1  0  0  0  0
 62 48  1  0  0  0  0
 63 49  1  0  0  0  0
M  END
$$$$
