FYT.pdb
 OpenBabel07022419023D

 57 58  0  0  1  0  0  0  0  0999 V2000
   -0.6550   -1.2460    3.2960 N   0  0  0  0  0  0  0  0  0  0  0  0
    0.1930   -1.1640    2.1530 C   0  0  1  0  0  0  0  0  0  0  0  0
    0.6670   -2.5490    1.7690 C   0  0  0  0  0  0  0  0  0  0  0  0
    1.4320   -3.0440    2.9600 C   0  0  0  0  0  0  0  0  0  0  0  0
    0.8870   -3.7810    3.9810 C   0  0  0  0  0  0  0  0  0  0  0  0
    1.6780   -4.1850    5.0610 C   0  0  0  0  0  0  0  0  0  0  0  0
    3.0120   -3.8780    5.1590 C   0  0  0  0  0  0  0  0  0  0  0  0
    3.5670   -3.1290    4.1220 C   0  0  0  0  0  0  0  0  0  0  0  0
    2.7810   -2.7310    3.0620 C   0  0  0  0  0  0  0  0  0  0  0  0
   -0.2980   -0.3570    1.0340 C   0  0  0  0  0  0  0  0  0  0  0  0
    0.4010   -0.1950    0.0330 O   0  0  0  0  0  0  0  0  0  0  0  0
   -1.3100   -2.0520    3.3100 H   0  0  0  0  0  0  0  0  0  0  0  0
   -1.0310   -0.3580    3.6550 H   0  0  0  0  0  0  0  0  0  0  0  0
    1.1340   -0.6340    2.5060 H   0  0  0  0  0  0  0  0  0  0  0  0
   -0.1630   -3.2290    1.5050 H   0  0  0  0  0  0  0  0  0  0  0  0
    1.3960   -2.5410    0.9260 H   0  0  0  0  0  0  0  0  0  0  0  0
   -0.1540   -4.0460    3.9230 H   0  0  0  0  0  0  0  0  0  0  0  0
    1.2420   -4.7670    5.8660 H   0  0  0  0  0  0  0  0  0  0  0  0
    3.6500   -4.1760    5.9870 H   0  0  0  0  0  0  0  0  0  0  0  0
    4.6280   -2.8860    4.2020 H   0  0  0  0  0  0  0  0  0  0  0  0
    3.2180   -2.1470    2.2600 H   0  0  0  0  0  0  0  0  0  0  0  0
    3.8460    3.5570   -0.2570 O   0  0  0  0  0  0  0  0  0  0  0  0
    2.4820    3.2910   -0.2200 C   0  0  0  0  0  0  0  0  0  0  0  0
    1.8670    3.1160    1.0040 C   0  0  0  0  0  0  0  0  0  0  0  0
    0.5150    2.8520    1.0540 C   0  0  0  0  0  0  0  0  0  0  0  0
   -0.2650    2.7520   -0.0780 C   0  0  0  0  0  0  0  0  0  0  0  0
   -1.7050    2.4820   -0.0020 C   0  0  0  0  0  0  0  0  0  0  0  0
   -2.1050    1.0520   -0.0020 C   0  0  2  0  0  0  0  0  0  0  0  0
   -1.5830    0.2530    1.0810 N   0  0  0  0  0  0  0  0  0  0  0  0
   -2.1050    0.3800   -1.3190 C   0  0  0  0  0  0  0  0  0  0  0  0
   -2.2780    1.0760   -2.3350 O   0  0  0  0  0  0  0  0  0  0  0  0
    0.3560    2.9260   -1.2910 C   0  0  0  0  0  0  0  0  0  0  0  0
    1.7310    3.1970   -1.3610 C   0  0  0  0  0  0  0  0  0  0  0  0
    4.2360    4.2270   -0.8760 H   0  0  0  0  0  0  0  0  0  0  0  0
    2.4980    3.1960    1.8960 H   0  0  0  0  0  0  0  0  0  0  0  0
    0.0660    2.7180    2.0240 H   0  0  0  0  0  0  0  0  0  0  0  0
   -2.2760    2.9660   -0.8470 H   0  0  0  0  0  0  0  0  0  0  0  0
   -2.1700    2.9730    0.9050 H   0  0  0  0  0  0  0  0  0  0  0  0
   -3.2520    1.0870    0.2250 H   0  0  0  0  0  0  0  0  0  0  0  0
   -2.1310    0.0820    1.9500 H   0  0  0  0  0  0  0  0  0  0  0  0
   -0.1940    2.8610   -2.2200 H   0  0  0  0  0  0  0  0  0  0  0  0
    2.2040    3.3300   -2.3090 H   0  0  0  0  0  0  0  0  0  0  0  0
    0.2980   -2.7160   -2.4710 C   0  0  0  0  0  0  0  0  0  0  0  0
   -1.1470   -2.9240   -2.7850 C   0  0  1  0  0  0  0  0  0  0  0  0
   -1.7070   -3.8860   -1.9110 O   0  0  0  0  0  0  0  0  0  0  0  0
   -1.9240   -1.6460   -2.7200 C   0  0  2  0  0  0  0  0  0  0  0  0
   -1.9200   -1.0160   -1.4070 N   0  0  0  0  0  0  0  0  0  0  0  0
   -3.3750   -1.9190   -3.1070 C   0  0  0  0  0  0  0  0  0  0  0  0
   -3.5460   -2.4720   -4.2080 O   0  0  0  0  0  0  0  0  0  0  0  0
   -4.4370   -1.5920   -2.3250 O   0  0  0  0  0  0  0  0  0  0  0  0
    0.9000   -3.6300   -2.7190 H   0  0  0  0  0  0  0  0  0  0  0  0
    0.6830   -1.8620   -3.0360 H   0  0  0  0  0  0  0  0  0  0  0  0
    0.3920   -2.5030   -1.3860 H   0  0  0  0  0  0  0  0  0  0  0  0
   -1.2120   -3.3440   -3.8110 H   0  0  0  0  0  0  0  0  0  0  0  0
   -2.6180   -4.1280   -2.2800 H   0  0  0  0  0  0  0  0  0  0  0  0
   -1.6000   -0.9300   -3.4610 H   0  0  0  0  0  0  0  0  0  0  0  0
   -1.7810   -1.6410   -0.5700 H   0  0  0  0  0  0  0  0  0  0  0  0
  1 12  1  0  0  0  0
  1 13  1  0  0  0  0
  2 14  1  1  0  0  0
  2  1  1  0  0  0  0
  3  2  1  0  0  0  0
  3  4  1  0  0  0  0
  4  9  2  0  0  0  0
  4  5  1  0  0  0  0
  5  6  2  0  0  0  0
  6  7  1  0  0  0  0
  6 18  1  0  0  0  0
  7 19  1  0  0  0  0
  8 20  1  0  0  0  0
  8  7  2  0  0  0  0
  9  8  1  0  0  0  0
 10 29  1  0  0  0  0
 10  2  1  0  0  0  0
 11 10  2  0  0  0  0
 15  3  1  0  0  0  0
 16  3  1  0  0  0  0
 17  5  1  0  0  0  0
 21  9  1  0  0  0  0
 22 23  1  0  0  0  0
 23 24  1  0  0  0  0
 24 25  2  0  0  0  0
 24 35  1  0  0  0  0
 25 36  1  0  0  0  0
 26 27  1  0  0  0  0
 26 25  1  0  0  0  0
 27 28  1  0  0  0  0
 27 38  1  0  0  0  0
 28 39  1  1  0  0  0
 28 29  1  0  0  0  0
 29 40  1  0  0  0  0
 30 28  1  0  0  0  0
 31 30  2  0  0  0  0
 32 26  2  0  0  0  0
 33 32  1  0  0  0  0
 33 23  2  0  0  0  0
 34 22  1  0  0  0  0
 37 27  1  0  0  0  0
 41 32  1  0  0  0  0
 42 33  1  0  0  0  0
 43 53  1  0  0  0  0
 44 54  1  6  0  0  0
 44 46  1  0  0  0  0
 44 43  1  0  0  0  0
 44 45  1  0  0  0  0
 46 56  1  6  0  0  0
 46 47  1  0  0  0  0
 47 30  1  0  0  0  0
 47 57  1  0  0  0  0
 48 46  1  0  0  0  0
 48 50  1  0  0  0  0
 49 48  2  0  0  0  0
 51 43  1  0  0  0  0
 52 43  1  0  0  0  0
 55 45  1  0  0  0  0
M  END
$$$$
