FYV.pdb
 OpenBabel07022419023D

 59 60  0  0  1  0  0  0  0  0999 V2000
    3.2740   -0.9450   -1.8260 N   0  0  0  0  0  0  0  0  0  0  0  0
    3.2110   -0.8330   -0.3810 C   0  0  1  0  0  0  0  0  0  0  0  0
    4.0440    0.3390    0.0150 C   0  0  0  0  0  0  0  0  0  0  0  0
    4.0800    0.5860    1.4780 C   0  0  0  0  0  0  0  0  0  0  0  0
    5.0500   -0.0230    2.2470 C   0  0  0  0  0  0  0  0  0  0  0  0
    5.0840    0.2100    3.6080 C   0  0  0  0  0  0  0  0  0  0  0  0
    4.1830    1.0330    4.2460 C   0  0  0  0  0  0  0  0  0  0  0  0
    3.2170    1.6340    3.4550 C   0  0  0  0  0  0  0  0  0  0  0  0
    3.1820    1.4030    2.0970 C   0  0  0  0  0  0  0  0  0  0  0  0
    1.8430   -0.8460    0.1340 C   0  0  0  0  0  0  0  0  0  0  0  0
    1.6550   -0.7720    1.3760 O   0  0  0  0  0  0  0  0  0  0  0  0
    2.6490   -1.7430   -2.1520 H   0  0  0  0  0  0  0  0  0  0  0  0
    4.2260   -1.1860   -2.1540 H   0  0  0  0  0  0  0  0  0  0  0  0
    3.7230   -1.7520    0.0280 H   0  0  0  0  0  0  0  0  0  0  0  0
    5.1020    0.0940   -0.2970 H   0  0  0  0  0  0  0  0  0  0  0  0
    3.8000    1.2640   -0.5510 H   0  0  0  0  0  0  0  0  0  0  0  0
    5.7710   -0.6790    1.7480 H   0  0  0  0  0  0  0  0  0  0  0  0
    5.8530   -0.2760    4.2000 H   0  0  0  0  0  0  0  0  0  0  0  0
    4.2420    1.1890    5.3130 H   0  0  0  0  0  0  0  0  0  0  0  0
    2.5140    2.2790    3.9710 H   0  0  0  0  0  0  0  0  0  0  0  0
    2.4050    1.8940    1.5010 H   0  0  0  0  0  0  0  0  0  0  0  0
    1.0770    5.0250    0.8520 O   0  0  0  0  0  0  0  0  0  0  0  0
    0.4280    3.8480    0.5150 C   0  0  0  0  0  0  0  0  0  0  0  0
   -0.5250    3.2710    1.3270 C   0  0  0  0  0  0  0  0  0  0  0  0
   -1.1290    2.1010    0.9300 C   0  0  0  0  0  0  0  0  0  0  0  0
   -0.8200    1.4810   -0.2490 C   0  0  0  0  0  0  0  0  0  0  0  0
   -1.4670    0.2330   -0.6700 C   0  0  0  0  0  0  0  0  0  0  0  0
   -0.6730   -0.9490   -0.1560 C   0  0  2  0  0  0  0  0  0  0  0  0
    0.6780   -0.9370   -0.6690 N   0  0  0  0  0  0  0  0  0  0  0  0
   -1.2950   -2.2340   -0.5400 C   0  0  0  0  0  0  0  0  0  0  0  0
   -0.6120   -3.0490   -1.1990 O   0  0  0  0  0  0  0  0  0  0  0  0
    0.1420    2.0740   -1.0580 C   0  0  0  0  0  0  0  0  0  0  0  0
    0.7460    3.2430   -0.6620 C   0  0  0  0  0  0  0  0  0  0  0  0
    1.5120    5.5980    0.1420 H   0  0  0  0  0  0  0  0  0  0  0  0
   -0.7770    3.7640    2.2750 H   0  0  0  0  0  0  0  0  0  0  0  0
   -1.8860    1.6530    1.5870 H   0  0  0  0  0  0  0  0  0  0  0  0
   -1.6000    0.1820   -1.7560 H   0  0  0  0  0  0  0  0  0  0  0  0
   -2.4720    0.1890   -0.1790 H   0  0  0  0  0  0  0  0  0  0  0  0
   -0.6340   -0.8770    0.9580 H   0  0  0  0  0  0  0  0  0  0  0  0
    0.8050   -0.9990   -1.7010 H   0  0  0  0  0  0  0  0  0  0  0  0
    0.3980    1.5950   -1.9960 H   0  0  0  0  0  0  0  0  0  0  0  0
    1.4940    3.6520   -1.3480 H   0  0  0  0  0  0  0  0  0  0  0  0
   -4.7940   -3.8970    1.3990 C   0  0  0  0  0  0  0  0  0  0  0  0
   -3.7550   -4.6370    0.5900 C   0  0  0  0  0  0  0  0  0  0  0  0
   -4.3390   -5.9270    0.0560 C   0  0  0  0  0  0  0  0  0  0  0  0
   -3.2450   -3.8530   -0.5750 C   0  0  2  0  0  0  0  0  0  0  0  0
   -2.6160   -2.6070   -0.2130 N   0  0  0  0  0  0  0  0  0  0  0  0
   -4.4040   -3.5520   -1.4560 C   0  0  0  0  0  0  0  0  0  0  0  0
   -4.6910   -2.3460   -1.7600 O   0  0  0  0  0  0  0  0  0  0  0  0
   -5.2290   -4.5180   -1.9940 O   0  0  0  0  0  0  0  0  0  0  0  0
   -4.5350   -2.8440    1.5250 H   0  0  0  0  0  0  0  0  0  0  0  0
   -5.8280   -4.0660    1.0120 H   0  0  0  0  0  0  0  0  0  0  0  0
   -4.8120   -4.3350    2.4400 H   0  0  0  0  0  0  0  0  0  0  0  0
   -2.9600   -4.9350    1.3030 H   0  0  0  0  0  0  0  0  0  0  0  0
   -5.4510   -5.8510   -0.0960 H   0  0  0  0  0  0  0  0  0  0  0  0
   -3.9120   -6.1340   -0.9460 H   0  0  0  0  0  0  0  0  0  0  0  0
   -4.0850   -6.7940    0.7030 H   0  0  0  0  0  0  0  0  0  0  0  0
   -2.5760   -4.5170   -1.1570 H   0  0  0  0  0  0  0  0  0  0  0  0
   -3.1660   -1.9110    0.3370 H   0  0  0  0  0  0  0  0  0  0  0  0
  1  2  1  0  0  0  0
  2  3  1  0  0  0  0
  2 14  1  1  0  0  0
  2 10  1  0  0  0  0
  3  4  1  0  0  0  0
  4  9  2  0  0  0  0
  4  5  1  0  0  0  0
  5  6  2  0  0  0  0
  6 18  1  0  0  0  0
  6  7  1  0  0  0  0
  7 19  1  0  0  0  0
  8 20  1  0  0  0  0
  8  7  2  0  0  0  0
  9  8  1  0  0  0  0
 10 11  2  0  0  0  0
 12  1  1  0  0  0  0
 13  1  1  0  0  0  0
 15  3  1  0  0  0  0
 16  3  1  0  0  0  0
 17  5  1  0  0  0  0
 21  9  1  0  0  0  0
 23 22  1  0  0  0  0
 23 24  1  0  0  0  0
 24 35  1  0  0  0  0
 25 24  2  0  0  0  0
 25 36  1  0  0  0  0
 26 25  1  0  0  0  0
 27 26  1  0  0  0  0
 27 38  1  0  0  0  0
 27 28  1  0  0  0  0
 28 39  1  1  0  0  0
 29 28  1  0  0  0  0
 29 10  1  0  0  0  0
 30 47  1  0  0  0  0
 30 28  1  0  0  0  0
 31 30  2  0  0  0  0
 32 33  1  0  0  0  0
 32 26  2  0  0  0  0
 33 23  2  0  0  0  0
 34 22  1  0  0  0  0
 37 27  1  0  0  0  0
 40 29  1  0  0  0  0
 41 32  1  0  0  0  0
 42 33  1  0  0  0  0
 43 51  1  0  0  0  0
 43 53  1  0  0  0  0
 44 54  1  0  0  0  0
 44 43  1  0  0  0  0
 45 44  1  0  0  0  0
 45 57  1  0  0  0  0
 46 58  1  6  0  0  0
 46 47  1  0  0  0  0
 46 44  1  0  0  0  0
 47 59  1  0  0  0  0
 48 46  1  0  0  0  0
 49 48  1  0  0  0  0
 50 48  2  0  0  0  0
 52 43  1  0  0  0  0
 55 45  1  0  0  0  0
 56 45  1  0  0  0  0
M  END
$$$$
