FYW.pdb
 OpenBabel07022419023D

 67 70  0  0  1  0  0  0  0  0999 V2000
   -3.1490   -0.7140    1.8190 N   0  0  0  0  0  0  0  0  0  0  0  0
   -2.0430    0.1880    1.6320 C   0  0  1  0  0  0  0  0  0  0  0  0
   -1.3680    0.3800    2.9740 C   0  0  0  0  0  0  0  0  0  0  0  0
   -2.3170    0.9480    3.9610 C   0  0  0  0  0  0  0  0  0  0  0  0
   -3.0940    0.1180    4.7460 C   0  0  0  0  0  0  0  0  0  0  0  0
   -3.9720    0.6580    5.6620 C   0  0  0  0  0  0  0  0  0  0  0  0
   -4.1090    2.0150    5.8280 C   0  0  0  0  0  0  0  0  0  0  0  0
   -3.3260    2.8300    5.0360 C   0  0  0  0  0  0  0  0  0  0  0  0
   -2.4400    2.3120    4.1130 C   0  0  0  0  0  0  0  0  0  0  0  0
   -1.0690   -0.3770    0.6370 C   0  0  0  0  0  0  0  0  0  0  0  0
   -0.0360    0.2400    0.3050 O   0  0  0  0  0  0  0  0  0  0  0  0
   -3.8700   -0.2730    2.3980 H   0  0  0  0  0  0  0  0  0  0  0  0
   -2.7740   -1.5650    2.2960 H   0  0  0  0  0  0  0  0  0  0  0  0
   -2.3870    1.1510    1.2110 H   0  0  0  0  0  0  0  0  0  0  0  0
   -0.4980    1.0460    2.8620 H   0  0  0  0  0  0  0  0  0  0  0  0
   -0.9860   -0.5740    3.3820 H   0  0  0  0  0  0  0  0  0  0  0  0
   -3.0170   -0.9590    4.6460 H   0  0  0  0  0  0  0  0  0  0  0  0
   -4.5970    0.0220    6.2950 H   0  0  0  0  0  0  0  0  0  0  0  0
   -4.7990    2.4120    6.5470 H   0  0  0  0  0  0  0  0  0  0  0  0
   -3.4410    3.8970    5.1750 H   0  0  0  0  0  0  0  0  0  0  0  0
   -1.8340    2.9820    3.5010 H   0  0  0  0  0  0  0  0  0  0  0  0
   -5.3820   -1.1310   -4.7620 O   0  0  0  0  0  0  0  0  0  0  0  0
   -4.1550   -1.1770   -4.0970 C   0  0  0  0  0  0  0  0  0  0  0  0
   -3.7250   -0.2130   -3.2320 C   0  0  0  0  0  0  0  0  0  0  0  0
   -2.4900   -0.3670   -2.6320 C   0  0  0  0  0  0  0  0  0  0  0  0
   -1.6800   -1.4420   -2.8660 C   0  0  0  0  0  0  0  0  0  0  0  0
   -0.3700   -1.5460   -2.1920 C   0  0  0  0  0  0  0  0  0  0  0  0
   -0.4600   -2.2620   -0.8830 C   0  0  2  0  0  0  0  0  0  0  0  0
   -1.3390   -1.6350    0.0740 N   0  0  0  0  0  0  0  0  0  0  0  0
    0.9360   -2.3760   -0.2740 C   0  0  0  0  0  0  0  0  0  0  0  0
    1.1350   -1.9750    0.8860 O   0  0  0  0  0  0  0  0  0  0  0  0
   -2.1190   -2.4160   -3.7410 C   0  0  0  0  0  0  0  0  0  0  0  0
   -3.3530   -2.2880   -4.3580 C   0  0  0  0  0  0  0  0  0  0  0  0
   -5.6900   -0.3210   -5.2900 H   0  0  0  0  0  0  0  0  0  0  0  0
   -4.3540    0.6530   -3.0310 H   0  0  0  0  0  0  0  0  0  0  0  0
   -2.1850    0.4220   -1.9520 H   0  0  0  0  0  0  0  0  0  0  0  0
    0.2960   -2.1280   -2.8600 H   0  0  0  0  0  0  0  0  0  0  0  0
    0.0140   -0.5050   -2.0860 H   0  0  0  0  0  0  0  0  0  0  0  0
   -0.7380   -3.3300   -1.0360 H   0  0  0  0  0  0  0  0  0  0  0  0
   -2.2140   -2.1670    0.3440 H   0  0  0  0  0  0  0  0  0  0  0  0
   -1.5100   -3.2980   -3.9640 H   0  0  0  0  0  0  0  0  0  0  0  0
   -3.6970   -3.0560   -5.0470 H   0  0  0  0  0  0  0  0  0  0  0  0
    1.9910   -2.9290   -1.0110 N   0  0  0  0  0  0  0  0  0  0  0  0
    3.3540   -3.0980   -0.6310 C   0  0  1  0  0  0  0  0  0  0  0  0
    3.7450   -2.6100    0.6900 C   0  0  0  0  0  0  0  0  0  0  0  0
    3.6640   -1.2330    1.0840 C   0  0  0  0  0  0  0  0  0  0  0  0
    3.7610   -0.8340    2.4360 C   0  0  0  0  0  0  0  0  0  0  0  0
    3.6730    0.4830    2.4840 N   0  0  0  0  0  0  0  0  0  0  0  0
    3.5230    1.0150    1.2580 C   0  0  0  0  0  0  0  0  0  0  0  0
    3.3830    2.2900    0.7700 C   0  0  0  0  0  0  0  0  0  0  0  0
    3.2320    2.5680   -0.5640 C   0  0  0  0  0  0  0  0  0  0  0  0
    3.2260    1.5000   -1.4220 C   0  0  0  0  0  0  0  0  0  0  0  0
    3.3670    0.1980   -0.9460 C   0  0  0  0  0  0  0  0  0  0  0  0
    3.5180   -0.0690    0.3820 C   0  0  0  0  0  0  0  0  0  0  0  0
    3.6910   -4.5490   -0.8040 C   0  0  0  0  0  0  0  0  0  0  0  0
    2.8000   -5.3220   -1.2190 O   0  0  0  0  0  0  0  0  0  0  0  0
    4.9790   -5.0270   -0.5040 O   0  0  0  0  0  0  0  0  0  0  0  0
    1.7340   -3.2780   -2.0120 H   0  0  0  0  0  0  0  0  0  0  0  0
    4.0210   -2.6100   -1.4330 H   0  0  0  0  0  0  0  0  0  0  0  0
    3.2360   -3.3040    1.4600 H   0  0  0  0  0  0  0  0  0  0  0  0
    4.8330   -2.9620    0.8400 H   0  0  0  0  0  0  0  0  0  0  0  0
    3.8840   -1.5060    3.2670 H   0  0  0  0  0  0  0  0  0  0  0  0
    3.7070    1.1190    3.3340 H   0  0  0  0  0  0  0  0  0  0  0  0
    3.3870    3.1410    1.4460 H   0  0  0  0  0  0  0  0  0  0  0  0
    3.1260    3.5760   -0.9030 H   0  0  0  0  0  0  0  0  0  0  0  0
    3.1080    1.6820   -2.4930 H   0  0  0  0  0  0  0  0  0  0  0  0
    3.3420   -0.5700   -1.6630 H   0  0  0  0  0  0  0  0  0  0  0  0
  1 13  1  0  0  0  0
  1 12  1  0  0  0  0
  2 14  1  6  0  0  0
  2  1  1  0  0  0  0
  2  3  1  0  0  0  0
  3 16  1  0  0  0  0
  3  4  1  0  0  0  0
  4  9  2  0  0  0  0
  4  5  1  0  0  0  0
  5  6  2  0  0  0  0
  6  7  1  0  0  0  0
  6 18  1  0  0  0  0
  7 19  1  0  0  0  0
  8 20  1  0  0  0  0
  8  7  2  0  0  0  0
  9  8  1  0  0  0  0
 10  2  1  0  0  0  0
 11 10  2  0  0  0  0
 15  3  1  0  0  0  0
 17  5  1  0  0  0  0
 21  9  1  0  0  0  0
 22 23  1  0  0  0  0
 23 24  1  0  0  0  0
 24 35  1  0  0  0  0
 24 25  2  0  0  0  0
 25 36  1  0  0  0  0
 26 25  1  0  0  0  0
 26 27  1  0  0  0  0
 27 38  1  0  0  0  0
 27 28  1  0  0  0  0
 28 39  1  6  0  0  0
 28 30  1  0  0  0  0
 28 29  1  0  0  0  0
 29 40  1  0  0  0  0
 29 10  1  0  0  0  0
 30 31  2  0  0  0  0
 32 26  2  0  0  0  0
 33 23  2  0  0  0  0
 33 32  1  0  0  0  0
 34 22  1  0  0  0  0
 37 27  1  0  0  0  0
 41 32  1  0  0  0  0
 42 33  1  0  0  0  0
 43 44  1  0  0  0  0
 43 30  1  0  0  0  0
 44 59  1  6  0  0  0
 44 45  1  0  0  0  0
 45 61  1  0  0  0  0
 45 46  1  0  0  0  0
 45 60  1  0  0  0  0
 46 47  2  0  0  0  0
 47 48  1  0  0  0  0
 47 62  1  0  0  0  0
 48 63  1  0  0  0  0
 49 48  1  0  0  0  0
 50 49  1  0  0  0  0
 50 64  1  0  0  0  0
 51 50  2  0  0  0  0
 52 53  2  0  0  0  0
 52 51  1  0  0  0  0
 53 54  1  0  0  0  0
 54 46  1  0  0  0  0
 54 49  2  0  0  0  0
 55 44  1  0  0  0  0
 55 57  1  0  0  0  0
 56 55  2  0  0  0  0
 58 43  1  0  0  0  0
 65 51  1  0  0  0  0
 66 52  1  0  0  0  0
 67 53  1  0  0  0  0
M  END
$$$$
