GAA.pdb
 OpenBabel07022418213D

 29 28  0  0  1  0  0  0  0  0999 V2000
    3.8420   -3.1380   -0.4420 N   0  0  0  0  0  0  0  0  0  0  0  0
    2.7290   -3.7590   -1.0900 C   0  0  0  0  0  0  0  0  0  0  0  0
    1.4200   -3.2390   -0.5540 C   0  0  0  0  0  0  0  0  0  0  0  0
    0.3250   -3.6660   -0.9990 O   0  0  0  0  0  0  0  0  0  0  0  0
    4.6910   -3.2930   -1.0220 H   0  0  0  0  0  0  0  0  0  0  0  0
    3.9460   -3.5360    0.5130 H   0  0  0  0  0  0  0  0  0  0  0  0
    2.7200   -3.6310   -2.1760 H   0  0  0  0  0  0  0  0  0  0  0  0
    2.8030   -4.8590   -0.9010 H   0  0  0  0  0  0  0  0  0  0  0  0
   -0.0140   -2.0410    2.4880 C   0  0  0  0  0  0  0  0  0  0  0  0
    0.1660   -1.7230    1.0180 C   0  0  2  0  0  0  0  0  0  0  0  0
    1.3730   -2.2550    0.4690 N   0  0  0  0  0  0  0  0  0  0  0  0
    0.0150   -0.2790    0.7310 C   0  0  0  0  0  0  0  0  0  0  0  0
    0.9240    0.2840    0.0670 O   0  0  0  0  0  0  0  0  0  0  0  0
   -1.1000   -2.0980    2.7220 H   0  0  0  0  0  0  0  0  0  0  0  0
    0.3730   -3.0820    2.6330 H   0  0  0  0  0  0  0  0  0  0  0  0
    0.5200   -1.3600    3.1520 H   0  0  0  0  0  0  0  0  0  0  0  0
   -0.6890   -2.2330    0.4860 H   0  0  0  0  0  0  0  0  0  0  0  0
    2.3140   -1.9130    0.8270 H   0  0  0  0  0  0  0  0  0  0  0  0
   -2.3660    2.2400    0.0090 C   0  0  0  0  0  0  0  0  0  0  0  0
   -1.1380    1.8870    0.8260 C   0  0  2  0  0  0  0  0  0  0  0  0
   -1.0720    0.4970    1.1490 N   0  0  0  0  0  0  0  0  0  0  0  0
   -1.1770    2.7520    2.0430 C   0  0  0  0  0  0  0  0  0  0  0  0
   -1.2360    3.9960    1.8640 O   0  0  0  0  0  0  0  0  0  0  0  0
   -1.1500    2.2120    3.3230 O   0  0  0  0  0  0  0  0  0  0  0  0
   -3.2190    2.4880    0.6770 H   0  0  0  0  0  0  0  0  0  0  0  0
   -2.1280    3.1750   -0.5380 H   0  0  0  0  0  0  0  0  0  0  0  0
   -2.6350    1.4800   -0.7270 H   0  0  0  0  0  0  0  0  0  0  0  0
   -0.2560    2.1900    0.2450 H   0  0  0  0  0  0  0  0  0  0  0  0
   -1.8410    0.0330    1.7070 H   0  0  0  0  0  0  0  0  0  0  0  0
  1  6  1  0  0  0  0
  2  8  1  0  0  0  0
  2  3  1  0  0  0  0
  2  1  1  0  0  0  0
  3 11  1  0  0  0  0
  4  3  2  0  0  0  0
  5  1  1  0  0  0  0
  7  2  1  0  0  0  0
  9 15  1  0  0  0  0
  9 14  1  0  0  0  0
  9 16  1  0  0  0  0
 10 17  1  6  0  0  0
 10  9  1  0  0  0  0
 11 18  1  0  0  0  0
 11 10  1  0  0  0  0
 12 10  1  0  0  0  0
 12 21  1  0  0  0  0
 13 12  2  0  0  0  0
 19 25  1  0  0  0  0
 19 20  1  0  0  0  0
 20 28  1  6  0  0  0
 20 21  1  0  0  0  0
 20 22  1  0  0  0  0
 21 29  1  0  0  0  0
 22 24  1  0  0  0  0
 23 22  2  0  0  0  0
 26 19  1  0  0  0  0
 27 19  1  0  0  0  0
M  END
$$$$
