GAC.pdb
 OpenBabel07022418213D

 30 29  0  0  1  0  0  0  0  0999 V2000
   -3.9730   -1.0330    2.6620 N   0  0  0  0  0  0  0  0  0  0  0  0
   -3.4610   -2.3860    2.5880 C   0  0  0  0  0  0  0  0  0  0  0  0
   -2.2840   -2.4570    1.6900 C   0  0  0  0  0  0  0  0  0  0  0  0
   -1.6720   -3.5520    1.4780 O   0  0  0  0  0  0  0  0  0  0  0  0
   -4.2700   -0.6750    1.7300 H   0  0  0  0  0  0  0  0  0  0  0  0
   -3.2160   -0.4270    3.0460 H   0  0  0  0  0  0  0  0  0  0  0  0
   -3.2760   -2.8240    3.5730 H   0  0  0  0  0  0  0  0  0  0  0  0
   -4.2640   -2.9850    2.0850 H   0  0  0  0  0  0  0  0  0  0  0  0
   -1.1590   -0.9840   -1.2050 C   0  0  0  0  0  0  0  0  0  0  0  0
   -0.6760   -1.3560    0.1760 C   0  0  2  0  0  0  0  0  0  0  0  0
   -1.8400   -1.2630    1.0590 N   0  0  0  0  0  0  0  0  0  0  0  0
    0.4050   -0.4700    0.6530 C   0  0  0  0  0  0  0  0  0  0  0  0
    0.2040    0.2070    1.6880 O   0  0  0  0  0  0  0  0  0  0  0  0
   -1.1110    0.0850   -1.4100 H   0  0  0  0  0  0  0  0  0  0  0  0
   -2.2030   -1.3180   -1.3760 H   0  0  0  0  0  0  0  0  0  0  0  0
   -0.5420   -1.5030   -1.9900 H   0  0  0  0  0  0  0  0  0  0  0  0
   -0.2920   -2.3840    0.1240 H   0  0  0  0  0  0  0  0  0  0  0  0
   -2.3260   -0.3550    1.2180 H   0  0  0  0  0  0  0  0  0  0  0  0
    1.6610   -0.3380    0.0100 N   0  0  0  0  0  0  0  0  0  0  0  0
    2.7220    0.5290    0.4750 C   0  0  1  0  0  0  0  0  0  0  0  0
    3.9800   -0.2530    0.7960 C   0  0  0  0  0  0  0  0  0  0  0  0
    3.6080   -1.4570    2.0880 S   0  0  0  0  0  0  0  0  0  0  0  0
    3.0500    1.5660   -0.5450 C   0  0  0  0  0  0  0  0  0  0  0  0
    3.9540    2.4010   -0.2960 O   0  0  0  0  0  0  0  0  0  0  0  0
    2.4050    1.6600   -1.7680 O   0  0  0  0  0  0  0  0  0  0  0  0
    1.8620   -0.8930   -0.8600 H   0  0  0  0  0  0  0  0  0  0  0  0
    2.4420    1.0800    1.3940 H   0  0  0  0  0  0  0  0  0  0  0  0
    4.7030    0.4760    1.2140 H   0  0  0  0  0  0  0  0  0  0  0  0
    4.4260   -0.7160   -0.0840 H   0  0  0  0  0  0  0  0  0  0  0  0
    3.2930   -0.7800    3.2800 H   0  0  0  0  0  0  0  0  0  0  0  0
  1  6  1  0  0  0  0
  2  1  1  0  0  0  0
  2  7  1  0  0  0  0
  3  2  1  0  0  0  0
  4  3  2  0  0  0  0
  5  1  1  0  0  0  0
  8  2  1  0  0  0  0
  9 10  1  0  0  0  0
 10 17  1  6  0  0  0
 10 12  1  0  0  0  0
 10 11  1  0  0  0  0
 11 18  1  0  0  0  0
 11  3  1  0  0  0  0
 12 13  2  0  0  0  0
 14  9  1  0  0  0  0
 15  9  1  0  0  0  0
 16  9  1  0  0  0  0
 19 20  1  0  0  0  0
 19 12  1  0  0  0  0
 20 21  1  0  0  0  0
 20 27  1  1  0  0  0
 21 28  1  0  0  0  0
 21 22  1  0  0  0  0
 22 30  1  0  0  0  0
 23 24  1  0  0  0  0
 23 20  1  0  0  0  0
 25 23  2  0  0  0  0
 26 19  1  0  0  0  0
 29 21  1  0  0  0  0
M  END
$$$$
