GAD.pdb
 OpenBabel07022418213D

 32 31  0  0  1  0  0  0  0  0999 V2000
   -3.0340   -1.0300    5.0220 N   0  0  0  0  0  0  0  0  0  0  0  0
   -2.8850   -1.6580    3.7280 C   0  0  0  0  0  0  0  0  0  0  0  0
   -1.5270   -1.3640    3.2070 C   0  0  0  0  0  0  0  0  0  0  0  0
   -0.7150   -0.6640    3.8650 O   0  0  0  0  0  0  0  0  0  0  0  0
   -4.0620   -1.0270    5.2340 H   0  0  0  0  0  0  0  0  0  0  0  0
   -2.6170   -0.0720    4.9850 H   0  0  0  0  0  0  0  0  0  0  0  0
   -3.6670   -1.3170    3.0060 H   0  0  0  0  0  0  0  0  0  0  0  0
   -3.0020   -2.7630    3.8870 H   0  0  0  0  0  0  0  0  0  0  0  0
    1.0080   -2.8640    1.4320 C   0  0  0  0  0  0  0  0  0  0  0  0
    0.2220   -1.5420    1.4810 C   0  0  2  0  0  0  0  0  0  0  0  0
   -1.1200   -1.8730    1.9380 N   0  0  0  0  0  0  0  0  0  0  0  0
    0.1560   -0.9720    0.1120 C   0  0  0  0  0  0  0  0  0  0  0  0
   -0.9590   -0.8820   -0.4440 O   0  0  0  0  0  0  0  0  0  0  0  0
    1.7510   -2.8770    0.6400 H   0  0  0  0  0  0  0  0  0  0  0  0
    0.2780   -3.7000    1.2780 H   0  0  0  0  0  0  0  0  0  0  0  0
    1.4170   -3.0320    2.4490 H   0  0  0  0  0  0  0  0  0  0  0  0
    0.7490   -0.8940    2.1910 H   0  0  0  0  0  0  0  0  0  0  0  0
   -1.7700   -2.4650    1.3640 H   0  0  0  0  0  0  0  0  0  0  0  0
    1.2770   -0.5090   -0.6290 N   0  0  0  0  0  0  0  0  0  0  0  0
    1.1840    0.0390   -1.9520 C   0  0  1  0  0  0  0  0  0  0  0  0
    1.5280    1.5240   -1.8690 C   0  0  0  0  0  0  0  0  0  0  0  0
    0.5830    2.2110   -0.9570 C   0  0  0  0  0  0  0  0  0  0  0  0
    0.4570    1.7720    0.2140 O   0  0  0  0  0  0  0  0  0  0  0  0
    1.9800   -0.6710   -2.9550 C   0  0  0  0  0  0  0  0  0  0  0  0
    2.6700   -1.6670   -2.6570 O   0  0  0  0  0  0  0  0  0  0  0  0
   -0.1660    3.3140   -1.3430 O   0  0  0  0  0  0  0  0  0  0  0  0
    1.9930   -0.2570   -4.2690 O   0  0  0  0  0  0  0  0  0  0  0  0
    2.2070   -0.5870   -0.1570 H   0  0  0  0  0  0  0  0  0  0  0  0
    0.1170    0.0320   -2.3290 H   0  0  0  0  0  0  0  0  0  0  0  0
    2.5490    1.6510   -1.4170 H   0  0  0  0  0  0  0  0  0  0  0  0
    1.5780    1.9930   -2.8560 H   0  0  0  0  0  0  0  0  0  0  0  0
   -0.3420    4.0700   -0.6930 H   0  0  0  0  0  0  0  0  0  0  0  0
  1  5  1  0  0  0  0
  2  8  1  0  0  0  0
  2  1  1  0  0  0  0
  3  2  1  0  0  0  0
  3  4  2  0  0  0  0
  6  1  1  0  0  0  0
  7  2  1  0  0  0  0
  9 10  1  0  0  0  0
  9 16  1  0  0  0  0
 10 11  1  0  0  0  0
 10 17  1  1  0  0  0
 11  3  1  0  0  0  0
 12 10  1  0  0  0  0
 13 12  2  0  0  0  0
 14  9  1  0  0  0  0
 15  9  1  0  0  0  0
 18 11  1  0  0  0  0
 19 28  1  0  0  0  0
 19 12  1  0  0  0  0
 20 29  1  6  0  0  0
 20 21  1  0  0  0  0
 20 19  1  0  0  0  0
 21 30  1  0  0  0  0
 21 22  1  0  0  0  0
 22 23  2  0  0  0  0
 24 25  1  0  0  0  0
 24 20  1  0  0  0  0
 26 22  1  0  0  0  0
 26 32  1  0  0  0  0
 27 24  2  0  0  0  0
 31 21  1  0  0  0  0
M  END
$$$$
