GAE.pdb
 OpenBabel07022418213D

 35 34  0  0  1  0  0  0  0  0999 V2000
    0.6560   -1.5840    3.8130 N   0  0  0  0  0  0  0  0  0  0  0  0
    1.9150   -2.1980    3.4520 C   0  0  0  0  0  0  0  0  0  0  0  0
    1.9330   -2.5580    2.0090 C   0  0  0  0  0  0  0  0  0  0  0  0
    2.9180   -3.0990    1.4880 O   0  0  0  0  0  0  0  0  0  0  0  0
    0.4950   -0.7000    3.2860 H   0  0  0  0  0  0  0  0  0  0  0  0
   -0.1380   -2.2620    3.7440 H   0  0  0  0  0  0  0  0  0  0  0  0
    2.7240   -1.4970    3.7210 H   0  0  0  0  0  0  0  0  0  0  0  0
    2.0380   -3.1050    4.1010 H   0  0  0  0  0  0  0  0  0  0  0  0
   -0.3910   -3.5410   -0.5410 C   0  0  0  0  0  0  0  0  0  0  0  0
    0.7080   -2.5830   -0.2000 C   0  0  2  0  0  0  0  0  0  0  0  0
    0.8060   -2.2830    1.1960 N   0  0  0  0  0  0  0  0  0  0  0  0
    0.5850   -1.3920   -1.0550 C   0  0  0  0  0  0  0  0  0  0  0  0
    0.4940   -1.5210   -2.2900 O   0  0  0  0  0  0  0  0  0  0  0  0
   -0.1610   -4.0010   -1.5450 H   0  0  0  0  0  0  0  0  0  0  0  0
   -1.3830   -3.0740   -0.6560 H   0  0  0  0  0  0  0  0  0  0  0  0
   -0.4930   -4.3860    0.1750 H   0  0  0  0  0  0  0  0  0  0  0  0
    1.6790   -3.0820   -0.4880 H   0  0  0  0  0  0  0  0  0  0  0  0
   -0.0140   -1.8240    1.6630 H   0  0  0  0  0  0  0  0  0  0  0  0
    0.5710   -0.1020   -0.4530 N   0  0  0  0  0  0  0  0  0  0  0  0
    0.4570    1.1000   -1.2130 C   0  0  1  0  0  0  0  0  0  0  0  0
   -0.8910    1.7070   -1.2800 C   0  0  0  0  0  0  0  0  0  0  0  0
   -1.5670    2.1080   -0.0350 C   0  0  0  0  0  0  0  0  0  0  0  0
   -1.9530    1.0580    0.9040 C   0  0  0  0  0  0  0  0  0  0  0  0
   -1.9060   -0.1490    0.5890 O   0  0  0  0  0  0  0  0  0  0  0  0
    1.5290    2.0570   -0.8670 C   0  0  0  0  0  0  0  0  0  0  0  0
    1.6490    3.1880   -1.3950 O   0  0  0  0  0  0  0  0  0  0  0  0
   -2.3880    1.3600    2.1860 O   0  0  0  0  0  0  0  0  0  0  0  0
    2.4530    1.6860    0.0930 O   0  0  0  0  0  0  0  0  0  0  0  0
    0.6800   -0.0430    0.5900 H   0  0  0  0  0  0  0  0  0  0  0  0
    0.6810    0.8020   -2.3070 H   0  0  0  0  0  0  0  0  0  0  0  0
   -1.5450    0.9530   -1.8270 H   0  0  0  0  0  0  0  0  0  0  0  0
   -0.8680    2.5660   -2.0120 H   0  0  0  0  0  0  0  0  0  0  0  0
   -0.9420    2.8440    0.5420 H   0  0  0  0  0  0  0  0  0  0  0  0
   -2.5140    2.6440   -0.3160 H   0  0  0  0  0  0  0  0  0  0  0  0
   -3.0080    0.7290    2.6720 H   0  0  0  0  0  0  0  0  0  0  0  0
  2  7  1  0  0  0  0
  2  1  1  0  0  0  0
  2  8  1  0  0  0  0
  3  2  1  0  0  0  0
  4  3  2  0  0  0  0
  5  1  1  0  0  0  0
  6  1  1  0  0  0  0
  9 10  1  0  0  0  0
  9 16  1  0  0  0  0
 10 17  1  6  0  0  0
 10 11  1  0  0  0  0
 11 18  1  0  0  0  0
 11  3  1  0  0  0  0
 12 19  1  0  0  0  0
 12 10  1  0  0  0  0
 13 12  2  0  0  0  0
 14  9  1  0  0  0  0
 15  9  1  0  0  0  0
 19 29  1  0  0  0  0
 20 30  1  6  0  0  0
 20 25  1  0  0  0  0
 20 19  1  0  0  0  0
 21 20  1  0  0  0  0
 21 22  1  0  0  0  0
 22 33  1  0  0  0  0
 22 23  1  0  0  0  0
 23 27  1  0  0  0  0
 24 23  2  0  0  0  0
 25 28  1  0  0  0  0
 26 25  2  0  0  0  0
 27 35  1  0  0  0  0
 31 21  1  0  0  0  0
 32 21  1  0  0  0  0
 34 22  1  0  0  0  0
M  END
$$$$
