GAF.pdb
 OpenBabel07022418213D

 39 39  0  0  1  0  0  0  0  0999 V2000
   -1.1950   -4.4610    1.3470 N   0  0  0  0  0  0  0  0  0  0  0  0
   -0.1930   -4.1950    2.3600 C   0  0  0  0  0  0  0  0  0  0  0  0
    0.8700   -3.3340    1.7820 C   0  0  0  0  0  0  0  0  0  0  0  0
    1.8580   -2.9680    2.4860 O   0  0  0  0  0  0  0  0  0  0  0  0
   -1.6250   -3.5760    1.0320 H   0  0  0  0  0  0  0  0  0  0  0  0
   -0.7410   -4.9650    0.5570 H   0  0  0  0  0  0  0  0  0  0  0  0
   -0.6880   -3.6970    3.2130 H   0  0  0  0  0  0  0  0  0  0  0  0
    0.2070   -5.1640    2.7270 H   0  0  0  0  0  0  0  0  0  0  0  0
    2.5000   -2.7550   -1.2750 C   0  0  0  0  0  0  0  0  0  0  0  0
    1.8650   -2.0560   -0.1040 C   0  0  2  0  0  0  0  0  0  0  0  0
    0.8040   -2.9040    0.4400 N   0  0  0  0  0  0  0  0  0  0  0  0
    1.3010   -0.7270   -0.5010 C   0  0  0  0  0  0  0  0  0  0  0  0
    2.0070    0.1760   -0.9950 O   0  0  0  0  0  0  0  0  0  0  0  0
    2.1410   -3.8100   -1.3870 H   0  0  0  0  0  0  0  0  0  0  0  0
    3.6170   -2.7980   -1.1250 H   0  0  0  0  0  0  0  0  0  0  0  0
    2.3660   -2.1780   -2.2160 H   0  0  0  0  0  0  0  0  0  0  0  0
    2.6180   -1.8650    0.6790 H   0  0  0  0  0  0  0  0  0  0  0  0
   -0.0050   -3.2000   -0.1470 H   0  0  0  0  0  0  0  0  0  0  0  0
   -0.0970   -0.4510   -0.3220 N   0  0  0  0  0  0  0  0  0  0  0  0
   -0.7480    0.7650   -0.6500 C   0  0  1  0  0  0  0  0  0  0  0  0
   -0.1010    2.0250   -0.1280 C   0  0  0  0  0  0  0  0  0  0  0  0
    0.0010    2.1170    1.3240 C   0  0  0  0  0  0  0  0  0  0  0  0
    1.1050    1.6770    1.9900 C   0  0  0  0  0  0  0  0  0  0  0  0
    1.1980    1.7580    3.3620 C   0  0  0  0  0  0  0  0  0  0  0  0
    0.1400    2.2980    4.0550 C   0  0  0  0  0  0  0  0  0  0  0  0
   -0.9900    2.7520    3.4150 C   0  0  0  0  0  0  0  0  0  0  0  0
   -1.0470    2.6550    2.0430 C   0  0  0  0  0  0  0  0  0  0  0  0
   -1.0300    0.9550   -2.0890 C   0  0  0  0  0  0  0  0  0  0  0  0
   -0.6900    0.0640   -2.9100 O   0  0  0  0  0  0  0  0  0  0  0  0
   -1.6570    2.0760   -2.5950 O   0  0  0  0  0  0  0  0  0  0  0  0
   -0.6500   -1.2630    0.0980 H   0  0  0  0  0  0  0  0  0  0  0  0
   -1.7680    0.7340   -0.1360 H   0  0  0  0  0  0  0  0  0  0  0  0
   -0.7550    2.8640   -0.5030 H   0  0  0  0  0  0  0  0  0  0  0  0
    0.8860    2.1720   -0.6040 H   0  0  0  0  0  0  0  0  0  0  0  0
    1.9720    1.2460    1.4900 H   0  0  0  0  0  0  0  0  0  0  0  0
    2.0920    1.4010    3.8940 H   0  0  0  0  0  0  0  0  0  0  0  0
    0.2370    2.3520    5.1430 H   0  0  0  0  0  0  0  0  0  0  0  0
   -1.8130    3.1760    3.9840 H   0  0  0  0  0  0  0  0  0  0  0  0
   -1.9470    3.0170    1.5420 H   0  0  0  0  0  0  0  0  0  0  0  0
  1  2  1  0  0  0  0
  2  8  1  0  0  0  0
  2  7  1  0  0  0  0
  3  2  1  0  0  0  0
  3  4  2  0  0  0  0
  5  1  1  0  0  0  0
  6  1  1  0  0  0  0
  9 15  1  0  0  0  0
  9 10  1  0  0  0  0
 10 11  1  0  0  0  0
 10 17  1  1  0  0  0
 11  3  1  0  0  0  0
 12 19  1  0  0  0  0
 12 10  1  0  0  0  0
 13 12  2  0  0  0  0
 14  9  1  0  0  0  0
 16  9  1  0  0  0  0
 18 11  1  0  0  0  0
 19 31  1  0  0  0  0
 20 19  1  0  0  0  0
 20 32  1  1  0  0  0
 20 21  1  0  0  0  0
 21 22  1  0  0  0  0
 22 23  2  0  0  0  0
 22 27  1  0  0  0  0
 23 24  1  0  0  0  0
 24 36  1  0  0  0  0
 24 25  2  0  0  0  0
 25 37  1  0  0  0  0
 26 38  1  0  0  0  0
 26 25  1  0  0  0  0
 27 26  2  0  0  0  0
 28 20  1  0  0  0  0
 29 28  2  0  0  0  0
 30 28  1  0  0  0  0
 33 21  1  0  0  0  0
 34 21  1  0  0  0  0
 35 23  1  0  0  0  0
 39 27  1  0  0  0  0
M  END
$$$$
