GAG.pdb
 OpenBabel07022418213D

 26 25  0  0  1  0  0  0  0  0999 V2000
    1.7580   -0.1960    4.1500 N   0  0  0  0  0  0  0  0  0  0  0  0
    2.0610   -1.5300    3.6820 C   0  0  0  0  0  0  0  0  0  0  0  0
    1.2510   -1.8880    2.4880 C   0  0  0  0  0  0  0  0  0  0  0  0
    1.3390   -2.9840    1.9100 O   0  0  0  0  0  0  0  0  0  0  0  0
    0.7680   -0.1040    4.4540 H   0  0  0  0  0  0  0  0  0  0  0  0
    1.9910    0.5140    3.4350 H   0  0  0  0  0  0  0  0  0  0  0  0
    3.1290   -1.6400    3.4930 H   0  0  0  0  0  0  0  0  0  0  0  0
    1.8180   -2.2500    4.5160 H   0  0  0  0  0  0  0  0  0  0  0  0
   -1.9310   -1.1260    1.2950 C   0  0  0  0  0  0  0  0  0  0  0  0
   -0.4870   -1.2050    0.8290 C   0  0  2  0  0  0  0  0  0  0  0  0
    0.3340   -0.9110    1.9960 N   0  0  0  0  0  0  0  0  0  0  0  0
   -0.2450   -0.1760   -0.1890 C   0  0  0  0  0  0  0  0  0  0  0  0
    0.5600    0.7580    0.0240 O   0  0  0  0  0  0  0  0  0  0  0  0
   -2.3240   -2.1620    1.4500 H   0  0  0  0  0  0  0  0  0  0  0  0
   -2.0430   -0.5300    2.2190 H   0  0  0  0  0  0  0  0  0  0  0  0
   -2.5310   -0.6820    0.4800 H   0  0  0  0  0  0  0  0  0  0  0  0
   -0.2740   -2.2250    0.4490 H   0  0  0  0  0  0  0  0  0  0  0  0
    0.2620    0.0070    2.4820 H   0  0  0  0  0  0  0  0  0  0  0  0
   -0.9590   -0.2710   -1.4380 N   0  0  0  0  0  0  0  0  0  0  0  0
   -0.7030    0.7550   -2.4240 C   0  0  0  0  0  0  0  0  0  0  0  0
    0.7290    0.7750   -2.8140 C   0  0  0  0  0  0  0  0  0  0  0  0
    1.1680    1.5890   -3.6570 O   0  0  0  0  0  0  0  0  0  0  0  0
    1.5970   -0.1320   -2.2290 O   0  0  0  0  0  0  0  0  0  0  0  0
   -1.6240   -1.0210   -1.6450 H   0  0  0  0  0  0  0  0  0  0  0  0
   -1.0220    1.7240   -1.9750 H   0  0  0  0  0  0  0  0  0  0  0  0
   -1.3630    0.6110   -3.3100 H   0  0  0  0  0  0  0  0  0  0  0  0
  1  5  1  0  0  0  0
  2  1  1  0  0  0  0
  2  8  1  0  0  0  0
  3  2  1  0  0  0  0
  4  3  2  0  0  0  0
  6  1  1  0  0  0  0
  7  2  1  0  0  0  0
  9 14  1  0  0  0  0
  9 15  1  0  0  0  0
 10 17  1  6  0  0  0
 10  9  1  0  0  0  0
 10 11  1  0  0  0  0
 11 18  1  0  0  0  0
 11  3  1  0  0  0  0
 12 13  2  0  0  0  0
 12 10  1  0  0  0  0
 16  9  1  0  0  0  0
 19 12  1  0  0  0  0
 20 25  1  0  0  0  0
 20 19  1  0  0  0  0
 21 20  1  0  0  0  0
 21 23  1  0  0  0  0
 22 21  2  0  0  0  0
 24 19  1  0  0  0  0
 26 20  1  0  0  0  0
M  END
$$$$
