GAH.pdb
 OpenBabel07022418213D

 36 36  0  0  1  0  0  0  0  0999 V2000
    1.0560   -2.2650    5.1340 N   0  0  0  0  0  0  0  0  0  0  0  0
    2.3000   -1.8940    4.4960 C   0  0  0  0  0  0  0  0  0  0  0  0
    2.1620   -1.8690    3.0190 C   0  0  0  0  0  0  0  0  0  0  0  0
    3.1740   -1.5600    2.3340 O   0  0  0  0  0  0  0  0  0  0  0  0
    0.6540   -1.4270    5.6350 H   0  0  0  0  0  0  0  0  0  0  0  0
    1.1990   -2.9830    5.8860 H   0  0  0  0  0  0  0  0  0  0  0  0
    2.6010   -0.8880    4.8300 H   0  0  0  0  0  0  0  0  0  0  0  0
    3.0500   -2.6750    4.7570 H   0  0  0  0  0  0  0  0  0  0  0  0
    0.4530   -3.5550    0.4890 C   0  0  0  0  0  0  0  0  0  0  0  0
    0.7360   -2.1790    1.0010 C   0  0  2  0  0  0  0  0  0  0  0  0
    0.9120   -2.1910    2.4340 N   0  0  0  0  0  0  0  0  0  0  0  0
   -0.2310   -1.1620    0.6320 C   0  0  0  0  0  0  0  0  0  0  0  0
   -0.7620   -0.4640    1.5280 O   0  0  0  0  0  0  0  0  0  0  0  0
    0.7580   -4.2760    1.2770 H   0  0  0  0  0  0  0  0  0  0  0  0
   -0.6180   -3.7470    0.2910 H   0  0  0  0  0  0  0  0  0  0  0  0
    1.0580   -3.8110   -0.4060 H   0  0  0  0  0  0  0  0  0  0  0  0
    1.7280   -1.8850    0.5550 H   0  0  0  0  0  0  0  0  0  0  0  0
    0.1150   -2.4390    3.0820 H   0  0  0  0  0  0  0  0  0  0  0  0
   -0.6360   -0.8880   -0.7180 N   0  0  0  0  0  0  0  0  0  0  0  0
   -1.5980    0.1290   -1.0460 C   0  0  1  0  0  0  0  0  0  0  0  0
   -1.0550    1.1470   -2.0220 C   0  0  0  0  0  0  0  0  0  0  0  0
    0.1420    1.8510   -1.4780 C   0  0  0  0  0  0  0  0  0  0  0  0
    0.2070    3.0000   -0.7380 C   0  0  0  0  0  0  0  0  0  0  0  0
    1.5090    3.2310   -0.4880 N   0  0  0  0  0  0  0  0  0  0  0  0
    2.2670    2.2760   -1.0370 C   0  0  0  0  0  0  0  0  0  0  0  0
    1.4110    1.4350   -1.6430 N   0  0  0  0  0  0  0  0  0  0  0  0
   -2.7650   -0.5170   -1.6980 C   0  0  0  0  0  0  0  0  0  0  0  0
   -3.7650    0.1760   -2.0880 O   0  0  0  0  0  0  0  0  0  0  0  0
   -2.7870   -1.8720   -1.8920 O   0  0  0  0  0  0  0  0  0  0  0  0
   -0.1750   -1.4870   -1.4360 H   0  0  0  0  0  0  0  0  0  0  0  0
   -1.9820    0.6630   -0.1640 H   0  0  0  0  0  0  0  0  0  0  0  0
   -1.8320    1.9250   -2.1680 H   0  0  0  0  0  0  0  0  0  0  0  0
   -0.8370    0.7120   -3.0050 H   0  0  0  0  0  0  0  0  0  0  0  0
   -0.6380    3.6060   -0.4180 H   0  0  0  0  0  0  0  0  0  0  0  0
    1.9260    4.0330    0.0580 H   0  0  0  0  0  0  0  0  0  0  0  0
    3.3480    2.1520   -1.0310 H   0  0  0  0  0  0  0  0  0  0  0  0
  1  5  1  0  0  0  0
  1  6  1  0  0  0  0
  2  8  1  0  0  0  0
  2  7  1  0  0  0  0
  2  1  1  0  0  0  0
  3  2  1  0  0  0  0
  4  3  2  0  0  0  0
  9 10  1  0  0  0  0
  9 14  1  0  0  0  0
 10 17  1  6  0  0  0
 10 11  1  0  0  0  0
 11  3  1  0  0  0  0
 11 18  1  0  0  0  0
 12 10  1  0  0  0  0
 12 13  2  0  0  0  0
 15  9  1  0  0  0  0
 16  9  1  0  0  0  0
 19 12  1  0  0  0  0
 20 19  1  0  0  0  0
 20 31  1  1  0  0  0
 21 22  1  0  0  0  0
 21 20  1  0  0  0  0
 22 23  2  0  0  0  0
 23 24  1  0  0  0  0
 23 34  1  0  0  0  0
 24 35  1  0  0  0  0
 25 36  1  0  0  0  0
 25 24  1  0  0  0  0
 26 22  1  0  0  0  0
 26 25  2  0  0  0  0
 27 20  1  0  0  0  0
 28 27  2  0  0  0  0
 29 27  1  0  0  0  0
 30 19  1  0  0  0  0
 32 21  1  0  0  0  0
 33 21  1  0  0  0  0
M  END
$$$$
