GAP.pdb
 OpenBabel07022418213D

 33 33  0  0  1  0  0  0  0  0999 V2000
    0.4530   -3.7340   -0.5170 N   0  0  0  0  0  0  0  0  0  0  0  0
   -0.2950   -3.9760    0.6780 C   0  0  0  0  0  0  0  0  0  0  0  0
   -0.1390   -2.9110    1.6910 C   0  0  0  0  0  0  0  0  0  0  0  0
   -0.7320   -2.9760    2.7970 O   0  0  0  0  0  0  0  0  0  0  0  0
    1.4670   -3.6430   -0.3930 H   0  0  0  0  0  0  0  0  0  0  0  0
    0.0130   -3.1100   -1.2000 H   0  0  0  0  0  0  0  0  0  0  0  0
   -0.0400   -4.9770    1.0600 H   0  0  0  0  0  0  0  0  0  0  0  0
   -1.3800   -3.9790    0.3920 H   0  0  0  0  0  0  0  0  0  0  0  0
    2.3480   -0.6460    2.6850 C   0  0  0  0  0  0  0  0  0  0  0  0
    0.8730   -0.7430    2.3610 C   0  0  2  0  0  0  0  0  0  0  0  0
    0.7140   -1.7820    1.3880 N   0  0  0  0  0  0  0  0  0  0  0  0
    0.3580    0.5740    2.0010 C   0  0  0  0  0  0  0  0  0  0  0  0
    0.5150    1.5060    2.8900 O   0  0  0  0  0  0  0  0  0  0  0  0
    2.5920   -1.4560    3.3950 H   0  0  0  0  0  0  0  0  0  0  0  0
    2.9140   -0.7980    1.7380 H   0  0  0  0  0  0  0  0  0  0  0  0
    2.6220    0.3300    3.1160 H   0  0  0  0  0  0  0  0  0  0  0  0
    0.3590   -1.0420    3.3110 H   0  0  0  0  0  0  0  0  0  0  0  0
    1.1780   -1.8130    0.4620 H   0  0  0  0  0  0  0  0  0  0  0  0
   -0.2820    0.9690    0.8310 N   0  0  0  0  0  0  0  0  0  0  0  0
   -0.7960    2.3460    0.5620 C   0  0  0  0  0  0  0  0  0  0  0  0
   -2.1880    1.9260    0.0680 C   0  0  0  0  0  0  0  0  0  0  0  0
   -1.8420    0.8870   -0.9570 C   0  0  0  0  0  0  0  0  0  0  0  0
   -0.6090    0.2160   -0.3590 C   0  0  1  0  0  0  0  0  0  0  0  0
    0.5110    0.2450   -1.3430 C   0  0  0  0  0  0  0  0  0  0  0  0
    1.5360    0.8840   -1.0260 O   0  0  0  0  0  0  0  0  0  0  0  0
    0.4690   -0.3850   -2.5540 O   0  0  0  0  0  0  0  0  0  0  0  0
   -0.2680    2.7600   -0.2990 H   0  0  0  0  0  0  0  0  0  0  0  0
   -0.8280    2.9460    1.4680 H   0  0  0  0  0  0  0  0  0  0  0  0
   -2.7570    2.7770   -0.3260 H   0  0  0  0  0  0  0  0  0  0  0  0
   -2.6880    1.4320    0.9330 H   0  0  0  0  0  0  0  0  0  0  0  0
   -1.6010    1.3550   -1.9350 H   0  0  0  0  0  0  0  0  0  0  0  0
   -2.6870    0.1720   -1.0360 H   0  0  0  0  0  0  0  0  0  0  0  0
   -0.8930   -0.8050   -0.1180 H   0  0  0  0  0  0  0  0  0  0  0  0
  1  5  1  0  0  0  0
  1  2  1  0  0  0  0
  2  7  1  0  0  0  0
  2  3  1  0  0  0  0
  3  4  2  0  0  0  0
  6  1  1  0  0  0  0
  8  2  1  0  0  0  0
  9 16  1  0  0  0  0
  9 14  1  0  0  0  0
 10  9  1  0  0  0  0
 10 17  1  1  0  0  0
 11  3  1  0  0  0  0
 11 10  1  0  0  0  0
 12 10  1  0  0  0  0
 12 13  2  0  0  0  0
 15  9  1  0  0  0  0
 18 11  1  0  0  0  0
 19 12  1  0  0  0  0
 20 19  1  0  0  0  0
 20 28  1  0  0  0  0
 21 20  1  0  0  0  0
 21 30  1  0  0  0  0
 22 23  1  0  0  0  0
 22 21  1  0  0  0  0
 23 33  1  1  0  0  0
 23 19  1  0  0  0  0
 24 25  1  0  0  0  0
 24 23  1  0  0  0  0
 26 24  2  0  0  0  0
 27 20  1  0  0  0  0
 29 21  1  0  0  0  0
 31 22  1  0  0  0  0
 32 22  1  0  0  0  0
M  END
$$$$
