GAQ.pdb
 OpenBabel07022418213D

 36 35  0  0  1  0  0  0  0  0999 V2000
    0.2220   -5.2740    3.6140 N   0  0  0  0  0  0  0  0  0  0  0  0
    1.2070   -5.4360    2.5560 C   0  0  0  0  0  0  0  0  0  0  0  0
    1.0000   -4.3880    1.5110 C   0  0  0  0  0  0  0  0  0  0  0  0
    1.7370   -4.3320    0.4990 O   0  0  0  0  0  0  0  0  0  0  0  0
    0.3880   -4.4620    4.2160 H   0  0  0  0  0  0  0  0  0  0  0  0
   -0.7380   -5.4150    3.2820 H   0  0  0  0  0  0  0  0  0  0  0  0
    2.2310   -5.4600    2.9380 H   0  0  0  0  0  0  0  0  0  0  0  0
    0.9970   -6.4230    2.0830 H   0  0  0  0  0  0  0  0  0  0  0  0
   -1.6380   -2.4790    0.0020 C   0  0  0  0  0  0  0  0  0  0  0  0
   -0.2700   -2.3910    0.6390 C   0  0  2  0  0  0  0  0  0  0  0  0
   -0.0330   -3.4080    1.6070 N   0  0  0  0  0  0  0  0  0  0  0  0
   -0.0350   -1.0660    1.2620 C   0  0  0  0  0  0  0  0  0  0  0  0
    0.3110   -1.0080    2.4570 O   0  0  0  0  0  0  0  0  0  0  0  0
   -2.4490   -2.1380    0.6530 H   0  0  0  0  0  0  0  0  0  0  0  0
   -1.5980   -1.8570   -0.9260 H   0  0  0  0  0  0  0  0  0  0  0  0
   -1.7680   -3.5240   -0.3520 H   0  0  0  0  0  0  0  0  0  0  0  0
    0.4640   -2.4550   -0.2170 H   0  0  0  0  0  0  0  0  0  0  0  0
   -0.6470   -3.4520    2.4450 H   0  0  0  0  0  0  0  0  0  0  0  0
    2.0940    3.3000   -2.9850 N   0  0  0  0  0  0  0  0  0  0  0  0
    2.1110    2.9670   -1.6080 C   0  0  0  0  0  0  0  0  0  0  0  0
    3.1230    3.2140   -0.9040 O   0  0  0  0  0  0  0  0  0  0  0  0
    0.9540    2.3190   -0.9360 C   0  0  0  0  0  0  0  0  0  0  0  0
    1.2310    2.0720    0.5280 C   0  0  0  0  0  0  0  0  0  0  0  0
    0.0520    1.4160    1.2010 C   0  0  2  0  0  0  0  0  0  0  0  0
   -0.1920    0.1510    0.5360 N   0  0  0  0  0  0  0  0  0  0  0  0
   -1.1100    2.3330    1.0590 C   0  0  0  0  0  0  0  0  0  0  0  0
   -1.0160    3.4670    1.5960 O   0  0  0  0  0  0  0  0  0  0  0  0
   -2.2630    2.0200    0.3860 O   0  0  0  0  0  0  0  0  0  0  0  0
    1.4810    2.7720   -3.6390 H   0  0  0  0  0  0  0  0  0  0  0  0
    2.6750    4.0640   -3.3860 H   0  0  0  0  0  0  0  0  0  0  0  0
    0.0730    2.9600   -1.0850 H   0  0  0  0  0  0  0  0  0  0  0  0
    0.7390    1.3500   -1.4620 H   0  0  0  0  0  0  0  0  0  0  0  0
    2.1850    1.5740    0.7060 H   0  0  0  0  0  0  0  0  0  0  0  0
    1.3210    3.0940    0.9960 H   0  0  0  0  0  0  0  0  0  0  0  0
    0.3410    1.2670    2.2650 H   0  0  0  0  0  0  0  0  0  0  0  0
   -0.4810    0.0730   -0.4550 H   0  0  0  0  0  0  0  0  0  0  0  0
  1  5  1  0  0  0  0
  2  7  1  0  0  0  0
  2  1  1  0  0  0  0
  3 11  1  0  0  0  0
  3  2  1  0  0  0  0
  4  3  2  0  0  0  0
  6  1  1  0  0  0  0
  8  2  1  0  0  0  0
  9 10  1  0  0  0  0
  9 14  1  0  0  0  0
 10 17  1  6  0  0  0
 10 12  1  0  0  0  0
 10 11  1  0  0  0  0
 11 18  1  0  0  0  0
 12 13  2  0  0  0  0
 15  9  1  0  0  0  0
 16  9  1  0  0  0  0
 19 20  1  0  0  0  0
 20 22  1  0  0  0  0
 20 21  2  0  0  0  0
 22 23  1  0  0  0  0
 23 33  1  0  0  0  0
 23 34  1  0  0  0  0
 23 24  1  0  0  0  0
 24 35  1  1  0  0  0
 25 24  1  0  0  0  0
 25 12  1  0  0  0  0
 26 24  1  0  0  0  0
 26 27  1  0  0  0  0
 28 26  2  0  0  0  0
 29 19  1  0  0  0  0
 30 19  1  0  0  0  0
 31 22  1  0  0  0  0
 32 22  1  0  0  0  0
 36 25  1  0  0  0  0
M  END
$$$$
