GAR.pdb
 OpenBabel07022418213D

 42 41  0  0  1  0  0  0  0  0999 V2000
   -1.9370   -5.7810    0.0870 N   0  0  0  0  0  0  0  0  0  0  0  0
   -1.5340   -4.5010   -0.4350 C   0  0  0  0  0  0  0  0  0  0  0  0
   -0.0630   -4.3620   -0.2360 C   0  0  0  0  0  0  0  0  0  0  0  0
    0.6090   -5.2800    0.3080 O   0  0  0  0  0  0  0  0  0  0  0  0
   -1.8940   -6.5640   -0.5740 H   0  0  0  0  0  0  0  0  0  0  0  0
   -2.7260   -5.7600    0.7400 H   0  0  0  0  0  0  0  0  0  0  0  0
   -1.7340   -4.4730   -1.5450 H   0  0  0  0  0  0  0  0  0  0  0  0
   -2.0760   -3.6790    0.0750 H   0  0  0  0  0  0  0  0  0  0  0  0
    2.8310   -2.9790   -1.7460 C   0  0  0  0  0  0  0  0  0  0  0  0
    2.0760   -3.0810   -0.4420 C   0  0  2  0  0  0  0  0  0  0  0  0
    0.6520   -3.1990   -0.6440 N   0  0  0  0  0  0  0  0  0  0  0  0
    2.3660   -1.9620    0.4780 C   0  0  0  0  0  0  0  0  0  0  0  0
    3.5330   -1.6720    0.8040 O   0  0  0  0  0  0  0  0  0  0  0  0
    3.5530   -3.7960   -1.8850 H   0  0  0  0  0  0  0  0  0  0  0  0
    2.1120   -2.9380   -2.5730 H   0  0  0  0  0  0  0  0  0  0  0  0
    3.4110   -2.0250   -1.7590 H   0  0  0  0  0  0  0  0  0  0  0  0
    2.4410   -4.0170    0.0650 H   0  0  0  0  0  0  0  0  0  0  0  0
    0.0990   -2.4410   -1.0930 H   0  0  0  0  0  0  0  0  0  0  0  0
   -2.7200    2.9730    1.2970 N   0  0  0  0  0  0  0  0  0  0  0  0
   -1.4280    3.4880    1.6240 C   0  0  0  0  0  0  0  0  0  0  0  0
   -1.1920    4.0540    2.7590 N   0  0  0  0  0  0  0  0  0  0  0  0
   -0.4280    3.3480    0.6400 N   0  0  0  0  0  0  0  0  0  0  0  0
    0.9540    3.5610    1.0100 C   0  0  0  0  0  0  0  0  0  0  0  0
    1.3630    2.4150    1.9520 C   0  0  0  0  0  0  0  0  0  0  0  0
    1.1660    1.1540    1.1500 C   0  0  0  0  0  0  0  0  0  0  0  0
    1.5290   -0.0820    1.9170 C   0  0  2  0  0  0  0  0  0  0  0  0
    1.2820   -1.2060    0.9960 N   0  0  0  0  0  0  0  0  0  0  0  0
    0.8100   -0.2710    3.1780 C   0  0  0  0  0  0  0  0  0  0  0  0
    0.0670   -1.2940    3.3740 O   0  0  0  0  0  0  0  0  0  0  0  0
    0.8720    0.6160    4.2370 O   0  0  0  0  0  0  0  0  0  0  0  0
   -3.0350    2.0950    1.7360 H   0  0  0  0  0  0  0  0  0  0  0  0
   -3.3050    3.5030    0.6210 H   0  0  0  0  0  0  0  0  0  0  0  0
   -1.9360    4.1610    3.4890 H   0  0  0  0  0  0  0  0  0  0  0  0
   -0.6950    3.0910   -0.3480 H   0  0  0  0  0  0  0  0  0  0  0  0
    1.0030    4.5380    1.5310 H   0  0  0  0  0  0  0  0  0  0  0  0
    1.6310    3.4970    0.1350 H   0  0  0  0  0  0  0  0  0  0  0  0
    0.7200    2.4560    2.8570 H   0  0  0  0  0  0  0  0  0  0  0  0
    2.4150    2.5830    2.2300 H   0  0  0  0  0  0  0  0  0  0  0  0
    1.8880    1.2190    0.2910 H   0  0  0  0  0  0  0  0  0  0  0  0
    0.1460    1.0990    0.7080 H   0  0  0  0  0  0  0  0  0  0  0  0
    2.6270   -0.0110    2.1130 H   0  0  0  0  0  0  0  0  0  0  0  0
    0.2940   -1.4250    0.7410 H   0  0  0  0  0  0  0  0  0  0  0  0
  1  6  1  0  0  0  0
  2  3  1  0  0  0  0
  2  8  1  0  0  0  0
  2  1  1  0  0  0  0
  3  4  2  0  0  0  0
  5  1  1  0  0  0  0
  7  2  1  0  0  0  0
  9 10  1  0  0  0  0
 10 17  1  1  0  0  0
 10 12  1  0  0  0  0
 11 10  1  0  0  0  0
 11  3  1  0  0  0  0
 12 13  2  0  0  0  0
 12 27  1  0  0  0  0
 14  9  1  0  0  0  0
 15  9  1  0  0  0  0
 16  9  1  0  0  0  0
 18 11  1  0  0  0  0
 19 20  1  0  0  0  0
 19 31  1  0  0  0  0
 20 21  2  0  0  0  0
 21 33  1  0  0  0  0
 22 23  1  0  0  0  0
 22 20  1  0  0  0  0
 23 35  1  0  0  0  0
 23 24  1  0  0  0  0
 24 38  1  0  0  0  0
 24 37  1  0  0  0  0
 25 26  1  0  0  0  0
 25 24  1  0  0  0  0
 26 41  1  1  0  0  0
 26 28  1  0  0  0  0
 27 26  1  0  0  0  0
 28 29  2  0  0  0  0
 28 30  1  0  0  0  0
 32 19  1  0  0  0  0
 34 22  1  0  0  0  0
 36 23  1  0  0  0  0
 39 25  1  0  0  0  0
 40 25  1  0  0  0  0
 42 27  1  0  0  0  0
M  END
$$$$
