GAS.pdb
 OpenBabel07022418213D

 30 29  0  0  1  0  0  0  0  0999 V2000
   -1.9950   -3.7120    1.2210 N   0  0  0  0  0  0  0  0  0  0  0  0
   -1.6790   -3.3710    2.5890 C   0  0  0  0  0  0  0  0  0  0  0  0
   -0.4040   -2.6210    2.7010 C   0  0  0  0  0  0  0  0  0  0  0  0
   -0.0470   -2.2800    3.8590 O   0  0  0  0  0  0  0  0  0  0  0  0
   -2.6580   -4.4890    1.1560 H   0  0  0  0  0  0  0  0  0  0  0  0
   -2.1650   -2.9020    0.6190 H   0  0  0  0  0  0  0  0  0  0  0  0
   -2.4810   -2.7180    2.9770 H   0  0  0  0  0  0  0  0  0  0  0  0
   -1.6140   -4.2960    3.1860 H   0  0  0  0  0  0  0  0  0  0  0  0
    2.8220   -2.3410    1.2100 C   0  0  0  0  0  0  0  0  0  0  0  0
    1.6190   -1.5700    1.6690 C   0  0  2  0  0  0  0  0  0  0  0  0
    0.3920   -2.2920    1.5570 N   0  0  0  0  0  0  0  0  0  0  0  0
    1.5790   -0.2450    1.0000 C   0  0  0  0  0  0  0  0  0  0  0  0
    2.6190    0.4600    1.0500 O   0  0  0  0  0  0  0  0  0  0  0  0
    2.6010   -3.0630    0.4060 H   0  0  0  0  0  0  0  0  0  0  0  0
    3.3410   -2.8390    2.0580 H   0  0  0  0  0  0  0  0  0  0  0  0
    3.5490   -1.6120    0.7960 H   0  0  0  0  0  0  0  0  0  0  0  0
    1.7890   -1.3450    2.7630 H   0  0  0  0  0  0  0  0  0  0  0  0
    0.0110   -2.6180    0.6390 H   0  0  0  0  0  0  0  0  0  0  0  0
    0.0780    2.4600   -2.5360 O   0  0  0  0  0  0  0  0  0  0  0  0
    0.1310    1.2920   -1.8060 C   0  0  0  0  0  0  0  0  0  0  0  0
    0.4300    1.5610   -0.3290 C   0  0  2  0  0  0  0  0  0  0  0  0
    0.4580    0.2680    0.3190 N   0  0  0  0  0  0  0  0  0  0  0  0
   -0.6340    2.4330    0.2120 C   0  0  0  0  0  0  0  0  0  0  0  0
   -1.3620    1.9810    1.1310 O   0  0  0  0  0  0  0  0  0  0  0  0
   -0.8590    3.7120   -0.2450 O   0  0  0  0  0  0  0  0  0  0  0  0
    0.1770    2.2280   -3.4880 H   0  0  0  0  0  0  0  0  0  0  0  0
   -0.8480    0.7470   -1.8130 H   0  0  0  0  0  0  0  0  0  0  0  0
    0.9220    0.6020   -2.1750 H   0  0  0  0  0  0  0  0  0  0  0  0
    1.3940    2.0920   -0.2230 H   0  0  0  0  0  0  0  0  0  0  0  0
   -0.3970   -0.3250    0.2840 H   0  0  0  0  0  0  0  0  0  0  0  0
  1  2  1  0  0  0  0
  2  3  1  0  0  0  0
  2  7  1  0  0  0  0
  2  8  1  0  0  0  0
  3  4  2  0  0  0  0
  5  1  1  0  0  0  0
  6  1  1  0  0  0  0
  9 10  1  0  0  0  0
  9 15  1  0  0  0  0
 10 17  1  1  0  0  0
 11 10  1  0  0  0  0
 11  3  1  0  0  0  0
 12 13  2  0  0  0  0
 12 10  1  0  0  0  0
 14  9  1  0  0  0  0
 16  9  1  0  0  0  0
 18 11  1  0  0  0  0
 19 20  1  0  0  0  0
 20 21  1  0  0  0  0
 21 29  1  1  0  0  0
 21 23  1  0  0  0  0
 21 22  1  0  0  0  0
 22 12  1  0  0  0  0
 23 24  1  0  0  0  0
 25 23  2  0  0  0  0
 26 19  1  0  0  0  0
 27 20  1  0  0  0  0
 28 20  1  0  0  0  0
 30 22  1  0  0  0  0
M  END
$$$$
