GAY.pdb
 OpenBabel07022418213D

 40 40  0  0  1  0  0  0  0  0999 V2000
    0.2750   -6.0630    4.3250 N   0  0  0  0  0  0  0  0  0  0  0  0
   -0.5620   -5.5320    3.2640 C   0  0  0  0  0  0  0  0  0  0  0  0
    0.1250   -4.4030    2.5740 C   0  0  0  0  0  0  0  0  0  0  0  0
    1.2660   -4.0500    2.9450 O   0  0  0  0  0  0  0  0  0  0  0  0
   -0.2500   -6.5870    5.0390 H   0  0  0  0  0  0  0  0  0  0  0  0
    0.8000   -5.2500    4.7340 H   0  0  0  0  0  0  0  0  0  0  0  0
   -1.5080   -5.1870    3.6880 H   0  0  0  0  0  0  0  0  0  0  0  0
   -0.7070   -6.3680    2.5400 H   0  0  0  0  0  0  0  0  0  0  0  0
    0.2770   -3.0620   -0.6470 C   0  0  0  0  0  0  0  0  0  0  0  0
    0.1400   -2.6290    0.8170 C   0  0  2  0  0  0  0  0  0  0  0  0
   -0.4930   -3.7290    1.5110 N   0  0  0  0  0  0  0  0  0  0  0  0
   -0.7430   -1.4430    0.9190 C   0  0  0  0  0  0  0  0  0  0  0  0
   -1.8090   -1.5340    1.5260 O   0  0  0  0  0  0  0  0  0  0  0  0
   -0.0150   -4.1210   -0.7920 H   0  0  0  0  0  0  0  0  0  0  0  0
   -0.4100   -2.4180   -1.2560 H   0  0  0  0  0  0  0  0  0  0  0  0
    1.3050   -2.9400   -1.0080 H   0  0  0  0  0  0  0  0  0  0  0  0
    1.1490   -2.4330    1.2400 H   0  0  0  0  0  0  0  0  0  0  0  0
   -1.4600   -4.0190    1.1860 H   0  0  0  0  0  0  0  0  0  0  0  0
    4.4580    3.7580   -0.6120 O   0  0  0  0  0  0  0  0  0  0  0  0
    3.2030    3.3650   -0.1730 C   0  0  0  0  0  0  0  0  0  0  0  0
    2.0450    3.9800   -0.5910 C   0  0  0  0  0  0  0  0  0  0  0  0
    0.7900    3.6040   -0.1670 C   0  0  0  0  0  0  0  0  0  0  0  0
    0.7010    2.5590    0.7210 C   0  0  0  0  0  0  0  0  0  0  0  0
   -0.5810    2.0860    1.2270 C   0  0  0  0  0  0  0  0  0  0  0  0
   -1.2300    1.0000    0.4080 C   0  0  2  0  0  0  0  0  0  0  0  0
   -0.3880   -0.1850    0.3270 N   0  0  0  0  0  0  0  0  0  0  0  0
   -1.7090    1.4380   -0.9030 C   0  0  0  0  0  0  0  0  0  0  0  0
   -2.4520    2.4330   -1.0340 O   0  0  0  0  0  0  0  0  0  0  0  0
    1.8630    1.9470    1.1360 C   0  0  0  0  0  0  0  0  0  0  0  0
    3.1270    2.3090    0.7220 C   0  0  0  0  0  0  0  0  0  0  0  0
   -1.3560    0.7620   -2.0510 O   0  0  0  0  0  0  0  0  0  0  0  0
    4.7700    3.5980   -1.5790 H   0  0  0  0  0  0  0  0  0  0  0  0
    2.1480    4.8020   -1.2920 H   0  0  0  0  0  0  0  0  0  0  0  0
   -0.1040    4.1370   -0.5390 H   0  0  0  0  0  0  0  0  0  0  0  0
   -1.2500    2.9620    1.3440 H   0  0  0  0  0  0  0  0  0  0  0  0
   -0.4840    1.6550    2.2670 H   0  0  0  0  0  0  0  0  0  0  0  0
   -2.1280    0.6760    0.9940 H   0  0  0  0  0  0  0  0  0  0  0  0
    0.5290   -0.1770   -0.1740 H   0  0  0  0  0  0  0  0  0  0  0  0
    1.8480    1.1030    1.8470 H   0  0  0  0  0  0  0  0  0  0  0  0
    4.0230    1.8150    1.0610 H   0  0  0  0  0  0  0  0  0  0  0  0
  1  6  1  0  0  0  0
  1  5  1  0  0  0  0
  2  7  1  0  0  0  0
  2  1  1  0  0  0  0
  3  4  2  0  0  0  0
  3  2  1  0  0  0  0
  8  2  1  0  0  0  0
  9 10  1  0  0  0  0
 10 12  1  0  0  0  0
 10 17  1  1  0  0  0
 10 11  1  0  0  0  0
 11  3  1  0  0  0  0
 12 13  2  0  0  0  0
 14  9  1  0  0  0  0
 15  9  1  0  0  0  0
 16  9  1  0  0  0  0
 18 11  1  0  0  0  0
 19 20  1  0  0  0  0
 20 30  1  0  0  0  0
 21 20  2  0  0  0  0
 21 22  1  0  0  0  0
 22 23  2  0  0  0  0
 23 29  1  0  0  0  0
 23 24  1  0  0  0  0
 24 35  1  0  0  0  0
 24 36  1  0  0  0  0
 25 37  1  1  0  0  0
 25 24  1  0  0  0  0
 26 25  1  0  0  0  0
 26 12  1  0  0  0  0
 27 25  1  0  0  0  0
 28 27  1  0  0  0  0
 29 39  1  0  0  0  0
 30 40  1  0  0  0  0
 30 29  2  0  0  0  0
 31 27  2  0  0  0  0
 32 19  1  0  0  0  0
 33 21  1  0  0  0  0
 34 22  1  0  0  0  0
 38 26  1  0  0  0  0
M  END
$$$$
