GCE.pdb
 OpenBabel07022418223D

 36 35  0  0  1  0  0  0  0  0999 V2000
    3.2450   -4.7190    3.1210 N   0  0  0  0  0  0  0  0  0  0  0  0
    1.9120   -4.1550    3.0980 C   0  0  0  0  0  0  0  0  0  0  0  0
    1.6600   -3.3820    1.8610 C   0  0  0  0  0  0  0  0  0  0  0  0
    2.5560   -3.2770    0.9840 O   0  0  0  0  0  0  0  0  0  0  0  0
    3.8970   -4.0370    2.6940 H   0  0  0  0  0  0  0  0  0  0  0  0
    3.5540   -4.9330    4.1090 H   0  0  0  0  0  0  0  0  0  0  0  0
    1.8100   -3.5180    4.0080 H   0  0  0  0  0  0  0  0  0  0  0  0
    1.1460   -4.9660    3.2360 H   0  0  0  0  0  0  0  0  0  0  0  0
    0.4240   -2.7330    1.5980 N   0  0  0  0  0  0  0  0  0  0  0  0
    0.0960   -1.9780    0.4370 C   0  0  1  0  0  0  0  0  0  0  0  0
   -1.0030   -2.6970   -0.3440 C   0  0  0  0  0  0  0  0  0  0  0  0
   -2.4890   -2.8850    0.6770 S   0  0  0  0  0  0  0  0  0  0  0  0
   -0.3060   -0.5920    0.7130 C   0  0  0  0  0  0  0  0  0  0  0  0
   -0.3180   -0.1810    1.8960 O   0  0  0  0  0  0  0  0  0  0  0  0
   -0.3070   -2.8360    2.3560 H   0  0  0  0  0  0  0  0  0  0  0  0
    1.0050   -2.0210   -0.2360 H   0  0  0  0  0  0  0  0  0  0  0  0
   -1.2270   -2.0670   -1.2220 H   0  0  0  0  0  0  0  0  0  0  0  0
   -0.6100   -3.6960   -0.5930 H   0  0  0  0  0  0  0  0  0  0  0  0
   -2.3560   -2.1990    1.9050 H   0  0  0  0  0  0  0  0  0  0  0  0
   -0.6900    0.3250   -0.3000 N   0  0  0  0  0  0  0  0  0  0  0  0
   -1.0870    1.6730   -0.0950 C   0  0  1  0  0  0  0  0  0  0  0  0
   -0.2760    2.7740   -0.6500 C   0  0  0  0  0  0  0  0  0  0  0  0
    1.1220    2.9120   -0.1720 C   0  0  0  0  0  0  0  0  0  0  0  0
    1.9940    1.7910   -0.5280 C   0  0  0  0  0  0  0  0  0  0  0  0
    1.7350    0.8290   -1.2830 O   0  0  0  0  0  0  0  0  0  0  0  0
   -2.4820    1.8210   -0.6370 C   0  0  0  0  0  0  0  0  0  0  0  0
   -3.0170    2.9480   -0.5750 O   0  0  0  0  0  0  0  0  0  0  0  0
    3.2950    1.8260    0.0730 O   0  0  0  0  0  0  0  0  0  0  0  0
   -3.1940    0.7760   -1.1940 O   0  0  0  0  0  0  0  0  0  0  0  0
   -0.6980   -0.0790   -1.2840 H   0  0  0  0  0  0  0  0  0  0  0  0
   -1.1770    1.9020    1.0200 H   0  0  0  0  0  0  0  0  0  0  0  0
   -0.7850    3.7740   -0.4360 H   0  0  0  0  0  0  0  0  0  0  0  0
   -0.3130    2.7740   -1.7980 H   0  0  0  0  0  0  0  0  0  0  0  0
    1.0890    3.0660    0.9490 H   0  0  0  0  0  0  0  0  0  0  0  0
    1.5980    3.8710   -0.5420 H   0  0  0  0  0  0  0  0  0  0  0  0
    3.9920    1.2500   -0.3930 H   0  0  0  0  0  0  0  0  0  0  0  0
  1  6  1  0  0  0  0
  2  1  1  0  0  0  0
  2  8  1  0  0  0  0
  2  7  1  0  0  0  0
  3  2  1  0  0  0  0
  4  3  2  0  0  0  0
  5  1  1  0  0  0  0
  9  3  1  0  0  0  0
  9 15  1  0  0  0  0
 10 16  1  6  0  0  0
 10 13  1  0  0  0  0
 10  9  1  0  0  0  0
 11 10  1  0  0  0  0
 11 12  1  0  0  0  0
 12 19  1  0  0  0  0
 13 14  2  0  0  0  0
 17 11  1  0  0  0  0
 18 11  1  0  0  0  0
 20 21  1  0  0  0  0
 20 13  1  0  0  0  0
 21 31  1  1  0  0  0
 22 32  1  0  0  0  0
 22 23  1  0  0  0  0
 22 21  1  0  0  0  0
 23 34  1  0  0  0  0
 24 23  1  0  0  0  0
 24 28  1  0  0  0  0
 25 24  2  0  0  0  0
 26 27  1  0  0  0  0
 26 21  1  0  0  0  0
 29 26  2  0  0  0  0
 30 20  1  0  0  0  0
 33 22  1  0  0  0  0
 35 23  1  0  0  0  0
 36 28  1  0  0  0  0
M  END
$$$$
