GCF.pdb
 OpenBabel07022418223D

 40 40  0  0  1  0  0  0  0  0999 V2000
   -1.1660   -5.2050    2.0150 N   0  0  0  0  0  0  0  0  0  0  0  0
    0.1960   -5.3250    1.5320 C   0  0  0  0  0  0  0  0  0  0  0  0
    0.4900   -4.1330    0.6740 C   0  0  0  0  0  0  0  0  0  0  0  0
    1.6100   -3.9790    0.1210 O   0  0  0  0  0  0  0  0  0  0  0  0
   -1.2040   -5.6440    2.9610 H   0  0  0  0  0  0  0  0  0  0  0  0
   -1.8350   -5.7310    1.3800 H   0  0  0  0  0  0  0  0  0  0  0  0
    0.2490   -6.2090    0.8670 H   0  0  0  0  0  0  0  0  0  0  0  0
    0.9240   -5.3580    2.3660 H   0  0  0  0  0  0  0  0  0  0  0  0
   -0.4840   -3.1310    0.4510 N   0  0  0  0  0  0  0  0  0  0  0  0
   -0.2250   -1.9480   -0.3880 C   0  0  1  0  0  0  0  0  0  0  0  0
   -1.2770   -2.0620   -1.5010 C   0  0  0  0  0  0  0  0  0  0  0  0
   -1.1930   -0.7300   -2.6910 S   0  0  0  0  0  0  0  0  0  0  0  0
   -0.4820   -0.7690    0.4780 C   0  0  0  0  0  0  0  0  0  0  0  0
   -0.8620   -0.8840    1.6910 O   0  0  0  0  0  0  0  0  0  0  0  0
   -1.4150   -3.2520    0.9060 H   0  0  0  0  0  0  0  0  0  0  0  0
    0.7900   -1.9770   -0.7850 H   0  0  0  0  0  0  0  0  0  0  0  0
   -2.2610   -1.9620   -0.9560 H   0  0  0  0  0  0  0  0  0  0  0  0
   -1.2110   -3.0480   -1.9660 H   0  0  0  0  0  0  0  0  0  0  0  0
   -2.4930   -0.5220   -3.2330 H   0  0  0  0  0  0  0  0  0  0  0  0
   -0.3300    0.5790    0.0360 N   0  0  0  0  0  0  0  0  0  0  0  0
   -0.5870    1.7150    0.9000 C   0  0  1  0  0  0  0  0  0  0  0  0
    0.5940    2.6370    0.9940 C   0  0  0  0  0  0  0  0  0  0  0  0
    1.8040    2.0180    1.5240 C   0  0  0  0  0  0  0  0  0  0  0  0
    2.6970    1.4210    0.6470 C   0  0  0  0  0  0  0  0  0  0  0  0
    3.8420    0.8350    1.1420 C   0  0  0  0  0  0  0  0  0  0  0  0
    4.0960    0.8440    2.5000 C   0  0  0  0  0  0  0  0  0  0  0  0
    3.1870    1.4490    3.3630 C   0  0  0  0  0  0  0  0  0  0  0  0
    2.0360    2.0400    2.8840 C   0  0  0  0  0  0  0  0  0  0  0  0
   -1.7370    2.4680    0.3640 C   0  0  0  0  0  0  0  0  0  0  0  0
   -2.3270    2.1060   -0.6730 O   0  0  0  0  0  0  0  0  0  0  0  0
   -2.1740    3.5970    1.0180 O   0  0  0  0  0  0  0  0  0  0  0  0
   -0.0170    0.7050   -0.9550 H   0  0  0  0  0  0  0  0  0  0  0  0
   -0.9010    1.3150    1.8890 H   0  0  0  0  0  0  0  0  0  0  0  0
    0.3750    3.5560    1.5650 H   0  0  0  0  0  0  0  0  0  0  0  0
    0.8110    2.9820   -0.0500 H   0  0  0  0  0  0  0  0  0  0  0  0
    2.5190    1.4000   -0.4300 H   0  0  0  0  0  0  0  0  0  0  0  0
    4.5480    0.3660    0.4790 H   0  0  0  0  0  0  0  0  0  0  0  0
    4.9870    0.3930    2.9210 H   0  0  0  0  0  0  0  0  0  0  0  0
    3.3580    1.4730    4.4320 H   0  0  0  0  0  0  0  0  0  0  0  0
    1.3040    2.5210    3.5180 H   0  0  0  0  0  0  0  0  0  0  0  0
  1  5  1  0  0  0  0
  2  1  1  0  0  0  0
  2  8  1  0  0  0  0
  3  2  1  0  0  0  0
  4  3  2  0  0  0  0
  6  1  1  0  0  0  0
  7  2  1  0  0  0  0
  9  3  1  0  0  0  0
  9 15  1  0  0  0  0
 10 16  1  6  0  0  0
 10  9  1  0  0  0  0
 10 13  1  0  0  0  0
 11 17  1  0  0  0  0
 11 10  1  0  0  0  0
 12 11  1  0  0  0  0
 13 14  2  0  0  0  0
 18 11  1  0  0  0  0
 19 12  1  0  0  0  0
 20 13  1  0  0  0  0
 20 21  1  0  0  0  0
 21 22  1  0  0  0  0
 21 33  1  1  0  0  0
 22 23  1  0  0  0  0
 22 34  1  0  0  0  0
 23 28  1  0  0  0  0
 24 25  1  0  0  0  0
 24 23  2  0  0  0  0
 25 26  2  0  0  0  0
 26 38  1  0  0  0  0
 26 27  1  0  0  0  0
 27 39  1  0  0  0  0
 28 27  2  0  0  0  0
 28 40  1  0  0  0  0
 29 21  1  0  0  0  0
 29 31  1  0  0  0  0
 30 29  2  0  0  0  0
 32 20  1  0  0  0  0
 35 22  1  0  0  0  0
 36 24  1  0  0  0  0
 37 25  1  0  0  0  0
M  END
$$$$
