GCG.pdb
 OpenBabel07022418223D

 27 26  0  0  1  0  0  0  0  0999 V2000
   -1.5860   -3.5420    1.9740 N   0  0  0  0  0  0  0  0  0  0  0  0
   -0.2580   -3.4490    2.4730 C   0  0  0  0  0  0  0  0  0  0  0  0
    0.6080   -2.5250    1.7230 C   0  0  0  0  0  0  0  0  0  0  0  0
    1.8110   -2.4150    2.1450 O   0  0  0  0  0  0  0  0  0  0  0  0
   -1.6980   -3.5660    0.9590 H   0  0  0  0  0  0  0  0  0  0  0  0
   -2.3150   -3.0760    2.5170 H   0  0  0  0  0  0  0  0  0  0  0  0
   -0.3050   -3.0760    3.5310 H   0  0  0  0  0  0  0  0  0  0  0  0
    0.2100   -4.4630    2.4450 H   0  0  0  0  0  0  0  0  0  0  0  0
    0.1980   -1.7710    0.5940 N   0  0  0  0  0  0  0  0  0  0  0  0
    1.0570   -0.8670   -0.1340 C   0  0  1  0  0  0  0  0  0  0  0  0
    1.2920   -1.3180   -1.5450 C   0  0  0  0  0  0  0  0  0  0  0  0
    2.0830   -2.9700   -1.4450 S   0  0  0  0  0  0  0  0  0  0  0  0
    0.6100    0.5420   -0.0360 C   0  0  0  0  0  0  0  0  0  0  0  0
    1.2870    1.4170   -0.6340 O   0  0  0  0  0  0  0  0  0  0  0  0
   -0.7810   -1.8780    0.2720 H   0  0  0  0  0  0  0  0  0  0  0  0
    2.0580   -0.9080    0.3830 H   0  0  0  0  0  0  0  0  0  0  0  0
    2.0610   -0.6560   -2.0010 H   0  0  0  0  0  0  0  0  0  0  0  0
    0.4050   -1.3390   -2.1760 H   0  0  0  0  0  0  0  0  0  0  0  0
    3.4060   -2.8610   -1.0100 H   0  0  0  0  0  0  0  0  0  0  0  0
   -0.5340    0.9620    0.6900 N   0  0  0  0  0  0  0  0  0  0  0  0
   -0.9420    2.3580    0.7620 C   0  0  0  0  0  0  0  0  0  0  0  0
    0.1770    3.1170    1.3800 C   0  0  0  0  0  0  0  0  0  0  0  0
    0.1010    4.3520    1.5670 O   0  0  0  0  0  0  0  0  0  0  0  0
    1.3590    2.4950    1.7800 O   0  0  0  0  0  0  0  0  0  0  0  0
   -1.0770    0.2010    1.1780 H   0  0  0  0  0  0  0  0  0  0  0  0
   -1.1600    2.7140   -0.2650 H   0  0  0  0  0  0  0  0  0  0  0  0
   -1.8000    2.4330    1.4430 H   0  0  0  0  0  0  0  0  0  0  0  0
  1  2  1  0  0  0  0
  1  6  1  0  0  0  0
  2  7  1  0  0  0  0
  3  4  2  0  0  0  0
  3  2  1  0  0  0  0
  5  1  1  0  0  0  0
  8  2  1  0  0  0  0
  9  3  1  0  0  0  0
 10 13  1  0  0  0  0
 10 16  1  1  0  0  0
 10  9  1  0  0  0  0
 11 12  1  0  0  0  0
 11 10  1  0  0  0  0
 12 19  1  0  0  0  0
 13 20  1  0  0  0  0
 14 13  2  0  0  0  0
 15  9  1  0  0  0  0
 17 11  1  0  0  0  0
 18 11  1  0  0  0  0
 20 21  1  0  0  0  0
 20 25  1  0  0  0  0
 21 22  1  0  0  0  0
 21 27  1  0  0  0  0
 22 23  2  0  0  0  0
 22 24  1  0  0  0  0
 26 21  1  0  0  0  0
M  END
$$$$
