GCK.pdb
 OpenBabel07022418223D

 41 40  0  0  1  0  0  0  0  0999 V2000
    4.7830   -3.9230    1.0590 N   0  0  0  0  0  0  0  0  0  0  0  0
    3.9260   -2.8450    1.4490 C   0  0  0  0  0  0  0  0  0  0  0  0
    2.5020   -3.1910    1.2200 C   0  0  0  0  0  0  0  0  0  0  0  0
    2.2350   -4.3100    0.7450 O   0  0  0  0  0  0  0  0  0  0  0  0
    5.6010   -4.0540    1.6850 H   0  0  0  0  0  0  0  0  0  0  0  0
    4.2730   -4.8420    1.0050 H   0  0  0  0  0  0  0  0  0  0  0  0
    4.1070   -2.4890    2.4910 H   0  0  0  0  0  0  0  0  0  0  0  0
    4.1640   -1.9620    0.8000 H   0  0  0  0  0  0  0  0  0  0  0  0
    1.4550   -2.2940    1.5250 N   0  0  0  0  0  0  0  0  0  0  0  0
    0.0600   -2.5800    1.3230 C   0  0  1  0  0  0  0  0  0  0  0  0
   -0.7270   -2.5960    2.6130 C   0  0  0  0  0  0  0  0  0  0  0  0
   -2.4590   -2.9660    2.2160 S   0  0  0  0  0  0  0  0  0  0  0  0
   -0.5640   -1.6660    0.3250 C   0  0  0  0  0  0  0  0  0  0  0  0
   -1.7940   -1.8590    0.0940 O   0  0  0  0  0  0  0  0  0  0  0  0
    1.7330   -1.3640    1.9240 H   0  0  0  0  0  0  0  0  0  0  0  0
   -0.0150   -3.6030    0.8980 H   0  0  0  0  0  0  0  0  0  0  0  0
   -0.3440   -3.4300    3.2190 H   0  0  0  0  0  0  0  0  0  0  0  0
   -0.6940   -1.6180    3.1350 H   0  0  0  0  0  0  0  0  0  0  0  0
   -2.5460   -3.9490    1.1900 H   0  0  0  0  0  0  0  0  0  0  0  0
    0.1650   -0.6360   -0.3380 N   0  0  0  0  0  0  0  0  0  0  0  0
   -0.4670    0.2170   -1.2850 C   0  0  1  0  0  0  0  0  0  0  0  0
   -0.2130    1.6720   -1.1680 C   0  0  0  0  0  0  0  0  0  0  0  0
   -0.6010    2.3490    0.0890 C   0  0  0  0  0  0  0  0  0  0  0  0
    0.0660    1.8720    1.3310 C   0  0  0  0  0  0  0  0  0  0  0  0
   -0.4580    2.6890    2.5000 C   0  0  0  0  0  0  0  0  0  0  0  0
   -1.8930    2.5340    2.6350 N   0  0  0  0  0  0  0  0  0  0  0  0
   -0.0090   -0.1680   -2.6670 C   0  0  0  0  0  0  0  0  0  0  0  0
   -0.4300    0.4390   -3.6580 O   0  0  0  0  0  0  0  0  0  0  0  0
    0.8800   -1.2020   -2.7980 O   0  0  0  0  0  0  0  0  0  0  0  0
    1.1730   -0.5500   -0.0850 H   0  0  0  0  0  0  0  0  0  0  0  0
   -1.5770   -0.0130   -1.2680 H   0  0  0  0  0  0  0  0  0  0  0  0
   -0.7840    2.1770   -2.0040 H   0  0  0  0  0  0  0  0  0  0  0  0
    0.8490    1.9450   -1.3840 H   0  0  0  0  0  0  0  0  0  0  0  0
   -1.7150    2.4300    0.2150 H   0  0  0  0  0  0  0  0  0  0  0  0
   -0.2900    3.4320   -0.0290 H   0  0  0  0  0  0  0  0  0  0  0  0
    1.1490    2.0920    1.2550 H   0  0  0  0  0  0  0  0  0  0  0  0
   -0.0460    0.8270    1.5890 H   0  0  0  0  0  0  0  0  0  0  0  0
   -0.2590    3.7650    2.3910 H   0  0  0  0  0  0  0  0  0  0  0  0
   -0.0020    2.2760    3.4200 H   0  0  0  0  0  0  0  0  0  0  0  0
   -2.3640    3.3900    2.9700 H   0  0  0  0  0  0  0  0  0  0  0  0
   -2.1540    1.6730    3.1610 H   0  0  0  0  0  0  0  0  0  0  0  0
  1  2  1  0  0  0  0
  1  5  1  0  0  0  0
  2  7  1  0  0  0  0
  3  2  1  0  0  0  0
  3  9  1  0  0  0  0
  4  3  2  0  0  0  0
  6  1  1  0  0  0  0
  8  2  1  0  0  0  0
  9 15  1  0  0  0  0
 10 16  1  6  0  0  0
 10  9  1  0  0  0  0
 10 11  1  0  0  0  0
 11 18  1  0  0  0  0
 11 17  1  0  0  0  0
 12 11  1  0  0  0  0
 13 10  1  0  0  0  0
 14 13  2  0  0  0  0
 19 12  1  0  0  0  0
 20 30  1  0  0  0  0
 20 13  1  0  0  0  0
 21 31  1  1  0  0  0
 21 22  1  0  0  0  0
 21 20  1  0  0  0  0
 22 23  1  0  0  0  0
 23 34  1  0  0  0  0
 23 24  1  0  0  0  0
 24 37  1  0  0  0  0
 24 25  1  0  0  0  0
 25 26  1  0  0  0  0
 25 39  1  0  0  0  0
 26 40  1  0  0  0  0
 26 41  1  0  0  0  0
 27 21  1  0  0  0  0
 28 27  2  0  0  0  0
 29 27  1  0  0  0  0
 32 22  1  0  0  0  0
 33 22  1  0  0  0  0
 35 23  1  0  0  0  0
 36 24  1  0  0  0  0
 38 25  1  0  0  0  0
M  END
$$$$
