GCN.pdb
 OpenBabel07022418223D

 34 33  0  0  1  0  0  0  0  0999 V2000
   -1.4100   -5.0710    3.5490 N   0  0  0  0  0  0  0  0  0  0  0  0
   -1.7070   -3.6870    3.2630 C   0  0  0  0  0  0  0  0  0  0  0  0
   -1.1560   -3.2810    1.9470 C   0  0  0  0  0  0  0  0  0  0  0  0
   -0.5390   -4.1210    1.2760 O   0  0  0  0  0  0  0  0  0  0  0  0
   -2.1870   -5.6770    3.2140 H   0  0  0  0  0  0  0  0  0  0  0  0
   -1.3340   -5.1530    4.5960 H   0  0  0  0  0  0  0  0  0  0  0  0
   -2.7930   -3.4530    3.3570 H   0  0  0  0  0  0  0  0  0  0  0  0
   -1.1950   -3.0520    4.0380 H   0  0  0  0  0  0  0  0  0  0  0  0
   -1.2920   -1.9800    1.4010 N   0  0  0  0  0  0  0  0  0  0  0  0
   -0.7770   -1.5510    0.1390 C   0  0  1  0  0  0  0  0  0  0  0  0
   -1.8220   -1.0910   -0.8310 C   0  0  0  0  0  0  0  0  0  0  0  0
   -2.7870    0.2960   -0.2460 S   0  0  0  0  0  0  0  0  0  0  0  0
    0.2990   -0.5150    0.3260 C   0  0  0  0  0  0  0  0  0  0  0  0
    0.5630   -0.1850    1.5050 O   0  0  0  0  0  0  0  0  0  0  0  0
   -1.8120   -1.2740    1.9660 H   0  0  0  0  0  0  0  0  0  0  0  0
   -0.2600   -2.4190   -0.3270 H   0  0  0  0  0  0  0  0  0  0  0  0
   -2.4320   -1.9730   -1.1150 H   0  0  0  0  0  0  0  0  0  0  0  0
   -1.2970   -0.7850   -1.7590 H   0  0  0  0  0  0  0  0  0  0  0  0
   -3.6500   -0.0510    0.8040 H   0  0  0  0  0  0  0  0  0  0  0  0
    0.7500    4.0610   -0.2490 N   0  0  0  0  0  0  0  0  0  0  0  0
    0.7010    2.8140    0.4820 C   0  0  0  0  0  0  0  0  0  0  0  0
   -0.3690    2.5570    1.0360 O   0  0  0  0  0  0  0  0  0  0  0  0
    1.9350    2.0160    0.4670 C   0  0  0  0  0  0  0  0  0  0  0  0
    2.0000    1.0580   -0.7220 C   0  0  2  0  0  0  0  0  0  0  0  0
    0.9840    0.0630   -0.7540 N   0  0  0  0  0  0  0  0  0  0  0  0
    3.3570    0.6240   -1.0410 C   0  0  0  0  0  0  0  0  0  0  0  0
    3.5910   -0.5690   -1.3270 O   0  0  0  0  0  0  0  0  0  0  0  0
    4.3920    1.5310   -1.0280 O   0  0  0  0  0  0  0  0  0  0  0  0
    1.1180    4.9070    0.2150 H   0  0  0  0  0  0  0  0  0  0  0  0
    0.4030    4.0310   -1.2250 H   0  0  0  0  0  0  0  0  0  0  0  0
    2.7960    2.7070    0.3240 H   0  0  0  0  0  0  0  0  0  0  0  0
    2.1440    1.5040    1.4290 H   0  0  0  0  0  0  0  0  0  0  0  0
    1.6990    1.8010   -1.5710 H   0  0  0  0  0  0  0  0  0  0  0  0
    0.6750   -0.3170   -1.7100 H   0  0  0  0  0  0  0  0  0  0  0  0
  1  6  1  0  0  0  0
  2  7  1  0  0  0  0
  2  1  1  0  0  0  0
  2  8  1  0  0  0  0
  3  2  1  0  0  0  0
  4  3  2  0  0  0  0
  5  1  1  0  0  0  0
  9  3  1  0  0  0  0
  9 15  1  0  0  0  0
 10 16  1  6  0  0  0
 10 13  1  0  0  0  0
 10  9  1  0  0  0  0
 11 12  1  0  0  0  0
 11 10  1  0  0  0  0
 12 19  1  0  0  0  0
 13 14  2  0  0  0  0
 17 11  1  0  0  0  0
 18 11  1  0  0  0  0
 20 29  1  0  0  0  0
 20 21  1  0  0  0  0
 21 22  2  0  0  0  0
 23 21  1  0  0  0  0
 23 32  1  0  0  0  0
 24 33  1  6  0  0  0
 24 23  1  0  0  0  0
 25 24  1  0  0  0  0
 25 13  1  0  0  0  0
 26 28  1  0  0  0  0
 26 24  1  0  0  0  0
 27 26  2  0  0  0  0
 30 20  1  0  0  0  0
 31 23  1  0  0  0  0
 34 25  1  0  0  0  0
M  END
$$$$
