GCP.pdb
 OpenBabel07022418233D

 34 34  0  0  1  0  0  0  0  0999 V2000
   -2.6110   -2.2460    2.7010 N   0  0  0  0  0  0  0  0  0  0  0  0
   -1.3700   -2.4620    3.4000 C   0  0  0  0  0  0  0  0  0  0  0  0
   -0.1880   -2.3930    2.5430 C   0  0  0  0  0  0  0  0  0  0  0  0
    0.9400   -2.5690    3.0680 O   0  0  0  0  0  0  0  0  0  0  0  0
   -2.7500   -2.8460    1.8870 H   0  0  0  0  0  0  0  0  0  0  0  0
   -2.8430   -1.2600    2.5270 H   0  0  0  0  0  0  0  0  0  0  0  0
   -1.3050   -1.7820    4.2690 H   0  0  0  0  0  0  0  0  0  0  0  0
   -1.4140   -3.4970    3.8310 H   0  0  0  0  0  0  0  0  0  0  0  0
   -0.2680   -2.1340    1.1430 N   0  0  0  0  0  0  0  0  0  0  0  0
    0.8450   -2.0580    0.2740 C   0  0  1  0  0  0  0  0  0  0  0  0
    0.7560   -3.1460   -0.7790 C   0  0  0  0  0  0  0  0  0  0  0  0
    2.1650   -3.0840   -1.9160 S   0  0  0  0  0  0  0  0  0  0  0  0
    1.1760   -0.7490   -0.2980 C   0  0  0  0  0  0  0  0  0  0  0  0
    2.1730   -0.8190   -1.1110 O   0  0  0  0  0  0  0  0  0  0  0  0
   -1.2580   -2.0060    0.7770 H   0  0  0  0  0  0  0  0  0  0  0  0
    1.7480   -2.3310    0.9100 H   0  0  0  0  0  0  0  0  0  0  0  0
    0.7180   -4.1400   -0.2880 H   0  0  0  0  0  0  0  0  0  0  0  0
   -0.1730   -3.0310   -1.3600 H   0  0  0  0  0  0  0  0  0  0  0  0
    3.3530   -2.9710   -1.1820 H   0  0  0  0  0  0  0  0  0  0  0  0
    0.5690    0.4900   -0.0730 N   0  0  0  0  0  0  0  0  0  0  0  0
   -0.5090    0.9710    0.7300 C   0  0  0  0  0  0  0  0  0  0  0  0
   -1.3790    1.6370   -0.3500 C   0  0  0  0  0  0  0  0  0  0  0  0
   -0.2860    2.4790   -1.0230 C   0  0  0  0  0  0  0  0  0  0  0  0
    1.0040    1.7360   -0.7430 C   0  0  1  0  0  0  0  0  0  0  0  0
    1.8750    2.4530    0.2080 C   0  0  0  0  0  0  0  0  0  0  0  0
    2.3650    3.5760   -0.1540 O   0  0  0  0  0  0  0  0  0  0  0  0
    2.2150    2.0230    1.4660 O   0  0  0  0  0  0  0  0  0  0  0  0
   -0.1040    1.8430    1.3120 H   0  0  0  0  0  0  0  0  0  0  0  0
   -1.0590    0.2740    1.3320 H   0  0  0  0  0  0  0  0  0  0  0  0
   -1.7030    0.8260   -1.0120 H   0  0  0  0  0  0  0  0  0  0  0  0
   -2.1690    2.2490    0.0780 H   0  0  0  0  0  0  0  0  0  0  0  0
   -0.5290    2.5310   -2.0960 H   0  0  0  0  0  0  0  0  0  0  0  0
   -0.3170    3.4670   -0.5240 H   0  0  0  0  0  0  0  0  0  0  0  0
    1.5480    1.4970   -1.6770 H   0  0  0  0  0  0  0  0  0  0  0  0
  1  2  1  0  0  0  0
  2  8  1  0  0  0  0
  2  7  1  0  0  0  0
  3  4  2  0  0  0  0
  3  2  1  0  0  0  0
  5  1  1  0  0  0  0
  6  1  1  0  0  0  0
  9  3  1  0  0  0  0
 10 16  1  1  0  0  0
 10  9  1  0  0  0  0
 11 17  1  0  0  0  0
 11 10  1  0  0  0  0
 12 19  1  0  0  0  0
 12 11  1  0  0  0  0
 13 20  1  0  0  0  0
 13 10  1  0  0  0  0
 14 13  2  0  0  0  0
 15  9  1  0  0  0  0
 18 11  1  0  0  0  0
 20 21  1  0  0  0  0
 21 28  1  0  0  0  0
 21 29  1  0  0  0  0
 22 31  1  0  0  0  0
 22 21  1  0  0  0  0
 23 24  1  0  0  0  0
 23 33  1  0  0  0  0
 23 22  1  0  0  0  0
 24 34  1  6  0  0  0
 24 20  1  0  0  0  0
 24 25  1  0  0  0  0
 25 27  1  0  0  0  0
 26 25  2  0  0  0  0
 30 22  1  0  0  0  0
 32 23  1  0  0  0  0
M  END
$$$$
