GCR.pdb
 OpenBabel07022418223D

 43 42  0  0  1  0  0  0  0  0999 V2000
   -1.2080   -5.3950   -2.8710 N   0  0  0  0  0  0  0  0  0  0  0  0
   -1.0520   -5.2360   -1.4530 C   0  0  0  0  0  0  0  0  0  0  0  0
   -1.0950   -3.7830   -1.0600 C   0  0  0  0  0  0  0  0  0  0  0  0
   -1.2470   -2.8790   -1.8990 O   0  0  0  0  0  0  0  0  0  0  0  0
   -1.5390   -4.5030   -3.2840 H   0  0  0  0  0  0  0  0  0  0  0  0
   -1.8550   -6.1750   -3.1190 H   0  0  0  0  0  0  0  0  0  0  0  0
   -1.9620   -5.6970   -0.9820 H   0  0  0  0  0  0  0  0  0  0  0  0
   -0.1430   -5.7260   -1.0990 H   0  0  0  0  0  0  0  0  0  0  0  0
   -0.9610   -3.3970    0.2970 N   0  0  0  0  0  0  0  0  0  0  0  0
   -0.9910   -2.0520    0.7610 C   0  0  1  0  0  0  0  0  0  0  0  0
   -2.1410   -1.7490    1.6850 C   0  0  0  0  0  0  0  0  0  0  0  0
   -3.7430   -2.0330    0.8790 S   0  0  0  0  0  0  0  0  0  0  0  0
    0.2910   -1.7490    1.4340 C   0  0  0  0  0  0  0  0  0  0  0  0
    1.1620   -2.6460    1.5020 O   0  0  0  0  0  0  0  0  0  0  0  0
   -0.8280   -4.1510    1.0350 H   0  0  0  0  0  0  0  0  0  0  0  0
   -1.1380   -1.3910   -0.1410 H   0  0  0  0  0  0  0  0  0  0  0  0
   -2.0700   -2.2760    2.6470 H   0  0  0  0  0  0  0  0  0  0  0  0
   -2.0980   -0.6600    1.9010 H   0  0  0  0  0  0  0  0  0  0  0  0
   -4.6780   -1.1650    1.4700 H   0  0  0  0  0  0  0  0  0  0  0  0
    1.9440    2.6930   -2.3860 N   0  0  0  0  0  0  0  0  0  0  0  0
    1.6160    2.8950   -1.0140 C   0  0  0  0  0  0  0  0  0  0  0  0
    0.3680    2.9410   -0.7070 N   0  0  0  0  0  0  0  0  0  0  0  0
    2.6370    3.0350   -0.0670 N   0  0  0  0  0  0  0  0  0  0  0  0
    2.3160    3.3730    1.3000 C   0  0  0  0  0  0  0  0  0  0  0  0
    1.5960    2.2550    1.9900 C   0  0  0  0  0  0  0  0  0  0  0  0
    2.4920    1.0340    1.9800 C   0  0  0  0  0  0  0  0  0  0  0  0
    1.8120   -0.1470    2.6710 C   0  0  2  0  0  0  0  0  0  0  0  0
    0.5880   -0.4910    2.0090 N   0  0  0  0  0  0  0  0  0  0  0  0
    1.5220    0.2600    4.0680 C   0  0  0  0  0  0  0  0  0  0  0  0
    2.4500    0.6100    4.8540 O   0  0  0  0  0  0  0  0  0  0  0  0
    0.2260    0.2770    4.5790 O   0  0  0  0  0  0  0  0  0  0  0  0
    1.3950    2.0790   -3.0080 H   0  0  0  0  0  0  0  0  0  0  0  0
    2.7750    3.1870   -2.7830 H   0  0  0  0  0  0  0  0  0  0  0  0
   -0.3940    2.8410   -1.3850 H   0  0  0  0  0  0  0  0  0  0  0  0
    3.6310    2.8880   -0.3730 H   0  0  0  0  0  0  0  0  0  0  0  0
    1.7010    4.2960    1.2810 H   0  0  0  0  0  0  0  0  0  0  0  0
    3.2630    3.6250    1.8510 H   0  0  0  0  0  0  0  0  0  0  0  0
    0.6410    2.0720    1.4790 H   0  0  0  0  0  0  0  0  0  0  0  0
    1.4060    2.5890    3.0480 H   0  0  0  0  0  0  0  0  0  0  0  0
    3.4100    1.2290    2.5790 H   0  0  0  0  0  0  0  0  0  0  0  0
    2.8000    0.7870    0.9560 H   0  0  0  0  0  0  0  0  0  0  0  0
    2.5410   -0.9780    2.7110 H   0  0  0  0  0  0  0  0  0  0  0  0
   -0.1480    0.2530    1.9460 H   0  0  0  0  0  0  0  0  0  0  0  0
  1  2  1  0  0  0  0
  2  8  1  0  0  0  0
  2  3  1  0  0  0  0
  2  7  1  0  0  0  0
  3  9  1  0  0  0  0
  4  3  2  0  0  0  0
  5  1  1  0  0  0  0
  6  1  1  0  0  0  0
  9 10  1  0  0  0  0
  9 15  1  0  0  0  0
 10 16  1  6  0  0  0
 10 13  1  0  0  0  0
 10 11  1  0  0  0  0
 11 18  1  0  0  0  0
 11 17  1  0  0  0  0
 12 19  1  0  0  0  0
 12 11  1  0  0  0  0
 13 14  2  0  0  0  0
 13 28  1  0  0  0  0
 20 21  1  0  0  0  0
 21 22  2  0  0  0  0
 21 23  1  0  0  0  0
 23 24  1  0  0  0  0
 24 37  1  0  0  0  0
 24 25  1  0  0  0  0
 25 39  1  0  0  0  0
 26 25  1  0  0  0  0
 26 40  1  0  0  0  0
 26 27  1  0  0  0  0
 27 42  1  1  0  0  0
 27 29  1  0  0  0  0
 28 27  1  0  0  0  0
 29 31  2  0  0  0  0
 29 30  1  0  0  0  0
 32 20  1  0  0  0  0
 33 20  1  0  0  0  0
 34 22  1  0  0  0  0
 35 23  1  0  0  0  0
 36 24  1  0  0  0  0
 38 25  1  0  0  0  0
 41 26  1  0  0  0  0
 43 28  1  0  0  0  0
M  END
$$$$
