GCS.pdb
 OpenBabel07022418233D

 31 30  0  0  1  0  0  0  0  0999 V2000
   -2.3650   -4.4920    0.0060 N   0  0  0  0  0  0  0  0  0  0  0  0
   -1.7630   -4.6210    1.3160 C   0  0  0  0  0  0  0  0  0  0  0  0
   -0.7140   -3.5760    1.5330 C   0  0  0  0  0  0  0  0  0  0  0  0
   -0.0870   -3.5410    2.6210 O   0  0  0  0  0  0  0  0  0  0  0  0
   -2.7800   -3.5570   -0.1360 H   0  0  0  0  0  0  0  0  0  0  0  0
   -3.1300   -5.1990   -0.0420 H   0  0  0  0  0  0  0  0  0  0  0  0
   -1.3640   -5.6420    1.4380 H   0  0  0  0  0  0  0  0  0  0  0  0
   -2.5720   -4.3880    2.0660 H   0  0  0  0  0  0  0  0  0  0  0  0
   -0.3860   -2.6060    0.5550 N   0  0  0  0  0  0  0  0  0  0  0  0
    0.6260   -1.5850    0.7450 C   0  0  1  0  0  0  0  0  0  0  0  0
    1.7670   -1.7710   -0.2530 C   0  0  0  0  0  0  0  0  0  0  0  0
    2.5500   -3.3850   -0.0470 S   0  0  0  0  0  0  0  0  0  0  0  0
   -0.0030   -0.2500    0.5820 C   0  0  0  0  0  0  0  0  0  0  0  0
   -1.2440   -0.1510    0.3170 O   0  0  0  0  0  0  0  0  0  0  0  0
   -0.9070   -2.6360   -0.3480 H   0  0  0  0  0  0  0  0  0  0  0  0
    1.0810   -1.7000    1.7620 H   0  0  0  0  0  0  0  0  0  0  0  0
    1.3680   -1.7370   -1.2960 H   0  0  0  0  0  0  0  0  0  0  0  0
    2.5070   -0.9770   -0.1690 H   0  0  0  0  0  0  0  0  0  0  0  0
    2.9130   -3.5430    1.2940 H   0  0  0  0  0  0  0  0  0  0  0  0
    1.6170    3.0910    2.1820 O   0  0  0  0  0  0  0  0  0  0  0  0
    0.2590    2.9990    1.8850 C   0  0  0  0  0  0  0  0  0  0  0  0
    0.1160    2.2730    0.5480 C   0  0  2  0  0  0  0  0  0  0  0  0
    0.7050    0.9680    0.7030 N   0  0  0  0  0  0  0  0  0  0  0  0
    0.7710    3.0720   -0.5140 C   0  0  0  0  0  0  0  0  0  0  0  0
    1.7280    2.6600   -1.2010 O   0  0  0  0  0  0  0  0  0  0  0  0
    0.2710    4.3490   -0.7380 O   0  0  0  0  0  0  0  0  0  0  0  0
    1.9690    2.2330    2.4850 H   0  0  0  0  0  0  0  0  0  0  0  0
   -0.1960    4.0090    1.8360 H   0  0  0  0  0  0  0  0  0  0  0  0
   -0.2380    2.3660    2.6500 H   0  0  0  0  0  0  0  0  0  0  0  0
   -0.9570    2.2430    0.3230 H   0  0  0  0  0  0  0  0  0  0  0  0
    1.7250    0.9210    0.9190 H   0  0  0  0  0  0  0  0  0  0  0  0
  1  2  1  0  0  0  0
  2  7  1  0  0  0  0
  2  3  1  0  0  0  0
  2  8  1  0  0  0  0
  3  4  2  0  0  0  0
  5  1  1  0  0  0  0
  6  1  1  0  0  0  0
  9 10  1  0  0  0  0
  9  3  1  0  0  0  0
 10 16  1  1  0  0  0
 11 18  1  0  0  0  0
 11 12  1  0  0  0  0
 11 10  1  0  0  0  0
 12 19  1  0  0  0  0
 13 23  1  0  0  0  0
 13 10  1  0  0  0  0
 14 13  2  0  0  0  0
 15  9  1  0  0  0  0
 17 11  1  0  0  0  0
 20 27  1  0  0  0  0
 21 20  1  0  0  0  0
 21 29  1  0  0  0  0
 22 30  1  6  0  0  0
 22 23  1  0  0  0  0
 22 21  1  0  0  0  0
 23 31  1  0  0  0  0
 24 22  1  0  0  0  0
 25 24  2  0  0  0  0
 26 24  1  0  0  0  0
 28 21  1  0  0  0  0
M  END
$$$$
