GCT.pdb
 OpenBabel07022418233D

 34 33  0  0  1  0  0  0  0  0999 V2000
   -1.2550   -1.3940    3.7590 N   0  0  0  0  0  0  0  0  0  0  0  0
   -0.0950   -2.2240    3.7640 C   0  0  0  0  0  0  0  0  0  0  0  0
    0.4400   -2.4940    2.4140 C   0  0  0  0  0  0  0  0  0  0  0  0
    1.4580   -3.2120    2.2890 O   0  0  0  0  0  0  0  0  0  0  0  0
   -1.9940   -1.7140    3.1020 H   0  0  0  0  0  0  0  0  0  0  0  0
   -1.0610   -0.3820    3.7310 H   0  0  0  0  0  0  0  0  0  0  0  0
    0.7110   -1.6580    4.3170 H   0  0  0  0  0  0  0  0  0  0  0  0
   -0.2370   -3.1800    4.3000 H   0  0  0  0  0  0  0  0  0  0  0  0
   -0.1420   -1.9770    1.2170 N   0  0  0  0  0  0  0  0  0  0  0  0
    0.3720   -2.2350   -0.0910 C   0  0  1  0  0  0  0  0  0  0  0  0
   -0.6320   -2.9300   -0.9830 C   0  0  0  0  0  0  0  0  0  0  0  0
   -1.1270   -4.5270   -0.2810 S   0  0  0  0  0  0  0  0  0  0  0  0
    0.7950   -0.9490   -0.6950 C   0  0  0  0  0  0  0  0  0  0  0  0
    1.2870   -0.9260   -1.8610 O   0  0  0  0  0  0  0  0  0  0  0  0
   -0.9890   -1.3820    1.3460 H   0  0  0  0  0  0  0  0  0  0  0  0
    1.2790   -2.8850   -0.0810 H   0  0  0  0  0  0  0  0  0  0  0  0
   -0.2230   -3.0600   -2.0000 H   0  0  0  0  0  0  0  0  0  0  0  0
   -1.5510   -2.2890   -1.0120 H   0  0  0  0  0  0  0  0  0  0  0  0
    0.0500   -5.2210    0.0540 H   0  0  0  0  0  0  0  0  0  0  0  0
   -1.1800    1.5690   -1.4920 C   0  0  0  0  0  0  0  0  0  0  0  0
   -0.2220    2.3910   -0.6440 C   0  0  1  0  0  0  0  0  0  0  0  0
   -0.7710    2.4880    0.6530 O   0  0  0  0  0  0  0  0  0  0  0  0
    1.0410    1.5500   -0.4930 C   0  0  2  0  0  0  0  0  0  0  0  0
    0.6510    0.2620    0.0300 N   0  0  0  0  0  0  0  0  0  0  0  0
    1.9430    2.2810    0.4150 C   0  0  0  0  0  0  0  0  0  0  0  0
    2.3450    3.4170    0.0570 O   0  0  0  0  0  0  0  0  0  0  0  0
    2.3830    1.8050    1.6400 O   0  0  0  0  0  0  0  0  0  0  0  0
   -1.9340    2.2190   -1.9880 H   0  0  0  0  0  0  0  0  0  0  0  0
   -0.6490    0.9890   -2.2710 H   0  0  0  0  0  0  0  0  0  0  0  0
   -1.7460    0.8450   -0.8640 H   0  0  0  0  0  0  0  0  0  0  0  0
   -0.0220    3.3790   -1.0780 H   0  0  0  0  0  0  0  0  0  0  0  0
   -0.0360    2.7940    1.2660 H   0  0  0  0  0  0  0  0  0  0  0  0
    1.4590    1.4540   -1.5210 H   0  0  0  0  0  0  0  0  0  0  0  0
    0.2440    0.2520    0.9990 H   0  0  0  0  0  0  0  0  0  0  0  0
  1  2  1  0  0  0  0
  2  8  1  0  0  0  0
  2  7  1  0  0  0  0
  3  2  1  0  0  0  0
  4  3  2  0  0  0  0
  5  1  1  0  0  0  0
  6  1  1  0  0  0  0
  9 15  1  0  0  0  0
  9  3  1  0  0  0  0
 10 16  1  1  0  0  0
 10  9  1  0  0  0  0
 11 12  1  0  0  0  0
 11 10  1  0  0  0  0
 12 19  1  0  0  0  0
 13 10  1  0  0  0  0
 13 24  1  0  0  0  0
 14 13  2  0  0  0  0
 17 11  1  0  0  0  0
 18 11  1  0  0  0  0
 20 30  1  0  0  0  0
 20 21  1  0  0  0  0
 21 31  1  6  0  0  0
 21 23  1  0  0  0  0
 21 22  1  0  0  0  0
 22 32  1  0  0  0  0
 23 33  1  6  0  0  0
 23 24  1  0  0  0  0
 23 25  1  0  0  0  0
 24 34  1  0  0  0  0
 25 27  1  0  0  0  0
 26 25  2  0  0  0  0
 28 20  1  0  0  0  0
 29 20  1  0  0  0  0
M  END
$$$$
