GCV.pdb
 OpenBabel07022418233D

 36 35  0  0  1  0  0  0  0  0999 V2000
   -2.3860   -2.5400    2.8550 N   0  0  0  0  0  0  0  0  0  0  0  0
   -1.2920   -3.3920    3.2690 C   0  0  0  0  0  0  0  0  0  0  0  0
   -0.2130   -3.4450    2.2500 C   0  0  0  0  0  0  0  0  0  0  0  0
    0.7850   -4.1520    2.4990 O   0  0  0  0  0  0  0  0  0  0  0  0
   -3.0040   -2.9830    2.1410 H   0  0  0  0  0  0  0  0  0  0  0  0
   -2.0830   -1.5850    2.6020 H   0  0  0  0  0  0  0  0  0  0  0  0
   -0.8740   -2.9850    4.1930 H   0  0  0  0  0  0  0  0  0  0  0  0
   -1.6830   -4.4020    3.4550 H   0  0  0  0  0  0  0  0  0  0  0  0
   -0.2640   -2.7440    1.0330 N   0  0  0  0  0  0  0  0  0  0  0  0
    0.8230   -2.8430    0.0910 C   0  0  1  0  0  0  0  0  0  0  0  0
    0.3080   -3.4500   -1.1930 C   0  0  0  0  0  0  0  0  0  0  0  0
   -0.9900   -2.3900   -1.8600 S   0  0  0  0  0  0  0  0  0  0  0  0
    1.3920   -1.4940   -0.1150 C   0  0  0  0  0  0  0  0  0  0  0  0
    2.3460   -1.3110   -0.9080 O   0  0  0  0  0  0  0  0  0  0  0  0
   -1.0770   -2.1480    0.7870 H   0  0  0  0  0  0  0  0  0  0  0  0
    1.5980   -3.5450    0.4770 H   0  0  0  0  0  0  0  0  0  0  0  0
    1.1460   -3.5590   -1.9130 H   0  0  0  0  0  0  0  0  0  0  0  0
   -0.1280   -4.4400   -0.9240 H   0  0  0  0  0  0  0  0  0  0  0  0
   -0.3740   -1.4940   -2.7660 H   0  0  0  0  0  0  0  0  0  0  0  0
    0.8890    3.3130   -0.0240 C   0  0  0  0  0  0  0  0  0  0  0  0
    0.2730    1.9310    0.0430 C   0  0  0  0  0  0  0  0  0  0  0  0
   -0.2870    1.6300   -1.3280 C   0  0  0  0  0  0  0  0  0  0  0  0
    1.3280    0.9640    0.4670 C   0  0  2  0  0  0  0  0  0  0  0  0
    0.8770   -0.3990    0.5680 N   0  0  0  0  0  0  0  0  0  0  0  0
    1.8300    1.3560    1.7880 C   0  0  0  0  0  0  0  0  0  0  0  0
    1.8030    0.5570    2.7370 O   0  0  0  0  0  0  0  0  0  0  0  0
    2.3360    2.6200    1.9740 O   0  0  0  0  0  0  0  0  0  0  0  0
    1.9790    3.2920   -0.2250 H   0  0  0  0  0  0  0  0  0  0  0  0
    0.7270    3.9070    0.8930 H   0  0  0  0  0  0  0  0  0  0  0  0
    0.4590    3.9150   -0.8580 H   0  0  0  0  0  0  0  0  0  0  0  0
   -0.5290    1.9820    0.8140 H   0  0  0  0  0  0  0  0  0  0  0  0
   -0.3870    0.5190   -1.4490 H   0  0  0  0  0  0  0  0  0  0  0  0
    0.3200    2.0770   -2.1380 H   0  0  0  0  0  0  0  0  0  0  0  0
   -1.3230    2.0240   -1.4510 H   0  0  0  0  0  0  0  0  0  0  0  0
    2.1680    0.9710   -0.2650 H   0  0  0  0  0  0  0  0  0  0  0  0
    0.0760   -0.5520    1.2360 H   0  0  0  0  0  0  0  0  0  0  0  0
  1  2  1  0  0  0  0
  2  8  1  0  0  0  0
  2  7  1  0  0  0  0
  3  4  2  0  0  0  0
  3  2  1  0  0  0  0
  5  1  1  0  0  0  0
  6  1  1  0  0  0  0
  9  3  1  0  0  0  0
 10 16  1  1  0  0  0
 10  9  1  0  0  0  0
 11 18  1  0  0  0  0
 11 10  1  0  0  0  0
 12 11  1  0  0  0  0
 13 10  1  0  0  0  0
 13 24  1  0  0  0  0
 14 13  2  0  0  0  0
 15  9  1  0  0  0  0
 17 11  1  0  0  0  0
 19 12  1  0  0  0  0
 20 21  1  0  0  0  0
 20 29  1  0  0  0  0
 21 23  1  0  0  0  0
 21 31  1  0  0  0  0
 22 21  1  0  0  0  0
 23 35  1  6  0  0  0
 23 24  1  0  0  0  0
 23 25  1  0  0  0  0
 24 36  1  0  0  0  0
 25 27  2  0  0  0  0
 25 26  1  0  0  0  0
 28 20  1  0  0  0  0
 30 20  1  0  0  0  0
 32 22  1  0  0  0  0
 33 22  1  0  0  0  0
 34 22  1  0  0  0  0
M  END
$$$$
