GCW.pdb
 OpenBabel07022418233D

 44 45  0  0  1  0  0  0  0  0999 V2000
    2.5770   -6.3510   -0.2900 N   0  0  0  0  0  0  0  0  0  0  0  0
    3.7360   -5.5830    0.0790 C   0  0  0  0  0  0  0  0  0  0  0  0
    3.3800   -4.1400    0.0040 C   0  0  0  0  0  0  0  0  0  0  0  0
    4.2340   -3.2530    0.2820 O   0  0  0  0  0  0  0  0  0  0  0  0
    1.9380   -6.5410    0.5120 H   0  0  0  0  0  0  0  0  0  0  0  0
    2.9190   -7.2580   -0.6940 H   0  0  0  0  0  0  0  0  0  0  0  0
    4.5730   -5.7690   -0.6100 H   0  0  0  0  0  0  0  0  0  0  0  0
    3.9740   -5.8330    1.1380 H   0  0  0  0  0  0  0  0  0  0  0  0
    2.0860   -3.7360   -0.3770 N   0  0  0  0  0  0  0  0  0  0  0  0
    1.6950   -2.3200   -0.4630 C   0  0  1  0  0  0  0  0  0  0  0  0
    1.2460   -2.1600   -1.9210 C   0  0  0  0  0  0  0  0  0  0  0  0
    0.7160   -0.4970   -2.3040 S   0  0  0  0  0  0  0  0  0  0  0  0
    0.5200   -2.1430    0.4080 C   0  0  0  0  0  0  0  0  0  0  0  0
    0.0490   -3.1460    0.9990 O   0  0  0  0  0  0  0  0  0  0  0  0
    1.3200   -4.4150   -0.6230 H   0  0  0  0  0  0  0  0  0  0  0  0
    2.5330   -1.6550   -0.2110 H   0  0  0  0  0  0  0  0  0  0  0  0
    0.4260   -2.8800   -2.0920 H   0  0  0  0  0  0  0  0  0  0  0  0
    2.0900   -2.4910   -2.5560 H   0  0  0  0  0  0  0  0  0  0  0  0
    0.5170   -0.3890   -3.6720 H   0  0  0  0  0  0  0  0  0  0  0  0
   -0.1150   -0.8930    0.6210 N   0  0  0  0  0  0  0  0  0  0  0  0
   -1.2690   -0.6940    1.4710 C   0  0  1  0  0  0  0  0  0  0  0  0
   -0.9600    0.1160    2.6790 C   0  0  0  0  0  0  0  0  0  0  0  0
   -0.4190    1.4540    2.4620 C   0  0  0  0  0  0  0  0  0  0  0  0
    0.9650    1.6980    2.5550 C   0  0  0  0  0  0  0  0  0  0  0  0
    1.1520    2.9930    2.2870 N   0  0  0  0  0  0  0  0  0  0  0  0
   -0.0170    3.6020    2.0270 C   0  0  0  0  0  0  0  0  0  0  0  0
   -0.3410    4.9270    1.7020 C   0  0  0  0  0  0  0  0  0  0  0  0
   -1.6440    5.3100    1.4830 C   0  0  0  0  0  0  0  0  0  0  0  0
   -2.6210    4.3450    1.5940 C   0  0  0  0  0  0  0  0  0  0  0  0
   -2.2940    3.0370    1.9160 C   0  0  0  0  0  0  0  0  0  0  0  0
   -0.9940    2.6470    2.1350 C   0  0  0  0  0  0  0  0  0  0  0  0
   -2.4950   -0.2880    0.8020 C   0  0  0  0  0  0  0  0  0  0  0  0
   -2.6360    0.0230   -0.3970 O   0  0  0  0  0  0  0  0  0  0  0  0
   -3.6580   -0.2440    1.5970 O   0  0  0  0  0  0  0  0  0  0  0  0
    0.2900   -0.0690    0.1300 H   0  0  0  0  0  0  0  0  0  0  0  0
   -1.4890   -1.7440    1.8740 H   0  0  0  0  0  0  0  0  0  0  0  0
   -1.9160    0.2110    3.2820 H   0  0  0  0  0  0  0  0  0  0  0  0
   -0.2800   -0.4560    3.3660 H   0  0  0  0  0  0  0  0  0  0  0  0
    1.7490    0.9940    2.7950 H   0  0  0  0  0  0  0  0  0  0  0  0
    2.0570    3.5190    2.2670 H   0  0  0  0  0  0  0  0  0  0  0  0
    0.4540    5.6660    1.6210 H   0  0  0  0  0  0  0  0  0  0  0  0
   -1.9170    6.3370    1.2280 H   0  0  0  0  0  0  0  0  0  0  0  0
   -3.6580    4.6410    1.4220 H   0  0  0  0  0  0  0  0  0  0  0  0
   -3.0520    2.2880    2.0110 H   0  0  0  0  0  0  0  0  0  0  0  0
  1  2  1  0  0  0  0
  1  5  1  0  0  0  0
  2  8  1  0  0  0  0
  3  2  1  0  0  0  0
  3  4  2  0  0  0  0
  6  1  1  0  0  0  0
  7  2  1  0  0  0  0
  9  3  1  0  0  0  0
 10  9  1  0  0  0  0
 10 16  1  1  0  0  0
 10 13  1  0  0  0  0
 11 10  1  0  0  0  0
 12 11  1  0  0  0  0
 13 20  1  0  0  0  0
 13 14  2  0  0  0  0
 15  9  1  0  0  0  0
 17 11  1  0  0  0  0
 18 11  1  0  0  0  0
 19 12  1  0  0  0  0
 20 21  1  0  0  0  0
 21 36  1  1  0  0  0
 21 22  1  0  0  0  0
 22 37  1  0  0  0  0
 22 38  1  0  0  0  0
 23 24  2  0  0  0  0
 23 22  1  0  0  0  0
 24 39  1  0  0  0  0
 25 24  1  0  0  0  0
 26 31  1  0  0  0  0
 26 25  1  0  0  0  0
 27 26  2  0  0  0  0
 28 29  2  0  0  0  0
 28 27  1  0  0  0  0
 29 30  1  0  0  0  0
 30 44  1  0  0  0  0
 30 31  2  0  0  0  0
 31 23  1  0  0  0  0
 32 21  1  0  0  0  0
 32 34  1  0  0  0  0
 33 32  2  0  0  0  0
 35 20  1  0  0  0  0
 40 25  1  0  0  0  0
 41 27  1  0  0  0  0
 42 28  1  0  0  0  0
 43 29  1  0  0  0  0
M  END
$$$$
