GCY.pdb
 OpenBabel07022418233D

 41 41  0  0  1  0  0  0  0  0999 V2000
    0.4290   -5.4800    1.2740 N   0  0  0  0  0  0  0  0  0  0  0  0
   -0.2710   -5.6750    0.0170 C   0  0  0  0  0  0  0  0  0  0  0  0
   -1.1770   -4.5200   -0.2370 C   0  0  0  0  0  0  0  0  0  0  0  0
   -1.8600   -4.5550   -1.3110 O   0  0  0  0  0  0  0  0  0  0  0  0
    1.2560   -6.0930    1.3640 H   0  0  0  0  0  0  0  0  0  0  0  0
   -0.2230   -5.5200    2.0910 H   0  0  0  0  0  0  0  0  0  0  0  0
   -0.8400   -6.6120    0.0500 H   0  0  0  0  0  0  0  0  0  0  0  0
    0.4830   -5.6960   -0.7890 H   0  0  0  0  0  0  0  0  0  0  0  0
   -1.2830   -3.4370    0.6600 N   0  0  0  0  0  0  0  0  0  0  0  0
   -2.1650   -2.3400    0.3870 C   0  0  1  0  0  0  0  0  0  0  0  0
   -3.2040   -2.1490    1.4750 C   0  0  0  0  0  0  0  0  0  0  0  0
   -4.2290   -3.6170    1.6610 S   0  0  0  0  0  0  0  0  0  0  0  0
   -1.3950   -1.0630    0.2640 C   0  0  0  0  0  0  0  0  0  0  0  0
   -2.0280   -0.0120    0.0260 O   0  0  0  0  0  0  0  0  0  0  0  0
   -0.7160   -3.4370    1.5230 H   0  0  0  0  0  0  0  0  0  0  0  0
   -2.7180   -2.4530   -0.5660 H   0  0  0  0  0  0  0  0  0  0  0  0
   -3.8060   -1.2650    1.1870 H   0  0  0  0  0  0  0  0  0  0  0  0
   -2.7190   -1.9010    2.4540 H   0  0  0  0  0  0  0  0  0  0  0  0
   -5.5250   -3.4160    1.1070 H   0  0  0  0  0  0  0  0  0  0  0  0
    4.1590    5.6200    1.3070 O   0  0  0  0  0  0  0  0  0  0  0  0
    3.5000    4.3960    1.3690 C   0  0  0  0  0  0  0  0  0  0  0  0
    4.1360    3.2050    1.0920 C   0  0  0  0  0  0  0  0  0  0  0  0
    3.4730    1.9970    1.1570 C   0  0  0  0  0  0  0  0  0  0  0  0
    2.1400    1.9060    1.5010 C   0  0  0  0  0  0  0  0  0  0  0  0
    1.4040    0.6230    1.5760 C   0  0  0  0  0  0  0  0  0  0  0  0
    0.7160    0.2720    0.2790 C   0  0  2  0  0  0  0  0  0  0  0  0
    0.0060   -1.0040    0.4080 N   0  0  0  0  0  0  0  0  0  0  0  0
    1.6170    0.2440   -0.8910 C   0  0  0  0  0  0  0  0  0  0  0  0
    1.7130   -0.8090   -1.5840 O   0  0  0  0  0  0  0  0  0  0  0  0
    1.5030    3.1160    1.7810 C   0  0  0  0  0  0  0  0  0  0  0  0
    2.1670    4.3220    1.7160 C   0  0  0  0  0  0  0  0  0  0  0  0
    2.3560    1.3450   -1.2420 O   0  0  0  0  0  0  0  0  0  0  0  0
    3.9980    6.2530    0.5090 H   0  0  0  0  0  0  0  0  0  0  0  0
    5.1970    3.2500    0.8150 H   0  0  0  0  0  0  0  0  0  0  0  0
    3.9910    1.0560    0.9360 H   0  0  0  0  0  0  0  0  0  0  0  0
    2.0600   -0.2110    1.9000 H   0  0  0  0  0  0  0  0  0  0  0  0
    0.5760    0.7810    2.3220 H   0  0  0  0  0  0  0  0  0  0  0  0
   -0.0410    1.0830    0.0650 H   0  0  0  0  0  0  0  0  0  0  0  0
    0.5590   -1.8500    0.6050 H   0  0  0  0  0  0  0  0  0  0  0  0
    0.4500    3.0460    2.0540 H   0  0  0  0  0  0  0  0  0  0  0  0
    1.6280    5.2520    1.9440 H   0  0  0  0  0  0  0  0  0  0  0  0
  1  5  1  0  0  0  0
  1  6  1  0  0  0  0
  2  7  1  0  0  0  0
  2  1  1  0  0  0  0
  3  2  1  0  0  0  0
  3  9  1  0  0  0  0
  4  3  2  0  0  0  0
  8  2  1  0  0  0  0
  9 15  1  0  0  0  0
 10 16  1  6  0  0  0
 10  9  1  0  0  0  0
 10 11  1  0  0  0  0
 11 12  1  0  0  0  0
 11 18  1  0  0  0  0
 13 10  1  0  0  0  0
 13 27  1  0  0  0  0
 14 13  2  0  0  0  0
 17 11  1  0  0  0  0
 19 12  1  0  0  0  0
 20 21  1  0  0  0  0
 21 31  1  0  0  0  0
 22 23  1  0  0  0  0
 22 21  2  0  0  0  0
 23 24  2  0  0  0  0
 24 25  1  0  0  0  0
 24 30  1  0  0  0  0
 25 36  1  0  0  0  0
 25 37  1  0  0  0  0
 26 38  1  6  0  0  0
 26 27  1  0  0  0  0
 26 25  1  0  0  0  0
 27 39  1  0  0  0  0
 28 26  1  0  0  0  0
 29 28  2  0  0  0  0
 30 40  1  0  0  0  0
 31 30  2  0  0  0  0
 31 41  1  0  0  0  0
 32 28  1  0  0  0  0
 33 20  1  0  0  0  0
 34 22  1  0  0  0  0
 35 23  1  0  0  0  0
M  END
$$$$
