GDA.pdb
 OpenBabel07022418223D

 32 31  0  0  1  0  0  0  0  0999 V2000
   -1.1070   -3.9080    3.6040 N   0  0  0  0  0  0  0  0  0  0  0  0
   -0.9910   -2.4940    3.8900 C   0  0  0  0  0  0  0  0  0  0  0  0
   -0.9020   -1.6790    2.6280 C   0  0  0  0  0  0  0  0  0  0  0  0
   -0.7980   -0.4290    2.7200 O   0  0  0  0  0  0  0  0  0  0  0  0
   -0.2190   -4.3290    3.2600 H   0  0  0  0  0  0  0  0  0  0  0  0
   -1.8600   -4.1280    2.9410 H   0  0  0  0  0  0  0  0  0  0  0  0
   -1.9390   -2.1810    4.3820 H   0  0  0  0  0  0  0  0  0  0  0  0
   -0.1560   -2.2860    4.5620 H   0  0  0  0  0  0  0  0  0  0  0  0
   -0.9310   -2.2770    1.3510 N   0  0  0  0  0  0  0  0  0  0  0  0
   -0.8350   -1.4040    0.1360 C   0  0  1  0  0  0  0  0  0  0  0  0
   -2.1060   -0.7610    0.0430 C   0  0  0  0  0  0  0  0  0  0  0  0
   -2.5380    0.1630   -0.9630 C   0  0  0  0  0  0  0  0  0  0  0  0
   -1.9120    0.5390   -1.9810 O   0  0  0  0  0  0  0  0  0  0  0  0
    0.4610   -0.8120    0.1920 C   0  0  0  0  0  0  0  0  0  0  0  0
    1.1890   -1.0960    1.2230 O   0  0  0  0  0  0  0  0  0  0  0  0
   -3.8230    0.7630   -0.8540 O   0  0  0  0  0  0  0  0  0  0  0  0
   -1.0190   -3.3050    1.2850 H   0  0  0  0  0  0  0  0  0  0  0  0
   -0.7480   -2.1940   -0.6830 H   0  0  0  0  0  0  0  0  0  0  0  0
   -2.3740   -0.2510    1.0330 H   0  0  0  0  0  0  0  0  0  0  0  0
   -2.9200   -1.5700    0.0520 H   0  0  0  0  0  0  0  0  0  0  0  0
   -4.0800    1.5430   -1.4070 H   0  0  0  0  0  0  0  0  0  0  0  0
    3.4370    0.2290   -1.5450 C   0  0  0  0  0  0  0  0  0  0  0  0
    2.4660    0.5740   -0.4790 C   0  0  2  0  0  0  0  0  0  0  0  0
    1.1350    0.0520   -0.6830 N   0  0  0  0  0  0  0  0  0  0  0  0
    2.3560    2.0480   -0.3480 C   0  0  0  0  0  0  0  0  0  0  0  0
    3.3680    2.7730   -0.1610 O   0  0  0  0  0  0  0  0  0  0  0  0
    1.1370    2.7230   -0.4220 O   0  0  0  0  0  0  0  0  0  0  0  0
    2.8850    0.0330   -2.4990 H   0  0  0  0  0  0  0  0  0  0  0  0
    4.0810    1.1130   -1.7450 H   0  0  0  0  0  0  0  0  0  0  0  0
    4.1320   -0.5940   -1.2760 H   0  0  0  0  0  0  0  0  0  0  0  0
    2.8440    0.1740    0.4820 H   0  0  0  0  0  0  0  0  0  0  0  0
    0.6500    0.3220   -1.5280 H   0  0  0  0  0  0  0  0  0  0  0  0
  1  2  1  0  0  0  0
  2  7  1  0  0  0  0
  2  8  1  0  0  0  0
  3  4  2  0  0  0  0
  3  2  1  0  0  0  0
  5  1  1  0  0  0  0
  6  1  1  0  0  0  0
  9  3  1  0  0  0  0
 10 18  1  6  0  0  0
 10 14  1  0  0  0  0
 10  9  1  0  0  0  0
 11 20  1  0  0  0  0
 11 10  1  0  0  0  0
 11 19  1  0  0  0  0
 12 16  1  0  0  0  0
 12 11  1  0  0  0  0
 13 12  2  0  0  0  0
 14 15  2  0  0  0  0
 17  9  1  0  0  0  0
 21 16  1  0  0  0  0
 22 30  1  0  0  0  0
 22 23  1  0  0  0  0
 23 25  1  0  0  0  0
 23 31  1  1  0  0  0
 24 23  1  0  0  0  0
 24 14  1  0  0  0  0
 25 26  1  0  0  0  0
 27 25  2  0  0  0  0
 28 22  1  0  0  0  0
 29 22  1  0  0  0  0
 32 24  1  0  0  0  0
M  END
$$$$
