GDC.pdb
 OpenBabel07022418223D

 33 32  0  0  1  0  0  0  0  0999 V2000
    1.2460   -3.1510    4.1460 N   0  0  0  0  0  0  0  0  0  0  0  0
    1.3820   -4.0730    3.0370 C   0  0  0  0  0  0  0  0  0  0  0  0
    0.8040   -3.4450    1.8240 C   0  0  0  0  0  0  0  0  0  0  0  0
    0.8180   -4.0840    0.7280 O   0  0  0  0  0  0  0  0  0  0  0  0
    0.2350   -3.0260    4.3550 H   0  0  0  0  0  0  0  0  0  0  0  0
    1.6940   -3.5120    5.0130 H   0  0  0  0  0  0  0  0  0  0  0  0
    2.4310   -4.3990    2.8950 H   0  0  0  0  0  0  0  0  0  0  0  0
    0.7720   -4.9750    3.3190 H   0  0  0  0  0  0  0  0  0  0  0  0
    0.2390   -2.1310    1.9040 N   0  0  0  0  0  0  0  0  0  0  0  0
   -0.3100   -1.5710    0.6860 C   0  0  1  0  0  0  0  0  0  0  0  0
   -1.7860   -1.3500    0.8480 C   0  0  0  0  0  0  0  0  0  0  0  0
   -2.0760   -0.4200    1.9390 C   0  0  0  0  0  0  0  0  0  0  0  0
   -3.2710   -0.1430    2.2770 O   0  0  0  0  0  0  0  0  0  0  0  0
    0.3280   -0.2570    0.3650 C   0  0  0  0  0  0  0  0  0  0  0  0
    1.2130    0.1840    1.1400 O   0  0  0  0  0  0  0  0  0  0  0  0
   -1.0940    0.2210    2.6780 O   0  0  0  0  0  0  0  0  0  0  0  0
    0.2510   -1.6490    2.8190 H   0  0  0  0  0  0  0  0  0  0  0  0
   -0.1910   -2.2750   -0.1740 H   0  0  0  0  0  0  0  0  0  0  0  0
   -2.2930   -1.1060   -0.1040 H   0  0  0  0  0  0  0  0  0  0  0  0
   -2.2160   -2.3500    1.1530 H   0  0  0  0  0  0  0  0  0  0  0  0
   -1.3280    0.8280    3.4760 H   0  0  0  0  0  0  0  0  0  0  0  0
   -0.0700    0.4600   -0.7920 N   0  0  0  0  0  0  0  0  0  0  0  0
    0.5000    1.7190   -1.1540 C   0  0  1  0  0  0  0  0  0  0  0  0
    1.2240    1.6640   -2.5030 C   0  0  0  0  0  0  0  0  0  0  0  0
    0.0930    1.1910   -3.8300 S   0  0  0  0  0  0  0  0  0  0  0  0
   -0.5280    2.7670   -1.2640 C   0  0  0  0  0  0  0  0  0  0  0  0
   -1.7260    2.4580   -1.0410 O   0  0  0  0  0  0  0  0  0  0  0  0
   -0.2490    4.0790   -1.5990 O   0  0  0  0  0  0  0  0  0  0  0  0
   -0.8070    0.0370   -1.3920 H   0  0  0  0  0  0  0  0  0  0  0  0
    1.2710    2.0490   -0.4270 H   0  0  0  0  0  0  0  0  0  0  0  0
    1.5260    2.7310   -2.7100 H   0  0  0  0  0  0  0  0  0  0  0  0
    2.1310    1.0560   -2.4570 H   0  0  0  0  0  0  0  0  0  0  0  0
    0.6960    0.2320   -4.6510 H   0  0  0  0  0  0  0  0  0  0  0  0
  1  5  1  0  0  0  0
  1  6  1  0  0  0  0
  2  8  1  0  0  0  0
  2  1  1  0  0  0  0
  3  9  1  0  0  0  0
  3  2  1  0  0  0  0
  4  3  2  0  0  0  0
  7  2  1  0  0  0  0
  9 17  1  0  0  0  0
 10 18  1  6  0  0  0
 10 11  1  0  0  0  0
 10  9  1  0  0  0  0
 11 20  1  0  0  0  0
 11 12  1  0  0  0  0
 12 13  2  0  0  0  0
 12 16  1  0  0  0  0
 14 10  1  0  0  0  0
 14 15  2  0  0  0  0
 16 21  1  0  0  0  0
 19 11  1  0  0  0  0
 22 14  1  0  0  0  0
 23 22  1  0  0  0  0
 23 30  1  1  0  0  0
 24 32  1  0  0  0  0
 24 23  1  0  0  0  0
 25 24  1  0  0  0  0
 26 23  1  0  0  0  0
 26 27  1  0  0  0  0
 28 26  2  0  0  0  0
 29 22  1  0  0  0  0
 31 24  1  0  0  0  0
 33 25  1  0  0  0  0
M  END
$$$$
