GDD.pdb
 OpenBabel07022418223D

 35 34  0  0  1  0  0  0  0  0999 V2000
   -2.6860   -3.0570    0.7780 N   0  0  0  0  0  0  0  0  0  0  0  0
   -1.8280   -3.6760    1.7680 C   0  0  0  0  0  0  0  0  0  0  0  0
   -0.4220   -3.1720    1.5910 C   0  0  0  0  0  0  0  0  0  0  0  0
    0.4980   -3.5810    2.3480 O   0  0  0  0  0  0  0  0  0  0  0  0
   -2.5980   -2.0240    0.8990 H   0  0  0  0  0  0  0  0  0  0  0  0
   -2.2770   -3.2870   -0.1540 H   0  0  0  0  0  0  0  0  0  0  0  0
   -2.1650   -3.2840    2.7530 H   0  0  0  0  0  0  0  0  0  0  0  0
   -1.8930   -4.7620    1.7960 H   0  0  0  0  0  0  0  0  0  0  0  0
   -0.0680   -2.2340    0.5870 N   0  0  0  0  0  0  0  0  0  0  0  0
    1.3260   -1.7750    0.4600 C   0  0  1  0  0  0  0  0  0  0  0  0
    1.8490   -2.0870   -0.9030 C   0  0  0  0  0  0  0  0  0  0  0  0
    3.2480   -1.6600   -1.1130 C   0  0  0  0  0  0  0  0  0  0  0  0
    3.5960   -0.5080   -1.4710 O   0  0  0  0  0  0  0  0  0  0  0  0
    1.3250   -0.2980    0.6690 C   0  0  0  0  0  0  0  0  0  0  0  0
    2.3610    0.4130    0.6340 O   0  0  0  0  0  0  0  0  0  0  0  0
    4.3050   -2.5690   -0.9120 O   0  0  0  0  0  0  0  0  0  0  0  0
   -0.8070   -1.8770   -0.0560 H   0  0  0  0  0  0  0  0  0  0  0  0
    1.9660   -2.2880    1.2080 H   0  0  0  0  0  0  0  0  0  0  0  0
    1.8320   -3.1990   -1.0900 H   0  0  0  0  0  0  0  0  0  0  0  0
    1.2300   -1.6020   -1.7020 H   0  0  0  0  0  0  0  0  0  0  0  0
    5.1600   -2.2780   -0.4160 H   0  0  0  0  0  0  0  0  0  0  0  0
    0.1090    0.4270    0.9320 N   0  0  0  0  0  0  0  0  0  0  0  0
    0.1120    1.8600    1.1340 C   0  0  1  0  0  0  0  0  0  0  0  0
   -0.8420    2.5150    0.1630 C   0  0  0  0  0  0  0  0  0  0  0  0
   -0.4840    2.2600   -1.2520 C   0  0  0  0  0  0  0  0  0  0  0  0
   -1.2310    2.7730   -2.1240 O   0  0  0  0  0  0  0  0  0  0  0  0
   -0.3890    2.1590    2.4960 C   0  0  0  0  0  0  0  0  0  0  0  0
   -0.7250    1.2070    3.2380 O   0  0  0  0  0  0  0  0  0  0  0  0
    0.6020    1.5060   -1.6620 O   0  0  0  0  0  0  0  0  0  0  0  0
   -0.4970    3.4530    2.9780 O   0  0  0  0  0  0  0  0  0  0  0  0
   -0.7760   -0.1210    0.9720 H   0  0  0  0  0  0  0  0  0  0  0  0
    1.1460    2.2590    1.0200 H   0  0  0  0  0  0  0  0  0  0  0  0
   -1.8760    2.2280    0.3930 H   0  0  0  0  0  0  0  0  0  0  0  0
   -0.7920    3.6360    0.2940 H   0  0  0  0  0  0  0  0  0  0  0  0
    0.4630    0.8370   -2.4330 H   0  0  0  0  0  0  0  0  0  0  0  0
  1  5  1  0  0  0  0
  1  2  1  0  0  0  0
  2  8  1  0  0  0  0
  2  7  1  0  0  0  0
  3  2  1  0  0  0  0
  3  4  2  0  0  0  0
  6  1  1  0  0  0  0
  9  3  1  0  0  0  0
 10  9  1  0  0  0  0
 10 14  1  0  0  0  0
 10 18  1  1  0  0  0
 11 10  1  0  0  0  0
 12 16  1  0  0  0  0
 12 11  1  0  0  0  0
 13 12  2  0  0  0  0
 14 22  1  0  0  0  0
 15 14  2  0  0  0  0
 16 21  1  0  0  0  0
 17  9  1  0  0  0  0
 19 11  1  0  0  0  0
 20 11  1  0  0  0  0
 22 31  1  0  0  0  0
 22 23  1  0  0  0  0
 23 32  1  6  0  0  0
 23 27  1  0  0  0  0
 24 34  1  0  0  0  0
 24 33  1  0  0  0  0
 24 23  1  0  0  0  0
 25 24  1  0  0  0  0
 26 25  2  0  0  0  0
 27 30  2  0  0  0  0
 27 28  1  0  0  0  0
 29 25  1  0  0  0  0
 35 29  1  0  0  0  0
M  END
$$$$
