GDE.pdb
 OpenBabel07022418223D

 38 37  0  0  1  0  0  0  0  0999 V2000
   -1.4190   -3.7200    2.5800 N   0  0  0  0  0  0  0  0  0  0  0  0
   -0.3110   -4.2630    1.8550 C   0  0  0  0  0  0  0  0  0  0  0  0
    0.0250   -3.4220    0.6720 C   0  0  0  0  0  0  0  0  0  0  0  0
    0.9660   -3.7130   -0.1060 O   0  0  0  0  0  0  0  0  0  0  0  0
   -2.0980   -4.4760    2.8030 H   0  0  0  0  0  0  0  0  0  0  0  0
   -1.0520   -3.2420    3.4410 H   0  0  0  0  0  0  0  0  0  0  0  0
   -0.5940   -5.2680    1.4450 H   0  0  0  0  0  0  0  0  0  0  0  0
    0.5740   -4.4310    2.5020 H   0  0  0  0  0  0  0  0  0  0  0  0
   -0.7530   -2.2630    0.4350 N   0  0  0  0  0  0  0  0  0  0  0  0
   -0.4460   -1.4180   -0.7210 C   0  0  1  0  0  0  0  0  0  0  0  0
   -1.6760   -1.1430   -1.5060 C   0  0  0  0  0  0  0  0  0  0  0  0
   -1.5110   -0.3370   -2.7200 C   0  0  0  0  0  0  0  0  0  0  0  0
   -0.3840    0.0000   -3.1230 O   0  0  0  0  0  0  0  0  0  0  0  0
    0.0600   -0.1420   -0.1230 C   0  0  0  0  0  0  0  0  0  0  0  0
    0.4260    0.7650   -0.8740 O   0  0  0  0  0  0  0  0  0  0  0  0
   -2.5940    0.0960   -3.4880 O   0  0  0  0  0  0  0  0  0  0  0  0
   -1.5460   -1.9640    1.0350 H   0  0  0  0  0  0  0  0  0  0  0  0
    0.3660   -1.8530   -1.3110 H   0  0  0  0  0  0  0  0  0  0  0  0
   -2.0910   -2.1410   -1.8280 H   0  0  0  0  0  0  0  0  0  0  0  0
   -2.4960   -0.7030   -0.8820 H   0  0  0  0  0  0  0  0  0  0  0  0
   -2.4660    0.3510   -4.4630 H   0  0  0  0  0  0  0  0  0  0  0  0
    0.1410    0.0780    1.2660 N   0  0  0  0  0  0  0  0  0  0  0  0
    0.6230    1.2310    1.9480 C   0  0  1  0  0  0  0  0  0  0  0  0
    1.5350    2.1320    1.1500 C   0  0  0  0  0  0  0  0  0  0  0  0
    2.7890    1.4350    0.7940 C   0  0  0  0  0  0  0  0  0  0  0  0
    3.6110    1.1420    2.0150 C   0  0  0  0  0  0  0  0  0  0  0  0
    3.3370    1.6110    3.1340 O   0  0  0  0  0  0  0  0  0  0  0  0
   -0.3530    1.9250    2.7880 C   0  0  0  0  0  0  0  0  0  0  0  0
   -0.0980    2.9540    3.4530 O   0  0  0  0  0  0  0  0  0  0  0  0
    4.7280    0.3170    1.9130 O   0  0  0  0  0  0  0  0  0  0  0  0
   -1.6640    1.4300    2.8740 O   0  0  0  0  0  0  0  0  0  0  0  0
   -0.2000   -0.7130    1.8870 H   0  0  0  0  0  0  0  0  0  0  0  0
    1.3980    0.7750    2.6850 H   0  0  0  0  0  0  0  0  0  0  0  0
    1.8140    2.9590    1.8720 H   0  0  0  0  0  0  0  0  0  0  0  0
    1.0400    2.6590    0.3220 H   0  0  0  0  0  0  0  0  0  0  0  0
    3.4040    2.0170    0.0530 H   0  0  0  0  0  0  0  0  0  0  0  0
    2.6590    0.4300    0.3090 H   0  0  0  0  0  0  0  0  0  0  0  0
    5.3160    0.2130    2.7280 H   0  0  0  0  0  0  0  0  0  0  0  0
  1  5  1  0  0  0  0
  1  6  1  0  0  0  0
  2  8  1  0  0  0  0
  2  1  1  0  0  0  0
  3  2  1  0  0  0  0
  4  3  2  0  0  0  0
  7  2  1  0  0  0  0
  9  3  1  0  0  0  0
  9 17  1  0  0  0  0
 10 18  1  6  0  0  0
 10 14  1  0  0  0  0
 10  9  1  0  0  0  0
 11 20  1  0  0  0  0
 11 10  1  0  0  0  0
 12 11  1  0  0  0  0
 13 12  2  0  0  0  0
 14 22  1  0  0  0  0
 15 14  2  0  0  0  0
 16 12  1  0  0  0  0
 19 11  1  0  0  0  0
 21 16  1  0  0  0  0
 22 32  1  0  0  0  0
 22 23  1  0  0  0  0
 23 33  1  1  0  0  0
 23 28  1  0  0  0  0
 24 34  1  0  0  0  0
 24 23  1  0  0  0  0
 25 24  1  0  0  0  0
 25 26  1  0  0  0  0
 26 27  2  0  0  0  0
 28 31  2  0  0  0  0
 28 29  1  0  0  0  0
 30 26  1  0  0  0  0
 30 38  1  0  0  0  0
 35 24  1  0  0  0  0
 36 25  1  0  0  0  0
 37 25  1  0  0  0  0
M  END
$$$$
