GDF.pdb
 OpenBabel07022418223D

 42 42  0  0  1  0  0  0  0  0999 V2000
    2.7190   -4.0760    2.4970 N   0  0  0  0  0  0  0  0  0  0  0  0
    3.9830   -3.5900    1.9710 C   0  0  0  0  0  0  0  0  0  0  0  0
    3.7710   -2.7570    0.7530 C   0  0  0  0  0  0  0  0  0  0  0  0
    4.7640   -2.2560    0.1660 O   0  0  0  0  0  0  0  0  0  0  0  0
    2.8910   -4.6170    3.3640 H   0  0  0  0  0  0  0  0  0  0  0  0
    2.2250   -4.6920    1.8220 H   0  0  0  0  0  0  0  0  0  0  0  0
    4.5750   -4.4750    1.6890 H   0  0  0  0  0  0  0  0  0  0  0  0
    4.4970   -2.9970    2.7350 H   0  0  0  0  0  0  0  0  0  0  0  0
    2.4740   -2.5100    0.2300 N   0  0  0  0  0  0  0  0  0  0  0  0
    2.3200   -1.6810   -0.9760 C   0  0  1  0  0  0  0  0  0  0  0  0
    1.5950   -2.5370   -1.9830 C   0  0  0  0  0  0  0  0  0  0  0  0
    1.3470   -1.9360   -3.2800 C   0  0  0  0  0  0  0  0  0  0  0  0
    1.7350   -0.8060   -3.6420 O   0  0  0  0  0  0  0  0  0  0  0  0
    1.4560   -0.5010   -0.6320 C   0  0  0  0  0  0  0  0  0  0  0  0
    1.1700    0.3690   -1.4500 O   0  0  0  0  0  0  0  0  0  0  0  0
    0.6080   -2.6560   -4.2430 O   0  0  0  0  0  0  0  0  0  0  0  0
    1.6470   -2.9300    0.7190 H   0  0  0  0  0  0  0  0  0  0  0  0
    3.3210   -1.3890   -1.2990 H   0  0  0  0  0  0  0  0  0  0  0  0
    2.1410   -3.5040   -2.1010 H   0  0  0  0  0  0  0  0  0  0  0  0
    0.5910   -2.8120   -1.5500 H   0  0  0  0  0  0  0  0  0  0  0  0
    0.1580   -2.1420   -4.9970 H   0  0  0  0  0  0  0  0  0  0  0  0
    0.9210   -0.3380    0.6890 N   0  0  0  0  0  0  0  0  0  0  0  0
    0.0810    0.7910    1.0570 C   0  0  1  0  0  0  0  0  0  0  0  0
   -1.2290    0.2110    1.4950 C   0  0  0  0  0  0  0  0  0  0  0  0
   -2.2500    1.1530    1.9190 C   0  0  0  0  0  0  0  0  0  0  0  0
   -2.3540    1.5040    3.2400 C   0  0  0  0  0  0  0  0  0  0  0  0
   -3.2950    2.3850    3.6790 C   0  0  0  0  0  0  0  0  0  0  0  0
   -4.1860    2.9620    2.7960 C   0  0  0  0  0  0  0  0  0  0  0  0
   -4.1050    2.6260    1.4550 C   0  0  0  0  0  0  0  0  0  0  0  0
   -3.1310    1.7200    1.0320 C   0  0  0  0  0  0  0  0  0  0  0  0
    0.6520    1.6050    2.1240 C   0  0  0  0  0  0  0  0  0  0  0  0
    0.0360    2.6310    2.5070 O   0  0  0  0  0  0  0  0  0  0  0  0
    1.8510    1.3350    2.7700 O   0  0  0  0  0  0  0  0  0  0  0  0
    1.1640   -1.0750    1.3840 H   0  0  0  0  0  0  0  0  0  0  0  0
   -0.0470    1.4500    0.1610 H   0  0  0  0  0  0  0  0  0  0  0  0
   -1.6200   -0.5410    0.7420 H   0  0  0  0  0  0  0  0  0  0  0  0
   -0.9790   -0.4500    2.3790 H   0  0  0  0  0  0  0  0  0  0  0  0
   -1.6740    1.0680    3.9560 H   0  0  0  0  0  0  0  0  0  0  0  0
   -3.4010    2.6820    4.7200 H   0  0  0  0  0  0  0  0  0  0  0  0
   -4.9350    3.6650    3.1530 H   0  0  0  0  0  0  0  0  0  0  0  0
   -4.8080    3.0860    0.7880 H   0  0  0  0  0  0  0  0  0  0  0  0
   -3.1000    1.4860   -0.0090 H   0  0  0  0  0  0  0  0  0  0  0  0
  1  5  1  0  0  0  0
  2  1  1  0  0  0  0
  2  8  1  0  0  0  0
  3  2  1  0  0  0  0
  4  3  2  0  0  0  0
  6  1  1  0  0  0  0
  7  2  1  0  0  0  0
  9 17  1  0  0  0  0
  9  3  1  0  0  0  0
 10 18  1  6  0  0  0
 10 14  1  0  0  0  0
 10  9  1  0  0  0  0
 11 20  1  0  0  0  0
 11 10  1  0  0  0  0
 12 11  1  0  0  0  0
 13 12  2  0  0  0  0
 14 22  1  0  0  0  0
 15 14  2  0  0  0  0
 16 12  1  0  0  0  0
 19 11  1  0  0  0  0
 21 16  1  0  0  0  0
 22 23  1  0  0  0  0
 22 34  1  0  0  0  0
 23 35  1  6  0  0  0
 23 24  1  0  0  0  0
 23 31  1  0  0  0  0
 24 25  1  0  0  0  0
 24 37  1  0  0  0  0
 25 26  1  0  0  0  0
 26 27  2  0  0  0  0
 26 38  1  0  0  0  0
 27 39  1  0  0  0  0
 28 40  1  0  0  0  0
 28 27  1  0  0  0  0
 29 28  2  0  0  0  0
 30 29  1  0  0  0  0
 30 25  2  0  0  0  0
 31 32  2  0  0  0  0
 31 33  1  0  0  0  0
 36 24  1  0  0  0  0
 41 29  1  0  0  0  0
 42 30  1  0  0  0  0
M  END
$$$$
