GDG.pdb
 OpenBabel07022418223D

 29 28  0  0  1  0  0  0  0  0999 V2000
   -1.4720   -4.1280    3.1730 N   0  0  0  0  0  0  0  0  0  0  0  0
   -1.4860   -2.8000    2.5980 C   0  0  0  0  0  0  0  0  0  0  0  0
   -0.5610   -2.7570    1.4520 C   0  0  0  0  0  0  0  0  0  0  0  0
    0.0840   -3.7660    1.1160 O   0  0  0  0  0  0  0  0  0  0  0  0
   -2.3790   -4.5830    3.0060 H   0  0  0  0  0  0  0  0  0  0  0  0
   -0.7540   -4.7420    2.6870 H   0  0  0  0  0  0  0  0  0  0  0  0
   -1.1450   -2.0640    3.3730 H   0  0  0  0  0  0  0  0  0  0  0  0
   -2.5140   -2.5650    2.2680 H   0  0  0  0  0  0  0  0  0  0  0  0
   -0.3800   -1.5650    0.6990 N   0  0  0  0  0  0  0  0  0  0  0  0
    0.5040   -1.4730   -0.4180 C   0  0  1  0  0  0  0  0  0  0  0  0
   -0.2090   -1.1880   -1.7110 C   0  0  0  0  0  0  0  0  0  0  0  0
   -0.9400    0.0830   -1.6680 C   0  0  0  0  0  0  0  0  0  0  0  0
   -0.9440    0.8410   -0.6690 O   0  0  0  0  0  0  0  0  0  0  0  0
    1.5040   -0.3970   -0.2120 C   0  0  0  0  0  0  0  0  0  0  0  0
    2.3710   -0.1520   -1.0740 O   0  0  0  0  0  0  0  0  0  0  0  0
   -1.6820    0.5160   -2.7660 O   0  0  0  0  0  0  0  0  0  0  0  0
   -0.9360   -0.7440    1.0120 H   0  0  0  0  0  0  0  0  0  0  0  0
    1.0040   -2.4690   -0.5620 H   0  0  0  0  0  0  0  0  0  0  0  0
    0.5890   -1.1120   -2.5010 H   0  0  0  0  0  0  0  0  0  0  0  0
   -0.8660   -2.0560   -1.9610 H   0  0  0  0  0  0  0  0  0  0  0  0
   -2.6020    0.9650   -2.6530 H   0  0  0  0  0  0  0  0  0  0  0  0
    1.5310    0.4120    0.9740 N   0  0  0  0  0  0  0  0  0  0  0  0
    2.5150    1.4590    1.1590 C   0  0  0  0  0  0  0  0  0  0  0  0
    2.2620    2.0900    2.4740 C   0  0  0  0  0  0  0  0  0  0  0  0
    1.3250    1.6920    3.2040 O   0  0  0  0  0  0  0  0  0  0  0  0
    3.0350    3.1390    2.9640 O   0  0  0  0  0  0  0  0  0  0  0  0
    0.8020    0.1970    1.6860 H   0  0  0  0  0  0  0  0  0  0  0  0
    3.5340    1.0230    1.2010 H   0  0  0  0  0  0  0  0  0  0  0  0
    2.4380    2.1870    0.3240 H   0  0  0  0  0  0  0  0  0  0  0  0
  2  1  1  0  0  0  0
  2  7  1  0  0  0  0
  3  2  1  0  0  0  0
  4  3  2  0  0  0  0
  5  1  1  0  0  0  0
  6  1  1  0  0  0  0
  8  2  1  0  0  0  0
  9 17  1  0  0  0  0
  9  3  1  0  0  0  0
 10 18  1  6  0  0  0
 10 14  1  0  0  0  0
 10  9  1  0  0  0  0
 11 12  1  0  0  0  0
 11 10  1  0  0  0  0
 12 13  2  0  0  0  0
 14 22  1  0  0  0  0
 15 14  2  0  0  0  0
 16 21  1  0  0  0  0
 16 12  1  0  0  0  0
 19 11  1  0  0  0  0
 20 11  1  0  0  0  0
 22 23  1  0  0  0  0
 22 27  1  0  0  0  0
 23 28  1  0  0  0  0
 23 24  1  0  0  0  0
 24 26  2  0  0  0  0
 24 25  1  0  0  0  0
 29 23  1  0  0  0  0
M  END
$$$$
