GDI.pdb
 OpenBabel07022418223D

 41 40  0  0  1  0  0  0  0  0999 V2000
    1.0040   -5.9350    1.7740 N   0  0  0  0  0  0  0  0  0  0  0  0
    1.2440   -4.5670    2.2090 C   0  0  0  0  0  0  0  0  0  0  0  0
    0.0320   -3.7530    1.8650 C   0  0  0  0  0  0  0  0  0  0  0  0
   -0.9660   -4.2890    1.2920 O   0  0  0  0  0  0  0  0  0  0  0  0
    0.8860   -6.5860    2.5940 H   0  0  0  0  0  0  0  0  0  0  0  0
    0.1280   -6.0210    1.2160 H   0  0  0  0  0  0  0  0  0  0  0  0
    1.4180   -4.5800    3.2940 H   0  0  0  0  0  0  0  0  0  0  0  0
    2.0860   -4.1860    1.6120 H   0  0  0  0  0  0  0  0  0  0  0  0
   -0.0640   -2.3750    2.1520 N   0  0  0  0  0  0  0  0  0  0  0  0
   -1.2780   -1.5970    1.7980 C   0  0  1  0  0  0  0  0  0  0  0  0
   -1.8900   -1.0240    3.0250 C   0  0  0  0  0  0  0  0  0  0  0  0
   -3.1220   -0.2690    2.7790 C   0  0  0  0  0  0  0  0  0  0  0  0
   -3.7190   -0.1640    1.6880 O   0  0  0  0  0  0  0  0  0  0  0  0
   -0.9010   -0.6050    0.7580 C   0  0  0  0  0  0  0  0  0  0  0  0
   -1.7200    0.1600    0.2330 O   0  0  0  0  0  0  0  0  0  0  0  0
   -3.7400    0.4280    3.8450 O   0  0  0  0  0  0  0  0  0  0  0  0
    0.7150   -1.8730    2.6180 H   0  0  0  0  0  0  0  0  0  0  0  0
   -1.9670   -2.3200    1.3430 H   0  0  0  0  0  0  0  0  0  0  0  0
   -2.2080   -1.9180    3.6500 H   0  0  0  0  0  0  0  0  0  0  0  0
   -1.1580   -0.4380    3.6420 H   0  0  0  0  0  0  0  0  0  0  0  0
   -4.1660    1.3370    3.7070 H   0  0  0  0  0  0  0  0  0  0  0  0
    1.1110    3.2570   -1.6580 C   0  0  0  0  0  0  0  0  0  0  0  0
    2.2270    2.5530   -0.9540 C   0  0  0  0  0  0  0  0  0  0  0  0
    1.7490    1.4820   -0.0180 C   0  0  2  0  0  0  0  0  0  0  0  0
    2.8970    0.7960    0.6900 C   0  0  0  0  0  0  0  0  0  0  0  0
    0.8550    0.4770   -0.7180 C   0  0  2  0  0  0  0  0  0  0  0  0
    0.4670   -0.4900    0.3050 N   0  0  0  0  0  0  0  0  0  0  0  0
    1.4880   -0.1840   -1.8690 C   0  0  0  0  0  0  0  0  0  0  0  0
    1.6320   -1.4590   -1.8710 O   0  0  0  0  0  0  0  0  0  0  0  0
    1.9680    0.4460   -3.0030 O   0  0  0  0  0  0  0  0  0  0  0  0
    1.2070    4.3820   -1.5410 H   0  0  0  0  0  0  0  0  0  0  0  0
    0.1030    3.0330   -1.3110 H   0  0  0  0  0  0  0  0  0  0  0  0
    1.1600    3.0420   -2.7590 H   0  0  0  0  0  0  0  0  0  0  0  0
    2.7680    3.3090   -0.3170 H   0  0  0  0  0  0  0  0  0  0  0  0
    3.0000    2.1740   -1.6610 H   0  0  0  0  0  0  0  0  0  0  0  0
    1.1310    1.9660    0.7650 H   0  0  0  0  0  0  0  0  0  0  0  0
    2.4940    0.1970    1.5330 H   0  0  0  0  0  0  0  0  0  0  0  0
    3.4860    0.1320    0.0580 H   0  0  0  0  0  0  0  0  0  0  0  0
    3.5810    1.5940    1.0700 H   0  0  0  0  0  0  0  0  0  0  0  0
   -0.0230    1.0360   -1.0820 H   0  0  0  0  0  0  0  0  0  0  0  0
    1.1420   -1.1380    0.7590 H   0  0  0  0  0  0  0  0  0  0  0  0
  1  2  1  0  0  0  0
  1  5  1  0  0  0  0
  2  7  1  0  0  0  0
  3  9  1  0  0  0  0
  3  2  1  0  0  0  0
  4  3  2  0  0  0  0
  6  1  1  0  0  0  0
  8  2  1  0  0  0  0
  9 17  1  0  0  0  0
 10 18  1  6  0  0  0
 10  9  1  0  0  0  0
 10 11  1  0  0  0  0
 11 20  1  0  0  0  0
 11 19  1  0  0  0  0
 12 11  1  0  0  0  0
 12 16  1  0  0  0  0
 13 12  2  0  0  0  0
 14 10  1  0  0  0  0
 15 14  2  0  0  0  0
 21 16  1  0  0  0  0
 22 31  1  0  0  0  0
 22 32  1  0  0  0  0
 22 23  1  0  0  0  0
 23 34  1  0  0  0  0
 23 24  1  0  0  0  0
 24 25  1  0  0  0  0
 24 36  1  1  0  0  0
 25 39  1  0  0  0  0
 25 37  1  0  0  0  0
 26 40  1  6  0  0  0
 26 24  1  0  0  0  0
 26 27  1  0  0  0  0
 27 14  1  0  0  0  0
 27 41  1  0  0  0  0
 28 26  1  0  0  0  0
 29 28  1  0  0  0  0
 30 28  2  0  0  0  0
 33 22  1  0  0  0  0
 35 23  1  0  0  0  0
 38 25  1  0  0  0  0
M  END
$$$$
