GDL.pdb
 OpenBabel07022418223D

 41 40  0  0  1  0  0  0  0  0999 V2000
   -0.8990   -3.7570    3.7020 N   0  0  0  0  0  0  0  0  0  0  0  0
    0.5220   -3.7490    3.8360 C   0  0  0  0  0  0  0  0  0  0  0  0
    1.2360   -3.3630    2.6050 C   0  0  0  0  0  0  0  0  0  0  0  0
    2.4800   -3.3150    2.5680 O   0  0  0  0  0  0  0  0  0  0  0  0
   -1.3910   -3.3750    4.5450 H   0  0  0  0  0  0  0  0  0  0  0  0
   -1.3140   -4.6090    3.3120 H   0  0  0  0  0  0  0  0  0  0  0  0
    0.8130   -3.0870    4.6830 H   0  0  0  0  0  0  0  0  0  0  0  0
    0.8530   -4.8050    4.0610 H   0  0  0  0  0  0  0  0  0  0  0  0
    0.5020   -3.0380    1.4350 N   0  0  0  0  0  0  0  0  0  0  0  0
    1.2310   -2.6640    0.2450 C   0  0  1  0  0  0  0  0  0  0  0  0
    0.9410   -3.5080   -0.9340 C   0  0  0  0  0  0  0  0  0  0  0  0
   -0.4490   -3.5460   -1.3900 C   0  0  0  0  0  0  0  0  0  0  0  0
   -0.9310   -2.8250   -2.2900 O   0  0  0  0  0  0  0  0  0  0  0  0
    0.9110   -1.2430   -0.0510 C   0  0  0  0  0  0  0  0  0  0  0  0
    1.4690   -0.6760   -1.0320 O   0  0  0  0  0  0  0  0  0  0  0  0
   -1.3510   -4.4470   -0.7970 O   0  0  0  0  0  0  0  0  0  0  0  0
   -0.5400   -3.0550    1.3880 H   0  0  0  0  0  0  0  0  0  0  0  0
    2.3290   -2.6850    0.4300 H   0  0  0  0  0  0  0  0  0  0  0  0
    1.5420   -3.0760   -1.7910 H   0  0  0  0  0  0  0  0  0  0  0  0
    1.3210   -4.5500   -0.8560 H   0  0  0  0  0  0  0  0  0  0  0  0
   -2.3370   -4.3440   -0.9430 H   0  0  0  0  0  0  0  0  0  0  0  0
    0.8480    3.6830   -0.4980 C   0  0  0  0  0  0  0  0  0  0  0  0
    0.8220    3.1700    0.9030 C   0  0  0  0  0  0  0  0  0  0  0  0
    2.0600    3.6750    1.6510 C   0  0  0  0  0  0  0  0  0  0  0  0
    0.7990    1.7110    1.0030 C   0  0  0  0  0  0  0  0  0  0  0  0
   -0.3430    0.9170    0.4950 C   0  0  2  0  0  0  0  0  0  0  0  0
   -0.0010   -0.4980    0.7360 N   0  0  0  0  0  0  0  0  0  0  0  0
   -0.8940    1.1510   -0.8190 C   0  0  0  0  0  0  0  0  0  0  0  0
   -1.4780    2.1990   -1.1800 O   0  0  0  0  0  0  0  0  0  0  0  0
   -0.8030    0.1680   -1.8140 O   0  0  0  0  0  0  0  0  0  0  0  0
    1.7710    4.3830   -0.5700 H   0  0  0  0  0  0  0  0  0  0  0  0
   -0.0270    4.2970   -0.7590 H   0  0  0  0  0  0  0  0  0  0  0  0
    1.0220    2.8650   -1.2170 H   0  0  0  0  0  0  0  0  0  0  0  0
   -0.1020    3.5680    1.4510 H   0  0  0  0  0  0  0  0  0  0  0  0
    2.9310    3.4780    1.0180 H   0  0  0  0  0  0  0  0  0  0  0  0
    2.1210    3.2010    2.6490 H   0  0  0  0  0  0  0  0  0  0  0  0
    1.9090    4.7870    1.7680 H   0  0  0  0  0  0  0  0  0  0  0  0
    1.7220    1.3200    0.4460 H   0  0  0  0  0  0  0  0  0  0  0  0
    1.0420    1.3710    2.0710 H   0  0  0  0  0  0  0  0  0  0  0  0
   -1.2090    1.0930    1.2400 H   0  0  0  0  0  0  0  0  0  0  0  0
   -0.4420   -1.0070    1.5300 H   0  0  0  0  0  0  0  0  0  0  0  0
  1  2  1  0  0  0  0
  1  5  1  0  0  0  0
  2  8  1  0  0  0  0
  2  7  1  0  0  0  0
  3  2  1  0  0  0  0
  4  3  2  0  0  0  0
  6  1  1  0  0  0  0
  9  3  1  0  0  0  0
 10 18  1  1  0  0  0
 10  9  1  0  0  0  0
 11 20  1  0  0  0  0
 11 10  1  0  0  0  0
 12 11  1  0  0  0  0
 12 16  1  0  0  0  0
 13 12  2  0  0  0  0
 14 10  1  0  0  0  0
 14 27  1  0  0  0  0
 15 14  2  0  0  0  0
 17  9  1  0  0  0  0
 19 11  1  0  0  0  0
 21 16  1  0  0  0  0
 22 23  1  0  0  0  0
 23 25  1  0  0  0  0
 23 34  1  0  0  0  0
 23 24  1  0  0  0  0
 24 37  1  0  0  0  0
 24 36  1  0  0  0  0
 25 39  1  0  0  0  0
 26 27  1  0  0  0  0
 26 25  1  0  0  0  0
 26 40  1  1  0  0  0
 27 41  1  0  0  0  0
 28 26  1  0  0  0  0
 29 28  1  0  0  0  0
 30 28  2  0  0  0  0
 31 22  1  0  0  0  0
 32 22  1  0  0  0  0
 33 22  1  0  0  0  0
 35 24  1  0  0  0  0
 38 25  1  0  0  0  0
M  END
$$$$
