GDM.pdb
 OpenBabel07022418223D

 39 38  0  0  1  0  0  0  0  0999 V2000
    0.7290   -4.8600    4.0430 N   0  0  0  0  0  0  0  0  0  0  0  0
    1.8640   -4.8790    3.1460 C   0  0  0  0  0  0  0  0  0  0  0  0
    1.6560   -3.9990    1.9840 C   0  0  0  0  0  0  0  0  0  0  0  0
    2.5410   -3.8960    1.1060 O   0  0  0  0  0  0  0  0  0  0  0  0
    0.5960   -3.9580    4.5230 H   0  0  0  0  0  0  0  0  0  0  0  0
   -0.1360   -5.2130    3.6100 H   0  0  0  0  0  0  0  0  0  0  0  0
    2.7370   -4.4510    3.7180 H   0  0  0  0  0  0  0  0  0  0  0  0
    2.0790   -5.9170    2.8660 H   0  0  0  0  0  0  0  0  0  0  0  0
    0.4550   -3.2490    1.8290 N   0  0  0  0  0  0  0  0  0  0  0  0
    0.3260   -2.4050    0.6590 C   0  0  1  0  0  0  0  0  0  0  0  0
   -0.8580   -2.8170   -0.1300 C   0  0  0  0  0  0  0  0  0  0  0  0
   -2.1300   -2.7180    0.5850 C   0  0  0  0  0  0  0  0  0  0  0  0
   -3.2100   -3.1340    0.0810 O   0  0  0  0  0  0  0  0  0  0  0  0
    0.2350   -0.9720    1.0850 C   0  0  0  0  0  0  0  0  0  0  0  0
    0.2820   -0.6830    2.3060 O   0  0  0  0  0  0  0  0  0  0  0  0
   -2.1820   -2.1590    1.8440 O   0  0  0  0  0  0  0  0  0  0  0  0
   -0.3180   -3.2970    2.5340 H   0  0  0  0  0  0  0  0  0  0  0  0
    1.2300   -2.4640    0.0150 H   0  0  0  0  0  0  0  0  0  0  0  0
   -0.8760   -2.2130   -1.0650 H   0  0  0  0  0  0  0  0  0  0  0  0
   -0.7230   -3.8690   -0.4570 H   0  0  0  0  0  0  0  0  0  0  0  0
   -3.0120   -1.7170    2.2190 H   0  0  0  0  0  0  0  0  0  0  0  0
    2.0670    4.4940   -2.3360 C   0  0  0  0  0  0  0  0  0  0  0  0
    2.4650    4.4910   -0.5570 S   0  0  0  0  0  0  0  0  0  0  0  0
    1.0950    3.6910    0.3560 C   0  0  0  0  0  0  0  0  0  0  0  0
    1.0770    2.2590   -0.0560 C   0  0  0  0  0  0  0  0  0  0  0  0
    0.0120    1.4580    0.6140 C   0  0  2  0  0  0  0  0  0  0  0  0
    0.0960    0.0700    0.1410 N   0  0  0  0  0  0  0  0  0  0  0  0
   -1.3160    1.9840    0.2270 C   0  0  0  0  0  0  0  0  0  0  0  0
   -1.7400    3.1330    0.5080 O   0  0  0  0  0  0  0  0  0  0  0  0
   -2.1890    1.1610   -0.5100 O   0  0  0  0  0  0  0  0  0  0  0  0
    2.6340    3.6940   -2.8360 H   0  0  0  0  0  0  0  0  0  0  0  0
    0.9760    4.3230   -2.4420 H   0  0  0  0  0  0  0  0  0  0  0  0
    2.2880    5.4770   -2.7670 H   0  0  0  0  0  0  0  0  0  0  0  0
    0.1920    4.2670    0.1230 H   0  0  0  0  0  0  0  0  0  0  0  0
    1.2870    3.7830    1.4410 H   0  0  0  0  0  0  0  0  0  0  0  0
    2.0660    1.7890    0.1510 H   0  0  0  0  0  0  0  0  0  0  0  0
    0.9380    2.1730   -1.1600 H   0  0  0  0  0  0  0  0  0  0  0  0
    0.0880    1.4980    1.7090 H   0  0  0  0  0  0  0  0  0  0  0  0
    0.0550   -0.1350   -0.8620 H   0  0  0  0  0  0  0  0  0  0  0  0
  1  5  1  0  0  0  0
  2  7  1  0  0  0  0
  2  1  1  0  0  0  0
  3  2  1  0  0  0  0
  4  3  2  0  0  0  0
  6  1  1  0  0  0  0
  8  2  1  0  0  0  0
  9  3  1  0  0  0  0
  9 17  1  0  0  0  0
 10 18  1  6  0  0  0
 10 14  1  0  0  0  0
 10  9  1  0  0  0  0
 11 12  1  0  0  0  0
 11 10  1  0  0  0  0
 12 16  1  0  0  0  0
 13 12  2  0  0  0  0
 14 15  2  0  0  0  0
 16 21  1  0  0  0  0
 19 11  1  0  0  0  0
 20 11  1  0  0  0  0
 22 23  1  0  0  0  0
 23 24  1  0  0  0  0
 24 35  1  0  0  0  0
 25 36  1  0  0  0  0
 25 24  1  0  0  0  0
 25 26  1  0  0  0  0
 26 38  1  1  0  0  0
 27 26  1  0  0  0  0
 27 14  1  0  0  0  0
 28 29  1  0  0  0  0
 28 26  1  0  0  0  0
 30 28  2  0  0  0  0
 31 22  1  0  0  0  0
 32 22  1  0  0  0  0
 33 22  1  0  0  0  0
 34 24  1  0  0  0  0
 37 25  1  0  0  0  0
 39 27  1  0  0  0  0
M  END
$$$$
