GDN.pdb
 OpenBabel07022418223D

 36 35  0  0  1  0  0  0  0  0999 V2000
   -1.4340   -3.8650    1.1720 N   0  0  0  0  0  0  0  0  0  0  0  0
   -0.8920   -3.8740    2.5290 C   0  0  0  0  0  0  0  0  0  0  0  0
    0.3180   -2.9760    2.5640 C   0  0  0  0  0  0  0  0  0  0  0  0
    0.9590   -2.8200    3.6330 O   0  0  0  0  0  0  0  0  0  0  0  0
   -2.0100   -3.0110    1.0010 H   0  0  0  0  0  0  0  0  0  0  0  0
   -1.9020   -4.7480    0.9180 H   0  0  0  0  0  0  0  0  0  0  0  0
   -1.6610   -3.4490    3.1860 H   0  0  0  0  0  0  0  0  0  0  0  0
   -0.6610   -4.8900    2.8710 H   0  0  0  0  0  0  0  0  0  0  0  0
    0.7360   -2.3030    1.3800 N   0  0  0  0  0  0  0  0  0  0  0  0
    1.8990   -1.4390    1.4100 C   0  0  1  0  0  0  0  0  0  0  0  0
    2.9710   -1.9320    0.4540 C   0  0  0  0  0  0  0  0  0  0  0  0
    3.4230   -3.3040    0.8020 C   0  0  0  0  0  0  0  0  0  0  0  0
    4.1540   -3.4370    1.8160 O   0  0  0  0  0  0  0  0  0  0  0  0
    1.5410   -0.0610    1.0160 C   0  0  0  0  0  0  0  0  0  0  0  0
    2.4560    0.8090    1.0000 O   0  0  0  0  0  0  0  0  0  0  0  0
    3.0880   -4.4390    0.0770 O   0  0  0  0  0  0  0  0  0  0  0  0
    0.1730   -2.4640    0.5180 H   0  0  0  0  0  0  0  0  0  0  0  0
    2.3550   -1.3940    2.4180 H   0  0  0  0  0  0  0  0  0  0  0  0
    2.6450   -1.8490   -0.6080 H   0  0  0  0  0  0  0  0  0  0  0  0
    3.8650   -1.2720    0.5520 H   0  0  0  0  0  0  0  0  0  0  0  0
    3.4770   -5.3630    0.2990 H   0  0  0  0  0  0  0  0  0  0  0  0
   -1.6880    3.3660   -2.7740 N   0  0  0  0  0  0  0  0  0  0  0  0
   -0.9900    3.0920   -1.5580 C   0  0  0  0  0  0  0  0  0  0  0  0
   -0.6380    4.0630   -0.8530 O   0  0  0  0  0  0  0  0  0  0  0  0
   -0.6840    1.7200   -1.1260 C   0  0  0  0  0  0  0  0  0  0  0  0
   -0.1030    1.7240    0.2640 C   0  0  2  0  0  0  0  0  0  0  0  0
    0.2440    0.3450    0.6560 N   0  0  0  0  0  0  0  0  0  0  0  0
   -1.1090    2.1470    1.2650 C   0  0  0  0  0  0  0  0  0  0  0  0
   -1.4580    1.3390    2.1610 O   0  0  0  0  0  0  0  0  0  0  0  0
   -1.7120    3.3850    1.2980 O   0  0  0  0  0  0  0  0  0  0  0  0
   -1.6590    4.3310   -3.1610 H   0  0  0  0  0  0  0  0  0  0  0  0
   -2.2120    2.6050   -3.2550 H   0  0  0  0  0  0  0  0  0  0  0  0
   -1.5660    1.0490   -1.2100 H   0  0  0  0  0  0  0  0  0  0  0  0
    0.0780    1.3190   -1.8490 H   0  0  0  0  0  0  0  0  0  0  0  0
    0.7570    2.4030    0.2920 H   0  0  0  0  0  0  0  0  0  0  0  0
   -0.5220   -0.3470    0.6620 H   0  0  0  0  0  0  0  0  0  0  0  0
  1  2  1  0  0  0  0
  2  3  1  0  0  0  0
  2  8  1  0  0  0  0
  2  7  1  0  0  0  0
  3  4  2  0  0  0  0
  5  1  1  0  0  0  0
  6  1  1  0  0  0  0
  9 10  1  0  0  0  0
  9  3  1  0  0  0  0
 10 18  1  1  0  0  0
 11 20  1  0  0  0  0
 11 12  1  0  0  0  0
 11 10  1  0  0  0  0
 12 13  2  0  0  0  0
 14 10  1  0  0  0  0
 15 14  2  0  0  0  0
 16 21  1  0  0  0  0
 16 12  1  0  0  0  0
 17  9  1  0  0  0  0
 19 11  1  0  0  0  0
 22 23  1  0  0  0  0
 23 25  1  0  0  0  0
 23 24  2  0  0  0  0
 25 26  1  0  0  0  0
 26 35  1  1  0  0  0
 26 27  1  0  0  0  0
 26 28  1  0  0  0  0
 27 36  1  0  0  0  0
 27 14  1  0  0  0  0
 28 30  2  0  0  0  0
 28 29  1  0  0  0  0
 31 22  1  0  0  0  0
 32 22  1  0  0  0  0
 33 25  1  0  0  0  0
 34 25  1  0  0  0  0
M  END
$$$$
