GDP.pdb
 OpenBabel07022418223D

 36 36  0  0  1  0  0  0  0  0999 V2000
   -0.3620   -3.1050    2.5750 N   0  0  0  0  0  0  0  0  0  0  0  0
    0.1610   -2.1750    3.5580 C   0  0  0  0  0  0  0  0  0  0  0  0
    0.9640   -1.1440    2.8500 C   0  0  0  0  0  0  0  0  0  0  0  0
    1.5450   -0.2070    3.4290 O   0  0  0  0  0  0  0  0  0  0  0  0
   -0.6000   -4.0300    2.9970 H   0  0  0  0  0  0  0  0  0  0  0  0
   -1.2530   -2.6970    2.2180 H   0  0  0  0  0  0  0  0  0  0  0  0
    0.7920   -2.7460    4.2800 H   0  0  0  0  0  0  0  0  0  0  0  0
   -0.6810   -1.6670    4.0280 H   0  0  0  0  0  0  0  0  0  0  0  0
    1.1230   -1.1660    1.4150 N   0  0  0  0  0  0  0  0  0  0  0  0
    1.8700   -0.2170    0.6950 C   0  0  1  0  0  0  0  0  0  0  0  0
    3.1150   -0.7670    0.0350 C   0  0  0  0  0  0  0  0  0  0  0  0
    3.9960   -1.3240    1.0920 C   0  0  0  0  0  0  0  0  0  0  0  0
    3.7820   -2.4540    1.5400 O   0  0  0  0  0  0  0  0  0  0  0  0
    1.0760    0.6010   -0.2280 C   0  0  0  0  0  0  0  0  0  0  0  0
    1.7840    1.4510   -0.9070 O   0  0  0  0  0  0  0  0  0  0  0  0
    5.0700   -0.6100    1.6040 O   0  0  0  0  0  0  0  0  0  0  0  0
    0.6560   -1.9490    0.9150 H   0  0  0  0  0  0  0  0  0  0  0  0
    2.2850    0.5130    1.4660 H   0  0  0  0  0  0  0  0  0  0  0  0
    3.6550    0.1100   -0.3920 H   0  0  0  0  0  0  0  0  0  0  0  0
    2.9100   -1.4450   -0.7870 H   0  0  0  0  0  0  0  0  0  0  0  0
    5.2900   -0.6380    2.6110 H   0  0  0  0  0  0  0  0  0  0  0  0
   -0.3000    0.5970   -0.4750 N   0  0  0  0  0  0  0  0  0  0  0  0
   -0.9160    1.5020   -1.4720 C   0  0  0  0  0  0  0  0  0  0  0  0
   -2.3990    1.2470   -1.4000 C   0  0  0  0  0  0  0  0  0  0  0  0
   -2.5440    0.7780    0.0310 C   0  0  0  0  0  0  0  0  0  0  0  0
   -1.3380   -0.1860    0.1030 C   0  0  1  0  0  0  0  0  0  0  0  0
   -1.6470   -1.4000   -0.7180 C   0  0  0  0  0  0  0  0  0  0  0  0
   -2.5470   -2.1630   -0.2990 O   0  0  0  0  0  0  0  0  0  0  0  0
   -1.0020   -1.7190   -1.8930 O   0  0  0  0  0  0  0  0  0  0  0  0
   -0.5020    1.2930   -2.4830 H   0  0  0  0  0  0  0  0  0  0  0  0
   -0.7190    2.5440   -1.1460 H   0  0  0  0  0  0  0  0  0  0  0  0
   -2.7110    0.4200   -2.0550 H   0  0  0  0  0  0  0  0  0  0  0  0
   -2.9930    2.1630   -1.6060 H   0  0  0  0  0  0  0  0  0  0  0  0
   -2.3430    1.5890    0.7450 H   0  0  0  0  0  0  0  0  0  0  0  0
   -3.4830    0.2580    0.2350 H   0  0  0  0  0  0  0  0  0  0  0  0
   -1.1950   -0.5260    1.1270 H   0  0  0  0  0  0  0  0  0  0  0  0
  1  5  1  0  0  0  0
  1  2  1  0  0  0  0
  2  8  1  0  0  0  0
  2  7  1  0  0  0  0
  3  4  2  0  0  0  0
  3  2  1  0  0  0  0
  6  1  1  0  0  0  0
  9  3  1  0  0  0  0
 10  9  1  0  0  0  0
 10 18  1  1  0  0  0
 11 10  1  0  0  0  0
 11 12  1  0  0  0  0
 12 13  2  0  0  0  0
 12 16  1  0  0  0  0
 14 10  1  0  0  0  0
 15 14  2  0  0  0  0
 16 21  1  0  0  0  0
 17  9  1  0  0  0  0
 19 11  1  0  0  0  0
 20 11  1  0  0  0  0
 22 14  1  0  0  0  0
 22 26  1  0  0  0  0
 23 24  1  0  0  0  0
 23 31  1  0  0  0  0
 23 22  1  0  0  0  0
 24 25  1  0  0  0  0
 25 26  1  0  0  0  0
 25 35  1  0  0  0  0
 25 34  1  0  0  0  0
 26 36  1  1  0  0  0
 27 28  1  0  0  0  0
 27 26  1  0  0  0  0
 29 27  2  0  0  0  0
 30 23  1  0  0  0  0
 32 24  1  0  0  0  0
 33 24  1  0  0  0  0
M  END
$$$$
