GDR.pdb
 OpenBabel07022418223D

 45 44  0  0  1  0  0  0  0  0999 V2000
   -3.0390   -4.7850    4.3870 N   0  0  0  0  0  0  0  0  0  0  0  0
   -2.1060   -3.7140    4.2370 C   0  0  0  0  0  0  0  0  0  0  0  0
   -2.3590   -3.0100    2.9320 C   0  0  0  0  0  0  0  0  0  0  0  0
   -3.2790   -3.4080    2.1910 O   0  0  0  0  0  0  0  0  0  0  0  0
   -4.0170   -4.4460    4.4960 H   0  0  0  0  0  0  0  0  0  0  0  0
   -2.9720   -5.3910    3.5450 H   0  0  0  0  0  0  0  0  0  0  0  0
   -1.0850   -4.1550    4.2000 H   0  0  0  0  0  0  0  0  0  0  0  0
   -2.1120   -2.9850    5.0670 H   0  0  0  0  0  0  0  0  0  0  0  0
   -1.5840   -1.9060    2.5180 N   0  0  0  0  0  0  0  0  0  0  0  0
   -1.9030   -1.2580    1.1970 C   0  0  1  0  0  0  0  0  0  0  0  0
   -2.1530    0.1780    1.5990 C   0  0  0  0  0  0  0  0  0  0  0  0
   -2.5450    1.0680    0.5300 C   0  0  0  0  0  0  0  0  0  0  0  0
   -2.8320    0.7800   -0.6490 O   0  0  0  0  0  0  0  0  0  0  0  0
   -0.6010   -1.3080    0.4620 C   0  0  0  0  0  0  0  0  0  0  0  0
    0.4440   -1.5510    1.1630 O   0  0  0  0  0  0  0  0  0  0  0  0
   -2.6160    2.4560    0.8530 O   0  0  0  0  0  0  0  0  0  0  0  0
   -0.8200   -1.5610    3.1130 H   0  0  0  0  0  0  0  0  0  0  0  0
   -2.7300   -1.7360    0.7060 H   0  0  0  0  0  0  0  0  0  0  0  0
   -1.1360    0.5390    1.9700 H   0  0  0  0  0  0  0  0  0  0  0  0
   -2.8450    0.2200    2.4870 H   0  0  0  0  0  0  0  0  0  0  0  0
   -3.1520    3.0740    0.2410 H   0  0  0  0  0  0  0  0  0  0  0  0
    3.0870    4.2910    0.9240 N   0  0  0  0  0  0  0  0  0  0  0  0
    3.5740    3.0210    0.4820 C   0  0  0  0  0  0  0  0  0  0  0  0
    4.1680    2.9130   -0.6560 N   0  0  0  0  0  0  0  0  0  0  0  0
    3.3920    1.8790    1.3210 N   0  0  0  0  0  0  0  0  0  0  0  0
    3.3860    0.5650    0.7110 C   0  0  0  0  0  0  0  0  0  0  0  0
    2.1470    0.4130   -0.1450 C   0  0  0  0  0  0  0  0  0  0  0  0
    2.0930   -0.9410   -0.8100 C   0  0  0  0  0  0  0  0  0  0  0  0
    0.8410   -1.1360   -1.6300 C   0  0  2  0  0  0  0  0  0  0  0  0
   -0.3920   -1.1270   -0.8950 N   0  0  0  0  0  0  0  0  0  0  0  0
    0.8910   -2.2730   -2.5280 C   0  0  0  0  0  0  0  0  0  0  0  0
    1.8720   -2.5220   -3.2990 O   0  0  0  0  0  0  0  0  0  0  0  0
   -0.1710   -3.1660   -2.5820 O   0  0  0  0  0  0  0  0  0  0  0  0
    3.3510    4.6610    1.8540 H   0  0  0  0  0  0  0  0  0  0  0  0
    2.4560    4.8600    0.3090 H   0  0  0  0  0  0  0  0  0  0  0  0
    4.5520    2.0530   -1.0640 H   0  0  0  0  0  0  0  0  0  0  0  0
    3.2660    2.0310    2.3560 H   0  0  0  0  0  0  0  0  0  0  0  0
    3.3280   -0.1740    1.5650 H   0  0  0  0  0  0  0  0  0  0  0  0
    4.3040    0.3300    0.1670 H   0  0  0  0  0  0  0  0  0  0  0  0
    1.2160    0.7150    0.3140 H   0  0  0  0  0  0  0  0  0  0  0  0
    2.3100    1.2150   -0.9620 H   0  0  0  0  0  0  0  0  0  0  0  0
    2.9290   -0.9130   -1.5740 H   0  0  0  0  0  0  0  0  0  0  0  0
    2.3500   -1.7690   -0.1520 H   0  0  0  0  0  0  0  0  0  0  0  0
    0.8540   -0.1700   -2.2730 H   0  0  0  0  0  0  0  0  0  0  0  0
   -1.2430   -0.9870   -1.5290 H   0  0  0  0  0  0  0  0  0  0  0  0
  1  5  1  0  0  0  0
  2  1  1  0  0  0  0
  2  8  1  0  0  0  0
  3  2  1  0  0  0  0
  4  3  2  0  0  0  0
  6  1  1  0  0  0  0
  7  2  1  0  0  0  0
  9  3  1  0  0  0  0
  9 17  1  0  0  0  0
 10 18  1  6  0  0  0
 10 11  1  0  0  0  0
 10  9  1  0  0  0  0
 11 19  1  0  0  0  0
 11 20  1  0  0  0  0
 12 16  1  0  0  0  0
 12 11  1  0  0  0  0
 13 12  2  0  0  0  0
 14 15  2  0  0  0  0
 14 10  1  0  0  0  0
 21 16  1  0  0  0  0
 22 34  1  0  0  0  0
 23 22  1  0  0  0  0
 23 25  1  0  0  0  0
 24 23  2  0  0  0  0
 25 37  1  0  0  0  0
 26 25  1  0  0  0  0
 26 38  1  0  0  0  0
 27 40  1  0  0  0  0
 27 26  1  0  0  0  0
 28 43  1  0  0  0  0
 28 27  1  0  0  0  0
 29 44  1  6  0  0  0
 29 30  1  0  0  0  0
 29 28  1  0  0  0  0
 30 14  1  0  0  0  0
 31 29  1  0  0  0  0
 32 31  2  0  0  0  0
 33 31  1  0  0  0  0
 35 22  1  0  0  0  0
 36 24  1  0  0  0  0
 39 26  1  0  0  0  0
 41 27  1  0  0  0  0
 42 28  1  0  0  0  0
 45 30  1  0  0  0  0
M  END
$$$$
