GDS.pdb
 OpenBabel07022418223D

 33 32  0  0  1  0  0  0  0  0999 V2000
    0.7190   -5.5830    2.6760 N   0  0  0  0  0  0  0  0  0  0  0  0
    0.3120   -4.2360    3.0180 C   0  0  0  0  0  0  0  0  0  0  0  0
    0.0570   -3.5090    1.7400 C   0  0  0  0  0  0  0  0  0  0  0  0
    0.1930   -4.0390    0.6080 O   0  0  0  0  0  0  0  0  0  0  0  0
    0.2300   -5.9340    1.8130 H   0  0  0  0  0  0  0  0  0  0  0  0
    0.4920   -6.2680    3.4240 H   0  0  0  0  0  0  0  0  0  0  0  0
   -0.6480   -4.2960    3.5630 H   0  0  0  0  0  0  0  0  0  0  0  0
    1.1180   -3.7570    3.6100 H   0  0  0  0  0  0  0  0  0  0  0  0
   -0.3700   -2.1240    1.7630 N   0  0  0  0  0  0  0  0  0  0  0  0
   -0.6180   -1.4160    0.5230 C   0  0  1  0  0  0  0  0  0  0  0  0
   -2.0350   -0.9110    0.5180 C   0  0  0  0  0  0  0  0  0  0  0  0
   -2.2390    0.0220    1.6470 C   0  0  0  0  0  0  0  0  0  0  0  0
   -1.3550    0.3810    2.4640 O   0  0  0  0  0  0  0  0  0  0  0  0
    0.3590   -0.2710    0.4760 C   0  0  0  0  0  0  0  0  0  0  0  0
    1.1910   -0.0610    1.3950 O   0  0  0  0  0  0  0  0  0  0  0  0
   -3.5080    0.5960    1.8880 O   0  0  0  0  0  0  0  0  0  0  0  0
   -0.4730   -1.7080    2.7100 H   0  0  0  0  0  0  0  0  0  0  0  0
   -0.4210   -2.0890   -0.3530 H   0  0  0  0  0  0  0  0  0  0  0  0
   -2.2530   -0.3550   -0.4200 H   0  0  0  0  0  0  0  0  0  0  0  0
   -2.7000   -1.7940    0.6070 H   0  0  0  0  0  0  0  0  0  0  0  0
   -3.6980    1.1220    2.7340 H   0  0  0  0  0  0  0  0  0  0  0  0
    1.2540    1.7530   -3.0370 O   0  0  0  0  0  0  0  0  0  0  0  0
    2.1350    1.6860   -1.9640 C   0  0  0  0  0  0  0  0  0  0  0  0
    1.3150    1.7430   -0.6940 C   0  0  2  0  0  0  0  0  0  0  0  0
    0.3850    0.6370   -0.6290 N   0  0  0  0  0  0  0  0  0  0  0  0
    0.5410    3.0010   -0.7250 C   0  0  0  0  0  0  0  0  0  0  0  0
   -0.7100    2.9440   -0.6950 O   0  0  0  0  0  0  0  0  0  0  0  0
    1.1290    4.2580   -0.7880 O   0  0  0  0  0  0  0  0  0  0  0  0
    1.7360    2.0690   -3.8480 H   0  0  0  0  0  0  0  0  0  0  0  0
    2.6560    0.7220   -1.9990 H   0  0  0  0  0  0  0  0  0  0  0  0
    2.8500    2.5370   -1.9360 H   0  0  0  0  0  0  0  0  0  0  0  0
    1.9570    1.7520    0.2120 H   0  0  0  0  0  0  0  0  0  0  0  0
   -0.2930    0.4830   -1.4010 H   0  0  0  0  0  0  0  0  0  0  0  0
  1  2  1  0  0  0  0
  1  6  1  0  0  0  0
  2  7  1  0  0  0  0
  2  8  1  0  0  0  0
  3  9  1  0  0  0  0
  3  2  1  0  0  0  0
  4  3  2  0  0  0  0
  5  1  1  0  0  0  0
  9 17  1  0  0  0  0
 10 18  1  6  0  0  0
 10  9  1  0  0  0  0
 11 10  1  0  0  0  0
 11 20  1  0  0  0  0
 11 12  1  0  0  0  0
 12 16  1  0  0  0  0
 12 13  2  0  0  0  0
 14 10  1  0  0  0  0
 14 15  2  0  0  0  0
 16 21  1  0  0  0  0
 19 11  1  0  0  0  0
 22 23  1  0  0  0  0
 23 31  1  0  0  0  0
 23 24  1  0  0  0  0
 24 25  1  0  0  0  0
 24 32  1  1  0  0  0
 25 14  1  0  0  0  0
 26 27  1  0  0  0  0
 26 24  1  0  0  0  0
 28 26  2  0  0  0  0
 29 22  1  0  0  0  0
 30 23  1  0  0  0  0
 33 25  1  0  0  0  0
M  END
$$$$
