GDT.pdb
 OpenBabel07022418223D

 36 35  0  0  1  0  0  0  0  0999 V2000
    1.7040   -5.1820    1.5250 N   0  0  0  0  0  0  0  0  0  0  0  0
    2.0150   -3.7960    1.2530 C   0  0  0  0  0  0  0  0  0  0  0  0
    0.9690   -2.9490    1.8640 C   0  0  0  0  0  0  0  0  0  0  0  0
    0.0300   -3.5010    2.4840 O   0  0  0  0  0  0  0  0  0  0  0  0
    2.1420   -5.4320    2.4570 H   0  0  0  0  0  0  0  0  0  0  0  0
    0.6740   -5.2530    1.6680 H   0  0  0  0  0  0  0  0  0  0  0  0
    2.0240   -3.6110    0.1540 H   0  0  0  0  0  0  0  0  0  0  0  0
    3.0110   -3.5500    1.7040 H   0  0  0  0  0  0  0  0  0  0  0  0
    0.9900   -1.5220    1.7720 N   0  0  0  0  0  0  0  0  0  0  0  0
   -0.0820   -0.7210    2.4020 C   0  0  1  0  0  0  0  0  0  0  0  0
    0.5970    0.1230    3.4220 C   0  0  0  0  0  0  0  0  0  0  0  0
   -0.2380    1.0130    4.2100 C   0  0  0  0  0  0  0  0  0  0  0  0
   -1.4760    1.0520    4.0640 O   0  0  0  0  0  0  0  0  0  0  0  0
   -0.7420   -0.0070    1.3080 C   0  0  0  0  0  0  0  0  0  0  0  0
   -1.7140    0.7630    1.5000 O   0  0  0  0  0  0  0  0  0  0  0  0
    0.3190    1.8550    5.1570 O   0  0  0  0  0  0  0  0  0  0  0  0
    1.7770   -1.0920    1.2540 H   0  0  0  0  0  0  0  0  0  0  0  0
   -0.7810   -1.4140    2.8790 H   0  0  0  0  0  0  0  0  0  0  0  0
    1.4100    0.7320    2.9720 H   0  0  0  0  0  0  0  0  0  0  0  0
    1.1450   -0.5980    4.1000 H   0  0  0  0  0  0  0  0  0  0  0  0
   -0.2520    2.3330    5.8670 H   0  0  0  0  0  0  0  0  0  0  0  0
    1.1280    0.6220   -2.3760 C   0  0  0  0  0  0  0  0  0  0  0  0
    0.0310    1.4810   -1.7820 C   0  0  1  0  0  0  0  0  0  0  0  0
   -0.5860    2.1740   -2.8220 O   0  0  0  0  0  0  0  0  0  0  0  0
   -0.9910    0.5790   -1.1240 C   0  0  2  0  0  0  0  0  0  0  0  0
   -0.3320   -0.1310   -0.0480 N   0  0  0  0  0  0  0  0  0  0  0  0
   -1.4340   -0.4100   -2.1230 C   0  0  0  0  0  0  0  0  0  0  0  0
   -1.2250   -1.6400   -1.9690 O   0  0  0  0  0  0  0  0  0  0  0  0
   -2.1070   -0.0390   -3.2900 O   0  0  0  0  0  0  0  0  0  0  0  0
    1.8160    0.3200   -1.5380 H   0  0  0  0  0  0  0  0  0  0  0  0
    0.7450   -0.2470   -2.9290 H   0  0  0  0  0  0  0  0  0  0  0  0
    1.7600    1.2990   -3.0170 H   0  0  0  0  0  0  0  0  0  0  0  0
    0.5140    2.1720   -1.0550 H   0  0  0  0  0  0  0  0  0  0  0  0
    0.1100    2.7100   -3.2960 H   0  0  0  0  0  0  0  0  0  0  0  0
   -1.8280    1.2080   -0.7320 H   0  0  0  0  0  0  0  0  0  0  0  0
    0.4650   -0.7480   -0.2990 H   0  0  0  0  0  0  0  0  0  0  0  0
  1  6  1  0  0  0  0
  1  5  1  0  0  0  0
  2  1  1  0  0  0  0
  2  8  1  0  0  0  0
  2  3  1  0  0  0  0
  3  4  2  0  0  0  0
  7  2  1  0  0  0  0
  9  3  1  0  0  0  0
  9 10  1  0  0  0  0
 10 18  1  1  0  0  0
 10 11  1  0  0  0  0
 11 20  1  0  0  0  0
 11 12  1  0  0  0  0
 12 16  1  0  0  0  0
 13 12  2  0  0  0  0
 14 15  2  0  0  0  0
 14 10  1  0  0  0  0
 16 21  1  0  0  0  0
 17  9  1  0  0  0  0
 19 11  1  0  0  0  0
 22 23  1  0  0  0  0
 22 30  1  0  0  0  0
 23 25  1  0  0  0  0
 23 33  1  1  0  0  0
 24 23  1  0  0  0  0
 25 35  1  1  0  0  0
 25 26  1  0  0  0  0
 26 14  1  0  0  0  0
 27 28  1  0  0  0  0
 27 25  1  0  0  0  0
 29 27  2  0  0  0  0
 31 22  1  0  0  0  0
 32 22  1  0  0  0  0
 34 24  1  0  0  0  0
 36 26  1  0  0  0  0
M  END
$$$$
