GDV.pdb
 OpenBabel07022418223D

 38 37  0  0  1  0  0  0  0  0999 V2000
    3.9160   -2.2080    0.1800 N   0  0  0  0  0  0  0  0  0  0  0  0
    3.1990   -3.4640    0.1710 C   0  0  0  0  0  0  0  0  0  0  0  0
    1.9070   -3.3840    0.8760 C   0  0  0  0  0  0  0  0  0  0  0  0
    1.2020   -4.4200    0.9290 O   0  0  0  0  0  0  0  0  0  0  0  0
    3.3450   -1.4040   -0.0890 H   0  0  0  0  0  0  0  0  0  0  0  0
    4.4610   -2.0750    1.0600 H   0  0  0  0  0  0  0  0  0  0  0  0
    3.7900   -4.2640    0.6560 H   0  0  0  0  0  0  0  0  0  0  0  0
    3.0110   -3.7740   -0.8800 H   0  0  0  0  0  0  0  0  0  0  0  0
    1.4050   -2.2110    1.5020 N   0  0  0  0  0  0  0  0  0  0  0  0
    0.1410   -2.2000    2.1720 C   0  0  1  0  0  0  0  0  0  0  0  0
    0.2590   -1.8820    3.6430 C   0  0  0  0  0  0  0  0  0  0  0  0
    0.8590   -0.5650    3.8940 C   0  0  0  0  0  0  0  0  0  0  0  0
    1.2370    0.2200    2.9890 O   0  0  0  0  0  0  0  0  0  0  0  0
   -0.8360   -1.2600    1.5770 C   0  0  0  0  0  0  0  0  0  0  0  0
   -1.9710   -1.1780    2.0900 O   0  0  0  0  0  0  0  0  0  0  0  0
    1.0260   -0.1470    5.2060 O   0  0  0  0  0  0  0  0  0  0  0  0
    2.0060   -1.3630    1.4470 H   0  0  0  0  0  0  0  0  0  0  0  0
   -0.3130   -3.2160    2.0970 H   0  0  0  0  0  0  0  0  0  0  0  0
   -0.7850   -1.8520    4.0440 H   0  0  0  0  0  0  0  0  0  0  0  0
    0.7900   -2.7150    4.1530 H   0  0  0  0  0  0  0  0  0  0  0  0
    1.2760    0.8090    5.4370 H   0  0  0  0  0  0  0  0  0  0  0  0
    0.1910    2.2560   -0.6640 C   0  0  0  0  0  0  0  0  0  0  0  0
   -1.1070    1.9120   -0.0100 C   0  0  0  0  0  0  0  0  0  0  0  0
   -2.1840    2.7650   -0.6430 C   0  0  0  0  0  0  0  0  0  0  0  0
   -1.5110    0.4810   -0.1360 C   0  0  2  0  0  0  0  0  0  0  0  0
   -0.5600   -0.4400    0.4510 N   0  0  0  0  0  0  0  0  0  0  0  0
   -1.9090    0.0870   -1.5090 C   0  0  0  0  0  0  0  0  0  0  0  0
   -2.7280    0.7350   -2.2050 O   0  0  0  0  0  0  0  0  0  0  0  0
   -1.3970   -1.0510   -2.1450 O   0  0  0  0  0  0  0  0  0  0  0  0
    0.1770    3.3700   -0.8380 H   0  0  0  0  0  0  0  0  0  0  0  0
    1.0670    2.1020    0.0240 H   0  0  0  0  0  0  0  0  0  0  0  0
    0.3450    1.8010   -1.6450 H   0  0  0  0  0  0  0  0  0  0  0  0
   -1.0370    2.1740    1.0670 H   0  0  0  0  0  0  0  0  0  0  0  0
   -3.1920    2.3200   -0.5720 H   0  0  0  0  0  0  0  0  0  0  0  0
   -2.1630    3.8080   -0.2500 H   0  0  0  0  0  0  0  0  0  0  0  0
   -1.9320    2.8650   -1.7190 H   0  0  0  0  0  0  0  0  0  0  0  0
   -2.4320    0.3790    0.4830 H   0  0  0  0  0  0  0  0  0  0  0  0
    0.4180   -0.5530    0.0590 H   0  0  0  0  0  0  0  0  0  0  0  0
  1  6  1  0  0  0  0
  2  1  1  0  0  0  0
  2  7  1  0  0  0  0
  2  3  1  0  0  0  0
  3  4  2  0  0  0  0
  3  9  1  0  0  0  0
  5  1  1  0  0  0  0
  8  2  1  0  0  0  0
  9 10  1  0  0  0  0
 10 18  1  6  0  0  0
 10 11  1  0  0  0  0
 11 12  1  0  0  0  0
 11 19  1  0  0  0  0
 11 20  1  0  0  0  0
 12 16  1  0  0  0  0
 13 12  2  0  0  0  0
 14 15  2  0  0  0  0
 14 10  1  0  0  0  0
 16 21  1  0  0  0  0
 17  9  1  0  0  0  0
 22 23  1  0  0  0  0
 22 31  1  0  0  0  0
 23 33  1  0  0  0  0
 24 34  1  0  0  0  0
 24 35  1  0  0  0  0
 24 23  1  0  0  0  0
 25 23  1  0  0  0  0
 25 26  1  0  0  0  0
 25 37  1  1  0  0  0
 26 14  1  0  0  0  0
 27 25  1  0  0  0  0
 28 27  2  0  0  0  0
 29 27  1  0  0  0  0
 30 22  1  0  0  0  0
 32 22  1  0  0  0  0
 36 24  1  0  0  0  0
 38 26  1  0  0  0  0
M  END
$$$$
