GDW.pdb
 OpenBabel07022418223D

 46 47  0  0  1  0  0  0  0  0999 V2000
    3.2820   -4.1040    0.8570 N   0  0  0  0  0  0  0  0  0  0  0  0
    4.4870   -3.3010    0.9400 C   0  0  0  0  0  0  0  0  0  0  0  0
    4.2560   -1.8550    0.8790 C   0  0  0  0  0  0  0  0  0  0  0  0
    5.1960   -1.0510    0.9490 O   0  0  0  0  0  0  0  0  0  0  0  0
    2.9270   -4.3620    1.8170 H   0  0  0  0  0  0  0  0  0  0  0  0
    3.4160   -4.9340    0.2350 H   0  0  0  0  0  0  0  0  0  0  0  0
    5.1420   -3.6040    0.0830 H   0  0  0  0  0  0  0  0  0  0  0  0
    5.0740   -3.4950    1.8690 H   0  0  0  0  0  0  0  0  0  0  0  0
    2.9260   -1.2790    0.7330 N   0  0  0  0  0  0  0  0  0  0  0  0
    2.7960    0.1740    0.6900 C   0  0  1  0  0  0  0  0  0  0  0  0
    2.5830    0.4990   -0.7850 C   0  0  0  0  0  0  0  0  0  0  0  0
    2.4320    1.9340   -1.0260 C   0  0  0  0  0  0  0  0  0  0  0  0
    3.4780    2.6240   -1.1820 O   0  0  0  0  0  0  0  0  0  0  0  0
    1.7240    0.7030    1.5280 C   0  0  0  0  0  0  0  0  0  0  0  0
    1.6250    1.9400    1.6850 O   0  0  0  0  0  0  0  0  0  0  0  0
    1.2300    2.6150   -1.1000 O   0  0  0  0  0  0  0  0  0  0  0  0
    2.1390   -1.9500    0.6690 H   0  0  0  0  0  0  0  0  0  0  0  0
    3.7690    0.6180    0.9440 H   0  0  0  0  0  0  0  0  0  0  0  0
    3.4940    0.1450   -1.3120 H   0  0  0  0  0  0  0  0  0  0  0  0
    1.7330   -0.0510   -1.2190 H   0  0  0  0  0  0  0  0  0  0  0  0
    1.2480    3.6110   -0.8310 H   0  0  0  0  0  0  0  0  0  0  0  0
    0.7880   -0.1430    2.1650 N   0  0  0  0  0  0  0  0  0  0  0  0
   -0.2790    0.3510    2.9990 C   0  0  1  0  0  0  0  0  0  0  0  0
   -1.4990    0.7450    2.2040 C   0  0  0  0  0  0  0  0  0  0  0  0
   -2.1150   -0.3050    1.4060 C   0  0  0  0  0  0  0  0  0  0  0  0
   -2.0530   -1.6770    1.4650 C   0  0  0  0  0  0  0  0  0  0  0  0
   -2.8220   -2.1850    0.4890 N   0  0  0  0  0  0  0  0  0  0  0  0
   -3.3890   -1.1950   -0.2110 C   0  0  0  0  0  0  0  0  0  0  0  0
   -4.2370   -1.2010   -1.2820 C   0  0  0  0  0  0  0  0  0  0  0  0
   -4.6940   -0.0340   -1.8450 C   0  0  0  0  0  0  0  0  0  0  0  0
   -4.2760    1.1730   -1.3020 C   0  0  0  0  0  0  0  0  0  0  0  0
   -3.4210    1.1890   -0.2220 C   0  0  0  0  0  0  0  0  0  0  0  0
   -2.9680    0.0120    0.3350 C   0  0  0  0  0  0  0  0  0  0  0  0
   -0.6330   -0.5040    4.1120 C   0  0  0  0  0  0  0  0  0  0  0  0
   -0.0940   -1.5930    4.4380 O   0  0  0  0  0  0  0  0  0  0  0  0
   -1.6960   -0.1050    4.9440 O   0  0  0  0  0  0  0  0  0  0  0  0
    0.8190   -1.1870    2.0630 H   0  0  0  0  0  0  0  0  0  0  0  0
    0.1060    1.3470    3.3950 H   0  0  0  0  0  0  0  0  0  0  0  0
   -2.2590    1.1030    2.9630 H   0  0  0  0  0  0  0  0  0  0  0  0
   -1.2500    1.6720    1.6190 H   0  0  0  0  0  0  0  0  0  0  0  0
   -1.4830   -2.2550    2.1760 H   0  0  0  0  0  0  0  0  0  0  0  0
   -2.9280   -3.2300    0.3440 H   0  0  0  0  0  0  0  0  0  0  0  0
   -4.5770   -2.1470   -1.7180 H   0  0  0  0  0  0  0  0  0  0  0  0
   -5.3620   -0.0720   -2.6880 H   0  0  0  0  0  0  0  0  0  0  0  0
   -4.6270    2.0850   -1.7360 H   0  0  0  0  0  0  0  0  0  0  0  0
   -3.1020    2.1300    0.1940 H   0  0  0  0  0  0  0  0  0  0  0  0
  1  2  1  0  0  0  0
  1  5  1  0  0  0  0
  2  8  1  0  0  0  0
  3  2  1  0  0  0  0
  3  4  2  0  0  0  0
  6  1  1  0  0  0  0
  7  2  1  0  0  0  0
  9  3  1  0  0  0  0
 10  9  1  0  0  0  0
 10 18  1  1  0  0  0
 10 14  1  0  0  0  0
 11 10  1  0  0  0  0
 12 11  1  0  0  0  0
 13 12  2  0  0  0  0
 14 15  2  0  0  0  0
 14 22  1  0  0  0  0
 16 12  1  0  0  0  0
 16 21  1  0  0  0  0
 17  9  1  0  0  0  0
 19 11  1  0  0  0  0
 20 11  1  0  0  0  0
 22 23  1  0  0  0  0
 23 38  1  1  0  0  0
 23 34  1  0  0  0  0
 24 39  1  0  0  0  0
 24 23  1  0  0  0  0
 25 26  2  0  0  0  0
 25 24  1  0  0  0  0
 26 41  1  0  0  0  0
 27 26  1  0  0  0  0
 28 33  1  0  0  0  0
 28 27  1  0  0  0  0
 29 28  2  0  0  0  0
 30 31  2  0  0  0  0
 30 29  1  0  0  0  0
 31 32  1  0  0  0  0
 32 46  1  0  0  0  0
 32 33  2  0  0  0  0
 33 25  1  0  0  0  0
 34 35  2  0  0  0  0
 34 36  1  0  0  0  0
 37 22  1  0  0  0  0
 40 24  1  0  0  0  0
 42 27  1  0  0  0  0
 43 29  1  0  0  0  0
 44 30  1  0  0  0  0
 45 31  1  0  0  0  0
M  END
$$$$
