GEA.pdb
 OpenBabel07022418223D

 35 34  0  0  1  0  0  0  0  0999 V2000
   -1.1060   -4.6210    1.7380 N   0  0  0  0  0  0  0  0  0  0  0  0
    0.2900   -4.7640    2.0140 C   0  0  0  0  0  0  0  0  0  0  0  0
    1.0470   -3.5350    1.5830 C   0  0  0  0  0  0  0  0  0  0  0  0
    2.2770   -3.4580    1.7360 O   0  0  0  0  0  0  0  0  0  0  0  0
   -1.4700   -5.2540    0.9950 H   0  0  0  0  0  0  0  0  0  0  0  0
   -1.7080   -4.6150    2.5920 H   0  0  0  0  0  0  0  0  0  0  0  0
    0.4110   -4.8950    3.1130 H   0  0  0  0  0  0  0  0  0  0  0  0
    0.6850   -5.6560    1.4850 H   0  0  0  0  0  0  0  0  0  0  0  0
    0.3770   -2.4320    0.9910 N   0  0  0  0  0  0  0  0  0  0  0  0
    1.0530   -1.2310    0.5610 C   0  0  1  0  0  0  0  0  0  0  0  0
    0.9040   -1.0140   -0.9510 C   0  0  0  0  0  0  0  0  0  0  0  0
   -0.5430   -0.8850   -1.3330 C   0  0  0  0  0  0  0  0  0  0  0  0
   -0.7290   -0.6730   -2.7850 C   0  0  0  0  0  0  0  0  0  0  0  0
    0.2080   -0.6080   -3.6050 O   0  0  0  0  0  0  0  0  0  0  0  0
    0.4760   -0.0880    1.3040 C   0  0  0  0  0  0  0  0  0  0  0  0
   -0.4310   -0.2790    2.1270 O   0  0  0  0  0  0  0  0  0  0  0  0
   -2.0280   -0.5400   -3.2560 O   0  0  0  0  0  0  0  0  0  0  0  0
   -0.6530   -2.5160    0.8730 H   0  0  0  0  0  0  0  0  0  0  0  0
    2.1540   -1.3470    0.7930 H   0  0  0  0  0  0  0  0  0  0  0  0
    1.5240   -0.1780   -1.2650 H   0  0  0  0  0  0  0  0  0  0  0  0
    1.2910   -1.9440   -1.4320 H   0  0  0  0  0  0  0  0  0  0  0  0
   -0.9350    0.0210   -0.8240 H   0  0  0  0  0  0  0  0  0  0  0  0
   -1.1080   -1.7470   -0.9510 H   0  0  0  0  0  0  0  0  0  0  0  0
   -2.2670   -0.4970   -4.2350 H   0  0  0  0  0  0  0  0  0  0  0  0
    1.5970    3.0810    2.5210 C   0  0  0  0  0  0  0  0  0  0  0  0
    0.4860    2.3880    1.7220 C   0  0  2  0  0  0  0  0  0  0  0  0
    0.9730    1.2200    1.0600 N   0  0  0  0  0  0  0  0  0  0  0  0
   -0.0680    3.4010    0.7950 C   0  0  0  0  0  0  0  0  0  0  0  0
   -0.5180    4.4600    1.3020 O   0  0  0  0  0  0  0  0  0  0  0  0
   -0.1250    3.2670   -0.5700 O   0  0  0  0  0  0  0  0  0  0  0  0
    1.3090    4.1290    2.7360 H   0  0  0  0  0  0  0  0  0  0  0  0
    2.4920    3.0600    1.8420 H   0  0  0  0  0  0  0  0  0  0  0  0
    1.8370    2.5260    3.4450 H   0  0  0  0  0  0  0  0  0  0  0  0
   -0.3240    2.1430    2.4450 H   0  0  0  0  0  0  0  0  0  0  0  0
    1.7350    1.3100    0.3570 H   0  0  0  0  0  0  0  0  0  0  0  0
  1  2  1  0  0  0  0
  1  6  1  0  0  0  0
  2  7  1  0  0  0  0
  3  4  2  0  0  0  0
  3  2  1  0  0  0  0
  5  1  1  0  0  0  0
  8  2  1  0  0  0  0
  9  3  1  0  0  0  0
 10 19  1  1  0  0  0
 10  9  1  0  0  0  0
 10 15  1  0  0  0  0
 11 10  1  0  0  0  0
 12 23  1  0  0  0  0
 12 11  1  0  0  0  0
 12 22  1  0  0  0  0
 13 12  1  0  0  0  0
 14 13  2  0  0  0  0
 15 16  2  0  0  0  0
 17 13  1  0  0  0  0
 18  9  1  0  0  0  0
 20 11  1  0  0  0  0
 21 11  1  0  0  0  0
 24 17  1  0  0  0  0
 25 31  1  0  0  0  0
 25 33  1  0  0  0  0
 26 34  1  1  0  0  0
 26 25  1  0  0  0  0
 27 15  1  0  0  0  0
 27 26  1  0  0  0  0
 28 29  1  0  0  0  0
 28 26  1  0  0  0  0
 30 28  2  0  0  0  0
 32 25  1  0  0  0  0
 35 27  1  0  0  0  0
M  END
$$$$
