GEC.pdb
 OpenBabel07022418223D

 36 35  0  0  1  0  0  0  0  0999 V2000
    2.4140   -2.7380    4.2700 N   0  0  0  0  0  0  0  0  0  0  0  0
    3.3140   -1.6720    3.8770 C   0  0  0  0  0  0  0  0  0  0  0  0
    2.8210   -1.0100    2.6410 C   0  0  0  0  0  0  0  0  0  0  0  0
    3.4100   -0.0590    2.0880 O   0  0  0  0  0  0  0  0  0  0  0  0
    1.5240   -2.3720    4.6250 H   0  0  0  0  0  0  0  0  0  0  0  0
    2.8460   -3.3390    4.9930 H   0  0  0  0  0  0  0  0  0  0  0  0
    4.3110   -2.1330    3.7110 H   0  0  0  0  0  0  0  0  0  0  0  0
    3.3590   -0.9490    4.7270 H   0  0  0  0  0  0  0  0  0  0  0  0
    1.6190   -1.4690    2.0430 N   0  0  0  0  0  0  0  0  0  0  0  0
    1.0780   -0.8590    0.8230 C   0  0  1  0  0  0  0  0  0  0  0  0
    1.1390   -1.8870   -0.2700 C   0  0  0  0  0  0  0  0  0  0  0  0
    0.6200   -1.4800   -1.5900 C   0  0  0  0  0  0  0  0  0  0  0  0
    0.7750   -2.5730   -2.6140 C   0  0  0  0  0  0  0  0  0  0  0  0
    1.2980   -3.6400   -2.2370 O   0  0  0  0  0  0  0  0  0  0  0  0
   -0.2270   -0.2490    1.0620 C   0  0  0  0  0  0  0  0  0  0  0  0
   -0.8440   -0.4590    2.1660 O   0  0  0  0  0  0  0  0  0  0  0  0
    0.3680   -2.4440   -3.9260 O   0  0  0  0  0  0  0  0  0  0  0  0
    1.1200   -2.2680    2.5030 H   0  0  0  0  0  0  0  0  0  0  0  0
    1.7870   -0.0500    0.5490 H   0  0  0  0  0  0  0  0  0  0  0  0
    2.2260   -2.1560   -0.3950 H   0  0  0  0  0  0  0  0  0  0  0  0
    0.6610   -2.8310    0.0700 H   0  0  0  0  0  0  0  0  0  0  0  0
    1.0960   -0.5900   -1.9700 H   0  0  0  0  0  0  0  0  0  0  0  0
   -0.5020   -1.3100   -1.5270 H   0  0  0  0  0  0  0  0  0  0  0  0
    0.8080   -2.9710   -4.6930 H   0  0  0  0  0  0  0  0  0  0  0  0
   -0.9160    0.5980    0.1560 N   0  0  0  0  0  0  0  0  0  0  0  0
   -2.2240    1.1620    0.4750 C   0  0  1  0  0  0  0  0  0  0  0  0
   -2.0330    2.6690    0.5020 C   0  0  0  0  0  0  0  0  0  0  0  0
   -0.8050    3.0330    1.7760 S   0  0  0  0  0  0  0  0  0  0  0  0
   -3.2470    0.7920   -0.5170 C   0  0  0  0  0  0  0  0  0  0  0  0
   -4.4140    1.2230   -0.3420 O   0  0  0  0  0  0  0  0  0  0  0  0
   -2.9130    0.0040   -1.5860 O   0  0  0  0  0  0  0  0  0  0  0  0
   -0.4790    0.8470   -0.7590 H   0  0  0  0  0  0  0  0  0  0  0  0
   -2.5110    0.8050    1.4720 H   0  0  0  0  0  0  0  0  0  0  0  0
   -2.9980    3.1070    0.8070 H   0  0  0  0  0  0  0  0  0  0  0  0
   -1.7240    2.9860   -0.4990 H   0  0  0  0  0  0  0  0  0  0  0  0
    0.4380    2.5900    1.3360 H   0  0  0  0  0  0  0  0  0  0  0  0
  1  5  1  0  0  0  0
  1  6  1  0  0  0  0
  2  1  1  0  0  0  0
  2  8  1  0  0  0  0
  3  2  1  0  0  0  0
  4  3  2  0  0  0  0
  7  2  1  0  0  0  0
  9 18  1  0  0  0  0
  9  3  1  0  0  0  0
 10 19  1  6  0  0  0
 10 15  1  0  0  0  0
 10  9  1  0  0  0  0
 11 21  1  0  0  0  0
 11 10  1  0  0  0  0
 12 23  1  0  0  0  0
 12 11  1  0  0  0  0
 13 14  2  0  0  0  0
 13 12  1  0  0  0  0
 15 16  2  0  0  0  0
 17 13  1  0  0  0  0
 20 11  1  0  0  0  0
 22 12  1  0  0  0  0
 24 17  1  0  0  0  0
 25 26  1  0  0  0  0
 25 15  1  0  0  0  0
 26 27  1  0  0  0  0
 26 33  1  1  0  0  0
 27 34  1  0  0  0  0
 27 28  1  0  0  0  0
 29 30  1  0  0  0  0
 29 26  1  0  0  0  0
 31 29  2  0  0  0  0
 32 25  1  0  0  0  0
 35 27  1  0  0  0  0
 36 28  1  0  0  0  0
M  END
$$$$
