GED.pdb
 OpenBabel07022418223D

 38 37  0  0  1  0  0  0  0  0999 V2000
    0.6210   -4.9710   -1.2310 N   0  0  0  0  0  0  0  0  0  0  0  0
   -0.5830   -4.6930   -0.4900 C   0  0  0  0  0  0  0  0  0  0  0  0
   -0.6910   -3.2320   -0.1560 C   0  0  0  0  0  0  0  0  0  0  0  0
   -1.6520   -2.7850    0.4780 O   0  0  0  0  0  0  0  0  0  0  0  0
    0.5140   -5.7250   -1.9350 H   0  0  0  0  0  0  0  0  0  0  0  0
    1.3720   -5.3090   -0.5590 H   0  0  0  0  0  0  0  0  0  0  0  0
   -0.5550   -5.2900    0.4430 H   0  0  0  0  0  0  0  0  0  0  0  0
   -1.4550   -4.9800   -1.0980 H   0  0  0  0  0  0  0  0  0  0  0  0
    0.3070   -2.3250   -0.5580 N   0  0  0  0  0  0  0  0  0  0  0  0
    0.4050   -0.9410   -0.3430 C   0  0  1  0  0  0  0  0  0  0  0  0
   -0.3400   -0.0250   -1.2060 C   0  0  0  0  0  0  0  0  0  0  0  0
    0.0870   -0.1990   -2.6650 C   0  0  0  0  0  0  0  0  0  0  0  0
    1.5350    0.0810   -2.8340 C   0  0  0  0  0  0  0  0  0  0  0  0
    2.4430   -0.7410   -2.5480 O   0  0  0  0  0  0  0  0  0  0  0  0
    0.1600   -0.6750    1.1280 C   0  0  0  0  0  0  0  0  0  0  0  0
   -0.0070   -1.6040    1.9530 O   0  0  0  0  0  0  0  0  0  0  0  0
    1.9850    1.3150   -3.3370 O   0  0  0  0  0  0  0  0  0  0  0  0
    1.1050   -2.7780   -1.1160 H   0  0  0  0  0  0  0  0  0  0  0  0
    1.5150   -0.6570   -0.4090 H   0  0  0  0  0  0  0  0  0  0  0  0
    0.0080    1.0230   -0.9610 H   0  0  0  0  0  0  0  0  0  0  0  0
   -1.4210    0.0030   -1.0940 H   0  0  0  0  0  0  0  0  0  0  0  0
   -0.4760    0.4900   -3.3310 H   0  0  0  0  0  0  0  0  0  0  0  0
   -0.1760   -1.2300   -3.0240 H   0  0  0  0  0  0  0  0  0  0  0  0
    2.7610    1.8060   -2.8880 H   0  0  0  0  0  0  0  0  0  0  0  0
    0.1050    0.6390    1.6550 N   0  0  0  0  0  0  0  0  0  0  0  0
   -0.1340    0.9050    3.0840 C   0  0  1  0  0  0  0  0  0  0  0  0
    1.0340    1.6100    3.6860 C   0  0  0  0  0  0  0  0  0  0  0  0
    0.9470    1.9060    5.1260 C   0  0  0  0  0  0  0  0  0  0  0  0
    0.0170    1.5230    5.8800 O   0  0  0  0  0  0  0  0  0  0  0  0
   -1.4270    1.6210    3.2280 C   0  0  0  0  0  0  0  0  0  0  0  0
   -2.0760    1.9000    2.1600 O   0  0  0  0  0  0  0  0  0  0  0  0
    1.9360    2.6630    5.7750 O   0  0  0  0  0  0  0  0  0  0  0  0
   -1.9740    2.0050    4.4270 O   0  0  0  0  0  0  0  0  0  0  0  0
    0.2410    1.4320    0.9970 H   0  0  0  0  0  0  0  0  0  0  0  0
   -0.2440   -0.0850    3.5550 H   0  0  0  0  0  0  0  0  0  0  0  0
    1.9790    1.0010    3.5650 H   0  0  0  0  0  0  0  0  0  0  0  0
    1.2920    2.5540    3.1150 H   0  0  0  0  0  0  0  0  0  0  0  0
    2.1450    2.4290    6.7370 H   0  0  0  0  0  0  0  0  0  0  0  0
  1  6  1  0  0  0  0
  1  2  1  0  0  0  0
  2  3  1  0  0  0  0
  2  7  1  0  0  0  0
  3  4  2  0  0  0  0
  5  1  1  0  0  0  0
  8  2  1  0  0  0  0
  9 10  1  0  0  0  0
  9  3  1  0  0  0  0
 10 19  1  6  0  0  0
 10 15  1  0  0  0  0
 11 21  1  0  0  0  0
 11 20  1  0  0  0  0
 11 10  1  0  0  0  0
 12 11  1  0  0  0  0
 13 12  1  0  0  0  0
 13 14  2  0  0  0  0
 15 25  1  0  0  0  0
 15 16  2  0  0  0  0
 17 24  1  0  0  0  0
 17 13  1  0  0  0  0
 18  9  1  0  0  0  0
 22 12  1  0  0  0  0
 23 12  1  0  0  0  0
 25 26  1  0  0  0  0
 26 30  1  0  0  0  0
 26 35  1  1  0  0  0
 26 27  1  0  0  0  0
 27 28  1  0  0  0  0
 28 32  1  0  0  0  0
 28 29  2  0  0  0  0
 30 33  1  0  0  0  0
 31 30  2  0  0  0  0
 32 38  1  0  0  0  0
 34 25  1  0  0  0  0
 36 27  1  0  0  0  0
 37 27  1  0  0  0  0
M  END
$$$$
