GEE.pdb
 OpenBabel07022418223D

 41 40  0  0  1  0  0  0  0  0999 V2000
   -0.1460   -3.9490    2.7170 N   0  0  0  0  0  0  0  0  0  0  0  0
   -0.0660   -4.1610    1.3120 C   0  0  0  0  0  0  0  0  0  0  0  0
   -0.3580   -2.9500    0.4920 C   0  0  0  0  0  0  0  0  0  0  0  0
   -0.3310   -3.0810   -0.7530 O   0  0  0  0  0  0  0  0  0  0  0  0
    0.7070   -3.7440    3.2280 H   0  0  0  0  0  0  0  0  0  0  0  0
   -1.0460   -3.6820    3.1090 H   0  0  0  0  0  0  0  0  0  0  0  0
   -0.8670   -4.9090    1.0280 H   0  0  0  0  0  0  0  0  0  0  0  0
    0.8880   -4.6520    1.0470 H   0  0  0  0  0  0  0  0  0  0  0  0
   -0.6570   -1.6970    1.0660 N   0  0  0  0  0  0  0  0  0  0  0  0
   -0.9700   -0.5050    0.3370 C   0  0  1  0  0  0  0  0  0  0  0  0
   -2.2230    0.1910    0.7660 C   0  0  0  0  0  0  0  0  0  0  0  0
   -3.4330   -0.7250    0.5720 C   0  0  0  0  0  0  0  0  0  0  0  0
   -3.5450   -1.1140   -0.8720 C   0  0  0  0  0  0  0  0  0  0  0  0
   -3.2160   -2.2710   -1.2730 O   0  0  0  0  0  0  0  0  0  0  0  0
    0.1520    0.4110    0.0820 C   0  0  0  0  0  0  0  0  0  0  0  0
   -0.1730    1.5820   -0.3110 O   0  0  0  0  0  0  0  0  0  0  0  0
   -4.0040   -0.2440   -1.8330 O   0  0  0  0  0  0  0  0  0  0  0  0
   -0.6490   -1.6550    2.1250 H   0  0  0  0  0  0  0  0  0  0  0  0
   -1.2170   -0.8800   -0.7440 H   0  0  0  0  0  0  0  0  0  0  0  0
   -2.2240    0.3830    1.8810 H   0  0  0  0  0  0  0  0  0  0  0  0
   -2.4010    1.1070    0.2060 H   0  0  0  0  0  0  0  0  0  0  0  0
   -3.2960   -1.6700    1.1580 H   0  0  0  0  0  0  0  0  0  0  0  0
   -4.3350   -0.2060    0.9480 H   0  0  0  0  0  0  0  0  0  0  0  0
   -3.4970   -0.1330   -2.7220 H   0  0  0  0  0  0  0  0  0  0  0  0
    1.5400    0.1430    0.2190 N   0  0  0  0  0  0  0  0  0  0  0  0
    2.5620    1.0820   -0.0470 C   0  0  1  0  0  0  0  0  0  0  0  0
    3.7420    1.0130    0.8540 C   0  0  0  0  0  0  0  0  0  0  0  0
    3.5430    1.2400    2.2970 C   0  0  0  0  0  0  0  0  0  0  0  0
    2.7110    0.2860    3.0360 C   0  0  0  0  0  0  0  0  0  0  0  0
    2.7970   -0.9530    2.9170 O   0  0  0  0  0  0  0  0  0  0  0  0
    3.1380    0.9060   -1.4510 C   0  0  0  0  0  0  0  0  0  0  0  0
    2.6010    0.0350   -2.1670 O   0  0  0  0  0  0  0  0  0  0  0  0
    1.7550    0.7660    3.9360 O   0  0  0  0  0  0  0  0  0  0  0  0
    4.1730    1.6480   -1.9150 O   0  0  0  0  0  0  0  0  0  0  0  0
    1.7590   -0.8390    0.5160 H   0  0  0  0  0  0  0  0  0  0  0  0
    2.1320    2.1340   -0.1300 H   0  0  0  0  0  0  0  0  0  0  0  0
    4.5040    1.7670    0.4930 H   0  0  0  0  0  0  0  0  0  0  0  0
    4.1960   -0.0120    0.7450 H   0  0  0  0  0  0  0  0  0  0  0  0
    4.5770    1.1600    2.7660 H   0  0  0  0  0  0  0  0  0  0  0  0
    3.2550    2.3060    2.5440 H   0  0  0  0  0  0  0  0  0  0  0  0
    1.4460    0.2190    4.7400 H   0  0  0  0  0  0  0  0  0  0  0  0
  1  6  1  0  0  0  0
  1  5  1  0  0  0  0
  2  1  1  0  0  0  0
  3  9  1  0  0  0  0
  3  2  1  0  0  0  0
  4  3  2  0  0  0  0
  7  2  1  0  0  0  0
  8  2  1  0  0  0  0
  9 18  1  0  0  0  0
 10 19  1  6  0  0  0
 10 11  1  0  0  0  0
 10  9  1  0  0  0  0
 11 20  1  0  0  0  0
 12 11  1  0  0  0  0
 12 23  1  0  0  0  0
 12 22  1  0  0  0  0
 13 12  1  0  0  0  0
 14 13  2  0  0  0  0
 15 25  1  0  0  0  0
 15 10  1  0  0  0  0
 16 15  2  0  0  0  0
 17 13  1  0  0  0  0
 21 11  1  0  0  0  0
 24 17  1  0  0  0  0
 25 35  1  0  0  0  0
 26 36  1  1  0  0  0
 26 25  1  0  0  0  0
 26 27  1  0  0  0  0
 27 28  1  0  0  0  0
 28 40  1  0  0  0  0
 28 39  1  0  0  0  0
 28 29  1  0  0  0  0
 29 33  1  0  0  0  0
 30 29  2  0  0  0  0
 31 26  1  0  0  0  0
 32 31  2  0  0  0  0
 33 41  1  0  0  0  0
 34 31  1  0  0  0  0
 37 27  1  0  0  0  0
 38 27  1  0  0  0  0
M  END
$$$$
