GEF.pdb
 OpenBabel07022418223D

 45 45  0  0  1  0  0  0  0  0999 V2000
    3.3930   -4.8470    0.3350 N   0  0  0  0  0  0  0  0  0  0  0  0
    4.2740   -3.7000    0.5620 C   0  0  0  0  0  0  0  0  0  0  0  0
    3.4590   -2.4520    0.5240 C   0  0  0  0  0  0  0  0  0  0  0  0
    3.9990   -1.3340    0.6940 O   0  0  0  0  0  0  0  0  0  0  0  0
    2.7870   -4.9550    1.1740 H   0  0  0  0  0  0  0  0  0  0  0  0
    4.0150   -5.6950    0.3080 H   0  0  0  0  0  0  0  0  0  0  0  0
    5.0510   -3.7170   -0.2380 H   0  0  0  0  0  0  0  0  0  0  0  0
    4.7510   -3.8220    1.5400 H   0  0  0  0  0  0  0  0  0  0  0  0
    2.0620   -2.5090    0.2950 N   0  0  0  0  0  0  0  0  0  0  0  0
    1.1890   -1.3670    0.2380 C   0  0  1  0  0  0  0  0  0  0  0  0
    0.2850   -1.4540   -0.9420 C   0  0  0  0  0  0  0  0  0  0  0  0
    0.8840   -1.4990   -2.2880 C   0  0  0  0  0  0  0  0  0  0  0  0
    1.7830   -2.6240   -2.5650 C   0  0  0  0  0  0  0  0  0  0  0  0
    3.0310   -2.4150   -2.6040 O   0  0  0  0  0  0  0  0  0  0  0  0
    0.3770   -1.2690    1.5180 C   0  0  0  0  0  0  0  0  0  0  0  0
    0.5980   -2.0980    2.4150 O   0  0  0  0  0  0  0  0  0  0  0  0
    1.3770   -3.9370   -2.7960 O   0  0  0  0  0  0  0  0  0  0  0  0
    1.6630   -3.4870    0.1600 H   0  0  0  0  0  0  0  0  0  0  0  0
    1.8030   -0.4200    0.1750 H   0  0  0  0  0  0  0  0  0  0  0  0
   -0.4880   -2.2630   -0.7930 H   0  0  0  0  0  0  0  0  0  0  0  0
   -0.3630   -0.5130   -0.8810 H   0  0  0  0  0  0  0  0  0  0  0  0
    0.0310   -1.6120   -3.0340 H   0  0  0  0  0  0  0  0  0  0  0  0
    1.3750   -0.5440   -2.5890 H   0  0  0  0  0  0  0  0  0  0  0  0
    1.8780   -4.5520   -3.4560 H   0  0  0  0  0  0  0  0  0  0  0  0
   -0.5910   -0.2850    1.6900 N   0  0  0  0  0  0  0  0  0  0  0  0
   -1.4190   -0.1020    2.8620 C   0  0  1  0  0  0  0  0  0  0  0  0
   -1.1460    1.2550    3.4170 C   0  0  0  0  0  0  0  0  0  0  0  0
   -1.4230    2.3650    2.5000 C   0  0  0  0  0  0  0  0  0  0  0  0
   -0.5110    2.9190    1.6310 C   0  0  0  0  0  0  0  0  0  0  0  0
   -0.7760    3.9630    0.7790 C   0  0  0  0  0  0  0  0  0  0  0  0
   -2.0580    4.4940    0.7970 C   0  0  0  0  0  0  0  0  0  0  0  0
   -2.9940    3.9810    1.6360 C   0  0  0  0  0  0  0  0  0  0  0  0
   -2.6870    2.9150    2.4930 C   0  0  0  0  0  0  0  0  0  0  0  0
   -2.8170   -0.4220    2.6650 C   0  0  0  0  0  0  0  0  0  0  0  0
   -3.6310   -0.3080    3.6030 O   0  0  0  0  0  0  0  0  0  0  0  0
   -3.2890   -0.8580    1.4510 O   0  0  0  0  0  0  0  0  0  0  0  0
   -0.7540    0.4000    0.9080 H   0  0  0  0  0  0  0  0  0  0  0  0
   -1.0310   -0.8510    3.6170 H   0  0  0  0  0  0  0  0  0  0  0  0
   -0.0570    1.3200    3.7140 H   0  0  0  0  0  0  0  0  0  0  0  0
   -1.6940    1.4340    4.3640 H   0  0  0  0  0  0  0  0  0  0  0  0
    0.4860    2.5070    1.6150 H   0  0  0  0  0  0  0  0  0  0  0  0
   -0.0300    4.3670    0.1160 H   0  0  0  0  0  0  0  0  0  0  0  0
   -2.2650    5.3310    0.1120 H   0  0  0  0  0  0  0  0  0  0  0  0
   -3.9920    4.4230    1.6230 H   0  0  0  0  0  0  0  0  0  0  0  0
   -3.4910    2.5760    3.1220 H   0  0  0  0  0  0  0  0  0  0  0  0
  1  2  1  0  0  0  0
  1  5  1  0  0  0  0
  2  8  1  0  0  0  0
  3  2  1  0  0  0  0
  3  4  2  0  0  0  0
  6  1  1  0  0  0  0
  7  2  1  0  0  0  0
  9  3  1  0  0  0  0
 10 19  1  6  0  0  0
 10  9  1  0  0  0  0
 10 15  1  0  0  0  0
 11 21  1  0  0  0  0
 11 20  1  0  0  0  0
 11 10  1  0  0  0  0
 12 11  1  0  0  0  0
 13 12  1  0  0  0  0
 14 13  2  0  0  0  0
 15 25  1  0  0  0  0
 15 16  2  0  0  0  0
 17 13  1  0  0  0  0
 18  9  1  0  0  0  0
 22 12  1  0  0  0  0
 23 12  1  0  0  0  0
 24 17  1  0  0  0  0
 25 26  1  0  0  0  0
 26 27  1  0  0  0  0
 26 38  1  1  0  0  0
 27 39  1  0  0  0  0
 27 40  1  0  0  0  0
 28 27  1  0  0  0  0
 29 28  2  0  0  0  0
 30 31  2  0  0  0  0
 30 29  1  0  0  0  0
 31 32  1  0  0  0  0
 32 33  2  0  0  0  0
 33 28  1  0  0  0  0
 33 45  1  0  0  0  0
 34 26  1  0  0  0  0
 34 35  1  0  0  0  0
 36 34  2  0  0  0  0
 37 25  1  0  0  0  0
 41 29  1  0  0  0  0
 42 30  1  0  0  0  0
 43 31  1  0  0  0  0
 44 32  1  0  0  0  0
M  END
$$$$
