GEG.pdb
 OpenBabel07022418223D

 32 31  0  0  1  0  0  0  0  0999 V2000
   -1.0850   -2.8480    4.7500 N   0  0  0  0  0  0  0  0  0  0  0  0
   -1.3480   -1.9180    3.6710 C   0  0  0  0  0  0  0  0  0  0  0  0
   -0.3380   -2.1090    2.6230 C   0  0  0  0  0  0  0  0  0  0  0  0
    0.5660   -2.9590    2.7270 O   0  0  0  0  0  0  0  0  0  0  0  0
   -1.0250   -3.8070    4.2970 H   0  0  0  0  0  0  0  0  0  0  0  0
   -1.9120   -2.9110    5.3890 H   0  0  0  0  0  0  0  0  0  0  0  0
   -2.3760   -2.1190    3.2860 H   0  0  0  0  0  0  0  0  0  0  0  0
   -1.3720   -0.8920    4.0860 H   0  0  0  0  0  0  0  0  0  0  0  0
   -0.3440   -1.3320    1.4360 N   0  0  0  0  0  0  0  0  0  0  0  0
    0.5890   -1.4420    0.3670 C   0  0  1  0  0  0  0  0  0  0  0  0
    0.0550   -1.8080   -0.9550 C   0  0  0  0  0  0  0  0  0  0  0  0
   -0.9700   -0.8160   -1.4910 C   0  0  0  0  0  0  0  0  0  0  0  0
   -1.4680   -1.2510   -2.8330 C   0  0  0  0  0  0  0  0  0  0  0  0
   -0.9980   -2.3230   -3.3180 O   0  0  0  0  0  0  0  0  0  0  0  0
    1.4120   -0.2200    0.2710 C   0  0  0  0  0  0  0  0  0  0  0  0
    2.2860   -0.1660   -0.6320 O   0  0  0  0  0  0  0  0  0  0  0  0
   -2.3940   -0.5560   -3.5550 O   0  0  0  0  0  0  0  0  0  0  0  0
   -1.1040   -0.6140    1.3440 H   0  0  0  0  0  0  0  0  0  0  0  0
    1.3110   -2.2610    0.6660 H   0  0  0  0  0  0  0  0  0  0  0  0
    0.9150   -1.7500   -1.6880 H   0  0  0  0  0  0  0  0  0  0  0  0
   -0.3100   -2.8500   -1.0450 H   0  0  0  0  0  0  0  0  0  0  0  0
   -1.8660   -0.8320   -0.8280 H   0  0  0  0  0  0  0  0  0  0  0  0
   -0.5660    0.1960   -1.5360 H   0  0  0  0  0  0  0  0  0  0  0  0
   -3.0880   -1.0700   -4.0910 H   0  0  0  0  0  0  0  0  0  0  0  0
    1.2020    0.8480    1.1820 N   0  0  0  0  0  0  0  0  0  0  0  0
    1.9870    2.0390    1.1100 C   0  0  0  0  0  0  0  0  0  0  0  0
    1.8780    2.7650   -0.1800 C   0  0  0  0  0  0  0  0  0  0  0  0
    2.5490    3.8210   -0.2940 O   0  0  0  0  0  0  0  0  0  0  0  0
    1.0970    2.3600   -1.2470 O   0  0  0  0  0  0  0  0  0  0  0  0
    0.4550    0.7720    1.9330 H   0  0  0  0  0  0  0  0  0  0  0  0
    1.6780    2.7640    1.8980 H   0  0  0  0  0  0  0  0  0  0  0  0
    3.0760    1.8330    1.2890 H   0  0  0  0  0  0  0  0  0  0  0  0
  1  6  1  0  0  0  0
  2  8  1  0  0  0  0
  2  1  1  0  0  0  0
  3  4  2  0  0  0  0
  3  2  1  0  0  0  0
  5  1  1  0  0  0  0
  7  2  1  0  0  0  0
  9  3  1  0  0  0  0
 10 19  1  1  0  0  0
 10  9  1  0  0  0  0
 11 10  1  0  0  0  0
 12 11  1  0  0  0  0
 12 22  1  0  0  0  0
 13 12  1  0  0  0  0
 14 13  2  0  0  0  0
 15 10  1  0  0  0  0
 15 25  1  0  0  0  0
 16 15  2  0  0  0  0
 17 13  1  0  0  0  0
 18  9  1  0  0  0  0
 20 11  1  0  0  0  0
 21 11  1  0  0  0  0
 23 12  1  0  0  0  0
 24 17  1  0  0  0  0
 25 30  1  0  0  0  0
 26 25  1  0  0  0  0
 26 32  1  0  0  0  0
 26 31  1  0  0  0  0
 27 26  1  0  0  0  0
 28 27  1  0  0  0  0
 29 27  2  0  0  0  0
M  END
$$$$
