GEH.pdb
 OpenBabel07022418223D

 42 42  0  0  1  0  0  0  0  0999 V2000
   -0.5060   -4.5750   -1.2790 N   0  0  0  0  0  0  0  0  0  0  0  0
    0.4990   -4.1010   -2.2070 C   0  0  0  0  0  0  0  0  0  0  0  0
    0.7970   -2.6550   -1.9830 C   0  0  0  0  0  0  0  0  0  0  0  0
    1.6490   -2.0960   -2.7090 O   0  0  0  0  0  0  0  0  0  0  0  0
   -1.2040   -5.2230   -1.7470 H   0  0  0  0  0  0  0  0  0  0  0  0
   -0.0860   -5.0820   -0.4590 H   0  0  0  0  0  0  0  0  0  0  0  0
    1.4300   -4.6950   -2.1630 H   0  0  0  0  0  0  0  0  0  0  0  0
    0.0540   -4.1620   -3.2370 H   0  0  0  0  0  0  0  0  0  0  0  0
    0.1270   -1.9360   -0.9660 N   0  0  0  0  0  0  0  0  0  0  0  0
    0.4050   -0.4930   -0.7200 C   0  0  1  0  0  0  0  0  0  0  0  0
   -0.9130    0.1910   -0.8350 C   0  0  0  0  0  0  0  0  0  0  0  0
   -0.9500    1.6590   -0.6440 C   0  0  0  0  0  0  0  0  0  0  0  0
   -0.1250    2.4100   -1.6050 C   0  0  0  0  0  0  0  0  0  0  0  0
    0.5250    1.8170   -2.4980 O   0  0  0  0  0  0  0  0  0  0  0  0
    0.9690   -0.4530    0.6740 C   0  0  0  0  0  0  0  0  0  0  0  0
    0.9590   -1.5170    1.3860 O   0  0  0  0  0  0  0  0  0  0  0  0
   -0.0570    3.7800   -1.5340 O   0  0  0  0  0  0  0  0  0  0  0  0
   -0.5770   -2.4260   -0.3760 H   0  0  0  0  0  0  0  0  0  0  0  0
    1.1690   -0.1410   -1.4300 H   0  0  0  0  0  0  0  0  0  0  0  0
   -1.6610   -0.3560   -0.2060 H   0  0  0  0  0  0  0  0  0  0  0  0
   -1.2780   -0.0060   -1.8890 H   0  0  0  0  0  0  0  0  0  0  0  0
   -2.0120    2.0470   -0.8260 H   0  0  0  0  0  0  0  0  0  0  0  0
   -0.7880    1.9560    0.4250 H   0  0  0  0  0  0  0  0  0  0  0  0
    0.3440    4.2890   -2.3190 H   0  0  0  0  0  0  0  0  0  0  0  0
    1.5150    0.7340    1.2230 N   0  0  0  0  0  0  0  0  0  0  0  0
    2.0660    0.8100    2.5430 C   0  0  1  0  0  0  0  0  0  0  0  0
    1.0790    1.1360    3.6160 C   0  0  0  0  0  0  0  0  0  0  0  0
   -0.0110    0.1730    3.7460 C   0  0  0  0  0  0  0  0  0  0  0  0
   -0.0650   -0.9460    4.5250 C   0  0  0  0  0  0  0  0  0  0  0  0
   -1.2500   -1.5260    4.3300 N   0  0  0  0  0  0  0  0  0  0  0  0
   -1.9520   -0.7850    3.4330 C   0  0  0  0  0  0  0  0  0  0  0  0
   -1.1790    0.2470    3.0890 N   0  0  0  0  0  0  0  0  0  0  0  0
    3.0120   -0.2710    2.8970 C   0  0  0  0  0  0  0  0  0  0  0  0
    3.3470   -1.1120    2.0620 O   0  0  0  0  0  0  0  0  0  0  0  0
    3.5070   -0.3180    4.1770 O   0  0  0  0  0  0  0  0  0  0  0  0
    1.5120    1.5950    0.5910 H   0  0  0  0  0  0  0  0  0  0  0  0
    2.7760    1.7230    2.5030 H   0  0  0  0  0  0  0  0  0  0  0  0
    0.7020    2.1790    3.4000 H   0  0  0  0  0  0  0  0  0  0  0  0
    1.6450    1.2380    4.5680 H   0  0  0  0  0  0  0  0  0  0  0  0
    0.7020   -1.3000    5.1760 H   0  0  0  0  0  0  0  0  0  0  0  0
   -1.6450   -2.4110    4.7640 H   0  0  0  0  0  0  0  0  0  0  0  0
   -2.9570   -0.9810    3.0550 H   0  0  0  0  0  0  0  0  0  0  0  0
  1  6  1  0  0  0  0
  2  7  1  0  0  0  0
  2  3  1  0  0  0  0
  2  1  1  0  0  0  0
  3  9  1  0  0  0  0
  4  3  2  0  0  0  0
  5  1  1  0  0  0  0
  8  2  1  0  0  0  0
  9 10  1  0  0  0  0
  9 18  1  0  0  0  0
 10 19  1  6  0  0  0
 10 15  1  0  0  0  0
 11 10  1  0  0  0  0
 11 12  1  0  0  0  0
 11 20  1  0  0  0  0
 12 23  1  0  0  0  0
 13 17  1  0  0  0  0
 13 12  1  0  0  0  0
 14 13  2  0  0  0  0
 15 25  1  0  0  0  0
 15 16  2  0  0  0  0
 21 11  1  0  0  0  0
 22 12  1  0  0  0  0
 24 17  1  0  0  0  0
 25 26  1  0  0  0  0
 26 37  1  6  0  0  0
 26 33  1  0  0  0  0
 26 27  1  0  0  0  0
 27 28  1  0  0  0  0
 27 39  1  0  0  0  0
 28 29  2  0  0  0  0
 29 40  1  0  0  0  0
 30 29  1  0  0  0  0
 30 41  1  0  0  0  0
 31 30  1  0  0  0  0
 32 31  2  0  0  0  0
 32 28  1  0  0  0  0
 33 35  1  0  0  0  0
 34 33  2  0  0  0  0
 36 25  1  0  0  0  0
 38 27  1  0  0  0  0
 42 31  1  0  0  0  0
M  END
$$$$
