GEI.pdb
 OpenBabel07022418223D

 44 43  0  0  1  0  0  0  0  0999 V2000
   -0.7670   -5.2050    1.3070 N   0  0  0  0  0  0  0  0  0  0  0  0
    0.1220   -5.0100    0.2080 C   0  0  0  0  0  0  0  0  0  0  0  0
    0.0480   -3.6520   -0.3800 C   0  0  0  0  0  0  0  0  0  0  0  0
    0.8090   -3.4130   -1.3580 O   0  0  0  0  0  0  0  0  0  0  0  0
   -1.7210   -4.8070    1.1640 H   0  0  0  0  0  0  0  0  0  0  0  0
   -0.3520   -4.9470    2.2350 H   0  0  0  0  0  0  0  0  0  0  0  0
   -0.1640   -5.7260   -0.5950 H   0  0  0  0  0  0  0  0  0  0  0  0
    1.1480   -5.2690    0.5440 H   0  0  0  0  0  0  0  0  0  0  0  0
   -0.7940   -2.6270    0.0630 N   0  0  0  0  0  0  0  0  0  0  0  0
   -0.7860   -1.3460   -0.5790 C   0  0  1  0  0  0  0  0  0  0  0  0
   -2.1250   -0.9590   -1.0880 C   0  0  0  0  0  0  0  0  0  0  0  0
   -2.1990    0.3650   -1.7690 C   0  0  0  0  0  0  0  0  0  0  0  0
   -1.3580    0.5050   -2.9690 C   0  0  0  0  0  0  0  0  0  0  0  0
   -0.6510   -0.4300   -3.4110 O   0  0  0  0  0  0  0  0  0  0  0  0
   -0.2460   -0.3290    0.3950 C   0  0  0  0  0  0  0  0  0  0  0  0
   -0.1230    0.8750    0.0990 O   0  0  0  0  0  0  0  0  0  0  0  0
   -1.2940    1.7040   -3.6990 O   0  0  0  0  0  0  0  0  0  0  0  0
   -1.4260   -2.8100    0.8680 H   0  0  0  0  0  0  0  0  0  0  0  0
   -0.0500   -1.3590   -1.4030 H   0  0  0  0  0  0  0  0  0  0  0  0
   -2.4610   -1.7230   -1.8230 H   0  0  0  0  0  0  0  0  0  0  0  0
   -2.8500   -0.8950   -0.2230 H   0  0  0  0  0  0  0  0  0  0  0  0
   -3.2650    0.4570   -2.1430 H   0  0  0  0  0  0  0  0  0  0  0  0
   -2.1020    1.2280   -1.0760 H   0  0  0  0  0  0  0  0  0  0  0  0
   -0.5350    1.9140   -4.3290 H   0  0  0  0  0  0  0  0  0  0  0  0
    2.8090    2.7820    3.0290 C   0  0  0  0  0  0  0  0  0  0  0  0
    2.8220    1.3550    3.4710 C   0  0  0  0  0  0  0  0  0  0  0  0
    2.1200    0.3820    2.5900 C   0  0  2  0  0  0  0  0  0  0  0  0
    2.6550    0.3640    1.1750 C   0  0  0  0  0  0  0  0  0  0  0  0
    0.6540    0.2670    2.6460 C   0  0  2  0  0  0  0  0  0  0  0  0
    0.1420   -0.7220    1.6970 N   0  0  0  0  0  0  0  0  0  0  0  0
   -0.1870    1.4300    2.8370 C   0  0  0  0  0  0  0  0  0  0  0  0
    0.0100    2.4180    3.5710 O   0  0  0  0  0  0  0  0  0  0  0  0
   -1.4160    1.5420    2.1410 O   0  0  0  0  0  0  0  0  0  0  0  0
    2.1910    3.0120    2.1490 H   0  0  0  0  0  0  0  0  0  0  0  0
    2.4800    3.4130    3.8770 H   0  0  0  0  0  0  0  0  0  0  0  0
    3.8740    3.1540    2.8420 H   0  0  0  0  0  0  0  0  0  0  0  0
    3.9180    1.0830    3.5860 H   0  0  0  0  0  0  0  0  0  0  0  0
    2.4760    1.2570    4.5500 H   0  0  0  0  0  0  0  0  0  0  0  0
    2.5660   -0.6410    2.9870 H   0  0  0  0  0  0  0  0  0  0  0  0
    2.5310    1.3060    0.6400 H   0  0  0  0  0  0  0  0  0  0  0  0
    3.7690    0.1670    1.1670 H   0  0  0  0  0  0  0  0  0  0  0  0
    2.2290   -0.4520    0.5790 H   0  0  0  0  0  0  0  0  0  0  0  0
    0.4560   -0.3130    3.6460 H   0  0  0  0  0  0  0  0  0  0  0  0
    0.0650   -1.7470    1.9860 H   0  0  0  0  0  0  0  0  0  0  0  0
  1  6  1  0  0  0  0
  2  8  1  0  0  0  0
  2  1  1  0  0  0  0
  3  9  1  0  0  0  0
  3  2  1  0  0  0  0
  4  3  2  0  0  0  0
  5  1  1  0  0  0  0
  7  2  1  0  0  0  0
  9 18  1  0  0  0  0
 10 19  1  6  0  0  0
 10  9  1  0  0  0  0
 10 15  1  0  0  0  0
 11 10  1  0  0  0  0
 11 21  1  0  0  0  0
 12 11  1  0  0  0  0
 12 23  1  0  0  0  0
 13 12  1  0  0  0  0
 14 13  2  0  0  0  0
 15 30  1  0  0  0  0
 16 15  2  0  0  0  0
 17 13  1  0  0  0  0
 20 11  1  0  0  0  0
 22 12  1  0  0  0  0
 24 17  1  0  0  0  0
 25 26  1  0  0  0  0
 25 35  1  0  0  0  0
 26 37  1  0  0  0  0
 26 38  1  0  0  0  0
 27 29  1  0  0  0  0
 27 39  1  1  0  0  0
 27 26  1  0  0  0  0
 28 27  1  0  0  0  0
 29 31  1  0  0  0  0
 29 43  1  1  0  0  0
 30 44  1  0  0  0  0
 30 29  1  0  0  0  0
 31 32  1  0  0  0  0
 33 31  2  0  0  0  0
 34 25  1  0  0  0  0
 36 25  1  0  0  0  0
 40 28  1  0  0  0  0
 41 28  1  0  0  0  0
 42 28  1  0  0  0  0
M  END
$$$$
