GEM.pdb
 OpenBabel07022418223D

 42 41  0  0  1  0  0  0  0  0999 V2000
    0.2960   -6.7370    0.0560 N   0  0  0  0  0  0  0  0  0  0  0  0
   -0.6560   -5.6780    0.1880 C   0  0  0  0  0  0  0  0  0  0  0  0
   -0.0490   -4.3360   -0.0310 C   0  0  0  0  0  0  0  0  0  0  0  0
    1.1670   -4.2390   -0.2960 O   0  0  0  0  0  0  0  0  0  0  0  0
    0.6480   -6.7820   -0.9200 H   0  0  0  0  0  0  0  0  0  0  0  0
    1.0570   -6.5990    0.7630 H   0  0  0  0  0  0  0  0  0  0  0  0
   -1.2080   -5.7110    1.1290 H   0  0  0  0  0  0  0  0  0  0  0  0
   -1.4000   -5.8040   -0.6530 H   0  0  0  0  0  0  0  0  0  0  0  0
   -0.8010   -3.1390    0.0490 N   0  0  0  0  0  0  0  0  0  0  0  0
   -0.1780   -1.8240   -0.1710 C   0  0  1  0  0  0  0  0  0  0  0  0
   -0.9390   -1.0840   -1.2200 C   0  0  0  0  0  0  0  0  0  0  0  0
   -0.3980    0.2510   -1.5410 C   0  0  0  0  0  0  0  0  0  0  0  0
    0.9940    0.2550   -2.0410 C   0  0  0  0  0  0  0  0  0  0  0  0
    1.6960   -0.7730   -2.1970 O   0  0  0  0  0  0  0  0  0  0  0  0
   -0.2800   -1.1270    1.1350 C   0  0  0  0  0  0  0  0  0  0  0  0
   -1.0220   -1.6340    2.0520 O   0  0  0  0  0  0  0  0  0  0  0  0
    1.5620    1.4790   -2.3580 O   0  0  0  0  0  0  0  0  0  0  0  0
   -1.8060   -3.1480    0.2640 H   0  0  0  0  0  0  0  0  0  0  0  0
    0.8790   -2.0000   -0.3880 H   0  0  0  0  0  0  0  0  0  0  0  0
   -1.9740   -0.9140   -0.7940 H   0  0  0  0  0  0  0  0  0  0  0  0
   -0.9970   -1.7250   -2.1270 H   0  0  0  0  0  0  0  0  0  0  0  0
   -0.5990    1.0100   -0.7730 H   0  0  0  0  0  0  0  0  0  0  0  0
   -1.0190    0.6310   -2.4320 H   0  0  0  0  0  0  0  0  0  0  0  0
    2.4160    1.5480   -2.9240 H   0  0  0  0  0  0  0  0  0  0  0  0
    1.5160    3.6670    1.4670 C   0  0  0  0  0  0  0  0  0  0  0  0
    2.3850    3.2600    2.9550 S   0  0  0  0  0  0  0  0  0  0  0  0
    2.6070    1.5210    3.2160 C   0  0  0  0  0  0  0  0  0  0  0  0
    1.4000    0.7880    3.6200 C   0  0  0  0  0  0  0  0  0  0  0  0
    0.2130    0.6770    2.7760 C   0  0  2  0  0  0  0  0  0  0  0  0
    0.3780    0.0670    1.4810 N   0  0  0  0  0  0  0  0  0  0  0  0
   -0.6360    1.8830    2.7420 C   0  0  0  0  0  0  0  0  0  0  0  0
   -1.2680    2.2550    1.6920 O   0  0  0  0  0  0  0  0  0  0  0  0
   -0.7500    2.6390    3.8920 O   0  0  0  0  0  0  0  0  0  0  0  0
    0.5940    4.2660    1.7290 H   0  0  0  0  0  0  0  0  0  0  0  0
    2.1590    4.3390    0.7980 H   0  0  0  0  0  0  0  0  0  0  0  0
    1.2570    2.8320    0.7960 H   0  0  0  0  0  0  0  0  0  0  0  0
    3.1140    1.0340    2.3160 H   0  0  0  0  0  0  0  0  0  0  0  0
    3.3860    1.3960    4.0430 H   0  0  0  0  0  0  0  0  0  0  0  0
    1.6950   -0.2650    4.0030 H   0  0  0  0  0  0  0  0  0  0  0  0
    1.0450    1.2870    4.6010 H   0  0  0  0  0  0  0  0  0  0  0  0
   -0.4800   -0.0560    3.3990 H   0  0  0  0  0  0  0  0  0  0  0  0
    1.0170    0.5040    0.7890 H   0  0  0  0  0  0  0  0  0  0  0  0
  1  2  1  0  0  0  0
  1  6  1  0  0  0  0
  2  7  1  0  0  0  0
  3  9  1  0  0  0  0
  3  2  1  0  0  0  0
  4  3  2  0  0  0  0
  5  1  1  0  0  0  0
  8  2  1  0  0  0  0
  9 18  1  0  0  0  0
 10 19  1  6  0  0  0
 10  9  1  0  0  0  0
 10 15  1  0  0  0  0
 11 20  1  0  0  0  0
 11 10  1  0  0  0  0
 12 11  1  0  0  0  0
 12 22  1  0  0  0  0
 13 12  1  0  0  0  0
 14 13  2  0  0  0  0
 15 30  1  0  0  0  0
 15 16  2  0  0  0  0
 17 13  1  0  0  0  0
 21 11  1  0  0  0  0
 23 12  1  0  0  0  0
 24 17  1  0  0  0  0
 25 34  1  0  0  0  0
 25 26  1  0  0  0  0
 26 27  1  0  0  0  0
 27 28  1  0  0  0  0
 27 38  1  0  0  0  0
 28 39  1  0  0  0  0
 28 40  1  0  0  0  0
 29 41  1  1  0  0  0
 29 28  1  0  0  0  0
 30 29  1  0  0  0  0
 31 29  1  0  0  0  0
 31 33  1  0  0  0  0
 32 31  2  0  0  0  0
 35 25  1  0  0  0  0
 36 25  1  0  0  0  0
 37 27  1  0  0  0  0
 42 30  1  0  0  0  0
M  END
$$$$
