GEP.pdb
 OpenBabel07022418223D

 39 39  0  0  1  0  0  0  0  0999 V2000
   -0.2700   -5.2070    2.4960 N   0  0  0  0  0  0  0  0  0  0  0  0
    1.0300   -5.1120    1.9080 C   0  0  0  0  0  0  0  0  0  0  0  0
    1.2390   -3.8220    1.1940 C   0  0  0  0  0  0  0  0  0  0  0  0
    2.3430   -3.6120    0.6320 O   0  0  0  0  0  0  0  0  0  0  0  0
   -0.4970   -4.4560    3.1640 H   0  0  0  0  0  0  0  0  0  0  0  0
   -1.0320   -5.4490    1.8320 H   0  0  0  0  0  0  0  0  0  0  0  0
    1.8030   -5.2830    2.6780 H   0  0  0  0  0  0  0  0  0  0  0  0
    1.1190   -5.9570    1.1730 H   0  0  0  0  0  0  0  0  0  0  0  0
    0.2660   -2.8160    1.1120 N   0  0  0  0  0  0  0  0  0  0  0  0
    0.5030   -1.5390    0.3930 C   0  0  1  0  0  0  0  0  0  0  0  0
   -0.6530   -1.5440   -0.6060 C   0  0  0  0  0  0  0  0  0  0  0  0
   -0.7620   -0.4300   -1.5430 C   0  0  0  0  0  0  0  0  0  0  0  0
    0.3230   -0.2230   -2.5000 C   0  0  0  0  0  0  0  0  0  0  0  0
    1.3590   -0.9320   -2.5910 O   0  0  0  0  0  0  0  0  0  0  0  0
    0.1990   -0.5010    1.4510 C   0  0  0  0  0  0  0  0  0  0  0  0
   -0.5170   -0.8820    2.4350 O   0  0  0  0  0  0  0  0  0  0  0  0
    0.2150    0.8380   -3.3900 O   0  0  0  0  0  0  0  0  0  0  0  0
   -0.6560   -2.9300    1.5510 H   0  0  0  0  0  0  0  0  0  0  0  0
    1.4670   -1.4520   -0.0520 H   0  0  0  0  0  0  0  0  0  0  0  0
   -1.5970   -1.5890    0.0170 H   0  0  0  0  0  0  0  0  0  0  0  0
   -0.6770   -2.5190   -1.1630 H   0  0  0  0  0  0  0  0  0  0  0  0
   -0.9770    0.5610   -1.0740 H   0  0  0  0  0  0  0  0  0  0  0  0
   -1.6990   -0.6070   -2.1640 H   0  0  0  0  0  0  0  0  0  0  0  0
    0.8840    0.9130   -4.1700 H   0  0  0  0  0  0  0  0  0  0  0  0
    0.6420    0.8190    1.4240 N   0  0  0  0  0  0  0  0  0  0  0  0
    1.5810    1.3340    0.3770 C   0  0  0  0  0  0  0  0  0  0  0  0
    0.8890    2.5870   -0.0630 C   0  0  0  0  0  0  0  0  0  0  0  0
   -0.1020    2.9260    1.0610 C   0  0  0  0  0  0  0  0  0  0  0  0
    0.4440    2.0160    2.1800 C   0  0  1  0  0  0  0  0  0  0  0  0
   -0.4100    2.0180    3.3370 C   0  0  0  0  0  0  0  0  0  0  0  0
   -1.0540    1.0870    3.8050 O   0  0  0  0  0  0  0  0  0  0  0  0
   -0.5170    3.2650    4.0220 O   0  0  0  0  0  0  0  0  0  0  0  0
    2.4640    1.6750    0.9950 H   0  0  0  0  0  0  0  0  0  0  0  0
    1.8390    0.6040   -0.3570 H   0  0  0  0  0  0  0  0  0  0  0  0
    1.6070    3.4650   -0.0540 H   0  0  0  0  0  0  0  0  0  0  0  0
    0.3940    2.4950   -1.0390 H   0  0  0  0  0  0  0  0  0  0  0  0
   -1.0760    2.5240    0.7780 H   0  0  0  0  0  0  0  0  0  0  0  0
   -0.0820    3.9760    1.3430 H   0  0  0  0  0  0  0  0  0  0  0  0
    1.4410    2.5130    2.4220 H   0  0  0  0  0  0  0  0  0  0  0  0
  1  5  1  0  0  0  0
  2  1  1  0  0  0  0
  2  7  1  0  0  0  0
  3  2  1  0  0  0  0
  4  3  2  0  0  0  0
  6  1  1  0  0  0  0
  8  2  1  0  0  0  0
  9  3  1  0  0  0  0
  9 18  1  0  0  0  0
 10 19  1  6  0  0  0
 10  9  1  0  0  0  0
 10 15  1  0  0  0  0
 11 20  1  0  0  0  0
 11 10  1  0  0  0  0
 12 22  1  0  0  0  0
 12 11  1  0  0  0  0
 13 12  1  0  0  0  0
 14 13  2  0  0  0  0
 15 16  2  0  0  0  0
 17 13  1  0  0  0  0
 21 11  1  0  0  0  0
 23 12  1  0  0  0  0
 24 17  1  0  0  0  0
 25 15  1  0  0  0  0
 25 29  1  0  0  0  0
 26 33  1  0  0  0  0
 26 25  1  0  0  0  0
 27 35  1  0  0  0  0
 27 26  1  0  0  0  0
 27 28  1  0  0  0  0
 28 38  1  0  0  0  0
 28 29  1  0  0  0  0
 29 39  1  1  0  0  0
 29 30  1  0  0  0  0
 30 31  2  0  0  0  0
 30 32  1  0  0  0  0
 34 26  1  0  0  0  0
 36 27  1  0  0  0  0
 37 28  1  0  0  0  0
M  END
$$$$
