GEQ.pdb
 OpenBabel07022418223D

 42 41  0  0  1  0  0  0  0  0999 V2000
   -1.9950   -4.7900   -1.0810 N   0  0  0  0  0  0  0  0  0  0  0  0
   -1.6290   -3.4040   -1.0270 C   0  0  0  0  0  0  0  0  0  0  0  0
   -0.3420   -3.1910   -0.3030 C   0  0  0  0  0  0  0  0  0  0  0  0
    0.2290   -4.2210    0.1480 O   0  0  0  0  0  0  0  0  0  0  0  0
   -1.1980   -5.4500   -1.0200 H   0  0  0  0  0  0  0  0  0  0  0  0
   -2.7410   -5.0710   -0.4360 H   0  0  0  0  0  0  0  0  0  0  0  0
   -2.4390   -2.8390   -0.5190 H   0  0  0  0  0  0  0  0  0  0  0  0
   -1.5010   -3.0380   -2.0620 H   0  0  0  0  0  0  0  0  0  0  0  0
    0.2210   -1.9020   -0.1230 N   0  0  0  0  0  0  0  0  0  0  0  0
    1.4670   -1.7900    0.5890 C   0  0  1  0  0  0  0  0  0  0  0  0
    2.5330   -1.0810   -0.2050 C   0  0  0  0  0  0  0  0  0  0  0  0
    2.8520   -1.7870   -1.4990 C   0  0  0  0  0  0  0  0  0  0  0  0
    3.9060   -1.0490   -2.2400 C   0  0  0  0  0  0  0  0  0  0  0  0
    4.3450   -1.4350   -3.3480 O   0  0  0  0  0  0  0  0  0  0  0  0
    1.2910   -1.0170    1.8640 C   0  0  0  0  0  0  0  0  0  0  0  0
    2.2600   -0.8120    2.6240 O   0  0  0  0  0  0  0  0  0  0  0  0
    4.4570    0.1230   -1.7240 O   0  0  0  0  0  0  0  0  0  0  0  0
   -0.3020   -1.0920   -0.5200 H   0  0  0  0  0  0  0  0  0  0  0  0
    1.7920   -2.7980    0.8940 H   0  0  0  0  0  0  0  0  0  0  0  0
    3.4520   -1.0650    0.4180 H   0  0  0  0  0  0  0  0  0  0  0  0
    2.2660   -0.0360   -0.4230 H   0  0  0  0  0  0  0  0  0  0  0  0
    1.9490   -1.8100   -2.1570 H   0  0  0  0  0  0  0  0  0  0  0  0
    3.1710   -2.8250   -1.3550 H   0  0  0  0  0  0  0  0  0  0  0  0
    4.7440    0.8710   -2.3550 H   0  0  0  0  0  0  0  0  0  0  0  0
   -0.1080    4.6850    1.0430 N   0  0  0  0  0  0  0  0  0  0  0  0
   -0.6950    3.6770    1.8500 C   0  0  0  0  0  0  0  0  0  0  0  0
   -1.8390    3.9160    2.3120 O   0  0  0  0  0  0  0  0  0  0  0  0
   -0.0270    2.3960    2.1570 C   0  0  0  0  0  0  0  0  0  0  0  0
   -0.9250    1.5570    3.0380 C   0  0  0  0  0  0  0  0  0  0  0  0
   -0.2740    0.2240    3.3790 C   0  0  2  0  0  0  0  0  0  0  0  0
    0.0040   -0.5370    2.1680 N   0  0  0  0  0  0  0  0  0  0  0  0
   -1.2460   -0.5330    4.1910 C   0  0  0  0  0  0  0  0  0  0  0  0
   -1.6240   -0.0550    5.2780 O   0  0  0  0  0  0  0  0  0  0  0  0
   -1.7480   -1.7480    3.7840 O   0  0  0  0  0  0  0  0  0  0  0  0
   -0.1170    5.6690    1.3780 H   0  0  0  0  0  0  0  0  0  0  0  0
    0.3210    4.4330    0.1310 H   0  0  0  0  0  0  0  0  0  0  0  0
    0.9320    2.6420    2.6550 H   0  0  0  0  0  0  0  0  0  0  0  0
    0.2580    1.8410    1.2260 H   0  0  0  0  0  0  0  0  0  0  0  0
   -1.8940    1.3910    2.5310 H   0  0  0  0  0  0  0  0  0  0  0  0
   -1.1340    2.1450    3.9530 H   0  0  0  0  0  0  0  0  0  0  0  0
    0.6330    0.3530    3.9820 H   0  0  0  0  0  0  0  0  0  0  0  0
   -0.7690   -0.7360    1.4990 H   0  0  0  0  0  0  0  0  0  0  0  0
  1  2  1  0  0  0  0
  1  5  1  0  0  0  0
  1  6  1  0  0  0  0
  2  7  1  0  0  0  0
  2  3  1  0  0  0  0
  3  9  1  0  0  0  0
  3  4  2  0  0  0  0
  8  2  1  0  0  0  0
  9 10  1  0  0  0  0
 10 19  1  1  0  0  0
 10 15  1  0  0  0  0
 11 20  1  0  0  0  0
 11 10  1  0  0  0  0
 12 23  1  0  0  0  0
 12 11  1  0  0  0  0
 13 17  1  0  0  0  0
 13 12  1  0  0  0  0
 14 13  2  0  0  0  0
 15 31  1  0  0  0  0
 15 16  2  0  0  0  0
 18  9  1  0  0  0  0
 21 11  1  0  0  0  0
 22 12  1  0  0  0  0
 24 17  1  0  0  0  0
 25 35  1  0  0  0  0
 25 26  1  0  0  0  0
 26 28  1  0  0  0  0
 26 27  2  0  0  0  0
 28 37  1  0  0  0  0
 28 29  1  0  0  0  0
 29 30  1  0  0  0  0
 29 40  1  0  0  0  0
 30 41  1  1  0  0  0
 30 32  1  0  0  0  0
 31 30  1  0  0  0  0
 32 33  1  0  0  0  0
 34 32  2  0  0  0  0
 36 25  1  0  0  0  0
 38 28  1  0  0  0  0
 39 29  1  0  0  0  0
 42 31  1  0  0  0  0
M  END
$$$$
