GET.pdb
 OpenBabel07022418223D

 39 38  0  0  1  0  0  0  0  0999 V2000
   -2.1070   -3.2720    1.9390 N   0  0  0  0  0  0  0  0  0  0  0  0
   -1.6570   -3.9150    0.7250 C   0  0  0  0  0  0  0  0  0  0  0  0
   -0.9550   -2.9450   -0.1720 C   0  0  0  0  0  0  0  0  0  0  0  0
   -0.4970   -3.3370   -1.2760 O   0  0  0  0  0  0  0  0  0  0  0  0
   -1.2780   -2.9000    2.4420 H   0  0  0  0  0  0  0  0  0  0  0  0
   -2.7640   -2.5190    1.7070 H   0  0  0  0  0  0  0  0  0  0  0  0
   -0.9210   -4.6970    1.0100 H   0  0  0  0  0  0  0  0  0  0  0  0
   -2.5110   -4.3980    0.1940 H   0  0  0  0  0  0  0  0  0  0  0  0
   -0.8070   -1.5880    0.2220 N   0  0  0  0  0  0  0  0  0  0  0  0
   -0.1350   -0.6650   -0.6380 C   0  0  1  0  0  0  0  0  0  0  0  0
   -1.0910    0.4430   -1.0900 C   0  0  0  0  0  0  0  0  0  0  0  0
   -2.2570   -0.1060   -1.8350 C   0  0  0  0  0  0  0  0  0  0  0  0
   -3.1450    0.9980   -2.2480 C   0  0  0  0  0  0  0  0  0  0  0  0
   -2.8400    2.1700   -1.9480 O   0  0  0  0  0  0  0  0  0  0  0  0
    1.0660   -0.0580    0.0050 C   0  0  0  0  0  0  0  0  0  0  0  0
    1.7550    0.7750   -0.6390 O   0  0  0  0  0  0  0  0  0  0  0  0
   -4.3110    0.7850   -2.9590 O   0  0  0  0  0  0  0  0  0  0  0  0
   -1.2120   -1.3130    1.1620 H   0  0  0  0  0  0  0  0  0  0  0  0
    0.1910   -1.1810   -1.5450 H   0  0  0  0  0  0  0  0  0  0  0  0
   -0.5020    1.0690   -1.7920 H   0  0  0  0  0  0  0  0  0  0  0  0
   -1.3830    1.0860   -0.2530 H   0  0  0  0  0  0  0  0  0  0  0  0
   -2.8390   -0.8590   -1.2460 H   0  0  0  0  0  0  0  0  0  0  0  0
   -1.8740   -0.6560   -2.7400 H   0  0  0  0  0  0  0  0  0  0  0  0
   -4.8600    1.5300   -3.3820 H   0  0  0  0  0  0  0  0  0  0  0  0
    3.5610    1.7570    3.6080 C   0  0  0  0  0  0  0  0  0  0  0  0
    2.2760    1.0710    3.1380 C   0  0  1  0  0  0  0  0  0  0  0  0
    1.4460    2.0940    2.6750 O   0  0  0  0  0  0  0  0  0  0  0  0
    2.6490    0.2150    1.9560 C   0  0  2  0  0  0  0  0  0  0  0  0
    1.4840   -0.3680    1.3180 N   0  0  0  0  0  0  0  0  0  0  0  0
    3.6700   -0.7860    2.2860 C   0  0  0  0  0  0  0  0  0  0  0  0
    4.7330   -0.4230    2.8420 O   0  0  0  0  0  0  0  0  0  0  0  0
    3.5050   -2.1300    2.0060 O   0  0  0  0  0  0  0  0  0  0  0  0
    3.3390    2.7830    3.9810 H   0  0  0  0  0  0  0  0  0  0  0  0
    4.0600    1.1800    4.4050 H   0  0  0  0  0  0  0  0  0  0  0  0
    4.2680    1.8800    2.7610 H   0  0  0  0  0  0  0  0  0  0  0  0
    1.8200    0.4560    3.9150 H   0  0  0  0  0  0  0  0  0  0  0  0
    1.9940    2.8400    2.3280 H   0  0  0  0  0  0  0  0  0  0  0  0
    3.0890    0.9170    1.1870 H   0  0  0  0  0  0  0  0  0  0  0  0
    0.9330   -1.0530    1.8750 H   0  0  0  0  0  0  0  0  0  0  0  0
  1  5  1  0  0  0  0
  2  7  1  0  0  0  0
  2  1  1  0  0  0  0
  3  9  1  0  0  0  0
  3  2  1  0  0  0  0
  4  3  2  0  0  0  0
  6  1  1  0  0  0  0
  8  2  1  0  0  0  0
  9 18  1  0  0  0  0
 10 19  1  6  0  0  0
 10 15  1  0  0  0  0
 10  9  1  0  0  0  0
 11 10  1  0  0  0  0
 11 21  1  0  0  0  0
 12 22  1  0  0  0  0
 12 11  1  0  0  0  0
 13 14  2  0  0  0  0
 13 12  1  0  0  0  0
 15 29  1  0  0  0  0
 16 15  2  0  0  0  0
 17 13  1  0  0  0  0
 20 11  1  0  0  0  0
 23 12  1  0  0  0  0
 24 17  1  0  0  0  0
 25 33  1  0  0  0  0
 25 34  1  0  0  0  0
 26 25  1  0  0  0  0
 26 36  1  1  0  0  0
 27 26  1  0  0  0  0
 28 38  1  6  0  0  0
 28 30  1  0  0  0  0
 28 26  1  0  0  0  0
 29 39  1  0  0  0  0
 29 28  1  0  0  0  0
 30 31  1  0  0  0  0
 32 30  2  0  0  0  0
 35 25  1  0  0  0  0
 37 27  1  0  0  0  0
M  END
$$$$
