GEV.pdb
 OpenBabel07022418223D

 41 40  0  0  1  0  0  0  0  0999 V2000
    0.6030   -6.2880    2.2220 N   0  0  0  0  0  0  0  0  0  0  0  0
   -0.3550   -5.3620    1.6390 C   0  0  0  0  0  0  0  0  0  0  0  0
    0.3750   -4.1490    1.1650 C   0  0  0  0  0  0  0  0  0  0  0  0
    1.6420   -4.0560    1.3060 O   0  0  0  0  0  0  0  0  0  0  0  0
    0.0950   -7.0410    2.7270 H   0  0  0  0  0  0  0  0  0  0  0  0
    1.1650   -5.7730    2.9280 H   0  0  0  0  0  0  0  0  0  0  0  0
   -1.0220   -5.0300    2.4690 H   0  0  0  0  0  0  0  0  0  0  0  0
   -0.9110   -5.8480    0.8130 H   0  0  0  0  0  0  0  0  0  0  0  0
   -0.2630   -3.0670    0.5530 N   0  0  0  0  0  0  0  0  0  0  0  0
    0.4440   -1.8540    0.0760 C   0  0  1  0  0  0  0  0  0  0  0  0
    0.2590   -1.8980   -1.4140 C   0  0  0  0  0  0  0  0  0  0  0  0
    0.8750   -0.8060   -2.2010 C   0  0  0  0  0  0  0  0  0  0  0  0
    2.3520   -0.7180   -2.0550 C   0  0  0  0  0  0  0  0  0  0  0  0
    2.9310    0.1990   -2.6970 O   0  0  0  0  0  0  0  0  0  0  0  0
   -0.1260   -0.6580    0.6870 C   0  0  0  0  0  0  0  0  0  0  0  0
   -1.1600   -0.8080    1.4330 O   0  0  0  0  0  0  0  0  0  0  0  0
    3.1240   -1.5500   -1.2850 O   0  0  0  0  0  0  0  0  0  0  0  0
   -1.2880   -3.0640    0.4020 H   0  0  0  0  0  0  0  0  0  0  0  0
    1.5000   -2.0390    0.3170 H   0  0  0  0  0  0  0  0  0  0  0  0
   -0.8530   -1.8610   -1.5990 H   0  0  0  0  0  0  0  0  0  0  0  0
    0.5790   -2.8770   -1.8340 H   0  0  0  0  0  0  0  0  0  0  0  0
    0.3500    0.1460   -2.1120 H   0  0  0  0  0  0  0  0  0  0  0  0
    0.7330   -1.0980   -3.2930 H   0  0  0  0  0  0  0  0  0  0  0  0
    4.1390   -1.6580   -1.4180 H   0  0  0  0  0  0  0  0  0  0  0  0
   -0.1460    3.6040    2.8690 C   0  0  0  0  0  0  0  0  0  0  0  0
    0.5980    2.4640    2.2290 C   0  0  0  0  0  0  0  0  0  0  0  0
    1.1170    1.5200    3.2580 C   0  0  0  0  0  0  0  0  0  0  0  0
   -0.3400    1.7930    1.2360 C   0  0  2  0  0  0  0  0  0  0  0  0
    0.3100    0.6770    0.5750 N   0  0  0  0  0  0  0  0  0  0  0  0
   -0.6500    2.8130    0.2190 C   0  0  0  0  0  0  0  0  0  0  0  0
   -1.2260    3.9060    0.4790 O   0  0  0  0  0  0  0  0  0  0  0  0
   -0.3050    2.5890   -1.0970 O   0  0  0  0  0  0  0  0  0  0  0  0
   -1.2350    3.4260    2.9290 H   0  0  0  0  0  0  0  0  0  0  0  0
    0.1880    3.7320    3.9400 H   0  0  0  0  0  0  0  0  0  0  0  0
    0.0050    4.5730    2.3530 H   0  0  0  0  0  0  0  0  0  0  0  0
    1.4370    2.8930    1.6220 H   0  0  0  0  0  0  0  0  0  0  0  0
    1.5630    2.1120    4.0840 H   0  0  0  0  0  0  0  0  0  0  0  0
    0.2380    0.9840    3.7050 H   0  0  0  0  0  0  0  0  0  0  0  0
    1.8800    0.8240    2.8680 H   0  0  0  0  0  0  0  0  0  0  0  0
   -1.2300    1.4610    1.8120 H   0  0  0  0  0  0  0  0  0  0  0  0
    1.1410    0.8670   -0.0030 H   0  0  0  0  0  0  0  0  0  0  0  0
  1  5  1  0  0  0  0
  1  6  1  0  0  0  0
  2  1  1  0  0  0  0
  2  7  1  0  0  0  0
  3  4  2  0  0  0  0
  3  2  1  0  0  0  0
  8  2  1  0  0  0  0
  9  3  1  0  0  0  0
 10 19  1  1  0  0  0
 10  9  1  0  0  0  0
 10 15  1  0  0  0  0
 11 10  1  0  0  0  0
 12 22  1  0  0  0  0
 12 13  1  0  0  0  0
 12 11  1  0  0  0  0
 13 17  1  0  0  0  0
 14 13  2  0  0  0  0
 15 16  2  0  0  0  0
 18  9  1  0  0  0  0
 20 11  1  0  0  0  0
 21 11  1  0  0  0  0
 23 12  1  0  0  0  0
 24 17  1  0  0  0  0
 25 33  1  0  0  0  0
 25 34  1  0  0  0  0
 26 25  1  0  0  0  0
 26 27  1  0  0  0  0
 27 38  1  0  0  0  0
 27 37  1  0  0  0  0
 28 40  1  1  0  0  0
 28 26  1  0  0  0  0
 29 15  1  0  0  0  0
 29 28  1  0  0  0  0
 30 31  1  0  0  0  0
 30 28  1  0  0  0  0
 32 30  2  0  0  0  0
 35 25  1  0  0  0  0
 36 26  1  0  0  0  0
 39 27  1  0  0  0  0
 41 29  1  0  0  0  0
M  END
$$$$
