GEW.pdb
 OpenBabel07022418223D

 49 50  0  0  1  0  0  0  0  0999 V2000
   -1.7880    1.9780    4.4840 N   0  0  0  0  0  0  0  0  0  0  0  0
   -0.5650    1.2920    4.8250 C   0  0  0  0  0  0  0  0  0  0  0  0
    0.2600    1.0120    3.6020 C   0  0  0  0  0  0  0  0  0  0  0  0
    1.3350    0.4250    3.7780 O   0  0  0  0  0  0  0  0  0  0  0  0
   -2.2380    2.2650    5.3810 H   0  0  0  0  0  0  0  0  0  0  0  0
   -2.4470    1.2730    4.0520 H   0  0  0  0  0  0  0  0  0  0  0  0
   -0.8600    0.2810    5.2090 H   0  0  0  0  0  0  0  0  0  0  0  0
    0.0150    1.7700    5.6190 H   0  0  0  0  0  0  0  0  0  0  0  0
   -0.1530    1.3900    2.3100 N   0  0  0  0  0  0  0  0  0  0  0  0
    0.5940    1.1410    1.1000 C   0  0  1  0  0  0  0  0  0  0  0  0
    1.7230    2.0820    0.9090 C   0  0  0  0  0  0  0  0  0  0  0  0
    1.1930    3.4980    0.8360 C   0  0  0  0  0  0  0  0  0  0  0  0
    0.2520    3.5600   -0.3310 C   0  0  0  0  0  0  0  0  0  0  0  0
    0.6920    3.6390   -1.5120 O   0  0  0  0  0  0  0  0  0  0  0  0
    0.9200   -0.2800    1.0020 C   0  0  0  0  0  0  0  0  0  0  0  0
    0.5030   -1.0670    1.8760 O   0  0  0  0  0  0  0  0  0  0  0  0
   -1.1270    3.5320   -0.1730 O   0  0  0  0  0  0  0  0  0  0  0  0
   -1.0930    1.8950    2.2780 H   0  0  0  0  0  0  0  0  0  0  0  0
   -0.1410    1.3170    0.2380 H   0  0  0  0  0  0  0  0  0  0  0  0
    2.3650    2.0470    1.8360 H   0  0  0  0  0  0  0  0  0  0  0  0
    2.3400    1.9130    0.0330 H   0  0  0  0  0  0  0  0  0  0  0  0
    2.0510    4.1840    0.5750 H   0  0  0  0  0  0  0  0  0  0  0  0
    0.7080    3.8230    1.7610 H   0  0  0  0  0  0  0  0  0  0  0  0
   -1.7470    4.0100   -0.8090 H   0  0  0  0  0  0  0  0  0  0  0  0
    1.7030   -0.8340   -0.0540 N   0  0  0  0  0  0  0  0  0  0  0  0
    2.0320   -2.2190   -0.1680 C   0  0  1  0  0  0  0  0  0  0  0  0
    1.5210   -2.8150   -1.4870 C   0  0  0  0  0  0  0  0  0  0  0  0
    0.0450   -2.6900   -1.5760 C   0  0  0  0  0  0  0  0  0  0  0  0
   -0.6210   -1.7770   -2.3440 C   0  0  0  0  0  0  0  0  0  0  0  0
   -1.9310   -1.9750   -2.1590 N   0  0  0  0  0  0  0  0  0  0  0  0
   -2.1270   -2.9860   -1.2960 C   0  0  0  0  0  0  0  0  0  0  0  0
   -3.2970   -3.5590   -0.7930 C   0  0  0  0  0  0  0  0  0  0  0  0
   -3.1910   -4.6060    0.0970 C   0  0  0  0  0  0  0  0  0  0  0  0
   -1.9460   -5.0780    0.4820 C   0  0  0  0  0  0  0  0  0  0  0  0
   -0.7990   -4.4950   -0.0290 C   0  0  0  0  0  0  0  0  0  0  0  0
   -0.8880   -3.4480   -0.9190 C   0  0  0  0  0  0  0  0  0  0  0  0
    3.5020   -2.3960   -0.1850 C   0  0  0  0  0  0  0  0  0  0  0  0
    4.0550   -3.5210   -0.2780 O   0  0  0  0  0  0  0  0  0  0  0  0
    4.2950   -1.2640   -0.0940 O   0  0  0  0  0  0  0  0  0  0  0  0
    2.0360   -0.1510   -0.7700 H   0  0  0  0  0  0  0  0  0  0  0  0
    1.6330   -2.8330    0.6670 H   0  0  0  0  0  0  0  0  0  0  0  0
    2.0430   -2.3830   -2.3440 H   0  0  0  0  0  0  0  0  0  0  0  0
    1.7750   -3.8940   -1.4450 H   0  0  0  0  0  0  0  0  0  0  0  0
   -0.2390   -1.0060   -3.0060 H   0  0  0  0  0  0  0  0  0  0  0  0
   -2.7350   -1.4540   -2.5920 H   0  0  0  0  0  0  0  0  0  0  0  0
   -4.2850   -3.1870   -1.0970 H   0  0  0  0  0  0  0  0  0  0  0  0
   -4.0940   -5.0700    0.5030 H   0  0  0  0  0  0  0  0  0  0  0  0
   -1.8580   -5.8940    1.1750 H   0  0  0  0  0  0  0  0  0  0  0  0
    0.1850   -4.8350    0.2480 H   0  0  0  0  0  0  0  0  0  0  0  0
  1  2  1  0  0  0  0
  1  5  1  0  0  0  0
  2  7  1  0  0  0  0
  2  8  1  0  0  0  0
  3  4  2  0  0  0  0
  3  2  1  0  0  0  0
  6  1  1  0  0  0  0
  9  3  1  0  0  0  0
 10 19  1  6  0  0  0
 10  9  1  0  0  0  0
 11 10  1  0  0  0  0
 11 20  1  0  0  0  0
 12 11  1  0  0  0  0
 12 23  1  0  0  0  0
 13 17  1  0  0  0  0
 13 12  1  0  0  0  0
 14 13  2  0  0  0  0
 15 10  1  0  0  0  0
 15 16  2  0  0  0  0
 18  9  1  0  0  0  0
 21 11  1  0  0  0  0
 22 12  1  0  0  0  0
 24 17  1  0  0  0  0
 25 15  1  0  0  0  0
 26 25  1  0  0  0  0
 26 41  1  1  0  0  0
 27 43  1  0  0  0  0
 27 26  1  0  0  0  0
 28 27  1  0  0  0  0
 28 36  1  0  0  0  0
 29 30  1  0  0  0  0
 29 28  2  0  0  0  0
 30 31  1  0  0  0  0
 31 36  2  0  0  0  0
 31 32  1  0  0  0  0
 32 33  2  0  0  0  0
 33 34  1  0  0  0  0
 33 47  1  0  0  0  0
 34 48  1  0  0  0  0
 35 49  1  0  0  0  0
 35 34  2  0  0  0  0
 36 35  1  0  0  0  0
 37 26  1  0  0  0  0
 37 39  1  0  0  0  0
 38 37  2  0  0  0  0
 40 25  1  0  0  0  0
 42 27  1  0  0  0  0
 44 29  1  0  0  0  0
 45 30  1  0  0  0  0
 46 32  1  0  0  0  0
M  END
$$$$
