GEY.pdb
 OpenBabel07022418223D

 46 46  0  0  1  0  0  0  0  0999 V2000
    3.9130   -0.1260    2.9090 N   0  0  0  0  0  0  0  0  0  0  0  0
    2.8820    0.6850    2.3410 C   0  0  0  0  0  0  0  0  0  0  0  0
    2.4580    0.1730    0.9880 C   0  0  0  0  0  0  0  0  0  0  0  0
    3.0250   -0.8480    0.5390 O   0  0  0  0  0  0  0  0  0  0  0  0
    4.3860   -0.6750    2.1370 H   0  0  0  0  0  0  0  0  0  0  0  0
    3.4630   -0.8530    3.5130 H   0  0  0  0  0  0  0  0  0  0  0  0
    3.1600    1.7490    2.2960 H   0  0  0  0  0  0  0  0  0  0  0  0
    1.9660    0.6260    2.9760 H   0  0  0  0  0  0  0  0  0  0  0  0
    1.4490    0.8180    0.2360 N   0  0  0  0  0  0  0  0  0  0  0  0
    0.9620    0.4680   -1.0530 C   0  0  1  0  0  0  0  0  0  0  0  0
    1.8650   -0.4540   -1.8590 C   0  0  0  0  0  0  0  0  0  0  0  0
    3.1910    0.1500   -2.2030 C   0  0  0  0  0  0  0  0  0  0  0  0
    3.9850   -0.8570   -2.9460 C   0  0  0  0  0  0  0  0  0  0  0  0
    3.5170   -1.9880   -3.1860 O   0  0  0  0  0  0  0  0  0  0  0  0
   -0.4150   -0.0040   -1.1370 C   0  0  0  0  0  0  0  0  0  0  0  0
   -0.9070   -0.3330   -2.2720 O   0  0  0  0  0  0  0  0  0  0  0  0
    5.2570   -0.5480   -3.3820 O   0  0  0  0  0  0  0  0  0  0  0  0
    1.0320    1.6710    0.7400 H   0  0  0  0  0  0  0  0  0  0  0  0
    1.0700    1.4360   -1.6720 H   0  0  0  0  0  0  0  0  0  0  0  0
    1.9740   -1.4540   -1.4440 H   0  0  0  0  0  0  0  0  0  0  0  0
    1.3210   -0.5770   -2.8440 H   0  0  0  0  0  0  0  0  0  0  0  0
    3.0160    0.9810   -2.9730 H   0  0  0  0  0  0  0  0  0  0  0  0
    3.7300    0.6350   -1.4040 H   0  0  0  0  0  0  0  0  0  0  0  0
    5.7060   -1.0540   -4.1560 H   0  0  0  0  0  0  0  0  0  0  0  0
   -1.7620   -1.4860    6.2560 O   0  0  0  0  0  0  0  0  0  0  0  0
   -1.9640   -1.5890    4.8790 C   0  0  0  0  0  0  0  0  0  0  0  0
   -0.9650   -1.9400    4.0260 C   0  0  0  0  0  0  0  0  0  0  0  0
   -1.2370   -2.0230    2.6700 C   0  0  0  0  0  0  0  0  0  0  0  0
   -2.4830   -1.7630    2.1540 C   0  0  0  0  0  0  0  0  0  0  0  0
   -2.7840   -1.8460    0.7360 C   0  0  0  0  0  0  0  0  0  0  0  0
   -2.5770   -0.5620   -0.0260 C   0  0  2  0  0  0  0  0  0  0  0  0
   -1.2120   -0.0960    0.0460 N   0  0  0  0  0  0  0  0  0  0  0  0
   -3.5450    0.4900    0.3780 C   0  0  0  0  0  0  0  0  0  0  0  0
   -4.7810    0.2530    0.3730 O   0  0  0  0  0  0  0  0  0  0  0  0
   -3.4820   -1.4100    3.0340 C   0  0  0  0  0  0  0  0  0  0  0  0
   -3.2210   -1.3220    4.4030 C   0  0  0  0  0  0  0  0  0  0  0  0
   -3.1640    1.7650    0.7750 O   0  0  0  0  0  0  0  0  0  0  0  0
   -1.9560   -0.5720    6.6700 H   0  0  0  0  0  0  0  0  0  0  0  0
    0.0130   -2.1430    4.4360 H   0  0  0  0  0  0  0  0  0  0  0  0
   -0.4490   -2.2970    2.0180 H   0  0  0  0  0  0  0  0  0  0  0  0
   -2.1340   -2.6090    0.2720 H   0  0  0  0  0  0  0  0  0  0  0  0
   -3.8580   -2.1220    0.6130 H   0  0  0  0  0  0  0  0  0  0  0  0
   -2.7880   -0.7880   -1.0900 H   0  0  0  0  0  0  0  0  0  0  0  0
   -0.7490    0.1890    0.9410 H   0  0  0  0  0  0  0  0  0  0  0  0
   -4.4960   -1.1850    2.7350 H   0  0  0  0  0  0  0  0  0  0  0  0
   -4.0070   -1.0460    5.0790 H   0  0  0  0  0  0  0  0  0  0  0  0
  1  6  1  0  0  0  0
  2  1  1  0  0  0  0
  2  8  1  0  0  0  0
  3  2  1  0  0  0  0
  4  3  2  0  0  0  0
  5  1  1  0  0  0  0
  7  2  1  0  0  0  0
  9 18  1  0  0  0  0
  9  3  1  0  0  0  0
 10 19  1  6  0  0  0
 10  9  1  0  0  0  0
 11 20  1  0  0  0  0
 11 10  1  0  0  0  0
 12 11  1  0  0  0  0
 12 23  1  0  0  0  0
 13 12  1  0  0  0  0
 14 13  2  0  0  0  0
 15 10  1  0  0  0  0
 15 32  1  0  0  0  0
 16 15  2  0  0  0  0
 17 13  1  0  0  0  0
 21 11  1  0  0  0  0
 22 12  1  0  0  0  0
 24 17  1  0  0  0  0
 25 38  1  0  0  0  0
 26 25  1  0  0  0  0
 27 39  1  0  0  0  0
 27 26  2  0  0  0  0
 28 27  1  0  0  0  0
 29 28  2  0  0  0  0
 29 35  1  0  0  0  0
 30 29  1  0  0  0  0
 31 43  1  6  0  0  0
 31 32  1  0  0  0  0
 31 33  1  0  0  0  0
 31 30  1  0  0  0  0
 32 44  1  0  0  0  0
 33 37  1  0  0  0  0
 34 33  2  0  0  0  0
 35 36  2  0  0  0  0
 36 26  1  0  0  0  0
 36 46  1  0  0  0  0
 40 28  1  0  0  0  0
 41 30  1  0  0  0  0
 42 30  1  0  0  0  0
 45 35  1  0  0  0  0
M  END
$$$$
