GFA.pdb
 OpenBabel07022418243D

 39 39  0  0  1  0  0  0  0  0999 V2000
   -2.1410   -3.3330    0.3150 N   0  0  0  0  0  0  0  0  0  0  0  0
   -1.5090   -3.9630    1.4370 C   0  0  0  0  0  0  0  0  0  0  0  0
   -0.2520   -3.2790    1.8380 C   0  0  0  0  0  0  0  0  0  0  0  0
    0.4080   -3.7240    2.8080 O   0  0  0  0  0  0  0  0  0  0  0  0
   -2.7570   -2.5220    0.5950 H   0  0  0  0  0  0  0  0  0  0  0  0
   -1.5160   -3.1080   -0.4710 H   0  0  0  0  0  0  0  0  0  0  0  0
   -2.1940   -3.9320    2.2990 H   0  0  0  0  0  0  0  0  0  0  0  0
   -1.3150   -5.0210    1.1590 H   0  0  0  0  0  0  0  0  0  0  0  0
    0.2340   -2.1340    1.1610 N   0  0  0  0  0  0  0  0  0  0  0  0
    1.4600   -1.5370    1.6200 C   0  0  1  0  0  0  0  0  0  0  0  0
    2.5280   -1.5370    0.5520 C   0  0  0  0  0  0  0  0  0  0  0  0
    2.1500   -0.7980   -0.6660 C   0  0  0  0  0  0  0  0  0  0  0  0
    1.4990   -1.4770   -1.6690 C   0  0  0  0  0  0  0  0  0  0  0  0
    1.1160   -0.8470   -2.8450 C   0  0  0  0  0  0  0  0  0  0  0  0
    1.4150    0.4880   -2.9640 C   0  0  0  0  0  0  0  0  0  0  0  0
    2.0670    1.1860   -1.9710 C   0  0  0  0  0  0  0  0  0  0  0  0
    2.4290    0.5270   -0.8240 C   0  0  0  0  0  0  0  0  0  0  0  0
    1.2290   -0.1320    2.0380 C   0  0  0  0  0  0  0  0  0  0  0  0
    2.1270    0.6110    2.4910 O   0  0  0  0  0  0  0  0  0  0  0  0
   -0.2610   -1.7270    0.3640 H   0  0  0  0  0  0  0  0  0  0  0  0
    1.8850   -2.0910    2.4970 H   0  0  0  0  0  0  0  0  0  0  0  0
    3.4580   -1.1280    0.9640 H   0  0  0  0  0  0  0  0  0  0  0  0
    2.7280   -2.5900    0.2680 H   0  0  0  0  0  0  0  0  0  0  0  0
    1.2620   -2.5390   -1.5730 H   0  0  0  0  0  0  0  0  0  0  0  0
    0.6010   -1.3760   -3.6430 H   0  0  0  0  0  0  0  0  0  0  0  0
    1.1330    1.0300   -3.8740 H   0  0  0  0  0  0  0  0  0  0  0  0
    2.2920    2.2640   -2.1030 H   0  0  0  0  0  0  0  0  0  0  0  0
    2.9400    1.1160   -0.0720 H   0  0  0  0  0  0  0  0  0  0  0  0
   -0.9400    2.6320    1.1980 C   0  0  0  0  0  0  0  0  0  0  0  0
   -0.3500    1.8020    2.3310 C   0  0  2  0  0  0  0  0  0  0  0  0
   -0.0810    0.4520    1.9390 N   0  0  0  0  0  0  0  0  0  0  0  0
   -1.3590    1.7880    3.4140 C   0  0  0  0  0  0  0  0  0  0  0  0
   -1.8050    0.6860    3.8100 O   0  0  0  0  0  0  0  0  0  0  0  0
   -1.8370    2.9540    4.0170 O   0  0  0  0  0  0  0  0  0  0  0  0
   -1.6740    3.3350    1.5970 H   0  0  0  0  0  0  0  0  0  0  0  0
   -0.1750    3.0650    0.5470 H   0  0  0  0  0  0  0  0  0  0  0  0
   -1.5210    1.8990    0.5680 H   0  0  0  0  0  0  0  0  0  0  0  0
    0.5700    2.3180    2.7120 H   0  0  0  0  0  0  0  0  0  0  0  0
   -0.8250   -0.1730    1.5610 H   0  0  0  0  0  0  0  0  0  0  0  0
  1  5  1  0  0  0  0
  1  2  1  0  0  0  0
  2  3  1  0  0  0  0
  2  7  1  0  0  0  0
  3  4  2  0  0  0  0
  6  1  1  0  0  0  0
  8  2  1  0  0  0  0
  9 10  1  0  0  0  0
  9  3  1  0  0  0  0
 10 18  1  0  0  0  0
 10 21  1  1  0  0  0
 11 22  1  0  0  0  0
 11 10  1  0  0  0  0
 12 11  1  0  0  0  0
 13 24  1  0  0  0  0
 13 12  2  0  0  0  0
 14 13  1  0  0  0  0
 15 14  2  0  0  0  0
 15 16  1  0  0  0  0
 16 17  2  0  0  0  0
 17 12  1  0  0  0  0
 17 28  1  0  0  0  0
 18 19  2  0  0  0  0
 20  9  1  0  0  0  0
 23 11  1  0  0  0  0
 25 14  1  0  0  0  0
 26 15  1  0  0  0  0
 27 16  1  0  0  0  0
 29 35  1  0  0  0  0
 29 30  1  0  0  0  0
 30 38  1  1  0  0  0
 30 32  1  0  0  0  0
 31 18  1  0  0  0  0
 31 30  1  0  0  0  0
 32 33  2  0  0  0  0
 32 34  1  0  0  0  0
 36 29  1  0  0  0  0
 37 29  1  0  0  0  0
 39 31  1  0  0  0  0
M  END
$$$$
