GFD.pdb
 OpenBabel07022418243D

 42 42  0  0  1  0  0  0  0  0999 V2000
   -3.6000   -3.5840    0.9170 N   0  0  0  0  0  0  0  0  0  0  0  0
   -2.6730   -4.1080   -0.0450 C   0  0  0  0  0  0  0  0  0  0  0  0
   -1.5610   -3.2080   -0.3500 C   0  0  0  0  0  0  0  0  0  0  0  0
   -0.7020   -3.6260   -1.1900 O   0  0  0  0  0  0  0  0  0  0  0  0
   -3.6490   -4.1560    1.7900 H   0  0  0  0  0  0  0  0  0  0  0  0
   -4.5070   -3.2770    0.5630 H   0  0  0  0  0  0  0  0  0  0  0  0
   -3.2540   -4.3250   -0.9820 H   0  0  0  0  0  0  0  0  0  0  0  0
   -2.3330   -5.1070    0.2970 H   0  0  0  0  0  0  0  0  0  0  0  0
   -1.3410   -1.9170    0.1920 N   0  0  0  0  0  0  0  0  0  0  0  0
   -0.1800   -1.1310   -0.2000 C   0  0  1  0  0  0  0  0  0  0  0  0
   -0.6380    0.0740   -0.9940 C   0  0  0  0  0  0  0  0  0  0  0  0
    0.4800    0.9300   -1.4280 C   0  0  0  0  0  0  0  0  0  0  0  0
    1.1330    0.6820   -2.6260 C   0  0  0  0  0  0  0  0  0  0  0  0
    2.1790    1.4870   -3.0590 C   0  0  0  0  0  0  0  0  0  0  0  0
    2.5890    2.5500   -2.3040 C   0  0  0  0  0  0  0  0  0  0  0  0
    1.9640    2.8210   -1.1150 C   0  0  0  0  0  0  0  0  0  0  0  0
    0.9210    2.0130   -0.6890 C   0  0  0  0  0  0  0  0  0  0  0  0
    0.6530   -0.7300    0.9890 C   0  0  0  0  0  0  0  0  0  0  0  0
    1.7280   -0.1570    0.7630 O   0  0  0  0  0  0  0  0  0  0  0  0
   -2.0470   -1.5700    0.8720 H   0  0  0  0  0  0  0  0  0  0  0  0
    0.4390   -1.7280   -0.8910 H   0  0  0  0  0  0  0  0  0  0  0  0
   -1.2070   -0.2980   -1.8690 H   0  0  0  0  0  0  0  0  0  0  0  0
   -1.3510    0.6690   -0.3820 H   0  0  0  0  0  0  0  0  0  0  0  0
    0.8080   -0.1620   -3.2260 H   0  0  0  0  0  0  0  0  0  0  0  0
    2.6970    1.2900   -4.0080 H   0  0  0  0  0  0  0  0  0  0  0  0
    3.4060    3.1850   -2.6320 H   0  0  0  0  0  0  0  0  0  0  0  0
    2.3100    3.6740   -0.5340 H   0  0  0  0  0  0  0  0  0  0  0  0
    0.4120    2.2100    0.2450 H   0  0  0  0  0  0  0  0  0  0  0  0
    0.2620   -0.9760    2.2990 N   0  0  0  0  0  0  0  0  0  0  0  0
    0.8530   -0.7340    3.5510 C   0  0  1  0  0  0  0  0  0  0  0  0
    2.0310    0.1960    3.6490 C   0  0  0  0  0  0  0  0  0  0  0  0
    3.2590   -0.2280    2.9950 C   0  0  0  0  0  0  0  0  0  0  0  0
    3.5120   -1.3990    2.6120 O   0  0  0  0  0  0  0  0  0  0  0  0
   -0.0220   -0.5620    4.7000 C   0  0  0  0  0  0  0  0  0  0  0  0
   -1.2840   -0.6480    4.6080 O   0  0  0  0  0  0  0  0  0  0  0  0
    4.2510    0.7470    2.7680 O   0  0  0  0  0  0  0  0  0  0  0  0
    0.4830   -0.2950    5.9610 O   0  0  0  0  0  0  0  0  0  0  0  0
   -0.7160   -1.4630    2.3710 H   0  0  0  0  0  0  0  0  0  0  0  0
    1.4280   -1.7580    3.7460 H   0  0  0  0  0  0  0  0  0  0  0  0
    1.7610    1.2570    3.3970 H   0  0  0  0  0  0  0  0  0  0  0  0
    2.2610    0.2450    4.7570 H   0  0  0  0  0  0  0  0  0  0  0  0
    5.2400    0.4510    2.7230 H   0  0  0  0  0  0  0  0  0  0  0  0
  1  5  1  0  0  0  0
  2  8  1  0  0  0  0
  2  1  1  0  0  0  0
  3  2  1  0  0  0  0
  3  9  1  0  0  0  0
  4  3  2  0  0  0  0
  6  1  1  0  0  0  0
  7  2  1  0  0  0  0
  9 20  1  0  0  0  0
 10 21  1  6  0  0  0
 10  9  1  0  0  0  0
 10 18  1  0  0  0  0
 11 23  1  0  0  0  0
 11 10  1  0  0  0  0
 12 11  1  0  0  0  0
 12 17  1  0  0  0  0
 13 12  2  0  0  0  0
 14 13  1  0  0  0  0
 14 15  2  0  0  0  0
 15 16  1  0  0  0  0
 16 17  2  0  0  0  0
 16 27  1  0  0  0  0
 17 28  1  0  0  0  0
 18 29  1  0  0  0  0
 19 18  2  0  0  0  0
 22 11  1  0  0  0  0
 24 13  1  0  0  0  0
 25 14  1  0  0  0  0
 26 15  1  0  0  0  0
 29 38  1  0  0  0  0
 29 30  1  0  0  0  0
 30 31  1  0  0  0  0
 30 39  1  1  0  0  0
 30 34  1  0  0  0  0
 31 41  1  0  0  0  0
 32 31  1  0  0  0  0
 33 32  2  0  0  0  0
 34 37  1  0  0  0  0
 35 34  2  0  0  0  0
 36 32  1  0  0  0  0
 40 31  1  0  0  0  0
 42 36  1  0  0  0  0
M  END
$$$$
