GFE.pdb
 OpenBabel07022418243D

 45 45  0  0  1  0  0  0  0  0999 V2000
    3.2250   -3.0990    0.8040 N   0  0  0  0  0  0  0  0  0  0  0  0
    3.1420   -1.7550    1.3260 C   0  0  0  0  0  0  0  0  0  0  0  0
    1.8920   -1.1120    0.7830 C   0  0  0  0  0  0  0  0  0  0  0  0
    1.1340   -1.7430    0.0150 O   0  0  0  0  0  0  0  0  0  0  0  0
    2.7170   -3.7860    1.3910 H   0  0  0  0  0  0  0  0  0  0  0  0
    4.2130   -3.3980    0.6270 H   0  0  0  0  0  0  0  0  0  0  0  0
    4.0210   -1.1330    1.0860 H   0  0  0  0  0  0  0  0  0  0  0  0
    3.0690   -1.7730    2.4490 H   0  0  0  0  0  0  0  0  0  0  0  0
    1.5520    0.2130    1.1280 N   0  0  0  0  0  0  0  0  0  0  0  0
    0.4140    0.9260    0.6790 C   0  0  1  0  0  0  0  0  0  0  0  0
    0.1810    0.9060   -0.8190 C   0  0  0  0  0  0  0  0  0  0  0  0
    1.2550    1.4960   -1.6130 C   0  0  0  0  0  0  0  0  0  0  0  0
    1.2830    2.8500   -1.8930 C   0  0  0  0  0  0  0  0  0  0  0  0
    2.3020    3.4060   -2.6580 C   0  0  0  0  0  0  0  0  0  0  0  0
    3.3080    2.6020   -3.1510 C   0  0  0  0  0  0  0  0  0  0  0  0
    3.2960    1.2500   -2.8810 C   0  0  0  0  0  0  0  0  0  0  0  0
    2.2660    0.7240   -2.1160 C   0  0  0  0  0  0  0  0  0  0  0  0
   -0.8620    0.5780    1.3420 C   0  0  0  0  0  0  0  0  0  0  0  0
   -1.8890    1.1960    0.9630 O   0  0  0  0  0  0  0  0  0  0  0  0
    2.2340    0.6900    1.7890 H   0  0  0  0  0  0  0  0  0  0  0  0
    0.6000    2.0350    0.8940 H   0  0  0  0  0  0  0  0  0  0  0  0
   -0.7360    1.5430   -0.9920 H   0  0  0  0  0  0  0  0  0  0  0  0
   -0.0600   -0.1130   -1.1530 H   0  0  0  0  0  0  0  0  0  0  0  0
    0.5210    3.5340   -1.5350 H   0  0  0  0  0  0  0  0  0  0  0  0
    2.3520    4.4600   -2.8950 H   0  0  0  0  0  0  0  0  0  0  0  0
    4.1330    2.9700   -3.7530 H   0  0  0  0  0  0  0  0  0  0  0  0
    4.0750    0.6070   -3.2590 H   0  0  0  0  0  0  0  0  0  0  0  0
    2.3340   -0.3520   -1.9590 H   0  0  0  0  0  0  0  0  0  0  0  0
   -1.0030   -0.3890    2.3580 N   0  0  0  0  0  0  0  0  0  0  0  0
   -2.2350   -0.7340    3.0080 C   0  0  1  0  0  0  0  0  0  0  0  0
   -2.4900   -2.2310    2.7880 C   0  0  0  0  0  0  0  0  0  0  0  0
   -2.5860   -2.4960    1.3030 C   0  0  0  0  0  0  0  0  0  0  0  0
   -2.8300   -3.9330    1.0910 C   0  0  0  0  0  0  0  0  0  0  0  0
   -2.9530   -4.3880   -0.0730 O   0  0  0  0  0  0  0  0  0  0  0  0
   -2.1810   -0.5190    4.4760 C   0  0  0  0  0  0  0  0  0  0  0  0
   -1.1130   -0.0800    4.9660 O   0  0  0  0  0  0  0  0  0  0  0  0
   -2.9280   -4.7940    2.1540 O   0  0  0  0  0  0  0  0  0  0  0  0
   -3.2320   -0.7720    5.3370 O   0  0  0  0  0  0  0  0  0  0  0  0
   -0.1410   -0.8990    2.6670 H   0  0  0  0  0  0  0  0  0  0  0  0
   -3.0990   -0.1510    2.6260 H   0  0  0  0  0  0  0  0  0  0  0  0
   -3.4410   -2.5140    3.3120 H   0  0  0  0  0  0  0  0  0  0  0  0
   -1.6880   -2.8200    3.2370 H   0  0  0  0  0  0  0  0  0  0  0  0
   -3.4160   -1.8680    0.8990 H   0  0  0  0  0  0  0  0  0  0  0  0
   -1.6330   -2.1380    0.8520 H   0  0  0  0  0  0  0  0  0  0  0  0
   -2.7370   -5.8060    2.0840 H   0  0  0  0  0  0  0  0  0  0  0  0
  1  2  1  0  0  0  0
  1  5  1  0  0  0  0
  2  8  1  0  0  0  0
  3  9  1  0  0  0  0
  3  2  1  0  0  0  0
  4  3  2  0  0  0  0
  6  1  1  0  0  0  0
  7  2  1  0  0  0  0
  9 20  1  0  0  0  0
 10 21  1  1  0  0  0
 10  9  1  0  0  0  0
 10 18  1  0  0  0  0
 11 10  1  0  0  0  0
 12 11  1  0  0  0  0
 13 12  1  0  0  0  0
 13 24  1  0  0  0  0
 14 13  2  0  0  0  0
 15 16  2  0  0  0  0
 15 14  1  0  0  0  0
 16 17  1  0  0  0  0
 17 28  1  0  0  0  0
 17 12  2  0  0  0  0
 18 29  1  0  0  0  0
 19 18  2  0  0  0  0
 22 11  1  0  0  0  0
 23 11  1  0  0  0  0
 25 14  1  0  0  0  0
 26 15  1  0  0  0  0
 27 16  1  0  0  0  0
 29 39  1  0  0  0  0
 29 30  1  0  0  0  0
 30 40  1  6  0  0  0
 30 35  1  0  0  0  0
 31 30  1  0  0  0  0
 31 42  1  0  0  0  0
 31 41  1  0  0  0  0
 32 31  1  0  0  0  0
 33 32  1  0  0  0  0
 33 37  1  0  0  0  0
 34 33  2  0  0  0  0
 35 36  2  0  0  0  0
 35 38  1  0  0  0  0
 43 32  1  0  0  0  0
 44 32  1  0  0  0  0
 45 37  1  0  0  0  0
M  END
$$$$
