GFF.pdb
 OpenBabel07022418243D

 49 50  0  0  1  0  0  0  0  0999 V2000
    1.8490   -4.2970    2.9200 N   0  0  0  0  0  0  0  0  0  0  0  0
    1.6640   -3.2090    3.8570 C   0  0  0  0  0  0  0  0  0  0  0  0
    1.5940   -1.9270    3.0980 C   0  0  0  0  0  0  0  0  0  0  0  0
    1.4310   -0.8380    3.7500 O   0  0  0  0  0  0  0  0  0  0  0  0
    1.0390   -4.3650    2.2670 H   0  0  0  0  0  0  0  0  0  0  0  0
    2.7470   -4.1930    2.4040 H   0  0  0  0  0  0  0  0  0  0  0  0
    0.7540   -3.3750    4.4510 H   0  0  0  0  0  0  0  0  0  0  0  0
    2.5740   -3.2050    4.5210 H   0  0  0  0  0  0  0  0  0  0  0  0
    1.7080   -1.9290    1.6850 N   0  0  0  0  0  0  0  0  0  0  0  0
    1.6360   -0.6620    0.9740 C   0  0  1  0  0  0  0  0  0  0  0  0
    2.9100   -0.3560    0.2570 C   0  0  0  0  0  0  0  0  0  0  0  0
    2.8290    0.9280   -0.4610 C   0  0  0  0  0  0  0  0  0  0  0  0
    2.4620    1.0570   -1.7780 C   0  0  0  0  0  0  0  0  0  0  0  0
    2.4080    2.3010   -2.3740 C   0  0  0  0  0  0  0  0  0  0  0  0
    2.7130    3.4590   -1.6960 C   0  0  0  0  0  0  0  0  0  0  0  0
    3.0810    3.3360   -0.3750 C   0  0  0  0  0  0  0  0  0  0  0  0
    3.1330    2.0890    0.2160 C   0  0  0  0  0  0  0  0  0  0  0  0
    0.4430   -0.6060    0.1020 C   0  0  0  0  0  0  0  0  0  0  0  0
    0.1370    0.3950   -0.5730 O   0  0  0  0  0  0  0  0  0  0  0  0
    1.8400   -2.8350    1.1810 H   0  0  0  0  0  0  0  0  0  0  0  0
    1.4940    0.1330    1.7340 H   0  0  0  0  0  0  0  0  0  0  0  0
    3.7240   -0.2370    1.0330 H   0  0  0  0  0  0  0  0  0  0  0  0
    3.2080   -1.1910   -0.4370 H   0  0  0  0  0  0  0  0  0  0  0  0
    2.2190    0.1850   -2.3430 H   0  0  0  0  0  0  0  0  0  0  0  0
    2.1190    2.3820   -3.4060 H   0  0  0  0  0  0  0  0  0  0  0  0
    2.6590    4.4170   -2.1990 H   0  0  0  0  0  0  0  0  0  0  0  0
    3.3190    4.2510    0.1520 H   0  0  0  0  0  0  0  0  0  0  0  0
    3.4260    2.0350    1.2510 H   0  0  0  0  0  0  0  0  0  0  0  0
   -0.4210   -1.7580    0.0160 N   0  0  0  0  0  0  0  0  0  0  0  0
   -1.5950   -1.8390   -0.7660 C   0  0  1  0  0  0  0  0  0  0  0  0
   -2.5370   -0.6570   -0.6840 C   0  0  0  0  0  0  0  0  0  0  0  0
   -3.0560   -0.4390    0.6800 C   0  0  0  0  0  0  0  0  0  0  0  0
   -2.5000    0.3900    1.6090 C   0  0  0  0  0  0  0  0  0  0  0  0
   -3.0150    0.5550    2.8780 C   0  0  0  0  0  0  0  0  0  0  0  0
   -4.1470   -0.1540    3.2190 C   0  0  0  0  0  0  0  0  0  0  0  0
   -4.7230   -1.0040    2.2750 C   0  0  0  0  0  0  0  0  0  0  0  0
   -4.1900   -1.1480    1.0210 C   0  0  0  0  0  0  0  0  0  0  0  0
   -1.3040   -2.1940   -2.1440 C   0  0  0  0  0  0  0  0  0  0  0  0
   -2.1720   -2.3300   -3.0440 O   0  0  0  0  0  0  0  0  0  0  0  0
    0.0230   -2.4040   -2.5270 O   0  0  0  0  0  0  0  0  0  0  0  0
   -0.1480   -2.6170    0.5880 H   0  0  0  0  0  0  0  0  0  0  0  0
   -2.2170   -2.6870   -0.3160 H   0  0  0  0  0  0  0  0  0  0  0  0
   -2.1110    0.2760   -1.1190 H   0  0  0  0  0  0  0  0  0  0  0  0
   -3.3970   -0.8980   -1.3420 H   0  0  0  0  0  0  0  0  0  0  0  0
   -1.6220    0.9590    1.3690 H   0  0  0  0  0  0  0  0  0  0  0  0
   -2.5700    1.2140    3.6140 H   0  0  0  0  0  0  0  0  0  0  0  0
   -4.5790   -0.0550    4.1950 H   0  0  0  0  0  0  0  0  0  0  0  0
   -5.6110   -1.5350    2.5990 H   0  0  0  0  0  0  0  0  0  0  0  0
   -4.6730   -1.8270    0.3070 H   0  0  0  0  0  0  0  0  0  0  0  0
  1  2  1  0  0  0  0
  2  7  1  0  0  0  0
  2  8  1  0  0  0  0
  3  4  2  0  0  0  0
  3  2  1  0  0  0  0
  5  1  1  0  0  0  0
  6  1  1  0  0  0  0
  9  3  1  0  0  0  0
 10  9  1  0  0  0  0
 10 21  1  1  0  0  0
 11 10  1  0  0  0  0
 11 22  1  0  0  0  0
 12 17  1  0  0  0  0
 12 11  1  0  0  0  0
 13 12  2  0  0  0  0
 14 13  1  0  0  0  0
 14 15  2  0  0  0  0
 15 16  1  0  0  0  0
 16 27  1  0  0  0  0
 16 17  2  0  0  0  0
 17 28  1  0  0  0  0
 18 10  1  0  0  0  0
 19 18  2  0  0  0  0
 20  9  1  0  0  0  0
 23 11  1  0  0  0  0
 24 13  1  0  0  0  0
 25 14  1  0  0  0  0
 26 15  1  0  0  0  0
 29 18  1  0  0  0  0
 29 41  1  0  0  0  0
 30 31  1  0  0  0  0
 30 42  1  1  0  0  0
 30 29  1  0  0  0  0
 31 32  1  0  0  0  0
 32 37  2  0  0  0  0
 32 33  1  0  0  0  0
 33 34  2  0  0  0  0
 34 35  1  0  0  0  0
 34 46  1  0  0  0  0
 35 47  1  0  0  0  0
 36 48  1  0  0  0  0
 36 35  2  0  0  0  0
 37 36  1  0  0  0  0
 38 30  1  0  0  0  0
 39 38  2  0  0  0  0
 40 38  1  0  0  0  0
 43 31  1  0  0  0  0
 44 31  1  0  0  0  0
 45 33  1  0  0  0  0
 49 37  1  0  0  0  0
M  END
$$$$
