GFG.pdb
 OpenBabel07022418243D

 36 36  0  0  1  0  0  0  0  0999 V2000
    1.0050   -0.6310    5.4610 N   0  0  0  0  0  0  0  0  0  0  0  0
    0.0440   -1.6630    5.2230 C   0  0  0  0  0  0  0  0  0  0  0  0
   -0.3180   -1.6970    3.7690 C   0  0  0  0  0  0  0  0  0  0  0  0
   -1.1500   -2.5270    3.3180 O   0  0  0  0  0  0  0  0  0  0  0  0
    1.8770   -0.7020    4.9270 H   0  0  0  0  0  0  0  0  0  0  0  0
    0.6030    0.3160    5.5500 H   0  0  0  0  0  0  0  0  0  0  0  0
   -0.9000   -1.3600    5.7570 H   0  0  0  0  0  0  0  0  0  0  0  0
    0.3160   -2.6410    5.6170 H   0  0  0  0  0  0  0  0  0  0  0  0
    0.2570   -0.7990    2.8340 N   0  0  0  0  0  0  0  0  0  0  0  0
   -0.0890   -0.8200    1.3950 C   0  0  1  0  0  0  0  0  0  0  0  0
   -0.5770    0.5410    1.0740 C   0  0  0  0  0  0  0  0  0  0  0  0
   -0.9890    0.8580   -0.2710 C   0  0  0  0  0  0  0  0  0  0  0  0
   -2.2350    0.6670   -0.8240 C   0  0  0  0  0  0  0  0  0  0  0  0
   -2.5610    1.0190   -2.1150 C   0  0  0  0  0  0  0  0  0  0  0  0
   -1.6180    1.5940   -2.9170 C   0  0  0  0  0  0  0  0  0  0  0  0
   -0.3590    1.8060   -2.4120 C   0  0  0  0  0  0  0  0  0  0  0  0
   -0.0420    1.4510   -1.1210 C   0  0  0  0  0  0  0  0  0  0  0  0
    1.1010   -1.1710    0.5890 C   0  0  0  0  0  0  0  0  0  0  0  0
    2.2480   -1.2620    1.1320 O   0  0  0  0  0  0  0  0  0  0  0  0
    0.9430   -0.1160    3.2100 H   0  0  0  0  0  0  0  0  0  0  0  0
   -0.8220   -1.6240    1.2760 H   0  0  0  0  0  0  0  0  0  0  0  0
    0.2220    1.2630    1.4030 H   0  0  0  0  0  0  0  0  0  0  0  0
   -1.4290    0.7730    1.7720 H   0  0  0  0  0  0  0  0  0  0  0  0
   -2.9890    0.2120   -0.1970 H   0  0  0  0  0  0  0  0  0  0  0  0
   -3.5800    0.8250   -2.4600 H   0  0  0  0  0  0  0  0  0  0  0  0
   -1.8960    1.8660   -3.9380 H   0  0  0  0  0  0  0  0  0  0  0  0
    0.3750    2.2620   -3.0600 H   0  0  0  0  0  0  0  0  0  0  0  0
    0.9700    1.6440   -0.7780 H   0  0  0  0  0  0  0  0  0  0  0  0
    1.0120   -1.4190   -0.7930 N   0  0  0  0  0  0  0  0  0  0  0  0
    2.1610   -1.7620   -1.6170 C   0  0  0  0  0  0  0  0  0  0  0  0
    2.8080   -3.0110   -1.1440 C   0  0  0  0  0  0  0  0  0  0  0  0
    2.3350   -3.6130   -0.1480 O   0  0  0  0  0  0  0  0  0  0  0  0
    3.9090   -3.5200   -1.7720 O   0  0  0  0  0  0  0  0  0  0  0  0
    0.0660   -1.3660   -1.2390 H   0  0  0  0  0  0  0  0  0  0  0  0
    2.8830   -0.9160   -1.6890 H   0  0  0  0  0  0  0  0  0  0  0  0
    1.8150   -1.9570   -2.6510 H   0  0  0  0  0  0  0  0  0  0  0  0
  1  6  1  0  0  0  0
  2  1  1  0  0  0  0
  2  8  1  0  0  0  0
  2  7  1  0  0  0  0
  3  2  1  0  0  0  0
  4  3  2  0  0  0  0
  5  1  1  0  0  0  0
  9 20  1  0  0  0  0
  9  3  1  0  0  0  0
 10 21  1  6  0  0  0
 10  9  1  0  0  0  0
 11 10  1  0  0  0  0
 11 22  1  0  0  0  0
 11 23  1  0  0  0  0
 12 11  1  0  0  0  0
 13 12  1  0  0  0  0
 13 24  1  0  0  0  0
 14 13  2  0  0  0  0
 15 16  2  0  0  0  0
 15 14  1  0  0  0  0
 16 17  1  0  0  0  0
 17 28  1  0  0  0  0
 17 12  2  0  0  0  0
 18 19  2  0  0  0  0
 18 10  1  0  0  0  0
 25 14  1  0  0  0  0
 26 15  1  0  0  0  0
 27 16  1  0  0  0  0
 29 18  1  0  0  0  0
 30 31  1  0  0  0  0
 30 29  1  0  0  0  0
 31 32  1  0  0  0  0
 33 31  2  0  0  0  0
 34 29  1  0  0  0  0
 35 30  1  0  0  0  0
 36 30  1  0  0  0  0
M  END
$$$$
