GFH.pdb
 OpenBabel07022418243D

 46 47  0  0  1  0  0  0  0  0999 V2000
    4.1750   -1.6700    3.7280 N   0  0  0  0  0  0  0  0  0  0  0  0
    3.3480   -1.8090    2.5460 C   0  0  0  0  0  0  0  0  0  0  0  0
    2.5190   -0.6070    2.3520 C   0  0  0  0  0  0  0  0  0  0  0  0
    2.6140    0.3430    3.1780 O   0  0  0  0  0  0  0  0  0  0  0  0
    4.8740   -2.4240    3.8000 H   0  0  0  0  0  0  0  0  0  0  0  0
    3.5560   -1.5930    4.5740 H   0  0  0  0  0  0  0  0  0  0  0  0
    2.6990   -2.7240    2.6680 H   0  0  0  0  0  0  0  0  0  0  0  0
    4.0420   -1.9820    1.6750 H   0  0  0  0  0  0  0  0  0  0  0  0
    1.6090   -0.4390    1.2890 N   0  0  0  0  0  0  0  0  0  0  0  0
    0.8310    0.7760    1.1700 C   0  0  1  0  0  0  0  0  0  0  0  0
    1.1660    1.4210   -0.1750 C   0  0  0  0  0  0  0  0  0  0  0  0
    2.6020    1.7470   -0.2660 C   0  0  0  0  0  0  0  0  0  0  0  0
    3.4880    0.8370   -0.7650 C   0  0  0  0  0  0  0  0  0  0  0  0
    4.8490    1.1270   -0.8590 C   0  0  0  0  0  0  0  0  0  0  0  0
    5.3460    2.3470   -0.4490 C   0  0  0  0  0  0  0  0  0  0  0  0
    4.4500    3.2670    0.0560 C   0  0  0  0  0  0  0  0  0  0  0  0
    3.0940    2.9790    0.1500 C   0  0  0  0  0  0  0  0  0  0  0  0
   -0.6260    0.4160    1.1270 C   0  0  0  0  0  0  0  0  0  0  0  0
   -1.5080    1.3070    1.0260 O   0  0  0  0  0  0  0  0  0  0  0  0
    1.4940   -1.1870    0.5860 H   0  0  0  0  0  0  0  0  0  0  0  0
    1.0510    1.4870    1.9820 H   0  0  0  0  0  0  0  0  0  0  0  0
    0.6180    2.4080   -0.2310 H   0  0  0  0  0  0  0  0  0  0  0  0
    0.7870    0.8260   -1.0130 H   0  0  0  0  0  0  0  0  0  0  0  0
    3.1090   -0.1170   -1.0870 H   0  0  0  0  0  0  0  0  0  0  0  0
    5.5590    0.4150   -1.2520 H   0  0  0  0  0  0  0  0  0  0  0  0
    6.4000    2.5790   -0.5190 H   0  0  0  0  0  0  0  0  0  0  0  0
    4.8260    4.2350    0.3840 H   0  0  0  0  0  0  0  0  0  0  0  0
    2.3940    3.7130    0.5500 H   0  0  0  0  0  0  0  0  0  0  0  0
   -1.0780   -0.9300    1.1980 N   0  0  0  0  0  0  0  0  0  0  0  0
   -2.5070   -1.2470    1.1530 C   0  0  1  0  0  0  0  0  0  0  0  0
   -2.8010   -2.0920   -0.0940 C   0  0  0  0  0  0  0  0  0  0  0  0
   -4.2400   -2.4320   -0.1720 C   0  0  0  0  0  0  0  0  0  0  0  0
   -5.1900   -1.6530   -0.8140 C   0  0  0  0  0  0  0  0  0  0  0  0
   -6.3980   -2.2300   -0.7080 N   0  0  0  0  0  0  0  0  0  0  0  0
   -6.2460   -3.3670   -0.0100 C   0  0  0  0  0  0  0  0  0  0  0  0
   -4.9240   -3.4820    0.3130 N   0  0  0  0  0  0  0  0  0  0  0  0
   -2.9400   -1.9240    2.3900 C   0  0  0  0  0  0  0  0  0  0  0  0
   -2.1090   -2.1690    3.3270 O   0  0  0  0  0  0  0  0  0  0  0  0
   -4.2420   -2.3320    2.6230 O   0  0  0  0  0  0  0  0  0  0  0  0
   -0.3600   -1.6760    1.2820 H   0  0  0  0  0  0  0  0  0  0  0  0
   -3.0850   -0.3050    1.0620 H   0  0  0  0  0  0  0  0  0  0  0  0
   -2.4610   -1.5670   -0.9860 H   0  0  0  0  0  0  0  0  0  0  0  0
   -2.2490   -3.0540   -0.0260 H   0  0  0  0  0  0  0  0  0  0  0  0
   -4.9820   -0.7060   -1.3310 H   0  0  0  0  0  0  0  0  0  0  0  0
   -7.2910   -1.8660   -1.0950 H   0  0  0  0  0  0  0  0  0  0  0  0
   -7.0430   -4.0720    0.2510 H   0  0  0  0  0  0  0  0  0  0  0  0
  1  5  1  0  0  0  0
  1  6  1  0  0  0  0
  2  7  1  0  0  0  0
  2  1  1  0  0  0  0
  3  2  1  0  0  0  0
  3  4  2  0  0  0  0
  8  2  1  0  0  0  0
  9  3  1  0  0  0  0
 10  9  1  0  0  0  0
 10 21  1  1  0  0  0
 11 10  1  0  0  0  0
 12 11  1  0  0  0  0
 12 17  1  0  0  0  0
 13 12  2  0  0  0  0
 14 13  1  0  0  0  0
 14 15  2  0  0  0  0
 15 16  1  0  0  0  0
 16 17  2  0  0  0  0
 16 27  1  0  0  0  0
 17 28  1  0  0  0  0
 18 10  1  0  0  0  0
 18 29  1  0  0  0  0
 19 18  2  0  0  0  0
 20  9  1  0  0  0  0
 22 11  1  0  0  0  0
 23 11  1  0  0  0  0
 24 13  1  0  0  0  0
 25 14  1  0  0  0  0
 26 15  1  0  0  0  0
 29 40  1  0  0  0  0
 30 41  1  6  0  0  0
 30 29  1  0  0  0  0
 30 37  1  0  0  0  0
 31 43  1  0  0  0  0
 31 30  1  0  0  0  0
 32 31  1  0  0  0  0
 32 36  1  0  0  0  0
 33 34  1  0  0  0  0
 33 32  2  0  0  0  0
 34 35  1  0  0  0  0
 35 46  1  0  0  0  0
 35 36  2  0  0  0  0
 37 39  2  0  0  0  0
 37 38  1  0  0  0  0
 42 31  1  0  0  0  0
 44 33  1  0  0  0  0
 45 34  1  0  0  0  0
M  END
$$$$
