GFI.pdb
 OpenBabel07022418243D

 48 48  0  0  1  0  0  0  0  0999 V2000
    2.7330   -3.5600    1.7090 N   0  0  0  0  0  0  0  0  0  0  0  0
    2.7560   -2.1150    1.7280 C   0  0  0  0  0  0  0  0  0  0  0  0
    1.7150   -1.5940    0.7760 C   0  0  0  0  0  0  0  0  0  0  0  0
    1.0280   -2.4090    0.1480 O   0  0  0  0  0  0  0  0  0  0  0  0
    2.2770   -3.9490    2.5720 H   0  0  0  0  0  0  0  0  0  0  0  0
    2.2780   -3.9430    0.8510 H   0  0  0  0  0  0  0  0  0  0  0  0
    3.7300   -1.7520    1.3380 H   0  0  0  0  0  0  0  0  0  0  0  0
    2.5530   -1.7630    2.7540 H   0  0  0  0  0  0  0  0  0  0  0  0
    1.5140   -0.2080    0.5900 N   0  0  0  0  0  0  0  0  0  0  0  0
    0.5530    0.3080   -0.3050 C   0  0  1  0  0  0  0  0  0  0  0  0
    0.4870   -0.3580   -1.6720 C   0  0  0  0  0  0  0  0  0  0  0  0
    1.7630   -0.2290   -2.4230 C   0  0  0  0  0  0  0  0  0  0  0  0
    1.9240    0.9320   -3.1880 C   0  0  0  0  0  0  0  0  0  0  0  0
    3.0410    1.1910   -3.9430 C   0  0  0  0  0  0  0  0  0  0  0  0
    4.0460    0.2430   -3.9310 C   0  0  0  0  0  0  0  0  0  0  0  0
    3.9300   -0.9120   -3.1940 C   0  0  0  0  0  0  0  0  0  0  0  0
    2.7740   -1.1330   -2.4410 C   0  0  0  0  0  0  0  0  0  0  0  0
   -0.8110    0.4760    0.2080 C   0  0  0  0  0  0  0  0  0  0  0  0
   -1.6830    0.9410   -0.5940 O   0  0  0  0  0  0  0  0  0  0  0  0
    2.1350    0.4260    1.1690 H   0  0  0  0  0  0  0  0  0  0  0  0
    0.9240    1.3630   -0.6010 H   0  0  0  0  0  0  0  0  0  0  0  0
   -0.2760    0.2570   -2.2370 H   0  0  0  0  0  0  0  0  0  0  0  0
    0.0740   -1.3660   -1.6660 H   0  0  0  0  0  0  0  0  0  0  0  0
    1.1300    1.6820   -3.1970 H   0  0  0  0  0  0  0  0  0  0  0  0
    3.1130    2.1140   -4.5200 H   0  0  0  0  0  0  0  0  0  0  0  0
    4.9180    0.4450   -4.5200 H   0  0  0  0  0  0  0  0  0  0  0  0
    4.7240   -1.6430   -3.1960 H   0  0  0  0  0  0  0  0  0  0  0  0
    2.7170   -2.0350   -1.8920 H   0  0  0  0  0  0  0  0  0  0  0  0
   -2.1390   -0.9460    4.8520 C   0  0  0  0  0  0  0  0  0  0  0  0
   -2.4750   -1.6910    3.6110 C   0  0  0  0  0  0  0  0  0  0  0  0
   -3.1470   -0.9480    2.5270 C   0  0  2  0  0  0  0  0  0  0  0  0
   -3.3800   -1.9380    1.3800 C   0  0  0  0  0  0  0  0  0  0  0  0
   -2.5130    0.3050    2.0490 C   0  0  2  0  0  0  0  0  0  0  0  0
   -1.1850    0.1460    1.5360 N   0  0  0  0  0  0  0  0  0  0  0  0
   -2.5510    1.3740    3.0690 C   0  0  0  0  0  0  0  0  0  0  0  0
   -1.5400    2.0410    3.4270 O   0  0  0  0  0  0  0  0  0  0  0  0
   -3.7480    1.7120    3.7090 O   0  0  0  0  0  0  0  0  0  0  0  0
   -2.9890   -0.3960    5.2570 H   0  0  0  0  0  0  0  0  0  0  0  0
   -1.8600   -1.7340    5.6210 H   0  0  0  0  0  0  0  0  0  0  0  0
   -1.2580   -0.2960    4.7970 H   0  0  0  0  0  0  0  0  0  0  0  0
   -3.1940   -2.5070    3.9270 H   0  0  0  0  0  0  0  0  0  0  0  0
   -1.5850   -2.2910    3.2490 H   0  0  0  0  0  0  0  0  0  0  0  0
   -4.1860   -0.6900    2.8820 H   0  0  0  0  0  0  0  0  0  0  0  0
   -3.5300   -1.3910    0.4220 H   0  0  0  0  0  0  0  0  0  0  0  0
   -4.2970   -2.5390    1.5480 H   0  0  0  0  0  0  0  0  0  0  0  0
   -2.5390   -2.6580    1.2990 H   0  0  0  0  0  0  0  0  0  0  0  0
   -3.1280    0.7270    1.1850 H   0  0  0  0  0  0  0  0  0  0  0  0
   -0.4280   -0.2340    2.1580 H   0  0  0  0  0  0  0  0  0  0  0  0
  1  2  1  0  0  0  0
  1  5  1  0  0  0  0
  2  8  1  0  0  0  0
  3  2  1  0  0  0  0
  4  3  2  0  0  0  0
  6  1  1  0  0  0  0
  7  2  1  0  0  0  0
  9  3  1  0  0  0  0
  9 20  1  0  0  0  0
 10 21  1  6  0  0  0
 10 18  1  0  0  0  0
 10  9  1  0  0  0  0
 11 23  1  0  0  0  0
 11 10  1  0  0  0  0
 12 11  1  0  0  0  0
 13 12  2  0  0  0  0
 14 15  2  0  0  0  0
 14 13  1  0  0  0  0
 15 16  1  0  0  0  0
 16 17  2  0  0  0  0
 17 12  1  0  0  0  0
 17 28  1  0  0  0  0
 18 34  1  0  0  0  0
 19 18  2  0  0  0  0
 22 11  1  0  0  0  0
 24 13  1  0  0  0  0
 25 14  1  0  0  0  0
 26 15  1  0  0  0  0
 27 16  1  0  0  0  0
 29 38  1  0  0  0  0
 29 39  1  0  0  0  0
 30 41  1  0  0  0  0
 30 29  1  0  0  0  0
 31 43  1  1  0  0  0
 31 30  1  0  0  0  0
 32 45  1  0  0  0  0
 32 31  1  0  0  0  0
 33 47  1  6  0  0  0
 33 31  1  0  0  0  0
 33 35  1  0  0  0  0
 34 33  1  0  0  0  0
 34 48  1  0  0  0  0
 35 36  2  0  0  0  0
 35 37  1  0  0  0  0
 40 29  1  0  0  0  0
 42 30  1  0  0  0  0
 44 32  1  0  0  0  0
 46 32  1  0  0  0  0
M  END
$$$$
