GFL.pdb
 OpenBabel07022418243D

 48 48  0  0  1  0  0  0  0  0999 V2000
    1.8780   -5.1990    3.7080 N   0  0  0  0  0  0  0  0  0  0  0  0
    2.3780   -3.8480    3.5660 C   0  0  0  0  0  0  0  0  0  0  0  0
    1.5140   -3.1710    2.5420 C   0  0  0  0  0  0  0  0  0  0  0  0
    0.5730   -3.7450    1.9810 O   0  0  0  0  0  0  0  0  0  0  0  0
    0.9710   -5.2400    4.1950 H   0  0  0  0  0  0  0  0  0  0  0  0
    1.8680   -5.7240    2.8270 H   0  0  0  0  0  0  0  0  0  0  0  0
    3.4180   -3.9010    3.1940 H   0  0  0  0  0  0  0  0  0  0  0  0
    2.3190   -3.3340    4.5320 H   0  0  0  0  0  0  0  0  0  0  0  0
    1.7290   -1.8240    2.1580 N   0  0  0  0  0  0  0  0  0  0  0  0
    1.0270   -1.0360    1.2410 C   0  0  1  0  0  0  0  0  0  0  0  0
    1.2270   -1.1880   -0.1850 C   0  0  0  0  0  0  0  0  0  0  0  0
    2.6740   -0.9270   -0.5490 C   0  0  0  0  0  0  0  0  0  0  0  0
    3.1200    0.3410   -0.8770 C   0  0  0  0  0  0  0  0  0  0  0  0
    4.4220    0.6100   -1.2110 C   0  0  0  0  0  0  0  0  0  0  0  0
    5.3240   -0.4310   -1.2190 C   0  0  0  0  0  0  0  0  0  0  0  0
    4.9180   -1.7250   -0.8940 C   0  0  0  0  0  0  0  0  0  0  0  0
    3.5980   -1.9440   -0.5660 C   0  0  0  0  0  0  0  0  0  0  0  0
   -0.4440   -1.1050    1.5860 C   0  0  0  0  0  0  0  0  0  0  0  0
   -0.8760   -1.7740    2.5760 O   0  0  0  0  0  0  0  0  0  0  0  0
    2.5590   -1.3660    2.6560 H   0  0  0  0  0  0  0  0  0  0  0  0
    1.2320    0.0570    1.5030 H   0  0  0  0  0  0  0  0  0  0  0  0
    0.9660   -2.1230   -0.6700 H   0  0  0  0  0  0  0  0  0  0  0  0
    0.6940   -0.3900   -0.7410 H   0  0  0  0  0  0  0  0  0  0  0  0
    2.4130    1.1640   -0.8730 H   0  0  0  0  0  0  0  0  0  0  0  0
    4.7340    1.6290   -1.4650 H   0  0  0  0  0  0  0  0  0  0  0  0
    6.3530   -0.2060   -1.4840 H   0  0  0  0  0  0  0  0  0  0  0  0
    5.6670   -2.5110   -0.9150 H   0  0  0  0  0  0  0  0  0  0  0  0
    3.3010   -2.9480   -0.3180 H   0  0  0  0  0  0  0  0  0  0  0  0
   -3.6060    3.3070    1.0560 C   0  0  0  0  0  0  0  0  0  0  0  0
   -3.0410    2.0280    0.4120 C   0  0  0  0  0  0  0  0  0  0  0  0
   -3.7910    1.8740   -0.8760 C   0  0  0  0  0  0  0  0  0  0  0  0
   -3.2240    0.9500    1.4080 C   0  0  0  0  0  0  0  0  0  0  0  0
   -2.7460   -0.4150    1.0300 C   0  0  2  0  0  0  0  0  0  0  0  0
   -1.3290   -0.3850    0.7520 N   0  0  0  0  0  0  0  0  0  0  0  0
   -3.5680   -0.9590   -0.0450 C   0  0  0  0  0  0  0  0  0  0  0  0
   -4.8130   -1.0150    0.1270 O   0  0  0  0  0  0  0  0  0  0  0  0
   -3.1110   -1.4330   -1.2670 O   0  0  0  0  0  0  0  0  0  0  0  0
   -3.2690    4.2050    0.5350 H   0  0  0  0  0  0  0  0  0  0  0  0
   -3.2230    3.3390    2.1090 H   0  0  0  0  0  0  0  0  0  0  0  0
   -4.7080    3.2620    1.0560 H   0  0  0  0  0  0  0  0  0  0  0  0
   -1.9970    2.2680    0.1630 H   0  0  0  0  0  0  0  0  0  0  0  0
   -3.2490    1.2730   -1.6050 H   0  0  0  0  0  0  0  0  0  0  0  0
   -3.8720    2.8980   -1.3570 H   0  0  0  0  0  0  0  0  0  0  0  0
   -4.8600    1.5770   -0.7340 H   0  0  0  0  0  0  0  0  0  0  0  0
   -4.3350    0.8820    1.6130 H   0  0  0  0  0  0  0  0  0  0  0  0
   -2.8030    1.2360    2.4070 H   0  0  0  0  0  0  0  0  0  0  0  0
   -2.8860   -1.0660    1.9420 H   0  0  0  0  0  0  0  0  0  0  0  0
   -1.0470    0.1890   -0.0700 H   0  0  0  0  0  0  0  0  0  0  0  0
  1  5  1  0  0  0  0
  2  1  1  0  0  0  0
  2  8  1  0  0  0  0
  3  2  1  0  0  0  0
  4  3  2  0  0  0  0
  6  1  1  0  0  0  0
  7  2  1  0  0  0  0
  9  3  1  0  0  0  0
  9 20  1  0  0  0  0
 10 21  1  1  0  0  0
 10 18  1  0  0  0  0
 10  9  1  0  0  0  0
 11 10  1  0  0  0  0
 12 11  1  0  0  0  0
 13 24  1  0  0  0  0
 13 12  2  0  0  0  0
 14 13  1  0  0  0  0
 15 14  2  0  0  0  0
 15 16  1  0  0  0  0
 16 17  2  0  0  0  0
 17 12  1  0  0  0  0
 17 28  1  0  0  0  0
 18 19  2  0  0  0  0
 22 11  1  0  0  0  0
 23 11  1  0  0  0  0
 25 14  1  0  0  0  0
 26 15  1  0  0  0  0
 27 16  1  0  0  0  0
 29 39  1  0  0  0  0
 30 29  1  0  0  0  0
 30 32  1  0  0  0  0
 31 44  1  0  0  0  0
 31 30  1  0  0  0  0
 32 45  1  0  0  0  0
 32 46  1  0  0  0  0
 33 32  1  0  0  0  0
 33 47  1  1  0  0  0
 34 33  1  0  0  0  0
 34 18  1  0  0  0  0
 35 36  1  0  0  0  0
 35 33  1  0  0  0  0
 37 35  2  0  0  0  0
 38 29  1  0  0  0  0
 40 29  1  0  0  0  0
 41 30  1  0  0  0  0
 42 31  1  0  0  0  0
 43 31  1  0  0  0  0
 48 34  1  0  0  0  0
M  END
$$$$
