GFM.pdb
 OpenBabel07022418243D

 46 46  0  0  1  0  0  0  0  0999 V2000
   -0.7160   -5.8930    0.9250 N   0  0  0  0  0  0  0  0  0  0  0  0
    0.5110   -5.7320    1.6370 C   0  0  0  0  0  0  0  0  0  0  0  0
    1.0240   -4.3440    1.5410 C   0  0  0  0  0  0  0  0  0  0  0  0
    2.0910   -3.9940    2.0980 O   0  0  0  0  0  0  0  0  0  0  0  0
   -1.5680   -5.6760    1.4650 H   0  0  0  0  0  0  0  0  0  0  0  0
   -0.7120   -5.5960   -0.0550 H   0  0  0  0  0  0  0  0  0  0  0  0
    0.3160   -5.9400    2.7150 H   0  0  0  0  0  0  0  0  0  0  0  0
    1.2840   -6.4190    1.2390 H   0  0  0  0  0  0  0  0  0  0  0  0
    0.2970   -3.3980    0.8070 N   0  0  0  0  0  0  0  0  0  0  0  0
    0.7680   -2.0160    0.6860 C   0  0  1  0  0  0  0  0  0  0  0  0
    1.0500   -1.6620   -0.7150 C   0  0  0  0  0  0  0  0  0  0  0  0
    1.5270   -0.3020   -0.9940 C   0  0  0  0  0  0  0  0  0  0  0  0
    0.6950    0.7010   -1.5110 C   0  0  0  0  0  0  0  0  0  0  0  0
    1.1280    1.9820   -1.7550 C   0  0  0  0  0  0  0  0  0  0  0  0
    2.4360    2.3140   -1.4850 C   0  0  0  0  0  0  0  0  0  0  0  0
    3.2970    1.3470   -0.9710 C   0  0  0  0  0  0  0  0  0  0  0  0
    2.8450    0.0720   -0.7340 C   0  0  0  0  0  0  0  0  0  0  0  0
   -0.1770   -1.1760    1.4080 C   0  0  0  0  0  0  0  0  0  0  0  0
   -1.2430   -1.7210    1.8790 O   0  0  0  0  0  0  0  0  0  0  0  0
   -0.6100   -3.5910    0.3020 H   0  0  0  0  0  0  0  0  0  0  0  0
    1.7340   -1.9800    1.2790 H   0  0  0  0  0  0  0  0  0  0  0  0
    1.7080   -2.4250   -1.2330 H   0  0  0  0  0  0  0  0  0  0  0  0
    0.0900   -1.7590   -1.3260 H   0  0  0  0  0  0  0  0  0  0  0  0
   -0.3290    0.4770   -1.7530 H   0  0  0  0  0  0  0  0  0  0  0  0
    0.4800    2.7470   -2.1520 H   0  0  0  0  0  0  0  0  0  0  0  0
    2.8150    3.3220   -1.6660 H   0  0  0  0  0  0  0  0  0  0  0  0
    4.3270    1.6490   -0.7710 H   0  0  0  0  0  0  0  0  0  0  0  0
    3.5450   -0.6720   -0.3280 H   0  0  0  0  0  0  0  0  0  0  0  0
   -0.4150    3.7490    1.1070 C   0  0  0  0  0  0  0  0  0  0  0  0
   -2.1400    3.4190    0.7600 S   0  0  0  0  0  0  0  0  0  0  0  0
   -2.5290    1.7010    0.5570 C   0  0  0  0  0  0  0  0  0  0  0  0
   -2.4180    0.9370    1.8360 C   0  0  0  0  0  0  0  0  0  0  0  0
   -1.0830    0.8720    2.4430 C   0  0  2  0  0  0  0  0  0  0  0  0
   -0.0450    0.2300    1.6690 N   0  0  0  0  0  0  0  0  0  0  0  0
   -1.1530    0.1770    3.7980 C   0  0  0  0  0  0  0  0  0  0  0  0
   -2.0260    0.5970    4.5870 O   0  0  0  0  0  0  0  0  0  0  0  0
   -0.3190   -0.8490    4.1530 O   0  0  0  0  0  0  0  0  0  0  0  0
   -0.0760    4.6210    0.4640 H   0  0  0  0  0  0  0  0  0  0  0  0
   -0.2250    4.1140    2.1530 H   0  0  0  0  0  0  0  0  0  0  0  0
    0.2300    2.9200    0.8320 H   0  0  0  0  0  0  0  0  0  0  0  0
   -1.8360    1.1850   -0.1750 H   0  0  0  0  0  0  0  0  0  0  0  0
   -3.5440    1.5310    0.1130 H   0  0  0  0  0  0  0  0  0  0  0  0
   -2.8670   -0.0720    1.6230 H   0  0  0  0  0  0  0  0  0  0  0  0
   -3.1050    1.3880    2.6260 H   0  0  0  0  0  0  0  0  0  0  0  0
   -0.7550    1.9080    2.7520 H   0  0  0  0  0  0  0  0  0  0  0  0
    0.8120    0.7190    1.3010 H   0  0  0  0  0  0  0  0  0  0  0  0
  1  5  1  0  0  0  0
  1  2  1  0  0  0  0
  2  7  1  0  0  0  0
  3  2  1  0  0  0  0
  3  4  2  0  0  0  0
  6  1  1  0  0  0  0
  8  2  1  0  0  0  0
  9  3  1  0  0  0  0
 10  9  1  0  0  0  0
 10 21  1  1  0  0  0
 10 18  1  0  0  0  0
 11 10  1  0  0  0  0
 12 17  1  0  0  0  0
 12 11  1  0  0  0  0
 13 12  2  0  0  0  0
 14 13  1  0  0  0  0
 14 15  2  0  0  0  0
 15 16  1  0  0  0  0
 16 27  1  0  0  0  0
 16 17  2  0  0  0  0
 17 28  1  0  0  0  0
 18 34  1  0  0  0  0
 18 19  2  0  0  0  0
 20  9  1  0  0  0  0
 22 11  1  0  0  0  0
 23 11  1  0  0  0  0
 24 13  1  0  0  0  0
 25 14  1  0  0  0  0
 26 15  1  0  0  0  0
 29 39  1  0  0  0  0
 30 29  1  0  0  0  0
 31 30  1  0  0  0  0
 31 32  1  0  0  0  0
 32 33  1  0  0  0  0
 32 44  1  0  0  0  0
 33 45  1  1  0  0  0
 33 35  1  0  0  0  0
 34 33  1  0  0  0  0
 35 37  2  0  0  0  0
 35 36  1  0  0  0  0
 38 29  1  0  0  0  0
 40 29  1  0  0  0  0
 41 31  1  0  0  0  0
 42 31  1  0  0  0  0
 43 32  1  0  0  0  0
 46 34  1  0  0  0  0
M  END
$$$$
