GFP.pdb
 OpenBabel07022418243D

 43 44  0  0  1  0  0  0  0  0999 V2000
   -0.6370   -4.5570   -0.0470 N   0  0  0  0  0  0  0  0  0  0  0  0
    0.6950   -4.6280    0.4780 C   0  0  0  0  0  0  0  0  0  0  0  0
    1.3640   -3.3090    0.5230 C   0  0  0  0  0  0  0  0  0  0  0  0
    2.5320   -3.1460    0.9450 O   0  0  0  0  0  0  0  0  0  0  0  0
   -1.3510   -4.1900    0.6020 H   0  0  0  0  0  0  0  0  0  0  0  0
   -0.7320   -4.1110   -0.9710 H   0  0  0  0  0  0  0  0  0  0  0  0
    1.2570   -5.3630   -0.1360 H   0  0  0  0  0  0  0  0  0  0  0  0
    0.6070   -5.0430    1.5170 H   0  0  0  0  0  0  0  0  0  0  0  0
    0.6630   -2.1580    0.0700 N   0  0  0  0  0  0  0  0  0  0  0  0
    1.2810   -0.8370    0.0930 C   0  0  1  0  0  0  0  0  0  0  0  0
    1.3370   -0.2690   -1.2870 C   0  0  0  0  0  0  0  0  0  0  0  0
    1.9410    1.0550   -1.3280 C   0  0  0  0  0  0  0  0  0  0  0  0
    1.1320    2.1660   -1.3250 C   0  0  0  0  0  0  0  0  0  0  0  0
    1.6590    3.4540   -1.3630 C   0  0  0  0  0  0  0  0  0  0  0  0
    3.0120    3.6390   -1.4060 C   0  0  0  0  0  0  0  0  0  0  0  0
    3.8370    2.5270   -1.4100 C   0  0  0  0  0  0  0  0  0  0  0  0
    3.3010    1.2450   -1.3710 C   0  0  0  0  0  0  0  0  0  0  0  0
    0.6590    0.0330    1.0610 C   0  0  0  0  0  0  0  0  0  0  0  0
    1.2390    1.2280    1.1120 O   0  0  0  0  0  0  0  0  0  0  0  0
   -0.3150   -2.2300   -0.3180 H   0  0  0  0  0  0  0  0  0  0  0  0
    2.3680   -0.9500    0.4210 H   0  0  0  0  0  0  0  0  0  0  0  0
    0.3060   -0.2580   -1.7150 H   0  0  0  0  0  0  0  0  0  0  0  0
    1.9220   -0.9070   -1.9900 H   0  0  0  0  0  0  0  0  0  0  0  0
    0.0430    2.1150   -1.2920 H   0  0  0  0  0  0  0  0  0  0  0  0
    1.0110    4.3190   -1.3600 H   0  0  0  0  0  0  0  0  0  0  0  0
    3.4100    4.6390   -1.4350 H   0  0  0  0  0  0  0  0  0  0  0  0
    4.9020    2.7110   -1.4440 H   0  0  0  0  0  0  0  0  0  0  0  0
    4.0120    0.4240   -1.3770 H   0  0  0  0  0  0  0  0  0  0  0  0
   -0.4160   -0.1220    1.9430 N   0  0  0  0  0  0  0  0  0  0  0  0
   -0.8980    0.9450    2.8010 C   0  0  0  0  0  0  0  0  0  0  0  0
   -1.1810    0.2210    4.0890 C   0  0  0  0  0  0  0  0  0  0  0  0
   -1.2220   -1.2440    3.7680 C   0  0  0  0  0  0  0  0  0  0  0  0
   -1.2260   -1.2370    2.2210 C   0  0  1  0  0  0  0  0  0  0  0  0
   -2.6620   -1.0690    1.8500 C   0  0  0  0  0  0  0  0  0  0  0  0
   -3.4390   -2.0400    2.1250 O   0  0  0  0  0  0  0  0  0  0  0  0
   -3.2150    0.0200    1.2480 O   0  0  0  0  0  0  0  0  0  0  0  0
   -1.8300    1.4170    2.4490 H   0  0  0  0  0  0  0  0  0  0  0  0
   -0.0930    1.7020    2.9770 H   0  0  0  0  0  0  0  0  0  0  0  0
   -2.1590    0.5060    4.5300 H   0  0  0  0  0  0  0  0  0  0  0  0
   -0.3640    0.4350    4.8350 H   0  0  0  0  0  0  0  0  0  0  0  0
   -0.3120   -1.7890    4.0810 H   0  0  0  0  0  0  0  0  0  0  0  0
   -2.1360   -1.7400    4.1400 H   0  0  0  0  0  0  0  0  0  0  0  0
   -0.8510   -2.2310    1.8820 H   0  0  0  0  0  0  0  0  0  0  0  0
  1  2  1  0  0  0  0
  1  5  1  0  0  0  0
  2  3  1  0  0  0  0
  2  8  1  0  0  0  0
  3  4  2  0  0  0  0
  6  1  1  0  0  0  0
  7  2  1  0  0  0  0
  9 10  1  0  0  0  0
  9  3  1  0  0  0  0
 10 21  1  1  0  0  0
 10 18  1  0  0  0  0
 11 10  1  0  0  0  0
 12 13  1  0  0  0  0
 12 11  1  0  0  0  0
 13 24  1  0  0  0  0
 14 25  1  0  0  0  0
 14 13  2  0  0  0  0
 15 14  1  0  0  0  0
 16 15  2  0  0  0  0
 16 17  1  0  0  0  0
 17 12  2  0  0  0  0
 18 19  2  0  0  0  0
 18 29  1  0  0  0  0
 20  9  1  0  0  0  0
 22 11  1  0  0  0  0
 23 11  1  0  0  0  0
 26 15  1  0  0  0  0
 27 16  1  0  0  0  0
 28 17  1  0  0  0  0
 29 33  1  0  0  0  0
 29 30  1  0  0  0  0
 30 38  1  0  0  0  0
 30 31  1  0  0  0  0
 31 39  1  0  0  0  0
 31 40  1  0  0  0  0
 32 41  1  0  0  0  0
 32 31  1  0  0  0  0
 32 42  1  0  0  0  0
 33 43  1  6  0  0  0
 33 32  1  0  0  0  0
 34 35  1  0  0  0  0
 34 33  1  0  0  0  0
 36 34  2  0  0  0  0
 37 30  1  0  0  0  0
M  END
$$$$
