GFR.pdb
 OpenBabel07022418243D

 52 52  0  0  1  0  0  0  0  0999 V2000
    3.6450   -4.9660    1.1510 N   0  0  0  0  0  0  0  0  0  0  0  0
    2.9650   -3.8070    0.6170 C   0  0  0  0  0  0  0  0  0  0  0  0
    2.4580   -2.9990    1.7510 C   0  0  0  0  0  0  0  0  0  0  0  0
    2.6420   -3.3510    2.9270 O   0  0  0  0  0  0  0  0  0  0  0  0
    3.8990   -4.8510    2.1590 H   0  0  0  0  0  0  0  0  0  0  0  0
    3.0650   -5.8320    1.1000 H   0  0  0  0  0  0  0  0  0  0  0  0
    3.7380   -3.1980    0.0940 H   0  0  0  0  0  0  0  0  0  0  0  0
    2.1540   -4.1350   -0.0630 H   0  0  0  0  0  0  0  0  0  0  0  0
    1.7340   -1.7760    1.5530 N   0  0  0  0  0  0  0  0  0  0  0  0
    1.2530   -1.0120    2.6930 C   0  0  1  0  0  0  0  0  0  0  0  0
    1.9150    0.3280    2.8060 C   0  0  0  0  0  0  0  0  0  0  0  0
    1.7390    1.2230    1.6700 C   0  0  0  0  0  0  0  0  0  0  0  0
    2.6090    1.2410    0.6040 C   0  0  0  0  0  0  0  0  0  0  0  0
    2.3880    2.1260   -0.4590 C   0  0  0  0  0  0  0  0  0  0  0  0
    1.3190    2.9780   -0.4610 C   0  0  0  0  0  0  0  0  0  0  0  0
    0.4410    2.9710    0.5970 C   0  0  0  0  0  0  0  0  0  0  0  0
    0.6720    2.0890    1.6460 C   0  0  0  0  0  0  0  0  0  0  0  0
   -0.2220   -0.9600    2.7480 C   0  0  0  0  0  0  0  0  0  0  0  0
   -0.7460   -0.3200    3.6940 O   0  0  0  0  0  0  0  0  0  0  0  0
    1.5700   -1.4650    0.5860 H   0  0  0  0  0  0  0  0  0  0  0  0
    1.5570   -1.5620    3.6370 H   0  0  0  0  0  0  0  0  0  0  0  0
    1.5980    0.7690    3.7760 H   0  0  0  0  0  0  0  0  0  0  0  0
    3.0130    0.1310    2.9240 H   0  0  0  0  0  0  0  0  0  0  0  0
    3.4710    0.6000    0.5340 H   0  0  0  0  0  0  0  0  0  0  0  0
    3.0810    2.1310   -1.2930 H   0  0  0  0  0  0  0  0  0  0  0  0
    1.1710    3.6460   -1.2880 H   0  0  0  0  0  0  0  0  0  0  0  0
   -0.4140    3.6280    0.6320 H   0  0  0  0  0  0  0  0  0  0  0  0
   -0.0300    2.0990    2.4680 H   0  0  0  0  0  0  0  0  0  0  0  0
   -1.0860   -0.9020   -3.5160 N   0  0  0  0  0  0  0  0  0  0  0  0
   -1.4710    0.1230   -2.6140 C   0  0  0  0  0  0  0  0  0  0  0  0
   -0.6040    0.9990   -2.2630 N   0  0  0  0  0  0  0  0  0  0  0  0
   -2.8100    0.1450   -2.1260 N   0  0  0  0  0  0  0  0  0  0  0  0
   -3.1740    0.9500   -0.9820 C   0  0  0  0  0  0  0  0  0  0  0  0
   -2.5590    0.4420    0.3040 C   0  0  0  0  0  0  0  0  0  0  0  0
   -3.0490   -0.9680    0.5230 C   0  0  0  0  0  0  0  0  0  0  0  0
   -2.4810   -1.5670    1.8150 C   0  0  2  0  0  0  0  0  0  0  0  0
   -1.0380   -1.6040    1.7780 N   0  0  0  0  0  0  0  0  0  0  0  0
   -3.0100   -2.9390    1.8870 C   0  0  0  0  0  0  0  0  0  0  0  0
   -4.2370   -3.1340    1.9310 O   0  0  0  0  0  0  0  0  0  0  0  0
   -2.1450   -4.0030    1.9070 O   0  0  0  0  0  0  0  0  0  0  0  0
   -1.7830   -1.4500   -4.0720 H   0  0  0  0  0  0  0  0  0  0  0  0
   -0.0860   -1.1570   -3.6680 H   0  0  0  0  0  0  0  0  0  0  0  0
    0.3540    0.9320   -2.6500 H   0  0  0  0  0  0  0  0  0  0  0  0
   -3.5000   -0.4460   -2.6370 H   0  0  0  0  0  0  0  0  0  0  0  0
   -2.9990    2.0290   -1.1460 H   0  0  0  0  0  0  0  0  0  0  0  0
   -4.2880    0.8510   -0.8440 H   0  0  0  0  0  0  0  0  0  0  0  0
   -2.9220    1.0560    1.1520 H   0  0  0  0  0  0  0  0  0  0  0  0
   -1.4570    0.5160    0.3140 H   0  0  0  0  0  0  0  0  0  0  0  0
   -2.7760   -1.6490   -0.2930 H   0  0  0  0  0  0  0  0  0  0  0  0
   -4.1560   -0.9330    0.5780 H   0  0  0  0  0  0  0  0  0  0  0  0
   -2.8470   -0.9650    2.6870 H   0  0  0  0  0  0  0  0  0  0  0  0
   -0.5790   -2.1230    1.0090 H   0  0  0  0  0  0  0  0  0  0  0  0
  1  5  1  0  0  0  0
  2  1  1  0  0  0  0
  2  3  1  0  0  0  0
  3  4  2  0  0  0  0
  6  1  1  0  0  0  0
  7  2  1  0  0  0  0
  8  2  1  0  0  0  0
  9  3  1  0  0  0  0
  9 10  1  0  0  0  0
 10 18  1  0  0  0  0
 10 11  1  0  0  0  0
 10 21  1  1  0  0  0
 11 23  1  0  0  0  0
 11 22  1  0  0  0  0
 12 11  1  0  0  0  0
 13 12  2  0  0  0  0
 14 13  1  0  0  0  0
 15 14  2  0  0  0  0
 15 16  1  0  0  0  0
 16 27  1  0  0  0  0
 16 17  2  0  0  0  0
 17 12  1  0  0  0  0
 17 28  1  0  0  0  0
 18 19  2  0  0  0  0
 20  9  1  0  0  0  0
 24 13  1  0  0  0  0
 25 14  1  0  0  0  0
 26 15  1  0  0  0  0
 29 30  1  0  0  0  0
 30 31  2  0  0  0  0
 30 32  1  0  0  0  0
 32 33  1  0  0  0  0
 33 46  1  0  0  0  0
 33 34  1  0  0  0  0
 34 48  1  0  0  0  0
 34 35  1  0  0  0  0
 34 47  1  0  0  0  0
 35 50  1  0  0  0  0
 35 36  1  0  0  0  0
 36 38  1  0  0  0  0
 36 51  1  1  0  0  0
 37 36  1  0  0  0  0
 37 18  1  0  0  0  0
 38 40  2  0  0  0  0
 38 39  1  0  0  0  0
 41 29  1  0  0  0  0
 42 29  1  0  0  0  0
 43 31  1  0  0  0  0
 44 32  1  0  0  0  0
 45 33  1  0  0  0  0
 49 35  1  0  0  0  0
 52 37  1  0  0  0  0
M  END
$$$$
