GFT.pdb
 OpenBabel07022418243D

 43 43  0  0  1  0  0  0  0  0999 V2000
   -0.2110   -5.6090   -1.5470 N   0  0  0  0  0  0  0  0  0  0  0  0
    0.0310   -4.2140   -1.8620 C   0  0  0  0  0  0  0  0  0  0  0  0
    0.2810   -3.5070   -0.5850 C   0  0  0  0  0  0  0  0  0  0  0  0
    0.2620   -4.1060    0.5150 O   0  0  0  0  0  0  0  0  0  0  0  0
    0.2940   -5.9250   -0.6970 H   0  0  0  0  0  0  0  0  0  0  0  0
   -1.2430   -5.7980   -1.5090 H   0  0  0  0  0  0  0  0  0  0  0  0
    0.8860   -4.1540   -2.5630 H   0  0  0  0  0  0  0  0  0  0  0  0
   -0.8840   -3.7930   -2.3250 H   0  0  0  0  0  0  0  0  0  0  0  0
    0.5570   -2.1050   -0.5260 N   0  0  0  0  0  0  0  0  0  0  0  0
    0.8050   -1.3840    0.7040 C   0  0  1  0  0  0  0  0  0  0  0  0
    2.2070   -0.8930    0.8130 C   0  0  0  0  0  0  0  0  0  0  0  0
    2.6620    0.0100   -0.2350 C   0  0  0  0  0  0  0  0  0  0  0  0
    2.5460    1.3730   -0.1530 C   0  0  0  0  0  0  0  0  0  0  0  0
    2.9920    2.2090   -1.1810 C   0  0  0  0  0  0  0  0  0  0  0  0
    3.5560    1.6560   -2.2890 C   0  0  0  0  0  0  0  0  0  0  0  0
    3.6900    0.3040   -2.4090 C   0  0  0  0  0  0  0  0  0  0  0  0
    3.2400   -0.5020   -1.3770 C   0  0  0  0  0  0  0  0  0  0  0  0
   -0.2480   -0.4200    1.0450 C   0  0  0  0  0  0  0  0  0  0  0  0
   -1.2070   -0.2330    0.2650 O   0  0  0  0  0  0  0  0  0  0  0  0
    0.5730   -1.6040   -1.4420 H   0  0  0  0  0  0  0  0  0  0  0  0
    0.7230   -2.1800    1.5140 H   0  0  0  0  0  0  0  0  0  0  0  0
    2.3300   -0.4440    1.8260 H   0  0  0  0  0  0  0  0  0  0  0  0
    2.8680   -1.8090    0.8350 H   0  0  0  0  0  0  0  0  0  0  0  0
    2.1170    1.8580    0.6860 H   0  0  0  0  0  0  0  0  0  0  0  0
    2.8790    3.2920   -1.0720 H   0  0  0  0  0  0  0  0  0  0  0  0
    3.8970    2.3330   -3.0790 H   0  0  0  0  0  0  0  0  0  0  0  0
    4.1430   -0.0850   -3.3060 H   0  0  0  0  0  0  0  0  0  0  0  0
    3.3560   -1.5740   -1.4920 H   0  0  0  0  0  0  0  0  0  0  0  0
   -3.1670   -0.1800    3.3870 C   0  0  0  0  0  0  0  0  0  0  0  0
   -2.1890    0.9410    3.6720 C   0  0  1  0  0  0  0  0  0  0  0  0
   -1.5630    0.8250    4.8860 O   0  0  0  0  0  0  0  0  0  0  0  0
   -1.2860    1.2380    2.5240 C   0  0  2  0  0  0  0  0  0  0  0  0
   -0.2670    0.3320    2.2190 N   0  0  0  0  0  0  0  0  0  0  0  0
   -0.7160    2.5840    2.7580 C   0  0  0  0  0  0  0  0  0  0  0  0
    0.5220    2.7370    2.6890 O   0  0  0  0  0  0  0  0  0  0  0  0
   -1.5110    3.6900    3.0540 O   0  0  0  0  0  0  0  0  0  0  0  0
   -2.7840   -1.1710    3.5930 H   0  0  0  0  0  0  0  0  0  0  0  0
   -3.5090   -0.0300    2.3290 H   0  0  0  0  0  0  0  0  0  0  0  0
   -4.1080   -0.0640    3.9970 H   0  0  0  0  0  0  0  0  0  0  0  0
   -2.8460    1.8490    3.7760 H   0  0  0  0  0  0  0  0  0  0  0  0
   -1.7390   -0.0820    5.2470 H   0  0  0  0  0  0  0  0  0  0  0  0
   -1.9720    1.3320    1.6340 H   0  0  0  0  0  0  0  0  0  0  0  0
    0.5200    0.2250    2.9260 H   0  0  0  0  0  0  0  0  0  0  0  0
  1  6  1  0  0  0  0
  1  5  1  0  0  0  0
  2  1  1  0  0  0  0
  2  3  1  0  0  0  0
  3  9  1  0  0  0  0
  3  4  2  0  0  0  0
  7  2  1  0  0  0  0
  8  2  1  0  0  0  0
  9 10  1  0  0  0  0
 10 11  1  0  0  0  0
 10 18  1  0  0  0  0
 10 21  1  1  0  0  0
 11 23  1  0  0  0  0
 11 22  1  0  0  0  0
 12 13  1  0  0  0  0
 12 11  1  0  0  0  0
 13 24  1  0  0  0  0
 14 25  1  0  0  0  0
 14 13  2  0  0  0  0
 15 14  1  0  0  0  0
 16 15  2  0  0  0  0
 16 17  1  0  0  0  0
 17 12  2  0  0  0  0
 18 33  1  0  0  0  0
 19 18  2  0  0  0  0
 20  9  1  0  0  0  0
 26 15  1  0  0  0  0
 27 16  1  0  0  0  0
 28 17  1  0  0  0  0
 29 37  1  0  0  0  0
 29 30  1  0  0  0  0
 29 39  1  0  0  0  0
 30 40  1  1  0  0  0
 30 31  1  0  0  0  0
 31 41  1  0  0  0  0
 32 42  1  6  0  0  0
 32 34  1  0  0  0  0
 32 30  1  0  0  0  0
 33 32  1  0  0  0  0
 33 43  1  0  0  0  0
 34 36  1  0  0  0  0
 35 34  2  0  0  0  0
 38 29  1  0  0  0  0
M  END
$$$$
