GFV.pdb
 OpenBabel07022418243D

 45 45  0  0  1  0  0  0  0  0999 V2000
    1.5940   -4.8550    0.6180 N   0  0  0  0  0  0  0  0  0  0  0  0
    2.8040   -4.1440    0.9150 C   0  0  0  0  0  0  0  0  0  0  0  0
    2.7060   -2.6860    0.6350 C   0  0  0  0  0  0  0  0  0  0  0  0
    3.7240   -2.0030    0.8700 O   0  0  0  0  0  0  0  0  0  0  0  0
    0.8390   -4.6900    1.3150 H   0  0  0  0  0  0  0  0  0  0  0  0
    1.3160   -4.6460   -0.3610 H   0  0  0  0  0  0  0  0  0  0  0  0
    3.6070   -4.5320    0.2440 H   0  0  0  0  0  0  0  0  0  0  0  0
    3.0800   -4.3140    1.9780 H   0  0  0  0  0  0  0  0  0  0  0  0
    1.5450   -2.0610    0.1290 N   0  0  0  0  0  0  0  0  0  0  0  0
    1.4470   -0.6390   -0.1450 C   0  0  1  0  0  0  0  0  0  0  0  0
    1.2100   -0.3390   -1.5870 C   0  0  0  0  0  0  0  0  0  0  0  0
    1.1010    1.0680   -1.9370 C   0  0  0  0  0  0  0  0  0  0  0  0
   -0.0750    1.7880   -1.9650 C   0  0  0  0  0  0  0  0  0  0  0  0
   -0.1220    3.1240   -2.3050 C   0  0  0  0  0  0  0  0  0  0  0  0
    1.0350    3.7730   -2.6300 C   0  0  0  0  0  0  0  0  0  0  0  0
    2.2170    3.0950   -2.6140 C   0  0  0  0  0  0  0  0  0  0  0  0
    2.2490    1.7600   -2.2720 C   0  0  0  0  0  0  0  0  0  0  0  0
    0.5010    0.0320    0.7830 C   0  0  0  0  0  0  0  0  0  0  0  0
    0.2880    1.2670    0.7100 O   0  0  0  0  0  0  0  0  0  0  0  0
    0.7260   -2.7190   -0.0420 H   0  0  0  0  0  0  0  0  0  0  0  0
    2.4430   -0.2140    0.1270 H   0  0  0  0  0  0  0  0  0  0  0  0
    0.2960   -0.8600   -1.9910 H   0  0  0  0  0  0  0  0  0  0  0  0
    2.0440   -0.7790   -2.1770 H   0  0  0  0  0  0  0  0  0  0  0  0
   -1.0060    1.3130   -1.7150 H   0  0  0  0  0  0  0  0  0  0  0  0
   -1.0600    3.6880   -2.3240 H   0  0  0  0  0  0  0  0  0  0  0  0
    1.0320    4.8240   -2.9020 H   0  0  0  0  0  0  0  0  0  0  0  0
    3.1380    3.6120   -2.8730 H   0  0  0  0  0  0  0  0  0  0  0  0
    3.2370    1.2850   -2.2830 H   0  0  0  0  0  0  0  0  0  0  0  0
   -2.3740   -2.2030    2.8340 C   0  0  0  0  0  0  0  0  0  0  0  0
   -2.5030   -0.7400    2.5500 C   0  0  0  0  0  0  0  0  0  0  0  0
   -3.5220   -0.0650    3.4160 C   0  0  0  0  0  0  0  0  0  0  0  0
   -1.1260   -0.0970    2.7120 C   0  0  2  0  0  0  0  0  0  0  0  0
   -0.1930   -0.7010    1.7830 N   0  0  0  0  0  0  0  0  0  0  0  0
   -0.6870   -0.2440    4.1160 C   0  0  0  0  0  0  0  0  0  0  0  0
   -1.4170    0.2410    5.0080 O   0  0  0  0  0  0  0  0  0  0  0  0
    0.4760   -0.8830    4.4900 O   0  0  0  0  0  0  0  0  0  0  0  0
   -1.7860   -2.6820    2.0150 H   0  0  0  0  0  0  0  0  0  0  0  0
   -3.3780   -2.6900    2.7940 H   0  0  0  0  0  0  0  0  0  0  0  0
   -1.8890   -2.3730    3.8090 H   0  0  0  0  0  0  0  0  0  0  0  0
   -2.8000   -0.5830    1.4920 H   0  0  0  0  0  0  0  0  0  0  0  0
   -3.7240   -0.5980    4.3590 H   0  0  0  0  0  0  0  0  0  0  0  0
   -4.4910   -0.0040    2.8740 H   0  0  0  0  0  0  0  0  0  0  0  0
   -3.2290    0.9690    3.6810 H   0  0  0  0  0  0  0  0  0  0  0  0
   -1.1780    0.9890    2.4910 H   0  0  0  0  0  0  0  0  0  0  0  0
    0.0100   -1.7350    1.8140 H   0  0  0  0  0  0  0  0  0  0  0  0
  1  2  1  0  0  0  0
  1  5  1  0  0  0  0
  2  8  1  0  0  0  0
  3  4  2  0  0  0  0
  3  2  1  0  0  0  0
  6  1  1  0  0  0  0
  7  2  1  0  0  0  0
  9  3  1  0  0  0  0
 10 21  1  1  0  0  0
 10  9  1  0  0  0  0
 10 18  1  0  0  0  0
 11 10  1  0  0  0  0
 12 11  1  0  0  0  0
 13 12  1  0  0  0  0
 13 24  1  0  0  0  0
 14 13  2  0  0  0  0
 15 16  2  0  0  0  0
 15 14  1  0  0  0  0
 16 17  1  0  0  0  0
 17 12  2  0  0  0  0
 18 33  1  0  0  0  0
 19 18  2  0  0  0  0
 20  9  1  0  0  0  0
 22 11  1  0  0  0  0
 23 11  1  0  0  0  0
 25 14  1  0  0  0  0
 26 15  1  0  0  0  0
 27 16  1  0  0  0  0
 28 17  1  0  0  0  0
 29 39  1  0  0  0  0
 30 32  1  0  0  0  0
 30 29  1  0  0  0  0
 30 31  1  0  0  0  0
 31 43  1  0  0  0  0
 31 41  1  0  0  0  0
 32 44  1  6  0  0  0
 32 34  1  0  0  0  0
 33 45  1  0  0  0  0
 33 32  1  0  0  0  0
 34 36  2  0  0  0  0
 34 35  1  0  0  0  0
 37 29  1  0  0  0  0
 38 29  1  0  0  0  0
 40 30  1  0  0  0  0
 42 31  1  0  0  0  0
M  END
$$$$
