GFY.pdb
 OpenBabel07022418243D

 50 51  0  0  1  0  0  0  0  0999 V2000
    1.7050   -5.3480    1.3620 N   0  0  0  0  0  0  0  0  0  0  0  0
    1.6120   -3.9720    0.9120 C   0  0  0  0  0  0  0  0  0  0  0  0
    1.2770   -3.1380    2.0960 C   0  0  0  0  0  0  0  0  0  0  0  0
    1.1220   -3.6430    3.2530 O   0  0  0  0  0  0  0  0  0  0  0  0
    2.1980   -5.3260    2.2900 H   0  0  0  0  0  0  0  0  0  0  0  0
    0.7190   -5.6570    1.5900 H   0  0  0  0  0  0  0  0  0  0  0  0
    0.7680   -3.8790    0.1910 H   0  0  0  0  0  0  0  0  0  0  0  0
    2.5590   -3.6300    0.4470 H   0  0  0  0  0  0  0  0  0  0  0  0
    1.1090   -1.7280    2.0150 N   0  0  0  0  0  0  0  0  0  0  0  0
    0.7830   -0.8950    3.1540 C   0  0  1  0  0  0  0  0  0  0  0  0
    1.9210    0.0640    3.4020 C   0  0  0  0  0  0  0  0  0  0  0  0
    2.1950    0.9470    2.2670 C   0  0  0  0  0  0  0  0  0  0  0  0
    1.5850    2.1870    2.1070 C   0  0  0  0  0  0  0  0  0  0  0  0
    1.8580    3.0050    1.0300 C   0  0  0  0  0  0  0  0  0  0  0  0
    2.7700    2.5910    0.0640 C   0  0  0  0  0  0  0  0  0  0  0  0
    3.3810    1.3740    0.2050 C   0  0  0  0  0  0  0  0  0  0  0  0
    3.0930    0.5810    1.2830 C   0  0  0  0  0  0  0  0  0  0  0  0
   -0.4960   -0.2130    2.8970 C   0  0  0  0  0  0  0  0  0  0  0  0
   -0.9450    0.5670    3.7740 O   0  0  0  0  0  0  0  0  0  0  0  0
    1.2270   -1.2630    1.0910 H   0  0  0  0  0  0  0  0  0  0  0  0
    0.7150   -1.5510    4.0690 H   0  0  0  0  0  0  0  0  0  0  0  0
    1.7380    0.6840    4.3040 H   0  0  0  0  0  0  0  0  0  0  0  0
    2.8380   -0.5190    3.6110 H   0  0  0  0  0  0  0  0  0  0  0  0
    0.8750    2.5210    2.8480 H   0  0  0  0  0  0  0  0  0  0  0  0
    1.3970    3.9660    0.8870 H   0  0  0  0  0  0  0  0  0  0  0  0
    3.0150    3.2000   -0.7970 H   0  0  0  0  0  0  0  0  0  0  0  0
    4.0990    1.0210   -0.5320 H   0  0  0  0  0  0  0  0  0  0  0  0
    3.5800   -0.3880    1.3940 H   0  0  0  0  0  0  0  0  0  0  0  0
   -0.9030   -2.2020   -4.2340 O   0  0  0  0  0  0  0  0  0  0  0  0
   -1.2150   -1.3960   -3.1460 C   0  0  0  0  0  0  0  0  0  0  0  0
   -0.2110   -0.8690   -2.3630 C   0  0  0  0  0  0  0  0  0  0  0  0
   -0.5580   -0.0760   -1.2960 C   0  0  0  0  0  0  0  0  0  0  0  0
   -1.8750    0.1890   -1.0130 C   0  0  0  0  0  0  0  0  0  0  0  0
   -2.2820    1.0480    0.1370 C   0  0  0  0  0  0  0  0  0  0  0  0
   -2.4740    0.2240    1.3960 C   0  0  2  0  0  0  0  0  0  0  0  0
   -1.2040   -0.4270    1.6980 N   0  0  0  0  0  0  0  0  0  0  0  0
   -3.5620   -0.7710    1.2310 C   0  0  0  0  0  0  0  0  0  0  0  0
   -4.7310   -0.3910    0.9730 O   0  0  0  0  0  0  0  0  0  0  0  0
   -2.8440   -0.3570   -1.8220 C   0  0  0  0  0  0  0  0  0  0  0  0
   -2.5490   -1.1570   -2.9000 C   0  0  0  0  0  0  0  0  0  0  0  0
   -3.3580   -2.1370    1.3480 O   0  0  0  0  0  0  0  0  0  0  0  0
   -0.0270   -2.1900   -4.7180 H   0  0  0  0  0  0  0  0  0  0  0  0
    0.8440   -1.0870   -2.5980 H   0  0  0  0  0  0  0  0  0  0  0  0
    0.2410    0.3290   -0.6920 H   0  0  0  0  0  0  0  0  0  0  0  0
   -3.2650    1.4970   -0.1120 H   0  0  0  0  0  0  0  0  0  0  0  0
   -1.5810    1.8580    0.3420 H   0  0  0  0  0  0  0  0  0  0  0  0
   -2.7810    0.8890    2.2270 H   0  0  0  0  0  0  0  0  0  0  0  0
   -0.7920   -1.0830    1.0030 H   0  0  0  0  0  0  0  0  0  0  0  0
   -3.9130   -0.1740   -1.6370 H   0  0  0  0  0  0  0  0  0  0  0  0
   -3.3340   -1.5870   -3.5380 H   0  0  0  0  0  0  0  0  0  0  0  0
  1  6  1  0  0  0  0
  1  5  1  0  0  0  0
  2  1  1  0  0  0  0
  2  3  1  0  0  0  0
  3  4  2  0  0  0  0
  7  2  1  0  0  0  0
  8  2  1  0  0  0  0
  9  3  1  0  0  0  0
  9 10  1  0  0  0  0
 10 11  1  0  0  0  0
 10 21  1  1  0  0  0
 11 23  1  0  0  0  0
 11 22  1  0  0  0  0
 12 11  1  0  0  0  0
 13 12  1  0  0  0  0
 13 24  1  0  0  0  0
 14 13  2  0  0  0  0
 15 16  2  0  0  0  0
 15 14  1  0  0  0  0
 16 17  1  0  0  0  0
 17 28  1  0  0  0  0
 17 12  2  0  0  0  0
 18 10  1  0  0  0  0
 18 19  2  0  0  0  0
 20  9  1  0  0  0  0
 25 14  1  0  0  0  0
 26 15  1  0  0  0  0
 27 16  1  0  0  0  0
 29 30  1  0  0  0  0
 30 40  2  0  0  0  0
 30 31  1  0  0  0  0
 31 32  2  0  0  0  0
 32 33  1  0  0  0  0
 32 44  1  0  0  0  0
 33 34  1  0  0  0  0
 34 46  1  0  0  0  0
 34 35  1  0  0  0  0
 35 36  1  0  0  0  0
 35 47  1  1  0  0  0
 36 18  1  0  0  0  0
 37 41  1  0  0  0  0
 37 35  1  0  0  0  0
 38 37  2  0  0  0  0
 39 49  1  0  0  0  0
 39 33  2  0  0  0  0
 40 39  1  0  0  0  0
 42 29  1  0  0  0  0
 43 31  1  0  0  0  0
 45 34  1  0  0  0  0
 48 36  1  0  0  0  0
 50 40  1  0  0  0  0
M  END
$$$$
