GGA.pdb
 OpenBabel07022418223D

 26 25  0  0  1  0  0  0  0  0999 V2000
   -1.5060   -2.5220    4.4140 N   0  0  0  0  0  0  0  0  0  0  0  0
   -0.4420   -3.4360    4.1190 C   0  0  0  0  0  0  0  0  0  0  0  0
    0.3320   -3.0330    2.9270 C   0  0  0  0  0  0  0  0  0  0  0  0
    1.3000   -3.7240    2.5300 O   0  0  0  0  0  0  0  0  0  0  0  0
   -1.1610   -1.5500    4.4890 H   0  0  0  0  0  0  0  0  0  0  0  0
   -2.2050   -2.5580    3.6390 H   0  0  0  0  0  0  0  0  0  0  0  0
    0.2610   -3.4120    4.9950 H   0  0  0  0  0  0  0  0  0  0  0  0
   -0.8280   -4.4740    4.0430 H   0  0  0  0  0  0  0  0  0  0  0  0
    0.0160   -1.8540    2.1870 N   0  0  0  0  0  0  0  0  0  0  0  0
    0.8160   -1.5180    1.0290 C   0  0  0  0  0  0  0  0  0  0  0  0
    0.2800   -0.2620    0.4520 C   0  0  0  0  0  0  0  0  0  0  0  0
   -0.7060    0.3250    0.9650 O   0  0  0  0  0  0  0  0  0  0  0  0
   -0.7860   -1.2450    2.4830 H   0  0  0  0  0  0  0  0  0  0  0  0
    1.8850   -1.4360    1.3060 H   0  0  0  0  0  0  0  0  0  0  0  0
    0.7390   -2.3710    0.3240 H   0  0  0  0  0  0  0  0  0  0  0  0
    1.3780    2.6760   -1.2640 C   0  0  0  0  0  0  0  0  0  0  0  0
    0.3680    1.5540   -1.2990 C   0  0  2  0  0  0  0  0  0  0  0  0
    0.8580    0.3410   -0.7140 N   0  0  0  0  0  0  0  0  0  0  0  0
   -0.1430    1.3320   -2.6900 C   0  0  0  0  0  0  0  0  0  0  0  0
   -0.6090    2.2990   -3.3440 O   0  0  0  0  0  0  0  0  0  0  0  0
   -0.1280    0.0900   -3.3060 O   0  0  0  0  0  0  0  0  0  0  0  0
    1.2040    3.4170   -2.0750 H   0  0  0  0  0  0  0  0  0  0  0  0
    1.2780    3.2180   -0.2980 H   0  0  0  0  0  0  0  0  0  0  0  0
    2.4210    2.3100   -1.3230 H   0  0  0  0  0  0  0  0  0  0  0  0
   -0.5020    1.8890   -0.6800 H   0  0  0  0  0  0  0  0  0  0  0  0
    1.6870   -0.1860   -1.1120 H   0  0  0  0  0  0  0  0  0  0  0  0
  1  5  1  0  0  0  0
  2  1  1  0  0  0  0
  2  7  1  0  0  0  0
  3  2  1  0  0  0  0
  4  3  2  0  0  0  0
  6  1  1  0  0  0  0
  8  2  1  0  0  0  0
  9 13  1  0  0  0  0
  9  3  1  0  0  0  0
 10 14  1  0  0  0  0
 10  9  1  0  0  0  0
 11 12  2  0  0  0  0
 11 10  1  0  0  0  0
 15 10  1  0  0  0  0
 16 23  1  0  0  0  0
 17 16  1  0  0  0  0
 17 18  1  0  0  0  0
 17 25  1  1  0  0  0
 18 11  1  0  0  0  0
 19 17  1  0  0  0  0
 20 19  2  0  0  0  0
 21 19  1  0  0  0  0
 22 16  1  0  0  0  0
 24 16  1  0  0  0  0
 26 18  1  0  0  0  0
M  END
$$$$
