GGC.pdb
 OpenBabel07022418223D

 27 26  0  0  1  0  0  0  0  0999 V2000
   -0.7250   -2.1400    4.1520 N   0  0  0  0  0  0  0  0  0  0  0  0
   -1.0150   -2.6600    2.8420 C   0  0  0  0  0  0  0  0  0  0  0  0
    0.0870   -2.4220    1.8740 C   0  0  0  0  0  0  0  0  0  0  0  0
   -0.0190   -2.8250    0.6650 O   0  0  0  0  0  0  0  0  0  0  0  0
   -0.5480   -1.1140    4.1320 H   0  0  0  0  0  0  0  0  0  0  0  0
    0.1300   -2.6100    4.5190 H   0  0  0  0  0  0  0  0  0  0  0  0
   -1.2160   -3.7560    2.9510 H   0  0  0  0  0  0  0  0  0  0  0  0
   -1.9290   -2.1470    2.4680 H   0  0  0  0  0  0  0  0  0  0  0  0
    1.2490   -1.7420    2.3270 N   0  0  0  0  0  0  0  0  0  0  0  0
    2.3600   -1.4570    1.4680 C   0  0  0  0  0  0  0  0  0  0  0  0
    2.0270   -0.5580    0.3400 C   0  0  0  0  0  0  0  0  0  0  0  0
    2.9180   -0.2560   -0.5260 O   0  0  0  0  0  0  0  0  0  0  0  0
    1.2830   -1.4450    3.3180 H   0  0  0  0  0  0  0  0  0  0  0  0
    3.1270   -0.9030    2.0830 H   0  0  0  0  0  0  0  0  0  0  0  0
    2.8810   -2.3810    1.1240 H   0  0  0  0  0  0  0  0  0  0  0  0
    0.7630    0.0210    0.1320 N   0  0  0  0  0  0  0  0  0  0  0  0
    0.4990    0.9060   -1.0190 C   0  0  1  0  0  0  0  0  0  0  0  0
   -0.6420    0.2610   -1.7830 C   0  0  0  0  0  0  0  0  0  0  0  0
   -0.2180   -1.3950   -2.3580 S   0  0  0  0  0  0  0  0  0  0  0  0
    0.0100    2.2240   -0.5380 C   0  0  0  0  0  0  0  0  0  0  0  0
   -0.2730    3.1230   -1.3400 O   0  0  0  0  0  0  0  0  0  0  0  0
   -0.1250    2.4350    0.8230 O   0  0  0  0  0  0  0  0  0  0  0  0
   -0.0020   -0.1670    0.8080 H   0  0  0  0  0  0  0  0  0  0  0  0
    1.3930    1.0210   -1.6280 H   0  0  0  0  0  0  0  0  0  0  0  0
   -1.5200    0.2390   -1.0950 H   0  0  0  0  0  0  0  0  0  0  0  0
   -0.9100    0.9420   -2.6190 H   0  0  0  0  0  0  0  0  0  0  0  0
   -1.2310   -1.8050   -3.2560 H   0  0  0  0  0  0  0  0  0  0  0  0
  1  6  1  0  0  0  0
  2  7  1  0  0  0  0
  2  1  1  0  0  0  0
  3  9  1  0  0  0  0
  3  2  1  0  0  0  0
  4  3  2  0  0  0  0
  5  1  1  0  0  0  0
  8  2  1  0  0  0  0
  9 13  1  0  0  0  0
 10 14  1  0  0  0  0
 10  9  1  0  0  0  0
 11 10  1  0  0  0  0
 12 11  2  0  0  0  0
 15 10  1  0  0  0  0
 16 11  1  0  0  0  0
 16 23  1  0  0  0  0
 17 24  1  6  0  0  0
 17 20  1  0  0  0  0
 17 16  1  0  0  0  0
 18 25  1  0  0  0  0
 18 17  1  0  0  0  0
 19 18  1  0  0  0  0
 20 22  1  0  0  0  0
 21 20  2  0  0  0  0
 26 18  1  0  0  0  0
 27 19  1  0  0  0  0
M  END
$$$$
