GGF.pdb
 OpenBabel07022418223D

 36 36  0  0  1  0  0  0  0  0999 V2000
   -0.1970   -2.1000    5.3330 N   0  0  0  0  0  0  0  0  0  0  0  0
    1.0310   -2.8220    5.1550 C   0  0  0  0  0  0  0  0  0  0  0  0
    1.4400   -2.8940    3.7190 C   0  0  0  0  0  0  0  0  0  0  0  0
    2.4990   -3.5030    3.4470 O   0  0  0  0  0  0  0  0  0  0  0  0
   -0.1200   -1.0790    5.2170 H   0  0  0  0  0  0  0  0  0  0  0  0
   -1.0000   -2.5060    4.8190 H   0  0  0  0  0  0  0  0  0  0  0  0
    0.8860   -3.8410    5.5700 H   0  0  0  0  0  0  0  0  0  0  0  0
    1.8060   -2.3290    5.7780 H   0  0  0  0  0  0  0  0  0  0  0  0
    0.6290   -2.2830    2.7420 N   0  0  0  0  0  0  0  0  0  0  0  0
    1.0070   -2.3440    1.3630 C   0  0  0  0  0  0  0  0  0  0  0  0
   -0.0110   -1.6290    0.5610 C   0  0  0  0  0  0  0  0  0  0  0  0
   -0.9850   -1.1110    1.1510 O   0  0  0  0  0  0  0  0  0  0  0  0
   -0.2300   -1.7980    3.0280 H   0  0  0  0  0  0  0  0  0  0  0  0
    1.1090   -3.4160    1.0130 H   0  0  0  0  0  0  0  0  0  0  0  0
    1.9760   -1.8040    1.1990 H   0  0  0  0  0  0  0  0  0  0  0  0
    0.0550   -1.4960   -0.8550 N   0  0  0  0  0  0  0  0  0  0  0  0
   -0.9520   -0.7920   -1.6260 C   0  0  1  0  0  0  0  0  0  0  0  0
   -0.3410    0.3960   -2.3640 C   0  0  0  0  0  0  0  0  0  0  0  0
    0.2590    1.3510   -1.3820 C   0  0  0  0  0  0  0  0  0  0  0  0
   -0.5320    2.3570   -0.8780 C   0  0  0  0  0  0  0  0  0  0  0  0
   -0.0670    3.2840    0.0310 C   0  0  0  0  0  0  0  0  0  0  0  0
    1.2500    3.1520    0.4170 C   0  0  0  0  0  0  0  0  0  0  0  0
    2.0750    2.1570   -0.0650 C   0  0  0  0  0  0  0  0  0  0  0  0
    1.5610    1.2600   -0.9690 C   0  0  0  0  0  0  0  0  0  0  0  0
   -1.5670   -1.7270   -2.5860 C   0  0  0  0  0  0  0  0  0  0  0  0
   -2.4630   -1.3210   -3.3520 O   0  0  0  0  0  0  0  0  0  0  0  0
   -1.1650   -3.0410   -2.6470 O   0  0  0  0  0  0  0  0  0  0  0  0
    0.8760   -1.9360   -1.3250 H   0  0  0  0  0  0  0  0  0  0  0  0
   -1.7540   -0.3820   -0.9980 H   0  0  0  0  0  0  0  0  0  0  0  0
    0.4300    0.0390   -3.0650 H   0  0  0  0  0  0  0  0  0  0  0  0
   -1.1590    0.9210   -2.8900 H   0  0  0  0  0  0  0  0  0  0  0  0
   -1.5860    2.4580   -1.1920 H   0  0  0  0  0  0  0  0  0  0  0  0
   -0.7050    4.0830    0.4260 H   0  0  0  0  0  0  0  0  0  0  0  0
    1.6610    3.8570    1.1300 H   0  0  0  0  0  0  0  0  0  0  0  0
    3.1280    2.0890    0.2730 H   0  0  0  0  0  0  0  0  0  0  0  0
    2.2080    0.4800   -1.3460 H   0  0  0  0  0  0  0  0  0  0  0  0
  2  1  1  0  0  0  0
  2  7  1  0  0  0  0
  2  8  1  0  0  0  0
  3  2  1  0  0  0  0
  4  3  2  0  0  0  0
  5  1  1  0  0  0  0
  6  1  1  0  0  0  0
  9 13  1  0  0  0  0
  9  3  1  0  0  0  0
 10  9  1  0  0  0  0
 11 12  2  0  0  0  0
 11 10  1  0  0  0  0
 14 10  1  0  0  0  0
 15 10  1  0  0  0  0
 16 11  1  0  0  0  0
 17 29  1  1  0  0  0
 17 16  1  0  0  0  0
 18 17  1  0  0  0  0
 18 19  1  0  0  0  0
 19 24  2  0  0  0  0
 19 20  1  0  0  0  0
 20 21  2  0  0  0  0
 21 22  1  0  0  0  0
 21 33  1  0  0  0  0
 22 34  1  0  0  0  0
 23 35  1  0  0  0  0
 23 22  2  0  0  0  0
 24 23  1  0  0  0  0
 25 17  1  0  0  0  0
 26 25  2  0  0  0  0
 27 25  1  0  0  0  0
 28 16  1  0  0  0  0
 30 18  1  0  0  0  0
 31 18  1  0  0  0  0
 32 20  1  0  0  0  0
 36 24  1  0  0  0  0
M  END
$$$$
