GGI.pdb
 OpenBabel07022418223D

 35 34  0  0  1  0  0  0  0  0999 V2000
    1.8680   -4.9960    3.8820 N   0  0  0  0  0  0  0  0  0  0  0  0
    1.4000   -3.7020    4.2950 C   0  0  0  0  0  0  0  0  0  0  0  0
    1.5470   -2.6910    3.2210 C   0  0  0  0  0  0  0  0  0  0  0  0
    2.0380   -3.0560    2.1260 O   0  0  0  0  0  0  0  0  0  0  0  0
    2.8960   -5.0630    4.1050 H   0  0  0  0  0  0  0  0  0  0  0  0
    1.3690   -5.7790    4.3800 H   0  0  0  0  0  0  0  0  0  0  0  0
    2.0370   -3.3610    5.1580 H   0  0  0  0  0  0  0  0  0  0  0  0
    0.3570   -3.7650    4.6830 H   0  0  0  0  0  0  0  0  0  0  0  0
    1.1370   -1.3630    3.4520 N   0  0  0  0  0  0  0  0  0  0  0  0
    1.2670   -0.3520    2.4230 C   0  0  0  0  0  0  0  0  0  0  0  0
    0.4900   -0.7230    1.2170 C   0  0  0  0  0  0  0  0  0  0  0  0
   -0.1520   -1.7980    1.2170 O   0  0  0  0  0  0  0  0  0  0  0  0
    0.7320   -1.1270    4.3960 H   0  0  0  0  0  0  0  0  0  0  0  0
    2.3350   -0.2310    2.1400 H   0  0  0  0  0  0  0  0  0  0  0  0
    0.8520    0.6100    2.8220 H   0  0  0  0  0  0  0  0  0  0  0  0
   -0.0410    2.4920   -2.5290 C   0  0  0  0  0  0  0  0  0  0  0  0
   -1.0550    2.1920   -1.4610 C   0  0  0  0  0  0  0  0  0  0  0  0
   -1.4430    0.7490   -1.3530 C   0  0  2  0  0  0  0  0  0  0  0  0
   -2.4790    0.5430   -0.2480 C   0  0  0  0  0  0  0  0  0  0  0  0
   -0.2750   -0.1910   -1.1350 C   0  0  2  0  0  0  0  0  0  0  0  0
    0.4540    0.1070    0.0620 N   0  0  0  0  0  0  0  0  0  0  0  0
    0.5420   -0.4350   -2.3240 C   0  0  0  0  0  0  0  0  0  0  0  0
   -0.0130   -0.7040   -3.4210 O   0  0  0  0  0  0  0  0  0  0  0  0
    1.9350   -0.3940   -2.3520 O   0  0  0  0  0  0  0  0  0  0  0  0
    0.0540    3.5980   -2.6810 H   0  0  0  0  0  0  0  0  0  0  0  0
    0.9860    2.1590   -2.2780 H   0  0  0  0  0  0  0  0  0  0  0  0
   -0.3650    1.9990   -3.4850 H   0  0  0  0  0  0  0  0  0  0  0  0
   -0.6520    2.6060   -0.5130 H   0  0  0  0  0  0  0  0  0  0  0  0
   -1.9930    2.7370   -1.7690 H   0  0  0  0  0  0  0  0  0  0  0  0
   -1.9830    0.4940   -2.2980 H   0  0  0  0  0  0  0  0  0  0  0  0
   -3.4890    0.8750   -0.5850 H   0  0  0  0  0  0  0  0  0  0  0  0
   -2.2360    1.1260    0.6490 H   0  0  0  0  0  0  0  0  0  0  0  0
   -2.5450   -0.5450   -0.0740 H   0  0  0  0  0  0  0  0  0  0  0  0
   -0.7760   -1.1960   -0.9170 H   0  0  0  0  0  0  0  0  0  0  0  0
    1.0270    1.0010    0.1460 H   0  0  0  0  0  0  0  0  0  0  0  0
  1  5  1  0  0  0  0
  1  2  1  0  0  0  0
  1  6  1  0  0  0  0
  2  8  1  0  0  0  0
  2  7  1  0  0  0  0
  3  9  1  0  0  0  0
  3  2  1  0  0  0  0
  4  3  2  0  0  0  0
  9 13  1  0  0  0  0
 10 15  1  0  0  0  0
 10  9  1  0  0  0  0
 11 10  1  0  0  0  0
 12 11  2  0  0  0  0
 14 10  1  0  0  0  0
 16 26  1  0  0  0  0
 16 17  1  0  0  0  0
 17 18  1  0  0  0  0
 17 28  1  0  0  0  0
 18 30  1  6  0  0  0
 18 20  1  0  0  0  0
 18 19  1  0  0  0  0
 19 33  1  0  0  0  0
 19 32  1  0  0  0  0
 20 34  1  1  0  0  0
 20 21  1  0  0  0  0
 21 35  1  0  0  0  0
 21 11  1  0  0  0  0
 22 20  1  0  0  0  0
 23 22  2  0  0  0  0
 24 22  1  0  0  0  0
 25 16  1  0  0  0  0
 27 16  1  0  0  0  0
 29 17  1  0  0  0  0
 31 19  1  0  0  0  0
M  END
$$$$
