GGK.pdb
 OpenBabel07022418223D

 37 36  0  0  1  0  0  0  0  0999 V2000
   -3.5140   -3.7020    0.9320 N   0  0  0  0  0  0  0  0  0  0  0  0
   -2.4350   -3.9800    1.8300 C   0  0  0  0  0  0  0  0  0  0  0  0
   -1.1220   -3.6920    1.1730 C   0  0  0  0  0  0  0  0  0  0  0  0
   -1.1150   -3.2740    0.0070 O   0  0  0  0  0  0  0  0  0  0  0  0
   -3.3020   -4.0250   -0.0230 H   0  0  0  0  0  0  0  0  0  0  0  0
   -3.7560   -2.6870    0.8670 H   0  0  0  0  0  0  0  0  0  0  0  0
   -2.5190   -3.4070    2.7770 H   0  0  0  0  0  0  0  0  0  0  0  0
   -2.4740   -5.0560    2.1110 H   0  0  0  0  0  0  0  0  0  0  0  0
    0.1110   -3.8840    1.8510 N   0  0  0  0  0  0  0  0  0  0  0  0
    1.4080   -3.6170    1.2860 C   0  0  0  0  0  0  0  0  0  0  0  0
    1.5250   -2.1720    0.9930 C   0  0  0  0  0  0  0  0  0  0  0  0
    2.6000   -1.7380    0.4300 O   0  0  0  0  0  0  0  0  0  0  0  0
    0.0080   -4.2530    2.8430 H   0  0  0  0  0  0  0  0  0  0  0  0
    2.1730   -3.9220    2.0330 H   0  0  0  0  0  0  0  0  0  0  0  0
    1.5580   -4.1870    0.3380 H   0  0  0  0  0  0  0  0  0  0  0  0
    0.5640   -1.2000    1.2730 N   0  0  0  0  0  0  0  0  0  0  0  0
    0.7950    0.2350    0.9230 C   0  0  1  0  0  0  0  0  0  0  0  0
   -0.2830    0.6880    0.0100 C   0  0  0  0  0  0  0  0  0  0  0  0
   -0.2720    2.0570   -0.5160 C   0  0  0  0  0  0  0  0  0  0  0  0
    0.7730    2.5230   -1.4260 C   0  0  0  0  0  0  0  0  0  0  0  0
    2.1940    2.5540   -1.0610 C   0  0  0  0  0  0  0  0  0  0  0  0
    2.5460    3.3680    0.0820 N   0  0  0  0  0  0  0  0  0  0  0  0
    0.6970    0.9320    2.2320 C   0  0  0  0  0  0  0  0  0  0  0  0
    0.8000    2.1700    2.2850 O   0  0  0  0  0  0  0  0  0  0  0  0
    0.4940    0.2260    3.3940 O   0  0  0  0  0  0  0  0  0  0  0  0
   -0.3230   -1.4430    1.7450 H   0  0  0  0  0  0  0  0  0  0  0  0
    1.7750    0.3150    0.4540 H   0  0  0  0  0  0  0  0  0  0  0  0
   -0.4030   -0.0470   -0.8560 H   0  0  0  0  0  0  0  0  0  0  0  0
   -1.2610    0.5080    0.5720 H   0  0  0  0  0  0  0  0  0  0  0  0
   -0.3960    2.8370    0.2940 H   0  0  0  0  0  0  0  0  0  0  0  0
   -1.2590    2.1850   -1.0880 H   0  0  0  0  0  0  0  0  0  0  0  0
    0.4930    3.6050   -1.6920 H   0  0  0  0  0  0  0  0  0  0  0  0
    0.6720    2.0260   -2.4410 H   0  0  0  0  0  0  0  0  0  0  0  0
    2.6990    3.1450   -1.9320 H   0  0  0  0  0  0  0  0  0  0  0  0
    2.7450    1.6020   -1.1210 H   0  0  0  0  0  0  0  0  0  0  0  0
    1.7760    3.9470    0.4290 H   0  0  0  0  0  0  0  0  0  0  0  0
    3.0290    2.7850    0.7980 H   0  0  0  0  0  0  0  0  0  0  0  0
  1  2  1  0  0  0  0
  2  8  1  0  0  0  0
  2  7  1  0  0  0  0
  3  2  1  0  0  0  0
  3  9  1  0  0  0  0
  4  3  2  0  0  0  0
  5  1  1  0  0  0  0
  6  1  1  0  0  0  0
  9 13  1  0  0  0  0
 10  9  1  0  0  0  0
 10 14  1  0  0  0  0
 11 16  1  0  0  0  0
 11 10  1  0  0  0  0
 12 11  2  0  0  0  0
 15 10  1  0  0  0  0
 16 26  1  0  0  0  0
 17 27  1  6  0  0  0
 17 16  1  0  0  0  0
 17 23  1  0  0  0  0
 18 29  1  0  0  0  0
 18 17  1  0  0  0  0
 19 18  1  0  0  0  0
 19 30  1  0  0  0  0
 20 21  1  0  0  0  0
 20 19  1  0  0  0  0
 21 22  1  0  0  0  0
 22 36  1  0  0  0  0
 22 37  1  0  0  0  0
 23 24  2  0  0  0  0
 23 25  1  0  0  0  0
 28 18  1  0  0  0  0
 31 19  1  0  0  0  0
 32 20  1  0  0  0  0
 33 20  1  0  0  0  0
 34 21  1  0  0  0  0
 35 21  1  0  0  0  0
M  END
$$$$
