GGL.pdb
 OpenBabel07022418223D

 35 34  0  0  1  0  0  0  0  0999 V2000
   -0.8080   -4.5200    3.8250 N   0  0  0  0  0  0  0  0  0  0  0  0
    0.3640   -3.7330    4.1610 C   0  0  0  0  0  0  0  0  0  0  0  0
    0.7870   -2.9290    2.9840 C   0  0  0  0  0  0  0  0  0  0  0  0
    0.1250   -3.0180    1.9030 O   0  0  0  0  0  0  0  0  0  0  0  0
   -0.6690   -5.0430    2.9420 H   0  0  0  0  0  0  0  0  0  0  0  0
   -1.6690   -3.9440    3.7530 H   0  0  0  0  0  0  0  0  0  0  0  0
    1.1430   -4.4210    4.5080 H   0  0  0  0  0  0  0  0  0  0  0  0
    0.0880   -3.0380    4.9880 H   0  0  0  0  0  0  0  0  0  0  0  0
    1.9060   -2.0610    3.0130 N   0  0  0  0  0  0  0  0  0  0  0  0
    2.3200   -1.2780    1.8710 C   0  0  0  0  0  0  0  0  0  0  0  0
    1.1630   -0.3790    1.5190 C   0  0  0  0  0  0  0  0  0  0  0  0
    0.1000   -0.4000    2.1690 O   0  0  0  0  0  0  0  0  0  0  0  0
    2.4450   -1.9920    3.9000 H   0  0  0  0  0  0  0  0  0  0  0  0
    2.5430   -1.9050    0.9850 H   0  0  0  0  0  0  0  0  0  0  0  0
    3.2000   -0.6690    2.1270 H   0  0  0  0  0  0  0  0  0  0  0  0
   -1.2930   -0.3820   -2.9850 C   0  0  0  0  0  0  0  0  0  0  0  0
   -0.1380    0.1720   -2.1790 C   0  0  0  0  0  0  0  0  0  0  0  0
    0.6230    1.2270   -2.9540 C   0  0  0  0  0  0  0  0  0  0  0  0
   -0.7050    0.8430   -0.9490 C   0  0  0  0  0  0  0  0  0  0  0  0
    0.3750    1.4290   -0.0770 C   0  0  2  0  0  0  0  0  0  0  0  0
    1.3280    0.4950    0.4170 N   0  0  0  0  0  0  0  0  0  0  0  0
   -0.3140    2.1890    1.0200 C   0  0  0  0  0  0  0  0  0  0  0  0
   -0.0600    2.1060    2.2150 O   0  0  0  0  0  0  0  0  0  0  0  0
   -1.3430    3.0790    0.6500 O   0  0  0  0  0  0  0  0  0  0  0  0
   -2.2160   -0.4280   -2.3730 H   0  0  0  0  0  0  0  0  0  0  0  0
   -1.4580    0.2010   -3.9250 H   0  0  0  0  0  0  0  0  0  0  0  0
   -1.0980   -1.4330   -3.3260 H   0  0  0  0  0  0  0  0  0  0  0  0
    0.5290   -0.6720   -1.9450 H   0  0  0  0  0  0  0  0  0  0  0  0
    0.2060    2.2490   -2.7590 H   0  0  0  0  0  0  0  0  0  0  0  0
    1.6690    1.2450   -2.5670 H   0  0  0  0  0  0  0  0  0  0  0  0
    0.5910    1.0390   -4.0380 H   0  0  0  0  0  0  0  0  0  0  0  0
   -1.3600    0.1580   -0.3870 H   0  0  0  0  0  0  0  0  0  0  0  0
   -1.3390    1.6830   -1.3070 H   0  0  0  0  0  0  0  0  0  0  0  0
    0.9260    2.2280   -0.6600 H   0  0  0  0  0  0  0  0  0  0  0  0
    2.2710    0.4310   -0.0820 H   0  0  0  0  0  0  0  0  0  0  0  0
  1  2  1  0  0  0  0
  2  7  1  0  0  0  0
  2  8  1  0  0  0  0
  3  9  1  0  0  0  0
  3  2  1  0  0  0  0
  4  3  2  0  0  0  0
  5  1  1  0  0  0  0
  6  1  1  0  0  0  0
  9 13  1  0  0  0  0
 10 15  1  0  0  0  0
 10  9  1  0  0  0  0
 11 10  1  0  0  0  0
 11 12  2  0  0  0  0
 14 10  1  0  0  0  0
 16 25  1  0  0  0  0
 16 17  1  0  0  0  0
 17 28  1  0  0  0  0
 17 19  1  0  0  0  0
 18 29  1  0  0  0  0
 18 30  1  0  0  0  0
 18 17  1  0  0  0  0
 19 32  1  0  0  0  0
 19 20  1  0  0  0  0
 20 34  1  6  0  0  0
 20 21  1  0  0  0  0
 20 22  1  0  0  0  0
 21 11  1  0  0  0  0
 22 23  1  0  0  0  0
 24 22  2  0  0  0  0
 26 16  1  0  0  0  0
 27 16  1  0  0  0  0
 31 18  1  0  0  0  0
 33 19  1  0  0  0  0
 35 21  1  0  0  0  0
M  END
$$$$
