GGM.pdb
 OpenBabel07022418223D

 33 32  0  0  1  0  0  0  0  0999 V2000
   -0.4770   -4.8910    1.4920 N   0  0  0  0  0  0  0  0  0  0  0  0
    0.2490   -4.0510    2.4220 C   0  0  0  0  0  0  0  0  0  0  0  0
    0.8380   -2.9060    1.6790 C   0  0  0  0  0  0  0  0  0  0  0  0
    0.6630   -2.7940    0.4300 O   0  0  0  0  0  0  0  0  0  0  0  0
   -0.8870   -4.2730    0.7720 H   0  0  0  0  0  0  0  0  0  0  0  0
   -1.1690   -5.5020    1.9740 H   0  0  0  0  0  0  0  0  0  0  0  0
    1.0960   -4.6480    2.8500 H   0  0  0  0  0  0  0  0  0  0  0  0
   -0.4310   -3.7210    3.2370 H   0  0  0  0  0  0  0  0  0  0  0  0
    1.6060   -1.9220    2.3580 N   0  0  0  0  0  0  0  0  0  0  0  0
    2.2080   -0.7850    1.7040 C   0  0  0  0  0  0  0  0  0  0  0  0
    1.1020    0.0150    1.0750 C   0  0  0  0  0  0  0  0  0  0  0  0
   -0.0630   -0.3870    1.2030 O   0  0  0  0  0  0  0  0  0  0  0  0
    1.7390   -2.0310    3.3810 H   0  0  0  0  0  0  0  0  0  0  0  0
    2.8860   -1.1710    0.9190 H   0  0  0  0  0  0  0  0  0  0  0  0
    2.7750   -0.1740    2.4250 H   0  0  0  0  0  0  0  0  0  0  0  0
   -2.7620   -1.5010   -0.4590 C   0  0  0  0  0  0  0  0  0  0  0  0
   -2.0900   -0.6580   -1.9110 S   0  0  0  0  0  0  0  0  0  0  0  0
   -0.5950    0.2750   -1.5140 C   0  0  0  0  0  0  0  0  0  0  0  0
   -0.8380    1.4260   -0.5950 C   0  0  0  0  0  0  0  0  0  0  0  0
    0.5350    2.0680   -0.3170 C   0  0  2  0  0  0  0  0  0  0  0  0
    1.4370    1.1850    0.3680 N   0  0  0  0  0  0  0  0  0  0  0  0
    0.4670    3.4280    0.1640 C   0  0  0  0  0  0  0  0  0  0  0  0
    1.1980    3.7690    1.1560 O   0  0  0  0  0  0  0  0  0  0  0  0
   -0.3290    4.4260   -0.3510 O   0  0  0  0  0  0  0  0  0  0  0  0
   -2.9710   -0.8280    0.3760 H   0  0  0  0  0  0  0  0  0  0  0  0
   -3.7330   -1.9570   -0.7680 H   0  0  0  0  0  0  0  0  0  0  0  0
   -2.1140   -2.3520   -0.1370 H   0  0  0  0  0  0  0  0  0  0  0  0
   -0.3290    0.7880   -2.5220 H   0  0  0  0  0  0  0  0  0  0  0  0
    0.2850   -0.3110   -1.2970 H   0  0  0  0  0  0  0  0  0  0  0  0
   -1.4040    1.2200    0.3080 H   0  0  0  0  0  0  0  0  0  0  0  0
   -1.4620    2.1800   -1.1720 H   0  0  0  0  0  0  0  0  0  0  0  0
    0.9450    2.0720   -1.4080 H   0  0  0  0  0  0  0  0  0  0  0  0
    2.4870    1.4090    0.3610 H   0  0  0  0  0  0  0  0  0  0  0  0
  1  6  1  0  0  0  0
  1  2  1  0  0  0  0
  2  7  1  0  0  0  0
  2  8  1  0  0  0  0
  3  9  1  0  0  0  0
  3  2  1  0  0  0  0
  4  3  2  0  0  0  0
  5  1  1  0  0  0  0
  9 13  1  0  0  0  0
 10  9  1  0  0  0  0
 10 15  1  0  0  0  0
 11 12  2  0  0  0  0
 11 10  1  0  0  0  0
 14 10  1  0  0  0  0
 16 27  1  0  0  0  0
 16 25  1  0  0  0  0
 17 18  1  0  0  0  0
 17 16  1  0  0  0  0
 18 29  1  0  0  0  0
 18 19  1  0  0  0  0
 19 20  1  0  0  0  0
 19 30  1  0  0  0  0
 20 32  1  6  0  0  0
 20 22  1  0  0  0  0
 20 21  1  0  0  0  0
 21 11  1  0  0  0  0
 22 23  1  0  0  0  0
 24 22  2  0  0  0  0
 26 16  1  0  0  0  0
 28 18  1  0  0  0  0
 31 19  1  0  0  0  0
 33 21  1  0  0  0  0
M  END
$$$$
