GGN.pdb
 OpenBabel07022418223D

 30 29  0  0  1  0  0  0  0  0999 V2000
   -1.6980   -3.8290    2.7520 N   0  0  0  0  0  0  0  0  0  0  0  0
   -0.9220   -2.8850    3.4930 C   0  0  0  0  0  0  0  0  0  0  0  0
    0.3140   -2.4730    2.7720 C   0  0  0  0  0  0  0  0  0  0  0  0
    0.5210   -2.9740    1.6560 O   0  0  0  0  0  0  0  0  0  0  0  0
   -1.1370   -4.1940    1.9310 H   0  0  0  0  0  0  0  0  0  0  0  0
   -2.6300   -3.5020    2.4560 H   0  0  0  0  0  0  0  0  0  0  0  0
   -0.6180   -3.3580    4.4560 H   0  0  0  0  0  0  0  0  0  0  0  0
   -1.5680   -2.0290    3.7510 H   0  0  0  0  0  0  0  0  0  0  0  0
    1.2380   -1.5460    3.3120 N   0  0  0  0  0  0  0  0  0  0  0  0
    2.4400   -1.1110    2.6510 C   0  0  0  0  0  0  0  0  0  0  0  0
    2.1720   -0.3880    1.3820 C   0  0  0  0  0  0  0  0  0  0  0  0
    3.1480    0.0230    0.6610 O   0  0  0  0  0  0  0  0  0  0  0  0
    1.0290   -1.1560    4.2550 H   0  0  0  0  0  0  0  0  0  0  0  0
    3.0020   -2.0410    2.3420 H   0  0  0  0  0  0  0  0  0  0  0  0
    3.0820   -0.5170    3.3360 H   0  0  0  0  0  0  0  0  0  0  0  0
   -1.1770   -0.0440   -3.5840 N   0  0  0  0  0  0  0  0  0  0  0  0
   -0.2780    0.5020   -2.6250 C   0  0  0  0  0  0  0  0  0  0  0  0
    0.3610    1.5240   -2.9400 O   0  0  0  0  0  0  0  0  0  0  0  0
   -0.1360   -0.1340   -1.3370 C   0  0  0  0  0  0  0  0  0  0  0  0
    0.7470    0.6230   -0.3970 C   0  0  2  0  0  0  0  0  0  0  0  0
    0.8810   -0.0960    0.8770 N   0  0  0  0  0  0  0  0  0  0  0  0
    0.0910    1.9090   -0.0460 C   0  0  0  0  0  0  0  0  0  0  0  0
   -0.2310    2.1410    1.1700 O   0  0  0  0  0  0  0  0  0  0  0  0
   -0.2250    2.9270   -0.9200 O   0  0  0  0  0  0  0  0  0  0  0  0
   -2.1840   -0.2180   -3.3540 H   0  0  0  0  0  0  0  0  0  0  0  0
   -0.8520   -0.2850   -4.5450 H   0  0  0  0  0  0  0  0  0  0  0  0
    0.2010   -1.1800   -1.5050 H   0  0  0  0  0  0  0  0  0  0  0  0
   -1.1360   -0.2140   -0.8110 H   0  0  0  0  0  0  0  0  0  0  0  0
    1.7400    0.8420   -0.8310 H   0  0  0  0  0  0  0  0  0  0  0  0
    0.0210   -0.3690    1.3940 H   0  0  0  0  0  0  0  0  0  0  0  0
  1  2  1  0  0  0  0
  2  8  1  0  0  0  0
  2  7  1  0  0  0  0
  3  9  1  0  0  0  0
  3  2  1  0  0  0  0
  4  3  2  0  0  0  0
  5  1  1  0  0  0  0
  6  1  1  0  0  0  0
  9 13  1  0  0  0  0
 10  9  1  0  0  0  0
 10 15  1  0  0  0  0
 11 10  1  0  0  0  0
 12 11  2  0  0  0  0
 14 10  1  0  0  0  0
 16 25  1  0  0  0  0
 16 17  1  0  0  0  0
 17 19  1  0  0  0  0
 18 17  2  0  0  0  0
 19 28  1  0  0  0  0
 19 20  1  0  0  0  0
 20 29  1  6  0  0  0
 20 22  1  0  0  0  0
 20 21  1  0  0  0  0
 21 11  1  0  0  0  0
 21 30  1  0  0  0  0
 22 23  1  0  0  0  0
 24 22  2  0  0  0  0
 26 16  1  0  0  0  0
 27 19  1  0  0  0  0
M  END
$$$$
