GGQ.pdb
 OpenBabel07022418223D

 33 32  0  0  1  0  0  0  0  0999 V2000
   -1.1360   -1.2920    5.8820 N   0  0  0  0  0  0  0  0  0  0  0  0
    0.0110   -1.8010    5.1600 C   0  0  0  0  0  0  0  0  0  0  0  0
   -0.3670   -1.9250    3.7290 C   0  0  0  0  0  0  0  0  0  0  0  0
   -1.5160   -1.6090    3.3460 O   0  0  0  0  0  0  0  0  0  0  0  0
   -2.0250   -1.3940    5.3560 H   0  0  0  0  0  0  0  0  0  0  0  0
   -1.0390   -0.2850    6.1260 H   0  0  0  0  0  0  0  0  0  0  0  0
    0.8660   -1.0800    5.2950 H   0  0  0  0  0  0  0  0  0  0  0  0
    0.3700   -2.7650    5.5650 H   0  0  0  0  0  0  0  0  0  0  0  0
    0.5340   -2.3990    2.7380 N   0  0  0  0  0  0  0  0  0  0  0  0
    0.1270   -2.5010    1.3550 C   0  0  0  0  0  0  0  0  0  0  0  0
   -0.2530   -1.1660    0.8450 C   0  0  0  0  0  0  0  0  0  0  0  0
   -0.1740   -0.1820    1.6170 O   0  0  0  0  0  0  0  0  0  0  0  0
    1.4940   -2.6710    3.0240 H   0  0  0  0  0  0  0  0  0  0  0  0
    0.9420   -2.8730    0.7050 H   0  0  0  0  0  0  0  0  0  0  0  0
   -0.7320   -3.2100    1.2760 H   0  0  0  0  0  0  0  0  0  0  0  0
    3.6110    1.1500   -2.3740 N   0  0  0  0  0  0  0  0  0  0  0  0
    2.2330    1.1010   -2.6720 C   0  0  0  0  0  0  0  0  0  0  0  0
    1.8470    1.3540   -3.8470 O   0  0  0  0  0  0  0  0  0  0  0  0
    1.2690    0.7510   -1.5970 C   0  0  0  0  0  0  0  0  0  0  0  0
   -0.1560    0.7490   -2.1120 C   0  0  0  0  0  0  0  0  0  0  0  0
   -1.0720    0.3860   -0.9590 C   0  0  2  0  0  0  0  0  0  0  0  0
   -0.7010   -0.9370   -0.4700 N   0  0  0  0  0  0  0  0  0  0  0  0
   -2.4900    0.4070   -1.4060 C   0  0  0  0  0  0  0  0  0  0  0  0
   -2.9660    1.4610   -1.8520 O   0  0  0  0  0  0  0  0  0  0  0  0
   -3.2560   -0.7250   -1.3240 O   0  0  0  0  0  0  0  0  0  0  0  0
    4.2990    1.0080   -3.1280 H   0  0  0  0  0  0  0  0  0  0  0  0
    3.9120    1.3270   -1.4030 H   0  0  0  0  0  0  0  0  0  0  0  0
    1.3380    1.4640   -0.7380 H   0  0  0  0  0  0  0  0  0  0  0  0
    1.5460   -0.2350   -1.2040 H   0  0  0  0  0  0  0  0  0  0  0  0
   -0.4090    1.7620   -2.4870 H   0  0  0  0  0  0  0  0  0  0  0  0
   -0.2410    0.0450   -2.9410 H   0  0  0  0  0  0  0  0  0  0  0  0
   -0.9370    1.1200   -0.1400 H   0  0  0  0  0  0  0  0  0  0  0  0
   -0.7660   -1.7580   -1.1140 H   0  0  0  0  0  0  0  0  0  0  0  0
  1  6  1  0  0  0  0
  2  7  1  0  0  0  0
  2  8  1  0  0  0  0
  2  1  1  0  0  0  0
  3  2  1  0  0  0  0
  4  3  2  0  0  0  0
  5  1  1  0  0  0  0
  9 13  1  0  0  0  0
  9  3  1  0  0  0  0
 10  9  1  0  0  0  0
 11 10  1  0  0  0  0
 11 12  2  0  0  0  0
 14 10  1  0  0  0  0
 15 10  1  0  0  0  0
 16 27  1  0  0  0  0
 17 16  1  0  0  0  0
 17 19  1  0  0  0  0
 18 17  2  0  0  0  0
 19 29  1  0  0  0  0
 19 28  1  0  0  0  0
 20 19  1  0  0  0  0
 20 21  1  0  0  0  0
 21 22  1  0  0  0  0
 21 32  1  1  0  0  0
 22 11  1  0  0  0  0
 23 25  1  0  0  0  0
 23 21  1  0  0  0  0
 24 23  2  0  0  0  0
 26 16  1  0  0  0  0
 30 20  1  0  0  0  0
 31 20  1  0  0  0  0
 33 22  1  0  0  0  0
M  END
$$$$
