GGR.pdb
 OpenBabel07022418223D

 39 38  0  0  1  0  0  0  0  0999 V2000
    0.2640   -2.9180    5.8420 N   0  0  0  0  0  0  0  0  0  0  0  0
    1.1830   -2.3870    4.8980 C   0  0  0  0  0  0  0  0  0  0  0  0
    0.7520   -2.5330    3.4870 C   0  0  0  0  0  0  0  0  0  0  0  0
    1.5360   -2.0760    2.6130 O   0  0  0  0  0  0  0  0  0  0  0  0
   -0.4260   -2.2570    6.2240 H   0  0  0  0  0  0  0  0  0  0  0  0
   -0.0590   -3.8720    5.6710 H   0  0  0  0  0  0  0  0  0  0  0  0
    1.2720   -1.2820    5.0870 H   0  0  0  0  0  0  0  0  0  0  0  0
    2.2200   -2.7840    5.0000 H   0  0  0  0  0  0  0  0  0  0  0  0
   -0.4750   -3.1510    3.1320 N   0  0  0  0  0  0  0  0  0  0  0  0
   -0.8430   -3.2530    1.7500 C   0  0  0  0  0  0  0  0  0  0  0  0
   -1.0220   -1.9290    1.1550 C   0  0  0  0  0  0  0  0  0  0  0  0
   -1.3020   -1.9050   -0.0910 O   0  0  0  0  0  0  0  0  0  0  0  0
   -1.0580   -3.5080    3.9220 H   0  0  0  0  0  0  0  0  0  0  0  0
   -1.7880   -3.8300    1.6030 H   0  0  0  0  0  0  0  0  0  0  0  0
   -0.0270   -3.8410    1.2570 H   0  0  0  0  0  0  0  0  0  0  0  0
    2.9080   -0.1220   -3.8310 N   0  0  0  0  0  0  0  0  0  0  0  0
    2.6080    1.0970   -3.1810 C   0  0  0  0  0  0  0  0  0  0  0  0
    3.3350    2.1750   -3.3540 N   0  0  0  0  0  0  0  0  0  0  0  0
    1.4730    1.1180   -2.3180 N   0  0  0  0  0  0  0  0  0  0  0  0
    1.3080    2.2000   -1.3970 C   0  0  0  0  0  0  0  0  0  0  0  0
    0.0450    2.0520   -0.5550 C   0  0  0  0  0  0  0  0  0  0  0  0
    0.0650    0.7980    0.2530 C   0  0  0  0  0  0  0  0  0  0  0  0
   -1.1190    0.5630    1.1200 C   0  0  2  0  0  0  0  0  0  0  0  0
   -0.9190   -0.6920    1.8250 N   0  0  0  0  0  0  0  0  0  0  0  0
   -2.4290    0.6260    0.4650 C   0  0  0  0  0  0  0  0  0  0  0  0
   -2.8540    1.5900   -0.2170 O   0  0  0  0  0  0  0  0  0  0  0  0
   -3.3410   -0.4450    0.5640 O   0  0  0  0  0  0  0  0  0  0  0  0
    3.7560   -0.6450   -3.5570 H   0  0  0  0  0  0  0  0  0  0  0  0
    2.2800   -0.4710   -4.5660 H   0  0  0  0  0  0  0  0  0  0  0  0
    4.1450    2.0740   -4.0000 H   0  0  0  0  0  0  0  0  0  0  0  0
    0.7840    0.3410   -2.3780 H   0  0  0  0  0  0  0  0  0  0  0  0
    1.1800    3.1690   -1.9520 H   0  0  0  0  0  0  0  0  0  0  0  0
    2.1950    2.3400   -0.7510 H   0  0  0  0  0  0  0  0  0  0  0  0
   -0.8560    2.1510   -1.1900 H   0  0  0  0  0  0  0  0  0  0  0  0
    0.0420    2.9160    0.1470 H   0  0  0  0  0  0  0  0  0  0  0  0
    0.2680   -0.0460   -0.4510 H   0  0  0  0  0  0  0  0  0  0  0  0
    0.9620    0.7790    0.9410 H   0  0  0  0  0  0  0  0  0  0  0  0
   -1.1430    1.3850    1.8990 H   0  0  0  0  0  0  0  0  0  0  0  0
   -0.7110   -0.6770    2.8510 H   0  0  0  0  0  0  0  0  0  0  0  0
  1  5  1  0  0  0  0
  2  8  1  0  0  0  0
  2  7  1  0  0  0  0
  2  1  1  0  0  0  0
  3  2  1  0  0  0  0
  4  3  2  0  0  0  0
  6  1  1  0  0  0  0
  9  3  1  0  0  0  0
  9 13  1  0  0  0  0
 10  9  1  0  0  0  0
 11 10  1  0  0  0  0
 11 24  1  0  0  0  0
 12 11  2  0  0  0  0
 14 10  1  0  0  0  0
 15 10  1  0  0  0  0
 16 28  1  0  0  0  0
 16 17  1  0  0  0  0
 17 19  1  0  0  0  0
 18 17  2  0  0  0  0
 19 20  1  0  0  0  0
 20 33  1  0  0  0  0
 20 21  1  0  0  0  0
 21 35  1  0  0  0  0
 21 22  1  0  0  0  0
 22 37  1  0  0  0  0
 22 23  1  0  0  0  0
 23 24  1  0  0  0  0
 23 38  1  1  0  0  0
 24 39  1  0  0  0  0
 25 27  1  0  0  0  0
 25 23  1  0  0  0  0
 26 25  2  0  0  0  0
 29 16  1  0  0  0  0
 30 18  1  0  0  0  0
 31 19  1  0  0  0  0
 32 20  1  0  0  0  0
 34 21  1  0  0  0  0
 36 22  1  0  0  0  0
M  END
$$$$
