GGS.pdb
 OpenBabel07022418223D

 27 26  0  0  1  0  0  0  0  0999 V2000
   -0.8160   -3.2590    3.3850 N   0  0  0  0  0  0  0  0  0  0  0  0
    0.1710   -3.4590    2.3410 C   0  0  0  0  0  0  0  0  0  0  0  0
   -0.2120   -2.7260    1.0990 C   0  0  0  0  0  0  0  0  0  0  0  0
    0.5340   -2.7910    0.0940 O   0  0  0  0  0  0  0  0  0  0  0  0
   -1.0660   -4.1480    3.8390 H   0  0  0  0  0  0  0  0  0  0  0  0
   -0.4450   -2.6120    4.1290 H   0  0  0  0  0  0  0  0  0  0  0  0
    1.1600   -3.0960    2.7090 H   0  0  0  0  0  0  0  0  0  0  0  0
    0.2280   -4.5470    2.1420 H   0  0  0  0  0  0  0  0  0  0  0  0
   -1.4010   -1.9670    1.0530 N   0  0  0  0  0  0  0  0  0  0  0  0
   -1.7930   -1.2400   -0.1270 C   0  0  0  0  0  0  0  0  0  0  0  0
   -0.8630   -0.1750   -0.5230 C   0  0  0  0  0  0  0  0  0  0  0  0
   -1.1160    0.4760   -1.5650 O   0  0  0  0  0  0  0  0  0  0  0  0
   -1.9950   -1.9520    1.9240 H   0  0  0  0  0  0  0  0  0  0  0  0
   -2.7810   -0.7530    0.0840 H   0  0  0  0  0  0  0  0  0  0  0  0
   -1.9660   -1.9640   -0.9670 H   0  0  0  0  0  0  0  0  0  0  0  0
    0.1020    2.9310    0.9630 O   0  0  0  0  0  0  0  0  0  0  0  0
    1.3360    2.3330    0.7530 C   0  0  0  0  0  0  0  0  0  0  0  0
    1.2050    1.2190   -0.2190 C   0  0  2  0  0  0  0  0  0  0  0  0
    0.3010    0.1680    0.1950 N   0  0  0  0  0  0  0  0  0  0  0  0
    2.5460    0.6560   -0.5850 C   0  0  0  0  0  0  0  0  0  0  0  0
    3.4860    1.3940   -0.9740 O   0  0  0  0  0  0  0  0  0  0  0  0
    2.8030   -0.7070   -0.5070 O   0  0  0  0  0  0  0  0  0  0  0  0
   -0.0620    3.5530    0.2120 H   0  0  0  0  0  0  0  0  0  0  0  0
    1.8060    2.0600    1.7130 H   0  0  0  0  0  0  0  0  0  0  0  0
    1.9900    3.1060    0.2960 H   0  0  0  0  0  0  0  0  0  0  0  0
    0.7860    1.6440   -1.1560 H   0  0  0  0  0  0  0  0  0  0  0  0
    0.5650   -0.3190    1.0840 H   0  0  0  0  0  0  0  0  0  0  0  0
  1  5  1  0  0  0  0
  1  6  1  0  0  0  0
  2  7  1  0  0  0  0
  2  1  1  0  0  0  0
  3  2  1  0  0  0  0
  4  3  2  0  0  0  0
  8  2  1  0  0  0  0
  9  3  1  0  0  0  0
  9 13  1  0  0  0  0
 10 14  1  0  0  0  0
 10  9  1  0  0  0  0
 11 10  1  0  0  0  0
 11 19  1  0  0  0  0
 12 11  2  0  0  0  0
 15 10  1  0  0  0  0
 17 16  1  0  0  0  0
 17 24  1  0  0  0  0
 18 26  1  6  0  0  0
 18 19  1  0  0  0  0
 18 17  1  0  0  0  0
 19 27  1  0  0  0  0
 20 22  1  0  0  0  0
 20 18  1  0  0  0  0
 21 20  2  0  0  0  0
 23 16  1  0  0  0  0
 25 17  1  0  0  0  0
M  END
$$$$
