GGT.pdb
 OpenBabel07022418223D

 30 29  0  0  1  0  0  0  0  0999 V2000
   -1.1540   -3.5890    4.6240 N   0  0  0  0  0  0  0  0  0  0  0  0
   -1.0080   -4.0780    3.2730 C   0  0  0  0  0  0  0  0  0  0  0  0
   -0.1290   -3.2240    2.4530 C   0  0  0  0  0  0  0  0  0  0  0  0
    0.0710   -3.5490    1.2660 O   0  0  0  0  0  0  0  0  0  0  0  0
   -1.8010   -4.2390    5.1220 H   0  0  0  0  0  0  0  0  0  0  0  0
   -1.6240   -2.6420    4.5580 H   0  0  0  0  0  0  0  0  0  0  0  0
   -0.5980   -5.1240    3.2890 H   0  0  0  0  0  0  0  0  0  0  0  0
   -1.9880   -4.1510    2.7500 H   0  0  0  0  0  0  0  0  0  0  0  0
    0.5020   -2.0500    2.9440 N   0  0  0  0  0  0  0  0  0  0  0  0
    1.3610   -1.2370    2.1050 C   0  0  0  0  0  0  0  0  0  0  0  0
    0.5750   -0.7530    0.9600 C   0  0  0  0  0  0  0  0  0  0  0  0
   -0.6510   -1.0530    0.8160 O   0  0  0  0  0  0  0  0  0  0  0  0
    0.3130   -1.8010    3.9570 H   0  0  0  0  0  0  0  0  0  0  0  0
    1.7110   -0.3720    2.7150 H   0  0  0  0  0  0  0  0  0  0  0  0
    2.2210   -1.8690    1.8080 H   0  0  0  0  0  0  0  0  0  0  0  0
   -0.7160    2.5290   -0.2490 C   0  0  0  0  0  0  0  0  0  0  0  0
    0.1780    1.9930   -1.3610 C   0  0  1  0  0  0  0  0  0  0  0  0
    1.3290    2.7160   -1.5210 O   0  0  0  0  0  0  0  0  0  0  0  0
    0.3340    0.5400   -1.1750 C   0  0  2  0  0  0  0  0  0  0  0  0
    1.0770    0.0700   -0.0720 N   0  0  0  0  0  0  0  0  0  0  0  0
    0.8410   -0.0640   -2.4250 C   0  0  0  0  0  0  0  0  0  0  0  0
    0.3110    0.2290   -3.5170 O   0  0  0  0  0  0  0  0  0  0  0  0
    1.8960   -0.9490   -2.4010 O   0  0  0  0  0  0  0  0  0  0  0  0
   -1.3850    1.7290    0.1350 H   0  0  0  0  0  0  0  0  0  0  0  0
   -0.1200    3.0040    0.5570 H   0  0  0  0  0  0  0  0  0  0  0  0
   -1.4010    3.3150   -0.6380 H   0  0  0  0  0  0  0  0  0  0  0  0
   -0.4010    2.1420   -2.3010 H   0  0  0  0  0  0  0  0  0  0  0  0
    1.6230    2.7020   -2.4560 H   0  0  0  0  0  0  0  0  0  0  0  0
   -0.7150    0.1270   -1.0540 H   0  0  0  0  0  0  0  0  0  0  0  0
    2.0830    0.3590   -0.0200 H   0  0  0  0  0  0  0  0  0  0  0  0
  1  5  1  0  0  0  0
  2  7  1  0  0  0  0
  2  1  1  0  0  0  0
  3  9  1  0  0  0  0
  3  2  1  0  0  0  0
  4  3  2  0  0  0  0
  6  1  1  0  0  0  0
  8  2  1  0  0  0  0
  9 13  1  0  0  0  0
 10 14  1  0  0  0  0
 10  9  1  0  0  0  0
 11 10  1  0  0  0  0
 12 11  2  0  0  0  0
 15 10  1  0  0  0  0
 16 24  1  0  0  0  0
 16 25  1  0  0  0  0
 17 27  1  6  0  0  0
 17 19  1  0  0  0  0
 17 16  1  0  0  0  0
 18 17  1  0  0  0  0
 19 29  1  1  0  0  0
 19 20  1  0  0  0  0
 20 30  1  0  0  0  0
 20 11  1  0  0  0  0
 21 23  1  0  0  0  0
 21 19  1  0  0  0  0
 22 21  2  0  0  0  0
 26 16  1  0  0  0  0
 28 18  1  0  0  0  0
M  END
$$$$
