GGV.pdb
 OpenBabel07022418223D

 32 31  0  0  1  0  0  0  0  0999 V2000
   -2.7480   -2.2050    3.3020 N   0  0  0  0  0  0  0  0  0  0  0  0
   -1.7330   -2.8170    2.4950 C   0  0  0  0  0  0  0  0  0  0  0  0
   -0.4900   -2.0030    2.4170 C   0  0  0  0  0  0  0  0  0  0  0  0
    0.4510   -2.4730    1.7240 O   0  0  0  0  0  0  0  0  0  0  0  0
   -2.4600   -2.0080    4.2680 H   0  0  0  0  0  0  0  0  0  0  0  0
   -3.2320   -1.4100    2.8620 H   0  0  0  0  0  0  0  0  0  0  0  0
   -2.1290   -2.8680    1.4440 H   0  0  0  0  0  0  0  0  0  0  0  0
   -1.5510   -3.8420    2.8390 H   0  0  0  0  0  0  0  0  0  0  0  0
   -0.3860   -0.7580    3.0960 N   0  0  0  0  0  0  0  0  0  0  0  0
    0.7920    0.0490    3.0310 C   0  0  0  0  0  0  0  0  0  0  0  0
    1.1360    0.5420    1.6760 C   0  0  0  0  0  0  0  0  0  0  0  0
    2.1810    1.2390    1.4770 O   0  0  0  0  0  0  0  0  0  0  0  0
   -1.2500   -0.4800    3.6510 H   0  0  0  0  0  0  0  0  0  0  0  0
    0.6830    0.9540    3.6720 H   0  0  0  0  0  0  0  0  0  0  0  0
    1.6850   -0.5310    3.4110 H   0  0  0  0  0  0  0  0  0  0  0  0
   -0.2810   -1.2130   -1.9200 C   0  0  0  0  0  0  0  0  0  0  0  0
    0.9430   -0.3630   -1.7580 C   0  0  0  0  0  0  0  0  0  0  0  0
    2.0910   -1.1900   -1.2270 C   0  0  0  0  0  0  0  0  0  0  0  0
    0.7200    0.7860   -0.7920 C   0  0  2  0  0  0  0  0  0  0  0  0
    0.3620    0.2970    0.5180 N   0  0  0  0  0  0  0  0  0  0  0  0
   -0.2680    1.7250   -1.3410 C   0  0  0  0  0  0  0  0  0  0  0  0
   -1.2830    2.0180   -0.6810 O   0  0  0  0  0  0  0  0  0  0  0  0
   -0.0760    2.2840   -2.5830 O   0  0  0  0  0  0  0  0  0  0  0  0
   -0.1100   -2.2560   -1.5580 H   0  0  0  0  0  0  0  0  0  0  0  0
   -1.1620   -0.8280   -1.3650 H   0  0  0  0  0  0  0  0  0  0  0  0
   -0.6090   -1.3130   -2.9780 H   0  0  0  0  0  0  0  0  0  0  0  0
    1.2350    0.0440   -2.7500 H   0  0  0  0  0  0  0  0  0  0  0  0
    2.6730   -0.6290   -0.4690 H   0  0  0  0  0  0  0  0  0  0  0  0
    1.6470   -2.0680   -0.7140 H   0  0  0  0  0  0  0  0  0  0  0  0
    2.7310   -1.5270   -2.0700 H   0  0  0  0  0  0  0  0  0  0  0  0
    1.6920    1.3490   -0.7440 H   0  0  0  0  0  0  0  0  0  0  0  0
   -0.5120   -0.2490    0.6080 H   0  0  0  0  0  0  0  0  0  0  0  0
  1  5  1  0  0  0  0
  2  8  1  0  0  0  0
  2  1  1  0  0  0  0
  3  2  1  0  0  0  0
  3  9  1  0  0  0  0
  4  3  2  0  0  0  0
  6  1  1  0  0  0  0
  7  2  1  0  0  0  0
  9 13  1  0  0  0  0
 10  9  1  0  0  0  0
 10 15  1  0  0  0  0
 10 14  1  0  0  0  0
 11 10  1  0  0  0  0
 12 11  2  0  0  0  0
 16 17  1  0  0  0  0
 16 24  1  0  0  0  0
 16 25  1  0  0  0  0
 17 18  1  0  0  0  0
 17 19  1  0  0  0  0
 18 29  1  0  0  0  0
 18 28  1  0  0  0  0
 19 31  1  1  0  0  0
 19 20  1  0  0  0  0
 20 32  1  0  0  0  0
 20 11  1  0  0  0  0
 21 19  1  0  0  0  0
 21 22  1  0  0  0  0
 23 21  2  0  0  0  0
 26 16  1  0  0  0  0
 27 17  1  0  0  0  0
 30 18  1  0  0  0  0
M  END
$$$$
