GGW.pdb
 OpenBabel07022418223D

 40 41  0  0  1  0  0  0  0  0999 V2000
    0.3640   -3.4640    3.7430 N   0  0  0  0  0  0  0  0  0  0  0  0
   -0.4230   -3.4320    2.5100 C   0  0  0  0  0  0  0  0  0  0  0  0
    0.4740   -3.2400    1.3300 C   0  0  0  0  0  0  0  0  0  0  0  0
    0.0510   -3.1790    0.1670 O   0  0  0  0  0  0  0  0  0  0  0  0
    0.9890   -4.3100    3.7060 H   0  0  0  0  0  0  0  0  0  0  0  0
   -0.2460   -3.5210    4.5730 H   0  0  0  0  0  0  0  0  0  0  0  0
   -1.1140   -2.5770    2.5920 H   0  0  0  0  0  0  0  0  0  0  0  0
   -0.9720   -4.4050    2.4220 H   0  0  0  0  0  0  0  0  0  0  0  0
    1.8680   -3.1220    1.5260 N   0  0  0  0  0  0  0  0  0  0  0  0
    2.8090   -2.9250    0.4860 C   0  0  0  0  0  0  0  0  0  0  0  0
    2.7760   -1.7070   -0.2830 C   0  0  0  0  0  0  0  0  0  0  0  0
    3.6170   -1.5440   -1.2460 O   0  0  0  0  0  0  0  0  0  0  0  0
    2.2020   -3.1850    2.5200 H   0  0  0  0  0  0  0  0  0  0  0  0
    3.8260   -3.1570    0.9130 H   0  0  0  0  0  0  0  0  0  0  0  0
    2.6690   -3.8090   -0.2340 H   0  0  0  0  0  0  0  0  0  0  0  0
    1.8670   -0.6080   -0.0680 N   0  0  0  0  0  0  0  0  0  0  0  0
    1.9740    0.5660   -0.8970 C   0  0  1  0  0  0  0  0  0  0  0  0
    0.7350    1.1690   -1.3680 C   0  0  0  0  0  0  0  0  0  0  0  0
   -0.2280    1.6620   -0.3670 C   0  0  0  0  0  0  0  0  0  0  0  0
   -0.3000    2.9380    0.1890 C   0  0  0  0  0  0  0  0  0  0  0  0
   -1.2790    2.9340    1.0930 N   0  0  0  0  0  0  0  0  0  0  0  0
   -1.8750    1.7200    1.1760 C   0  0  0  0  0  0  0  0  0  0  0  0
   -2.9280    1.2490    1.9460 C   0  0  0  0  0  0  0  0  0  0  0  0
   -3.3210   -0.0610    1.7770 C   0  0  0  0  0  0  0  0  0  0  0  0
   -2.6550   -0.8710    0.8460 C   0  0  0  0  0  0  0  0  0  0  0  0
   -1.6200   -0.3980    0.0940 C   0  0  0  0  0  0  0  0  0  0  0  0
   -1.2130    0.9330    0.2610 C   0  0  0  0  0  0  0  0  0  0  0  0
    2.8370    1.5990   -0.1770 C   0  0  0  0  0  0  0  0  0  0  0  0
    3.0970    2.7050   -0.6590 O   0  0  0  0  0  0  0  0  0  0  0  0
    3.3410    1.2630    1.0640 O   0  0  0  0  0  0  0  0  0  0  0  0
    1.1790   -0.7410    0.6970 H   0  0  0  0  0  0  0  0  0  0  0  0
    2.6220    0.3240   -1.7960 H   0  0  0  0  0  0  0  0  0  0  0  0
    0.9330    1.9840   -2.1280 H   0  0  0  0  0  0  0  0  0  0  0  0
    0.1770    0.4010   -1.9720 H   0  0  0  0  0  0  0  0  0  0  0  0
    0.3630    3.7540   -0.1100 H   0  0  0  0  0  0  0  0  0  0  0  0
   -1.5870    3.7550    1.6940 H   0  0  0  0  0  0  0  0  0  0  0  0
   -3.4300    1.8870    2.6590 H   0  0  0  0  0  0  0  0  0  0  0  0
   -4.1280   -0.5170    2.3300 H   0  0  0  0  0  0  0  0  0  0  0  0
   -2.9800   -1.8980    0.7280 H   0  0  0  0  0  0  0  0  0  0  0  0
   -1.0880   -0.9670   -0.6470 H   0  0  0  0  0  0  0  0  0  0  0  0
  1  6  1  0  0  0  0
  2  7  1  0  0  0  0
  2  1  1  0  0  0  0
  3  9  1  0  0  0  0
  3  2  1  0  0  0  0
  4  3  2  0  0  0  0
  5  1  1  0  0  0  0
  8  2  1  0  0  0  0
  9 13  1  0  0  0  0
 10 14  1  0  0  0  0
 10  9  1  0  0  0  0
 11 16  1  0  0  0  0
 11 10  1  0  0  0  0
 12 11  2  0  0  0  0
 15 10  1  0  0  0  0
 16 31  1  0  0  0  0
 17 32  1  6  0  0  0
 17 28  1  0  0  0  0
 17 16  1  0  0  0  0
 18 17  1  0  0  0  0
 18 19  1  0  0  0  0
 19 20  2  0  0  0  0
 19 27  1  0  0  0  0
 20 21  1  0  0  0  0
 21 22  1  0  0  0  0
 21 36  1  0  0  0  0
 22 23  1  0  0  0  0
 23 37  1  0  0  0  0
 24 23  2  0  0  0  0
 24 38  1  0  0  0  0
 25 24  1  0  0  0  0
 26 27  1  0  0  0  0
 26 25  2  0  0  0  0
 27 22  2  0  0  0  0
 28 30  1  0  0  0  0
 29 28  2  0  0  0  0
 33 18  1  0  0  0  0
 34 18  1  0  0  0  0
 35 20  1  0  0  0  0
 39 25  1  0  0  0  0
 40 26  1  0  0  0  0
M  END
$$$$
