GGY.pdb
 OpenBabel07022418223D

 37 37  0  0  1  0  0  0  0  0999 V2000
   -0.9500   -3.6440    3.4800 N   0  0  0  0  0  0  0  0  0  0  0  0
    0.2680   -4.4230    3.4380 C   0  0  0  0  0  0  0  0  0  0  0  0
    1.3720   -3.6240    2.8500 C   0  0  0  0  0  0  0  0  0  0  0  0
    2.5150   -4.0980    2.7160 O   0  0  0  0  0  0  0  0  0  0  0  0
   -0.9070   -2.8020    4.0570 H   0  0  0  0  0  0  0  0  0  0  0  0
   -1.4400   -3.5900    2.5860 H   0  0  0  0  0  0  0  0  0  0  0  0
    0.5840   -4.7660    4.4400 H   0  0  0  0  0  0  0  0  0  0  0  0
    0.0350   -5.3100    2.7780 H   0  0  0  0  0  0  0  0  0  0  0  0
    1.1290   -2.2770    2.4230 N   0  0  0  0  0  0  0  0  0  0  0  0
    2.1590   -1.4600    1.8480 C   0  0  0  0  0  0  0  0  0  0  0  0
    1.7830   -0.1080    1.4540 C   0  0  0  0  0  0  0  0  0  0  0  0
    2.6800    0.6220    0.9470 O   0  0  0  0  0  0  0  0  0  0  0  0
    0.1670   -1.9380    2.5560 H   0  0  0  0  0  0  0  0  0  0  0  0
    2.6810   -2.0030    1.0050 H   0  0  0  0  0  0  0  0  0  0  0  0
    2.9850   -1.3900    2.6300 H   0  0  0  0  0  0  0  0  0  0  0  0
    0.2660   -1.1280   -4.5270 O   0  0  0  0  0  0  0  0  0  0  0  0
   -0.0460   -0.4160   -3.3650 C   0  0  0  0  0  0  0  0  0  0  0  0
    0.1960    0.9370   -3.2570 C   0  0  0  0  0  0  0  0  0  0  0  0
   -0.1120    1.6400   -2.1120 C   0  0  0  0  0  0  0  0  0  0  0  0
   -0.6810    1.0110   -1.0180 C   0  0  0  0  0  0  0  0  0  0  0  0
   -1.0140    1.7560    0.2130 C   0  0  0  0  0  0  0  0  0  0  0  0
    0.1380    1.7770    1.2060 C   0  0  2  0  0  0  0  0  0  0  0  0
    0.5020    0.4190    1.6050 N   0  0  0  0  0  0  0  0  0  0  0  0
   -0.3050    2.5510    2.3840 C   0  0  0  0  0  0  0  0  0  0  0  0
   -0.3190    2.0050    3.5080 O   0  0  0  0  0  0  0  0  0  0  0  0
   -0.9250   -0.3490   -1.1270 C   0  0  0  0  0  0  0  0  0  0  0  0
   -0.6130   -1.0450   -2.2770 C   0  0  0  0  0  0  0  0  0  0  0  0
   -0.7060    3.8680    2.2840 O   0  0  0  0  0  0  0  0  0  0  0  0
    0.8490   -1.9470   -4.4340 H   0  0  0  0  0  0  0  0  0  0  0  0
    0.6400    1.4460   -4.1000 H   0  0  0  0  0  0  0  0  0  0  0  0
    0.0930    2.7180   -2.0540 H   0  0  0  0  0  0  0  0  0  0  0  0
   -1.9410    1.3740    0.6740 H   0  0  0  0  0  0  0  0  0  0  0  0
   -1.2040    2.8080   -0.0660 H   0  0  0  0  0  0  0  0  0  0  0  0
    1.0310    2.2470    0.7950 H   0  0  0  0  0  0  0  0  0  0  0  0
   -0.2610   -0.1380    2.0130 H   0  0  0  0  0  0  0  0  0  0  0  0
   -1.3770   -0.8550   -0.2610 H   0  0  0  0  0  0  0  0  0  0  0  0
   -0.8250   -2.1040   -2.3090 H   0  0  0  0  0  0  0  0  0  0  0  0
  1  5  1  0  0  0  0
  2  1  1  0  0  0  0
  2  7  1  0  0  0  0
  3  2  1  0  0  0  0
  4  3  2  0  0  0  0
  6  1  1  0  0  0  0
  8  2  1  0  0  0  0
  9 13  1  0  0  0  0
  9  3  1  0  0  0  0
 10  9  1  0  0  0  0
 10 15  1  0  0  0  0
 11 23  1  0  0  0  0
 11 10  1  0  0  0  0
 12 11  2  0  0  0  0
 14 10  1  0  0  0  0
 16 29  1  0  0  0  0
 16 17  1  0  0  0  0
 17 18  2  0  0  0  0
 17 27  1  0  0  0  0
 18 19  1  0  0  0  0
 19 31  1  0  0  0  0
 19 20  2  0  0  0  0
 20 21  1  0  0  0  0
 21 32  1  0  0  0  0
 21 22  1  0  0  0  0
 22 34  1  6  0  0  0
 22 23  1  0  0  0  0
 22 24  1  0  0  0  0
 23 35  1  0  0  0  0
 24 25  1  0  0  0  0
 26 20  1  0  0  0  0
 26 36  1  0  0  0  0
 27 26  2  0  0  0  0
 28 24  2  0  0  0  0
 30 18  1  0  0  0  0
 33 21  1  0  0  0  0
 37 27  1  0  0  0  0
M  END
$$$$
