GHA.pdb
 OpenBabel07022418233D

 36 36  0  0  1  0  0  0  0  0999 V2000
    3.5460   -4.2420   -0.4580 N   0  0  0  0  0  0  0  0  0  0  0  0
    2.6010   -3.1900   -0.7840 C   0  0  0  0  0  0  0  0  0  0  0  0
    2.5170   -2.2440    0.3570 C   0  0  0  0  0  0  0  0  0  0  0  0
    3.2060   -2.4320    1.3890 O   0  0  0  0  0  0  0  0  0  0  0  0
    4.3410   -3.9050    0.1040 H   0  0  0  0  0  0  0  0  0  0  0  0
    3.0590   -5.0680   -0.0140 H   0  0  0  0  0  0  0  0  0  0  0  0
    1.6050   -3.5900   -1.0120 H   0  0  0  0  0  0  0  0  0  0  0  0
    3.0130   -2.6840   -1.7010 H   0  0  0  0  0  0  0  0  0  0  0  0
    1.6750   -1.0990    0.3500 N   0  0  0  0  0  0  0  0  0  0  0  0
    1.5850   -0.1690    1.4590 C   0  0  1  0  0  0  0  0  0  0  0  0
    2.0990    1.1990    1.0970 C   0  0  0  0  0  0  0  0  0  0  0  0
    1.3570    1.8120   -0.0150 C   0  0  0  0  0  0  0  0  0  0  0  0
    0.2380    2.6100    0.0880 C   0  0  0  0  0  0  0  0  0  0  0  0
   -0.1550    2.9800   -1.1470 N   0  0  0  0  0  0  0  0  0  0  0  0
    0.7030    2.4230   -2.0110 C   0  0  0  0  0  0  0  0  0  0  0  0
    1.6060    1.7260   -1.3340 N   0  0  0  0  0  0  0  0  0  0  0  0
    0.2040   -0.1350    1.9840 C   0  0  0  0  0  0  0  0  0  0  0  0
   -0.1130    0.5980    2.9450 O   0  0  0  0  0  0  0  0  0  0  0  0
    1.1010   -0.9590   -0.5300 H   0  0  0  0  0  0  0  0  0  0  0  0
    2.2940   -0.5640    2.2460 H   0  0  0  0  0  0  0  0  0  0  0  0
    3.1920    1.1160    0.9050 H   0  0  0  0  0  0  0  0  0  0  0  0
    2.0060    1.8280    2.0110 H   0  0  0  0  0  0  0  0  0  0  0  0
   -0.3000    2.9330    0.9830 H   0  0  0  0  0  0  0  0  0  0  0  0
   -0.9730    3.5850   -1.3790 H   0  0  0  0  0  0  0  0  0  0  0  0
    0.6110    2.5670   -3.1000 H   0  0  0  0  0  0  0  0  0  0  0  0
   -3.1280   -0.4850    0.7880 C   0  0  0  0  0  0  0  0  0  0  0  0
   -2.1580   -0.9610    1.8560 C   0  0  2  0  0  0  0  0  0  0  0  0
   -0.7920   -0.9460    1.3940 N   0  0  0  0  0  0  0  0  0  0  0  0
   -2.5500   -2.3290    2.2780 C   0  0  0  0  0  0  0  0  0  0  0  0
   -1.7350   -3.2780    2.2050 O   0  0  0  0  0  0  0  0  0  0  0  0
   -3.8300   -2.5570    2.7560 O   0  0  0  0  0  0  0  0  0  0  0  0
   -2.8020   -0.7870   -0.2160 H   0  0  0  0  0  0  0  0  0  0  0  0
   -4.1010   -1.0070    0.9750 H   0  0  0  0  0  0  0  0  0  0  0  0
   -3.3150    0.6140    0.8730 H   0  0  0  0  0  0  0  0  0  0  0  0
   -2.2300   -0.2480    2.7070 H   0  0  0  0  0  0  0  0  0  0  0  0
   -0.5710   -1.5830    0.5800 H   0  0  0  0  0  0  0  0  0  0  0  0
  1  6  1  0  0  0  0
  1  5  1  0  0  0  0
  2  1  1  0  0  0  0
  2  3  1  0  0  0  0
  3  4  2  0  0  0  0
  7  2  1  0  0  0  0
  8  2  1  0  0  0  0
  9  3  1  0  0  0  0
  9 10  1  0  0  0  0
 10 17  1  0  0  0  0
 10 20  1  1  0  0  0
 11 10  1  0  0  0  0
 11 22  1  0  0  0  0
 12 13  2  0  0  0  0
 12 11  1  0  0  0  0
 13 23  1  0  0  0  0
 14 13  1  0  0  0  0
 15 16  2  0  0  0  0
 15 14  1  0  0  0  0
 16 12  1  0  0  0  0
 17 18  2  0  0  0  0
 19  9  1  0  0  0  0
 21 11  1  0  0  0  0
 24 14  1  0  0  0  0
 25 15  1  0  0  0  0
 26 34  1  0  0  0  0
 26 33  1  0  0  0  0
 26 27  1  0  0  0  0
 27 29  1  0  0  0  0
 27 35  1  1  0  0  0
 28 27  1  0  0  0  0
 28 17  1  0  0  0  0
 29 31  1  0  0  0  0
 30 29  2  0  0  0  0
 32 26  1  0  0  0  0
 36 28  1  0  0  0  0
M  END
$$$$
