GHC.pdb
 OpenBabel07022418233D

 37 37  0  0  1  0  0  0  0  0999 V2000
   -1.4010   -3.7120    1.6790 N   0  0  0  0  0  0  0  0  0  0  0  0
   -0.0740   -4.1440    2.0880 C   0  0  0  0  0  0  0  0  0  0  0  0
    0.9370   -3.2140    1.5170 C   0  0  0  0  0  0  0  0  0  0  0  0
    2.1610   -3.3960    1.7430 O   0  0  0  0  0  0  0  0  0  0  0  0
   -2.0960   -3.9880    2.4290 H   0  0  0  0  0  0  0  0  0  0  0  0
   -1.6260   -4.2110    0.7950 H   0  0  0  0  0  0  0  0  0  0  0  0
   -0.0530   -4.0600    3.2010 H   0  0  0  0  0  0  0  0  0  0  0  0
    0.1380   -5.1890    1.8360 H   0  0  0  0  0  0  0  0  0  0  0  0
    0.5740   -2.0990    0.7070 N   0  0  0  0  0  0  0  0  0  0  0  0
    1.5250   -1.1800    0.1390 C   0  0  1  0  0  0  0  0  0  0  0  0
    1.5300   -1.2080   -1.3580 C   0  0  0  0  0  0  0  0  0  0  0  0
    0.2260   -0.8570   -1.9570 C   0  0  0  0  0  0  0  0  0  0  0  0
   -0.2360    0.3840   -2.3260 C   0  0  0  0  0  0  0  0  0  0  0  0
   -1.4700    0.2420   -2.8280 N   0  0  0  0  0  0  0  0  0  0  0  0
   -1.7920   -1.0570   -2.7830 C   0  0  0  0  0  0  0  0  0  0  0  0
   -0.7590   -1.7370   -2.2510 N   0  0  0  0  0  0  0  0  0  0  0  0
    1.3910    0.1990    0.7010 C   0  0  0  0  0  0  0  0  0  0  0  0
    2.1580    1.1000    0.2910 O   0  0  0  0  0  0  0  0  0  0  0  0
   -0.4660   -1.9800    0.5400 H   0  0  0  0  0  0  0  0  0  0  0  0
    2.5390   -1.5330    0.4680 H   0  0  0  0  0  0  0  0  0  0  0  0
    2.3230   -0.5000   -1.7400 H   0  0  0  0  0  0  0  0  0  0  0  0
    1.8270   -2.2090   -1.7320 H   0  0  0  0  0  0  0  0  0  0  0  0
    0.2870    1.3180   -2.2350 H   0  0  0  0  0  0  0  0  0  0  0  0
   -2.0460    1.0340   -3.1820 H   0  0  0  0  0  0  0  0  0  0  0  0
   -2.7460   -1.4390   -3.1330 H   0  0  0  0  0  0  0  0  0  0  0  0
    0.4150    0.4730    1.6770 N   0  0  0  0  0  0  0  0  0  0  0  0
    0.1750    1.7310    2.2800 C   0  0  1  0  0  0  0  0  0  0  0  0
    0.8690    2.0010    3.5690 C   0  0  0  0  0  0  0  0  0  0  0  0
    0.4180    0.8060    4.8580 S   0  0  0  0  0  0  0  0  0  0  0  0
    0.1980    2.9080    1.3460 C   0  0  0  0  0  0  0  0  0  0  0  0
    0.2990    2.7160    0.1260 O   0  0  0  0  0  0  0  0  0  0  0  0
    0.1070    4.2040    1.8420 O   0  0  0  0  0  0  0  0  0  0  0  0
   -0.1910   -0.3730    1.9770 H   0  0  0  0  0  0  0  0  0  0  0  0
   -0.9580    1.7100    2.5400 H   0  0  0  0  0  0  0  0  0  0  0  0
    0.5710    3.0000    3.9530 H   0  0  0  0  0  0  0  0  0  0  0  0
    1.9740    1.9770    3.4940 H   0  0  0  0  0  0  0  0  0  0  0  0
    1.0930   -0.4220    4.5980 H   0  0  0  0  0  0  0  0  0  0  0  0
  1  2  1  0  0  0  0
  1  5  1  0  0  0  0
  2  7  1  0  0  0  0
  3  4  2  0  0  0  0
  3  2  1  0  0  0  0
  6  1  1  0  0  0  0
  8  2  1  0  0  0  0
  9  3  1  0  0  0  0
 10 20  1  1  0  0  0
 10 17  1  0  0  0  0
 10  9  1  0  0  0  0
 11 10  1  0  0  0  0
 12 11  1  0  0  0  0
 13 23  1  0  0  0  0
 13 12  2  0  0  0  0
 14 15  1  0  0  0  0
 14 13  1  0  0  0  0
 15 16  2  0  0  0  0
 16 12  1  0  0  0  0
 17 26  1  0  0  0  0
 18 17  2  0  0  0  0
 19  9  1  0  0  0  0
 21 11  1  0  0  0  0
 22 11  1  0  0  0  0
 24 14  1  0  0  0  0
 25 15  1  0  0  0  0
 26 33  1  0  0  0  0
 26 27  1  0  0  0  0
 27 34  1  1  0  0  0
 27 28  1  0  0  0  0
 28 35  1  0  0  0  0
 28 29  1  0  0  0  0
 30 32  1  0  0  0  0
 30 27  1  0  0  0  0
 31 30  2  0  0  0  0
 36 28  1  0  0  0  0
 37 29  1  0  0  0  0
M  END
$$$$
