GHD.pdb
 OpenBabel07022418233D

 39 39  0  0  1  0  0  0  0  0999 V2000
   -2.9280   -1.5940   -0.2000 N   0  0  0  0  0  0  0  0  0  0  0  0
   -2.3380   -1.2980   -1.4780 C   0  0  0  0  0  0  0  0  0  0  0  0
   -1.0830   -0.5270   -1.3240 C   0  0  0  0  0  0  0  0  0  0  0  0
   -0.4470   -0.1920   -2.3830 O   0  0  0  0  0  0  0  0  0  0  0  0
   -2.4230   -2.3780    0.2340 H   0  0  0  0  0  0  0  0  0  0  0  0
   -3.0550   -0.7530    0.3720 H   0  0  0  0  0  0  0  0  0  0  0  0
   -3.0310   -0.7730   -2.1670 H   0  0  0  0  0  0  0  0  0  0  0  0
   -2.0460   -2.2700   -1.9570 H   0  0  0  0  0  0  0  0  0  0  0  0
   -0.5430   -0.1380   -0.0640 N   0  0  0  0  0  0  0  0  0  0  0  0
    0.6800    0.6090    0.0050 C   0  0  1  0  0  0  0  0  0  0  0  0
    0.4510    2.0070    0.5820 C   0  0  0  0  0  0  0  0  0  0  0  0
   -0.4990    2.7760   -0.2530 C   0  0  0  0  0  0  0  0  0  0  0  0
   -1.8640    2.7810   -0.0720 C   0  0  0  0  0  0  0  0  0  0  0  0
   -2.4330    3.5920   -1.0130 N   0  0  0  0  0  0  0  0  0  0  0  0
   -1.4270    4.0870   -1.7710 C   0  0  0  0  0  0  0  0  0  0  0  0
   -0.2560    3.5790   -1.2930 N   0  0  0  0  0  0  0  0  0  0  0  0
    1.7510   -0.0970    0.7370 C   0  0  0  0  0  0  0  0  0  0  0  0
    2.8820    0.4340    0.8690 O   0  0  0  0  0  0  0  0  0  0  0  0
   -1.0860   -0.4270    0.7830 H   0  0  0  0  0  0  0  0  0  0  0  0
    1.0550    0.7810   -1.0250 H   0  0  0  0  0  0  0  0  0  0  0  0
    1.4090    2.5650    0.5920 H   0  0  0  0  0  0  0  0  0  0  0  0
    0.1180    1.9460    1.6370 H   0  0  0  0  0  0  0  0  0  0  0  0
   -2.4160    2.2310    0.6920 H   0  0  0  0  0  0  0  0  0  0  0  0
   -3.4520    3.7850   -1.1160 H   0  0  0  0  0  0  0  0  0  0  0  0
   -1.5400    4.7650   -2.6060 H   0  0  0  0  0  0  0  0  0  0  0  0
    1.4740   -1.3700    1.2780 N   0  0  0  0  0  0  0  0  0  0  0  0
    2.4870   -2.1430    2.0220 C   0  0  1  0  0  0  0  0  0  0  0  0
    1.9530   -2.3480    3.4020 C   0  0  0  0  0  0  0  0  0  0  0  0
    2.8290   -3.0870    4.3200 C   0  0  0  0  0  0  0  0  0  0  0  0
    3.9650   -3.4660    3.9730 O   0  0  0  0  0  0  0  0  0  0  0  0
    2.7170   -3.3970    1.2640 C   0  0  0  0  0  0  0  0  0  0  0  0
    3.5170   -4.2840    1.5850 O   0  0  0  0  0  0  0  0  0  0  0  0
    2.4020   -3.3810    5.6060 O   0  0  0  0  0  0  0  0  0  0  0  0
    1.9910   -3.6440    0.0790 O   0  0  0  0  0  0  0  0  0  0  0  0
    0.5320   -1.7720    1.1480 H   0  0  0  0  0  0  0  0  0  0  0  0
    3.4240   -1.5830    2.0530 H   0  0  0  0  0  0  0  0  0  0  0  0
    1.7620   -1.3550    3.8760 H   0  0  0  0  0  0  0  0  0  0  0  0
    0.9360   -2.8410    3.3480 H   0  0  0  0  0  0  0  0  0  0  0  0
    2.8830   -4.0530    6.1990 H   0  0  0  0  0  0  0  0  0  0  0  0
  1  5  1  0  0  0  0
  1  6  1  0  0  0  0
  2  3  1  0  0  0  0
  2  1  1  0  0  0  0
  3  9  1  0  0  0  0
  4  3  2  0  0  0  0
  7  2  1  0  0  0  0
  8  2  1  0  0  0  0
  9 10  1  0  0  0  0
  9 19  1  0  0  0  0
 10 20  1  6  0  0  0
 10 11  1  0  0  0  0
 10 17  1  0  0  0  0
 11 21  1  0  0  0  0
 11 22  1  0  0  0  0
 12 13  2  0  0  0  0
 12 11  1  0  0  0  0
 13 23  1  0  0  0  0
 14 13  1  0  0  0  0
 15 16  2  0  0  0  0
 15 14  1  0  0  0  0
 16 12  1  0  0  0  0
 17 18  2  0  0  0  0
 17 26  1  0  0  0  0
 24 14  1  0  0  0  0
 25 15  1  0  0  0  0
 26 27  1  0  0  0  0
 27 36  1  1  0  0  0
 27 28  1  0  0  0  0
 28 37  1  0  0  0  0
 28 29  1  0  0  0  0
 29 33  1  0  0  0  0
 30 29  2  0  0  0  0
 31 32  1  0  0  0  0
 31 27  1  0  0  0  0
 33 39  1  0  0  0  0
 34 31  2  0  0  0  0
 35 26  1  0  0  0  0
 38 28  1  0  0  0  0
M  END
$$$$
