GHG.pdb
 OpenBabel07022418233D

 33 33  0  0  1  0  0  0  0  0999 V2000
   -2.5420   -1.8060    3.7050 N   0  0  0  0  0  0  0  0  0  0  0  0
   -1.2490   -1.9140    4.3150 C   0  0  0  0  0  0  0  0  0  0  0  0
   -0.1470   -1.6140    3.3670 C   0  0  0  0  0  0  0  0  0  0  0  0
    1.0680   -1.6430    3.6700 O   0  0  0  0  0  0  0  0  0  0  0  0
   -2.6610   -2.4340    2.8780 H   0  0  0  0  0  0  0  0  0  0  0  0
   -2.8500   -0.8330    3.5480 H   0  0  0  0  0  0  0  0  0  0  0  0
   -1.2170   -1.2010    5.1650 H   0  0  0  0  0  0  0  0  0  0  0  0
   -1.1370   -2.9380    4.7590 H   0  0  0  0  0  0  0  0  0  0  0  0
   -0.4760   -1.2710    2.0340 N   0  0  0  0  0  0  0  0  0  0  0  0
    0.5160   -0.9590    1.0240 C   0  0  1  0  0  0  0  0  0  0  0  0
    0.3470   -1.9510   -0.1210 C   0  0  0  0  0  0  0  0  0  0  0  0
    1.3560   -1.6750   -1.2030 C   0  0  0  0  0  0  0  0  0  0  0  0
    2.6230   -2.1990   -1.3190 C   0  0  0  0  0  0  0  0  0  0  0  0
    3.2270   -1.7180   -2.4160 N   0  0  0  0  0  0  0  0  0  0  0  0
    2.3380   -0.8900   -2.9890 C   0  0  0  0  0  0  0  0  0  0  0  0
    1.2110   -0.8620   -2.2610 N   0  0  0  0  0  0  0  0  0  0  0  0
    0.2590    0.4300    0.5500 C   0  0  0  0  0  0  0  0  0  0  0  0
    0.9720    0.9730   -0.3300 O   0  0  0  0  0  0  0  0  0  0  0  0
   -1.4850   -1.2290    1.7140 H   0  0  0  0  0  0  0  0  0  0  0  0
    1.5380   -1.0230    1.4260 H   0  0  0  0  0  0  0  0  0  0  0  0
   -0.6550   -1.8210   -0.5770 H   0  0  0  0  0  0  0  0  0  0  0  0
    0.4030   -2.9910    0.2400 H   0  0  0  0  0  0  0  0  0  0  0  0
    3.0980   -2.9050   -0.6380 H   0  0  0  0  0  0  0  0  0  0  0  0
    4.1840   -1.9060   -2.8010 H   0  0  0  0  0  0  0  0  0  0  0  0
    2.4600   -0.3020   -3.9100 H   0  0  0  0  0  0  0  0  0  0  0  0
   -0.7990    1.2290    1.0570 N   0  0  0  0  0  0  0  0  0  0  0  0
   -1.0100    2.5720    0.5640 C   0  0  0  0  0  0  0  0  0  0  0  0
   -1.2790    2.4480   -0.8930 C   0  0  0  0  0  0  0  0  0  0  0  0
   -1.4920    3.4850   -1.6060 O   0  0  0  0  0  0  0  0  0  0  0  0
   -1.3200    1.2380   -1.5670 O   0  0  0  0  0  0  0  0  0  0  0  0
   -1.4300    0.8490    1.7890 H   0  0  0  0  0  0  0  0  0  0  0  0
   -1.9100    3.0020    1.0390 H   0  0  0  0  0  0  0  0  0  0  0  0
   -0.1130    3.2110    0.6900 H   0  0  0  0  0  0  0  0  0  0  0  0
  1  2  1  0  0  0  0
  2  8  1  0  0  0  0
  2  7  1  0  0  0  0
  3  4  2  0  0  0  0
  3  2  1  0  0  0  0
  5  1  1  0  0  0  0
  6  1  1  0  0  0  0
  9  3  1  0  0  0  0
 10 20  1  1  0  0  0
 10  9  1  0  0  0  0
 11 22  1  0  0  0  0
 11 10  1  0  0  0  0
 12 11  1  0  0  0  0
 13 12  2  0  0  0  0
 13 23  1  0  0  0  0
 14 13  1  0  0  0  0
 15 14  1  0  0  0  0
 15 16  2  0  0  0  0
 16 12  1  0  0  0  0
 17 10  1  0  0  0  0
 17 26  1  0  0  0  0
 18 17  2  0  0  0  0
 19  9  1  0  0  0  0
 21 11  1  0  0  0  0
 24 14  1  0  0  0  0
 25 15  1  0  0  0  0
 26 31  1  0  0  0  0
 27 33  1  0  0  0  0
 27 32  1  0  0  0  0
 27 26  1  0  0  0  0
 28 27  1  0  0  0  0
 29 28  2  0  0  0  0
 30 28  1  0  0  0  0
M  END
$$$$
