GHH.pdb
 OpenBabel07022418233D

 43 44  0  0  1  0  0  0  0  0999 V2000
    2.8190   -2.5470    2.5200 N   0  0  0  0  0  0  0  0  0  0  0  0
    3.7880   -1.5280    2.2290 C   0  0  0  0  0  0  0  0  0  0  0  0
    3.2240   -0.4430    1.3810 C   0  0  0  0  0  0  0  0  0  0  0  0
    3.9080    0.5450    1.0120 O   0  0  0  0  0  0  0  0  0  0  0  0
    2.8500   -2.8510    3.5250 H   0  0  0  0  0  0  0  0  0  0  0  0
    3.0490   -3.4060    1.9550 H   0  0  0  0  0  0  0  0  0  0  0  0
    4.6560   -1.9440    1.6950 H   0  0  0  0  0  0  0  0  0  0  0  0
    4.1670   -1.1480    3.2060 H   0  0  0  0  0  0  0  0  0  0  0  0
    1.8710   -0.4760    0.9450 N   0  0  0  0  0  0  0  0  0  0  0  0
    1.2440    0.5270    0.1270 C   0  0  1  0  0  0  0  0  0  0  0  0
    0.8550   -0.1380   -1.1850 C   0  0  0  0  0  0  0  0  0  0  0  0
    2.0220   -0.6880   -1.8970 C   0  0  0  0  0  0  0  0  0  0  0  0
    2.7840    0.0040   -2.8210 C   0  0  0  0  0  0  0  0  0  0  0  0
    3.7370   -0.8400   -3.2300 N   0  0  0  0  0  0  0  0  0  0  0  0
    3.5960   -2.0140   -2.6030 C   0  0  0  0  0  0  0  0  0  0  0  0
    2.5480   -1.9230   -1.7880 N   0  0  0  0  0  0  0  0  0  0  0  0
   -0.0190    1.0390    0.7320 C   0  0  0  0  0  0  0  0  0  0  0  0
   -0.6500    1.9220    0.0980 O   0  0  0  0  0  0  0  0  0  0  0  0
    1.2920   -1.2890    1.2440 H   0  0  0  0  0  0  0  0  0  0  0  0
    1.9320    1.3530   -0.1430 H   0  0  0  0  0  0  0  0  0  0  0  0
    0.1150   -0.9580   -1.0180 H   0  0  0  0  0  0  0  0  0  0  0  0
    0.3330    0.5920   -1.8610 H   0  0  0  0  0  0  0  0  0  0  0  0
    2.6390    1.0130   -3.1430 H   0  0  0  0  0  0  0  0  0  0  0  0
    4.4890   -0.6350   -3.9330 H   0  0  0  0  0  0  0  0  0  0  0  0
    4.2200   -2.8990   -2.7260 H   0  0  0  0  0  0  0  0  0  0  0  0
   -0.5400    0.5950    1.9580 N   0  0  0  0  0  0  0  0  0  0  0  0
   -1.7700    1.0970    2.5430 C   0  0  1  0  0  0  0  0  0  0  0  0
   -2.8080    0.0050    2.6840 C   0  0  0  0  0  0  0  0  0  0  0  0
   -3.1420   -0.5790    1.3600 C   0  0  0  0  0  0  0  0  0  0  0  0
   -2.4630   -1.6640    0.8210 C   0  0  0  0  0  0  0  0  0  0  0  0
   -2.9920   -1.9650   -0.3890 N   0  0  0  0  0  0  0  0  0  0  0  0
   -3.9860   -1.0860   -0.6080 C   0  0  0  0  0  0  0  0  0  0  0  0
   -4.0680   -0.2470    0.4620 N   0  0  0  0  0  0  0  0  0  0  0  0
   -1.5420    1.7710    3.8300 C   0  0  0  0  0  0  0  0  0  0  0  0
   -0.3730    1.8430    4.2770 O   0  0  0  0  0  0  0  0  0  0  0  0
   -2.5660    2.3290    4.5700 O   0  0  0  0  0  0  0  0  0  0  0  0
    0.0020   -0.1430    2.4710 H   0  0  0  0  0  0  0  0  0  0  0  0
   -2.1650    1.8570    1.8370 H   0  0  0  0  0  0  0  0  0  0  0  0
   -2.5140   -0.7770    3.3860 H   0  0  0  0  0  0  0  0  0  0  0  0
   -3.7340    0.4950    3.0530 H   0  0  0  0  0  0  0  0  0  0  0  0
   -1.6330   -2.1940    1.2960 H   0  0  0  0  0  0  0  0  0  0  0  0
   -2.6970   -2.7310   -1.0390 H   0  0  0  0  0  0  0  0  0  0  0  0
   -4.6010   -1.0790   -1.5070 H   0  0  0  0  0  0  0  0  0  0  0  0
  1  5  1  0  0  0  0
  2  1  1  0  0  0  0
  2  8  1  0  0  0  0
  3  2  1  0  0  0  0
  4  3  2  0  0  0  0
  6  1  1  0  0  0  0
  7  2  1  0  0  0  0
  9 19  1  0  0  0  0
  9  3  1  0  0  0  0
 10 20  1  6  0  0  0
 10 17  1  0  0  0  0
 10  9  1  0  0  0  0
 11 21  1  0  0  0  0
 11 10  1  0  0  0  0
 12 16  1  0  0  0  0
 12 11  1  0  0  0  0
 13 12  2  0  0  0  0
 14 13  1  0  0  0  0
 14 15  1  0  0  0  0
 15 16  2  0  0  0  0
 17 26  1  0  0  0  0
 18 17  2  0  0  0  0
 22 11  1  0  0  0  0
 23 13  1  0  0  0  0
 24 14  1  0  0  0  0
 25 15  1  0  0  0  0
 26 37  1  0  0  0  0
 26 27  1  0  0  0  0
 27 38  1  6  0  0  0
 27 28  1  0  0  0  0
 27 34  1  0  0  0  0
 28 40  1  0  0  0  0
 28 39  1  0  0  0  0
 29 28  1  0  0  0  0
 30 41  1  0  0  0  0
 30 29  2  0  0  0  0
 31 30  1  0  0  0  0
 32 31  1  0  0  0  0
 32 33  2  0  0  0  0
 33 29  1  0  0  0  0
 34 35  2  0  0  0  0
 34 36  1  0  0  0  0
 42 31  1  0  0  0  0
 43 32  1  0  0  0  0
M  END
$$$$
