GHK.pdb
 OpenBabel07022418233D

 47 47  0  0  1  0  0  0  0  0999 V2000
    2.2310    2.3170    5.0280 N   0  0  0  0  0  0  0  0  0  0  0  0
    2.8650    2.4130    3.7500 C   0  0  0  0  0  0  0  0  0  0  0  0
    2.3610    1.3550    2.8020 C   0  0  0  0  0  0  0  0  0  0  0  0
    1.4910    0.5510    3.2120 O   0  0  0  0  0  0  0  0  0  0  0  0
    2.0340    1.3270    5.2700 H   0  0  0  0  0  0  0  0  0  0  0  0
    1.3810    2.9080    5.1260 H   0  0  0  0  0  0  0  0  0  0  0  0
    2.6570    3.3960    3.3170 H   0  0  0  0  0  0  0  0  0  0  0  0
    3.9560    2.3320    3.8860 H   0  0  0  0  0  0  0  0  0  0  0  0
    2.8650    1.2820    1.4880 N   0  0  0  0  0  0  0  0  0  0  0  0
    2.3820    0.2640    0.5650 C   0  0  1  0  0  0  0  0  0  0  0  0
    2.7760   -1.0840    1.0570 C   0  0  0  0  0  0  0  0  0  0  0  0
    2.3220   -2.2040    0.2140 C   0  0  0  0  0  0  0  0  0  0  0  0
    1.1510   -2.9520    0.3790 C   0  0  0  0  0  0  0  0  0  0  0  0
    1.1260   -3.8900   -0.5500 N   0  0  0  0  0  0  0  0  0  0  0  0
    2.2340   -3.7640   -1.2950 C   0  0  0  0  0  0  0  0  0  0  0  0
    2.9640   -2.7400   -0.8330 N   0  0  0  0  0  0  0  0  0  0  0  0
    0.9330    0.4560    0.2990 C   0  0  0  0  0  0  0  0  0  0  0  0
    0.2760    1.2750    1.0400 O   0  0  0  0  0  0  0  0  0  0  0  0
    3.6050    1.9780    1.1670 H   0  0  0  0  0  0  0  0  0  0  0  0
    2.8770    0.4410   -0.4370 H   0  0  0  0  0  0  0  0  0  0  0  0
    2.3640   -1.2560    2.0800 H   0  0  0  0  0  0  0  0  0  0  0  0
    3.9110   -1.0670    1.1060 H   0  0  0  0  0  0  0  0  0  0  0  0
    0.3850   -2.8110    1.1250 H   0  0  0  0  0  0  0  0  0  0  0  0
    0.3730   -4.6030   -0.6790 H   0  0  0  0  0  0  0  0  0  0  0  0
    2.4680   -4.4150   -2.1380 H   0  0  0  0  0  0  0  0  0  0  0  0
    0.2290   -0.1920   -0.7100 N   0  0  0  0  0  0  0  0  0  0  0  0
   -1.1590   -0.0980   -1.0280 C   0  0  1  0  0  0  0  0  0  0  0  0
   -2.0660    0.2720    0.1260 C   0  0  0  0  0  0  0  0  0  0  0  0
   -2.0430   -0.7370    1.2390 C   0  0  0  0  0  0  0  0  0  0  0  0
   -2.5160   -2.1150    0.8240 C   0  0  0  0  0  0  0  0  0  0  0  0
   -3.9030   -2.1500    0.2950 C   0  0  0  0  0  0  0  0  0  0  0  0
   -4.9000   -1.6950    1.2290 N   0  0  0  0  0  0  0  0  0  0  0  0
   -1.4390    0.7890   -2.1620 C   0  0  0  0  0  0  0  0  0  0  0  0
   -2.6530    0.9270   -2.5080 O   0  0  0  0  0  0  0  0  0  0  0  0
   -0.5000    1.4840   -2.8820 O   0  0  0  0  0  0  0  0  0  0  0  0
    0.8100   -0.8230   -1.3470 H   0  0  0  0  0  0  0  0  0  0  0  0
   -1.5540   -1.1420   -1.3370 H   0  0  0  0  0  0  0  0  0  0  0  0
   -1.9380    1.3090    0.4810 H   0  0  0  0  0  0  0  0  0  0  0  0
   -3.1440    0.2630   -0.2450 H   0  0  0  0  0  0  0  0  0  0  0  0
   -1.0180   -0.8970    1.6240 H   0  0  0  0  0  0  0  0  0  0  0  0
   -2.6150   -0.3700    2.1320 H   0  0  0  0  0  0  0  0  0  0  0  0
   -1.8200   -2.4990    0.0640 H   0  0  0  0  0  0  0  0  0  0  0  0
   -2.3690   -2.7800    1.7110 H   0  0  0  0  0  0  0  0  0  0  0  0
   -3.9800   -1.5590   -0.6170 H   0  0  0  0  0  0  0  0  0  0  0  0
   -4.1420   -3.2140    0.0660 H   0  0  0  0  0  0  0  0  0  0  0  0
   -5.0900   -2.3320    2.0060 H   0  0  0  0  0  0  0  0  0  0  0  0
   -4.8760   -0.6950    1.4390 H   0  0  0  0  0  0  0  0  0  0  0  0
  1  6  1  0  0  0  0
  1  5  1  0  0  0  0
  2  8  1  0  0  0  0
  2  1  1  0  0  0  0
  3  4  2  0  0  0  0
  3  2  1  0  0  0  0
  7  2  1  0  0  0  0
  9  3  1  0  0  0  0
 10 20  1  6  0  0  0
 10 11  1  0  0  0  0
 10  9  1  0  0  0  0
 11 22  1  0  0  0  0
 11 21  1  0  0  0  0
 12 13  2  0  0  0  0
 12 11  1  0  0  0  0
 13 23  1  0  0  0  0
 14 13  1  0  0  0  0
 15 16  2  0  0  0  0
 15 14  1  0  0  0  0
 16 12  1  0  0  0  0
 17 10  1  0  0  0  0
 17 18  2  0  0  0  0
 19  9  1  0  0  0  0
 24 14  1  0  0  0  0
 25 15  1  0  0  0  0
 26 17  1  0  0  0  0
 27 37  1  6  0  0  0
 27 26  1  0  0  0  0
 27 28  1  0  0  0  0
 28 38  1  0  0  0  0
 28 29  1  0  0  0  0
 29 40  1  0  0  0  0
 29 41  1  0  0  0  0
 30 29  1  0  0  0  0
 30 43  1  0  0  0  0
 31 30  1  0  0  0  0
 31 32  1  0  0  0  0
 32 47  1  0  0  0  0
 32 46  1  0  0  0  0
 33 27  1  0  0  0  0
 34 33  1  0  0  0  0
 35 33  2  0  0  0  0
 36 26  1  0  0  0  0
 39 28  1  0  0  0  0
 42 30  1  0  0  0  0
 44 31  1  0  0  0  0
 45 31  1  0  0  0  0
M  END
$$$$
