GHL.pdb
 OpenBabel07022418233D

 45 45  0  0  1  0  0  0  0  0999 V2000
    1.1940   -6.2690    1.7200 N   0  0  0  0  0  0  0  0  0  0  0  0
    0.7670   -5.4940    0.5740 C   0  0  0  0  0  0  0  0  0  0  0  0
    1.0980   -4.0720    0.8380 C   0  0  0  0  0  0  0  0  0  0  0  0
    1.6540   -3.7120    1.9070 O   0  0  0  0  0  0  0  0  0  0  0  0
    2.0380   -5.8140    2.1290 H   0  0  0  0  0  0  0  0  0  0  0  0
    0.4400   -6.2490    2.4430 H   0  0  0  0  0  0  0  0  0  0  0  0
   -0.3310   -5.6070    0.4470 H   0  0  0  0  0  0  0  0  0  0  0  0
    1.2590   -5.8900   -0.3280 H   0  0  0  0  0  0  0  0  0  0  0  0
    0.7830   -3.1180   -0.1240 N   0  0  0  0  0  0  0  0  0  0  0  0
    1.1000   -1.6400    0.0930 C   0  0  1  0  0  0  0  0  0  0  0  0
    1.9830   -1.3550   -1.0330 C   0  0  0  0  0  0  0  0  0  0  0  0
    2.6310   -0.0820   -1.2310 C   0  0  0  0  0  0  0  0  0  0  0  0
    2.7660    1.0810   -0.5350 C   0  0  0  0  0  0  0  0  0  0  0  0
    3.5610    1.8980   -1.2440 N   0  0  0  0  0  0  0  0  0  0  0  0
    3.9350    1.2780   -2.3740 C   0  0  0  0  0  0  0  0  0  0  0  0
    3.3830    0.0870   -2.3780 N   0  0  0  0  0  0  0  0  0  0  0  0
   -0.2680   -1.0770    0.0570 C   0  0  0  0  0  0  0  0  0  0  0  0
   -1.2810   -1.7600   -0.2890 O   0  0  0  0  0  0  0  0  0  0  0  0
    0.3310   -3.3540   -1.0110 H   0  0  0  0  0  0  0  0  0  0  0  0
    1.5610   -1.5880    1.0550 H   0  0  0  0  0  0  0  0  0  0  0  0
    1.4150   -1.6110   -1.9890 H   0  0  0  0  0  0  0  0  0  0  0  0
    2.7980   -2.1520   -1.0470 H   0  0  0  0  0  0  0  0  0  0  0  0
    2.3320    1.2900    0.4170 H   0  0  0  0  0  0  0  0  0  0  0  0
    3.8430    2.8720   -0.9520 H   0  0  0  0  0  0  0  0  0  0  0  0
    4.5910    1.6880   -3.1660 H   0  0  0  0  0  0  0  0  0  0  0  0
   -0.3770    1.0460    3.1530 C   0  0  0  0  0  0  0  0  0  0  0  0
   -1.7670    1.4860    2.8360 C   0  0  0  0  0  0  0  0  0  0  0  0
   -2.6200    1.3240    4.1080 C   0  0  0  0  0  0  0  0  0  0  0  0
   -2.4690    0.7700    1.7480 C   0  0  0  0  0  0  0  0  0  0  0  0
   -1.8730    0.8280    0.3740 C   0  0  2  0  0  0  0  0  0  0  0  0
   -0.5360    0.2550    0.4080 N   0  0  0  0  0  0  0  0  0  0  0  0
   -1.9260    2.1330   -0.2580 C   0  0  0  0  0  0  0  0  0  0  0  0
   -3.0060    2.7490   -0.3620 O   0  0  0  0  0  0  0  0  0  0  0  0
   -0.7840    2.7200   -0.7570 O   0  0  0  0  0  0  0  0  0  0  0  0
   -0.2740    1.0110    4.2900 H   0  0  0  0  0  0  0  0  0  0  0  0
    0.4120    1.7770    2.8680 H   0  0  0  0  0  0  0  0  0  0  0  0
   -0.1130    0.0280    2.8450 H   0  0  0  0  0  0  0  0  0  0  0  0
   -1.7220    2.5930    2.6820 H   0  0  0  0  0  0  0  0  0  0  0  0
   -3.6850    1.1950    3.8280 H   0  0  0  0  0  0  0  0  0  0  0  0
   -2.5620    2.2280    4.7430 H   0  0  0  0  0  0  0  0  0  0  0  0
   -2.2730    0.4260    4.6650 H   0  0  0  0  0  0  0  0  0  0  0  0
   -2.4480   -0.3330    2.0320 H   0  0  0  0  0  0  0  0  0  0  0  0
   -3.5730    0.9840    1.7310 H   0  0  0  0  0  0  0  0  0  0  0  0
   -2.4850    0.0700   -0.2210 H   0  0  0  0  0  0  0  0  0  0  0  0
    0.1900    0.9280    0.7100 H   0  0  0  0  0  0  0  0  0  0  0  0
  1  5  1  0  0  0  0
  1  6  1  0  0  0  0
  2  3  1  0  0  0  0
  2  1  1  0  0  0  0
  3  4  2  0  0  0  0
  7  2  1  0  0  0  0
  8  2  1  0  0  0  0
  9 10  1  0  0  0  0
  9  3  1  0  0  0  0
 10 20  1  1  0  0  0
 11 10  1  0  0  0  0
 12 11  1  0  0  0  0
 12 13  2  0  0  0  0
 13 23  1  0  0  0  0
 14 24  1  0  0  0  0
 14 13  1  0  0  0  0
 15 14  1  0  0  0  0
 16 15  2  0  0  0  0
 16 12  1  0  0  0  0
 17 10  1  0  0  0  0
 17 31  1  0  0  0  0
 18 17  2  0  0  0  0
 19  9  1  0  0  0  0
 21 11  1  0  0  0  0
 22 11  1  0  0  0  0
 25 15  1  0  0  0  0
 26 35  1  0  0  0  0
 27 26  1  0  0  0  0
 27 28  1  0  0  0  0
 28 41  1  0  0  0  0
 28 40  1  0  0  0  0
 29 42  1  0  0  0  0
 29 27  1  0  0  0  0
 30 44  1  6  0  0  0
 30 31  1  0  0  0  0
 30 29  1  0  0  0  0
 31 45  1  0  0  0  0
 32 30  1  0  0  0  0
 33 32  1  0  0  0  0
 34 32  2  0  0  0  0
 36 26  1  0  0  0  0
 37 26  1  0  0  0  0
 38 27  1  0  0  0  0
 39 28  1  0  0  0  0
 43 29  1  0  0  0  0
M  END
$$$$
