GHQ.pdb
 OpenBabel07022418233D

 43 43  0  0  1  0  0  0  0  0999 V2000
   -4.0490   -3.4620   -0.9940 N   0  0  0  0  0  0  0  0  0  0  0  0
   -3.2090   -3.0690    0.0950 C   0  0  0  0  0  0  0  0  0  0  0  0
   -2.5020   -1.8210   -0.2290 C   0  0  0  0  0  0  0  0  0  0  0  0
   -2.7070   -1.2860   -1.3490 O   0  0  0  0  0  0  0  0  0  0  0  0
   -4.8780   -4.0110   -0.6750 H   0  0  0  0  0  0  0  0  0  0  0  0
   -3.4920   -3.9640   -1.7200 H   0  0  0  0  0  0  0  0  0  0  0  0
   -2.4300   -3.8590    0.2320 H   0  0  0  0  0  0  0  0  0  0  0  0
   -3.7870   -2.9680    1.0480 H   0  0  0  0  0  0  0  0  0  0  0  0
   -1.5990   -1.1780    0.6430 N   0  0  0  0  0  0  0  0  0  0  0  0
   -0.9540    0.0550    0.2190 C   0  0  1  0  0  0  0  0  0  0  0  0
   -1.3340    1.1860    1.1410 C   0  0  0  0  0  0  0  0  0  0  0  0
   -0.6870    2.4430    0.7190 C   0  0  0  0  0  0  0  0  0  0  0  0
   -1.2630    3.3420   -0.1870 C   0  0  0  0  0  0  0  0  0  0  0  0
   -0.4240    4.3830   -0.3610 N   0  0  0  0  0  0  0  0  0  0  0  0
    0.6570    4.1650    0.4060 C   0  0  0  0  0  0  0  0  0  0  0  0
    0.4770    3.0040    1.0390 N   0  0  0  0  0  0  0  0  0  0  0  0
    0.5180   -0.1150    0.1220 C   0  0  0  0  0  0  0  0  0  0  0  0
    1.2630    0.8410   -0.2560 O   0  0  0  0  0  0  0  0  0  0  0  0
   -1.3890   -1.5690    1.5770 H   0  0  0  0  0  0  0  0  0  0  0  0
   -1.2940    0.3390   -0.8110 H   0  0  0  0  0  0  0  0  0  0  0  0
   -2.4200    1.3570    1.1580 H   0  0  0  0  0  0  0  0  0  0  0  0
   -0.9520    0.9730    2.1800 H   0  0  0  0  0  0  0  0  0  0  0  0
   -2.2250    3.2040   -0.6600 H   0  0  0  0  0  0  0  0  0  0  0  0
   -0.6240    5.1800   -0.9850 H   0  0  0  0  0  0  0  0  0  0  0  0
    1.5030    4.8280    0.4770 H   0  0  0  0  0  0  0  0  0  0  0  0
    3.4570    0.9390    3.8020 N   0  0  0  0  0  0  0  0  0  0  0  0
    3.5500   -0.0120    2.7230 C   0  0  0  0  0  0  0  0  0  0  0  0
    4.1990    0.3600    1.7200 O   0  0  0  0  0  0  0  0  0  0  0  0
    2.8880   -1.3260    2.8780 C   0  0  0  0  0  0  0  0  0  0  0  0
    3.0470   -2.1690    1.6740 C   0  0  0  0  0  0  0  0  0  0  0  0
    2.4830   -1.6220    0.3970 C   0  0  2  0  0  0  0  0  0  0  0  0
    1.0580   -1.3830    0.4670 N   0  0  0  0  0  0  0  0  0  0  0  0
    2.7420   -2.6370   -0.6540 C   0  0  0  0  0  0  0  0  0  0  0  0
    3.9180   -2.9940   -0.8830 O   0  0  0  0  0  0  0  0  0  0  0  0
    1.7230   -3.2030   -1.3910 O   0  0  0  0  0  0  0  0  0  0  0  0
    4.2910    1.4710    4.1440 H   0  0  0  0  0  0  0  0  0  0  0  0
    2.5480    1.1170    4.2670 H   0  0  0  0  0  0  0  0  0  0  0  0
    1.8480   -1.2330    3.2450 H   0  0  0  0  0  0  0  0  0  0  0  0
    3.4400   -1.8470    3.7110 H   0  0  0  0  0  0  0  0  0  0  0  0
    4.1320   -2.3390    1.5060 H   0  0  0  0  0  0  0  0  0  0  0  0
    2.6070   -3.1780    1.8220 H   0  0  0  0  0  0  0  0  0  0  0  0
    2.9780   -0.6960    0.0540 H   0  0  0  0  0  0  0  0  0  0  0  0
    0.3970   -2.1260    0.7690 H   0  0  0  0  0  0  0  0  0  0  0  0
  1  5  1  0  0  0  0
  1  2  1  0  0  0  0
  2  7  1  0  0  0  0
  2  8  1  0  0  0  0
  3  2  1  0  0  0  0
  3  9  1  0  0  0  0
  4  3  2  0  0  0  0
  6  1  1  0  0  0  0
  9 19  1  0  0  0  0
 10 20  1  6  0  0  0
 10  9  1  0  0  0  0
 10 11  1  0  0  0  0
 11 21  1  0  0  0  0
 11 22  1  0  0  0  0
 12 16  1  0  0  0  0
 12 11  1  0  0  0  0
 13 12  2  0  0  0  0
 14 13  1  0  0  0  0
 14 15  1  0  0  0  0
 15 25  1  0  0  0  0
 15 16  2  0  0  0  0
 17 10  1  0  0  0  0
 17 32  1  0  0  0  0
 18 17  2  0  0  0  0
 23 13  1  0  0  0  0
 24 14  1  0  0  0  0
 26 36  1  0  0  0  0
 26 37  1  0  0  0  0
 27 29  1  0  0  0  0
 27 26  1  0  0  0  0
 28 27  2  0  0  0  0
 29 38  1  0  0  0  0
 29 39  1  0  0  0  0
 30 41  1  0  0  0  0
 30 29  1  0  0  0  0
 31 42  1  6  0  0  0
 31 32  1  0  0  0  0
 31 30  1  0  0  0  0
 32 43  1  0  0  0  0
 33 31  1  0  0  0  0
 34 33  1  0  0  0  0
 35 33  2  0  0  0  0
 40 30  1  0  0  0  0
M  END
$$$$
