GHR.pdb
 OpenBabel07022418233D

 49 49  0  0  1  0  0  0  0  0999 V2000
   -5.5300   -0.9990    2.4870 N   0  0  0  0  0  0  0  0  0  0  0  0
   -4.6270   -1.3000    1.4180 C   0  0  0  0  0  0  0  0  0  0  0  0
   -3.5230   -0.2540    1.4040 C   0  0  0  0  0  0  0  0  0  0  0  0
   -3.5300    0.6570    2.2440 O   0  0  0  0  0  0  0  0  0  0  0  0
   -5.1360   -0.3500    3.2090 H   0  0  0  0  0  0  0  0  0  0  0  0
   -6.4590   -0.6770    2.1250 H   0  0  0  0  0  0  0  0  0  0  0  0
   -5.1930   -1.2730    0.4650 H   0  0  0  0  0  0  0  0  0  0  0  0
   -4.1930   -2.3130    1.5110 H   0  0  0  0  0  0  0  0  0  0  0  0
   -2.4930   -0.2960    0.4610 N   0  0  0  0  0  0  0  0  0  0  0  0
   -1.3890    0.5300    0.2060 C   0  0  1  0  0  0  0  0  0  0  0  0
   -1.0760    1.6620    1.1380 C   0  0  0  0  0  0  0  0  0  0  0  0
   -2.1180    2.7150    1.1260 C   0  0  0  0  0  0  0  0  0  0  0  0
   -2.1420    3.8570    1.9250 C   0  0  0  0  0  0  0  0  0  0  0  0
   -3.2240    4.6000    1.6620 N   0  0  0  0  0  0  0  0  0  0  0  0
   -3.8870    3.9430    0.7060 C   0  0  0  0  0  0  0  0  0  0  0  0
   -3.2340    2.8210    0.3840 N   0  0  0  0  0  0  0  0  0  0  0  0
   -0.1410   -0.1150   -0.2120 C   0  0  0  0  0  0  0  0  0  0  0  0
    0.8730    0.6000   -0.4510 O   0  0  0  0  0  0  0  0  0  0  0  0
   -2.5620   -1.1440   -0.2140 H   0  0  0  0  0  0  0  0  0  0  0  0
   -1.7920    1.1790   -0.7080 H   0  0  0  0  0  0  0  0  0  0  0  0
   -0.8180    1.3290    2.1620 H   0  0  0  0  0  0  0  0  0  0  0  0
   -0.1470    2.1410    0.7400 H   0  0  0  0  0  0  0  0  0  0  0  0
   -1.3600    4.0610    2.6440 H   0  0  0  0  0  0  0  0  0  0  0  0
   -3.4830    5.4990    2.1150 H   0  0  0  0  0  0  0  0  0  0  0  0
   -4.8220    4.2430    0.2350 H   0  0  0  0  0  0  0  0  0  0  0  0
    5.8230   -0.7310    2.4250 N   0  0  0  0  0  0  0  0  0  0  0  0
    5.3300   -1.1950    1.1710 C   0  0  0  0  0  0  0  0  0  0  0  0
    5.8720   -0.7330    0.0970 N   0  0  0  0  0  0  0  0  0  0  0  0
    4.2730   -2.1370    1.1010 N   0  0  0  0  0  0  0  0  0  0  0  0
    4.1070   -2.9100   -0.1020 C   0  0  0  0  0  0  0  0  0  0  0  0
    2.9240   -3.8400    0.0570 C   0  0  0  0  0  0  0  0  0  0  0  0
    1.6530   -3.0990    0.3120 C   0  0  0  0  0  0  0  0  0  0  0  0
    1.2700   -2.1340   -0.7900 C   0  0  2  0  0  0  0  0  0  0  0  0
    0.0270   -1.5120   -0.3750 N   0  0  0  0  0  0  0  0  0  0  0  0
    0.9990   -2.9250   -2.0110 C   0  0  0  0  0  0  0  0  0  0  0  0
   -0.1640   -2.9560   -2.4780 O   0  0  0  0  0  0  0  0  0  0  0  0
    1.9570   -3.6540   -2.6990 O   0  0  0  0  0  0  0  0  0  0  0  0
    5.4520    0.1630    2.8160 H   0  0  0  0  0  0  0  0  0  0  0  0
    6.5340   -1.2650    2.9440 H   0  0  0  0  0  0  0  0  0  0  0  0
    6.6370   -0.0510    0.1120 H   0  0  0  0  0  0  0  0  0  0  0  0
    3.6370   -2.2460    1.9350 H   0  0  0  0  0  0  0  0  0  0  0  0
    5.0050   -3.5410   -0.2180 H   0  0  0  0  0  0  0  0  0  0  0  0
    3.9100   -2.2520   -0.9700 H   0  0  0  0  0  0  0  0  0  0  0  0
    3.1320   -4.4350    0.9860 H   0  0  0  0  0  0  0  0  0  0  0  0
    2.8240   -4.5730   -0.7450 H   0  0  0  0  0  0  0  0  0  0  0  0
    0.8320   -3.8500    0.3670 H   0  0  0  0  0  0  0  0  0  0  0  0
    1.6710   -2.6080    1.3120 H   0  0  0  0  0  0  0  0  0  0  0  0
    2.0670   -1.3770   -0.9620 H   0  0  0  0  0  0  0  0  0  0  0  0
   -0.7830   -2.1400   -0.1890 H   0  0  0  0  0  0  0  0  0  0  0  0
  1  5  1  0  0  0  0
  2  8  1  0  0  0  0
  2  1  1  0  0  0  0
  3  2  1  0  0  0  0
  3  4  2  0  0  0  0
  6  1  1  0  0  0  0
  7  2  1  0  0  0  0
  9  3  1  0  0  0  0
 10 20  1  6  0  0  0
 10  9  1  0  0  0  0
 10 11  1  0  0  0  0
 11 21  1  0  0  0  0
 12 11  1  0  0  0  0
 12 13  2  0  0  0  0
 13 23  1  0  0  0  0
 14 13  1  0  0  0  0
 14 24  1  0  0  0  0
 15 14  1  0  0  0  0
 16 15  2  0  0  0  0
 16 12  1  0  0  0  0
 17 10  1  0  0  0  0
 18 17  2  0  0  0  0
 19  9  1  0  0  0  0
 22 11  1  0  0  0  0
 25 15  1  0  0  0  0
 26 38  1  0  0  0  0
 26 39  1  0  0  0  0
 27 26  1  0  0  0  0
 28 40  1  0  0  0  0
 28 27  2  0  0  0  0
 29 27  1  0  0  0  0
 29 41  1  0  0  0  0
 30 31  1  0  0  0  0
 30 29  1  0  0  0  0
 31 32  1  0  0  0  0
 31 44  1  0  0  0  0
 32 46  1  0  0  0  0
 32 47  1  0  0  0  0
 33 48  1  6  0  0  0
 33 34  1  0  0  0  0
 33 32  1  0  0  0  0
 34 17  1  0  0  0  0
 34 49  1  0  0  0  0
 35 33  1  0  0  0  0
 36 35  1  0  0  0  0
 37 35  2  0  0  0  0
 42 30  1  0  0  0  0
 43 30  1  0  0  0  0
 45 31  1  0  0  0  0
M  END
$$$$
