GHV.pdb
 OpenBabel07022418233D

 42 42  0  0  1  0  0  0  0  0999 V2000
    0.8510   -5.7660    1.5670 N   0  0  0  0  0  0  0  0  0  0  0  0
    2.1300   -5.4090    0.9910 C   0  0  0  0  0  0  0  0  0  0  0  0
    2.0090   -4.0280    0.4330 C   0  0  0  0  0  0  0  0  0  0  0  0
    2.9850   -3.4540   -0.1380 O   0  0  0  0  0  0  0  0  0  0  0  0
    0.0770   -5.8030    0.9020 H   0  0  0  0  0  0  0  0  0  0  0  0
    0.6640   -5.3230    2.4680 H   0  0  0  0  0  0  0  0  0  0  0  0
    2.8480   -5.3330    1.8570 H   0  0  0  0  0  0  0  0  0  0  0  0
    2.4630   -6.1250    0.2420 H   0  0  0  0  0  0  0  0  0  0  0  0
    0.8090   -3.2980    0.5120 N   0  0  0  0  0  0  0  0  0  0  0  0
    0.7120   -1.9030   -0.0590 C   0  0  1  0  0  0  0  0  0  0  0  0
   -0.3150   -1.9370   -1.1180 C   0  0  0  0  0  0  0  0  0  0  0  0
   -0.6280   -0.7630   -1.8960 C   0  0  0  0  0  0  0  0  0  0  0  0
   -1.6340   -0.8400   -2.8890 C   0  0  0  0  0  0  0  0  0  0  0  0
   -1.7560    0.3520   -3.4780 N   0  0  0  0  0  0  0  0  0  0  0  0
   -0.8700    1.1440   -2.8880 C   0  0  0  0  0  0  0  0  0  0  0  0
   -0.2010    0.4790   -1.9470 N   0  0  0  0  0  0  0  0  0  0  0  0
    0.4360   -1.0640    1.1150 C   0  0  0  0  0  0  0  0  0  0  0  0
    0.0910   -1.6570    2.2030 O   0  0  0  0  0  0  0  0  0  0  0  0
   -0.0400   -3.6880    0.9610 H   0  0  0  0  0  0  0  0  0  0  0  0
    1.6920   -1.6970   -0.4710 H   0  0  0  0  0  0  0  0  0  0  0  0
   -0.0840   -2.7840   -1.8380 H   0  0  0  0  0  0  0  0  0  0  0  0
   -1.2840   -2.2540   -0.6140 H   0  0  0  0  0  0  0  0  0  0  0  0
   -2.2240   -1.7230   -3.1440 H   0  0  0  0  0  0  0  0  0  0  0  0
   -2.4390    0.5380   -4.2460 H   0  0  0  0  0  0  0  0  0  0  0  0
   -0.7550    2.2020   -3.1840 H   0  0  0  0  0  0  0  0  0  0  0  0
    1.8570    2.8450    2.0420 C   0  0  0  0  0  0  0  0  0  0  0  0
    1.3730    1.8040    2.9940 C   0  0  0  0  0  0  0  0  0  0  0  0
    1.0010    2.3820    4.3460 C   0  0  0  0  0  0  0  0  0  0  0  0
    0.1820    1.0290    2.4860 C   0  0  2  0  0  0  0  0  0  0  0  0
    0.4990    0.3330    1.2340 N   0  0  0  0  0  0  0  0  0  0  0  0
   -0.9550    1.9300    2.2770 C   0  0  0  0  0  0  0  0  0  0  0  0
   -1.4810    1.9940    1.1400 O   0  0  0  0  0  0  0  0  0  0  0  0
   -1.4820    2.7210    3.2810 O   0  0  0  0  0  0  0  0  0  0  0  0
    1.2720    2.9550    1.1300 H   0  0  0  0  0  0  0  0  0  0  0  0
    2.9530    2.7130    1.8070 H   0  0  0  0  0  0  0  0  0  0  0  0
    1.8090    3.8330    2.5840 H   0  0  0  0  0  0  0  0  0  0  0  0
    2.2090    1.0820    3.1800 H   0  0  0  0  0  0  0  0  0  0  0  0
    1.9180    2.5350    4.9680 H   0  0  0  0  0  0  0  0  0  0  0  0
    0.3370    1.7150    4.9150 H   0  0  0  0  0  0  0  0  0  0  0  0
    0.5450    3.3960    4.2430 H   0  0  0  0  0  0  0  0  0  0  0  0
   -0.0980    0.3070    3.2780 H   0  0  0  0  0  0  0  0  0  0  0  0
    0.7990    0.8990    0.4220 H   0  0  0  0  0  0  0  0  0  0  0  0
  1  6  1  0  0  0  0
  2  1  1  0  0  0  0
  2  7  1  0  0  0  0
  3  9  1  0  0  0  0
  3  2  1  0  0  0  0
  4  3  2  0  0  0  0
  5  1  1  0  0  0  0
  8  2  1  0  0  0  0
  9 19  1  0  0  0  0
 10 20  1  6  0  0  0
 10  9  1  0  0  0  0
 10 17  1  0  0  0  0
 11 22  1  0  0  0  0
 11 10  1  0  0  0  0
 12 11  1  0  0  0  0
 13 12  2  0  0  0  0
 14 13  1  0  0  0  0
 14 15  1  0  0  0  0
 15 16  2  0  0  0  0
 16 12  1  0  0  0  0
 17 30  1  0  0  0  0
 17 18  2  0  0  0  0
 21 11  1  0  0  0  0
 23 13  1  0  0  0  0
 24 14  1  0  0  0  0
 25 15  1  0  0  0  0
 26 36  1  0  0  0  0
 26 27  1  0  0  0  0
 27 37  1  0  0  0  0
 27 28  1  0  0  0  0
 28 39  1  0  0  0  0
 28 38  1  0  0  0  0
 29 27  1  0  0  0  0
 29 41  1  1  0  0  0
 30 29  1  0  0  0  0
 31 29  1  0  0  0  0
 31 33  1  0  0  0  0
 32 31  2  0  0  0  0
 34 26  1  0  0  0  0
 35 26  1  0  0  0  0
 40 28  1  0  0  0  0
 42 30  1  0  0  0  0
M  END
$$$$
