GHY.pdb
 OpenBabel07022418233D

 47 48  0  0  1  0  0  0  0  0999 V2000
    3.9730   -0.0670   -2.5170 N   0  0  0  0  0  0  0  0  0  0  0  0
    3.0780    0.3070   -1.4430 C   0  0  0  0  0  0  0  0  0  0  0  0
    2.9610   -0.8370   -0.5130 C   0  0  0  0  0  0  0  0  0  0  0  0
    3.5950   -1.8970   -0.7470 O   0  0  0  0  0  0  0  0  0  0  0  0
    3.4820   -0.4940   -3.3320 H   0  0  0  0  0  0  0  0  0  0  0  0
    4.6880   -0.7640   -2.2120 H   0  0  0  0  0  0  0  0  0  0  0  0
    3.5110    1.2080   -0.9550 H   0  0  0  0  0  0  0  0  0  0  0  0
    2.0890    0.6270   -1.8390 H   0  0  0  0  0  0  0  0  0  0  0  0
    2.1690   -0.8350    0.6560 N   0  0  0  0  0  0  0  0  0  0  0  0
    2.0410   -1.9440    1.5800 C   0  0  1  0  0  0  0  0  0  0  0  0
    2.6550   -1.6570    2.9170 C   0  0  0  0  0  0  0  0  0  0  0  0
    2.1040   -0.5260    3.6370 C   0  0  0  0  0  0  0  0  0  0  0  0
    2.4570    0.8100    3.6300 C   0  0  0  0  0  0  0  0  0  0  0  0
    1.6600    1.5030    4.4620 N   0  0  0  0  0  0  0  0  0  0  0  0
    0.8010    0.6180    5.0000 C   0  0  0  0  0  0  0  0  0  0  0  0
    1.0670   -0.6000    4.5040 N   0  0  0  0  0  0  0  0  0  0  0  0
    0.6720   -2.4570    1.6300 C   0  0  0  0  0  0  0  0  0  0  0  0
    0.4240   -3.4250    2.3980 O   0  0  0  0  0  0  0  0  0  0  0  0
    1.6330    0.0290    0.8780 H   0  0  0  0  0  0  0  0  0  0  0  0
    2.6950   -2.7620    1.1530 H   0  0  0  0  0  0  0  0  0  0  0  0
    2.6530   -2.6040    3.4960 H   0  0  0  0  0  0  0  0  0  0  0  0
    3.7460   -1.4450    2.7160 H   0  0  0  0  0  0  0  0  0  0  0  0
    3.2480    1.2480    3.0520 H   0  0  0  0  0  0  0  0  0  0  0  0
    1.6550    2.5250    4.6920 H   0  0  0  0  0  0  0  0  0  0  0  0
    0.0140    0.7990    5.7110 H   0  0  0  0  0  0  0  0  0  0  0  0
   -2.8710    2.9410   -2.2970 O   0  0  0  0  0  0  0  0  0  0  0  0
   -2.8410    1.8700   -1.4060 C   0  0  0  0  0  0  0  0  0  0  0  0
   -2.0180    1.8420   -0.2970 C   0  0  0  0  0  0  0  0  0  0  0  0
   -2.0070    0.7860    0.5570 C   0  0  0  0  0  0  0  0  0  0  0  0
   -2.8320   -0.2970    0.3270 C   0  0  0  0  0  0  0  0  0  0  0  0
   -2.8030   -1.4470    1.2900 C   0  0  0  0  0  0  0  0  0  0  0  0
   -1.7730   -2.4610    0.9270 C   0  0  2  0  0  0  0  0  0  0  0  0
   -0.4290   -1.9640    0.8850 N   0  0  0  0  0  0  0  0  0  0  0  0
   -2.1300   -3.0290   -0.3950 C   0  0  0  0  0  0  0  0  0  0  0  0
   -1.2950   -2.9870   -1.3550 O   0  0  0  0  0  0  0  0  0  0  0  0
   -3.6500   -0.2730   -0.7730 C   0  0  0  0  0  0  0  0  0  0  0  0
   -3.6510    0.7860   -1.6160 C   0  0  0  0  0  0  0  0  0  0  0  0
   -3.3450   -3.6260   -0.6820 O   0  0  0  0  0  0  0  0  0  0  0  0
   -3.1570    3.8410   -1.9240 H   0  0  0  0  0  0  0  0  0  0  0  0
   -1.3800    2.7090   -0.1420 H   0  0  0  0  0  0  0  0  0  0  0  0
   -1.3460    0.7830    1.4330 H   0  0  0  0  0  0  0  0  0  0  0  0
   -3.7990   -1.9450    1.1710 H   0  0  0  0  0  0  0  0  0  0  0  0
   -2.7650   -1.1090    2.3370 H   0  0  0  0  0  0  0  0  0  0  0  0
   -1.8500   -3.3100    1.6410 H   0  0  0  0  0  0  0  0  0  0  0  0
   -0.2490   -1.1630    0.2430 H   0  0  0  0  0  0  0  0  0  0  0  0
   -4.3130   -1.1050   -0.9810 H   0  0  0  0  0  0  0  0  0  0  0  0
   -4.2990    0.8160   -2.4960 H   0  0  0  0  0  0  0  0  0  0  0  0
  1  6  1  0  0  0  0
  1  2  1  0  0  0  0
  2  7  1  0  0  0  0
  2  3  1  0  0  0  0
  3  9  1  0  0  0  0
  4  3  2  0  0  0  0
  5  1  1  0  0  0  0
  8  2  1  0  0  0  0
  9 19  1  0  0  0  0
  9 10  1  0  0  0  0
 10 20  1  6  0  0  0
 10 17  1  0  0  0  0
 10 11  1  0  0  0  0
 11 21  1  0  0  0  0
 11 12  1  0  0  0  0
 12 16  1  0  0  0  0
 13 12  2  0  0  0  0
 13 14  1  0  0  0  0
 14 24  1  0  0  0  0
 14 15  1  0  0  0  0
 15 25  1  0  0  0  0
 16 15  2  0  0  0  0
 17 18  2  0  0  0  0
 22 11  1  0  0  0  0
 23 13  1  0  0  0  0
 26 39  1  0  0  0  0
 26 27  1  0  0  0  0
 27 28  1  0  0  0  0
 28 40  1  0  0  0  0
 28 29  2  0  0  0  0
 29 41  1  0  0  0  0
 30 29  1  0  0  0  0
 30 31  1  0  0  0  0
 31 43  1  0  0  0  0
 32 31  1  0  0  0  0
 32 44  1  1  0  0  0
 33 32  1  0  0  0  0
 33 17  1  0  0  0  0
 34 32  1  0  0  0  0
 35 34  2  0  0  0  0
 36 30  2  0  0  0  0
 37 27  2  0  0  0  0
 37 36  1  0  0  0  0
 38 34  1  0  0  0  0
 42 31  1  0  0  0  0
 45 33  1  0  0  0  0
 46 36  1  0  0  0  0
 47 37  1  0  0  0  0
M  END
$$$$
