GIA.pdb
 OpenBabel07022418233D

 38 37  0  0  1  0  0  0  0  0999 V2000
   -4.3310   -1.9630   -1.9630 N   0  0  0  0  0  0  0  0  0  0  0  0
   -2.8960   -2.1000   -1.8350 C   0  0  0  0  0  0  0  0  0  0  0  0
   -2.4110   -1.3200   -0.6780 C   0  0  0  0  0  0  0  0  0  0  0  0
   -3.2170   -0.6790    0.0100 O   0  0  0  0  0  0  0  0  0  0  0  0
   -4.7270   -2.7810   -2.4870 H   0  0  0  0  0  0  0  0  0  0  0  0
   -4.5560   -1.0540   -2.4210 H   0  0  0  0  0  0  0  0  0  0  0  0
   -2.6710   -3.1860   -1.6520 H   0  0  0  0  0  0  0  0  0  0  0  0
   -2.3490   -1.7640   -2.7360 H   0  0  0  0  0  0  0  0  0  0  0  0
    1.9710   -2.8580    2.4420 C   0  0  0  0  0  0  0  0  0  0  0  0
    1.3050   -2.1300    1.2700 C   0  0  0  0  0  0  0  0  0  0  0  0
    0.1090   -1.4000    1.8410 C   0  0  2  0  0  0  0  0  0  0  0  0
   -0.8180   -2.3960    2.4540 C   0  0  0  0  0  0  0  0  0  0  0  0
   -0.5530   -0.5190    0.8060 C   0  0  2  0  0  0  0  0  0  0  0  0
   -1.0210   -1.2860   -0.3290 N   0  0  0  0  0  0  0  0  0  0  0  0
    0.4670    0.4430    0.3360 C   0  0  0  0  0  0  0  0  0  0  0  0
    0.7640    0.4660   -0.8810 O   0  0  0  0  0  0  0  0  0  0  0  0
    3.0610   -2.9750    2.2720 H   0  0  0  0  0  0  0  0  0  0  0  0
    1.4450   -3.8230    2.5700 H   0  0  0  0  0  0  0  0  0  0  0  0
    1.8460   -2.2810    3.3830 H   0  0  0  0  0  0  0  0  0  0  0  0
    1.0490   -2.8160    0.4620 H   0  0  0  0  0  0  0  0  0  0  0  0
    2.0250   -1.3490    0.9310 H   0  0  0  0  0  0  0  0  0  0  0  0
    0.4870   -0.7380    2.6470 H   0  0  0  0  0  0  0  0  0  0  0  0
   -0.5510   -2.6490    3.5050 H   0  0  0  0  0  0  0  0  0  0  0  0
   -0.7430   -3.3780    1.9010 H   0  0  0  0  0  0  0  0  0  0  0  0
   -1.8770   -2.0480    2.4860 H   0  0  0  0  0  0  0  0  0  0  0  0
   -1.3850    0.0000    1.3240 H   0  0  0  0  0  0  0  0  0  0  0  0
   -0.3910   -1.8430   -0.9440 H   0  0  0  0  0  0  0  0  0  0  0  0
    1.7070    3.7210    0.8760 C   0  0  0  0  0  0  0  0  0  0  0  0
    2.1410    2.2910    0.6770 C   0  0  2  0  0  0  0  0  0  0  0  0
    1.1380    1.3550    1.1880 N   0  0  0  0  0  0  0  0  0  0  0  0
    3.4070    1.9760    1.3540 C   0  0  0  0  0  0  0  0  0  0  0  0
    4.4410    2.6540    1.0800 O   0  0  0  0  0  0  0  0  0  0  0  0
    3.5660    0.9680    2.2950 O   0  0  0  0  0  0  0  0  0  0  0  0
    1.0380    3.8550    1.7470 H   0  0  0  0  0  0  0  0  0  0  0  0
    2.6410    4.3350    0.9560 H   0  0  0  0  0  0  0  0  0  0  0  0
    1.1760    4.0800   -0.0300 H   0  0  0  0  0  0  0  0  0  0  0  0
    2.2360    2.1280   -0.4210 H   0  0  0  0  0  0  0  0  0  0  0  0
    0.8980    1.3430    2.1930 H   0  0  0  0  0  0  0  0  0  0  0  0
  1  2  1  0  0  0  0
  2  7  1  0  0  0  0
  2  3  1  0  0  0  0
  3 14  1  0  0  0  0
  3  4  2  0  0  0  0
  5  1  1  0  0  0  0
  6  1  1  0  0  0  0
  8  2  1  0  0  0  0
  9 18  1  0  0  0  0
  9 19  1  0  0  0  0
 10 11  1  0  0  0  0
 10  9  1  0  0  0  0
 11 12  1  0  0  0  0
 11 22  1  1  0  0  0
 12 25  1  0  0  0  0
 12 23  1  0  0  0  0
 13 26  1  1  0  0  0
 13 11  1  0  0  0  0
 14 13  1  0  0  0  0
 15 13  1  0  0  0  0
 15 30  1  0  0  0  0
 16 15  2  0  0  0  0
 17  9  1  0  0  0  0
 20 10  1  0  0  0  0
 21 10  1  0  0  0  0
 24 12  1  0  0  0  0
 27 14  1  0  0  0  0
 28 35  1  0  0  0  0
 28 34  1  0  0  0  0
 29 37  1  6  0  0  0
 29 28  1  0  0  0  0
 29 30  1  0  0  0  0
 29 31  1  0  0  0  0
 30 38  1  0  0  0  0
 31 33  1  0  0  0  0
 32 31  2  0  0  0  0
 36 28  1  0  0  0  0
M  END
$$$$
