GIC.pdb
 OpenBabel07022418233D

 39 38  0  0  1  0  0  0  0  0999 V2000
    3.6850   -3.4700    2.4790 N   0  0  0  0  0  0  0  0  0  0  0  0
    3.0630   -2.1900    2.4100 C   0  0  0  0  0  0  0  0  0  0  0  0
    1.7290   -2.2240    1.7570 C   0  0  0  0  0  0  0  0  0  0  0  0
    1.2530   -3.3070    1.3290 O   0  0  0  0  0  0  0  0  0  0  0  0
    3.1380   -4.2420    2.0490 H   0  0  0  0  0  0  0  0  0  0  0  0
    4.0900   -3.7150    3.4060 H   0  0  0  0  0  0  0  0  0  0  0  0
    2.9000   -1.8220    3.4450 H   0  0  0  0  0  0  0  0  0  0  0  0
    3.7370   -1.5130    1.8290 H   0  0  0  0  0  0  0  0  0  0  0  0
   -1.8550   -2.9100    2.8060 C   0  0  0  0  0  0  0  0  0  0  0  0
   -1.3710   -1.5330    3.1770 C   0  0  0  0  0  0  0  0  0  0  0  0
   -1.3610   -0.6050    1.9960 C   0  0  2  0  0  0  0  0  0  0  0  0
   -2.7430   -0.4740    1.4380 C   0  0  0  0  0  0  0  0  0  0  0  0
   -0.3470   -1.0550    0.9630 C   0  0  2  0  0  0  0  0  0  0  0  0
    0.9440   -1.0530    1.5890 N   0  0  0  0  0  0  0  0  0  0  0  0
   -0.4260   -0.0930   -0.1660 C   0  0  0  0  0  0  0  0  0  0  0  0
   -1.5050    0.0040   -0.8010 O   0  0  0  0  0  0  0  0  0  0  0  0
   -1.0340   -3.6480    2.8170 H   0  0  0  0  0  0  0  0  0  0  0  0
   -2.6030   -3.2880    3.5610 H   0  0  0  0  0  0  0  0  0  0  0  0
   -2.3380   -2.9430    1.8090 H   0  0  0  0  0  0  0  0  0  0  0  0
   -0.3190   -1.5640    3.5680 H   0  0  0  0  0  0  0  0  0  0  0  0
   -1.9740   -1.0850    3.9910 H   0  0  0  0  0  0  0  0  0  0  0  0
   -1.0470    0.4040    2.3770 H   0  0  0  0  0  0  0  0  0  0  0  0
   -3.5130   -0.6010    2.2240 H   0  0  0  0  0  0  0  0  0  0  0  0
   -2.9540   -1.2560    0.6560 H   0  0  0  0  0  0  0  0  0  0  0  0
   -2.8970    0.5490    1.0060 H   0  0  0  0  0  0  0  0  0  0  0  0
   -0.5900   -2.0750    0.6590 H   0  0  0  0  0  0  0  0  0  0  0  0
    1.3310   -0.1540    1.9410 H   0  0  0  0  0  0  0  0  0  0  0  0
    0.6590    0.7270   -0.5660 N   0  0  0  0  0  0  0  0  0  0  0  0
    0.6070    1.6600   -1.6490 C   0  0  1  0  0  0  0  0  0  0  0  0
    0.7600    3.1010   -1.1690 C   0  0  0  0  0  0  0  0  0  0  0  0
    0.6840    4.2230   -2.5860 S   0  0  0  0  0  0  0  0  0  0  0  0
    1.5710    1.3360   -2.7260 C   0  0  0  0  0  0  0  0  0  0  0  0
    2.3410    0.3460   -2.6750 O   0  0  0  0  0  0  0  0  0  0  0  0
    1.6370    2.1510   -3.8430 O   0  0  0  0  0  0  0  0  0  0  0  0
    1.5500    0.6140   -0.0040 H   0  0  0  0  0  0  0  0  0  0  0  0
   -0.4310    1.6020   -2.0890 H   0  0  0  0  0  0  0  0  0  0  0  0
   -0.1030    3.3030   -0.5000 H   0  0  0  0  0  0  0  0  0  0  0  0
    1.7330    3.2550   -0.6790 H   0  0  0  0  0  0  0  0  0  0  0  0
   -0.1450    3.6470   -3.5530 H   0  0  0  0  0  0  0  0  0  0  0  0
  1  6  1  0  0  0  0
  2  1  1  0  0  0  0
  2  7  1  0  0  0  0
  3  2  1  0  0  0  0
  4  3  2  0  0  0  0
  5  1  1  0  0  0  0
  8  2  1  0  0  0  0
  9 17  1  0  0  0  0
  9 10  1  0  0  0  0
  9 18  1  0  0  0  0
 10 20  1  0  0  0  0
 10 21  1  0  0  0  0
 11 22  1  1  0  0  0
 11 10  1  0  0  0  0
 12 11  1  0  0  0  0
 12 23  1  0  0  0  0
 13 26  1  6  0  0  0
 13 14  1  0  0  0  0
 13 11  1  0  0  0  0
 14  3  1  0  0  0  0
 14 27  1  0  0  0  0
 15 13  1  0  0  0  0
 16 15  2  0  0  0  0
 19  9  1  0  0  0  0
 24 12  1  0  0  0  0
 25 12  1  0  0  0  0
 28 15  1  0  0  0  0
 28 35  1  0  0  0  0
 29 36  1  6  0  0  0
 29 30  1  0  0  0  0
 29 28  1  0  0  0  0
 30 38  1  0  0  0  0
 30 37  1  0  0  0  0
 31 30  1  0  0  0  0
 32 33  1  0  0  0  0
 32 29  1  0  0  0  0
 34 32  2  0  0  0  0
 39 31  1  0  0  0  0
M  END
$$$$
