GIE.pdb
 OpenBabel07022418233D

 44 43  0  0  1  0  0  0  0  0999 V2000
    2.3580   -4.7210   -0.1560 N   0  0  0  0  0  0  0  0  0  0  0  0
    2.3800   -3.9650   -1.4040 C   0  0  0  0  0  0  0  0  0  0  0  0
    1.4780   -2.7820   -1.2920 C   0  0  0  0  0  0  0  0  0  0  0  0
    1.4080   -2.0390   -2.3160 O   0  0  0  0  0  0  0  0  0  0  0  0
    1.4020   -5.0980    0.0370 H   0  0  0  0  0  0  0  0  0  0  0  0
    2.9660   -5.5670   -0.3310 H   0  0  0  0  0  0  0  0  0  0  0  0
    2.0560   -4.5940   -2.2670 H   0  0  0  0  0  0  0  0  0  0  0  0
    3.4210   -3.6680   -1.6070 H   0  0  0  0  0  0  0  0  0  0  0  0
   -1.6430   -2.0310    2.5140 C   0  0  0  0  0  0  0  0  0  0  0  0
   -1.9520   -2.5810    1.1690 C   0  0  0  0  0  0  0  0  0  0  0  0
   -1.5590   -1.7330    0.0210 C   0  0  2  0  0  0  0  0  0  0  0  0
   -1.9810   -2.5000   -1.2450 C   0  0  0  0  0  0  0  0  0  0  0  0
   -0.1280   -1.3270   -0.0660 C   0  0  2  0  0  0  0  0  0  0  0  0
    0.7470   -2.5010   -0.1310 N   0  0  0  0  0  0  0  0  0  0  0  0
    0.3690   -0.4450    0.9940 C   0  0  0  0  0  0  0  0  0  0  0  0
    1.3790   -0.7490    1.7210 O   0  0  0  0  0  0  0  0  0  0  0  0
   -0.6110   -2.2080    2.8490 H   0  0  0  0  0  0  0  0  0  0  0  0
   -1.9300   -0.9720    2.5280 H   0  0  0  0  0  0  0  0  0  0  0  0
   -2.2920   -2.5210    3.3000 H   0  0  0  0  0  0  0  0  0  0  0  0
   -1.5790   -3.6200    1.0200 H   0  0  0  0  0  0  0  0  0  0  0  0
   -3.0760   -2.7000    1.1020 H   0  0  0  0  0  0  0  0  0  0  0  0
   -2.1680   -0.8020    0.0370 H   0  0  0  0  0  0  0  0  0  0  0  0
   -1.4880   -2.0630   -2.1270 H   0  0  0  0  0  0  0  0  0  0  0  0
   -3.0760   -2.4670   -1.2750 H   0  0  0  0  0  0  0  0  0  0  0  0
   -1.6810   -3.5560   -1.1120 H   0  0  0  0  0  0  0  0  0  0  0  0
   -0.0430   -0.8040   -1.0820 H   0  0  0  0  0  0  0  0  0  0  0  0
    0.8400   -3.1480    0.6910 H   0  0  0  0  0  0  0  0  0  0  0  0
   -0.2100    0.8320    1.3230 N   0  0  0  0  0  0  0  0  0  0  0  0
    0.3220    1.6670    2.3770 C   0  0  1  0  0  0  0  0  0  0  0  0
    0.9280    2.9430    1.8210 C   0  0  0  0  0  0  0  0  0  0  0  0
    2.0620    2.6430    0.8640 C   0  0  0  0  0  0  0  0  0  0  0  0
    2.6280    3.9110    0.3420 C   0  0  0  0  0  0  0  0  0  0  0  0
    3.5840    3.9090   -0.4730 O   0  0  0  0  0  0  0  0  0  0  0  0
   -0.7870    2.0870    3.2540 C   0  0  0  0  0  0  0  0  0  0  0  0
   -1.9520    1.7150    2.9930 O   0  0  0  0  0  0  0  0  0  0  0  0
    2.1180    5.1310    0.7390 O   0  0  0  0  0  0  0  0  0  0  0  0
   -0.5990    2.8860    4.3750 O   0  0  0  0  0  0  0  0  0  0  0  0
   -1.0320    1.1550    0.7840 H   0  0  0  0  0  0  0  0  0  0  0  0
    1.1550    1.1560    2.9160 H   0  0  0  0  0  0  0  0  0  0  0  0
    0.1330    3.4950    1.2820 H   0  0  0  0  0  0  0  0  0  0  0  0
    1.2470    3.5490    2.6740 H   0  0  0  0  0  0  0  0  0  0  0  0
    1.7750    1.9310    0.0810 H   0  0  0  0  0  0  0  0  0  0  0  0
    2.8820    2.1530    1.4490 H   0  0  0  0  0  0  0  0  0  0  0  0
    2.0850    5.9440    0.1040 H   0  0  0  0  0  0  0  0  0  0  0  0
  1  5  1  0  0  0  0
  2  3  1  0  0  0  0
  2  1  1  0  0  0  0
  3 14  1  0  0  0  0
  4  3  2  0  0  0  0
  6  1  1  0  0  0  0
  7  2  1  0  0  0  0
  8  2  1  0  0  0  0
  9 18  1  0  0  0  0
  9 17  1  0  0  0  0
  9 19  1  0  0  0  0
 10  9  1  0  0  0  0
 11 22  1  1  0  0  0
 11 10  1  0  0  0  0
 12 25  1  0  0  0  0
 12 11  1  0  0  0  0
 13 26  1  6  0  0  0
 13 11  1  0  0  0  0
 13 15  1  0  0  0  0
 14 13  1  0  0  0  0
 14 27  1  0  0  0  0
 15 28  1  0  0  0  0
 15 16  2  0  0  0  0
 20 10  1  0  0  0  0
 21 10  1  0  0  0  0
 23 12  1  0  0  0  0
 24 12  1  0  0  0  0
 28 29  1  0  0  0  0
 29 39  1  1  0  0  0
 29 34  1  0  0  0  0
 30 29  1  0  0  0  0
 30 41  1  0  0  0  0
 31 43  1  0  0  0  0
 31 30  1  0  0  0  0
 32 36  1  0  0  0  0
 32 31  1  0  0  0  0
 33 32  2  0  0  0  0
 34 37  1  0  0  0  0
 35 34  2  0  0  0  0
 38 28  1  0  0  0  0
 40 30  1  0  0  0  0
 42 31  1  0  0  0  0
 44 36  1  0  0  0  0
M  END
$$$$
