GIF.pdb
 OpenBabel07022418233D

 48 48  0  0  1  0  0  0  0  0999 V2000
   -4.2100   -4.9200    2.5170 N   0  0  0  0  0  0  0  0  0  0  0  0
   -2.8880   -4.8700    1.9750 C   0  0  0  0  0  0  0  0  0  0  0  0
   -2.3800   -3.4670    1.8590 C   0  0  0  0  0  0  0  0  0  0  0  0
   -3.1040   -2.5240    2.2220 O   0  0  0  0  0  0  0  0  0  0  0  0
   -4.2110   -4.7030    3.5300 H   0  0  0  0  0  0  0  0  0  0  0  0
   -4.8990   -4.3620    1.9830 H   0  0  0  0  0  0  0  0  0  0  0  0
   -2.8960   -5.3000    0.9340 H   0  0  0  0  0  0  0  0  0  0  0  0
   -2.2200   -5.5060    2.5680 H   0  0  0  0  0  0  0  0  0  0  0  0
    2.8500   -2.3030    2.8690 C   0  0  0  0  0  0  0  0  0  0  0  0
    1.7500   -2.5990    1.8700 C   0  0  0  0  0  0  0  0  0  0  0  0
    0.6230   -1.6570    2.1340 C   0  0  2  0  0  0  0  0  0  0  0  0
    0.1350   -1.8810    3.5500 C   0  0  0  0  0  0  0  0  0  0  0  0
   -0.5540   -1.8550    1.2140 C   0  0  2  0  0  0  0  0  0  0  0  0
   -1.0870   -3.1830    1.3440 N   0  0  0  0  0  0  0  0  0  0  0  0
   -0.2880   -1.4650   -0.1720 C   0  0  0  0  0  0  0  0  0  0  0  0
   -0.5370   -2.2850   -1.0840 O   0  0  0  0  0  0  0  0  0  0  0  0
    2.3900   -2.3740    3.8910 H   0  0  0  0  0  0  0  0  0  0  0  0
    3.6760   -3.0270    2.8280 H   0  0  0  0  0  0  0  0  0  0  0  0
    3.1900   -1.2460    2.7760 H   0  0  0  0  0  0  0  0  0  0  0  0
    2.1950   -2.4940    0.8660 H   0  0  0  0  0  0  0  0  0  0  0  0
    1.4340   -3.6590    2.0720 H   0  0  0  0  0  0  0  0  0  0  0  0
    0.9920   -0.6200    2.0320 H   0  0  0  0  0  0  0  0  0  0  0  0
    0.6870   -1.1730    4.2140 H   0  0  0  0  0  0  0  0  0  0  0  0
    0.3130   -2.9450    3.8720 H   0  0  0  0  0  0  0  0  0  0  0  0
   -0.9310   -1.6880    3.6850 H   0  0  0  0  0  0  0  0  0  0  0  0
   -1.3590   -1.1590    1.5940 H   0  0  0  0  0  0  0  0  0  0  0  0
   -0.5220   -4.0360    1.0540 H   0  0  0  0  0  0  0  0  0  0  0  0
    0.2380   -0.2040   -0.5360 N   0  0  0  0  0  0  0  0  0  0  0  0
    0.5020    0.1830   -1.9130 C   0  0  1  0  0  0  0  0  0  0  0  0
   -0.3750    1.3480   -2.2820 C   0  0  0  0  0  0  0  0  0  0  0  0
   -0.0920    2.4800   -1.3880 C   0  0  0  0  0  0  0  0  0  0  0  0
   -0.7830    2.6130   -0.2060 C   0  0  0  0  0  0  0  0  0  0  0  0
   -0.5390    3.6540    0.6330 C   0  0  0  0  0  0  0  0  0  0  0  0
    0.4030    4.6130    0.3360 C   0  0  0  0  0  0  0  0  0  0  0  0
    1.0930    4.4760   -0.8490 C   0  0  0  0  0  0  0  0  0  0  0  0
    0.8500    3.4150   -1.7120 C   0  0  0  0  0  0  0  0  0  0  0  0
    1.9080    0.5510   -2.1520 C   0  0  0  0  0  0  0  0  0  0  0  0
    2.2630    0.8840   -3.2910 O   0  0  0  0  0  0  0  0  0  0  0  0
    2.8790    0.5450   -1.1500 O   0  0  0  0  0  0  0  0  0  0  0  0
    0.4580    0.5040    0.1960 H   0  0  0  0  0  0  0  0  0  0  0  0
    0.2310   -0.6470   -2.6130 H   0  0  0  0  0  0  0  0  0  0  0  0
   -0.1730    1.6370   -3.3420 H   0  0  0  0  0  0  0  0  0  0  0  0
   -1.4570    1.0630   -2.1970 H   0  0  0  0  0  0  0  0  0  0  0  0
   -1.5460    1.8780    0.0830 H   0  0  0  0  0  0  0  0  0  0  0  0
   -1.1040    3.7220    1.5540 H   0  0  0  0  0  0  0  0  0  0  0  0
    0.5870    5.4370    1.0140 H   0  0  0  0  0  0  0  0  0  0  0  0
    1.8250    5.2110   -1.0910 H   0  0  0  0  0  0  0  0  0  0  0  0
    1.4390    3.4000   -2.6120 H   0  0  0  0  0  0  0  0  0  0  0  0
  1  5  1  0  0  0  0
  2  1  1  0  0  0  0
  2  8  1  0  0  0  0
  3  2  1  0  0  0  0
  3  4  2  0  0  0  0
  6  1  1  0  0  0  0
  7  2  1  0  0  0  0
  9 17  1  0  0  0  0
 10 21  1  0  0  0  0
 10 11  1  0  0  0  0
 10  9  1  0  0  0  0
 11 22  1  6  0  0  0
 11 12  1  0  0  0  0
 12 25  1  0  0  0  0
 12 24  1  0  0  0  0
 12 23  1  0  0  0  0
 13 14  1  0  0  0  0
 13 26  1  1  0  0  0
 13 11  1  0  0  0  0
 14  3  1  0  0  0  0
 15 13  1  0  0  0  0
 16 15  2  0  0  0  0
 18  9  1  0  0  0  0
 19  9  1  0  0  0  0
 20 10  1  0  0  0  0
 27 14  1  0  0  0  0
 28 15  1  0  0  0  0
 28 40  1  0  0  0  0
 29 41  1  6  0  0  0
 29 28  1  0  0  0  0
 30 43  1  0  0  0  0
 30 29  1  0  0  0  0
 30 31  1  0  0  0  0
 31 32  1  0  0  0  0
 32 44  1  0  0  0  0
 32 33  2  0  0  0  0
 33 45  1  0  0  0  0
 34 33  1  0  0  0  0
 34 46  1  0  0  0  0
 35 34  2  0  0  0  0
 36 31  2  0  0  0  0
 36 35  1  0  0  0  0
 37 29  1  0  0  0  0
 37 39  1  0  0  0  0
 38 37  2  0  0  0  0
 42 30  1  0  0  0  0
 47 35  1  0  0  0  0
 48 36  1  0  0  0  0
M  END
$$$$
