GIG.pdb
 OpenBabel07022418233D

 35 34  0  0  1  0  0  0  0  0999 V2000
    0.7930   -4.4160   -0.3250 N   0  0  0  0  0  0  0  0  0  0  0  0
   -0.5050   -4.5080    0.3170 C   0  0  0  0  0  0  0  0  0  0  0  0
   -0.8800   -3.1340    0.7990 C   0  0  0  0  0  0  0  0  0  0  0  0
   -1.9590   -2.9140    1.3960 O   0  0  0  0  0  0  0  0  0  0  0  0
    0.7090   -4.1540   -1.3200 H   0  0  0  0  0  0  0  0  0  0  0  0
    1.3640   -5.2760   -0.1810 H   0  0  0  0  0  0  0  0  0  0  0  0
   -1.2350   -4.7580   -0.4940 H   0  0  0  0  0  0  0  0  0  0  0  0
   -0.5310   -5.2310    1.1460 H   0  0  0  0  0  0  0  0  0  0  0  0
    0.9300    1.7650    3.6470 C   0  0  0  0  0  0  0  0  0  0  0  0
    0.0540    1.2540    2.4770 C   0  0  0  0  0  0  0  0  0  0  0  0
    0.5240   -0.1050    2.0330 C   0  0  2  0  0  0  0  0  0  0  0  0
    1.9540    0.0360    1.5630 C   0  0  0  0  0  0  0  0  0  0  0  0
   -0.4130   -0.7050    1.0760 C   0  0  2  0  0  0  0  0  0  0  0  0
   -0.0360   -2.0170    0.6060 N   0  0  0  0  0  0  0  0  0  0  0  0
   -0.6490    0.1870   -0.0850 C   0  0  0  0  0  0  0  0  0  0  0  0
   -1.0540    1.3790   -0.0040 O   0  0  0  0  0  0  0  0  0  0  0  0
    0.9190    0.9170    4.3800 H   0  0  0  0  0  0  0  0  0  0  0  0
    1.9480    1.8530    3.2680 H   0  0  0  0  0  0  0  0  0  0  0  0
    0.4770    2.6810    4.0310 H   0  0  0  0  0  0  0  0  0  0  0  0
    0.1950    2.0520    1.7050 H   0  0  0  0  0  0  0  0  0  0  0  0
   -0.9720    1.3070    2.8310 H   0  0  0  0  0  0  0  0  0  0  0  0
    0.5140   -0.7110    3.0090 H   0  0  0  0  0  0  0  0  0  0  0  0
    2.2710   -0.7820    0.8910 H   0  0  0  0  0  0  0  0  0  0  0  0
    2.5900    0.0930    2.4600 H   0  0  0  0  0  0  0  0  0  0  0  0
    2.0840    0.9840    1.0020 H   0  0  0  0  0  0  0  0  0  0  0  0
   -1.3980   -0.8000    1.5840 H   0  0  0  0  0  0  0  0  0  0  0  0
    0.8830   -2.0990    0.1230 H   0  0  0  0  0  0  0  0  0  0  0  0
   -0.4030   -0.3320   -1.4130 N   0  0  0  0  0  0  0  0  0  0  0  0
   -0.6270    0.5180   -2.5520 C   0  0  0  0  0  0  0  0  0  0  0  0
    0.2280    1.7400   -2.5070 C   0  0  0  0  0  0  0  0  0  0  0  0
    0.1900    2.6150   -3.4070 O   0  0  0  0  0  0  0  0  0  0  0  0
    1.1090    1.9550   -1.4560 O   0  0  0  0  0  0  0  0  0  0  0  0
   -0.0720   -1.3110   -1.4850 H   0  0  0  0  0  0  0  0  0  0  0  0
   -1.6830    0.8900   -2.5370 H   0  0  0  0  0  0  0  0  0  0  0  0
   -0.5070   -0.0170   -3.5130 H   0  0  0  0  0  0  0  0  0  0  0  0
  1  6  1  0  0  0  0
  1  2  1  0  0  0  0
  2  3  1  0  0  0  0
  2  8  1  0  0  0  0
  3  4  2  0  0  0  0
  5  1  1  0  0  0  0
  7  2  1  0  0  0  0
  9 19  1  0  0  0  0
  9 17  1  0  0  0  0
 10 21  1  0  0  0  0
 10  9  1  0  0  0  0
 11 10  1  0  0  0  0
 11 22  1  1  0  0  0
 12 11  1  0  0  0  0
 12 24  1  0  0  0  0
 13 26  1  1  0  0  0
 13 11  1  0  0  0  0
 14  3  1  0  0  0  0
 14 13  1  0  0  0  0
 15 16  2  0  0  0  0
 15 13  1  0  0  0  0
 18  9  1  0  0  0  0
 20 10  1  0  0  0  0
 23 12  1  0  0  0  0
 25 12  1  0  0  0  0
 27 14  1  0  0  0  0
 28 15  1  0  0  0  0
 29 34  1  0  0  0  0
 29 30  1  0  0  0  0
 29 28  1  0  0  0  0
 30 32  1  0  0  0  0
 31 30  2  0  0  0  0
 33 28  1  0  0  0  0
 35 29  1  0  0  0  0
M  END
$$$$
