GIH.pdb
 OpenBabel07022418233D

 45 45  0  0  1  0  0  0  0  0999 V2000
    1.0340   -3.9730   -0.9260 N   0  0  0  0  0  0  0  0  0  0  0  0
    0.4760   -2.7610   -1.4890 C   0  0  0  0  0  0  0  0  0  0  0  0
    0.8440   -1.6380   -0.5530 C   0  0  0  0  0  0  0  0  0  0  0  0
    0.4600   -0.4820   -0.8450 O   0  0  0  0  0  0  0  0  0  0  0  0
    0.4860   -4.2020   -0.0590 H   0  0  0  0  0  0  0  0  0  0  0  0
    0.9400   -4.7650   -1.6000 H   0  0  0  0  0  0  0  0  0  0  0  0
   -0.6200   -2.8430   -1.5290 H   0  0  0  0  0  0  0  0  0  0  0  0
    0.9220   -2.5900   -2.4900 H   0  0  0  0  0  0  0  0  0  0  0  0
    2.6910    1.6950   -0.0840 C   0  0  0  0  0  0  0  0  0  0  0  0
    3.5570    0.5060    0.1340 C   0  0  0  0  0  0  0  0  0  0  0  0
    3.3260   -0.2550    1.3820 C   0  0  2  0  0  0  0  0  0  0  0  0
    4.3440   -1.4380    1.4600 C   0  0  0  0  0  0  0  0  0  0  0  0
    1.9920   -0.8860    1.5810 C   0  0  2  0  0  0  0  0  0  0  0  0
    1.5890   -1.8480    0.6130 N   0  0  0  0  0  0  0  0  0  0  0  0
    0.9330   -0.0180    2.1360 C   0  0  0  0  0  0  0  0  0  0  0  0
    1.2290    0.9720    2.8960 O   0  0  0  0  0  0  0  0  0  0  0  0
    3.1640    2.6510    0.2520 H   0  0  0  0  0  0  0  0  0  0  0  0
    2.5000    1.8860   -1.1870 H   0  0  0  0  0  0  0  0  0  0  0  0
    1.6960    1.5640    0.3520 H   0  0  0  0  0  0  0  0  0  0  0  0
    3.6090   -0.1620   -0.7660 H   0  0  0  0  0  0  0  0  0  0  0  0
    4.6180    0.9070    0.1940 H   0  0  0  0  0  0  0  0  0  0  0  0
    3.5810    0.3780    2.2540 H   0  0  0  0  0  0  0  0  0  0  0  0
    4.3800   -1.9600    0.4920 H   0  0  0  0  0  0  0  0  0  0  0  0
    5.3320   -0.9970    1.7020 H   0  0  0  0  0  0  0  0  0  0  0  0
    4.0230   -2.0520    2.3070 H   0  0  0  0  0  0  0  0  0  0  0  0
    2.2060   -1.5730    2.5270 H   0  0  0  0  0  0  0  0  0  0  0  0
    1.8830   -2.8650    0.7670 H   0  0  0  0  0  0  0  0  0  0  0  0
   -0.4590   -0.1540    1.9240 N   0  0  0  0  0  0  0  0  0  0  0  0
   -1.4490    0.7310    2.4870 C   0  0  1  0  0  0  0  0  0  0  0  0
   -2.2600    1.4640    1.4670 C   0  0  0  0  0  0  0  0  0  0  0  0
   -3.0170    0.5680    0.5650 C   0  0  0  0  0  0  0  0  0  0  0  0
   -3.8290    1.0410   -0.4470 C   0  0  0  0  0  0  0  0  0  0  0  0
   -4.3740    0.0100   -1.0830 N   0  0  0  0  0  0  0  0  0  0  0  0
   -3.9180   -1.1010   -0.4880 C   0  0  0  0  0  0  0  0  0  0  0  0
   -3.0930   -0.7660    0.5160 N   0  0  0  0  0  0  0  0  0  0  0  0
   -2.2770   -0.0530    3.4360 C   0  0  0  0  0  0  0  0  0  0  0  0
   -3.2370    0.4950    4.0790 O   0  0  0  0  0  0  0  0  0  0  0  0
   -2.0760   -1.3980    3.6860 O   0  0  0  0  0  0  0  0  0  0  0  0
   -0.8420   -0.9350    1.3550 H   0  0  0  0  0  0  0  0  0  0  0  0
   -0.9030    1.4910    3.0840 H   0  0  0  0  0  0  0  0  0  0  0  0
   -3.0100    2.0660    2.0230 H   0  0  0  0  0  0  0  0  0  0  0  0
   -1.6120    2.1700    0.9400 H   0  0  0  0  0  0  0  0  0  0  0  0
   -4.0070    2.0980   -0.7000 H   0  0  0  0  0  0  0  0  0  0  0  0
   -5.0400    0.0290   -1.9020 H   0  0  0  0  0  0  0  0  0  0  0  0
   -4.1760   -2.0980   -0.7720 H   0  0  0  0  0  0  0  0  0  0  0  0
  1  5  1  0  0  0  0
  2  1  1  0  0  0  0
  2  3  1  0  0  0  0
  3 14  1  0  0  0  0
  4  3  2  0  0  0  0
  6  1  1  0  0  0  0
  7  2  1  0  0  0  0
  8  2  1  0  0  0  0
  9 10  1  0  0  0  0
  9 17  1  0  0  0  0
  9 19  1  0  0  0  0
 10 21  1  0  0  0  0
 10 11  1  0  0  0  0
 11 12  1  0  0  0  0
 11 13  1  0  0  0  0
 11 22  1  1  0  0  0
 12 24  1  0  0  0  0
 12 25  1  0  0  0  0
 13 15  1  0  0  0  0
 13 26  1  1  0  0  0
 14 27  1  0  0  0  0
 14 13  1  0  0  0  0
 15 16  2  0  0  0  0
 18  9  1  0  0  0  0
 20 10  1  0  0  0  0
 23 12  1  0  0  0  0
 28 15  1  0  0  0  0
 28 29  1  0  0  0  0
 29 40  1  1  0  0  0
 29 36  1  0  0  0  0
 30 41  1  0  0  0  0
 30 29  1  0  0  0  0
 31 30  1  0  0  0  0
 32 31  2  0  0  0  0
 33 34  1  0  0  0  0
 33 32  1  0  0  0  0
 34 35  2  0  0  0  0
 35 31  1  0  0  0  0
 36 38  2  0  0  0  0
 36 37  1  0  0  0  0
 39 28  1  0  0  0  0
 42 30  1  0  0  0  0
 43 32  1  0  0  0  0
 44 33  1  0  0  0  0
 45 34  1  0  0  0  0
M  END
$$$$
