GII.pdb
 OpenBabel07022418233D

 47 46  0  0  1  0  0  0  0  0999 V2000
    1.2880   -5.9380   -0.7890 N   0  0  0  0  0  0  0  0  0  0  0  0
    1.7260   -4.7100   -0.1550 C   0  0  0  0  0  0  0  0  0  0  0  0
    0.5670   -3.8760    0.2320 C   0  0  0  0  0  0  0  0  0  0  0  0
   -0.6070   -4.3100   -0.0210 O   0  0  0  0  0  0  0  0  0  0  0  0
    0.5100   -6.3270   -0.2280 H   0  0  0  0  0  0  0  0  0  0  0  0
    2.1090   -6.5630   -0.8770 H   0  0  0  0  0  0  0  0  0  0  0  0
    2.4050   -4.9330    0.6900 H   0  0  0  0  0  0  0  0  0  0  0  0
    2.3440   -4.1580   -0.9120 H   0  0  0  0  0  0  0  0  0  0  0  0
    0.6880   -3.6390    3.5260 C   0  0  0  0  0  0  0  0  0  0  0  0
   -0.3260   -2.5640    3.6780 C   0  0  0  0  0  0  0  0  0  0  0  0
   -0.3020   -1.4400    2.7010 C   0  0  2  0  0  0  0  0  0  0  0  0
   -1.4310   -0.4800    3.1030 C   0  0  0  0  0  0  0  0  0  0  0  0
   -0.3650   -1.7970    1.2560 C   0  0  2  0  0  0  0  0  0  0  0  0
    0.7830   -2.6300    0.8680 N   0  0  0  0  0  0  0  0  0  0  0  0
   -0.2940   -0.5210    0.4560 C   0  0  0  0  0  0  0  0  0  0  0  0
    0.7960   -0.2890   -0.1360 O   0  0  0  0  0  0  0  0  0  0  0  0
    1.6480   -3.2420    3.1620 H   0  0  0  0  0  0  0  0  0  0  0  0
    0.3200   -4.5290    2.9720 H   0  0  0  0  0  0  0  0  0  0  0  0
    0.8990   -4.0670    4.5690 H   0  0  0  0  0  0  0  0  0  0  0  0
   -0.1260   -2.0860    4.6900 H   0  0  0  0  0  0  0  0  0  0  0  0
   -1.3660   -2.9660    3.7780 H   0  0  0  0  0  0  0  0  0  0  0  0
    0.6410   -0.8520    2.9310 H   0  0  0  0  0  0  0  0  0  0  0  0
   -2.4230   -0.8510    2.8140 H   0  0  0  0  0  0  0  0  0  0  0  0
   -1.2560    0.5480    2.8060 H   0  0  0  0  0  0  0  0  0  0  0  0
   -1.4590   -0.4550    4.2430 H   0  0  0  0  0  0  0  0  0  0  0  0
   -1.3130   -2.2930    1.0120 H   0  0  0  0  0  0  0  0  0  0  0  0
    1.7520   -2.3060    1.0440 H   0  0  0  0  0  0  0  0  0  0  0  0
    2.1380    3.2180    0.0930 C   0  0  0  0  0  0  0  0  0  0  0  0
    0.8000    2.6030    0.4580 C   0  0  0  0  0  0  0  0  0  0  0  0
   -0.0060    2.2430   -0.7680 C   0  0  2  0  0  0  0  0  0  0  0  0
   -0.2470    3.5310   -1.5190 C   0  0  0  0  0  0  0  0  0  0  0  0
   -1.3180    1.6500   -0.3980 C   0  0  2  0  0  0  0  0  0  0  0  0
   -1.3170    0.4120    0.3100 N   0  0  0  0  0  0  0  0  0  0  0  0
   -2.2600    1.6000   -1.5020 C   0  0  0  0  0  0  0  0  0  0  0  0
   -2.9340    0.5340   -1.7260 O   0  0  0  0  0  0  0  0  0  0  0  0
   -2.5220    2.6350   -2.3830 O   0  0  0  0  0  0  0  0  0  0  0  0
    2.4610    2.7530   -0.8640 H   0  0  0  0  0  0  0  0  0  0  0  0
    2.8460    2.9280    0.9050 H   0  0  0  0  0  0  0  0  0  0  0  0
    2.1120    4.3080    0.0010 H   0  0  0  0  0  0  0  0  0  0  0  0
    0.2660    3.4810    0.9900 H   0  0  0  0  0  0  0  0  0  0  0  0
    0.8350    1.8460    1.2380 H   0  0  0  0  0  0  0  0  0  0  0  0
    0.5840    1.6120   -1.4720 H   0  0  0  0  0  0  0  0  0  0  0  0
   -1.1580    4.0700   -1.1860 H   0  0  0  0  0  0  0  0  0  0  0  0
   -0.3340    3.3520   -2.6110 H   0  0  0  0  0  0  0  0  0  0  0  0
    0.6030    4.2440   -1.3700 H   0  0  0  0  0  0  0  0  0  0  0  0
   -1.7230    2.4130    0.3820 H   0  0  0  0  0  0  0  0  0  0  0  0
   -2.2570    0.1850    0.7580 H   0  0  0  0  0  0  0  0  0  0  0  0
  1  5  1  0  0  0  0
  1  2  1  0  0  0  0
  2  3  1  0  0  0  0
  2  7  1  0  0  0  0
  3 14  1  0  0  0  0
  4  3  2  0  0  0  0
  6  1  1  0  0  0  0
  8  2  1  0  0  0  0
  9 10  1  0  0  0  0
  9 19  1  0  0  0  0
 10 21  1  0  0  0  0
 10 20  1  0  0  0  0
 11 22  1  1  0  0  0
 11 12  1  0  0  0  0
 11 10  1  0  0  0  0
 12 25  1  0  0  0  0
 13 26  1  6  0  0  0
 13 11  1  0  0  0  0
 14 27  1  0  0  0  0
 14 13  1  0  0  0  0
 15 13  1  0  0  0  0
 16 15  2  0  0  0  0
 17  9  1  0  0  0  0
 18  9  1  0  0  0  0
 23 12  1  0  0  0  0
 24 12  1  0  0  0  0
 28 29  1  0  0  0  0
 28 38  1  0  0  0  0
 29 40  1  0  0  0  0
 29 41  1  0  0  0  0
 30 42  1  6  0  0  0
 30 32  1  0  0  0  0
 30 29  1  0  0  0  0
 31 45  1  0  0  0  0
 31 43  1  0  0  0  0
 31 30  1  0  0  0  0
 32 33  1  0  0  0  0
 32 46  1  1  0  0  0
 33 15  1  0  0  0  0
 33 47  1  0  0  0  0
 34 32  1  0  0  0  0
 35 34  1  0  0  0  0
 36 34  2  0  0  0  0
 37 28  1  0  0  0  0
 39 28  1  0  0  0  0
 44 31  1  0  0  0  0
M  END
$$$$
