GIK.pdb
 OpenBabel07022418233D

 49 48  0  0  1  0  0  0  0  0999 V2000
    3.6810   -4.1620   -1.0590 N   0  0  0  0  0  0  0  0  0  0  0  0
    3.8970   -3.1930   -2.1130 C   0  0  0  0  0  0  0  0  0  0  0  0
    2.9520   -2.0390   -1.9830 C   0  0  0  0  0  0  0  0  0  0  0  0
    3.0100   -1.0930   -2.8350 O   0  0  0  0  0  0  0  0  0  0  0  0
    3.8480   -3.7690   -0.1070 H   0  0  0  0  0  0  0  0  0  0  0  0
    2.7320   -4.5830   -1.0690 H   0  0  0  0  0  0  0  0  0  0  0  0
    3.6390   -3.6900   -3.0710 H   0  0  0  0  0  0  0  0  0  0  0  0
    4.9430   -2.8680   -2.0640 H   0  0  0  0  0  0  0  0  0  0  0  0
   -0.6610   -2.3940    1.3960 C   0  0  0  0  0  0  0  0  0  0  0  0
   -0.8500   -2.4620   -0.0560 C   0  0  0  0  0  0  0  0  0  0  0  0
   -0.3250   -1.3840   -0.9160 C   0  0  2  0  0  0  0  0  0  0  0  0
   -0.6550   -1.7300   -2.3530 C   0  0  0  0  0  0  0  0  0  0  0  0
    1.0990   -0.9790   -0.7300 C   0  0  2  0  0  0  0  0  0  0  0  0
    2.0310   -2.0470   -0.9150 N   0  0  0  0  0  0  0  0  0  0  0  0
    1.3160   -0.2050    0.5020 C   0  0  0  0  0  0  0  0  0  0  0  0
    2.1740   -0.6500    1.2960 O   0  0  0  0  0  0  0  0  0  0  0  0
    0.0400   -3.1430    1.8190 H   0  0  0  0  0  0  0  0  0  0  0  0
   -0.3760   -1.4230    1.7780 H   0  0  0  0  0  0  0  0  0  0  0  0
   -1.6400   -2.6400    1.9040 H   0  0  0  0  0  0  0  0  0  0  0  0
   -1.9590   -2.5330   -0.2720 H   0  0  0  0  0  0  0  0  0  0  0  0
   -0.4890   -3.4810   -0.4000 H   0  0  0  0  0  0  0  0  0  0  0  0
   -0.9220   -0.4330   -0.7350 H   0  0  0  0  0  0  0  0  0  0  0  0
   -0.2910   -2.7250   -2.6430 H   0  0  0  0  0  0  0  0  0  0  0  0
   -1.7820   -1.7960   -2.3950 H   0  0  0  0  0  0  0  0  0  0  0  0
   -0.3760   -0.9270   -3.0550 H   0  0  0  0  0  0  0  0  0  0  0  0
    1.2910   -0.2330   -1.5690 H   0  0  0  0  0  0  0  0  0  0  0  0
    2.0360   -2.8520   -0.2530 H   0  0  0  0  0  0  0  0  0  0  0  0
    0.5760    0.9810    0.7410 N   0  0  0  0  0  0  0  0  0  0  0  0
    0.7170    1.8140    1.8720 C   0  0  1  0  0  0  0  0  0  0  0  0
   -0.0680    1.5950    3.0850 C   0  0  0  0  0  0  0  0  0  0  0  0
   -1.5390    1.6840    3.0480 C   0  0  0  0  0  0  0  0  0  0  0  0
   -2.3100    0.7610    2.1970 C   0  0  0  0  0  0  0  0  0  0  0  0
   -3.8060    1.1310    2.3820 C   0  0  0  0  0  0  0  0  0  0  0  0
   -4.6120    0.2530    1.5660 N   0  0  0  0  0  0  0  0  0  0  0  0
    2.1740    1.9700    2.2170 C   0  0  0  0  0  0  0  0  0  0  0  0
    2.4960    2.5330    3.3230 O   0  0  0  0  0  0  0  0  0  0  0  0
    3.1790    1.5430    1.3990 O   0  0  0  0  0  0  0  0  0  0  0  0
   -0.1410    1.2770   -0.0100 H   0  0  0  0  0  0  0  0  0  0  0  0
    0.4830    2.9030    1.5130 H   0  0  0  0  0  0  0  0  0  0  0  0
    0.2700    0.6440    3.6180 H   0  0  0  0  0  0  0  0  0  0  0  0
    0.2730    2.3850    3.8350 H   0  0  0  0  0  0  0  0  0  0  0  0
   -1.9150    2.7270    2.8640 H   0  0  0  0  0  0  0  0  0  0  0  0
   -1.8920    1.4960    4.1160 H   0  0  0  0  0  0  0  0  0  0  0  0
   -2.2880   -0.3010    2.5320 H   0  0  0  0  0  0  0  0  0  0  0  0
   -2.1330    0.8820    1.1320 H   0  0  0  0  0  0  0  0  0  0  0  0
   -3.9770    2.1890    2.1700 H   0  0  0  0  0  0  0  0  0  0  0  0
   -4.0320    0.9130    3.4440 H   0  0  0  0  0  0  0  0  0  0  0  0
   -4.2150    0.0930    0.6190 H   0  0  0  0  0  0  0  0  0  0  0  0
   -4.8050   -0.6620    2.0280 H   0  0  0  0  0  0  0  0  0  0  0  0
  1  5  1  0  0  0  0
  2  8  1  0  0  0  0
  2  3  1  0  0  0  0
  2  1  1  0  0  0  0
  3 14  1  0  0  0  0
  4  3  2  0  0  0  0
  6  1  1  0  0  0  0
  7  2  1  0  0  0  0
  9 18  1  0  0  0  0
  9 17  1  0  0  0  0
  9 19  1  0  0  0  0
 10  9  1  0  0  0  0
 11 22  1  1  0  0  0
 11 13  1  0  0  0  0
 11 10  1  0  0  0  0
 12 11  1  0  0  0  0
 13 26  1  6  0  0  0
 13 15  1  0  0  0  0
 14 13  1  0  0  0  0
 14 27  1  0  0  0  0
 15 28  1  0  0  0  0
 15 16  2  0  0  0  0
 20 10  1  0  0  0  0
 21 10  1  0  0  0  0
 23 12  1  0  0  0  0
 24 12  1  0  0  0  0
 25 12  1  0  0  0  0
 28 29  1  0  0  0  0
 29 39  1  6  0  0  0
 29 35  1  0  0  0  0
 29 30  1  0  0  0  0
 30 40  1  0  0  0  0
 30 41  1  0  0  0  0
 31 30  1  0  0  0  0
 31 43  1  0  0  0  0
 32 33  1  0  0  0  0
 32 44  1  0  0  0  0
 32 31  1  0  0  0  0
 33 47  1  0  0  0  0
 34 49  1  0  0  0  0
 34 33  1  0  0  0  0
 35 36  1  0  0  0  0
 37 35  2  0  0  0  0
 38 28  1  0  0  0  0
 42 31  1  0  0  0  0
 45 32  1  0  0  0  0
 46 33  1  0  0  0  0
 48 34  1  0  0  0  0
M  END
$$$$
