GIM.pdb
 OpenBabel07022418233D

 45 44  0  0  1  0  0  0  0  0999 V2000
   -1.6650   -5.0020   -0.4300 N   0  0  0  0  0  0  0  0  0  0  0  0
   -2.8470   -4.1820   -0.5800 C   0  0  0  0  0  0  0  0  0  0  0  0
   -2.5160   -2.7990   -0.1660 C   0  0  0  0  0  0  0  0  0  0  0  0
   -3.4140   -1.9260   -0.2230 O   0  0  0  0  0  0  0  0  0  0  0  0
   -1.3460   -5.0120    0.5580 H   0  0  0  0  0  0  0  0  0  0  0  0
   -0.9180   -4.6190   -1.0490 H   0  0  0  0  0  0  0  0  0  0  0  0
   -3.1350   -4.1670   -1.6480 H   0  0  0  0  0  0  0  0  0  0  0  0
   -3.6990   -4.5880    0.0170 H   0  0  0  0  0  0  0  0  0  0  0  0
    0.7110   -1.2770    4.1470 C   0  0  0  0  0  0  0  0  0  0  0  0
    0.5220   -1.7010    2.7000 C   0  0  0  0  0  0  0  0  0  0  0  0
   -0.6020   -0.8960    2.1420 C   0  0  2  0  0  0  0  0  0  0  0  0
   -1.8370   -1.2010    2.9770 C   0  0  0  0  0  0  0  0  0  0  0  0
   -0.8880   -1.0630    0.7000 C   0  0  2  0  0  0  0  0  0  0  0  0
   -1.2330   -2.4000    0.2940 N   0  0  0  0  0  0  0  0  0  0  0  0
    0.0690   -0.4020   -0.2250 C   0  0  0  0  0  0  0  0  0  0  0  0
    0.5370   -0.9920   -1.2450 O   0  0  0  0  0  0  0  0  0  0  0  0
    0.3140   -2.0460    4.8600 H   0  0  0  0  0  0  0  0  0  0  0  0
    1.7860   -1.1690    4.4020 H   0  0  0  0  0  0  0  0  0  0  0  0
    0.2240   -0.2950    4.3350 H   0  0  0  0  0  0  0  0  0  0  0  0
    1.4490   -1.4500    2.1830 H   0  0  0  0  0  0  0  0  0  0  0  0
    0.3070   -2.7890    2.7330 H   0  0  0  0  0  0  0  0  0  0  0  0
   -0.3650    0.1710    2.3320 H   0  0  0  0  0  0  0  0  0  0  0  0
   -2.4380   -0.2740    3.0690 H   0  0  0  0  0  0  0  0  0  0  0  0
   -2.4160   -2.0250    2.5020 H   0  0  0  0  0  0  0  0  0  0  0  0
   -1.5250   -1.4780    4.0150 H   0  0  0  0  0  0  0  0  0  0  0  0
   -1.8470   -0.4680    0.5560 H   0  0  0  0  0  0  0  0  0  0  0  0
   -0.5080   -3.1750    0.3230 H   0  0  0  0  0  0  0  0  0  0  0  0
    2.4010    3.5680    1.5900 C   0  0  0  0  0  0  0  0  0  0  0  0
    3.7400    2.4980    1.1490 S   0  0  0  0  0  0  0  0  0  0  0  0
    3.3530    0.9030    0.4900 C   0  0  0  0  0  0  0  0  0  0  0  0
    2.7470    0.9190   -0.8810 C   0  0  0  0  0  0  0  0  0  0  0  0
    1.4380    1.6130   -0.8920 C   0  0  2  0  0  0  0  0  0  0  0  0
    0.5120    0.9360   -0.0140 N   0  0  0  0  0  0  0  0  0  0  0  0
    0.8230    1.6550   -2.2530 C   0  0  0  0  0  0  0  0  0  0  0  0
    1.4190    2.1700   -3.2440 O   0  0  0  0  0  0  0  0  0  0  0  0
   -0.4310    1.1180   -2.4320 O   0  0  0  0  0  0  0  0  0  0  0  0
    2.2190    4.4200    0.8920 H   0  0  0  0  0  0  0  0  0  0  0  0
    1.4400    3.1050    1.8140 H   0  0  0  0  0  0  0  0  0  0  0  0
    2.7050    4.1180    2.5490 H   0  0  0  0  0  0  0  0  0  0  0  0
    4.2730    0.2380    0.4240 H   0  0  0  0  0  0  0  0  0  0  0  0
    2.6650    0.3630    1.2180 H   0  0  0  0  0  0  0  0  0  0  0  0
    3.4570    1.3700   -1.6330 H   0  0  0  0  0  0  0  0  0  0  0  0
    2.6820   -0.1530   -1.2150 H   0  0  0  0  0  0  0  0  0  0  0  0
    1.5960    2.6450   -0.5140 H   0  0  0  0  0  0  0  0  0  0  0  0
    0.1270    1.4390    0.8270 H   0  0  0  0  0  0  0  0  0  0  0  0
  1  5  1  0  0  0  0
  2  1  1  0  0  0  0
  2  3  1  0  0  0  0
  2  8  1  0  0  0  0
  3 14  1  0  0  0  0
  4  3  2  0  0  0  0
  6  1  1  0  0  0  0
  7  2  1  0  0  0  0
  9 19  1  0  0  0  0
  9 18  1  0  0  0  0
  9 17  1  0  0  0  0
 10 21  1  0  0  0  0
 10  9  1  0  0  0  0
 11 22  1  1  0  0  0
 11 10  1  0  0  0  0
 11 12  1  0  0  0  0
 12 23  1  0  0  0  0
 12 25  1  0  0  0  0
 13 26  1  6  0  0  0
 13 11  1  0  0  0  0
 14 27  1  0  0  0  0
 14 13  1  0  0  0  0
 15 33  1  0  0  0  0
 15 13  1  0  0  0  0
 16 15  2  0  0  0  0
 20 10  1  0  0  0  0
 24 12  1  0  0  0  0
 28 38  1  0  0  0  0
 28 39  1  0  0  0  0
 29 28  1  0  0  0  0
 30 29  1  0  0  0  0
 30 41  1  0  0  0  0
 31 30  1  0  0  0  0
 32 31  1  0  0  0  0
 32 44  1  1  0  0  0
 32 33  1  0  0  0  0
 33 45  1  0  0  0  0
 34 32  1  0  0  0  0
 35 34  2  0  0  0  0
 36 34  1  0  0  0  0
 37 28  1  0  0  0  0
 40 30  1  0  0  0  0
 42 31  1  0  0  0  0
 43 31  1  0  0  0  0
M  END
$$$$
