GIP.pdb
 OpenBabel07022418233D

 42 42  0  0  1  0  0  0  0  0999 V2000
    0.6620   -3.1240    3.3200 N   0  0  0  0  0  0  0  0  0  0  0  0
    2.0230   -2.7500    3.0790 C   0  0  0  0  0  0  0  0  0  0  0  0
    2.1600   -1.8530    1.8810 C   0  0  0  0  0  0  0  0  0  0  0  0
    3.3550   -1.4940    1.6260 O   0  0  0  0  0  0  0  0  0  0  0  0
    0.1840   -2.4800    4.0020 H   0  0  0  0  0  0  0  0  0  0  0  0
    0.6960   -4.0550    3.8360 H   0  0  0  0  0  0  0  0  0  0  0  0
    2.6640   -3.6420    2.9230 H   0  0  0  0  0  0  0  0  0  0  0  0
    2.4110   -2.1680    3.9640 H   0  0  0  0  0  0  0  0  0  0  0  0
    0.9610   -3.0730   -2.8950 C   0  0  0  0  0  0  0  0  0  0  0  0
    1.5180   -2.5260   -1.5960 C   0  0  0  0  0  0  0  0  0  0  0  0
    0.7750   -1.2330   -1.3060 C   0  0  2  0  0  0  0  0  0  0  0  0
    1.0710   -0.3430   -2.4910 C   0  0  0  0  0  0  0  0  0  0  0  0
    1.2250   -0.5930   -0.0270 C   0  0  2  0  0  0  0  0  0  0  0  0
    1.0510   -1.4510    1.1120 N   0  0  0  0  0  0  0  0  0  0  0  0
    0.5470    0.7130    0.1290 C   0  0  0  0  0  0  0  0  0  0  0  0
    0.6610    1.5100   -0.8570 O   0  0  0  0  0  0  0  0  0  0  0  0
    0.0110   -2.5700   -3.1700 H   0  0  0  0  0  0  0  0  0  0  0  0
    0.7150   -4.1640   -2.7950 H   0  0  0  0  0  0  0  0  0  0  0  0
    1.6720   -2.9830   -3.7350 H   0  0  0  0  0  0  0  0  0  0  0  0
    2.5850   -2.2890   -1.7920 H   0  0  0  0  0  0  0  0  0  0  0  0
    1.3710   -3.2720   -0.8140 H   0  0  0  0  0  0  0  0  0  0  0  0
   -0.3020   -1.4480   -1.3010 H   0  0  0  0  0  0  0  0  0  0  0  0
    0.2450    0.3510   -2.7460 H   0  0  0  0  0  0  0  0  0  0  0  0
    1.9540    0.2740   -2.2320 H   0  0  0  0  0  0  0  0  0  0  0  0
    1.3100   -0.9630   -3.4020 H   0  0  0  0  0  0  0  0  0  0  0  0
    2.3140   -0.4150   -0.1150 H   0  0  0  0  0  0  0  0  0  0  0  0
    0.0960   -1.7740    1.3420 H   0  0  0  0  0  0  0  0  0  0  0  0
   -0.2020    1.1540    1.2450 N   0  0  0  0  0  0  0  0  0  0  0  0
   -0.8560    2.4880    1.2360 C   0  0  0  0  0  0  0  0  0  0  0  0
   -0.9190    2.9710    2.6320 C   0  0  0  0  0  0  0  0  0  0  0  0
   -0.3110    1.8780    3.4260 C   0  0  0  0  0  0  0  0  0  0  0  0
   -0.5520    0.6500    2.5200 C   0  0  1  0  0  0  0  0  0  0  0  0
   -1.9290    0.2520    2.7230 C   0  0  0  0  0  0  0  0  0  0  0  0
   -2.2900   -0.2000    3.8300 O   0  0  0  0  0  0  0  0  0  0  0  0
   -2.9000    0.3410    1.7490 O   0  0  0  0  0  0  0  0  0  0  0  0
   -0.3190    3.1760    0.5570 H   0  0  0  0  0  0  0  0  0  0  0  0
   -1.8700    2.3450    0.7750 H   0  0  0  0  0  0  0  0  0  0  0  0
   -1.9600    3.2370    2.9780 H   0  0  0  0  0  0  0  0  0  0  0  0
   -0.2710    3.8890    2.7100 H   0  0  0  0  0  0  0  0  0  0  0  0
   -0.8870    1.6820    4.3460 H   0  0  0  0  0  0  0  0  0  0  0  0
    0.7720    1.9860    3.6070 H   0  0  0  0  0  0  0  0  0  0  0  0
    0.1940   -0.0890    2.9430 H   0  0  0  0  0  0  0  0  0  0  0  0
  1  6  1  0  0  0  0
  1  5  1  0  0  0  0
  2  1  1  0  0  0  0
  2  8  1  0  0  0  0
  3  2  1  0  0  0  0
  4  3  2  0  0  0  0
  7  2  1  0  0  0  0
  9 18  1  0  0  0  0
  9 10  1  0  0  0  0
 10 11  1  0  0  0  0
 10 21  1  0  0  0  0
 11 22  1  1  0  0  0
 11 13  1  0  0  0  0
 12 24  1  0  0  0  0
 12 11  1  0  0  0  0
 13 26  1  6  0  0  0
 13 15  1  0  0  0  0
 13 14  1  0  0  0  0
 14 27  1  0  0  0  0
 14  3  1  0  0  0  0
 15 28  1  0  0  0  0
 16 15  2  0  0  0  0
 17  9  1  0  0  0  0
 19  9  1  0  0  0  0
 20 10  1  0  0  0  0
 23 12  1  0  0  0  0
 25 12  1  0  0  0  0
 28 32  1  0  0  0  0
 29 28  1  0  0  0  0
 29 30  1  0  0  0  0
 30 39  1  0  0  0  0
 30 38  1  0  0  0  0
 30 31  1  0  0  0  0
 31 41  1  0  0  0  0
 31 40  1  0  0  0  0
 32 33  1  0  0  0  0
 32 42  1  1  0  0  0
 32 31  1  0  0  0  0
 33 34  1  0  0  0  0
 35 33  2  0  0  0  0
 36 29  1  0  0  0  0
 37 29  1  0  0  0  0
M  END
$$$$
