GIQ.pdb
 OpenBabel07022418233D

 45 44  0  0  1  0  0  0  0  0999 V2000
   -1.6890   -5.9060    1.4360 N   0  0  0  0  0  0  0  0  0  0  0  0
   -1.7340   -4.5820    0.8550 C   0  0  0  0  0  0  0  0  0  0  0  0
   -0.3720   -4.0010    0.8870 C   0  0  0  0  0  0  0  0  0  0  0  0
    0.5580   -4.6890    1.3770 O   0  0  0  0  0  0  0  0  0  0  0  0
   -1.3460   -5.7810    2.4260 H   0  0  0  0  0  0  0  0  0  0  0  0
   -0.9470   -6.4340    0.9400 H   0  0  0  0  0  0  0  0  0  0  0  0
   -2.4750   -3.9520    1.3890 H   0  0  0  0  0  0  0  0  0  0  0  0
   -2.1110   -4.7010   -0.1870 H   0  0  0  0  0  0  0  0  0  0  0  0
    3.5450   -1.3220   -2.5330 C   0  0  0  0  0  0  0  0  0  0  0  0
    3.0990   -1.3260   -1.0650 C   0  0  0  0  0  0  0  0  0  0  0  0
    1.7090   -1.8880   -0.9930 C   0  0  2  0  0  0  0  0  0  0  0  0
    0.7060   -1.0740   -1.7820 C   0  0  0  0  0  0  0  0  0  0  0  0
    1.2790   -2.1470    0.4290 C   0  0  2  0  0  0  0  0  0  0  0  0
   -0.0840   -2.7010    0.3850 N   0  0  0  0  0  0  0  0  0  0  0  0
    1.2110   -0.8510    1.1470 C   0  0  0  0  0  0  0  0  0  0  0  0
    2.2520   -0.1810    1.3730 O   0  0  0  0  0  0  0  0  0  0  0  0
    3.0910   -2.1590   -3.0700 H   0  0  0  0  0  0  0  0  0  0  0  0
    3.2220   -0.3810   -3.0160 H   0  0  0  0  0  0  0  0  0  0  0  0
    4.6440   -1.4390   -2.6050 H   0  0  0  0  0  0  0  0  0  0  0  0
    3.7770   -2.0310   -0.5450 H   0  0  0  0  0  0  0  0  0  0  0  0
    3.1850   -0.2800   -0.6850 H   0  0  0  0  0  0  0  0  0  0  0  0
    1.7710   -2.8710   -1.5660 H   0  0  0  0  0  0  0  0  0  0  0  0
   -0.0770   -1.7040   -2.2540 H   0  0  0  0  0  0  0  0  0  0  0  0
    0.2690   -0.3190   -1.0790 H   0  0  0  0  0  0  0  0  0  0  0  0
    1.1990   -0.5000   -2.5920 H   0  0  0  0  0  0  0  0  0  0  0  0
    1.9760   -2.8650    0.8760 H   0  0  0  0  0  0  0  0  0  0  0  0
   -0.8510   -2.1450   -0.0150 H   0  0  0  0  0  0  0  0  0  0  0  0
   -1.6460    5.7030    1.9480 N   0  0  0  0  0  0  0  0  0  0  0  0
   -1.5110    4.3870    1.4860 C   0  0  0  0  0  0  0  0  0  0  0  0
   -2.0100    4.0540    0.3950 O   0  0  0  0  0  0  0  0  0  0  0  0
   -0.7760    3.3480    2.2680 C   0  0  0  0  0  0  0  0  0  0  0  0
   -0.7730    2.0250    1.5560 C   0  0  0  0  0  0  0  0  0  0  0  0
   -0.0080    1.0130    2.3310 C   0  0  2  0  0  0  0  0  0  0  0  0
    0.0060   -0.2830    1.6200 N   0  0  0  0  0  0  0  0  0  0  0  0
   -0.5850    0.7490    3.6540 C   0  0  0  0  0  0  0  0  0  0  0  0
   -0.6870    1.5870    4.5660 O   0  0  0  0  0  0  0  0  0  0  0  0
   -1.0650   -0.5310    3.9410 O   0  0  0  0  0  0  0  0  0  0  0  0
   -2.4240    5.9540    2.5860 H   0  0  0  0  0  0  0  0  0  0  0  0
   -0.9810    6.4440    1.6650 H   0  0  0  0  0  0  0  0  0  0  0  0
    0.2670    3.6640    2.4730 H   0  0  0  0  0  0  0  0  0  0  0  0
   -1.2850    3.2570    3.2530 H   0  0  0  0  0  0  0  0  0  0  0  0
   -1.8170    1.6950    1.3340 H   0  0  0  0  0  0  0  0  0  0  0  0
   -0.2750    2.2260    0.5600 H   0  0  0  0  0  0  0  0  0  0  0  0
    1.0490    1.3940    2.3970 H   0  0  0  0  0  0  0  0  0  0  0  0
   -0.8950   -0.7620    1.4800 H   0  0  0  0  0  0  0  0  0  0  0  0
  1  5  1  0  0  0  0
  2  3  1  0  0  0  0
  2  7  1  0  0  0  0
  2  1  1  0  0  0  0
  3  4  2  0  0  0  0
  6  1  1  0  0  0  0
  8  2  1  0  0  0  0
  9 10  1  0  0  0  0
 10 11  1  0  0  0  0
 10 21  1  0  0  0  0
 10 20  1  0  0  0  0
 11 22  1  6  0  0  0
 11 13  1  0  0  0  0
 12 24  1  0  0  0  0
 12 11  1  0  0  0  0
 13 26  1  1  0  0  0
 13 15  1  0  0  0  0
 14 13  1  0  0  0  0
 14  3  1  0  0  0  0
 15 16  2  0  0  0  0
 15 34  1  0  0  0  0
 17  9  1  0  0  0  0
 18  9  1  0  0  0  0
 19  9  1  0  0  0  0
 23 12  1  0  0  0  0
 25 12  1  0  0  0  0
 27 14  1  0  0  0  0
 28 38  1  0  0  0  0
 29 28  1  0  0  0  0
 29 31  1  0  0  0  0
 30 29  2  0  0  0  0
 31 40  1  0  0  0  0
 31 41  1  0  0  0  0
 32 31  1  0  0  0  0
 32 33  1  0  0  0  0
 33 44  1  1  0  0  0
 33 35  1  0  0  0  0
 34 33  1  0  0  0  0
 35 37  2  0  0  0  0
 35 36  1  0  0  0  0
 39 28  1  0  0  0  0
 42 32  1  0  0  0  0
 43 32  1  0  0  0  0
 45 34  1  0  0  0  0
M  END
$$$$
