GIR.pdb
 OpenBabel07022418233D

 51 50  0  0  1  0  0  0  0  0999 V2000
   -0.1830   -2.7700    3.5670 N   0  0  0  0  0  0  0  0  0  0  0  0
    0.6910   -1.6470    3.3250 C   0  0  0  0  0  0  0  0  0  0  0  0
    0.9980   -1.5530    1.8710 C   0  0  0  0  0  0  0  0  0  0  0  0
    0.4830   -2.4150    1.1150 O   0  0  0  0  0  0  0  0  0  0  0  0
   -1.1830   -2.5220    3.6580 H   0  0  0  0  0  0  0  0  0  0  0  0
    0.0060   -3.5760    2.9300 H   0  0  0  0  0  0  0  0  0  0  0  0
    1.6730   -1.8960    3.8250 H   0  0  0  0  0  0  0  0  0  0  0  0
    0.2580   -0.7260    3.7380 H   0  0  0  0  0  0  0  0  0  0  0  0
    3.1610   -2.2680   -2.6590 C   0  0  0  0  0  0  0  0  0  0  0  0
    3.8530   -1.3300   -1.7280 C   0  0  0  0  0  0  0  0  0  0  0  0
    3.3110   -1.2130   -0.3600 C   0  0  2  0  0  0  0  0  0  0  0  0
    3.3470   -2.5880    0.2770 C   0  0  0  0  0  0  0  0  0  0  0  0
    2.1500   -0.4180   -0.0450 C   0  0  2  0  0  0  0  0  0  0  0  0
    1.8580   -0.5030    1.3730 N   0  0  0  0  0  0  0  0  0  0  0  0
    0.9180   -0.4340   -0.7950 C   0  0  0  0  0  0  0  0  0  0  0  0
    0.8040   -0.6660   -2.0350 O   0  0  0  0  0  0  0  0  0  0  0  0
    2.3500   -2.8720   -2.2270 H   0  0  0  0  0  0  0  0  0  0  0  0
    2.7930   -1.6870   -3.5430 H   0  0  0  0  0  0  0  0  0  0  0  0
    3.9040   -2.9860   -3.1140 H   0  0  0  0  0  0  0  0  0  0  0  0
    4.0470   -0.3230   -2.2130 H   0  0  0  0  0  0  0  0  0  0  0  0
    4.9110   -1.7270   -1.6190 H   0  0  0  0  0  0  0  0  0  0  0  0
    4.1800   -0.6910    0.2310 H   0  0  0  0  0  0  0  0  0  0  0  0
    4.4150   -2.9570    0.1800 H   0  0  0  0  0  0  0  0  0  0  0  0
    2.6810   -3.3170   -0.2080 H   0  0  0  0  0  0  0  0  0  0  0  0
    3.2070   -2.4730    1.3660 H   0  0  0  0  0  0  0  0  0  0  0  0
    2.4590    0.7210   -0.1300 H   0  0  0  0  0  0  0  0  0  0  0  0
    2.2450    0.1710    2.0940 H   0  0  0  0  0  0  0  0  0  0  0  0
   -1.1660    2.4070    2.4110 N   0  0  0  0  0  0  0  0  0  0  0  0
   -2.1660    1.4410    2.6760 C   0  0  0  0  0  0  0  0  0  0  0  0
   -2.1150    0.7490    3.7720 N   0  0  0  0  0  0  0  0  0  0  0  0
   -3.2280    1.2200    1.7590 N   0  0  0  0  0  0  0  0  0  0  0  0
   -3.8320   -0.0450    1.6150 C   0  0  0  0  0  0  0  0  0  0  0  0
   -3.0820   -1.1720    1.0350 C   0  0  0  0  0  0  0  0  0  0  0  0
   -2.5760   -1.1420   -0.3300 C   0  0  0  0  0  0  0  0  0  0  0  0
   -1.5900   -0.1720   -0.8060 C   0  0  2  0  0  0  0  0  0  0  0  0
   -0.3080   -0.1650   -0.1360 N   0  0  0  0  0  0  0  0  0  0  0  0
   -2.1660    1.1550   -1.0370 C   0  0  0  0  0  0  0  0  0  0  0  0
   -1.5600    2.1870   -0.7000 O   0  0  0  0  0  0  0  0  0  0  0  0
   -3.4020    1.2650   -1.6400 O   0  0  0  0  0  0  0  0  0  0  0  0
   -0.2100    2.2450    2.7790 H   0  0  0  0  0  0  0  0  0  0  0  0
   -1.3380    3.2710    1.8660 H   0  0  0  0  0  0  0  0  0  0  0  0
   -1.3670    0.8800    4.4570 H   0  0  0  0  0  0  0  0  0  0  0  0
   -3.5630    2.0370    1.2060 H   0  0  0  0  0  0  0  0  0  0  0  0
   -4.8540    0.0260    1.1180 H   0  0  0  0  0  0  0  0  0  0  0  0
   -4.1300   -0.3820    2.6670 H   0  0  0  0  0  0  0  0  0  0  0  0
   -3.8180   -2.0540    1.0720 H   0  0  0  0  0  0  0  0  0  0  0  0
   -2.3210   -1.5200    1.7980 H   0  0  0  0  0  0  0  0  0  0  0  0
   -3.4900   -1.0200   -1.0130 H   0  0  0  0  0  0  0  0  0  0  0  0
   -2.2560   -2.1930   -0.5940 H   0  0  0  0  0  0  0  0  0  0  0  0
   -1.3260   -0.5310   -1.8730 H   0  0  0  0  0  0  0  0  0  0  0  0
   -0.3770    0.0920    0.8930 H   0  0  0  0  0  0  0  0  0  0  0  0
  1  5  1  0  0  0  0
  2  1  1  0  0  0  0
  2  8  1  0  0  0  0
  2  7  1  0  0  0  0
  3  2  1  0  0  0  0
  4  3  2  0  0  0  0
  6  1  1  0  0  0  0
  9 17  1  0  0  0  0
  9 10  1  0  0  0  0
 10 21  1  0  0  0  0
 10 11  1  0  0  0  0
 11 13  1  0  0  0  0
 11 22  1  1  0  0  0
 11 12  1  0  0  0  0
 12 25  1  0  0  0  0
 13 26  1  6  0  0  0
 13 14  1  0  0  0  0
 14  3  1  0  0  0  0
 14 27  1  0  0  0  0
 15 36  1  0  0  0  0
 15 13  1  0  0  0  0
 16 15  2  0  0  0  0
 18  9  1  0  0  0  0
 19  9  1  0  0  0  0
 20 10  1  0  0  0  0
 23 12  1  0  0  0  0
 24 12  1  0  0  0  0
 28 29  1  0  0  0  0
 28 40  1  0  0  0  0
 29 30  2  0  0  0  0
 30 42  1  0  0  0  0
 31 29  1  0  0  0  0
 32 31  1  0  0  0  0
 32 45  1  0  0  0  0
 33 46  1  0  0  0  0
 33 32  1  0  0  0  0
 33 47  1  0  0  0  0
 34 33  1  0  0  0  0
 35 50  1  6  0  0  0
 35 34  1  0  0  0  0
 35 36  1  0  0  0  0
 36 51  1  0  0  0  0
 37 35  1  0  0  0  0
 37 38  1  0  0  0  0
 39 37  2  0  0  0  0
 41 28  1  0  0  0  0
 43 31  1  0  0  0  0
 44 32  1  0  0  0  0
 48 34  1  0  0  0  0
 49 34  1  0  0  0  0
M  END
$$$$
