GIS.pdb
 OpenBabel07022418233D

 39 38  0  0  1  0  0  0  0  0999 V2000
   -5.0810   -1.2660    1.0520 N   0  0  0  0  0  0  0  0  0  0  0  0
   -3.9420   -1.4240    0.1670 C   0  0  0  0  0  0  0  0  0  0  0  0
   -2.7300   -1.0150    0.9200 C   0  0  0  0  0  0  0  0  0  0  0  0
   -2.7950   -0.6190    2.1070 O   0  0  0  0  0  0  0  0  0  0  0  0
   -4.9480   -0.4570    1.7160 H   0  0  0  0  0  0  0  0  0  0  0  0
   -5.2280   -2.1070    1.6670 H   0  0  0  0  0  0  0  0  0  0  0  0
   -3.8860   -2.4790   -0.1830 H   0  0  0  0  0  0  0  0  0  0  0  0
   -4.1320   -0.7630   -0.7070 H   0  0  0  0  0  0  0  0  0  0  0  0
    0.3090   -3.3840   -0.5190 C   0  0  0  0  0  0  0  0  0  0  0  0
    1.2640   -2.5580    0.2620 C   0  0  0  0  0  0  0  0  0  0  0  0
    0.6990   -1.7700    1.3890 C   0  0  2  0  0  0  0  0  0  0  0  0
    0.0420   -2.7250    2.3800 C   0  0  0  0  0  0  0  0  0  0  0  0
   -0.2310   -0.6620    1.0350 C   0  0  2  0  0  0  0  0  0  0  0  0
   -1.4140   -1.0530    0.3220 N   0  0  0  0  0  0  0  0  0  0  0  0
    0.4470    0.4950    0.3980 C   0  0  0  0  0  0  0  0  0  0  0  0
   -0.0710    0.9740   -0.6430 O   0  0  0  0  0  0  0  0  0  0  0  0
    0.7170   -4.4020   -0.7600 H   0  0  0  0  0  0  0  0  0  0  0  0
   -0.6770   -3.5460   -0.0790 H   0  0  0  0  0  0  0  0  0  0  0  0
    0.1470   -2.9290   -1.5370 H   0  0  0  0  0  0  0  0  0  0  0  0
    1.8580   -1.9510   -0.4520 H   0  0  0  0  0  0  0  0  0  0  0  0
    2.0170   -3.2700    0.7050 H   0  0  0  0  0  0  0  0  0  0  0  0
    1.5410   -1.3100    2.0150 H   0  0  0  0  0  0  0  0  0  0  0  0
    0.7710   -3.3290    2.9350 H   0  0  0  0  0  0  0  0  0  0  0  0
   -0.7870   -3.2920    1.9290 H   0  0  0  0  0  0  0  0  0  0  0  0
   -0.4490   -2.0480    3.1390 H   0  0  0  0  0  0  0  0  0  0  0  0
   -0.6040   -0.2630    2.0320 H   0  0  0  0  0  0  0  0  0  0  0  0
   -1.4340   -1.3860   -0.6750 H   0  0  0  0  0  0  0  0  0  0  0  0
    3.0890    4.4350    0.6080 O   0  0  0  0  0  0  0  0  0  0  0  0
    2.4310    3.3760    1.2250 C   0  0  0  0  0  0  0  0  0  0  0  0
    2.2970    2.1960    0.2920 C   0  0  2  0  0  0  0  0  0  0  0  0
    1.6250    1.0820    0.8870 N   0  0  0  0  0  0  0  0  0  0  0  0
    3.6810    1.8200   -0.1710 C   0  0  0  0  0  0  0  0  0  0  0  0
    4.4350    2.6510   -0.7200 O   0  0  0  0  0  0  0  0  0  0  0  0
    4.1590    0.5280    0.0030 O   0  0  0  0  0  0  0  0  0  0  0  0
    4.0540    4.4240    0.7560 H   0  0  0  0  0  0  0  0  0  0  0  0
    2.9830    3.1390    2.1400 H   0  0  0  0  0  0  0  0  0  0  0  0
    1.4290    3.7430    1.5270 H   0  0  0  0  0  0  0  0  0  0  0  0
    1.7300    2.5130   -0.6060 H   0  0  0  0  0  0  0  0  0  0  0  0
    2.0470    0.6700    1.7590 H   0  0  0  0  0  0  0  0  0  0  0  0
  1  6  1  0  0  0  0
  1  5  1  0  0  0  0
  2  3  1  0  0  0  0
  2  1  1  0  0  0  0
  3  4  2  0  0  0  0
  7  2  1  0  0  0  0
  8  2  1  0  0  0  0
  9 18  1  0  0  0  0
  9 10  1  0  0  0  0
 10 21  1  0  0  0  0
 10 11  1  0  0  0  0
 11 22  1  1  0  0  0
 11 12  1  0  0  0  0
 12 23  1  0  0  0  0
 12 25  1  0  0  0  0
 13 11  1  0  0  0  0
 13 26  1  1  0  0  0
 14  3  1  0  0  0  0
 14 13  1  0  0  0  0
 15 31  1  0  0  0  0
 15 13  1  0  0  0  0
 16 15  2  0  0  0  0
 17  9  1  0  0  0  0
 19  9  1  0  0  0  0
 20 10  1  0  0  0  0
 24 12  1  0  0  0  0
 27 14  1  0  0  0  0
 28 35  1  0  0  0  0
 28 29  1  0  0  0  0
 29 37  1  0  0  0  0
 29 36  1  0  0  0  0
 30 38  1  6  0  0  0
 30 31  1  0  0  0  0
 30 29  1  0  0  0  0
 31 39  1  0  0  0  0
 32 34  1  0  0  0  0
 32 30  1  0  0  0  0
 33 32  2  0  0  0  0
M  END
$$$$
