GIT.pdb
 OpenBabel07022418233D

 42 41  0  0  1  0  0  0  0  0999 V2000
    0.3130   -3.3620    3.2750 N   0  0  0  0  0  0  0  0  0  0  0  0
   -0.1750   -3.9470    2.0430 C   0  0  0  0  0  0  0  0  0  0  0  0
   -0.5700   -2.8690    1.0990 C   0  0  0  0  0  0  0  0  0  0  0  0
   -1.0230   -3.1790   -0.0360 O   0  0  0  0  0  0  0  0  0  0  0  0
    1.3360   -3.1930    3.1690 H   0  0  0  0  0  0  0  0  0  0  0  0
    0.1780   -4.0490    4.0570 H   0  0  0  0  0  0  0  0  0  0  0  0
   -1.0880   -4.5700    2.2120 H   0  0  0  0  0  0  0  0  0  0  0  0
    0.5750   -4.6120    1.5720 H   0  0  0  0  0  0  0  0  0  0  0  0
   -3.7010   -1.1580    0.2030 C   0  0  0  0  0  0  0  0  0  0  0  0
   -3.1310   -0.3940    1.3520 C   0  0  0  0  0  0  0  0  0  0  0  0
   -1.9150    0.4330    0.9900 C   0  0  2  0  0  0  0  0  0  0  0  0
   -2.3380    1.4140   -0.0820 C   0  0  0  0  0  0  0  0  0  0  0  0
   -0.8620   -0.4870    0.4570 C   0  0  2  0  0  0  0  0  0  0  0  0
   -0.4620   -1.4930    1.4140 N   0  0  0  0  0  0  0  0  0  0  0  0
    0.3340    0.2400   -0.0410 C   0  0  0  0  0  0  0  0  0  0  0  0
    0.2630    1.1670   -0.8840 O   0  0  0  0  0  0  0  0  0  0  0  0
   -4.8060   -0.9940    0.1560 H   0  0  0  0  0  0  0  0  0  0  0  0
   -3.2760   -0.8970   -0.7880 H   0  0  0  0  0  0  0  0  0  0  0  0
   -3.5620   -2.2380    0.3690 H   0  0  0  0  0  0  0  0  0  0  0  0
   -2.8290   -1.1120    2.1720 H   0  0  0  0  0  0  0  0  0  0  0  0
   -3.9250    0.2230    1.8220 H   0  0  0  0  0  0  0  0  0  0  0  0
   -1.5630    1.0350    1.8540 H   0  0  0  0  0  0  0  0  0  0  0  0
   -3.4090    1.6860    0.0120 H   0  0  0  0  0  0  0  0  0  0  0  0
   -1.7630    2.3690    0.0210 H   0  0  0  0  0  0  0  0  0  0  0  0
   -2.1270    1.0350   -1.0960 H   0  0  0  0  0  0  0  0  0  0  0  0
   -1.2800   -0.9950   -0.4490 H   0  0  0  0  0  0  0  0  0  0  0  0
   -0.0940   -1.2000    2.3340 H   0  0  0  0  0  0  0  0  0  0  0  0
    4.8080    1.8220    0.6950 C   0  0  0  0  0  0  0  0  0  0  0  0
    3.5500    1.1500    1.2020 C   0  0  1  0  0  0  0  0  0  0  0  0
    2.7640    2.1030    1.8470 O   0  0  0  0  0  0  0  0  0  0  0  0
    2.8260    0.5240    0.0290 C   0  0  2  0  0  0  0  0  0  0  0  0
    1.6010   -0.1410    0.4670 N   0  0  0  0  0  0  0  0  0  0  0  0
    3.7310   -0.5140   -0.5310 C   0  0  0  0  0  0  0  0  0  0  0  0
    4.8720   -0.2360   -0.9920 O   0  0  0  0  0  0  0  0  0  0  0  0
    3.3580   -1.8470   -0.5720 O   0  0  0  0  0  0  0  0  0  0  0  0
    5.6860    1.1270    0.7260 H   0  0  0  0  0  0  0  0  0  0  0  0
    5.0760    2.6630    1.3910 H   0  0  0  0  0  0  0  0  0  0  0  0
    4.5990    2.2130   -0.3080 H   0  0  0  0  0  0  0  0  0  0  0  0
    3.8510    0.3720    1.9170 H   0  0  0  0  0  0  0  0  0  0  0  0
    2.1900    1.6850    2.5520 H   0  0  0  0  0  0  0  0  0  0  0  0
    2.5490    1.2910   -0.6980 H   0  0  0  0  0  0  0  0  0  0  0  0
    1.6520   -0.9140    1.1690 H   0  0  0  0  0  0  0  0  0  0  0  0
  1  6  1  0  0  0  0
  2  7  1  0  0  0  0
  2  1  1  0  0  0  0
  3 14  1  0  0  0  0
  3  2  1  0  0  0  0
  4  3  2  0  0  0  0
  5  1  1  0  0  0  0
  8  2  1  0  0  0  0
  9 19  1  0  0  0  0
  9 10  1  0  0  0  0
 10 21  1  0  0  0  0
 10 20  1  0  0  0  0
 11 10  1  0  0  0  0
 11 22  1  1  0  0  0
 12 23  1  0  0  0  0
 12 24  1  0  0  0  0
 12 11  1  0  0  0  0
 13 26  1  6  0  0  0
 13 11  1  0  0  0  0
 13 14  1  0  0  0  0
 14 27  1  0  0  0  0
 15 13  1  0  0  0  0
 15 32  1  0  0  0  0
 16 15  2  0  0  0  0
 17  9  1  0  0  0  0
 18  9  1  0  0  0  0
 25 12  1  0  0  0  0
 28 36  1  0  0  0  0
 28 29  1  0  0  0  0
 28 37  1  0  0  0  0
 29 30  1  0  0  0  0
 29 39  1  1  0  0  0
 30 40  1  0  0  0  0
 31 41  1  6  0  0  0
 31 32  1  0  0  0  0
 31 29  1  0  0  0  0
 32 42  1  0  0  0  0
 33 31  1  0  0  0  0
 34 33  2  0  0  0  0
 35 33  1  0  0  0  0
 38 28  1  0  0  0  0
M  END
$$$$
