GIW.pdb
 OpenBabel07022418233D

 52 53  0  0  1  0  0  0  0  0999 V2000
    2.2160   -4.2890    4.5340 N   0  0  0  0  0  0  0  0  0  0  0  0
    1.8710   -3.8160    3.2290 C   0  0  0  0  0  0  0  0  0  0  0  0
    1.7030   -2.3470    3.2700 C   0  0  0  0  0  0  0  0  0  0  0  0
    1.8560   -1.6900    4.3210 O   0  0  0  0  0  0  0  0  0  0  0  0
    2.0720   -3.5310    5.2300 H   0  0  0  0  0  0  0  0  0  0  0  0
    1.5980   -5.1120    4.7510 H   0  0  0  0  0  0  0  0  0  0  0  0
    0.9280   -4.2930    2.8570 H   0  0  0  0  0  0  0  0  0  0  0  0
    2.6610   -4.1290    2.5140 H   0  0  0  0  0  0  0  0  0  0  0  0
    4.1140   -1.0690    1.4730 C   0  0  0  0  0  0  0  0  0  0  0  0
    3.5570    0.3010    1.4140 C   0  0  0  0  0  0  0  0  0  0  0  0
    2.1040    0.4510    1.0950 C   0  0  2  0  0  0  0  0  0  0  0  0
    1.8530    1.9830    1.0910 C   0  0  0  0  0  0  0  0  0  0  0  0
    1.1710   -0.1930    2.0360 C   0  0  2  0  0  0  0  0  0  0  0  0
    1.3560   -1.6130    2.0990 N   0  0  0  0  0  0  0  0  0  0  0  0
   -0.2730    0.0880    1.6920 C   0  0  0  0  0  0  0  0  0  0  0  0
   -0.6720    1.2760    1.5800 O   0  0  0  0  0  0  0  0  0  0  0  0
    4.2880   -1.4480    2.5070 H   0  0  0  0  0  0  0  0  0  0  0  0
    3.4820   -1.7900    0.9370 H   0  0  0  0  0  0  0  0  0  0  0  0
    5.1540   -1.0410    1.0350 H   0  0  0  0  0  0  0  0  0  0  0  0
    4.1920    0.9440    0.7520 H   0  0  0  0  0  0  0  0  0  0  0  0
    3.7440    0.7610    2.4410 H   0  0  0  0  0  0  0  0  0  0  0  0
    1.9670    0.1660    0.0320 H   0  0  0  0  0  0  0  0  0  0  0  0
    1.5840    2.3240    2.0940 H   0  0  0  0  0  0  0  0  0  0  0  0
    2.7830    2.4940    0.7380 H   0  0  0  0  0  0  0  0  0  0  0  0
    1.0800    2.2140    0.3530 H   0  0  0  0  0  0  0  0  0  0  0  0
    1.3240    0.2400    3.0580 H   0  0  0  0  0  0  0  0  0  0  0  0
    1.2130   -2.1690    1.2240 H   0  0  0  0  0  0  0  0  0  0  0  0
   -1.2210   -0.9430    1.4850 N   0  0  0  0  0  0  0  0  0  0  0  0
   -2.5990   -0.6220    1.1540 C   0  0  1  0  0  0  0  0  0  0  0  0
   -3.0400   -1.3770   -0.0530 C   0  0  0  0  0  0  0  0  0  0  0  0
   -2.3150   -1.1630   -1.2780 C   0  0  0  0  0  0  0  0  0  0  0  0
   -1.3980   -2.0340   -1.8220 C   0  0  0  0  0  0  0  0  0  0  0  0
   -0.9260   -1.5090   -2.9620 N   0  0  0  0  0  0  0  0  0  0  0  0
   -1.4880   -0.3210   -3.2050 C   0  0  0  0  0  0  0  0  0  0  0  0
   -1.3610    0.6120   -4.2120 C   0  0  0  0  0  0  0  0  0  0  0  0
   -2.0990    1.7920   -4.1970 C   0  0  0  0  0  0  0  0  0  0  0  0
   -2.9690    2.0250   -3.1570 C   0  0  0  0  0  0  0  0  0  0  0  0
   -3.0710    1.0760   -2.1720 C   0  0  0  0  0  0  0  0  0  0  0  0
   -2.3680   -0.0990   -2.1410 C   0  0  0  0  0  0  0  0  0  0  0  0
   -3.4000   -1.0460    2.3230 C   0  0  0  0  0  0  0  0  0  0  0  0
   -2.8540   -1.5630    3.3100 O   0  0  0  0  0  0  0  0  0  0  0  0
   -4.7620   -0.8680    2.3180 O   0  0  0  0  0  0  0  0  0  0  0  0
   -0.8890   -1.9260    1.5780 H   0  0  0  0  0  0  0  0  0  0  0  0
   -2.7480    0.4750    1.0840 H   0  0  0  0  0  0  0  0  0  0  0  0
   -4.1250   -1.1060   -0.2320 H   0  0  0  0  0  0  0  0  0  0  0  0
   -3.1020   -2.4650    0.2510 H   0  0  0  0  0  0  0  0  0  0  0  0
   -1.0590   -3.0000   -1.4550 H   0  0  0  0  0  0  0  0  0  0  0  0
   -0.2170   -1.9400   -3.5970 H   0  0  0  0  0  0  0  0  0  0  0  0
   -0.6880    0.4660   -5.0460 H   0  0  0  0  0  0  0  0  0  0  0  0
   -1.9940    2.5180   -4.9890 H   0  0  0  0  0  0  0  0  0  0  0  0
   -3.5750    2.9410   -3.0970 H   0  0  0  0  0  0  0  0  0  0  0  0
   -3.7530    1.2660   -1.3620 H   0  0  0  0  0  0  0  0  0  0  0  0
  1  6  1  0  0  0  0
  1  5  1  0  0  0  0
  2  3  1  0  0  0  0
  2  1  1  0  0  0  0
  3  4  2  0  0  0  0
  7  2  1  0  0  0  0
  8  2  1  0  0  0  0
  9 17  1  0  0  0  0
 10  9  1  0  0  0  0
 10 21  1  0  0  0  0
 11 22  1  6  0  0  0
 11 10  1  0  0  0  0
 11 13  1  0  0  0  0
 12 11  1  0  0  0  0
 12 23  1  0  0  0  0
 13 14  1  0  0  0  0
 13 26  1  1  0  0  0
 14  3  1  0  0  0  0
 15 13  1  0  0  0  0
 16 15  2  0  0  0  0
 18  9  1  0  0  0  0
 19  9  1  0  0  0  0
 20 10  1  0  0  0  0
 24 12  1  0  0  0  0
 25 12  1  0  0  0  0
 27 14  1  0  0  0  0
 28 43  1  0  0  0  0
 28 15  1  0  0  0  0
 29 44  1  6  0  0  0
 29 28  1  0  0  0  0
 29 40  1  0  0  0  0
 30 46  1  0  0  0  0
 30 29  1  0  0  0  0
 31 30  1  0  0  0  0
 32 47  1  0  0  0  0
 32 31  2  0  0  0  0
 33 32  1  0  0  0  0
 34 33  1  0  0  0  0
 34 39  1  0  0  0  0
 35 36  1  0  0  0  0
 35 34  2  0  0  0  0
 36 37  2  0  0  0  0
 37 51  1  0  0  0  0
 37 38  1  0  0  0  0
 38 39  2  0  0  0  0
 38 52  1  0  0  0  0
 39 31  1  0  0  0  0
 40 41  1  0  0  0  0
 42 40  2  0  0  0  0
 45 30  1  0  0  0  0
 48 33  1  0  0  0  0
 49 35  1  0  0  0  0
 50 36  1  0  0  0  0
M  END
$$$$
