GKA.pdb
 OpenBabel07022418233D

 40 39  0  0  1  0  0  0  0  0999 V2000
    0.3820   -5.4580   -0.1400 N   0  0  0  0  0  0  0  0  0  0  0  0
   -0.1860   -4.3760    0.6360 C   0  0  0  0  0  0  0  0  0  0  0  0
    0.4150   -3.1070    0.1610 C   0  0  0  0  0  0  0  0  0  0  0  0
    1.2700   -3.1420   -0.7800 O   0  0  0  0  0  0  0  0  0  0  0  0
    0.4490   -5.1380   -1.1340 H   0  0  0  0  0  0  0  0  0  0  0  0
   -0.3020   -6.2470   -0.1280 H   0  0  0  0  0  0  0  0  0  0  0  0
   -1.2850   -4.4040    0.4820 H   0  0  0  0  0  0  0  0  0  0  0  0
    0.0310   -4.5400    1.7270 H   0  0  0  0  0  0  0  0  0  0  0  0
    0.0280   -1.8770    0.7610 N   0  0  0  0  0  0  0  0  0  0  0  0
    0.6240   -0.6340    0.2870 C   0  0  1  0  0  0  0  0  0  0  0  0
   -0.4840    0.2230   -0.2530 C   0  0  0  0  0  0  0  0  0  0  0  0
   -0.0910    1.5420   -0.7950 C   0  0  0  0  0  0  0  0  0  0  0  0
   -1.2970    2.2890   -1.3090 C   0  0  0  0  0  0  0  0  0  0  0  0
   -1.9910    1.5400   -2.4110 C   0  0  0  0  0  0  0  0  0  0  0  0
   -1.0250    1.3510   -3.4990 N   0  0  0  0  0  0  0  0  0  0  0  0
    1.3190    0.0580    1.3770 C   0  0  0  0  0  0  0  0  0  0  0  0
    1.9500    1.1240    1.1650 O   0  0  0  0  0  0  0  0  0  0  0  0
   -0.6770   -1.9320    1.5240 H   0  0  0  0  0  0  0  0  0  0  0  0
    1.3370   -0.8650   -0.5270 H   0  0  0  0  0  0  0  0  0  0  0  0
   -0.9730   -0.3990   -1.0640 H   0  0  0  0  0  0  0  0  0  0  0  0
   -1.2520    0.2890    0.5530 H   0  0  0  0  0  0  0  0  0  0  0  0
    0.6970    1.5180   -1.5530 H   0  0  0  0  0  0  0  0  0  0  0  0
    0.2900    2.1860    0.0560 H   0  0  0  0  0  0  0  0  0  0  0  0
   -2.0480    2.4510   -0.4860 H   0  0  0  0  0  0  0  0  0  0  0  0
   -1.0290    3.3230   -1.6410 H   0  0  0  0  0  0  0  0  0  0  0  0
   -2.3950    0.6020   -2.0200 H   0  0  0  0  0  0  0  0  0  0  0  0
   -2.8530    2.1580   -2.7850 H   0  0  0  0  0  0  0  0  0  0  0  0
   -0.3800    2.1790   -3.4940 H   0  0  0  0  0  0  0  0  0  0  0  0
   -0.5030    0.4620   -3.4060 H   0  0  0  0  0  0  0  0  0  0  0  0
    0.9830    0.6810    4.8130 C   0  0  0  0  0  0  0  0  0  0  0  0
    2.0440    0.3280    3.7620 C   0  0  2  0  0  0  0  0  0  0  0  0
    1.3440   -0.3910    2.7220 N   0  0  0  0  0  0  0  0  0  0  0  0
    3.0200   -0.5600    4.4710 C   0  0  0  0  0  0  0  0  0  0  0  0
    3.7070   -0.0830    5.4020 O   0  0  0  0  0  0  0  0  0  0  0  0
    3.1360   -1.8680    4.0860 O   0  0  0  0  0  0  0  0  0  0  0  0
    0.2200    1.2710    4.2660 H   0  0  0  0  0  0  0  0  0  0  0  0
    0.5480   -0.3030    5.1210 H   0  0  0  0  0  0  0  0  0  0  0  0
    1.4270    1.2170    5.6600 H   0  0  0  0  0  0  0  0  0  0  0  0
    2.5400    1.2400    3.3890 H   0  0  0  0  0  0  0  0  0  0  0  0
    0.8480   -1.2580    2.9670 H   0  0  0  0  0  0  0  0  0  0  0  0
  1  6  1  0  0  0  0
  1  2  1  0  0  0  0
  2  8  1  0  0  0  0
  3  2  1  0  0  0  0
  3  9  1  0  0  0  0
  4  3  2  0  0  0  0
  5  1  1  0  0  0  0
  7  2  1  0  0  0  0
  9 18  1  0  0  0  0
 10 19  1  6  0  0  0
 10  9  1  0  0  0  0
 10 16  1  0  0  0  0
 11 10  1  0  0  0  0
 11 21  1  0  0  0  0
 12 11  1  0  0  0  0
 12 23  1  0  0  0  0
 13 12  1  0  0  0  0
 13 24  1  0  0  0  0
 14 26  1  0  0  0  0
 14 13  1  0  0  0  0
 15 28  1  0  0  0  0
 15 29  1  0  0  0  0
 15 14  1  0  0  0  0
 16 32  1  0  0  0  0
 17 16  2  0  0  0  0
 20 11  1  0  0  0  0
 22 12  1  0  0  0  0
 25 13  1  0  0  0  0
 27 14  1  0  0  0  0
 30 37  1  0  0  0  0
 30 38  1  0  0  0  0
 31 39  1  6  0  0  0
 31 33  1  0  0  0  0
 31 30  1  0  0  0  0
 32 40  1  0  0  0  0
 32 31  1  0  0  0  0
 33 34  1  0  0  0  0
 35 33  2  0  0  0  0
 36 30  1  0  0  0  0
M  END
$$$$
