GKD.pdb
 OpenBabel07022418233D

 43 42  0  0  1  0  0  0  0  0999 V2000
   -1.1060   -5.7760    0.3170 N   0  0  0  0  0  0  0  0  0  0  0  0
   -0.7510   -4.4690   -0.1570 C   0  0  0  0  0  0  0  0  0  0  0  0
    0.0910   -3.7160    0.7940 C   0  0  0  0  0  0  0  0  0  0  0  0
    0.4630   -4.1630    1.9050 O   0  0  0  0  0  0  0  0  0  0  0  0
   -1.4020   -6.4040   -0.4360 H   0  0  0  0  0  0  0  0  0  0  0  0
   -0.4100   -6.1480    0.9750 H   0  0  0  0  0  0  0  0  0  0  0  0
   -1.6720   -3.8710   -0.3280 H   0  0  0  0  0  0  0  0  0  0  0  0
   -0.2350   -4.5180   -1.1390 H   0  0  0  0  0  0  0  0  0  0  0  0
    0.5020   -2.4140    0.4320 N   0  0  0  0  0  0  0  0  0  0  0  0
    1.3240   -1.5600    1.2560 C   0  0  1  0  0  0  0  0  0  0  0  0
    2.6740   -1.3260    0.7500 C   0  0  0  0  0  0  0  0  0  0  0  0
    2.8890   -0.7620   -0.5830 C   0  0  0  0  0  0  0  0  0  0  0  0
    2.4600    0.6030   -0.9370 C   0  0  0  0  0  0  0  0  0  0  0  0
    3.1390    1.7410   -0.2630 C   0  0  0  0  0  0  0  0  0  0  0  0
    3.0630    1.7670    1.1600 N   0  0  0  0  0  0  0  0  0  0  0  0
    0.5720   -0.4580    1.8300 C   0  0  0  0  0  0  0  0  0  0  0  0
    0.9900    0.3340    2.7070 O   0  0  0  0  0  0  0  0  0  0  0  0
    0.2180   -1.9780   -0.4980 H   0  0  0  0  0  0  0  0  0  0  0  0
    1.5060   -2.2490    2.1920 H   0  0  0  0  0  0  0  0  0  0  0  0
    3.1590   -0.6040    1.4870 H   0  0  0  0  0  0  0  0  0  0  0  0
    3.3290   -2.2440    0.8970 H   0  0  0  0  0  0  0  0  0  0  0  0
    2.4600   -1.4600   -1.3620 H   0  0  0  0  0  0  0  0  0  0  0  0
    4.0190   -0.7750   -0.7910 H   0  0  0  0  0  0  0  0  0  0  0  0
    2.6940    0.7440   -2.0510 H   0  0  0  0  0  0  0  0  0  0  0  0
    1.3410    0.7220   -0.9420 H   0  0  0  0  0  0  0  0  0  0  0  0
    2.6880    2.7280   -0.6070 H   0  0  0  0  0  0  0  0  0  0  0  0
    4.2130    1.8570   -0.6160 H   0  0  0  0  0  0  0  0  0  0  0  0
    2.6360    2.6310    1.5620 H   0  0  0  0  0  0  0  0  0  0  0  0
    4.0030    1.6810    1.6310 H   0  0  0  0  0  0  0  0  0  0  0  0
   -0.7830   -0.1780    1.4200 N   0  0  0  0  0  0  0  0  0  0  0  0
   -1.5510    0.8720    1.9840 C   0  0  1  0  0  0  0  0  0  0  0  0
   -2.0980    1.9100    1.0880 C   0  0  0  0  0  0  0  0  0  0  0  0
   -1.1320    2.7120    0.3360 C   0  0  0  0  0  0  0  0  0  0  0  0
    0.0950    2.5810    0.5120 O   0  0  0  0  0  0  0  0  0  0  0  0
   -2.7170    0.2430    2.7040 C   0  0  0  0  0  0  0  0  0  0  0  0
   -2.8730   -1.0050    2.7310 O   0  0  0  0  0  0  0  0  0  0  0  0
   -1.5860    3.6420   -0.5980 O   0  0  0  0  0  0  0  0  0  0  0  0
   -3.6430    1.0490    3.3550 O   0  0  0  0  0  0  0  0  0  0  0  0
   -1.2410   -0.7690    0.6690 H   0  0  0  0  0  0  0  0  0  0  0  0
   -0.9930    1.4000    2.8050 H   0  0  0  0  0  0  0  0  0  0  0  0
   -2.8570    1.5460    0.3680 H   0  0  0  0  0  0  0  0  0  0  0  0
   -2.6700    2.6390    1.7370 H   0  0  0  0  0  0  0  0  0  0  0  0
   -0.9650    4.1780   -1.1840 H   0  0  0  0  0  0  0  0  0  0  0  0
  1  6  1  0  0  0  0
  2  1  1  0  0  0  0
  2  3  1  0  0  0  0
  3  4  2  0  0  0  0
  5  1  1  0  0  0  0
  7  2  1  0  0  0  0
  8  2  1  0  0  0  0
  9  3  1  0  0  0  0
  9 10  1  0  0  0  0
 10 16  1  0  0  0  0
 10 19  1  1  0  0  0
 11 21  1  0  0  0  0
 11 10  1  0  0  0  0
 11 20  1  0  0  0  0
 12 11  1  0  0  0  0
 13 12  1  0  0  0  0
 13 14  1  0  0  0  0
 14 15  1  0  0  0  0
 15 28  1  0  0  0  0
 15 29  1  0  0  0  0
 16 17  2  0  0  0  0
 18  9  1  0  0  0  0
 22 12  1  0  0  0  0
 23 12  1  0  0  0  0
 24 13  1  0  0  0  0
 25 13  1  0  0  0  0
 26 14  1  0  0  0  0
 27 14  1  0  0  0  0
 30 16  1  0  0  0  0
 30 31  1  0  0  0  0
 31 35  1  0  0  0  0
 31 40  1  1  0  0  0
 32 42  1  0  0  0  0
 32 31  1  0  0  0  0
 33 34  2  0  0  0  0
 33 32  1  0  0  0  0
 35 36  2  0  0  0  0
 35 38  1  0  0  0  0
 37 33  1  0  0  0  0
 39 30  1  0  0  0  0
 41 32  1  0  0  0  0
 43 37  1  0  0  0  0
M  END
$$$$
