GKF.pdb
 OpenBabel07022418243D

 50 50  0  0  1  0  0  0  0  0999 V2000
   -0.6750   -4.5100    0.0970 N   0  0  0  0  0  0  0  0  0  0  0  0
    0.4270   -4.6660    0.9950 C   0  0  0  0  0  0  0  0  0  0  0  0
    1.1900   -3.4110    1.1990 C   0  0  0  0  0  0  0  0  0  0  0  0
    2.1860   -3.4120    1.9680 O   0  0  0  0  0  0  0  0  0  0  0  0
   -0.3470   -4.3490   -0.8600 H   0  0  0  0  0  0  0  0  0  0  0  0
   -1.3320   -3.8240    0.4810 H   0  0  0  0  0  0  0  0  0  0  0  0
    1.1330   -5.3980    0.5380 H   0  0  0  0  0  0  0  0  0  0  0  0
    0.1090   -5.1290    1.9670 H   0  0  0  0  0  0  0  0  0  0  0  0
    0.8650   -2.1790    0.5700 N   0  0  0  0  0  0  0  0  0  0  0  0
    1.6430   -0.9530    0.7940 C   0  0  1  0  0  0  0  0  0  0  0  0
    2.2090   -0.5230   -0.5090 C   0  0  0  0  0  0  0  0  0  0  0  0
    3.0350    0.7010   -0.5120 C   0  0  0  0  0  0  0  0  0  0  0  0
    4.2470    0.6820    0.3430 C   0  0  0  0  0  0  0  0  0  0  0  0
    4.9520    2.0160    0.2040 C   0  0  0  0  0  0  0  0  0  0  0  0
    5.3500    2.2780   -1.1590 N   0  0  0  0  0  0  0  0  0  0  0  0
    0.7670    0.1180    1.3290 C   0  0  0  0  0  0  0  0  0  0  0  0
    1.1950    1.2600    1.6130 O   0  0  0  0  0  0  0  0  0  0  0  0
    0.0410   -2.1680   -0.0690 H   0  0  0  0  0  0  0  0  0  0  0  0
    2.4460   -1.2330    1.5000 H   0  0  0  0  0  0  0  0  0  0  0  0
    2.7350   -1.3870   -0.9920 H   0  0  0  0  0  0  0  0  0  0  0  0
    1.3340   -0.3300   -1.1980 H   0  0  0  0  0  0  0  0  0  0  0  0
    2.4530    1.6180   -0.3080 H   0  0  0  0  0  0  0  0  0  0  0  0
    3.4000    0.8430   -1.5740 H   0  0  0  0  0  0  0  0  0  0  0  0
    4.9360   -0.1090   -0.0090 H   0  0  0  0  0  0  0  0  0  0  0  0
    4.0680    0.5220    1.4110 H   0  0  0  0  0  0  0  0  0  0  0  0
    4.3770    2.8420    0.6500 H   0  0  0  0  0  0  0  0  0  0  0  0
    5.9010    1.9450    0.8110 H   0  0  0  0  0  0  0  0  0  0  0  0
    5.4520    1.4290   -1.7320 H   0  0  0  0  0  0  0  0  0  0  0  0
    6.1710    2.9200   -1.2120 H   0  0  0  0  0  0  0  0  0  0  0  0
   -0.6140   -0.1340    1.5380 N   0  0  0  0  0  0  0  0  0  0  0  0
   -1.5330    0.8450    2.0510 C   0  0  1  0  0  0  0  0  0  0  0  0
   -2.5750    1.2350    1.0110 C   0  0  0  0  0  0  0  0  0  0  0  0
   -3.3790    0.0740    0.5680 C   0  0  0  0  0  0  0  0  0  0  0  0
   -4.5340   -0.2200    1.2550 C   0  0  0  0  0  0  0  0  0  0  0  0
   -5.2600   -1.3160    0.8090 C   0  0  0  0  0  0  0  0  0  0  0  0
   -4.8460   -2.0750   -0.2690 C   0  0  0  0  0  0  0  0  0  0  0  0
   -3.6840   -1.7410   -0.9240 C   0  0  0  0  0  0  0  0  0  0  0  0
   -2.9280   -0.6490   -0.5080 C   0  0  0  0  0  0  0  0  0  0  0  0
   -2.1620    0.4480    3.3150 C   0  0  0  0  0  0  0  0  0  0  0  0
   -2.9810    1.2450    3.8420 O   0  0  0  0  0  0  0  0  0  0  0  0
   -1.8970   -0.7620    3.9570 O   0  0  0  0  0  0  0  0  0  0  0  0
   -0.9980   -1.0790    1.3100 H   0  0  0  0  0  0  0  0  0  0  0  0
   -0.9300    1.7790    2.2300 H   0  0  0  0  0  0  0  0  0  0  0  0
   -2.0450    1.6970    0.1410 H   0  0  0  0  0  0  0  0  0  0  0  0
   -3.2640    1.9700    1.4680 H   0  0  0  0  0  0  0  0  0  0  0  0
   -4.9040    0.3370    2.1020 H   0  0  0  0  0  0  0  0  0  0  0  0
   -6.1790   -1.5950    1.3130 H   0  0  0  0  0  0  0  0  0  0  0  0
   -5.4170   -2.9410   -0.6240 H   0  0  0  0  0  0  0  0  0  0  0  0
   -3.3110   -2.3100   -1.7860 H   0  0  0  0  0  0  0  0  0  0  0  0
   -2.0120   -0.3900   -1.0280 H   0  0  0  0  0  0  0  0  0  0  0  0
  1  6  1  0  0  0  0
  1  2  1  0  0  0  0
  2  3  1  0  0  0  0
  2  8  1  0  0  0  0
  3  4  2  0  0  0  0
  5  1  1  0  0  0  0
  7  2  1  0  0  0  0
  9 10  1  0  0  0  0
  9  3  1  0  0  0  0
 10 16  1  0  0  0  0
 10 19  1  1  0  0  0
 11 10  1  0  0  0  0
 12 11  1  0  0  0  0
 12 22  1  0  0  0  0
 12 13  1  0  0  0  0
 13 25  1  0  0  0  0
 14 13  1  0  0  0  0
 14 26  1  0  0  0  0
 14 27  1  0  0  0  0
 15 14  1  0  0  0  0
 16 30  1  0  0  0  0
 16 17  2  0  0  0  0
 18  9  1  0  0  0  0
 20 11  1  0  0  0  0
 21 11  1  0  0  0  0
 23 12  1  0  0  0  0
 24 13  1  0  0  0  0
 28 15  1  0  0  0  0
 29 15  1  0  0  0  0
 30 31  1  0  0  0  0
 31 43  1  1  0  0  0
 31 39  1  0  0  0  0
 32 45  1  0  0  0  0
 32 31  1  0  0  0  0
 33 32  1  0  0  0  0
 33 34  1  0  0  0  0
 34 46  1  0  0  0  0
 35 34  2  0  0  0  0
 35 47  1  0  0  0  0
 36 35  1  0  0  0  0
 37 38  1  0  0  0  0
 37 36  2  0  0  0  0
 38 33  2  0  0  0  0
 39 40  2  0  0  0  0
 39 41  1  0  0  0  0
 42 30  1  0  0  0  0
 44 32  1  0  0  0  0
 48 36  1  0  0  0  0
 49 37  1  0  0  0  0
 50 38  1  0  0  0  0
M  END
$$$$
