GKG.pdb
 OpenBabel07022418243D

 37 36  0  0  1  0  0  0  0  0999 V2000
   -1.5570   -3.7450    4.2140 N   0  0  0  0  0  0  0  0  0  0  0  0
   -1.0420   -2.4030    4.0430 C   0  0  0  0  0  0  0  0  0  0  0  0
   -0.8970   -2.1410    2.5960 C   0  0  0  0  0  0  0  0  0  0  0  0
   -1.2060   -3.0280    1.7680 O   0  0  0  0  0  0  0  0  0  0  0  0
   -1.2320   -4.3110    3.3970 H   0  0  0  0  0  0  0  0  0  0  0  0
   -2.6110   -3.6730    4.1050 H   0  0  0  0  0  0  0  0  0  0  0  0
   -1.7880   -1.7070    4.5160 H   0  0  0  0  0  0  0  0  0  0  0  0
   -0.1010   -2.2390    4.6030 H   0  0  0  0  0  0  0  0  0  0  0  0
   -0.4040   -0.8750    2.1850 N   0  0  0  0  0  0  0  0  0  0  0  0
   -0.2350   -0.5490    0.7710 C   0  0  1  0  0  0  0  0  0  0  0  0
   -1.1070    0.6120    0.4540 C   0  0  0  0  0  0  0  0  0  0  0  0
   -1.0540    1.0760   -0.9620 C   0  0  0  0  0  0  0  0  0  0  0  0
   -1.4630    0.0230   -1.9630 C   0  0  0  0  0  0  0  0  0  0  0  0
   -1.3460    0.6790   -3.3450 C   0  0  0  0  0  0  0  0  0  0  0  0
   -0.0040    1.1140   -3.6020 N   0  0  0  0  0  0  0  0  0  0  0  0
    1.1940   -0.3500    0.5510 C   0  0  0  0  0  0  0  0  0  0  0  0
    1.5890   -0.0630   -0.6090 O   0  0  0  0  0  0  0  0  0  0  0  0
   -0.1490   -0.1430    2.9130 H   0  0  0  0  0  0  0  0  0  0  0  0
   -0.5520   -1.4350    0.2060 H   0  0  0  0  0  0  0  0  0  0  0  0
   -0.9520    1.4850    1.1080 H   0  0  0  0  0  0  0  0  0  0  0  0
   -2.1670    0.2840    0.6490 H   0  0  0  0  0  0  0  0  0  0  0  0
   -0.0540    1.4490   -1.2600 H   0  0  0  0  0  0  0  0  0  0  0  0
   -1.7430    1.9440   -1.1420 H   0  0  0  0  0  0  0  0  0  0  0  0
   -2.5440   -0.2420   -1.8760 H   0  0  0  0  0  0  0  0  0  0  0  0
   -0.8180   -0.8580   -1.9310 H   0  0  0  0  0  0  0  0  0  0  0  0
   -1.7480    0.0270   -4.1290 H   0  0  0  0  0  0  0  0  0  0  0  0
   -2.0080    1.5860   -3.2900 H   0  0  0  0  0  0  0  0  0  0  0  0
    0.1180    1.1530   -4.6440 H   0  0  0  0  0  0  0  0  0  0  0  0
    0.1070    2.0960   -3.2700 H   0  0  0  0  0  0  0  0  0  0  0  0
    2.1950   -0.4550    1.5570 N   0  0  0  0  0  0  0  0  0  0  0  0
    3.5990   -0.2460    1.2780 C   0  0  0  0  0  0  0  0  0  0  0  0
    4.3640   -0.4260    2.5210 C   0  0  0  0  0  0  0  0  0  0  0  0
    5.6030   -0.2920    2.5110 O   0  0  0  0  0  0  0  0  0  0  0  0
    3.7250   -0.7430    3.6960 O   0  0  0  0  0  0  0  0  0  0  0  0
    1.8910   -0.6870    2.5030 H   0  0  0  0  0  0  0  0  0  0  0  0
    3.9560   -0.9000    0.4550 H   0  0  0  0  0  0  0  0  0  0  0  0
    3.7750    0.7980    0.8900 H   0  0  0  0  0  0  0  0  0  0  0  0
  2  1  1  0  0  0  0
  2  7  1  0  0  0  0
  2  8  1  0  0  0  0
  3  2  1  0  0  0  0
  4  3  2  0  0  0  0
  5  1  1  0  0  0  0
  6  1  1  0  0  0  0
  9  3  1  0  0  0  0
  9 18  1  0  0  0  0
 10 19  1  6  0  0  0
 10  9  1  0  0  0  0
 11 21  1  0  0  0  0
 11 10  1  0  0  0  0
 11 20  1  0  0  0  0
 12 11  1  0  0  0  0
 13 25  1  0  0  0  0
 13 24  1  0  0  0  0
 13 12  1  0  0  0  0
 14 27  1  0  0  0  0
 14 13  1  0  0  0  0
 15 14  1  0  0  0  0
 15 29  1  0  0  0  0
 16 10  1  0  0  0  0
 16 30  1  0  0  0  0
 17 16  2  0  0  0  0
 22 12  1  0  0  0  0
 23 12  1  0  0  0  0
 26 14  1  0  0  0  0
 28 15  1  0  0  0  0
 30 35  1  0  0  0  0
 31 30  1  0  0  0  0
 31 32  1  0  0  0  0
 32 34  1  0  0  0  0
 33 32  2  0  0  0  0
 36 31  1  0  0  0  0
 37 31  1  0  0  0  0
M  END
$$$$
