GKH.pdb
 OpenBabel07022418243D

 47 47  0  0  1  0  0  0  0  0999 V2000
    1.5150   -4.7540    2.0040 N   0  0  0  0  0  0  0  0  0  0  0  0
    2.2370   -3.9830    2.9780 C   0  0  0  0  0  0  0  0  0  0  0  0
    2.2400   -2.5390    2.5720 C   0  0  0  0  0  0  0  0  0  0  0  0
    2.7940   -1.6510    3.2340 O   0  0  0  0  0  0  0  0  0  0  0  0
    0.4970   -4.7700    2.1270 H   0  0  0  0  0  0  0  0  0  0  0  0
    1.8610   -4.6650    1.0420 H   0  0  0  0  0  0  0  0  0  0  0  0
    3.2690   -4.3520    3.1140 H   0  0  0  0  0  0  0  0  0  0  0  0
    1.7020   -4.0270    3.9400 H   0  0  0  0  0  0  0  0  0  0  0  0
    1.5950   -2.1240    1.3870 N   0  0  0  0  0  0  0  0  0  0  0  0
    1.5910   -0.7320    0.9830 C   0  0  1  0  0  0  0  0  0  0  0  0
    2.1390   -0.5120   -0.3650 C   0  0  0  0  0  0  0  0  0  0  0  0
    2.1530    0.9250   -0.7740 C   0  0  0  0  0  0  0  0  0  0  0  0
    2.7410    1.1800   -2.1540 C   0  0  0  0  0  0  0  0  0  0  0  0
    4.1710    0.7130   -2.1600 C   0  0  0  0  0  0  0  0  0  0  0  0
    4.8000    0.9590   -3.4570 N   0  0  0  0  0  0  0  0  0  0  0  0
    0.1910   -0.2330    1.0320 C   0  0  0  0  0  0  0  0  0  0  0  0
   -0.1520    0.9530    0.8370 O   0  0  0  0  0  0  0  0  0  0  0  0
    1.1030   -2.7930    0.7570 H   0  0  0  0  0  0  0  0  0  0  0  0
    2.1790   -0.1680    1.7280 H   0  0  0  0  0  0  0  0  0  0  0  0
    1.5010   -1.0980   -1.0880 H   0  0  0  0  0  0  0  0  0  0  0  0
    3.1640   -0.9040   -0.5170 H   0  0  0  0  0  0  0  0  0  0  0  0
    1.1240    1.3480   -0.8570 H   0  0  0  0  0  0  0  0  0  0  0  0
    2.7830    1.5550   -0.0860 H   0  0  0  0  0  0  0  0  0  0  0  0
    2.7220    2.2720   -2.2980 H   0  0  0  0  0  0  0  0  0  0  0  0
    2.1320    0.6760   -2.9440 H   0  0  0  0  0  0  0  0  0  0  0  0
    4.2920   -0.3840   -1.9990 H   0  0  0  0  0  0  0  0  0  0  0  0
    4.7060    1.2160   -1.3330 H   0  0  0  0  0  0  0  0  0  0  0  0
    4.5790    1.9130   -3.8150 H   0  0  0  0  0  0  0  0  0  0  0  0
    4.5050    0.2150   -4.0980 H   0  0  0  0  0  0  0  0  0  0  0  0
   -0.9100   -1.1150    1.3200 N   0  0  0  0  0  0  0  0  0  0  0  0
   -2.2940   -0.7080    1.3780 C   0  0  1  0  0  0  0  0  0  0  0  0
   -2.6540    0.0390    2.5960 C   0  0  0  0  0  0  0  0  0  0  0  0
   -4.0780    0.4160    2.5870 C   0  0  0  0  0  0  0  0  0  0  0  0
   -5.1420   -0.3370    3.0710 C   0  0  0  0  0  0  0  0  0  0  0  0
   -6.2910    0.3250    2.8940 N   0  0  0  0  0  0  0  0  0  0  0  0
   -5.9940    1.4800    2.3110 C   0  0  0  0  0  0  0  0  0  0  0  0
   -4.6440    1.5430    2.1210 N   0  0  0  0  0  0  0  0  0  0  0  0
   -2.7390   -0.0300    0.1510 C   0  0  0  0  0  0  0  0  0  0  0  0
   -3.8900    0.4170   -0.0710 O   0  0  0  0  0  0  0  0  0  0  0  0
   -1.8500    0.1770   -0.9320 O   0  0  0  0  0  0  0  0  0  0  0  0
   -0.6510   -2.1050    1.4940 H   0  0  0  0  0  0  0  0  0  0  0  0
   -2.8900   -1.6760    1.3940 H   0  0  0  0  0  0  0  0  0  0  0  0
   -2.5370   -0.6730    3.4730 H   0  0  0  0  0  0  0  0  0  0  0  0
   -2.0010    0.9190    2.8030 H   0  0  0  0  0  0  0  0  0  0  0  0
   -4.9970   -1.3080    3.5150 H   0  0  0  0  0  0  0  0  0  0  0  0
   -7.2290   -0.0030    3.1620 H   0  0  0  0  0  0  0  0  0  0  0  0
   -6.6440    2.3020    1.9990 H   0  0  0  0  0  0  0  0  0  0  0  0
  1  5  1  0  0  0  0
  1  2  1  0  0  0  0
  2  7  1  0  0  0  0
  2  8  1  0  0  0  0
  3  2  1  0  0  0  0
  3  4  2  0  0  0  0
  6  1  1  0  0  0  0
  9  3  1  0  0  0  0
 10 16  1  0  0  0  0
 10  9  1  0  0  0  0
 10 19  1  1  0  0  0
 11 10  1  0  0  0  0
 12 11  1  0  0  0  0
 12 23  1  0  0  0  0
 13 12  1  0  0  0  0
 14 13  1  0  0  0  0
 14 26  1  0  0  0  0
 14 27  1  0  0  0  0
 15 14  1  0  0  0  0
 16 30  1  0  0  0  0
 17 16  2  0  0  0  0
 18  9  1  0  0  0  0
 20 11  1  0  0  0  0
 21 11  1  0  0  0  0
 22 12  1  0  0  0  0
 24 13  1  0  0  0  0
 25 13  1  0  0  0  0
 28 15  1  0  0  0  0
 29 15  1  0  0  0  0
 30 31  1  0  0  0  0
 30 41  1  0  0  0  0
 31 42  1  1  0  0  0
 31 32  1  0  0  0  0
 32 44  1  0  0  0  0
 32 43  1  0  0  0  0
 33 32  1  0  0  0  0
 33 34  2  0  0  0  0
 34 45  1  0  0  0  0
 35 34  1  0  0  0  0
 35 46  1  0  0  0  0
 36 35  1  0  0  0  0
 37 36  2  0  0  0  0
 37 33  1  0  0  0  0
 38 31  1  0  0  0  0
 39 38  1  0  0  0  0
 40 38  2  0  0  0  0
 47 36  1  0  0  0  0
M  END
$$$$
