GKL.pdb
 OpenBabel07022418243D

 49 48  0  0  1  0  0  0  0  0999 V2000
    2.4270   -0.2530    4.1450 N   0  0  0  0  0  0  0  0  0  0  0  0
    2.9760   -1.3240    3.3850 C   0  0  0  0  0  0  0  0  0  0  0  0
    2.6360   -1.2320    1.9080 C   0  0  0  0  0  0  0  0  0  0  0  0
    3.0750   -2.1000    1.1250 O   0  0  0  0  0  0  0  0  0  0  0  0
    1.4970   -0.4410    4.5860 H   0  0  0  0  0  0  0  0  0  0  0  0
    3.0870    0.2520    4.7510 H   0  0  0  0  0  0  0  0  0  0  0  0
    2.4430   -2.2710    3.7230 H   0  0  0  0  0  0  0  0  0  0  0  0
    4.0490   -1.5130    3.5470 H   0  0  0  0  0  0  0  0  0  0  0  0
    1.8310   -0.1820    1.4060 N   0  0  0  0  0  0  0  0  0  0  0  0
    1.4270    0.0390    0.0500 C   0  0  1  0  0  0  0  0  0  0  0  0
    1.5530   -1.2750   -0.7250 C   0  0  0  0  0  0  0  0  0  0  0  0
    1.1020   -1.1720   -2.1600 C   0  0  0  0  0  0  0  0  0  0  0  0
    1.3070   -2.4300   -2.9520 C   0  0  0  0  0  0  0  0  0  0  0  0
    2.7550   -2.8640   -2.9900 C   0  0  0  0  0  0  0  0  0  0  0  0
    3.5510   -1.8100   -3.5650 N   0  0  0  0  0  0  0  0  0  0  0  0
    0.1280    0.6660   -0.1430 C   0  0  0  0  0  0  0  0  0  0  0  0
   -0.3790    0.9860   -1.2340 O   0  0  0  0  0  0  0  0  0  0  0  0
    1.5160    0.5400    2.1220 H   0  0  0  0  0  0  0  0  0  0  0  0
    2.2980    0.6330   -0.4150 H   0  0  0  0  0  0  0  0  0  0  0  0
    2.6680   -1.4790   -0.8080 H   0  0  0  0  0  0  0  0  0  0  0  0
    1.0630   -2.0930   -0.2000 H   0  0  0  0  0  0  0  0  0  0  0  0
   -0.0220   -1.0360   -2.1240 H   0  0  0  0  0  0  0  0  0  0  0  0
    1.5480   -0.3220   -2.6890 H   0  0  0  0  0  0  0  0  0  0  0  0
    0.6610   -3.2570   -2.6030 H   0  0  0  0  0  0  0  0  0  0  0  0
    0.9660   -2.2490   -4.0130 H   0  0  0  0  0  0  0  0  0  0  0  0
    2.8190   -3.7300   -3.6970 H   0  0  0  0  0  0  0  0  0  0  0  0
    3.1220   -3.2340   -2.0290 H   0  0  0  0  0  0  0  0  0  0  0  0
    4.2480   -1.3960   -2.9020 H   0  0  0  0  0  0  0  0  0  0  0  0
    2.9960   -1.0920   -4.0820 H   0  0  0  0  0  0  0  0  0  0  0  0
   -1.9060   -1.1860    2.4310 C   0  0  0  0  0  0  0  0  0  0  0  0
   -3.1020   -0.3890    2.0610 C   0  0  0  0  0  0  0  0  0  0  0  0
   -4.2710   -1.3790    1.9350 C   0  0  0  0  0  0  0  0  0  0  0  0
   -3.0360    0.4670    0.8580 C   0  0  0  0  0  0  0  0  0  0  0  0
   -2.0080    1.5750    0.8530 C   0  0  2  0  0  0  0  0  0  0  0  0
   -0.6980    0.9690    1.0000 N   0  0  0  0  0  0  0  0  0  0  0  0
   -2.2470    2.6500    1.8060 C   0  0  0  0  0  0  0  0  0  0  0  0
   -3.3370    3.2480    1.8410 O   0  0  0  0  0  0  0  0  0  0  0  0
   -1.2490    3.0280    2.6950 O   0  0  0  0  0  0  0  0  0  0  0  0
   -2.2270   -2.2450    2.7040 H   0  0  0  0  0  0  0  0  0  0  0  0
   -1.4290   -0.7280    3.3450 H   0  0  0  0  0  0  0  0  0  0  0  0
   -1.1520   -1.3300    1.6740 H   0  0  0  0  0  0  0  0  0  0  0  0
   -3.4510    0.2890    2.9050 H   0  0  0  0  0  0  0  0  0  0  0  0
   -3.8640   -2.2500    1.3480 H   0  0  0  0  0  0  0  0  0  0  0  0
   -4.6040   -1.6560    2.9410 H   0  0  0  0  0  0  0  0  0  0  0  0
   -5.1010   -0.9140    1.3860 H   0  0  0  0  0  0  0  0  0  0  0  0
   -4.0590    0.8460    0.6150 H   0  0  0  0  0  0  0  0  0  0  0  0
   -2.7310   -0.2070   -0.0030 H   0  0  0  0  0  0  0  0  0  0  0  0
   -2.0260    1.9800   -0.2070 H   0  0  0  0  0  0  0  0  0  0  0  0
   -0.3980    0.8030    1.9730 H   0  0  0  0  0  0  0  0  0  0  0  0
  1  5  1  0  0  0  0
  1  6  1  0  0  0  0
  2  8  1  0  0  0  0
  2  7  1  0  0  0  0
  2  1  1  0  0  0  0
  3  2  1  0  0  0  0
  4  3  2  0  0  0  0
  9  3  1  0  0  0  0
  9 18  1  0  0  0  0
 10 19  1  6  0  0  0
 10  9  1  0  0  0  0
 11 21  1  0  0  0  0
 11 10  1  0  0  0  0
 12 22  1  0  0  0  0
 12 11  1  0  0  0  0
 13 24  1  0  0  0  0
 13 12  1  0  0  0  0
 14 13  1  0  0  0  0
 14 27  1  0  0  0  0
 15 14  1  0  0  0  0
 15 28  1  0  0  0  0
 16 10  1  0  0  0  0
 16 35  1  0  0  0  0
 17 16  2  0  0  0  0
 20 11  1  0  0  0  0
 23 12  1  0  0  0  0
 25 13  1  0  0  0  0
 26 14  1  0  0  0  0
 29 15  1  0  0  0  0
 30 39  1  0  0  0  0
 30 40  1  0  0  0  0
 31 30  1  0  0  0  0
 31 42  1  0  0  0  0
 32 31  1  0  0  0  0
 32 44  1  0  0  0  0
 33 31  1  0  0  0  0
 34 48  1  6  0  0  0
 34 33  1  0  0  0  0
 34 35  1  0  0  0  0
 34 36  1  0  0  0  0
 35 49  1  0  0  0  0
 36 37  2  0  0  0  0
 36 38  1  0  0  0  0
 41 30  1  0  0  0  0
 43 32  1  0  0  0  0
 45 32  1  0  0  0  0
 46 33  1  0  0  0  0
 47 33  1  0  0  0  0
M  END
$$$$
