GKN.pdb
 OpenBabel07022418233D

 44 43  0  0  1  0  0  0  0  0999 V2000
    1.6330   -4.9210   -1.3720 N   0  0  0  0  0  0  0  0  0  0  0  0
    0.4130   -4.2200   -1.1160 C   0  0  0  0  0  0  0  0  0  0  0  0
    0.6510   -2.8400   -0.5880 C   0  0  0  0  0  0  0  0  0  0  0  0
    1.8400   -2.4950   -0.4460 O   0  0  0  0  0  0  0  0  0  0  0  0
    1.5570   -5.9490   -1.2730 H   0  0  0  0  0  0  0  0  0  0  0  0
    2.4360   -4.5390   -0.8020 H   0  0  0  0  0  0  0  0  0  0  0  0
   -0.2280   -4.7820   -0.4140 H   0  0  0  0  0  0  0  0  0  0  0  0
   -0.0910   -4.0670   -2.1100 H   0  0  0  0  0  0  0  0  0  0  0  0
   -0.4330   -1.9910   -0.2750 N   0  0  0  0  0  0  0  0  0  0  0  0
   -0.1390   -0.6450    0.2380 C   0  0  1  0  0  0  0  0  0  0  0  0
   -1.0620    0.3500   -0.3470 C   0  0  0  0  0  0  0  0  0  0  0  0
   -1.1550    0.5550   -1.7780 C   0  0  0  0  0  0  0  0  0  0  0  0
   -0.1320    1.0450   -2.6760 C   0  0  0  0  0  0  0  0  0  0  0  0
    1.1550    0.4000   -2.9280 C   0  0  0  0  0  0  0  0  0  0  0  0
    2.0610    0.2960   -1.8540 N   0  0  0  0  0  0  0  0  0  0  0  0
   -0.4720   -0.7270    1.7380 C   0  0  0  0  0  0  0  0  0  0  0  0
   -0.8830   -1.8270    2.1470 O   0  0  0  0  0  0  0  0  0  0  0  0
   -1.4200   -2.3090   -0.4040 H   0  0  0  0  0  0  0  0  0  0  0  0
    0.9180   -0.4700    0.2480 H   0  0  0  0  0  0  0  0  0  0  0  0
   -2.1040    0.0330    0.0360 H   0  0  0  0  0  0  0  0  0  0  0  0
   -0.9260    1.3120    0.2410 H   0  0  0  0  0  0  0  0  0  0  0  0
   -1.6240   -0.4030   -2.2720 H   0  0  0  0  0  0  0  0  0  0  0  0
   -2.0730    1.2570   -1.9710 H   0  0  0  0  0  0  0  0  0  0  0  0
   -0.6430    1.1030   -3.7200 H   0  0  0  0  0  0  0  0  0  0  0  0
    0.0510    2.1780   -2.5280 H   0  0  0  0  0  0  0  0  0  0  0  0
    1.6960    1.0070   -3.7330 H   0  0  0  0  0  0  0  0  0  0  0  0
    1.0310   -0.6200   -3.3890 H   0  0  0  0  0  0  0  0  0  0  0  0
    2.7990   -0.4050   -1.9510 H   0  0  0  0  0  0  0  0  0  0  0  0
    2.3310    1.1790   -1.4130 H   0  0  0  0  0  0  0  0  0  0  0  0
    3.0000    0.1280    5.1560 N   0  0  0  0  0  0  0  0  0  0  0  0
    1.7560   -0.0620    4.5350 C   0  0  0  0  0  0  0  0  0  0  0  0
    1.6500   -1.0080    3.7170 O   0  0  0  0  0  0  0  0  0  0  0  0
    0.5660    0.7850    4.7870 C   0  0  0  0  0  0  0  0  0  0  0  0
   -0.6170    0.3370    3.9770 C   0  0  2  0  0  0  0  0  0  0  0  0
   -0.3050    0.4100    2.5640 N   0  0  0  0  0  0  0  0  0  0  0  0
   -1.7680    1.2440    4.2140 C   0  0  0  0  0  0  0  0  0  0  0  0
   -2.2160    1.3440    5.3810 O   0  0  0  0  0  0  0  0  0  0  0  0
   -2.3600    1.9760    3.2080 O   0  0  0  0  0  0  0  0  0  0  0  0
    3.4440   -0.6490    5.6800 H   0  0  0  0  0  0  0  0  0  0  0  0
    3.5150    1.0350    5.1180 H   0  0  0  0  0  0  0  0  0  0  0  0
    0.3210    0.7050    5.8830 H   0  0  0  0  0  0  0  0  0  0  0  0
    0.8140    1.8250    4.5150 H   0  0  0  0  0  0  0  0  0  0  0  0
   -0.9370   -0.7020    4.2330 H   0  0  0  0  0  0  0  0  0  0  0  0
    0.0430    1.3020    2.1580 H   0  0  0  0  0  0  0  0  0  0  0  0
  1  5  1  0  0  0  0
  1  2  1  0  0  0  0
  1  6  1  0  0  0  0
  2  3  1  0  0  0  0
  2  7  1  0  0  0  0
  3  4  2  0  0  0  0
  3  9  1  0  0  0  0
  8  2  1  0  0  0  0
  9 10  1  0  0  0  0
 10 19  1  6  0  0  0
 10 16  1  0  0  0  0
 11 20  1  0  0  0  0
 11 10  1  0  0  0  0
 11 21  1  0  0  0  0
 12 11  1  0  0  0  0
 13 25  1  0  0  0  0
 13 12  1  0  0  0  0
 14 13  1  0  0  0  0
 14 15  1  0  0  0  0
 15 29  1  0  0  0  0
 16 17  2  0  0  0  0
 16 35  1  0  0  0  0
 18  9  1  0  0  0  0
 22 12  1  0  0  0  0
 23 12  1  0  0  0  0
 24 13  1  0  0  0  0
 26 14  1  0  0  0  0
 27 14  1  0  0  0  0
 28 15  1  0  0  0  0
 30 39  1  0  0  0  0
 31 33  1  0  0  0  0
 31 30  1  0  0  0  0
 32 31  2  0  0  0  0
 33 41  1  0  0  0  0
 34 36  1  0  0  0  0
 34 43  1  1  0  0  0
 34 33  1  0  0  0  0
 35 34  1  0  0  0  0
 36 37  1  0  0  0  0
 38 36  2  0  0  0  0
 40 30  1  0  0  0  0
 42 33  1  0  0  0  0
 44 35  1  0  0  0  0
M  END
$$$$
