GKP.pdb
 OpenBabel07022418243D

 44 44  0  0  1  0  0  0  0  0999 V2000
   -1.5880   -4.2240    3.2010 N   0  0  0  0  0  0  0  0  0  0  0  0
   -0.2840   -3.7030    2.8470 C   0  0  0  0  0  0  0  0  0  0  0  0
   -0.4000   -2.6470    1.8160 C   0  0  0  0  0  0  0  0  0  0  0  0
   -1.5400   -2.3550    1.4040 O   0  0  0  0  0  0  0  0  0  0  0  0
   -1.7880   -4.1700    4.2070 H   0  0  0  0  0  0  0  0  0  0  0  0
   -2.3240   -3.7360    2.6430 H   0  0  0  0  0  0  0  0  0  0  0  0
    0.1770   -3.3090    3.7840 H   0  0  0  0  0  0  0  0  0  0  0  0
    0.3040   -4.5860    2.4630 H   0  0  0  0  0  0  0  0  0  0  0  0
    0.7620   -1.9950    1.3210 N   0  0  0  0  0  0  0  0  0  0  0  0
    0.7680   -0.9610    0.3160 C   0  0  1  0  0  0  0  0  0  0  0  0
    0.1770   -1.5620   -0.9320 C   0  0  0  0  0  0  0  0  0  0  0  0
    0.0860   -0.7570   -2.1430 C   0  0  0  0  0  0  0  0  0  0  0  0
    1.2870   -0.2120   -2.7840 C   0  0  0  0  0  0  0  0  0  0  0  0
    2.3180   -1.1800   -3.2640 C   0  0  0  0  0  0  0  0  0  0  0  0
    1.8370   -2.1110   -4.2520 N   0  0  0  0  0  0  0  0  0  0  0  0
    0.2420    0.3390    0.7120 C   0  0  0  0  0  0  0  0  0  0  0  0
    0.0490    1.1680   -0.2420 O   0  0  0  0  0  0  0  0  0  0  0  0
    1.6690   -2.3590    1.7580 H   0  0  0  0  0  0  0  0  0  0  0  0
    1.8790   -0.7690    0.1280 H   0  0  0  0  0  0  0  0  0  0  0  0
    0.6210   -2.5750   -1.0460 H   0  0  0  0  0  0  0  0  0  0  0  0
   -0.9020   -1.7880   -0.6650 H   0  0  0  0  0  0  0  0  0  0  0  0
   -0.6880    0.0200   -2.0270 H   0  0  0  0  0  0  0  0  0  0  0  0
   -0.4150   -1.4540   -2.9100 H   0  0  0  0  0  0  0  0  0  0  0  0
    1.8350    0.4830   -2.1170 H   0  0  0  0  0  0  0  0  0  0  0  0
    0.9750    0.4070   -3.6540 H   0  0  0  0  0  0  0  0  0  0  0  0
    2.8250   -1.6750   -2.4080 H   0  0  0  0  0  0  0  0  0  0  0  0
    3.1200   -0.5910   -3.7630 H   0  0  0  0  0  0  0  0  0  0  0  0
    1.8940   -1.7790   -5.2210 H   0  0  0  0  0  0  0  0  0  0  0  0
    2.3090   -3.0270   -4.0770 H   0  0  0  0  0  0  0  0  0  0  0  0
   -0.0710    0.7850    1.9970 N   0  0  0  0  0  0  0  0  0  0  0  0
    0.1890    0.0160    3.2410 C   0  0  0  0  0  0  0  0  0  0  0  0
    0.6060    1.1180    4.2500 C   0  0  0  0  0  0  0  0  0  0  0  0
    0.4460    2.4310    3.4700 C   0  0  0  0  0  0  0  0  0  0  0  0
   -0.6980    1.9640    2.5380 C   0  0  1  0  0  0  0  0  0  0  0  0
   -1.2100    2.9970    1.7140 C   0  0  0  0  0  0  0  0  0  0  0  0
   -1.2750    3.0280    0.4860 O   0  0  0  0  0  0  0  0  0  0  0  0
   -1.7200    4.1590    2.3580 O   0  0  0  0  0  0  0  0  0  0  0  0
   -0.7490   -0.4540    3.5760 H   0  0  0  0  0  0  0  0  0  0  0  0
    1.0470   -0.6370    3.1700 H   0  0  0  0  0  0  0  0  0  0  0  0
   -0.1760    1.1420    5.0310 H   0  0  0  0  0  0  0  0  0  0  0  0
    1.6220    0.9760    4.6150 H   0  0  0  0  0  0  0  0  0  0  0  0
    0.1340    3.2550    4.1150 H   0  0  0  0  0  0  0  0  0  0  0  0
    1.3670    2.6360    2.8950 H   0  0  0  0  0  0  0  0  0  0  0  0
   -1.4660    1.5920    3.3090 H   0  0  0  0  0  0  0  0  0  0  0  0
  1  5  1  0  0  0  0
  2  1  1  0  0  0  0
  2  7  1  0  0  0  0
  3  2  1  0  0  0  0
  4  3  2  0  0  0  0
  6  1  1  0  0  0  0
  8  2  1  0  0  0  0
  9 18  1  0  0  0  0
  9  3  1  0  0  0  0
 10 19  1  6  0  0  0
 10 16  1  0  0  0  0
 10  9  1  0  0  0  0
 11 21  1  0  0  0  0
 11 10  1  0  0  0  0
 12 22  1  0  0  0  0
 12 11  1  0  0  0  0
 13 12  1  0  0  0  0
 13 24  1  0  0  0  0
 14 13  1  0  0  0  0
 14 26  1  0  0  0  0
 15 29  1  0  0  0  0
 15 14  1  0  0  0  0
 16 30  1  0  0  0  0
 17 16  2  0  0  0  0
 20 11  1  0  0  0  0
 23 12  1  0  0  0  0
 25 13  1  0  0  0  0
 27 14  1  0  0  0  0
 28 15  1  0  0  0  0
 30 34  1  0  0  0  0
 30 31  1  0  0  0  0
 31 38  1  0  0  0  0
 31 32  1  0  0  0  0
 32 41  1  0  0  0  0
 32 40  1  0  0  0  0
 33 42  1  0  0  0  0
 33 32  1  0  0  0  0
 34 44  1  1  0  0  0
 34 33  1  0  0  0  0
 35 37  1  0  0  0  0
 35 34  1  0  0  0  0
 36 35  2  0  0  0  0
 39 31  1  0  0  0  0
 43 33  1  0  0  0  0
M  END
$$$$
