GKQ.pdb
 OpenBabel07022418243D

 47 46  0  0  1  0  0  0  0  0999 V2000
   -0.2000   -4.2300    2.2450 N   0  0  0  0  0  0  0  0  0  0  0  0
    1.1960   -3.8590    2.1330 C   0  0  0  0  0  0  0  0  0  0  0  0
    1.2730   -2.6950    1.2140 C   0  0  0  0  0  0  0  0  0  0  0  0
    2.3840   -2.2000    0.9670 O   0  0  0  0  0  0  0  0  0  0  0  0
   -0.3780   -4.9380    2.9870 H   0  0  0  0  0  0  0  0  0  0  0  0
   -0.5410   -4.5440    1.3070 H   0  0  0  0  0  0  0  0  0  0  0  0
    1.7590   -4.7260    1.6920 H   0  0  0  0  0  0  0  0  0  0  0  0
    1.5870   -3.5890    3.1320 H   0  0  0  0  0  0  0  0  0  0  0  0
    0.1300   -2.1260    0.6100 N   0  0  0  0  0  0  0  0  0  0  0  0
    0.1530   -0.9980   -0.2880 C   0  0  1  0  0  0  0  0  0  0  0  0
   -0.3800   -1.3470   -1.6360 C   0  0  0  0  0  0  0  0  0  0  0  0
   -0.3950   -0.2450   -2.6300 C   0  0  0  0  0  0  0  0  0  0  0  0
    0.9580    0.3380   -2.9290 C   0  0  0  0  0  0  0  0  0  0  0  0
    1.9220   -0.7010   -3.4890 C   0  0  0  0  0  0  0  0  0  0  0  0
    3.1800    0.0170   -3.7250 N   0  0  0  0  0  0  0  0  0  0  0  0
   -0.5680    0.1600    0.3530 C   0  0  0  0  0  0  0  0  0  0  0  0
   -0.6470    1.2310   -0.2640 O   0  0  0  0  0  0  0  0  0  0  0  0
   -0.7960   -2.5540    0.8290 H   0  0  0  0  0  0  0  0  0  0  0  0
    1.2100   -0.6850   -0.3980 H   0  0  0  0  0  0  0  0  0  0  0  0
    0.2590   -2.1680   -2.0280 H   0  0  0  0  0  0  0  0  0  0  0  0
   -1.4400   -1.7330   -1.5690 H   0  0  0  0  0  0  0  0  0  0  0  0
   -0.7360   -0.7070   -3.6060 H   0  0  0  0  0  0  0  0  0  0  0  0
   -1.0980    0.5650   -2.4430 H   0  0  0  0  0  0  0  0  0  0  0  0
    1.4110    0.8830   -2.0940 H   0  0  0  0  0  0  0  0  0  0  0  0
    0.8110    1.0800   -3.7560 H   0  0  0  0  0  0  0  0  0  0  0  0
    1.5430   -1.0900   -4.4560 H   0  0  0  0  0  0  0  0  0  0  0  0
    2.0820   -1.5380   -2.7820 H   0  0  0  0  0  0  0  0  0  0  0  0
    3.0190    1.0490   -3.8130 H   0  0  0  0  0  0  0  0  0  0  0  0
    3.8480   -0.1130   -2.9280 H   0  0  0  0  0  0  0  0  0  0  0  0
    0.8810   -0.9280    5.0370 N   0  0  0  0  0  0  0  0  0  0  0  0
    0.4970    0.1450    4.1490 C   0  0  0  0  0  0  0  0  0  0  0  0
    1.1240    0.2550    3.0820 O   0  0  0  0  0  0  0  0  0  0  0  0
   -0.6010    1.0350    4.5660 C   0  0  0  0  0  0  0  0  0  0  0  0
   -1.1940    1.8080    3.4250 C   0  0  0  0  0  0  0  0  0  0  0  0
   -1.8670    1.0240    2.3720 C   0  0  2  0  0  0  0  0  0  0  0  0
   -1.1560    0.0550    1.6440 N   0  0  0  0  0  0  0  0  0  0  0  0
   -2.7550    1.9300    1.5510 C   0  0  0  0  0  0  0  0  0  0  0  0
   -3.3030    2.8680    2.1850 O   0  0  0  0  0  0  0  0  0  0  0  0
   -2.9990    1.8020    0.2150 O   0  0  0  0  0  0  0  0  0  0  0  0
    1.1530   -0.6450    5.9960 H   0  0  0  0  0  0  0  0  0  0  0  0
    0.8710   -1.9120    4.6930 H   0  0  0  0  0  0  0  0  0  0  0  0
   -1.4250    0.3360    4.9120 H   0  0  0  0  0  0  0  0  0  0  0  0
   -0.3050    1.7020    5.4090 H   0  0  0  0  0  0  0  0  0  0  0  0
   -1.9100    2.5750    3.8590 H   0  0  0  0  0  0  0  0  0  0  0  0
   -0.3610    2.4520    3.0360 H   0  0  0  0  0  0  0  0  0  0  0  0
   -2.7000    0.4140    2.9170 H   0  0  0  0  0  0  0  0  0  0  0  0
   -1.0200   -0.9350    2.0650 H   0  0  0  0  0  0  0  0  0  0  0  0
  1  5  1  0  0  0  0
  2  1  1  0  0  0  0
  2  8  1  0  0  0  0
  3  2  1  0  0  0  0
  4  3  2  0  0  0  0
  6  1  1  0  0  0  0
  7  2  1  0  0  0  0
  9 18  1  0  0  0  0
  9  3  1  0  0  0  0
 10 19  1  6  0  0  0
 10 16  1  0  0  0  0
 10  9  1  0  0  0  0
 11 21  1  0  0  0  0
 11 10  1  0  0  0  0
 12 23  1  0  0  0  0
 12 11  1  0  0  0  0
 13 12  1  0  0  0  0
 13 24  1  0  0  0  0
 14 13  1  0  0  0  0
 14 27  1  0  0  0  0
 15 14  1  0  0  0  0
 15 29  1  0  0  0  0
 16 36  1  0  0  0  0
 17 16  2  0  0  0  0
 20 11  1  0  0  0  0
 22 12  1  0  0  0  0
 25 13  1  0  0  0  0
 26 14  1  0  0  0  0
 28 15  1  0  0  0  0
 30 40  1  0  0  0  0
 31 33  1  0  0  0  0
 31 30  1  0  0  0  0
 32 31  2  0  0  0  0
 33 42  1  0  0  0  0
 33 43  1  0  0  0  0
 34 44  1  0  0  0  0
 34 33  1  0  0  0  0
 35 46  1  1  0  0  0
 35 34  1  0  0  0  0
 36 47  1  0  0  0  0
 36 35  1  0  0  0  0
 37 38  1  0  0  0  0
 37 35  1  0  0  0  0
 39 37  2  0  0  0  0
 41 30  1  0  0  0  0
 45 34  1  0  0  0  0
M  END
$$$$
