GKR.pdb
 OpenBabel07022418233D

 53 52  0  0  1  0  0  0  0  0999 V2000
   -0.0530    0.6920    4.6140 N   0  0  0  0  0  0  0  0  0  0  0  0
    0.8430    1.2520    3.6440 C   0  0  0  0  0  0  0  0  0  0  0  0
    1.0920    0.3190    2.5000 C   0  0  0  0  0  0  0  0  0  0  0  0
    0.5130   -0.7770    2.5360 O   0  0  0  0  0  0  0  0  0  0  0  0
   -0.6860   -0.0320    4.1970 H   0  0  0  0  0  0  0  0  0  0  0  0
    0.4470    0.3080    5.4540 H   0  0  0  0  0  0  0  0  0  0  0  0
    1.7960    1.5350    4.1250 H   0  0  0  0  0  0  0  0  0  0  0  0
    0.3910    2.1840    3.2440 H   0  0  0  0  0  0  0  0  0  0  0  0
    1.9470    0.6810    1.4370 N   0  0  0  0  0  0  0  0  0  0  0  0
    2.2140   -0.1990    0.3120 C   0  0  1  0  0  0  0  0  0  0  0  0
    2.8180   -1.4780    0.7120 C   0  0  0  0  0  0  0  0  0  0  0  0
    3.2180   -2.4930   -0.2780 C   0  0  0  0  0  0  0  0  0  0  0  0
    4.3520   -2.2300   -1.1860 C   0  0  0  0  0  0  0  0  0  0  0  0
    4.3230   -1.1010   -2.1370 C   0  0  0  0  0  0  0  0  0  0  0  0
    3.2090   -1.1930   -3.0340 N   0  0  0  0  0  0  0  0  0  0  0  0
    0.8970   -0.3680   -0.3920 C   0  0  0  0  0  0  0  0  0  0  0  0
    0.7050   -1.1870   -1.3140 O   0  0  0  0  0  0  0  0  0  0  0  0
    2.3990    1.6070    1.4650 H   0  0  0  0  0  0  0  0  0  0  0  0
    2.8380    0.3590   -0.3850 H   0  0  0  0  0  0  0  0  0  0  0  0
    3.7210   -1.3290    1.3870 H   0  0  0  0  0  0  0  0  0  0  0  0
    2.0440   -2.0100    1.3800 H   0  0  0  0  0  0  0  0  0  0  0  0
    2.2980   -2.7940   -0.8920 H   0  0  0  0  0  0  0  0  0  0  0  0
    3.4770   -3.4780    0.2740 H   0  0  0  0  0  0  0  0  0  0  0  0
    4.6290   -3.1790   -1.7580 H   0  0  0  0  0  0  0  0  0  0  0  0
    5.2980   -2.0770   -0.5420 H   0  0  0  0  0  0  0  0  0  0  0  0
    4.4970   -0.1410   -1.6550 H   0  0  0  0  0  0  0  0  0  0  0  0
    5.2600   -1.2550   -2.8170 H   0  0  0  0  0  0  0  0  0  0  0  0
    3.2100   -2.0890   -3.5380 H   0  0  0  0  0  0  0  0  0  0  0  0
    3.2650   -0.3690   -3.6870 H   0  0  0  0  0  0  0  0  0  0  0  0
   -2.7870   -3.4890    2.3130 N   0  0  0  0  0  0  0  0  0  0  0  0
   -3.5960   -2.3280    2.2760 C   0  0  0  0  0  0  0  0  0  0  0  0
   -3.3780   -1.3540    3.1290 N   0  0  0  0  0  0  0  0  0  0  0  0
   -4.6530   -2.1900    1.3260 N   0  0  0  0  0  0  0  0  0  0  0  0
   -4.9350   -0.9320    0.7050 C   0  0  0  0  0  0  0  0  0  0  0  0
   -3.9070   -0.4420   -0.2610 C   0  0  0  0  0  0  0  0  0  0  0  0
   -2.5480   -0.2270    0.2890 C   0  0  0  0  0  0  0  0  0  0  0  0
   -1.5270    0.2640   -0.7110 C   0  0  2  0  0  0  0  0  0  0  0  0
   -0.2230    0.4240   -0.0300 N   0  0  0  0  0  0  0  0  0  0  0  0
   -1.8970    1.5010   -1.4000 C   0  0  0  0  0  0  0  0  0  0  0  0
   -1.1300    2.5080   -1.2990 O   0  0  0  0  0  0  0  0  0  0  0  0
   -3.0300    1.6740   -2.1670 O   0  0  0  0  0  0  0  0  0  0  0  0
   -2.2140   -3.6800    3.1800 H   0  0  0  0  0  0  0  0  0  0  0  0
   -2.7190   -4.1750    1.5330 H   0  0  0  0  0  0  0  0  0  0  0  0
   -2.6130   -1.4530    3.8200 H   0  0  0  0  0  0  0  0  0  0  0  0
   -5.2150   -3.0640    1.1070 H   0  0  0  0  0  0  0  0  0  0  0  0
   -5.1680   -0.1520    1.4770 H   0  0  0  0  0  0  0  0  0  0  0  0
   -5.8900   -1.0540    0.1130 H   0  0  0  0  0  0  0  0  0  0  0  0
   -4.3460    0.4460   -0.7790 H   0  0  0  0  0  0  0  0  0  0  0  0
   -3.8200   -1.2290   -1.0610 H   0  0  0  0  0  0  0  0  0  0  0  0
   -2.1580   -1.2240    0.6320 H   0  0  0  0  0  0  0  0  0  0  0  0
   -2.5960    0.4560    1.1770 H   0  0  0  0  0  0  0  0  0  0  0  0
   -1.3800   -0.5360   -1.4580 H   0  0  0  0  0  0  0  0  0  0  0  0
   -0.2180    1.1600    0.7070 H   0  0  0  0  0  0  0  0  0  0  0  0
  1  6  1  0  0  0  0
  2  7  1  0  0  0  0
  2  1  1  0  0  0  0
  3  4  2  0  0  0  0
  3  2  1  0  0  0  0
  5  1  1  0  0  0  0
  8  2  1  0  0  0  0
  9 18  1  0  0  0  0
  9  3  1  0  0  0  0
 10 19  1  6  0  0  0
 10 11  1  0  0  0  0
 10  9  1  0  0  0  0
 11 21  1  0  0  0  0
 11 20  1  0  0  0  0
 12 23  1  0  0  0  0
 12 11  1  0  0  0  0
 13 25  1  0  0  0  0
 13 12  1  0  0  0  0
 14 26  1  0  0  0  0
 14 13  1  0  0  0  0
 15 14  1  0  0  0  0
 16 38  1  0  0  0  0
 16 10  1  0  0  0  0
 17 16  2  0  0  0  0
 22 12  1  0  0  0  0
 24 13  1  0  0  0  0
 27 14  1  0  0  0  0
 28 15  1  0  0  0  0
 29 15  1  0  0  0  0
 30 42  1  0  0  0  0
 31 30  1  0  0  0  0
 31 32  2  0  0  0  0
 32 44  1  0  0  0  0
 33 31  1  0  0  0  0
 34 33  1  0  0  0  0
 34 46  1  0  0  0  0
 35 36  1  0  0  0  0
 35 34  1  0  0  0  0
 36 50  1  0  0  0  0
 36 51  1  0  0  0  0
 37 52  1  6  0  0  0
 37 38  1  0  0  0  0
 37 36  1  0  0  0  0
 38 53  1  0  0  0  0
 39 40  1  0  0  0  0
 39 37  1  0  0  0  0
 41 39  2  0  0  0  0
 43 30  1  0  0  0  0
 45 33  1  0  0  0  0
 47 34  1  0  0  0  0
 48 35  1  0  0  0  0
 49 35  1  0  0  0  0
M  END
$$$$
