GKS.pdb
 OpenBabel07022418243D

 41 40  0  0  1  0  0  0  0  0999 V2000
    0.9100   -4.1500    5.2810 N   0  0  0  0  0  0  0  0  0  0  0  0
    0.1810   -3.9000    4.0680 C   0  0  0  0  0  0  0  0  0  0  0  0
    0.8950   -2.8340    3.2860 C   0  0  0  0  0  0  0  0  0  0  0  0
    1.9650   -2.3190    3.7410 O   0  0  0  0  0  0  0  0  0  0  0  0
    1.6750   -3.4680    5.4610 H   0  0  0  0  0  0  0  0  0  0  0  0
    0.2860   -4.1990    6.1010 H   0  0  0  0  0  0  0  0  0  0  0  0
   -0.8360   -3.5350    4.3220 H   0  0  0  0  0  0  0  0  0  0  0  0
    0.1280   -4.8090    3.4700 H   0  0  0  0  0  0  0  0  0  0  0  0
    0.4300   -2.3650    2.0470 N   0  0  0  0  0  0  0  0  0  0  0  0
    1.1670   -1.2990    1.2910 C   0  0  1  0  0  0  0  0  0  0  0  0
    1.6880   -1.9180    0.0370 C   0  0  0  0  0  0  0  0  0  0  0  0
    0.6870   -2.4600   -0.9040 C   0  0  0  0  0  0  0  0  0  0  0  0
   -0.1820   -1.5100   -1.6340 C   0  0  0  0  0  0  0  0  0  0  0  0
    0.5440   -0.6860   -2.6560 C   0  0  0  0  0  0  0  0  0  0  0  0
    1.6080    0.0470   -2.0970 N   0  0  0  0  0  0  0  0  0  0  0  0
    0.2540   -0.1720    1.2430 C   0  0  0  0  0  0  0  0  0  0  0  0
   -0.9570   -0.2830    1.7190 O   0  0  0  0  0  0  0  0  0  0  0  0
   -0.4270   -2.7310    1.6160 H   0  0  0  0  0  0  0  0  0  0  0  0
    2.0580   -1.0320    1.9470 H   0  0  0  0  0  0  0  0  0  0  0  0
    2.2950   -2.8320    0.3810 H   0  0  0  0  0  0  0  0  0  0  0  0
    2.4680   -1.2620   -0.3740 H   0  0  0  0  0  0  0  0  0  0  0  0
    1.1620   -3.1290   -1.6820 H   0  0  0  0  0  0  0  0  0  0  0  0
   -0.0010   -3.1440   -0.3240 H   0  0  0  0  0  0  0  0  0  0  0  0
   -0.9730   -2.1030   -2.1500 H   0  0  0  0  0  0  0  0  0  0  0  0
   -0.7360   -0.8050   -0.9700 H   0  0  0  0  0  0  0  0  0  0  0  0
   -0.2250    0.0060   -3.1080 H   0  0  0  0  0  0  0  0  0  0  0  0
    0.9550   -1.3270   -3.4760 H   0  0  0  0  0  0  0  0  0  0  0  0
    1.5240    1.0840   -2.0690 H   0  0  0  0  0  0  0  0  0  0  0  0
    2.5580   -0.2340   -2.4820 H   0  0  0  0  0  0  0  0  0  0  0  0
    0.4980    3.0510    2.8020 O   0  0  0  0  0  0  0  0  0  0  0  0
    0.1360    3.3680    1.5120 C   0  0  0  0  0  0  0  0  0  0  0  0
   -0.4720    2.1830    0.7730 C   0  0  2  0  0  0  0  0  0  0  0  0
    0.4950    1.1340    0.7290 N   0  0  0  0  0  0  0  0  0  0  0  0
   -1.0370    2.6790   -0.4670 C   0  0  0  0  0  0  0  0  0  0  0  0
   -1.8780    3.6390   -0.3440 O   0  0  0  0  0  0  0  0  0  0  0  0
   -0.8070    2.2750   -1.7500 O   0  0  0  0  0  0  0  0  0  0  0  0
    0.9220    2.1590    2.8520 H   0  0  0  0  0  0  0  0  0  0  0  0
   -0.6670    4.1350    1.5690 H   0  0  0  0  0  0  0  0  0  0  0  0
    1.0240    3.7350    0.9660 H   0  0  0  0  0  0  0  0  0  0  0  0
   -1.3400    1.8140    1.4010 H   0  0  0  0  0  0  0  0  0  0  0  0
    1.4490    1.2880    0.3190 H   0  0  0  0  0  0  0  0  0  0  0  0
  1  5  1  0  0  0  0
  1  6  1  0  0  0  0
  2  7  1  0  0  0  0
  2  1  1  0  0  0  0
  3  4  2  0  0  0  0
  3  2  1  0  0  0  0
  8  2  1  0  0  0  0
  9  3  1  0  0  0  0
 10 19  1  1  0  0  0
 10  9  1  0  0  0  0
 11 20  1  0  0  0  0
 11 10  1  0  0  0  0
 12 23  1  0  0  0  0
 12 11  1  0  0  0  0
 13 25  1  0  0  0  0
 13 12  1  0  0  0  0
 14 15  1  0  0  0  0
 14 13  1  0  0  0  0
 15 28  1  0  0  0  0
 16 10  1  0  0  0  0
 16 17  2  0  0  0  0
 18  9  1  0  0  0  0
 21 11  1  0  0  0  0
 22 12  1  0  0  0  0
 24 13  1  0  0  0  0
 26 14  1  0  0  0  0
 27 14  1  0  0  0  0
 29 15  1  0  0  0  0
 30 37  1  0  0  0  0
 31 38  1  0  0  0  0
 31 30  1  0  0  0  0
 32 40  1  1  0  0  0
 32 31  1  0  0  0  0
 33 32  1  0  0  0  0
 33 16  1  0  0  0  0
 34 35  1  0  0  0  0
 34 32  1  0  0  0  0
 36 34  2  0  0  0  0
 39 31  1  0  0  0  0
 41 33  1  0  0  0  0
M  END
$$$$
