GKW.pdb
 OpenBabel07022418243D

 54 55  0  0  1  0  0  0  0  0999 V2000
    1.9390   -4.2310    1.0890 N   0  0  0  0  0  0  0  0  0  0  0  0
    2.2880   -4.1400    2.5010 C   0  0  0  0  0  0  0  0  0  0  0  0
    2.3890   -2.7030    2.8780 C   0  0  0  0  0  0  0  0  0  0  0  0
    2.6800   -2.3900    4.0650 O   0  0  0  0  0  0  0  0  0  0  0  0
    1.0280   -3.7600    0.8970 H   0  0  0  0  0  0  0  0  0  0  0  0
    1.9290   -5.2270    0.7710 H   0  0  0  0  0  0  0  0  0  0  0  0
    3.2540   -4.6730    2.6200 H   0  0  0  0  0  0  0  0  0  0  0  0
    1.4670   -4.6170    3.0720 H   0  0  0  0  0  0  0  0  0  0  0  0
    2.1750   -1.6460    1.9690 N   0  0  0  0  0  0  0  0  0  0  0  0
    2.2840   -0.2730    2.3880 C   0  0  1  0  0  0  0  0  0  0  0  0
    3.4430    0.4450    1.7910 C   0  0  0  0  0  0  0  0  0  0  0  0
    3.5070    0.5470    0.3190 C   0  0  0  0  0  0  0  0  0  0  0  0
    2.3890    1.2550   -0.3640 C   0  0  0  0  0  0  0  0  0  0  0  0
    2.7040    1.2240   -1.8650 C   0  0  0  0  0  0  0  0  0  0  0  0
    1.6560    1.8930   -2.5990 N   0  0  0  0  0  0  0  0  0  0  0  0
    1.0310    0.4830    2.2520 C   0  0  0  0  0  0  0  0  0  0  0  0
    1.0940    1.7200    2.5680 O   0  0  0  0  0  0  0  0  0  0  0  0
    1.9370   -1.8570    0.9880 H   0  0  0  0  0  0  0  0  0  0  0  0
    2.4970   -0.2400    3.5200 H   0  0  0  0  0  0  0  0  0  0  0  0
    3.5490    1.4440    2.2690 H   0  0  0  0  0  0  0  0  0  0  0  0
    4.3730   -0.1130    2.1150 H   0  0  0  0  0  0  0  0  0  0  0  0
    4.4380    1.1460    0.0810 H   0  0  0  0  0  0  0  0  0  0  0  0
    3.7260   -0.4510   -0.1310 H   0  0  0  0  0  0  0  0  0  0  0  0
    2.3380    2.3380   -0.1160 H   0  0  0  0  0  0  0  0  0  0  0  0
    1.3920    0.8460   -0.2280 H   0  0  0  0  0  0  0  0  0  0  0  0
    3.6500    1.8150   -2.0280 H   0  0  0  0  0  0  0  0  0  0  0  0
    2.8150    0.1870   -2.2140 H   0  0  0  0  0  0  0  0  0  0  0  0
    0.8410    2.0450   -1.9460 H   0  0  0  0  0  0  0  0  0  0  0  0
    1.3070    1.2550   -3.3450 H   0  0  0  0  0  0  0  0  0  0  0  0
   -0.1970   -0.0580    1.8090 N   0  0  0  0  0  0  0  0  0  0  0  0
   -1.3760    0.8180    1.7170 C   0  0  1  0  0  0  0  0  0  0  0  0
   -1.7390    1.0570    0.2870 C   0  0  0  0  0  0  0  0  0  0  0  0
   -2.0600   -0.1280   -0.5060 C   0  0  0  0  0  0  0  0  0  0  0  0
   -1.1480   -0.8300   -1.3080 C   0  0  0  0  0  0  0  0  0  0  0  0
   -1.7540   -1.8880   -1.8620 N   0  0  0  0  0  0  0  0  0  0  0  0
   -3.0370   -1.9270   -1.4660 C   0  0  0  0  0  0  0  0  0  0  0  0
   -4.0450   -2.8130   -1.7780 C   0  0  0  0  0  0  0  0  0  0  0  0
   -5.2910   -2.5990   -1.2310 C   0  0  0  0  0  0  0  0  0  0  0  0
   -5.4920   -1.5190   -0.3980 C   0  0  0  0  0  0  0  0  0  0  0  0
   -4.4890   -0.6290   -0.0810 C   0  0  0  0  0  0  0  0  0  0  0  0
   -3.2310   -0.8280   -0.6200 C   0  0  0  0  0  0  0  0  0  0  0  0
   -2.4330    0.3560    2.6080 C   0  0  0  0  0  0  0  0  0  0  0  0
   -2.2620   -0.7460    3.2340 O   0  0  0  0  0  0  0  0  0  0  0  0
   -3.6360    0.9860    2.8690 O   0  0  0  0  0  0  0  0  0  0  0  0
   -0.2680   -1.0540    1.5520 H   0  0  0  0  0  0  0  0  0  0  0  0
   -1.0730    1.8470    2.1020 H   0  0  0  0  0  0  0  0  0  0  0  0
   -2.5870    1.8020    0.3060 H   0  0  0  0  0  0  0  0  0  0  0  0
   -0.8910    1.6530   -0.1500 H   0  0  0  0  0  0  0  0  0  0  0  0
   -0.1270   -0.5550   -1.4500 H   0  0  0  0  0  0  0  0  0  0  0  0
   -1.3280   -2.6110   -2.5160 H   0  0  0  0  0  0  0  0  0  0  0  0
   -3.8970   -3.6660   -2.4340 H   0  0  0  0  0  0  0  0  0  0  0  0
   -6.1270   -3.2800   -1.4510 H   0  0  0  0  0  0  0  0  0  0  0  0
   -6.4780   -1.3300    0.0480 H   0  0  0  0  0  0  0  0  0  0  0  0
   -4.6920    0.2210    0.5690 H   0  0  0  0  0  0  0  0  0  0  0  0
  1  2  1  0  0  0  0
  2  7  1  0  0  0  0
  2  3  1  0  0  0  0
  2  8  1  0  0  0  0
  3  4  2  0  0  0  0
  5  1  1  0  0  0  0
  6  1  1  0  0  0  0
  9 10  1  0  0  0  0
  9  3  1  0  0  0  0
 10 19  1  1  0  0  0
 11 21  1  0  0  0  0
 11 20  1  0  0  0  0
 11 10  1  0  0  0  0
 12 11  1  0  0  0  0
 13 25  1  0  0  0  0
 13 24  1  0  0  0  0
 13 12  1  0  0  0  0
 14 13  1  0  0  0  0
 15 28  1  0  0  0  0
 15 14  1  0  0  0  0
 16 10  1  0  0  0  0
 16 17  2  0  0  0  0
 18  9  1  0  0  0  0
 22 12  1  0  0  0  0
 23 12  1  0  0  0  0
 26 14  1  0  0  0  0
 27 14  1  0  0  0  0
 29 15  1  0  0  0  0
 30 16  1  0  0  0  0
 31 30  1  0  0  0  0
 31 46  1  1  0  0  0
 31 42  1  0  0  0  0
 32 47  1  0  0  0  0
 32 31  1  0  0  0  0
 33 32  1  0  0  0  0
 34 33  2  0  0  0  0
 35 36  1  0  0  0  0
 35 34  1  0  0  0  0
 36 41  1  0  0  0  0
 37 36  2  0  0  0  0
 37 38  1  0  0  0  0
 38 39  2  0  0  0  0
 39 40  1  0  0  0  0
 39 53  1  0  0  0  0
 40 54  1  0  0  0  0
 41 33  1  0  0  0  0
 41 40  2  0  0  0  0
 42 44  2  0  0  0  0
 42 43  1  0  0  0  0
 45 30  1  0  0  0  0
 48 32  1  0  0  0  0
 49 34  1  0  0  0  0
 50 35  1  0  0  0  0
 51 37  1  0  0  0  0
 52 38  1  0  0  0  0
M  END
$$$$
