GLC.pdb
 OpenBabel07022418233D

 39 38  0  0  1  0  0  0  0  0999 V2000
   -2.5710   -0.1910   -2.0420 N   0  0  0  0  0  0  0  0  0  0  0  0
   -3.3790   -0.3670   -0.8530 C   0  0  0  0  0  0  0  0  0  0  0  0
   -2.5350   -0.8040    0.3060 C   0  0  0  0  0  0  0  0  0  0  0  0
   -3.0100   -1.0170    1.4330 O   0  0  0  0  0  0  0  0  0  0  0  0
   -2.9800   -0.6980   -2.8720 H   0  0  0  0  0  0  0  0  0  0  0  0
   -2.5460    0.8260   -2.3430 H   0  0  0  0  0  0  0  0  0  0  0  0
   -3.8240    0.6170   -0.5620 H   0  0  0  0  0  0  0  0  0  0  0  0
   -4.2020   -1.0920   -1.0260 H   0  0  0  0  0  0  0  0  0  0  0  0
    0.8580   -3.7330    2.8850 C   0  0  0  0  0  0  0  0  0  0  0  0
    1.4060   -3.3280    1.5290 C   0  0  0  0  0  0  0  0  0  0  0  0
    2.7390   -2.7040    1.6340 C   0  0  0  0  0  0  0  0  0  0  0  0
    0.3960   -2.6380    0.6610 C   0  0  0  0  0  0  0  0  0  0  0  0
   -0.2240   -1.4050    1.1770 C   0  0  2  0  0  0  0  0  0  0  0  0
   -1.1620   -0.9740    0.1020 N   0  0  0  0  0  0  0  0  0  0  0  0
    0.5920   -0.2360    1.4310 C   0  0  0  0  0  0  0  0  0  0  0  0
    1.4380   -0.2490    2.3730 O   0  0  0  0  0  0  0  0  0  0  0  0
    1.5430   -4.5080    3.2860 H   0  0  0  0  0  0  0  0  0  0  0  0
    0.9550   -2.8670    3.6020 H   0  0  0  0  0  0  0  0  0  0  0  0
   -0.1910   -4.0760    2.8070 H   0  0  0  0  0  0  0  0  0  0  0  0
    1.5900   -4.3620    1.0320 H   0  0  0  0  0  0  0  0  0  0  0  0
    3.0160   -2.3900    2.6640 H   0  0  0  0  0  0  0  0  0  0  0  0
    2.9100   -1.9160    0.8680 H   0  0  0  0  0  0  0  0  0  0  0  0
    3.5240   -3.4820    1.3690 H   0  0  0  0  0  0  0  0  0  0  0  0
   -0.3920   -3.4330    0.4600 H   0  0  0  0  0  0  0  0  0  0  0  0
    0.8710   -2.5220   -0.3420 H   0  0  0  0  0  0  0  0  0  0  0  0
   -0.8890   -1.5670    2.0560 H   0  0  0  0  0  0  0  0  0  0  0  0
   -0.7010   -0.8160   -0.8190 H   0  0  0  0  0  0  0  0  0  0  0  0
    0.5320    0.9980    0.6800 N   0  0  0  0  0  0  0  0  0  0  0  0
    1.3740    2.1310    0.9830 C   0  0  1  0  0  0  0  0  0  0  0  0
    2.1440    2.5510   -0.2560 C   0  0  0  0  0  0  0  0  0  0  0  0
    3.1960    1.2010   -0.8590 S   0  0  0  0  0  0  0  0  0  0  0  0
    0.5480    3.3250    1.3760 C   0  0  0  0  0  0  0  0  0  0  0  0
    1.0680    4.4150    1.6790 O   0  0  0  0  0  0  0  0  0  0  0  0
   -0.8480    3.2280    1.4070 O   0  0  0  0  0  0  0  0  0  0  0  0
   -0.1690    0.9900   -0.0860 H   0  0  0  0  0  0  0  0  0  0  0  0
    2.0490    1.9330    1.8380 H   0  0  0  0  0  0  0  0  0  0  0  0
    1.4120    2.8640   -1.0210 H   0  0  0  0  0  0  0  0  0  0  0  0
    2.8280    3.3870    0.0150 H   0  0  0  0  0  0  0  0  0  0  0  0
    4.2570    1.0520    0.0640 H   0  0  0  0  0  0  0  0  0  0  0  0
  1  2  1  0  0  0  0
  2  7  1  0  0  0  0
  2  3  1  0  0  0  0
  3  4  2  0  0  0  0
  5  1  1  0  0  0  0
  6  1  1  0  0  0  0
  8  2  1  0  0  0  0
  9 17  1  0  0  0  0
  9 18  1  0  0  0  0
 10 11  1  0  0  0  0
 10  9  1  0  0  0  0
 11 21  1  0  0  0  0
 12 13  1  0  0  0  0
 12 10  1  0  0  0  0
 13 15  1  0  0  0  0
 13 26  1  1  0  0  0
 14  3  1  0  0  0  0
 14 13  1  0  0  0  0
 15 16  2  0  0  0  0
 19  9  1  0  0  0  0
 20 10  1  0  0  0  0
 22 11  1  0  0  0  0
 23 11  1  0  0  0  0
 24 12  1  0  0  0  0
 25 12  1  0  0  0  0
 27 14  1  0  0  0  0
 28 29  1  0  0  0  0
 28 15  1  0  0  0  0
 29 32  1  0  0  0  0
 29 36  1  1  0  0  0
 30 38  1  0  0  0  0
 30 29  1  0  0  0  0
 31 30  1  0  0  0  0
 31 39  1  0  0  0  0
 32 34  2  0  0  0  0
 32 33  1  0  0  0  0
 35 28  1  0  0  0  0
 37 30  1  0  0  0  0
M  END
$$$$
