GLD.pdb
 OpenBabel07022418233D

 41 40  0  0  1  0  0  0  0  0999 V2000
   -2.6100   -3.9390    1.0630 N   0  0  0  0  0  0  0  0  0  0  0  0
   -1.3970   -4.2850    1.7710 C   0  0  0  0  0  0  0  0  0  0  0  0
   -0.4170   -3.2030    1.5840 C   0  0  0  0  0  0  0  0  0  0  0  0
    0.7260   -3.2810    2.1070 O   0  0  0  0  0  0  0  0  0  0  0  0
   -2.3890   -3.8260    0.0670 H   0  0  0  0  0  0  0  0  0  0  0  0
   -2.9790   -3.0550    1.4620 H   0  0  0  0  0  0  0  0  0  0  0  0
   -1.6390   -4.3260    2.8670 H   0  0  0  0  0  0  0  0  0  0  0  0
   -0.9810   -5.2660    1.4540 H   0  0  0  0  0  0  0  0  0  0  0  0
    2.3040   -2.5260   -0.9440 C   0  0  0  0  0  0  0  0  0  0  0  0
    1.0010   -2.0140   -1.4750 C   0  0  0  0  0  0  0  0  0  0  0  0
    1.0430   -1.8420   -2.9890 C   0  0  0  0  0  0  0  0  0  0  0  0
    0.5130   -0.7710   -0.7960 C   0  0  0  0  0  0  0  0  0  0  0  0
    0.2740   -1.0060    0.6610 C   0  0  2  0  0  0  0  0  0  0  0  0
   -0.7290   -2.0570    0.8200 N   0  0  0  0  0  0  0  0  0  0  0  0
   -0.1980    0.2380    1.3470 C   0  0  0  0  0  0  0  0  0  0  0  0
   -1.2960    0.3100    1.9330 O   0  0  0  0  0  0  0  0  0  0  0  0
    2.5300   -2.0610    0.0260 H   0  0  0  0  0  0  0  0  0  0  0  0
    3.1500   -2.2670   -1.6490 H   0  0  0  0  0  0  0  0  0  0  0  0
    2.2450   -3.6290   -0.8110 H   0  0  0  0  0  0  0  0  0  0  0  0
    0.2430   -2.8520   -1.3320 H   0  0  0  0  0  0  0  0  0  0  0  0
    0.6570   -2.7280   -3.5330 H   0  0  0  0  0  0  0  0  0  0  0  0
    0.4110   -0.9810   -3.2840 H   0  0  0  0  0  0  0  0  0  0  0  0
    2.0800   -1.6920   -3.3340 H   0  0  0  0  0  0  0  0  0  0  0  0
    1.2760    0.0530   -0.9050 H   0  0  0  0  0  0  0  0  0  0  0  0
   -0.4090   -0.3760   -1.3010 H   0  0  0  0  0  0  0  0  0  0  0  0
    1.2110   -1.2830    1.1590 H   0  0  0  0  0  0  0  0  0  0  0  0
   -1.6480   -1.9660    0.3830 H   0  0  0  0  0  0  0  0  0  0  0  0
    0.6330    1.3650    1.3270 N   0  0  0  0  0  0  0  0  0  0  0  0
    0.3400    2.6410    1.9360 C   0  0  1  0  0  0  0  0  0  0  0  0
    1.3800    2.7920    3.0610 C   0  0  0  0  0  0  0  0  0  0  0  0
    1.1530    1.6370    3.9730 C   0  0  0  0  0  0  0  0  0  0  0  0
    0.1880    1.7260    4.8020 O   0  0  0  0  0  0  0  0  0  0  0  0
    0.4980    3.7110    0.9340 C   0  0  0  0  0  0  0  0  0  0  0  0
    0.2820    4.9040    1.2490 O   0  0  0  0  0  0  0  0  0  0  0  0
    1.9450    0.5120    3.9350 O   0  0  0  0  0  0  0  0  0  0  0  0
    0.8820    3.4180   -0.3540 O   0  0  0  0  0  0  0  0  0  0  0  0
    1.5650    1.3080    0.8270 H   0  0  0  0  0  0  0  0  0  0  0  0
   -0.6650    2.6490    2.4080 H   0  0  0  0  0  0  0  0  0  0  0  0
    1.2710    3.7640    3.5750 H   0  0  0  0  0  0  0  0  0  0  0  0
    2.3940    2.6930    2.5900 H   0  0  0  0  0  0  0  0  0  0  0  0
    1.6050   -0.3600    4.3420 H   0  0  0  0  0  0  0  0  0  0  0  0
  1  6  1  0  0  0  0
  1  2  1  0  0  0  0
  2  7  1  0  0  0  0
  3  2  1  0  0  0  0
  3  4  2  0  0  0  0
  5  1  1  0  0  0  0
  8  2  1  0  0  0  0
  9 19  1  0  0  0  0
  9 17  1  0  0  0  0
 10 20  1  0  0  0  0
 10  9  1  0  0  0  0
 10 12  1  0  0  0  0
 11 10  1  0  0  0  0
 12 13  1  0  0  0  0
 13 14  1  0  0  0  0
 13 26  1  1  0  0  0
 13 15  1  0  0  0  0
 14  3  1  0  0  0  0
 15 16  2  0  0  0  0
 18  9  1  0  0  0  0
 21 11  1  0  0  0  0
 22 11  1  0  0  0  0
 23 11  1  0  0  0  0
 24 12  1  0  0  0  0
 25 12  1  0  0  0  0
 27 14  1  0  0  0  0
 28 15  1  0  0  0  0
 28 29  1  0  0  0  0
 29 38  1  1  0  0  0
 29 30  1  0  0  0  0
 30 39  1  0  0  0  0
 30 31  1  0  0  0  0
 31 32  2  0  0  0  0
 33 34  1  0  0  0  0
 33 29  1  0  0  0  0
 35 31  1  0  0  0  0
 35 41  1  0  0  0  0
 36 33  2  0  0  0  0
 37 28  1  0  0  0  0
 40 30  1  0  0  0  0
M  END
$$$$
