GLE.pdb
 OpenBabel07022418233D

 44 43  0  0  1  0  0  0  0  0999 V2000
   -1.9310   -5.8430   -1.1250 N   0  0  0  0  0  0  0  0  0  0  0  0
   -0.7850   -4.9610   -1.2300 C   0  0  0  0  0  0  0  0  0  0  0  0
   -0.8500   -3.9230   -0.1720 C   0  0  0  0  0  0  0  0  0  0  0  0
   -1.8110   -3.9250    0.6290 O   0  0  0  0  0  0  0  0  0  0  0  0
   -2.5340   -5.5960   -0.2970 H   0  0  0  0  0  0  0  0  0  0  0  0
   -1.6670   -6.8430   -0.9840 H   0  0  0  0  0  0  0  0  0  0  0  0
   -0.8510   -4.4650   -2.2180 H   0  0  0  0  0  0  0  0  0  0  0  0
    0.1330   -5.5710   -1.1250 H   0  0  0  0  0  0  0  0  0  0  0  0
    3.6030   -2.3400    2.3940 C   0  0  0  0  0  0  0  0  0  0  0  0
    2.5650   -2.0890    1.3040 C   0  0  0  0  0  0  0  0  0  0  0  0
    2.8930   -0.8120    0.6170 C   0  0  0  0  0  0  0  0  0  0  0  0
    1.2210   -2.1510    1.9590 C   0  0  0  0  0  0  0  0  0  0  0  0
    0.0740   -1.9140    0.9990 C   0  0  2  0  0  0  0  0  0  0  0  0
    0.1390   -2.9130   -0.0220 N   0  0  0  0  0  0  0  0  0  0  0  0
   -0.0540   -0.5350    0.5340 C   0  0  0  0  0  0  0  0  0  0  0  0
   -0.0430   -0.2010   -0.6930 O   0  0  0  0  0  0  0  0  0  0  0  0
    4.4850   -2.8120    1.9490 H   0  0  0  0  0  0  0  0  0  0  0  0
    3.9430   -1.3500    2.7990 H   0  0  0  0  0  0  0  0  0  0  0  0
    3.1830   -2.8910    3.2480 H   0  0  0  0  0  0  0  0  0  0  0  0
    2.6530   -2.9450    0.5920 H   0  0  0  0  0  0  0  0  0  0  0  0
    2.6200   -0.8460   -0.4790 H   0  0  0  0  0  0  0  0  0  0  0  0
    4.0190   -0.7210    0.5960 H   0  0  0  0  0  0  0  0  0  0  0  0
    2.5360    0.0940    1.1060 H   0  0  0  0  0  0  0  0  0  0  0  0
    1.0920   -3.1830    2.3490 H   0  0  0  0  0  0  0  0  0  0  0  0
    1.1780   -1.4850    2.8480 H   0  0  0  0  0  0  0  0  0  0  0  0
   -0.8670   -2.1200    1.5930 H   0  0  0  0  0  0  0  0  0  0  0  0
    0.9220   -2.9700   -0.7310 H   0  0  0  0  0  0  0  0  0  0  0  0
   -0.2030    0.5380    1.4540 N   0  0  0  0  0  0  0  0  0  0  0  0
   -0.3350    1.9340    0.9770 C   0  0  1  0  0  0  0  0  0  0  0  0
   -1.6750    2.4700    1.3510 C   0  0  0  0  0  0  0  0  0  0  0  0
   -1.9070    3.8760    0.9050 C   0  0  0  0  0  0  0  0  0  0  0  0
   -1.8500    4.1050   -0.5420 C   0  0  0  0  0  0  0  0  0  0  0  0
   -1.6770    3.1610   -1.3330 O   0  0  0  0  0  0  0  0  0  0  0  0
    0.7310    2.7150    1.6470 C   0  0  0  0  0  0  0  0  0  0  0  0
    0.9170    3.9240    1.3750 O   0  0  0  0  0  0  0  0  0  0  0  0
   -1.9880    5.3830   -1.0530 O   0  0  0  0  0  0  0  0  0  0  0  0
    1.5760    2.1520    2.6080 O   0  0  0  0  0  0  0  0  0  0  0  0
   -0.2200    0.3470    2.4760 H   0  0  0  0  0  0  0  0  0  0  0  0
   -0.1880    1.9920   -0.0980 H   0  0  0  0  0  0  0  0  0  0  0  0
   -1.7630    2.4700    2.4810 H   0  0  0  0  0  0  0  0  0  0  0  0
   -2.4850    1.7780    1.0310 H   0  0  0  0  0  0  0  0  0  0  0  0
   -2.9330    4.2300    1.2690 H   0  0  0  0  0  0  0  0  0  0  0  0
   -1.2280    4.6190    1.3970 H   0  0  0  0  0  0  0  0  0  0  0  0
   -1.7800    5.5530   -2.0290 H   0  0  0  0  0  0  0  0  0  0  0  0
  1  6  1  0  0  0  0
  1  5  1  0  0  0  0
  2  1  1  0  0  0  0
  2  8  1  0  0  0  0
  2  3  1  0  0  0  0
  3 14  1  0  0  0  0
  3  4  2  0  0  0  0
  7  2  1  0  0  0  0
  9 18  1  0  0  0  0
  9 19  1  0  0  0  0
 10 12  1  0  0  0  0
 10  9  1  0  0  0  0
 11 23  1  0  0  0  0
 11 10  1  0  0  0  0
 12 24  1  0  0  0  0
 12 25  1  0  0  0  0
 13 26  1  1  0  0  0
 13 12  1  0  0  0  0
 14 13  1  0  0  0  0
 15 13  1  0  0  0  0
 15 28  1  0  0  0  0
 16 15  2  0  0  0  0
 17  9  1  0  0  0  0
 20 10  1  0  0  0  0
 21 11  1  0  0  0  0
 22 11  1  0  0  0  0
 27 14  1  0  0  0  0
 28 38  1  0  0  0  0
 29 39  1  6  0  0  0
 29 30  1  0  0  0  0
 29 28  1  0  0  0  0
 29 34  1  0  0  0  0
 30 40  1  0  0  0  0
 31 42  1  0  0  0  0
 31 30  1  0  0  0  0
 31 43  1  0  0  0  0
 32 31  1  0  0  0  0
 33 32  2  0  0  0  0
 34 37  1  0  0  0  0
 35 34  2  0  0  0  0
 36 32  1  0  0  0  0
 41 30  1  0  0  0  0
 44 36  1  0  0  0  0
M  END
$$$$
