GLF.pdb
 OpenBabel07022418233D

 48 48  0  0  1  0  0  0  0  0999 V2000
   -0.2950   -5.0860    2.7520 N   0  0  0  0  0  0  0  0  0  0  0  0
    1.1310   -5.0530    3.0220 C   0  0  0  0  0  0  0  0  0  0  0  0
    1.7320   -3.8860    2.3230 C   0  0  0  0  0  0  0  0  0  0  0  0
    2.9670   -3.6580    2.4160 O   0  0  0  0  0  0  0  0  0  0  0  0
   -0.8720   -4.7770    3.5540 H   0  0  0  0  0  0  0  0  0  0  0  0
   -0.6250   -5.9910    2.3880 H   0  0  0  0  0  0  0  0  0  0  0  0
    1.6280   -6.0010    2.7420 H   0  0  0  0  0  0  0  0  0  0  0  0
    1.2380   -4.8420    4.1160 H   0  0  0  0  0  0  0  0  0  0  0  0
   -1.0010   -1.2490   -1.2540 C   0  0  0  0  0  0  0  0  0  0  0  0
    0.1360   -2.1690   -1.3620 C   0  0  0  0  0  0  0  0  0  0  0  0
    0.5190   -2.2480   -2.8540 C   0  0  0  0  0  0  0  0  0  0  0  0
    1.3710   -1.9350   -0.6280 C   0  0  0  0  0  0  0  0  0  0  0  0
    1.4090   -1.8610    0.8320 C   0  0  2  0  0  0  0  0  0  0  0  0
    0.9470   -3.0180    1.5510 N   0  0  0  0  0  0  0  0  0  0  0  0
    1.0010   -0.5990    1.4820 C   0  0  0  0  0  0  0  0  0  0  0  0
    0.3490   -0.6850    2.5700 O   0  0  0  0  0  0  0  0  0  0  0  0
   -1.7530   -1.5100   -0.4840 H   0  0  0  0  0  0  0  0  0  0  0  0
   -0.7550   -0.1830   -1.1560 H   0  0  0  0  0  0  0  0  0  0  0  0
   -1.5940   -1.3190   -2.2170 H   0  0  0  0  0  0  0  0  0  0  0  0
   -0.2450   -3.2150   -1.1520 H   0  0  0  0  0  0  0  0  0  0  0  0
    0.8000   -1.1940   -3.1260 H   0  0  0  0  0  0  0  0  0  0  0  0
    1.4100   -2.8620   -3.0100 H   0  0  0  0  0  0  0  0  0  0  0  0
   -0.3440   -2.5360   -3.4640 H   0  0  0  0  0  0  0  0  0  0  0  0
    2.1040   -2.7340   -0.9660 H   0  0  0  0  0  0  0  0  0  0  0  0
    1.8700   -0.9990   -1.0280 H   0  0  0  0  0  0  0  0  0  0  0  0
    2.5490   -1.8810    1.0800 H   0  0  0  0  0  0  0  0  0  0  0  0
   -0.0900   -3.2460    1.4990 H   0  0  0  0  0  0  0  0  0  0  0  0
    1.2760    0.6850    1.0040 N   0  0  0  0  0  0  0  0  0  0  0  0
    0.9360    1.9450    1.5680 C   0  0  1  0  0  0  0  0  0  0  0  0
   -0.3940    2.1460    2.1900 C   0  0  0  0  0  0  0  0  0  0  0  0
   -1.5110    2.0040    1.2550 C   0  0  0  0  0  0  0  0  0  0  0  0
   -2.2510    0.8710    1.0760 C   0  0  0  0  0  0  0  0  0  0  0  0
   -3.2910    0.8190    0.1630 C   0  0  0  0  0  0  0  0  0  0  0  0
   -3.5870    1.9320   -0.5790 C   0  0  0  0  0  0  0  0  0  0  0  0
   -2.8670    3.1010   -0.4320 C   0  0  0  0  0  0  0  0  0  0  0  0
   -1.8510    3.1280    0.4680 C   0  0  0  0  0  0  0  0  0  0  0  0
    2.0540    2.4790    2.3780 C   0  0  0  0  0  0  0  0  0  0  0  0
    2.0090    3.5790    2.9840 O   0  0  0  0  0  0  0  0  0  0  0  0
    3.2210    1.7380    2.4830 O   0  0  0  0  0  0  0  0  0  0  0  0
    1.8240    0.7060    0.0850 H   0  0  0  0  0  0  0  0  0  0  0  0
    0.8860    2.6890    0.6670 H   0  0  0  0  0  0  0  0  0  0  0  0
   -0.5400    1.5760    3.1360 H   0  0  0  0  0  0  0  0  0  0  0  0
   -0.3960    3.2220    2.5460 H   0  0  0  0  0  0  0  0  0  0  0  0
   -2.0250   -0.0240    1.6770 H   0  0  0  0  0  0  0  0  0  0  0  0
   -3.8520   -0.1000    0.0530 H   0  0  0  0  0  0  0  0  0  0  0  0
   -4.3970    1.9140   -1.2990 H   0  0  0  0  0  0  0  0  0  0  0  0
   -3.1200    3.9800   -1.0360 H   0  0  0  0  0  0  0  0  0  0  0  0
   -1.2540    4.0390    0.6160 H   0  0  0  0  0  0  0  0  0  0  0  0
  1  2  1  0  0  0  0
  1  5  1  0  0  0  0
  2  8  1  0  0  0  0
  3  4  2  0  0  0  0
  3  2  1  0  0  0  0
  6  1  1  0  0  0  0
  7  2  1  0  0  0  0
  9 18  1  0  0  0  0
  9 17  1  0  0  0  0
 10  9  1  0  0  0  0
 10 20  1  0  0  0  0
 10 12  1  0  0  0  0
 11 10  1  0  0  0  0
 12 13  1  0  0  0  0
 13 26  1  1  0  0  0
 13 15  1  0  0  0  0
 13 14  1  0  0  0  0
 14  3  1  0  0  0  0
 15 16  2  0  0  0  0
 19  9  1  0  0  0  0
 21 11  1  0  0  0  0
 22 11  1  0  0  0  0
 23 11  1  0  0  0  0
 24 12  1  0  0  0  0
 25 12  1  0  0  0  0
 27 14  1  0  0  0  0
 28 15  1  0  0  0  0
 28 29  1  0  0  0  0
 29 41  1  6  0  0  0
 29 30  1  0  0  0  0
 29 37  1  0  0  0  0
 30 43  1  0  0  0  0
 30 42  1  0  0  0  0
 31 30  1  0  0  0  0
 32 31  1  0  0  0  0
 32 44  1  0  0  0  0
 33 32  2  0  0  0  0
 34 35  2  0  0  0  0
 34 33  1  0  0  0  0
 35 36  1  0  0  0  0
 36 48  1  0  0  0  0
 36 31  2  0  0  0  0
 37 39  2  0  0  0  0
 37 38  1  0  0  0  0
 40 28  1  0  0  0  0
 45 33  1  0  0  0  0
 46 34  1  0  0  0  0
 47 35  1  0  0  0  0
M  END
$$$$
