GLG.pdb
 OpenBabel07022418233D

 35 34  0  0  1  0  0  0  0  0999 V2000
   -0.2470   -2.8830   -2.4150 N   0  0  0  0  0  0  0  0  0  0  0  0
   -1.6000   -2.4130   -2.3140 C   0  0  0  0  0  0  0  0  0  0  0  0
   -1.7960   -1.5090   -1.1550 C   0  0  0  0  0  0  0  0  0  0  0  0
   -2.9440   -1.0300   -0.9600 O   0  0  0  0  0  0  0  0  0  0  0  0
   -0.0350   -3.4030   -1.5270 H   0  0  0  0  0  0  0  0  0  0  0  0
   -0.2420   -3.6280   -3.1680 H   0  0  0  0  0  0  0  0  0  0  0  0
   -1.9910   -1.9890   -3.2540 H   0  0  0  0  0  0  0  0  0  0  0  0
   -2.2400   -3.3190   -2.1050 H   0  0  0  0  0  0  0  0  0  0  0  0
    1.6810   -0.6620    2.6400 C   0  0  0  0  0  0  0  0  0  0  0  0
    0.4620   -1.5650    2.6450 C   0  0  0  0  0  0  0  0  0  0  0  0
    0.8330   -2.8410    1.9980 C   0  0  0  0  0  0  0  0  0  0  0  0
   -0.7650   -0.8900    2.2020 C   0  0  0  0  0  0  0  0  0  0  0  0
   -0.8920   -0.2920    0.8710 C   0  0  2  0  0  0  0  0  0  0  0  0
   -0.7360   -1.1570   -0.2500 N   0  0  0  0  0  0  0  0  0  0  0  0
   -0.2200    1.0350    0.6810 C   0  0  0  0  0  0  0  0  0  0  0  0
   -0.2440    1.9250    1.5670 O   0  0  0  0  0  0  0  0  0  0  0  0
    1.4630    0.3230    3.1100 H   0  0  0  0  0  0  0  0  0  0  0  0
    2.5110   -1.1060    3.2280 H   0  0  0  0  0  0  0  0  0  0  0  0
    2.0750   -0.5500    1.5960 H   0  0  0  0  0  0  0  0  0  0  0  0
    0.3170   -1.8070    3.7460 H   0  0  0  0  0  0  0  0  0  0  0  0
   -0.0600   -3.4720    1.7640 H   0  0  0  0  0  0  0  0  0  0  0  0
    1.5080   -2.7380    1.1250 H   0  0  0  0  0  0  0  0  0  0  0  0
    1.4200   -3.4410    2.7290 H   0  0  0  0  0  0  0  0  0  0  0  0
   -0.9900   -0.0760    2.9560 H   0  0  0  0  0  0  0  0  0  0  0  0
   -1.6310   -1.6040    2.3450 H   0  0  0  0  0  0  0  0  0  0  0  0
   -1.9950    0.0200    0.8310 H   0  0  0  0  0  0  0  0  0  0  0  0
    0.1830   -1.6200   -0.5180 H   0  0  0  0  0  0  0  0  0  0  0  0
    0.4820    1.3730   -0.5040 N   0  0  0  0  0  0  0  0  0  0  0  0
    1.1050    2.6430   -0.6580 C   0  0  0  0  0  0  0  0  0  0  0  0
    2.1480    2.9650    0.3370 C   0  0  0  0  0  0  0  0  0  0  0  0
    2.7120    4.0950    0.2140 O   0  0  0  0  0  0  0  0  0  0  0  0
    2.5600    2.1700    1.3660 O   0  0  0  0  0  0  0  0  0  0  0  0
    0.5500    0.6710   -1.2960 H   0  0  0  0  0  0  0  0  0  0  0  0
    0.2910    3.4160   -0.5810 H   0  0  0  0  0  0  0  0  0  0  0  0
    1.5580    2.7440   -1.6790 H   0  0  0  0  0  0  0  0  0  0  0  0
  1  2  1  0  0  0  0
  1  5  1  0  0  0  0
  2  8  1  0  0  0  0
  2  3  1  0  0  0  0
  3  4  2  0  0  0  0
  3 14  1  0  0  0  0
  6  1  1  0  0  0  0
  7  2  1  0  0  0  0
  9 10  1  0  0  0  0
  9 17  1  0  0  0  0
  9 18  1  0  0  0  0
 10 20  1  0  0  0  0
 11 10  1  0  0  0  0
 11 23  1  0  0  0  0
 12 25  1  0  0  0  0
 12 10  1  0  0  0  0
 12 24  1  0  0  0  0
 13 26  1  6  0  0  0
 13 12  1  0  0  0  0
 14 13  1  0  0  0  0
 15 13  1  0  0  0  0
 15 16  2  0  0  0  0
 19  9  1  0  0  0  0
 21 11  1  0  0  0  0
 22 11  1  0  0  0  0
 27 14  1  0  0  0  0
 28 15  1  0  0  0  0
 29 34  1  0  0  0  0
 29 28  1  0  0  0  0
 29 30  1  0  0  0  0
 30 32  1  0  0  0  0
 31 30  2  0  0  0  0
 33 28  1  0  0  0  0
 35 29  1  0  0  0  0
M  END
$$$$
