GLH.pdb
 OpenBabel07022418233D

 45 45  0  0  1  0  0  0  0  0999 V2000
    1.8010   -4.6020    2.1500 N   0  0  0  0  0  0  0  0  0  0  0  0
    2.2330   -3.9310    3.3350 C   0  0  0  0  0  0  0  0  0  0  0  0
    2.1760   -2.4650    3.1160 C   0  0  0  0  0  0  0  0  0  0  0  0
    2.5240   -1.6700    4.0610 O   0  0  0  0  0  0  0  0  0  0  0  0
    0.8360   -4.4240    1.8550 H   0  0  0  0  0  0  0  0  0  0  0  0
    2.5090   -4.6720    1.4130 H   0  0  0  0  0  0  0  0  0  0  0  0
    3.3080   -4.2330    3.4980 H   0  0  0  0  0  0  0  0  0  0  0  0
    1.6680   -4.2140    4.2400 H   0  0  0  0  0  0  0  0  0  0  0  0
    3.4930   -0.1710   -1.7990 C   0  0  0  0  0  0  0  0  0  0  0  0
    2.4570   -0.7400   -0.8140 C   0  0  0  0  0  0  0  0  0  0  0  0
    1.1230   -0.4460   -1.4670 C   0  0  0  0  0  0  0  0  0  0  0  0
    2.5890   -0.1090    0.5300 C   0  0  0  0  0  0  0  0  0  0  0  0
    1.6550   -0.5660    1.5810 C   0  0  2  0  0  0  0  0  0  0  0  0
    1.7370   -1.9770    1.8670 N   0  0  0  0  0  0  0  0  0  0  0  0
    0.2480   -0.0910    1.4530 C   0  0  0  0  0  0  0  0  0  0  0  0
   -0.6350   -0.9630    1.6000 O   0  0  0  0  0  0  0  0  0  0  0  0
    3.6020   -0.9180   -2.6080 H   0  0  0  0  0  0  0  0  0  0  0  0
    4.4250    0.0920   -1.2930 H   0  0  0  0  0  0  0  0  0  0  0  0
    3.0930    0.7560   -2.2710 H   0  0  0  0  0  0  0  0  0  0  0  0
    2.6460   -1.8290   -0.7750 H   0  0  0  0  0  0  0  0  0  0  0  0
    1.1450   -0.6850   -2.5560 H   0  0  0  0  0  0  0  0  0  0  0  0
    0.3040   -0.9930   -0.9670 H   0  0  0  0  0  0  0  0  0  0  0  0
    0.9260    0.6380   -1.3260 H   0  0  0  0  0  0  0  0  0  0  0  0
    2.5320    1.0120    0.4560 H   0  0  0  0  0  0  0  0  0  0  0  0
    3.6630   -0.2780    0.8460 H   0  0  0  0  0  0  0  0  0  0  0  0
    2.0040   -0.0520    2.5390 H   0  0  0  0  0  0  0  0  0  0  0  0
    1.4560   -2.6330    1.1050 H   0  0  0  0  0  0  0  0  0  0  0  0
   -0.0870    1.2450    1.1880 N   0  0  0  0  0  0  0  0  0  0  0  0
   -1.3350    1.8880    1.0120 C   0  0  1  0  0  0  0  0  0  0  0  0
   -2.5890    1.1600    1.3440 C   0  0  0  0  0  0  0  0  0  0  0  0
   -2.9650    0.0220    0.5340 C   0  0  0  0  0  0  0  0  0  0  0  0
   -4.0710   -0.7720    0.8010 C   0  0  0  0  0  0  0  0  0  0  0  0
   -4.1040   -1.7340   -0.1630 N   0  0  0  0  0  0  0  0  0  0  0  0
   -3.0730   -1.5580   -0.9960 C   0  0  0  0  0  0  0  0  0  0  0  0
   -2.3960   -0.4910   -0.5560 N   0  0  0  0  0  0  0  0  0  0  0  0
   -1.4220    3.2810    1.4770 C   0  0  0  0  0  0  0  0  0  0  0  0
   -0.4160    3.8380    1.9970 O   0  0  0  0  0  0  0  0  0  0  0  0
   -2.5730    4.0480    1.3790 O   0  0  0  0  0  0  0  0  0  0  0  0
    0.8200    1.8640    1.1150 H   0  0  0  0  0  0  0  0  0  0  0  0
   -1.3850    1.9620   -0.1820 H   0  0  0  0  0  0  0  0  0  0  0  0
   -3.4540    1.8910    1.3970 H   0  0  0  0  0  0  0  0  0  0  0  0
   -2.4890    0.8100    2.4030 H   0  0  0  0  0  0  0  0  0  0  0  0
   -4.7910   -0.6810    1.6030 H   0  0  0  0  0  0  0  0  0  0  0  0
   -4.8410   -2.4750   -0.2050 H   0  0  0  0  0  0  0  0  0  0  0  0
   -2.8410   -2.1610   -1.8470 H   0  0  0  0  0  0  0  0  0  0  0  0
  1  2  1  0  0  0  0
  2  7  1  0  0  0  0
  2  8  1  0  0  0  0
  3  2  1  0  0  0  0
  3  4  2  0  0  0  0
  5  1  1  0  0  0  0
  6  1  1  0  0  0  0
  9 18  1  0  0  0  0
  9 10  1  0  0  0  0
 10 20  1  0  0  0  0
 10 12  1  0  0  0  0
 11 23  1  0  0  0  0
 11 22  1  0  0  0  0
 11 10  1  0  0  0  0
 12 25  1  0  0  0  0
 12 13  1  0  0  0  0
 13 14  1  0  0  0  0
 13 26  1  1  0  0  0
 14  3  1  0  0  0  0
 15 13  1  0  0  0  0
 15 16  2  0  0  0  0
 17  9  1  0  0  0  0
 19  9  1  0  0  0  0
 21 11  1  0  0  0  0
 24 12  1  0  0  0  0
 27 14  1  0  0  0  0
 28 15  1  0  0  0  0
 29 40  1  6  0  0  0
 29 28  1  0  0  0  0
 29 30  1  0  0  0  0
 29 36  1  0  0  0  0
 30 41  1  0  0  0  0
 30 42  1  0  0  0  0
 31 32  2  0  0  0  0
 31 30  1  0  0  0  0
 32 43  1  0  0  0  0
 33 32  1  0  0  0  0
 34 35  2  0  0  0  0
 34 33  1  0  0  0  0
 35 31  1  0  0  0  0
 36 37  1  0  0  0  0
 38 36  2  0  0  0  0
 39 28  1  0  0  0  0
 44 33  1  0  0  0  0
 45 34  1  0  0  0  0
M  END
$$$$
