GLI.pdb
 OpenBabel07022418233D

 47 46  0  0  1  0  0  0  0  0999 V2000
    0.0230   -5.5980    1.9030 N   0  0  0  0  0  0  0  0  0  0  0  0
    1.4030   -5.2310    1.8060 C   0  0  0  0  0  0  0  0  0  0  0  0
    1.4960   -3.8960    1.1510 C   0  0  0  0  0  0  0  0  0  0  0  0
    2.6340   -3.3820    0.9660 O   0  0  0  0  0  0  0  0  0  0  0  0
   -0.4740   -4.9030    2.4830 H   0  0  0  0  0  0  0  0  0  0  0  0
   -0.3740   -5.6600    0.9460 H   0  0  0  0  0  0  0  0  0  0  0  0
    2.0120   -5.9470    1.2320 H   0  0  0  0  0  0  0  0  0  0  0  0
    1.8820   -5.1230    2.8060 H   0  0  0  0  0  0  0  0  0  0  0  0
    1.2970   -0.3030   -2.4400 C   0  0  0  0  0  0  0  0  0  0  0  0
   -0.0900   -0.8960   -2.2090 C   0  0  0  0  0  0  0  0  0  0  0  0
   -0.6970   -1.2750   -3.5820 C   0  0  0  0  0  0  0  0  0  0  0  0
   -0.0750   -2.0620   -1.3030 C   0  0  0  0  0  0  0  0  0  0  0  0
    0.4400   -1.8640    0.0800 C   0  0  2  0  0  0  0  0  0  0  0  0
    0.3390   -3.1890    0.7300 N   0  0  0  0  0  0  0  0  0  0  0  0
   -0.2350   -0.8520    0.8900 C   0  0  0  0  0  0  0  0  0  0  0  0
   -0.9180   -1.2750    1.8940 O   0  0  0  0  0  0  0  0  0  0  0  0
    1.8290   -0.9890   -3.1390 H   0  0  0  0  0  0  0  0  0  0  0  0
    1.2600    0.7360   -2.7870 H   0  0  0  0  0  0  0  0  0  0  0  0
    1.8800   -0.3270   -1.4970 H   0  0  0  0  0  0  0  0  0  0  0  0
   -0.7350   -0.0970   -1.8480 H   0  0  0  0  0  0  0  0  0  0  0  0
   -1.7060   -1.6740   -3.3490 H   0  0  0  0  0  0  0  0  0  0  0  0
   -0.8470   -0.3610   -4.1910 H   0  0  0  0  0  0  0  0  0  0  0  0
   -0.0460   -2.0020   -4.1000 H   0  0  0  0  0  0  0  0  0  0  0  0
   -1.0980   -2.5240   -1.3160 H   0  0  0  0  0  0  0  0  0  0  0  0
    0.6040   -2.8350   -1.7740 H   0  0  0  0  0  0  0  0  0  0  0  0
    1.5190   -1.6270    0.0300 H   0  0  0  0  0  0  0  0  0  0  0  0
   -0.5860   -3.6330    0.8930 H   0  0  0  0  0  0  0  0  0  0  0  0
    0.5590    1.0190    4.2060 C   0  0  0  0  0  0  0  0  0  0  0  0
    1.0380    1.8690    3.0740 C   0  0  0  0  0  0  0  0  0  0  0  0
   -0.0860    2.4480    2.2540 C   0  0  2  0  0  0  0  0  0  0  0  0
   -0.9260    3.2980    3.1830 C   0  0  0  0  0  0  0  0  0  0  0  0
   -0.9730    1.4260    1.6270 C   0  0  2  0  0  0  0  0  0  0  0  0
   -0.2360    0.5420    0.7210 N   0  0  0  0  0  0  0  0  0  0  0  0
   -1.9970    2.1270    0.8270 C   0  0  0  0  0  0  0  0  0  0  0  0
   -2.8040    2.9610    1.3160 O   0  0  0  0  0  0  0  0  0  0  0  0
   -2.1040    1.8780   -0.5270 O   0  0  0  0  0  0  0  0  0  0  0  0
    0.4660   -0.0490    3.9270 H   0  0  0  0  0  0  0  0  0  0  0  0
    1.2950    1.1130    5.0400 H   0  0  0  0  0  0  0  0  0  0  0  0
   -0.4060    1.4490    4.5820 H   0  0  0  0  0  0  0  0  0  0  0  0
    1.5980    2.7270    3.5000 H   0  0  0  0  0  0  0  0  0  0  0  0
    1.7560    1.2860    2.4810 H   0  0  0  0  0  0  0  0  0  0  0  0
    0.3220    3.1150    1.4770 H   0  0  0  0  0  0  0  0  0  0  0  0
   -0.3480    3.5780    4.0890 H   0  0  0  0  0  0  0  0  0  0  0  0
   -1.3570    4.1880    2.6770 H   0  0  0  0  0  0  0  0  0  0  0  0
   -1.7650    2.6640    3.5370 H   0  0  0  0  0  0  0  0  0  0  0  0
   -1.4850    0.8180    2.4070 H   0  0  0  0  0  0  0  0  0  0  0  0
    0.3160    0.9450   -0.0630 H   0  0  0  0  0  0  0  0  0  0  0  0
  1  5  1  0  0  0  0
  2  1  1  0  0  0  0
  2  8  1  0  0  0  0
  3  2  1  0  0  0  0
  4  3  2  0  0  0  0
  6  1  1  0  0  0  0
  7  2  1  0  0  0  0
  9 10  1  0  0  0  0
  9 19  1  0  0  0  0
 10 20  1  0  0  0  0
 10 12  1  0  0  0  0
 11 21  1  0  0  0  0
 11 10  1  0  0  0  0
 12 13  1  0  0  0  0
 13 26  1  6  0  0  0
 13 14  1  0  0  0  0
 13 15  1  0  0  0  0
 14 27  1  0  0  0  0
 14  3  1  0  0  0  0
 15 16  2  0  0  0  0
 17  9  1  0  0  0  0
 18  9  1  0  0  0  0
 22 11  1  0  0  0  0
 23 11  1  0  0  0  0
 24 12  1  0  0  0  0
 25 12  1  0  0  0  0
 28 39  1  0  0  0  0
 28 38  1  0  0  0  0
 29 40  1  0  0  0  0
 29 28  1  0  0  0  0
 30 42  1  6  0  0  0
 30 29  1  0  0  0  0
 30 31  1  0  0  0  0
 31 45  1  0  0  0  0
 31 43  1  0  0  0  0
 32 30  1  0  0  0  0
 32 46  1  1  0  0  0
 33 15  1  0  0  0  0
 33 32  1  0  0  0  0
 34 35  1  0  0  0  0
 34 32  1  0  0  0  0
 36 34  2  0  0  0  0
 37 28  1  0  0  0  0
 41 29  1  0  0  0  0
 44 31  1  0  0  0  0
 47 33  1  0  0  0  0
M  END
$$$$
