GLL.pdb
 OpenBabel07022418233D

 47 46  0  0  1  0  0  0  0  0999 V2000
   -1.8770   -4.8100    0.9270 N   0  0  0  0  0  0  0  0  0  0  0  0
   -0.4570   -5.0830    0.8980 C   0  0  0  0  0  0  0  0  0  0  0  0
    0.2680   -3.8990    0.3360 C   0  0  0  0  0  0  0  0  0  0  0  0
    1.5340   -3.9240    0.2190 O   0  0  0  0  0  0  0  0  0  0  0  0
   -2.0280   -4.0270    1.5810 H   0  0  0  0  0  0  0  0  0  0  0  0
   -2.2120   -4.6430   -0.0280 H   0  0  0  0  0  0  0  0  0  0  0  0
   -0.2750   -5.9990    0.3030 H   0  0  0  0  0  0  0  0  0  0  0  0
   -0.1480   -5.2450    1.9680 H   0  0  0  0  0  0  0  0  0  0  0  0
    1.4470   -0.1610   -3.1600 C   0  0  0  0  0  0  0  0  0  0  0  0
   -0.0030   -0.2550   -2.8250 C   0  0  0  0  0  0  0  0  0  0  0  0
   -0.6150    1.0690   -2.4760 C   0  0  0  0  0  0  0  0  0  0  0  0
   -0.3990   -1.3790   -1.9650 C   0  0  0  0  0  0  0  0  0  0  0  0
    0.1860   -1.5490   -0.6270 C   0  0  2  0  0  0  0  0  0  0  0  0
   -0.4380   -2.7560   -0.0650 N   0  0  0  0  0  0  0  0  0  0  0  0
    0.0640   -0.4330    0.3250 C   0  0  0  0  0  0  0  0  0  0  0  0
    0.5800    0.6970    0.1170 O   0  0  0  0  0  0  0  0  0  0  0  0
    2.1290   -0.2690   -2.3210 H   0  0  0  0  0  0  0  0  0  0  0  0
    1.7430   -0.9290   -3.9280 H   0  0  0  0  0  0  0  0  0  0  0  0
    1.6350    0.8250   -3.6330 H   0  0  0  0  0  0  0  0  0  0  0  0
   -0.4830   -0.5090   -3.8530 H   0  0  0  0  0  0  0  0  0  0  0  0
   -1.3950    1.0200   -1.6880 H   0  0  0  0  0  0  0  0  0  0  0  0
    0.1630    1.8590   -2.2730 H   0  0  0  0  0  0  0  0  0  0  0  0
   -1.1750    1.5270   -3.3560 H   0  0  0  0  0  0  0  0  0  0  0  0
   -1.5280   -1.3620   -1.8280 H   0  0  0  0  0  0  0  0  0  0  0  0
   -0.2560   -2.3710   -2.5010 H   0  0  0  0  0  0  0  0  0  0  0  0
    1.2830   -1.8150   -0.6730 H   0  0  0  0  0  0  0  0  0  0  0  0
   -1.4690   -2.7320    0.0260 H   0  0  0  0  0  0  0  0  0  0  0  0
    2.2820    2.4130    3.0240 C   0  0  0  0  0  0  0  0  0  0  0  0
    1.4840    1.1330    2.9550 C   0  0  0  0  0  0  0  0  0  0  0  0
    1.6480    0.4750    4.3290 C   0  0  0  0  0  0  0  0  0  0  0  0
    0.0560    1.4630    2.6830 C   0  0  0  0  0  0  0  0  0  0  0  0
   -0.8810    0.2940    2.5680 C   0  0  2  0  0  0  0  0  0  0  0  0
   -0.6570   -0.6270    1.5180 N   0  0  0  0  0  0  0  0  0  0  0  0
   -2.2660    0.7670    2.5750 C   0  0  0  0  0  0  0  0  0  0  0  0
   -3.0990    0.3430    1.7010 O   0  0  0  0  0  0  0  0  0  0  0  0
   -2.7760    1.6780    3.4890 O   0  0  0  0  0  0  0  0  0  0  0  0
    1.5980    3.2590    2.7350 H   0  0  0  0  0  0  0  0  0  0  0  0
    3.1360    2.3410    2.3180 H   0  0  0  0  0  0  0  0  0  0  0  0
    2.6340    2.6040    4.0580 H   0  0  0  0  0  0  0  0  0  0  0  0
    1.9690    0.4550    2.2500 H   0  0  0  0  0  0  0  0  0  0  0  0
    2.7370    0.4650    4.5410 H   0  0  0  0  0  0  0  0  0  0  0  0
    1.1590    1.0500    5.1150 H   0  0  0  0  0  0  0  0  0  0  0  0
    1.3270   -0.5850    4.2720 H   0  0  0  0  0  0  0  0  0  0  0  0
   -0.3690    2.0930    3.5270 H   0  0  0  0  0  0  0  0  0  0  0  0
   -0.0590    2.0970    1.7920 H   0  0  0  0  0  0  0  0  0  0  0  0
   -0.6920   -0.2500    3.5710 H   0  0  0  0  0  0  0  0  0  0  0  0
   -1.0940   -1.5980    1.6550 H   0  0  0  0  0  0  0  0  0  0  0  0
  1  5  1  0  0  0  0
  2  1  1  0  0  0  0
  2  8  1  0  0  0  0
  3  2  1  0  0  0  0
  4  3  2  0  0  0  0
  6  1  1  0  0  0  0
  7  2  1  0  0  0  0
  9 10  1  0  0  0  0
  9 17  1  0  0  0  0
 10 11  1  0  0  0  0
 10 12  1  0  0  0  0
 11 22  1  0  0  0  0
 11 21  1  0  0  0  0
 12 24  1  0  0  0  0
 12 13  1  0  0  0  0
 13 26  1  6  0  0  0
 13 14  1  0  0  0  0
 13 15  1  0  0  0  0
 14 27  1  0  0  0  0
 14  3  1  0  0  0  0
 15 33  1  0  0  0  0
 16 15  2  0  0  0  0
 18  9  1  0  0  0  0
 19  9  1  0  0  0  0
 20 10  1  0  0  0  0
 23 11  1  0  0  0  0
 25 12  1  0  0  0  0
 28 39  1  0  0  0  0
 29 28  1  0  0  0  0
 29 30  1  0  0  0  0
 30 41  1  0  0  0  0
 30 42  1  0  0  0  0
 31 29  1  0  0  0  0
 31 44  1  0  0  0  0
 32 34  1  0  0  0  0
 32 31  1  0  0  0  0
 32 46  1  1  0  0  0
 33 47  1  0  0  0  0
 33 32  1  0  0  0  0
 34 36  1  0  0  0  0
 35 34  2  0  0  0  0
 37 28  1  0  0  0  0
 38 28  1  0  0  0  0
 40 29  1  0  0  0  0
 43 30  1  0  0  0  0
 45 31  1  0  0  0  0
M  END
$$$$
