GLM.pdb
 OpenBabel07022418233D

 45 44  0  0  1  0  0  0  0  0999 V2000
   -1.1770   -0.6980   -3.2080 N   0  0  0  0  0  0  0  0  0  0  0  0
   -2.2390   -1.5150   -2.6550 C   0  0  0  0  0  0  0  0  0  0  0  0
   -1.8700   -1.9310   -1.2590 C   0  0  0  0  0  0  0  0  0  0  0  0
   -2.6320   -2.6450   -0.5710 O   0  0  0  0  0  0  0  0  0  0  0  0
   -1.1770    0.2570   -2.7470 H   0  0  0  0  0  0  0  0  0  0  0  0
   -1.3510   -0.5430   -4.2220 H   0  0  0  0  0  0  0  0  0  0  0  0
   -3.1950   -0.9290   -2.5950 H   0  0  0  0  0  0  0  0  0  0  0  0
   -2.3420   -2.4320   -3.2390 H   0  0  0  0  0  0  0  0  0  0  0  0
    2.0190   -2.3960    2.9010 C   0  0  0  0  0  0  0  0  0  0  0  0
    1.5780   -3.2860    1.8110 C   0  0  0  0  0  0  0  0  0  0  0  0
    2.6910   -4.2730    1.4110 C   0  0  0  0  0  0  0  0  0  0  0  0
    0.9750   -2.6840    0.6130 C   0  0  0  0  0  0  0  0  0  0  0  0
   -0.2800   -1.9340    0.6970 C   0  0  2  0  0  0  0  0  0  0  0  0
   -0.6390   -1.5070   -0.7120 N   0  0  0  0  0  0  0  0  0  0  0  0
   -0.3220   -0.7400    1.5360 C   0  0  0  0  0  0  0  0  0  0  0  0
   -0.1660   -0.6520    2.7610 O   0  0  0  0  0  0  0  0  0  0  0  0
    1.3880   -2.4090    3.8110 H   0  0  0  0  0  0  0  0  0  0  0  0
    3.0200   -2.8260    3.3260 H   0  0  0  0  0  0  0  0  0  0  0  0
    2.3150   -1.3810    2.6290 H   0  0  0  0  0  0  0  0  0  0  0  0
    0.8090   -3.9940    2.3010 H   0  0  0  0  0  0  0  0  0  0  0  0
    2.3370   -5.3090    1.3830 H   0  0  0  0  0  0  0  0  0  0  0  0
    3.0110   -4.0260    0.3670 H   0  0  0  0  0  0  0  0  0  0  0  0
    3.5440   -4.1940    2.1010 H   0  0  0  0  0  0  0  0  0  0  0  0
    0.8690   -3.5030   -0.1900 H   0  0  0  0  0  0  0  0  0  0  0  0
    1.7730   -2.0330    0.1070 H   0  0  0  0  0  0  0  0  0  0  0  0
   -1.1220   -2.5910    1.0430 H   0  0  0  0  0  0  0  0  0  0  0  0
    0.0420   -0.9270   -1.2030 H   0  0  0  0  0  0  0  0  0  0  0  0
    2.5550    1.4750    2.3130 C   0  0  0  0  0  0  0  0  0  0  0  0
    2.3800    3.0880    1.5380 S   0  0  0  0  0  0  0  0  0  0  0  0
    1.0460    3.0790    0.3440 C   0  0  0  0  0  0  0  0  0  0  0  0
   -0.3230    2.9890    0.9150 C   0  0  0  0  0  0  0  0  0  0  0  0
   -0.6440    1.7530    1.6380 C   0  0  2  0  0  0  0  0  0  0  0  0
   -0.5800    0.5270    0.8980 N   0  0  0  0  0  0  0  0  0  0  0  0
   -2.0780    1.8300    2.1420 C   0  0  0  0  0  0  0  0  0  0  0  0
   -2.4100    2.8090    2.8170 O   0  0  0  0  0  0  0  0  0  0  0  0
   -2.9410    0.8300    1.8380 O   0  0  0  0  0  0  0  0  0  0  0  0
    3.6470    1.2070    2.4380 H   0  0  0  0  0  0  0  0  0  0  0  0
    2.0870    0.7440    1.6330 H   0  0  0  0  0  0  0  0  0  0  0  0
    2.1190    1.4520    3.3160 H   0  0  0  0  0  0  0  0  0  0  0  0
    1.1440    3.9610   -0.3490 H   0  0  0  0  0  0  0  0  0  0  0  0
    1.2440    2.1770   -0.3330 H   0  0  0  0  0  0  0  0  0  0  0  0
   -1.1120    3.3010    0.1780 H   0  0  0  0  0  0  0  0  0  0  0  0
   -0.4100    3.8290    1.6890 H   0  0  0  0  0  0  0  0  0  0  0  0
   -0.0800    1.6660    2.5890 H   0  0  0  0  0  0  0  0  0  0  0  0
   -0.7320    0.6030   -0.1280 H   0  0  0  0  0  0  0  0  0  0  0  0
  1  5  1  0  0  0  0
  1  2  1  0  0  0  0
  2  7  1  0  0  0  0
  2  3  1  0  0  0  0
  3 14  1  0  0  0  0
  3  4  2  0  0  0  0
  6  1  1  0  0  0  0
  8  2  1  0  0  0  0
  9 18  1  0  0  0  0
  9 17  1  0  0  0  0
 10 20  1  0  0  0  0
 10  9  1  0  0  0  0
 11 10  1  0  0  0  0
 11 23  1  0  0  0  0
 12 13  1  0  0  0  0
 12 10  1  0  0  0  0
 13 26  1  1  0  0  0
 13 15  1  0  0  0  0
 14 13  1  0  0  0  0
 15 16  2  0  0  0  0
 19  9  1  0  0  0  0
 21 11  1  0  0  0  0
 22 11  1  0  0  0  0
 24 12  1  0  0  0  0
 25 12  1  0  0  0  0
 27 14  1  0  0  0  0
 28 37  1  0  0  0  0
 28 39  1  0  0  0  0
 29 28  1  0  0  0  0
 30 31  1  0  0  0  0
 30 29  1  0  0  0  0
 31 32  1  0  0  0  0
 31 43  1  0  0  0  0
 32 34  1  0  0  0  0
 32 44  1  1  0  0  0
 33 15  1  0  0  0  0
 33 32  1  0  0  0  0
 34 35  1  0  0  0  0
 36 34  2  0  0  0  0
 38 28  1  0  0  0  0
 40 30  1  0  0  0  0
 41 30  1  0  0  0  0
 42 31  1  0  0  0  0
 45 33  1  0  0  0  0
M  END
$$$$
