GLP.pdb
 OpenBabel07022418233D

 42 42  0  0  1  0  0  0  0  0999 V2000
    1.5210   -3.0670    2.9730 N   0  0  0  0  0  0  0  0  0  0  0  0
    2.3060   -3.2190    1.7730 C   0  0  0  0  0  0  0  0  0  0  0  0
    1.8000   -2.3870    0.6700 C   0  0  0  0  0  0  0  0  0  0  0  0
    2.4210   -2.4430   -0.4440 O   0  0  0  0  0  0  0  0  0  0  0  0
    1.7540   -2.1730    3.4290 H   0  0  0  0  0  0  0  0  0  0  0  0
    0.5210   -3.2690    2.8590 H   0  0  0  0  0  0  0  0  0  0  0  0
    2.3060   -4.2780    1.4770 H   0  0  0  0  0  0  0  0  0  0  0  0
    3.3580   -2.9590    2.0320 H   0  0  0  0  0  0  0  0  0  0  0  0
   -2.8880   -2.6800   -1.4430 C   0  0  0  0  0  0  0  0  0  0  0  0
   -1.4270   -2.4880   -1.0830 C   0  0  0  0  0  0  0  0  0  0  0  0
   -0.6280   -2.7120   -2.3500 C   0  0  0  0  0  0  0  0  0  0  0  0
   -1.2740   -1.0730   -0.5890 C   0  0  0  0  0  0  0  0  0  0  0  0
    0.1460   -0.7420   -0.1920 C   0  0  2  0  0  0  0  0  0  0  0  0
    0.6610   -1.5560    0.8470 N   0  0  0  0  0  0  0  0  0  0  0  0
    0.1910    0.7150    0.0210 C   0  0  0  0  0  0  0  0  0  0  0  0
   -0.3540    1.4130   -0.9050 O   0  0  0  0  0  0  0  0  0  0  0  0
   -3.4980   -2.1650   -0.6660 H   0  0  0  0  0  0  0  0  0  0  0  0
   -3.0660   -2.1350   -2.3920 H   0  0  0  0  0  0  0  0  0  0  0  0
   -3.1670   -3.7450   -1.5260 H   0  0  0  0  0  0  0  0  0  0  0  0
   -1.1910   -3.2390   -0.3020 H   0  0  0  0  0  0  0  0  0  0  0  0
   -0.1720   -1.7870   -2.7380 H   0  0  0  0  0  0  0  0  0  0  0  0
    0.2180   -3.4240   -2.1570 H   0  0  0  0  0  0  0  0  0  0  0  0
   -1.2570   -3.1660   -3.1630 H   0  0  0  0  0  0  0  0  0  0  0  0
   -1.9900   -0.8970    0.2130 H   0  0  0  0  0  0  0  0  0  0  0  0
   -1.5360   -0.4020   -1.4340 H   0  0  0  0  0  0  0  0  0  0  0  0
    0.7580   -0.9760   -1.1130 H   0  0  0  0  0  0  0  0  0  0  0  0
    0.1900   -1.5650    1.7790 H   0  0  0  0  0  0  0  0  0  0  0  0
    0.7670    1.3750    1.1240 N   0  0  0  0  0  0  0  0  0  0  0  0
    0.7250    2.8520    1.2430 C   0  0  0  0  0  0  0  0  0  0  0  0
    1.7830    3.2630    2.1980 C   0  0  0  0  0  0  0  0  0  0  0  0
    2.6080    2.0020    2.3310 C   0  0  0  0  0  0  0  0  0  0  0  0
    1.4700    0.9620    2.2900 C   0  0  1  0  0  0  0  0  0  0  0  0
    0.6940    1.1870    3.5440 C   0  0  0  0  0  0  0  0  0  0  0  0
    1.2330    0.8530    4.6290 O   0  0  0  0  0  0  0  0  0  0  0  0
   -0.5670    1.7340    3.5760 O   0  0  0  0  0  0  0  0  0  0  0  0
    0.9350    3.3020    0.2510 H   0  0  0  0  0  0  0  0  0  0  0  0
   -0.2900    3.1840    1.5280 H   0  0  0  0  0  0  0  0  0  0  0  0
    1.2790    3.5050    3.1770 H   0  0  0  0  0  0  0  0  0  0  0  0
    2.4060    4.1170    1.8670 H   0  0  0  0  0  0  0  0  0  0  0  0
    3.2510    1.9250    1.4460 H   0  0  0  0  0  0  0  0  0  0  0  0
    3.1450    1.9650    3.2940 H   0  0  0  0  0  0  0  0  0  0  0  0
    1.8640   -0.0430    2.3290 H   0  0  0  0  0  0  0  0  0  0  0  0
  1  5  1  0  0  0  0
  2  8  1  0  0  0  0
  2  1  1  0  0  0  0
  3 14  1  0  0  0  0
  3  2  1  0  0  0  0
  4  3  2  0  0  0  0
  6  1  1  0  0  0  0
  7  2  1  0  0  0  0
  9 10  1  0  0  0  0
  9 17  1  0  0  0  0
 10 12  1  0  0  0  0
 10 20  1  0  0  0  0
 11 22  1  0  0  0  0
 11 10  1  0  0  0  0
 12 13  1  0  0  0  0
 12 24  1  0  0  0  0
 13 26  1  6  0  0  0
 13 15  1  0  0  0  0
 13 14  1  0  0  0  0
 14 27  1  0  0  0  0
 15 28  1  0  0  0  0
 16 15  2  0  0  0  0
 18  9  1  0  0  0  0
 19  9  1  0  0  0  0
 21 11  1  0  0  0  0
 23 11  1  0  0  0  0
 25 12  1  0  0  0  0
 28 29  1  0  0  0  0
 28 32  1  0  0  0  0
 29 37  1  0  0  0  0
 29 30  1  0  0  0  0
 30 31  1  0  0  0  0
 30 38  1  0  0  0  0
 31 41  1  0  0  0  0
 32 42  1  6  0  0  0
 32 31  1  0  0  0  0
 32 33  1  0  0  0  0
 33 35  2  0  0  0  0
 33 34  1  0  0  0  0
 36 29  1  0  0  0  0
 39 30  1  0  0  0  0
 40 31  1  0  0  0  0
M  END
$$$$
