GLQ.pdb
 OpenBabel07022418233D

 45 44  0  0  1  0  0  0  0  0999 V2000
   -3.2560   -4.6550    1.3460 N   0  0  0  0  0  0  0  0  0  0  0  0
   -2.6440   -4.4780    0.0460 C   0  0  0  0  0  0  0  0  0  0  0  0
   -1.4670   -3.5930    0.1920 C   0  0  0  0  0  0  0  0  0  0  0  0
   -0.7610   -3.2870   -0.8140 O   0  0  0  0  0  0  0  0  0  0  0  0
   -3.5740   -3.7530    1.7590 H   0  0  0  0  0  0  0  0  0  0  0  0
   -2.6040   -5.0920    2.0330 H   0  0  0  0  0  0  0  0  0  0  0  0
   -3.3880   -3.9630   -0.6010 H   0  0  0  0  0  0  0  0  0  0  0  0
   -2.3720   -5.4760   -0.3400 H   0  0  0  0  0  0  0  0  0  0  0  0
    3.7800   -3.4360    1.3920 C   0  0  0  0  0  0  0  0  0  0  0  0
    2.6900   -2.3260    1.4880 C   0  0  0  0  0  0  0  0  0  0  0  0
    2.9190   -1.5510    0.1820 C   0  0  0  0  0  0  0  0  0  0  0  0
    1.3460   -2.9180    1.4380 C   0  0  0  0  0  0  0  0  0  0  0  0
    0.1160   -2.1630    1.5530 C   0  0  2  0  0  0  0  0  0  0  0  0
   -1.0760   -3.0550    1.4360 N   0  0  0  0  0  0  0  0  0  0  0  0
   -0.1930   -0.9350    0.8800 C   0  0  0  0  0  0  0  0  0  0  0  0
   -1.2630   -0.9140    0.1580 O   0  0  0  0  0  0  0  0  0  0  0  0
    4.7060   -2.8850    1.1250 H   0  0  0  0  0  0  0  0  0  0  0  0
    3.5310   -4.1380    0.5950 H   0  0  0  0  0  0  0  0  0  0  0  0
    3.8990   -3.8960    2.3900 H   0  0  0  0  0  0  0  0  0  0  0  0
    2.9700   -1.7830    2.3770 H   0  0  0  0  0  0  0  0  0  0  0  0
    2.0400   -1.5580   -0.4710 H   0  0  0  0  0  0  0  0  0  0  0  0
    3.3170   -0.5430    0.4210 H   0  0  0  0  0  0  0  0  0  0  0  0
    3.7210   -2.0600   -0.3750 H   0  0  0  0  0  0  0  0  0  0  0  0
    1.3800   -3.7590    2.2180 H   0  0  0  0  0  0  0  0  0  0  0  0
    1.2520   -3.5780    0.5070 H   0  0  0  0  0  0  0  0  0  0  0  0
    0.0510   -1.8820    2.6660 H   0  0  0  0  0  0  0  0  0  0  0  0
   -1.6530   -3.3080    2.2620 H   0  0  0  0  0  0  0  0  0  0  0  0
   -1.7450    6.0340    1.1520 N   0  0  0  0  0  0  0  0  0  0  0  0
   -1.2230    4.7600    1.5210 C   0  0  0  0  0  0  0  0  0  0  0  0
   -1.0650    4.4920    2.7170 O   0  0  0  0  0  0  0  0  0  0  0  0
   -0.8860    3.7950    0.4030 C   0  0  0  0  0  0  0  0  0  0  0  0
   -0.3700    2.5680    1.0690 C   0  0  0  0  0  0  0  0  0  0  0  0
    0.0130    1.4370    0.1320 C   0  0  2  0  0  0  0  0  0  0  0  0
    0.5010    0.2980    0.8830 N   0  0  0  0  0  0  0  0  0  0  0  0
    0.9080    1.8370   -0.9550 C   0  0  0  0  0  0  0  0  0  0  0  0
    0.5740    2.7820   -1.7150 O   0  0  0  0  0  0  0  0  0  0  0  0
    2.1420    1.2530   -1.2420 O   0  0  0  0  0  0  0  0  0  0  0  0
   -2.5570    6.4840    1.6270 H   0  0  0  0  0  0  0  0  0  0  0  0
   -1.2710    6.5300    0.3560 H   0  0  0  0  0  0  0  0  0  0  0  0
   -0.0460    4.2850   -0.1410 H   0  0  0  0  0  0  0  0  0  0  0  0
   -1.7950    3.6720   -0.1800 H   0  0  0  0  0  0  0  0  0  0  0  0
    0.5210    2.8840    1.6880 H   0  0  0  0  0  0  0  0  0  0  0  0
   -1.1290    2.2320    1.8010 H   0  0  0  0  0  0  0  0  0  0  0  0
   -0.9440    1.1280   -0.3500 H   0  0  0  0  0  0  0  0  0  0  0  0
    1.3660    0.3790    1.4550 H   0  0  0  0  0  0  0  0  0  0  0  0
  1  5  1  0  0  0  0
  1  6  1  0  0  0  0
  2  3  1  0  0  0  0
  2  1  1  0  0  0  0
  3 14  1  0  0  0  0
  4  3  2  0  0  0  0
  7  2  1  0  0  0  0
  8  2  1  0  0  0  0
  9 10  1  0  0  0  0
  9 19  1  0  0  0  0
 10 20  1  0  0  0  0
 11 22  1  0  0  0  0
 11 10  1  0  0  0  0
 12 10  1  0  0  0  0
 12 13  1  0  0  0  0
 12 24  1  0  0  0  0
 13 26  1  1  0  0  0
 14 13  1  0  0  0  0
 14 27  1  0  0  0  0
 15 34  1  0  0  0  0
 15 13  1  0  0  0  0
 16 15  2  0  0  0  0
 17  9  1  0  0  0  0
 18  9  1  0  0  0  0
 21 11  1  0  0  0  0
 23 11  1  0  0  0  0
 25 12  1  0  0  0  0
 28 29  1  0  0  0  0
 28 38  1  0  0  0  0
 29 30  2  0  0  0  0
 31 32  1  0  0  0  0
 31 29  1  0  0  0  0
 32 42  1  0  0  0  0
 32 43  1  0  0  0  0
 33 44  1  6  0  0  0
 33 34  1  0  0  0  0
 33 32  1  0  0  0  0
 34 45  1  0  0  0  0
 35 33  1  0  0  0  0
 36 35  2  0  0  0  0
 37 35  1  0  0  0  0
 39 28  1  0  0  0  0
 40 31  1  0  0  0  0
 41 31  1  0  0  0  0
M  END
$$$$
