GLR.pdb
 OpenBabel07022418233D

 51 50  0  0  1  0  0  0  0  0999 V2000
   -0.2380   -5.2850    2.5940 N   0  0  0  0  0  0  0  0  0  0  0  0
    0.0920   -4.3700    3.6650 C   0  0  0  0  0  0  0  0  0  0  0  0
    0.5870   -3.0740    3.1700 C   0  0  0  0  0  0  0  0  0  0  0  0
    0.9070   -2.1960    4.0080 O   0  0  0  0  0  0  0  0  0  0  0  0
   -1.1830   -5.0980    2.1920 H   0  0  0  0  0  0  0  0  0  0  0  0
    0.5100   -5.3560    1.8890 H   0  0  0  0  0  0  0  0  0  0  0  0
    0.8530   -4.8430    4.2910 H   0  0  0  0  0  0  0  0  0  0  0  0
   -0.8280   -4.2700    4.2800 H   0  0  0  0  0  0  0  0  0  0  0  0
    1.5250   -1.7400   -1.6700 C   0  0  0  0  0  0  0  0  0  0  0  0
    2.5230   -2.2450   -0.6440 C   0  0  0  0  0  0  0  0  0  0  0  0
    3.9040   -2.0020   -1.2770 C   0  0  0  0  0  0  0  0  0  0  0  0
    2.4890   -1.4820    0.6180 C   0  0  0  0  0  0  0  0  0  0  0  0
    1.2200   -1.4550    1.3790 C   0  0  2  0  0  0  0  0  0  0  0  0
    0.7330   -2.7310    1.8060 N   0  0  0  0  0  0  0  0  0  0  0  0
    0.1240   -0.6800    0.7620 C   0  0  0  0  0  0  0  0  0  0  0  0
    0.2620    0.4640    0.2850 O   0  0  0  0  0  0  0  0  0  0  0  0
    0.4910   -2.0330   -1.4090 H   0  0  0  0  0  0  0  0  0  0  0  0
    1.6290   -0.6390   -1.8280 H   0  0  0  0  0  0  0  0  0  0  0  0
    1.7130   -2.1870   -2.6750 H   0  0  0  0  0  0  0  0  0  0  0  0
    2.4320   -3.3290   -0.5660 H   0  0  0  0  0  0  0  0  0  0  0  0
    3.9810   -0.9140   -1.4680 H   0  0  0  0  0  0  0  0  0  0  0  0
    3.9900   -2.5100   -2.2580 H   0  0  0  0  0  0  0  0  0  0  0  0
    4.7180   -2.2620   -0.5760 H   0  0  0  0  0  0  0  0  0  0  0  0
    3.2910   -1.8490    1.2990 H   0  0  0  0  0  0  0  0  0  0  0  0
    2.8030   -0.4270    0.3720 H   0  0  0  0  0  0  0  0  0  0  0  0
    1.4500   -0.8820    2.3300 H   0  0  0  0  0  0  0  0  0  0  0  0
    0.4620   -3.4730    1.1060 H   0  0  0  0  0  0  0  0  0  0  0  0
    0.9880    3.6970   -0.2280 N   0  0  0  0  0  0  0  0  0  0  0  0
   -0.0820    3.5820    0.7280 C   0  0  0  0  0  0  0  0  0  0  0  0
    0.1830    3.5660    1.9780 N   0  0  0  0  0  0  0  0  0  0  0  0
   -1.4210    3.4890    0.2650 N   0  0  0  0  0  0  0  0  0  0  0  0
   -2.4620    2.9930    1.1160 C   0  0  0  0  0  0  0  0  0  0  0  0
   -2.3420    1.5120    1.4060 C   0  0  0  0  0  0  0  0  0  0  0  0
   -2.4340    0.7920    0.0800 C   0  0  0  0  0  0  0  0  0  0  0  0
   -2.3730   -0.7110    0.1850 C   0  0  2  0  0  0  0  0  0  0  0  0
   -1.1610   -1.2720    0.7100 N   0  0  0  0  0  0  0  0  0  0  0  0
   -2.9370   -1.4070   -0.9710 C   0  0  0  0  0  0  0  0  0  0  0  0
   -3.9900   -0.9880   -1.4920 O   0  0  0  0  0  0  0  0  0  0  0  0
   -2.3150   -2.5210   -1.4890 O   0  0  0  0  0  0  0  0  0  0  0  0
    1.2520    4.6360   -0.5400 H   0  0  0  0  0  0  0  0  0  0  0  0
    1.4400    2.8160   -0.5540 H   0  0  0  0  0  0  0  0  0  0  0  0
    1.1570    3.6350    2.3020 H   0  0  0  0  0  0  0  0  0  0  0  0
   -1.5770    3.8060   -0.7330 H   0  0  0  0  0  0  0  0  0  0  0  0
   -3.4210    3.0900    0.5230 H   0  0  0  0  0  0  0  0  0  0  0  0
   -2.5420    3.5630    2.0680 H   0  0  0  0  0  0  0  0  0  0  0  0
   -3.2680    1.2790    2.0190 H   0  0  0  0  0  0  0  0  0  0  0  0
   -1.4880    1.2520    2.0310 H   0  0  0  0  0  0  0  0  0  0  0  0
   -3.4670    1.0290   -0.3160 H   0  0  0  0  0  0  0  0  0  0  0  0
   -1.7220    1.2490   -0.5980 H   0  0  0  0  0  0  0  0  0  0  0  0
   -3.1630   -0.8710    1.0490 H   0  0  0  0  0  0  0  0  0  0  0  0
   -1.2890   -2.2750    1.1050 H   0  0  0  0  0  0  0  0  0  0  0  0
  1  2  1  0  0  0  0
  2  8  1  0  0  0  0
  2  7  1  0  0  0  0
  3  2  1  0  0  0  0
  3  4  2  0  0  0  0
  5  1  1  0  0  0  0
  6  1  1  0  0  0  0
  9 17  1  0  0  0  0
  9 10  1  0  0  0  0
 10 20  1  0  0  0  0
 10 12  1  0  0  0  0
 11 10  1  0  0  0  0
 11 23  1  0  0  0  0
 12 24  1  0  0  0  0
 12 13  1  0  0  0  0
 13 14  1  0  0  0  0
 13 26  1  1  0  0  0
 14  3  1  0  0  0  0
 15 13  1  0  0  0  0
 16 15  2  0  0  0  0
 18  9  1  0  0  0  0
 19  9  1  0  0  0  0
 21 11  1  0  0  0  0
 22 11  1  0  0  0  0
 25 12  1  0  0  0  0
 27 14  1  0  0  0  0
 28 29  1  0  0  0  0
 29 30  2  0  0  0  0
 30 42  1  0  0  0  0
 31 29  1  0  0  0  0
 31 32  1  0  0  0  0
 32 33  1  0  0  0  0
 32 45  1  0  0  0  0
 33 46  1  0  0  0  0
 33 47  1  0  0  0  0
 34 35  1  0  0  0  0
 34 33  1  0  0  0  0
 35 36  1  0  0  0  0
 35 50  1  1  0  0  0
 36 15  1  0  0  0  0
 36 51  1  0  0  0  0
 37 35  1  0  0  0  0
 38 37  2  0  0  0  0
 39 37  1  0  0  0  0
 40 28  1  0  0  0  0
 41 28  1  0  0  0  0
 43 31  1  0  0  0  0
 44 32  1  0  0  0  0
 48 34  1  0  0  0  0
 49 34  1  0  0  0  0
M  END
$$$$
