GLS.pdb
 OpenBabel07022418233D

 39 38  0  0  1  0  0  0  0  0999 V2000
   -4.7950   -0.8710   -1.1930 N   0  0  0  0  0  0  0  0  0  0  0  0
   -3.3990   -1.2300   -1.3410 C   0  0  0  0  0  0  0  0  0  0  0  0
   -2.6870   -0.7890   -0.1180 C   0  0  0  0  0  0  0  0  0  0  0  0
   -3.2920   -0.2200    0.8040 O   0  0  0  0  0  0  0  0  0  0  0  0
   -5.1570   -1.3900   -0.3580 H   0  0  0  0  0  0  0  0  0  0  0  0
   -4.8600    0.1460   -0.9350 H   0  0  0  0  0  0  0  0  0  0  0  0
   -3.3380   -2.3300   -1.4870 H   0  0  0  0  0  0  0  0  0  0  0  0
   -2.9520   -0.7010   -2.2260 H   0  0  0  0  0  0  0  0  0  0  0  0
    1.5190   -3.5700    2.5190 C   0  0  0  0  0  0  0  0  0  0  0  0
    1.0430   -2.5750    1.4440 C   0  0  0  0  0  0  0  0  0  0  0  0
    0.6480   -3.3620    0.2570 C   0  0  0  0  0  0  0  0  0  0  0  0
    0.0590   -1.6550    2.0370 C   0  0  0  0  0  0  0  0  0  0  0  0
   -0.5380   -0.6000    1.1950 C   0  0  2  0  0  0  0  0  0  0  0  0
   -1.2750   -0.9990    0.0510 N   0  0  0  0  0  0  0  0  0  0  0  0
    0.4430    0.4780    0.8300 C   0  0  0  0  0  0  0  0  0  0  0  0
    0.4660    0.8310   -0.3710 O   0  0  0  0  0  0  0  0  0  0  0  0
    1.3400   -3.1920    3.5250 H   0  0  0  0  0  0  0  0  0  0  0  0
    0.9950   -4.5540    2.3600 H   0  0  0  0  0  0  0  0  0  0  0  0
    2.5960   -3.7970    2.3980 H   0  0  0  0  0  0  0  0  0  0  0  0
    1.9810   -2.0040    1.1770 H   0  0  0  0  0  0  0  0  0  0  0  0
    1.1410   -4.3810    0.3250 H   0  0  0  0  0  0  0  0  0  0  0  0
    1.0270   -2.9680   -0.7080 H   0  0  0  0  0  0  0  0  0  0  0  0
   -0.4350   -3.6210    0.2060 H   0  0  0  0  0  0  0  0  0  0  0  0
   -0.7870   -2.2380    2.5180 H   0  0  0  0  0  0  0  0  0  0  0  0
    0.5200   -1.1500    2.9310 H   0  0  0  0  0  0  0  0  0  0  0  0
   -1.2700   -0.0520    1.8760 H   0  0  0  0  0  0  0  0  0  0  0  0
   -0.8090   -1.4710   -0.7460 H   0  0  0  0  0  0  0  0  0  0  0  0
    3.2660    1.0500   -0.4310 O   0  0  0  0  0  0  0  0  0  0  0  0
    3.5080    1.6620    0.7850 C   0  0  0  0  0  0  0  0  0  0  0  0
    2.2530    2.1230    1.4560 C   0  0  2  0  0  0  0  0  0  0  0  0
    1.3050    1.0850    1.7490 N   0  0  0  0  0  0  0  0  0  0  0  0
    1.6730    3.2560    0.6740 C   0  0  0  0  0  0  0  0  0  0  0  0
    0.4500    3.2390    0.4220 O   0  0  0  0  0  0  0  0  0  0  0  0
    2.4490    4.3090    0.2290 O   0  0  0  0  0  0  0  0  0  0  0  0
    3.1160    1.6970   -1.1660 H   0  0  0  0  0  0  0  0  0  0  0  0
    4.0990    0.9640    1.4350 H   0  0  0  0  0  0  0  0  0  0  0  0
    4.1370    2.5530    0.5750 H   0  0  0  0  0  0  0  0  0  0  0  0
    2.5330    2.6280    2.4400 H   0  0  0  0  0  0  0  0  0  0  0  0
    1.2350    0.7340    2.7380 H   0  0  0  0  0  0  0  0  0  0  0  0
  1  6  1  0  0  0  0
  1  5  1  0  0  0  0
  2  1  1  0  0  0  0
  2  3  1  0  0  0  0
  3 14  1  0  0  0  0
  3  4  2  0  0  0  0
  7  2  1  0  0  0  0
  8  2  1  0  0  0  0
  9 17  1  0  0  0  0
 10 12  1  0  0  0  0
 10  9  1  0  0  0  0
 11 21  1  0  0  0  0
 11 10  1  0  0  0  0
 12 24  1  0  0  0  0
 12 25  1  0  0  0  0
 13 26  1  1  0  0  0
 13 12  1  0  0  0  0
 14 13  1  0  0  0  0
 15 13  1  0  0  0  0
 15 31  1  0  0  0  0
 16 15  2  0  0  0  0
 18  9  1  0  0  0  0
 19  9  1  0  0  0  0
 20 10  1  0  0  0  0
 22 11  1  0  0  0  0
 23 11  1  0  0  0  0
 27 14  1  0  0  0  0
 28 29  1  0  0  0  0
 29 36  1  0  0  0  0
 29 30  1  0  0  0  0
 30 31  1  0  0  0  0
 30 38  1  1  0  0  0
 31 39  1  0  0  0  0
 32 30  1  0  0  0  0
 33 32  1  0  0  0  0
 34 32  2  0  0  0  0
 35 28  1  0  0  0  0
 37 29  1  0  0  0  0
M  END
$$$$
