GLV.pdb
 OpenBabel07022418233D

 44 43  0  0  1  0  0  0  0  0999 V2000
    4.0250   -1.7890    0.8550 N   0  0  0  0  0  0  0  0  0  0  0  0
    3.8100   -2.1000   -0.5420 C   0  0  0  0  0  0  0  0  0  0  0  0
    2.3450   -2.0310   -0.7850 C   0  0  0  0  0  0  0  0  0  0  0  0
    1.8830   -2.2640   -1.9430 O   0  0  0  0  0  0  0  0  0  0  0  0
    4.8400   -1.1830    1.0130 H   0  0  0  0  0  0  0  0  0  0  0  0
    3.9810   -2.6250    1.4500 H   0  0  0  0  0  0  0  0  0  0  0  0
    4.1120   -3.1500   -0.7620 H   0  0  0  0  0  0  0  0  0  0  0  0
    4.3340   -1.3820   -1.2020 H   0  0  0  0  0  0  0  0  0  0  0  0
   -2.7630   -3.5390    1.7960 C   0  0  0  0  0  0  0  0  0  0  0  0
   -2.2340   -2.5910    0.7040 C   0  0  0  0  0  0  0  0  0  0  0  0
   -2.7720   -3.0690   -0.5790 C   0  0  0  0  0  0  0  0  0  0  0  0
   -0.7800   -2.5200    0.8660 C   0  0  0  0  0  0  0  0  0  0  0  0
   -0.0180   -1.6610   -0.0780 C   0  0  2  0  0  0  0  0  0  0  0  0
    1.4000   -1.7110    0.2270 N   0  0  0  0  0  0  0  0  0  0  0  0
   -0.4170   -0.2250    0.0740 C   0  0  0  0  0  0  0  0  0  0  0  0
   -1.6070    0.1230   -0.1380 O   0  0  0  0  0  0  0  0  0  0  0  0
   -1.9600   -4.2920    2.0460 H   0  0  0  0  0  0  0  0  0  0  0  0
   -2.9940   -3.0040    2.7210 H   0  0  0  0  0  0  0  0  0  0  0  0
   -3.6200   -4.1350    1.4210 H   0  0  0  0  0  0  0  0  0  0  0  0
   -2.7030   -1.6000    0.9800 H   0  0  0  0  0  0  0  0  0  0  0  0
   -2.8890   -4.1690   -0.5920 H   0  0  0  0  0  0  0  0  0  0  0  0
   -3.8210   -2.6650   -0.6940 H   0  0  0  0  0  0  0  0  0  0  0  0
   -2.2340   -2.7690   -1.4820 H   0  0  0  0  0  0  0  0  0  0  0  0
   -0.3540   -3.5620    0.7910 H   0  0  0  0  0  0  0  0  0  0  0  0
   -0.5430   -2.1920    1.9000 H   0  0  0  0  0  0  0  0  0  0  0  0
   -0.1470   -1.9000   -1.1370 H   0  0  0  0  0  0  0  0  0  0  0  0
    1.7590   -1.5110    1.2090 H   0  0  0  0  0  0  0  0  0  0  0  0
    1.5970    2.5070    2.5910 C   0  0  0  0  0  0  0  0  0  0  0  0
    0.1900    2.6420    2.0550 C   0  0  0  0  0  0  0  0  0  0  0  0
   -0.8230    1.9000    2.8990 C   0  0  0  0  0  0  0  0  0  0  0  0
    0.1000    2.1880    0.5970 C   0  0  2  0  0  0  0  0  0  0  0  0
    0.4890    0.7980    0.4510 N   0  0  0  0  0  0  0  0  0  0  0  0
    0.8730    3.0790   -0.2810 C   0  0  0  0  0  0  0  0  0  0  0  0
    0.6430    4.3070   -0.2600 O   0  0  0  0  0  0  0  0  0  0  0  0
    1.8400    2.5740   -1.1200 O   0  0  0  0  0  0  0  0  0  0  0  0
    1.5370    1.7590    3.4260 H   0  0  0  0  0  0  0  0  0  0  0  0
    1.9910    3.4300    3.0270 H   0  0  0  0  0  0  0  0  0  0  0  0
    2.2690    2.1050    1.7980 H   0  0  0  0  0  0  0  0  0  0  0  0
   -0.0340    3.7440    2.0240 H   0  0  0  0  0  0  0  0  0  0  0  0
   -1.6070    1.4710    2.2590 H   0  0  0  0  0  0  0  0  0  0  0  0
   -0.2700    1.1410    3.4800 H   0  0  0  0  0  0  0  0  0  0  0  0
   -1.2340    2.6390    3.6190 H   0  0  0  0  0  0  0  0  0  0  0  0
   -0.9990    2.2300    0.3550 H   0  0  0  0  0  0  0  0  0  0  0  0
    1.4710    0.5530    0.6330 H   0  0  0  0  0  0  0  0  0  0  0  0
  1  5  1  0  0  0  0
  1  6  1  0  0  0  0
  2  1  1  0  0  0  0
  3  2  1  0  0  0  0
  3 14  1  0  0  0  0
  4  3  2  0  0  0  0
  7  2  1  0  0  0  0
  8  2  1  0  0  0  0
  9 17  1  0  0  0  0
  9 18  1  0  0  0  0
 10 12  1  0  0  0  0
 10 20  1  0  0  0  0
 10  9  1  0  0  0  0
 11 10  1  0  0  0  0
 12 25  1  0  0  0  0
 13 26  1  6  0  0  0
 13 15  1  0  0  0  0
 13 14  1  0  0  0  0
 13 12  1  0  0  0  0
 14 27  1  0  0  0  0
 15 32  1  0  0  0  0
 16 15  2  0  0  0  0
 19  9  1  0  0  0  0
 21 11  1  0  0  0  0
 22 11  1  0  0  0  0
 23 11  1  0  0  0  0
 24 12  1  0  0  0  0
 28 37  1  0  0  0  0
 28 36  1  0  0  0  0
 29 28  1  0  0  0  0
 29 30  1  0  0  0  0
 30 41  1  0  0  0  0
 30 42  1  0  0  0  0
 31 43  1  6  0  0  0
 31 29  1  0  0  0  0
 32 31  1  0  0  0  0
 32 44  1  0  0  0  0
 33 34  1  0  0  0  0
 33 31  1  0  0  0  0
 35 33  2  0  0  0  0
 38 28  1  0  0  0  0
 39 29  1  0  0  0  0
 40 30  1  0  0  0  0
M  END
$$$$
