GLW.pdb
 OpenBabel07022418233D

 52 53  0  0  1  0  0  0  0  0999 V2000
    2.4930   -3.3240    5.1500 N   0  0  0  0  0  0  0  0  0  0  0  0
    2.1320   -3.1380    3.7610 C   0  0  0  0  0  0  0  0  0  0  0  0
    1.7050   -1.7320    3.5670 C   0  0  0  0  0  0  0  0  0  0  0  0
    1.7010   -0.9330    4.5240 O   0  0  0  0  0  0  0  0  0  0  0  0
    2.7080   -2.4010    5.5540 H   0  0  0  0  0  0  0  0  0  0  0  0
    1.6950   -3.7320    5.6690 H   0  0  0  0  0  0  0  0  0  0  0  0
    3.0060   -3.3720    3.0930 H   0  0  0  0  0  0  0  0  0  0  0  0
    1.3020   -3.8310    3.5000 H   0  0  0  0  0  0  0  0  0  0  0  0
    3.8120    1.7310    0.2620 C   0  0  0  0  0  0  0  0  0  0  0  0
    3.1480    0.9610    1.4130 C   0  0  0  0  0  0  0  0  0  0  0  0
    3.3860    1.7240    2.6730 C   0  0  0  0  0  0  0  0  0  0  0  0
    1.7070    0.8170    1.0380 C   0  0  0  0  0  0  0  0  0  0  0  0
    0.8650    0.0900    2.0290 C   0  0  2  0  0  0  0  0  0  0  0  0
    1.2870   -1.2510    2.2830 N   0  0  0  0  0  0  0  0  0  0  0  0
   -0.5520    0.1600    1.5680 C   0  0  0  0  0  0  0  0  0  0  0  0
   -1.0940    1.2570    1.2880 O   0  0  0  0  0  0  0  0  0  0  0  0
    3.3430    1.3450   -0.6660 H   0  0  0  0  0  0  0  0  0  0  0  0
    4.9000    1.6560    0.2890 H   0  0  0  0  0  0  0  0  0  0  0  0
    3.4390    2.7860    0.3840 H   0  0  0  0  0  0  0  0  0  0  0  0
    3.6810   -0.0220    1.4450 H   0  0  0  0  0  0  0  0  0  0  0  0
    2.7940    2.6790    2.6270 H   0  0  0  0  0  0  0  0  0  0  0  0
    3.1790    1.1920    3.6000 H   0  0  0  0  0  0  0  0  0  0  0  0
    4.4880    1.9750    2.7000 H   0  0  0  0  0  0  0  0  0  0  0  0
    1.2890    1.8260    0.8790 H   0  0  0  0  0  0  0  0  0  0  0  0
    1.6910    0.2110    0.0840 H   0  0  0  0  0  0  0  0  0  0  0  0
    0.9420    0.6540    3.0050 H   0  0  0  0  0  0  0  0  0  0  0  0
    1.3120   -1.9760    1.5150 H   0  0  0  0  0  0  0  0  0  0  0  0
   -1.2930   -1.0390    1.4460 N   0  0  0  0  0  0  0  0  0  0  0  0
   -2.6700   -0.9410    0.9950 C   0  0  1  0  0  0  0  0  0  0  0  0
   -3.0110   -1.9060   -0.0600 C   0  0  0  0  0  0  0  0  0  0  0  0
   -2.3090   -1.8920   -1.3080 C   0  0  0  0  0  0  0  0  0  0  0  0
   -1.3350   -2.8100   -1.6460 C   0  0  0  0  0  0  0  0  0  0  0  0
   -0.8730   -2.5310   -2.8650 N   0  0  0  0  0  0  0  0  0  0  0  0
   -1.5010   -1.4590   -3.3590 C   0  0  0  0  0  0  0  0  0  0  0  0
   -1.4260   -0.7570   -4.5310 C   0  0  0  0  0  0  0  0  0  0  0  0
   -2.2200    0.3340   -4.7670 C   0  0  0  0  0  0  0  0  0  0  0  0
   -3.1290    0.7480   -3.7960 C   0  0  0  0  0  0  0  0  0  0  0  0
   -3.1930    0.0280   -2.6150 C   0  0  0  0  0  0  0  0  0  0  0  0
   -2.4050   -1.0530   -2.3880 C   0  0  0  0  0  0  0  0  0  0  0  0
   -3.4790   -1.3160    2.1920 C   0  0  0  0  0  0  0  0  0  0  0  0
   -2.9870   -1.6300    3.2980 O   0  0  0  0  0  0  0  0  0  0  0  0
   -4.8590   -1.3130    2.0580 O   0  0  0  0  0  0  0  0  0  0  0  0
   -0.8900   -1.9740    1.6660 H   0  0  0  0  0  0  0  0  0  0  0  0
   -2.9710    0.1060    0.7960 H   0  0  0  0  0  0  0  0  0  0  0  0
   -4.1110   -1.7430   -0.2930 H   0  0  0  0  0  0  0  0  0  0  0  0
   -3.0030   -2.9240    0.3840 H   0  0  0  0  0  0  0  0  0  0  0  0
   -0.9520   -3.6540   -1.0620 H   0  0  0  0  0  0  0  0  0  0  0  0
   -0.1330   -3.0470   -3.3880 H   0  0  0  0  0  0  0  0  0  0  0  0
   -0.7100   -1.1020   -5.2700 H   0  0  0  0  0  0  0  0  0  0  0  0
   -2.1690    0.8880   -5.6780 H   0  0  0  0  0  0  0  0  0  0  0  0
   -3.7670    1.6040   -3.9540 H   0  0  0  0  0  0  0  0  0  0  0  0
   -3.8850    0.3420   -1.8750 H   0  0  0  0  0  0  0  0  0  0  0  0
  1  5  1  0  0  0  0
  1  6  1  0  0  0  0
  2  1  1  0  0  0  0
  3  2  1  0  0  0  0
  3  4  2  0  0  0  0
  7  2  1  0  0  0  0
  8  2  1  0  0  0  0
  9 18  1  0  0  0  0
  9 19  1  0  0  0  0
  9 10  1  0  0  0  0
 10 20  1  0  0  0  0
 10 11  1  0  0  0  0
 11 23  1  0  0  0  0
 11 22  1  0  0  0  0
 12 10  1  0  0  0  0
 12 13  1  0  0  0  0
 13 14  1  0  0  0  0
 13 26  1  1  0  0  0
 14  3  1  0  0  0  0
 15 13  1  0  0  0  0
 16 15  2  0  0  0  0
 17  9  1  0  0  0  0
 21 11  1  0  0  0  0
 24 12  1  0  0  0  0
 25 12  1  0  0  0  0
 27 14  1  0  0  0  0
 28 15  1  0  0  0  0
 28 43  1  0  0  0  0
 29 44  1  6  0  0  0
 29 28  1  0  0  0  0
 29 40  1  0  0  0  0
 30 46  1  0  0  0  0
 30 29  1  0  0  0  0
 31 30  1  0  0  0  0
 32 31  2  0  0  0  0
 32 47  1  0  0  0  0
 33 32  1  0  0  0  0
 34 33  1  0  0  0  0
 34 39  1  0  0  0  0
 35 34  2  0  0  0  0
 36 35  1  0  0  0  0
 36 37  2  0  0  0  0
 37 38  1  0  0  0  0
 38 39  2  0  0  0  0
 38 52  1  0  0  0  0
 39 31  1  0  0  0  0
 40 41  1  0  0  0  0
 42 40  2  0  0  0  0
 45 30  1  0  0  0  0
 48 33  1  0  0  0  0
 49 35  1  0  0  0  0
 50 36  1  0  0  0  0
 51 37  1  0  0  0  0
M  END
$$$$
