GMC.pdb
 OpenBabel07022418243D

 37 36  0  0  1  0  0  0  0  0999 V2000
   -4.4820   -1.2410   -0.3150 N   0  0  0  0  0  0  0  0  0  0  0  0
   -3.0850   -1.1650   -0.6940 C   0  0  0  0  0  0  0  0  0  0  0  0
   -2.2770   -1.2000    0.5510 C   0  0  0  0  0  0  0  0  0  0  0  0
   -2.8110   -1.2830    1.6810 O   0  0  0  0  0  0  0  0  0  0  0  0
   -4.6380   -0.6780    0.5670 H   0  0  0  0  0  0  0  0  0  0  0  0
   -4.7770   -2.2180   -0.0940 H   0  0  0  0  0  0  0  0  0  0  0  0
   -2.8920   -0.2400   -1.2620 H   0  0  0  0  0  0  0  0  0  0  0  0
   -2.8510   -2.0080   -1.3720 H   0  0  0  0  0  0  0  0  0  0  0  0
    2.2970   -5.2390    0.6180 C   0  0  0  0  0  0  0  0  0  0  0  0
    3.1140   -3.6580    0.7860 S   0  0  0  0  0  0  0  0  0  0  0  0
    1.9640   -2.2600    0.5870 C   0  0  0  0  0  0  0  0  0  0  0  0
    0.9880   -2.2670    1.7260 C   0  0  0  0  0  0  0  0  0  0  0  0
   -0.0110   -1.1700    1.6800 C   0  0  2  0  0  0  0  0  0  0  0  0
   -0.8480   -1.1410    0.5300 N   0  0  0  0  0  0  0  0  0  0  0  0
    0.6640    0.1690    1.8050 C   0  0  0  0  0  0  0  0  0  0  0  0
    1.4650    0.4120    2.7390 O   0  0  0  0  0  0  0  0  0  0  0  0
    2.9780   -6.0190    1.0520 H   0  0  0  0  0  0  0  0  0  0  0  0
    1.3470   -5.3130    1.1640 H   0  0  0  0  0  0  0  0  0  0  0  0
    2.2090   -5.4860   -0.4550 H   0  0  0  0  0  0  0  0  0  0  0  0
    2.6070   -1.3510    0.5940 H   0  0  0  0  0  0  0  0  0  0  0  0
    1.4640   -2.2690   -0.4010 H   0  0  0  0  0  0  0  0  0  0  0  0
    1.5980   -2.1120    2.6650 H   0  0  0  0  0  0  0  0  0  0  0  0
    0.5290   -3.2510    1.8320 H   0  0  0  0  0  0  0  0  0  0  0  0
   -0.6320   -1.2510    2.6170 H   0  0  0  0  0  0  0  0  0  0  0  0
   -0.4170   -1.0730   -0.4180 H   0  0  0  0  0  0  0  0  0  0  0  0
    0.4230    1.2120    0.8730 N   0  0  0  0  0  0  0  0  0  0  0  0
    1.1060    2.4800    1.0490 C   0  0  1  0  0  0  0  0  0  0  0  0
    1.9910    2.8180   -0.1480 C   0  0  0  0  0  0  0  0  0  0  0  0
    3.2560    1.5460   -0.3920 S   0  0  0  0  0  0  0  0  0  0  0  0
    0.0740    3.5110    1.2580 C   0  0  0  0  0  0  0  0  0  0  0  0
    0.4560    4.6970    1.4340 O   0  0  0  0  0  0  0  0  0  0  0  0
   -1.2870    3.2270    1.2680 O   0  0  0  0  0  0  0  0  0  0  0  0
   -0.2410    1.0540    0.0720 H   0  0  0  0  0  0  0  0  0  0  0  0
    1.7640    2.4520    1.9410 H   0  0  0  0  0  0  0  0  0  0  0  0
    2.4430    3.8010    0.0670 H   0  0  0  0  0  0  0  0  0  0  0  0
    1.3740    2.8410   -1.0840 H   0  0  0  0  0  0  0  0  0  0  0  0
    4.5470    2.0810   -0.2560 H   0  0  0  0  0  0  0  0  0  0  0  0
  1  6  1  0  0  0  0
  1  5  1  0  0  0  0
  2  1  1  0  0  0  0
  2  3  1  0  0  0  0
  3  4  2  0  0  0  0
  7  2  1  0  0  0  0
  8  2  1  0  0  0  0
  9 10  1  0  0  0  0
  9 17  1  0  0  0  0
  9 18  1  0  0  0  0
 11 20  1  0  0  0  0
 11 10  1  0  0  0  0
 11 12  1  0  0  0  0
 12 23  1  0  0  0  0
 12 22  1  0  0  0  0
 13 12  1  0  0  0  0
 13 15  1  0  0  0  0
 13 24  1  1  0  0  0
 14  3  1  0  0  0  0
 14 13  1  0  0  0  0
 15 16  2  0  0  0  0
 19  9  1  0  0  0  0
 21 11  1  0  0  0  0
 25 14  1  0  0  0  0
 26 27  1  0  0  0  0
 26 15  1  0  0  0  0
 27 30  1  0  0  0  0
 27 34  1  1  0  0  0
 28 35  1  0  0  0  0
 28 27  1  0  0  0  0
 29 37  1  0  0  0  0
 29 28  1  0  0  0  0
 30 32  2  0  0  0  0
 30 31  1  0  0  0  0
 33 26  1  0  0  0  0
 36 28  1  0  0  0  0
M  END
$$$$
