GMD.pdb
 OpenBabel07022418243D

 39 38  0  0  1  0  0  0  0  0999 V2000
    0.8860   -2.3430    3.3580 N   0  0  0  0  0  0  0  0  0  0  0  0
   -0.2620   -2.9210    2.6940 C   0  0  0  0  0  0  0  0  0  0  0  0
   -0.3160   -2.3770    1.3180 C   0  0  0  0  0  0  0  0  0  0  0  0
   -1.2470   -2.7540    0.5650 O   0  0  0  0  0  0  0  0  0  0  0  0
    0.6870   -1.3910    3.6920 H   0  0  0  0  0  0  0  0  0  0  0  0
    1.3270   -2.9750    4.0520 H   0  0  0  0  0  0  0  0  0  0  0  0
   -0.1860   -4.0230    2.6080 H   0  0  0  0  0  0  0  0  0  0  0  0
   -1.1630   -2.6420    3.2840 H   0  0  0  0  0  0  0  0  0  0  0  0
    3.6840   -2.2800   -0.8250 C   0  0  0  0  0  0  0  0  0  0  0  0
    2.6000   -2.7350   -2.1410 S   0  0  0  0  0  0  0  0  0  0  0  0
    0.8620   -2.9380   -1.7660 C   0  0  0  0  0  0  0  0  0  0  0  0
    0.1730   -1.6380   -1.5740 C   0  0  0  0  0  0  0  0  0  0  0  0
    0.7280   -0.8710   -0.4400 C   0  0  2  0  0  0  0  0  0  0  0  0
    0.6510   -1.4540    0.8510 N   0  0  0  0  0  0  0  0  0  0  0  0
    0.3250    0.5480   -0.3960 C   0  0  0  0  0  0  0  0  0  0  0  0
    0.2970    1.3090   -1.3770 O   0  0  0  0  0  0  0  0  0  0  0  0
    4.1070   -1.2480   -0.9340 H   0  0  0  0  0  0  0  0  0  0  0  0
    4.6040   -2.9580   -0.8470 H   0  0  0  0  0  0  0  0  0  0  0  0
    3.3020   -2.3730    0.2070 H   0  0  0  0  0  0  0  0  0  0  0  0
    0.8300   -3.5040   -0.7780 H   0  0  0  0  0  0  0  0  0  0  0  0
    0.3470   -3.5780   -2.5410 H   0  0  0  0  0  0  0  0  0  0  0  0
   -0.9390   -1.7240   -1.5680 H   0  0  0  0  0  0  0  0  0  0  0  0
    0.3750   -1.0330   -2.5030 H   0  0  0  0  0  0  0  0  0  0  0  0
    1.8380   -0.8260   -0.6970 H   0  0  0  0  0  0  0  0  0  0  0  0
    1.3930   -1.1800    1.5640 H   0  0  0  0  0  0  0  0  0  0  0  0
   -0.0560    1.0750    0.8650 N   0  0  0  0  0  0  0  0  0  0  0  0
   -0.4770    2.4550    1.0500 C   0  0  1  0  0  0  0  0  0  0  0  0
   -1.8140    2.4200    1.7620 C   0  0  0  0  0  0  0  0  0  0  0  0
   -2.8560    1.7000    1.0040 C   0  0  0  0  0  0  0  0  0  0  0  0
   -4.0270    1.5940    1.4880 O   0  0  0  0  0  0  0  0  0  0  0  0
    0.4740    3.0870    1.9900 C   0  0  0  0  0  0  0  0  0  0  0  0
    0.3230    4.2840    2.3060 O   0  0  0  0  0  0  0  0  0  0  0  0
   -2.5530    1.1490   -0.2200 O   0  0  0  0  0  0  0  0  0  0  0  0
    1.5150    2.3630    2.5100 O   0  0  0  0  0  0  0  0  0  0  0  0
   -0.0570    0.4900    1.7490 H   0  0  0  0  0  0  0  0  0  0  0  0
   -0.5360    2.9990    0.0860 H   0  0  0  0  0  0  0  0  0  0  0  0
   -1.7280    1.9040    2.7470 H   0  0  0  0  0  0  0  0  0  0  0  0
   -2.1500    3.4610    2.0300 H   0  0  0  0  0  0  0  0  0  0  0  0
   -3.0330    0.3160   -0.5420 H   0  0  0  0  0  0  0  0  0  0  0  0
  1  5  1  0  0  0  0
  1  6  1  0  0  0  0
  2  8  1  0  0  0  0
  2  1  1  0  0  0  0
  3  2  1  0  0  0  0
  4  3  2  0  0  0  0
  7  2  1  0  0  0  0
  9 19  1  0  0  0  0
 10 11  1  0  0  0  0
 10  9  1  0  0  0  0
 11 12  1  0  0  0  0
 11 20  1  0  0  0  0
 12 22  1  0  0  0  0
 12 13  1  0  0  0  0
 13 24  1  6  0  0  0
 13 15  1  0  0  0  0
 13 14  1  0  0  0  0
 14  3  1  0  0  0  0
 14 25  1  0  0  0  0
 15 26  1  0  0  0  0
 16 15  2  0  0  0  0
 17  9  1  0  0  0  0
 18  9  1  0  0  0  0
 21 11  1  0  0  0  0
 23 12  1  0  0  0  0
 26 27  1  0  0  0  0
 26 35  1  0  0  0  0
 27 36  1  6  0  0  0
 27 28  1  0  0  0  0
 27 31  1  0  0  0  0
 28 38  1  0  0  0  0
 28 37  1  0  0  0  0
 29 30  2  0  0  0  0
 29 28  1  0  0  0  0
 31 32  2  0  0  0  0
 31 34  1  0  0  0  0
 33 29  1  0  0  0  0
 39 33  1  0  0  0  0
M  END
$$$$
