GMH.pdb
 OpenBabel07022418243D

 43 43  0  0  1  0  0  0  0  0999 V2000
   -0.3150   -5.2020   -0.6970 N   0  0  0  0  0  0  0  0  0  0  0  0
    1.0260   -4.7600   -0.9100 C   0  0  0  0  0  0  0  0  0  0  0  0
    1.1830   -3.2940   -0.8580 C   0  0  0  0  0  0  0  0  0  0  0  0
    2.3340   -2.8220   -1.0360 O   0  0  0  0  0  0  0  0  0  0  0  0
   -0.4020   -5.9810   -0.0090 H   0  0  0  0  0  0  0  0  0  0  0  0
   -0.8910   -5.3110   -1.5370 H   0  0  0  0  0  0  0  0  0  0  0  0
    1.3520   -5.1750   -1.9080 H   0  0  0  0  0  0  0  0  0  0  0  0
    1.7310   -5.2130   -0.1680 H   0  0  0  0  0  0  0  0  0  0  0  0
   -2.9900   -0.8790    1.1140 C   0  0  0  0  0  0  0  0  0  0  0  0
   -2.9690    0.0250   -0.4000 S   0  0  0  0  0  0  0  0  0  0  0  0
   -1.9110   -0.4690   -1.7020 C   0  0  0  0  0  0  0  0  0  0  0  0
   -0.4560   -0.2870   -1.6290 C   0  0  0  0  0  0  0  0  0  0  0  0
    0.2710   -0.9890   -0.5730 C   0  0  2  0  0  0  0  0  0  0  0  0
    0.0900   -2.4180   -0.6180 N   0  0  0  0  0  0  0  0  0  0  0  0
    0.1920   -0.4160    0.7670 C   0  0  0  0  0  0  0  0  0  0  0  0
    0.0690   -1.1640    1.7970 O   0  0  0  0  0  0  0  0  0  0  0  0
   -2.4410   -1.8310    1.0210 H   0  0  0  0  0  0  0  0  0  0  0  0
   -4.0360   -1.0830    1.4780 H   0  0  0  0  0  0  0  0  0  0  0  0
   -2.4840   -0.2710    1.9220 H   0  0  0  0  0  0  0  0  0  0  0  0
   -2.2450    0.0750   -2.6530 H   0  0  0  0  0  0  0  0  0  0  0  0
   -2.1770   -1.5550   -1.9670 H   0  0  0  0  0  0  0  0  0  0  0  0
   -0.0550   -0.6160   -2.6580 H   0  0  0  0  0  0  0  0  0  0  0  0
   -0.1820    0.8170   -1.6430 H   0  0  0  0  0  0  0  0  0  0  0  0
    1.4400   -0.8270   -0.8020 H   0  0  0  0  0  0  0  0  0  0  0  0
   -0.8900   -2.8090   -0.4700 H   0  0  0  0  0  0  0  0  0  0  0  0
    0.2480    0.9740    1.0430 N   0  0  0  0  0  0  0  0  0  0  0  0
    0.1890    1.5720    2.3270 C   0  0  1  0  0  0  0  0  0  0  0  0
    1.3310    2.4670    2.6790 C   0  0  0  0  0  0  0  0  0  0  0  0
    2.5990    1.7260    2.6480 C   0  0  0  0  0  0  0  0  0  0  0  0
    3.8780    2.1520    2.9000 C   0  0  0  0  0  0  0  0  0  0  0  0
    4.6860    1.1080    2.7410 N   0  0  0  0  0  0  0  0  0  0  0  0
    3.9640    0.0220    2.3930 C   0  0  0  0  0  0  0  0  0  0  0  0
    2.6960    0.4110    2.3400 N   0  0  0  0  0  0  0  0  0  0  0  0
   -1.0390    2.4210    2.4060 C   0  0  0  0  0  0  0  0  0  0  0  0
   -1.2530    3.0010    3.5160 O   0  0  0  0  0  0  0  0  0  0  0  0
   -1.9290    2.6070    1.3710 O   0  0  0  0  0  0  0  0  0  0  0  0
    0.3440    1.6270    0.2070 H   0  0  0  0  0  0  0  0  0  0  0  0
    0.0910    0.8140    3.1310 H   0  0  0  0  0  0  0  0  0  0  0  0
    1.1730    2.7870    3.7460 H   0  0  0  0  0  0  0  0  0  0  0  0
    1.3580    3.4070    2.0960 H   0  0  0  0  0  0  0  0  0  0  0  0
    4.1580    3.1420    3.1740 H   0  0  0  0  0  0  0  0  0  0  0  0
    5.7290    1.0400    2.8460 H   0  0  0  0  0  0  0  0  0  0  0  0
    4.3340   -0.9730    2.1940 H   0  0  0  0  0  0  0  0  0  0  0  0
  1  5  1  0  0  0  0
  2  3  1  0  0  0  0
  2  1  1  0  0  0  0
  2  8  1  0  0  0  0
  3 14  1  0  0  0  0
  4  3  2  0  0  0  0
  6  1  1  0  0  0  0
  7  2  1  0  0  0  0
  9 18  1  0  0  0  0
  9 19  1  0  0  0  0
 10  9  1  0  0  0  0
 11 12  1  0  0  0  0
 11 10  1  0  0  0  0
 12 13  1  0  0  0  0
 13 24  1  6  0  0  0
 13 15  1  0  0  0  0
 14 13  1  0  0  0  0
 14 25  1  0  0  0  0
 15 26  1  0  0  0  0
 15 16  2  0  0  0  0
 17  9  1  0  0  0  0
 20 11  1  0  0  0  0
 21 11  1  0  0  0  0
 22 12  1  0  0  0  0
 23 12  1  0  0  0  0
 26 27  1  0  0  0  0
 27 34  1  0  0  0  0
 27 28  1  0  0  0  0
 27 38  1  1  0  0  0
 28 39  1  0  0  0  0
 29 28  1  0  0  0  0
 29 30  2  0  0  0  0
 30 41  1  0  0  0  0
 31 42  1  0  0  0  0
 31 30  1  0  0  0  0
 32 31  1  0  0  0  0
 33 32  2  0  0  0  0
 33 29  1  0  0  0  0
 34 35  1  0  0  0  0
 36 34  2  0  0  0  0
 37 26  1  0  0  0  0
 40 28  1  0  0  0  0
 43 32  1  0  0  0  0
M  END
$$$$
