GMI.pdb
 OpenBabel07022418243D

 45 44  0  0  1  0  0  0  0  0999 V2000
   -2.8990   -4.7800    1.3900 N   0  0  0  0  0  0  0  0  0  0  0  0
   -2.8360   -4.6010   -0.0380 C   0  0  0  0  0  0  0  0  0  0  0  0
   -1.7480   -3.5990   -0.3700 C   0  0  0  0  0  0  0  0  0  0  0  0
   -1.5680   -3.3360   -1.5810 O   0  0  0  0  0  0  0  0  0  0  0  0
   -3.3170   -3.9870    1.8890 H   0  0  0  0  0  0  0  0  0  0  0  0
   -2.0280   -5.1620    1.7800 H   0  0  0  0  0  0  0  0  0  0  0  0
   -2.7280   -5.5260   -0.5980 H   0  0  0  0  0  0  0  0  0  0  0  0
   -3.7840   -4.1020   -0.3590 H   0  0  0  0  0  0  0  0  0  0  0  0
    2.1360   -4.2350    1.8190 C   0  0  0  0  0  0  0  0  0  0  0  0
    2.7320   -3.8700    0.1720 S   0  0  0  0  0  0  0  0  0  0  0  0
    1.4710   -3.5060   -1.0510 C   0  0  0  0  0  0  0  0  0  0  0  0
    0.7960   -2.1810   -0.8980 C   0  0  0  0  0  0  0  0  0  0  0  0
    0.0820   -2.0500    0.3960 C   0  0  2  0  0  0  0  0  0  0  0  0
   -0.9780   -2.9960    0.6320 N   0  0  0  0  0  0  0  0  0  0  0  0
   -0.4310   -0.6770    0.6460 C   0  0  0  0  0  0  0  0  0  0  0  0
   -1.6250   -0.5270    1.0020 O   0  0  0  0  0  0  0  0  0  0  0  0
    2.3730   -3.4460    2.5620 H   0  0  0  0  0  0  0  0  0  0  0  0
    1.0630   -4.5180    1.8760 H   0  0  0  0  0  0  0  0  0  0  0  0
    2.6830   -5.1430    2.1900 H   0  0  0  0  0  0  0  0  0  0  0  0
    1.9600   -3.5820   -2.0830 H   0  0  0  0  0  0  0  0  0  0  0  0
    0.7430   -4.3740   -0.9860 H   0  0  0  0  0  0  0  0  0  0  0  0
    0.1890   -1.9140   -1.7940 H   0  0  0  0  0  0  0  0  0  0  0  0
    1.6020   -1.3720   -0.8760 H   0  0  0  0  0  0  0  0  0  0  0  0
    0.8860   -2.2970    1.1670 H   0  0  0  0  0  0  0  0  0  0  0  0
   -1.2190   -3.2800    1.6440 H   0  0  0  0  0  0  0  0  0  0  0  0
    1.0080    4.8600    1.6180 C   0  0  0  0  0  0  0  0  0  0  0  0
    0.3800    3.7460    2.3770 C   0  0  0  0  0  0  0  0  0  0  0  0
    0.6490    2.3660    1.9050 C   0  0  2  0  0  0  0  0  0  0  0  0
    2.1350    2.0420    1.8750 C   0  0  0  0  0  0  0  0  0  0  0  0
   -0.1270    1.8440    0.7430 C   0  0  2  0  0  0  0  0  0  0  0  0
    0.3590    0.4830    0.5020 N   0  0  0  0  0  0  0  0  0  0  0  0
   -0.0980    2.6430   -0.4910 C   0  0  0  0  0  0  0  0  0  0  0  0
    0.4430    2.1920   -1.5630 O   0  0  0  0  0  0  0  0  0  0  0  0
   -0.6350    3.9130   -0.6270 O   0  0  0  0  0  0  0  0  0  0  0  0
    1.6690    5.4700    2.2960 H   0  0  0  0  0  0  0  0  0  0  0  0
    0.2310    5.5690    1.2830 H   0  0  0  0  0  0  0  0  0  0  0  0
    1.5820    4.5460    0.7150 H   0  0  0  0  0  0  0  0  0  0  0  0
   -0.7320    3.9500    2.4180 H   0  0  0  0  0  0  0  0  0  0  0  0
    0.6840    3.8650    3.4670 H   0  0  0  0  0  0  0  0  0  0  0  0
    0.3250    1.7160    2.8390 H   0  0  0  0  0  0  0  0  0  0  0  0
    2.5300    2.4330    2.8570 H   0  0  0  0  0  0  0  0  0  0  0  0
    2.3050    0.9590    1.8990 H   0  0  0  0  0  0  0  0  0  0  0  0
    2.6760    2.5860    1.0960 H   0  0  0  0  0  0  0  0  0  0  0  0
   -1.2090    1.8130    1.0540 H   0  0  0  0  0  0  0  0  0  0  0  0
    1.3430    0.3540    0.2070 H   0  0  0  0  0  0  0  0  0  0  0  0
  1  6  1  0  0  0  0
  1  5  1  0  0  0  0
  2  1  1  0  0  0  0
  3  2  1  0  0  0  0
  3 14  1  0  0  0  0
  4  3  2  0  0  0  0
  7  2  1  0  0  0  0
  8  2  1  0  0  0  0
  9 18  1  0  0  0  0
  9 19  1  0  0  0  0
  9 17  1  0  0  0  0
 10  9  1  0  0  0  0
 11 21  1  0  0  0  0
 11 12  1  0  0  0  0
 11 10  1  0  0  0  0
 12 23  1  0  0  0  0
 12 13  1  0  0  0  0
 13 14  1  0  0  0  0
 13 15  1  0  0  0  0
 13 24  1  1  0  0  0
 14 25  1  0  0  0  0
 15 16  2  0  0  0  0
 20 11  1  0  0  0  0
 22 12  1  0  0  0  0
 26 35  1  0  0  0  0
 26 27  1  0  0  0  0
 27 38  1  0  0  0  0
 27 39  1  0  0  0  0
 28 27  1  0  0  0  0
 28 40  1  1  0  0  0
 29 42  1  0  0  0  0
 29 28  1  0  0  0  0
 29 41  1  0  0  0  0
 30 44  1  1  0  0  0
 30 28  1  0  0  0  0
 31 15  1  0  0  0  0
 31 30  1  0  0  0  0
 32 30  1  0  0  0  0
 33 32  2  0  0  0  0
 34 32  1  0  0  0  0
 36 26  1  0  0  0  0
 37 26  1  0  0  0  0
 43 29  1  0  0  0  0
 45 31  1  0  0  0  0
M  END
$$$$
