GMM.pdb
 OpenBabel07022418243D

 43 42  0  0  1  0  0  0  0  0999 V2000
   -4.7970   -1.6180   -0.6040 N   0  0  0  0  0  0  0  0  0  0  0  0
   -4.4640   -2.8750    0.0360 C   0  0  0  0  0  0  0  0  0  0  0  0
   -2.9950   -3.0390    0.1810 C   0  0  0  0  0  0  0  0  0  0  0  0
   -2.5240   -4.0790    0.7220 O   0  0  0  0  0  0  0  0  0  0  0  0
   -4.5230   -0.7980   -0.0190 H   0  0  0  0  0  0  0  0  0  0  0  0
   -5.8400   -1.5600   -0.7130 H   0  0  0  0  0  0  0  0  0  0  0  0
   -5.0170   -2.9380    0.9710 H   0  0  0  0  0  0  0  0  0  0  0  0
   -4.8070   -3.7130   -0.6060 H   0  0  0  0  0  0  0  0  0  0  0  0
    2.5910   -2.5460    1.6460 C   0  0  0  0  0  0  0  0  0  0  0  0
    2.6950   -1.8420    0.0230 S   0  0  0  0  0  0  0  0  0  0  0  0
    1.6210   -2.4050   -1.2250 C   0  0  0  0  0  0  0  0  0  0  0  0
    0.1870   -2.0280   -1.3010 C   0  0  0  0  0  0  0  0  0  0  0  0
   -0.5910   -2.2750   -0.0960 C   0  0  2  0  0  0  0  0  0  0  0  0
   -2.0590   -2.0820   -0.2590 N   0  0  0  0  0  0  0  0  0  0  0  0
   -0.3690   -1.1760    0.9530 C   0  0  0  0  0  0  0  0  0  0  0  0
   -0.9290   -1.3890    2.0460 O   0  0  0  0  0  0  0  0  0  0  0  0
    3.3750   -2.0480    2.3000 H   0  0  0  0  0  0  0  0  0  0  0  0
    2.8620   -3.6530    1.6410 H   0  0  0  0  0  0  0  0  0  0  0  0
    1.6610   -2.4700    2.2010 H   0  0  0  0  0  0  0  0  0  0  0  0
    2.1240   -2.1370   -2.2440 H   0  0  0  0  0  0  0  0  0  0  0  0
    1.6950   -3.5660   -1.3050 H   0  0  0  0  0  0  0  0  0  0  0  0
    0.0460   -0.9970   -1.7380 H   0  0  0  0  0  0  0  0  0  0  0  0
   -0.2720   -2.6800   -2.1260 H   0  0  0  0  0  0  0  0  0  0  0  0
   -0.3350   -3.2060    0.3980 H   0  0  0  0  0  0  0  0  0  0  0  0
   -2.3500   -1.2040   -0.7120 H   0  0  0  0  0  0  0  0  0  0  0  0
    4.8490    3.0240    1.3210 C   0  0  0  0  0  0  0  0  0  0  0  0
    4.2360    2.4030    2.8920 S   0  0  0  0  0  0  0  0  0  0  0  0
    2.3990    2.2930    2.8680 C   0  0  0  0  0  0  0  0  0  0  0  0
    2.0410    1.2410    1.8650 C   0  0  0  0  0  0  0  0  0  0  0  0
    0.5800    1.0130    1.7360 C   0  0  2  0  0  0  0  0  0  0  0  0
    0.3700   -0.0340    0.7310 N   0  0  0  0  0  0  0  0  0  0  0  0
   -0.0760    2.2260    1.1930 C   0  0  0  0  0  0  0  0  0  0  0  0
   -0.6290    2.2190    0.0380 O   0  0  0  0  0  0  0  0  0  0  0  0
   -0.1600    3.4440    1.8520 O   0  0  0  0  0  0  0  0  0  0  0  0
    5.5810    3.8440    1.5570 H   0  0  0  0  0  0  0  0  0  0  0  0
    5.4420    2.2380    0.7850 H   0  0  0  0  0  0  0  0  0  0  0  0
    4.0440    3.4350    0.6880 H   0  0  0  0  0  0  0  0  0  0  0  0
    1.9850    3.2800    2.5900 H   0  0  0  0  0  0  0  0  0  0  0  0
    2.0260    1.9980    3.8500 H   0  0  0  0  0  0  0  0  0  0  0  0
    2.4170    1.5260    0.8380 H   0  0  0  0  0  0  0  0  0  0  0  0
    2.5880    0.2970    2.1010 H   0  0  0  0  0  0  0  0  0  0  0  0
    0.0740    0.7600    2.6850 H   0  0  0  0  0  0  0  0  0  0  0  0
    0.7890    0.1630   -0.1900 H   0  0  0  0  0  0  0  0  0  0  0  0
  1  5  1  0  0  0  0
  1  2  1  0  0  0  0
  2  3  1  0  0  0  0
  2  7  1  0  0  0  0
  3  4  2  0  0  0  0
  6  1  1  0  0  0  0
  8  2  1  0  0  0  0
  9 19  1  0  0  0  0
  9 17  1  0  0  0  0
 10  9  1  0  0  0  0
 11 10  1  0  0  0  0
 12 11  1  0  0  0  0
 12 13  1  0  0  0  0
 13 24  1  1  0  0  0
 13 15  1  0  0  0  0
 14 13  1  0  0  0  0
 14  3  1  0  0  0  0
 15 16  2  0  0  0  0
 18  9  1  0  0  0  0
 20 11  1  0  0  0  0
 21 11  1  0  0  0  0
 22 12  1  0  0  0  0
 23 12  1  0  0  0  0
 25 14  1  0  0  0  0
 26 35  1  0  0  0  0
 26 27  1  0  0  0  0
 28 27  1  0  0  0  0
 28 39  1  0  0  0  0
 29 41  1  0  0  0  0
 29 28  1  0  0  0  0
 30 29  1  0  0  0  0
 30 42  1  1  0  0  0
 31 15  1  0  0  0  0
 31 30  1  0  0  0  0
 32 30  1  0  0  0  0
 32 34  1  0  0  0  0
 33 32  2  0  0  0  0
 36 26  1  0  0  0  0
 37 26  1  0  0  0  0
 38 28  1  0  0  0  0
 40 29  1  0  0  0  0
 43 31  1  0  0  0  0
M  END
$$$$
