GMQ.pdb
 OpenBabel07022418243D

 43 42  0  0  1  0  0  0  0  0999 V2000
    0.0760   -2.6370   -2.7590 N   0  0  0  0  0  0  0  0  0  0  0  0
   -1.1420   -1.9290   -3.0940 C   0  0  0  0  0  0  0  0  0  0  0  0
   -1.8150   -1.3640   -1.9160 C   0  0  0  0  0  0  0  0  0  0  0  0
   -2.8830   -0.7260   -2.0740 O   0  0  0  0  0  0  0  0  0  0  0  0
    0.8060   -2.0350   -2.3690 H   0  0  0  0  0  0  0  0  0  0  0  0
   -0.0960   -3.5290   -2.2830 H   0  0  0  0  0  0  0  0  0  0  0  0
   -1.8610   -2.6190   -3.5850 H   0  0  0  0  0  0  0  0  0  0  0  0
   -0.9620   -1.1150   -3.8240 H   0  0  0  0  0  0  0  0  0  0  0  0
    0.4930   -4.9610    2.0650 C   0  0  0  0  0  0  0  0  0  0  0  0
   -0.6380   -3.9220    1.1190 S   0  0  0  0  0  0  0  0  0  0  0  0
   -1.5420   -2.8290    2.2090 C   0  0  0  0  0  0  0  0  0  0  0  0
   -2.5090   -1.9170    1.5540 C   0  0  0  0  0  0  0  0  0  0  0  0
   -1.9680   -0.9530    0.5620 C   0  0  2  0  0  0  0  0  0  0  0  0
   -1.3050   -1.5060   -0.5720 N   0  0  0  0  0  0  0  0  0  0  0  0
   -1.1540    0.1280    1.2190 C   0  0  0  0  0  0  0  0  0  0  0  0
   -1.5750    0.7340    2.2360 O   0  0  0  0  0  0  0  0  0  0  0  0
    0.7890   -5.8280    1.4120 H   0  0  0  0  0  0  0  0  0  0  0  0
    1.3750   -4.4130    2.4390 H   0  0  0  0  0  0  0  0  0  0  0  0
   -0.0070   -5.3850    2.9710 H   0  0  0  0  0  0  0  0  0  0  0  0
   -2.1510   -3.4900    2.8960 H   0  0  0  0  0  0  0  0  0  0  0  0
   -0.8630   -2.2810    2.9220 H   0  0  0  0  0  0  0  0  0  0  0  0
   -3.2990   -2.5170    1.0620 H   0  0  0  0  0  0  0  0  0  0  0  0
   -3.0070   -1.3270    2.3540 H   0  0  0  0  0  0  0  0  0  0  0  0
   -2.8710   -0.3980    0.1600 H   0  0  0  0  0  0  0  0  0  0  0  0
   -0.4030   -2.0520   -0.5470 H   0  0  0  0  0  0  0  0  0  0  0  0
    4.4950    3.8430    2.0750 N   0  0  0  0  0  0  0  0  0  0  0  0
    3.9100    2.6210    1.7030 C   0  0  0  0  0  0  0  0  0  0  0  0
    4.0500    2.2540    0.4840 O   0  0  0  0  0  0  0  0  0  0  0  0
    3.1530    1.7110    2.5880 C   0  0  0  0  0  0  0  0  0  0  0  0
    2.1200    0.8910    1.9210 C   0  0  0  0  0  0  0  0  0  0  0  0
    0.9320    1.5600    1.3420 C   0  0  2  0  0  0  0  0  0  0  0  0
    0.1190    0.5040    0.7140 N   0  0  0  0  0  0  0  0  0  0  0  0
    1.1070    2.7070    0.4700 C   0  0  0  0  0  0  0  0  0  0  0  0
    1.6000    3.8030    0.8330 O   0  0  0  0  0  0  0  0  0  0  0  0
    0.7250    2.6750   -0.8910 O   0  0  0  0  0  0  0  0  0  0  0  0
    5.4720    3.8810    2.4020 H   0  0  0  0  0  0  0  0  0  0  0  0
    3.9450    4.7140    2.0200 H   0  0  0  0  0  0  0  0  0  0  0  0
    2.7760    2.2410    3.5000 H   0  0  0  0  0  0  0  0  0  0  0  0
    3.9310    1.0050    3.0140 H   0  0  0  0  0  0  0  0  0  0  0  0
    1.8220    0.0660    2.6470 H   0  0  0  0  0  0  0  0  0  0  0  0
    2.6570    0.2860    1.1160 H   0  0  0  0  0  0  0  0  0  0  0  0
    0.3430    1.9560    2.2430 H   0  0  0  0  0  0  0  0  0  0  0  0
    0.4830    0.0130   -0.1280 H   0  0  0  0  0  0  0  0  0  0  0  0
  1  5  1  0  0  0  0
  1  6  1  0  0  0  0
  2  1  1  0  0  0  0
  2  3  1  0  0  0  0
  3 14  1  0  0  0  0
  4  3  2  0  0  0  0
  7  2  1  0  0  0  0
  8  2  1  0  0  0  0
  9 18  1  0  0  0  0
  9 19  1  0  0  0  0
 10  9  1  0  0  0  0
 10 11  1  0  0  0  0
 11 20  1  0  0  0  0
 11 21  1  0  0  0  0
 12 11  1  0  0  0  0
 12 23  1  0  0  0  0
 13 24  1  6  0  0  0
 13 15  1  0  0  0  0
 13 12  1  0  0  0  0
 14 25  1  0  0  0  0
 14 13  1  0  0  0  0
 15 16  2  0  0  0  0
 17  9  1  0  0  0  0
 22 12  1  0  0  0  0
 26 36  1  0  0  0  0
 27 26  1  0  0  0  0
 27 29  1  0  0  0  0
 28 27  2  0  0  0  0
 29 39  1  0  0  0  0
 29 38  1  0  0  0  0
 30 29  1  0  0  0  0
 30 40  1  0  0  0  0
 31 30  1  0  0  0  0
 31 42  1  1  0  0  0
 32 15  1  0  0  0  0
 32 31  1  0  0  0  0
 33 34  1  0  0  0  0
 33 31  1  0  0  0  0
 35 33  2  0  0  0  0
 37 26  1  0  0  0  0
 41 30  1  0  0  0  0
 43 32  1  0  0  0  0
M  END
$$$$
