GMR.pdb
 OpenBabel07022418243D

 49 48  0  0  1  0  0  0  0  0999 V2000
    2.6390   -5.1950    3.1160 N   0  0  0  0  0  0  0  0  0  0  0  0
    2.3940   -4.9670    1.7190 C   0  0  0  0  0  0  0  0  0  0  0  0
    2.0940   -3.5290    1.5080 C   0  0  0  0  0  0  0  0  0  0  0  0
    2.0800   -2.7070    2.4800 O   0  0  0  0  0  0  0  0  0  0  0  0
    2.4320   -4.3440    3.6460 H   0  0  0  0  0  0  0  0  0  0  0  0
    2.0510   -6.0190    3.4230 H   0  0  0  0  0  0  0  0  0  0  0  0
    1.5940   -5.6310    1.3390 H   0  0  0  0  0  0  0  0  0  0  0  0
    3.3030   -5.2080    1.1300 H   0  0  0  0  0  0  0  0  0  0  0  0
    4.1430    1.2670    1.3940 C   0  0  0  0  0  0  0  0  0  0  0  0
    2.6370    1.4160    0.4260 S   0  0  0  0  0  0  0  0  0  0  0  0
    2.6960    0.3920   -1.0740 C   0  0  0  0  0  0  0  0  0  0  0  0
    2.7120   -1.0450   -0.7370 C   0  0  0  0  0  0  0  0  0  0  0  0
    1.5050   -1.5400    0.0340 C   0  0  2  0  0  0  0  0  0  0  0  0
    1.8070   -2.9750    0.2430 N   0  0  0  0  0  0  0  0  0  0  0  0
    0.2270   -1.3950   -0.6520 C   0  0  0  0  0  0  0  0  0  0  0  0
   -0.3390   -2.4530   -1.1170 O   0  0  0  0  0  0  0  0  0  0  0  0
    4.0690    0.5500    2.2340 H   0  0  0  0  0  0  0  0  0  0  0  0
    4.9690    0.9270    0.7160 H   0  0  0  0  0  0  0  0  0  0  0  0
    4.3930    2.2550    1.8500 H   0  0  0  0  0  0  0  0  0  0  0  0
    1.8780    0.6360   -1.7530 H   0  0  0  0  0  0  0  0  0  0  0  0
    3.6360    0.6290   -1.6600 H   0  0  0  0  0  0  0  0  0  0  0  0
    3.5800   -1.2010   -0.0240 H   0  0  0  0  0  0  0  0  0  0  0  0
    2.9520   -1.7120   -1.5930 H   0  0  0  0  0  0  0  0  0  0  0  0
    1.5670   -1.0870    1.0400 H   0  0  0  0  0  0  0  0  0  0  0  0
    1.7970   -3.5690   -0.5990 H   0  0  0  0  0  0  0  0  0  0  0  0
   -1.8830    2.6730    3.1630 N   0  0  0  0  0  0  0  0  0  0  0  0
   -2.5310    1.3920    3.0350 C   0  0  0  0  0  0  0  0  0  0  0  0
   -2.1280    0.3700    3.7280 N   0  0  0  0  0  0  0  0  0  0  0  0
   -3.6150    1.2740    2.1360 N   0  0  0  0  0  0  0  0  0  0  0  0
   -3.9390    0.0060    1.5690 C   0  0  0  0  0  0  0  0  0  0  0  0
   -2.9030   -0.5200    0.6000 C   0  0  0  0  0  0  0  0  0  0  0  0
   -2.7440    0.4510   -0.5400 C   0  0  0  0  0  0  0  0  0  0  0  0
   -1.7130   -0.0480   -1.5310 C   0  0  2  0  0  0  0  0  0  0  0  0
   -0.4340   -0.1940   -0.8390 N   0  0  0  0  0  0  0  0  0  0  0  0
   -1.6190    0.8000   -2.7110 C   0  0  0  0  0  0  0  0  0  0  0  0
   -2.6230    1.0270   -3.4180 O   0  0  0  0  0  0  0  0  0  0  0  0
   -0.4160    1.3720   -3.0760 O   0  0  0  0  0  0  0  0  0  0  0  0
   -2.4090    3.5050    3.5520 H   0  0  0  0  0  0  0  0  0  0  0  0
   -0.8890    2.7790    2.8670 H   0  0  0  0  0  0  0  0  0  0  0  0
   -1.3300    0.4600    4.3880 H   0  0  0  0  0  0  0  0  0  0  0  0
   -4.1800    2.1130    1.8870 H   0  0  0  0  0  0  0  0  0  0  0  0
   -4.9160   -0.0290    1.0570 H   0  0  0  0  0  0  0  0  0  0  0  0
   -4.0160   -0.7680    2.3880 H   0  0  0  0  0  0  0  0  0  0  0  0
   -1.9110   -0.6200    1.1020 H   0  0  0  0  0  0  0  0  0  0  0  0
   -3.2910   -1.4920    0.2300 H   0  0  0  0  0  0  0  0  0  0  0  0
   -2.4010    1.4140   -0.1130 H   0  0  0  0  0  0  0  0  0  0  0  0
   -3.7150    0.6490   -1.0270 H   0  0  0  0  0  0  0  0  0  0  0  0
   -2.0200   -1.0710   -1.8400 H   0  0  0  0  0  0  0  0  0  0  0  0
   -0.0520    0.6960   -0.4710 H   0  0  0  0  0  0  0  0  0  0  0  0
  1  6  1  0  0  0  0
  1  5  1  0  0  0  0
  2  1  1  0  0  0  0
  3  2  1  0  0  0  0
  3  4  2  0  0  0  0
  7  2  1  0  0  0  0
  8  2  1  0  0  0  0
  9 19  1  0  0  0  0
  9 17  1  0  0  0  0
 10  9  1  0  0  0  0
 11 12  1  0  0  0  0
 11 10  1  0  0  0  0
 12 22  1  0  0  0  0
 12 13  1  0  0  0  0
 13 14  1  0  0  0  0
 13 24  1  1  0  0  0
 14  3  1  0  0  0  0
 15 13  1  0  0  0  0
 16 15  2  0  0  0  0
 18  9  1  0  0  0  0
 20 11  1  0  0  0  0
 21 11  1  0  0  0  0
 23 12  1  0  0  0  0
 25 14  1  0  0  0  0
 26 38  1  0  0  0  0
 27 26  1  0  0  0  0
 27 28  2  0  0  0  0
 28 40  1  0  0  0  0
 29 27  1  0  0  0  0
 30 29  1  0  0  0  0
 30 43  1  0  0  0  0
 31 44  1  0  0  0  0
 31 30  1  0  0  0  0
 32 46  1  0  0  0  0
 32 31  1  0  0  0  0
 33 48  1  6  0  0  0
 33 34  1  0  0  0  0
 33 32  1  0  0  0  0
 34 15  1  0  0  0  0
 34 49  1  0  0  0  0
 35 33  1  0  0  0  0
 36 35  2  0  0  0  0
 37 35  1  0  0  0  0
 39 26  1  0  0  0  0
 41 29  1  0  0  0  0
 42 30  1  0  0  0  0
 45 31  1  0  0  0  0
 47 32  1  0  0  0  0
M  END
$$$$
