GMV.pdb
 OpenBabel07022418243D

 42 41  0  0  1  0  0  0  0  0999 V2000
    0.8420   -5.4120    1.9130 N   0  0  0  0  0  0  0  0  0  0  0  0
    2.0970   -5.1500    1.2340 C   0  0  0  0  0  0  0  0  0  0  0  0
    2.0930   -3.7570    0.6680 C   0  0  0  0  0  0  0  0  0  0  0  0
    3.0500   -3.2870    0.0400 O   0  0  0  0  0  0  0  0  0  0  0  0
    0.7350   -4.9100    2.8020 H   0  0  0  0  0  0  0  0  0  0  0  0
    0.0530   -5.3290    1.2570 H   0  0  0  0  0  0  0  0  0  0  0  0
    2.8990   -5.1990    1.9960 H   0  0  0  0  0  0  0  0  0  0  0  0
    2.2120   -5.9070    0.4380 H   0  0  0  0  0  0  0  0  0  0  0  0
   -2.3300   -3.1220   -2.7900 C   0  0  0  0  0  0  0  0  0  0  0  0
   -2.6800   -1.8060   -1.5990 S   0  0  0  0  0  0  0  0  0  0  0  0
   -1.4970   -1.8800   -0.2220 C   0  0  0  0  0  0  0  0  0  0  0  0
   -0.1420   -1.5550   -0.7580 C   0  0  0  0  0  0  0  0  0  0  0  0
    0.9310   -1.5860    0.3110 C   0  0  2  0  0  0  0  0  0  0  0  0
    0.9420   -2.9300    0.8550 N   0  0  0  0  0  0  0  0  0  0  0  0
    0.6870   -0.5660    1.3600 C   0  0  0  0  0  0  0  0  0  0  0  0
    0.5180   -0.8860    2.5650 O   0  0  0  0  0  0  0  0  0  0  0  0
   -3.0730   -3.9650   -2.7100 H   0  0  0  0  0  0  0  0  0  0  0  0
   -2.4360   -2.7120   -3.8130 H   0  0  0  0  0  0  0  0  0  0  0  0
   -1.3050   -3.4950   -2.6900 H   0  0  0  0  0  0  0  0  0  0  0  0
   -1.4650   -2.9490    0.1390 H   0  0  0  0  0  0  0  0  0  0  0  0
   -1.8140   -1.2770    0.6320 H   0  0  0  0  0  0  0  0  0  0  0  0
   -0.1120   -0.6240   -1.3530 H   0  0  0  0  0  0  0  0  0  0  0  0
    0.1270   -2.3820   -1.4790 H   0  0  0  0  0  0  0  0  0  0  0  0
    1.8940   -1.3840   -0.2130 H   0  0  0  0  0  0  0  0  0  0  0  0
    0.1160   -3.2930    1.3790 H   0  0  0  0  0  0  0  0  0  0  0  0
    1.9260    3.5120    0.9480 C   0  0  0  0  0  0  0  0  0  0  0  0
    1.5770    2.7490    2.1760 C   0  0  0  0  0  0  0  0  0  0  0  0
    1.3170    3.7160    3.3090 C   0  0  0  0  0  0  0  0  0  0  0  0
    0.4050    1.8110    2.0220 C   0  0  2  0  0  0  0  0  0  0  0  0
    0.6420    0.8100    1.0020 N   0  0  0  0  0  0  0  0  0  0  0  0
   -0.8720    2.5320    1.7920 C   0  0  0  0  0  0  0  0  0  0  0  0
   -1.6230    2.2630    0.8120 O   0  0  0  0  0  0  0  0  0  0  0  0
   -1.3190    3.5410    2.6330 O   0  0  0  0  0  0  0  0  0  0  0  0
    1.1560    3.4590    0.1470 H   0  0  0  0  0  0  0  0  0  0  0  0
    2.0560    4.6130    1.1620 H   0  0  0  0  0  0  0  0  0  0  0  0
    2.9290    3.2050    0.5350 H   0  0  0  0  0  0  0  0  0  0  0  0
    2.4520    2.1020    2.4590 H   0  0  0  0  0  0  0  0  0  0  0  0
    0.5520    3.3190    4.0120 H   0  0  0  0  0  0  0  0  0  0  0  0
    2.2610    3.9580    3.8390 H   0  0  0  0  0  0  0  0  0  0  0  0
    0.9170    4.6610    2.8770 H   0  0  0  0  0  0  0  0  0  0  0  0
    0.2950    1.2820    2.9890 H   0  0  0  0  0  0  0  0  0  0  0  0
    0.7820    1.1130   -0.0130 H   0  0  0  0  0  0  0  0  0  0  0  0
  1  5  1  0  0  0  0
  2  1  1  0  0  0  0
  2  7  1  0  0  0  0
  3 14  1  0  0  0  0
  3  2  1  0  0  0  0
  4  3  2  0  0  0  0
  6  1  1  0  0  0  0
  8  2  1  0  0  0  0
  9 17  1  0  0  0  0
  9 19  1  0  0  0  0
  9 10  1  0  0  0  0
 10 11  1  0  0  0  0
 11 20  1  0  0  0  0
 11 21  1  0  0  0  0
 12 11  1  0  0  0  0
 12 13  1  0  0  0  0
 13 24  1  6  0  0  0
 13 14  1  0  0  0  0
 13 15  1  0  0  0  0
 14 25  1  0  0  0  0
 15 16  2  0  0  0  0
 18  9  1  0  0  0  0
 22 12  1  0  0  0  0
 23 12  1  0  0  0  0
 26 35  1  0  0  0  0
 26 27  1  0  0  0  0
 27 37  1  0  0  0  0
 27 28  1  0  0  0  0
 28 39  1  0  0  0  0
 28 38  1  0  0  0  0
 29 27  1  0  0  0  0
 29 41  1  1  0  0  0
 30 15  1  0  0  0  0
 30 29  1  0  0  0  0
 31 29  1  0  0  0  0
 31 33  1  0  0  0  0
 32 31  2  0  0  0  0
 34 26  1  0  0  0  0
 36 26  1  0  0  0  0
 40 28  1  0  0  0  0
 42 30  1  0  0  0  0
M  END
$$$$
