GMW.pdb
 OpenBabel07022418243D

 50 51  0  0  1  0  0  0  0  0999 V2000
    4.3960   -5.2640    0.7970 N   0  0  0  0  0  0  0  0  0  0  0  0
    4.0190   -3.9910    0.2200 C   0  0  0  0  0  0  0  0  0  0  0  0
    3.5710   -3.1000    1.3090 C   0  0  0  0  0  0  0  0  0  0  0  0
    3.5690   -3.5140    2.5010 O   0  0  0  0  0  0  0  0  0  0  0  0
    5.3160   -5.0960    1.2890 H   0  0  0  0  0  0  0  0  0  0  0  0
    3.6490   -5.4760    1.5210 H   0  0  0  0  0  0  0  0  0  0  0  0
    4.8400   -3.5300   -0.3880 H   0  0  0  0  0  0  0  0  0  0  0  0
    3.1900   -4.1780   -0.5030 H   0  0  0  0  0  0  0  0  0  0  0  0
    2.0080    3.5930    4.3490 C   0  0  0  0  0  0  0  0  0  0  0  0
    2.0000    2.2990    3.0840 S   0  0  0  0  0  0  0  0  0  0  0  0
    3.4980    1.3350    3.1690 C   0  0  0  0  0  0  0  0  0  0  0  0
    3.6350    0.2450    2.1920 C   0  0  0  0  0  0  0  0  0  0  0  0
    2.6850   -0.8890    2.1960 C   0  0  2  0  0  0  0  0  0  0  0  0
    3.1310   -1.7730    1.0970 N   0  0  0  0  0  0  0  0  0  0  0  0
    1.2540   -0.5810    2.0270 C   0  0  0  0  0  0  0  0  0  0  0  0
    0.5690    0.0380    2.8700 O   0  0  0  0  0  0  0  0  0  0  0  0
    2.9540    4.2050    4.2720 H   0  0  0  0  0  0  0  0  0  0  0  0
    1.1540    4.2810    4.1130 H   0  0  0  0  0  0  0  0  0  0  0  0
    1.8870    3.1860    5.3680 H   0  0  0  0  0  0  0  0  0  0  0  0
    3.6970    0.9260    4.1900 H   0  0  0  0  0  0  0  0  0  0  0  0
    4.3590    2.0510    2.9930 H   0  0  0  0  0  0  0  0  0  0  0  0
    3.7160    0.6300    1.1280 H   0  0  0  0  0  0  0  0  0  0  0  0
    4.6690   -0.2090    2.3640 H   0  0  0  0  0  0  0  0  0  0  0  0
    2.7940   -1.5020    3.1200 H   0  0  0  0  0  0  0  0  0  0  0  0
    3.1140   -1.3910    0.1430 H   0  0  0  0  0  0  0  0  0  0  0  0
    0.5300   -0.9810    0.8540 N   0  0  0  0  0  0  0  0  0  0  0  0
   -0.8790   -0.7020    0.6390 C   0  0  1  0  0  0  0  0  0  0  0  0
   -1.0960    0.2830   -0.4410 C   0  0  0  0  0  0  0  0  0  0  0  0
   -2.5240    0.5300   -0.6840 C   0  0  0  0  0  0  0  0  0  0  0  0
   -3.3460    1.4990   -0.0990 C   0  0  0  0  0  0  0  0  0  0  0  0
   -4.5980    1.3890   -0.5450 N   0  0  0  0  0  0  0  0  0  0  0  0
   -4.6470    0.3620   -1.4260 C   0  0  0  0  0  0  0  0  0  0  0  0
   -5.7320   -0.0950   -2.1410 C   0  0  0  0  0  0  0  0  0  0  0  0
   -5.5520   -1.1450   -3.0030 C   0  0  0  0  0  0  0  0  0  0  0  0
   -4.2890   -1.7080   -3.1240 C   0  0  0  0  0  0  0  0  0  0  0  0
   -3.2100   -1.2440   -2.4040 C   0  0  0  0  0  0  0  0  0  0  0  0
   -3.3860   -0.1810   -1.5290 C   0  0  0  0  0  0  0  0  0  0  0  0
   -1.6570   -1.9390    0.5990 C   0  0  0  0  0  0  0  0  0  0  0  0
   -1.0560   -3.0640    0.5770 O   0  0  0  0  0  0  0  0  0  0  0  0
   -3.0370   -1.9910    0.5880 O   0  0  0  0  0  0  0  0  0  0  0  0
    1.0310   -1.4970    0.1160 H   0  0  0  0  0  0  0  0  0  0  0  0
   -1.1880   -0.1590    1.6000 H   0  0  0  0  0  0  0  0  0  0  0  0
   -0.6730    1.2620   -0.0900 H   0  0  0  0  0  0  0  0  0  0  0  0
   -0.6230   -0.0230   -1.4040 H   0  0  0  0  0  0  0  0  0  0  0  0
   -3.0210    2.2380    0.6170 H   0  0  0  0  0  0  0  0  0  0  0  0
   -5.4000    1.9850   -0.2670 H   0  0  0  0  0  0  0  0  0  0  0  0
   -6.7180    0.3330   -2.0570 H   0  0  0  0  0  0  0  0  0  0  0  0
   -6.3880   -1.5330   -3.5850 H   0  0  0  0  0  0  0  0  0  0  0  0
   -4.1770   -2.5360   -3.8140 H   0  0  0  0  0  0  0  0  0  0  0  0
   -2.2110   -1.6780   -2.4900 H   0  0  0  0  0  0  0  0  0  0  0  0
  1  5  1  0  0  0  0
  1  6  1  0  0  0  0
  2  1  1  0  0  0  0
  2  3  1  0  0  0  0
  3  4  2  0  0  0  0
  7  2  1  0  0  0  0
  8  2  1  0  0  0  0
  9 19  1  0  0  0  0
 10 11  1  0  0  0  0
 10  9  1  0  0  0  0
 11 20  1  0  0  0  0
 12 13  1  0  0  0  0
 12 23  1  0  0  0  0
 12 11  1  0  0  0  0
 13 24  1  1  0  0  0
 14  3  1  0  0  0  0
 14 13  1  0  0  0  0
 15 13  1  0  0  0  0
 15 16  2  0  0  0  0
 17  9  1  0  0  0  0
 18  9  1  0  0  0  0
 21 11  1  0  0  0  0
 22 12  1  0  0  0  0
 25 14  1  0  0  0  0
 26 15  1  0  0  0  0
 27 26  1  0  0  0  0
 27 42  1  1  0  0  0
 28 43  1  0  0  0  0
 28 27  1  0  0  0  0
 29 28  1  0  0  0  0
 29 30  2  0  0  0  0
 30 45  1  0  0  0  0
 31 46  1  0  0  0  0
 31 30  1  0  0  0  0
 32 31  1  0  0  0  0
 33 47  1  0  0  0  0
 33 32  2  0  0  0  0
 34 33  1  0  0  0  0
 35 34  2  0  0  0  0
 35 36  1  0  0  0  0
 36 37  2  0  0  0  0
 37 32  1  0  0  0  0
 37 29  1  0  0  0  0
 38 27  1  0  0  0  0
 39 38  2  0  0  0  0
 40 38  1  0  0  0  0
 41 26  1  0  0  0  0
 44 28  1  0  0  0  0
 48 34  1  0  0  0  0
 49 35  1  0  0  0  0
 50 36  1  0  0  0  0
M  END
$$$$
