GMY.pdb
 OpenBabel07022418243D

 47 47  0  0  1  0  0  0  0  0999 V2000
    2.9250   -3.1230    2.9110 N   0  0  0  0  0  0  0  0  0  0  0  0
    1.6410   -3.2300    2.2590 C   0  0  0  0  0  0  0  0  0  0  0  0
    1.5760   -2.3650    1.0540 C   0  0  0  0  0  0  0  0  0  0  0  0
    2.5860   -1.6730    0.7540 O   0  0  0  0  0  0  0  0  0  0  0  0
    3.5310   -3.9210    2.5800 H   0  0  0  0  0  0  0  0  0  0  0  0
    2.7850   -3.1900    3.9640 H   0  0  0  0  0  0  0  0  0  0  0  0
    0.8310   -2.9710    2.9970 H   0  0  0  0  0  0  0  0  0  0  0  0
    1.4790   -4.2860    1.9400 H   0  0  0  0  0  0  0  0  0  0  0  0
    2.7590   -1.8000   -4.2210 C   0  0  0  0  0  0  0  0  0  0  0  0
    1.3470   -0.7470   -3.8990 S   0  0  0  0  0  0  0  0  0  0  0  0
   -0.1220   -1.6810   -3.4150 C   0  0  0  0  0  0  0  0  0  0  0  0
    0.0290   -2.3760   -2.0970 C   0  0  0  0  0  0  0  0  0  0  0  0
    0.2890   -1.4890   -0.9370 C   0  0  2  0  0  0  0  0  0  0  0  0
    0.4090   -2.3130    0.2510 N   0  0  0  0  0  0  0  0  0  0  0  0
   -0.7000   -0.4300   -0.7290 C   0  0  0  0  0  0  0  0  0  0  0  0
   -0.9950    0.3640   -1.6520 O   0  0  0  0  0  0  0  0  0  0  0  0
    3.5310   -1.5520   -3.4310 H   0  0  0  0  0  0  0  0  0  0  0  0
    3.2470   -1.5130   -5.1950 H   0  0  0  0  0  0  0  0  0  0  0  0
    2.5380   -2.8660   -4.2590 H   0  0  0  0  0  0  0  0  0  0  0  0
   -1.0440   -1.0700   -3.4730 H   0  0  0  0  0  0  0  0  0  0  0  0
   -0.2450   -2.4850   -4.1920 H   0  0  0  0  0  0  0  0  0  0  0  0
   -0.8190   -3.0700   -1.9680 H   0  0  0  0  0  0  0  0  0  0  0  0
    0.9380   -3.0400   -2.2110 H   0  0  0  0  0  0  0  0  0  0  0  0
    1.2860   -0.9960   -1.0710 H   0  0  0  0  0  0  0  0  0  0  0  0
   -0.3920   -2.9280    0.5760 H   0  0  0  0  0  0  0  0  0  0  0  0
    1.4510    1.3900    6.0720 O   0  0  0  0  0  0  0  0  0  0  0  0
    0.6050    1.5230    4.9860 C   0  0  0  0  0  0  0  0  0  0  0  0
    1.1310    1.5610    3.7140 C   0  0  0  0  0  0  0  0  0  0  0  0
    0.3170    1.6920    2.6170 C   0  0  0  0  0  0  0  0  0  0  0  0
   -1.0570    1.7930    2.7280 C   0  0  0  0  0  0  0  0  0  0  0  0
   -1.8770    1.9320    1.4930 C   0  0  0  0  0  0  0  0  0  0  0  0
   -2.3200    0.6430    0.9190 C   0  0  2  0  0  0  0  0  0  0  0  0
   -1.3370   -0.2920    0.5240 N   0  0  0  0  0  0  0  0  0  0  0  0
   -3.3750    0.9240   -0.1170 C   0  0  0  0  0  0  0  0  0  0  0  0
   -4.2180    1.8210    0.1520 O   0  0  0  0  0  0  0  0  0  0  0  0
   -1.5950    1.7560    4.0000 C   0  0  0  0  0  0  0  0  0  0  0  0
   -0.7620    1.6230    5.1040 C   0  0  0  0  0  0  0  0  0  0  0  0
   -3.4910    0.2860   -1.3210 O   0  0  0  0  0  0  0  0  0  0  0  0
    1.3880    2.0640    6.8100 H   0  0  0  0  0  0  0  0  0  0  0  0
    2.2180    1.4850    3.5560 H   0  0  0  0  0  0  0  0  0  0  0  0
    0.7290    1.7230    1.6130 H   0  0  0  0  0  0  0  0  0  0  0  0
   -2.8080    2.4770    1.8270 H   0  0  0  0  0  0  0  0  0  0  0  0
   -1.4140    2.6270    0.7620 H   0  0  0  0  0  0  0  0  0  0  0  0
   -2.9540    0.1240    1.7260 H   0  0  0  0  0  0  0  0  0  0  0  0
   -1.0180   -0.9970    1.2640 H   0  0  0  0  0  0  0  0  0  0  0  0
   -2.6770    1.8310    4.1240 H   0  0  0  0  0  0  0  0  0  0  0  0
   -1.2010    1.5960    6.0920 H   0  0  0  0  0  0  0  0  0  0  0  0
  1  6  1  0  0  0  0
  2  1  1  0  0  0  0
  2  7  1  0  0  0  0
  3  2  1  0  0  0  0
  4  3  2  0  0  0  0
  5  1  1  0  0  0  0
  8  2  1  0  0  0  0
  9 10  1  0  0  0  0
  9 17  1  0  0  0  0
 10 11  1  0  0  0  0
 11 12  1  0  0  0  0
 12 22  1  0  0  0  0
 12 13  1  0  0  0  0
 13 24  1  6  0  0  0
 13 15  1  0  0  0  0
 13 14  1  0  0  0  0
 14 25  1  0  0  0  0
 14  3  1  0  0  0  0
 15 33  1  0  0  0  0
 16 15  2  0  0  0  0
 18  9  1  0  0  0  0
 19  9  1  0  0  0  0
 20 11  1  0  0  0  0
 21 11  1  0  0  0  0
 23 12  1  0  0  0  0
 26 39  1  0  0  0  0
 27 37  1  0  0  0  0
 27 26  1  0  0  0  0
 28 27  2  0  0  0  0
 29 30  2  0  0  0  0
 29 28  1  0  0  0  0
 30 36  1  0  0  0  0
 31 42  1  0  0  0  0
 31 30  1  0  0  0  0
 32 31  1  0  0  0  0
 32 44  1  1  0  0  0
 33 32  1  0  0  0  0
 33 45  1  0  0  0  0
 34 35  1  0  0  0  0
 34 32  1  0  0  0  0
 36 46  1  0  0  0  0
 36 37  2  0  0  0  0
 37 47  1  0  0  0  0
 38 34  2  0  0  0  0
 40 28  1  0  0  0  0
 41 29  1  0  0  0  0
 43 31  1  0  0  0  0
M  END
$$$$
