GNA.pdb
 OpenBabel07022418213D

 33 32  0  0  1  0  0  0  0  0999 V2000
    0.7660   -4.4520    3.8550 N   0  0  0  0  0  0  0  0  0  0  0  0
    0.0920   -3.1680    3.7860 C   0  0  0  0  0  0  0  0  0  0  0  0
    0.1560   -2.6810    2.4010 C   0  0  0  0  0  0  0  0  0  0  0  0
    0.7300   -3.3470    1.5040 O   0  0  0  0  0  0  0  0  0  0  0  0
    1.0790   -4.7410    2.9220 H   0  0  0  0  0  0  0  0  0  0  0  0
    0.1120   -5.2020    4.2180 H   0  0  0  0  0  0  0  0  0  0  0  0
   -0.9380   -3.2310    4.1970 H   0  0  0  0  0  0  0  0  0  0  0  0
    0.6460   -2.5080    4.5030 H   0  0  0  0  0  0  0  0  0  0  0  0
   -2.6910   -2.7100   -1.2530 N   0  0  0  0  0  0  0  0  0  0  0  0
   -2.3950   -2.0270   -0.0540 C   0  0  0  0  0  0  0  0  0  0  0  0
   -2.7590   -2.5760    1.0300 O   0  0  0  0  0  0  0  0  0  0  0  0
   -1.6980   -0.7330   -0.0100 C   0  0  0  0  0  0  0  0  0  0  0  0
   -0.3670   -0.9440    0.6480 C   0  0  2  0  0  0  0  0  0  0  0  0
   -0.4120   -1.4440    1.9760 N   0  0  0  0  0  0  0  0  0  0  0  0
    0.4580    0.3020    0.6430 C   0  0  0  0  0  0  0  0  0  0  0  0
    0.9770    0.7390    1.7120 O   0  0  0  0  0  0  0  0  0  0  0  0
   -3.3090   -3.5380   -1.2810 H   0  0  0  0  0  0  0  0  0  0  0  0
   -2.2730   -2.3720   -2.1380 H   0  0  0  0  0  0  0  0  0  0  0  0
   -1.4900   -0.4250   -1.0590 H   0  0  0  0  0  0  0  0  0  0  0  0
   -2.2910    0.0840    0.4320 H   0  0  0  0  0  0  0  0  0  0  0  0
    0.1650   -1.7250    0.0240 H   0  0  0  0  0  0  0  0  0  0  0  0
   -0.8930   -0.8760    2.7040 H   0  0  0  0  0  0  0  0  0  0  0  0
    2.7560    2.0900   -1.3500 C   0  0  0  0  0  0  0  0  0  0  0  0
    1.5080    2.2690   -0.5480 C   0  0  2  0  0  0  0  0  0  0  0  0
    0.7050    1.0530   -0.5310 N   0  0  0  0  0  0  0  0  0  0  0  0
    0.7070    3.4500   -0.9280 C   0  0  0  0  0  0  0  0  0  0  0  0
    1.2590    4.5670   -0.9880 O   0  0  0  0  0  0  0  0  0  0  0  0
   -0.6340    3.2550   -1.2010 O   0  0  0  0  0  0  0  0  0  0  0  0
    2.9580    0.9960   -1.4990 H   0  0  0  0  0  0  0  0  0  0  0  0
    2.5980    2.5860   -2.3490 H   0  0  0  0  0  0  0  0  0  0  0  0
    3.6230    2.5760   -0.8420 H   0  0  0  0  0  0  0  0  0  0  0  0
    1.8290    2.4260    0.5230 H   0  0  0  0  0  0  0  0  0  0  0  0
    0.2890    0.7140   -1.4190 H   0  0  0  0  0  0  0  0  0  0  0  0
  1  6  1  0  0  0  0
  2  1  1  0  0  0  0
  2  7  1  0  0  0  0
  2  8  1  0  0  0  0
  3  2  1  0  0  0  0
  4  3  2  0  0  0  0
  5  1  1  0  0  0  0
  9 10  1  0  0  0  0
 10 12  1  0  0  0  0
 10 11  2  0  0  0  0
 12 20  1  0  0  0  0
 12 13  1  0  0  0  0
 13 21  1  6  0  0  0
 13 14  1  0  0  0  0
 14  3  1  0  0  0  0
 14 22  1  0  0  0  0
 15 13  1  0  0  0  0
 15 16  2  0  0  0  0
 17  9  1  0  0  0  0
 18  9  1  0  0  0  0
 19 12  1  0  0  0  0
 23 31  1  0  0  0  0
 23 24  1  0  0  0  0
 24 25  1  0  0  0  0
 24 32  1  1  0  0  0
 25 15  1  0  0  0  0
 26 24  1  0  0  0  0
 27 26  1  0  0  0  0
 28 26  2  0  0  0  0
 29 23  1  0  0  0  0
 30 23  1  0  0  0  0
 33 25  1  0  0  0  0
M  END
$$$$
