GND.pdb
 OpenBabel07022418223D

 36 35  0  0  1  0  0  0  0  0999 V2000
   -1.4820   -4.6340    2.4990 N   0  0  0  0  0  0  0  0  0  0  0  0
   -0.9330   -4.3820    1.1880 C   0  0  0  0  0  0  0  0  0  0  0  0
   -0.3640   -2.9890    1.0770 C   0  0  0  0  0  0  0  0  0  0  0  0
    0.1310   -2.7010   -0.0350 O   0  0  0  0  0  0  0  0  0  0  0  0
   -0.8230   -4.5370    3.2760 H   0  0  0  0  0  0  0  0  0  0  0  0
   -2.3780   -4.1090    2.5970 H   0  0  0  0  0  0  0  0  0  0  0  0
   -0.1360   -5.1390    1.0070 H   0  0  0  0  0  0  0  0  0  0  0  0
   -1.7560   -4.5320    0.4490 H   0  0  0  0  0  0  0  0  0  0  0  0
    3.4270   -0.6820    1.0660 N   0  0  0  0  0  0  0  0  0  0  0  0
    2.5090   -1.3080    1.9480 C   0  0  0  0  0  0  0  0  0  0  0  0
    2.6000   -2.5480    2.1040 O   0  0  0  0  0  0  0  0  0  0  0  0
    1.4600   -0.5790    2.6870 C   0  0  0  0  0  0  0  0  0  0  0  0
    0.0900   -0.7600    2.1720 C   0  0  2  0  0  0  0  0  0  0  0  0
   -0.4020   -2.0920    2.1710 N   0  0  0  0  0  0  0  0  0  0  0  0
   -0.2230    0.0100    0.9090 C   0  0  0  0  0  0  0  0  0  0  0  0
   -0.9260   -0.4620   -0.0190 O   0  0  0  0  0  0  0  0  0  0  0  0
    3.7240   -1.1870    0.2050 H   0  0  0  0  0  0  0  0  0  0  0  0
    3.8260    0.2650    1.2300 H   0  0  0  0  0  0  0  0  0  0  0  0
    1.7160    0.4860    2.7390 H   0  0  0  0  0  0  0  0  0  0  0  0
    1.4350   -0.9160    3.7700 H   0  0  0  0  0  0  0  0  0  0  0  0
   -0.5960   -0.2110    2.9180 H   0  0  0  0  0  0  0  0  0  0  0  0
   -0.8530   -2.5130    3.0500 H   0  0  0  0  0  0  0  0  0  0  0  0
    0.2590    1.3260    0.6840 N   0  0  0  0  0  0  0  0  0  0  0  0
    0.0040    2.1330   -0.4780 C   0  0  1  0  0  0  0  0  0  0  0  0
    0.9740    1.9680   -1.5950 C   0  0  0  0  0  0  0  0  0  0  0  0
    1.0350    0.6000   -2.1180 C   0  0  0  0  0  0  0  0  0  0  0  0
    1.7440   -0.2720   -1.5650 O   0  0  0  0  0  0  0  0  0  0  0  0
   -1.4160    2.1760   -0.9030 C   0  0  0  0  0  0  0  0  0  0  0  0
   -1.7100    2.7690   -1.9550 O   0  0  0  0  0  0  0  0  0  0  0  0
    0.2930    0.2720   -3.2440 O   0  0  0  0  0  0  0  0  0  0  0  0
   -2.3860    1.5770   -0.1470 O   0  0  0  0  0  0  0  0  0  0  0  0
    0.8590    1.7170    1.4740 H   0  0  0  0  0  0  0  0  0  0  0  0
    0.1600    3.2230   -0.1140 H   0  0  0  0  0  0  0  0  0  0  0  0
    0.6740    2.7080   -2.3880 H   0  0  0  0  0  0  0  0  0  0  0  0
    1.9730    2.2930   -1.2380 H   0  0  0  0  0  0  0  0  0  0  0  0
    0.4720   -0.6190   -3.6910 H   0  0  0  0  0  0  0  0  0  0  0  0
  1  6  1  0  0  0  0
  1  5  1  0  0  0  0
  2  1  1  0  0  0  0
  3  2  1  0  0  0  0
  3 14  1  0  0  0  0
  4  3  2  0  0  0  0
  7  2  1  0  0  0  0
  8  2  1  0  0  0  0
  9 18  1  0  0  0  0
  9 10  1  0  0  0  0
 10 11  2  0  0  0  0
 10 12  1  0  0  0  0
 12 19  1  0  0  0  0
 12 20  1  0  0  0  0
 13 12  1  0  0  0  0
 13 21  1  1  0  0  0
 14 13  1  0  0  0  0
 14 22  1  0  0  0  0
 15 13  1  0  0  0  0
 16 15  2  0  0  0  0
 17  9  1  0  0  0  0
 23 15  1  0  0  0  0
 23 32  1  0  0  0  0
 24 33  1  1  0  0  0
 24 23  1  0  0  0  0
 25 35  1  0  0  0  0
 25 24  1  0  0  0  0
 26 25  1  0  0  0  0
 26 27  2  0  0  0  0
 28 24  1  0  0  0  0
 28 31  1  0  0  0  0
 29 28  2  0  0  0  0
 30 26  1  0  0  0  0
 34 25  1  0  0  0  0
 36 30  1  0  0  0  0
M  END
$$$$
