GNE.pdb
 OpenBabel07022418223D

 39 38  0  0  1  0  0  0  0  0999 V2000
   -1.5290   -6.0330    0.9110 N   0  0  0  0  0  0  0  0  0  0  0  0
   -0.9250   -5.0530    0.0190 C   0  0  0  0  0  0  0  0  0  0  0  0
   -0.4450   -3.8780    0.8250 C   0  0  0  0  0  0  0  0  0  0  0  0
   -0.5860   -3.8290    2.0660 O   0  0  0  0  0  0  0  0  0  0  0  0
   -0.9440   -6.9020    0.8650 H   0  0  0  0  0  0  0  0  0  0  0  0
   -1.5150   -5.6590    1.8860 H   0  0  0  0  0  0  0  0  0  0  0  0
   -1.6800   -4.6810   -0.7080 H   0  0  0  0  0  0  0  0  0  0  0  0
   -0.1030   -5.5130   -0.5650 H   0  0  0  0  0  0  0  0  0  0  0  0
    4.1170   -1.3780   -0.7970 N   0  0  0  0  0  0  0  0  0  0  0  0
    2.7080   -1.4610   -0.6110 C   0  0  0  0  0  0  0  0  0  0  0  0
    2.0140   -1.4890   -1.6610 O   0  0  0  0  0  0  0  0  0  0  0  0
    2.1870   -1.5090    0.7610 C   0  0  0  0  0  0  0  0  0  0  0  0
    0.6860   -1.6100    0.8350 C   0  0  2  0  0  0  0  0  0  0  0  0
    0.1780   -2.8010    0.1840 N   0  0  0  0  0  0  0  0  0  0  0  0
    0.0140   -0.4510    0.1950 C   0  0  0  0  0  0  0  0  0  0  0  0
   -0.8160   -0.5720   -0.7450 O   0  0  0  0  0  0  0  0  0  0  0  0
    4.6180   -2.2360   -1.0690 H   0  0  0  0  0  0  0  0  0  0  0  0
    4.6450   -0.4880   -0.6660 H   0  0  0  0  0  0  0  0  0  0  0  0
    2.6270   -2.3220    1.3710 H   0  0  0  0  0  0  0  0  0  0  0  0
    2.4840   -0.5610    1.2600 H   0  0  0  0  0  0  0  0  0  0  0  0
    0.4400   -1.7290    1.9110 H   0  0  0  0  0  0  0  0  0  0  0  0
    0.2960   -2.8410   -0.8660 H   0  0  0  0  0  0  0  0  0  0  0  0
    0.2620    0.9120    0.6040 N   0  0  0  0  0  0  0  0  0  0  0  0
   -0.3810    2.0300   -0.0080 C   0  0  1  0  0  0  0  0  0  0  0  0
   -1.5450    2.5270    0.7930 C   0  0  0  0  0  0  0  0  0  0  0  0
   -1.2470    2.9720    2.1700 C   0  0  0  0  0  0  0  0  0  0  0  0
   -0.8360    1.9450    3.1440 C   0  0  0  0  0  0  0  0  0  0  0  0
   -0.9550    0.7050    3.0040 O   0  0  0  0  0  0  0  0  0  0  0  0
    0.5610    3.1140   -0.3630 C   0  0  0  0  0  0  0  0  0  0  0  0
    1.7730    2.9790   -0.1140 O   0  0  0  0  0  0  0  0  0  0  0  0
   -0.2450    2.3220    4.3770 O   0  0  0  0  0  0  0  0  0  0  0  0
    0.1020    4.2580   -0.9610 O   0  0  0  0  0  0  0  0  0  0  0  0
    0.9750    1.0530    1.3600 H   0  0  0  0  0  0  0  0  0  0  0  0
   -0.8220    1.6250   -0.9850 H   0  0  0  0  0  0  0  0  0  0  0  0
   -2.1310    3.2900    0.2130 H   0  0  0  0  0  0  0  0  0  0  0  0
   -2.2430    1.6260    0.8960 H   0  0  0  0  0  0  0  0  0  0  0  0
   -2.1760    3.4550    2.5960 H   0  0  0  0  0  0  0  0  0  0  0  0
   -0.4160    3.7470    2.1750 H   0  0  0  0  0  0  0  0  0  0  0  0
    0.3570    1.6470    4.8270 H   0  0  0  0  0  0  0  0  0  0  0  0
  1  6  1  0  0  0  0
  2  3  1  0  0  0  0
  2  1  1  0  0  0  0
  3  4  2  0  0  0  0
  5  1  1  0  0  0  0
  7  2  1  0  0  0  0
  8  2  1  0  0  0  0
  9 18  1  0  0  0  0
  9 10  1  0  0  0  0
 10 12  1  0  0  0  0
 11 10  2  0  0  0  0
 12 13  1  0  0  0  0
 12 20  1  0  0  0  0
 12 19  1  0  0  0  0
 13 21  1  1  0  0  0
 14  3  1  0  0  0  0
 14 13  1  0  0  0  0
 15 23  1  0  0  0  0
 15 13  1  0  0  0  0
 16 15  2  0  0  0  0
 17  9  1  0  0  0  0
 22 14  1  0  0  0  0
 23 33  1  0  0  0  0
 24 34  1  6  0  0  0
 24 23  1  0  0  0  0
 24 25  1  0  0  0  0
 25 36  1  0  0  0  0
 25 26  1  0  0  0  0
 26 38  1  0  0  0  0
 26 37  1  0  0  0  0
 26 27  1  0  0  0  0
 27 31  1  0  0  0  0
 28 27  2  0  0  0  0
 29 30  1  0  0  0  0
 29 24  1  0  0  0  0
 31 39  1  0  0  0  0
 32 29  2  0  0  0  0
 35 25  1  0  0  0  0
M  END
$$$$
