GNF.pdb
 OpenBabel07022418223D

 43 43  0  0  1  0  0  0  0  0999 V2000
    0.5070   -0.7100    6.4340 N   0  0  0  0  0  0  0  0  0  0  0  0
    1.4790    0.2120    5.8790 C   0  0  0  0  0  0  0  0  0  0  0  0
    1.5640    0.1180    4.4130 C   0  0  0  0  0  0  0  0  0  0  0  0
    2.3760    0.8690    3.8140 O   0  0  0  0  0  0  0  0  0  0  0  0
    0.4960   -0.6220    7.4740 H   0  0  0  0  0  0  0  0  0  0  0  0
   -0.4550   -0.5720    6.1010 H   0  0  0  0  0  0  0  0  0  0  0  0
    2.4500   -0.0040    6.3440 H   0  0  0  0  0  0  0  0  0  0  0  0
    1.2060    1.2620    6.1530 H   0  0  0  0  0  0  0  0  0  0  0  0
    2.7490   -3.4980    3.3500 N   0  0  0  0  0  0  0  0  0  0  0  0
    2.6640   -2.5400    2.3030 C   0  0  0  0  0  0  0  0  0  0  0  0
    3.7500   -2.0310    1.9000 O   0  0  0  0  0  0  0  0  0  0  0  0
    1.3830   -2.1320    1.6890 C   0  0  0  0  0  0  0  0  0  0  0  0
    0.9570   -0.7720    2.1840 C   0  0  2  0  0  0  0  0  0  0  0  0
    0.7810   -0.7740    3.6290 N   0  0  0  0  0  0  0  0  0  0  0  0
   -0.3510   -0.3860    1.5770 C   0  0  0  0  0  0  0  0  0  0  0  0
   -1.3610   -0.1120    2.2770 O   0  0  0  0  0  0  0  0  0  0  0  0
    1.9560   -4.1630    3.5580 H   0  0  0  0  0  0  0  0  0  0  0  0
    3.5860   -3.5820    3.9480 H   0  0  0  0  0  0  0  0  0  0  0  0
    0.6140   -2.8730    2.0520 H   0  0  0  0  0  0  0  0  0  0  0  0
    1.3830   -2.2050    0.5970 H   0  0  0  0  0  0  0  0  0  0  0  0
    1.7160   -0.0320    1.8700 H   0  0  0  0  0  0  0  0  0  0  0  0
    0.0990   -1.4080    4.1030 H   0  0  0  0  0  0  0  0  0  0  0  0
   -0.5080   -0.3130    0.1520 N   0  0  0  0  0  0  0  0  0  0  0  0
   -1.7470    0.0550   -0.4970 C   0  0  1  0  0  0  0  0  0  0  0  0
   -1.5010    1.2930   -1.3320 C   0  0  0  0  0  0  0  0  0  0  0  0
   -0.4660    1.0540   -2.3700 C   0  0  0  0  0  0  0  0  0  0  0  0
   -0.8500    0.6000   -3.6150 C   0  0  0  0  0  0  0  0  0  0  0  0
    0.0390    0.3470   -4.6380 C   0  0  0  0  0  0  0  0  0  0  0  0
    1.3810    0.5560   -4.4130 C   0  0  0  0  0  0  0  0  0  0  0  0
    1.8000    1.0140   -3.1690 C   0  0  0  0  0  0  0  0  0  0  0  0
    0.8820    1.2590   -2.1610 C   0  0  0  0  0  0  0  0  0  0  0  0
   -2.2960   -1.0620   -1.3120 C   0  0  0  0  0  0  0  0  0  0  0  0
   -1.7600   -2.1750   -1.4320 O   0  0  0  0  0  0  0  0  0  0  0  0
   -3.4890   -0.8420   -1.9860 O   0  0  0  0  0  0  0  0  0  0  0  0
    0.3410   -0.5460   -0.4060 H   0  0  0  0  0  0  0  0  0  0  0  0
   -2.5430    0.3130    0.2300 H   0  0  0  0  0  0  0  0  0  0  0  0
   -1.0770    2.0560   -0.6350 H   0  0  0  0  0  0  0  0  0  0  0  0
   -2.4490    1.6730   -1.7550 H   0  0  0  0  0  0  0  0  0  0  0  0
   -1.9100    0.4160   -3.8490 H   0  0  0  0  0  0  0  0  0  0  0  0
   -0.2650   -0.0090   -5.6120 H   0  0  0  0  0  0  0  0  0  0  0  0
    2.0900    0.3620   -5.2060 H   0  0  0  0  0  0  0  0  0  0  0  0
    2.8770    1.1760   -3.0070 H   0  0  0  0  0  0  0  0  0  0  0  0
    1.2220    1.6170   -1.1920 H   0  0  0  0  0  0  0  0  0  0  0  0
  1  5  1  0  0  0  0
  2  8  1  0  0  0  0
  2  7  1  0  0  0  0
  2  1  1  0  0  0  0
  3  2  1  0  0  0  0
  4  3  2  0  0  0  0
  6  1  1  0  0  0  0
  9 17  1  0  0  0  0
  9 18  1  0  0  0  0
 10  9  1  0  0  0  0
 11 10  2  0  0  0  0
 12 19  1  0  0  0  0
 12 13  1  0  0  0  0
 12 10  1  0  0  0  0
 13 21  1  6  0  0  0
 13 14  1  0  0  0  0
 14 22  1  0  0  0  0
 14  3  1  0  0  0  0
 15 13  1  0  0  0  0
 15 16  2  0  0  0  0
 20 12  1  0  0  0  0
 23 15  1  0  0  0  0
 24 23  1  0  0  0  0
 24 36  1  1  0  0  0
 25 37  1  0  0  0  0
 25 24  1  0  0  0  0
 26 31  1  0  0  0  0
 26 25  1  0  0  0  0
 27 26  2  0  0  0  0
 28 29  2  0  0  0  0
 28 27  1  0  0  0  0
 29 30  1  0  0  0  0
 30 42  1  0  0  0  0
 30 31  2  0  0  0  0
 31 43  1  0  0  0  0
 32 24  1  0  0  0  0
 33 32  1  0  0  0  0
 34 32  2  0  0  0  0
 35 23  1  0  0  0  0
 38 25  1  0  0  0  0
 39 27  1  0  0  0  0
 40 28  1  0  0  0  0
 41 29  1  0  0  0  0
M  END
$$$$
