GNH.pdb
 OpenBabel07022418223D

 40 40  0  0  1  0  0  0  0  0999 V2000
    0.5870   -5.3890    1.1240 N   0  0  0  0  0  0  0  0  0  0  0  0
    1.7360   -4.7520    0.5060 C   0  0  0  0  0  0  0  0  0  0  0  0
    1.7610   -3.2840    0.7250 C   0  0  0  0  0  0  0  0  0  0  0  0
    2.7020   -2.6470    0.2120 O   0  0  0  0  0  0  0  0  0  0  0  0
    0.6170   -5.2120    2.1440 H   0  0  0  0  0  0  0  0  0  0  0  0
   -0.2590   -4.9630    0.6810 H   0  0  0  0  0  0  0  0  0  0  0  0
    1.7000   -4.9200   -0.5890 H   0  0  0  0  0  0  0  0  0  0  0  0
    2.6940   -5.1900    0.9040 H   0  0  0  0  0  0  0  0  0  0  0  0
    4.0770   -1.4370    2.7120 N   0  0  0  0  0  0  0  0  0  0  0  0
    3.0970   -0.6130    2.0920 C   0  0  0  0  0  0  0  0  0  0  0  0
    3.4040    0.1330    1.1160 O   0  0  0  0  0  0  0  0  0  0  0  0
    1.7350   -0.6200    2.5770 C   0  0  0  0  0  0  0  0  0  0  0  0
    0.6670   -1.2420    1.7740 C   0  0  2  0  0  0  0  0  0  0  0  0
    0.7530   -2.6400    1.4880 N   0  0  0  0  0  0  0  0  0  0  0  0
    0.3850   -0.4890    0.4980 C   0  0  0  0  0  0  0  0  0  0  0  0
    0.2550   -1.1260   -0.5730 O   0  0  0  0  0  0  0  0  0  0  0  0
    4.8010   -0.9680    3.2920 H   0  0  0  0  0  0  0  0  0  0  0  0
    4.1170   -2.4730    2.6260 H   0  0  0  0  0  0  0  0  0  0  0  0
    1.4610    0.4670    2.7720 H   0  0  0  0  0  0  0  0  0  0  0  0
    1.6610   -1.0580    3.6210 H   0  0  0  0  0  0  0  0  0  0  0  0
   -0.2730   -1.1460    2.4330 H   0  0  0  0  0  0  0  0  0  0  0  0
   -0.0140   -3.3060    1.8690 H   0  0  0  0  0  0  0  0  0  0  0  0
    0.2640    0.9090    0.4680 N   0  0  0  0  0  0  0  0  0  0  0  0
   -0.0150    1.6760   -0.7530 C   0  0  1  0  0  0  0  0  0  0  0  0
   -1.2630    2.4820   -0.4840 C   0  0  0  0  0  0  0  0  0  0  0  0
   -2.4270    1.6340   -0.1420 C   0  0  0  0  0  0  0  0  0  0  0  0
   -2.7500    1.2590    1.1440 C   0  0  0  0  0  0  0  0  0  0  0  0
   -3.8540    0.4990    1.1250 N   0  0  0  0  0  0  0  0  0  0  0  0
   -4.2020    0.4100   -0.1690 C   0  0  0  0  0  0  0  0  0  0  0  0
   -3.3450    1.0920   -0.9450 N   0  0  0  0  0  0  0  0  0  0  0  0
    1.1130    2.5980   -1.0490 C   0  0  0  0  0  0  0  0  0  0  0  0
    1.0640    3.3450   -2.0580 O   0  0  0  0  0  0  0  0  0  0  0  0
    2.2370    2.6710   -0.2450 O   0  0  0  0  0  0  0  0  0  0  0  0
    0.3760    1.4470    1.3530 H   0  0  0  0  0  0  0  0  0  0  0  0
   -0.1810    1.0330   -1.6300 H   0  0  0  0  0  0  0  0  0  0  0  0
   -1.5220    3.1590   -1.3270 H   0  0  0  0  0  0  0  0  0  0  0  0
   -1.0530    3.1560    0.3980 H   0  0  0  0  0  0  0  0  0  0  0  0
   -2.2370    1.5040    2.0710 H   0  0  0  0  0  0  0  0  0  0  0  0
   -4.3790    0.0470    1.9100 H   0  0  0  0  0  0  0  0  0  0  0  0
   -5.0740   -0.1530   -0.5190 H   0  0  0  0  0  0  0  0  0  0  0  0
  1  5  1  0  0  0  0
  2  3  1  0  0  0  0
  2  8  1  0  0  0  0
  2  1  1  0  0  0  0
  3 14  1  0  0  0  0
  4  3  2  0  0  0  0
  6  1  1  0  0  0  0
  7  2  1  0  0  0  0
  9 17  1  0  0  0  0
 10 12  1  0  0  0  0
 10  9  1  0  0  0  0
 11 10  2  0  0  0  0
 12 19  1  0  0  0  0
 12 20  1  0  0  0  0
 13 21  1  1  0  0  0
 13 12  1  0  0  0  0
 14 13  1  0  0  0  0
 14 22  1  0  0  0  0
 15 13  1  0  0  0  0
 16 15  2  0  0  0  0
 18  9  1  0  0  0  0
 23 15  1  0  0  0  0
 23 34  1  0  0  0  0
 24 35  1  6  0  0  0
 24 25  1  0  0  0  0
 24 23  1  0  0  0  0
 25 26  1  0  0  0  0
 25 37  1  0  0  0  0
 26 27  2  0  0  0  0
 27 38  1  0  0  0  0
 28 27  1  0  0  0  0
 28 39  1  0  0  0  0
 29 28  1  0  0  0  0
 30 29  2  0  0  0  0
 30 26  1  0  0  0  0
 31 24  1  0  0  0  0
 31 33  1  0  0  0  0
 32 31  2  0  0  0  0
 36 25  1  0  0  0  0
 40 29  1  0  0  0  0
M  END
$$$$
