GNL.pdb
 OpenBabel07022418223D

 42 41  0  0  1  0  0  0  0  0999 V2000
   -1.9640   -4.3870    2.6760 N   0  0  0  0  0  0  0  0  0  0  0  0
   -0.8660   -4.1330    3.5900 C   0  0  0  0  0  0  0  0  0  0  0  0
    0.0940   -3.2430    2.8900 C   0  0  0  0  0  0  0  0  0  0  0  0
    1.1310   -2.8880    3.4960 O   0  0  0  0  0  0  0  0  0  0  0  0
   -2.4700   -3.5270    2.3910 H   0  0  0  0  0  0  0  0  0  0  0  0
   -1.6340   -4.8640    1.8130 H   0  0  0  0  0  0  0  0  0  0  0  0
   -1.2540   -3.6000    4.4720 H   0  0  0  0  0  0  0  0  0  0  0  0
   -0.4180   -5.1160    3.8400 H   0  0  0  0  0  0  0  0  0  0  0  0
    0.9810   -3.5640   -2.4980 N   0  0  0  0  0  0  0  0  0  0  0  0
    0.4980   -2.9360   -1.3200 C   0  0  0  0  0  0  0  0  0  0  0  0
   -0.7400   -2.7430   -1.2170 O   0  0  0  0  0  0  0  0  0  0  0  0
    1.4880   -2.5510   -0.2900 C   0  0  0  0  0  0  0  0  0  0  0  0
    0.8570   -1.8990    0.9060 C   0  0  2  0  0  0  0  0  0  0  0  0
   -0.0980   -2.7670    1.5640 N   0  0  0  0  0  0  0  0  0  0  0  0
    0.2470   -0.6020    0.6320 C   0  0  0  0  0  0  0  0  0  0  0  0
   -0.9420   -0.3940    0.9680 O   0  0  0  0  0  0  0  0  0  0  0  0
    0.4250   -3.5500   -3.3840 H   0  0  0  0  0  0  0  0  0  0  0  0
    1.9000   -4.0640   -2.5400 H   0  0  0  0  0  0  0  0  0  0  0  0
    2.2710   -1.8830   -0.6780 H   0  0  0  0  0  0  0  0  0  0  0  0
    2.0070   -3.4710    0.0540 H   0  0  0  0  0  0  0  0  0  0  0  0
    1.7000   -1.7170    1.6370 H   0  0  0  0  0  0  0  0  0  0  0  0
   -0.9700   -3.0790    1.0830 H   0  0  0  0  0  0  0  0  0  0  0  0
   -0.5060    2.7470    2.4010 C   0  0  0  0  0  0  0  0  0  0  0  0
    0.9400    2.8280    1.9170 C   0  0  0  0  0  0  0  0  0  0  0  0
    1.7180    1.6960    2.4900 C   0  0  0  0  0  0  0  0  0  0  0  0
    0.9590    2.9160    0.4110 C   0  0  0  0  0  0  0  0  0  0  0  0
    0.3280    1.7560   -0.2820 C   0  0  2  0  0  0  0  0  0  0  0  0
    0.9320    0.4780   -0.0130 N   0  0  0  0  0  0  0  0  0  0  0  0
    0.2970    1.9570   -1.7590 C   0  0  0  0  0  0  0  0  0  0  0  0
   -0.1990    3.0260   -2.1970 O   0  0  0  0  0  0  0  0  0  0  0  0
    0.7780    1.0440   -2.6770 O   0  0  0  0  0  0  0  0  0  0  0  0
   -0.7520    1.7120    2.7250 H   0  0  0  0  0  0  0  0  0  0  0  0
   -1.2080    3.1120    1.6310 H   0  0  0  0  0  0  0  0  0  0  0  0
   -0.6420    3.3870    3.2880 H   0  0  0  0  0  0  0  0  0  0  0  0
    1.3460    3.8010    2.3140 H   0  0  0  0  0  0  0  0  0  0  0  0
    2.3270    2.0870    3.3590 H   0  0  0  0  0  0  0  0  0  0  0  0
    1.0490    0.9130    2.9550 H   0  0  0  0  0  0  0  0  0  0  0  0
    2.4730    1.2550    1.8160 H   0  0  0  0  0  0  0  0  0  0  0  0
    1.9670    3.1690    0.0270 H   0  0  0  0  0  0  0  0  0  0  0  0
    0.3290    3.8190    0.1610 H   0  0  0  0  0  0  0  0  0  0  0  0
   -0.7250    1.6830    0.1250 H   0  0  0  0  0  0  0  0  0  0  0  0
    1.9300    0.2470   -0.2770 H   0  0  0  0  0  0  0  0  0  0  0  0
  1  2  1  0  0  0  0
  2  8  1  0  0  0  0
  2  7  1  0  0  0  0
  3  4  2  0  0  0  0
  3  2  1  0  0  0  0
  5  1  1  0  0  0  0
  6  1  1  0  0  0  0
  9 10  1  0  0  0  0
 10 11  2  0  0  0  0
 10 12  1  0  0  0  0
 12 20  1  0  0  0  0
 12 13  1  0  0  0  0
 13 14  1  0  0  0  0
 13 21  1  1  0  0  0
 14  3  1  0  0  0  0
 15 13  1  0  0  0  0
 15 16  2  0  0  0  0
 17  9  1  0  0  0  0
 18  9  1  0  0  0  0
 19 12  1  0  0  0  0
 22 14  1  0  0  0  0
 23 32  1  0  0  0  0
 23 34  1  0  0  0  0
 24 35  1  0  0  0  0
 24 23  1  0  0  0  0
 24 25  1  0  0  0  0
 25 37  1  0  0  0  0
 25 36  1  0  0  0  0
 26 24  1  0  0  0  0
 27 28  1  0  0  0  0
 27 41  1  1  0  0  0
 27 26  1  0  0  0  0
 28 15  1  0  0  0  0
 29 27  1  0  0  0  0
 30 29  1  0  0  0  0
 31 29  2  0  0  0  0
 33 23  1  0  0  0  0
 38 25  1  0  0  0  0
 39 26  1  0  0  0  0
 40 26  1  0  0  0  0
 42 28  1  0  0  0  0
M  END
$$$$
