GNN.pdb
 OpenBabel07022418213D

 37 36  0  0  1  0  0  0  0  0999 V2000
   -1.1510   -4.9230   -0.0980 N   0  0  0  0  0  0  0  0  0  0  0  0
   -0.7910   -5.1280    1.2930 C   0  0  0  0  0  0  0  0  0  0  0  0
    0.0540   -3.9710    1.7340 C   0  0  0  0  0  0  0  0  0  0  0  0
    0.5020   -3.9130    2.9220 O   0  0  0  0  0  0  0  0  0  0  0  0
   -1.6620   -4.0220   -0.2130 H   0  0  0  0  0  0  0  0  0  0  0  0
   -0.2800   -4.8520   -0.6690 H   0  0  0  0  0  0  0  0  0  0  0  0
   -1.7090   -5.1580    1.8980 H   0  0  0  0  0  0  0  0  0  0  0  0
   -0.1970   -6.0570    1.3580 H   0  0  0  0  0  0  0  0  0  0  0  0
    1.1310   -1.2630   -1.5710 N   0  0  0  0  0  0  0  0  0  0  0  0
    2.3360   -1.3850   -0.8480 C   0  0  0  0  0  0  0  0  0  0  0  0
    3.4350   -1.2550   -1.5000 O   0  0  0  0  0  0  0  0  0  0  0  0
    2.4770   -1.6460    0.5850 C   0  0  0  0  0  0  0  0  0  0  0  0
    1.2040   -1.8180    1.3350 C   0  0  2  0  0  0  0  0  0  0  0  0
    0.3920   -2.9090    0.8760 N   0  0  0  0  0  0  0  0  0  0  0  0
    0.4410   -0.5390    1.3030 C   0  0  0  0  0  0  0  0  0  0  0  0
   -0.7510   -0.5790    0.8990 O   0  0  0  0  0  0  0  0  0  0  0  0
    0.8270   -2.0390   -2.1830 H   0  0  0  0  0  0  0  0  0  0  0  0
    0.5490   -0.4130   -1.5010 H   0  0  0  0  0  0  0  0  0  0  0  0
    3.2030   -2.4880    0.7750 H   0  0  0  0  0  0  0  0  0  0  0  0
    3.0080   -0.7550    1.0200 H   0  0  0  0  0  0  0  0  0  0  0  0
    1.4920   -1.9620    2.4190 H   0  0  0  0  0  0  0  0  0  0  0  0
    0.0460   -2.9160   -0.1050 H   0  0  0  0  0  0  0  0  0  0  0  0
   -1.0570    4.3340   -0.9470 N   0  0  0  0  0  0  0  0  0  0  0  0
   -0.5960    3.7780    0.3060 C   0  0  0  0  0  0  0  0  0  0  0  0
   -0.7840    4.4330    1.3380 O   0  0  0  0  0  0  0  0  0  0  0  0
    0.0730    2.4720    0.3260 C   0  0  0  0  0  0  0  0  0  0  0  0
    0.2900    1.9690    1.6950 C   0  0  2  0  0  0  0  0  0  0  0  0
    1.0120    0.6920    1.7070 N   0  0  0  0  0  0  0  0  0  0  0  0
   -0.9670    1.7900    2.5080 C   0  0  0  0  0  0  0  0  0  0  0  0
   -1.1870    0.6740    3.0970 O   0  0  0  0  0  0  0  0  0  0  0  0
   -1.9420    2.7300    2.6950 O   0  0  0  0  0  0  0  0  0  0  0  0
   -1.7280    3.8430   -1.5630 H   0  0  0  0  0  0  0  0  0  0  0  0
   -0.7040    5.2610   -1.2430 H   0  0  0  0  0  0  0  0  0  0  0  0
    1.0840    2.5150   -0.1790 H   0  0  0  0  0  0  0  0  0  0  0  0
   -0.5220    1.7910   -0.3250 H   0  0  0  0  0  0  0  0  0  0  0  0
    0.8900    2.6850    2.2710 H   0  0  0  0  0  0  0  0  0  0  0  0
    1.9990    0.6800    2.0300 H   0  0  0  0  0  0  0  0  0  0  0  0
  1  2  1  0  0  0  0
  2  8  1  0  0  0  0
  2  3  1  0  0  0  0
  2  7  1  0  0  0  0
  3  4  2  0  0  0  0
  5  1  1  0  0  0  0
  6  1  1  0  0  0  0
  9 18  1  0  0  0  0
  9 10  1  0  0  0  0
 10 12  1  0  0  0  0
 11 10  2  0  0  0  0
 12 19  1  0  0  0  0
 12 20  1  0  0  0  0
 12 13  1  0  0  0  0
 13 21  1  1  0  0  0
 14 13  1  0  0  0  0
 14  3  1  0  0  0  0
 15 13  1  0  0  0  0
 15 28  1  0  0  0  0
 16 15  2  0  0  0  0
 17  9  1  0  0  0  0
 22 14  1  0  0  0  0
 23 24  1  0  0  0  0
 24 26  1  0  0  0  0
 24 25  2  0  0  0  0
 26 27  1  0  0  0  0
 27 28  1  0  0  0  0
 27 36  1  1  0  0  0
 27 29  1  0  0  0  0
 28 37  1  0  0  0  0
 29 31  2  0  0  0  0
 29 30  1  0  0  0  0
 32 23  1  0  0  0  0
 33 23  1  0  0  0  0
 34 26  1  0  0  0  0
 35 26  1  0  0  0  0
M  END
$$$$
