GNQ.pdb
 OpenBabel07022418223D

 40 39  0  0  1  0  0  0  0  0999 V2000
    0.6580   -6.5920    1.7170 N   0  0  0  0  0  0  0  0  0  0  0  0
   -0.0420   -5.6950    0.8200 C   0  0  0  0  0  0  0  0  0  0  0  0
    0.5770   -4.3540    0.9480 C   0  0  0  0  0  0  0  0  0  0  0  0
    1.5360   -4.1560    1.7330 O   0  0  0  0  0  0  0  0  0  0  0  0
    0.1320   -6.6120    2.6340 H   0  0  0  0  0  0  0  0  0  0  0  0
    1.6210   -6.2700    1.9520 H   0  0  0  0  0  0  0  0  0  0  0  0
   -1.1140   -5.6980    1.0990 H   0  0  0  0  0  0  0  0  0  0  0  0
    0.0710   -6.0990   -0.2170 H   0  0  0  0  0  0  0  0  0  0  0  0
    0.9420   -1.1680   -3.4010 N   0  0  0  0  0  0  0  0  0  0  0  0
    0.4230   -1.4970   -2.1250 C   0  0  0  0  0  0  0  0  0  0  0  0
   -0.8100   -1.7230   -2.0560 O   0  0  0  0  0  0  0  0  0  0  0  0
    1.3630   -1.5490   -0.9790 C   0  0  0  0  0  0  0  0  0  0  0  0
    0.7250   -1.9140    0.3200 C   0  0  2  0  0  0  0  0  0  0  0  0
    0.1250   -3.2280    0.1990 N   0  0  0  0  0  0  0  0  0  0  0  0
   -0.2440   -0.9340    0.8150 C   0  0  0  0  0  0  0  0  0  0  0  0
   -1.4110   -1.3170    1.0630 O   0  0  0  0  0  0  0  0  0  0  0  0
    0.6940   -1.6760   -4.2700 H   0  0  0  0  0  0  0  0  0  0  0  0
    1.6080   -0.3760   -3.4670 H   0  0  0  0  0  0  0  0  0  0  0  0
    2.0890   -2.3800   -1.2230 H   0  0  0  0  0  0  0  0  0  0  0  0
    1.9970   -0.6380   -0.9200 H   0  0  0  0  0  0  0  0  0  0  0  0
    1.5650   -1.9330    1.0770 H   0  0  0  0  0  0  0  0  0  0  0  0
   -0.6700   -3.3970   -0.4500 H   0  0  0  0  0  0  0  0  0  0  0  0
    2.4600    4.1070    2.3840 N   0  0  0  0  0  0  0  0  0  0  0  0
    1.0930    3.6570    2.3950 C   0  0  0  0  0  0  0  0  0  0  0  0
    0.2680    4.3660    1.8250 O   0  0  0  0  0  0  0  0  0  0  0  0
    0.7940    2.4180    3.0730 C   0  0  0  0  0  0  0  0  0  0  0  0
   -0.5440    1.8020    2.8970 C   0  0  0  0  0  0  0  0  0  0  0  0
   -0.9440    1.3870    1.5320 C   0  0  2  0  0  0  0  0  0  0  0  0
    0.0610    0.4300    1.0320 N   0  0  0  0  0  0  0  0  0  0  0  0
   -1.2720    2.4350    0.5830 C   0  0  0  0  0  0  0  0  0  0  0  0
   -0.6220    2.5430   -0.4860 O   0  0  0  0  0  0  0  0  0  0  0  0
   -2.3040    3.3470    0.8070 O   0  0  0  0  0  0  0  0  0  0  0  0
    2.9070    4.4170    3.2570 H   0  0  0  0  0  0  0  0  0  0  0  0
    2.9540    4.1000    1.4590 H   0  0  0  0  0  0  0  0  0  0  0  0
    0.9140    2.5960    4.1990 H   0  0  0  0  0  0  0  0  0  0  0  0
    1.6090    1.6330    2.9050 H   0  0  0  0  0  0  0  0  0  0  0  0
   -1.3200    2.5470    3.2460 H   0  0  0  0  0  0  0  0  0  0  0  0
   -0.7000    0.9280    3.5910 H   0  0  0  0  0  0  0  0  0  0  0  0
   -1.9150    0.7730    1.6710 H   0  0  0  0  0  0  0  0  0  0  0  0
    1.0280    0.7390    0.8240 H   0  0  0  0  0  0  0  0  0  0  0  0
  1  6  1  0  0  0  0
  1  5  1  0  0  0  0
  2  3  1  0  0  0  0
  2  7  1  0  0  0  0
  2  1  1  0  0  0  0
  3  4  2  0  0  0  0
  8  2  1  0  0  0  0
  9 10  1  0  0  0  0
 10 11  2  0  0  0  0
 10 12  1  0  0  0  0
 12 20  1  0  0  0  0
 12 13  1  0  0  0  0
 13 15  1  0  0  0  0
 13 21  1  1  0  0  0
 14 13  1  0  0  0  0
 14  3  1  0  0  0  0
 15 29  1  0  0  0  0
 15 16  2  0  0  0  0
 17  9  1  0  0  0  0
 18  9  1  0  0  0  0
 19 12  1  0  0  0  0
 22 14  1  0  0  0  0
 23 24  1  0  0  0  0
 23 33  1  0  0  0  0
 24 26  1  0  0  0  0
 25 24  2  0  0  0  0
 26 35  1  0  0  0  0
 27 26  1  0  0  0  0
 27 37  1  0  0  0  0
 27 38  1  0  0  0  0
 28 39  1  1  0  0  0
 28 27  1  0  0  0  0
 29 28  1  0  0  0  0
 30 32  1  0  0  0  0
 30 28  1  0  0  0  0
 31 30  2  0  0  0  0
 34 23  1  0  0  0  0
 36 26  1  0  0  0  0
 40 29  1  0  0  0  0
M  END
$$$$
