GNR.pdb
 OpenBabel07022418213D

 46 45  0  0  1  0  0  0  0  0999 V2000
    0.3840    0.9330   -2.6240 N   0  0  0  0  0  0  0  0  0  0  0  0
    0.1210   -0.4010   -3.0410 C   0  0  0  0  0  0  0  0  0  0  0  0
    0.6170   -1.4490   -2.1090 C   0  0  0  0  0  0  0  0  0  0  0  0
    0.4530   -2.6880   -2.3840 O   0  0  0  0  0  0  0  0  0  0  0  0
    0.2430    0.9930   -1.5960 H   0  0  0  0  0  0  0  0  0  0  0  0
   -0.3090    1.5800   -3.0560 H   0  0  0  0  0  0  0  0  0  0  0  0
    0.6700   -0.5850   -4.0110 H   0  0  0  0  0  0  0  0  0  0  0  0
   -0.9610   -0.5670   -3.3210 H   0  0  0  0  0  0  0  0  0  0  0  0
    5.1980   -3.1460    1.2950 N   0  0  0  0  0  0  0  0  0  0  0  0
    3.8070   -3.2200    0.9760 C   0  0  0  0  0  0  0  0  0  0  0  0
    3.1800   -4.1990    1.4170 O   0  0  0  0  0  0  0  0  0  0  0  0
    3.2430   -2.1470    0.1630 C   0  0  0  0  0  0  0  0  0  0  0  0
    1.7580   -2.2790   -0.0370 C   0  0  2  0  0  0  0  0  0  0  0  0
    1.2830   -1.1770   -0.8970 N   0  0  0  0  0  0  0  0  0  0  0  0
    0.9650   -2.1660    1.2090 C   0  0  0  0  0  0  0  0  0  0  0  0
    1.0900   -2.9940    2.1750 O   0  0  0  0  0  0  0  0  0  0  0  0
    5.5630   -3.5740    2.1680 H   0  0  0  0  0  0  0  0  0  0  0  0
    5.8810   -2.6580    0.6540 H   0  0  0  0  0  0  0  0  0  0  0  0
    3.5020   -1.1750    0.6750 H   0  0  0  0  0  0  0  0  0  0  0  0
    3.7270   -2.0640   -0.8470 H   0  0  0  0  0  0  0  0  0  0  0  0
    1.5560   -3.2660   -0.4810 H   0  0  0  0  0  0  0  0  0  0  0  0
    1.4650   -0.2210   -0.5650 H   0  0  0  0  0  0  0  0  0  0  0  0
   -2.5820    0.9240   -0.6380 N   0  0  0  0  0  0  0  0  0  0  0  0
   -2.0520    1.7200    0.4090 C   0  0  0  0  0  0  0  0  0  0  0  0
   -1.1560    2.5940    0.1640 N   0  0  0  0  0  0  0  0  0  0  0  0
   -2.5410    1.5440    1.7500 N   0  0  0  0  0  0  0  0  0  0  0  0
   -1.8310    2.0610    2.8660 C   0  0  0  0  0  0  0  0  0  0  0  0
   -0.5330    1.4520    3.2000 C   0  0  0  0  0  0  0  0  0  0  0  0
   -0.4280    0.0510    3.5900 C   0  0  0  0  0  0  0  0  0  0  0  0
   -0.7700   -1.0590    2.6910 C   0  0  2  0  0  0  0  0  0  0  0  0
   -0.0050   -1.1410    1.4600 N   0  0  0  0  0  0  0  0  0  0  0  0
   -2.1950   -1.3390    2.4640 C   0  0  0  0  0  0  0  0  0  0  0  0
   -2.6190   -1.6050    1.3200 O   0  0  0  0  0  0  0  0  0  0  0  0
   -3.0850   -1.3140    3.5170 O   0  0  0  0  0  0  0  0  0  0  0  0
   -3.4300    0.3170   -0.4440 H   0  0  0  0  0  0  0  0  0  0  0  0
   -2.1960    0.8970   -1.5890 H   0  0  0  0  0  0  0  0  0  0  0  0
   -0.7370    3.1960    0.8800 H   0  0  0  0  0  0  0  0  0  0  0  0
   -3.4520    1.0390    1.8470 H   0  0  0  0  0  0  0  0  0  0  0  0
   -1.7210    3.1830    2.6540 H   0  0  0  0  0  0  0  0  0  0  0  0
   -2.5180    2.0930    3.7730 H   0  0  0  0  0  0  0  0  0  0  0  0
   -0.1370    2.0570    4.0970 H   0  0  0  0  0  0  0  0  0  0  0  0
    0.2580    1.6820    2.4220 H   0  0  0  0  0  0  0  0  0  0  0  0
   -1.0690   -0.1110    4.5370 H   0  0  0  0  0  0  0  0  0  0  0  0
    0.6180   -0.1180    3.9910 H   0  0  0  0  0  0  0  0  0  0  0  0
   -0.4270   -2.0040    3.2870 H   0  0  0  0  0  0  0  0  0  0  0  0
   -0.1440   -0.4390    0.7070 H   0  0  0  0  0  0  0  0  0  0  0  0
  1  5  1  0  0  0  0
  2  1  1  0  0  0  0
  2  3  1  0  0  0  0
  3 14  1  0  0  0  0
  4  3  2  0  0  0  0
  6  1  1  0  0  0  0
  7  2  1  0  0  0  0
  8  2  1  0  0  0  0
  9 17  1  0  0  0  0
 10  9  1  0  0  0  0
 10 11  2  0  0  0  0
 12 19  1  0  0  0  0
 12 10  1  0  0  0  0
 13 21  1  6  0  0  0
 13 12  1  0  0  0  0
 13 15  1  0  0  0  0
 14 22  1  0  0  0  0
 14 13  1  0  0  0  0
 15 31  1  0  0  0  0
 15 16  2  0  0  0  0
 18  9  1  0  0  0  0
 20 12  1  0  0  0  0
 23 35  1  0  0  0  0
 23 24  1  0  0  0  0
 24 26  1  0  0  0  0
 25 24  2  0  0  0  0
 25 37  1  0  0  0  0
 26 38  1  0  0  0  0
 26 27  1  0  0  0  0
 27 28  1  0  0  0  0
 27 40  1  0  0  0  0
 28 29  1  0  0  0  0
 28 41  1  0  0  0  0
 29 44  1  0  0  0  0
 29 43  1  0  0  0  0
 30 45  1  1  0  0  0
 30 29  1  0  0  0  0
 31 30  1  0  0  0  0
 32 30  1  0  0  0  0
 32 34  1  0  0  0  0
 33 32  2  0  0  0  0
 36 23  1  0  0  0  0
 39 27  1  0  0  0  0
 42 28  1  0  0  0  0
 46 31  1  0  0  0  0
M  END
$$$$
