GNV.pdb
 OpenBabel07022418223D

 39 38  0  0  1  0  0  0  0  0999 V2000
    4.2180   -1.1330    4.1440 N   0  0  0  0  0  0  0  0  0  0  0  0
    2.8150   -1.1670    3.8160 C   0  0  0  0  0  0  0  0  0  0  0  0
    2.6400   -1.6870    2.4500 C   0  0  0  0  0  0  0  0  0  0  0  0
    3.6610   -2.0120    1.7910 O   0  0  0  0  0  0  0  0  0  0  0  0
    4.7320   -1.7050    3.4640 H   0  0  0  0  0  0  0  0  0  0  0  0
    4.5430   -0.1530    4.1330 H   0  0  0  0  0  0  0  0  0  0  0  0
    2.3340   -0.1760    3.9610 H   0  0  0  0  0  0  0  0  0  0  0  0
    2.3100   -1.8800    4.5310 H   0  0  0  0  0  0  0  0  0  0  0  0
   -1.4840   -2.5060    1.4850 N   0  0  0  0  0  0  0  0  0  0  0  0
   -0.8110   -3.6720    1.0620 C   0  0  0  0  0  0  0  0  0  0  0  0
   -1.3970   -4.8130    1.1240 O   0  0  0  0  0  0  0  0  0  0  0  0
    0.5520   -3.6640    0.5420 C   0  0  0  0  0  0  0  0  0  0  0  0
    1.2470   -2.3450    0.5270 C   0  0  2  0  0  0  0  0  0  0  0  0
    1.3390   -1.8310    1.8600 N   0  0  0  0  0  0  0  0  0  0  0  0
    0.6550   -1.3720   -0.4280 C   0  0  0  0  0  0  0  0  0  0  0  0
    0.5120   -1.7490   -1.6180 O   0  0  0  0  0  0  0  0  0  0  0  0
   -1.7260   -2.3350    2.4780 H   0  0  0  0  0  0  0  0  0  0  0  0
   -1.7530   -1.7920    0.7860 H   0  0  0  0  0  0  0  0  0  0  0  0
    0.5900   -4.0800   -0.4870 H   0  0  0  0  0  0  0  0  0  0  0  0
    1.1420   -4.3990    1.1590 H   0  0  0  0  0  0  0  0  0  0  0  0
    2.2960   -2.5220    0.1550 H   0  0  0  0  0  0  0  0  0  0  0  0
    0.5190   -1.5460    2.4420 H   0  0  0  0  0  0  0  0  0  0  0  0
   -2.3770    2.2040   -1.5300 C   0  0  0  0  0  0  0  0  0  0  0  0
   -1.7640    1.2000   -0.5870 C   0  0  0  0  0  0  0  0  0  0  0  0
   -1.8620    1.6710    0.8470 C   0  0  0  0  0  0  0  0  0  0  0  0
   -0.3190    0.8890   -0.9750 C   0  0  2  0  0  0  0  0  0  0  0  0
    0.2570   -0.0740   -0.0650 N   0  0  0  0  0  0  0  0  0  0  0  0
    0.5080    2.0940   -1.1250 C   0  0  0  0  0  0  0  0  0  0  0  0
    1.6050    2.2270   -0.4790 O   0  0  0  0  0  0  0  0  0  0  0  0
    0.1940    3.1630   -1.9480 O   0  0  0  0  0  0  0  0  0  0  0  0
   -3.4890    2.2530   -1.3310 H   0  0  0  0  0  0  0  0  0  0  0  0
   -2.2820    1.9270   -2.5770 H   0  0  0  0  0  0  0  0  0  0  0  0
   -2.0170    3.2170   -1.2630 H   0  0  0  0  0  0  0  0  0  0  0  0
   -2.3870    0.2850   -0.6630 H   0  0  0  0  0  0  0  0  0  0  0  0
   -2.7930    2.2890    0.9470 H   0  0  0  0  0  0  0  0  0  0  0  0
   -0.9740    2.2860    1.1170 H   0  0  0  0  0  0  0  0  0  0  0  0
   -1.9480    0.7680    1.4840 H   0  0  0  0  0  0  0  0  0  0  0  0
   -0.3710    0.3970   -1.9700 H   0  0  0  0  0  0  0  0  0  0  0  0
    0.3850    0.2190    0.9270 H   0  0  0  0  0  0  0  0  0  0  0  0
  2  7  1  0  0  0  0
  2  1  1  0  0  0  0
  2  8  1  0  0  0  0
  3  2  1  0  0  0  0
  4  3  2  0  0  0  0
  5  1  1  0  0  0  0
  6  1  1  0  0  0  0
  9 17  1  0  0  0  0
 10 11  2  0  0  0  0
 10  9  1  0  0  0  0
 12 10  1  0  0  0  0
 12 20  1  0  0  0  0
 13 21  1  6  0  0  0
 13 12  1  0  0  0  0
 13 14  1  0  0  0  0
 14 22  1  0  0  0  0
 14  3  1  0  0  0  0
 15 27  1  0  0  0  0
 15 13  1  0  0  0  0
 16 15  2  0  0  0  0
 18  9  1  0  0  0  0
 19 12  1  0  0  0  0
 23 31  1  0  0  0  0
 23 33  1  0  0  0  0
 23 24  1  0  0  0  0
 24 25  1  0  0  0  0
 25 35  1  0  0  0  0
 25 36  1  0  0  0  0
 25 37  1  0  0  0  0
 26 38  1  6  0  0  0
 26 24  1  0  0  0  0
 26 27  1  0  0  0  0
 27 39  1  0  0  0  0
 28 26  1  0  0  0  0
 28 29  1  0  0  0  0
 30 28  2  0  0  0  0
 32 23  1  0  0  0  0
 34 24  1  0  0  0  0
M  END
$$$$
