GNW.pdb
 OpenBabel07022418223D

 47 48  0  0  1  0  0  0  0  0999 V2000
    3.3590   -3.2010   -1.7320 N   0  0  0  0  0  0  0  0  0  0  0  0
    2.6350   -4.1620   -0.9230 C   0  0  0  0  0  0  0  0  0  0  0  0
    2.0060   -3.4580    0.2220 C   0  0  0  0  0  0  0  0  0  0  0  0
    1.3150   -4.0620    1.0790 O   0  0  0  0  0  0  0  0  0  0  0  0
    3.6970   -3.6240   -2.6240 H   0  0  0  0  0  0  0  0  0  0  0  0
    4.2170   -2.8470   -1.2230 H   0  0  0  0  0  0  0  0  0  0  0  0
    1.9120   -4.6740   -1.5800 H   0  0  0  0  0  0  0  0  0  0  0  0
    3.3850   -4.8980   -0.5570 H   0  0  0  0  0  0  0  0  0  0  0  0
    4.7100    0.6350    2.5020 N   0  0  0  0  0  0  0  0  0  0  0  0
    3.6090    0.0700    1.7940 C   0  0  0  0  0  0  0  0  0  0  0  0
    3.5170    0.4290    0.5830 O   0  0  0  0  0  0  0  0  0  0  0  0
    2.6510   -0.8560    2.4070 C   0  0  0  0  0  0  0  0  0  0  0  0
    1.5810   -1.3570    1.4690 C   0  0  2  0  0  0  0  0  0  0  0  0
    2.1740   -2.0580    0.3810 N   0  0  0  0  0  0  0  0  0  0  0  0
    0.7300   -0.2200    1.0310 C   0  0  0  0  0  0  0  0  0  0  0  0
    0.6060    0.0150   -0.2000 O   0  0  0  0  0  0  0  0  0  0  0  0
    4.5960    1.5690    2.9380 H   0  0  0  0  0  0  0  0  0  0  0  0
    5.6100    0.1180    2.5780 H   0  0  0  0  0  0  0  0  0  0  0  0
    2.2000   -0.3670    3.3000 H   0  0  0  0  0  0  0  0  0  0  0  0
    3.2030   -1.7540    2.7620 H   0  0  0  0  0  0  0  0  0  0  0  0
    0.9840   -2.0930    2.0780 H   0  0  0  0  0  0  0  0  0  0  0  0
    2.7410   -1.5460   -0.3190 H   0  0  0  0  0  0  0  0  0  0  0  0
    0.0410    0.6240    1.9330 N   0  0  0  0  0  0  0  0  0  0  0  0
   -0.7930    1.7370    1.5100 C   0  0  1  0  0  0  0  0  0  0  0  0
   -2.1970    1.4250    1.9840 C   0  0  0  0  0  0  0  0  0  0  0  0
   -2.7040    0.1580    1.3920 C   0  0  0  0  0  0  0  0  0  0  0  0
   -2.7960   -1.0550    2.0380 C   0  0  0  0  0  0  0  0  0  0  0  0
   -3.3000   -1.9180    1.1430 N   0  0  0  0  0  0  0  0  0  0  0  0
   -3.5270   -1.3110   -0.0270 C   0  0  0  0  0  0  0  0  0  0  0  0
   -4.0280   -1.7460   -1.2410 C   0  0  0  0  0  0  0  0  0  0  0  0
   -4.1470   -0.8520   -2.2930 C   0  0  0  0  0  0  0  0  0  0  0  0
   -3.7840    0.4740   -2.1870 C   0  0  0  0  0  0  0  0  0  0  0  0
   -3.2900    0.8880   -0.9800 C   0  0  0  0  0  0  0  0  0  0  0  0
   -3.1570    0.0230    0.0910 C   0  0  0  0  0  0  0  0  0  0  0  0
   -0.3730    3.0090    2.1410 C   0  0  0  0  0  0  0  0  0  0  0  0
   -1.0150    4.0500    1.8550 O   0  0  0  0  0  0  0  0  0  0  0  0
    0.6830    3.1350    3.0300 O   0  0  0  0  0  0  0  0  0  0  0  0
    0.1340    0.4420    2.9510 H   0  0  0  0  0  0  0  0  0  0  0  0
   -0.8330    1.8140    0.4010 H   0  0  0  0  0  0  0  0  0  0  0  0
   -2.8880    2.2610    1.7210 H   0  0  0  0  0  0  0  0  0  0  0  0
   -2.2210    1.3290    3.0760 H   0  0  0  0  0  0  0  0  0  0  0  0
   -2.5230   -1.3010    3.0730 H   0  0  0  0  0  0  0  0  0  0  0  0
   -3.4960   -2.9310    1.3150 H   0  0  0  0  0  0  0  0  0  0  0  0
   -4.3080   -2.7820   -1.3140 H   0  0  0  0  0  0  0  0  0  0  0  0
   -4.5480   -1.2660   -3.2140 H   0  0  0  0  0  0  0  0  0  0  0  0
   -3.9120    1.0980   -3.0590 H   0  0  0  0  0  0  0  0  0  0  0  0
   -2.9980    1.9190   -0.8660 H   0  0  0  0  0  0  0  0  0  0  0  0
  1  6  1  0  0  0  0
  1  2  1  0  0  0  0
  2  8  1  0  0  0  0
  2  3  1  0  0  0  0
  3 14  1  0  0  0  0
  3  4  2  0  0  0  0
  5  1  1  0  0  0  0
  7  2  1  0  0  0  0
  9 18  1  0  0  0  0
  9 17  1  0  0  0  0
 10 12  1  0  0  0  0
 10  9  1  0  0  0  0
 11 10  2  0  0  0  0
 12 20  1  0  0  0  0
 12 19  1  0  0  0  0
 13 21  1  1  0  0  0
 13 12  1  0  0  0  0
 14 13  1  0  0  0  0
 15 13  1  0  0  0  0
 15 23  1  0  0  0  0
 16 15  2  0  0  0  0
 22 14  1  0  0  0  0
 23 38  1  0  0  0  0
 24 39  1  6  0  0  0
 24 23  1  0  0  0  0
 24 25  1  0  0  0  0
 24 35  1  0  0  0  0
 25 41  1  0  0  0  0
 26 25  1  0  0  0  0
 26 27  2  0  0  0  0
 27 42  1  0  0  0  0
 28 43  1  0  0  0  0
 28 27  1  0  0  0  0
 29 34  1  0  0  0  0
 29 28  1  0  0  0  0
 30 29  2  0  0  0  0
 31 32  2  0  0  0  0
 31 30  1  0  0  0  0
 32 33  1  0  0  0  0
 33 47  1  0  0  0  0
 33 34  2  0  0  0  0
 34 26  1  0  0  0  0
 35 37  1  0  0  0  0
 36 35  2  0  0  0  0
 40 25  1  0  0  0  0
 44 30  1  0  0  0  0
 45 31  1  0  0  0  0
 46 32  1  0  0  0  0
M  END
$$$$
