GNY.pdb
 OpenBabel07022418223D

 44 44  0  0  1  0  0  0  0  0999 V2000
    0.5410   -4.5760   -4.2390 N   0  0  0  0  0  0  0  0  0  0  0  0
   -0.2010   -4.4750   -3.0150 C   0  0  0  0  0  0  0  0  0  0  0  0
   -0.1170   -3.0970   -2.4340 C   0  0  0  0  0  0  0  0  0  0  0  0
    0.5380   -2.1870   -2.9970 O   0  0  0  0  0  0  0  0  0  0  0  0
    0.5860   -3.6550   -4.7580 H   0  0  0  0  0  0  0  0  0  0  0  0
    0.1950   -5.3040   -4.8820 H   0  0  0  0  0  0  0  0  0  0  0  0
    0.1820   -5.2230   -2.2940 H   0  0  0  0  0  0  0  0  0  0  0  0
   -1.2820   -4.6910   -3.1760 H   0  0  0  0  0  0  0  0  0  0  0  0
   -2.8090   -2.7460    0.9410 N   0  0  0  0  0  0  0  0  0  0  0  0
   -3.0600   -1.5260    0.2670 C   0  0  0  0  0  0  0  0  0  0  0  0
   -4.2110   -1.0330    0.3730 O   0  0  0  0  0  0  0  0  0  0  0  0
   -2.0700   -0.8030   -0.5420 C   0  0  0  0  0  0  0  0  0  0  0  0
   -0.7230   -1.4530   -0.6270 C   0  0  2  0  0  0  0  0  0  0  0  0
   -0.7880   -2.7760   -1.2100 N   0  0  0  0  0  0  0  0  0  0  0  0
    0.0050   -1.5310    0.6470 C   0  0  0  0  0  0  0  0  0  0  0  0
    0.4470   -2.6530    1.0230 O   0  0  0  0  0  0  0  0  0  0  0  0
   -3.2720   -3.6380    0.6110 H   0  0  0  0  0  0  0  0  0  0  0  0
   -2.1830   -2.8490    1.7690 H   0  0  0  0  0  0  0  0  0  0  0  0
   -2.0460    0.2330   -0.2100 H   0  0  0  0  0  0  0  0  0  0  0  0
   -2.4600   -0.7720   -1.6000 H   0  0  0  0  0  0  0  0  0  0  0  0
   -0.0740   -0.8180   -1.3030 H   0  0  0  0  0  0  0  0  0  0  0  0
   -1.3220   -3.5630   -0.7740 H   0  0  0  0  0  0  0  0  0  0  0  0
    1.7590    5.6640    1.9180 O   0  0  0  0  0  0  0  0  0  0  0  0
    1.8920    4.2950    2.1170 C   0  0  0  0  0  0  0  0  0  0  0  0
    1.8830    3.7650    3.3930 C   0  0  0  0  0  0  0  0  0  0  0  0
    2.0150    2.3990    3.6110 C   0  0  0  0  0  0  0  0  0  0  0  0
    2.1570    1.5700    2.5310 C   0  0  0  0  0  0  0  0  0  0  0  0
    2.2990    0.1330    2.7180 C   0  0  0  0  0  0  0  0  0  0  0  0
    0.9730   -0.6080    2.7250 C   0  0  2  0  0  0  0  0  0  0  0  0
    0.2520   -0.4380    1.4950 N   0  0  0  0  0  0  0  0  0  0  0  0
    0.1660   -0.2850    3.9130 C   0  0  0  0  0  0  0  0  0  0  0  0
   -1.0170    0.0900    3.7740 O   0  0  0  0  0  0  0  0  0  0  0  0
    2.1640    2.1150    1.2760 C   0  0  0  0  0  0  0  0  0  0  0  0
    2.0360    3.4590    1.0290 C   0  0  0  0  0  0  0  0  0  0  0  0
    0.6880   -0.3880    5.1850 O   0  0  0  0  0  0  0  0  0  0  0  0
    2.5640    6.2550    1.7100 H   0  0  0  0  0  0  0  0  0  0  0  0
    1.7670    4.4700    4.2140 H   0  0  0  0  0  0  0  0  0  0  0  0
    2.0030    2.0150    4.6350 H   0  0  0  0  0  0  0  0  0  0  0  0
    2.9000   -0.0840    3.6090 H   0  0  0  0  0  0  0  0  0  0  0  0
    2.8760   -0.3070    1.8520 H   0  0  0  0  0  0  0  0  0  0  0  0
    1.2460   -1.6800    2.8150 H   0  0  0  0  0  0  0  0  0  0  0  0
   -0.1210    0.5040    1.1780 H   0  0  0  0  0  0  0  0  0  0  0  0
    2.2780    1.4530    0.4030 H   0  0  0  0  0  0  0  0  0  0  0  0
    2.0420    3.8810    0.0310 H   0  0  0  0  0  0  0  0  0  0  0  0
  1  2  1  0  0  0  0
  2  3  1  0  0  0  0
  2  7  1  0  0  0  0
  3 14  1  0  0  0  0
  4  3  2  0  0  0  0
  5  1  1  0  0  0  0
  6  1  1  0  0  0  0
  8  2  1  0  0  0  0
  9 18  1  0  0  0  0
 10 11  2  0  0  0  0
 10  9  1  0  0  0  0
 12 19  1  0  0  0  0
 12 10  1  0  0  0  0
 13 21  1  6  0  0  0
 13 12  1  0  0  0  0
 13 15  1  0  0  0  0
 14 22  1  0  0  0  0
 14 13  1  0  0  0  0
 15 16  2  0  0  0  0
 15 30  1  0  0  0  0
 17  9  1  0  0  0  0
 20 12  1  0  0  0  0
 23 24  1  0  0  0  0
 24 25  1  0  0  0  0
 25 26  2  0  0  0  0
 25 37  1  0  0  0  0
 26 38  1  0  0  0  0
 27 28  1  0  0  0  0
 27 26  1  0  0  0  0
 28 29  1  0  0  0  0
 28 39  1  0  0  0  0
 29 41  1  1  0  0  0
 29 31  1  0  0  0  0
 30 29  1  0  0  0  0
 31 35  1  0  0  0  0
 32 31  2  0  0  0  0
 33 27  2  0  0  0  0
 34 33  1  0  0  0  0
 34 24  2  0  0  0  0
 36 23  1  0  0  0  0
 40 28  1  0  0  0  0
 42 30  1  0  0  0  0
 43 33  1  0  0  0  0
 44 34  1  0  0  0  0
M  END
$$$$
