GPC.pdb
 OpenBabel07022418243D

 34 34  0  0  1  0  0  0  0  0999 V2000
   -1.2850   -2.1430    3.3680 N   0  0  0  0  0  0  0  0  0  0  0  0
   -0.1730   -1.2750    3.5520 C   0  0  0  0  0  0  0  0  0  0  0  0
    0.7530   -1.1560    2.4210 C   0  0  0  0  0  0  0  0  0  0  0  0
    1.7490   -0.3730    2.6130 O   0  0  0  0  0  0  0  0  0  0  0  0
   -2.2120   -1.7040    3.3740 H   0  0  0  0  0  0  0  0  0  0  0  0
   -1.2120   -3.0700    3.8010 H   0  0  0  0  0  0  0  0  0  0  0  0
   -0.5600   -0.2660    3.8040 H   0  0  0  0  0  0  0  0  0  0  0  0
    0.3620   -1.6140    4.4860 H   0  0  0  0  0  0  0  0  0  0  0  0
    0.6280   -1.8230    1.1730 N   0  0  0  0  0  0  0  0  0  0  0  0
   -0.4170   -2.7280    0.7600 C   0  0  0  0  0  0  0  0  0  0  0  0
   -0.2560   -2.7800   -0.7410 C   0  0  0  0  0  0  0  0  0  0  0  0
    1.2420   -2.7840   -0.8960 C   0  0  0  0  0  0  0  0  0  0  0  0
    1.6040   -1.6740    0.0970 C   0  0  1  0  0  0  0  0  0  0  0  0
    1.4710   -0.3530   -0.5640 C   0  0  0  0  0  0  0  0  0  0  0  0
    2.2320   -0.0480   -1.5170 O   0  0  0  0  0  0  0  0  0  0  0  0
   -0.1800   -3.7460    1.1470 H   0  0  0  0  0  0  0  0  0  0  0  0
   -1.4380   -2.4010    1.0490 H   0  0  0  0  0  0  0  0  0  0  0  0
   -0.6520   -1.8300   -1.1690 H   0  0  0  0  0  0  0  0  0  0  0  0
   -0.7360   -3.6740   -1.1850 H   0  0  0  0  0  0  0  0  0  0  0  0
    1.5780   -2.5210   -1.9180 H   0  0  0  0  0  0  0  0  0  0  0  0
    1.6730   -3.7110   -0.5050 H   0  0  0  0  0  0  0  0  0  0  0  0
    2.6290   -1.7820    0.4830 H   0  0  0  0  0  0  0  0  0  0  0  0
    0.5020    0.6170   -0.1660 N   0  0  0  0  0  0  0  0  0  0  0  0
    0.3930    1.9110   -0.8340 C   0  0  1  0  0  0  0  0  0  0  0  0
   -0.9790    1.9710   -1.4830 C   0  0  0  0  0  0  0  0  0  0  0  0
   -2.3160    1.8130   -0.2950 S   0  0  0  0  0  0  0  0  0  0  0  0
    0.4880    3.0160    0.1350 C   0  0  0  0  0  0  0  0  0  0  0  0
    0.4150    4.1940   -0.2560 O   0  0  0  0  0  0  0  0  0  0  0  0
    0.6580    2.7490    1.4710 O   0  0  0  0  0  0  0  0  0  0  0  0
   -0.1270    0.3620    0.6250 H   0  0  0  0  0  0  0  0  0  0  0  0
    1.1320    2.0110   -1.6440 H   0  0  0  0  0  0  0  0  0  0  0  0
   -1.0360    1.1870   -2.2660 H   0  0  0  0  0  0  0  0  0  0  0  0
   -1.0630    2.9520   -2.0100 H   0  0  0  0  0  0  0  0  0  0  0  0
   -1.9690    2.3590    0.9620 H   0  0  0  0  0  0  0  0  0  0  0  0
  1  5  1  0  0  0  0
  1  2  1  0  0  0  0
  1  6  1  0  0  0  0
  2  7  1  0  0  0  0
  2  8  1  0  0  0  0
  3  4  2  0  0  0  0
  3  2  1  0  0  0  0
  9  3  1  0  0  0  0
 10 17  1  0  0  0  0
 10 16  1  0  0  0  0
 10  9  1  0  0  0  0
 11 10  1  0  0  0  0
 12 11  1  0  0  0  0
 12 21  1  0  0  0  0
 12 13  1  0  0  0  0
 13 22  1  1  0  0  0
 13  9  1  0  0  0  0
 14 23  1  0  0  0  0
 14 13  1  0  0  0  0
 15 14  2  0  0  0  0
 18 11  1  0  0  0  0
 19 11  1  0  0  0  0
 20 12  1  0  0  0  0
 23 30  1  0  0  0  0
 24 31  1  6  0  0  0
 24 23  1  0  0  0  0
 24 27  1  0  0  0  0
 25 24  1  0  0  0  0
 25 26  1  0  0  0  0
 26 34  1  0  0  0  0
 27 29  1  0  0  0  0
 28 27  2  0  0  0  0
 32 25  1  0  0  0  0
 33 25  1  0  0  0  0
M  END
$$$$
