GPD.pdb
 OpenBabel07022418243D

 36 36  0  0  1  0  0  0  0  0999 V2000
    4.9560   -0.6790    2.6870 N   0  0  0  0  0  0  0  0  0  0  0  0
    3.6840   -0.2400    2.1610 C   0  0  0  0  0  0  0  0  0  0  0  0
    3.7120   -0.3860    0.6610 C   0  0  0  0  0  0  0  0  0  0  0  0
    4.7540   -0.8370    0.0980 O   0  0  0  0  0  0  0  0  0  0  0  0
    5.0800   -0.3300    3.6740 H   0  0  0  0  0  0  0  0  0  0  0  0
    5.0130   -1.7300    2.7650 H   0  0  0  0  0  0  0  0  0  0  0  0
    2.8570   -0.7840    2.6190 H   0  0  0  0  0  0  0  0  0  0  0  0
    3.5810    0.8440    2.4320 H   0  0  0  0  0  0  0  0  0  0  0  0
    2.5970   -0.0310   -0.1220 N   0  0  0  0  0  0  0  0  0  0  0  0
    2.5010   -0.1230   -1.5540 C   0  0  0  0  0  0  0  0  0  0  0  0
    1.5350    0.9290   -2.0130 C   0  0  0  0  0  0  0  0  0  0  0  0
    1.0280    1.5300   -0.7310 C   0  0  0  0  0  0  0  0  0  0  0  0
    1.3400    0.4910    0.3500 C   0  0  1  0  0  0  0  0  0  0  0  0
    0.2900   -0.5670    0.3050 C   0  0  0  0  0  0  0  0  0  0  0  0
    0.5670   -1.7310   -0.1090 O   0  0  0  0  0  0  0  0  0  0  0  0
    3.4850   -0.0480   -2.0580 H   0  0  0  0  0  0  0  0  0  0  0  0
    2.0830   -1.1430   -1.7880 H   0  0  0  0  0  0  0  0  0  0  0  0
    0.7170    0.4650   -2.5970 H   0  0  0  0  0  0  0  0  0  0  0  0
    2.1000    1.6570   -2.6390 H   0  0  0  0  0  0  0  0  0  0  0  0
   -0.0650    1.7220   -0.7680 H   0  0  0  0  0  0  0  0  0  0  0  0
    1.5810    2.4730   -0.5370 H   0  0  0  0  0  0  0  0  0  0  0  0
    1.3930    0.9560    1.3430 H   0  0  0  0  0  0  0  0  0  0  0  0
   -1.0430   -0.3100    0.7190 N   0  0  0  0  0  0  0  0  0  0  0  0
   -2.0400   -1.4040    0.6490 C   0  0  1  0  0  0  0  0  0  0  0  0
   -2.6280   -1.6190    2.0190 C   0  0  0  0  0  0  0  0  0  0  0  0
   -3.6100   -2.6970    2.1260 C   0  0  0  0  0  0  0  0  0  0  0  0
   -3.9360   -3.4880    1.2100 O   0  0  0  0  0  0  0  0  0  0  0  0
   -3.0820   -0.9830   -0.3180 C   0  0  0  0  0  0  0  0  0  0  0  0
   -3.0020    0.1590   -0.8780 O   0  0  0  0  0  0  0  0  0  0  0  0
   -4.2820   -2.9120    3.3430 O   0  0  0  0  0  0  0  0  0  0  0  0
   -4.1450   -1.7780   -0.6430 O   0  0  0  0  0  0  0  0  0  0  0  0
   -1.3350    0.6270    1.0700 H   0  0  0  0  0  0  0  0  0  0  0  0
   -1.5660   -2.3150    0.2600 H   0  0  0  0  0  0  0  0  0  0  0  0
   -3.1650   -0.6770    2.3420 H   0  0  0  0  0  0  0  0  0  0  0  0
   -1.8110   -1.7070    2.7930 H   0  0  0  0  0  0  0  0  0  0  0  0
   -4.5490   -3.8190    3.6710 H   0  0  0  0  0  0  0  0  0  0  0  0
  1  6  1  0  0  0  0
  1  5  1  0  0  0  0
  2  8  1  0  0  0  0
  2  7  1  0  0  0  0
  2  1  1  0  0  0  0
  3  2  1  0  0  0  0
  4  3  2  0  0  0  0
  9 13  1  0  0  0  0
  9  3  1  0  0  0  0
 10  9  1  0  0  0  0
 11 10  1  0  0  0  0
 11 12  1  0  0  0  0
 12 21  1  0  0  0  0
 12 13  1  0  0  0  0
 13 22  1  1  0  0  0
 14 13  1  0  0  0  0
 14 23  1  0  0  0  0
 15 14  2  0  0  0  0
 16 10  1  0  0  0  0
 17 10  1  0  0  0  0
 18 11  1  0  0  0  0
 19 11  1  0  0  0  0
 20 12  1  0  0  0  0
 23 32  1  0  0  0  0
 24 33  1  6  0  0  0
 24 23  1  0  0  0  0
 24 25  1  0  0  0  0
 25 26  1  0  0  0  0
 25 34  1  0  0  0  0
 25 35  1  0  0  0  0
 26 30  1  0  0  0  0
 27 26  2  0  0  0  0
 28 24  1  0  0  0  0
 29 28  2  0  0  0  0
 30 36  1  0  0  0  0
 31 28  1  0  0  0  0
M  END
$$$$
