GPE.pdb
 OpenBabel07022418243D

 39 39  0  0  1  0  0  0  0  0999 V2000
   -1.5270   -4.9400    0.4670 N   0  0  0  0  0  0  0  0  0  0  0  0
   -1.7220   -4.1780    1.6790 C   0  0  0  0  0  0  0  0  0  0  0  0
   -0.8100   -3.0290    1.8110 C   0  0  0  0  0  0  0  0  0  0  0  0
   -0.9090   -2.3100    2.8390 O   0  0  0  0  0  0  0  0  0  0  0  0
   -1.4380   -5.9470    0.6910 H   0  0  0  0  0  0  0  0  0  0  0  0
   -2.2890   -4.7790   -0.1970 H   0  0  0  0  0  0  0  0  0  0  0  0
   -2.7860   -3.8350    1.6830 H   0  0  0  0  0  0  0  0  0  0  0  0
   -1.6560   -4.8710    2.5590 H   0  0  0  0  0  0  0  0  0  0  0  0
    0.1750   -2.6760    0.8570 N   0  0  0  0  0  0  0  0  0  0  0  0
    0.4170   -3.3860   -0.3710 C   0  0  0  0  0  0  0  0  0  0  0  0
    1.5140   -2.6980   -1.1150 C   0  0  0  0  0  0  0  0  0  0  0  0
    2.1910   -1.8630   -0.0600 C   0  0  0  0  0  0  0  0  0  0  0  0
    1.0900   -1.5640    0.9570 C   0  0  1  0  0  0  0  0  0  0  0  0
    0.4400   -0.2830    0.5350 C   0  0  0  0  0  0  0  0  0  0  0  0
   -0.7600   -0.2630    0.1560 O   0  0  0  0  0  0  0  0  0  0  0  0
   -0.5060   -3.3890   -0.9950 H   0  0  0  0  0  0  0  0  0  0  0  0
    0.6970   -4.4470   -0.2070 H   0  0  0  0  0  0  0  0  0  0  0  0
    1.0540   -2.0380   -1.8930 H   0  0  0  0  0  0  0  0  0  0  0  0
    2.2060   -3.3830   -1.6430 H   0  0  0  0  0  0  0  0  0  0  0  0
    3.0630   -2.3410    0.3930 H   0  0  0  0  0  0  0  0  0  0  0  0
    2.5140   -0.9130   -0.5340 H   0  0  0  0  0  0  0  0  0  0  0  0
    1.5940   -1.4840    1.9380 H   0  0  0  0  0  0  0  0  0  0  0  0
    1.1370    0.9480    0.5450 N   0  0  0  0  0  0  0  0  0  0  0  0
    0.5250    2.2020    0.1390 C   0  0  1  0  0  0  0  0  0  0  0  0
    0.7930    3.2150    1.2020 C   0  0  0  0  0  0  0  0  0  0  0  0
    0.2770    2.9070    2.5580 C   0  0  0  0  0  0  0  0  0  0  0  0
   -1.1840    2.7840    2.5390 C   0  0  0  0  0  0  0  0  0  0  0  0
   -1.8150    2.9800    1.4800 O   0  0  0  0  0  0  0  0  0  0  0  0
    1.2500    2.7010   -1.0900 C   0  0  0  0  0  0  0  0  0  0  0  0
    0.9020    3.7790   -1.6340 O   0  0  0  0  0  0  0  0  0  0  0  0
   -1.9020    2.4510    3.6770 O   0  0  0  0  0  0  0  0  0  0  0  0
    2.3050    1.9850   -1.6350 O   0  0  0  0  0  0  0  0  0  0  0  0
    2.1210    0.9620    0.8510 H   0  0  0  0  0  0  0  0  0  0  0  0
   -0.5170    2.1070   -0.1710 H   0  0  0  0  0  0  0  0  0  0  0  0
    0.3770    4.2300    0.9240 H   0  0  0  0  0  0  0  0  0  0  0  0
    1.8940    3.4090    1.2830 H   0  0  0  0  0  0  0  0  0  0  0  0
    0.7810    2.0410    3.0430 H   0  0  0  0  0  0  0  0  0  0  0  0
    0.5450    3.7840    3.2080 H   0  0  0  0  0  0  0  0  0  0  0  0
   -2.7740    1.9390    3.5600 H   0  0  0  0  0  0  0  0  0  0  0  0
  1  5  1  0  0  0  0
  1  2  1  0  0  0  0
  2  7  1  0  0  0  0
  2  3  1  0  0  0  0
  2  8  1  0  0  0  0
  3  4  2  0  0  0  0
  6  1  1  0  0  0  0
  9 13  1  0  0  0  0
  9  3  1  0  0  0  0
 10 17  1  0  0  0  0
 10  9  1  0  0  0  0
 11 10  1  0  0  0  0
 11 12  1  0  0  0  0
 12 20  1  0  0  0  0
 12 13  1  0  0  0  0
 13 22  1  1  0  0  0
 14 23  1  0  0  0  0
 14 13  1  0  0  0  0
 15 14  2  0  0  0  0
 16 10  1  0  0  0  0
 18 11  1  0  0  0  0
 19 11  1  0  0  0  0
 21 12  1  0  0  0  0
 23 33  1  0  0  0  0
 24 34  1  6  0  0  0
 24 23  1  0  0  0  0
 24 25  1  0  0  0  0
 25 36  1  0  0  0  0
 25 26  1  0  0  0  0
 26 37  1  0  0  0  0
 26 38  1  0  0  0  0
 27 26  1  0  0  0  0
 27 31  1  0  0  0  0
 28 27  2  0  0  0  0
 29 24  1  0  0  0  0
 30 29  1  0  0  0  0
 32 29  2  0  0  0  0
 35 25  1  0  0  0  0
 39 31  1  0  0  0  0
M  END
$$$$
