GPF.pdb
 OpenBabel07022418243D

 43 44  0  0  1  0  0  0  0  0999 V2000
   -0.9320   -5.2050    0.2870 N   0  0  0  0  0  0  0  0  0  0  0  0
    0.1930   -4.7540    1.0410 C   0  0  0  0  0  0  0  0  0  0  0  0
    0.6760   -3.3990    0.6910 C   0  0  0  0  0  0  0  0  0  0  0  0
    1.6610   -2.9190    1.3060 O   0  0  0  0  0  0  0  0  0  0  0  0
   -1.7020   -5.5540    0.8890 H   0  0  0  0  0  0  0  0  0  0  0  0
   -0.7020   -5.9930   -0.3680 H   0  0  0  0  0  0  0  0  0  0  0  0
    1.0500   -5.4890    1.0110 H   0  0  0  0  0  0  0  0  0  0  0  0
   -0.1080   -4.7440    2.1140 H   0  0  0  0  0  0  0  0  0  0  0  0
    0.0760   -2.5860   -0.3240 N   0  0  0  0  0  0  0  0  0  0  0  0
   -1.0380   -3.0020   -1.1010 C   0  0  0  0  0  0  0  0  0  0  0  0
   -1.3740   -1.8500   -2.0060 C   0  0  0  0  0  0  0  0  0  0  0  0
   -0.0780   -1.0500   -2.0530 C   0  0  0  0  0  0  0  0  0  0  0  0
    0.5100   -1.2710   -0.6780 C   0  0  1  0  0  0  0  0  0  0  0  0
   -0.1010   -0.2240    0.2000 C   0  0  0  0  0  0  0  0  0  0  0  0
   -0.8800   -0.6040    1.0960 O   0  0  0  0  0  0  0  0  0  0  0  0
   -0.8360   -3.9360   -1.6820 H   0  0  0  0  0  0  0  0  0  0  0  0
   -1.8920   -3.1550   -0.4000 H   0  0  0  0  0  0  0  0  0  0  0  0
   -2.2150   -1.2410   -1.6120 H   0  0  0  0  0  0  0  0  0  0  0  0
   -1.6210   -2.1670   -3.0340 H   0  0  0  0  0  0  0  0  0  0  0  0
    0.5790   -1.3640   -2.8700 H   0  0  0  0  0  0  0  0  0  0  0  0
   -0.3710    0.0020   -2.2320 H   0  0  0  0  0  0  0  0  0  0  0  0
    1.6200   -1.1710   -0.6850 H   0  0  0  0  0  0  0  0  0  0  0  0
    0.1790    1.1540    0.0360 N   0  0  0  0  0  0  0  0  0  0  0  0
   -0.4230    2.1500    0.8940 C   0  0  1  0  0  0  0  0  0  0  0  0
    0.6620    2.9080    1.6340 C   0  0  0  0  0  0  0  0  0  0  0  0
    1.5010    2.0580    2.4790 C   0  0  0  0  0  0  0  0  0  0  0  0
    2.6390    1.4840    1.9640 C   0  0  0  0  0  0  0  0  0  0  0  0
    3.4760    0.6730    2.7050 C   0  0  0  0  0  0  0  0  0  0  0  0
    3.1440    0.4330    4.0240 C   0  0  0  0  0  0  0  0  0  0  0  0
    1.9970    1.0120    4.5380 C   0  0  0  0  0  0  0  0  0  0  0  0
    1.1720    1.8190    3.7900 C   0  0  0  0  0  0  0  0  0  0  0  0
   -1.1870    3.1610    0.0980 C   0  0  0  0  0  0  0  0  0  0  0  0
   -1.7790    4.1040    0.6780 O   0  0  0  0  0  0  0  0  0  0  0  0
   -1.2830    3.1180   -1.2840 O   0  0  0  0  0  0  0  0  0  0  0  0
    0.8340    1.4250   -0.7250 H   0  0  0  0  0  0  0  0  0  0  0  0
   -1.0930    1.6870    1.6530 H   0  0  0  0  0  0  0  0  0  0  0  0
    1.2890    3.3940    0.8320 H   0  0  0  0  0  0  0  0  0  0  0  0
    0.1850    3.7470    2.1810 H   0  0  0  0  0  0  0  0  0  0  0  0
    2.9380    1.6530    0.9130 H   0  0  0  0  0  0  0  0  0  0  0  0
    4.3680    0.2280    2.2870 H   0  0  0  0  0  0  0  0  0  0  0  0
    3.7880   -0.2030    4.6280 H   0  0  0  0  0  0  0  0  0  0  0  0
    1.7410    0.8210    5.5750 H   0  0  0  0  0  0  0  0  0  0  0  0
    0.2740    2.2580    4.2370 H   0  0  0  0  0  0  0  0  0  0  0  0
  1  5  1  0  0  0  0
  1  2  1  0  0  0  0
  2  8  1  0  0  0  0
  3  2  1  0  0  0  0
  3  4  2  0  0  0  0
  6  1  1  0  0  0  0
  7  2  1  0  0  0  0
  9  3  1  0  0  0  0
 10 17  1  0  0  0  0
 10  9  1  0  0  0  0
 11 18  1  0  0  0  0
 11 10  1  0  0  0  0
 12 11  1  0  0  0  0
 12 13  1  0  0  0  0
 13 22  1  6  0  0  0
 13  9  1  0  0  0  0
 13 14  1  0  0  0  0
 14 15  2  0  0  0  0
 16 10  1  0  0  0  0
 19 11  1  0  0  0  0
 20 12  1  0  0  0  0
 21 12  1  0  0  0  0
 23 14  1  0  0  0  0
 23 24  1  0  0  0  0
 24 25  1  0  0  0  0
 24 36  1  1  0  0  0
 25 38  1  0  0  0  0
 25 26  1  0  0  0  0
 26 31  1  0  0  0  0
 27 26  2  0  0  0  0
 27 28  1  0  0  0  0
 28 29  2  0  0  0  0
 29 30  1  0  0  0  0
 29 41  1  0  0  0  0
 30 42  1  0  0  0  0
 31 43  1  0  0  0  0
 31 30  2  0  0  0  0
 32 33  1  0  0  0  0
 32 24  1  0  0  0  0
 34 32  2  0  0  0  0
 35 23  1  0  0  0  0
 37 25  1  0  0  0  0
 39 27  1  0  0  0  0
 40 28  1  0  0  0  0
M  END
$$$$
