GPM.pdb
 OpenBabel07022418243D

 40 40  0  0  1  0  0  0  0  0999 V2000
   -1.4750   -3.4350    3.0070 N   0  0  0  0  0  0  0  0  0  0  0  0
   -0.2580   -3.1330    2.2770 C   0  0  0  0  0  0  0  0  0  0  0  0
   -0.4990   -3.0390    0.8140 C   0  0  0  0  0  0  0  0  0  0  0  0
   -1.6790   -3.2310    0.4280 O   0  0  0  0  0  0  0  0  0  0  0  0
   -1.2830   -3.2080    4.0210 H   0  0  0  0  0  0  0  0  0  0  0  0
   -2.1810   -2.7130    2.6770 H   0  0  0  0  0  0  0  0  0  0  0  0
    0.4820   -3.9530    2.4090 H   0  0  0  0  0  0  0  0  0  0  0  0
    0.1820   -2.2390    2.7280 H   0  0  0  0  0  0  0  0  0  0  0  0
    0.4950   -2.7550   -0.1270 N   0  0  0  0  0  0  0  0  0  0  0  0
    0.2700   -2.6770   -1.5800 C   0  0  0  0  0  0  0  0  0  0  0  0
    1.6000   -3.2280   -2.1280 C   0  0  0  0  0  0  0  0  0  0  0  0
    2.5670   -2.5760   -1.1830 C   0  0  0  0  0  0  0  0  0  0  0  0
    1.8820   -2.4960    0.1240 C   0  0  1  0  0  0  0  0  0  0  0  0
    2.0540   -1.1310    0.7290 C   0  0  0  0  0  0  0  0  0  0  0  0
    3.1830   -0.7220    1.0740 O   0  0  0  0  0  0  0  0  0  0  0  0
   -0.5800   -3.2750   -1.9050 H   0  0  0  0  0  0  0  0  0  0  0  0
    0.2390   -1.6080   -1.8350 H   0  0  0  0  0  0  0  0  0  0  0  0
    1.7890   -2.8660   -3.1470 H   0  0  0  0  0  0  0  0  0  0  0  0
    1.6060   -4.3380   -2.0530 H   0  0  0  0  0  0  0  0  0  0  0  0
    2.7790   -1.5600   -1.6180 H   0  0  0  0  0  0  0  0  0  0  0  0
    3.5240   -3.1530   -1.1470 H   0  0  0  0  0  0  0  0  0  0  0  0
    2.3410   -3.2290    0.8190 H   0  0  0  0  0  0  0  0  0  0  0  0
   -1.8380    4.0150    1.9760 C   0  0  0  0  0  0  0  0  0  0  0  0
   -1.8010    2.4110    1.1820 S   0  0  0  0  0  0  0  0  0  0  0  0
   -0.4930    2.2000   -0.0100 C   0  0  0  0  0  0  0  0  0  0  0  0
    0.8900    2.1780    0.5340 C   0  0  0  0  0  0  0  0  0  0  0  0
    1.1640    1.0660    1.5180 C   0  0  2  0  0  0  0  0  0  0  0  0
    0.9590   -0.2370    0.9400 N   0  0  0  0  0  0  0  0  0  0  0  0
    0.4280    1.2940    2.7730 C   0  0  0  0  0  0  0  0  0  0  0  0
    0.5790    2.3900    3.3630 O   0  0  0  0  0  0  0  0  0  0  0  0
   -0.4190    0.3570    3.3300 O   0  0  0  0  0  0  0  0  0  0  0  0
   -2.4620    4.7080    1.3580 H   0  0  0  0  0  0  0  0  0  0  0  0
   -2.4200    3.9090    2.9360 H   0  0  0  0  0  0  0  0  0  0  0  0
   -0.8660    4.4340    2.2310 H   0  0  0  0  0  0  0  0  0  0  0  0
   -0.5320    2.9570   -0.8420 H   0  0  0  0  0  0  0  0  0  0  0  0
   -0.6590    1.2200   -0.5320 H   0  0  0  0  0  0  0  0  0  0  0  0
    1.6680    2.1910   -0.2390 H   0  0  0  0  0  0  0  0  0  0  0  0
    1.0300    3.1380    1.1140 H   0  0  0  0  0  0  0  0  0  0  0  0
    2.2610    1.1720    1.7590 H   0  0  0  0  0  0  0  0  0  0  0  0
    0.0160   -0.5700    0.6580 H   0  0  0  0  0  0  0  0  0  0  0  0
  1  5  1  0  0  0  0
  2  7  1  0  0  0  0
  2  8  1  0  0  0  0
  2  1  1  0  0  0  0
  3  2  1  0  0  0  0
  4  3  2  0  0  0  0
  6  1  1  0  0  0  0
  9 13  1  0  0  0  0
  9  3  1  0  0  0  0
 10  9  1  0  0  0  0
 11 19  1  0  0  0  0
 11 10  1  0  0  0  0
 11 12  1  0  0  0  0
 12 21  1  0  0  0  0
 12 13  1  0  0  0  0
 13 14  1  0  0  0  0
 13 22  1  1  0  0  0
 14 28  1  0  0  0  0
 14 15  2  0  0  0  0
 16 10  1  0  0  0  0
 17 10  1  0  0  0  0
 18 11  1  0  0  0  0
 20 12  1  0  0  0  0
 23 34  1  0  0  0  0
 23 33  1  0  0  0  0
 24 23  1  0  0  0  0
 25 26  1  0  0  0  0
 25 24  1  0  0  0  0
 26 38  1  0  0  0  0
 26 27  1  0  0  0  0
 27 39  1  1  0  0  0
 27 29  1  0  0  0  0
 28 27  1  0  0  0  0
 29 31  2  0  0  0  0
 29 30  1  0  0  0  0
 32 23  1  0  0  0  0
 35 25  1  0  0  0  0
 36 25  1  0  0  0  0
 37 26  1  0  0  0  0
 40 28  1  0  0  0  0
M  END
$$$$
