GPN.pdb
 OpenBabel07022418243D

 37 37  0  0  1  0  0  0  0  0999 V2000
    2.9590   -2.9910    3.9420 N   0  0  0  0  0  0  0  0  0  0  0  0
    2.3790   -2.3380    2.7990 C   0  0  0  0  0  0  0  0  0  0  0  0
    1.4550   -3.2430    2.0790 C   0  0  0  0  0  0  0  0  0  0  0  0
    1.2900   -4.4090    2.5200 O   0  0  0  0  0  0  0  0  0  0  0  0
    3.3390   -2.3160    4.6370 H   0  0  0  0  0  0  0  0  0  0  0  0
    2.2340   -3.6280    4.3760 H   0  0  0  0  0  0  0  0  0  0  0  0
    1.8230   -1.4390    3.1610 H   0  0  0  0  0  0  0  0  0  0  0  0
    3.1530   -1.9610    2.0970 H   0  0  0  0  0  0  0  0  0  0  0  0
    0.7550   -2.8510    0.9240 N   0  0  0  0  0  0  0  0  0  0  0  0
   -0.1700   -3.6440    0.1390 C   0  0  0  0  0  0  0  0  0  0  0  0
    0.3070   -3.3500   -1.2730 C   0  0  0  0  0  0  0  0  0  0  0  0
    0.5710   -1.8470   -1.1820 C   0  0  0  0  0  0  0  0  0  0  0  0
    0.8170   -1.5580    0.2750 C   0  0  1  0  0  0  0  0  0  0  0  0
   -0.1950   -0.6180    0.8420 C   0  0  0  0  0  0  0  0  0  0  0  0
   -0.9330   -1.0510    1.7640 O   0  0  0  0  0  0  0  0  0  0  0  0
   -1.2190   -3.2710    0.2150 H   0  0  0  0  0  0  0  0  0  0  0  0
   -0.1100   -4.7180    0.3720 H   0  0  0  0  0  0  0  0  0  0  0  0
   -0.4550   -3.5910   -2.0300 H   0  0  0  0  0  0  0  0  0  0  0  0
    1.2510   -3.9160   -1.4170 H   0  0  0  0  0  0  0  0  0  0  0  0
   -0.2920   -1.2940   -1.5910 H   0  0  0  0  0  0  0  0  0  0  0  0
    1.4530   -1.6600   -1.8240 H   0  0  0  0  0  0  0  0  0  0  0  0
    1.8180   -1.1110    0.3720 H   0  0  0  0  0  0  0  0  0  0  0  0
    0.3110    3.4470   -0.6090 N   0  0  0  0  0  0  0  0  0  0  0  0
    0.0730    3.6370    0.7760 C   0  0  0  0  0  0  0  0  0  0  0  0
    0.6090    4.6530    1.3010 O   0  0  0  0  0  0  0  0  0  0  0  0
   -0.7250    2.7750    1.6400 C   0  0  0  0  0  0  0  0  0  0  0  0
   -1.3330    1.5870    0.9570 C   0  0  2  0  0  0  0  0  0  0  0  0
   -0.3360    0.7120    0.3760 N   0  0  0  0  0  0  0  0  0  0  0  0
   -2.3280    1.9820   -0.0800 C   0  0  0  0  0  0  0  0  0  0  0  0
   -3.2840    2.7450    0.2130 O   0  0  0  0  0  0  0  0  0  0  0  0
   -2.2620    1.5450   -1.3950 O   0  0  0  0  0  0  0  0  0  0  0  0
   -0.4300    3.5920   -1.3140 H   0  0  0  0  0  0  0  0  0  0  0  0
    1.2640    3.1530   -0.9270 H   0  0  0  0  0  0  0  0  0  0  0  0
   -1.5580    3.3670    2.0760 H   0  0  0  0  0  0  0  0  0  0  0  0
   -0.1230    2.4040    2.4910 H   0  0  0  0  0  0  0  0  0  0  0  0
   -1.8630    1.0060    1.7400 H   0  0  0  0  0  0  0  0  0  0  0  0
    0.3030    1.0210   -0.3940 H   0  0  0  0  0  0  0  0  0  0  0  0
  1  6  1  0  0  0  0
  1  5  1  0  0  0  0
  2  7  1  0  0  0  0
  2  1  1  0  0  0  0
  3  4  2  0  0  0  0
  3  2  1  0  0  0  0
  8  2  1  0  0  0  0
  9  3  1  0  0  0  0
 10 16  1  0  0  0  0
 10 17  1  0  0  0  0
 10  9  1  0  0  0  0
 11 12  1  0  0  0  0
 11 10  1  0  0  0  0
 12 13  1  0  0  0  0
 13 22  1  1  0  0  0
 13 14  1  0  0  0  0
 13  9  1  0  0  0  0
 14 15  2  0  0  0  0
 18 11  1  0  0  0  0
 19 11  1  0  0  0  0
 20 12  1  0  0  0  0
 21 12  1  0  0  0  0
 23 24  1  0  0  0  0
 24 25  2  0  0  0  0
 24 26  1  0  0  0  0
 26 34  1  0  0  0  0
 26 35  1  0  0  0  0
 27 26  1  0  0  0  0
 27 36  1  1  0  0  0
 28 14  1  0  0  0  0
 28 27  1  0  0  0  0
 29 30  1  0  0  0  0
 29 27  1  0  0  0  0
 31 29  2  0  0  0  0
 32 23  1  0  0  0  0
 33 23  1  0  0  0  0
 37 28  1  0  0  0  0
M  END
$$$$
