GPQ.pdb
 OpenBabel07022418243D

 40 40  0  0  1  0  0  0  0  0999 V2000
   -1.9240   -3.3360   -0.0830 N   0  0  0  0  0  0  0  0  0  0  0  0
   -1.4730   -3.1520    1.2530 C   0  0  0  0  0  0  0  0  0  0  0  0
   -0.0550   -2.7720    1.4020 C   0  0  0  0  0  0  0  0  0  0  0  0
    0.3610   -2.5940    2.6040 O   0  0  0  0  0  0  0  0  0  0  0  0
   -2.6260   -2.6280   -0.4100 H   0  0  0  0  0  0  0  0  0  0  0  0
   -2.2260   -4.3070   -0.3000 H   0  0  0  0  0  0  0  0  0  0  0  0
   -2.1290   -2.3890    1.7240 H   0  0  0  0  0  0  0  0  0  0  0  0
   -1.6090   -4.1190    1.8000 H   0  0  0  0  0  0  0  0  0  0  0  0
    0.8700   -2.5900    0.3370 N   0  0  0  0  0  0  0  0  0  0  0  0
    0.6620   -2.7630   -1.0940 C   0  0  0  0  0  0  0  0  0  0  0  0
    2.0580   -3.1010   -1.5940 C   0  0  0  0  0  0  0  0  0  0  0  0
    2.8980   -2.1890   -0.7480 C   0  0  0  0  0  0  0  0  0  0  0  0
    2.2350   -2.1650    0.5720 C   0  0  1  0  0  0  0  0  0  0  0  0
    2.2830   -0.8240    1.2200 C   0  0  0  0  0  0  0  0  0  0  0  0
    3.4160   -0.4170    1.5880 O   0  0  0  0  0  0  0  0  0  0  0  0
    0.2600   -1.8840   -1.5960 H   0  0  0  0  0  0  0  0  0  0  0  0
    0.0130   -3.6360   -1.2860 H   0  0  0  0  0  0  0  0  0  0  0  0
    2.2350   -4.1710   -1.3630 H   0  0  0  0  0  0  0  0  0  0  0  0
    2.1360   -2.8740   -2.6780 H   0  0  0  0  0  0  0  0  0  0  0  0
    3.9370   -2.5930   -0.7260 H   0  0  0  0  0  0  0  0  0  0  0  0
    2.8730   -1.1910   -1.2500 H   0  0  0  0  0  0  0  0  0  0  0  0
    2.6930   -2.9230    1.2360 H   0  0  0  0  0  0  0  0  0  0  0  0
   -2.8500    2.3410    0.6450 N   0  0  0  0  0  0  0  0  0  0  0  0
   -1.5750    2.5230    1.3070 C   0  0  0  0  0  0  0  0  0  0  0  0
   -1.6420    2.7340    2.5220 O   0  0  0  0  0  0  0  0  0  0  0  0
   -0.3630    2.4460    0.5100 C   0  0  0  0  0  0  0  0  0  0  0  0
    0.9550    2.4170    1.1720 C   0  0  0  0  0  0  0  0  0  0  0  0
    1.2840    1.3060    2.0860 C   0  0  2  0  0  0  0  0  0  0  0  0
    1.1770   -0.0010    1.4430 N   0  0  0  0  0  0  0  0  0  0  0  0
    0.6270    1.3710    3.3730 C   0  0  0  0  0  0  0  0  0  0  0  0
   -0.0950    0.4630    3.8710 O   0  0  0  0  0  0  0  0  0  0  0  0
    0.8200    2.5490    4.1290 O   0  0  0  0  0  0  0  0  0  0  0  0
   -3.5390    3.1190    0.6800 H   0  0  0  0  0  0  0  0  0  0  0  0
   -3.0590    1.4660    0.1580 H   0  0  0  0  0  0  0  0  0  0  0  0
   -0.4540    1.6220   -0.2700 H   0  0  0  0  0  0  0  0  0  0  0  0
   -0.3320    3.3690   -0.1740 H   0  0  0  0  0  0  0  0  0  0  0  0
    1.1040    3.3710    1.7490 H   0  0  0  0  0  0  0  0  0  0  0  0
    1.7730    2.4770    0.3840 H   0  0  0  0  0  0  0  0  0  0  0  0
    2.4080    1.4650    2.3350 H   0  0  0  0  0  0  0  0  0  0  0  0
    0.2320   -0.3150    1.1390 H   0  0  0  0  0  0  0  0  0  0  0  0
  1  2  1  0  0  0  0
  2  3  1  0  0  0  0
  2  7  1  0  0  0  0
  2  8  1  0  0  0  0
  3  4  2  0  0  0  0
  5  1  1  0  0  0  0
  6  1  1  0  0  0  0
  9 13  1  0  0  0  0
  9  3  1  0  0  0  0
 10  9  1  0  0  0  0
 11 18  1  0  0  0  0
 11 10  1  0  0  0  0
 11 12  1  0  0  0  0
 12 20  1  0  0  0  0
 12 13  1  0  0  0  0
 13 14  1  0  0  0  0
 13 22  1  1  0  0  0
 14 29  1  0  0  0  0
 14 15  2  0  0  0  0
 16 10  1  0  0  0  0
 17 10  1  0  0  0  0
 19 11  1  0  0  0  0
 21 12  1  0  0  0  0
 23 33  1  0  0  0  0
 23 24  1  0  0  0  0
 24 25  2  0  0  0  0
 26 27  1  0  0  0  0
 26 24  1  0  0  0  0
 27 37  1  0  0  0  0
 27 28  1  0  0  0  0
 28 39  1  1  0  0  0
 28 30  1  0  0  0  0
 29 28  1  0  0  0  0
 30 31  2  0  0  0  0
 30 32  1  0  0  0  0
 34 23  1  0  0  0  0
 35 26  1  0  0  0  0
 36 26  1  0  0  0  0
 38 27  1  0  0  0  0
 40 29  1  0  0  0  0
M  END
$$$$
