GPR.pdb
 OpenBabel07022418243D

 46 46  0  0  1  0  0  0  0  0999 V2000
    2.5730   -2.8580    0.9380 N   0  0  0  0  0  0  0  0  0  0  0  0
    2.7460   -4.0810    0.2150 C   0  0  0  0  0  0  0  0  0  0  0  0
    2.1100   -4.1140   -1.1000 C   0  0  0  0  0  0  0  0  0  0  0  0
    2.2600   -5.2250   -1.7450 O   0  0  0  0  0  0  0  0  0  0  0  0
    3.4340   -2.3260    1.1140 H   0  0  0  0  0  0  0  0  0  0  0  0
    1.8870   -2.8870    1.6990 H   0  0  0  0  0  0  0  0  0  0  0  0
    2.4760   -4.9530    0.8550 H   0  0  0  0  0  0  0  0  0  0  0  0
    3.8620   -4.1980    0.0700 H   0  0  0  0  0  0  0  0  0  0  0  0
    1.3660   -3.0930   -1.7280 N   0  0  0  0  0  0  0  0  0  0  0  0
    0.7440   -3.2220   -3.0190 C   0  0  0  0  0  0  0  0  0  0  0  0
    1.1050   -1.8470   -3.6060 C   0  0  0  0  0  0  0  0  0  0  0  0
    0.8560   -0.9210   -2.4050 C   0  0  0  0  0  0  0  0  0  0  0  0
    1.0980   -1.7940   -1.2330 C   0  0  1  0  0  0  0  0  0  0  0  0
   -0.0450   -1.8490   -0.2860 C   0  0  0  0  0  0  0  0  0  0  0  0
   -0.6120   -2.9460   -0.0680 O   0  0  0  0  0  0  0  0  0  0  0  0
   -0.3560   -3.3380   -2.9570 H   0  0  0  0  0  0  0  0  0  0  0  0
    1.2290   -4.0160   -3.6030 H   0  0  0  0  0  0  0  0  0  0  0  0
    0.4490   -1.6100   -4.4540 H   0  0  0  0  0  0  0  0  0  0  0  0
    2.1750   -1.8930   -3.8700 H   0  0  0  0  0  0  0  0  0  0  0  0
    1.5900   -0.0930   -2.4290 H   0  0  0  0  0  0  0  0  0  0  0  0
   -0.1840   -0.5250   -2.4640 H   0  0  0  0  0  0  0  0  0  0  0  0
    2.0200   -1.4030   -0.7290 H   0  0  0  0  0  0  0  0  0  0  0  0
    0.8170    4.3930    4.7210 N   0  0  0  0  0  0  0  0  0  0  0  0
   -0.3010    3.6010    4.3540 C   0  0  0  0  0  0  0  0  0  0  0  0
   -1.1190    3.0940    5.2130 N   0  0  0  0  0  0  0  0  0  0  0  0
   -0.5910    3.3170    2.9740 N   0  0  0  0  0  0  0  0  0  0  0  0
   -1.4140    2.1400    2.6360 C   0  0  0  0  0  0  0  0  0  0  0  0
   -0.6010    0.9240    2.9770 C   0  0  0  0  0  0  0  0  0  0  0  0
   -1.2450   -0.3820    2.7230 C   0  0  0  0  0  0  0  0  0  0  0  0
   -1.6410   -0.7000    1.3270 C   0  0  2  0  0  0  0  0  0  0  0  0
   -0.5260   -0.6970    0.3890 N   0  0  0  0  0  0  0  0  0  0  0  0
   -2.7970    0.0680    0.8960 C   0  0  0  0  0  0  0  0  0  0  0  0
   -2.8200    0.6240   -0.2250 O   0  0  0  0  0  0  0  0  0  0  0  0
   -3.8940    0.1960    1.7230 O   0  0  0  0  0  0  0  0  0  0  0  0
    0.7480    5.1520    5.4320 H   0  0  0  0  0  0  0  0  0  0  0  0
    1.7390    4.1830    4.2390 H   0  0  0  0  0  0  0  0  0  0  0  0
   -1.0290    3.2210    6.2540 H   0  0  0  0  0  0  0  0  0  0  0  0
   -0.2040    3.9600    2.2520 H   0  0  0  0  0  0  0  0  0  0  0  0
   -2.3360    2.1390    3.2680 H   0  0  0  0  0  0  0  0  0  0  0  0
   -1.6210    2.2380    1.5570 H   0  0  0  0  0  0  0  0  0  0  0  0
   -0.3600    1.0180    4.0780 H   0  0  0  0  0  0  0  0  0  0  0  0
    0.3850    1.0540    2.4830 H   0  0  0  0  0  0  0  0  0  0  0  0
   -2.1710   -0.4120    3.3740 H   0  0  0  0  0  0  0  0  0  0  0  0
   -0.6120   -1.2160    3.1520 H   0  0  0  0  0  0  0  0  0  0  0  0
   -1.9940   -1.7970    1.3320 H   0  0  0  0  0  0  0  0  0  0  0  0
   -0.0070    0.2040    0.1630 H   0  0  0  0  0  0  0  0  0  0  0  0
  1  5  1  0  0  0  0
  1  6  1  0  0  0  0
  2  7  1  0  0  0  0
  2  1  1  0  0  0  0
  3  2  1  0  0  0  0
  4  3  2  0  0  0  0
  8  2  1  0  0  0  0
  9 13  1  0  0  0  0
  9  3  1  0  0  0  0
 10 16  1  0  0  0  0
 10  9  1  0  0  0  0
 11 10  1  0  0  0  0
 11 12  1  0  0  0  0
 12 13  1  0  0  0  0
 13 22  1  1  0  0  0
 13 14  1  0  0  0  0
 14 15  2  0  0  0  0
 14 31  1  0  0  0  0
 17 10  1  0  0  0  0
 18 11  1  0  0  0  0
 19 11  1  0  0  0  0
 20 12  1  0  0  0  0
 21 12  1  0  0  0  0
 23 35  1  0  0  0  0
 24 23  1  0  0  0  0
 24 25  2  0  0  0  0
 25 37  1  0  0  0  0
 26 24  1  0  0  0  0
 27 26  1  0  0  0  0
 27 28  1  0  0  0  0
 27 39  1  0  0  0  0
 28 41  1  0  0  0  0
 29 28  1  0  0  0  0
 29 44  1  0  0  0  0
 29 43  1  0  0  0  0
 30 45  1  1  0  0  0
 30 29  1  0  0  0  0
 31 30  1  0  0  0  0
 32 30  1  0  0  0  0
 32 34  1  0  0  0  0
 33 32  2  0  0  0  0
 36 23  1  0  0  0  0
 38 26  1  0  0  0  0
 40 27  1  0  0  0  0
 42 28  1  0  0  0  0
 46 31  1  0  0  0  0
M  END
$$$$
