GPS.pdb
 OpenBabel07022418243D

 34 34  0  0  1  0  0  0  0  0999 V2000
   -1.3610    0.1660    2.3080 N   0  0  0  0  0  0  0  0  0  0  0  0
   -1.2130   -0.7780    3.3430 C   0  0  0  0  0  0  0  0  0  0  0  0
   -0.1460   -1.7770    3.2290 C   0  0  0  0  0  0  0  0  0  0  0  0
   -0.1310   -2.6340    4.2190 O   0  0  0  0  0  0  0  0  0  0  0  0
   -1.1660    1.1650    2.6020 H   0  0  0  0  0  0  0  0  0  0  0  0
   -2.2760    0.1130    1.7940 H   0  0  0  0  0  0  0  0  0  0  0  0
   -1.1850   -0.2650    4.3430 H   0  0  0  0  0  0  0  0  0  0  0  0
   -2.1910   -1.3660    3.3800 H   0  0  0  0  0  0  0  0  0  0  0  0
    0.8180   -1.9500    2.2580 N   0  0  0  0  0  0  0  0  0  0  0  0
    1.7440   -3.1570    2.2880 C   0  0  0  0  0  0  0  0  0  0  0  0
    1.5650   -3.6310    0.8360 C   0  0  0  0  0  0  0  0  0  0  0  0
    1.0150   -2.4130    0.0620 C   0  0  0  0  0  0  0  0  0  0  0  0
    1.3350   -1.3290    1.0850 C   0  0  1  0  0  0  0  0  0  0  0  0
    0.9820    0.0200    0.7280 C   0  0  0  0  0  0  0  0  0  0  0  0
    1.3440    0.9560    1.5030 O   0  0  0  0  0  0  0  0  0  0  0  0
    2.7710   -2.7710    2.3830 H   0  0  0  0  0  0  0  0  0  0  0  0
    1.4180   -3.8750    3.0200 H   0  0  0  0  0  0  0  0  0  0  0  0
    0.8720   -4.4730    0.7810 H   0  0  0  0  0  0  0  0  0  0  0  0
    2.5420   -3.8720    0.3760 H   0  0  0  0  0  0  0  0  0  0  0  0
    1.5290   -2.2720   -0.8870 H   0  0  0  0  0  0  0  0  0  0  0  0
   -0.0880   -2.4760   -0.0130 H   0  0  0  0  0  0  0  0  0  0  0  0
    2.4900   -1.3900    1.2270 H   0  0  0  0  0  0  0  0  0  0  0  0
   -0.0380    1.1200   -3.0780 O   0  0  0  0  0  0  0  0  0  0  0  0
    0.5000    2.0420   -2.1770 C   0  0  0  0  0  0  0  0  0  0  0  0
   -0.1050    1.7210   -0.8020 C   0  0  2  0  0  0  0  0  0  0  0  0
    0.2520    0.3690   -0.4380 N   0  0  0  0  0  0  0  0  0  0  0  0
   -1.5730    1.8520   -0.9750 C   0  0  0  0  0  0  0  0  0  0  0  0
   -2.3870    0.9190   -0.8280 O   0  0  0  0  0  0  0  0  0  0  0  0
   -2.0430    3.1210   -1.3260 O   0  0  0  0  0  0  0  0  0  0  0  0
   -0.3680    1.6480   -3.8460 H   0  0  0  0  0  0  0  0  0  0  0  0
    0.1830    3.0790   -2.4030 H   0  0  0  0  0  0  0  0  0  0  0  0
    1.5980    1.9360   -2.1650 H   0  0  0  0  0  0  0  0  0  0  0  0
    0.2380    2.4650   -0.0610 H   0  0  0  0  0  0  0  0  0  0  0  0
   -0.0430   -0.4030   -1.0710 H   0  0  0  0  0  0  0  0  0  0  0  0
  1  5  1  0  0  0  0
  1  2  1  0  0  0  0
  2  8  1  0  0  0  0
  2  7  1  0  0  0  0
  3  2  1  0  0  0  0
  3  4  2  0  0  0  0
  6  1  1  0  0  0  0
  9 10  1  0  0  0  0
  9  3  1  0  0  0  0
 10 16  1  0  0  0  0
 10 17  1  0  0  0  0
 11 10  1  0  0  0  0
 12 11  1  0  0  0  0
 12 13  1  0  0  0  0
 13 22  1  1  0  0  0
 13  9  1  0  0  0  0
 14 13  1  0  0  0  0
 14 15  2  0  0  0  0
 18 11  1  0  0  0  0
 19 11  1  0  0  0  0
 20 12  1  0  0  0  0
 21 12  1  0  0  0  0
 23 24  1  0  0  0  0
 24 32  1  0  0  0  0
 24 25  1  0  0  0  0
 25 26  1  0  0  0  0
 25 33  1  1  0  0  0
 26 14  1  0  0  0  0
 27 28  1  0  0  0  0
 27 25  1  0  0  0  0
 29 27  2  0  0  0  0
 30 23  1  0  0  0  0
 31 24  1  0  0  0  0
 34 26  1  0  0  0  0
M  END
$$$$
