GPT.pdb
 OpenBabel07022418243D

 37 37  0  0  1  0  0  0  0  0999 V2000
    0.4130   -4.1460    4.5920 N   0  0  0  0  0  0  0  0  0  0  0  0
    0.3870   -4.2410    3.1540 C   0  0  0  0  0  0  0  0  0  0  0  0
    0.3450   -2.8390    2.5640 C   0  0  0  0  0  0  0  0  0  0  0  0
    0.3420   -1.8970    3.3860 O   0  0  0  0  0  0  0  0  0  0  0  0
   -0.5480   -4.0970    5.0060 H   0  0  0  0  0  0  0  0  0  0  0  0
    1.0270   -3.3970    4.9440 H   0  0  0  0  0  0  0  0  0  0  0  0
    1.2960   -4.7650    2.7810 H   0  0  0  0  0  0  0  0  0  0  0  0
   -0.4780   -4.8140    2.8080 H   0  0  0  0  0  0  0  0  0  0  0  0
    0.3140   -2.6430    1.1820 N   0  0  0  0  0  0  0  0  0  0  0  0
    0.3120   -3.8260    0.2490 C   0  0  0  0  0  0  0  0  0  0  0  0
   -0.8270   -3.4230   -0.6760 C   0  0  0  0  0  0  0  0  0  0  0  0
   -1.0270   -1.9160   -0.4740 C   0  0  0  0  0  0  0  0  0  0  0  0
    0.2750   -1.5850    0.2580 C   0  0  1  0  0  0  0  0  0  0  0  0
    0.3320   -0.2390    0.7530 C   0  0  0  0  0  0  0  0  0  0  0  0
    0.4750    0.0200    1.9530 O   0  0  0  0  0  0  0  0  0  0  0  0
    1.2690   -3.7390   -0.2850 H   0  0  0  0  0  0  0  0  0  0  0  0
    0.1340   -4.7530    0.7830 H   0  0  0  0  0  0  0  0  0  0  0  0
   -1.7180   -3.9940   -0.3830 H   0  0  0  0  0  0  0  0  0  0  0  0
   -0.5450   -3.6340   -1.7150 H   0  0  0  0  0  0  0  0  0  0  0  0
   -1.9110   -1.8090    0.1730 H   0  0  0  0  0  0  0  0  0  0  0  0
   -1.1200   -1.3970   -1.4320 H   0  0  0  0  0  0  0  0  0  0  0  0
    1.0630   -1.7550   -0.5530 H   0  0  0  0  0  0  0  0  0  0  0  0
    1.4940    3.1730   -1.5120 C   0  0  0  0  0  0  0  0  0  0  0  0
    1.5070    3.0010   -0.0170 C   0  0  1  0  0  0  0  0  0  0  0  0
    1.5400    4.2520    0.5680 O   0  0  0  0  0  0  0  0  0  0  0  0
    0.2950    2.2250    0.4730 C   0  0  2  0  0  0  0  0  0  0  0  0
    0.2270    0.9150   -0.1160 N   0  0  0  0  0  0  0  0  0  0  0  0
   -0.9650    2.9590    0.1760 C   0  0  0  0  0  0  0  0  0  0  0  0
   -1.8710    2.4080   -0.4960 O   0  0  0  0  0  0  0  0  0  0  0  0
   -1.1990    4.2540    0.6120 O   0  0  0  0  0  0  0  0  0  0  0  0
    0.5200    2.9510   -1.9730 H   0  0  0  0  0  0  0  0  0  0  0  0
    2.2400    2.5010   -1.9940 H   0  0  0  0  0  0  0  0  0  0  0  0
    1.7570    4.2160   -1.8120 H   0  0  0  0  0  0  0  0  0  0  0  0
    2.4060    2.4310    0.2840 H   0  0  0  0  0  0  0  0  0  0  0  0
    1.3210    4.2480    1.5300 H   0  0  0  0  0  0  0  0  0  0  0  0
    0.4280    2.1780    1.5850 H   0  0  0  0  0  0  0  0  0  0  0  0
    0.1080    0.7600   -1.1160 H   0  0  0  0  0  0  0  0  0  0  0  0
  1  6  1  0  0  0  0
  1  5  1  0  0  0  0
  2  1  1  0  0  0  0
  3  2  1  0  0  0  0
  3  4  2  0  0  0  0
  7  2  1  0  0  0  0
  8  2  1  0  0  0  0
  9  3  1  0  0  0  0
 10 17  1  0  0  0  0
 10  9  1  0  0  0  0
 11 12  1  0  0  0  0
 11 18  1  0  0  0  0
 11 10  1  0  0  0  0
 12 20  1  0  0  0  0
 12 13  1  0  0  0  0
 13 22  1  6  0  0  0
 13 14  1  0  0  0  0
 13  9  1  0  0  0  0
 14 15  2  0  0  0  0
 16 10  1  0  0  0  0
 19 11  1  0  0  0  0
 21 12  1  0  0  0  0
 23 24  1  0  0  0  0
 24 34  1  1  0  0  0
 24 26  1  0  0  0  0
 24 25  1  0  0  0  0
 25 35  1  0  0  0  0
 26 36  1  1  0  0  0
 27 26  1  0  0  0  0
 27 14  1  0  0  0  0
 28 26  1  0  0  0  0
 28 30  1  0  0  0  0
 29 28  2  0  0  0  0
 31 23  1  0  0  0  0
 32 23  1  0  0  0  0
 33 23  1  0  0  0  0
 37 27  1  0  0  0  0
M  END
$$$$
