GPW.pdb
 OpenBabel07022418243D

 47 49  0  0  1  0  0  0  0  0999 V2000
    3.4240   -1.0960    2.7290 N   0  0  0  0  0  0  0  0  0  0  0  0
    4.2940   -2.2010    2.5200 C   0  0  0  0  0  0  0  0  0  0  0  0
    4.1830   -2.8520    1.1930 C   0  0  0  0  0  0  0  0  0  0  0  0
    4.9380   -3.8570    0.9490 O   0  0  0  0  0  0  0  0  0  0  0  0
    2.6600   -1.3840    3.3790 H   0  0  0  0  0  0  0  0  0  0  0  0
    3.8790   -0.2560    3.1360 H   0  0  0  0  0  0  0  0  0  0  0  0
    5.3470   -1.8050    2.6050 H   0  0  0  0  0  0  0  0  0  0  0  0
    4.1920   -2.9210    3.3580 H   0  0  0  0  0  0  0  0  0  0  0  0
    3.3030   -2.4560    0.1590 N   0  0  0  0  0  0  0  0  0  0  0  0
    3.2450   -3.1530   -1.1300 C   0  0  0  0  0  0  0  0  0  0  0  0
    2.5180   -2.2840   -2.0900 C   0  0  0  0  0  0  0  0  0  0  0  0
    2.2670   -1.0050   -1.3680 C   0  0  0  0  0  0  0  0  0  0  0  0
    2.3360   -1.3930    0.0830 C   0  0  1  0  0  0  0  0  0  0  0  0
    1.0220   -1.9140    0.5250 C   0  0  0  0  0  0  0  0  0  0  0  0
    0.9060   -3.0870    0.9210 O   0  0  0  0  0  0  0  0  0  0  0  0
    2.6700   -4.1110   -1.0410 H   0  0  0  0  0  0  0  0  0  0  0  0
    4.2650   -3.3330   -1.5340 H   0  0  0  0  0  0  0  0  0  0  0  0
    1.5340   -2.7030   -2.4300 H   0  0  0  0  0  0  0  0  0  0  0  0
    3.0930   -2.0980   -3.0360 H   0  0  0  0  0  0  0  0  0  0  0  0
    3.0410   -0.2320   -1.6270 H   0  0  0  0  0  0  0  0  0  0  0  0
    1.2500   -0.5890   -1.6110 H   0  0  0  0  0  0  0  0  0  0  0  0
    2.6240   -0.4700    0.6300 H   0  0  0  0  0  0  0  0  0  0  0  0
   -0.1230   -1.0800    0.5010 N   0  0  0  0  0  0  0  0  0  0  0  0
   -1.4290   -1.5930    0.9420 C   0  0  1  0  0  0  0  0  0  0  0  0
   -1.8180   -0.8500    2.1800 C   0  0  0  0  0  0  0  0  0  0  0  0
   -1.9210    0.6200    2.0180 C   0  0  0  0  0  0  0  0  0  0  0  0
   -0.9070    1.5490    2.3370 C   0  0  0  0  0  0  0  0  0  0  0  0
   -1.3350    2.7830    2.0280 N   0  0  0  0  0  0  0  0  0  0  0  0
   -2.5750    2.7300    1.5240 C   0  0  0  0  0  0  0  0  0  0  0  0
   -3.4200    3.7060    1.0780 C   0  0  0  0  0  0  0  0  0  0  0  0
   -4.6950    3.4310    0.5920 C   0  0  0  0  0  0  0  0  0  0  0  0
   -5.0520    2.1020    0.5890 C   0  0  0  0  0  0  0  0  0  0  0  0
   -4.1970    1.1020    1.0410 C   0  0  0  0  0  0  0  0  0  0  0  0
   -2.9410    1.4010    1.5150 C   0  0  0  0  0  0  0  0  0  0  0  0
   -2.4020   -1.6590   -0.1310 C   0  0  0  0  0  0  0  0  0  0  0  0
   -3.5430   -2.1870    0.0590 O   0  0  0  0  0  0  0  0  0  0  0  0
   -2.2150   -1.1750   -1.4310 O   0  0  0  0  0  0  0  0  0  0  0  0
   -0.0690   -0.1010    0.1770 H   0  0  0  0  0  0  0  0  0  0  0  0
   -1.2240   -2.6600    1.2740 H   0  0  0  0  0  0  0  0  0  0  0  0
   -2.7820   -1.2630    2.6050 H   0  0  0  0  0  0  0  0  0  0  0  0
   -1.0730   -1.0320    2.9920 H   0  0  0  0  0  0  0  0  0  0  0  0
    0.0280    1.2290    2.7560 H   0  0  0  0  0  0  0  0  0  0  0  0
   -0.7490    3.6370    2.1770 H   0  0  0  0  0  0  0  0  0  0  0  0
   -3.1640    4.7780    1.0670 H   0  0  0  0  0  0  0  0  0  0  0  0
   -5.3660    4.1950    0.2390 H   0  0  0  0  0  0  0  0  0  0  0  0
   -6.0340    1.8070    0.2250 H   0  0  0  0  0  0  0  0  0  0  0  0
   -4.4910    0.0690    1.0460 H   0  0  0  0  0  0  0  0  0  0  0  0
  1  6  1  0  0  0  0
  1  5  1  0  0  0  0
  2  7  1  0  0  0  0
  2  1  1  0  0  0  0
  2  8  1  0  0  0  0
  3  2  1  0  0  0  0
  4  3  2  0  0  0  0
  9  3  1  0  0  0  0
 10 16  1  0  0  0  0
 10  9  1  0  0  0  0
 11 12  1  0  0  0  0
 11 10  1  0  0  0  0
 12 13  1  0  0  0  0
 13  9  1  0  0  0  0
 13 14  1  0  0  0  0
 13 22  1  1  0  0  0
 14 15  2  0  0  0  0
 17 10  1  0  0  0  0
 18 11  1  0  0  0  0
 19 11  1  0  0  0  0
 20 12  1  0  0  0  0
 21 12  1  0  0  0  0
 23 14  1  0  0  0  0
 23 24  1  0  0  0  0
 24 39  1  1  0  0  0
 24 25  1  0  0  0  0
 25 40  1  0  0  0  0
 25 41  1  0  0  0  0
 26 25  1  0  0  0  0
 26 27  2  0  0  0  0
 27 42  1  0  0  0  0
 28 43  1  0  0  0  0
 28 27  1  0  0  0  0
 29 28  1  0  0  0  0
 30 29  2  0  0  0  0
 31 30  1  0  0  0  0
 32 31  2  0  0  0  0
 32 33  1  0  0  0  0
 33 47  1  0  0  0  0
 33 34  2  0  0  0  0
 34 29  1  0  0  0  0
 34 26  1  0  0  0  0
 35 36  1  0  0  0  0
 35 24  1  0  0  0  0
 37 35  2  0  0  0  0
 38 23  1  0  0  0  0
 44 30  1  0  0  0  0
 45 31  1  0  0  0  0
 46 32  1  0  0  0  0
M  END
$$$$
