GPY.pdb
 OpenBabel07022418243D

 44 45  0  0  1  0  0  0  0  0999 V2000
   -0.7260   -4.2760   -0.8700 N   0  0  0  0  0  0  0  0  0  0  0  0
   -0.1040   -4.5560    0.3850 C   0  0  0  0  0  0  0  0  0  0  0  0
    0.9210   -3.5810    0.8040 C   0  0  0  0  0  0  0  0  0  0  0  0
    1.4880   -3.7890    1.8990 O   0  0  0  0  0  0  0  0  0  0  0  0
   -1.7710   -4.2350   -0.7110 H   0  0  0  0  0  0  0  0  0  0  0  0
   -0.5620   -5.0130   -1.5840 H   0  0  0  0  0  0  0  0  0  0  0  0
    0.4190   -5.5420    0.2830 H   0  0  0  0  0  0  0  0  0  0  0  0
   -0.8320   -4.6950    1.2220 H   0  0  0  0  0  0  0  0  0  0  0  0
    1.2820   -2.4310    0.0210 N   0  0  0  0  0  0  0  0  0  0  0  0
    0.7320   -2.0670   -1.2400 C   0  0  0  0  0  0  0  0  0  0  0  0
    1.4380   -0.8270   -1.6790 C   0  0  0  0  0  0  0  0  0  0  0  0
    2.6790   -0.7300   -0.7900 C   0  0  0  0  0  0  0  0  0  0  0  0
    2.2720   -1.4720    0.4270 C   0  0  1  0  0  0  0  0  0  0  0  0
    1.8000   -0.6070    1.5310 C   0  0  0  0  0  0  0  0  0  0  0  0
    2.5710    0.2770    1.9830 O   0  0  0  0  0  0  0  0  0  0  0  0
   -0.3690   -1.8930   -1.0890 H   0  0  0  0  0  0  0  0  0  0  0  0
    0.8170   -2.8820   -1.9940 H   0  0  0  0  0  0  0  0  0  0  0  0
    0.8150    0.0640   -1.5840 H   0  0  0  0  0  0  0  0  0  0  0  0
    1.7400   -0.9590   -2.7470 H   0  0  0  0  0  0  0  0  0  0  0  0
    3.0100    0.2980   -0.6370 H   0  0  0  0  0  0  0  0  0  0  0  0
    3.4650   -1.3390   -1.3210 H   0  0  0  0  0  0  0  0  0  0  0  0
    3.1620   -2.0190    0.8150 H   0  0  0  0  0  0  0  0  0  0  0  0
   -0.4850    4.1870   -1.7090 O   0  0  0  0  0  0  0  0  0  0  0  0
   -0.6540    3.3850   -0.5900 C   0  0  0  0  0  0  0  0  0  0  0  0
   -0.4030    3.8750    0.6510 C   0  0  0  0  0  0  0  0  0  0  0  0
   -0.5700    3.0850    1.7610 C   0  0  0  0  0  0  0  0  0  0  0  0
   -0.9950    1.7770    1.6540 C   0  0  0  0  0  0  0  0  0  0  0  0
   -1.1780    0.9140    2.8490 C   0  0  0  0  0  0  0  0  0  0  0  0
    0.0830    0.1570    3.2090 C   0  0  2  0  0  0  0  0  0  0  0  0
    0.5140   -0.7060    2.1290 N   0  0  0  0  0  0  0  0  0  0  0  0
   -0.2290   -0.6850    4.3930 C   0  0  0  0  0  0  0  0  0  0  0  0
   -0.6220   -0.1000    5.4340 O   0  0  0  0  0  0  0  0  0  0  0  0
   -1.2410    1.3100    0.3810 C   0  0  0  0  0  0  0  0  0  0  0  0
   -1.0780    2.0880   -0.7300 C   0  0  0  0  0  0  0  0  0  0  0  0
   -0.1120   -2.0590    4.4130 O   0  0  0  0  0  0  0  0  0  0  0  0
    0.3510    4.7640   -1.8010 H   0  0  0  0  0  0  0  0  0  0  0  0
   -0.0700    4.8960    0.7630 H   0  0  0  0  0  0  0  0  0  0  0  0
   -0.3620    3.5040    2.7380 H   0  0  0  0  0  0  0  0  0  0  0  0
   -1.9820    0.1950    2.6240 H   0  0  0  0  0  0  0  0  0  0  0  0
   -1.5130    1.5310    3.7010 H   0  0  0  0  0  0  0  0  0  0  0  0
    0.8520    0.8850    3.5060 H   0  0  0  0  0  0  0  0  0  0  0  0
   -0.1200   -1.4380    1.7530 H   0  0  0  0  0  0  0  0  0  0  0  0
   -1.5810    0.2830    0.2100 H   0  0  0  0  0  0  0  0  0  0  0  0
   -1.2790    1.6940   -1.7120 H   0  0  0  0  0  0  0  0  0  0  0  0
  1  5  1  0  0  0  0
  1  2  1  0  0  0  0
  2  3  1  0  0  0  0
  2  8  1  0  0  0  0
  3  4  2  0  0  0  0
  6  1  1  0  0  0  0
  7  2  1  0  0  0  0
  9 13  1  0  0  0  0
  9  3  1  0  0  0  0
 10 16  1  0  0  0  0
 10  9  1  0  0  0  0
 11 18  1  0  0  0  0
 11 10  1  0  0  0  0
 11 12  1  0  0  0  0
 12 20  1  0  0  0  0
 12 13  1  0  0  0  0
 13 22  1  1  0  0  0
 13 14  1  0  0  0  0
 14 15  2  0  0  0  0
 14 30  1  0  0  0  0
 17 10  1  0  0  0  0
 19 11  1  0  0  0  0
 21 12  1  0  0  0  0
 23 24  1  0  0  0  0
 24 25  1  0  0  0  0
 25 37  1  0  0  0  0
 25 26  2  0  0  0  0
 26 38  1  0  0  0  0
 27 26  1  0  0  0  0
 27 28  1  0  0  0  0
 28 29  1  0  0  0  0
 28 40  1  0  0  0  0
 29 41  1  1  0  0  0
 29 31  1  0  0  0  0
 30 29  1  0  0  0  0
 31 35  2  0  0  0  0
 31 32  1  0  0  0  0
 33 27  2  0  0  0  0
 34 24  2  0  0  0  0
 34 33  1  0  0  0  0
 36 23  1  0  0  0  0
 39 28  1  0  0  0  0
 42 30  1  0  0  0  0
 43 33  1  0  0  0  0
 44 34  1  0  0  0  0
M  END
$$$$
