GQA.pdb
 OpenBabel07022418233D

 36 35  0  0  1  0  0  0  0  0999 V2000
   -1.2320   -2.7350   -3.1870 N   0  0  0  0  0  0  0  0  0  0  0  0
   -2.4390   -2.8100   -2.3900 C   0  0  0  0  0  0  0  0  0  0  0  0
   -2.1540   -2.2520   -1.0430 C   0  0  0  0  0  0  0  0  0  0  0  0
   -3.0550   -2.2000   -0.1420 O   0  0  0  0  0  0  0  0  0  0  0  0
   -0.4710   -3.2690   -2.7140 H   0  0  0  0  0  0  0  0  0  0  0  0
   -0.9180   -1.7430   -3.2540 H   0  0  0  0  0  0  0  0  0  0  0  0
   -2.8100   -3.8480   -2.3430 H   0  0  0  0  0  0  0  0  0  0  0  0
   -3.1750   -2.1300   -2.8660 H   0  0  0  0  0  0  0  0  0  0  0  0
    3.9970   -2.9590    1.1700 N   0  0  0  0  0  0  0  0  0  0  0  0
    2.6550   -2.7900    1.5810 C   0  0  0  0  0  0  0  0  0  0  0  0
    2.3010   -3.3310    2.6590 O   0  0  0  0  0  0  0  0  0  0  0  0
    1.7120   -1.9940    0.7510 C   0  0  0  0  0  0  0  0  0  0  0  0
    0.3650   -1.9930    1.4460 C   0  0  0  0  0  0  0  0  0  0  0  0
   -0.6630   -1.2070    0.6750 C   0  0  2  0  0  0  0  0  0  0  0  0
   -0.8790   -1.7380   -0.6510 N   0  0  0  0  0  0  0  0  0  0  0  0
   -0.3450    0.2260    0.5750 C   0  0  0  0  0  0  0  0  0  0  0  0
   -0.3110    0.7430   -0.5680 O   0  0  0  0  0  0  0  0  0  0  0  0
    4.2260   -3.4040    0.2660 H   0  0  0  0  0  0  0  0  0  0  0  0
    4.7610   -2.6320    1.7870 H   0  0  0  0  0  0  0  0  0  0  0  0
    1.6200   -2.3610   -0.2720 H   0  0  0  0  0  0  0  0  0  0  0  0
    2.1280   -0.9680    0.7020 H   0  0  0  0  0  0  0  0  0  0  0  0
    0.4150   -1.6160    2.4640 H   0  0  0  0  0  0  0  0  0  0  0  0
    0.0210   -3.0480    1.4630 H   0  0  0  0  0  0  0  0  0  0  0  0
   -1.6090   -1.2700    1.2900 H   0  0  0  0  0  0  0  0  0  0  0  0
   -0.1300   -1.7720   -1.3780 H   0  0  0  0  0  0  0  0  0  0  0  0
   -0.7890    3.3450    2.2270 C   0  0  0  0  0  0  0  0  0  0  0  0
    0.2320    2.4570    1.5560 C   0  0  2  0  0  0  0  0  0  0  0  0
   -0.0750    1.0580    1.6920 N   0  0  0  0  0  0  0  0  0  0  0  0
    1.5980    2.7540    2.0350 C   0  0  0  0  0  0  0  0  0  0  0  0
    2.0290    3.9250    1.9880 O   0  0  0  0  0  0  0  0  0  0  0  0
    2.3720    1.7200    2.5260 O   0  0  0  0  0  0  0  0  0  0  0  0
   -1.6730    3.5290    1.6240 H   0  0  0  0  0  0  0  0  0  0  0  0
   -0.3700    4.3130    2.5390 H   0  0  0  0  0  0  0  0  0  0  0  0
   -1.1140    2.8200    3.1520 H   0  0  0  0  0  0  0  0  0  0  0  0
    0.2160    2.7320    0.4660 H   0  0  0  0  0  0  0  0  0  0  0  0
   -0.1060    0.6200    2.6370 H   0  0  0  0  0  0  0  0  0  0  0  0
  1  5  1  0  0  0  0
  1  2  1  0  0  0  0
  2  7  1  0  0  0  0
  2  3  1  0  0  0  0
  3 15  1  0  0  0  0
  3  4  2  0  0  0  0
  6  1  1  0  0  0  0
  8  2  1  0  0  0  0
  9 10  1  0  0  0  0
  9 19  1  0  0  0  0
 10 11  2  0  0  0  0
 12 13  1  0  0  0  0
 12 10  1  0  0  0  0
 13 23  1  0  0  0  0
 13 22  1  0  0  0  0
 14 24  1  1  0  0  0
 14 13  1  0  0  0  0
 15 14  1  0  0  0  0
 16 14  1  0  0  0  0
 16 28  1  0  0  0  0
 17 16  2  0  0  0  0
 18  9  1  0  0  0  0
 20 12  1  0  0  0  0
 21 12  1  0  0  0  0
 25 15  1  0  0  0  0
 26 33  1  0  0  0  0
 26 34  1  0  0  0  0
 27 35  1  6  0  0  0
 27 28  1  0  0  0  0
 27 29  1  0  0  0  0
 27 26  1  0  0  0  0
 28 36  1  0  0  0  0
 29 31  1  0  0  0  0
 30 29  2  0  0  0  0
 32 26  1  0  0  0  0
M  END
$$$$
