GQD.pdb
 OpenBabel07022418233D

 39 38  0  0  1  0  0  0  0  0999 V2000
   -0.7920   -3.9370   -2.5520 N   0  0  0  0  0  0  0  0  0  0  0  0
   -1.2080   -2.7950   -3.3160 C   0  0  0  0  0  0  0  0  0  0  0  0
   -1.2110   -1.5480   -2.5060 C   0  0  0  0  0  0  0  0  0  0  0  0
   -1.5440   -0.4490   -3.0140 O   0  0  0  0  0  0  0  0  0  0  0  0
    0.2360   -4.0360   -2.4270 H   0  0  0  0  0  0  0  0  0  0  0  0
   -1.3590   -4.1290   -1.7100 H   0  0  0  0  0  0  0  0  0  0  0  0
   -2.2230   -2.9990   -3.7350 H   0  0  0  0  0  0  0  0  0  0  0  0
   -0.5340   -2.6980   -4.1950 H   0  0  0  0  0  0  0  0  0  0  0  0
   -1.5520   -2.9970    3.5080 N   0  0  0  0  0  0  0  0  0  0  0  0
   -1.2220   -1.9910    2.5160 C   0  0  0  0  0  0  0  0  0  0  0  0
   -0.0650   -1.5610    2.5770 O   0  0  0  0  0  0  0  0  0  0  0  0
   -2.2100   -1.5650    1.5560 C   0  0  0  0  0  0  0  0  0  0  0  0
   -1.9480   -0.4390    0.6540 C   0  0  0  0  0  0  0  0  0  0  0  0
   -0.7960   -0.4950   -0.2790 C   0  0  2  0  0  0  0  0  0  0  0  0
   -0.8310   -1.6310   -1.1540 N   0  0  0  0  0  0  0  0  0  0  0  0
    0.5330   -0.1960    0.2640 C   0  0  0  0  0  0  0  0  0  0  0  0
    1.5330   -0.9620    0.0370 O   0  0  0  0  0  0  0  0  0  0  0  0
   -2.4160   -2.7890    4.0690 H   0  0  0  0  0  0  0  0  0  0  0  0
   -0.9940   -3.8490    3.6620 H   0  0  0  0  0  0  0  0  0  0  0  0
   -3.1620   -1.2920    2.1370 H   0  0  0  0  0  0  0  0  0  0  0  0
   -2.5920   -2.4280    0.9250 H   0  0  0  0  0  0  0  0  0  0  0  0
   -2.8790   -0.2830    0.0380 H   0  0  0  0  0  0  0  0  0  0  0  0
   -1.8680    0.4990    1.2570 H   0  0  0  0  0  0  0  0  0  0  0  0
   -0.9900    0.4070   -0.9940 H   0  0  0  0  0  0  0  0  0  0  0  0
   -0.5410   -2.5550   -0.7040 H   0  0  0  0  0  0  0  0  0  0  0  0
    0.7910    0.9590    1.0680 N   0  0  0  0  0  0  0  0  0  0  0  0
    2.1400    1.1920    1.5670 C   0  0  1  0  0  0  0  0  0  0  0  0
    2.6210    2.5660    1.1180 C   0  0  0  0  0  0  0  0  0  0  0  0
    4.0000    2.8440    1.5710 C   0  0  0  0  0  0  0  0  0  0  0  0
    4.4860    3.9970    1.5790 O   0  0  0  0  0  0  0  0  0  0  0  0
    2.0280    1.2230    3.0480 C   0  0  0  0  0  0  0  0  0  0  0  0
    0.8920    1.1390    3.6190 O   0  0  0  0  0  0  0  0  0  0  0  0
    4.8120    1.8220    2.0060 O   0  0  0  0  0  0  0  0  0  0  0  0
    3.1400    1.3410    3.8690 O   0  0  0  0  0  0  0  0  0  0  0  0
    0.0120    1.6140    1.2850 H   0  0  0  0  0  0  0  0  0  0  0  0
    2.8550    0.4040    1.2970 H   0  0  0  0  0  0  0  0  0  0  0  0
    2.4780    2.7250    0.0400 H   0  0  0  0  0  0  0  0  0  0  0  0
    1.9750    3.3400    1.6300 H   0  0  0  0  0  0  0  0  0  0  0  0
    5.6180    1.9420    2.6140 H   0  0  0  0  0  0  0  0  0  0  0  0
  1  5  1  0  0  0  0
  1  6  1  0  0  0  0
  2  1  1  0  0  0  0
  2  3  1  0  0  0  0
  3 15  1  0  0  0  0
  4  3  2  0  0  0  0
  7  2  1  0  0  0  0
  8  2  1  0  0  0  0
  9 19  1  0  0  0  0
  9 18  1  0  0  0  0
 10 11  2  0  0  0  0
 10  9  1  0  0  0  0
 12 20  1  0  0  0  0
 12 10  1  0  0  0  0
 13 23  1  0  0  0  0
 13 12  1  0  0  0  0
 14 24  1  6  0  0  0
 14 16  1  0  0  0  0
 14 13  1  0  0  0  0
 15 25  1  0  0  0  0
 15 14  1  0  0  0  0
 16 26  1  0  0  0  0
 17 16  2  0  0  0  0
 21 12  1  0  0  0  0
 22 13  1  0  0  0  0
 26 35  1  0  0  0  0
 26 27  1  0  0  0  0
 27 36  1  6  0  0  0
 27 31  1  0  0  0  0
 28 27  1  0  0  0  0
 28 29  1  0  0  0  0
 28 38  1  0  0  0  0
 29 30  2  0  0  0  0
 29 33  1  0  0  0  0
 31 32  2  0  0  0  0
 31 34  1  0  0  0  0
 33 39  1  0  0  0  0
 37 28  1  0  0  0  0
M  END
$$$$
