GQE.pdb
 OpenBabel07022418233D

 42 41  0  0  1  0  0  0  0  0999 V2000
    2.8170   -0.9040    5.9790 N   0  0  0  0  0  0  0  0  0  0  0  0
    2.8290   -0.0610    4.8150 C   0  0  0  0  0  0  0  0  0  0  0  0
    1.7470   -0.5020    3.9050 C   0  0  0  0  0  0  0  0  0  0  0  0
    0.9820   -1.4830    4.2020 O   0  0  0  0  0  0  0  0  0  0  0  0
    3.5740   -0.7190    6.6460 H   0  0  0  0  0  0  0  0  0  0  0  0
    1.8810   -1.0580    6.3850 H   0  0  0  0  0  0  0  0  0  0  0  0
    3.8310   -0.1400    4.3550 H   0  0  0  0  0  0  0  0  0  0  0  0
    2.6620    1.0160    5.0710 H   0  0  0  0  0  0  0  0  0  0  0  0
   -1.6500    2.2300    4.7900 N   0  0  0  0  0  0  0  0  0  0  0  0
   -0.8150    2.0000    3.6610 C   0  0  0  0  0  0  0  0  0  0  0  0
    0.3580    2.4000    3.7110 O   0  0  0  0  0  0  0  0  0  0  0  0
   -1.3700    1.3170    2.5170 C   0  0  0  0  0  0  0  0  0  0  0  0
   -0.4930    0.8550    1.4320 C   0  0  0  0  0  0  0  0  0  0  0  0
    0.5500   -0.1530    1.7240 C   0  0  2  0  0  0  0  0  0  0  0  0
    1.5550    0.1830    2.6730 N   0  0  0  0  0  0  0  0  0  0  0  0
    1.1930   -0.5840    0.4360 C   0  0  0  0  0  0  0  0  0  0  0  0
    2.4660   -0.5880    0.3270 O   0  0  0  0  0  0  0  0  0  0  0  0
   -1.6390    1.6720    5.6580 H   0  0  0  0  0  0  0  0  0  0  0  0
   -2.3200    3.0450    4.6940 H   0  0  0  0  0  0  0  0  0  0  0  0
   -2.0720    0.4820    2.8360 H   0  0  0  0  0  0  0  0  0  0  0  0
   -2.1050    2.0480    2.0390 H   0  0  0  0  0  0  0  0  0  0  0  0
   -1.1710    0.4030    0.6430 H   0  0  0  0  0  0  0  0  0  0  0  0
   -0.0310    1.7210    0.8830 H   0  0  0  0  0  0  0  0  0  0  0  0
    0.0710   -1.1140    2.1130 H   0  0  0  0  0  0  0  0  0  0  0  0
    2.2120    0.9650    2.4620 H   0  0  0  0  0  0  0  0  0  0  0  0
    0.4610   -1.0000   -0.7020 N   0  0  0  0  0  0  0  0  0  0  0  0
    1.1330   -1.4120   -1.9410 C   0  0  1  0  0  0  0  0  0  0  0  0
    0.9370   -2.8570   -2.2350 C   0  0  0  0  0  0  0  0  0  0  0  0
   -0.4500   -3.3390   -2.4110 C   0  0  0  0  0  0  0  0  0  0  0  0
   -1.1740   -2.7050   -3.5100 C   0  0  0  0  0  0  0  0  0  0  0  0
   -1.8630   -1.6780   -3.3240 O   0  0  0  0  0  0  0  0  0  0  0  0
    0.8430   -0.4880   -3.0500 C   0  0  0  0  0  0  0  0  0  0  0  0
    1.2820   -0.6870   -4.2020 O   0  0  0  0  0  0  0  0  0  0  0  0
   -1.1490   -3.1880   -4.8210 O   0  0  0  0  0  0  0  0  0  0  0  0
    0.0690    0.6360   -2.8340 O   0  0  0  0  0  0  0  0  0  0  0  0
   -0.5740   -1.0170   -0.6650 H   0  0  0  0  0  0  0  0  0  0  0  0
    2.2600   -1.3140   -1.7480 H   0  0  0  0  0  0  0  0  0  0  0  0
    1.3710   -3.4420   -1.3680 H   0  0  0  0  0  0  0  0  0  0  0  0
    1.5580   -3.1770   -3.1100 H   0  0  0  0  0  0  0  0  0  0  0  0
   -1.0100   -3.3330   -1.4500 H   0  0  0  0  0  0  0  0  0  0  0  0
   -0.3760   -4.4400   -2.6620 H   0  0  0  0  0  0  0  0  0  0  0  0
   -1.9290   -3.0000   -5.4300 H   0  0  0  0  0  0  0  0  0  0  0  0
  1  6  1  0  0  0  0
  1  5  1  0  0  0  0
  2  8  1  0  0  0  0
  2  1  1  0  0  0  0
  3  4  2  0  0  0  0
  3  2  1  0  0  0  0
  7  2  1  0  0  0  0
  9 18  1  0  0  0  0
 10 11  2  0  0  0  0
 10  9  1  0  0  0  0
 12 20  1  0  0  0  0
 12 10  1  0  0  0  0
 13 14  1  0  0  0  0
 13 12  1  0  0  0  0
 14 24  1  1  0  0  0
 14 15  1  0  0  0  0
 15  3  1  0  0  0  0
 16 14  1  0  0  0  0
 17 16  2  0  0  0  0
 19  9  1  0  0  0  0
 21 12  1  0  0  0  0
 22 13  1  0  0  0  0
 23 13  1  0  0  0  0
 25 15  1  0  0  0  0
 26 36  1  0  0  0  0
 26 16  1  0  0  0  0
 27 37  1  1  0  0  0
 27 26  1  0  0  0  0
 28 27  1  0  0  0  0
 28 38  1  0  0  0  0
 29 28  1  0  0  0  0
 29 40  1  0  0  0  0
 30 31  2  0  0  0  0
 30 29  1  0  0  0  0
 32 35  1  0  0  0  0
 32 27  1  0  0  0  0
 33 32  2  0  0  0  0
 34 30  1  0  0  0  0
 39 28  1  0  0  0  0
 41 29  1  0  0  0  0
 42 34  1  0  0  0  0
M  END
$$$$
