GQG.pdb
 OpenBabel07022418233D

 33 32  0  0  1  0  0  0  0  0999 V2000
   -2.6120   -3.1620    1.8350 N   0  0  0  0  0  0  0  0  0  0  0  0
   -1.6000   -2.9980    2.8560 C   0  0  0  0  0  0  0  0  0  0  0  0
   -0.6000   -1.9910    2.3990 C   0  0  0  0  0  0  0  0  0  0  0  0
    0.3790   -1.6770    3.1170 O   0  0  0  0  0  0  0  0  0  0  0  0
   -3.3150   -3.8420    2.2060 H   0  0  0  0  0  0  0  0  0  0  0  0
   -3.1350   -2.2410    1.7630 H   0  0  0  0  0  0  0  0  0  0  0  0
   -2.1070   -2.5410    3.7400 H   0  0  0  0  0  0  0  0  0  0  0  0
   -1.1310   -3.9690    3.1060 H   0  0  0  0  0  0  0  0  0  0  0  0
    3.3090   -3.4410   -1.8040 N   0  0  0  0  0  0  0  0  0  0  0  0
    2.4750   -2.3080   -1.6860 C   0  0  0  0  0  0  0  0  0  0  0  0
    2.3390   -1.5630   -2.6880 O   0  0  0  0  0  0  0  0  0  0  0  0
    1.7490   -1.9370   -0.4590 C   0  0  0  0  0  0  0  0  0  0  0  0
    0.9380   -0.6880   -0.6090 C   0  0  0  0  0  0  0  0  0  0  0  0
    0.2320   -0.3700    0.6610 C   0  0  2  0  0  0  0  0  0  0  0  0
   -0.6750   -1.3310    1.1580 N   0  0  0  0  0  0  0  0  0  0  0  0
   -0.5170    0.9040    0.4610 C   0  0  0  0  0  0  0  0  0  0  0  0
   -1.7450    0.9900    0.7240 O   0  0  0  0  0  0  0  0  0  0  0  0
    3.9000   -3.7950   -1.0300 H   0  0  0  0  0  0  0  0  0  0  0  0
    3.3320   -3.9460   -2.7090 H   0  0  0  0  0  0  0  0  0  0  0  0
    2.5260   -1.7290    0.3230 H   0  0  0  0  0  0  0  0  0  0  0  0
    1.1810   -2.8060   -0.0980 H   0  0  0  0  0  0  0  0  0  0  0  0
    0.2940   -0.6810   -1.5060 H   0  0  0  0  0  0  0  0  0  0  0  0
    1.6820    0.1280   -0.7870 H   0  0  0  0  0  0  0  0  0  0  0  0
    1.0330   -0.2280    1.4470 H   0  0  0  0  0  0  0  0  0  0  0  0
   -1.4940   -1.5790    0.5320 H   0  0  0  0  0  0  0  0  0  0  0  0
    0.1030    2.0820   -0.0330 N   0  0  0  0  0  0  0  0  0  0  0  0
   -0.6300    3.3180   -0.2250 C   0  0  0  0  0  0  0  0  0  0  0  0
   -1.1720    3.7320    1.0910 C   0  0  0  0  0  0  0  0  0  0  0  0
   -1.8680    4.7810    1.2360 O   0  0  0  0  0  0  0  0  0  0  0  0
   -0.9360    2.9820    2.2310 O   0  0  0  0  0  0  0  0  0  0  0  0
    1.1180    2.0350   -0.2590 H   0  0  0  0  0  0  0  0  0  0  0  0
   -1.4950    3.1620   -0.9040 H   0  0  0  0  0  0  0  0  0  0  0  0
   -0.0130    4.1020   -0.6880 H   0  0  0  0  0  0  0  0  0  0  0  0
  1  5  1  0  0  0  0
  1  2  1  0  0  0  0
  2  8  1  0  0  0  0
  2  7  1  0  0  0  0
  3  2  1  0  0  0  0
  3  4  2  0  0  0  0
  6  1  1  0  0  0  0
  9 10  1  0  0  0  0
  9 18  1  0  0  0  0
 10 12  1  0  0  0  0
 11 10  2  0  0  0  0
 12 21  1  0  0  0  0
 12 20  1  0  0  0  0
 13 12  1  0  0  0  0
 13 14  1  0  0  0  0
 14 15  1  0  0  0  0
 14 24  1  1  0  0  0
 15  3  1  0  0  0  0
 16 14  1  0  0  0  0
 16 17  2  0  0  0  0
 19  9  1  0  0  0  0
 22 13  1  0  0  0  0
 23 13  1  0  0  0  0
 25 15  1  0  0  0  0
 26 16  1  0  0  0  0
 27 26  1  0  0  0  0
 27 28  1  0  0  0  0
 28 29  2  0  0  0  0
 28 30  1  0  0  0  0
 31 26  1  0  0  0  0
 32 27  1  0  0  0  0
 33 27  1  0  0  0  0
M  END
$$$$
