GQH.pdb
 OpenBabel07022418233D

 43 43  0  0  1  0  0  0  0  0999 V2000
    3.2490   -2.8930   -4.2190 N   0  0  0  0  0  0  0  0  0  0  0  0
    3.0790   -2.9110   -2.7870 C   0  0  0  0  0  0  0  0  0  0  0  0
    1.9380   -2.0510   -2.4250 C   0  0  0  0  0  0  0  0  0  0  0  0
    1.3130   -1.4610   -3.3550 O   0  0  0  0  0  0  0  0  0  0  0  0
    3.4900   -3.8360   -4.5810 H   0  0  0  0  0  0  0  0  0  0  0  0
    2.4530   -2.4470   -4.7250 H   0  0  0  0  0  0  0  0  0  0  0  0
    3.9960   -2.4320   -2.3550 H   0  0  0  0  0  0  0  0  0  0  0  0
    2.9860   -3.9400   -2.3840 H   0  0  0  0  0  0  0  0  0  0  0  0
    0.4100   -3.1620    3.3430 N   0  0  0  0  0  0  0  0  0  0  0  0
    0.1330   -2.2410    2.2880 C   0  0  0  0  0  0  0  0  0  0  0  0
    0.3010   -1.0460    2.5890 O   0  0  0  0  0  0  0  0  0  0  0  0
   -0.2990   -2.8060    1.0310 C   0  0  0  0  0  0  0  0  0  0  0  0
   -0.5930   -1.9440   -0.1210 C   0  0  0  0  0  0  0  0  0  0  0  0
    0.4690   -1.0810   -0.6730 C   0  0  2  0  0  0  0  0  0  0  0  0
    1.5830   -1.9160   -1.0670 N   0  0  0  0  0  0  0  0  0  0  0  0
    0.8410    0.1180    0.0770 C   0  0  0  0  0  0  0  0  0  0  0  0
    2.0460    0.2500    0.3840 O   0  0  0  0  0  0  0  0  0  0  0  0
    1.3590   -3.4420    3.6270 H   0  0  0  0  0  0  0  0  0  0  0  0
   -0.4040   -3.5650    3.8440 H   0  0  0  0  0  0  0  0  0  0  0  0
   -1.1940   -3.4710    1.2760 H   0  0  0  0  0  0  0  0  0  0  0  0
    0.4790   -3.5980    0.7600 H   0  0  0  0  0  0  0  0  0  0  0  0
   -0.9140   -2.6310   -0.9630 H   0  0  0  0  0  0  0  0  0  0  0  0
   -1.5480   -1.3910    0.1090 H   0  0  0  0  0  0  0  0  0  0  0  0
    0.0630   -0.6570   -1.6640 H   0  0  0  0  0  0  0  0  0  0  0  0
    2.1410   -2.4320   -0.3470 H   0  0  0  0  0  0  0  0  0  0  0  0
   -0.1180    1.0820    0.4310 N   0  0  0  0  0  0  0  0  0  0  0  0
    0.1830    2.2700    1.1360 C   0  0  1  0  0  0  0  0  0  0  0  0
    0.1780    2.2070    2.6190 C   0  0  0  0  0  0  0  0  0  0  0  0
   -1.1510    1.8030    3.1490 C   0  0  0  0  0  0  0  0  0  0  0  0
   -1.4870    1.6510    4.4770 C   0  0  0  0  0  0  0  0  0  0  0  0
   -2.7830    1.2740    4.5810 N   0  0  0  0  0  0  0  0  0  0  0  0
   -3.2670    1.1860    3.3450 C   0  0  0  0  0  0  0  0  0  0  0  0
   -2.2770    1.5070    2.4680 N   0  0  0  0  0  0  0  0  0  0  0  0
    1.3610    3.0110    0.5900 C   0  0  0  0  0  0  0  0  0  0  0  0
    1.8200    4.0250    1.1620 O   0  0  0  0  0  0  0  0  0  0  0  0
    1.9490    2.5700   -0.5660 O   0  0  0  0  0  0  0  0  0  0  0  0
   -1.1410    0.8990    0.1490 H   0  0  0  0  0  0  0  0  0  0  0  0
   -0.6700    3.0010    0.8570 H   0  0  0  0  0  0  0  0  0  0  0  0
    0.3350    3.2540    3.0200 H   0  0  0  0  0  0  0  0  0  0  0  0
    0.9430    1.5730    3.0650 H   0  0  0  0  0  0  0  0  0  0  0  0
   -0.8050    1.8140    5.3030 H   0  0  0  0  0  0  0  0  0  0  0  0
   -3.2420    1.1040    5.4990 H   0  0  0  0  0  0  0  0  0  0  0  0
   -4.2910    0.9000    3.1270 H   0  0  0  0  0  0  0  0  0  0  0  0
  1  2  1  0  0  0  0
  2  3  1  0  0  0  0
  2  8  1  0  0  0  0
  2  7  1  0  0  0  0
  3 15  1  0  0  0  0
  4  3  2  0  0  0  0
  5  1  1  0  0  0  0
  6  1  1  0  0  0  0
  9 18  1  0  0  0  0
  9 19  1  0  0  0  0
 10 11  2  0  0  0  0
 10  9  1  0  0  0  0
 12 20  1  0  0  0  0
 12 10  1  0  0  0  0
 13 23  1  0  0  0  0
 13 12  1  0  0  0  0
 14 24  1  6  0  0  0
 14 13  1  0  0  0  0
 14 16  1  0  0  0  0
 15 14  1  0  0  0  0
 15 25  1  0  0  0  0
 16 17  2  0  0  0  0
 16 26  1  0  0  0  0
 21 12  1  0  0  0  0
 22 13  1  0  0  0  0
 26 27  1  0  0  0  0
 27 38  1  6  0  0  0
 27 28  1  0  0  0  0
 28 39  1  0  0  0  0
 28 40  1  0  0  0  0
 28 29  1  0  0  0  0
 29 30  2  0  0  0  0
 30 31  1  0  0  0  0
 30 41  1  0  0  0  0
 31 42  1  0  0  0  0
 32 31  1  0  0  0  0
 33 29  1  0  0  0  0
 33 32  2  0  0  0  0
 34 27  1  0  0  0  0
 34 35  1  0  0  0  0
 36 34  2  0  0  0  0
 37 26  1  0  0  0  0
 43 32  1  0  0  0  0
M  END
$$$$
