GQI.pdb
 OpenBabel07022418233D

 45 44  0  0  1  0  0  0  0  0999 V2000
    3.9360   -2.7310   -1.7130 N   0  0  0  0  0  0  0  0  0  0  0  0
    3.0930   -2.2070   -2.7660 C   0  0  0  0  0  0  0  0  0  0  0  0
    1.7730   -1.7640   -2.2460 C   0  0  0  0  0  0  0  0  0  0  0  0
    0.9550   -1.2890   -3.0760 O   0  0  0  0  0  0  0  0  0  0  0  0
    4.1790   -1.9470   -1.0510 H   0  0  0  0  0  0  0  0  0  0  0  0
    3.4950   -3.5390   -1.2640 H   0  0  0  0  0  0  0  0  0  0  0  0
    2.9090   -3.0500   -3.4770 H   0  0  0  0  0  0  0  0  0  0  0  0
    3.5810   -1.3990   -3.3240 H   0  0  0  0  0  0  0  0  0  0  0  0
    1.0140   -5.2200    1.7110 N   0  0  0  0  0  0  0  0  0  0  0  0
    0.5130   -4.4490    0.6250 C   0  0  0  0  0  0  0  0  0  0  0  0
    1.0500   -4.6240   -0.4930 O   0  0  0  0  0  0  0  0  0  0  0  0
   -0.5730   -3.5200    0.8540 C   0  0  0  0  0  0  0  0  0  0  0  0
   -0.8450   -2.4780   -0.1450 C   0  0  0  0  0  0  0  0  0  0  0  0
    0.1750   -1.4370   -0.4120 C   0  0  2  0  0  0  0  0  0  0  0  0
    1.4560   -1.8750   -0.8680 N   0  0  0  0  0  0  0  0  0  0  0  0
    0.2770   -0.4280    0.6840 C   0  0  0  0  0  0  0  0  0  0  0  0
    1.3940   -0.0380    1.1320 O   0  0  0  0  0  0  0  0  0  0  0  0
    0.6960   -6.2250    1.7470 H   0  0  0  0  0  0  0  0  0  0  0  0
    1.6510   -4.8570    2.4410 H   0  0  0  0  0  0  0  0  0  0  0  0
   -1.5000   -4.1440    1.0460 H   0  0  0  0  0  0  0  0  0  0  0  0
   -0.4450   -2.9910    1.8520 H   0  0  0  0  0  0  0  0  0  0  0  0
   -1.0480   -2.9840   -1.1330 H   0  0  0  0  0  0  0  0  0  0  0  0
   -1.8160   -1.9310    0.0470 H   0  0  0  0  0  0  0  0  0  0  0  0
   -0.2750   -0.8310   -1.2740 H   0  0  0  0  0  0  0  0  0  0  0  0
    2.1870   -2.2640   -0.1970 H   0  0  0  0  0  0  0  0  0  0  0  0
    0.5750    3.4190    0.8660 C   0  0  0  0  0  0  0  0  0  0  0  0
   -0.8680    3.0720    0.7720 C   0  0  0  0  0  0  0  0  0  0  0  0
   -1.4250    2.4300    2.0180 C   0  0  2  0  0  0  0  0  0  0  0  0
   -1.2550    3.3880    3.1530 C   0  0  0  0  0  0  0  0  0  0  0  0
   -0.7340    1.1280    2.3470 C   0  0  2  0  0  0  0  0  0  0  0  0
   -0.8680    0.1560    1.2900 N   0  0  0  0  0  0  0  0  0  0  0  0
   -1.3670    0.5820    3.5540 C   0  0  0  0  0  0  0  0  0  0  0  0
   -1.3740    1.2540    4.6030 O   0  0  0  0  0  0  0  0  0  0  0  0
   -1.9490   -0.6580    3.5340 O   0  0  0  0  0  0  0  0  0  0  0  0
    0.7650    4.5270    0.8740 H   0  0  0  0  0  0  0  0  0  0  0  0
    1.0900    3.0260   -0.0550 H   0  0  0  0  0  0  0  0  0  0  0  0
    1.1040    3.0070    1.7220 H   0  0  0  0  0  0  0  0  0  0  0  0
   -1.1190    2.4270   -0.1090 H   0  0  0  0  0  0  0  0  0  0  0  0
   -1.4400    4.0140    0.6150 H   0  0  0  0  0  0  0  0  0  0  0  0
   -2.4920    2.2250    1.8400 H   0  0  0  0  0  0  0  0  0  0  0  0
   -1.0800    4.4410    2.7850 H   0  0  0  0  0  0  0  0  0  0  0  0
   -0.3090    3.1210    3.6850 H   0  0  0  0  0  0  0  0  0  0  0  0
   -2.1120    3.3670    3.8570 H   0  0  0  0  0  0  0  0  0  0  0  0
    0.3230    1.3400    2.6010 H   0  0  0  0  0  0  0  0  0  0  0  0
   -1.8210   -0.1200    0.9680 H   0  0  0  0  0  0  0  0  0  0  0  0
  1  6  1  0  0  0  0
  1  5  1  0  0  0  0
  2  3  1  0  0  0  0
  2  1  1  0  0  0  0
  3 15  1  0  0  0  0
  4  3  2  0  0  0  0
  7  2  1  0  0  0  0
  8  2  1  0  0  0  0
  9 18  1  0  0  0  0
  9 19  1  0  0  0  0
 10 12  1  0  0  0  0
 10  9  1  0  0  0  0
 11 10  2  0  0  0  0
 12 20  1  0  0  0  0
 12 21  1  0  0  0  0
 13 23  1  0  0  0  0
 13 12  1  0  0  0  0
 14 24  1  6  0  0  0
 14 13  1  0  0  0  0
 14 16  1  0  0  0  0
 15 14  1  0  0  0  0
 15 25  1  0  0  0  0
 16 17  2  0  0  0  0
 16 31  1  0  0  0  0
 22 13  1  0  0  0  0
 26 35  1  0  0  0  0
 26 37  1  0  0  0  0
 27 26  1  0  0  0  0
 27 28  1  0  0  0  0
 28 40  1  6  0  0  0
 28 30  1  0  0  0  0
 28 29  1  0  0  0  0
 29 42  1  0  0  0  0
 29 43  1  0  0  0  0
 30 44  1  1  0  0  0
 30 32  1  0  0  0  0
 31 30  1  0  0  0  0
 32 33  1  0  0  0  0
 34 32  2  0  0  0  0
 36 26  1  0  0  0  0
 38 27  1  0  0  0  0
 39 27  1  0  0  0  0
 41 29  1  0  0  0  0
 45 31  1  0  0  0  0
M  END
$$$$
