GQL.pdb
 OpenBabel07022418233D

 45 44  0  0  1  0  0  0  0  0999 V2000
   -3.4030   -3.6010   -1.0710 N   0  0  0  0  0  0  0  0  0  0  0  0
   -4.0260   -2.6440   -0.1900 C   0  0  0  0  0  0  0  0  0  0  0  0
   -2.9590   -1.9510    0.5710 C   0  0  0  0  0  0  0  0  0  0  0  0
   -3.3650   -1.0660    1.3990 O   0  0  0  0  0  0  0  0  0  0  0  0
   -2.7410   -3.1360   -1.7280 H   0  0  0  0  0  0  0  0  0  0  0  0
   -2.8650   -4.2700   -0.4980 H   0  0  0  0  0  0  0  0  0  0  0  0
   -4.6850   -3.2140    0.5140 H   0  0  0  0  0  0  0  0  0  0  0  0
   -4.6440   -1.9010   -0.7180 H   0  0  0  0  0  0  0  0  0  0  0  0
    2.5360   -4.7240    0.4390 N   0  0  0  0  0  0  0  0  0  0  0  0
    1.9000   -3.4750    0.7930 C   0  0  0  0  0  0  0  0  0  0  0  0
    2.4100   -2.4810    0.2390 O   0  0  0  0  0  0  0  0  0  0  0  0
    0.7990   -3.5710    1.7130 C   0  0  0  0  0  0  0  0  0  0  0  0
    0.0760   -2.3980    2.1820 C   0  0  0  0  0  0  0  0  0  0  0  0
   -0.6140   -1.5190    1.1810 C   0  0  2  0  0  0  0  0  0  0  0  0
   -1.5860   -2.2350    0.4060 N   0  0  0  0  0  0  0  0  0  0  0  0
    0.2660   -0.6230    0.4200 C   0  0  0  0  0  0  0  0  0  0  0  0
    0.1930   -0.6060   -0.8290 O   0  0  0  0  0  0  0  0  0  0  0  0
    2.5430   -5.1290   -0.4960 H   0  0  0  0  0  0  0  0  0  0  0  0
    3.0120   -5.2170    1.2220 H   0  0  0  0  0  0  0  0  0  0  0  0
    1.1530   -4.2050    2.5880 H   0  0  0  0  0  0  0  0  0  0  0  0
    0.0370   -4.2710    1.2360 H   0  0  0  0  0  0  0  0  0  0  0  0
   -0.6860   -2.6630    2.9630 H   0  0  0  0  0  0  0  0  0  0  0  0
    0.7960   -1.7290    2.7410 H   0  0  0  0  0  0  0  0  0  0  0  0
   -1.2150   -0.7990    1.8350 H   0  0  0  0  0  0  0  0  0  0  0  0
   -1.3160   -2.9670   -0.2850 H   0  0  0  0  0  0  0  0  0  0  0  0
    0.3140    4.5610    0.7020 C   0  0  0  0  0  0  0  0  0  0  0  0
    0.4390    3.0740    0.3310 C   0  0  0  0  0  0  0  0  0  0  0  0
   -0.7000    2.3840    1.0170 C   0  0  0  0  0  0  0  0  0  0  0  0
    1.7650    2.5480    0.7300 C   0  0  0  0  0  0  0  0  0  0  0  0
    2.0790    1.1260    0.4320 C   0  0  2  0  0  0  0  0  0  0  0  0
    1.1930    0.2260    1.0800 N   0  0  0  0  0  0  0  0  0  0  0  0
    3.5040    0.8780    0.7690 C   0  0  0  0  0  0  0  0  0  0  0  0
    4.3950    1.5810    0.2650 O   0  0  0  0  0  0  0  0  0  0  0  0
    3.8330   -0.1320    1.6420 O   0  0  0  0  0  0  0  0  0  0  0  0
    0.8120    5.1720   -0.0940 H   0  0  0  0  0  0  0  0  0  0  0  0
    0.7690    4.7460    1.6890 H   0  0  0  0  0  0  0  0  0  0  0  0
   -0.7650    4.7880    0.7540 H   0  0  0  0  0  0  0  0  0  0  0  0
    0.2760    3.0480   -0.7790 H   0  0  0  0  0  0  0  0  0  0  0  0
   -1.4340    3.1540    1.3810 H   0  0  0  0  0  0  0  0  0  0  0  0
   -0.4370    1.7700    1.8800 H   0  0  0  0  0  0  0  0  0  0  0  0
   -1.2450    1.7740    0.2590 H   0  0  0  0  0  0  0  0  0  0  0  0
    1.9860    2.7470    1.8230 H   0  0  0  0  0  0  0  0  0  0  0  0
    2.5390    3.1810    0.1950 H   0  0  0  0  0  0  0  0  0  0  0  0
    1.9240    0.9980   -0.6880 H   0  0  0  0  0  0  0  0  0  0  0  0
    1.2270    0.1650    2.1350 H   0  0  0  0  0  0  0  0  0  0  0  0
  1  6  1  0  0  0  0
  1  2  1  0  0  0  0
  2  7  1  0  0  0  0
  2  3  1  0  0  0  0
  3  4  2  0  0  0  0
  5  1  1  0  0  0  0
  8  2  1  0  0  0  0
  9 10  1  0  0  0  0
  9 19  1  0  0  0  0
 10 12  1  0  0  0  0
 11 10  2  0  0  0  0
 12 13  1  0  0  0  0
 12 20  1  0  0  0  0
 13 23  1  0  0  0  0
 13 22  1  0  0  0  0
 14 24  1  1  0  0  0
 14 13  1  0  0  0  0
 15  3  1  0  0  0  0
 15 14  1  0  0  0  0
 16 31  1  0  0  0  0
 16 14  1  0  0  0  0
 17 16  2  0  0  0  0
 18  9  1  0  0  0  0
 21 12  1  0  0  0  0
 25 15  1  0  0  0  0
 26 37  1  0  0  0  0
 26 36  1  0  0  0  0
 27 26  1  0  0  0  0
 27 29  1  0  0  0  0
 27 28  1  0  0  0  0
 28 39  1  0  0  0  0
 28 40  1  0  0  0  0
 29 42  1  0  0  0  0
 30 44  1  6  0  0  0
 30 29  1  0  0  0  0
 30 32  1  0  0  0  0
 30 31  1  0  0  0  0
 31 45  1  0  0  0  0
 32 34  1  0  0  0  0
 33 32  2  0  0  0  0
 35 26  1  0  0  0  0
 38 27  1  0  0  0  0
 41 28  1  0  0  0  0
 43 29  1  0  0  0  0
M  END
$$$$
