GQM.pdb
 OpenBabel07022418233D

 43 42  0  0  1  0  0  0  0  0999 V2000
    2.5450   -2.8840   -0.0990 N   0  0  0  0  0  0  0  0  0  0  0  0
    1.6160   -3.0130   -1.1990 C   0  0  0  0  0  0  0  0  0  0  0  0
    0.8950   -1.6900   -1.3570 C   0  0  0  0  0  0  0  0  0  0  0  0
    0.0380   -1.5370   -2.2380 O   0  0  0  0  0  0  0  0  0  0  0  0
    2.3590   -3.5740    0.6610 H   0  0  0  0  0  0  0  0  0  0  0  0
    3.5170   -3.0630   -0.4380 H   0  0  0  0  0  0  0  0  0  0  0  0
    0.8860   -3.8090   -0.9380 H   0  0  0  0  0  0  0  0  0  0  0  0
    2.1580   -3.2100   -2.1240 H   0  0  0  0  0  0  0  0  0  0  0  0
    0.0940    1.8510   -5.3030 N   0  0  0  0  0  0  0  0  0  0  0  0
   -0.4310    1.7260   -4.0060 C   0  0  0  0  0  0  0  0  0  0  0  0
   -1.6130    1.9770   -3.7670 O   0  0  0  0  0  0  0  0  0  0  0  0
    0.4990    1.2740   -2.9170 C   0  0  0  0  0  0  0  0  0  0  0  0
   -0.2140    1.1920   -1.5950 C   0  0  0  0  0  0  0  0  0  0  0  0
    0.6610    0.6970   -0.4900 C   0  0  2  0  0  0  0  0  0  0  0  0
    1.1730   -0.6010   -0.5150 N   0  0  0  0  0  0  0  0  0  0  0  0
    0.1920    1.1410    0.8190 C   0  0  0  0  0  0  0  0  0  0  0  0
   -0.3060    2.2990    1.0260 O   0  0  0  0  0  0  0  0  0  0  0  0
   -0.3150    1.3600   -6.1260 H   0  0  0  0  0  0  0  0  0  0  0  0
    0.9280    2.4630   -5.4420 H   0  0  0  0  0  0  0  0  0  0  0  0
    1.1710    0.4790   -3.1920 H   0  0  0  0  0  0  0  0  0  0  0  0
    1.2230    2.1880   -2.8650 H   0  0  0  0  0  0  0  0  0  0  0  0
   -1.1900    0.6890   -1.6590 H   0  0  0  0  0  0  0  0  0  0  0  0
   -0.4670    2.2620   -1.3210 H   0  0  0  0  0  0  0  0  0  0  0  0
    1.6250    1.3520   -0.7140 H   0  0  0  0  0  0  0  0  0  0  0  0
    1.9100   -0.8090    0.2380 H   0  0  0  0  0  0  0  0  0  0  0  0
    0.3570   -3.7570    4.9130 C   0  0  0  0  0  0  0  0  0  0  0  0
    0.0540   -1.9950    4.8850 S   0  0  0  0  0  0  0  0  0  0  0  0
   -1.1810   -1.5390    3.6560 C   0  0  0  0  0  0  0  0  0  0  0  0
   -1.4490   -0.0630    3.6170 C   0  0  0  0  0  0  0  0  0  0  0  0
   -0.2130    0.7510    3.2860 C   0  0  2  0  0  0  0  0  0  0  0  0
    0.2430    0.3280    1.9970 N   0  0  0  0  0  0  0  0  0  0  0  0
    0.7770    0.7740    4.3320 C   0  0  0  0  0  0  0  0  0  0  0  0
    1.9590    0.4430    4.1190 O   0  0  0  0  0  0  0  0  0  0  0  0
    0.4400    1.1660    5.6070 O   0  0  0  0  0  0  0  0  0  0  0  0
    1.4690   -3.9120    4.9300 H   0  0  0  0  0  0  0  0  0  0  0  0
    0.0130   -4.2130    3.9500 H   0  0  0  0  0  0  0  0  0  0  0  0
   -0.0390   -4.2770    5.7930 H   0  0  0  0  0  0  0  0  0  0  0  0
   -2.1290   -2.0380    3.9280 H   0  0  0  0  0  0  0  0  0  0  0  0
   -0.8650   -1.9460    2.6770 H   0  0  0  0  0  0  0  0  0  0  0  0
   -2.1640    0.1120    2.7770 H   0  0  0  0  0  0  0  0  0  0  0  0
   -1.9680    0.2920    4.5290 H   0  0  0  0  0  0  0  0  0  0  0  0
   -0.5960    1.8090    3.1570 H   0  0  0  0  0  0  0  0  0  0  0  0
    0.6350   -0.6350    1.9240 H   0  0  0  0  0  0  0  0  0  0  0  0
  1  5  1  0  0  0  0
  2  7  1  0  0  0  0
  2  1  1  0  0  0  0
  3  2  1  0  0  0  0
  3 15  1  0  0  0  0
  4  3  2  0  0  0  0
  6  1  1  0  0  0  0
  8  2  1  0  0  0  0
  9 10  1  0  0  0  0
 10 11  2  0  0  0  0
 10 12  1  0  0  0  0
 12 21  1  0  0  0  0
 12 13  1  0  0  0  0
 13 23  1  0  0  0  0
 13 14  1  0  0  0  0
 14 24  1  6  0  0  0
 14 16  1  0  0  0  0
 15 14  1  0  0  0  0
 15 25  1  0  0  0  0
 16 17  2  0  0  0  0
 16 31  1  0  0  0  0
 18  9  1  0  0  0  0
 19  9  1  0  0  0  0
 20 12  1  0  0  0  0
 22 13  1  0  0  0  0
 26 35  1  0  0  0  0
 26 37  1  0  0  0  0
 27 26  1  0  0  0  0
 28 38  1  0  0  0  0
 28 27  1  0  0  0  0
 29 28  1  0  0  0  0
 29 41  1  0  0  0  0
 30 42  1  6  0  0  0
 30 29  1  0  0  0  0
 30 32  1  0  0  0  0
 31 30  1  0  0  0  0
 32 34  1  0  0  0  0
 33 32  2  0  0  0  0
 36 26  1  0  0  0  0
 39 28  1  0  0  0  0
 40 29  1  0  0  0  0
 43 31  1  0  0  0  0
M  END
$$$$
