GQN.pdb
 OpenBabel07022418233D

 40 39  0  0  1  0  0  0  0  0999 V2000
    0.5870   -1.8760   -3.0370 N   0  0  0  0  0  0  0  0  0  0  0  0
   -0.8700   -1.8880   -3.0690 C   0  0  0  0  0  0  0  0  0  0  0  0
   -1.4110   -1.7950   -1.6880 C   0  0  0  0  0  0  0  0  0  0  0  0
   -2.6550   -1.7940   -1.5530 O   0  0  0  0  0  0  0  0  0  0  0  0
    0.8960   -2.8000   -2.6610 H   0  0  0  0  0  0  0  0  0  0  0  0
    0.9400   -1.8110   -4.0180 H   0  0  0  0  0  0  0  0  0  0  0  0
   -1.2460   -2.8370   -3.5140 H   0  0  0  0  0  0  0  0  0  0  0  0
   -1.2810   -1.0720   -3.6980 H   0  0  0  0  0  0  0  0  0  0  0  0
    2.8810   -2.8040    2.4790 N   0  0  0  0  0  0  0  0  0  0  0  0
    1.4820   -2.4480    2.4360 C   0  0  0  0  0  0  0  0  0  0  0  0
    1.1950   -1.3870    3.0000 O   0  0  0  0  0  0  0  0  0  0  0  0
    0.5260   -3.3120    1.7670 C   0  0  0  0  0  0  0  0  0  0  0  0
   -0.8630   -2.8580    1.5910 C   0  0  0  0  0  0  0  0  0  0  0  0
   -1.1030   -1.6210    0.7850 C   0  0  2  0  0  0  0  0  0  0  0  0
   -0.5760   -1.7100   -0.5440 N   0  0  0  0  0  0  0  0  0  0  0  0
   -0.8930   -0.3480    1.4770 C   0  0  0  0  0  0  0  0  0  0  0  0
   -1.4100   -0.0980    2.6170 O   0  0  0  0  0  0  0  0  0  0  0  0
    3.0910   -3.7390    2.8810 H   0  0  0  0  0  0  0  0  0  0  0  0
    3.6270   -2.1880    2.1420 H   0  0  0  0  0  0  0  0  0  0  0  0
    0.4660   -4.2580    2.4080 H   0  0  0  0  0  0  0  0  0  0  0  0
    0.9370   -3.7320    0.8000 H   0  0  0  0  0  0  0  0  0  0  0  0
   -1.4510   -3.7310    1.1650 H   0  0  0  0  0  0  0  0  0  0  0  0
   -1.3190   -2.7580    2.6270 H   0  0  0  0  0  0  0  0  0  0  0  0
   -2.2580   -1.6410    0.6300 H   0  0  0  0  0  0  0  0  0  0  0  0
    0.4550   -1.7170   -0.7400 H   0  0  0  0  0  0  0  0  0  0  0  0
    2.8120    1.7750    3.7200 N   0  0  0  0  0  0  0  0  0  0  0  0
    2.4800    1.6150    2.3500 C   0  0  0  0  0  0  0  0  0  0  0  0
    3.0590    0.7020    1.7130 O   0  0  0  0  0  0  0  0  0  0  0  0
    1.5010    2.4730    1.6920 C   0  0  0  0  0  0  0  0  0  0  0  0
    0.1040    1.9740    1.6310 C   0  0  2  0  0  0  0  0  0  0  0  0
   -0.0960    0.7300    0.9470 N   0  0  0  0  0  0  0  0  0  0  0  0
   -0.6990    3.0820    0.9720 C   0  0  0  0  0  0  0  0  0  0  0  0
   -0.6410    4.2400    1.4420 O   0  0  0  0  0  0  0  0  0  0  0  0
   -1.4870    2.8440   -0.1270 O   0  0  0  0  0  0  0  0  0  0  0  0
    3.7940    1.7670    4.0860 H   0  0  0  0  0  0  0  0  0  0  0  0
    2.0670    1.9140    4.4610 H   0  0  0  0  0  0  0  0  0  0  0  0
    1.8500    2.7840    0.6630 H   0  0  0  0  0  0  0  0  0  0  0  0
    1.4700    3.4550    2.2530 H   0  0  0  0  0  0  0  0  0  0  0  0
   -0.3680    1.8900    2.6330 H   0  0  0  0  0  0  0  0  0  0  0  0
    0.3430    0.5630    0.0150 H   0  0  0  0  0  0  0  0  0  0  0  0
  1  5  1  0  0  0  0
  2  1  1  0  0  0  0
  2  3  1  0  0  0  0
  3  4  2  0  0  0  0
  3 15  1  0  0  0  0
  6  1  1  0  0  0  0
  7  2  1  0  0  0  0
  8  2  1  0  0  0  0
  9 18  1  0  0  0  0
 10  9  1  0  0  0  0
 10 11  2  0  0  0  0
 12 20  1  0  0  0  0
 12 10  1  0  0  0  0
 13 12  1  0  0  0  0
 13 23  1  0  0  0  0
 14 24  1  6  0  0  0
 14 16  1  0  0  0  0
 14 13  1  0  0  0  0
 15 14  1  0  0  0  0
 16 17  2  0  0  0  0
 19  9  1  0  0  0  0
 21 12  1  0  0  0  0
 22 13  1  0  0  0  0
 25 15  1  0  0  0  0
 26 35  1  0  0  0  0
 26 36  1  0  0  0  0
 27 26  1  0  0  0  0
 28 27  2  0  0  0  0
 29 38  1  0  0  0  0
 29 27  1  0  0  0  0
 30 29  1  0  0  0  0
 30 39  1  1  0  0  0
 31 16  1  0  0  0  0
 31 30  1  0  0  0  0
 32 33  1  0  0  0  0
 32 30  1  0  0  0  0
 34 32  2  0  0  0  0
 37 29  1  0  0  0  0
 40 31  1  0  0  0  0
M  END
$$$$
