GQP.pdb
 OpenBabel07022418233D

 40 40  0  0  1  0  0  0  0  0999 V2000
   -2.4590   -3.9610   -1.7270 N   0  0  0  0  0  0  0  0  0  0  0  0
   -1.1580   -3.5620   -2.1870 C   0  0  0  0  0  0  0  0  0  0  0  0
   -0.5320   -2.5870   -1.2270 C   0  0  0  0  0  0  0  0  0  0  0  0
    0.5850   -2.1860   -1.5330 O   0  0  0  0  0  0  0  0  0  0  0  0
   -2.4310   -4.5970   -0.9170 H   0  0  0  0  0  0  0  0  0  0  0  0
   -3.1140   -3.1640   -1.6280 H   0  0  0  0  0  0  0  0  0  0  0  0
   -0.5250   -4.4520   -2.2930 H   0  0  0  0  0  0  0  0  0  0  0  0
   -1.2470   -3.0960   -3.1780 H   0  0  0  0  0  0  0  0  0  0  0  0
    3.6030   -2.8720    0.7340 N   0  0  0  0  0  0  0  0  0  0  0  0
    2.4650   -2.0510    1.0220 C   0  0  0  0  0  0  0  0  0  0  0  0
    2.5190   -0.8680    0.7150 O   0  0  0  0  0  0  0  0  0  0  0  0
    1.3280   -2.6860    1.6590 C   0  0  0  0  0  0  0  0  0  0  0  0
    0.1360   -1.8810    1.9620 C   0  0  0  0  0  0  0  0  0  0  0  0
   -0.6370   -1.2240    0.8950 C   0  0  2  0  0  0  0  0  0  0  0  0
   -1.1810   -2.1680   -0.0660 N   0  0  0  0  0  0  0  0  0  0  0  0
   -0.1720    0.0210    0.3110 C   0  0  0  0  0  0  0  0  0  0  0  0
   -0.0970    0.1100   -0.9780 O   0  0  0  0  0  0  0  0  0  0  0  0
    3.8350   -3.7000    1.3390 H   0  0  0  0  0  0  0  0  0  0  0  0
    4.2430   -2.6960   -0.0670 H   0  0  0  0  0  0  0  0  0  0  0  0
    1.0490   -3.6630    1.1550 H   0  0  0  0  0  0  0  0  0  0  0  0
    1.7020   -3.0560    2.6660 H   0  0  0  0  0  0  0  0  0  0  0  0
    0.3960   -1.1750    2.7640 H   0  0  0  0  0  0  0  0  0  0  0  0
   -0.5880   -2.5940    2.4730 H   0  0  0  0  0  0  0  0  0  0  0  0
   -1.5930   -0.8820    1.4500 H   0  0  0  0  0  0  0  0  0  0  0  0
   -2.1520   -2.6090    0.0830 H   0  0  0  0  0  0  0  0  0  0  0  0
    0.2280    1.2130    0.9560 N   0  0  0  0  0  0  0  0  0  0  0  0
    0.7400    2.4080    0.2110 C   0  0  0  0  0  0  0  0  0  0  0  0
    1.9800    2.7370    0.9850 C   0  0  0  0  0  0  0  0  0  0  0  0
    1.5800    2.4670    2.4040 C   0  0  0  0  0  0  0  0  0  0  0  0
    0.2530    1.6850    2.3040 C   0  0  1  0  0  0  0  0  0  0  0  0
   -0.8680    2.6360    2.5890 C   0  0  0  0  0  0  0  0  0  0  0  0
   -1.7340    2.9460    1.7540 O   0  0  0  0  0  0  0  0  0  0  0  0
   -0.9240    3.1850    3.8530 O   0  0  0  0  0  0  0  0  0  0  0  0
    0.0180    3.2340    0.2670 H   0  0  0  0  0  0  0  0  0  0  0  0
    0.9410    2.1360   -0.8380 H   0  0  0  0  0  0  0  0  0  0  0  0
    2.2400    3.8160    0.8670 H   0  0  0  0  0  0  0  0  0  0  0  0
    2.7940    2.0770    0.6180 H   0  0  0  0  0  0  0  0  0  0  0  0
    1.3850    3.3830    2.9810 H   0  0  0  0  0  0  0  0  0  0  0  0
    2.3600    1.8370    2.8860 H   0  0  0  0  0  0  0  0  0  0  0  0
    0.2860    0.9790    3.1110 H   0  0  0  0  0  0  0  0  0  0  0  0
  1  6  1  0  0  0  0
  1  5  1  0  0  0  0
  2  1  1  0  0  0  0
  2  3  1  0  0  0  0
  3 15  1  0  0  0  0
  4  3  2  0  0  0  0
  7  2  1  0  0  0  0
  8  2  1  0  0  0  0
  9 10  1  0  0  0  0
  9 18  1  0  0  0  0
 10 12  1  0  0  0  0
 11 10  2  0  0  0  0
 12 13  1  0  0  0  0
 12 21  1  0  0  0  0
 13 23  1  0  0  0  0
 13 22  1  0  0  0  0
 14 24  1  1  0  0  0
 14 13  1  0  0  0  0
 15 25  1  0  0  0  0
 15 14  1  0  0  0  0
 16 14  1  0  0  0  0
 16 26  1  0  0  0  0
 17 16  2  0  0  0  0
 19  9  1  0  0  0  0
 20 12  1  0  0  0  0
 26 30  1  0  0  0  0
 27 34  1  0  0  0  0
 27 26  1  0  0  0  0
 27 28  1  0  0  0  0
 28 29  1  0  0  0  0
 29 39  1  0  0  0  0
 29 38  1  0  0  0  0
 30 29  1  0  0  0  0
 30 31  1  0  0  0  0
 30 40  1  1  0  0  0
 31 33  1  0  0  0  0
 32 31  2  0  0  0  0
 35 27  1  0  0  0  0
 36 28  1  0  0  0  0
 37 28  1  0  0  0  0
M  END
$$$$
