GQQ.pdb
 OpenBabel07022418233D

 43 42  0  0  1  0  0  0  0  0999 V2000
   -0.9660   -6.0270    0.7750 N   0  0  0  0  0  0  0  0  0  0  0  0
   -1.3640   -4.7170    0.3400 C   0  0  0  0  0  0  0  0  0  0  0  0
   -0.1620   -3.8710    0.1430 C   0  0  0  0  0  0  0  0  0  0  0  0
    0.9720   -4.3720    0.3660 O   0  0  0  0  0  0  0  0  0  0  0  0
    0.0810   -6.1040    0.7850 H   0  0  0  0  0  0  0  0  0  0  0  0
   -1.3750   -6.2050    1.7090 H   0  0  0  0  0  0  0  0  0  0  0  0
   -2.0860   -4.2630    1.0470 H   0  0  0  0  0  0  0  0  0  0  0  0
   -1.9290   -4.8490   -0.6220 H   0  0  0  0  0  0  0  0  0  0  0  0
    4.7820   -0.3240   -1.9420 N   0  0  0  0  0  0  0  0  0  0  0  0
    3.5920   -1.1030   -1.8420 C   0  0  0  0  0  0  0  0  0  0  0  0
    3.7310   -2.2960   -1.4960 O   0  0  0  0  0  0  0  0  0  0  0  0
    2.3170   -0.4430   -2.1540 C   0  0  0  0  0  0  0  0  0  0  0  0
    1.0990   -1.2850   -1.9110 C   0  0  0  0  0  0  0  0  0  0  0  0
    1.0110   -1.7020   -0.4730 C   0  0  2  0  0  0  0  0  0  0  0  0
   -0.2020   -2.5370   -0.2800 N   0  0  0  0  0  0  0  0  0  0  0  0
    0.9090   -0.4980    0.3800 C   0  0  0  0  0  0  0  0  0  0  0  0
    1.8280    0.3450    0.4700 O   0  0  0  0  0  0  0  0  0  0  0  0
    5.7220   -0.7580   -2.0670 H   0  0  0  0  0  0  0  0  0  0  0  0
    4.7510    0.7280   -1.8910 H   0  0  0  0  0  0  0  0  0  0  0  0
    2.3640   -0.1880   -3.2830 H   0  0  0  0  0  0  0  0  0  0  0  0
    2.2740    0.5660   -1.6960 H   0  0  0  0  0  0  0  0  0  0  0  0
    0.2220   -0.6200   -2.1640 H   0  0  0  0  0  0  0  0  0  0  0  0
    1.1090   -2.1670   -2.5940 H   0  0  0  0  0  0  0  0  0  0  0  0
    1.8360   -2.3590   -0.2310 H   0  0  0  0  0  0  0  0  0  0  0  0
   -1.1040   -2.0750   -0.4780 H   0  0  0  0  0  0  0  0  0  0  0  0
   -0.0620    4.8930    3.3420 N   0  0  0  0  0  0  0  0  0  0  0  0
   -0.4120    3.8380    2.4330 C   0  0  0  0  0  0  0  0  0  0  0  0
    0.3620    3.7050    1.4570 O   0  0  0  0  0  0  0  0  0  0  0  0
   -1.6050    2.9860    2.6550 C   0  0  0  0  0  0  0  0  0  0  0  0
   -1.5390    1.7970    1.7500 C   0  0  0  0  0  0  0  0  0  0  0  0
   -0.3700    0.9710    2.0130 C   0  0  2  0  0  0  0  0  0  0  0  0
   -0.2270   -0.1930    1.1650 N   0  0  0  0  0  0  0  0  0  0  0  0
   -0.3800    0.4560    3.4040 C   0  0  0  0  0  0  0  0  0  0  0  0
   -0.4180    1.1510    4.4420 O   0  0  0  0  0  0  0  0  0  0  0  0
   -0.3460   -0.9340    3.6240 O   0  0  0  0  0  0  0  0  0  0  0  0
    0.8640    4.8660    3.8490 H   0  0  0  0  0  0  0  0  0  0  0  0
   -0.7100    5.6750    3.5020 H   0  0  0  0  0  0  0  0  0  0  0  0
   -2.4750    3.6720    2.3220 H   0  0  0  0  0  0  0  0  0  0  0  0
   -1.7350    2.7690    3.7270 H   0  0  0  0  0  0  0  0  0  0  0  0
   -1.6050    2.2270    0.7210 H   0  0  0  0  0  0  0  0  0  0  0  0
   -2.4880    1.2080    1.9690 H   0  0  0  0  0  0  0  0  0  0  0  0
    0.5710    1.5330    1.9040 H   0  0  0  0  0  0  0  0  0  0  0  0
   -1.0300   -0.8480    1.1420 H   0  0  0  0  0  0  0  0  0  0  0  0
  1  5  1  0  0  0  0
  1  6  1  0  0  0  0
  2  1  1  0  0  0  0
  2  7  1  0  0  0  0
  3  2  1  0  0  0  0
  3  4  2  0  0  0  0
  8  2  1  0  0  0  0
  9 19  1  0  0  0  0
  9 10  1  0  0  0  0
 10 11  2  0  0  0  0
 12 13  1  0  0  0  0
 12 10  1  0  0  0  0
 12 21  1  0  0  0  0
 13 14  1  0  0  0  0
 14 15  1  0  0  0  0
 14 24  1  1  0  0  0
 14 16  1  0  0  0  0
 15  3  1  0  0  0  0
 16 17  2  0  0  0  0
 16 32  1  0  0  0  0
 18  9  1  0  0  0  0
 20 12  1  0  0  0  0
 22 13  1  0  0  0  0
 23 13  1  0  0  0  0
 25 15  1  0  0  0  0
 26 37  1  0  0  0  0
 26 36  1  0  0  0  0
 27 29  1  0  0  0  0
 27 26  1  0  0  0  0
 28 27  2  0  0  0  0
 29 39  1  0  0  0  0
 30 41  1  0  0  0  0
 30 31  1  0  0  0  0
 30 29  1  0  0  0  0
 31 42  1  6  0  0  0
 31 33  1  0  0  0  0
 32 31  1  0  0  0  0
 33 35  2  0  0  0  0
 33 34  1  0  0  0  0
 38 29  1  0  0  0  0
 40 30  1  0  0  0  0
 43 32  1  0  0  0  0
M  END
$$$$
