GQS.pdb
 OpenBabel07022418233D

 37 36  0  0  1  0  0  0  0  0999 V2000
    0.6380    0.4310    3.8380 N   0  0  0  0  0  0  0  0  0  0  0  0
    1.8860   -0.1090    3.3990 C   0  0  0  0  0  0  0  0  0  0  0  0
    1.6970   -0.8030    2.1030 C   0  0  0  0  0  0  0  0  0  0  0  0
    2.6770   -1.3650    1.5140 O   0  0  0  0  0  0  0  0  0  0  0  0
    0.7530    1.3500    4.3540 H   0  0  0  0  0  0  0  0  0  0  0  0
    0.0990   -0.2460    4.4300 H   0  0  0  0  0  0  0  0  0  0  0  0
    2.2970   -0.8770    4.1040 H   0  0  0  0  0  0  0  0  0  0  0  0
    2.6100    0.7100    3.2380 H   0  0  0  0  0  0  0  0  0  0  0  0
    1.8570   -4.9610    2.0050 N   0  0  0  0  0  0  0  0  0  0  0  0
    1.0340   -4.2240    1.0940 C   0  0  0  0  0  0  0  0  0  0  0  0
    1.4400   -4.1690   -0.0860 O   0  0  0  0  0  0  0  0  0  0  0  0
   -0.2100   -3.5710    1.4920 C   0  0  0  0  0  0  0  0  0  0  0  0
   -0.7450   -2.6300    0.4520 C   0  0  0  0  0  0  0  0  0  0  0  0
    0.2340   -1.5280    0.2300 C   0  0  2  0  0  0  0  0  0  0  0  0
    0.4090   -0.8430    1.5050 N   0  0  0  0  0  0  0  0  0  0  0  0
   -0.1950   -0.5770   -0.8330 C   0  0  0  0  0  0  0  0  0  0  0  0
   -0.3810   -1.0390   -1.9860 O   0  0  0  0  0  0  0  0  0  0  0  0
    1.4590   -5.3850    2.8780 H   0  0  0  0  0  0  0  0  0  0  0  0
    2.8760   -5.1060    1.8420 H   0  0  0  0  0  0  0  0  0  0  0  0
   -0.9840   -4.2850    1.8560 H   0  0  0  0  0  0  0  0  0  0  0  0
    0.0540   -2.9170    2.3810 H   0  0  0  0  0  0  0  0  0  0  0  0
   -1.7220   -2.2450    0.8590 H   0  0  0  0  0  0  0  0  0  0  0  0
   -0.9360   -3.2290   -0.4780 H   0  0  0  0  0  0  0  0  0  0  0  0
    1.1940   -1.9430   -0.1060 H   0  0  0  0  0  0  0  0  0  0  0  0
   -0.4340   -0.4080    1.9260 H   0  0  0  0  0  0  0  0  0  0  0  0
   -1.9530    3.1590   -0.1210 O   0  0  0  0  0  0  0  0  0  0  0  0
   -2.1140    2.4310   -1.2980 C   0  0  0  0  0  0  0  0  0  0  0  0
   -0.8220    1.7230   -1.6730 C   0  0  2  0  0  0  0  0  0  0  0  0
   -0.4050    0.8040   -0.6380 N   0  0  0  0  0  0  0  0  0  0  0  0
    0.2150    2.7680   -1.8060 C   0  0  0  0  0  0  0  0  0  0  0  0
    0.1460    3.7200   -2.6300 O   0  0  0  0  0  0  0  0  0  0  0  0
    1.3330    2.7200   -0.9940 O   0  0  0  0  0  0  0  0  0  0  0  0
   -2.0200    4.1300   -0.2610 H   0  0  0  0  0  0  0  0  0  0  0  0
   -2.4140    3.1580   -2.0770 H   0  0  0  0  0  0  0  0  0  0  0  0
   -2.9380    1.7070   -1.1180 H   0  0  0  0  0  0  0  0  0  0  0  0
   -0.9590    1.2160   -2.6530 H   0  0  0  0  0  0  0  0  0  0  0  0
   -0.2520    1.1960    0.3150 H   0  0  0  0  0  0  0  0  0  0  0  0
  1  5  1  0  0  0  0
  1  6  1  0  0  0  0
  2  1  1  0  0  0  0
  2  7  1  0  0  0  0
  3  2  1  0  0  0  0
  4  3  2  0  0  0  0
  8  2  1  0  0  0  0
  9 18  1  0  0  0  0
 10 12  1  0  0  0  0
 10  9  1  0  0  0  0
 11 10  2  0  0  0  0
 12 20  1  0  0  0  0
 12 21  1  0  0  0  0
 13 22  1  0  0  0  0
 13 12  1  0  0  0  0
 14 24  1  6  0  0  0
 14 13  1  0  0  0  0
 14 15  1  0  0  0  0
 15 25  1  0  0  0  0
 15  3  1  0  0  0  0
 16 29  1  0  0  0  0
 16 14  1  0  0  0  0
 17 16  2  0  0  0  0
 19  9  1  0  0  0  0
 23 13  1  0  0  0  0
 27 35  1  0  0  0  0
 27 26  1  0  0  0  0
 28 36  1  6  0  0  0
 28 27  1  0  0  0  0
 28 29  1  0  0  0  0
 29 37  1  0  0  0  0
 30 28  1  0  0  0  0
 30 32  1  0  0  0  0
 31 30  2  0  0  0  0
 33 26  1  0  0  0  0
 34 27  1  0  0  0  0
M  END
$$$$
