GQT.pdb
 OpenBabel07022418233D

 40 39  0  0  1  0  0  0  0  0999 V2000
   -2.0480   -2.7990   -2.7090 N   0  0  0  0  0  0  0  0  0  0  0  0
   -0.6490   -3.0240   -2.9090 C   0  0  0  0  0  0  0  0  0  0  0  0
    0.1630   -2.4430   -1.7720 C   0  0  0  0  0  0  0  0  0  0  0  0
    1.3960   -2.5280   -1.7500 O   0  0  0  0  0  0  0  0  0  0  0  0
   -2.3720   -3.3180   -1.8600 H   0  0  0  0  0  0  0  0  0  0  0  0
   -2.3300   -1.8070   -2.7250 H   0  0  0  0  0  0  0  0  0  0  0  0
   -0.4510   -4.1000   -2.9020 H   0  0  0  0  0  0  0  0  0  0  0  0
   -0.3450   -2.5870   -3.8680 H   0  0  0  0  0  0  0  0  0  0  0  0
    3.0660   -4.8900    1.7830 N   0  0  0  0  0  0  0  0  0  0  0  0
    2.8670   -3.5390    1.4600 C   0  0  0  0  0  0  0  0  0  0  0  0
    3.8280   -2.7470    1.4540 O   0  0  0  0  0  0  0  0  0  0  0  0
    1.5060   -3.0640    1.1270 C   0  0  0  0  0  0  0  0  0  0  0  0
    1.4780   -1.5910    0.8070 C   0  0  0  0  0  0  0  0  0  0  0  0
    0.0680   -1.2020    0.4440 C   0  0  2  0  0  0  0  0  0  0  0  0
   -0.4910   -1.7870   -0.7070 N   0  0  0  0  0  0  0  0  0  0  0  0
   -0.1200    0.2450    0.4640 C   0  0  0  0  0  0  0  0  0  0  0  0
   -0.7130    0.8700   -0.4930 O   0  0  0  0  0  0  0  0  0  0  0  0
    2.6220   -5.6360    1.2270 H   0  0  0  0  0  0  0  0  0  0  0  0
    3.6650   -5.1410    2.5850 H   0  0  0  0  0  0  0  0  0  0  0  0
    0.8520   -3.1250    2.0820 H   0  0  0  0  0  0  0  0  0  0  0  0
    1.0210   -3.7460    0.4590 H   0  0  0  0  0  0  0  0  0  0  0  0
    2.2200   -1.2960    0.0540 H   0  0  0  0  0  0  0  0  0  0  0  0
    1.7640   -1.0770    1.7460 H   0  0  0  0  0  0  0  0  0  0  0  0
   -0.5740   -1.6260    1.3190 H   0  0  0  0  0  0  0  0  0  0  0  0
   -1.5520   -1.7320   -0.7950 H   0  0  0  0  0  0  0  0  0  0  0  0
   -1.9760    2.4000    2.8790 C   0  0  0  0  0  0  0  0  0  0  0  0
   -0.5860    2.9480    2.8210 C   0  0  1  0  0  0  0  0  0  0  0  0
    0.1590    2.5600    3.9500 O   0  0  0  0  0  0  0  0  0  0  0  0
    0.1570    2.5070    1.5740 C   0  0  2  0  0  0  0  0  0  0  0  0
    0.3380    1.0710    1.5450 N   0  0  0  0  0  0  0  0  0  0  0  0
    1.5010    3.1560    1.5990 C   0  0  0  0  0  0  0  0  0  0  0  0
    2.5530    2.4670    1.5920 O   0  0  0  0  0  0  0  0  0  0  0  0
    1.6220    4.5340    1.6290 O   0  0  0  0  0  0  0  0  0  0  0  0
   -2.6770    3.0460    3.4470 H   0  0  0  0  0  0  0  0  0  0  0  0
   -2.0220    1.3820    3.3660 H   0  0  0  0  0  0  0  0  0  0  0  0
   -2.4260    2.2470    1.8730 H   0  0  0  0  0  0  0  0  0  0  0  0
   -0.6420    4.0540    2.8680 H   0  0  0  0  0  0  0  0  0  0  0  0
   -0.3090    1.7760    4.3300 H   0  0  0  0  0  0  0  0  0  0  0  0
   -0.3620    2.8800    0.6890 H   0  0  0  0  0  0  0  0  0  0  0  0
    0.8190    0.6020    2.3360 H   0  0  0  0  0  0  0  0  0  0  0  0
  1  5  1  0  0  0  0
  2  7  1  0  0  0  0
  2  1  1  0  0  0  0
  2  3  1  0  0  0  0
  3  4  2  0  0  0  0
  3 15  1  0  0  0  0
  6  1  1  0  0  0  0
  8  2  1  0  0  0  0
  9 19  1  0  0  0  0
 10  9  1  0  0  0  0
 11 10  2  0  0  0  0
 12 10  1  0  0  0  0
 12 20  1  0  0  0  0
 13 12  1  0  0  0  0
 13 23  1  0  0  0  0
 14 16  1  0  0  0  0
 14 13  1  0  0  0  0
 14 24  1  1  0  0  0
 15 14  1  0  0  0  0
 16 30  1  0  0  0  0
 17 16  2  0  0  0  0
 18  9  1  0  0  0  0
 21 12  1  0  0  0  0
 22 13  1  0  0  0  0
 25 15  1  0  0  0  0
 26 35  1  0  0  0  0
 26 34  1  0  0  0  0
 27 37  1  6  0  0  0
 27 26  1  0  0  0  0
 27 28  1  0  0  0  0
 28 38  1  0  0  0  0
 29 39  1  6  0  0  0
 29 31  1  0  0  0  0
 29 27  1  0  0  0  0
 30 29  1  0  0  0  0
 30 40  1  0  0  0  0
 31 33  1  0  0  0  0
 32 31  2  0  0  0  0
 36 26  1  0  0  0  0
M  END
$$$$
