GQY.pdb
 OpenBabel07022418233D

 47 47  0  0  1  0  0  0  0  0999 V2000
    2.0520   -6.8150    1.4210 N   0  0  0  0  0  0  0  0  0  0  0  0
    1.5780   -5.8680    0.4620 C   0  0  0  0  0  0  0  0  0  0  0  0
    1.9630   -4.4790    0.7650 C   0  0  0  0  0  0  0  0  0  0  0  0
    2.6400   -4.2330    1.7830 O   0  0  0  0  0  0  0  0  0  0  0  0
    1.4850   -7.6730    1.4930 H   0  0  0  0  0  0  0  0  0  0  0  0
    3.0680   -6.9450    1.4540 H   0  0  0  0  0  0  0  0  0  0  0  0
    0.4550   -5.9620    0.4370 H   0  0  0  0  0  0  0  0  0  0  0  0
    1.9040   -6.1120   -0.5720 H   0  0  0  0  0  0  0  0  0  0  0  0
    0.6190   -1.3110   -4.1070 N   0  0  0  0  0  0  0  0  0  0  0  0
    1.1420   -0.9850   -2.8020 C   0  0  0  0  0  0  0  0  0  0  0  0
    0.5200   -0.1430   -2.1530 O   0  0  0  0  0  0  0  0  0  0  0  0
    2.3380   -1.6540   -2.3600 C   0  0  0  0  0  0  0  0  0  0  0  0
    2.8060   -1.5250   -0.9660 C   0  0  0  0  0  0  0  0  0  0  0  0
    1.8910   -2.0260    0.1130 C   0  0  2  0  0  0  0  0  0  0  0  0
    1.5640   -3.4330   -0.0960 N   0  0  0  0  0  0  0  0  0  0  0  0
    0.7120   -1.2090    0.4060 C   0  0  0  0  0  0  0  0  0  0  0  0
   -0.4530   -1.7280    0.2960 O   0  0  0  0  0  0  0  0  0  0  0  0
    0.7540   -0.6080   -4.8620 H   0  0  0  0  0  0  0  0  0  0  0  0
    0.1270   -2.2060   -4.2950 H   0  0  0  0  0  0  0  0  0  0  0  0
    3.1810   -1.3880   -3.0920 H   0  0  0  0  0  0  0  0  0  0  0  0
    2.2070   -2.7580   -2.5750 H   0  0  0  0  0  0  0  0  0  0  0  0
    3.1790   -0.4830   -0.7270 H   0  0  0  0  0  0  0  0  0  0  0  0
    3.7580   -2.1400   -0.8840 H   0  0  0  0  0  0  0  0  0  0  0  0
    2.5070   -2.0700    1.0970 H   0  0  0  0  0  0  0  0  0  0  0  0
    0.9860   -3.6340   -0.9660 H   0  0  0  0  0  0  0  0  0  0  0  0
   -5.1380    4.1590    4.0540 O   0  0  0  0  0  0  0  0  0  0  0  0
   -4.0220    3.4050    3.6980 C   0  0  0  0  0  0  0  0  0  0  0  0
   -2.8670    4.0880    3.3480 C   0  0  0  0  0  0  0  0  0  0  0  0
   -1.7170    3.3890    2.9830 C   0  0  0  0  0  0  0  0  0  0  0  0
   -1.6990    2.0120    2.9600 C   0  0  0  0  0  0  0  0  0  0  0  0
   -0.5000    1.2550    2.5720 C   0  0  0  0  0  0  0  0  0  0  0  0
   -0.4530    0.8830    1.0950 C   0  0  2  0  0  0  0  0  0  0  0  0
    0.7680    0.1430    0.8170 N   0  0  0  0  0  0  0  0  0  0  0  0
   -0.4980    2.1260    0.2980 C   0  0  0  0  0  0  0  0  0  0  0  0
    0.5040    2.4220   -0.4330 O   0  0  0  0  0  0  0  0  0  0  0  0
   -2.8770    1.3580    3.3180 C   0  0  0  0  0  0  0  0  0  0  0  0
   -4.0180    2.0320    3.6800 C   0  0  0  0  0  0  0  0  0  0  0  0
   -1.5700    2.9960    0.2920 O   0  0  0  0  0  0  0  0  0  0  0  0
   -5.1990    4.4510    5.0340 H   0  0  0  0  0  0  0  0  0  0  0  0
   -2.8810    5.1760    3.3660 H   0  0  0  0  0  0  0  0  0  0  0  0
   -0.8290    3.9860    2.7200 H   0  0  0  0  0  0  0  0  0  0  0  0
   -0.3540    0.3410    3.2010 H   0  0  0  0  0  0  0  0  0  0  0  0
    0.3920    1.9010    2.7460 H   0  0  0  0  0  0  0  0  0  0  0  0
   -1.3340    0.2080    0.8750 H   0  0  0  0  0  0  0  0  0  0  0  0
    1.6690    0.6330    0.9300 H   0  0  0  0  0  0  0  0  0  0  0  0
   -2.8480    0.2810    3.2950 H   0  0  0  0  0  0  0  0  0  0  0  0
   -4.9380    1.5240    3.9590 H   0  0  0  0  0  0  0  0  0  0  0  0
  1  6  1  0  0  0  0
  1  5  1  0  0  0  0
  2  3  1  0  0  0  0
  2  1  1  0  0  0  0
  3  4  2  0  0  0  0
  7  2  1  0  0  0  0
  8  2  1  0  0  0  0
  9 10  1  0  0  0  0
 10 12  1  0  0  0  0
 10 11  2  0  0  0  0
 12 13  1  0  0  0  0
 13 23  1  0  0  0  0
 13 22  1  0  0  0  0
 13 14  1  0  0  0  0
 14 16  1  0  0  0  0
 14 24  1  1  0  0  0
 15 14  1  0  0  0  0
 15  3  1  0  0  0  0
 16 33  1  0  0  0  0
 17 16  2  0  0  0  0
 18  9  1  0  0  0  0
 19  9  1  0  0  0  0
 20 12  1  0  0  0  0
 21 12  1  0  0  0  0
 25 15  1  0  0  0  0
 26 39  1  0  0  0  0
 27 26  1  0  0  0  0
 28 40  1  0  0  0  0
 28 27  2  0  0  0  0
 29 28  1  0  0  0  0
 30 29  2  0  0  0  0
 30 36  1  0  0  0  0
 31 43  1  0  0  0  0
 31 30  1  0  0  0  0
 31 42  1  0  0  0  0
 32 44  1  6  0  0  0
 32 31  1  0  0  0  0
 33 45  1  0  0  0  0
 33 32  1  0  0  0  0
 34 32  1  0  0  0  0
 35 34  2  0  0  0  0
 36 37  2  0  0  0  0
 37 27  1  0  0  0  0
 37 47  1  0  0  0  0
 38 34  1  0  0  0  0
 41 29  1  0  0  0  0
 46 36  1  0  0  0  0
M  END
$$$$
