GRA.pdb
 OpenBabel07022418213D

 42 41  0  0  1  0  0  0  0  0999 V2000
   -2.9110   -1.1720   -0.5400 N   0  0  0  0  0  0  0  0  0  0  0  0
   -2.2450   -2.2490    0.1290 C   0  0  0  0  0  0  0  0  0  0  0  0
   -0.8780   -1.8810    0.5840 C   0  0  0  0  0  0  0  0  0  0  0  0
   -0.1990   -2.7470    1.1860 O   0  0  0  0  0  0  0  0  0  0  0  0
   -3.3040   -0.5100    0.1430 H   0  0  0  0  0  0  0  0  0  0  0  0
   -2.3990   -0.7520   -1.3230 H   0  0  0  0  0  0  0  0  0  0  0  0
   -2.8250   -2.4610    1.0710 H   0  0  0  0  0  0  0  0  0  0  0  0
   -2.2610   -3.1970   -0.4410 H   0  0  0  0  0  0  0  0  0  0  0  0
    2.9990   -4.4670   -0.9390 N   0  0  0  0  0  0  0  0  0  0  0  0
    3.3260   -3.2010   -1.4860 C   0  0  0  0  0  0  0  0  0  0  0  0
    4.4130   -3.0990   -2.1460 N   0  0  0  0  0  0  0  0  0  0  0  0
    2.4400   -2.0810   -1.2900 N   0  0  0  0  0  0  0  0  0  0  0  0
    2.8720   -0.8020   -1.7620 C   0  0  0  0  0  0  0  0  0  0  0  0
    1.9880    0.3560   -1.5110 C   0  0  0  0  0  0  0  0  0  0  0  0
    1.6980    0.7610   -0.1280 C   0  0  0  0  0  0  0  0  0  0  0  0
    1.0030   -0.1800    0.7790 C   0  0  2  0  0  0  0  0  0  0  0  0
   -0.3030   -0.6040    0.3740 N   0  0  0  0  0  0  0  0  0  0  0  0
    0.7810    0.5720    2.1020 C   0  0  0  0  0  0  0  0  0  0  0  0
    1.7390    1.0790    2.7120 O   0  0  0  0  0  0  0  0  0  0  0  0
    2.6700   -4.6040    0.0240 H   0  0  0  0  0  0  0  0  0  0  0  0
    3.1020   -5.3100   -1.5610 H   0  0  0  0  0  0  0  0  0  0  0  0
    4.6660   -2.1750   -2.5540 H   0  0  0  0  0  0  0  0  0  0  0  0
    1.5560   -2.2980   -0.8330 H   0  0  0  0  0  0  0  0  0  0  0  0
    2.9380   -0.9130   -2.8910 H   0  0  0  0  0  0  0  0  0  0  0  0
    3.9490   -0.5980   -1.4860 H   0  0  0  0  0  0  0  0  0  0  0  0
    1.0080    0.1470   -2.0240 H   0  0  0  0  0  0  0  0  0  0  0  0
    2.4050    1.2790   -2.0340 H   0  0  0  0  0  0  0  0  0  0  0  0
    1.1420    1.7600   -0.1880 H   0  0  0  0  0  0  0  0  0  0  0  0
    2.6740    1.0950    0.3590 H   0  0  0  0  0  0  0  0  0  0  0  0
    1.6870   -0.9820    1.0940 H   0  0  0  0  0  0  0  0  0  0  0  0
   -0.9420    0.0740   -0.1420 H   0  0  0  0  0  0  0  0  0  0  0  0
   -1.6860    2.5790    3.5940 C   0  0  0  0  0  0  0  0  0  0  0  0
   -0.7990    1.3900    3.8820 C   0  0  2  0  0  0  0  0  0  0  0  0
   -0.5210    0.6960    2.6430 N   0  0  0  0  0  0  0  0  0  0  0  0
   -1.3440    0.5180    4.9200 C   0  0  0  0  0  0  0  0  0  0  0  0
   -1.5220   -0.6940    4.6980 O   0  0  0  0  0  0  0  0  0  0  0  0
   -1.6670    1.0360    6.1560 O   0  0  0  0  0  0  0  0  0  0  0  0
   -2.3450    2.7170    4.4740 H   0  0  0  0  0  0  0  0  0  0  0  0
   -1.0570    3.4700    3.4200 H   0  0  0  0  0  0  0  0  0  0  0  0
   -2.3280    2.3730    2.6890 H   0  0  0  0  0  0  0  0  0  0  0  0
    0.1820    1.7830    4.2780 H   0  0  0  0  0  0  0  0  0  0  0  0
   -1.3220    0.2650    2.1230 H   0  0  0  0  0  0  0  0  0  0  0  0
  1  2  1  0  0  0  0
  1  5  1  0  0  0  0
  2  3  1  0  0  0  0
  2  7  1  0  0  0  0
  3  4  2  0  0  0  0
  6  1  1  0  0  0  0
  8  2  1  0  0  0  0
  9 20  1  0  0  0  0
 10 12  1  0  0  0  0
 10  9  1  0  0  0  0
 11 10  2  0  0  0  0
 12 23  1  0  0  0  0
 13 14  1  0  0  0  0
 13 25  1  0  0  0  0
 13 12  1  0  0  0  0
 14 15  1  0  0  0  0
 15 29  1  0  0  0  0
 15 16  1  0  0  0  0
 16 30  1  1  0  0  0
 16 18  1  0  0  0  0
 17  3  1  0  0  0  0
 17 16  1  0  0  0  0
 18 34  1  0  0  0  0
 18 19  2  0  0  0  0
 21  9  1  0  0  0  0
 22 11  1  0  0  0  0
 24 13  1  0  0  0  0
 26 14  1  0  0  0  0
 27 14  1  0  0  0  0
 28 15  1  0  0  0  0
 31 17  1  0  0  0  0
 32 33  1  0  0  0  0
 32 38  1  0  0  0  0
 33 41  1  1  0  0  0
 33 35  1  0  0  0  0
 34 33  1  0  0  0  0
 35 37  1  0  0  0  0
 36 35  2  0  0  0  0
 39 32  1  0  0  0  0
 40 32  1  0  0  0  0
 42 34  1  0  0  0  0
M  END
$$$$
