GRD.pdb
 OpenBabel07022418213D

 45 44  0  0  1  0  0  0  0  0999 V2000
    1.6060   -4.2150   -0.7090 N   0  0  0  0  0  0  0  0  0  0  0  0
    2.4630   -3.0900   -0.4360 C   0  0  0  0  0  0  0  0  0  0  0  0
    1.6130   -2.0420    0.2440 C   0  0  0  0  0  0  0  0  0  0  0  0
    0.4140   -2.2530    0.4770 O   0  0  0  0  0  0  0  0  0  0  0  0
    0.7140   -4.2070   -0.2080 H   0  0  0  0  0  0  0  0  0  0  0  0
    2.0800   -5.1150   -0.8240 H   0  0  0  0  0  0  0  0  0  0  0  0
    2.9650   -2.7030   -1.3270 H   0  0  0  0  0  0  0  0  0  0  0  0
    3.2620   -3.4570    0.2680 H   0  0  0  0  0  0  0  0  0  0  0  0
   -1.0490   -1.0150   -2.0370 N   0  0  0  0  0  0  0  0  0  0  0  0
    0.0460   -0.1200   -1.9550 C   0  0  0  0  0  0  0  0  0  0  0  0
    1.1330   -0.3210   -2.5730 N   0  0  0  0  0  0  0  0  0  0  0  0
   -0.0920    1.0410   -1.1410 N   0  0  0  0  0  0  0  0  0  0  0  0
    0.8110    2.1350   -1.2010 C   0  0  0  0  0  0  0  0  0  0  0  0
    2.2010    1.9230   -0.7170 C   0  0  0  0  0  0  0  0  0  0  0  0
    2.4170    1.5860    0.6970 C   0  0  0  0  0  0  0  0  0  0  0  0
    1.7960    0.3350    1.2380 C   0  0  2  0  0  0  0  0  0  0  0  0
    2.2040   -0.8420    0.5990 N   0  0  0  0  0  0  0  0  0  0  0  0
    0.5220    0.5640    1.8800 C   0  0  0  0  0  0  0  0  0  0  0  0
    0.1460    1.8050    1.9020 O   0  0  0  0  0  0  0  0  0  0  0  0
   -2.0450   -0.6730   -2.1630 H   0  0  0  0  0  0  0  0  0  0  0  0
   -0.9770   -2.0560   -1.9850 H   0  0  0  0  0  0  0  0  0  0  0  0
    1.2440   -1.1630   -3.1630 H   0  0  0  0  0  0  0  0  0  0  0  0
   -0.9100    1.0560   -0.5000 H   0  0  0  0  0  0  0  0  0  0  0  0
    0.8210    2.4880   -2.2650 H   0  0  0  0  0  0  0  0  0  0  0  0
    0.4040    3.0150   -0.6410 H   0  0  0  0  0  0  0  0  0  0  0  0
    2.7220    2.9320   -0.8770 H   0  0  0  0  0  0  0  0  0  0  0  0
    2.7910    1.2700   -1.4240 H   0  0  0  0  0  0  0  0  0  0  0  0
    2.0790    2.4300    1.3420 H   0  0  0  0  0  0  0  0  0  0  0  0
    3.5310    1.5150    0.8730 H   0  0  0  0  0  0  0  0  0  0  0  0
    2.4470    0.2090    2.2730 H   0  0  0  0  0  0  0  0  0  0  0  0
    3.2760   -0.7910    0.3080 H   0  0  0  0  0  0  0  0  0  0  0  0
   -0.3440   -0.3360    2.4760 N   0  0  0  0  0  0  0  0  0  0  0  0
   -1.6080    0.0940    3.0650 C   0  0  1  0  0  0  0  0  0  0  0  0
   -2.8190   -0.3480    2.3050 C   0  0  0  0  0  0  0  0  0  0  0  0
   -2.9800   -1.8000    2.1530 C   0  0  0  0  0  0  0  0  0  0  0  0
   -2.5750   -2.3670    1.1210 O   0  0  0  0  0  0  0  0  0  0  0  0
   -1.7320   -0.2270    4.4880 C   0  0  0  0  0  0  0  0  0  0  0  0
   -2.7620    0.0610    5.1310 O   0  0  0  0  0  0  0  0  0  0  0  0
   -3.5770   -2.5430    3.1420 O   0  0  0  0  0  0  0  0  0  0  0  0
   -0.6950   -0.8600    5.1400 O   0  0  0  0  0  0  0  0  0  0  0  0
   -0.1400   -1.3430    2.5920 H   0  0  0  0  0  0  0  0  0  0  0  0
   -1.6320    1.2280    3.0080 H   0  0  0  0  0  0  0  0  0  0  0  0
   -3.7010   -0.0080    2.9160 H   0  0  0  0  0  0  0  0  0  0  0  0
   -2.9280    0.1910    1.3340 H   0  0  0  0  0  0  0  0  0  0  0  0
   -3.4230   -3.5630    3.1180 H   0  0  0  0  0  0  0  0  0  0  0  0
  1  2  1  0  0  0  0
  1  5  1  0  0  0  0
  2  3  1  0  0  0  0
  2  8  1  0  0  0  0
  3  4  2  0  0  0  0
  3 17  1  0  0  0  0
  6  1  1  0  0  0  0
  7  2  1  0  0  0  0
  9 21  1  0  0  0  0
  9 10  1  0  0  0  0
 10 12  1  0  0  0  0
 11 10  2  0  0  0  0
 12 23  1  0  0  0  0
 13 12  1  0  0  0  0
 13 14  1  0  0  0  0
 13 25  1  0  0  0  0
 14 15  1  0  0  0  0
 15 29  1  0  0  0  0
 15 16  1  0  0  0  0
 15 28  1  0  0  0  0
 16 18  1  0  0  0  0
 16 30  1  1  0  0  0
 17 16  1  0  0  0  0
 18 19  2  0  0  0  0
 18 32  1  0  0  0  0
 20  9  1  0  0  0  0
 22 11  1  0  0  0  0
 24 13  1  0  0  0  0
 26 14  1  0  0  0  0
 27 14  1  0  0  0  0
 31 17  1  0  0  0  0
 32 41  1  0  0  0  0
 32 33  1  0  0  0  0
 33 42  1  6  0  0  0
 33 37  1  0  0  0  0
 34 43  1  0  0  0  0
 34 33  1  0  0  0  0
 35 34  1  0  0  0  0
 35 39  1  0  0  0  0
 36 35  2  0  0  0  0
 37 38  2  0  0  0  0
 37 40  1  0  0  0  0
 44 34  1  0  0  0  0
 45 39  1  0  0  0  0
M  END
$$$$
