GRF.pdb
 OpenBabel07022418213D

 52 52  0  0  1  0  0  0  0  0999 V2000
    1.2610   -4.3920    2.1130 N   0  0  0  0  0  0  0  0  0  0  0  0
    1.9670   -3.7260    1.0570 C   0  0  0  0  0  0  0  0  0  0  0  0
    1.5650   -2.2790    1.0350 C   0  0  0  0  0  0  0  0  0  0  0  0
    2.1010   -1.5860    0.1700 O   0  0  0  0  0  0  0  0  0  0  0  0
    1.5220   -3.9830    3.0130 H   0  0  0  0  0  0  0  0  0  0  0  0
    0.2400   -4.3640    1.9380 H   0  0  0  0  0  0  0  0  0  0  0  0
    3.0580   -3.7430    1.1930 H   0  0  0  0  0  0  0  0  0  0  0  0
    1.7220   -4.2070    0.0710 H   0  0  0  0  0  0  0  0  0  0  0  0
    4.5330   -0.0500   -1.5840 N   0  0  0  0  0  0  0  0  0  0  0  0
    4.5700    0.3970   -0.2260 C   0  0  0  0  0  0  0  0  0  0  0  0
    5.3350   -0.2130    0.5970 N   0  0  0  0  0  0  0  0  0  0  0  0
    3.7520    1.5010    0.1470 N   0  0  0  0  0  0  0  0  0  0  0  0
    3.4010    1.6900    1.5150 C   0  0  0  0  0  0  0  0  0  0  0  0
    2.4610    0.6830    2.1040 C   0  0  0  0  0  0  0  0  0  0  0  0
    1.1280    0.6540    1.3920 C   0  0  0  0  0  0  0  0  0  0  0  0
    0.1980   -0.3650    2.0190 C   0  0  2  0  0  0  0  0  0  0  0  0
    0.6330   -1.7300    1.9400 N   0  0  0  0  0  0  0  0  0  0  0  0
   -1.2210   -0.1220    1.8560 C   0  0  0  0  0  0  0  0  0  0  0  0
   -1.7040    1.0460    1.9050 O   0  0  0  0  0  0  0  0  0  0  0  0
    5.1010    0.4120   -2.3030 H   0  0  0  0  0  0  0  0  0  0  0  0
    3.9300   -0.8490   -1.8670 H   0  0  0  0  0  0  0  0  0  0  0  0
    5.4620   -0.0050    1.5910 H   0  0  0  0  0  0  0  0  0  0  0  0
    3.4230    2.1560   -0.5980 H   0  0  0  0  0  0  0  0  0  0  0  0
    4.3750    1.6610    2.0910 H   0  0  0  0  0  0  0  0  0  0  0  0
    3.0360    2.7430    1.6980 H   0  0  0  0  0  0  0  0  0  0  0  0
    2.2130    1.1170    3.1430 H   0  0  0  0  0  0  0  0  0  0  0  0
    2.9580   -0.2680    2.2220 H   0  0  0  0  0  0  0  0  0  0  0  0
    0.7130    1.6970    1.5430 H   0  0  0  0  0  0  0  0  0  0  0  0
    1.2530    0.5650    0.3160 H   0  0  0  0  0  0  0  0  0  0  0  0
    0.4210   -0.1190    3.1480 H   0  0  0  0  0  0  0  0  0  0  0  0
    0.2400   -2.4640    2.6230 H   0  0  0  0  0  0  0  0  0  0  0  0
   -2.1890   -1.1660    1.6290 N   0  0  0  0  0  0  0  0  0  0  0  0
   -3.5820   -0.8600    1.4740 C   0  0  1  0  0  0  0  0  0  0  0  0
   -4.1740   -1.3280    0.1750 C   0  0  0  0  0  0  0  0  0  0  0  0
   -3.5140   -0.7330   -1.0200 C   0  0  0  0  0  0  0  0  0  0  0  0
   -4.0020    0.4470   -1.5260 C   0  0  0  0  0  0  0  0  0  0  0  0
   -3.4060    1.0110   -2.6310 C   0  0  0  0  0  0  0  0  0  0  0  0
   -2.3210    0.4430   -3.2730 C   0  0  0  0  0  0  0  0  0  0  0  0
   -1.8600   -0.7440   -2.7350 C   0  0  0  0  0  0  0  0  0  0  0  0
   -2.4380   -1.3240   -1.6340 C   0  0  0  0  0  0  0  0  0  0  0  0
   -4.3710   -1.4960    2.5610 C   0  0  0  0  0  0  0  0  0  0  0  0
   -5.6010   -1.3330    2.5770 O   0  0  0  0  0  0  0  0  0  0  0  0
   -3.7800   -2.2620    3.5510 O   0  0  0  0  0  0  0  0  0  0  0  0
   -1.8190   -2.1230    1.5870 H   0  0  0  0  0  0  0  0  0  0  0  0
   -3.7480    0.2460    1.5480 H   0  0  0  0  0  0  0  0  0  0  0  0
   -4.1510   -2.4330    0.0830 H   0  0  0  0  0  0  0  0  0  0  0  0
   -5.2380   -1.0150    0.1650 H   0  0  0  0  0  0  0  0  0  0  0  0
   -4.8680    0.9320   -1.0390 H   0  0  0  0  0  0  0  0  0  0  0  0
   -3.8060    1.9570   -3.0250 H   0  0  0  0  0  0  0  0  0  0  0  0
   -1.8560    0.8940   -4.1450 H   0  0  0  0  0  0  0  0  0  0  0  0
   -1.0020   -1.1850   -3.2500 H   0  0  0  0  0  0  0  0  0  0  0  0
   -2.0440   -2.2550   -1.2460 H   0  0  0  0  0  0  0  0  0  0  0  0
  1  5  1  0  0  0  0
  2  7  1  0  0  0  0
  2  1  1  0  0  0  0
  3  2  1  0  0  0  0
  3 17  1  0  0  0  0
  4  3  2  0  0  0  0
  6  1  1  0  0  0  0
  8  2  1  0  0  0  0
  9 10  1  0  0  0  0
 10 12  1  0  0  0  0
 10 11  2  0  0  0  0
 11 22  1  0  0  0  0
 12 13  1  0  0  0  0
 13 25  1  0  0  0  0
 13 24  1  0  0  0  0
 13 14  1  0  0  0  0
 14 27  1  0  0  0  0
 14 26  1  0  0  0  0
 15 28  1  0  0  0  0
 15 16  1  0  0  0  0
 15 14  1  0  0  0  0
 16 30  1  1  0  0  0
 17 16  1  0  0  0  0
 17 31  1  0  0  0  0
 18 19  2  0  0  0  0
 18 16  1  0  0  0  0
 20  9  1  0  0  0  0
 21  9  1  0  0  0  0
 23 12  1  0  0  0  0
 29 15  1  0  0  0  0
 32 18  1  0  0  0  0
 33 45  1  1  0  0  0
 33 32  1  0  0  0  0
 33 41  1  0  0  0  0
 34 33  1  0  0  0  0
 35 34  1  0  0  0  0
 36 48  1  0  0  0  0
 36 35  1  0  0  0  0
 37 36  2  0  0  0  0
 38 39  2  0  0  0  0
 38 37  1  0  0  0  0
 39 40  1  0  0  0  0
 40 52  1  0  0  0  0
 40 35  2  0  0  0  0
 41 42  2  0  0  0  0
 41 43  1  0  0  0  0
 44 32  1  0  0  0  0
 46 34  1  0  0  0  0
 47 34  1  0  0  0  0
 49 37  1  0  0  0  0
 50 38  1  0  0  0  0
 51 39  1  0  0  0  0
M  END
$$$$
