GRG.pdb
 OpenBabel07022418213D

 39 38  0  0  1  0  0  0  0  0999 V2000
    3.1550   -1.5950   -3.3710 N   0  0  0  0  0  0  0  0  0  0  0  0
    2.0940   -1.5910   -2.3680 C   0  0  0  0  0  0  0  0  0  0  0  0
    2.1610   -0.3420   -1.5610 C   0  0  0  0  0  0  0  0  0  0  0  0
    3.0580    0.5300   -1.7910 O   0  0  0  0  0  0  0  0  0  0  0  0
    3.0470   -0.7220   -3.9450 H   0  0  0  0  0  0  0  0  0  0  0  0
    3.0450   -2.4040   -4.0080 H   0  0  0  0  0  0  0  0  0  0  0  0
    1.1370   -1.6770   -2.9220 H   0  0  0  0  0  0  0  0  0  0  0  0
    2.2370   -2.4840   -1.6930 H   0  0  0  0  0  0  0  0  0  0  0  0
   -4.6310   -1.1920    0.8480 N   0  0  0  0  0  0  0  0  0  0  0  0
   -3.2890   -0.9650    1.2770 C   0  0  0  0  0  0  0  0  0  0  0  0
   -2.4050   -1.8750    1.0450 N   0  0  0  0  0  0  0  0  0  0  0  0
   -2.9200    0.2320    1.9470 N   0  0  0  0  0  0  0  0  0  0  0  0
   -1.5850    0.7770    1.8030 C   0  0  0  0  0  0  0  0  0  0  0  0
   -1.3360    1.2940    0.4300 C   0  0  0  0  0  0  0  0  0  0  0  0
   -0.0140    1.8840    0.1550 C   0  0  0  0  0  0  0  0  0  0  0  0
    1.1880    1.0310    0.3080 C   0  0  2  0  0  0  0  0  0  0  0  0
    1.2090   -0.1370   -0.5280 N   0  0  0  0  0  0  0  0  0  0  0  0
    1.5040    0.6990    1.7130 C   0  0  0  0  0  0  0  0  0  0  0  0
    1.4720    1.6150    2.5600 O   0  0  0  0  0  0  0  0  0  0  0  0
   -5.2540   -1.7690    1.4820 H   0  0  0  0  0  0  0  0  0  0  0  0
   -5.0090   -0.8200   -0.0410 H   0  0  0  0  0  0  0  0  0  0  0  0
   -2.6850   -2.7440    0.5560 H   0  0  0  0  0  0  0  0  0  0  0  0
   -3.6160    0.7070    2.5380 H   0  0  0  0  0  0  0  0  0  0  0  0
   -1.3550    1.5220    2.5860 H   0  0  0  0  0  0  0  0  0  0  0  0
   -0.8280   -0.0470    1.9630 H   0  0  0  0  0  0  0  0  0  0  0  0
   -1.5820    0.5370   -0.3650 H   0  0  0  0  0  0  0  0  0  0  0  0
   -2.0980    2.1060    0.2510 H   0  0  0  0  0  0  0  0  0  0  0  0
   -0.0530    2.3350   -0.8700 H   0  0  0  0  0  0  0  0  0  0  0  0
    0.1060    2.7840    0.8300 H   0  0  0  0  0  0  0  0  0  0  0  0
    2.0880    1.6540   -0.0340 H   0  0  0  0  0  0  0  0  0  0  0  0
    0.4900   -0.8870   -0.3810 H   0  0  0  0  0  0  0  0  0  0  0  0
    1.8440   -0.6100    2.1460 N   0  0  0  0  0  0  0  0  0  0  0  0
    2.1490   -0.8990    3.5260 C   0  0  0  0  0  0  0  0  0  0  0  0
    2.4680   -2.3360    3.7150 C   0  0  0  0  0  0  0  0  0  0  0  0
    2.7550   -2.7120    4.8750 O   0  0  0  0  0  0  0  0  0  0  0  0
    2.4650   -3.2660    2.6910 O   0  0  0  0  0  0  0  0  0  0  0  0
    1.8680   -1.3620    1.4420 H   0  0  0  0  0  0  0  0  0  0  0  0
    3.0310   -0.3200    3.8620 H   0  0  0  0  0  0  0  0  0  0  0  0
    1.2670   -0.6870    4.1750 H   0  0  0  0  0  0  0  0  0  0  0  0
  1  2  1  0  0  0  0
  2  8  1  0  0  0  0
  2  3  1  0  0  0  0
  3 17  1  0  0  0  0
  4  3  2  0  0  0  0
  5  1  1  0  0  0  0
  6  1  1  0  0  0  0
  7  2  1  0  0  0  0
  9 10  1  0  0  0  0
  9 20  1  0  0  0  0
 10 12  1  0  0  0  0
 11 10  2  0  0  0  0
 12 23  1  0  0  0  0
 13 12  1  0  0  0  0
 13 25  1  0  0  0  0
 13 24  1  0  0  0  0
 14 13  1  0  0  0  0
 15 16  1  0  0  0  0
 15 14  1  0  0  0  0
 15 29  1  0  0  0  0
 16 30  1  6  0  0  0
 16 18  1  0  0  0  0
 17 31  1  0  0  0  0
 17 16  1  0  0  0  0
 18 32  1  0  0  0  0
 18 19  2  0  0  0  0
 21  9  1  0  0  0  0
 22 11  1  0  0  0  0
 26 14  1  0  0  0  0
 27 14  1  0  0  0  0
 28 15  1  0  0  0  0
 32 33  1  0  0  0  0
 33 34  1  0  0  0  0
 33 38  1  0  0  0  0
 33 39  1  0  0  0  0
 34 35  1  0  0  0  0
 36 34  2  0  0  0  0
 37 32  1  0  0  0  0
M  END
$$$$
