GRI.pdb
 OpenBabel07022418213D

 51 50  0  0  1  0  0  0  0  0999 V2000
    1.0680   -1.8060   -5.5300 N   0  0  0  0  0  0  0  0  0  0  0  0
   -0.3840   -1.7030   -5.5390 C   0  0  0  0  0  0  0  0  0  0  0  0
   -0.8700   -1.7100   -4.1390 C   0  0  0  0  0  0  0  0  0  0  0  0
   -2.1020   -1.6290   -3.9140 O   0  0  0  0  0  0  0  0  0  0  0  0
    1.3490   -2.3640   -6.3650 H   0  0  0  0  0  0  0  0  0  0  0  0
    1.4260   -0.8350   -5.6910 H   0  0  0  0  0  0  0  0  0  0  0  0
   -0.7430   -0.7740   -6.0270 H   0  0  0  0  0  0  0  0  0  0  0  0
   -0.8070   -2.6190   -6.0460 H   0  0  0  0  0  0  0  0  0  0  0  0
   -3.5740   -1.5780    3.7400 N   0  0  0  0  0  0  0  0  0  0  0  0
   -2.5840   -1.9500    2.8130 C   0  0  0  0  0  0  0  0  0  0  0  0
   -1.4460   -1.3650    2.8520 N   0  0  0  0  0  0  0  0  0  0  0  0
   -2.7660   -2.9450    1.8210 N   0  0  0  0  0  0  0  0  0  0  0  0
   -2.2300   -2.9050    0.4880 C   0  0  0  0  0  0  0  0  0  0  0  0
   -0.7400   -3.0300    0.4500 C   0  0  0  0  0  0  0  0  0  0  0  0
   -0.1750   -3.0380   -0.9400 C   0  0  0  0  0  0  0  0  0  0  0  0
   -0.5270   -1.8080   -1.6770 C   0  0  2  0  0  0  0  0  0  0  0  0
   -0.0080   -1.8050   -3.0410 N   0  0  0  0  0  0  0  0  0  0  0  0
   -0.1010   -0.5250   -1.0010 C   0  0  0  0  0  0  0  0  0  0  0  0
   -0.4600   -0.2050    0.1520 O   0  0  0  0  0  0  0  0  0  0  0  0
   -3.7420   -0.5820    3.9390 H   0  0  0  0  0  0  0  0  0  0  0  0
   -4.1350   -2.3020    4.2230 H   0  0  0  0  0  0  0  0  0  0  0  0
   -1.1480   -0.6270    3.4990 H   0  0  0  0  0  0  0  0  0  0  0  0
   -3.3590   -3.7800    2.1290 H   0  0  0  0  0  0  0  0  0  0  0  0
   -2.7190   -3.7120   -0.1030 H   0  0  0  0  0  0  0  0  0  0  0  0
   -2.5780   -1.9450    0.0150 H   0  0  0  0  0  0  0  0  0  0  0  0
   -0.2330   -2.2400    1.0270 H   0  0  0  0  0  0  0  0  0  0  0  0
   -0.5020   -4.0440    0.8860 H   0  0  0  0  0  0  0  0  0  0  0  0
   -0.5950   -3.9030   -1.5290 H   0  0  0  0  0  0  0  0  0  0  0  0
    0.9240   -3.1820   -0.7920 H   0  0  0  0  0  0  0  0  0  0  0  0
   -1.6230   -1.7580   -1.7650 H   0  0  0  0  0  0  0  0  0  0  0  0
    1.0280   -1.8780   -3.1470 H   0  0  0  0  0  0  0  0  0  0  0  0
   -0.8630    3.5780   -1.9320 C   0  0  0  0  0  0  0  0  0  0  0  0
   -0.9480    2.7170   -0.6670 C   0  0  0  0  0  0  0  0  0  0  0  0
    0.4410    2.3640   -0.1760 C   0  0  2  0  0  0  0  0  0  0  0  0
    1.1150    3.6930    0.1000 C   0  0  0  0  0  0  0  0  0  0  0  0
    1.2400    1.6420   -1.2280 C   0  0  2  0  0  0  0  0  0  0  0  0
    0.7490    0.3940   -1.6700 N   0  0  0  0  0  0  0  0  0  0  0  0
    2.6730    1.6550   -0.9110 C   0  0  0  0  0  0  0  0  0  0  0  0
    3.3420    2.6410   -0.5210 O   0  0  0  0  0  0  0  0  0  0  0  0
    3.4520    0.4720   -1.0320 O   0  0  0  0  0  0  0  0  0  0  0  0
   -0.8090    2.9030   -2.8160 H   0  0  0  0  0  0  0  0  0  0  0  0
    0.0010    4.2360   -1.9570 H   0  0  0  0  0  0  0  0  0  0  0  0
   -1.8370    4.1290   -2.0410 H   0  0  0  0  0  0  0  0  0  0  0  0
   -1.5300    1.8420   -0.9680 H   0  0  0  0  0  0  0  0  0  0  0  0
   -1.5050    3.3260    0.0620 H   0  0  0  0  0  0  0  0  0  0  0  0
    0.4180    1.8500    0.7980 H   0  0  0  0  0  0  0  0  0  0  0  0
    1.6290    4.1260   -0.7630 H   0  0  0  0  0  0  0  0  0  0  0  0
    1.8590    3.6230    0.9330 H   0  0  0  0  0  0  0  0  0  0  0  0
    0.3520    4.4240    0.5190 H   0  0  0  0  0  0  0  0  0  0  0  0
    1.0880    2.3480   -2.1310 H   0  0  0  0  0  0  0  0  0  0  0  0
    1.0520    0.0830   -2.6450 H   0  0  0  0  0  0  0  0  0  0  0  0
  2  1  1  0  0  0  0
  2  3  1  0  0  0  0
  3  4  2  0  0  0  0
  3 17  1  0  0  0  0
  5  1  1  0  0  0  0
  6  1  1  0  0  0  0
  7  2  1  0  0  0  0
  8  2  1  0  0  0  0
  9 20  1  0  0  0  0
  9 21  1  0  0  0  0
 10 11  2  0  0  0  0
 10  9  1  0  0  0  0
 11 22  1  0  0  0  0
 12 23  1  0  0  0  0
 12 10  1  0  0  0  0
 13 12  1  0  0  0  0
 14 13  1  0  0  0  0
 14 27  1  0  0  0  0
 14 26  1  0  0  0  0
 15 29  1  0  0  0  0
 15 14  1  0  0  0  0
 16 30  1  6  0  0  0
 16 18  1  0  0  0  0
 16 15  1  0  0  0  0
 17 16  1  0  0  0  0
 18 19  2  0  0  0  0
 24 13  1  0  0  0  0
 25 13  1  0  0  0  0
 28 15  1  0  0  0  0
 31 17  1  0  0  0  0
 32 33  1  0  0  0  0
 33 34  1  0  0  0  0
 33 45  1  0  0  0  0
 34 35  1  0  0  0  0
 34 46  1  1  0  0  0
 35 49  1  0  0  0  0
 35 48  1  0  0  0  0
 36 50  1  6  0  0  0
 36 38  1  0  0  0  0
 36 34  1  0  0  0  0
 37 36  1  0  0  0  0
 37 18  1  0  0  0  0
 38 39  1  0  0  0  0
 40 38  2  0  0  0  0
 41 32  1  0  0  0  0
 42 32  1  0  0  0  0
 43 32  1  0  0  0  0
 44 33  1  0  0  0  0
 47 35  1  0  0  0  0
 51 37  1  0  0  0  0
M  END
$$$$
