GRK.pdb
 OpenBabel07022418213D

 53 52  0  0  1  0  0  0  0  0999 V2000
    3.6710   -3.2290    4.4700 N   0  0  0  0  0  0  0  0  0  0  0  0
    3.1250   -1.8880    4.5620 C   0  0  0  0  0  0  0  0  0  0  0  0
    2.4170   -1.5600    3.2800 C   0  0  0  0  0  0  0  0  0  0  0  0
    2.3830   -2.4160    2.3520 O   0  0  0  0  0  0  0  0  0  0  0  0
    3.1250   -3.9350    5.0070 H   0  0  0  0  0  0  0  0  0  0  0  0
    3.8060   -3.5200    3.4700 H   0  0  0  0  0  0  0  0  0  0  0  0
    3.9580   -1.2080    4.7570 H   0  0  0  0  0  0  0  0  0  0  0  0
    2.4010   -1.8990    5.3980 H   0  0  0  0  0  0  0  0  0  0  0  0
    1.5910    0.8410   -3.0910 N   0  0  0  0  0  0  0  0  0  0  0  0
    2.6830    0.3640   -2.3380 C   0  0  0  0  0  0  0  0  0  0  0  0
    2.9130   -0.9020   -2.2730 N   0  0  0  0  0  0  0  0  0  0  0  0
    3.5500    1.2400   -1.6410 N   0  0  0  0  0  0  0  0  0  0  0  0
    4.1040    0.9630   -0.3570 C   0  0  0  0  0  0  0  0  0  0  0  0
    3.1520    0.9730    0.7930 C   0  0  0  0  0  0  0  0  0  0  0  0
    2.0650   -0.0300    0.6430 C   0  0  0  0  0  0  0  0  0  0  0  0
    1.1040   -0.0290    1.8200 C   0  0  2  0  0  0  0  0  0  0  0  0
    1.7800   -0.3280    3.0570 N   0  0  0  0  0  0  0  0  0  0  0  0
    0.0260   -0.9970    1.5200 C   0  0  0  0  0  0  0  0  0  0  0  0
   -0.1990   -1.9610    2.2940 O   0  0  0  0  0  0  0  0  0  0  0  0
    1.2430    0.3640   -3.9650 H   0  0  0  0  0  0  0  0  0  0  0  0
    1.0350    1.7080   -2.8460 H   0  0  0  0  0  0  0  0  0  0  0  0
    2.3450   -1.6350   -2.7430 H   0  0  0  0  0  0  0  0  0  0  0  0
    3.7850    2.1560   -2.1270 H   0  0  0  0  0  0  0  0  0  0  0  0
    4.9010    1.7330   -0.1280 H   0  0  0  0  0  0  0  0  0  0  0  0
    4.6830    0.0130   -0.4290 H   0  0  0  0  0  0  0  0  0  0  0  0
    3.7630    0.6840    1.7000 H   0  0  0  0  0  0  0  0  0  0  0  0
    2.7700    1.9950    1.0270 H   0  0  0  0  0  0  0  0  0  0  0  0
    1.4300    0.2210   -0.2340 H   0  0  0  0  0  0  0  0  0  0  0  0
    2.4870   -1.0350    0.4750 H   0  0  0  0  0  0  0  0  0  0  0  0
    0.6310    0.9720    1.8500 H   0  0  0  0  0  0  0  0  0  0  0  0
    1.7970    0.3910    3.8080 H   0  0  0  0  0  0  0  0  0  0  0  0
   -0.7530   -0.8340    0.3600 N   0  0  0  0  0  0  0  0  0  0  0  0
   -1.8320   -1.7280   -0.0230 C   0  0  1  0  0  0  0  0  0  0  0  0
   -3.0640   -0.8530   -0.1550 C   0  0  0  0  0  0  0  0  0  0  0  0
   -4.2970   -1.5960   -0.5440 C   0  0  0  0  0  0  0  0  0  0  0  0
   -5.4360   -0.5970   -0.6330 C   0  0  0  0  0  0  0  0  0  0  0  0
   -5.6830    0.0960    0.6670 C   0  0  0  0  0  0  0  0  0  0  0  0
   -6.0230   -0.8750    1.6850 N   0  0  0  0  0  0  0  0  0  0  0  0
   -1.4710   -2.3180   -1.3340 C   0  0  0  0  0  0  0  0  0  0  0  0
   -2.1980   -3.1670   -1.9370 O   0  0  0  0  0  0  0  0  0  0  0  0
   -0.3040   -1.9570   -1.9600 O   0  0  0  0  0  0  0  0  0  0  0  0
   -0.5580   -0.0300   -0.2680 H   0  0  0  0  0  0  0  0  0  0  0  0
   -1.9640   -2.5280    0.7260 H   0  0  0  0  0  0  0  0  0  0  0  0
   -2.8280   -0.0410   -0.8970 H   0  0  0  0  0  0  0  0  0  0  0  0
   -3.1660   -0.3250    0.8230 H   0  0  0  0  0  0  0  0  0  0  0  0
   -4.1690   -2.0390   -1.5510 H   0  0  0  0  0  0  0  0  0  0  0  0
   -4.4880   -2.3730    0.2290 H   0  0  0  0  0  0  0  0  0  0  0  0
   -5.1230    0.1410   -1.4180 H   0  0  0  0  0  0  0  0  0  0  0  0
   -6.3910   -1.1000   -0.9200 H   0  0  0  0  0  0  0  0  0  0  0  0
   -6.5610    0.7930    0.5290 H   0  0  0  0  0  0  0  0  0  0  0  0
   -4.8600    0.7770    0.9820 H   0  0  0  0  0  0  0  0  0  0  0  0
   -6.1160   -1.8410    1.3330 H   0  0  0  0  0  0  0  0  0  0  0  0
   -5.3470   -0.8580    2.4720 H   0  0  0  0  0  0  0  0  0  0  0  0
  1  2  1  0  0  0  0
  1  5  1  0  0  0  0
  2  7  1  0  0  0  0
  2  8  1  0  0  0  0
  3  2  1  0  0  0  0
  4  3  2  0  0  0  0
  6  1  1  0  0  0  0
  9 21  1  0  0  0  0
  9 10  1  0  0  0  0
 10 11  2  0  0  0  0
 10 12  1  0  0  0  0
 12 13  1  0  0  0  0
 13 24  1  0  0  0  0
 13 14  1  0  0  0  0
 14 27  1  0  0  0  0
 14 26  1  0  0  0  0
 15 14  1  0  0  0  0
 15 16  1  0  0  0  0
 16 30  1  1  0  0  0
 16 17  1  0  0  0  0
 17  3  1  0  0  0  0
 17 31  1  0  0  0  0
 18 16  1  0  0  0  0
 18 19  2  0  0  0  0
 20  9  1  0  0  0  0
 22 11  1  0  0  0  0
 23 12  1  0  0  0  0
 25 13  1  0  0  0  0
 28 15  1  0  0  0  0
 29 15  1  0  0  0  0
 32 18  1  0  0  0  0
 33 32  1  0  0  0  0
 33 43  1  1  0  0  0
 34 33  1  0  0  0  0
 34 45  1  0  0  0  0
 35 34  1  0  0  0  0
 35 47  1  0  0  0  0
 36 35  1  0  0  0  0
 36 37  1  0  0  0  0
 37 51  1  0  0  0  0
 37 38  1  0  0  0  0
 38 53  1  0  0  0  0
 39 33  1  0  0  0  0
 40 39  1  0  0  0  0
 41 39  2  0  0  0  0
 42 32  1  0  0  0  0
 44 34  1  0  0  0  0
 46 35  1  0  0  0  0
 48 36  1  0  0  0  0
 49 36  1  0  0  0  0
 50 37  1  0  0  0  0
 52 38  1  0  0  0  0
M  END
$$$$
