GRL.pdb
 OpenBabel07022418213D

 51 50  0  0  1  0  0  0  0  0999 V2000
    1.0860    1.1970   -6.3690 N   0  0  0  0  0  0  0  0  0  0  0  0
    0.2740    0.4850   -5.4030 C   0  0  0  0  0  0  0  0  0  0  0  0
    0.1150    1.2940   -4.1480 C   0  0  0  0  0  0  0  0  0  0  0  0
    0.6770    2.4170   -4.1060 O   0  0  0  0  0  0  0  0  0  0  0  0
    1.9760    1.4720   -5.8880 H   0  0  0  0  0  0  0  0  0  0  0  0
    0.6490    2.0840   -6.6910 H   0  0  0  0  0  0  0  0  0  0  0  0
   -0.7000    0.2680   -5.8590 H   0  0  0  0  0  0  0  0  0  0  0  0
    0.7700   -0.4700   -5.1800 H   0  0  0  0  0  0  0  0  0  0  0  0
   -2.7680    1.2370    3.5760 N   0  0  0  0  0  0  0  0  0  0  0  0
   -2.9550    0.4550    2.4040 C   0  0  0  0  0  0  0  0  0  0  0  0
   -3.0330   -0.8270    2.4920 N   0  0  0  0  0  0  0  0  0  0  0  0
   -3.0650    1.0090    1.1100 N   0  0  0  0  0  0  0  0  0  0  0  0
   -3.0390    0.2220   -0.1150 C   0  0  0  0  0  0  0  0  0  0  0  0
   -3.1760    1.0880   -1.3110 C   0  0  0  0  0  0  0  0  0  0  0  0
   -2.1270    2.0960   -1.5590 C   0  0  0  0  0  0  0  0  0  0  0  0
   -0.7530    1.6560   -1.8520 C   0  0  2  0  0  0  0  0  0  0  0  0
   -0.6280    0.8380   -3.0450 N   0  0  0  0  0  0  0  0  0  0  0  0
   -0.0270    1.0480   -0.7150 C   0  0  0  0  0  0  0  0  0  0  0  0
   -0.0850    1.4310    0.4730 O   0  0  0  0  0  0  0  0  0  0  0  0
   -1.9390    0.9870    4.1780 H   0  0  0  0  0  0  0  0  0  0  0  0
   -3.3770    2.0160    3.8700 H   0  0  0  0  0  0  0  0  0  0  0  0
   -2.9570   -1.2690    3.4220 H   0  0  0  0  0  0  0  0  0  0  0  0
   -3.1710    2.0410    1.0260 H   0  0  0  0  0  0  0  0  0  0  0  0
   -2.1570   -0.4070   -0.1870 H   0  0  0  0  0  0  0  0  0  0  0  0
   -3.9230   -0.4450   -0.0730 H   0  0  0  0  0  0  0  0  0  0  0  0
   -3.3280    0.4400   -2.2060 H   0  0  0  0  0  0  0  0  0  0  0  0
   -4.1480    1.6420   -1.1990 H   0  0  0  0  0  0  0  0  0  0  0  0
   -2.1130    2.8530   -0.7310 H   0  0  0  0  0  0  0  0  0  0  0  0
   -2.4800    2.6950   -2.4630 H   0  0  0  0  0  0  0  0  0  0  0  0
   -0.1640    2.6350   -2.0310 H   0  0  0  0  0  0  0  0  0  0  0  0
   -1.0890   -0.0840   -3.0800 H   0  0  0  0  0  0  0  0  0  0  0  0
   -0.2620   -2.7810   -1.4060 C   0  0  0  0  0  0  0  0  0  0  0  0
    0.5940   -3.0190   -0.2130 C   0  0  0  0  0  0  0  0  0  0  0  0
    1.1540   -4.4440   -0.3590 C   0  0  0  0  0  0  0  0  0  0  0  0
    1.7670   -2.1280   -0.0470 C   0  0  0  0  0  0  0  0  0  0  0  0
    1.5310   -0.6730    0.1170 C   0  0  2  0  0  0  0  0  0  0  0  0
    0.8380   -0.0890   -0.9810 N   0  0  0  0  0  0  0  0  0  0  0  0
    2.9000   -0.0420    0.2710 C   0  0  0  0  0  0  0  0  0  0  0  0
    3.2840    0.8510   -0.4940 O   0  0  0  0  0  0  0  0  0  0  0  0
    3.6900   -0.5040    1.2910 O   0  0  0  0  0  0  0  0  0  0  0  0
    0.3900   -2.7400   -2.3140 H   0  0  0  0  0  0  0  0  0  0  0  0
   -0.8450   -1.8700   -1.3850 H   0  0  0  0  0  0  0  0  0  0  0  0
   -0.9280   -3.6700   -1.5880 H   0  0  0  0  0  0  0  0  0  0  0  0
   -0.0330   -2.9760    0.7250 H   0  0  0  0  0  0  0  0  0  0  0  0
    1.5960   -4.4810   -1.3830 H   0  0  0  0  0  0  0  0  0  0  0  0
    2.0160   -4.5230    0.3390 H   0  0  0  0  0  0  0  0  0  0  0  0
    0.3840   -5.1940   -0.1860 H   0  0  0  0  0  0  0  0  0  0  0  0
    2.3680   -2.5360    0.8120 H   0  0  0  0  0  0  0  0  0  0  0  0
    2.4470   -2.3330   -0.9380 H   0  0  0  0  0  0  0  0  0  0  0  0
    1.0570   -0.4670    1.1030 H   0  0  0  0  0  0  0  0  0  0  0  0
    0.9400   -0.4430   -1.9560 H   0  0  0  0  0  0  0  0  0  0  0  0
  1  5  1  0  0  0  0
  1  2  1  0  0  0  0
  2  8  1  0  0  0  0
  2  3  1  0  0  0  0
  3  4  2  0  0  0  0
  3 17  1  0  0  0  0
  6  1  1  0  0  0  0
  7  2  1  0  0  0  0
  9 21  1  0  0  0  0
  9 20  1  0  0  0  0
 10 11  2  0  0  0  0
 10  9  1  0  0  0  0
 11 22  1  0  0  0  0
 12 10  1  0  0  0  0
 13 25  1  0  0  0  0
 13 12  1  0  0  0  0
 14 27  1  0  0  0  0
 14 13  1  0  0  0  0
 15 14  1  0  0  0  0
 15 28  1  0  0  0  0
 16 30  1  6  0  0  0
 16 15  1  0  0  0  0
 16 18  1  0  0  0  0
 17 16  1  0  0  0  0
 18 19  2  0  0  0  0
 23 12  1  0  0  0  0
 24 13  1  0  0  0  0
 26 14  1  0  0  0  0
 29 15  1  0  0  0  0
 31 17  1  0  0  0  0
 32 42  1  0  0  0  0
 32 33  1  0  0  0  0
 33 35  1  0  0  0  0
 33 44  1  0  0  0  0
 34 33  1  0  0  0  0
 34 47  1  0  0  0  0
 34 46  1  0  0  0  0
 35 36  1  0  0  0  0
 35 48  1  0  0  0  0
 36 38  1  0  0  0  0
 36 50  1  1  0  0  0
 37 18  1  0  0  0  0
 37 36  1  0  0  0  0
 38 40  1  0  0  0  0
 39 38  2  0  0  0  0
 41 32  1  0  0  0  0
 43 32  1  0  0  0  0
 45 34  1  0  0  0  0
 49 35  1  0  0  0  0
 51 37  1  0  0  0  0
M  END
$$$$
