GRP.pdb
 OpenBabel07022418213D

 46 46  0  0  1  0  0  0  0  0999 V2000
    0.5640   -2.8160    4.1290 N   0  0  0  0  0  0  0  0  0  0  0  0
    0.9060   -1.6030    4.8090 C   0  0  0  0  0  0  0  0  0  0  0  0
    1.1260   -0.4680    3.8710 C   0  0  0  0  0  0  0  0  0  0  0  0
    1.4320    0.6820    4.2490 O   0  0  0  0  0  0  0  0  0  0  0  0
    0.2200   -3.4920    4.8670 H   0  0  0  0  0  0  0  0  0  0  0  0
    1.3810   -3.2740    3.6830 H   0  0  0  0  0  0  0  0  0  0  0  0
    1.9060   -1.7850    5.3000 H   0  0  0  0  0  0  0  0  0  0  0  0
    0.2100   -1.3540    5.6280 H   0  0  0  0  0  0  0  0  0  0  0  0
    1.6490   -2.5560   -3.3100 N   0  0  0  0  0  0  0  0  0  0  0  0
    2.1320   -1.2490   -3.0280 C   0  0  0  0  0  0  0  0  0  0  0  0
    3.3260   -0.8530   -3.3350 N   0  0  0  0  0  0  0  0  0  0  0  0
    1.2810   -0.2910   -2.3680 N   0  0  0  0  0  0  0  0  0  0  0  0
    1.8830    0.9000   -1.7820 C   0  0  0  0  0  0  0  0  0  0  0  0
    2.7400    0.5760   -0.6020 C   0  0  0  0  0  0  0  0  0  0  0  0
    2.2070   -0.1230    0.5450 C   0  0  0  0  0  0  0  0  0  0  0  0
    1.1790    0.3490    1.4750 C   0  0  2  0  0  0  0  0  0  0  0  0
    0.9750   -0.7400    2.4920 N   0  0  0  0  0  0  0  0  0  0  0  0
   -0.1310    0.7730    1.0000 C   0  0  0  0  0  0  0  0  0  0  0  0
   -0.1540    1.9080    0.3910 O   0  0  0  0  0  0  0  0  0  0  0  0
    2.3240   -3.3530   -3.2880 H   0  0  0  0  0  0  0  0  0  0  0  0
    0.6620   -2.7550   -3.5350 H   0  0  0  0  0  0  0  0  0  0  0  0
    3.9610   -1.5290   -3.8130 H   0  0  0  0  0  0  0  0  0  0  0  0
    0.2590   -0.4950   -2.3390 H   0  0  0  0  0  0  0  0  0  0  0  0
    2.5450    1.3030   -2.6300 H   0  0  0  0  0  0  0  0  0  0  0  0
    1.1360    1.6600   -1.6660 H   0  0  0  0  0  0  0  0  0  0  0  0
    3.3010    1.5430   -0.3000 H   0  0  0  0  0  0  0  0  0  0  0  0
    3.6340    0.0020   -1.0580 H   0  0  0  0  0  0  0  0  0  0  0  0
    3.1300   -0.4480    1.1770 H   0  0  0  0  0  0  0  0  0  0  0  0
    1.9280   -1.1860    0.1450 H   0  0  0  0  0  0  0  0  0  0  0  0
    1.6400    1.1740    2.1110 H   0  0  0  0  0  0  0  0  0  0  0  0
    0.7450   -1.6780    2.1240 H   0  0  0  0  0  0  0  0  0  0  0  0
   -1.3820    0.0700    1.1380 N   0  0  0  0  0  0  0  0  0  0  0  0
   -1.7020   -1.1740    1.7310 C   0  0  0  0  0  0  0  0  0  0  0  0
   -3.2100   -1.3050    1.6610 C   0  0  0  0  0  0  0  0  0  0  0  0
   -3.5920   -0.4250    0.4700 C   0  0  0  0  0  0  0  0  0  0  0  0
   -2.5940    0.6650    0.6090 C   0  0  1  0  0  0  0  0  0  0  0  0
   -3.1120    1.6190    1.6510 C   0  0  0  0  0  0  0  0  0  0  0  0
   -4.1570    2.2970    1.4820 O   0  0  0  0  0  0  0  0  0  0  0  0
   -2.4470    1.7910    2.8570 O   0  0  0  0  0  0  0  0  0  0  0  0
   -1.4450   -1.2030    2.8250 H   0  0  0  0  0  0  0  0  0  0  0  0
   -1.3220   -2.0600    1.1740 H   0  0  0  0  0  0  0  0  0  0  0  0
   -3.5160   -2.3500    1.4690 H   0  0  0  0  0  0  0  0  0  0  0  0
   -3.7050   -0.9740    2.5830 H   0  0  0  0  0  0  0  0  0  0  0  0
   -3.4040   -0.9670   -0.4630 H   0  0  0  0  0  0  0  0  0  0  0  0
   -4.6310   -0.1090    0.6320 H   0  0  0  0  0  0  0  0  0  0  0  0
   -2.3940    1.2130   -0.3350 H   0  0  0  0  0  0  0  0  0  0  0  0
  1  2  1  0  0  0  0
  1  5  1  0  0  0  0
  2  7  1  0  0  0  0
  2  8  1  0  0  0  0
  3  4  2  0  0  0  0
  3  2  1  0  0  0  0
  6  1  1  0  0  0  0
  9 20  1  0  0  0  0
  9 10  1  0  0  0  0
 10 12  1  0  0  0  0
 11 10  2  0  0  0  0
 12 23  1  0  0  0  0
 12 13  1  0  0  0  0
 13 25  1  0  0  0  0
 13 14  1  0  0  0  0
 14 26  1  0  0  0  0
 14 15  1  0  0  0  0
 15 28  1  0  0  0  0
 15 16  1  0  0  0  0
 16 30  1  1  0  0  0
 16 17  1  0  0  0  0
 17  3  1  0  0  0  0
 18 32  1  0  0  0  0
 18 16  1  0  0  0  0
 19 18  2  0  0  0  0
 21  9  1  0  0  0  0
 22 11  1  0  0  0  0
 24 13  1  0  0  0  0
 27 14  1  0  0  0  0
 29 15  1  0  0  0  0
 31 17  1  0  0  0  0
 32 33  1  0  0  0  0
 33 40  1  0  0  0  0
 34 33  1  0  0  0  0
 34 43  1  0  0  0  0
 35 36  1  0  0  0  0
 35 45  1  0  0  0  0
 35 34  1  0  0  0  0
 36 46  1  6  0  0  0
 36 32  1  0  0  0  0
 36 37  1  0  0  0  0
 37 39  1  0  0  0  0
 38 37  2  0  0  0  0
 41 33  1  0  0  0  0
 42 34  1  0  0  0  0
 44 35  1  0  0  0  0
M  END
$$$$
