GRQ.pdb
 OpenBabel07022418213D

 49 48  0  0  1  0  0  0  0  0999 V2000
    2.7560   -3.0840   -1.4680 N   0  0  0  0  0  0  0  0  0  0  0  0
    1.8800   -3.2280   -0.3150 C   0  0  0  0  0  0  0  0  0  0  0  0
    1.6160   -1.8850    0.3070 C   0  0  0  0  0  0  0  0  0  0  0  0
    2.1260   -0.8680   -0.1800 O   0  0  0  0  0  0  0  0  0  0  0  0
    2.8070   -3.9570   -2.0010 H   0  0  0  0  0  0  0  0  0  0  0  0
    2.5620   -2.2380   -2.0180 H   0  0  0  0  0  0  0  0  0  0  0  0
    2.3090   -3.9300    0.4190 H   0  0  0  0  0  0  0  0  0  0  0  0
    0.9460   -3.6730   -0.6940 H   0  0  0  0  0  0  0  0  0  0  0  0
    4.1520    1.6030   -1.3080 N   0  0  0  0  0  0  0  0  0  0  0  0
    4.3500    1.3740    0.0720 C   0  0  0  0  0  0  0  0  0  0  0  0
    5.2500    0.5420    0.4540 N   0  0  0  0  0  0  0  0  0  0  0  0
    3.5620    2.0560    1.0660 N   0  0  0  0  0  0  0  0  0  0  0  0
    3.4910    1.6390    2.4360 C   0  0  0  0  0  0  0  0  0  0  0  0
    2.7360    0.3330    2.5770 C   0  0  0  0  0  0  0  0  0  0  0  0
    1.3530    0.5500    2.0730 C   0  0  0  0  0  0  0  0  0  0  0  0
    0.4330   -0.6480    2.1860 C   0  0  2  0  0  0  0  0  0  0  0  0
    0.7840   -1.8070    1.4480 N   0  0  0  0  0  0  0  0  0  0  0  0
   -0.9700   -0.2630    2.2020 C   0  0  0  0  0  0  0  0  0  0  0  0
   -1.2900    0.7690    2.8640 O   0  0  0  0  0  0  0  0  0  0  0  0
    3.9330    0.8350   -1.9970 H   0  0  0  0  0  0  0  0  0  0  0  0
    4.2120    2.5620   -1.7440 H   0  0  0  0  0  0  0  0  0  0  0  0
    5.8230    0.0470   -0.2540 H   0  0  0  0  0  0  0  0  0  0  0  0
    3.0410    2.8910    0.6910 H   0  0  0  0  0  0  0  0  0  0  0  0
    2.9120    2.4120    2.9810 H   0  0  0  0  0  0  0  0  0  0  0  0
    4.5260    1.5460    2.8410 H   0  0  0  0  0  0  0  0  0  0  0  0
    3.3420   -0.4360    2.0800 H   0  0  0  0  0  0  0  0  0  0  0  0
    2.7270    0.0170    3.6600 H   0  0  0  0  0  0  0  0  0  0  0  0
    0.8970    1.3410    2.7140 H   0  0  0  0  0  0  0  0  0  0  0  0
    1.3920    0.9710    1.0550 H   0  0  0  0  0  0  0  0  0  0  0  0
    0.6970   -0.9660    3.2880 H   0  0  0  0  0  0  0  0  0  0  0  0
    0.4010   -2.7690    1.7490 H   0  0  0  0  0  0  0  0  0  0  0  0
   -2.8310   -1.9200   -2.6530 N   0  0  0  0  0  0  0  0  0  0  0  0
   -2.8280   -0.9920   -1.5890 C   0  0  0  0  0  0  0  0  0  0  0  0
   -1.7460   -0.4730   -1.2740 O   0  0  0  0  0  0  0  0  0  0  0  0
   -4.0560   -0.6680   -0.9070 C   0  0  0  0  0  0  0  0  0  0  0  0
   -4.0210    0.0440    0.3790 C   0  0  0  0  0  0  0  0  0  0  0  0
   -3.3890   -0.5690    1.5520 C   0  0  2  0  0  0  0  0  0  0  0  0
   -2.0300   -0.9390    1.5410 N   0  0  0  0  0  0  0  0  0  0  0  0
   -4.2670   -1.6580    2.0640 C   0  0  0  0  0  0  0  0  0  0  0  0
   -3.7430   -2.7520    2.4220 O   0  0  0  0  0  0  0  0  0  0  0  0
   -5.6300   -1.5510    2.1740 O   0  0  0  0  0  0  0  0  0  0  0  0
   -2.6220   -1.6570   -3.6500 H   0  0  0  0  0  0  0  0  0  0  0  0
   -3.0490   -2.9440   -2.4820 H   0  0  0  0  0  0  0  0  0  0  0  0
   -4.7490   -0.0720   -1.5870 H   0  0  0  0  0  0  0  0  0  0  0  0
   -4.6300   -1.6450   -0.8070 H   0  0  0  0  0  0  0  0  0  0  0  0
   -5.1160    0.1740    0.6710 H   0  0  0  0  0  0  0  0  0  0  0  0
   -3.7280    1.1310    0.2220 H   0  0  0  0  0  0  0  0  0  0  0  0
   -3.4660    0.2400    2.3680 H   0  0  0  0  0  0  0  0  0  0  0  0
   -1.7710   -1.8010    1.0150 H   0  0  0  0  0  0  0  0  0  0  0  0
  1  2  1  0  0  0  0
  2  3  1  0  0  0  0
  2  7  1  0  0  0  0
  3 17  1  0  0  0  0
  4  3  2  0  0  0  0
  5  1  1  0  0  0  0
  6  1  1  0  0  0  0
  8  2  1  0  0  0  0
  9 10  1  0  0  0  0
 10 11  2  0  0  0  0
 10 12  1  0  0  0  0
 12 13  1  0  0  0  0
 13 14  1  0  0  0  0
 13 25  1  0  0  0  0
 13 24  1  0  0  0  0
 14 27  1  0  0  0  0
 15 16  1  0  0  0  0
 15 14  1  0  0  0  0
 15 28  1  0  0  0  0
 16 18  1  0  0  0  0
 16 30  1  1  0  0  0
 17 31  1  0  0  0  0
 17 16  1  0  0  0  0
 18 19  2  0  0  0  0
 20  9  1  0  0  0  0
 21  9  1  0  0  0  0
 22 11  1  0  0  0  0
 23 12  1  0  0  0  0
 26 14  1  0  0  0  0
 29 15  1  0  0  0  0
 32 43  1  0  0  0  0
 32 33  1  0  0  0  0
 33 34  2  0  0  0  0
 33 35  1  0  0  0  0
 35 45  1  0  0  0  0
 35 36  1  0  0  0  0
 36 46  1  0  0  0  0
 36 37  1  0  0  0  0
 37 39  1  0  0  0  0
 37 48  1  1  0  0  0
 38 37  1  0  0  0  0
 38 18  1  0  0  0  0
 39 41  2  0  0  0  0
 39 40  1  0  0  0  0
 42 32  1  0  0  0  0
 44 35  1  0  0  0  0
 47 36  1  0  0  0  0
 49 38  1  0  0  0  0
M  END
$$$$
