GRR.pdb
 OpenBabel07022418213D

 55 54  0  0  1  0  0  0  0  0999 V2000
    1.6510   -1.6070    5.0670 N   0  0  0  0  0  0  0  0  0  0  0  0
    0.3920   -0.9360    5.0410 C   0  0  0  0  0  0  0  0  0  0  0  0
   -0.1240   -0.7030    3.6770 C   0  0  0  0  0  0  0  0  0  0  0  0
   -1.2150   -0.1270    3.4530 O   0  0  0  0  0  0  0  0  0  0  0  0
    1.7570   -2.3150    5.8070 H   0  0  0  0  0  0  0  0  0  0  0  0
    2.4440   -0.9340    5.0070 H   0  0  0  0  0  0  0  0  0  0  0  0
   -0.3810   -1.5780    5.5570 H   0  0  0  0  0  0  0  0  0  0  0  0
    0.4530   -0.0070    5.6420 H   0  0  0  0  0  0  0  0  0  0  0  0
    2.6560    3.9500    2.5330 N   0  0  0  0  0  0  0  0  0  0  0  0
    2.9940    2.8910    1.6470 C   0  0  0  0  0  0  0  0  0  0  0  0
    3.4580    3.1700    0.4620 N   0  0  0  0  0  0  0  0  0  0  0  0
    2.8190    1.5470    2.0690 N   0  0  0  0  0  0  0  0  0  0  0  0
    3.0850    0.4260    1.2100 C   0  0  0  0  0  0  0  0  0  0  0  0
    2.1120    0.3190    0.0680 C   0  0  0  0  0  0  0  0  0  0  0  0
    0.7010    0.1960    0.3860 C   0  0  0  0  0  0  0  0  0  0  0  0
    0.1340   -0.9190    1.1560 C   0  0  2  0  0  0  0  0  0  0  0  0
    0.5930   -1.1230    2.4960 N   0  0  0  0  0  0  0  0  0  0  0  0
   -0.0560   -2.1740    0.4050 C   0  0  0  0  0  0  0  0  0  0  0  0
    0.1810   -3.2580    0.9440 O   0  0  0  0  0  0  0  0  0  0  0  0
    1.9850    4.6650    2.1990 H   0  0  0  0  0  0  0  0  0  0  0  0
    3.0370    4.0580    3.4980 H   0  0  0  0  0  0  0  0  0  0  0  0
    3.5900    4.1520    0.1420 H   0  0  0  0  0  0  0  0  0  0  0  0
    2.4860    1.3840    3.0400 H   0  0  0  0  0  0  0  0  0  0  0  0
    4.0940    0.6720    0.7110 H   0  0  0  0  0  0  0  0  0  0  0  0
    3.2120   -0.5040    1.7440 H   0  0  0  0  0  0  0  0  0  0  0  0
    2.2700    1.2880   -0.5100 H   0  0  0  0  0  0  0  0  0  0  0  0
    2.5190   -0.4420   -0.6400 H   0  0  0  0  0  0  0  0  0  0  0  0
    0.4130    1.1470    0.9580 H   0  0  0  0  0  0  0  0  0  0  0  0
    0.0890    0.3100   -0.5430 H   0  0  0  0  0  0  0  0  0  0  0  0
   -0.9590   -0.5810    1.3220 H   0  0  0  0  0  0  0  0  0  0  0  0
    1.4870   -1.6170    2.7060 H   0  0  0  0  0  0  0  0  0  0  0  0
   -3.4380    1.3590   -2.4000 N   0  0  0  0  0  0  0  0  0  0  0  0
   -3.6850    0.2930   -1.4940 C   0  0  0  0  0  0  0  0  0  0  0  0
   -4.1010    0.5580   -0.3030 N   0  0  0  0  0  0  0  0  0  0  0  0
   -3.4670   -1.0400   -1.9190 N   0  0  0  0  0  0  0  0  0  0  0  0
   -3.4380   -2.1420   -0.9750 C   0  0  0  0  0  0  0  0  0  0  0  0
   -3.1930   -3.4480   -1.6690 C   0  0  0  0  0  0  0  0  0  0  0  0
   -1.9160   -3.5430   -2.4380 C   0  0  0  0  0  0  0  0  0  0  0  0
   -0.6830   -3.4010   -1.6390 C   0  0  2  0  0  0  0  0  0  0  0  0
   -0.5040   -2.1640   -0.9240 N   0  0  0  0  0  0  0  0  0  0  0  0
    0.5480   -3.6030   -2.4760 C   0  0  0  0  0  0  0  0  0  0  0  0
    0.6710   -4.6130   -3.2170 O   0  0  0  0  0  0  0  0  0  0  0  0
    1.5400   -2.6510   -2.4090 O   0  0  0  0  0  0  0  0  0  0  0  0
   -4.0680    2.1880   -2.4970 H   0  0  0  0  0  0  0  0  0  0  0  0
   -2.5600    1.2640   -2.9870 H   0  0  0  0  0  0  0  0  0  0  0  0
   -4.3000   -0.1740    0.4080 H   0  0  0  0  0  0  0  0  0  0  0  0
   -3.3230   -1.2510   -2.9260 H   0  0  0  0  0  0  0  0  0  0  0  0
   -4.4990   -2.2240   -0.5720 H   0  0  0  0  0  0  0  0  0  0  0  0
   -2.8010   -1.9760   -0.1120 H   0  0  0  0  0  0  0  0  0  0  0  0
   -4.0850   -3.6970   -2.2930 H   0  0  0  0  0  0  0  0  0  0  0  0
   -3.1380   -4.2200   -0.8410 H   0  0  0  0  0  0  0  0  0  0  0  0
   -1.9000   -4.5650   -2.9150 H   0  0  0  0  0  0  0  0  0  0  0  0
   -1.9840   -2.8040   -3.2790 H   0  0  0  0  0  0  0  0  0  0  0  0
   -0.6240   -4.2610   -0.8970 H   0  0  0  0  0  0  0  0  0  0  0  0
   -0.7290   -1.2930   -1.4640 H   0  0  0  0  0  0  0  0  0  0  0  0
  1  5  1  0  0  0  0
  2  1  1  0  0  0  0
  2  7  1  0  0  0  0
  2  8  1  0  0  0  0
  3  2  1  0  0  0  0
  4  3  2  0  0  0  0
  6  1  1  0  0  0  0
  9 21  1  0  0  0  0
 10 12  1  0  0  0  0
 10  9  1  0  0  0  0
 11 10  2  0  0  0  0
 12 23  1  0  0  0  0
 13 25  1  0  0  0  0
 13 12  1  0  0  0  0
 14 15  1  0  0  0  0
 14 13  1  0  0  0  0
 15 28  1  0  0  0  0
 15 16  1  0  0  0  0
 16 30  1  1  0  0  0
 16 17  1  0  0  0  0
 17 31  1  0  0  0  0
 17  3  1  0  0  0  0
 18 19  2  0  0  0  0
 18 16  1  0  0  0  0
 20  9  1  0  0  0  0
 22 11  1  0  0  0  0
 24 13  1  0  0  0  0
 26 14  1  0  0  0  0
 27 14  1  0  0  0  0
 29 15  1  0  0  0  0
 32 33  1  0  0  0  0
 33 34  2  0  0  0  0
 34 46  1  0  0  0  0
 35 33  1  0  0  0  0
 35 36  1  0  0  0  0
 36 48  1  0  0  0  0
 36 49  1  0  0  0  0
 37 36  1  0  0  0  0
 37 51  1  0  0  0  0
 38 37  1  0  0  0  0
 38 39  1  0  0  0  0
 39 40  1  0  0  0  0
 39 54  1  1  0  0  0
 40 18  1  0  0  0  0
 41 43  1  0  0  0  0
 41 39  1  0  0  0  0
 42 41  2  0  0  0  0
 44 32  1  0  0  0  0
 45 32  1  0  0  0  0
 47 35  1  0  0  0  0
 50 37  1  0  0  0  0
 52 38  1  0  0  0  0
 53 38  1  0  0  0  0
 55 40  1  0  0  0  0
M  END
$$$$
