GRS.pdb
 OpenBabel07022418213D

 43 42  0  0  1  0  0  0  0  0999 V2000
   -3.6470   -1.6680   -1.9960 N   0  0  0  0  0  0  0  0  0  0  0  0
   -3.0660   -0.4430   -1.4880 C   0  0  0  0  0  0  0  0  0  0  0  0
   -1.6980   -0.7460   -1.0140 C   0  0  0  0  0  0  0  0  0  0  0  0
   -1.2640   -1.9120   -1.1050 O   0  0  0  0  0  0  0  0  0  0  0  0
   -2.9730   -2.0690   -2.6990 H   0  0  0  0  0  0  0  0  0  0  0  0
   -3.6380   -2.3490   -1.1910 H   0  0  0  0  0  0  0  0  0  0  0  0
   -3.7300   -0.1020   -0.6590 H   0  0  0  0  0  0  0  0  0  0  0  0
   -3.0660    0.2900   -2.3230 H   0  0  0  0  0  0  0  0  0  0  0  0
    3.9700   -4.1500    0.6380 N   0  0  0  0  0  0  0  0  0  0  0  0
    3.8690   -3.1160   -0.3190 C   0  0  0  0  0  0  0  0  0  0  0  0
    4.3280   -3.3100   -1.5020 N   0  0  0  0  0  0  0  0  0  0  0  0
    3.2520   -1.8510    0.0410 N   0  0  0  0  0  0  0  0  0  0  0  0
    3.6300   -0.6660   -0.6330 C   0  0  0  0  0  0  0  0  0  0  0  0
    2.9490    0.6080   -0.3660 C   0  0  0  0  0  0  0  0  0  0  0  0
    1.5180    0.7750   -0.6880 C   0  0  0  0  0  0  0  0  0  0  0  0
    0.5230   -0.0700    0.0200 C   0  0  2  0  0  0  0  0  0  0  0  0
   -0.8400    0.2310   -0.4520 N   0  0  0  0  0  0  0  0  0  0  0  0
    0.5120    0.1680    1.4830 C   0  0  0  0  0  0  0  0  0  0  0  0
    1.5430    0.0610    2.2090 O   0  0  0  0  0  0  0  0  0  0  0  0
    4.1500   -5.1180    0.3060 H   0  0  0  0  0  0  0  0  0  0  0  0
    3.8690   -3.9760    1.6610 H   0  0  0  0  0  0  0  0  0  0  0  0
    4.7680   -4.2120   -1.7550 H   0  0  0  0  0  0  0  0  0  0  0  0
    2.5760   -1.9200    0.8080 H   0  0  0  0  0  0  0  0  0  0  0  0
    4.7440   -0.5050   -0.3970 H   0  0  0  0  0  0  0  0  0  0  0  0
    3.7000   -0.8610   -1.7600 H   0  0  0  0  0  0  0  0  0  0  0  0
    3.4860    1.4390   -0.9500 H   0  0  0  0  0  0  0  0  0  0  0  0
    3.0900    0.9460    0.7060 H   0  0  0  0  0  0  0  0  0  0  0  0
    1.2520    1.8520   -0.4050 H   0  0  0  0  0  0  0  0  0  0  0  0
    1.3260    0.7930   -1.8030 H   0  0  0  0  0  0  0  0  0  0  0  0
    0.7430   -1.1350   -0.1470 H   0  0  0  0  0  0  0  0  0  0  0  0
   -1.2130    1.2000   -0.3810 H   0  0  0  0  0  0  0  0  0  0  0  0
   -2.3590    2.5290    3.3640 O   0  0  0  0  0  0  0  0  0  0  0  0
   -1.1020    2.2240    3.8670 C   0  0  0  0  0  0  0  0  0  0  0  0
   -0.7370    0.7730    3.5610 C   0  0  2  0  0  0  0  0  0  0  0  0
   -0.7220    0.5390    2.1280 N   0  0  0  0  0  0  0  0  0  0  0  0
   -1.6790   -0.1580    4.2280 C   0  0  0  0  0  0  0  0  0  0  0  0
   -1.8510   -0.1400    5.4590 O   0  0  0  0  0  0  0  0  0  0  0  0
   -2.3870   -1.0750    3.4460 O   0  0  0  0  0  0  0  0  0  0  0  0
   -2.4410    3.5140    3.2400 H   0  0  0  0  0  0  0  0  0  0  0  0
   -1.1290    2.3300    4.9730 H   0  0  0  0  0  0  0  0  0  0  0  0
   -0.3360    2.9150    3.4770 H   0  0  0  0  0  0  0  0  0  0  0  0
    0.2700    0.6150    3.9680 H   0  0  0  0  0  0  0  0  0  0  0  0
   -1.5880    0.6350    1.5610 H   0  0  0  0  0  0  0  0  0  0  0  0
  1  2  1  0  0  0  0
  1  6  1  0  0  0  0
  2  3  1  0  0  0  0
  2  7  1  0  0  0  0
  3 17  1  0  0  0  0
  4  3  2  0  0  0  0
  5  1  1  0  0  0  0
  8  2  1  0  0  0  0
  9 21  1  0  0  0  0
 10 12  1  0  0  0  0
 10  9  1  0  0  0  0
 11 10  2  0  0  0  0
 12 23  1  0  0  0  0
 13 24  1  0  0  0  0
 13 14  1  0  0  0  0
 13 12  1  0  0  0  0
 14 27  1  0  0  0  0
 15 28  1  0  0  0  0
 15 14  1  0  0  0  0
 15 16  1  0  0  0  0
 16 30  1  6  0  0  0
 16 18  1  0  0  0  0
 17 31  1  0  0  0  0
 17 16  1  0  0  0  0
 18 35  1  0  0  0  0
 18 19  2  0  0  0  0
 20  9  1  0  0  0  0
 22 11  1  0  0  0  0
 25 13  1  0  0  0  0
 26 14  1  0  0  0  0
 29 15  1  0  0  0  0
 32 33  1  0  0  0  0
 33 40  1  0  0  0  0
 34 33  1  0  0  0  0
 34 42  1  1  0  0  0
 34 36  1  0  0  0  0
 35 34  1  0  0  0  0
 36 37  1  0  0  0  0
 38 36  2  0  0  0  0
 39 32  1  0  0  0  0
 41 33  1  0  0  0  0
 43 35  1  0  0  0  0
M  END
$$$$
