GRT.pdb
 OpenBabel07022418213D

 46 45  0  0  1  0  0  0  0  0999 V2000
   -0.4230   -3.1450    4.1520 N   0  0  0  0  0  0  0  0  0  0  0  0
   -0.4470   -1.9790    4.9640 C   0  0  0  0  0  0  0  0  0  0  0  0
    0.0280   -0.7610    4.2520 C   0  0  0  0  0  0  0  0  0  0  0  0
    0.0780    0.3670    4.8110 O   0  0  0  0  0  0  0  0  0  0  0  0
   -0.4200   -4.0360    4.6530 H   0  0  0  0  0  0  0  0  0  0  0  0
   -0.9160   -3.0990    3.2590 H   0  0  0  0  0  0  0  0  0  0  0  0
    0.0590   -2.1680    5.9080 H   0  0  0  0  0  0  0  0  0  0  0  0
   -1.5290   -1.7720    5.2110 H   0  0  0  0  0  0  0  0  0  0  0  0
    2.8450   -1.0830   -2.4650 N   0  0  0  0  0  0  0  0  0  0  0  0
    3.1130    0.2280   -1.9910 C   0  0  0  0  0  0  0  0  0  0  0  0
    4.2680    0.8160   -2.1340 N   0  0  0  0  0  0  0  0  0  0  0  0
    2.0830    0.9750   -1.3120 N   0  0  0  0  0  0  0  0  0  0  0  0
    2.4990    1.8760   -0.2700 C   0  0  0  0  0  0  0  0  0  0  0  0
    3.0420    1.1880    0.9340 C   0  0  0  0  0  0  0  0  0  0  0  0
    2.2250    0.1880    1.6210 C   0  0  0  0  0  0  0  0  0  0  0  0
    0.9190    0.4460    2.2300 C   0  0  2  0  0  0  0  0  0  0  0  0
    0.4510   -0.8070    2.9020 N   0  0  0  0  0  0  0  0  0  0  0  0
   -0.1860    0.7090    1.2750 C   0  0  0  0  0  0  0  0  0  0  0  0
   -0.3170    1.7350    0.5730 O   0  0  0  0  0  0  0  0  0  0  0  0
    2.1460   -1.2990   -3.2000 H   0  0  0  0  0  0  0  0  0  0  0  0
    3.3840   -1.8670   -2.0480 H   0  0  0  0  0  0  0  0  0  0  0  0
    5.0000    0.2600   -2.6260 H   0  0  0  0  0  0  0  0  0  0  0  0
    1.0860    0.8280   -1.6090 H   0  0  0  0  0  0  0  0  0  0  0  0
    3.4110    2.4680   -0.7550 H   0  0  0  0  0  0  0  0  0  0  0  0
    1.8100    2.7020   -0.1280 H   0  0  0  0  0  0  0  0  0  0  0  0
    3.4580    1.9550    1.6710 H   0  0  0  0  0  0  0  0  0  0  0  0
    4.0410    0.7200    0.5780 H   0  0  0  0  0  0  0  0  0  0  0  0
    2.9130   -0.2760    2.4350 H   0  0  0  0  0  0  0  0  0  0  0  0
    2.1740   -0.7020    0.8900 H   0  0  0  0  0  0  0  0  0  0  0  0
    0.9440    1.2400    2.9710 H   0  0  0  0  0  0  0  0  0  0  0  0
    0.4540   -1.6770    2.3730 H   0  0  0  0  0  0  0  0  0  0  0  0
   -2.4320   -2.4290   -0.5490 C   0  0  0  0  0  0  0  0  0  0  0  0
   -2.3090   -1.0160   -0.9950 C   0  0  1  0  0  0  0  0  0  0  0  0
   -3.3720   -0.7180   -1.8430 O   0  0  0  0  0  0  0  0  0  0  0  0
   -2.3430   -0.0030    0.1290 C   0  0  2  0  0  0  0  0  0  0  0  0
   -1.2600   -0.2490    1.0610 N   0  0  0  0  0  0  0  0  0  0  0  0
   -3.6500   -0.0860    0.8210 C   0  0  0  0  0  0  0  0  0  0  0  0
   -4.6880    0.0990    0.1690 O   0  0  0  0  0  0  0  0  0  0  0  0
   -3.7570   -0.3670    2.1820 O   0  0  0  0  0  0  0  0  0  0  0  0
   -1.7180   -3.0400   -1.1760 H   0  0  0  0  0  0  0  0  0  0  0  0
   -2.1720   -2.6250    0.4940 H   0  0  0  0  0  0  0  0  0  0  0  0
   -3.4560   -2.8630   -0.7130 H   0  0  0  0  0  0  0  0  0  0  0  0
   -1.3510   -0.8440   -1.5310 H   0  0  0  0  0  0  0  0  0  0  0  0
   -3.0810   -0.7270   -2.7830 H   0  0  0  0  0  0  0  0  0  0  0  0
   -2.1850    1.0020   -0.3160 H   0  0  0  0  0  0  0  0  0  0  0  0
   -1.2880   -1.1490    1.5760 H   0  0  0  0  0  0  0  0  0  0  0  0
  1  5  1  0  0  0  0
  1  2  1  0  0  0  0
  2  8  1  0  0  0  0
  2  7  1  0  0  0  0
  3  4  2  0  0  0  0
  3  2  1  0  0  0  0
  6  1  1  0  0  0  0
  9 21  1  0  0  0  0
  9 10  1  0  0  0  0
 10 12  1  0  0  0  0
 11 10  2  0  0  0  0
 12 13  1  0  0  0  0
 13 25  1  0  0  0  0
 13 14  1  0  0  0  0
 14 15  1  0  0  0  0
 14 26  1  0  0  0  0
 15 16  1  0  0  0  0
 15 28  1  0  0  0  0
 16 17  1  0  0  0  0
 16 30  1  1  0  0  0
 17  3  1  0  0  0  0
 18 16  1  0  0  0  0
 19 18  2  0  0  0  0
 20  9  1  0  0  0  0
 22 11  1  0  0  0  0
 23 12  1  0  0  0  0
 24 13  1  0  0  0  0
 27 14  1  0  0  0  0
 29 15  1  0  0  0  0
 31 17  1  0  0  0  0
 32 41  1  0  0  0  0
 33 43  1  6  0  0  0
 33 32  1  0  0  0  0
 33 35  1  0  0  0  0
 34 33  1  0  0  0  0
 35 45  1  6  0  0  0
 35 37  1  0  0  0  0
 35 36  1  0  0  0  0
 36 18  1  0  0  0  0
 36 46  1  0  0  0  0
 37 39  1  0  0  0  0
 38 37  2  0  0  0  0
 40 32  1  0  0  0  0
 42 32  1  0  0  0  0
 44 34  1  0  0  0  0
M  END
$$$$
