GRV.pdb
 OpenBabel07022418213D

 48 47  0  0  1  0  0  0  0  0999 V2000
    0.7680   -4.8640    1.6080 N   0  0  0  0  0  0  0  0  0  0  0  0
    1.9800   -4.1130    1.8170 C   0  0  0  0  0  0  0  0  0  0  0  0
    1.9560   -2.7720    1.2270 C   0  0  0  0  0  0  0  0  0  0  0  0
    2.9910   -2.0620    1.3800 O   0  0  0  0  0  0  0  0  0  0  0  0
    0.1100   -4.6760    2.3890 H   0  0  0  0  0  0  0  0  0  0  0  0
    0.3650   -4.7300    0.6660 H   0  0  0  0  0  0  0  0  0  0  0  0
    2.2500   -4.1060    2.8790 H   0  0  0  0  0  0  0  0  0  0  0  0
    2.8000   -4.6830    1.2970 H   0  0  0  0  0  0  0  0  0  0  0  0
    3.2800    2.0420    1.0310 N   0  0  0  0  0  0  0  0  0  0  0  0
    3.2560    1.6440   -0.3200 C   0  0  0  0  0  0  0  0  0  0  0  0
    4.1400    0.7860   -0.7540 N   0  0  0  0  0  0  0  0  0  0  0  0
    2.3190    2.1010   -1.2830 N   0  0  0  0  0  0  0  0  0  0  0  0
    1.7250    1.3980   -2.3330 C   0  0  0  0  0  0  0  0  0  0  0  0
    0.6870    0.3970   -2.2190 C   0  0  0  0  0  0  0  0  0  0  0  0
    0.7340   -0.8720   -1.5190 C   0  0  0  0  0  0  0  0  0  0  0  0
    0.9040   -0.8560   -0.0660 C   0  0  2  0  0  0  0  0  0  0  0  0
    0.8930   -2.2090    0.5120 N   0  0  0  0  0  0  0  0  0  0  0  0
   -0.1510   -0.0510    0.5990 C   0  0  0  0  0  0  0  0  0  0  0  0
   -0.3550    1.1600    0.3330 O   0  0  0  0  0  0  0  0  0  0  0  0
    3.4970    1.3770    1.8300 H   0  0  0  0  0  0  0  0  0  0  0  0
    3.0790    3.0220    1.2920 H   0  0  0  0  0  0  0  0  0  0  0  0
    4.8340    0.4270   -0.0770 H   0  0  0  0  0  0  0  0  0  0  0  0
    2.0520    3.1390   -1.1490 H   0  0  0  0  0  0  0  0  0  0  0  0
    2.5500    0.9690   -3.0420 H   0  0  0  0  0  0  0  0  0  0  0  0
    1.3090    2.1980   -3.0630 H   0  0  0  0  0  0  0  0  0  0  0  0
   -0.3420    0.9140   -1.9710 H   0  0  0  0  0  0  0  0  0  0  0  0
    0.4180    0.1410   -3.3370 H   0  0  0  0  0  0  0  0  0  0  0  0
   -0.2660   -1.3980   -1.7440 H   0  0  0  0  0  0  0  0  0  0  0  0
    1.4760   -1.5790   -2.0050 H   0  0  0  0  0  0  0  0  0  0  0  0
    1.8780   -0.4630    0.2640 H   0  0  0  0  0  0  0  0  0  0  0  0
    0.0170   -2.7450    0.3550 H   0  0  0  0  0  0  0  0  0  0  0  0
   -3.5640   -1.8560    2.1380 C   0  0  0  0  0  0  0  0  0  0  0  0
   -3.3740   -0.4130    1.8040 C   0  0  0  0  0  0  0  0  0  0  0  0
   -3.5270   -0.2090    0.3310 C   0  0  0  0  0  0  0  0  0  0  0  0
   -2.0450    0.1510    2.2590 C   0  0  2  0  0  0  0  0  0  0  0  0
   -1.0120   -0.6180    1.5990 N   0  0  0  0  0  0  0  0  0  0  0  0
   -1.8470    0.1100    3.7020 C   0  0  0  0  0  0  0  0  0  0  0  0
   -0.8900   -0.5330    4.2010 O   0  0  0  0  0  0  0  0  0  0  0  0
   -2.7070    0.7750    4.5540 O   0  0  0  0  0  0  0  0  0  0  0  0
   -4.6570   -2.0920    2.2570 H   0  0  0  0  0  0  0  0  0  0  0  0
   -3.2200   -2.5350    1.3150 H   0  0  0  0  0  0  0  0  0  0  0  0
   -3.0550   -2.1900    3.0520 H   0  0  0  0  0  0  0  0  0  0  0  0
   -4.1560    0.2330    2.3000 H   0  0  0  0  0  0  0  0  0  0  0  0
   -2.6720   -0.5620   -0.2700 H   0  0  0  0  0  0  0  0  0  0  0  0
   -3.7520    0.8720    0.1750 H   0  0  0  0  0  0  0  0  0  0  0  0
   -4.4130   -0.7810   -0.0080 H   0  0  0  0  0  0  0  0  0  0  0  0
   -2.0000    1.1950    1.8830 H   0  0  0  0  0  0  0  0  0  0  0  0
   -0.8710   -1.6180    1.8420 H   0  0  0  0  0  0  0  0  0  0  0  0
  1  2  1  0  0  0  0
  1  5  1  0  0  0  0
  2  7  1  0  0  0  0
  3  4  2  0  0  0  0
  3  2  1  0  0  0  0
  6  1  1  0  0  0  0
  8  2  1  0  0  0  0
  9 21  1  0  0  0  0
  9 20  1  0  0  0  0
 10  9  1  0  0  0  0
 11 10  2  0  0  0  0
 11 22  1  0  0  0  0
 12 23  1  0  0  0  0
 12 10  1  0  0  0  0
 13 14  1  0  0  0  0
 13 12  1  0  0  0  0
 14 26  1  0  0  0  0
 14 15  1  0  0  0  0
 15 16  1  0  0  0  0
 16 30  1  1  0  0  0
 16 17  1  0  0  0  0
 16 18  1  0  0  0  0
 17  3  1  0  0  0  0
 18 36  1  0  0  0  0
 19 18  2  0  0  0  0
 24 13  1  0  0  0  0
 25 13  1  0  0  0  0
 27 14  1  0  0  0  0
 28 15  1  0  0  0  0
 29 15  1  0  0  0  0
 31 17  1  0  0  0  0
 32 40  1  0  0  0  0
 32 42  1  0  0  0  0
 33 32  1  0  0  0  0
 33 35  1  0  0  0  0
 33 43  1  0  0  0  0
 34 33  1  0  0  0  0
 35 47  1  6  0  0  0
 35 37  1  0  0  0  0
 36 48  1  0  0  0  0
 36 35  1  0  0  0  0
 37 38  2  0  0  0  0
 37 39  1  0  0  0  0
 41 32  1  0  0  0  0
 44 34  1  0  0  0  0
 45 34  1  0  0  0  0
 46 34  1  0  0  0  0
M  END
$$$$
