GRW.pdb
 OpenBabel07022418213D

 56 57  0  0  1  0  0  0  0  0999 V2000
   -0.6110    0.7370    2.9330 N   0  0  0  0  0  0  0  0  0  0  0  0
    0.3800    1.7520    2.6370 C   0  0  0  0  0  0  0  0  0  0  0  0
    1.0130    1.4330    1.3480 C   0  0  0  0  0  0  0  0  0  0  0  0
    1.9080    2.1250    0.8110 O   0  0  0  0  0  0  0  0  0  0  0  0
   -1.3870    0.7560    2.2460 H   0  0  0  0  0  0  0  0  0  0  0  0
   -0.9950    0.9140    3.8810 H   0  0  0  0  0  0  0  0  0  0  0  0
   -0.0320    2.7780    2.6990 H   0  0  0  0  0  0  0  0  0  0  0  0
    1.2080    1.6620    3.4040 H   0  0  0  0  0  0  0  0  0  0  0  0
    6.4810    0.0840    2.6310 N   0  0  0  0  0  0  0  0  0  0  0  0
    5.7680   -0.7300    1.7240 C   0  0  0  0  0  0  0  0  0  0  0  0
    6.0070   -0.6980    0.4340 N   0  0  0  0  0  0  0  0  0  0  0  0
    4.7500   -1.6390    2.1080 N   0  0  0  0  0  0  0  0  0  0  0  0
    3.8200   -2.2040    1.1550 C   0  0  0  0  0  0  0  0  0  0  0  0
    2.9520   -1.0750    0.6920 C   0  0  0  0  0  0  0  0  0  0  0  0
    1.9100   -1.4440   -0.3210 C   0  0  0  0  0  0  0  0  0  0  0  0
    1.1570   -0.1330   -0.6230 C   0  0  2  0  0  0  0  0  0  0  0  0
    0.6050    0.2740    0.6440 N   0  0  0  0  0  0  0  0  0  0  0  0
    0.1890   -0.3530   -1.6880 C   0  0  0  0  0  0  0  0  0  0  0  0
    0.6330   -0.6990   -2.8200 O   0  0  0  0  0  0  0  0  0  0  0  0
    6.0730    0.9800    2.9430 H   0  0  0  0  0  0  0  0  0  0  0  0
    7.4060   -0.1990    2.9910 H   0  0  0  0  0  0  0  0  0  0  0  0
    6.7220   -0.0830    0.0110 H   0  0  0  0  0  0  0  0  0  0  0  0
    4.6760   -1.9010    3.1050 H   0  0  0  0  0  0  0  0  0  0  0  0
    3.1840   -2.9720    1.6740 H   0  0  0  0  0  0  0  0  0  0  0  0
    4.3180   -2.7550    0.3310 H   0  0  0  0  0  0  0  0  0  0  0  0
    3.6310   -0.2950    0.2410 H   0  0  0  0  0  0  0  0  0  0  0  0
    2.5050   -0.6100    1.5850 H   0  0  0  0  0  0  0  0  0  0  0  0
    2.3820   -1.7970   -1.2380 H   0  0  0  0  0  0  0  0  0  0  0  0
    1.2370   -2.1910    0.1000 H   0  0  0  0  0  0  0  0  0  0  0  0
    1.8770    0.6540   -0.9250 H   0  0  0  0  0  0  0  0  0  0  0  0
   -0.1370   -0.3280    1.0550 H   0  0  0  0  0  0  0  0  0  0  0  0
   -1.2270   -0.2130   -1.5710 N   0  0  0  0  0  0  0  0  0  0  0  0
   -2.0930   -0.4500   -2.6760 C   0  0  1  0  0  0  0  0  0  0  0  0
   -2.8410   -1.7360   -2.4880 C   0  0  0  0  0  0  0  0  0  0  0  0
   -3.6770   -1.7690   -1.2690 C   0  0  0  0  0  0  0  0  0  0  0  0
   -5.0500   -1.4820   -1.2180 C   0  0  0  0  0  0  0  0  0  0  0  0
   -5.4970   -1.5780    0.0370 N   0  0  0  0  0  0  0  0  0  0  0  0
   -4.4650   -1.9200    0.8280 C   0  0  0  0  0  0  0  0  0  0  0  0
   -4.3700   -2.1590    2.1910 C   0  0  0  0  0  0  0  0  0  0  0  0
   -3.1790   -2.5160    2.7800 C   0  0  0  0  0  0  0  0  0  0  0  0
   -2.0690   -2.6290    1.9560 C   0  0  0  0  0  0  0  0  0  0  0  0
   -2.1060   -2.4060    0.6090 C   0  0  0  0  0  0  0  0  0  0  0  0
   -3.3240   -2.0450    0.0370 C   0  0  0  0  0  0  0  0  0  0  0  0
   -2.9680    0.6790   -3.0080 C   0  0  0  0  0  0  0  0  0  0  0  0
   -2.9180    1.7260   -2.3410 O   0  0  0  0  0  0  0  0  0  0  0  0
   -3.8450    0.5790   -4.0590 O   0  0  0  0  0  0  0  0  0  0  0  0
   -1.6120    0.0870   -0.6400 H   0  0  0  0  0  0  0  0  0  0  0  0
   -1.4360   -0.5950   -3.5940 H   0  0  0  0  0  0  0  0  0  0  0  0
   -3.4350   -1.9110   -3.4100 H   0  0  0  0  0  0  0  0  0  0  0  0
   -2.0650   -2.5500   -2.4230 H   0  0  0  0  0  0  0  0  0  0  0  0
   -5.6070   -1.2280   -2.1020 H   0  0  0  0  0  0  0  0  0  0  0  0
   -6.4780   -1.4220    0.4000 H   0  0  0  0  0  0  0  0  0  0  0  0
   -5.2390   -2.0640    2.8030 H   0  0  0  0  0  0  0  0  0  0  0  0
   -3.0820   -2.7070    3.8420 H   0  0  0  0  0  0  0  0  0  0  0  0
   -1.1210   -2.9150    2.4350 H   0  0  0  0  0  0  0  0  0  0  0  0
   -1.2160   -2.5060   -0.0260 H   0  0  0  0  0  0  0  0  0  0  0  0
  1  6  1  0  0  0  0
  2  7  1  0  0  0  0
  2  1  1  0  0  0  0
  2  8  1  0  0  0  0
  3  2  1  0  0  0  0
  4  3  2  0  0  0  0
  5  1  1  0  0  0  0
  9 20  1  0  0  0  0
  9 21  1  0  0  0  0
 10 12  1  0  0  0  0
 10  9  1  0  0  0  0
 11 10  2  0  0  0  0
 12 23  1  0  0  0  0
 13 24  1  0  0  0  0
 13 12  1  0  0  0  0
 14 13  1  0  0  0  0
 14 27  1  0  0  0  0
 15 29  1  0  0  0  0
 15 14  1  0  0  0  0
 16 30  1  6  0  0  0
 16 15  1  0  0  0  0
 16 17  1  0  0  0  0
 17 31  1  0  0  0  0
 17  3  1  0  0  0  0
 18 32  1  0  0  0  0
 18 16  1  0  0  0  0
 19 18  2  0  0  0  0
 22 11  1  0  0  0  0
 25 13  1  0  0  0  0
 26 14  1  0  0  0  0
 28 15  1  0  0  0  0
 32 47  1  0  0  0  0
 33 48  1  6  0  0  0
 33 34  1  0  0  0  0
 33 32  1  0  0  0  0
 34 50  1  0  0  0  0
 34 35  1  0  0  0  0
 35 36  2  0  0  0  0
 35 43  1  0  0  0  0
 36 37  1  0  0  0  0
 37 52  1  0  0  0  0
 37 38  1  0  0  0  0
 38 39  1  0  0  0  0
 39 40  2  0  0  0  0
 39 53  1  0  0  0  0
 40 54  1  0  0  0  0
 41 55  1  0  0  0  0
 41 40  1  0  0  0  0
 42 41  2  0  0  0  0
 43 42  1  0  0  0  0
 43 38  2  0  0  0  0
 44 33  1  0  0  0  0
 44 45  1  0  0  0  0
 46 44  2  0  0  0  0
 49 34  1  0  0  0  0
 51 36  1  0  0  0  0
 56 42  1  0  0  0  0
M  END
$$$$
