GRY.pdb
 OpenBabel07022418213D

 53 53  0  0  1  0  0  0  0  0999 V2000
    1.2650   -2.7990    2.0770 N   0  0  0  0  0  0  0  0  0  0  0  0
    0.1500   -3.4910    2.6710 C   0  0  0  0  0  0  0  0  0  0  0  0
   -1.0740   -2.6610    2.5950 C   0  0  0  0  0  0  0  0  0  0  0  0
   -2.1370   -3.1320    3.0730 O   0  0  0  0  0  0  0  0  0  0  0  0
    1.4030   -1.9100    2.5670 H   0  0  0  0  0  0  0  0  0  0  0  0
    1.1450   -2.7680    1.0580 H   0  0  0  0  0  0  0  0  0  0  0  0
   -0.0050   -4.5050    2.2290 H   0  0  0  0  0  0  0  0  0  0  0  0
    0.4120   -3.6330    3.7440 H   0  0  0  0  0  0  0  0  0  0  0  0
    2.9360    1.2290    1.6820 N   0  0  0  0  0  0  0  0  0  0  0  0
    1.9630    1.3500    2.7100 C   0  0  0  0  0  0  0  0  0  0  0  0
    2.2880    1.3790    3.9690 N   0  0  0  0  0  0  0  0  0  0  0  0
    0.5660    1.4470    2.4550 N   0  0  0  0  0  0  0  0  0  0  0  0
   -0.3860    1.9430    3.4190 C   0  0  0  0  0  0  0  0  0  0  0  0
   -1.7840    1.8200    2.9930 C   0  0  0  0  0  0  0  0  0  0  0  0
   -2.4830    0.5900    2.7790 C   0  0  0  0  0  0  0  0  0  0  0  0
   -2.2520   -0.5340    1.9160 C   0  0  2  0  0  0  0  0  0  0  0  0
   -1.0940   -1.3420    1.9980 N   0  0  0  0  0  0  0  0  0  0  0  0
   -2.5800   -0.3740    0.4760 C   0  0  0  0  0  0  0  0  0  0  0  0
   -3.6030    0.2780    0.1670 O   0  0  0  0  0  0  0  0  0  0  0  0
    2.7620    1.5210    0.7200 H   0  0  0  0  0  0  0  0  0  0  0  0
    3.8650    0.8250    1.9230 H   0  0  0  0  0  0  0  0  0  0  0  0
    3.3070    1.3080    4.1800 H   0  0  0  0  0  0  0  0  0  0  0  0
    0.2440    1.1630    1.5100 H   0  0  0  0  0  0  0  0  0  0  0  0
   -0.1730    1.5080    4.4360 H   0  0  0  0  0  0  0  0  0  0  0  0
   -0.0940    3.0290    3.5830 H   0  0  0  0  0  0  0  0  0  0  0  0
   -2.3850    2.3900    3.7910 H   0  0  0  0  0  0  0  0  0  0  0  0
   -1.9180    2.5940    2.1490 H   0  0  0  0  0  0  0  0  0  0  0  0
   -2.6600    0.1440    3.8400 H   0  0  0  0  0  0  0  0  0  0  0  0
   -3.5770    0.8990    2.5650 H   0  0  0  0  0  0  0  0  0  0  0  0
   -3.0940   -1.2730    2.2160 H   0  0  0  0  0  0  0  0  0  0  0  0
   -0.1810   -1.0550    1.6200 H   0  0  0  0  0  0  0  0  0  0  0  0
    4.0800   -2.5440   -2.0040 O   0  0  0  0  0  0  0  0  0  0  0  0
    2.8350   -1.9600   -2.2060 C   0  0  0  0  0  0  0  0  0  0  0  0
    2.4250   -1.0410   -1.2750 C   0  0  0  0  0  0  0  0  0  0  0  0
    1.1860   -0.4200   -1.4220 C   0  0  0  0  0  0  0  0  0  0  0  0
    0.3610   -0.7090   -2.4870 C   0  0  0  0  0  0  0  0  0  0  0  0
   -0.9500   -0.0380   -2.6250 C   0  0  0  0  0  0  0  0  0  0  0  0
   -2.0730   -0.7970   -1.9530 C   0  0  2  0  0  0  0  0  0  0  0  0
   -1.7830   -0.9280   -0.5380 N   0  0  0  0  0  0  0  0  0  0  0  0
   -2.2590   -2.1400   -2.5540 C   0  0  0  0  0  0  0  0  0  0  0  0
   -2.5180   -2.3120   -3.7710 O   0  0  0  0  0  0  0  0  0  0  0  0
    0.8100   -1.6340   -3.3960 C   0  0  0  0  0  0  0  0  0  0  0  0
    2.0300   -2.2640   -3.2760 C   0  0  0  0  0  0  0  0  0  0  0  0
   -2.1480   -3.2900   -1.7660 O   0  0  0  0  0  0  0  0  0  0  0  0
    4.5190   -3.1910   -2.6630 H   0  0  0  0  0  0  0  0  0  0  0  0
    3.0570   -0.7930   -0.4200 H   0  0  0  0  0  0  0  0  0  0  0  0
    0.8550    0.2960   -0.7040 H   0  0  0  0  0  0  0  0  0  0  0  0
   -0.9430    1.0140   -2.2420 H   0  0  0  0  0  0  0  0  0  0  0  0
   -1.1900   -0.0140   -3.7050 H   0  0  0  0  0  0  0  0  0  0  0  0
   -3.0320   -0.2510   -2.0170 H   0  0  0  0  0  0  0  0  0  0  0  0
   -0.9480   -1.4540   -0.2210 H   0  0  0  0  0  0  0  0  0  0  0  0
    0.1820   -1.8870   -4.2510 H   0  0  0  0  0  0  0  0  0  0  0  0
    2.3820   -2.9840   -3.9830 H   0  0  0  0  0  0  0  0  0  0  0  0
  1  5  1  0  0  0  0
  1  2  1  0  0  0  0
  2  8  1  0  0  0  0
  3  2  1  0  0  0  0
  3  4  2  0  0  0  0
  6  1  1  0  0  0  0
  7  2  1  0  0  0  0
  9 21  1  0  0  0  0
  9 10  1  0  0  0  0
 10 11  2  0  0  0  0
 11 22  1  0  0  0  0
 12 10  1  0  0  0  0
 12 13  1  0  0  0  0
 13 25  1  0  0  0  0
 13 24  1  0  0  0  0
 14 13  1  0  0  0  0
 14 26  1  0  0  0  0
 15 14  1  0  0  0  0
 15 28  1  0  0  0  0
 16 17  1  0  0  0  0
 16 30  1  1  0  0  0
 16 15  1  0  0  0  0
 17  3  1  0  0  0  0
 18 16  1  0  0  0  0
 19 18  2  0  0  0  0
 20  9  1  0  0  0  0
 23 12  1  0  0  0  0
 27 14  1  0  0  0  0
 29 15  1  0  0  0  0
 31 17  1  0  0  0  0
 33 32  1  0  0  0  0
 33 34  1  0  0  0  0
 34 46  1  0  0  0  0
 35 34  2  0  0  0  0
 35 47  1  0  0  0  0
 36 35  1  0  0  0  0
 37 36  1  0  0  0  0
 37 48  1  0  0  0  0
 37 38  1  0  0  0  0
 38 50  1  6  0  0  0
 38 39  1  0  0  0  0
 39 51  1  0  0  0  0
 39 18  1  0  0  0  0
 40 38  1  0  0  0  0
 40 44  1  0  0  0  0
 41 40  2  0  0  0  0
 42 43  1  0  0  0  0
 42 36  2  0  0  0  0
 43 33  2  0  0  0  0
 45 32  1  0  0  0  0
 49 37  1  0  0  0  0
 52 42  1  0  0  0  0
 53 43  1  0  0  0  0
M  END
$$$$
