GSA.pdb
 OpenBabel07022418243D

 30 29  0  0  1  0  0  0  0  0999 V2000
   -0.6870   -5.1940    3.4630 N   0  0  0  0  0  0  0  0  0  0  0  0
    0.1470   -4.0260    3.4000 C   0  0  0  0  0  0  0  0  0  0  0  0
   -0.4750   -3.0550    2.4660 C   0  0  0  0  0  0  0  0  0  0  0  0
   -1.5560   -3.3290    1.8880 O   0  0  0  0  0  0  0  0  0  0  0  0
   -1.2130   -5.3000    4.3410 H   0  0  0  0  0  0  0  0  0  0  0  0
   -1.3330   -5.3050    2.6710 H   0  0  0  0  0  0  0  0  0  0  0  0
    1.1490   -4.3520    3.0520 H   0  0  0  0  0  0  0  0  0  0  0  0
    0.2350   -3.5810    4.4170 H   0  0  0  0  0  0  0  0  0  0  0  0
   -1.7040    0.1090    3.1300 O   0  0  0  0  0  0  0  0  0  0  0  0
   -0.8020    0.4180    2.1230 C   0  0  0  0  0  0  0  0  0  0  0  0
   -0.4710   -0.8210    1.2810 C   0  0  2  0  0  0  0  0  0  0  0  0
    0.1000   -1.7870    2.1780 N   0  0  0  0  0  0  0  0  0  0  0  0
    0.5430   -0.3620    0.2800 C   0  0  0  0  0  0  0  0  0  0  0  0
    1.7030   -0.8450    0.3390 O   0  0  0  0  0  0  0  0  0  0  0  0
   -1.2000   -0.2070    3.9060 H   0  0  0  0  0  0  0  0  0  0  0  0
    0.1310    0.7690    2.6110 H   0  0  0  0  0  0  0  0  0  0  0  0
   -1.1420    1.2540    1.4750 H   0  0  0  0  0  0  0  0  0  0  0  0
   -1.4070   -1.1370    0.8220 H   0  0  0  0  0  0  0  0  0  0  0  0
    0.9980   -1.5470    2.6510 H   0  0  0  0  0  0  0  0  0  0  0  0
    0.7190    0.5340   -3.0520 C   0  0  0  0  0  0  0  0  0  0  0  0
    1.2350    1.0390   -1.6970 C   0  0  2  0  0  0  0  0  0  0  0  0
    0.2680    0.5800   -0.7180 N   0  0  0  0  0  0  0  0  0  0  0  0
    1.3070    2.5040   -1.7760 C   0  0  0  0  0  0  0  0  0  0  0  0
    0.5710    3.1930   -1.0350 O   0  0  0  0  0  0  0  0  0  0  0  0
    2.1580    3.1620   -2.6390 O   0  0  0  0  0  0  0  0  0  0  0  0
    1.3130    0.9520   -3.8830 H   0  0  0  0  0  0  0  0  0  0  0  0
    0.7570   -0.5740   -2.9950 H   0  0  0  0  0  0  0  0  0  0  0  0
   -0.3470    0.8170   -3.0920 H   0  0  0  0  0  0  0  0  0  0  0  0
    2.2210    0.5580   -1.5650 H   0  0  0  0  0  0  0  0  0  0  0  0
   -0.6950    0.9780   -0.7630 H   0  0  0  0  0  0  0  0  0  0  0  0
  1  5  1  0  0  0  0
  2  1  1  0  0  0  0
  2  8  1  0  0  0  0
  3  2  1  0  0  0  0
  4  3  2  0  0  0  0
  6  1  1  0  0  0  0
  7  2  1  0  0  0  0
  9 15  1  0  0  0  0
 10 16  1  0  0  0  0
 10  9  1  0  0  0  0
 11 18  1  6  0  0  0
 11 10  1  0  0  0  0
 11 12  1  0  0  0  0
 12  3  1  0  0  0  0
 12 19  1  0  0  0  0
 13 14  2  0  0  0  0
 13 11  1  0  0  0  0
 17 10  1  0  0  0  0
 20 27  1  0  0  0  0
 20 21  1  0  0  0  0
 21 29  1  1  0  0  0
 21 22  1  0  0  0  0
 22 13  1  0  0  0  0
 23 21  1  0  0  0  0
 23 24  1  0  0  0  0
 25 23  2  0  0  0  0
 26 20  1  0  0  0  0
 28 20  1  0  0  0  0
 30 22  1  0  0  0  0
M  END
$$$$
