GSC.pdb
 OpenBabel07022418243D

 31 30  0  0  1  0  0  0  0  0999 V2000
    0.8170   -5.7410   -1.4900 N   0  0  0  0  0  0  0  0  0  0  0  0
   -0.1310   -4.6460   -1.4040 C   0  0  0  0  0  0  0  0  0  0  0  0
    0.5640   -3.4570   -0.8880 C   0  0  0  0  0  0  0  0  0  0  0  0
    1.8000   -3.4900   -0.5950 O   0  0  0  0  0  0  0  0  0  0  0  0
    1.6690   -5.5220   -0.9340 H   0  0  0  0  0  0  0  0  0  0  0  0
    0.3920   -6.6240   -1.1390 H   0  0  0  0  0  0  0  0  0  0  0  0
   -0.5830   -4.4870   -2.4030 H   0  0  0  0  0  0  0  0  0  0  0  0
   -0.9550   -4.9680   -0.7360 H   0  0  0  0  0  0  0  0  0  0  0  0
   -0.9720    0.2200   -1.5790 O   0  0  0  0  0  0  0  0  0  0  0  0
    0.3820    0.0280   -1.3030 C   0  0  0  0  0  0  0  0  0  0  0  0
    0.5070   -1.0290   -0.1970 C   0  0  2  0  0  0  0  0  0  0  0  0
   -0.0920   -2.2230   -0.6910 N   0  0  0  0  0  0  0  0  0  0  0  0
   -0.1970   -0.4620    0.9850 C   0  0  0  0  0  0  0  0  0  0  0  0
   -1.2120   -1.0280    1.4520 O   0  0  0  0  0  0  0  0  0  0  0  0
   -1.3800    0.9120   -1.0030 H   0  0  0  0  0  0  0  0  0  0  0  0
    0.8370   -0.4150   -2.2230 H   0  0  0  0  0  0  0  0  0  0  0  0
    0.8950    0.9550   -1.0310 H   0  0  0  0  0  0  0  0  0  0  0  0
    1.5770   -1.2150    0.0110 H   0  0  0  0  0  0  0  0  0  0  0  0
   -1.1250   -2.1990   -0.9370 H   0  0  0  0  0  0  0  0  0  0  0  0
    0.2610    0.7170    1.6010 N   0  0  0  0  0  0  0  0  0  0  0  0
   -0.3640    1.3330    2.7510 C   0  0  1  0  0  0  0  0  0  0  0  0
    0.6510    1.2930    3.8770 C   0  0  0  0  0  0  0  0  0  0  0  0
    2.1590    2.1890    3.4490 S   0  0  0  0  0  0  0  0  0  0  0  0
   -0.7580    2.7380    2.4810 C   0  0  0  0  0  0  0  0  0  0  0  0
   -0.5340    3.2530    1.3440 O   0  0  0  0  0  0  0  0  0  0  0  0
   -1.3740    3.5400    3.4240 O   0  0  0  0  0  0  0  0  0  0  0  0
    1.1090    1.1710    1.1940 H   0  0  0  0  0  0  0  0  0  0  0  0
   -1.2520    0.7650    3.0940 H   0  0  0  0  0  0  0  0  0  0  0  0
    0.2000    1.6570    4.8200 H   0  0  0  0  0  0  0  0  0  0  0  0
    0.9420    0.2170    4.0260 H   0  0  0  0  0  0  0  0  0  0  0  0
    1.9960    2.9900    2.3070 H   0  0  0  0  0  0  0  0  0  0  0  0
  1  2  1  0  0  0  0
  1  6  1  0  0  0  0
  1  5  1  0  0  0  0
  2  3  1  0  0  0  0
  2  8  1  0  0  0  0
  3 12  1  0  0  0  0
  3  4  2  0  0  0  0
  7  2  1  0  0  0  0
  9 10  1  0  0  0  0
  9 15  1  0  0  0  0
 10 17  1  0  0  0  0
 10 11  1  0  0  0  0
 11 18  1  1  0  0  0
 11 13  1  0  0  0  0
 12 11  1  0  0  0  0
 13 14  2  0  0  0  0
 13 20  1  0  0  0  0
 16 10  1  0  0  0  0
 19 12  1  0  0  0  0
 20 21  1  0  0  0  0
 21 28  1  1  0  0  0
 21 22  1  0  0  0  0
 22 30  1  0  0  0  0
 22 29  1  0  0  0  0
 23 22  1  0  0  0  0
 24 21  1  0  0  0  0
 24 26  1  0  0  0  0
 25 24  2  0  0  0  0
 27 20  1  0  0  0  0
 31 23  1  0  0  0  0
M  END
$$$$
