GSD.pdb
 OpenBabel07022418243D

 33 32  0  0  1  0  0  0  0  0999 V2000
   -2.3230   -2.3140    2.5370 N   0  0  0  0  0  0  0  0  0  0  0  0
   -1.1250   -2.6340    3.2020 C   0  0  0  0  0  0  0  0  0  0  0  0
    0.1060   -2.5760    2.4240 C   0  0  0  0  0  0  0  0  0  0  0  0
    1.1840   -2.8610    3.0090 O   0  0  0  0  0  0  0  0  0  0  0  0
   -2.5960   -3.0400    1.8310 H   0  0  0  0  0  0  0  0  0  0  0  0
   -2.4200   -1.3870    2.1360 H   0  0  0  0  0  0  0  0  0  0  0  0
   -1.0050   -1.9180    4.0670 H   0  0  0  0  0  0  0  0  0  0  0  0
   -1.2230   -3.6320    3.6750 H   0  0  0  0  0  0  0  0  0  0  0  0
    0.4610   -2.8310   -1.7670 O   0  0  0  0  0  0  0  0  0  0  0  0
    1.4540   -3.1250   -0.8520 C   0  0  0  0  0  0  0  0  0  0  0  0
    1.4530   -2.1820    0.3280 C   0  0  2  0  0  0  0  0  0  0  0  0
    0.1980   -2.2240    1.0530 N   0  0  0  0  0  0  0  0  0  0  0  0
    1.6540   -0.7820   -0.1290 C   0  0  0  0  0  0  0  0  0  0  0  0
    2.6760   -0.4620   -0.7880 O   0  0  0  0  0  0  0  0  0  0  0  0
   -0.4510   -3.0230   -1.4490 H   0  0  0  0  0  0  0  0  0  0  0  0
    1.3320   -4.1580   -0.5220 H   0  0  0  0  0  0  0  0  0  0  0  0
    2.4300   -2.9730   -1.3720 H   0  0  0  0  0  0  0  0  0  0  0  0
    2.2700   -2.4590    1.0050 H   0  0  0  0  0  0  0  0  0  0  0  0
   -0.7090   -1.9900    0.5860 H   0  0  0  0  0  0  0  0  0  0  0  0
    0.7140    0.2660    0.1510 N   0  0  0  0  0  0  0  0  0  0  0  0
    0.9400    1.6290   -0.3110 C   0  0  1  0  0  0  0  0  0  0  0  0
   -0.2070    2.0260   -1.2130 C   0  0  0  0  0  0  0  0  0  0  0  0
   -1.4940    1.9790   -0.4920 C   0  0  0  0  0  0  0  0  0  0  0  0
   -1.6420    1.6810    0.7190 O   0  0  0  0  0  0  0  0  0  0  0  0
    0.9200    2.5810    0.8220 C   0  0  0  0  0  0  0  0  0  0  0  0
    1.0920    3.8030    0.6650 O   0  0  0  0  0  0  0  0  0  0  0  0
   -2.6880    2.2840   -1.1670 O   0  0  0  0  0  0  0  0  0  0  0  0
    0.7030    2.0820    2.0870 O   0  0  0  0  0  0  0  0  0  0  0  0
   -0.1140   -0.0370    0.6980 H   0  0  0  0  0  0  0  0  0  0  0  0
    1.9080    1.6840   -0.8610 H   0  0  0  0  0  0  0  0  0  0  0  0
   -0.0320    3.1000   -1.4870 H   0  0  0  0  0  0  0  0  0  0  0  0
   -0.2350    1.4040   -2.1360 H   0  0  0  0  0  0  0  0  0  0  0  0
   -3.5810    1.9160   -0.8490 H   0  0  0  0  0  0  0  0  0  0  0  0
  1  2  1  0  0  0  0
  2  8  1  0  0  0  0
  2  7  1  0  0  0  0
  3  4  2  0  0  0  0
  3  2  1  0  0  0  0
  5  1  1  0  0  0  0
  6  1  1  0  0  0  0
  9 15  1  0  0  0  0
  9 10  1  0  0  0  0
 10 16  1  0  0  0  0
 10 11  1  0  0  0  0
 11 18  1  1  0  0  0
 11 12  1  0  0  0  0
 12  3  1  0  0  0  0
 13 20  1  0  0  0  0
 13 11  1  0  0  0  0
 14 13  2  0  0  0  0
 17 10  1  0  0  0  0
 19 12  1  0  0  0  0
 20 29  1  0  0  0  0
 21 30  1  6  0  0  0
 21 20  1  0  0  0  0
 21 25  1  0  0  0  0
 22 23  1  0  0  0  0
 22 21  1  0  0  0  0
 23 24  2  0  0  0  0
 25 28  1  0  0  0  0
 26 25  2  0  0  0  0
 27 33  1  0  0  0  0
 27 23  1  0  0  0  0
 31 22  1  0  0  0  0
 32 22  1  0  0  0  0
M  END
$$$$
