GSF.pdb
 OpenBabel07022418243D

 40 40  0  0  1  0  0  0  0  0999 V2000
    0.6440   -4.6790   -3.2660 N   0  0  0  0  0  0  0  0  0  0  0  0
    0.9060   -3.3850   -2.6780 C   0  0  0  0  0  0  0  0  0  0  0  0
    0.7930   -3.4980   -1.2140 C   0  0  0  0  0  0  0  0  0  0  0  0
    0.5070   -4.6100   -0.7070 O   0  0  0  0  0  0  0  0  0  0  0  0
   -0.3680   -4.9170   -3.3140 H   0  0  0  0  0  0  0  0  0  0  0  0
    1.0960   -5.4420   -2.7030 H   0  0  0  0  0  0  0  0  0  0  0  0
    0.1910   -2.6600   -3.1180 H   0  0  0  0  0  0  0  0  0  0  0  0
    1.9570   -3.1280   -2.9280 H   0  0  0  0  0  0  0  0  0  0  0  0
    2.5820   -0.9970    1.4380 O   0  0  0  0  0  0  0  0  0  0  0  0
    2.2250   -2.2940    1.7400 C   0  0  0  0  0  0  0  0  0  0  0  0
    0.8690   -2.5670    1.0870 C   0  0  2  0  0  0  0  0  0  0  0  0
    0.9930   -2.3950   -0.3330 N   0  0  0  0  0  0  0  0  0  0  0  0
   -0.0800   -1.5820    1.6670 C   0  0  0  0  0  0  0  0  0  0  0  0
   -0.3130   -1.5850    2.9030 O   0  0  0  0  0  0  0  0  0  0  0  0
    2.7640   -0.8910    0.4790 H   0  0  0  0  0  0  0  0  0  0  0  0
    2.1490   -2.4240    2.8400 H   0  0  0  0  0  0  0  0  0  0  0  0
    2.9750   -3.0450    1.3960 H   0  0  0  0  0  0  0  0  0  0  0  0
    0.6150   -3.6110    1.3380 H   0  0  0  0  0  0  0  0  0  0  0  0
    1.2280   -1.4750   -0.7310 H   0  0  0  0  0  0  0  0  0  0  0  0
   -0.7640   -0.6060    0.8990 N   0  0  0  0  0  0  0  0  0  0  0  0
   -1.6690    0.3300    1.4690 C   0  0  1  0  0  0  0  0  0  0  0  0
   -1.2740    1.7690    1.2850 C   0  0  0  0  0  0  0  0  0  0  0  0
    0.0260    2.0980    1.8820 C   0  0  0  0  0  0  0  0  0  0  0  0
    1.1560    1.9580    1.1020 C   0  0  0  0  0  0  0  0  0  0  0  0
    2.4240    2.2540    1.6110 C   0  0  0  0  0  0  0  0  0  0  0  0
    2.5620    2.6900    2.9010 C   0  0  0  0  0  0  0  0  0  0  0  0
    1.4370    2.8290    3.6770 C   0  0  0  0  0  0  0  0  0  0  0  0
    0.1900    2.5340    3.1650 C   0  0  0  0  0  0  0  0  0  0  0  0
   -3.0590    0.1790    0.9530 C   0  0  0  0  0  0  0  0  0  0  0  0
   -3.3470   -0.7010    0.1020 O   0  0  0  0  0  0  0  0  0  0  0  0
   -4.0750    1.0120    1.4020 O   0  0  0  0  0  0  0  0  0  0  0  0
   -0.5940   -0.5740   -0.1370 H   0  0  0  0  0  0  0  0  0  0  0  0
   -1.7200    0.1440    2.5630 H   0  0  0  0  0  0  0  0  0  0  0  0
   -2.0460    2.3800    1.8150 H   0  0  0  0  0  0  0  0  0  0  0  0
   -1.3470    2.0920    0.2130 H   0  0  0  0  0  0  0  0  0  0  0  0
    1.1200    1.6210    0.0800 H   0  0  0  0  0  0  0  0  0  0  0  0
    3.3050    2.1400    0.9840 H   0  0  0  0  0  0  0  0  0  0  0  0
    3.5410    2.9260    3.3140 H   0  0  0  0  0  0  0  0  0  0  0  0
    1.5320    3.1760    4.7100 H   0  0  0  0  0  0  0  0  0  0  0  0
   -0.6580    2.6570    3.8090 H   0  0  0  0  0  0  0  0  0  0  0  0
  1  6  1  0  0  0  0
  1  2  1  0  0  0  0
  2  3  1  0  0  0  0
  3  4  2  0  0  0  0
  3 12  1  0  0  0  0
  5  1  1  0  0  0  0
  7  2  1  0  0  0  0
  8  2  1  0  0  0  0
  9 10  1  0  0  0  0
 10 16  1  0  0  0  0
 11 18  1  1  0  0  0
 11 13  1  0  0  0  0
 11 10  1  0  0  0  0
 12 11  1  0  0  0  0
 13 14  2  0  0  0  0
 15  9  1  0  0  0  0
 17 10  1  0  0  0  0
 19 12  1  0  0  0  0
 20 21  1  0  0  0  0
 20 13  1  0  0  0  0
 21 33  1  1  0  0  0
 22 21  1  0  0  0  0
 22 34  1  0  0  0  0
 22 23  1  0  0  0  0
 23 28  1  0  0  0  0
 24 25  1  0  0  0  0
 24 23  2  0  0  0  0
 25 26  2  0  0  0  0
 26 38  1  0  0  0  0
 26 27  1  0  0  0  0
 27 39  1  0  0  0  0
 28 27  2  0  0  0  0
 28 40  1  0  0  0  0
 29 31  1  0  0  0  0
 29 21  1  0  0  0  0
 30 29  2  0  0  0  0
 32 20  1  0  0  0  0
 35 22  1  0  0  0  0
 36 24  1  0  0  0  0
 37 25  1  0  0  0  0
M  END
$$$$
