GSG.pdb
 OpenBabel07022418243D

 27 26  0  0  1  0  0  0  0  0999 V2000
    3.0060   -1.3750    3.5660 N   0  0  0  0  0  0  0  0  0  0  0  0
    3.3430   -2.2240    2.4750 C   0  0  0  0  0  0  0  0  0  0  0  0
    2.3640   -2.2410    1.3850 C   0  0  0  0  0  0  0  0  0  0  0  0
    2.5960   -2.9690    0.3860 O   0  0  0  0  0  0  0  0  0  0  0  0
    3.0120   -0.3730    3.3800 H   0  0  0  0  0  0  0  0  0  0  0  0
    2.2840   -1.7350    4.1950 H   0  0  0  0  0  0  0  0  0  0  0  0
    3.3940   -3.2780    2.8800 H   0  0  0  0  0  0  0  0  0  0  0  0
    4.3870   -2.0260    2.1150 H   0  0  0  0  0  0  0  0  0  0  0  0
   -2.0980   -2.0770   -0.0040 O   0  0  0  0  0  0  0  0  0  0  0  0
   -1.0950   -2.0400    0.9300 C   0  0  0  0  0  0  0  0  0  0  0  0
    0.1900   -1.4550    0.3810 C   0  0  2  0  0  0  0  0  0  0  0  0
    1.1800   -1.4630    1.4390 N   0  0  0  0  0  0  0  0  0  0  0  0
   -0.0190   -0.0780   -0.0620 C   0  0  0  0  0  0  0  0  0  0  0  0
    0.6130    0.8620    0.4790 O   0  0  0  0  0  0  0  0  0  0  0  0
   -1.9210   -2.7750   -0.6850 H   0  0  0  0  0  0  0  0  0  0  0  0
   -1.4380   -1.4960    1.8420 H   0  0  0  0  0  0  0  0  0  0  0  0
   -0.8420   -3.0680    1.2830 H   0  0  0  0  0  0  0  0  0  0  0  0
    0.5430   -2.1390   -0.4100 H   0  0  0  0  0  0  0  0  0  0  0  0
    1.0610   -0.8810    2.3090 H   0  0  0  0  0  0  0  0  0  0  0  0
   -0.9230    0.2680   -1.1000 N   0  0  0  0  0  0  0  0  0  0  0  0
   -1.1140    1.6560   -1.5230 C   0  0  0  0  0  0  0  0  0  0  0  0
   -1.5960    2.4640   -0.3850 C   0  0  0  0  0  0  0  0  0  0  0  0
   -1.8250    3.6800   -0.5230 O   0  0  0  0  0  0  0  0  0  0  0  0
   -1.7980    1.8790    0.8440 O   0  0  0  0  0  0  0  0  0  0  0  0
   -1.4660   -0.4800   -1.5760 H   0  0  0  0  0  0  0  0  0  0  0  0
   -1.8170    1.6800   -2.3780 H   0  0  0  0  0  0  0  0  0  0  0  0
   -0.1150    2.0400   -1.8500 H   0  0  0  0  0  0  0  0  0  0  0  0
  1  6  1  0  0  0  0
  2  7  1  0  0  0  0
  2  1  1  0  0  0  0
  3 12  1  0  0  0  0
  3  2  1  0  0  0  0
  4  3  2  0  0  0  0
  5  1  1  0  0  0  0
  8  2  1  0  0  0  0
  9 10  1  0  0  0  0
 10 17  1  0  0  0  0
 10 16  1  0  0  0  0
 11 18  1  6  0  0  0
 11 10  1  0  0  0  0
 11 12  1  0  0  0  0
 12 19  1  0  0  0  0
 13 11  1  0  0  0  0
 13 14  2  0  0  0  0
 15  9  1  0  0  0  0
 20 13  1  0  0  0  0
 21 20  1  0  0  0  0
 21 22  1  0  0  0  0
 22 24  1  0  0  0  0
 23 22  2  0  0  0  0
 25 20  1  0  0  0  0
 26 21  1  0  0  0  0
 27 21  1  0  0  0  0
M  END
$$$$
