GSI.pdb
 OpenBabel07022418243D

 39 38  0  0  1  0  0  0  0  0999 V2000
    2.4040    0.1610    4.0900 N   0  0  0  0  0  0  0  0  0  0  0  0
    2.9110   -0.8000    3.1400 C   0  0  0  0  0  0  0  0  0  0  0  0
    1.7530   -1.5170    2.4930 C   0  0  0  0  0  0  0  0  0  0  0  0
    0.5920   -1.2120    2.8360 O   0  0  0  0  0  0  0  0  0  0  0  0
    1.4250   -0.0350    4.3880 H   0  0  0  0  0  0  0  0  0  0  0  0
    2.5320    1.1320    3.7910 H   0  0  0  0  0  0  0  0  0  0  0  0
    3.5130   -0.3320    2.3390 H   0  0  0  0  0  0  0  0  0  0  0  0
    3.4950   -1.5520    3.6760 H   0  0  0  0  0  0  0  0  0  0  0  0
   -0.4300   -3.5060    2.7480 O   0  0  0  0  0  0  0  0  0  0  0  0
    0.2590   -4.1640    1.7540 C   0  0  0  0  0  0  0  0  0  0  0  0
    1.0330   -3.2590    0.8360 C   0  0  2  0  0  0  0  0  0  0  0  0
    2.0260   -2.5020    1.5280 N   0  0  0  0  0  0  0  0  0  0  0  0
    0.1560   -2.3710    0.0570 C   0  0  0  0  0  0  0  0  0  0  0  0
   -0.8660   -2.8650   -0.5060 O   0  0  0  0  0  0  0  0  0  0  0  0
   -1.3410   -3.8640    2.8250 H   0  0  0  0  0  0  0  0  0  0  0  0
    1.0440   -4.8060    2.2610 H   0  0  0  0  0  0  0  0  0  0  0  0
   -0.4160   -4.8260    1.1570 H   0  0  0  0  0  0  0  0  0  0  0  0
    1.5540   -3.9780    0.1050 H   0  0  0  0  0  0  0  0  0  0  0  0
    3.0370   -2.7010    1.2950 H   0  0  0  0  0  0  0  0  0  0  0  0
   -1.5310    3.0050   -1.1530 C   0  0  0  0  0  0  0  0  0  0  0  0
   -2.1320    1.7920   -0.5490 C   0  0  0  0  0  0  0  0  0  0  0  0
   -1.1820    0.8050    0.0540 C   0  0  2  0  0  0  0  0  0  0  0  0
   -0.3390    1.3980    1.1390 C   0  0  0  0  0  0  0  0  0  0  0  0
   -0.4980   -0.1270   -0.8800 C   0  0  2  0  0  0  0  0  0  0  0  0
    0.3810   -1.0050   -0.1070 N   0  0  0  0  0  0  0  0  0  0  0  0
    0.1530    0.4180   -2.0580 C   0  0  0  0  0  0  0  0  0  0  0  0
   -0.4330    1.1280   -2.9120 O   0  0  0  0  0  0  0  0  0  0  0  0
    1.5100    0.2110   -2.3700 O   0  0  0  0  0  0  0  0  0  0  0  0
   -1.9090    3.2590   -2.1730 H   0  0  0  0  0  0  0  0  0  0  0  0
   -0.4260    3.0750   -1.0540 H   0  0  0  0  0  0  0  0  0  0  0  0
   -1.8840    3.8990   -0.5380 H   0  0  0  0  0  0  0  0  0  0  0  0
   -2.8480    2.0930    0.2510 H   0  0  0  0  0  0  0  0  0  0  0  0
   -2.7360    1.2680   -1.3260 H   0  0  0  0  0  0  0  0  0  0  0  0
   -1.8980    0.1050    0.6380 H   0  0  0  0  0  0  0  0  0  0  0  0
    0.7520    1.2960    0.9930 H   0  0  0  0  0  0  0  0  0  0  0  0
   -0.5190    2.5150    1.0910 H   0  0  0  0  0  0  0  0  0  0  0  0
   -0.7020    1.0980    2.1220 H   0  0  0  0  0  0  0  0  0  0  0  0
   -1.3050   -0.8200   -1.2720 H   0  0  0  0  0  0  0  0  0  0  0  0
    1.2140   -0.5510    0.3150 H   0  0  0  0  0  0  0  0  0  0  0  0
  1  5  1  0  0  0  0
  2  8  1  0  0  0  0
  2  1  1  0  0  0  0
  3  4  2  0  0  0  0
  3  2  1  0  0  0  0
  6  1  1  0  0  0  0
  7  2  1  0  0  0  0
  9 15  1  0  0  0  0
 10 16  1  0  0  0  0
 10  9  1  0  0  0  0
 11 18  1  6  0  0  0
 11 12  1  0  0  0  0
 11 10  1  0  0  0  0
 12  3  1  0  0  0  0
 13 11  1  0  0  0  0
 14 13  2  0  0  0  0
 17 10  1  0  0  0  0
 19 12  1  0  0  0  0
 20 30  1  0  0  0  0
 20 21  1  0  0  0  0
 20 31  1  0  0  0  0
 21 22  1  0  0  0  0
 21 32  1  0  0  0  0
 22 34  1  1  0  0  0
 22 23  1  0  0  0  0
 23 37  1  0  0  0  0
 24 38  1  6  0  0  0
 24 25  1  0  0  0  0
 24 22  1  0  0  0  0
 25 13  1  0  0  0  0
 25 39  1  0  0  0  0
 26 24  1  0  0  0  0
 27 26  2  0  0  0  0
 28 26  1  0  0  0  0
 29 20  1  0  0  0  0
 33 21  1  0  0  0  0
 35 23  1  0  0  0  0
 36 23  1  0  0  0  0
M  END
$$$$
