GSK.pdb
 OpenBabel07022418243D

 41 40  0  0  1  0  0  0  0  0999 V2000
   -1.3570   -2.2890    3.9940 N   0  0  0  0  0  0  0  0  0  0  0  0
    0.0630   -2.4030    4.2370 C   0  0  0  0  0  0  0  0  0  0  0  0
    0.7430   -2.5450    2.9210 C   0  0  0  0  0  0  0  0  0  0  0  0
    2.0110   -2.6590    2.9310 O   0  0  0  0  0  0  0  0  0  0  0  0
   -1.6700   -1.2950    4.0010 H   0  0  0  0  0  0  0  0  0  0  0  0
   -1.9170   -2.9010    4.6240 H   0  0  0  0  0  0  0  0  0  0  0  0
    0.2240   -3.3870    4.7640 H   0  0  0  0  0  0  0  0  0  0  0  0
    0.4870   -1.5690    4.8030 H   0  0  0  0  0  0  0  0  0  0  0  0
   -1.1520   -3.9770   -0.3690 O   0  0  0  0  0  0  0  0  0  0  0  0
    0.2180   -4.0050   -0.1690 C   0  0  0  0  0  0  0  0  0  0  0  0
    0.7100   -2.6910    0.4460 C   0  0  2  0  0  0  0  0  0  0  0  0
    0.0220   -2.5530    1.7060 N   0  0  0  0  0  0  0  0  0  0  0  0
    0.3990   -1.5560   -0.4640 C   0  0  0  0  0  0  0  0  0  0  0  0
    0.9220   -1.5300   -1.6050 O   0  0  0  0  0  0  0  0  0  0  0  0
   -1.4380   -3.0330   -0.2620 H   0  0  0  0  0  0  0  0  0  0  0  0
    0.7050   -4.1320   -1.1450 H   0  0  0  0  0  0  0  0  0  0  0  0
    0.4950   -4.8110    0.5330 H   0  0  0  0  0  0  0  0  0  0  0  0
    1.8060   -2.7830    0.5700 H   0  0  0  0  0  0  0  0  0  0  0  0
   -1.0110   -2.4590    1.7030 H   0  0  0  0  0  0  0  0  0  0  0  0
   -0.4660   -0.4970   -0.0960 N   0  0  0  0  0  0  0  0  0  0  0  0
   -0.7720    0.5910   -0.9620 C   0  0  1  0  0  0  0  0  0  0  0  0
    0.3480    1.4580   -1.3760 C   0  0  0  0  0  0  0  0  0  0  0  0
    1.0980    2.1620   -0.3170 C   0  0  0  0  0  0  0  0  0  0  0  0
    1.7680    1.3210    0.7030 C   0  0  0  0  0  0  0  0  0  0  0  0
    2.4720    2.2780    1.6800 C   0  0  0  0  0  0  0  0  0  0  0  0
    3.1210    1.4770    2.6670 N   0  0  0  0  0  0  0  0  0  0  0  0
   -1.3620    0.0040   -2.2240 C   0  0  0  0  0  0  0  0  0  0  0  0
   -1.5390   -1.2240   -2.3760 O   0  0  0  0  0  0  0  0  0  0  0  0
   -1.7290    0.8340   -3.2690 O   0  0  0  0  0  0  0  0  0  0  0  0
   -0.8930   -0.5300    0.8560 H   0  0  0  0  0  0  0  0  0  0  0  0
   -1.6010    1.2400   -0.5280 H   0  0  0  0  0  0  0  0  0  0  0  0
   -0.0670    2.2340   -2.0690 H   0  0  0  0  0  0  0  0  0  0  0  0
    1.0350    0.8510   -2.0270 H   0  0  0  0  0  0  0  0  0  0  0  0
    0.4730    2.9150    0.2030 H   0  0  0  0  0  0  0  0  0  0  0  0
    1.9010    2.7680   -0.8300 H   0  0  0  0  0  0  0  0  0  0  0  0
    1.0900    0.7270    1.3180 H   0  0  0  0  0  0  0  0  0  0  0  0
    2.6090    0.7030    0.2780 H   0  0  0  0  0  0  0  0  0  0  0  0
    3.2330    2.8140    1.0690 H   0  0  0  0  0  0  0  0  0  0  0  0
    1.7390    2.9940    2.0910 H   0  0  0  0  0  0  0  0  0  0  0  0
    4.1630    1.5490    2.5850 H   0  0  0  0  0  0  0  0  0  0  0  0
    2.7870    1.6740    3.6340 H   0  0  0  0  0  0  0  0  0  0  0  0
  1  5  1  0  0  0  0
  1  2  1  0  0  0  0
  1  6  1  0  0  0  0
  2  7  1  0  0  0  0
  2  8  1  0  0  0  0
  3  4  2  0  0  0  0
  3  2  1  0  0  0  0
  9 15  1  0  0  0  0
  9 10  1  0  0  0  0
 10 11  1  0  0  0  0
 10 17  1  0  0  0  0
 11 18  1  1  0  0  0
 11 12  1  0  0  0  0
 12  3  1  0  0  0  0
 13 20  1  0  0  0  0
 13 11  1  0  0  0  0
 14 13  2  0  0  0  0
 16 10  1  0  0  0  0
 19 12  1  0  0  0  0
 20 30  1  0  0  0  0
 21 31  1  1  0  0  0
 21 20  1  0  0  0  0
 22 21  1  0  0  0  0
 22 23  1  0  0  0  0
 23 34  1  0  0  0  0
 23 24  1  0  0  0  0
 24 36  1  0  0  0  0
 24 25  1  0  0  0  0
 25 39  1  0  0  0  0
 25 26  1  0  0  0  0
 26 41  1  0  0  0  0
 27 21  1  0  0  0  0
 28 27  1  0  0  0  0
 29 27  2  0  0  0  0
 32 22  1  0  0  0  0
 33 22  1  0  0  0  0
 35 23  1  0  0  0  0
 37 24  1  0  0  0  0
 38 25  1  0  0  0  0
 40 26  1  0  0  0  0
M  END
$$$$
