GSL.pdb
 OpenBabel07022418243D

 39 38  0  0  1  0  0  0  0  0999 V2000
   -1.1980   -6.1200    1.1650 N   0  0  0  0  0  0  0  0  0  0  0  0
   -0.8900   -4.9570    0.3630 C   0  0  0  0  0  0  0  0  0  0  0  0
    0.3140   -4.2410    0.9030 C   0  0  0  0  0  0  0  0  0  0  0  0
    0.8680   -4.7150    1.9240 O   0  0  0  0  0  0  0  0  0  0  0  0
   -0.5720   -6.9300    0.9740 H   0  0  0  0  0  0  0  0  0  0  0  0
   -2.2010   -6.3560    1.1910 H   0  0  0  0  0  0  0  0  0  0  0  0
   -0.7160   -5.2700   -0.6700 H   0  0  0  0  0  0  0  0  0  0  0  0
   -1.7960   -4.3180    0.3720 H   0  0  0  0  0  0  0  0  0  0  0  0
    3.5450   -3.6880   -0.4610 O   0  0  0  0  0  0  0  0  0  0  0  0
    3.1340   -2.3730   -0.1750 C   0  0  0  0  0  0  0  0  0  0  0  0
    1.9710   -2.3710    0.7950 C   0  0  2  0  0  0  0  0  0  0  0  0
    0.8280   -3.0640    0.2960 N   0  0  0  0  0  0  0  0  0  0  0  0
    1.7140   -0.9690    1.2000 C   0  0  0  0  0  0  0  0  0  0  0  0
    2.6950   -0.3260    1.6530 O   0  0  0  0  0  0  0  0  0  0  0  0
    3.1480   -4.0470   -1.2760 H   0  0  0  0  0  0  0  0  0  0  0  0
    4.0120   -1.8930    0.3040 H   0  0  0  0  0  0  0  0  0  0  0  0
    2.9210   -1.8910   -1.1290 H   0  0  0  0  0  0  0  0  0  0  0  0
    2.3380   -2.9090    1.7020 H   0  0  0  0  0  0  0  0  0  0  0  0
    0.3280   -2.7140   -0.5480 H   0  0  0  0  0  0  0  0  0  0  0  0
   -1.3170    3.8970    1.2140 C   0  0  0  0  0  0  0  0  0  0  0  0
   -0.2200    3.3230    0.4050 C   0  0  0  0  0  0  0  0  0  0  0  0
   -0.4210    3.8110   -1.0550 C   0  0  0  0  0  0  0  0  0  0  0  0
   -0.0090    1.8790    0.3610 C   0  0  0  0  0  0  0  0  0  0  0  0
    0.3380    1.0830    1.5500 C   0  0  2  0  0  0  0  0  0  0  0  0
    0.4780   -0.3300    1.1120 N   0  0  0  0  0  0  0  0  0  0  0  0
   -0.6120    1.1670    2.6540 C   0  0  0  0  0  0  0  0  0  0  0  0
   -1.3190    0.1240    2.9040 O   0  0  0  0  0  0  0  0  0  0  0  0
   -0.7910    2.2660    3.4340 O   0  0  0  0  0  0  0  0  0  0  0  0
   -0.9910    4.4980    2.0920 H   0  0  0  0  0  0  0  0  0  0  0  0
   -2.1550    3.2110    1.3950 H   0  0  0  0  0  0  0  0  0  0  0  0
   -1.8130    4.7140    0.5670 H   0  0  0  0  0  0  0  0  0  0  0  0
    0.7230    3.8580    0.7340 H   0  0  0  0  0  0  0  0  0  0  0  0
   -1.1010    3.0860   -1.5330 H   0  0  0  0  0  0  0  0  0  0  0  0
   -0.8380    4.8170   -1.0460 H   0  0  0  0  0  0  0  0  0  0  0  0
    0.5690    3.7370   -1.5770 H   0  0  0  0  0  0  0  0  0  0  0  0
   -0.8900    1.4350   -0.2020 H   0  0  0  0  0  0  0  0  0  0  0  0
    0.8540    1.7000   -0.3830 H   0  0  0  0  0  0  0  0  0  0  0  0
    1.3320    1.4180    1.9170 H   0  0  0  0  0  0  0  0  0  0  0  0
   -0.3520   -0.8280    0.7430 H   0  0  0  0  0  0  0  0  0  0  0  0
  1  6  1  0  0  0  0
  2  8  1  0  0  0  0
  2  3  1  0  0  0  0
  2  1  1  0  0  0  0
  3  4  2  0  0  0  0
  5  1  1  0  0  0  0
  7  2  1  0  0  0  0
  9 10  1  0  0  0  0
 10 16  1  0  0  0  0
 10 11  1  0  0  0  0
 11 13  1  0  0  0  0
 11 18  1  1  0  0  0
 12 11  1  0  0  0  0
 12  3  1  0  0  0  0
 13 14  2  0  0  0  0
 15  9  1  0  0  0  0
 17 10  1  0  0  0  0
 19 12  1  0  0  0  0
 20 30  1  0  0  0  0
 20 29  1  0  0  0  0
 21 32  1  0  0  0  0
 21 20  1  0  0  0  0
 22 34  1  0  0  0  0
 22 21  1  0  0  0  0
 23 21  1  0  0  0  0
 23 24  1  0  0  0  0
 24 38  1  1  0  0  0
 24 26  1  0  0  0  0
 25 13  1  0  0  0  0
 25 24  1  0  0  0  0
 26 27  2  0  0  0  0
 26 28  1  0  0  0  0
 31 20  1  0  0  0  0
 33 22  1  0  0  0  0
 35 22  1  0  0  0  0
 36 23  1  0  0  0  0
 37 23  1  0  0  0  0
 39 25  1  0  0  0  0
M  END
$$$$
