GSM.pdb
 OpenBabel07022418243D

 37 36  0  0  1  0  0  0  0  0999 V2000
   -2.0190   -3.0380    0.8350 N   0  0  0  0  0  0  0  0  0  0  0  0
   -1.4540   -3.5800    2.0590 C   0  0  0  0  0  0  0  0  0  0  0  0
    0.0110   -3.3280    2.0400 C   0  0  0  0  0  0  0  0  0  0  0  0
    0.6660   -3.7450    3.0520 O   0  0  0  0  0  0  0  0  0  0  0  0
   -1.6680   -3.5260   -0.0070 H   0  0  0  0  0  0  0  0  0  0  0  0
   -1.9250   -2.0120    0.7650 H   0  0  0  0  0  0  0  0  0  0  0  0
   -1.8620   -3.0550    2.9290 H   0  0  0  0  0  0  0  0  0  0  0  0
   -1.6830   -4.6660    2.0760 H   0  0  0  0  0  0  0  0  0  0  0  0
    2.0400   -2.7360   -1.4410 O   0  0  0  0  0  0  0  0  0  0  0  0
    2.6060   -3.1800   -0.2660 C   0  0  0  0  0  0  0  0  0  0  0  0
    2.0380   -2.4230    0.9440 C   0  0  2  0  0  0  0  0  0  0  0  0
    0.6310   -2.6630    0.9580 N   0  0  0  0  0  0  0  0  0  0  0  0
    2.3560   -0.9960    0.8770 C   0  0  0  0  0  0  0  0  0  0  0  0
    3.5690   -0.6040    0.8560 O   0  0  0  0  0  0  0  0  0  0  0  0
    1.1000   -2.9410   -1.5620 H   0  0  0  0  0  0  0  0  0  0  0  0
    2.3860   -4.2630   -0.1700 H   0  0  0  0  0  0  0  0  0  0  0  0
    3.7090   -3.0240   -0.3410 H   0  0  0  0  0  0  0  0  0  0  0  0
    2.4930   -2.8290    1.8710 H   0  0  0  0  0  0  0  0  0  0  0  0
    0.0090   -2.3590    0.1750 H   0  0  0  0  0  0  0  0  0  0  0  0
   -3.2270    2.3630    0.4360 C   0  0  0  0  0  0  0  0  0  0  0  0
   -1.4620    2.6040    0.7940 S   0  0  0  0  0  0  0  0  0  0  0  0
   -0.5250    1.9270   -0.5900 C   0  0  0  0  0  0  0  0  0  0  0  0
    0.9510    2.0570   -0.4310 C   0  0  0  0  0  0  0  0  0  0  0  0
    1.5190    1.3730    0.7670 C   0  0  2  0  0  0  0  0  0  0  0  0
    1.3150   -0.0270    0.8330 N   0  0  0  0  0  0  0  0  0  0  0  0
    0.9740    2.0300    1.9770 C   0  0  0  0  0  0  0  0  0  0  0  0
    0.4340    1.3120    2.8540 O   0  0  0  0  0  0  0  0  0  0  0  0
    1.0230    3.3970    2.2030 O   0  0  0  0  0  0  0  0  0  0  0  0
   -3.6220    1.5900    1.1450 H   0  0  0  0  0  0  0  0  0  0  0  0
   -3.3950    1.9720   -0.5910 H   0  0  0  0  0  0  0  0  0  0  0  0
   -3.7940    3.3170    0.5160 H   0  0  0  0  0  0  0  0  0  0  0  0
   -0.8710    0.8900   -0.7500 H   0  0  0  0  0  0  0  0  0  0  0  0
   -0.8190    2.4960   -1.4960 H   0  0  0  0  0  0  0  0  0  0  0  0
    1.4280    1.6890   -1.3580 H   0  0  0  0  0  0  0  0  0  0  0  0
    1.1920    3.1370   -0.3530 H   0  0  0  0  0  0  0  0  0  0  0  0
    2.6280    1.5550    0.7570 H   0  0  0  0  0  0  0  0  0  0  0  0
    0.3390   -0.3940    0.8520 H   0  0  0  0  0  0  0  0  0  0  0  0
  1  2  1  0  0  0  0
  2  8  1  0  0  0  0
  2  7  1  0  0  0  0
  3  2  1  0  0  0  0
  3  4  2  0  0  0  0
  5  1  1  0  0  0  0
  6  1  1  0  0  0  0
  9 10  1  0  0  0  0
 10 16  1  0  0  0  0
 10 11  1  0  0  0  0
 11 12  1  0  0  0  0
 11 18  1  1  0  0  0
 12  3  1  0  0  0  0
 13 11  1  0  0  0  0
 14 13  2  0  0  0  0
 15  9  1  0  0  0  0
 17 10  1  0  0  0  0
 19 12  1  0  0  0  0
 20 31  1  0  0  0  0
 20 21  1  0  0  0  0
 20 29  1  0  0  0  0
 22 23  1  0  0  0  0
 22 21  1  0  0  0  0
 23 35  1  0  0  0  0
 23 24  1  0  0  0  0
 24 36  1  6  0  0  0
 24 25  1  0  0  0  0
 24 26  1  0  0  0  0
 25 37  1  0  0  0  0
 25 13  1  0  0  0  0
 26 28  2  0  0  0  0
 26 27  1  0  0  0  0
 30 20  1  0  0  0  0
 32 22  1  0  0  0  0
 33 22  1  0  0  0  0
 34 23  1  0  0  0  0
M  END
$$$$
