GSN.pdb
 OpenBabel07022418243D

 34 33  0  0  1  0  0  0  0  0999 V2000
   -2.2280   -0.4240    3.3520 N   0  0  0  0  0  0  0  0  0  0  0  0
   -1.0700   -0.5020    4.1860 C   0  0  0  0  0  0  0  0  0  0  0  0
    0.1220   -1.0600    3.4880 C   0  0  0  0  0  0  0  0  0  0  0  0
    1.1740   -1.1530    4.1710 O   0  0  0  0  0  0  0  0  0  0  0  0
   -2.9740   -1.0960    3.5690 H   0  0  0  0  0  0  0  0  0  0  0  0
   -2.5560    0.5500    3.1670 H   0  0  0  0  0  0  0  0  0  0  0  0
   -0.8630    0.5080    4.6110 H   0  0  0  0  0  0  0  0  0  0  0  0
   -1.3270   -1.1430    5.0660 H   0  0  0  0  0  0  0  0  0  0  0  0
    0.8450   -4.3100    2.0610 O   0  0  0  0  0  0  0  0  0  0  0  0
    1.0930   -3.4400    1.0080 C   0  0  0  0  0  0  0  0  0  0  0  0
    1.2900   -2.0180    1.4670 C   0  0  2  0  0  0  0  0  0  0  0  0
    0.1530   -1.4780    2.1580 N   0  0  0  0  0  0  0  0  0  0  0  0
    1.6370   -1.2200    0.2620 C   0  0  0  0  0  0  0  0  0  0  0  0
    2.6120   -1.5710   -0.4460 O   0  0  0  0  0  0  0  0  0  0  0  0
    0.7840   -5.2200    1.6620 H   0  0  0  0  0  0  0  0  0  0  0  0
    0.3520   -3.5240    0.1880 H   0  0  0  0  0  0  0  0  0  0  0  0
    2.0680   -3.7610    0.5630 H   0  0  0  0  0  0  0  0  0  0  0  0
    2.1350   -2.0360    2.1960 H   0  0  0  0  0  0  0  0  0  0  0  0
   -0.7380   -1.3940    1.5960 H   0  0  0  0  0  0  0  0  0  0  0  0
   -2.2810    1.0720   -2.6720 N   0  0  0  0  0  0  0  0  0  0  0  0
   -1.1520    1.1380   -1.8420 C   0  0  0  0  0  0  0  0  0  0  0  0
   -1.2320    1.6310   -0.7060 O   0  0  0  0  0  0  0  0  0  0  0  0
    0.1340    0.6170   -2.3220 C   0  0  0  0  0  0  0  0  0  0  0  0
    1.2570    0.7080   -1.3140 C   0  0  2  0  0  0  0  0  0  0  0  0
    0.9150   -0.0570   -0.1480 N   0  0  0  0  0  0  0  0  0  0  0  0
    1.5950    2.1090   -1.0050 C   0  0  0  0  0  0  0  0  0  0  0  0
    1.9120    2.8850   -1.9250 O   0  0  0  0  0  0  0  0  0  0  0  0
    1.5620    2.5640    0.2920 O   0  0  0  0  0  0  0  0  0  0  0  0
   -3.2260    1.1090   -2.2500 H   0  0  0  0  0  0  0  0  0  0  0  0
   -2.2060    0.9870   -3.7010 H   0  0  0  0  0  0  0  0  0  0  0  0
    0.4130    1.0800   -3.2950 H   0  0  0  0  0  0  0  0  0  0  0  0
   -0.0620   -0.4680   -2.5800 H   0  0  0  0  0  0  0  0  0  0  0  0
    2.1660    0.2890   -1.8330 H   0  0  0  0  0  0  0  0  0  0  0  0
    0.1180    0.1980    0.4660 H   0  0  0  0  0  0  0  0  0  0  0  0
  1  5  1  0  0  0  0
  1  2  1  0  0  0  0
  2  7  1  0  0  0  0
  2  8  1  0  0  0  0
  3  4  2  0  0  0  0
  3  2  1  0  0  0  0
  6  1  1  0  0  0  0
 10 11  1  0  0  0  0
 10  9  1  0  0  0  0
 11 12  1  0  0  0  0
 11 18  1  1  0  0  0
 12  3  1  0  0  0  0
 13 11  1  0  0  0  0
 14 13  2  0  0  0  0
 15  9  1  0  0  0  0
 16 10  1  0  0  0  0
 17 10  1  0  0  0  0
 19 12  1  0  0  0  0
 20 29  1  0  0  0  0
 20 21  1  0  0  0  0
 21 22  2  0  0  0  0
 23 21  1  0  0  0  0
 23 24  1  0  0  0  0
 24 33  1  6  0  0  0
 24 26  1  0  0  0  0
 24 25  1  0  0  0  0
 25 13  1  0  0  0  0
 25 34  1  0  0  0  0
 26 28  1  0  0  0  0
 27 26  2  0  0  0  0
 30 20  1  0  0  0  0
 31 23  1  0  0  0  0
 32 23  1  0  0  0  0
M  END
$$$$
