GSP.pdb
 OpenBabel07022418243D

 34 34  0  0  1  0  0  0  0  0999 V2000
   -0.0600   -5.5460    1.3770 N   0  0  0  0  0  0  0  0  0  0  0  0
    1.0770   -4.6750    1.4460 C   0  0  0  0  0  0  0  0  0  0  0  0
    0.6590   -3.3340    0.9020 C   0  0  0  0  0  0  0  0  0  0  0  0
   -0.5160   -3.1630    0.4960 O   0  0  0  0  0  0  0  0  0  0  0  0
   -0.2650   -5.6970    0.3480 H   0  0  0  0  0  0  0  0  0  0  0  0
   -0.8790   -5.1020    1.8230 H   0  0  0  0  0  0  0  0  0  0  0  0
    1.3560   -4.5700    2.5170 H   0  0  0  0  0  0  0  0  0  0  0  0
    1.9310   -5.0280    0.8650 H   0  0  0  0  0  0  0  0  0  0  0  0
    1.7540   -1.6630   -1.9080 O   0  0  0  0  0  0  0  0  0  0  0  0
    0.7330   -1.0820   -1.1140 C   0  0  0  0  0  0  0  0  0  0  0  0
    1.2020   -0.9350    0.3140 C   0  0  2  0  0  0  0  0  0  0  0  0
    1.5820   -2.2600    0.8440 N   0  0  0  0  0  0  0  0  0  0  0  0
    0.1410   -0.3650    1.1350 C   0  0  0  0  0  0  0  0  0  0  0  0
   -0.2840   -1.1080    2.1140 O   0  0  0  0  0  0  0  0  0  0  0  0
    1.5470   -1.4190   -2.8510 H   0  0  0  0  0  0  0  0  0  0  0  0
    0.6590   -0.0340   -1.5320 H   0  0  0  0  0  0  0  0  0  0  0  0
   -0.2100   -1.6080   -1.1620 H   0  0  0  0  0  0  0  0  0  0  0  0
    2.1030   -0.3240    0.3170 H   0  0  0  0  0  0  0  0  0  0  0  0
    2.5470   -2.4310    1.1890 H   0  0  0  0  0  0  0  0  0  0  0  0
   -0.5080    0.8800    1.0360 N   0  0  0  0  0  0  0  0  0  0  0  0
   -1.5950    1.2460    1.9800 C   0  0  0  0  0  0  0  0  0  0  0  0
   -2.4260    2.2180    1.1160 C   0  0  0  0  0  0  0  0  0  0  0  0
   -1.2840    3.0420    0.5840 C   0  0  0  0  0  0  0  0  0  0  0  0
   -0.3130    1.9330    0.1310 C   0  0  1  0  0  0  0  0  0  0  0  0
    1.0520    2.5010    0.0490 C   0  0  0  0  0  0  0  0  0  0  0  0
    1.2590    3.3030   -0.9200 O   0  0  0  0  0  0  0  0  0  0  0  0
    2.0810    2.2550    0.8950 O   0  0  0  0  0  0  0  0  0  0  0  0
   -1.2320    1.8110    2.8320 H   0  0  0  0  0  0  0  0  0  0  0  0
   -2.1770    0.3810    2.2810 H   0  0  0  0  0  0  0  0  0  0  0  0
   -2.8460    1.6390    0.2890 H   0  0  0  0  0  0  0  0  0  0  0  0
   -3.1360    2.7760    1.7170 H   0  0  0  0  0  0  0  0  0  0  0  0
   -0.8450    3.6080    1.4340 H   0  0  0  0  0  0  0  0  0  0  0  0
   -1.5620    3.6940   -0.2580 H   0  0  0  0  0  0  0  0  0  0  0  0
   -0.6900    1.6780   -0.8830 H   0  0  0  0  0  0  0  0  0  0  0  0
  1  2  1  0  0  0  0
  1  6  1  0  0  0  0
  2  7  1  0  0  0  0
  3  2  1  0  0  0  0
  4  3  2  0  0  0  0
  5  1  1  0  0  0  0
  8  2  1  0  0  0  0
  9 10  1  0  0  0  0
 10 11  1  0  0  0  0
 11 18  1  1  0  0  0
 11 12  1  0  0  0  0
 11 13  1  0  0  0  0
 12  3  1  0  0  0  0
 12 19  1  0  0  0  0
 13 14  2  0  0  0  0
 15  9  1  0  0  0  0
 16 10  1  0  0  0  0
 17 10  1  0  0  0  0
 20 13  1  0  0  0  0
 20 21  1  0  0  0  0
 21 29  1  0  0  0  0
 21 28  1  0  0  0  0
 22 31  1  0  0  0  0
 22 21  1  0  0  0  0
 23 22  1  0  0  0  0
 23 32  1  0  0  0  0
 24 34  1  6  0  0  0
 24 23  1  0  0  0  0
 24 20  1  0  0  0  0
 25 24  1  0  0  0  0
 25 27  1  0  0  0  0
 26 25  2  0  0  0  0
 30 22  1  0  0  0  0
 33 23  1  0  0  0  0
M  END
$$$$
