GSR.pdb
 OpenBabel07022418243D

 43 42  0  0  1  0  0  0  0  0999 V2000
    1.9090   -2.5150   -4.3500 N   0  0  0  0  0  0  0  0  0  0  0  0
    0.7480   -2.7640   -3.5490 C   0  0  0  0  0  0  0  0  0  0  0  0
    0.6000   -1.6740   -2.5530 C   0  0  0  0  0  0  0  0  0  0  0  0
    1.4180   -0.7410   -2.5130 O   0  0  0  0  0  0  0  0  0  0  0  0
    2.7940   -2.4920   -3.8300 H   0  0  0  0  0  0  0  0  0  0  0  0
    1.9860   -3.1380   -5.1790 H   0  0  0  0  0  0  0  0  0  0  0  0
   -0.1280   -2.8080   -4.2420 H   0  0  0  0  0  0  0  0  0  0  0  0
    0.7820   -3.7580   -3.0430 H   0  0  0  0  0  0  0  0  0  0  0  0
   -2.0180    0.5880   -2.1130 O   0  0  0  0  0  0  0  0  0  0  0  0
   -2.0300    0.0160   -0.8500 C   0  0  0  0  0  0  0  0  0  0  0  0
   -0.6980   -0.6710   -0.6370 C   0  0  2  0  0  0  0  0  0  0  0  0
   -0.4900   -1.6980   -1.6340 N   0  0  0  0  0  0  0  0  0  0  0  0
   -0.6380   -1.3340    0.6960 C   0  0  0  0  0  0  0  0  0  0  0  0
   -0.4370   -2.5640    0.8330 O   0  0  0  0  0  0  0  0  0  0  0  0
   -1.2650    0.2590   -2.6740 H   0  0  0  0  0  0  0  0  0  0  0  0
   -2.8350   -0.7530   -0.8230 H   0  0  0  0  0  0  0  0  0  0  0  0
   -2.1620    0.8190   -0.1160 H   0  0  0  0  0  0  0  0  0  0  0  0
    0.1290    0.0660   -0.7610 H   0  0  0  0  0  0  0  0  0  0  0  0
   -1.1490   -2.5050   -1.7100 H   0  0  0  0  0  0  0  0  0  0  0  0
    3.3040    1.4910   -0.0490 N   0  0  0  0  0  0  0  0  0  0  0  0
    2.5320    1.8170    1.0720 C   0  0  0  0  0  0  0  0  0  0  0  0
    2.0540    3.0350    1.1490 N   0  0  0  0  0  0  0  0  0  0  0  0
    2.2410    0.9000    2.1260 N   0  0  0  0  0  0  0  0  0  0  0  0
    1.3040    1.3220    3.1410 C   0  0  0  0  0  0  0  0  0  0  0  0
    1.0580    0.3170    4.1940 C   0  0  0  0  0  0  0  0  0  0  0  0
    0.5570   -1.0130    3.8520 C   0  0  0  0  0  0  0  0  0  0  0  0
   -0.7540   -1.1940    3.1870 C   0  0  2  0  0  0  0  0  0  0  0  0
   -0.8130   -0.5560    1.9060 N   0  0  0  0  0  0  0  0  0  0  0  0
   -1.9030   -0.8330    4.0530 C   0  0  0  0  0  0  0  0  0  0  0  0
   -2.7680   -0.0470    3.6080 O   0  0  0  0  0  0  0  0  0  0  0  0
   -2.0210   -1.3420    5.3110 O   0  0  0  0  0  0  0  0  0  0  0  0
    2.9750    0.8090   -0.7580 H   0  0  0  0  0  0  0  0  0  0  0  0
    4.2310    1.9340   -0.1900 H   0  0  0  0  0  0  0  0  0  0  0  0
    2.2310    3.7450    0.4160 H   0  0  0  0  0  0  0  0  0  0  0  0
    2.7210   -0.0110    2.0970 H   0  0  0  0  0  0  0  0  0  0  0  0
    1.8890    2.1710    3.6770 H   0  0  0  0  0  0  0  0  0  0  0  0
    0.4600    1.8480    2.7140 H   0  0  0  0  0  0  0  0  0  0  0  0
    0.3800    0.7820    4.9810 H   0  0  0  0  0  0  0  0  0  0  0  0
    2.0170    0.1710    4.7730 H   0  0  0  0  0  0  0  0  0  0  0  0
    1.3770   -1.5720    3.2760 H   0  0  0  0  0  0  0  0  0  0  0  0
    0.5550   -1.6120    4.8290 H   0  0  0  0  0  0  0  0  0  0  0  0
   -0.8490   -2.3160    2.9650 H   0  0  0  0  0  0  0  0  0  0  0  0
   -1.0020    0.4720    1.7400 H   0  0  0  0  0  0  0  0  0  0  0  0
  1  5  1  0  0  0  0
  1  2  1  0  0  0  0
  2  8  1  0  0  0  0
  2  3  1  0  0  0  0
  3  4  2  0  0  0  0
  3 12  1  0  0  0  0
  6  1  1  0  0  0  0
  7  2  1  0  0  0  0
  9 10  1  0  0  0  0
 10 16  1  0  0  0  0
 10 11  1  0  0  0  0
 10 17  1  0  0  0  0
 11 18  1  6  0  0  0
 11 13  1  0  0  0  0
 12 11  1  0  0  0  0
 13 14  2  0  0  0  0
 13 28  1  0  0  0  0
 15  9  1  0  0  0  0
 19 12  1  0  0  0  0
 20 21  1  0  0  0  0
 21 22  2  0  0  0  0
 21 23  1  0  0  0  0
 23 24  1  0  0  0  0
 24 36  1  0  0  0  0
 24 25  1  0  0  0  0
 25 39  1  0  0  0  0
 25 38  1  0  0  0  0
 26 25  1  0  0  0  0
 26 41  1  0  0  0  0
 27 42  1  6  0  0  0
 27 26  1  0  0  0  0
 27 29  1  0  0  0  0
 28 27  1  0  0  0  0
 29 31  1  0  0  0  0
 30 29  2  0  0  0  0
 32 20  1  0  0  0  0
 33 20  1  0  0  0  0
 34 22  1  0  0  0  0
 35 23  1  0  0  0  0
 37 24  1  0  0  0  0
 40 26  1  0  0  0  0
 43 28  1  0  0  0  0
M  END
$$$$
