GSS.pdb
 OpenBabel07022418253D

 31 30  0  0  1  0  0  0  0  0999 V2000
   -3.0460   -3.0070   -1.6630 N   0  0  0  0  0  0  0  0  0  0  0  0
   -2.3010   -4.0720   -1.0350 C   0  0  0  0  0  0  0  0  0  0  0  0
   -1.0570   -3.4740   -0.4710 C   0  0  0  0  0  0  0  0  0  0  0  0
   -0.2190   -4.1890    0.1370 O   0  0  0  0  0  0  0  0  0  0  0  0
   -3.4780   -2.4460   -0.8760 H   0  0  0  0  0  0  0  0  0  0  0  0
   -3.8220   -3.3530   -2.2640 H   0  0  0  0  0  0  0  0  0  0  0  0
   -2.8820   -4.6170   -0.2700 H   0  0  0  0  0  0  0  0  0  0  0  0
   -2.0020   -4.7740   -1.8480 H   0  0  0  0  0  0  0  0  0  0  0  0
    0.6680    0.0270   -1.8970 O   0  0  0  0  0  0  0  0  0  0  0  0
    1.3340   -0.9500   -1.1720 C   0  0  0  0  0  0  0  0  0  0  0  0
    0.4640   -1.4990   -0.0350 C   0  0  2  0  0  0  0  0  0  0  0  0
   -0.7530   -2.0890   -0.5860 N   0  0  0  0  0  0  0  0  0  0  0  0
    0.0760   -0.4020    0.8840 C   0  0  0  0  0  0  0  0  0  0  0  0
   -1.1430   -0.1170    1.0780 O   0  0  0  0  0  0  0  0  0  0  0  0
    1.0140    0.0220   -2.8380 H   0  0  0  0  0  0  0  0  0  0  0  0
    2.2490   -0.5340   -0.7030 H   0  0  0  0  0  0  0  0  0  0  0  0
    1.6680   -1.8040   -1.7940 H   0  0  0  0  0  0  0  0  0  0  0  0
    1.0850   -2.2690    0.4640 H   0  0  0  0  0  0  0  0  0  0  0  0
   -1.4500   -1.5010   -1.0900 H   0  0  0  0  0  0  0  0  0  0  0  0
    2.5620    0.8810    3.8470 O   0  0  0  0  0  0  0  0  0  0  0  0
    1.1790    1.0530    3.8750 C   0  0  0  0  0  0  0  0  0  0  0  0
    0.6620    1.4590    2.4920 C   0  0  2  0  0  0  0  0  0  0  0  0
    1.0220    0.3830    1.5900 N   0  0  0  0  0  0  0  0  0  0  0  0
    1.2600    2.7480    2.0930 C   0  0  0  0  0  0  0  0  0  0  0  0
    1.9810    2.7900    1.0730 O   0  0  0  0  0  0  0  0  0  0  0  0
    1.0450    3.8990    2.8130 O   0  0  0  0  0  0  0  0  0  0  0  0
    2.8290   -0.0020    4.1780 H   0  0  0  0  0  0  0  0  0  0  0  0
    0.9650    1.8270    4.6220 H   0  0  0  0  0  0  0  0  0  0  0  0
    0.7300    0.1040    4.2000 H   0  0  0  0  0  0  0  0  0  0  0  0
   -0.4290    1.5970    2.5680 H   0  0  0  0  0  0  0  0  0  0  0  0
    2.0320    0.1620    1.4430 H   0  0  0  0  0  0  0  0  0  0  0  0
  1  2  1  0  0  0  0
  1  5  1  0  0  0  0
  2  3  1  0  0  0  0
  2  7  1  0  0  0  0
  3  4  2  0  0  0  0
  6  1  1  0  0  0  0
  8  2  1  0  0  0  0
  9 10  1  0  0  0  0
 10 16  1  0  0  0  0
 10 11  1  0  0  0  0
 11 18  1  1  0  0  0
 11 13  1  0  0  0  0
 12  3  1  0  0  0  0
 12 11  1  0  0  0  0
 13 14  2  0  0  0  0
 13 23  1  0  0  0  0
 15  9  1  0  0  0  0
 17 10  1  0  0  0  0
 19 12  1  0  0  0  0
 20 21  1  0  0  0  0
 20 27  1  0  0  0  0
 21 29  1  0  0  0  0
 21 28  1  0  0  0  0
 22 30  1  1  0  0  0
 22 21  1  0  0  0  0
 23 22  1  0  0  0  0
 24 22  1  0  0  0  0
 24 26  1  0  0  0  0
 25 24  2  0  0  0  0
 31 23  1  0  0  0  0
M  END
$$$$
