GST.pdb
 OpenBabel07022418253D

 34 33  0  0  1  0  0  0  0  0999 V2000
   -1.0660   -5.0780    2.1300 N   0  0  0  0  0  0  0  0  0  0  0  0
   -1.4550   -3.7320    1.8060 C   0  0  0  0  0  0  0  0  0  0  0  0
   -0.6140   -3.1960    0.7210 C   0  0  0  0  0  0  0  0  0  0  0  0
    0.2960   -3.9230    0.2240 O   0  0  0  0  0  0  0  0  0  0  0  0
   -0.1550   -5.2800    1.6620 H   0  0  0  0  0  0  0  0  0  0  0  0
   -1.7660   -5.7480    1.7770 H   0  0  0  0  0  0  0  0  0  0  0  0
   -2.5110   -3.7380    1.4100 H   0  0  0  0  0  0  0  0  0  0  0  0
   -1.4500   -3.0610    2.6960 H   0  0  0  0  0  0  0  0  0  0  0  0
    0.1200   -0.6340   -3.1160 O   0  0  0  0  0  0  0  0  0  0  0  0
   -0.7180   -1.0830   -2.1260 C   0  0  0  0  0  0  0  0  0  0  0  0
    0.0850   -1.4280   -0.8660 C   0  0  2  0  0  0  0  0  0  0  0  0
   -0.7570   -1.8990    0.1860 N   0  0  0  0  0  0  0  0  0  0  0  0
    0.8780   -0.2250   -0.4550 C   0  0  0  0  0  0  0  0  0  0  0  0
    1.6770    0.3350   -1.2480 O   0  0  0  0  0  0  0  0  0  0  0  0
   -0.3600   -0.6430   -3.9830 H   0  0  0  0  0  0  0  0  0  0  0  0
   -1.3890   -0.2320   -1.8400 H   0  0  0  0  0  0  0  0  0  0  0  0
   -1.2900   -1.9480   -2.4510 H   0  0  0  0  0  0  0  0  0  0  0  0
    0.8200   -2.1980   -1.1710 H   0  0  0  0  0  0  0  0  0  0  0  0
   -1.4930   -1.2660    0.5640 H   0  0  0  0  0  0  0  0  0  0  0  0
   -0.1650    2.9490    0.2630 C   0  0  0  0  0  0  0  0  0  0  0  0
    0.6510    2.6860    1.5330 C   0  0  1  0  0  0  0  0  0  0  0  0
   -0.2250    2.4570    2.5630 O   0  0  0  0  0  0  0  0  0  0  0  0
    1.5360    1.5000    1.2240 C   0  0  2  0  0  0  0  0  0  0  0  0
    0.7630    0.3380    0.8450 N   0  0  0  0  0  0  0  0  0  0  0  0
    2.4680    1.1950    2.3340 C   0  0  0  0  0  0  0  0  0  0  0  0
    3.2410    2.0280    2.8400 O   0  0  0  0  0  0  0  0  0  0  0  0
    2.4890   -0.0980    2.8520 O   0  0  0  0  0  0  0  0  0  0  0  0
    0.5750    3.1530   -0.5640 H   0  0  0  0  0  0  0  0  0  0  0  0
   -0.7950    2.0730    0.0460 H   0  0  0  0  0  0  0  0  0  0  0  0
   -0.7370    3.8850    0.3770 H   0  0  0  0  0  0  0  0  0  0  0  0
    1.3220    3.5550    1.6960 H   0  0  0  0  0  0  0  0  0  0  0  0
   -1.0460    2.9820    2.3870 H   0  0  0  0  0  0  0  0  0  0  0  0
    2.1530    1.7900    0.3500 H   0  0  0  0  0  0  0  0  0  0  0  0
    0.1190   -0.0790    1.5470 H   0  0  0  0  0  0  0  0  0  0  0  0
  2  1  1  0  0  0  0
  2  8  1  0  0  0  0
  3  2  1  0  0  0  0
  4  3  2  0  0  0  0
  5  1  1  0  0  0  0
  6  1  1  0  0  0  0
  7  2  1  0  0  0  0
  9 10  1  0  0  0  0
 10 16  1  0  0  0  0
 10 11  1  0  0  0  0
 11 18  1  6  0  0  0
 11 13  1  0  0  0  0
 11 12  1  0  0  0  0
 12 19  1  0  0  0  0
 12  3  1  0  0  0  0
 13 24  1  0  0  0  0
 14 13  2  0  0  0  0
 15  9  1  0  0  0  0
 17 10  1  0  0  0  0
 20 30  1  0  0  0  0
 20 21  1  0  0  0  0
 21 31  1  1  0  0  0
 21 22  1  0  0  0  0
 23 33  1  6  0  0  0
 23 21  1  0  0  0  0
 23 25  1  0  0  0  0
 24 23  1  0  0  0  0
 24 34  1  0  0  0  0
 25 26  2  0  0  0  0
 25 27  1  0  0  0  0
 28 20  1  0  0  0  0
 29 20  1  0  0  0  0
 32 22  1  0  0  0  0
M  END
$$$$
