GSV.pdb
 OpenBabel07022418253D

 36 35  0  0  1  0  0  0  0  0999 V2000
   -1.7730   -5.8760    2.1750 N   0  0  0  0  0  0  0  0  0  0  0  0
   -1.6580   -4.9160    1.1080 C   0  0  0  0  0  0  0  0  0  0  0  0
   -0.5270   -3.9930    1.3780 C   0  0  0  0  0  0  0  0  0  0  0  0
    0.1530   -4.1260    2.4090 O   0  0  0  0  0  0  0  0  0  0  0  0
   -1.6790   -5.3430    3.0810 H   0  0  0  0  0  0  0  0  0  0  0  0
   -2.7480   -6.2560    2.1820 H   0  0  0  0  0  0  0  0  0  0  0  0
   -1.5280   -5.4470    0.1300 H   0  0  0  0  0  0  0  0  0  0  0  0
   -2.5970   -4.3080    0.9870 H   0  0  0  0  0  0  0  0  0  0  0  0
    2.9960   -1.4570   -0.3590 O   0  0  0  0  0  0  0  0  0  0  0  0
    1.8910   -2.2660   -0.4070 C   0  0  0  0  0  0  0  0  0  0  0  0
    0.8890   -2.0240    0.6870 C   0  0  2  0  0  0  0  0  0  0  0  0
   -0.1970   -2.9550    0.4830 N   0  0  0  0  0  0  0  0  0  0  0  0
    0.4390   -0.6290    0.7860 C   0  0  0  0  0  0  0  0  0  0  0  0
   -0.7750   -0.3440    0.6930 O   0  0  0  0  0  0  0  0  0  0  0  0
    3.1360   -0.9610   -1.2150 H   0  0  0  0  0  0  0  0  0  0  0  0
    2.2500   -3.3230   -0.2770 H   0  0  0  0  0  0  0  0  0  0  0  0
    1.3730   -2.2560   -1.3870 H   0  0  0  0  0  0  0  0  0  0  0  0
    1.3690   -2.3020    1.6480 H   0  0  0  0  0  0  0  0  0  0  0  0
   -0.7600   -2.8330   -0.3850 H   0  0  0  0  0  0  0  0  0  0  0  0
   -0.2060    3.5930   -0.2790 C   0  0  0  0  0  0  0  0  0  0  0  0
    0.3460    2.1780   -0.2690 C   0  0  0  0  0  0  0  0  0  0  0  0
    1.4720    2.1420   -1.2760 C   0  0  0  0  0  0  0  0  0  0  0  0
    0.8520    1.7760    1.0820 C   0  0  2  0  0  0  0  0  0  0  0  0
    1.3530    0.4240    0.9890 N   0  0  0  0  0  0  0  0  0  0  0  0
   -0.1580    1.9570    2.1390 C   0  0  0  0  0  0  0  0  0  0  0  0
   -0.7140    3.0650    2.3200 O   0  0  0  0  0  0  0  0  0  0  0  0
   -0.5050    0.9000    2.9490 O   0  0  0  0  0  0  0  0  0  0  0  0
    0.4240    4.2670    0.3090 H   0  0  0  0  0  0  0  0  0  0  0  0
   -1.2760    3.5830    0.0640 H   0  0  0  0  0  0  0  0  0  0  0  0
   -0.2370    3.9740   -1.3220 H   0  0  0  0  0  0  0  0  0  0  0  0
   -0.4490    1.5270   -0.6370 H   0  0  0  0  0  0  0  0  0  0  0  0
    1.0070    2.1620   -2.2830 H   0  0  0  0  0  0  0  0  0  0  0  0
    2.0650    1.2130   -1.2160 H   0  0  0  0  0  0  0  0  0  0  0  0
    2.0990    3.0400   -1.1850 H   0  0  0  0  0  0  0  0  0  0  0  0
    1.6820    2.4900    1.3510 H   0  0  0  0  0  0  0  0  0  0  0  0
    2.3890    0.2800    1.0770 H   0  0  0  0  0  0  0  0  0  0  0  0
  1  6  1  0  0  0  0
  1  5  1  0  0  0  0
  2  3  1  0  0  0  0
  2  1  1  0  0  0  0
  3  4  2  0  0  0  0
  7  2  1  0  0  0  0
  8  2  1  0  0  0  0
 10  9  1  0  0  0  0
 10 16  1  0  0  0  0
 10 11  1  0  0  0  0
 11 13  1  0  0  0  0
 11 18  1  1  0  0  0
 12 11  1  0  0  0  0
 12  3  1  0  0  0  0
 13 24  1  0  0  0  0
 14 13  2  0  0  0  0
 15  9  1  0  0  0  0
 17 10  1  0  0  0  0
 19 12  1  0  0  0  0
 20 21  1  0  0  0  0
 20 29  1  0  0  0  0
 20 28  1  0  0  0  0
 21 23  1  0  0  0  0
 22 33  1  0  0  0  0
 22 34  1  0  0  0  0
 22 21  1  0  0  0  0
 23 35  1  1  0  0  0
 23 25  1  0  0  0  0
 24 36  1  0  0  0  0
 24 23  1  0  0  0  0
 25 26  2  0  0  0  0
 25 27  1  0  0  0  0
 30 20  1  0  0  0  0
 31 21  1  0  0  0  0
 32 22  1  0  0  0  0
M  END
$$$$
