GSY.pdb
 OpenBabel07022418253D

 41 41  0  0  1  0  0  0  0  0999 V2000
    2.1380   -7.2480    1.7560 N   0  0  0  0  0  0  0  0  0  0  0  0
    1.3910   -6.4710    0.7860 C   0  0  0  0  0  0  0  0  0  0  0  0
    1.9620   -5.1090    0.7460 C   0  0  0  0  0  0  0  0  0  0  0  0
    2.9390   -4.7910    1.4820 O   0  0  0  0  0  0  0  0  0  0  0  0
    2.5020   -6.6020    2.5080 H   0  0  0  0  0  0  0  0  0  0  0  0
    1.5080   -7.9560    2.2340 H   0  0  0  0  0  0  0  0  0  0  0  0
    0.3210   -6.4680    1.1180 H   0  0  0  0  0  0  0  0  0  0  0  0
    1.4340   -6.9390   -0.2190 H   0  0  0  0  0  0  0  0  0  0  0  0
    3.2310   -1.3530   -1.6380 O   0  0  0  0  0  0  0  0  0  0  0  0
    2.6210   -2.5740   -1.5170 C   0  0  0  0  0  0  0  0  0  0  0  0
    2.0610   -2.7710   -0.1010 C   0  0  2  0  0  0  0  0  0  0  0  0
    1.4500   -4.0930   -0.1130 N   0  0  0  0  0  0  0  0  0  0  0  0
    1.0380   -1.7110    0.0930 C   0  0  0  0  0  0  0  0  0  0  0  0
   -0.1610   -2.0800    0.2030 O   0  0  0  0  0  0  0  0  0  0  0  0
    3.1670   -0.9780   -2.5710 H   0  0  0  0  0  0  0  0  0  0  0  0
    1.8090   -2.6890   -2.2640 H   0  0  0  0  0  0  0  0  0  0  0  0
    3.3980   -3.3630   -1.6780 H   0  0  0  0  0  0  0  0  0  0  0  0
    2.8900   -2.7000    0.6020 H   0  0  0  0  0  0  0  0  0  0  0  0
    0.6450   -4.3210   -0.7330 H   0  0  0  0  0  0  0  0  0  0  0  0
   -3.4950    5.2240    2.8450 O   0  0  0  0  0  0  0  0  0  0  0  0
   -2.5350    4.2490    2.5600 C   0  0  0  0  0  0  0  0  0  0  0  0
   -1.3810    4.5930    1.8940 C   0  0  0  0  0  0  0  0  0  0  0  0
   -0.4250    3.6140    1.6120 C   0  0  0  0  0  0  0  0  0  0  0  0
   -0.6040    2.3060    1.9850 C   0  0  0  0  0  0  0  0  0  0  0  0
    0.4130    1.3200    1.6730 C   0  0  0  0  0  0  0  0  0  0  0  0
    0.2530    0.6090    0.3500 C   0  0  2  0  0  0  0  0  0  0  0  0
    1.3250   -0.3430    0.1590 N   0  0  0  0  0  0  0  0  0  0  0  0
    0.1210    1.5330   -0.7870 C   0  0  0  0  0  0  0  0  0  0  0  0
    0.9200    1.4250   -1.7650 O   0  0  0  0  0  0  0  0  0  0  0  0
   -1.7580    1.9750    2.6490 C   0  0  0  0  0  0  0  0  0  0  0  0
   -2.7310    2.9410    2.9410 C   0  0  0  0  0  0  0  0  0  0  0  0
   -0.8260    2.5370   -0.8820 O   0  0  0  0  0  0  0  0  0  0  0  0
   -3.7250    5.9180    2.1180 H   0  0  0  0  0  0  0  0  0  0  0  0
   -1.2130    5.6180    1.5880 H   0  0  0  0  0  0  0  0  0  0  0  0
    0.4560    3.9680    1.0850 H   0  0  0  0  0  0  0  0  0  0  0  0
    1.4460    1.7790    1.6420 H   0  0  0  0  0  0  0  0  0  0  0  0
    0.4640    0.5960    2.5130 H   0  0  0  0  0  0  0  0  0  0  0  0
   -0.6990    0.0480    0.4180 H   0  0  0  0  0  0  0  0  0  0  0  0
    2.3350   -0.0460    0.0670 H   0  0  0  0  0  0  0  0  0  0  0  0
   -1.9880    0.9720    2.9810 H   0  0  0  0  0  0  0  0  0  0  0  0
   -3.6390    2.7080    3.4580 H   0  0  0  0  0  0  0  0  0  0  0  0
  1  6  1  0  0  0  0
  1  5  1  0  0  0  0
  2  7  1  0  0  0  0
  2  1  1  0  0  0  0
  3  2  1  0  0  0  0
  3  4  2  0  0  0  0
  8  2  1  0  0  0  0
  9 10  1  0  0  0  0
 10 11  1  0  0  0  0
 11 13  1  0  0  0  0
 11 18  1  1  0  0  0
 12 11  1  0  0  0  0
 12  3  1  0  0  0  0
 13 27  1  0  0  0  0
 13 14  2  0  0  0  0
 15  9  1  0  0  0  0
 16 10  1  0  0  0  0
 17 10  1  0  0  0  0
 19 12  1  0  0  0  0
 21 20  1  0  0  0  0
 21 31  1  0  0  0  0
 22 21  2  0  0  0  0
 23 22  1  0  0  0  0
 23 24  2  0  0  0  0
 24 30  1  0  0  0  0
 25 24  1  0  0  0  0
 25 37  1  0  0  0  0
 26 38  1  1  0  0  0
 26 25  1  0  0  0  0
 27 26  1  0  0  0  0
 28 26  1  0  0  0  0
 29 28  2  0  0  0  0
 30 31  2  0  0  0  0
 30 40  1  0  0  0  0
 31 41  1  0  0  0  0
 32 28  1  0  0  0  0
 33 20  1  0  0  0  0
 34 22  1  0  0  0  0
 35 23  1  0  0  0  0
 36 25  1  0  0  0  0
 39 27  1  0  0  0  0
M  END
$$$$
