GTA.pdb
 OpenBabel07022418253D

 33 32  0  0  1  0  0  0  0  0999 V2000
    0.5230   -3.7410    4.0450 N   0  0  0  0  0  0  0  0  0  0  0  0
   -0.2950   -2.8490    3.2760 C   0  0  0  0  0  0  0  0  0  0  0  0
    0.3370   -2.6430    1.9490 C   0  0  0  0  0  0  0  0  0  0  0  0
    1.4160   -3.2280    1.6910 O   0  0  0  0  0  0  0  0  0  0  0  0
    1.2100   -4.2770    3.4640 H   0  0  0  0  0  0  0  0  0  0  0  0
   -0.0150   -4.4040    4.6380 H   0  0  0  0  0  0  0  0  0  0  0  0
   -0.4970   -1.8870    3.7900 H   0  0  0  0  0  0  0  0  0  0  0  0
   -1.3010   -3.3430    3.1430 H   0  0  0  0  0  0  0  0  0  0  0  0
   -1.8230   -1.3120   -1.4010 C   0  0  0  0  0  0  0  0  0  0  0  0
   -0.5440   -2.1310   -1.4270 C   0  0  1  0  0  0  0  0  0  0  0  0
    0.1780   -1.8940   -2.6030 O   0  0  0  0  0  0  0  0  0  0  0  0
    0.3290   -1.5990   -0.2810 C   0  0  2  0  0  0  0  0  0  0  0  0
   -0.2940   -1.7800    0.9800 N   0  0  0  0  0  0  0  0  0  0  0  0
    0.6430   -0.2010   -0.6090 C   0  0  0  0  0  0  0  0  0  0  0  0
    1.1990    0.0320   -1.7180 O   0  0  0  0  0  0  0  0  0  0  0  0
   -2.5090   -1.6040   -2.2240 H   0  0  0  0  0  0  0  0  0  0  0  0
   -1.5190   -0.2620   -1.6010 H   0  0  0  0  0  0  0  0  0  0  0  0
   -2.2870   -1.4180   -0.4170 H   0  0  0  0  0  0  0  0  0  0  0  0
   -0.7990   -3.1880   -1.2830 H   0  0  0  0  0  0  0  0  0  0  0  0
   -0.1400   -2.4520   -3.3520 H   0  0  0  0  0  0  0  0  0  0  0  0
    1.2670   -2.1850   -0.3380 H   0  0  0  0  0  0  0  0  0  0  0  0
   -1.1820   -1.3470    1.2960 H   0  0  0  0  0  0  0  0  0  0  0  0
   -0.6440    3.0900   -0.0460 C   0  0  0  0  0  0  0  0  0  0  0  0
    0.6350    2.2420   -0.0180 C   0  0  2  0  0  0  0  0  0  0  0  0
    0.3440    0.8690    0.2690 N   0  0  0  0  0  0  0  0  0  0  0  0
    1.4860    2.8160    1.0450 C   0  0  0  0  0  0  0  0  0  0  0  0
    1.8530    4.0010    0.9840 O   0  0  0  0  0  0  0  0  0  0  0  0
    1.8660    2.0160    2.1040 O   0  0  0  0  0  0  0  0  0  0  0  0
   -1.2540    2.7100    0.8120 H   0  0  0  0  0  0  0  0  0  0  0  0
   -0.3450    4.1230    0.1850 H   0  0  0  0  0  0  0  0  0  0  0  0
   -1.1860    2.9620   -0.9870 H   0  0  0  0  0  0  0  0  0  0  0  0
    1.1220    2.3660   -1.0090 H   0  0  0  0  0  0  0  0  0  0  0  0
   -0.1150    0.6160    1.1700 H   0  0  0  0  0  0  0  0  0  0  0  0
  1  6  1  0  0  0  0
  2  7  1  0  0  0  0
  2  1  1  0  0  0  0
  3  2  1  0  0  0  0
  4  3  2  0  0  0  0
  5  1  1  0  0  0  0
  8  2  1  0  0  0  0
  9 18  1  0  0  0  0
 10  9  1  0  0  0  0
 10 19  1  1  0  0  0
 10 12  1  0  0  0  0
 11 10  1  0  0  0  0
 12 21  1  1  0  0  0
 12 13  1  0  0  0  0
 13 22  1  0  0  0  0
 13  3  1  0  0  0  0
 14 12  1  0  0  0  0
 14 25  1  0  0  0  0
 15 14  2  0  0  0  0
 16  9  1  0  0  0  0
 17  9  1  0  0  0  0
 20 11  1  0  0  0  0
 23 24  1  0  0  0  0
 23 30  1  0  0  0  0
 23 29  1  0  0  0  0
 24 32  1  6  0  0  0
 24 25  1  0  0  0  0
 24 26  1  0  0  0  0
 25 33  1  0  0  0  0
 26 28  1  0  0  0  0
 27 26  2  0  0  0  0
 31 23  1  0  0  0  0
M  END
$$$$
