GTC.pdb
 OpenBabel07022418253D

 34 33  0  0  1  0  0  0  0  0999 V2000
   -0.8700   -2.8590    4.4430 N   0  0  0  0  0  0  0  0  0  0  0  0
   -1.0760   -1.7600    3.5340 C   0  0  0  0  0  0  0  0  0  0  0  0
   -0.7250   -2.1520    2.1240 C   0  0  0  0  0  0  0  0  0  0  0  0
   -0.3110   -3.3050    1.8370 O   0  0  0  0  0  0  0  0  0  0  0  0
   -0.7540   -3.7760    3.9890 H   0  0  0  0  0  0  0  0  0  0  0  0
   -1.6070   -2.8740    5.1580 H   0  0  0  0  0  0  0  0  0  0  0  0
   -2.1420   -1.4610    3.6000 H   0  0  0  0  0  0  0  0  0  0  0  0
   -0.4810   -0.8620    3.8410 H   0  0  0  0  0  0  0  0  0  0  0  0
   -1.2730   -1.5110   -2.5960 C   0  0  0  0  0  0  0  0  0  0  0  0
   -1.7170   -1.2180   -1.1880 C   0  0  1  0  0  0  0  0  0  0  0  0
   -2.8520   -1.9390   -0.8390 O   0  0  0  0  0  0  0  0  0  0  0  0
   -0.5500   -1.5070   -0.2650 C   0  0  2  0  0  0  0  0  0  0  0  0
   -0.8830   -1.1570    1.1190 N   0  0  0  0  0  0  0  0  0  0  0  0
    0.5430   -0.5820   -0.6730 C   0  0  0  0  0  0  0  0  0  0  0  0
    1.0670   -0.6190   -1.8160 O   0  0  0  0  0  0  0  0  0  0  0  0
   -0.9140   -0.5660   -3.0470 H   0  0  0  0  0  0  0  0  0  0  0  0
   -0.4350   -2.2460   -2.6310 H   0  0  0  0  0  0  0  0  0  0  0  0
   -2.1420   -1.8450   -3.2160 H   0  0  0  0  0  0  0  0  0  0  0  0
   -1.9350   -0.1340   -1.1160 H   0  0  0  0  0  0  0  0  0  0  0  0
   -3.4690   -1.9900   -1.5990 H   0  0  0  0  0  0  0  0  0  0  0  0
   -0.2090   -2.5440   -0.3260 H   0  0  0  0  0  0  0  0  0  0  0  0
   -1.2270   -0.2030    1.3650 H   0  0  0  0  0  0  0  0  0  0  0  0
    1.0760    0.4150    0.2070 N   0  0  0  0  0  0  0  0  0  0  0  0
    2.1370    1.3160   -0.1800 C   0  0  1  0  0  0  0  0  0  0  0  0
    1.5220    2.7220   -0.1730 C   0  0  0  0  0  0  0  0  0  0  0  0
    0.8980    3.1410    1.4790 S   0  0  0  0  0  0  0  0  0  0  0  0
    3.2570    1.2490    0.7810 C   0  0  0  0  0  0  0  0  0  0  0  0
    4.2790    1.9540    0.6290 O   0  0  0  0  0  0  0  0  0  0  0  0
    3.1630    0.3930    1.8590 O   0  0  0  0  0  0  0  0  0  0  0  0
    0.6810    0.4930    1.1680 H   0  0  0  0  0  0  0  0  0  0  0  0
    2.4810    1.1500   -1.2120 H   0  0  0  0  0  0  0  0  0  0  0  0
    0.6120    2.6580   -0.8380 H   0  0  0  0  0  0  0  0  0  0  0  0
    2.2150    3.4730   -0.5630 H   0  0  0  0  0  0  0  0  0  0  0  0
    1.7970    2.7930    2.4860 H   0  0  0  0  0  0  0  0  0  0  0  0
  1  6  1  0  0  0  0
  2  7  1  0  0  0  0
  2  8  1  0  0  0  0
  2  1  1  0  0  0  0
  3  2  1  0  0  0  0
  4  3  2  0  0  0  0
  5  1  1  0  0  0  0
  9 10  1  0  0  0  0
 10 19  1  1  0  0  0
 10 11  1  0  0  0  0
 10 12  1  0  0  0  0
 12 21  1  6  0  0  0
 12 13  1  0  0  0  0
 13 22  1  0  0  0  0
 13  3  1  0  0  0  0
 14 12  1  0  0  0  0
 14 23  1  0  0  0  0
 15 14  2  0  0  0  0
 16  9  1  0  0  0  0
 17  9  1  0  0  0  0
 18  9  1  0  0  0  0
 20 11  1  0  0  0  0
 23 30  1  0  0  0  0
 24 31  1  6  0  0  0
 24 25  1  0  0  0  0
 24 23  1  0  0  0  0
 24 27  1  0  0  0  0
 25 26  1  0  0  0  0
 26 34  1  0  0  0  0
 27 29  1  0  0  0  0
 28 27  2  0  0  0  0
 32 25  1  0  0  0  0
 33 25  1  0  0  0  0
M  END
$$$$
