GTD.pdb
 OpenBabel07022418253D

 36 35  0  0  1  0  0  0  0  0999 V2000
   -0.3890   -0.7260    5.6290 N   0  0  0  0  0  0  0  0  0  0  0  0
    0.5860   -1.7430    5.2960 C   0  0  0  0  0  0  0  0  0  0  0  0
    0.6620   -1.9340    3.8260 C   0  0  0  0  0  0  0  0  0  0  0  0
    1.5040   -2.8190    3.4490 O   0  0  0  0  0  0  0  0  0  0  0  0
   -0.0870    0.1430    5.1770 H   0  0  0  0  0  0  0  0  0  0  0  0
   -1.3030   -1.0370    5.1800 H   0  0  0  0  0  0  0  0  0  0  0  0
    1.5890   -1.5050    5.7260 H   0  0  0  0  0  0  0  0  0  0  0  0
    0.2210   -2.6800    5.7990 H   0  0  0  0  0  0  0  0  0  0  0  0
   -2.4540   -1.1820    1.4020 C   0  0  0  0  0  0  0  0  0  0  0  0
   -1.2880   -2.0360    0.9860 C   0  0  1  0  0  0  0  0  0  0  0  0
   -1.2910   -2.3310   -0.3730 O   0  0  0  0  0  0  0  0  0  0  0  0
    0.0330   -1.4710    1.4560 C   0  0  2  0  0  0  0  0  0  0  0  0
   -0.1130   -1.2180    2.8750 N   0  0  0  0  0  0  0  0  0  0  0  0
    0.4410   -0.2770    0.6990 C   0  0  0  0  0  0  0  0  0  0  0  0
    0.5950    0.7970    1.3440 O   0  0  0  0  0  0  0  0  0  0  0  0
   -3.3690   -1.5450    0.8640 H   0  0  0  0  0  0  0  0  0  0  0  0
   -2.3430   -0.1180    1.1180 H   0  0  0  0  0  0  0  0  0  0  0  0
   -2.6180   -1.3280    2.4740 H   0  0  0  0  0  0  0  0  0  0  0  0
   -1.4030   -3.0210    1.5040 H   0  0  0  0  0  0  0  0  0  0  0  0
   -0.7730   -3.1680   -0.4840 H   0  0  0  0  0  0  0  0  0  0  0  0
    0.7950   -2.2500    1.3220 H   0  0  0  0  0  0  0  0  0  0  0  0
   -0.7740   -0.5140    3.2830 H   0  0  0  0  0  0  0  0  0  0  0  0
    0.6780   -0.2000   -0.6750 N   0  0  0  0  0  0  0  0  0  0  0  0
    1.0610    0.9500   -1.4130 C   0  0  1  0  0  0  0  0  0  0  0  0
    2.3820    0.9130   -2.1050 C   0  0  0  0  0  0  0  0  0  0  0  0
    2.5540   -0.1420   -3.0900 C   0  0  0  0  0  0  0  0  0  0  0  0
    2.3220   -1.3350   -2.7880 O   0  0  0  0  0  0  0  0  0  0  0  0
   -0.0420    1.3130   -2.3210 C   0  0  0  0  0  0  0  0  0  0  0  0
   -1.0810    0.6270   -2.3420 O   0  0  0  0  0  0  0  0  0  0  0  0
    2.9700    0.1230   -4.3720 O   0  0  0  0  0  0  0  0  0  0  0  0
    0.0350    2.3970   -3.1580 O   0  0  0  0  0  0  0  0  0  0  0  0
    0.5590   -1.0930   -1.2300 H   0  0  0  0  0  0  0  0  0  0  0  0
    1.1590    1.8000   -0.6640 H   0  0  0  0  0  0  0  0  0  0  0  0
    3.1600    0.9170   -1.3090 H   0  0  0  0  0  0  0  0  0  0  0  0
    2.5090    1.8890   -2.6190 H   0  0  0  0  0  0  0  0  0  0  0  0
    3.4740   -0.5620   -4.9170 H   0  0  0  0  0  0  0  0  0  0  0  0
  2  1  1  0  0  0  0
  2  7  1  0  0  0  0
  2  8  1  0  0  0  0
  3  2  1  0  0  0  0
  4  3  2  0  0  0  0
  5  1  1  0  0  0  0
  6  1  1  0  0  0  0
  9 18  1  0  0  0  0
 10  9  1  0  0  0  0
 10 12  1  0  0  0  0
 10 19  1  1  0  0  0
 11 10  1  0  0  0  0
 12 21  1  6  0  0  0
 12 13  1  0  0  0  0
 13 22  1  0  0  0  0
 13  3  1  0  0  0  0
 14 15  2  0  0  0  0
 14 12  1  0  0  0  0
 16  9  1  0  0  0  0
 17  9  1  0  0  0  0
 20 11  1  0  0  0  0
 23 14  1  0  0  0  0
 24 23  1  0  0  0  0
 24 33  1  1  0  0  0
 25 24  1  0  0  0  0
 25 34  1  0  0  0  0
 26 27  2  0  0  0  0
 26 25  1  0  0  0  0
 28 24  1  0  0  0  0
 29 28  1  0  0  0  0
 30 26  1  0  0  0  0
 31 28  2  0  0  0  0
 32 23  1  0  0  0  0
 35 25  1  0  0  0  0
 36 30  1  0  0  0  0
M  END
$$$$
