GTE.pdb
 OpenBabel07022418253D

 39 38  0  0  1  0  0  0  0  0999 V2000
   -2.9410   -3.1020   -0.0150 N   0  0  0  0  0  0  0  0  0  0  0  0
   -2.3850   -3.4210    1.2830 C   0  0  0  0  0  0  0  0  0  0  0  0
   -0.9610   -3.0010    1.3830 C   0  0  0  0  0  0  0  0  0  0  0  0
   -0.3210   -3.2030    2.4450 O   0  0  0  0  0  0  0  0  0  0  0  0
   -3.0010   -2.0600   -0.1360 H   0  0  0  0  0  0  0  0  0  0  0  0
   -2.3150   -3.5030   -0.7480 H   0  0  0  0  0  0  0  0  0  0  0  0
   -2.9430   -2.7940    2.0340 H   0  0  0  0  0  0  0  0  0  0  0  0
   -2.5330   -4.4830    1.4980 H   0  0  0  0  0  0  0  0  0  0  0  0
    3.4800   -2.2560   -0.3230 C   0  0  0  0  0  0  0  0  0  0  0  0
    2.0600   -2.6680   -0.4860 C   0  0  1  0  0  0  0  0  0  0  0  0
    2.0300   -4.0490   -0.2710 O   0  0  0  0  0  0  0  0  0  0  0  0
    1.1130   -1.9800    0.4590 C   0  0  2  0  0  0  0  0  0  0  0  0
   -0.2450   -2.3720    0.3410 N   0  0  0  0  0  0  0  0  0  0  0  0
    1.2810   -0.4840    0.4080 C   0  0  0  0  0  0  0  0  0  0  0  0
    2.4170    0.0460    0.4970 O   0  0  0  0  0  0  0  0  0  0  0  0
    3.7060   -2.2220    0.7630 H   0  0  0  0  0  0  0  0  0  0  0  0
    4.1230   -3.0590   -0.7500 H   0  0  0  0  0  0  0  0  0  0  0  0
    3.7590   -1.3270   -0.8430 H   0  0  0  0  0  0  0  0  0  0  0  0
    1.6800   -2.5380   -1.5300 H   0  0  0  0  0  0  0  0  0  0  0  0
    2.7110   -4.2780    0.4120 H   0  0  0  0  0  0  0  0  0  0  0  0
    1.4430   -2.2660    1.4820 H   0  0  0  0  0  0  0  0  0  0  0  0
   -0.7590   -2.1870   -0.5700 H   0  0  0  0  0  0  0  0  0  0  0  0
    0.1600    0.3750    0.2560 N   0  0  0  0  0  0  0  0  0  0  0  0
    0.2460    1.8250    0.1940 C   0  0  1  0  0  0  0  0  0  0  0  0
    0.6820    2.3690    1.5120 C   0  0  0  0  0  0  0  0  0  0  0  0
   -0.2160    2.0560    2.6610 C   0  0  0  0  0  0  0  0  0  0  0  0
   -1.5850    2.5570    2.5440 C   0  0  0  0  0  0  0  0  0  0  0  0
   -2.0460    3.2130    1.5940 O   0  0  0  0  0  0  0  0  0  0  0  0
    1.1830    2.2850   -0.8650 C   0  0  0  0  0  0  0  0  0  0  0  0
    1.7480    1.4410   -1.5820 O   0  0  0  0  0  0  0  0  0  0  0  0
   -2.4940    2.2900    3.5870 O   0  0  0  0  0  0  0  0  0  0  0  0
    1.4320    3.6270   -1.0630 O   0  0  0  0  0  0  0  0  0  0  0  0
   -0.7910   -0.1050    0.1870 H   0  0  0  0  0  0  0  0  0  0  0  0
   -0.7440    2.2670   -0.0770 H   0  0  0  0  0  0  0  0  0  0  0  0
    0.8700    3.4600    1.4970 H   0  0  0  0  0  0  0  0  0  0  0  0
    1.6830    1.9130    1.7620 H   0  0  0  0  0  0  0  0  0  0  0  0
   -0.1850    0.9600    2.8980 H   0  0  0  0  0  0  0  0  0  0  0  0
    0.2410    2.5440    3.5660 H   0  0  0  0  0  0  0  0  0  0  0  0
   -3.5060    2.2890    3.4060 H   0  0  0  0  0  0  0  0  0  0  0  0
  1  2  1  0  0  0  0
  2  3  1  0  0  0  0
  2  8  1  0  0  0  0
  2  7  1  0  0  0  0
  3  4  2  0  0  0  0
  5  1  1  0  0  0  0
  6  1  1  0  0  0  0
  9 16  1  0  0  0  0
 10 19  1  6  0  0  0
 10  9  1  0  0  0  0
 10 11  1  0  0  0  0
 10 12  1  0  0  0  0
 11 20  1  0  0  0  0
 12 21  1  1  0  0  0
 13 12  1  0  0  0  0
 13  3  1  0  0  0  0
 14 12  1  0  0  0  0
 14 15  2  0  0  0  0
 17  9  1  0  0  0  0
 18  9  1  0  0  0  0
 22 13  1  0  0  0  0
 23 14  1  0  0  0  0
 24 34  1  6  0  0  0
 24 23  1  0  0  0  0
 24 25  1  0  0  0  0
 25 36  1  0  0  0  0
 25 26  1  0  0  0  0
 26 37  1  0  0  0  0
 26 38  1  0  0  0  0
 27 26  1  0  0  0  0
 27 31  1  0  0  0  0
 28 27  2  0  0  0  0
 29 24  1  0  0  0  0
 30 29  2  0  0  0  0
 32 29  1  0  0  0  0
 33 23  1  0  0  0  0
 35 25  1  0  0  0  0
 39 31  1  0  0  0  0
M  END
$$$$
