GTG.pdb
 OpenBabel07022418253D

 30 29  0  0  1  0  0  0  0  0999 V2000
   -2.0560   -4.9240   -0.0090 N   0  0  0  0  0  0  0  0  0  0  0  0
   -1.3690   -3.8090   -0.6250 C   0  0  0  0  0  0  0  0  0  0  0  0
   -0.8380   -2.9340    0.4440 C   0  0  0  0  0  0  0  0  0  0  0  0
   -1.0300   -3.2390    1.6460 O   0  0  0  0  0  0  0  0  0  0  0  0
   -3.0850   -4.9070   -0.1910 H   0  0  0  0  0  0  0  0  0  0  0  0
   -1.8750   -4.9850    1.0180 H   0  0  0  0  0  0  0  0  0  0  0  0
   -0.5670   -4.2380   -1.2570 H   0  0  0  0  0  0  0  0  0  0  0  0
   -2.0660   -3.2660   -1.3010 H   0  0  0  0  0  0  0  0  0  0  0  0
    2.6940   -1.9250    1.2160 C   0  0  0  0  0  0  0  0  0  0  0  0
    1.9090   -0.6660    1.0640 C   0  0  1  0  0  0  0  0  0  0  0  0
    2.1340   -0.0760   -0.1920 O   0  0  0  0  0  0  0  0  0  0  0  0
    0.4190   -0.8790    1.2250 C   0  0  2  0  0  0  0  0  0  0  0  0
   -0.1090   -1.7470    0.1910 N   0  0  0  0  0  0  0  0  0  0  0  0
   -0.2670    0.4320    1.0830 C   0  0  0  0  0  0  0  0  0  0  0  0
   -1.1400    0.6550    0.1910 O   0  0  0  0  0  0  0  0  0  0  0  0
    3.6020   -1.8600    0.5490 H   0  0  0  0  0  0  0  0  0  0  0  0
    3.1340   -2.0110    2.2520 H   0  0  0  0  0  0  0  0  0  0  0  0
    2.1660   -2.8400    0.9110 H   0  0  0  0  0  0  0  0  0  0  0  0
    2.2490    0.0630    1.8260 H   0  0  0  0  0  0  0  0  0  0  0  0
    3.1050    0.0890   -0.3150 H   0  0  0  0  0  0  0  0  0  0  0  0
    0.1880   -1.2480    2.2400 H   0  0  0  0  0  0  0  0  0  0  0  0
    0.0610   -1.4790   -0.7980 H   0  0  0  0  0  0  0  0  0  0  0  0
    0.0290    1.5180    1.9600 N   0  0  0  0  0  0  0  0  0  0  0  0
   -0.6450    2.7880    1.8110 C   0  0  0  0  0  0  0  0  0  0  0  0
   -0.3680    3.3410    0.4620 C   0  0  0  0  0  0  0  0  0  0  0  0
   -0.8730    4.4420    0.1530 O   0  0  0  0  0  0  0  0  0  0  0  0
    0.4210    2.6910   -0.4610 O   0  0  0  0  0  0  0  0  0  0  0  0
    0.7470    1.3400    2.6970 H   0  0  0  0  0  0  0  0  0  0  0  0
   -0.1610    3.4980    2.5370 H   0  0  0  0  0  0  0  0  0  0  0  0
   -1.7300    2.7250    2.0320 H   0  0  0  0  0  0  0  0  0  0  0  0
  1  6  1  0  0  0  0
  2  1  1  0  0  0  0
  2  3  1  0  0  0  0
  3  4  2  0  0  0  0
  5  1  1  0  0  0  0
  7  2  1  0  0  0  0
  8  2  1  0  0  0  0
  9 17  1  0  0  0  0
 10  9  1  0  0  0  0
 10 12  1  0  0  0  0
 10 19  1  1  0  0  0
 11 10  1  0  0  0  0
 12 21  1  1  0  0  0
 13  3  1  0  0  0  0
 13 12  1  0  0  0  0
 14 12  1  0  0  0  0
 14 23  1  0  0  0  0
 15 14  2  0  0  0  0
 16  9  1  0  0  0  0
 18  9  1  0  0  0  0
 20 11  1  0  0  0  0
 22 13  1  0  0  0  0
 23 28  1  0  0  0  0
 24 23  1  0  0  0  0
 24 30  1  0  0  0  0
 24 29  1  0  0  0  0
 25 24  1  0  0  0  0
 26 25  1  0  0  0  0
 27 25  2  0  0  0  0
M  END
$$$$
