GTI.pdb
 OpenBabel07022418253D

 42 41  0  0  1  0  0  0  0  0999 V2000
    0.6550   -4.5620    4.6950 N   0  0  0  0  0  0  0  0  0  0  0  0
   -0.0010   -3.8120    3.6610 C   0  0  0  0  0  0  0  0  0  0  0  0
    0.9000   -3.4870    2.5330 C   0  0  0  0  0  0  0  0  0  0  0  0
    2.0900   -3.8750    2.5830 O   0  0  0  0  0  0  0  0  0  0  0  0
    1.6760   -4.2880    4.7980 H   0  0  0  0  0  0  0  0  0  0  0  0
    0.2280   -4.3960    5.6410 H   0  0  0  0  0  0  0  0  0  0  0  0
   -0.4220   -2.8590    4.0490 H   0  0  0  0  0  0  0  0  0  0  0  0
   -0.8140   -4.4710    3.2440 H   0  0  0  0  0  0  0  0  0  0  0  0
   -0.5790   -2.8230   -1.2860 C   0  0  0  0  0  0  0  0  0  0  0  0
    0.8500   -3.0990   -0.9600 C   0  0  1  0  0  0  0  0  0  0  0  0
    1.7080   -2.7530   -2.0070 O   0  0  0  0  0  0  0  0  0  0  0  0
    1.3250   -2.4240    0.2920 C   0  0  2  0  0  0  0  0  0  0  0  0
    0.4720   -2.7520    1.3960 N   0  0  0  0  0  0  0  0  0  0  0  0
    1.5370   -0.9690    0.1330 C   0  0  0  0  0  0  0  0  0  0  0  0
    2.2740   -0.5910   -0.8130 O   0  0  0  0  0  0  0  0  0  0  0  0
   -1.0810   -2.1560   -0.5500 H   0  0  0  0  0  0  0  0  0  0  0  0
   -0.6290   -2.4100   -2.3170 H   0  0  0  0  0  0  0  0  0  0  0  0
   -1.1780   -3.7570   -1.3050 H   0  0  0  0  0  0  0  0  0  0  0  0
    0.9780   -4.1950   -0.8110 H   0  0  0  0  0  0  0  0  0  0  0  0
    1.9620   -3.5310   -2.5430 H   0  0  0  0  0  0  0  0  0  0  0  0
    2.3390   -2.8600    0.5320 H   0  0  0  0  0  0  0  0  0  0  0  0
   -0.5310   -2.4460    1.3950 H   0  0  0  0  0  0  0  0  0  0  0  0
   -2.1220    2.6190   -0.6820 C   0  0  0  0  0  0  0  0  0  0  0  0
   -0.8570    1.7930   -0.6130 C   0  0  0  0  0  0  0  0  0  0  0  0
   -0.0800    2.2010    0.5840 C   0  0  2  0  0  0  0  0  0  0  0  0
    0.2620    3.6700    0.4590 C   0  0  0  0  0  0  0  0  0  0  0  0
    1.1730    1.4140    0.8130 C   0  0  2  0  0  0  0  0  0  0  0  0
    0.9480    0.0080    0.9950 N   0  0  0  0  0  0  0  0  0  0  0  0
    1.8940    1.9850    1.9800 C   0  0  0  0  0  0  0  0  0  0  0  0
    2.2010    3.2000    2.0370 O   0  0  0  0  0  0  0  0  0  0  0  0
    2.2270    1.1380    3.0250 O   0  0  0  0  0  0  0  0  0  0  0  0
   -2.0310    3.4970   -1.3540 H   0  0  0  0  0  0  0  0  0  0  0  0
   -3.0030    1.9870   -0.9520 H   0  0  0  0  0  0  0  0  0  0  0  0
   -2.3260    3.0050    0.3360 H   0  0  0  0  0  0  0  0  0  0  0  0
   -0.2780    2.0490   -1.5450 H   0  0  0  0  0  0  0  0  0  0  0  0
   -1.1670    0.7300   -0.6140 H   0  0  0  0  0  0  0  0  0  0  0  0
   -0.7590    2.1190    1.4750 H   0  0  0  0  0  0  0  0  0  0  0  0
    0.1830    4.2010    1.4300 H   0  0  0  0  0  0  0  0  0  0  0  0
    1.2510    3.8500    0.0070 H   0  0  0  0  0  0  0  0  0  0  0  0
   -0.5030    4.1790   -0.1980 H   0  0  0  0  0  0  0  0  0  0  0  0
    1.8410    1.5430   -0.0620 H   0  0  0  0  0  0  0  0  0  0  0  0
    0.3440   -0.3880    1.7630 H   0  0  0  0  0  0  0  0  0  0  0  0
  1  5  1  0  0  0  0
  1  6  1  0  0  0  0
  2  7  1  0  0  0  0
  2  1  1  0  0  0  0
  3  4  2  0  0  0  0
  3  2  1  0  0  0  0
  8  2  1  0  0  0  0
  9 10  1  0  0  0  0
  9 16  1  0  0  0  0
 10 19  1  1  0  0  0
 10 12  1  0  0  0  0
 11 10  1  0  0  0  0
 12 21  1  1  0  0  0
 12 13  1  0  0  0  0
 13  3  1  0  0  0  0
 14 12  1  0  0  0  0
 14 28  1  0  0  0  0
 15 14  2  0  0  0  0
 17  9  1  0  0  0  0
 18  9  1  0  0  0  0
 20 11  1  0  0  0  0
 22 13  1  0  0  0  0
 23 24  1  0  0  0  0
 23 34  1  0  0  0  0
 24 25  1  0  0  0  0
 25 27  1  0  0  0  0
 25 37  1  1  0  0  0
 26 25  1  0  0  0  0
 26 38  1  0  0  0  0
 27 41  1  6  0  0  0
 27 28  1  0  0  0  0
 27 29  1  0  0  0  0
 28 42  1  0  0  0  0
 29 30  2  0  0  0  0
 29 31  1  0  0  0  0
 32 23  1  0  0  0  0
 33 23  1  0  0  0  0
 35 24  1  0  0  0  0
 36 24  1  0  0  0  0
 39 26  1  0  0  0  0
 40 26  1  0  0  0  0
M  END
$$$$
