GTK.pdb
 OpenBabel07022418253D

 44 43  0  0  1  0  0  0  0  0999 V2000
   -2.7580   -3.1400   -2.0900 N   0  0  0  0  0  0  0  0  0  0  0  0
   -2.4510   -4.2680   -1.2460 C   0  0  0  0  0  0  0  0  0  0  0  0
   -1.1520   -4.0210   -0.5740 C   0  0  0  0  0  0  0  0  0  0  0  0
   -0.6860   -4.9070    0.2290 O   0  0  0  0  0  0  0  0  0  0  0  0
   -2.8290   -2.2860   -1.5030 H   0  0  0  0  0  0  0  0  0  0  0  0
   -2.0430   -2.9620   -2.8240 H   0  0  0  0  0  0  0  0  0  0  0  0
   -3.2470   -4.3340   -0.4770 H   0  0  0  0  0  0  0  0  0  0  0  0
   -2.3710   -5.2160   -1.8240 H   0  0  0  0  0  0  0  0  0  0  0  0
    2.2180   -3.7840   -1.8710 C   0  0  0  0  0  0  0  0  0  0  0  0
    2.0160   -2.5340   -1.0530 C   0  0  1  0  0  0  0  0  0  0  0  0
    1.7790   -1.4150   -1.8510 O   0  0  0  0  0  0  0  0  0  0  0  0
    0.8410   -2.6650   -0.1060 C   0  0  2  0  0  0  0  0  0  0  0  0
   -0.4000   -2.8330   -0.7870 N   0  0  0  0  0  0  0  0  0  0  0  0
    0.8600   -1.4830    0.7930 C   0  0  0  0  0  0  0  0  0  0  0  0
    1.9340   -1.2790    1.4270 O   0  0  0  0  0  0  0  0  0  0  0  0
    2.9950   -4.4530   -1.4240 H   0  0  0  0  0  0  0  0  0  0  0  0
    1.2270   -4.2980   -1.9350 H   0  0  0  0  0  0  0  0  0  0  0  0
    2.5080   -3.5570   -2.9260 H   0  0  0  0  0  0  0  0  0  0  0  0
    2.9490   -2.3240   -0.4920 H   0  0  0  0  0  0  0  0  0  0  0  0
    2.3800   -1.3880   -2.6410 H   0  0  0  0  0  0  0  0  0  0  0  0
    1.0350   -3.5510    0.5260 H   0  0  0  0  0  0  0  0  0  0  0  0
   -0.8100   -2.1290   -1.4510 H   0  0  0  0  0  0  0  0  0  0  0  0
   -0.1980   -0.6040    0.9830 N   0  0  0  0  0  0  0  0  0  0  0  0
   -0.0800    0.5490    1.9050 C   0  0  1  0  0  0  0  0  0  0  0  0
   -0.4990    1.7920    1.2200 C   0  0  0  0  0  0  0  0  0  0  0  0
   -0.4270    3.0360    2.0010 C   0  0  0  0  0  0  0  0  0  0  0  0
    0.8140    3.6330    2.4710 C   0  0  0  0  0  0  0  0  0  0  0  0
    1.7280    2.8740    3.3670 C   0  0  0  0  0  0  0  0  0  0  0  0
    2.8650    3.7680    3.7760 N   0  0  0  0  0  0  0  0  0  0  0  0
   -1.0020    0.2810    3.0410 C   0  0  0  0  0  0  0  0  0  0  0  0
   -1.7090   -0.7500    3.0070 O   0  0  0  0  0  0  0  0  0  0  0  0
   -1.1210    1.1030    4.1290 O   0  0  0  0  0  0  0  0  0  0  0  0
   -1.0950   -0.7260    0.4900 H   0  0  0  0  0  0  0  0  0  0  0  0
    0.9220    0.5190    2.3300 H   0  0  0  0  0  0  0  0  0  0  0  0
   -1.5950    1.7030    0.8730 H   0  0  0  0  0  0  0  0  0  0  0  0
    0.0040    1.9000    0.2050 H   0  0  0  0  0  0  0  0  0  0  0  0
   -1.1270    2.9920    2.9180 H   0  0  0  0  0  0  0  0  0  0  0  0
   -0.9990    3.8810    1.4260 H   0  0  0  0  0  0  0  0  0  0  0  0
    0.5470    4.5750    3.0820 H   0  0  0  0  0  0  0  0  0  0  0  0
    1.4020    4.0810    1.5970 H   0  0  0  0  0  0  0  0  0  0  0  0
    2.2730    2.0870    2.7470 H   0  0  0  0  0  0  0  0  0  0  0  0
    1.2870    2.3700    4.2110 H   0  0  0  0  0  0  0  0  0  0  0  0
    3.4720    3.9280    2.9420 H   0  0  0  0  0  0  0  0  0  0  0  0
    3.4020    3.2620    4.5300 H   0  0  0  0  0  0  0  0  0  0  0  0
  1  5  1  0  0  0  0
  1  2  1  0  0  0  0
  2  3  1  0  0  0  0
  2  7  1  0  0  0  0
  3  4  2  0  0  0  0
  6  1  1  0  0  0  0
  8  2  1  0  0  0  0
  9 16  1  0  0  0  0
  9 10  1  0  0  0  0
 10 19  1  1  0  0  0
 10 12  1  0  0  0  0
 11 10  1  0  0  0  0
 12 21  1  1  0  0  0
 12 14  1  0  0  0  0
 13  3  1  0  0  0  0
 13 12  1  0  0  0  0
 14 23  1  0  0  0  0
 14 15  2  0  0  0  0
 17  9  1  0  0  0  0
 18  9  1  0  0  0  0
 20 11  1  0  0  0  0
 22 13  1  0  0  0  0
 23 24  1  0  0  0  0
 24 34  1  1  0  0  0
 24 30  1  0  0  0  0
 25 24  1  0  0  0  0
 25 26  1  0  0  0  0
 26 27  1  0  0  0  0
 26 37  1  0  0  0  0
 27 39  1  0  0  0  0
 27 28  1  0  0  0  0
 28 29  1  0  0  0  0
 28 42  1  0  0  0  0
 29 44  1  0  0  0  0
 30 32  1  0  0  0  0
 31 30  2  0  0  0  0
 33 23  1  0  0  0  0
 35 25  1  0  0  0  0
 36 25  1  0  0  0  0
 38 26  1  0  0  0  0
 40 27  1  0  0  0  0
 41 28  1  0  0  0  0
 43 29  1  0  0  0  0
M  END
$$$$
