GTM.pdb
 OpenBabel07022418253D

 40 39  0  0  1  0  0  0  0  0999 V2000
   -0.9620   -2.0310    3.9650 N   0  0  0  0  0  0  0  0  0  0  0  0
   -0.7440   -3.2980    3.3470 C   0  0  0  0  0  0  0  0  0  0  0  0
   -0.5850   -3.2250    1.8850 C   0  0  0  0  0  0  0  0  0  0  0  0
   -0.3870   -4.2530    1.1960 O   0  0  0  0  0  0  0  0  0  0  0  0
   -0.1310   -1.4010    3.9840 H   0  0  0  0  0  0  0  0  0  0  0  0
   -1.7580   -1.4840    3.5800 H   0  0  0  0  0  0  0  0  0  0  0  0
    0.2260   -3.6950    3.7530 H   0  0  0  0  0  0  0  0  0  0  0  0
   -1.5590   -3.9910    3.6680 H   0  0  0  0  0  0  0  0  0  0  0  0
   -1.8740   -1.1090   -2.1930 C   0  0  0  0  0  0  0  0  0  0  0  0
   -1.8330   -1.3110   -0.7140 C   0  0  1  0  0  0  0  0  0  0  0  0
   -2.7730   -2.3180   -0.4050 O   0  0  0  0  0  0  0  0  0  0  0  0
   -0.5110   -1.7940   -0.1890 C   0  0  2  0  0  0  0  0  0  0  0  0
   -0.6530   -1.9810    1.2340 N   0  0  0  0  0  0  0  0  0  0  0  0
    0.6280   -0.9340   -0.5530 C   0  0  0  0  0  0  0  0  0  0  0  0
    0.8260   -0.7220   -1.7770 O   0  0  0  0  0  0  0  0  0  0  0  0
   -2.8500   -1.4560   -2.6440 H   0  0  0  0  0  0  0  0  0  0  0  0
   -1.0900   -1.6320   -2.7520 H   0  0  0  0  0  0  0  0  0  0  0  0
   -1.8480    0.0010   -2.3750 H   0  0  0  0  0  0  0  0  0  0  0  0
   -2.1520   -0.4180   -0.1360 H   0  0  0  0  0  0  0  0  0  0  0  0
   -3.0640   -2.2980    0.5190 H   0  0  0  0  0  0  0  0  0  0  0  0
   -0.3440   -2.8260   -0.6150 H   0  0  0  0  0  0  0  0  0  0  0  0
   -0.8180   -1.1240    1.8050 H   0  0  0  0  0  0  0  0  0  0  0  0
   -0.1140    1.9050    2.6460 C   0  0  0  0  0  0  0  0  0  0  0  0
   -0.1390    1.8950    0.8210 S   0  0  0  0  0  0  0  0  0  0  0  0
    1.3650    2.6700    0.1650 C   0  0  0  0  0  0  0  0  0  0  0  0
    2.5950    1.8760    0.4710 C   0  0  0  0  0  0  0  0  0  0  0  0
    2.5910    0.4900   -0.0990 C   0  0  2  0  0  0  0  0  0  0  0  0
    1.5070   -0.3350    0.3680 N   0  0  0  0  0  0  0  0  0  0  0  0
    3.8660   -0.1760    0.3420 C   0  0  0  0  0  0  0  0  0  0  0  0
    4.9980    0.3270    0.0710 O   0  0  0  0  0  0  0  0  0  0  0  0
    3.8530   -1.3610    1.0590 O   0  0  0  0  0  0  0  0  0  0  0  0
   -0.3700    0.9040    2.9980 H   0  0  0  0  0  0  0  0  0  0  0  0
   -0.8400    2.6660    3.0000 H   0  0  0  0  0  0  0  0  0  0  0  0
    0.8930    2.1760    3.0270 H   0  0  0  0  0  0  0  0  0  0  0  0
    1.4720    3.6460    0.7090 H   0  0  0  0  0  0  0  0  0  0  0  0
    1.2510    2.9370   -0.9000 H   0  0  0  0  0  0  0  0  0  0  0  0
    3.4680    2.4170    0.0810 H   0  0  0  0  0  0  0  0  0  0  0  0
    2.7100    1.8550    1.5840 H   0  0  0  0  0  0  0  0  0  0  0  0
    2.6120    0.5700   -1.2090 H   0  0  0  0  0  0  0  0  0  0  0  0
    1.3890   -0.4760    1.3860 H   0  0  0  0  0  0  0  0  0  0  0  0
  1  5  1  0  0  0  0
  2  8  1  0  0  0  0
  2  7  1  0  0  0  0
  2  1  1  0  0  0  0
  3  2  1  0  0  0  0
  4  3  2  0  0  0  0
  6  1  1  0  0  0  0
  9 10  1  0  0  0  0
 10 11  1  0  0  0  0
 10 12  1  0  0  0  0
 10 19  1  1  0  0  0
 11 20  1  0  0  0  0
 12 21  1  6  0  0  0
 12 13  1  0  0  0  0
 13 22  1  0  0  0  0
 13  3  1  0  0  0  0
 14 12  1  0  0  0  0
 14 28  1  0  0  0  0
 15 14  2  0  0  0  0
 16  9  1  0  0  0  0
 17  9  1  0  0  0  0
 18  9  1  0  0  0  0
 23 32  1  0  0  0  0
 23 33  1  0  0  0  0
 23 34  1  0  0  0  0
 24 23  1  0  0  0  0
 25 26  1  0  0  0  0
 25 35  1  0  0  0  0
 25 24  1  0  0  0  0
 26 38  1  0  0  0  0
 27 39  1  6  0  0  0
 27 29  1  0  0  0  0
 27 28  1  0  0  0  0
 27 26  1  0  0  0  0
 28 40  1  0  0  0  0
 29 31  1  0  0  0  0
 30 29  2  0  0  0  0
 36 25  1  0  0  0  0
 37 26  1  0  0  0  0
M  END
$$$$
