GTP.pdb
 OpenBabel07022418253D

 37 37  0  0  1  0  0  0  0  0999 V2000
    3.0000    2.6990   -0.5210 N   0  0  0  0  0  0  0  0  0  0  0  0
    1.6120    2.3740   -0.2710 C   0  0  0  0  0  0  0  0  0  0  0  0
    1.5260    1.0370    0.3120 C   0  0  0  0  0  0  0  0  0  0  0  0
    2.5690    0.3680    0.5180 O   0  0  0  0  0  0  0  0  0  0  0  0
    3.3600    3.4450    0.1200 H   0  0  0  0  0  0  0  0  0  0  0  0
    3.6410    1.8900   -0.4210 H   0  0  0  0  0  0  0  0  0  0  0  0
    1.1800    3.1720    0.3650 H   0  0  0  0  0  0  0  0  0  0  0  0
    1.0920    2.4550   -1.2640 H   0  0  0  0  0  0  0  0  0  0  0  0
   -1.8450   -0.2840    2.5110 C   0  0  0  0  0  0  0  0  0  0  0  0
   -0.4450   -0.8250    2.5960 C   0  0  1  0  0  0  0  0  0  0  0  0
   -0.5310   -2.0960    3.1990 O   0  0  0  0  0  0  0  0  0  0  0  0
    0.2290   -0.9070    1.2520 C   0  0  2  0  0  0  0  0  0  0  0  0
    0.2930    0.4030    0.6820 N   0  0  0  0  0  0  0  0  0  0  0  0
   -0.4340   -1.9330    0.4440 C   0  0  0  0  0  0  0  0  0  0  0  0
   -0.4830   -3.0930    0.9870 O   0  0  0  0  0  0  0  0  0  0  0  0
   -1.8750    0.7840    2.2060 H   0  0  0  0  0  0  0  0  0  0  0  0
   -2.5050   -0.9140    1.8730 H   0  0  0  0  0  0  0  0  0  0  0  0
   -2.2790   -0.3330    3.5340 H   0  0  0  0  0  0  0  0  0  0  0  0
    0.1410   -0.1310    3.2290 H   0  0  0  0  0  0  0  0  0  0  0  0
    0.4210   -2.3730    3.3370 H   0  0  0  0  0  0  0  0  0  0  0  0
    1.2650   -1.2950    1.4430 H   0  0  0  0  0  0  0  0  0  0  0  0
   -0.5670    0.9590    0.5210 H   0  0  0  0  0  0  0  0  0  0  0  0
   -1.0100   -1.7930   -0.8320 N   0  0  0  0  0  0  0  0  0  0  0  0
   -1.0850   -0.5850   -1.6260 C   0  0  0  0  0  0  0  0  0  0  0  0
   -1.6110   -1.0540   -2.9780 C   0  0  0  0  0  0  0  0  0  0  0  0
   -2.5440   -2.1950   -2.5230 C   0  0  0  0  0  0  0  0  0  0  0  0
   -1.6160   -2.8830   -1.5620 C   0  0  1  0  0  0  0  0  0  0  0  0
   -0.6070   -3.6170   -2.3750 C   0  0  0  0  0  0  0  0  0  0  0  0
    0.6110   -3.3090   -2.4070 O   0  0  0  0  0  0  0  0  0  0  0  0
   -1.0230   -4.6960   -3.1370 O   0  0  0  0  0  0  0  0  0  0  0  0
   -0.1070   -0.1050   -1.7950 H   0  0  0  0  0  0  0  0  0  0  0  0
   -1.8560    0.1250   -1.2460 H   0  0  0  0  0  0  0  0  0  0  0  0
   -0.8230   -1.5470   -3.5830 H   0  0  0  0  0  0  0  0  0  0  0  0
   -2.1560   -0.2630   -3.4900 H   0  0  0  0  0  0  0  0  0  0  0  0
   -3.3810   -1.7220   -1.9990 H   0  0  0  0  0  0  0  0  0  0  0  0
   -2.8320   -2.8340   -3.3740 H   0  0  0  0  0  0  0  0  0  0  0  0
   -2.1510   -3.5630   -0.8640 H   0  0  0  0  0  0  0  0  0  0  0  0
  1  6  1  0  0  0  0
  1  2  1  0  0  0  0
  1  5  1  0  0  0  0
  2  3  1  0  0  0  0
  2  7  1  0  0  0  0
  3  4  2  0  0  0  0
  3 13  1  0  0  0  0
  8  2  1  0  0  0  0
  9 10  1  0  0  0  0
  9 18  1  0  0  0  0
 10 11  1  0  0  0  0
 10 19  1  1  0  0  0
 11 20  1  0  0  0  0
 12 21  1  1  0  0  0
 12 10  1  0  0  0  0
 13 12  1  0  0  0  0
 14 15  2  0  0  0  0
 14 12  1  0  0  0  0
 16  9  1  0  0  0  0
 17  9  1  0  0  0  0
 22 13  1  0  0  0  0
 23 14  1  0  0  0  0
 24 32  1  0  0  0  0
 24 23  1  0  0  0  0
 25 26  1  0  0  0  0
 25 24  1  0  0  0  0
 26 35  1  0  0  0  0
 26 27  1  0  0  0  0
 27 37  1  1  0  0  0
 27 23  1  0  0  0  0
 28 27  1  0  0  0  0
 29 28  1  0  0  0  0
 30 28  2  0  0  0  0
 31 24  1  0  0  0  0
 33 25  1  0  0  0  0
 34 25  1  0  0  0  0
 36 26  1  0  0  0  0
M  END
$$$$
