GTQ.pdb
 OpenBabel07022418253D

 40 39  0  0  1  0  0  0  0  0999 V2000
   -3.0110   -3.0000   -0.0870 N   0  0  0  0  0  0  0  0  0  0  0  0
   -2.3020   -3.9960    0.6500 C   0  0  0  0  0  0  0  0  0  0  0  0
   -0.8650   -3.6850    0.8280 C   0  0  0  0  0  0  0  0  0  0  0  0
   -0.1730   -4.5170    1.4690 O   0  0  0  0  0  0  0  0  0  0  0  0
   -3.4610   -2.2660    0.4780 H   0  0  0  0  0  0  0  0  0  0  0  0
   -3.5740   -3.3430   -0.8750 H   0  0  0  0  0  0  0  0  0  0  0  0
   -2.7410   -4.0080    1.6910 H   0  0  0  0  0  0  0  0  0  0  0  0
   -2.4960   -4.9830    0.2260 H   0  0  0  0  0  0  0  0  0  0  0  0
    3.4570   -2.1440   -0.3040 C   0  0  0  0  0  0  0  0  0  0  0  0
    1.9920   -2.2390   -0.7010 C   0  0  1  0  0  0  0  0  0  0  0  0
    1.8570   -3.4660   -1.3750 O   0  0  0  0  0  0  0  0  0  0  0  0
    1.1710   -2.3180    0.5580 C   0  0  2  0  0  0  0  0  0  0  0  0
   -0.2130   -2.5500    0.3480 N   0  0  0  0  0  0  0  0  0  0  0  0
    1.4160   -1.0470    1.3260 C   0  0  0  0  0  0  0  0  0  0  0  0
    2.5780   -0.6660    1.6130 O   0  0  0  0  0  0  0  0  0  0  0  0
    3.6420   -2.5400    0.7070 H   0  0  0  0  0  0  0  0  0  0  0  0
    4.0980   -2.7640   -0.9980 H   0  0  0  0  0  0  0  0  0  0  0  0
    3.8440   -1.1030   -0.4330 H   0  0  0  0  0  0  0  0  0  0  0  0
    1.7720   -1.3800   -1.3270 H   0  0  0  0  0  0  0  0  0  0  0  0
    2.1990   -4.1680   -0.7430 H   0  0  0  0  0  0  0  0  0  0  0  0
    1.5720   -3.1740    1.1400 H   0  0  0  0  0  0  0  0  0  0  0  0
   -0.7670   -1.8440   -0.1870 H   0  0  0  0  0  0  0  0  0  0  0  0
    0.4570    4.0320   -1.4520 N   0  0  0  0  0  0  0  0  0  0  0  0
    0.0130    3.6340   -0.1690 C   0  0  0  0  0  0  0  0  0  0  0  0
   -0.8730    4.3030    0.4040 O   0  0  0  0  0  0  0  0  0  0  0  0
    0.6230    2.4340    0.4430 C   0  0  0  0  0  0  0  0  0  0  0  0
   -0.0080    2.2160    1.7950 C   0  0  0  0  0  0  0  0  0  0  0  0
    0.5500    1.0080    2.5040 C   0  0  2  0  0  0  0  0  0  0  0  0
    0.3500   -0.2120    1.7670 N   0  0  0  0  0  0  0  0  0  0  0  0
   -0.0830    0.8670    3.8300 C   0  0  0  0  0  0  0  0  0  0  0  0
   -0.6600   -0.2070    4.1120 O   0  0  0  0  0  0  0  0  0  0  0  0
   -0.0770    1.8600    4.7930 O   0  0  0  0  0  0  0  0  0  0  0  0
    0.8060    3.3740   -2.1860 H   0  0  0  0  0  0  0  0  0  0  0  0
    0.4450    5.0470   -1.7090 H   0  0  0  0  0  0  0  0  0  0  0  0
    1.7110    2.6330    0.5270 H   0  0  0  0  0  0  0  0  0  0  0  0
    0.5230    1.5350   -0.1970 H   0  0  0  0  0  0  0  0  0  0  0  0
    0.1570    3.1260    2.4070 H   0  0  0  0  0  0  0  0  0  0  0  0
   -1.1060    2.1020    1.6870 H   0  0  0  0  0  0  0  0  0  0  0  0
    1.6280    1.2220    2.6870 H   0  0  0  0  0  0  0  0  0  0  0  0
   -0.6130   -0.5350    1.5260 H   0  0  0  0  0  0  0  0  0  0  0  0
  1  5  1  0  0  0  0
  1  2  1  0  0  0  0
  2  3  1  0  0  0  0
  2  7  1  0  0  0  0
  3  4  2  0  0  0  0
  6  1  1  0  0  0  0
  8  2  1  0  0  0  0
  9 16  1  0  0  0  0
 10 19  1  6  0  0  0
 10  9  1  0  0  0  0
 10 12  1  0  0  0  0
 11 20  1  0  0  0  0
 11 10  1  0  0  0  0
 12 21  1  1  0  0  0
 12 14  1  0  0  0  0
 13 12  1  0  0  0  0
 13  3  1  0  0  0  0
 14 15  2  0  0  0  0
 14 29  1  0  0  0  0
 17  9  1  0  0  0  0
 18  9  1  0  0  0  0
 22 13  1  0  0  0  0
 23 24  1  0  0  0  0
 24 25  2  0  0  0  0
 24 26  1  0  0  0  0
 26 35  1  0  0  0  0
 26 27  1  0  0  0  0
 27 37  1  0  0  0  0
 27 28  1  0  0  0  0
 28 39  1  1  0  0  0
 28 30  1  0  0  0  0
 29 28  1  0  0  0  0
 30 31  2  0  0  0  0
 30 32  1  0  0  0  0
 33 23  1  0  0  0  0
 34 23  1  0  0  0  0
 36 26  1  0  0  0  0
 38 27  1  0  0  0  0
 40 29  1  0  0  0  0
M  END
$$$$
