GTS.pdb
 OpenBabel07022418253D

 34 33  0  0  1  0  0  0  0  0999 V2000
    0.5960   -3.1180    4.3840 N   0  0  0  0  0  0  0  0  0  0  0  0
   -0.1740   -2.1810    3.6080 C   0  0  0  0  0  0  0  0  0  0  0  0
    0.1310   -2.3200    2.1540 C   0  0  0  0  0  0  0  0  0  0  0  0
    0.9700   -3.1730    1.7230 O   0  0  0  0  0  0  0  0  0  0  0  0
    1.0060   -3.8420    3.7590 H   0  0  0  0  0  0  0  0  0  0  0  0
    0.0290   -3.6200    5.1030 H   0  0  0  0  0  0  0  0  0  0  0  0
   -1.2480   -2.4550    3.7400 H   0  0  0  0  0  0  0  0  0  0  0  0
   -0.0710   -1.1360    3.9520 H   0  0  0  0  0  0  0  0  0  0  0  0
   -1.2870   -1.9840   -2.4680 C   0  0  0  0  0  0  0  0  0  0  0  0
   -1.5140   -1.9210   -0.9960 C   0  0  1  0  0  0  0  0  0  0  0  0
   -1.9410   -3.1760   -0.5530 O   0  0  0  0  0  0  0  0  0  0  0  0
   -0.2730   -1.5690   -0.2170 C   0  0  2  0  0  0  0  0  0  0  0  0
   -0.5000   -1.5090    1.1960 N   0  0  0  0  0  0  0  0  0  0  0  0
    0.3330   -0.2950   -0.6810 C   0  0  0  0  0  0  0  0  0  0  0  0
    0.6330   -0.0850   -1.8850 O   0  0  0  0  0  0  0  0  0  0  0  0
   -1.5640   -1.0130   -2.9720 H   0  0  0  0  0  0  0  0  0  0  0  0
   -0.2930   -2.3380   -2.7700 H   0  0  0  0  0  0  0  0  0  0  0  0
   -2.0180   -2.7260   -2.8990 H   0  0  0  0  0  0  0  0  0  0  0  0
   -2.3420   -1.2090   -0.8050 H   0  0  0  0  0  0  0  0  0  0  0  0
   -1.4710   -3.9110   -0.9890 H   0  0  0  0  0  0  0  0  0  0  0  0
    0.4860   -2.3640   -0.4270 H   0  0  0  0  0  0  0  0  0  0  0  0
   -1.2010   -0.7980    1.5630 H   0  0  0  0  0  0  0  0  0  0  0  0
    0.6790    4.3510   -0.0180 O   0  0  0  0  0  0  0  0  0  0  0  0
    0.2220    3.0880    0.3040 C   0  0  0  0  0  0  0  0  0  0  0  0
    1.1890    2.0170   -0.1550 C   0  0  2  0  0  0  0  0  0  0  0  0
    0.5930    0.7390    0.2420 N   0  0  0  0  0  0  0  0  0  0  0  0
    2.4440    2.2110    0.6080 C   0  0  0  0  0  0  0  0  0  0  0  0
    3.1780    3.2230    0.4790 O   0  0  0  0  0  0  0  0  0  0  0  0
    2.8480    1.2440    1.5140 O   0  0  0  0  0  0  0  0  0  0  0  0
   -0.1000    4.9390   -0.1450 H   0  0  0  0  0  0  0  0  0  0  0  0
   -0.7850    2.9560   -0.0900 H   0  0  0  0  0  0  0  0  0  0  0  0
    0.1760    3.0060    1.4230 H   0  0  0  0  0  0  0  0  0  0  0  0
    1.3950    2.0550   -1.2240 H   0  0  0  0  0  0  0  0  0  0  0  0
    0.3410    0.5570    1.2400 H   0  0  0  0  0  0  0  0  0  0  0  0
  1  6  1  0  0  0  0
  2  7  1  0  0  0  0
  2  8  1  0  0  0  0
  2  1  1  0  0  0  0
  3  2  1  0  0  0  0
  4  3  2  0  0  0  0
  5  1  1  0  0  0  0
  9 10  1  0  0  0  0
 10 19  1  1  0  0  0
 10 11  1  0  0  0  0
 10 12  1  0  0  0  0
 12 21  1  6  0  0  0
 12 13  1  0  0  0  0
 13 22  1  0  0  0  0
 13  3  1  0  0  0  0
 14 12  1  0  0  0  0
 14 26  1  0  0  0  0
 15 14  2  0  0  0  0
 16  9  1  0  0  0  0
 17  9  1  0  0  0  0
 18  9  1  0  0  0  0
 20 11  1  0  0  0  0
 23 24  1  0  0  0  0
 24 32  1  0  0  0  0
 25 33  1  6  0  0  0
 25 26  1  0  0  0  0
 25 24  1  0  0  0  0
 25 27  1  0  0  0  0
 26 34  1  0  0  0  0
 27 29  1  0  0  0  0
 28 27  2  0  0  0  0
 30 23  1  0  0  0  0
 31 24  1  0  0  0  0
M  END
$$$$
