GTT.pdb
 OpenBabel07022418253D

 37 36  0  0  1  0  0  0  0  0999 V2000
   -2.8610   -2.4520    0.3230 N   0  0  0  0  0  0  0  0  0  0  0  0
   -2.4490   -3.1270    1.5400 C   0  0  0  0  0  0  0  0  0  0  0  0
   -0.9690   -3.0090    1.6740 C   0  0  0  0  0  0  0  0  0  0  0  0
   -0.4030   -3.5410    2.6850 O   0  0  0  0  0  0  0  0  0  0  0  0
   -3.7740   -2.8310   -0.0100 H   0  0  0  0  0  0  0  0  0  0  0  0
   -2.9720   -1.4180    0.4730 H   0  0  0  0  0  0  0  0  0  0  0  0
   -2.9760   -2.6130    2.3740 H   0  0  0  0  0  0  0  0  0  0  0  0
   -2.7800   -4.1790    1.4610 H   0  0  0  0  0  0  0  0  0  0  0  0
    1.4740   -2.3700   -1.6780 C   0  0  0  0  0  0  0  0  0  0  0  0
    1.9630   -2.8490   -0.3290 C   0  0  1  0  0  0  0  0  0  0  0  0
    3.3180   -2.6420   -0.1590 O   0  0  0  0  0  0  0  0  0  0  0  0
    1.2350   -2.1840    0.7910 C   0  0  2  0  0  0  0  0  0  0  0  0
   -0.2020   -2.3330    0.7200 N   0  0  0  0  0  0  0  0  0  0  0  0
    1.6340   -0.7660    0.9800 C   0  0  0  0  0  0  0  0  0  0  0  0
    2.8440   -0.4320    1.0660 O   0  0  0  0  0  0  0  0  0  0  0  0
    1.7230   -1.2990   -1.8480 H   0  0  0  0  0  0  0  0  0  0  0  0
    0.3770   -2.5520   -1.7170 H   0  0  0  0  0  0  0  0  0  0  0  0
    1.9110   -2.9890   -2.4860 H   0  0  0  0  0  0  0  0  0  0  0  0
    1.7630   -3.9390   -0.2760 H   0  0  0  0  0  0  0  0  0  0  0  0
    3.8140   -3.5010   -0.0560 H   0  0  0  0  0  0  0  0  0  0  0  0
    1.5500   -2.7110    1.7400 H   0  0  0  0  0  0  0  0  0  0  0  0
   -0.6840   -1.9060   -0.0980 H   0  0  0  0  0  0  0  0  0  0  0  0
   -0.9820    2.6340    0.2250 C   0  0  0  0  0  0  0  0  0  0  0  0
    0.5080    2.5850    0.1950 C   0  0  1  0  0  0  0  0  0  0  0  0
    0.9700    3.8860    0.4960 O   0  0  0  0  0  0  0  0  0  0  0  0
    1.0890    1.6840    1.2600 C   0  0  2  0  0  0  0  0  0  0  0  0
    0.6940    0.3000    1.0760 N   0  0  0  0  0  0  0  0  0  0  0  0
    0.5540    2.1130    2.5800 C   0  0  0  0  0  0  0  0  0  0  0  0
   -0.1060    1.3460    3.3280 O   0  0  0  0  0  0  0  0  0  0  0  0
    0.7840    3.4250    3.0320 O   0  0  0  0  0  0  0  0  0  0  0  0
   -1.4260    2.2400    1.1590 H   0  0  0  0  0  0  0  0  0  0  0  0
   -1.4170    2.0400   -0.6080 H   0  0  0  0  0  0  0  0  0  0  0  0
   -1.3910    3.6650    0.1060 H   0  0  0  0  0  0  0  0  0  0  0  0
    0.9100    2.3540   -0.8120 H   0  0  0  0  0  0  0  0  0  0  0  0
    1.8520    3.8580    0.9300 H   0  0  0  0  0  0  0  0  0  0  0  0
    2.1820    1.7880    1.3130 H   0  0  0  0  0  0  0  0  0  0  0  0
   -0.3230    0.0810    1.0110 H   0  0  0  0  0  0  0  0  0  0  0  0
  1  6  1  0  0  0  0
  1  2  1  0  0  0  0
  2  3  1  0  0  0  0
  2  7  1  0  0  0  0
  3  4  2  0  0  0  0
  5  1  1  0  0  0  0
  8  2  1  0  0  0  0
  9 10  1  0  0  0  0
 10 19  1  1  0  0  0
 10 11  1  0  0  0  0
 10 12  1  0  0  0  0
 11 20  1  0  0  0  0
 12 14  1  0  0  0  0
 12 21  1  1  0  0  0
 13 12  1  0  0  0  0
 13  3  1  0  0  0  0
 14 15  2  0  0  0  0
 14 27  1  0  0  0  0
 16  9  1  0  0  0  0
 17  9  1  0  0  0  0
 18  9  1  0  0  0  0
 22 13  1  0  0  0  0
 23 31  1  0  0  0  0
 24 34  1  6  0  0  0
 24 23  1  0  0  0  0
 24 25  1  0  0  0  0
 24 26  1  0  0  0  0
 25 35  1  0  0  0  0
 26 36  1  6  0  0  0
 26 28  1  0  0  0  0
 27 26  1  0  0  0  0
 28 30  2  0  0  0  0
 28 29  1  0  0  0  0
 32 23  1  0  0  0  0
 33 23  1  0  0  0  0
 37 27  1  0  0  0  0
M  END
$$$$
