GTV.pdb
 OpenBabel07022418253D

 39 38  0  0  1  0  0  0  0  0999 V2000
   -2.5360   -3.7880    4.8460 N   0  0  0  0  0  0  0  0  0  0  0  0
   -2.2950   -3.7930    3.4170 C   0  0  0  0  0  0  0  0  0  0  0  0
   -1.1440   -2.8910    3.1580 C   0  0  0  0  0  0  0  0  0  0  0  0
   -0.5690   -2.2900    4.0990 O   0  0  0  0  0  0  0  0  0  0  0  0
   -3.4430   -4.1840    5.1140 H   0  0  0  0  0  0  0  0  0  0  0  0
   -2.3620   -2.8200    5.2270 H   0  0  0  0  0  0  0  0  0  0  0  0
   -2.0140   -4.8290    3.1190 H   0  0  0  0  0  0  0  0  0  0  0  0
   -3.1950   -3.4410    2.8730 H   0  0  0  0  0  0  0  0  0  0  0  0
    1.3370   -3.3150   -0.1910 C   0  0  0  0  0  0  0  0  0  0  0  0
    1.6770   -2.5750    1.0590 C   0  0  1  0  0  0  0  0  0  0  0  0
    2.7340   -1.7140    0.8310 O   0  0  0  0  0  0  0  0  0  0  0  0
    0.5150   -1.7590    1.6050 C   0  0  2  0  0  0  0  0  0  0  0  0
   -0.6270   -2.6530    1.8640 N   0  0  0  0  0  0  0  0  0  0  0  0
    0.0420   -0.7230    0.6550 C   0  0  0  0  0  0  0  0  0  0  0  0
   -1.1470   -0.7520    0.2060 O   0  0  0  0  0  0  0  0  0  0  0  0
    2.1150   -4.1240   -0.3110 H   0  0  0  0  0  0  0  0  0  0  0  0
    1.5050   -2.6350   -1.0570 H   0  0  0  0  0  0  0  0  0  0  0  0
    0.3720   -3.8190   -0.1940 H   0  0  0  0  0  0  0  0  0  0  0  0
    1.9830   -3.2490    1.8920 H   0  0  0  0  0  0  0  0  0  0  0  0
    3.5080   -2.2440    0.5540 H   0  0  0  0  0  0  0  0  0  0  0  0
    0.8830   -1.3190    2.5560 H   0  0  0  0  0  0  0  0  0  0  0  0
   -1.0800   -3.1360    1.0630 H   0  0  0  0  0  0  0  0  0  0  0  0
   -0.2260    3.7630   -1.1030 C   0  0  0  0  0  0  0  0  0  0  0  0
    0.3000    2.7280   -0.1370 C   0  0  0  0  0  0  0  0  0  0  0  0
    1.6620    3.1850    0.3400 C   0  0  0  0  0  0  0  0  0  0  0  0
    0.3410    1.3480   -0.7530 C   0  0  2  0  0  0  0  0  0  0  0  0
    0.8470    0.3580    0.1780 N   0  0  0  0  0  0  0  0  0  0  0  0
    1.0610    1.3250   -2.0400 C   0  0  0  0  0  0  0  0  0  0  0  0
    2.0070    0.4930   -2.2200 O   0  0  0  0  0  0  0  0  0  0  0  0
    0.7820    2.1620   -3.0990 O   0  0  0  0  0  0  0  0  0  0  0  0
    0.5520    4.1070   -1.8160 H   0  0  0  0  0  0  0  0  0  0  0  0
   -0.4660    4.6720   -0.4770 H   0  0  0  0  0  0  0  0  0  0  0  0
   -1.1730    3.4780   -1.5810 H   0  0  0  0  0  0  0  0  0  0  0  0
   -0.3670    2.7610    0.7500 H   0  0  0  0  0  0  0  0  0  0  0  0
    2.3610    2.3560    0.5210 H   0  0  0  0  0  0  0  0  0  0  0  0
    2.0700    3.9410   -0.3650 H   0  0  0  0  0  0  0  0  0  0  0  0
    1.5850    3.7310    1.3260 H   0  0  0  0  0  0  0  0  0  0  0  0
   -0.7140    1.0700   -0.9670 H   0  0  0  0  0  0  0  0  0  0  0  0
    1.8240    0.3890    0.5480 H   0  0  0  0  0  0  0  0  0  0  0  0
  1  5  1  0  0  0  0
  1  6  1  0  0  0  0
  2  1  1  0  0  0  0
  3  2  1  0  0  0  0
  3  4  2  0  0  0  0
  7  2  1  0  0  0  0
  8  2  1  0  0  0  0
  9 10  1  0  0  0  0
 10 12  1  0  0  0  0
 10 19  1  1  0  0  0
 11 10  1  0  0  0  0
 12 13  1  0  0  0  0
 12 21  1  1  0  0  0
 13  3  1  0  0  0  0
 14 12  1  0  0  0  0
 15 14  2  0  0  0  0
 16  9  1  0  0  0  0
 17  9  1  0  0  0  0
 18  9  1  0  0  0  0
 20 11  1  0  0  0  0
 22 13  1  0  0  0  0
 23 32  1  0  0  0  0
 23 24  1  0  0  0  0
 24 25  1  0  0  0  0
 24 34  1  0  0  0  0
 25 35  1  0  0  0  0
 25 37  1  0  0  0  0
 26 38  1  6  0  0  0
 26 24  1  0  0  0  0
 26 27  1  0  0  0  0
 27 39  1  0  0  0  0
 27 14  1  0  0  0  0
 28 26  1  0  0  0  0
 29 28  1  0  0  0  0
 30 28  2  0  0  0  0
 31 23  1  0  0  0  0
 33 23  1  0  0  0  0
 36 25  1  0  0  0  0
M  END
$$$$
