GVA.pdb
 OpenBabel07022418253D

 35 34  0  0  1  0  0  0  0  0999 V2000
   -1.9240   -3.4700    3.4150 N   0  0  0  0  0  0  0  0  0  0  0  0
   -1.8740   -2.7450    2.1650 C   0  0  0  0  0  0  0  0  0  0  0  0
   -0.4740   -2.3500    1.8710 C   0  0  0  0  0  0  0  0  0  0  0  0
    0.4430   -2.6650    2.6780 O   0  0  0  0  0  0  0  0  0  0  0  0
   -1.0560   -4.0230    3.4960 H   0  0  0  0  0  0  0  0  0  0  0  0
   -2.7920   -4.0570    3.4510 H   0  0  0  0  0  0  0  0  0  0  0  0
   -2.2980   -3.3900    1.3700 H   0  0  0  0  0  0  0  0  0  0  0  0
   -2.5260   -1.8480    2.2360 H   0  0  0  0  0  0  0  0  0  0  0  0
    1.6490   -3.3910   -0.7660 C   0  0  0  0  0  0  0  0  0  0  0  0
    1.5970   -1.8900   -0.9530 C   0  0  0  0  0  0  0  0  0  0  0  0
    2.9490   -1.4130   -1.3790 C   0  0  0  0  0  0  0  0  0  0  0  0
    1.1140   -1.1970    0.3050 C   0  0  2  0  0  0  0  0  0  0  0  0
   -0.2100   -1.6270    0.6830 N   0  0  0  0  0  0  0  0  0  0  0  0
    1.1020    0.2620    0.1760 C   0  0  0  0  0  0  0  0  0  0  0  0
    2.1770    0.8630   -0.1530 O   0  0  0  0  0  0  0  0  0  0  0  0
    2.0240   -3.5680    0.2680 H   0  0  0  0  0  0  0  0  0  0  0  0
    0.6750   -3.8730   -0.9200 H   0  0  0  0  0  0  0  0  0  0  0  0
    2.4290   -3.7920   -1.4420 H   0  0  0  0  0  0  0  0  0  0  0  0
    0.8570   -1.6990   -1.7660 H   0  0  0  0  0  0  0  0  0  0  0  0
    2.9070   -0.5800   -2.1080 H   0  0  0  0  0  0  0  0  0  0  0  0
    3.5750   -1.1000   -0.5000 H   0  0  0  0  0  0  0  0  0  0  0  0
    3.4850   -2.2570   -1.8590 H   0  0  0  0  0  0  0  0  0  0  0  0
    1.8030   -1.5530    1.1210 H   0  0  0  0  0  0  0  0  0  0  0  0
   -1.0020   -1.3960    0.0570 H   0  0  0  0  0  0  0  0  0  0  0  0
   -1.0460    3.0290   -0.7180 C   0  0  0  0  0  0  0  0  0  0  0  0
   -0.0210    2.5250    0.2590 C   0  0  2  0  0  0  0  0  0  0  0  0
   -0.0220    1.0910    0.3890 N   0  0  0  0  0  0  0  0  0  0  0  0
   -0.3580    3.0880    1.5960 C   0  0  0  0  0  0  0  0  0  0  0  0
   -0.5890    2.3560    2.6050 O   0  0  0  0  0  0  0  0  0  0  0  0
   -0.4400    4.4620    1.8140 O   0  0  0  0  0  0  0  0  0  0  0  0
   -0.9740    2.4970   -1.6900 H   0  0  0  0  0  0  0  0  0  0  0  0
   -2.0760    3.0240   -0.3020 H   0  0  0  0  0  0  0  0  0  0  0  0
   -0.8030    4.0930   -0.9230 H   0  0  0  0  0  0  0  0  0  0  0  0
    0.9560    2.9370   -0.0280 H   0  0  0  0  0  0  0  0  0  0  0  0
   -0.9160    0.6330    0.6590 H   0  0  0  0  0  0  0  0  0  0  0  0
  1  6  1  0  0  0  0
  1  5  1  0  0  0  0
  2  8  1  0  0  0  0
  2  1  1  0  0  0  0
  3  2  1  0  0  0  0
  3  4  2  0  0  0  0
  7  2  1  0  0  0  0
  9 16  1  0  0  0  0
 10  9  1  0  0  0  0
 10 12  1  0  0  0  0
 11 10  1  0  0  0  0
 11 21  1  0  0  0  0
 12 13  1  0  0  0  0
 12 23  1  1  0  0  0
 13  3  1  0  0  0  0
 14 12  1  0  0  0  0
 14 27  1  0  0  0  0
 15 14  2  0  0  0  0
 17  9  1  0  0  0  0
 18  9  1  0  0  0  0
 19 10  1  0  0  0  0
 20 11  1  0  0  0  0
 22 11  1  0  0  0  0
 24 13  1  0  0  0  0
 25 32  1  0  0  0  0
 25 26  1  0  0  0  0
 26 34  1  6  0  0  0
 26 27  1  0  0  0  0
 26 28  1  0  0  0  0
 27 35  1  0  0  0  0
 28 30  2  0  0  0  0
 28 29  1  0  0  0  0
 31 25  1  0  0  0  0
 33 25  1  0  0  0  0
M  END
$$$$
