GVD.pdb
 OpenBabel07022418253D

 38 37  0  0  1  0  0  0  0  0999 V2000
    0.7050   -1.9600    4.2940 N   0  0  0  0  0  0  0  0  0  0  0  0
    1.5120   -2.9310    3.5870 C   0  0  0  0  0  0  0  0  0  0  0  0
    1.2700   -2.8820    2.1290 C   0  0  0  0  0  0  0  0  0  0  0  0
    1.8950   -3.6640    1.3690 O   0  0  0  0  0  0  0  0  0  0  0  0
    1.1680   -1.6590    5.1880 H   0  0  0  0  0  0  0  0  0  0  0  0
   -0.2010   -2.3690    4.5430 H   0  0  0  0  0  0  0  0  0  0  0  0
    2.5740   -2.6610    3.7820 H   0  0  0  0  0  0  0  0  0  0  0  0
    1.3840   -3.9560    4.0000 H   0  0  0  0  0  0  0  0  0  0  0  0
   -2.2690   -1.4310    0.3840 C   0  0  0  0  0  0  0  0  0  0  0  0
   -1.2740   -2.3740   -0.2740 C   0  0  0  0  0  0  0  0  0  0  0  0
   -1.5540   -2.3770   -1.7360 C   0  0  0  0  0  0  0  0  0  0  0  0
    0.1290   -1.9530    0.0790 C   0  0  2  0  0  0  0  0  0  0  0  0
    0.3500   -1.9820    1.5100 N   0  0  0  0  0  0  0  0  0  0  0  0
    0.5080   -0.6590   -0.4870 C   0  0  0  0  0  0  0  0  0  0  0  0
    0.4210   -0.3570   -1.7050 O   0  0  0  0  0  0  0  0  0  0  0  0
   -1.8100   -0.7740    1.1250 H   0  0  0  0  0  0  0  0  0  0  0  0
   -2.7410   -0.7550   -0.3880 H   0  0  0  0  0  0  0  0  0  0  0  0
   -3.1270   -1.9850    0.8360 H   0  0  0  0  0  0  0  0  0  0  0  0
   -1.5130   -3.3850    0.1170 H   0  0  0  0  0  0  0  0  0  0  0  0
   -2.4200   -3.0480   -1.9200 H   0  0  0  0  0  0  0  0  0  0  0  0
   -0.7180   -2.7750   -2.3520 H   0  0  0  0  0  0  0  0  0  0  0  0
   -1.8890   -1.3690   -2.1190 H   0  0  0  0  0  0  0  0  0  0  0  0
    0.8050   -2.7390   -0.3600 H   0  0  0  0  0  0  0  0  0  0  0  0
   -0.1580   -1.3400    2.1730 H   0  0  0  0  0  0  0  0  0  0  0  0
    1.0180    0.3590    0.3820 N   0  0  0  0  0  0  0  0  0  0  0  0
    1.4010    1.6540   -0.1570 C   0  0  1  0  0  0  0  0  0  0  0  0
    0.6930    2.7100    0.6640 C   0  0  0  0  0  0  0  0  0  0  0  0
   -0.7790    2.5490    0.5850 C   0  0  0  0  0  0  0  0  0  0  0  0
   -1.3060    1.6390   -0.0920 O   0  0  0  0  0  0  0  0  0  0  0  0
    2.8700    1.8930    0.0540 C   0  0  0  0  0  0  0  0  0  0  0  0
    3.5230    1.0080    0.6240 O   0  0  0  0  0  0  0  0  0  0  0  0
   -1.5920    3.4320    1.2800 O   0  0  0  0  0  0  0  0  0  0  0  0
    3.4980    3.0360   -0.3570 O   0  0  0  0  0  0  0  0  0  0  0  0
    1.1260    0.1950    1.4170 H   0  0  0  0  0  0  0  0  0  0  0  0
    1.2250    1.7290   -1.2350 H   0  0  0  0  0  0  0  0  0  0  0  0
    1.0140    2.5670    1.7190 H   0  0  0  0  0  0  0  0  0  0  0  0
    0.9210    3.7310    0.2990 H   0  0  0  0  0  0  0  0  0  0  0  0
   -2.5530    3.1990    1.4540 H   0  0  0  0  0  0  0  0  0  0  0  0
  1  6  1  0  0  0  0
  1  5  1  0  0  0  0
  2  7  1  0  0  0  0
  2  8  1  0  0  0  0
  2  1  1  0  0  0  0
  3  2  1  0  0  0  0
  4  3  2  0  0  0  0
  9 18  1  0  0  0  0
  9 16  1  0  0  0  0
 10 12  1  0  0  0  0
 10 19  1  0  0  0  0
 10  9  1  0  0  0  0
 11 10  1  0  0  0  0
 12 23  1  6  0  0  0
 12 13  1  0  0  0  0
 13  3  1  0  0  0  0
 13 24  1  0  0  0  0
 14 12  1  0  0  0  0
 14 25  1  0  0  0  0
 15 14  2  0  0  0  0
 17  9  1  0  0  0  0
 20 11  1  0  0  0  0
 21 11  1  0  0  0  0
 22 11  1  0  0  0  0
 25 34  1  0  0  0  0
 26 35  1  6  0  0  0
 26 30  1  0  0  0  0
 26 25  1  0  0  0  0
 26 27  1  0  0  0  0
 27 36  1  0  0  0  0
 28 27  1  0  0  0  0
 28 32  1  0  0  0  0
 29 28  2  0  0  0  0
 30 31  1  0  0  0  0
 32 38  1  0  0  0  0
 33 30  2  0  0  0  0
 37 27  1  0  0  0  0
M  END
$$$$
