GVE.pdb
 OpenBabel07022418253D

 41 40  0  0  1  0  0  0  0  0999 V2000
   -0.1870   -1.8580    4.7340 N   0  0  0  0  0  0  0  0  0  0  0  0
   -1.2000   -1.9370    3.6700 C   0  0  0  0  0  0  0  0  0  0  0  0
   -0.4980   -1.7530    2.3800 C   0  0  0  0  0  0  0  0  0  0  0  0
    0.7570   -1.5750    2.3590 O   0  0  0  0  0  0  0  0  0  0  0  0
    0.3200   -0.9380    4.6670 H   0  0  0  0  0  0  0  0  0  0  0  0
    0.4680   -2.6730    4.6780 H   0  0  0  0  0  0  0  0  0  0  0  0
   -1.8950   -1.1070    3.8180 H   0  0  0  0  0  0  0  0  0  0  0  0
   -1.6770   -2.9400    3.6730 H   0  0  0  0  0  0  0  0  0  0  0  0
   -2.0850   -3.0200   -1.3260 C   0  0  0  0  0  0  0  0  0  0  0  0
   -0.6370   -2.7830   -0.9930 C   0  0  0  0  0  0  0  0  0  0  0  0
    0.2890   -2.8820   -2.1760 C   0  0  0  0  0  0  0  0  0  0  0  0
   -0.4100   -1.5720   -0.1440 C   0  0  2  0  0  0  0  0  0  0  0  0
   -1.1430   -1.7590    1.1290 N   0  0  0  0  0  0  0  0  0  0  0  0
   -0.9360   -0.3140   -0.7040 C   0  0  0  0  0  0  0  0  0  0  0  0
   -1.8650    0.3280   -0.1380 O   0  0  0  0  0  0  0  0  0  0  0  0
   -2.1130   -3.8250   -2.1110 H   0  0  0  0  0  0  0  0  0  0  0  0
   -2.6230   -3.4490   -0.4530 H   0  0  0  0  0  0  0  0  0  0  0  0
   -2.5840   -2.1190   -1.7270 H   0  0  0  0  0  0  0  0  0  0  0  0
   -0.3490   -3.6650   -0.3330 H   0  0  0  0  0  0  0  0  0  0  0  0
   -0.1920   -2.4580   -3.0810 H   0  0  0  0  0  0  0  0  0  0  0  0
    0.5610   -3.9430   -2.4040 H   0  0  0  0  0  0  0  0  0  0  0  0
    1.2380   -2.3620   -1.9360 H   0  0  0  0  0  0  0  0  0  0  0  0
    0.6810   -1.5120    0.0730 H   0  0  0  0  0  0  0  0  0  0  0  0
   -2.1700   -1.8990    1.0870 H   0  0  0  0  0  0  0  0  0  0  0  0
   -0.4510    0.2940   -1.9230 N   0  0  0  0  0  0  0  0  0  0  0  0
   -0.9730    1.5050   -2.4370 C   0  0  1  0  0  0  0  0  0  0  0  0
   -0.0360    2.6630   -2.4440 C   0  0  0  0  0  0  0  0  0  0  0  0
    0.4870    3.1130   -1.1220 C   0  0  0  0  0  0  0  0  0  0  0  0
    1.3570    2.2120   -0.3820 C   0  0  0  0  0  0  0  0  0  0  0  0
    1.8410    1.1840   -0.8610 O   0  0  0  0  0  0  0  0  0  0  0  0
   -1.4950    1.3660   -3.8310 C   0  0  0  0  0  0  0  0  0  0  0  0
   -1.9620    2.4000   -4.3640 O   0  0  0  0  0  0  0  0  0  0  0  0
    1.6820    2.5030    0.9450 O   0  0  0  0  0  0  0  0  0  0  0  0
   -1.4930    0.1930   -4.5510 O   0  0  0  0  0  0  0  0  0  0  0  0
    0.3020   -0.2360   -2.4150 H   0  0  0  0  0  0  0  0  0  0  0  0
   -1.8730    1.8560   -1.8470 H   0  0  0  0  0  0  0  0  0  0  0  0
   -0.4590    3.5370   -3.0240 H   0  0  0  0  0  0  0  0  0  0  0  0
    0.8760    2.3940   -3.0850 H   0  0  0  0  0  0  0  0  0  0  0  0
    0.9660    4.1460   -1.2330 H   0  0  0  0  0  0  0  0  0  0  0  0
   -0.4490    3.3640   -0.5050 H   0  0  0  0  0  0  0  0  0  0  0  0
    1.9300    1.8050    1.6270 H   0  0  0  0  0  0  0  0  0  0  0  0
  2  8  1  0  0  0  0
  2  7  1  0  0  0  0
  2  1  1  0  0  0  0
  3  2  1  0  0  0  0
  4  3  2  0  0  0  0
  5  1  1  0  0  0  0
  6  1  1  0  0  0  0
  9 10  1  0  0  0  0
  9 17  1  0  0  0  0
 10 19  1  0  0  0  0
 10 12  1  0  0  0  0
 11 22  1  0  0  0  0
 11 10  1  0  0  0  0
 12 23  1  1  0  0  0
 12 13  1  0  0  0  0
 13  3  1  0  0  0  0
 14 12  1  0  0  0  0
 14 15  2  0  0  0  0
 16  9  1  0  0  0  0
 18  9  1  0  0  0  0
 20 11  1  0  0  0  0
 21 11  1  0  0  0  0
 24 13  1  0  0  0  0
 25 14  1  0  0  0  0
 26 25  1  0  0  0  0
 26 36  1  1  0  0  0
 27 26  1  0  0  0  0
 27 28  1  0  0  0  0
 28 40  1  0  0  0  0
 28 29  1  0  0  0  0
 29 33  1  0  0  0  0
 30 29  2  0  0  0  0
 31 26  1  0  0  0  0
 32 31  1  0  0  0  0
 33 41  1  0  0  0  0
 34 31  2  0  0  0  0
 35 25  1  0  0  0  0
 37 27  1  0  0  0  0
 38 27  1  0  0  0  0
 39 28  1  0  0  0  0
M  END
$$$$
