GVF.pdb
 OpenBabel07022418253D

 45 45  0  0  1  0  0  0  0  0999 V2000
    0.7280   -4.2300    1.2680 N   0  0  0  0  0  0  0  0  0  0  0  0
    2.1260   -3.9750    1.4140 C   0  0  0  0  0  0  0  0  0  0  0  0
    2.5730   -2.7220    0.7770 C   0  0  0  0  0  0  0  0  0  0  0  0
    3.7910   -2.4280    0.8630 O   0  0  0  0  0  0  0  0  0  0  0  0
    0.4500   -4.9110    2.0370 H   0  0  0  0  0  0  0  0  0  0  0  0
    0.4940   -4.7290    0.3770 H   0  0  0  0  0  0  0  0  0  0  0  0
    2.6740   -4.8080    0.8840 H   0  0  0  0  0  0  0  0  0  0  0  0
    2.4870   -3.9860    2.4510 H   0  0  0  0  0  0  0  0  0  0  0  0
    0.6020   -0.8850   -2.3090 C   0  0  0  0  0  0  0  0  0  0  0  0
    2.0790   -0.7400   -2.0080 C   0  0  0  0  0  0  0  0  0  0  0  0
    2.6800    0.4120   -2.7490 C   0  0  0  0  0  0  0  0  0  0  0  0
    2.2420   -0.6380   -0.5100 C   0  0  2  0  0  0  0  0  0  0  0  0
    1.7170   -1.8320    0.0770 N   0  0  0  0  0  0  0  0  0  0  0  0
    1.6460    0.5980    0.0380 C   0  0  0  0  0  0  0  0  0  0  0  0
    2.0550    1.6990   -0.4260 O   0  0  0  0  0  0  0  0  0  0  0  0
    0.3270   -1.9650   -2.2630 H   0  0  0  0  0  0  0  0  0  0  0  0
    0.3580   -0.4670   -3.3130 H   0  0  0  0  0  0  0  0  0  0  0  0
    0.0450   -0.3860   -1.4980 H   0  0  0  0  0  0  0  0  0  0  0  0
    2.5640   -1.6910   -2.3160 H   0  0  0  0  0  0  0  0  0  0  0  0
    2.9350    0.0710   -3.7820 H   0  0  0  0  0  0  0  0  0  0  0  0
    1.8930    1.1900   -2.8770 H   0  0  0  0  0  0  0  0  0  0  0  0
    3.5880    0.8190   -2.3140 H   0  0  0  0  0  0  0  0  0  0  0  0
    3.3290   -0.5920   -0.3080 H   0  0  0  0  0  0  0  0  0  0  0  0
    0.7140   -2.1220    0.0340 H   0  0  0  0  0  0  0  0  0  0  0  0
    0.6490    0.5470    1.0510 N   0  0  0  0  0  0  0  0  0  0  0  0
    0.0830    1.7590    1.5710 C   0  0  1  0  0  0  0  0  0  0  0  0
   -1.3980    1.8570    1.3070 C   0  0  0  0  0  0  0  0  0  0  0  0
   -2.1790    0.7740    1.8990 C   0  0  0  0  0  0  0  0  0  0  0  0
   -2.7270    0.7950    3.1550 C   0  0  0  0  0  0  0  0  0  0  0  0
   -3.4560   -0.2610    3.6570 C   0  0  0  0  0  0  0  0  0  0  0  0
   -3.6590   -1.4030    2.8830 C   0  0  0  0  0  0  0  0  0  0  0  0
   -3.1140   -1.4380    1.6170 C   0  0  0  0  0  0  0  0  0  0  0  0
   -2.3890   -0.3630    1.1440 C   0  0  0  0  0  0  0  0  0  0  0  0
    0.3450    1.9460    3.0170 C   0  0  0  0  0  0  0  0  0  0  0  0
    0.9850    1.1500    3.7190 O   0  0  0  0  0  0  0  0  0  0  0  0
   -0.1650    3.0940    3.6110 O   0  0  0  0  0  0  0  0  0  0  0  0
    0.3810   -0.4120    1.3670 H   0  0  0  0  0  0  0  0  0  0  0  0
    0.5570    2.6140    1.0510 H   0  0  0  0  0  0  0  0  0  0  0  0
   -1.5770    1.9380    0.2120 H   0  0  0  0  0  0  0  0  0  0  0  0
   -1.7370    2.8330    1.7370 H   0  0  0  0  0  0  0  0  0  0  0  0
   -2.5930    1.6570    3.7830 H   0  0  0  0  0  0  0  0  0  0  0  0
   -3.8890   -0.2510    4.6440 H   0  0  0  0  0  0  0  0  0  0  0  0
   -4.2260   -2.2540    3.2410 H   0  0  0  0  0  0  0  0  0  0  0  0
   -3.2730   -2.3110    1.0330 H   0  0  0  0  0  0  0  0  0  0  0  0
   -1.9800   -0.4450    0.1330 H   0  0  0  0  0  0  0  0  0  0  0  0
  1  2  1  0  0  0  0
  1  5  1  0  0  0  0
  2  8  1  0  0  0  0
  3  4  2  0  0  0  0
  3  2  1  0  0  0  0
  6  1  1  0  0  0  0
  7  2  1  0  0  0  0
  9 16  1  0  0  0  0
  9 10  1  0  0  0  0
  9 18  1  0  0  0  0
 10 12  1  0  0  0  0
 11 22  1  0  0  0  0
 11 10  1  0  0  0  0
 12 23  1  1  0  0  0
 12 14  1  0  0  0  0
 12 13  1  0  0  0  0
 13  3  1  0  0  0  0
 14 25  1  0  0  0  0
 15 14  2  0  0  0  0
 17  9  1  0  0  0  0
 19 10  1  0  0  0  0
 20 11  1  0  0  0  0
 21 11  1  0  0  0  0
 24 13  1  0  0  0  0
 25 37  1  0  0  0  0
 25 26  1  0  0  0  0
 26 38  1  6  0  0  0
 26 34  1  0  0  0  0
 27 26  1  0  0  0  0
 27 40  1  0  0  0  0
 27 28  1  0  0  0  0
 28 29  1  0  0  0  0
 29 30  2  0  0  0  0
 29 41  1  0  0  0  0
 30 42  1  0  0  0  0
 31 43  1  0  0  0  0
 31 30  1  0  0  0  0
 32 31  2  0  0  0  0
 33 32  1  0  0  0  0
 33 28  2  0  0  0  0
 34 36  2  0  0  0  0
 34 35  1  0  0  0  0
 39 27  1  0  0  0  0
 44 32  1  0  0  0  0
 45 33  1  0  0  0  0
M  END
$$$$
