GVG.pdb
 OpenBabel07022418253D

 32 31  0  0  1  0  0  0  0  0999 V2000
   -2.7430   -3.2180    0.7260 N   0  0  0  0  0  0  0  0  0  0  0  0
   -1.8250   -3.1300   -0.3900 C   0  0  0  0  0  0  0  0  0  0  0  0
   -0.7370   -2.1240   -0.1210 C   0  0  0  0  0  0  0  0  0  0  0  0
    0.1070   -1.9840   -1.0410 O   0  0  0  0  0  0  0  0  0  0  0  0
   -2.2090   -3.5330    1.5610 H   0  0  0  0  0  0  0  0  0  0  0  0
   -3.1880   -2.2840    0.8350 H   0  0  0  0  0  0  0  0  0  0  0  0
   -1.3630   -4.1360   -0.5540 H   0  0  0  0  0  0  0  0  0  0  0  0
   -2.3670   -2.7710   -1.2750 H   0  0  0  0  0  0  0  0  0  0  0  0
    1.4470   -1.7950    3.0830 C   0  0  0  0  0  0  0  0  0  0  0  0
    1.6330   -0.9720    1.8060 C   0  0  0  0  0  0  0  0  0  0  0  0
    2.3820   -1.7880    0.8180 C   0  0  0  0  0  0  0  0  0  0  0  0
    0.3090   -0.4410    1.3880 C   0  0  2  0  0  0  0  0  0  0  0  0
   -0.7060   -1.4060    1.1030 N   0  0  0  0  0  0  0  0  0  0  0  0
    0.3830    0.6500    0.3880 C   0  0  0  0  0  0  0  0  0  0  0  0
    1.3380    1.4560    0.4360 O   0  0  0  0  0  0  0  0  0  0  0  0
    1.0000   -1.1380    3.8590 H   0  0  0  0  0  0  0  0  0  0  0  0
    0.7490   -2.6140    2.8180 H   0  0  0  0  0  0  0  0  0  0  0  0
    2.4430   -2.1820    3.3930 H   0  0  0  0  0  0  0  0  0  0  0  0
    2.2540   -0.0810    2.1000 H   0  0  0  0  0  0  0  0  0  0  0  0
    3.4100   -1.9530    1.2740 H   0  0  0  0  0  0  0  0  0  0  0  0
    2.5810   -1.3030   -0.1370 H   0  0  0  0  0  0  0  0  0  0  0  0
    1.9780   -2.8300    0.7480 H   0  0  0  0  0  0  0  0  0  0  0  0
   -0.0670    0.1130    2.3390 H   0  0  0  0  0  0  0  0  0  0  0  0
   -1.4850   -1.6370    1.7810 H   0  0  0  0  0  0  0  0  0  0  0  0
   -0.6040    0.7900   -0.6080 N   0  0  0  0  0  0  0  0  0  0  0  0
   -0.5400    1.8660   -1.6090 C   0  0  0  0  0  0  0  0  0  0  0  0
   -0.5780    3.1450   -0.8740 C   0  0  0  0  0  0  0  0  0  0  0  0
   -0.6650    3.1420    0.3730 O   0  0  0  0  0  0  0  0  0  0  0  0
   -0.5190    4.3620   -1.5380 O   0  0  0  0  0  0  0  0  0  0  0  0
   -1.4430    0.1510   -0.6830 H   0  0  0  0  0  0  0  0  0  0  0  0
    0.4240    1.7610   -2.1860 H   0  0  0  0  0  0  0  0  0  0  0  0
   -1.3700    1.7600   -2.3240 H   0  0  0  0  0  0  0  0  0  0  0  0
  1  6  1  0  0  0  0
  1  5  1  0  0  0  0
  2  3  1  0  0  0  0
  2  1  1  0  0  0  0
  3 13  1  0  0  0  0
  4  3  2  0  0  0  0
  7  2  1  0  0  0  0
  8  2  1  0  0  0  0
  9 18  1  0  0  0  0
  9 16  1  0  0  0  0
 10 19  1  0  0  0  0
 10  9  1  0  0  0  0
 11 20  1  0  0  0  0
 11 10  1  0  0  0  0
 12 10  1  0  0  0  0
 12 23  1  1  0  0  0
 13 12  1  0  0  0  0
 13 24  1  0  0  0  0
 14 15  2  0  0  0  0
 14 12  1  0  0  0  0
 17  9  1  0  0  0  0
 21 11  1  0  0  0  0
 22 11  1  0  0  0  0
 25 14  1  0  0  0  0
 26 27  1  0  0  0  0
 26 25  1  0  0  0  0
 27 28  1  0  0  0  0
 29 27  2  0  0  0  0
 30 25  1  0  0  0  0
 31 26  1  0  0  0  0
 32 26  1  0  0  0  0
M  END
$$$$
