GVH.pdb
 OpenBabel07022418253D

 42 42  0  0  1  0  0  0  0  0999 V2000
   -3.9380   -2.0900    1.2090 N   0  0  0  0  0  0  0  0  0  0  0  0
   -3.0880   -3.1690    0.7450 C   0  0  0  0  0  0  0  0  0  0  0  0
   -1.8110   -2.5820    0.2550 C   0  0  0  0  0  0  0  0  0  0  0  0
   -0.8800   -3.3030   -0.2100 O   0  0  0  0  0  0  0  0  0  0  0  0
   -3.6100   -1.7060    2.1150 H   0  0  0  0  0  0  0  0  0  0  0  0
   -4.1500   -1.3980    0.4850 H   0  0  0  0  0  0  0  0  0  0  0  0
   -3.6170   -3.6480   -0.1100 H   0  0  0  0  0  0  0  0  0  0  0  0
   -2.9300   -3.8970    1.5500 H   0  0  0  0  0  0  0  0  0  0  0  0
   -1.1530   -0.6160   -2.5140 C   0  0  0  0  0  0  0  0  0  0  0  0
   -0.5570    0.2620   -1.3980 C   0  0  0  0  0  0  0  0  0  0  0  0
    0.6080    0.9830   -1.9640 C   0  0  0  0  0  0  0  0  0  0  0  0
   -0.3150   -0.5890   -0.1970 C   0  0  2  0  0  0  0  0  0  0  0  0
   -1.5660   -1.2000    0.2800 N   0  0  0  0  0  0  0  0  0  0  0  0
    0.3370    0.0440    0.9470 C   0  0  0  0  0  0  0  0  0  0  0  0
   -0.2650    0.0520    2.0860 O   0  0  0  0  0  0  0  0  0  0  0  0
   -2.0650   -1.1050   -2.1180 H   0  0  0  0  0  0  0  0  0  0  0  0
   -1.3290   -0.0300   -3.4270 H   0  0  0  0  0  0  0  0  0  0  0  0
   -0.4170   -1.4050   -2.7740 H   0  0  0  0  0  0  0  0  0  0  0  0
   -1.3580    0.9900   -1.1620 H   0  0  0  0  0  0  0  0  0  0  0  0
    0.4240    1.3040   -3.0410 H   0  0  0  0  0  0  0  0  0  0  0  0
    1.4920    0.2960   -2.1100 H   0  0  0  0  0  0  0  0  0  0  0  0
    0.8750    1.9280   -1.4600 H   0  0  0  0  0  0  0  0  0  0  0  0
    0.2950   -1.4500   -0.5300 H   0  0  0  0  0  0  0  0  0  0  0  0
   -2.3000   -0.5570    0.6530 H   0  0  0  0  0  0  0  0  0  0  0  0
    1.5920    0.6750    0.9830 N   0  0  0  0  0  0  0  0  0  0  0  0
    2.1720    1.2860    2.1590 C   0  0  1  0  0  0  0  0  0  0  0  0
    3.3530    0.4090    2.5980 C   0  0  0  0  0  0  0  0  0  0  0  0
    2.7960   -0.9600    2.8990 C   0  0  0  0  0  0  0  0  0  0  0  0
    2.3230   -1.4100    4.1100 C   0  0  0  0  0  0  0  0  0  0  0  0
    1.9220   -2.6780    3.9470 N   0  0  0  0  0  0  0  0  0  0  0  0
    2.1270   -3.0410    2.6690 C   0  0  0  0  0  0  0  0  0  0  0  0
    2.6610   -1.9840    2.0390 N   0  0  0  0  0  0  0  0  0  0  0  0
    2.6730    2.6370    1.9220 C   0  0  0  0  0  0  0  0  0  0  0  0
    3.2130    3.3490    2.8010 O   0  0  0  0  0  0  0  0  0  0  0  0
    2.5500    3.1800    0.6470 O   0  0  0  0  0  0  0  0  0  0  0  0
    2.1490    0.7040    0.1170 H   0  0  0  0  0  0  0  0  0  0  0  0
    1.4390    1.1920    2.9870 H   0  0  0  0  0  0  0  0  0  0  0  0
    3.8110    0.7890    3.5250 H   0  0  0  0  0  0  0  0  0  0  0  0
    4.1120    0.3760    1.8120 H   0  0  0  0  0  0  0  0  0  0  0  0
    2.2840   -0.8300    5.0360 H   0  0  0  0  0  0  0  0  0  0  0  0
    1.5050   -3.3220    4.6840 H   0  0  0  0  0  0  0  0  0  0  0  0
    1.9050   -4.0100    2.2220 H   0  0  0  0  0  0  0  0  0  0  0  0
  1  5  1  0  0  0  0
  2  1  1  0  0  0  0
  2  8  1  0  0  0  0
  3 13  1  0  0  0  0
  3  2  1  0  0  0  0
  4  3  2  0  0  0  0
  6  1  1  0  0  0  0
  7  2  1  0  0  0  0
  9 16  1  0  0  0  0
  9 10  1  0  0  0  0
 10 19  1  0  0  0  0
 10 12  1  0  0  0  0
 11 22  1  0  0  0  0
 11 10  1  0  0  0  0
 12 23  1  6  0  0  0
 12 13  1  0  0  0  0
 12 14  1  0  0  0  0
 13 24  1  0  0  0  0
 14 25  1  0  0  0  0
 14 15  2  0  0  0  0
 17  9  1  0  0  0  0
 18  9  1  0  0  0  0
 20 11  1  0  0  0  0
 21 11  1  0  0  0  0
 25 26  1  0  0  0  0
 26 27  1  0  0  0  0
 26 37  1  1  0  0  0
 27 28  1  0  0  0  0
 27 38  1  0  0  0  0
 28 29  2  0  0  0  0
 29 40  1  0  0  0  0
 30 29  1  0  0  0  0
 30 41  1  0  0  0  0
 31 30  1  0  0  0  0
 32 31  2  0  0  0  0
 32 28  1  0  0  0  0
 33 26  1  0  0  0  0
 33 34  1  0  0  0  0
 35 33  2  0  0  0  0
 36 25  1  0  0  0  0
 39 27  1  0  0  0  0
 42 31  1  0  0  0  0
M  END
$$$$
