GVI.pdb
 OpenBabel07022418253D

 44 43  0  0  1  0  0  0  0  0999 V2000
   -3.0410   -3.8240    2.8880 N   0  0  0  0  0  0  0  0  0  0  0  0
   -1.8550   -3.9090    3.7060 C   0  0  0  0  0  0  0  0  0  0  0  0
   -0.7060   -3.2770    2.9900 C   0  0  0  0  0  0  0  0  0  0  0  0
    0.4290   -3.2400    3.5240 O   0  0  0  0  0  0  0  0  0  0  0  0
   -3.3820   -2.8370    2.7890 H   0  0  0  0  0  0  0  0  0  0  0  0
   -2.9470   -4.2790    1.9750 H   0  0  0  0  0  0  0  0  0  0  0  0
   -2.0160   -3.3780    4.6480 H   0  0  0  0  0  0  0  0  0  0  0  0
   -1.6340   -4.9860    3.8570 H   0  0  0  0  0  0  0  0  0  0  0  0
    0.9110   -4.1960   -0.1820 C   0  0  0  0  0  0  0  0  0  0  0  0
    0.5130   -2.7290   -0.3620 C   0  0  0  0  0  0  0  0  0  0  0  0
   -0.6080   -2.5850   -1.3500 C   0  0  0  0  0  0  0  0  0  0  0  0
    0.2260   -2.0810    0.9670 C   0  0  2  0  0  0  0  0  0  0  0  0
   -0.8350   -2.6970    1.6980 N   0  0  0  0  0  0  0  0  0  0  0  0
   -0.1160   -0.6630    0.6970 C   0  0  0  0  0  0  0  0  0  0  0  0
   -1.2160   -0.2280    1.1180 O   0  0  0  0  0  0  0  0  0  0  0  0
    1.1310   -4.6720   -1.1590 H   0  0  0  0  0  0  0  0  0  0  0  0
    1.8410   -4.2810    0.4140 H   0  0  0  0  0  0  0  0  0  0  0  0
    0.0670   -4.7890    0.2520 H   0  0  0  0  0  0  0  0  0  0  0  0
    1.4060   -2.2300   -0.7950 H   0  0  0  0  0  0  0  0  0  0  0  0
   -0.4190   -1.7740   -2.1000 H   0  0  0  0  0  0  0  0  0  0  0  0
   -1.5660   -2.2730   -0.8450 H   0  0  0  0  0  0  0  0  0  0  0  0
   -0.7750   -3.5080   -1.9580 H   0  0  0  0  0  0  0  0  0  0  0  0
    1.1970   -2.1080    1.5440 H   0  0  0  0  0  0  0  0  0  0  0  0
   -1.7900   -2.7430    1.2810 H   0  0  0  0  0  0  0  0  0  0  0  0
    2.5420    2.8690    2.6000 C   0  0  0  0  0  0  0  0  0  0  0  0
    1.4410    2.0860    1.8790 C   0  0  0  0  0  0  0  0  0  0  0  0
    1.4390    2.4550    0.4020 C   0  0  2  0  0  0  0  0  0  0  0  0
    1.1890    3.9180    0.2010 C   0  0  0  0  0  0  0  0  0  0  0  0
    0.3520    1.5910   -0.2460 C   0  0  2  0  0  0  0  0  0  0  0  0
    0.7420    0.2160   -0.0130 N   0  0  0  0  0  0  0  0  0  0  0  0
    0.3110    1.9050   -1.7000 C   0  0  0  0  0  0  0  0  0  0  0  0
    0.5940    1.0300   -2.5690 O   0  0  0  0  0  0  0  0  0  0  0  0
   -0.0370    3.1590   -2.1570 O   0  0  0  0  0  0  0  0  0  0  0  0
    2.2210    3.8750    2.8860 H   0  0  0  0  0  0  0  0  0  0  0  0
    3.4220    2.8480    1.9210 H   0  0  0  0  0  0  0  0  0  0  0  0
    2.8560    2.3210    3.5250 H   0  0  0  0  0  0  0  0  0  0  0  0
    0.4360    2.3530    2.2650 H   0  0  0  0  0  0  0  0  0  0  0  0
    1.6860    1.0220    2.0280 H   0  0  0  0  0  0  0  0  0  0  0  0
    2.4210    2.2010   -0.0190 H   0  0  0  0  0  0  0  0  0  0  0  0
    0.1020    4.1420    0.0780 H   0  0  0  0  0  0  0  0  0  0  0  0
    1.7270    4.3200   -0.7010 H   0  0  0  0  0  0  0  0  0  0  0  0
    1.5710    4.4990    1.0560 H   0  0  0  0  0  0  0  0  0  0  0  0
   -0.6360    1.8130    0.1860 H   0  0  0  0  0  0  0  0  0  0  0  0
    1.6420   -0.1300   -0.3610 H   0  0  0  0  0  0  0  0  0  0  0  0
  1  2  1  0  0  0  0
  2  8  1  0  0  0  0
  2  7  1  0  0  0  0
  3  4  2  0  0  0  0
  3  2  1  0  0  0  0
  5  1  1  0  0  0  0
  6  1  1  0  0  0  0
  9 18  1  0  0  0  0
  9 17  1  0  0  0  0
 10  9  1  0  0  0  0
 10 12  1  0  0  0  0
 11 21  1  0  0  0  0
 11 10  1  0  0  0  0
 12 23  1  1  0  0  0
 12 13  1  0  0  0  0
 13  3  1  0  0  0  0
 14 12  1  0  0  0  0
 14 15  2  0  0  0  0
 16  9  1  0  0  0  0
 19 10  1  0  0  0  0
 20 11  1  0  0  0  0
 22 11  1  0  0  0  0
 24 13  1  0  0  0  0
 25 34  1  0  0  0  0
 25 36  1  0  0  0  0
 26 38  1  0  0  0  0
 26 37  1  0  0  0  0
 26 25  1  0  0  0  0
 27 39  1  6  0  0  0
 27 26  1  0  0  0  0
 28 27  1  0  0  0  0
 28 42  1  0  0  0  0
 29 30  1  0  0  0  0
 29 43  1  1  0  0  0
 29 27  1  0  0  0  0
 30 14  1  0  0  0  0
 31 29  1  0  0  0  0
 32 31  2  0  0  0  0
 33 31  1  0  0  0  0
 35 25  1  0  0  0  0
 40 28  1  0  0  0  0
 41 28  1  0  0  0  0
 44 30  1  0  0  0  0
M  END
$$$$
