GVK.pdb
 OpenBabel07022418253D

 46 45  0  0  1  0  0  0  0  0999 V2000
   -0.5160   -5.2750    0.9380 N   0  0  0  0  0  0  0  0  0  0  0  0
    0.8790   -5.1780    1.2760 C   0  0  0  0  0  0  0  0  0  0  0  0
    1.4170   -3.8830    0.8090 C   0  0  0  0  0  0  0  0  0  0  0  0
    2.6170   -3.5380    0.9760 O   0  0  0  0  0  0  0  0  0  0  0  0
   -1.0700   -4.5090    1.3940 H   0  0  0  0  0  0  0  0  0  0  0  0
   -0.9190   -6.2110    1.0990 H   0  0  0  0  0  0  0  0  0  0  0  0
    1.0660   -5.3540    2.3590 H   0  0  0  0  0  0  0  0  0  0  0  0
    1.4050   -5.9680    0.6630 H   0  0  0  0  0  0  0  0  0  0  0  0
    1.5540   -2.9390   -2.3510 C   0  0  0  0  0  0  0  0  0  0  0  0
    0.7470   -1.7570   -1.8500 C   0  0  0  0  0  0  0  0  0  0  0  0
    1.0420   -0.5060   -2.5990 C   0  0  0  0  0  0  0  0  0  0  0  0
    1.0390   -1.6610   -0.3470 C   0  0  2  0  0  0  0  0  0  0  0  0
    0.5780   -2.9760    0.1490 N   0  0  0  0  0  0  0  0  0  0  0  0
    0.1320   -0.6540    0.2610 C   0  0  0  0  0  0  0  0  0  0  0  0
   -0.8490   -1.0180    1.0010 O   0  0  0  0  0  0  0  0  0  0  0  0
    1.3490   -3.8000   -1.6830 H   0  0  0  0  0  0  0  0  0  0  0  0
    2.6430   -2.7510   -2.3030 H   0  0  0  0  0  0  0  0  0  0  0  0
    1.2070   -3.2100   -3.3620 H   0  0  0  0  0  0  0  0  0  0  0  0
   -0.3200   -2.0250   -1.9390 H   0  0  0  0  0  0  0  0  0  0  0  0
    1.0500   -0.7900   -3.6960 H   0  0  0  0  0  0  0  0  0  0  0  0
    0.2060    0.2180   -2.5250 H   0  0  0  0  0  0  0  0  0  0  0  0
    1.9860   -0.0180   -2.3230 H   0  0  0  0  0  0  0  0  0  0  0  0
    2.0960   -1.4930   -0.1360 H   0  0  0  0  0  0  0  0  0  0  0  0
   -0.4290   -3.1770   -0.0320 H   0  0  0  0  0  0  0  0  0  0  0  0
    0.2470    0.7450    0.1010 N   0  0  0  0  0  0  0  0  0  0  0  0
   -0.6780    1.6780    0.7260 C   0  0  1  0  0  0  0  0  0  0  0  0
    0.0200    2.6700    1.5840 C   0  0  0  0  0  0  0  0  0  0  0  0
    0.8090    2.1150    2.7150 C   0  0  0  0  0  0  0  0  0  0  0  0
    0.0230    1.3230    3.7020 C   0  0  0  0  0  0  0  0  0  0  0  0
   -1.0770    2.1410    4.3570 C   0  0  0  0  0  0  0  0  0  0  0  0
   -1.8220    1.3410    5.3110 N   0  0  0  0  0  0  0  0  0  0  0  0
   -1.4420    2.4400   -0.3100 C   0  0  0  0  0  0  0  0  0  0  0  0
   -1.3000    2.2910   -1.5350 O   0  0  0  0  0  0  0  0  0  0  0  0
   -2.3680    3.3710    0.1400 O   0  0  0  0  0  0  0  0  0  0  0  0
    1.0180    1.1230   -0.4770 H   0  0  0  0  0  0  0  0  0  0  0  0
   -1.4420    1.1510    1.3290 H   0  0  0  0  0  0  0  0  0  0  0  0
    0.7100    3.3160    0.9800 H   0  0  0  0  0  0  0  0  0  0  0  0
   -0.7480    3.3740    1.9830 H   0  0  0  0  0  0  0  0  0  0  0  0
    1.3060    2.9630    3.2330 H   0  0  0  0  0  0  0  0  0  0  0  0
    1.6250    1.4900    2.3030 H   0  0  0  0  0  0  0  0  0  0  0  0
    0.7310    1.0620    4.5430 H   0  0  0  0  0  0  0  0  0  0  0  0
   -0.3400    0.3670    3.3160 H   0  0  0  0  0  0  0  0  0  0  0  0
   -0.6600    2.9950    4.9280 H   0  0  0  0  0  0  0  0  0  0  0  0
   -1.7410    2.5870    3.5820 H   0  0  0  0  0  0  0  0  0  0  0  0
   -2.8430    1.5140    5.1140 H   0  0  0  0  0  0  0  0  0  0  0  0
   -1.6570    0.3160    5.1410 H   0  0  0  0  0  0  0  0  0  0  0  0
  1  6  1  0  0  0  0
  1  2  1  0  0  0  0
  1  5  1  0  0  0  0
  2  7  1  0  0  0  0
  3  4  2  0  0  0  0
  3  2  1  0  0  0  0
  8  2  1  0  0  0  0
  9 17  1  0  0  0  0
  9 10  1  0  0  0  0
  9 16  1  0  0  0  0
 10 12  1  0  0  0  0
 11 21  1  0  0  0  0
 11 22  1  0  0  0  0
 11 10  1  0  0  0  0
 12 23  1  1  0  0  0
 12 13  1  0  0  0  0
 12 14  1  0  0  0  0
 13  3  1  0  0  0  0
 14 15  2  0  0  0  0
 18  9  1  0  0  0  0
 19 10  1  0  0  0  0
 20 11  1  0  0  0  0
 24 13  1  0  0  0  0
 25 14  1  0  0  0  0
 25 26  1  0  0  0  0
 26 36  1  1  0  0  0
 26 27  1  0  0  0  0
 27 38  1  0  0  0  0
 27 28  1  0  0  0  0
 28 39  1  0  0  0  0
 28 29  1  0  0  0  0
 29 30  1  0  0  0  0
 29 41  1  0  0  0  0
 30 43  1  0  0  0  0
 30 31  1  0  0  0  0
 32 34  1  0  0  0  0
 32 26  1  0  0  0  0
 33 32  2  0  0  0  0
 35 25  1  0  0  0  0
 37 27  1  0  0  0  0
 40 28  1  0  0  0  0
 42 29  1  0  0  0  0
 44 30  1  0  0  0  0
 45 31  1  0  0  0  0
 46 31  1  0  0  0  0
M  END
$$$$
