GVL.pdb
 OpenBabel07022418253D

 44 43  0  0  1  0  0  0  0  0999 V2000
    0.4740   -3.6170    3.2040 N   0  0  0  0  0  0  0  0  0  0  0  0
    1.8300   -3.4210    2.7800 C   0  0  0  0  0  0  0  0  0  0  0  0
    1.8950   -2.8050    1.4080 C   0  0  0  0  0  0  0  0  0  0  0  0
    3.0140   -2.5750    0.9080 O   0  0  0  0  0  0  0  0  0  0  0  0
    0.1310   -2.9050    3.8840 H   0  0  0  0  0  0  0  0  0  0  0  0
    0.2930   -4.5800    3.5810 H   0  0  0  0  0  0  0  0  0  0  0  0
    2.3350   -2.7700    3.5190 H   0  0  0  0  0  0  0  0  0  0  0  0
    2.3430   -4.4030    2.7140 H   0  0  0  0  0  0  0  0  0  0  0  0
   -1.3530   -2.9780   -1.4000 C   0  0  0  0  0  0  0  0  0  0  0  0
    0.0910   -2.7330   -1.6720 C   0  0  0  0  0  0  0  0  0  0  0  0
    0.2100   -2.0410   -3.0110 C   0  0  0  0  0  0  0  0  0  0  0  0
    0.7690   -1.8950   -0.6290 C   0  0  2  0  0  0  0  0  0  0  0  0
    0.7260   -2.4840    0.6820 N   0  0  0  0  0  0  0  0  0  0  0  0
    0.1300   -0.5340   -0.5170 C   0  0  0  0  0  0  0  0  0  0  0  0
    0.0700    0.1290   -1.5650 O   0  0  0  0  0  0  0  0  0  0  0  0
   -1.5910   -3.1220   -0.3300 H   0  0  0  0  0  0  0  0  0  0  0  0
   -1.9320   -2.1400   -1.8370 H   0  0  0  0  0  0  0  0  0  0  0  0
   -1.6910   -3.9050   -1.9160 H   0  0  0  0  0  0  0  0  0  0  0  0
    0.6520   -3.6800   -1.7500 H   0  0  0  0  0  0  0  0  0  0  0  0
    1.0920   -1.3890   -3.0830 H   0  0  0  0  0  0  0  0  0  0  0  0
    0.2170   -2.7890   -3.8310 H   0  0  0  0  0  0  0  0  0  0  0  0
   -0.7010   -1.4220   -3.1430 H   0  0  0  0  0  0  0  0  0  0  0  0
    1.8380   -1.7780   -0.9170 H   0  0  0  0  0  0  0  0  0  0  0  0
   -0.1880   -2.6850    1.1170 H   0  0  0  0  0  0  0  0  0  0  0  0
    1.5390    1.0230    2.6210 C   0  0  0  0  0  0  0  0  0  0  0  0
    0.5700    2.1640    2.7160 C   0  0  0  0  0  0  0  0  0  0  0  0
    1.3640    3.4620    2.9430 C   0  0  0  0  0  0  0  0  0  0  0  0
   -0.1750    2.3250    1.4500 C   0  0  0  0  0  0  0  0  0  0  0  0
   -1.0100    1.2090    0.9680 C   0  0  2  0  0  0  0  0  0  0  0  0
   -0.3720   -0.0320    0.6920 N   0  0  0  0  0  0  0  0  0  0  0  0
   -1.8800    1.7400   -0.1110 C   0  0  0  0  0  0  0  0  0  0  0  0
   -2.1270    1.0930   -1.1210 O   0  0  0  0  0  0  0  0  0  0  0  0
   -2.4120    3.0030    0.0570 O   0  0  0  0  0  0  0  0  0  0  0  0
    1.2200    0.1190    3.1820 H   0  0  0  0  0  0  0  0  0  0  0  0
    2.5480    1.3690    2.9530 H   0  0  0  0  0  0  0  0  0  0  0  0
    1.6780    0.7280    1.5650 H   0  0  0  0  0  0  0  0  0  0  0  0
   -0.0790    2.0990    3.6180 H   0  0  0  0  0  0  0  0  0  0  0  0
    0.7090    4.2100    3.4220 H   0  0  0  0  0  0  0  0  0  0  0  0
    2.1820    3.2460    3.6710 H   0  0  0  0  0  0  0  0  0  0  0  0
    1.7940    3.7780    1.9890 H   0  0  0  0  0  0  0  0  0  0  0  0
    0.5450    2.6060    0.6200 H   0  0  0  0  0  0  0  0  0  0  0  0
   -0.8450    3.2350    1.5010 H   0  0  0  0  0  0  0  0  0  0  0  0
   -1.7780    1.0160    1.8380 H   0  0  0  0  0  0  0  0  0  0  0  0
   -0.2540   -0.6940    1.5200 H   0  0  0  0  0  0  0  0  0  0  0  0
  1  6  1  0  0  0  0
  1  5  1  0  0  0  0
  2  1  1  0  0  0  0
  2  7  1  0  0  0  0
  3  2  1  0  0  0  0
  4  3  2  0  0  0  0
  8  2  1  0  0  0  0
  9 16  1  0  0  0  0
 10  9  1  0  0  0  0
 10 12  1  0  0  0  0
 11 10  1  0  0  0  0
 12 23  1  6  0  0  0
 12 14  1  0  0  0  0
 12 13  1  0  0  0  0
 13 24  1  0  0  0  0
 13  3  1  0  0  0  0
 14 30  1  0  0  0  0
 15 14  2  0  0  0  0
 17  9  1  0  0  0  0
 18  9  1  0  0  0  0
 19 10  1  0  0  0  0
 20 11  1  0  0  0  0
 21 11  1  0  0  0  0
 22 11  1  0  0  0  0
 25 26  1  0  0  0  0
 25 35  1  0  0  0  0
 25 34  1  0  0  0  0
 26 27  1  0  0  0  0
 26 37  1  0  0  0  0
 27 38  1  0  0  0  0
 27 39  1  0  0  0  0
 28 42  1  0  0  0  0
 28 26  1  0  0  0  0
 29 28  1  0  0  0  0
 29 43  1  1  0  0  0
 30 29  1  0  0  0  0
 30 44  1  0  0  0  0
 31 33  1  0  0  0  0
 31 29  1  0  0  0  0
 32 31  2  0  0  0  0
 36 25  1  0  0  0  0
 40 27  1  0  0  0  0
 41 28  1  0  0  0  0
M  END
$$$$
