GVM.pdb
 OpenBabel07022418253D

 42 41  0  0  1  0  0  0  0  0999 V2000
   -2.8640   -2.6910    1.4370 N   0  0  0  0  0  0  0  0  0  0  0  0
   -2.1740   -3.9630    1.5240 C   0  0  0  0  0  0  0  0  0  0  0  0
   -0.8270   -3.8120    0.9140 C   0  0  0  0  0  0  0  0  0  0  0  0
   -0.0320   -4.8120    0.8770 O   0  0  0  0  0  0  0  0  0  0  0  0
   -2.4870   -2.0270    2.1650 H   0  0  0  0  0  0  0  0  0  0  0  0
   -3.8960   -2.8250    1.5970 H   0  0  0  0  0  0  0  0  0  0  0  0
   -2.0920   -4.3250    2.5700 H   0  0  0  0  0  0  0  0  0  0  0  0
   -2.7770   -4.7360    0.9790 H   0  0  0  0  0  0  0  0  0  0  0  0
   -0.0680   -3.2770   -2.3320 C   0  0  0  0  0  0  0  0  0  0  0  0
    0.6690   -2.0970   -1.7080 C   0  0  0  0  0  0  0  0  0  0  0  0
   -0.2450   -0.8940   -1.8490 C   0  0  0  0  0  0  0  0  0  0  0  0
    0.9040   -2.3920   -0.2300 C   0  0  2  0  0  0  0  0  0  0  0  0
   -0.4000   -2.5700    0.3680 N   0  0  0  0  0  0  0  0  0  0  0  0
    1.6770   -1.3150    0.3990 C   0  0  0  0  0  0  0  0  0  0  0  0
    2.8370   -0.9820    0.0570 O   0  0  0  0  0  0  0  0  0  0  0  0
   -0.6120   -2.8710   -3.2240 H   0  0  0  0  0  0  0  0  0  0  0  0
   -0.8530   -3.6530   -1.6420 H   0  0  0  0  0  0  0  0  0  0  0  0
    0.6070   -4.1030   -2.5970 H   0  0  0  0  0  0  0  0  0  0  0  0
    1.5910   -1.8830   -2.2550 H   0  0  0  0  0  0  0  0  0  0  0  0
    0.1410   -0.0540   -1.2640 H   0  0  0  0  0  0  0  0  0  0  0  0
   -0.2570   -0.5740   -2.9120 H   0  0  0  0  0  0  0  0  0  0  0  0
   -1.2730   -1.2080   -1.5860 H   0  0  0  0  0  0  0  0  0  0  0  0
    1.4700   -3.3390   -0.1750 H   0  0  0  0  0  0  0  0  0  0  0  0
   -1.0780   -1.7790    0.4180 H   0  0  0  0  0  0  0  0  0  0  0  0
    0.9140    5.0300    0.7970 C   0  0  0  0  0  0  0  0  0  0  0  0
    0.9660    4.4970    2.5310 S   0  0  0  0  0  0  0  0  0  0  0  0
    1.8590    2.9100    2.7060 C   0  0  0  0  0  0  0  0  0  0  0  0
    1.1130    1.7960    2.0390 C   0  0  0  0  0  0  0  0  0  0  0  0
    1.8280    0.5110    2.1410 C   0  0  2  0  0  0  0  0  0  0  0  0
    1.1080   -0.5750    1.4710 N   0  0  0  0  0  0  0  0  0  0  0  0
    1.9630    0.0830    3.5450 C   0  0  0  0  0  0  0  0  0  0  0  0
    1.3850   -0.9820    3.9110 O   0  0  0  0  0  0  0  0  0  0  0  0
    2.7100    0.8120    4.4800 O   0  0  0  0  0  0  0  0  0  0  0  0
    1.6330    4.4580    0.1840 H   0  0  0  0  0  0  0  0  0  0  0  0
    1.1800    6.1030    0.6900 H   0  0  0  0  0  0  0  0  0  0  0  0
   -0.1050    4.8040    0.4200 H   0  0  0  0  0  0  0  0  0  0  0  0
    2.0550    2.7830    3.7790 H   0  0  0  0  0  0  0  0  0  0  0  0
    2.8630    3.0970    2.2290 H   0  0  0  0  0  0  0  0  0  0  0  0
    1.0260    2.0980    0.9510 H   0  0  0  0  0  0  0  0  0  0  0  0
    0.0980    1.7820    2.5000 H   0  0  0  0  0  0  0  0  0  0  0  0
    2.8280    0.6210    1.6730 H   0  0  0  0  0  0  0  0  0  0  0  0
    0.1530   -0.7520    1.8490 H   0  0  0  0  0  0  0  0  0  0  0  0
  1  2  1  0  0  0  0
  1  6  1  0  0  0  0
  1  5  1  0  0  0  0
  2  7  1  0  0  0  0
  3  2  1  0  0  0  0
  4  3  2  0  0  0  0
  8  2  1  0  0  0  0
  9 10  1  0  0  0  0
  9 17  1  0  0  0  0
 10 12  1  0  0  0  0
 11 10  1  0  0  0  0
 11 22  1  0  0  0  0
 11 20  1  0  0  0  0
 12 23  1  1  0  0  0
 12 13  1  0  0  0  0
 12 14  1  0  0  0  0
 13 24  1  0  0  0  0
 13  3  1  0  0  0  0
 14 30  1  0  0  0  0
 15 14  2  0  0  0  0
 16  9  1  0  0  0  0
 18  9  1  0  0  0  0
 19 10  1  0  0  0  0
 21 11  1  0  0  0  0
 25 26  1  0  0  0  0
 26 27  1  0  0  0  0
 27 37  1  0  0  0  0
 28 29  1  0  0  0  0
 28 40  1  0  0  0  0
 28 27  1  0  0  0  0
 29 41  1  6  0  0  0
 29 31  1  0  0  0  0
 30 42  1  0  0  0  0
 30 29  1  0  0  0  0
 31 32  2  0  0  0  0
 31 33  1  0  0  0  0
 34 25  1  0  0  0  0
 35 25  1  0  0  0  0
 36 25  1  0  0  0  0
 38 27  1  0  0  0  0
 39 28  1  0  0  0  0
M  END
$$$$
