GVQ.pdb
 OpenBabel07022418253D

 42 41  0  0  1  0  0  0  0  0999 V2000
   -1.1150   -5.6740    0.4970 N   0  0  0  0  0  0  0  0  0  0  0  0
    0.1600   -5.6720    1.1810 C   0  0  0  0  0  0  0  0  0  0  0  0
    0.8610   -4.3640    1.0090 C   0  0  0  0  0  0  0  0  0  0  0  0
    1.9860   -4.1520    1.5250 O   0  0  0  0  0  0  0  0  0  0  0  0
   -1.7040   -4.8850    0.8070 H   0  0  0  0  0  0  0  0  0  0  0  0
   -0.9170   -5.6920   -0.5270 H   0  0  0  0  0  0  0  0  0  0  0  0
    0.0220   -5.7960    2.2820 H   0  0  0  0  0  0  0  0  0  0  0  0
    0.7680   -6.5240    0.8280 H   0  0  0  0  0  0  0  0  0  0  0  0
   -0.0130   -1.7040   -2.1190 C   0  0  0  0  0  0  0  0  0  0  0  0
    1.2900   -1.7420   -1.3610 C   0  0  0  0  0  0  0  0  0  0  0  0
    2.1900   -2.7940   -1.9580 C   0  0  0  0  0  0  0  0  0  0  0  0
    0.9720   -2.0260    0.0890 C   0  0  2  0  0  0  0  0  0  0  0  0
    0.2890   -3.2910    0.2520 N   0  0  0  0  0  0  0  0  0  0  0  0
    0.1730   -0.9640    0.7110 C   0  0  0  0  0  0  0  0  0  0  0  0
   -0.9180   -1.2540    1.2660 O   0  0  0  0  0  0  0  0  0  0  0  0
    0.2000   -1.1760   -3.0910 H   0  0  0  0  0  0  0  0  0  0  0  0
   -0.4200   -2.7130   -2.2880 H   0  0  0  0  0  0  0  0  0  0  0  0
   -0.7660   -1.0970   -1.5960 H   0  0  0  0  0  0  0  0  0  0  0  0
    1.7800   -0.7700   -1.5030 H   0  0  0  0  0  0  0  0  0  0  0  0
    1.6150   -3.5860   -2.4920 H   0  0  0  0  0  0  0  0  0  0  0  0
    2.8790   -3.2400   -1.1950 H   0  0  0  0  0  0  0  0  0  0  0  0
    2.8720   -2.3620   -2.7410 H   0  0  0  0  0  0  0  0  0  0  0  0
    1.9550   -2.0500    0.6270 H   0  0  0  0  0  0  0  0  0  0  0  0
   -0.6460   -3.4490   -0.1840 H   0  0  0  0  0  0  0  0  0  0  0  0
    0.4240    4.8170    5.0290 N   0  0  0  0  0  0  0  0  0  0  0  0
    0.8300    3.7520    4.1910 C   0  0  0  0  0  0  0  0  0  0  0  0
    1.9620    3.2480    4.3680 O   0  0  0  0  0  0  0  0  0  0  0  0
   -0.0880    3.2440    3.1130 C   0  0  0  0  0  0  0  0  0  0  0  0
    0.6060    2.1250    2.3970 C   0  0  0  0  0  0  0  0  0  0  0  0
   -0.1590    1.4640    1.3070 C   0  0  2  0  0  0  0  0  0  0  0  0
    0.6240    0.3920    0.6910 N   0  0  0  0  0  0  0  0  0  0  0  0
   -0.5750    2.4490    0.2860 C   0  0  0  0  0  0  0  0  0  0  0  0
   -0.1980    2.3720   -0.9210 O   0  0  0  0  0  0  0  0  0  0  0  0
   -1.4080    3.4910    0.6580 O   0  0  0  0  0  0  0  0  0  0  0  0
    0.7490    5.7720    4.7970 H   0  0  0  0  0  0  0  0  0  0  0  0
   -0.1880    4.6860    5.8710 H   0  0  0  0  0  0  0  0  0  0  0  0
   -1.0680    2.9710    3.5310 H   0  0  0  0  0  0  0  0  0  0  0  0
   -0.1870    4.1310    2.4220 H   0  0  0  0  0  0  0  0  0  0  0  0
    0.8950    1.3780    3.1730 H   0  0  0  0  0  0  0  0  0  0  0  0
    1.5750    2.5610    2.0070 H   0  0  0  0  0  0  0  0  0  0  0  0
   -1.0770    1.0260    1.7410 H   0  0  0  0  0  0  0  0  0  0  0  0
    1.5220    0.5760    0.2260 H   0  0  0  0  0  0  0  0  0  0  0  0
  1  5  1  0  0  0  0
  1  2  1  0  0  0  0
  2  7  1  0  0  0  0
  3  2  1  0  0  0  0
  3  4  2  0  0  0  0
  6  1  1  0  0  0  0
  8  2  1  0  0  0  0
  9 18  1  0  0  0  0
  9 10  1  0  0  0  0
 10 12  1  0  0  0  0
 11 10  1  0  0  0  0
 11 21  1  0  0  0  0
 12 13  1  0  0  0  0
 12 23  1  1  0  0  0
 12 14  1  0  0  0  0
 13  3  1  0  0  0  0
 14 15  2  0  0  0  0
 16  9  1  0  0  0  0
 17  9  1  0  0  0  0
 19 10  1  0  0  0  0
 20 11  1  0  0  0  0
 22 11  1  0  0  0  0
 24 13  1  0  0  0  0
 25 36  1  0  0  0  0
 26 27  2  0  0  0  0
 26 25  1  0  0  0  0
 28 37  1  0  0  0  0
 28 26  1  0  0  0  0
 29 28  1  0  0  0  0
 29 39  1  0  0  0  0
 30 41  1  1  0  0  0
 30 29  1  0  0  0  0
 31 14  1  0  0  0  0
 31 30  1  0  0  0  0
 32 34  1  0  0  0  0
 32 30  1  0  0  0  0
 33 32  2  0  0  0  0
 35 25  1  0  0  0  0
 38 28  1  0  0  0  0
 40 29  1  0  0  0  0
 42 31  1  0  0  0  0
M  END
$$$$
