GVR.pdb
 OpenBabel07022418253D

 48 47  0  0  1  0  0  0  0  0999 V2000
    0.1070   -5.3430   -1.3790 N   0  0  0  0  0  0  0  0  0  0  0  0
    1.4290   -5.4250   -1.9800 C   0  0  0  0  0  0  0  0  0  0  0  0
    2.1810   -4.0730   -1.8400 C   0  0  0  0  0  0  0  0  0  0  0  0
    3.3510   -3.9880   -2.2410 O   0  0  0  0  0  0  0  0  0  0  0  0
   -0.6170   -4.8980   -1.9190 H   0  0  0  0  0  0  0  0  0  0  0  0
   -0.1770   -6.1150   -0.7540 H   0  0  0  0  0  0  0  0  0  0  0  0
    1.3160   -5.5970   -3.0730 H   0  0  0  0  0  0  0  0  0  0  0  0
    2.0440   -6.1670   -1.4690 H   0  0  0  0  0  0  0  0  0  0  0  0
    3.1780   -1.1980   -3.1380 C   0  0  0  0  0  0  0  0  0  0  0  0
    2.0920   -0.7830   -2.1830 C   0  0  0  0  0  0  0  0  0  0  0  0
    2.2310    0.6520   -1.8150 C   0  0  0  0  0  0  0  0  0  0  0  0
    1.9590   -1.6880   -0.9560 C   0  0  2  0  0  0  0  0  0  0  0  0
    1.5520   -2.9940   -1.2620 N   0  0  0  0  0  0  0  0  0  0  0  0
    1.2540   -1.0040    0.1310 C   0  0  0  0  0  0  0  0  0  0  0  0
    1.7160    0.1180    0.5630 O   0  0  0  0  0  0  0  0  0  0  0  0
    4.1090   -1.5830   -2.6000 H   0  0  0  0  0  0  0  0  0  0  0  0
    3.6110   -0.2160   -3.6190 H   0  0  0  0  0  0  0  0  0  0  0  0
    2.8570   -1.8370   -3.9750 H   0  0  0  0  0  0  0  0  0  0  0  0
    1.1120   -0.8450   -2.7830 H   0  0  0  0  0  0  0  0  0  0  0  0
    3.0820    0.8740   -1.1800 H   0  0  0  0  0  0  0  0  0  0  0  0
    2.4620    1.1580   -2.7970 H   0  0  0  0  0  0  0  0  0  0  0  0
    1.2620    1.1450   -1.4800 H   0  0  0  0  0  0  0  0  0  0  0  0
    3.0930   -1.8120   -0.6900 H   0  0  0  0  0  0  0  0  0  0  0  0
    0.4880   -3.1960   -0.9610 H   0  0  0  0  0  0  0  0  0  0  0  0
   -3.3070    4.4100    5.2670 N   0  0  0  0  0  0  0  0  0  0  0  0
   -2.4250    3.7540    4.3990 C   0  0  0  0  0  0  0  0  0  0  0  0
   -1.2650    4.1600    4.0410 N   0  0  0  0  0  0  0  0  0  0  0  0
   -2.9220    2.4800    3.8670 N   0  0  0  0  0  0  0  0  0  0  0  0
   -2.0900    1.7850    2.9060 C   0  0  0  0  0  0  0  0  0  0  0  0
   -2.7030    0.4680    2.5160 C   0  0  0  0  0  0  0  0  0  0  0  0
   -1.9710   -0.3130    1.4970 C   0  0  0  0  0  0  0  0  0  0  0  0
   -0.5870   -0.6460    1.8430 C   0  0  2  0  0  0  0  0  0  0  0  0
    0.0890   -1.4070    0.7960 N   0  0  0  0  0  0  0  0  0  0  0  0
   -0.5190   -1.4040    3.1010 C   0  0  0  0  0  0  0  0  0  0  0  0
   -1.0420   -1.0460    4.1950 O   0  0  0  0  0  0  0  0  0  0  0  0
    0.1760   -2.6250    3.1150 O   0  0  0  0  0  0  0  0  0  0  0  0
   -3.5860    4.0380    6.2390 H   0  0  0  0  0  0  0  0  0  0  0  0
   -3.7710    5.3070    5.0760 H   0  0  0  0  0  0  0  0  0  0  0  0
   -0.8660    5.0700    4.3950 H   0  0  0  0  0  0  0  0  0  0  0  0
   -3.8370    2.1600    4.1880 H   0  0  0  0  0  0  0  0  0  0  0  0
   -1.0440    1.7070    3.2780 H   0  0  0  0  0  0  0  0  0  0  0  0
   -2.0490    2.4280    2.0040 H   0  0  0  0  0  0  0  0  0  0  0  0
   -3.7400    0.7150    2.0610 H   0  0  0  0  0  0  0  0  0  0  0  0
   -2.9440   -0.0870    3.4460 H   0  0  0  0  0  0  0  0  0  0  0  0
   -2.5930   -1.2640    1.3580 H   0  0  0  0  0  0  0  0  0  0  0  0
   -2.1050    0.1960    0.5230 H   0  0  0  0  0  0  0  0  0  0  0  0
    0.0250    0.2840    2.0030 H   0  0  0  0  0  0  0  0  0  0  0  0
   -0.3360   -2.3160    0.5300 H   0  0  0  0  0  0  0  0  0  0  0  0
  1  6  1  0  0  0  0
  2  3  1  0  0  0  0
  2  8  1  0  0  0  0
  2  1  1  0  0  0  0
  3 13  1  0  0  0  0
  4  3  2  0  0  0  0
  5  1  1  0  0  0  0
  7  2  1  0  0  0  0
  9 16  1  0  0  0  0
  9 10  1  0  0  0  0
 10 11  1  0  0  0  0
 10 12  1  0  0  0  0
 11 22  1  0  0  0  0
 11 20  1  0  0  0  0
 12 23  1  1  0  0  0
 12 14  1  0  0  0  0
 13 24  1  0  0  0  0
 13 12  1  0  0  0  0
 14 15  2  0  0  0  0
 14 33  1  0  0  0  0
 17  9  1  0  0  0  0
 18  9  1  0  0  0  0
 19 10  1  0  0  0  0
 21 11  1  0  0  0  0
 25 37  1  0  0  0  0
 26 25  1  0  0  0  0
 27 39  1  0  0  0  0
 27 26  2  0  0  0  0
 28 40  1  0  0  0  0
 28 26  1  0  0  0  0
 29 41  1  0  0  0  0
 29 28  1  0  0  0  0
 30 29  1  0  0  0  0
 30 44  1  0  0  0  0
 31 32  1  0  0  0  0
 31 30  1  0  0  0  0
 32 47  1  1  0  0  0
 32 34  1  0  0  0  0
 33 32  1  0  0  0  0
 34 36  2  0  0  0  0
 34 35  1  0  0  0  0
 38 25  1  0  0  0  0
 42 29  1  0  0  0  0
 43 30  1  0  0  0  0
 45 31  1  0  0  0  0
 46 31  1  0  0  0  0
 48 33  1  0  0  0  0
M  END
$$$$
