GVT.pdb
 OpenBabel07022418253D

 39 38  0  0  1  0  0  0  0  0999 V2000
   -2.6920   -3.1980    0.5500 N   0  0  0  0  0  0  0  0  0  0  0  0
   -1.8330   -3.8320    1.5020 C   0  0  0  0  0  0  0  0  0  0  0  0
   -0.4700   -3.2310    1.4960 C   0  0  0  0  0  0  0  0  0  0  0  0
    0.4110   -3.6850    2.2870 O   0  0  0  0  0  0  0  0  0  0  0  0
   -3.2740   -2.4350    0.9070 H   0  0  0  0  0  0  0  0  0  0  0  0
   -2.3090   -3.0410   -0.3850 H   0  0  0  0  0  0  0  0  0  0  0  0
   -2.2970   -3.8110    2.4930 H   0  0  0  0  0  0  0  0  0  0  0  0
   -1.6990   -4.9090    1.2020 H   0  0  0  0  0  0  0  0  0  0  0  0
    2.1190   -3.2960   -0.9500 C   0  0  0  0  0  0  0  0  0  0  0  0
    2.0150   -1.8250   -0.5920 C   0  0  0  0  0  0  0  0  0  0  0  0
    3.4360   -1.3460   -0.3450 C   0  0  0  0  0  0  0  0  0  0  0  0
    1.2620   -1.6460    0.7100 C   0  0  2  0  0  0  0  0  0  0  0  0
   -0.0710   -2.1660    0.6540 N   0  0  0  0  0  0  0  0  0  0  0  0
    1.2780   -0.1970    1.0560 C   0  0  0  0  0  0  0  0  0  0  0  0
    2.3730    0.4100    1.1630 O   0  0  0  0  0  0  0  0  0  0  0  0
    1.0630   -3.6580   -1.0430 H   0  0  0  0  0  0  0  0  0  0  0  0
    2.6790   -3.8290   -0.1710 H   0  0  0  0  0  0  0  0  0  0  0  0
    2.5640   -3.3810   -1.9620 H   0  0  0  0  0  0  0  0  0  0  0  0
    1.6050   -1.2290   -1.4120 H   0  0  0  0  0  0  0  0  0  0  0  0
    4.1680   -2.0010   -0.8940 H   0  0  0  0  0  0  0  0  0  0  0  0
    3.7210   -1.4470    0.7300 H   0  0  0  0  0  0  0  0  0  0  0  0
    3.6080   -0.3300   -0.7090 H   0  0  0  0  0  0  0  0  0  0  0  0
    1.8620   -2.1970    1.4810 H   0  0  0  0  0  0  0  0  0  0  0  0
   -0.7660   -1.7700   -0.0040 H   0  0  0  0  0  0  0  0  0  0  0  0
   -0.6070    4.0990    0.5260 C   0  0  0  0  0  0  0  0  0  0  0  0
   -0.5530    2.6160    0.3630 C   0  0  1  0  0  0  0  0  0  0  0  0
    0.3990    2.3370   -0.6460 O   0  0  0  0  0  0  0  0  0  0  0  0
    0.0030    1.9110    1.6060 C   0  0  2  0  0  0  0  0  0  0  0  0
    0.0890    0.5080    1.2660 N   0  0  0  0  0  0  0  0  0  0  0  0
   -0.7710    2.1710    2.8130 C   0  0  0  0  0  0  0  0  0  0  0  0
   -0.9530    3.3160    3.2640 O   0  0  0  0  0  0  0  0  0  0  0  0
   -1.3400    1.1130    3.5090 O   0  0  0  0  0  0  0  0  0  0  0  0
   -1.6070    4.4450    0.8390 H   0  0  0  0  0  0  0  0  0  0  0  0
    0.1970    4.3780    1.2560 H   0  0  0  0  0  0  0  0  0  0  0  0
   -0.3240    4.5790   -0.4540 H   0  0  0  0  0  0  0  0  0  0  0  0
   -1.4910    2.1550    0.0140 H   0  0  0  0  0  0  0  0  0  0  0  0
    0.4060    3.0800   -1.2990 H   0  0  0  0  0  0  0  0  0  0  0  0
    1.0450    2.3060    1.7000 H   0  0  0  0  0  0  0  0  0  0  0  0
   -0.8160   -0.0180    1.1720 H   0  0  0  0  0  0  0  0  0  0  0  0
  1  5  1  0  0  0  0
  1  2  1  0  0  0  0
  2  7  1  0  0  0  0
  3  2  1  0  0  0  0
  3  4  2  0  0  0  0
  6  1  1  0  0  0  0
  8  2  1  0  0  0  0
  9 10  1  0  0  0  0
  9 17  1  0  0  0  0
 10 11  1  0  0  0  0
 10 12  1  0  0  0  0
 11 21  1  0  0  0  0
 12 14  1  0  0  0  0
 12 23  1  1  0  0  0
 13 12  1  0  0  0  0
 13  3  1  0  0  0  0
 14 15  2  0  0  0  0
 14 29  1  0  0  0  0
 16  9  1  0  0  0  0
 18  9  1  0  0  0  0
 19 10  1  0  0  0  0
 20 11  1  0  0  0  0
 22 11  1  0  0  0  0
 24 13  1  0  0  0  0
 25 33  1  0  0  0  0
 25 34  1  0  0  0  0
 26 36  1  6  0  0  0
 26 25  1  0  0  0  0
 26 28  1  0  0  0  0
 27 26  1  0  0  0  0
 28 38  1  1  0  0  0
 28 30  1  0  0  0  0
 29 28  1  0  0  0  0
 30 31  2  0  0  0  0
 30 32  1  0  0  0  0
 35 25  1  0  0  0  0
 37 27  1  0  0  0  0
 39 29  1  0  0  0  0
M  END
$$$$
