GVV.pdb
 OpenBabel07022418253D

 41 40  0  0  1  0  0  0  0  0999 V2000
   -3.6880   -2.8180    2.2170 N   0  0  0  0  0  0  0  0  0  0  0  0
   -2.7590   -2.9480    3.2980 C   0  0  0  0  0  0  0  0  0  0  0  0
   -1.3550   -2.6340    2.8710 C   0  0  0  0  0  0  0  0  0  0  0  0
   -0.4000   -2.6950    3.6880 O   0  0  0  0  0  0  0  0  0  0  0  0
   -4.0380   -1.8160    2.1490 H   0  0  0  0  0  0  0  0  0  0  0  0
   -4.5090   -3.4530    2.2880 H   0  0  0  0  0  0  0  0  0  0  0  0
   -2.8310   -3.9330    3.7660 H   0  0  0  0  0  0  0  0  0  0  0  0
   -3.0160   -2.1550    4.0550 H   0  0  0  0  0  0  0  0  0  0  0  0
    0.6200   -4.3510    0.7000 C   0  0  0  0  0  0  0  0  0  0  0  0
    0.7500   -2.9680    0.0700 C   0  0  0  0  0  0  0  0  0  0  0  0
    2.1950   -2.7930   -0.2590 C   0  0  0  0  0  0  0  0  0  0  0  0
    0.3560   -1.9480    1.1360 C   0  0  2  0  0  0  0  0  0  0  0  0
   -1.0420   -2.2570    1.5440 N   0  0  0  0  0  0  0  0  0  0  0  0
    0.3010   -0.5780    0.5740 C   0  0  0  0  0  0  0  0  0  0  0  0
   -0.8530   -0.0420    0.4290 O   0  0  0  0  0  0  0  0  0  0  0  0
    0.5910   -5.0750   -0.1440 H   0  0  0  0  0  0  0  0  0  0  0  0
    1.4750   -4.5810    1.3610 H   0  0  0  0  0  0  0  0  0  0  0  0
   -0.3200   -4.4610    1.2540 H   0  0  0  0  0  0  0  0  0  0  0  0
    0.0610   -2.9160   -0.7680 H   0  0  0  0  0  0  0  0  0  0  0  0
    2.7930   -2.4910    0.6240 H   0  0  0  0  0  0  0  0  0  0  0  0
    2.4160   -2.1000   -1.0790 H   0  0  0  0  0  0  0  0  0  0  0  0
    2.5790   -3.7920   -0.6200 H   0  0  0  0  0  0  0  0  0  0  0  0
    1.0490   -2.0500    1.9620 H   0  0  0  0  0  0  0  0  0  0  0  0
   -1.8100   -2.1980    0.8470 H   0  0  0  0  0  0  0  0  0  0  0  0
    1.6310    3.9240   -0.1740 C   0  0  0  0  0  0  0  0  0  0  0  0
    1.9100    2.5730    0.4480 C   0  0  0  0  0  0  0  0  0  0  0  0
    1.4260    2.6340    1.8770 C   0  0  0  0  0  0  0  0  0  0  0  0
    1.2050    1.5310   -0.3620 C   0  0  2  0  0  0  0  0  0  0  0  0
    1.4310    0.1900    0.1830 N   0  0  0  0  0  0  0  0  0  0  0  0
    1.7250    1.5980   -1.7540 C   0  0  0  0  0  0  0  0  0  0  0  0
    2.2650    0.5610   -2.2680 O   0  0  0  0  0  0  0  0  0  0  0  0
    1.6500    2.7340   -2.5160 O   0  0  0  0  0  0  0  0  0  0  0  0
    2.4690    4.1790   -0.8720 H   0  0  0  0  0  0  0  0  0  0  0  0
    0.6690    3.8620   -0.7200 H   0  0  0  0  0  0  0  0  0  0  0  0
    1.5100    4.7160    0.6020 H   0  0  0  0  0  0  0  0  0  0  0  0
    3.0110    2.4190    0.4270 H   0  0  0  0  0  0  0  0  0  0  0  0
    0.6200    3.3860    2.0080 H   0  0  0  0  0  0  0  0  0  0  0  0
    1.0150    1.6720    2.2280 H   0  0  0  0  0  0  0  0  0  0  0  0
    2.2670    2.9390    2.5320 H   0  0  0  0  0  0  0  0  0  0  0  0
    0.1280    1.7690   -0.3940 H   0  0  0  0  0  0  0  0  0  0  0  0
    2.3630   -0.2110    0.3040 H   0  0  0  0  0  0  0  0  0  0  0  0
  1  6  1  0  0  0  0
  1  2  1  0  0  0  0
  2  7  1  0  0  0  0
  2  8  1  0  0  0  0
  3  2  1  0  0  0  0
  3  4  2  0  0  0  0
  5  1  1  0  0  0  0
  9 18  1  0  0  0  0
  9 17  1  0  0  0  0
 10  9  1  0  0  0  0
 10 12  1  0  0  0  0
 11 10  1  0  0  0  0
 11 20  1  0  0  0  0
 12 13  1  0  0  0  0
 12 23  1  1  0  0  0
 13  3  1  0  0  0  0
 14 12  1  0  0  0  0
 15 14  2  0  0  0  0
 16  9  1  0  0  0  0
 19 10  1  0  0  0  0
 21 11  1  0  0  0  0
 22 11  1  0  0  0  0
 24 13  1  0  0  0  0
 25 26  1  0  0  0  0
 25 35  1  0  0  0  0
 26 27  1  0  0  0  0
 27 37  1  0  0  0  0
 27 38  1  0  0  0  0
 27 39  1  0  0  0  0
 28 40  1  6  0  0  0
 28 29  1  0  0  0  0
 28 26  1  0  0  0  0
 29 41  1  0  0  0  0
 29 14  1  0  0  0  0
 30 28  1  0  0  0  0
 31 30  1  0  0  0  0
 32 30  2  0  0  0  0
 33 25  1  0  0  0  0
 34 25  1  0  0  0  0
 36 26  1  0  0  0  0
M  END
$$$$
