GVW.pdb
 OpenBabel07022418253D

 49 50  0  0  1  0  0  0  0  0999 V2000
    2.3710   -3.7380    5.6130 N   0  0  0  0  0  0  0  0  0  0  0  0
    2.1610   -4.0090    4.2160 C   0  0  0  0  0  0  0  0  0  0  0  0
    2.4240   -2.7870    3.4140 C   0  0  0  0  0  0  0  0  0  0  0  0
    2.7780   -1.7290    4.0000 O   0  0  0  0  0  0  0  0  0  0  0  0
    2.2950   -4.6360    6.1400 H   0  0  0  0  0  0  0  0  0  0  0  0
    3.3420   -3.3460    5.7080 H   0  0  0  0  0  0  0  0  0  0  0  0
    1.2200   -4.5020    3.9780 H   0  0  0  0  0  0  0  0  0  0  0  0
    2.9750   -4.7350    3.9200 H   0  0  0  0  0  0  0  0  0  0  0  0
    3.5900   -2.6810   -0.7240 C   0  0  0  0  0  0  0  0  0  0  0  0
    3.7180   -1.6560    0.3290 C   0  0  0  0  0  0  0  0  0  0  0  0
    4.1690   -0.3510   -0.2580 C   0  0  0  0  0  0  0  0  0  0  0  0
    2.5800   -1.4820    1.2620 C   0  0  2  0  0  0  0  0  0  0  0  0
    2.3070   -2.7180    2.0160 N   0  0  0  0  0  0  0  0  0  0  0  0
    1.2990   -1.0390    0.7130 C   0  0  0  0  0  0  0  0  0  0  0  0
    0.3010   -1.8200    0.9220 O   0  0  0  0  0  0  0  0  0  0  0  0
    2.8220   -3.4680   -0.4990 H   0  0  0  0  0  0  0  0  0  0  0  0
    4.5740   -3.1850   -0.9570 H   0  0  0  0  0  0  0  0  0  0  0  0
    3.2870   -2.2590   -1.7160 H   0  0  0  0  0  0  0  0  0  0  0  0
    4.5910   -1.9840    0.9880 H   0  0  0  0  0  0  0  0  0  0  0  0
    4.0790    0.5110    0.4430 H   0  0  0  0  0  0  0  0  0  0  0  0
    3.7040   -0.1350   -1.2520 H   0  0  0  0  0  0  0  0  0  0  0  0
    5.2770   -0.3720   -0.4940 H   0  0  0  0  0  0  0  0  0  0  0  0
    2.8800   -0.7390    2.0300 H   0  0  0  0  0  0  0  0  0  0  0  0
    2.0210   -3.5530    1.4800 H   0  0  0  0  0  0  0  0  0  0  0  0
    1.0160    0.1210   -0.0080 N   0  0  0  0  0  0  0  0  0  0  0  0
   -0.3120    0.4050   -0.4820 C   0  0  1  0  0  0  0  0  0  0  0  0
   -0.9010    1.6390    0.1720 C   0  0  0  0  0  0  0  0  0  0  0  0
   -2.2590    1.9310   -0.3110 C   0  0  0  0  0  0  0  0  0  0  0  0
   -2.6960    2.8930   -1.2030 C   0  0  0  0  0  0  0  0  0  0  0  0
   -4.0270    2.8120   -1.3660 N   0  0  0  0  0  0  0  0  0  0  0  0
   -4.4800    1.8060   -0.5910 C   0  0  0  0  0  0  0  0  0  0  0  0
   -5.7560    1.2870   -0.3720 C   0  0  0  0  0  0  0  0  0  0  0  0
   -5.9230    0.2230    0.5020 C   0  0  0  0  0  0  0  0  0  0  0  0
   -4.8510   -0.3380    1.1650 C   0  0  0  0  0  0  0  0  0  0  0  0
   -3.5980    0.1890    0.9360 C   0  0  0  0  0  0  0  0  0  0  0  0
   -3.4210    1.2570    0.0590 C   0  0  0  0  0  0  0  0  0  0  0  0
   -0.3880    0.4750   -1.9560 C   0  0  0  0  0  0  0  0  0  0  0  0
   -1.4830    0.7150   -2.5020 O   0  0  0  0  0  0  0  0  0  0  0  0
    0.7510    0.2760   -2.7020 O   0  0  0  0  0  0  0  0  0  0  0  0
    1.8240    0.7830   -0.1820 H   0  0  0  0  0  0  0  0  0  0  0  0
   -0.9660   -0.4350   -0.1780 H   0  0  0  0  0  0  0  0  0  0  0  0
   -0.2190    2.4990    0.0120 H   0  0  0  0  0  0  0  0  0  0  0  0
   -0.9650    1.5040    1.2730 H   0  0  0  0  0  0  0  0  0  0  0  0
   -2.0830    3.6170   -1.7100 H   0  0  0  0  0  0  0  0  0  0  0  0
   -4.6480    3.4060   -1.9790 H   0  0  0  0  0  0  0  0  0  0  0  0
   -6.5850    1.7380   -0.8990 H   0  0  0  0  0  0  0  0  0  0  0  0
   -6.9410   -0.1460    0.6390 H   0  0  0  0  0  0  0  0  0  0  0  0
   -5.0320   -1.1650    1.8360 H   0  0  0  0  0  0  0  0  0  0  0  0
   -2.7300   -0.2210    1.4340 H   0  0  0  0  0  0  0  0  0  0  0  0
  1  6  1  0  0  0  0
  1  5  1  0  0  0  0
  2  1  1  0  0  0  0
  3  4  2  0  0  0  0
  3  2  1  0  0  0  0
  7  2  1  0  0  0  0
  8  2  1  0  0  0  0
  9 16  1  0  0  0  0
  9 10  1  0  0  0  0
 10 19  1  0  0  0  0
 10 12  1  0  0  0  0
 11 10  1  0  0  0  0
 11 20  1  0  0  0  0
 12 13  1  0  0  0  0
 12 23  1  1  0  0  0
 13  3  1  0  0  0  0
 14 15  2  0  0  0  0
 14 12  1  0  0  0  0
 17  9  1  0  0  0  0
 18  9  1  0  0  0  0
 21 11  1  0  0  0  0
 22 11  1  0  0  0  0
 24 13  1  0  0  0  0
 25 14  1  0  0  0  0
 26 41  1  1  0  0  0
 26 25  1  0  0  0  0
 26 27  1  0  0  0  0
 27 43  1  0  0  0  0
 28 36  1  0  0  0  0
 28 27  1  0  0  0  0
 29 28  2  0  0  0  0
 30 29  1  0  0  0  0
 30 31  1  0  0  0  0
 31 32  2  0  0  0  0
 31 36  1  0  0  0  0
 32 33  1  0  0  0  0
 33 47  1  0  0  0  0
 33 34  2  0  0  0  0
 34 48  1  0  0  0  0
 35 34  1  0  0  0  0
 35 49  1  0  0  0  0
 36 35  2  0  0  0  0
 37 26  1  0  0  0  0
 38 37  1  0  0  0  0
 39 37  2  0  0  0  0
 40 25  1  0  0  0  0
 42 27  1  0  0  0  0
 44 29  1  0  0  0  0
 45 30  1  0  0  0  0
 46 32  1  0  0  0  0
M  END
$$$$
