GWA.pdb
 OpenBabel07022418253D

 43 44  0  0  1  0  0  0  0  0999 V2000
    1.2930   -2.0520    3.5890 N   0  0  0  0  0  0  0  0  0  0  0  0
    0.0380   -1.7860    4.2170 C   0  0  0  0  0  0  0  0  0  0  0  0
   -0.8750   -0.9790    3.3970 C   0  0  0  0  0  0  0  0  0  0  0  0
   -2.0250   -0.6550    3.8030 O   0  0  0  0  0  0  0  0  0  0  0  0
    1.3050   -2.7880    2.8790 H   0  0  0  0  0  0  0  0  0  0  0  0
    1.8520   -1.2350    3.3250 H   0  0  0  0  0  0  0  0  0  0  0  0
    0.2530   -1.3270    5.2220 H   0  0  0  0  0  0  0  0  0  0  0  0
   -0.4290   -2.7770    4.4660 H   0  0  0  0  0  0  0  0  0  0  0  0
   -0.4340   -0.5540    2.0980 N   0  0  0  0  0  0  0  0  0  0  0  0
   -1.2810    0.2380    1.2420 C   0  0  1  0  0  0  0  0  0  0  0  0
   -0.8190    1.6340    1.0020 C   0  0  0  0  0  0  0  0  0  0  0  0
    0.4920    1.7970    0.3800 C   0  0  0  0  0  0  0  0  0  0  0  0
    0.6860    2.0530   -0.9620 C   0  0  0  0  0  0  0  0  0  0  0  0
    2.0160    2.1140   -1.1310 N   0  0  0  0  0  0  0  0  0  0  0  0
    2.6620    1.9090    0.0300 C   0  0  0  0  0  0  0  0  0  0  0  0
    4.0000    1.8790    0.3700 C   0  0  0  0  0  0  0  0  0  0  0  0
    4.4100    1.6500    1.6620 C   0  0  0  0  0  0  0  0  0  0  0  0
    3.4410    1.4500    2.6190 C   0  0  0  0  0  0  0  0  0  0  0  0
    2.1020    1.4700    2.3330 C   0  0  0  0  0  0  0  0  0  0  0  0
    1.7070    1.7000    1.0340 C   0  0  0  0  0  0  0  0  0  0  0  0
   -1.6070   -0.4850   -0.0270 C   0  0  0  0  0  0  0  0  0  0  0  0
   -2.3510    0.0480   -0.8900 O   0  0  0  0  0  0  0  0  0  0  0  0
    0.5210   -0.8560    1.8160 H   0  0  0  0  0  0  0  0  0  0  0  0
   -2.2760    0.3430    1.7750 H   0  0  0  0  0  0  0  0  0  0  0  0
   -1.5600    2.2350    0.4160 H   0  0  0  0  0  0  0  0  0  0  0  0
   -0.8320    2.1400    2.0160 H   0  0  0  0  0  0  0  0  0  0  0  0
   -0.0510    2.1870   -1.7530 H   0  0  0  0  0  0  0  0  0  0  0  0
    2.5070    2.2920   -2.0270 H   0  0  0  0  0  0  0  0  0  0  0  0
    4.7690    2.0370   -0.3820 H   0  0  0  0  0  0  0  0  0  0  0  0
    5.4740    1.6310    1.9100 H   0  0  0  0  0  0  0  0  0  0  0  0
    3.7340    1.2670    3.6530 H   0  0  0  0  0  0  0  0  0  0  0  0
    1.3760    1.3120    3.1070 H   0  0  0  0  0  0  0  0  0  0  0  0
   -0.1920   -2.6090   -2.4240 C   0  0  0  0  0  0  0  0  0  0  0  0
   -1.4350   -2.4490   -1.5400 C   0  0  2  0  0  0  0  0  0  0  0  0
   -1.1010   -1.7840   -0.3130 N   0  0  0  0  0  0  0  0  0  0  0  0
   -2.1080   -3.7500   -1.3380 C   0  0  0  0  0  0  0  0  0  0  0  0
   -2.3280   -4.1570   -0.1920 O   0  0  0  0  0  0  0  0  0  0  0  0
   -2.4780   -4.4860   -2.4430 O   0  0  0  0  0  0  0  0  0  0  0  0
    0.2410   -1.5790   -2.5390 H   0  0  0  0  0  0  0  0  0  0  0  0
    0.5270   -3.3120   -2.0000 H   0  0  0  0  0  0  0  0  0  0  0  0
   -0.5280   -2.9000   -3.4310 H   0  0  0  0  0  0  0  0  0  0  0  0
   -2.1240   -1.8160   -2.1480 H   0  0  0  0  0  0  0  0  0  0  0  0
   -0.4840   -2.2370    0.3910 H   0  0  0  0  0  0  0  0  0  0  0  0
  1  2  1  0  0  0  0
  2  8  1  0  0  0  0
  2  7  1  0  0  0  0
  3  4  2  0  0  0  0
  3  2  1  0  0  0  0
  5  1  1  0  0  0  0
  6  1  1  0  0  0  0
  9  3  1  0  0  0  0
 10 24  1  1  0  0  0
 10  9  1  0  0  0  0
 11 10  1  0  0  0  0
 11 26  1  0  0  0  0
 12 11  1  0  0  0  0
 12 20  1  0  0  0  0
 13 12  2  0  0  0  0
 14 13  1  0  0  0  0
 14 15  1  0  0  0  0
 15 16  2  0  0  0  0
 15 20  1  0  0  0  0
 16 17  1  0  0  0  0
 17 30  1  0  0  0  0
 17 18  2  0  0  0  0
 18 31  1  0  0  0  0
 19 18  1  0  0  0  0
 19 32  1  0  0  0  0
 20 19  2  0  0  0  0
 21 10  1  0  0  0  0
 22 21  2  0  0  0  0
 23  9  1  0  0  0  0
 25 11  1  0  0  0  0
 27 13  1  0  0  0  0
 28 14  1  0  0  0  0
 29 16  1  0  0  0  0
 33 40  1  0  0  0  0
 33 34  1  0  0  0  0
 34 42  1  6  0  0  0
 34 36  1  0  0  0  0
 34 35  1  0  0  0  0
 35 21  1  0  0  0  0
 35 43  1  0  0  0  0
 36 37  1  0  0  0  0
 38 36  2  0  0  0  0
 39 33  1  0  0  0  0
 41 33  1  0  0  0  0
M  END
$$$$
