GWC.pdb
 OpenBabel07022418253D

 44 45  0  0  1  0  0  0  0  0999 V2000
    0.4940   -5.0960    0.6430 N   0  0  0  0  0  0  0  0  0  0  0  0
    0.8640   -4.7290    1.9840 C   0  0  0  0  0  0  0  0  0  0  0  0
    0.9870   -3.2350    2.0440 C   0  0  0  0  0  0  0  0  0  0  0  0
    1.3030   -2.6920    3.1190 O   0  0  0  0  0  0  0  0  0  0  0  0
   -0.5270   -4.9090    0.4880 H   0  0  0  0  0  0  0  0  0  0  0  0
    0.6340   -6.1250    0.5500 H   0  0  0  0  0  0  0  0  0  0  0  0
    1.7640   -5.2450    2.3200 H   0  0  0  0  0  0  0  0  0  0  0  0
   -0.0330   -4.9620    2.6260 H   0  0  0  0  0  0  0  0  0  0  0  0
    0.7530   -2.4220    0.9070 N   0  0  0  0  0  0  0  0  0  0  0  0
    0.8550   -0.9830    0.8990 C   0  0  1  0  0  0  0  0  0  0  0  0
    1.8900   -0.5620   -0.1050 C   0  0  0  0  0  0  0  0  0  0  0  0
    2.0570    0.9000   -0.1770 C   0  0  0  0  0  0  0  0  0  0  0  0
    1.6020    1.7780   -1.1370 C   0  0  0  0  0  0  0  0  0  0  0  0
    1.9670    3.0340   -0.8300 N   0  0  0  0  0  0  0  0  0  0  0  0
    2.6610    2.9680    0.3320 C   0  0  0  0  0  0  0  0  0  0  0  0
    3.2780    3.9370    1.1230 C   0  0  0  0  0  0  0  0  0  0  0  0
    3.9350    3.6020    2.2890 C   0  0  0  0  0  0  0  0  0  0  0  0
    3.9970    2.2870    2.7010 C   0  0  0  0  0  0  0  0  0  0  0  0
    3.3940    1.3120    1.9350 C   0  0  0  0  0  0  0  0  0  0  0  0
    2.7320    1.6520    0.7610 C   0  0  0  0  0  0  0  0  0  0  0  0
   -0.4690   -0.4030    0.6580 C   0  0  0  0  0  0  0  0  0  0  0  0
   -0.6550    0.8560    0.5920 O   0  0  0  0  0  0  0  0  0  0  0  0
    0.4890   -2.9180    0.0220 H   0  0  0  0  0  0  0  0  0  0  0  0
    1.1630   -0.6280    1.9210 H   0  0  0  0  0  0  0  0  0  0  0  0
    2.8500   -1.0490    0.2030 H   0  0  0  0  0  0  0  0  0  0  0  0
    1.6440   -0.9760   -1.0950 H   0  0  0  0  0  0  0  0  0  0  0  0
    1.0260    1.5260   -2.0290 H   0  0  0  0  0  0  0  0  0  0  0  0
    1.7950    3.9350   -1.3270 H   0  0  0  0  0  0  0  0  0  0  0  0
    3.2290    4.9680    0.7990 H   0  0  0  0  0  0  0  0  0  0  0  0
    4.4120    4.3640    2.8950 H   0  0  0  0  0  0  0  0  0  0  0  0
    4.4960    1.9580    3.6030 H   0  0  0  0  0  0  0  0  0  0  0  0
    3.4040    0.2680    2.1980 H   0  0  0  0  0  0  0  0  0  0  0  0
   -1.5810   -1.2710    0.4910 N   0  0  0  0  0  0  0  0  0  0  0  0
   -2.9160   -0.7830    0.2500 C   0  0  1  0  0  0  0  0  0  0  0  0
   -3.5740   -1.4470   -0.9520 C   0  0  0  0  0  0  0  0  0  0  0  0
   -5.2350   -0.7090   -1.0950 S   0  0  0  0  0  0  0  0  0  0  0  0
   -3.7600   -1.1490    1.4450 C   0  0  0  0  0  0  0  0  0  0  0  0
   -3.2860   -1.7730    2.4300 O   0  0  0  0  0  0  0  0  0  0  0  0
   -5.1070   -0.8090    1.5110 O   0  0  0  0  0  0  0  0  0  0  0  0
   -1.4430   -2.3240    0.5420 H   0  0  0  0  0  0  0  0  0  0  0  0
   -2.9520    0.3080    0.1930 H   0  0  0  0  0  0  0  0  0  0  0  0
   -3.0280   -1.2880   -1.8870 H   0  0  0  0  0  0  0  0  0  0  0  0
   -3.6710   -2.5350   -0.8000 H   0  0  0  0  0  0  0  0  0  0  0  0
   -5.0500    0.5590   -1.7080 H   0  0  0  0  0  0  0  0  0  0  0  0
  1  2  1  0  0  0  0
  2  3  1  0  0  0  0
  2  7  1  0  0  0  0
  2  8  1  0  0  0  0
  3  4  2  0  0  0  0
  5  1  1  0  0  0  0
  6  1  1  0  0  0  0
  9  3  1  0  0  0  0
 10  9  1  0  0  0  0
 10 24  1  1  0  0  0
 11 25  1  0  0  0  0
 11 10  1  0  0  0  0
 12 11  1  0  0  0  0
 12 20  1  0  0  0  0
 13 14  1  0  0  0  0
 13 12  2  0  0  0  0
 14 15  1  0  0  0  0
 15 20  2  0  0  0  0
 15 16  1  0  0  0  0
 16 17  2  0  0  0  0
 17 18  1  0  0  0  0
 17 30  1  0  0  0  0
 18 31  1  0  0  0  0
 19 32  1  0  0  0  0
 19 18  2  0  0  0  0
 20 19  1  0  0  0  0
 21 10  1  0  0  0  0
 22 21  2  0  0  0  0
 23  9  1  0  0  0  0
 26 11  1  0  0  0  0
 27 13  1  0  0  0  0
 28 14  1  0  0  0  0
 29 16  1  0  0  0  0
 33 40  1  0  0  0  0
 33 21  1  0  0  0  0
 34 41  1  6  0  0  0
 34 33  1  0  0  0  0
 34 37  1  0  0  0  0
 35 43  1  0  0  0  0
 35 34  1  0  0  0  0
 36 35  1  0  0  0  0
 37 39  2  0  0  0  0
 37 38  1  0  0  0  0
 42 35  1  0  0  0  0
 44 36  1  0  0  0  0
M  END
$$$$
