GWD.pdb
 OpenBabel07022418253D

 46 47  0  0  1  0  0  0  0  0999 V2000
    2.2110   -5.0910    2.8970 N   0  0  0  0  0  0  0  0  0  0  0  0
    1.4300   -4.6180    1.7740 C   0  0  0  0  0  0  0  0  0  0  0  0
    1.4250   -3.1360    1.8090 C   0  0  0  0  0  0  0  0  0  0  0  0
    2.0350   -2.5170    2.7120 O   0  0  0  0  0  0  0  0  0  0  0  0
    2.9550   -4.3810    3.1020 H   0  0  0  0  0  0  0  0  0  0  0  0
    1.5850   -5.1170    3.7350 H   0  0  0  0  0  0  0  0  0  0  0  0
    1.8690   -5.0060    0.8220 H   0  0  0  0  0  0  0  0  0  0  0  0
    0.3940   -5.0080    1.8770 H   0  0  0  0  0  0  0  0  0  0  0  0
    0.7450   -2.3400    0.8450 N   0  0  0  0  0  0  0  0  0  0  0  0
    0.7450   -0.8950    0.8860 C   0  0  1  0  0  0  0  0  0  0  0  0
    1.4110   -0.3540   -0.3780 C   0  0  0  0  0  0  0  0  0  0  0  0
    1.4230    1.1120   -0.3550 C   0  0  0  0  0  0  0  0  0  0  0  0
    0.6260    1.9930   -1.0510 C   0  0  0  0  0  0  0  0  0  0  0  0
    0.9630    3.2570   -0.7420 N   0  0  0  0  0  0  0  0  0  0  0  0
    1.9770    3.2110    0.1530 C   0  0  0  0  0  0  0  0  0  0  0  0
    2.6830    4.2240    0.7860 C   0  0  0  0  0  0  0  0  0  0  0  0
    3.6880    3.9210    1.6710 C   0  0  0  0  0  0  0  0  0  0  0  0
    3.9780    2.5890    1.9160 C   0  0  0  0  0  0  0  0  0  0  0  0
    3.2990    1.5650    1.3060 C   0  0  0  0  0  0  0  0  0  0  0  0
    2.2860    1.8930    0.4150 C   0  0  0  0  0  0  0  0  0  0  0  0
   -0.6570   -0.4290    0.9830 C   0  0  0  0  0  0  0  0  0  0  0  0
   -0.9610    0.7970    1.0210 O   0  0  0  0  0  0  0  0  0  0  0  0
    0.2370   -2.8340    0.0880 H   0  0  0  0  0  0  0  0  0  0  0  0
    1.3650   -0.5200    1.7290 H   0  0  0  0  0  0  0  0  0  0  0  0
    0.8150   -0.7050   -1.2590 H   0  0  0  0  0  0  0  0  0  0  0  0
    2.4340   -0.7700   -0.4690 H   0  0  0  0  0  0  0  0  0  0  0  0
   -0.1720    1.7340   -1.7580 H   0  0  0  0  0  0  0  0  0  0  0  0
    0.5470    4.1260   -1.1020 H   0  0  0  0  0  0  0  0  0  0  0  0
    2.4590    5.2800    0.5970 H   0  0  0  0  0  0  0  0  0  0  0  0
    4.2570    4.6700    2.1800 H   0  0  0  0  0  0  0  0  0  0  0  0
    4.7610    2.3530    2.6050 H   0  0  0  0  0  0  0  0  0  0  0  0
    3.5150    0.5310    1.4880 H   0  0  0  0  0  0  0  0  0  0  0  0
   -1.6950   -1.3950    1.0340 N   0  0  0  0  0  0  0  0  0  0  0  0
   -3.0860   -0.9880    1.1280 C   0  0  1  0  0  0  0  0  0  0  0  0
   -3.8330   -1.6220   -0.0200 C   0  0  0  0  0  0  0  0  0  0  0  0
   -3.3100   -1.2130   -1.3350 C   0  0  0  0  0  0  0  0  0  0  0  0
   -2.3450   -0.4200   -1.4680 O   0  0  0  0  0  0  0  0  0  0  0  0
   -3.6580   -1.5050    2.3980 C   0  0  0  0  0  0  0  0  0  0  0  0
   -2.9650   -2.1690    3.1790 O   0  0  0  0  0  0  0  0  0  0  0  0
   -3.9270   -1.7420   -2.4600 O   0  0  0  0  0  0  0  0  0  0  0  0
   -4.9800   -1.2530    2.7300 O   0  0  0  0  0  0  0  0  0  0  0  0
   -1.5180   -2.4220    1.0080 H   0  0  0  0  0  0  0  0  0  0  0  0
   -3.1320    0.1020    1.1430 H   0  0  0  0  0  0  0  0  0  0  0  0
   -3.7100   -2.7290    0.1010 H   0  0  0  0  0  0  0  0  0  0  0  0
   -4.9000   -1.3350    0.0440 H   0  0  0  0  0  0  0  0  0  0  0  0
   -3.4400   -1.7240   -3.3440 H   0  0  0  0  0  0  0  0  0  0  0  0
  1  5  1  0  0  0  0
  1  6  1  0  0  0  0
  2  3  1  0  0  0  0
  2  8  1  0  0  0  0
  2  1  1  0  0  0  0
  3  4  2  0  0  0  0
  7  2  1  0  0  0  0
  9 10  1  0  0  0  0
  9  3  1  0  0  0  0
 10 21  1  0  0  0  0
 10 24  1  1  0  0  0
 11 12  1  0  0  0  0
 11 10  1  0  0  0  0
 12 20  1  0  0  0  0
 13 14  1  0  0  0  0
 13 12  2  0  0  0  0
 14 15  1  0  0  0  0
 15 20  2  0  0  0  0
 15 16  1  0  0  0  0
 16 17  2  0  0  0  0
 17 18  1  0  0  0  0
 17 30  1  0  0  0  0
 18 31  1  0  0  0  0
 19 32  1  0  0  0  0
 19 18  2  0  0  0  0
 20 19  1  0  0  0  0
 21 22  2  0  0  0  0
 21 33  1  0  0  0  0
 23  9  1  0  0  0  0
 25 11  1  0  0  0  0
 26 11  1  0  0  0  0
 27 13  1  0  0  0  0
 28 14  1  0  0  0  0
 29 16  1  0  0  0  0
 33 34  1  0  0  0  0
 34 43  1  6  0  0  0
 34 38  1  0  0  0  0
 35 45  1  0  0  0  0
 35 44  1  0  0  0  0
 35 34  1  0  0  0  0
 36 35  1  0  0  0  0
 37 36  2  0  0  0  0
 38 41  2  0  0  0  0
 38 39  1  0  0  0  0
 40 36  1  0  0  0  0
 42 33  1  0  0  0  0
 46 40  1  0  0  0  0
M  END
$$$$
