GWH.pdb
 OpenBabel07022418253D

 50 52  0  0  1  0  0  0  0  0999 V2000
    1.4700   -3.8110   -0.8450 N   0  0  0  0  0  0  0  0  0  0  0  0
    1.8790   -4.5330    0.3420 C   0  0  0  0  0  0  0  0  0  0  0  0
    1.8430   -3.6440    1.5280 C   0  0  0  0  0  0  0  0  0  0  0  0
    2.1640   -4.1120    2.6550 O   0  0  0  0  0  0  0  0  0  0  0  0
    0.4060   -3.7580   -0.8140 H   0  0  0  0  0  0  0  0  0  0  0  0
    1.6650   -4.4110   -1.6840 H   0  0  0  0  0  0  0  0  0  0  0  0
    2.8920   -4.9750    0.2290 H   0  0  0  0  0  0  0  0  0  0  0  0
    1.1650   -5.3590    0.5160 H   0  0  0  0  0  0  0  0  0  0  0  0
    1.4510   -2.2880    1.3960 N   0  0  0  0  0  0  0  0  0  0  0  0
    1.4050   -1.3900    2.5640 C   0  0  1  0  0  0  0  0  0  0  0  0
    2.5340   -0.3910    2.4740 C   0  0  0  0  0  0  0  0  0  0  0  0
    2.5470    0.4510    1.2880 C   0  0  0  0  0  0  0  0  0  0  0  0
    3.2900    0.1250    0.1380 C   0  0  0  0  0  0  0  0  0  0  0  0
    3.0430    1.0810   -0.7650 N   0  0  0  0  0  0  0  0  0  0  0  0
    2.1900    1.9870   -0.2490 C   0  0  0  0  0  0  0  0  0  0  0  0
    1.6330    3.1460   -0.7430 C   0  0  0  0  0  0  0  0  0  0  0  0
    0.7730    3.9410   -0.0070 C   0  0  0  0  0  0  0  0  0  0  0  0
    0.4590    3.5560    1.2770 C   0  0  0  0  0  0  0  0  0  0  0  0
    0.9980    2.4070    1.7940 C   0  0  0  0  0  0  0  0  0  0  0  0
    1.8540    1.6150    1.0610 C   0  0  0  0  0  0  0  0  0  0  0  0
    0.0710   -0.8330    2.6990 C   0  0  0  0  0  0  0  0  0  0  0  0
   -0.2250   -0.1310    3.6920 O   0  0  0  0  0  0  0  0  0  0  0  0
    1.2000   -1.9590    0.4440 H   0  0  0  0  0  0  0  0  0  0  0  0
    1.6830   -2.0580    3.4360 H   0  0  0  0  0  0  0  0  0  0  0  0
    3.5210   -0.9290    2.5460 H   0  0  0  0  0  0  0  0  0  0  0  0
    2.5150    0.2160    3.4280 H   0  0  0  0  0  0  0  0  0  0  0  0
    3.9420   -0.7120   -0.0340 H   0  0  0  0  0  0  0  0  0  0  0  0
    3.4230    1.1750   -1.7460 H   0  0  0  0  0  0  0  0  0  0  0  0
    1.8900    3.4400   -1.7590 H   0  0  0  0  0  0  0  0  0  0  0  0
    0.3500    4.8450   -0.4180 H   0  0  0  0  0  0  0  0  0  0  0  0
   -0.2270    4.1950    1.8570 H   0  0  0  0  0  0  0  0  0  0  0  0
    0.7640    2.1210    2.7990 H   0  0  0  0  0  0  0  0  0  0  0  0
   -0.9820   -1.0260    1.7540 N   0  0  0  0  0  0  0  0  0  0  0  0
   -2.2970   -0.5010    1.8420 C   0  0  1  0  0  0  0  0  0  0  0  0
   -2.7450    0.3250    0.6870 C   0  0  0  0  0  0  0  0  0  0  0  0
   -2.7490   -0.3930   -0.5990 C   0  0  0  0  0  0  0  0  0  0  0  0
   -3.7640   -1.1040   -1.1550 C   0  0  0  0  0  0  0  0  0  0  0  0
   -3.3240   -1.5890   -2.3360 N   0  0  0  0  0  0  0  0  0  0  0  0
   -2.0480   -1.1780   -2.5030 C   0  0  0  0  0  0  0  0  0  0  0  0
   -1.7060   -0.4470   -1.4330 N   0  0  0  0  0  0  0  0  0  0  0  0
   -3.2250   -1.6620    2.0800 C   0  0  0  0  0  0  0  0  0  0  0  0
   -4.4650   -1.4890    2.1990 O   0  0  0  0  0  0  0  0  0  0  0  0
   -2.7600   -2.9670    2.1780 O   0  0  0  0  0  0  0  0  0  0  0  0
   -0.7490   -1.6140    0.9180 H   0  0  0  0  0  0  0  0  0  0  0  0
   -2.3720    0.1120    2.7620 H   0  0  0  0  0  0  0  0  0  0  0  0
   -2.1650    1.2620    0.6890 H   0  0  0  0  0  0  0  0  0  0  0  0
   -3.8060    0.6300    0.8850 H   0  0  0  0  0  0  0  0  0  0  0  0
   -4.7810   -1.2900   -0.7680 H   0  0  0  0  0  0  0  0  0  0  0  0
   -3.8050   -2.1730   -3.0450 H   0  0  0  0  0  0  0  0  0  0  0  0
   -1.3710   -1.3700   -3.3270 H   0  0  0  0  0  0  0  0  0  0  0  0
  1  5  1  0  0  0  0
  1  2  1  0  0  0  0
  2  8  1  0  0  0  0
  2  3  1  0  0  0  0
  3  4  2  0  0  0  0
  6  1  1  0  0  0  0
  7  2  1  0  0  0  0
  9  3  1  0  0  0  0
  9 10  1  0  0  0  0
 10 21  1  0  0  0  0
 10 24  1  1  0  0  0
 11 25  1  0  0  0  0
 11 10  1  0  0  0  0
 11 26  1  0  0  0  0
 12 11  1  0  0  0  0
 13 12  2  0  0  0  0
 14 15  1  0  0  0  0
 14 13  1  0  0  0  0
 15 20  1  0  0  0  0
 16 15  2  0  0  0  0
 16 17  1  0  0  0  0
 17 18  2  0  0  0  0
 18 19  1  0  0  0  0
 18 31  1  0  0  0  0
 19 32  1  0  0  0  0
 20 12  1  0  0  0  0
 20 19  2  0  0  0  0
 21 22  2  0  0  0  0
 23  9  1  0  0  0  0
 27 13  1  0  0  0  0
 28 14  1  0  0  0  0
 29 16  1  0  0  0  0
 30 17  1  0  0  0  0
 33 34  1  0  0  0  0
 33 21  1  0  0  0  0
 34 41  1  0  0  0  0
 34 45  1  1  0  0  0
 35 46  1  0  0  0  0
 35 47  1  0  0  0  0
 35 34  1  0  0  0  0
 36 35  1  0  0  0  0
 37 48  1  0  0  0  0
 37 36  2  0  0  0  0
 38 37  1  0  0  0  0
 39 38  1  0  0  0  0
 39 40  2  0  0  0  0
 40 36  1  0  0  0  0
 41 43  2  0  0  0  0
 41 42  1  0  0  0  0
 44 33  1  0  0  0  0
 49 38  1  0  0  0  0
 50 39  1  0  0  0  0
M  END
$$$$
