GWI.pdb
 OpenBabel07022418253D

 52 53  0  0  1  0  0  0  0  0999 V2000
    2.0400   -2.6120    5.9020 N   0  0  0  0  0  0  0  0  0  0  0  0
    1.6180   -3.6800    5.0390 C   0  0  0  0  0  0  0  0  0  0  0  0
    1.2960   -3.1550    3.6600 C   0  0  0  0  0  0  0  0  0  0  0  0
    0.9090   -3.9320    2.7570 O   0  0  0  0  0  0  0  0  0  0  0  0
    2.8950   -2.1530    5.5130 H   0  0  0  0  0  0  0  0  0  0  0  0
    1.2940   -1.8890    6.0120 H   0  0  0  0  0  0  0  0  0  0  0  0
    2.4070   -4.4230    4.9170 H   0  0  0  0  0  0  0  0  0  0  0  0
    0.6670   -4.0870    5.4530 H   0  0  0  0  0  0  0  0  0  0  0  0
    1.4260   -1.7800    3.3680 N   0  0  0  0  0  0  0  0  0  0  0  0
    1.1160   -1.2150    2.0260 C   0  0  1  0  0  0  0  0  0  0  0  0
    2.1630   -1.6310    1.0640 C   0  0  0  0  0  0  0  0  0  0  0  0
    2.0690   -1.1810   -0.3110 C   0  0  0  0  0  0  0  0  0  0  0  0
    1.7120   -1.8610   -1.4690 C   0  0  0  0  0  0  0  0  0  0  0  0
    1.7890   -1.0350   -2.5260 N   0  0  0  0  0  0  0  0  0  0  0  0
    2.1890    0.1840   -2.1060 C   0  0  0  0  0  0  0  0  0  0  0  0
    2.4290    1.3910   -2.7670 C   0  0  0  0  0  0  0  0  0  0  0  0
    2.8420    2.5230   -2.0960 C   0  0  0  0  0  0  0  0  0  0  0  0
    3.0160    2.4390   -0.7310 C   0  0  0  0  0  0  0  0  0  0  0  0
    2.7810    1.2520   -0.0730 C   0  0  0  0  0  0  0  0  0  0  0  0
    2.3660    0.1100   -0.7420 C   0  0  0  0  0  0  0  0  0  0  0  0
   -0.2770   -1.5370    1.6760 C   0  0  0  0  0  0  0  0  0  0  0  0
   -1.0420   -2.2700    2.3930 O   0  0  0  0  0  0  0  0  0  0  0  0
    1.7540   -1.1630    4.1430 H   0  0  0  0  0  0  0  0  0  0  0  0
    1.1560   -0.1070    2.1750 H   0  0  0  0  0  0  0  0  0  0  0  0
    3.1950   -1.4370    1.4670 H   0  0  0  0  0  0  0  0  0  0  0  0
    2.1290   -2.7660    1.0280 H   0  0  0  0  0  0  0  0  0  0  0  0
    1.4150   -2.9210   -1.4830 H   0  0  0  0  0  0  0  0  0  0  0  0
    1.5830   -1.2510   -3.5330 H   0  0  0  0  0  0  0  0  0  0  0  0
    2.2870    1.4430   -3.8440 H   0  0  0  0  0  0  0  0  0  0  0  0
    3.0250    3.4630   -2.6350 H   0  0  0  0  0  0  0  0  0  0  0  0
    3.3410    3.2970   -0.1390 H   0  0  0  0  0  0  0  0  0  0  0  0
    2.9080    1.1490    1.0080 H   0  0  0  0  0  0  0  0  0  0  0  0
   -5.1210    1.1640    0.4350 C   0  0  0  0  0  0  0  0  0  0  0  0
   -4.4630   -0.1370   -0.0160 C   0  0  0  0  0  0  0  0  0  0  0  0
   -3.0110   -0.0270    0.3100 C   0  0  2  0  0  0  0  0  0  0  0  0
   -2.3290    1.1220   -0.3740 C   0  0  0  0  0  0  0  0  0  0  0  0
   -2.2530   -1.3470    0.1390 C   0  0  2  0  0  0  0  0  0  0  0  0
   -0.8780   -1.0420    0.4980 N   0  0  0  0  0  0  0  0  0  0  0  0
   -2.4260   -1.9300   -1.1840 C   0  0  0  0  0  0  0  0  0  0  0  0
   -3.6020   -2.2300   -1.5650 O   0  0  0  0  0  0  0  0  0  0  0  0
   -1.4290   -2.2040   -2.1050 O   0  0  0  0  0  0  0  0  0  0  0  0
   -4.3730    1.9150    0.7690 H   0  0  0  0  0  0  0  0  0  0  0  0
   -5.7910    0.9940    1.3160 H   0  0  0  0  0  0  0  0  0  0  0  0
   -5.7140    1.6360   -0.3590 H   0  0  0  0  0  0  0  0  0  0  0  0
   -4.9030   -0.9410    0.5750 H   0  0  0  0  0  0  0  0  0  0  0  0
   -4.6650   -0.2100   -1.1050 H   0  0  0  0  0  0  0  0  0  0  0  0
   -2.9500    0.1780    1.4180 H   0  0  0  0  0  0  0  0  0  0  0  0
   -3.1190    1.7230   -0.8750 H   0  0  0  0  0  0  0  0  0  0  0  0
   -1.6510    0.7950   -1.2050 H   0  0  0  0  0  0  0  0  0  0  0  0
   -1.7020    1.7340    0.3080 H   0  0  0  0  0  0  0  0  0  0  0  0
   -2.6590   -2.0060    0.9300 H   0  0  0  0  0  0  0  0  0  0  0  0
   -0.3840   -0.4240   -0.1800 H   0  0  0  0  0  0  0  0  0  0  0  0
  1  6  1  0  0  0  0
  2  8  1  0  0  0  0
  2  1  1  0  0  0  0
  3  2  1  0  0  0  0
  4  3  2  0  0  0  0
  5  1  1  0  0  0  0
  7  2  1  0  0  0  0
  9  3  1  0  0  0  0
  9 23  1  0  0  0  0
 10 24  1  1  0  0  0
 10  9  1  0  0  0  0
 11 25  1  0  0  0  0
 11 10  1  0  0  0  0
 12 11  1  0  0  0  0
 13 12  2  0  0  0  0
 14 15  1  0  0  0  0
 14 13  1  0  0  0  0
 15 20  1  0  0  0  0
 16 15  2  0  0  0  0
 16 17  1  0  0  0  0
 17 18  2  0  0  0  0
 18 31  1  0  0  0  0
 18 19  1  0  0  0  0
 19 32  1  0  0  0  0
 20 12  1  0  0  0  0
 20 19  2  0  0  0  0
 21 10  1  0  0  0  0
 21 22  2  0  0  0  0
 26 11  1  0  0  0  0
 27 13  1  0  0  0  0
 28 14  1  0  0  0  0
 29 16  1  0  0  0  0
 30 17  1  0  0  0  0
 33 42  1  0  0  0  0
 33 43  1  0  0  0  0
 34 35  1  0  0  0  0
 34 33  1  0  0  0  0
 34 45  1  0  0  0  0
 35 47  1  1  0  0  0
 36 50  1  0  0  0  0
 36 35  1  0  0  0  0
 37 35  1  0  0  0  0
 37 38  1  0  0  0  0
 37 51  1  1  0  0  0
 38 21  1  0  0  0  0
 39 37  1  0  0  0  0
 40 39  1  0  0  0  0
 41 39  2  0  0  0  0
 44 33  1  0  0  0  0
 46 34  1  0  0  0  0
 48 36  1  0  0  0  0
 49 36  1  0  0  0  0
 52 38  1  0  0  0  0
M  END
$$$$
