GWL.pdb
 OpenBabel07022418253D

 52 53  0  0  1  0  0  0  0  0999 V2000
    1.9070   -5.2430    0.4050 N   0  0  0  0  0  0  0  0  0  0  0  0
    2.6720   -4.6660    1.4690 C   0  0  0  0  0  0  0  0  0  0  0  0
    2.4850   -3.1810    1.5490 C   0  0  0  0  0  0  0  0  0  0  0  0
    3.0930   -2.5090    2.4380 O   0  0  0  0  0  0  0  0  0  0  0  0
    0.9090   -5.2930    0.6630 H   0  0  0  0  0  0  0  0  0  0  0  0
    2.0060   -4.7760   -0.5120 H   0  0  0  0  0  0  0  0  0  0  0  0
    2.3820   -5.1620    2.4070 H   0  0  0  0  0  0  0  0  0  0  0  0
    3.7530   -4.8480    1.2960 H   0  0  0  0  0  0  0  0  0  0  0  0
    1.6470   -2.4530    0.6670 N   0  0  0  0  0  0  0  0  0  0  0  0
    1.4690   -1.0170    0.7480 C   0  0  1  0  0  0  0  0  0  0  0  0
    2.0580   -0.3690   -0.4840 C   0  0  0  0  0  0  0  0  0  0  0  0
    1.9190    1.0900   -0.4790 C   0  0  0  0  0  0  0  0  0  0  0  0
    1.0370    1.8690   -1.1980 C   0  0  0  0  0  0  0  0  0  0  0  0
    1.2430    3.1650   -0.9010 N   0  0  0  0  0  0  0  0  0  0  0  0
    2.2450    3.2740    0.0040 C   0  0  0  0  0  0  0  0  0  0  0  0
    2.8190    4.3640    0.6130 C   0  0  0  0  0  0  0  0  0  0  0  0
    3.8490    4.2160    1.5210 C   0  0  0  0  0  0  0  0  0  0  0  0
    4.2660    2.9300    1.7800 C   0  0  0  0  0  0  0  0  0  0  0  0
    3.7080    1.8220    1.1840 C   0  0  0  0  0  0  0  0  0  0  0  0
    2.6670    1.9880    0.2690 C   0  0  0  0  0  0  0  0  0  0  0  0
    0.0370   -0.6870    0.9360 C   0  0  0  0  0  0  0  0  0  0  0  0
   -0.3980    0.4800    1.0370 O   0  0  0  0  0  0  0  0  0  0  0  0
    1.1260   -2.9830   -0.0880 H   0  0  0  0  0  0  0  0  0  0  0  0
    2.1020   -0.6720    1.6080 H   0  0  0  0  0  0  0  0  0  0  0  0
    1.5970   -0.8120   -1.3920 H   0  0  0  0  0  0  0  0  0  0  0  0
    3.1350   -0.6470   -0.5200 H   0  0  0  0  0  0  0  0  0  0  0  0
    0.2720    1.5250   -1.9120 H   0  0  0  0  0  0  0  0  0  0  0  0
    0.7410    4.0030   -1.2760 H   0  0  0  0  0  0  0  0  0  0  0  0
    2.4750    5.3830    0.3940 H   0  0  0  0  0  0  0  0  0  0  0  0
    4.3090    5.0730    2.0060 H   0  0  0  0  0  0  0  0  0  0  0  0
    5.0840    2.7850    2.5000 H   0  0  0  0  0  0  0  0  0  0  0  0
    4.0480    0.8240    1.4020 H   0  0  0  0  0  0  0  0  0  0  0  0
   -5.1950   -2.1420   -1.2620 C   0  0  0  0  0  0  0  0  0  0  0  0
   -4.6110   -1.6680    0.0870 C   0  0  0  0  0  0  0  0  0  0  0  0
   -4.9480   -0.1950    0.1860 C   0  0  0  0  0  0  0  0  0  0  0  0
   -3.1260   -1.8870   -0.0060 C   0  0  0  0  0  0  0  0  0  0  0  0
   -2.3450   -1.4840    1.1920 C   0  0  2  0  0  0  0  0  0  0  0  0
   -0.9110   -1.7320    1.0080 N   0  0  0  0  0  0  0  0  0  0  0  0
   -2.8140   -1.9930    2.4830 C   0  0  0  0  0  0  0  0  0  0  0  0
   -3.9930   -1.8410    2.8410 O   0  0  0  0  0  0  0  0  0  0  0  0
   -1.9390   -2.6540    3.3250 O   0  0  0  0  0  0  0  0  0  0  0  0
   -5.3810   -3.2310   -1.1740 H   0  0  0  0  0  0  0  0  0  0  0  0
   -4.4560   -1.9970   -2.0750 H   0  0  0  0  0  0  0  0  0  0  0  0
   -6.1300   -1.5710   -1.4660 H   0  0  0  0  0  0  0  0  0  0  0  0
   -5.0910   -2.2680    0.9060 H   0  0  0  0  0  0  0  0  0  0  0  0
   -5.2750    0.0960    1.1970 H   0  0  0  0  0  0  0  0  0  0  0  0
   -4.0280    0.4300   -0.0130 H   0  0  0  0  0  0  0  0  0  0  0  0
   -5.7390    0.0980   -0.5360 H   0  0  0  0  0  0  0  0  0  0  0  0
   -2.9620   -2.9590   -0.2600 H   0  0  0  0  0  0  0  0  0  0  0  0
   -2.7870   -1.2260   -0.8580 H   0  0  0  0  0  0  0  0  0  0  0  0
   -2.4310   -0.3580    1.2560 H   0  0  0  0  0  0  0  0  0  0  0  0
   -0.6450   -2.7590    0.9330 H   0  0  0  0  0  0  0  0  0  0  0  0
  1  5  1  0  0  0  0
  1  2  1  0  0  0  0
  2  3  1  0  0  0  0
  2  7  1  0  0  0  0
  3  4  2  0  0  0  0
  6  1  1  0  0  0  0
  8  2  1  0  0  0  0
  9 10  1  0  0  0  0
  9  3  1  0  0  0  0
 10 21  1  0  0  0  0
 10 24  1  1  0  0  0
 11 12  1  0  0  0  0
 11 10  1  0  0  0  0
 12 20  1  0  0  0  0
 13 14  1  0  0  0  0
 13 12  2  0  0  0  0
 14 15  1  0  0  0  0
 15 20  2  0  0  0  0
 15 16  1  0  0  0  0
 16 17  2  0  0  0  0
 17 18  1  0  0  0  0
 17 30  1  0  0  0  0
 18 31  1  0  0  0  0
 19 32  1  0  0  0  0
 19 18  2  0  0  0  0
 20 19  1  0  0  0  0
 21 38  1  0  0  0  0
 21 22  2  0  0  0  0
 23  9  1  0  0  0  0
 25 11  1  0  0  0  0
 26 11  1  0  0  0  0
 27 13  1  0  0  0  0
 28 14  1  0  0  0  0
 29 16  1  0  0  0  0
 33 42  1  0  0  0  0
 33 34  1  0  0  0  0
 34 35  1  0  0  0  0
 34 45  1  0  0  0  0
 35 46  1  0  0  0  0
 36 34  1  0  0  0  0
 36 37  1  0  0  0  0
 37 51  1  1  0  0  0
 37 39  1  0  0  0  0
 38 37  1  0  0  0  0
 39 40  2  0  0  0  0
 39 41  1  0  0  0  0
 43 33  1  0  0  0  0
 44 33  1  0  0  0  0
 47 35  1  0  0  0  0
 48 35  1  0  0  0  0
 49 36  1  0  0  0  0
 50 36  1  0  0  0  0
 52 38  1  0  0  0  0
M  END
$$$$
