GWM.pdb
 OpenBabel07022418253D

 50 51  0  0  1  0  0  0  0  0999 V2000
   -2.8800    1.5510    0.8930 N   0  0  0  0  0  0  0  0  0  0  0  0
   -1.6630    1.5470    0.1320 C   0  0  0  0  0  0  0  0  0  0  0  0
   -0.8060    0.3700    0.5080 C   0  0  0  0  0  0  0  0  0  0  0  0
   -1.2270   -0.4140    1.3800 O   0  0  0  0  0  0  0  0  0  0  0  0
   -3.2870    0.5920    0.9360 H   0  0  0  0  0  0  0  0  0  0  0  0
   -3.5810    2.1850    0.4910 H   0  0  0  0  0  0  0  0  0  0  0  0
   -1.0670    2.4710    0.3130 H   0  0  0  0  0  0  0  0  0  0  0  0
   -1.8860    1.4890   -0.9590 H   0  0  0  0  0  0  0  0  0  0  0  0
    0.4570    0.1610   -0.1220 N   0  0  0  0  0  0  0  0  0  0  0  0
    1.3320   -0.9310    0.1560 C   0  0  1  0  0  0  0  0  0  0  0  0
    2.1760   -0.8170    1.3670 C   0  0  0  0  0  0  0  0  0  0  0  0
    3.0720    0.3530    1.2590 C   0  0  0  0  0  0  0  0  0  0  0  0
    4.4040    0.3280    0.7980 C   0  0  0  0  0  0  0  0  0  0  0  0
    4.9020    1.5710    0.7930 N   0  0  0  0  0  0  0  0  0  0  0  0
    3.9670    2.4340    1.2300 C   0  0  0  0  0  0  0  0  0  0  0  0
    4.0470    3.8020    1.3950 C   0  0  0  0  0  0  0  0  0  0  0  0
    2.9140    4.4260    1.8800 C   0  0  0  0  0  0  0  0  0  0  0  0
    1.7770    3.7140    2.1790 C   0  0  0  0  0  0  0  0  0  0  0  0
    1.7300    2.3540    2.0030 C   0  0  0  0  0  0  0  0  0  0  0  0
    2.8390    1.6800    1.5170 C   0  0  0  0  0  0  0  0  0  0  0  0
    0.7260   -2.2720   -0.0730 C   0  0  0  0  0  0  0  0  0  0  0  0
    1.3840   -3.3170    0.2460 O   0  0  0  0  0  0  0  0  0  0  0  0
    0.7000    0.9120   -0.8380 H   0  0  0  0  0  0  0  0  0  0  0  0
    2.1110   -0.8950   -0.7240 H   0  0  0  0  0  0  0  0  0  0  0  0
    2.8160   -1.7210    1.4460 H   0  0  0  0  0  0  0  0  0  0  0  0
    1.5850   -0.6640    2.3010 H   0  0  0  0  0  0  0  0  0  0  0  0
    4.8890   -0.5950    0.5090 H   0  0  0  0  0  0  0  0  0  0  0  0
    5.8610    1.8210    0.4960 H   0  0  0  0  0  0  0  0  0  0  0  0
    4.9270    4.3850    1.1680 H   0  0  0  0  0  0  0  0  0  0  0  0
    2.9500    5.5020    2.0180 H   0  0  0  0  0  0  0  0  0  0  0  0
    0.8820    4.2220    2.5650 H   0  0  0  0  0  0  0  0  0  0  0  0
    0.8750    1.7540    2.2370 H   0  0  0  0  0  0  0  0  0  0  0  0
   -4.4310   -2.8170    2.4920 C   0  0  0  0  0  0  0  0  0  0  0  0
   -3.2590   -4.1710    2.6430 S   0  0  0  0  0  0  0  0  0  0  0  0
   -1.8220   -3.9410    1.5530 C   0  0  0  0  0  0  0  0  0  0  0  0
   -2.2400   -4.0180    0.1240 C   0  0  0  0  0  0  0  0  0  0  0  0
   -1.1020   -3.8250   -0.8510 C   0  0  2  0  0  0  0  0  0  0  0  0
   -0.5450   -2.5040   -0.6320 N   0  0  0  0  0  0  0  0  0  0  0  0
   -1.5710   -4.0200   -2.2420 C   0  0  0  0  0  0  0  0  0  0  0  0
   -1.4890   -3.1330   -3.1090 O   0  0  0  0  0  0  0  0  0  0  0  0
   -2.1220   -5.2490   -2.5710 O   0  0  0  0  0  0  0  0  0  0  0  0
   -4.7280   -2.6270    1.4280 H   0  0  0  0  0  0  0  0  0  0  0  0
   -4.0090   -1.8590    2.9070 H   0  0  0  0  0  0  0  0  0  0  0  0
   -5.3260   -3.0580    3.0700 H   0  0  0  0  0  0  0  0  0  0  0  0
   -1.1410   -4.8310    1.7270 H   0  0  0  0  0  0  0  0  0  0  0  0
   -1.2080   -3.0730    1.8300 H   0  0  0  0  0  0  0  0  0  0  0  0
   -3.0190   -3.2170   -0.0310 H   0  0  0  0  0  0  0  0  0  0  0  0
   -2.7640   -4.9790   -0.0260 H   0  0  0  0  0  0  0  0  0  0  0  0
   -0.3540   -4.6220   -0.6360 H   0  0  0  0  0  0  0  0  0  0  0  0
   -1.1340   -1.7020   -0.9270 H   0  0  0  0  0  0  0  0  0  0  0  0
  1  5  1  0  0  0  0
  2  7  1  0  0  0  0
  2  3  1  0  0  0  0
  2  1  1  0  0  0  0
  3  4  2  0  0  0  0
  6  1  1  0  0  0  0
  8  2  1  0  0  0  0
  9 10  1  0  0  0  0
  9  3  1  0  0  0  0
 10 24  1  6  0  0  0
 10 11  1  0  0  0  0
 11 25  1  0  0  0  0
 11 26  1  0  0  0  0
 12 11  1  0  0  0  0
 12 20  1  0  0  0  0
 13 12  2  0  0  0  0
 14 13  1  0  0  0  0
 14 15  1  0  0  0  0
 15 16  2  0  0  0  0
 15 20  1  0  0  0  0
 16 17  1  0  0  0  0
 17 30  1  0  0  0  0
 17 18  2  0  0  0  0
 18 31  1  0  0  0  0
 19 18  1  0  0  0  0
 19 32  1  0  0  0  0
 20 19  2  0  0  0  0
 21 10  1  0  0  0  0
 21 22  2  0  0  0  0
 23  9  1  0  0  0  0
 27 13  1  0  0  0  0
 28 14  1  0  0  0  0
 29 16  1  0  0  0  0
 33 34  1  0  0  0  0
 33 43  1  0  0  0  0
 33 44  1  0  0  0  0
 35 45  1  0  0  0  0
 35 46  1  0  0  0  0
 35 34  1  0  0  0  0
 36 35  1  0  0  0  0
 37 49  1  1  0  0  0
 37 38  1  0  0  0  0
 37 36  1  0  0  0  0
 38 21  1  0  0  0  0
 39 37  1  0  0  0  0
 40 39  2  0  0  0  0
 41 39  1  0  0  0  0
 42 33  1  0  0  0  0
 47 36  1  0  0  0  0
 48 36  1  0  0  0  0
 50 38  1  0  0  0  0
M  END
$$$$
