GWT.pdb
 OpenBabel07022418253D

 47 48  0  0  1  0  0  0  0  0999 V2000
    1.4720   -1.3580    4.0560 N   0  0  0  0  0  0  0  0  0  0  0  0
    1.9320   -2.3290    3.1170 C   0  0  0  0  0  0  0  0  0  0  0  0
    1.3810   -1.9760    1.7720 C   0  0  0  0  0  0  0  0  0  0  0  0
    1.6990   -2.7350    0.8420 O   0  0  0  0  0  0  0  0  0  0  0  0
    1.9140   -0.4350    3.9750 H   0  0  0  0  0  0  0  0  0  0  0  0
    0.4650   -1.3710    4.2410 H   0  0  0  0  0  0  0  0  0  0  0  0
    1.5580   -3.3250    3.4380 H   0  0  0  0  0  0  0  0  0  0  0  0
    3.0220   -2.3790    3.0960 H   0  0  0  0  0  0  0  0  0  0  0  0
    0.5600   -0.8590    1.5870 N   0  0  0  0  0  0  0  0  0  0  0  0
    0.0100   -0.4420    0.3450 C   0  0  1  0  0  0  0  0  0  0  0  0
    0.8960   -0.6770   -0.8420 C   0  0  0  0  0  0  0  0  0  0  0  0
    2.1590    0.1020   -0.6800 C   0  0  0  0  0  0  0  0  0  0  0  0
    3.4260   -0.2760   -0.3130 C   0  0  0  0  0  0  0  0  0  0  0  0
    4.2280    0.8030   -0.3070 N   0  0  0  0  0  0  0  0  0  0  0  0
    3.5520    1.9010   -0.6560 C   0  0  0  0  0  0  0  0  0  0  0  0
    3.8880    3.2450   -0.8120 C   0  0  0  0  0  0  0  0  0  0  0  0
    2.9670    4.1910   -1.2000 C   0  0  0  0  0  0  0  0  0  0  0  0
    1.6830    3.7500   -1.4320 C   0  0  0  0  0  0  0  0  0  0  0  0
    1.3280    2.4290   -1.2850 C   0  0  0  0  0  0  0  0  0  0  0  0
    2.2620    1.4910   -0.8940 C   0  0  0  0  0  0  0  0  0  0  0  0
   -1.4080   -0.7140    0.1610 C   0  0  0  0  0  0  0  0  0  0  0  0
   -2.0500   -0.4100   -0.8900 O   0  0  0  0  0  0  0  0  0  0  0  0
    0.3610   -0.3050    2.4980 H   0  0  0  0  0  0  0  0  0  0  0  0
    0.0740    0.7220    0.4280 H   0  0  0  0  0  0  0  0  0  0  0  0
    1.1010   -1.7160   -1.0380 H   0  0  0  0  0  0  0  0  0  0  0  0
    0.3760   -0.1830   -1.7210 H   0  0  0  0  0  0  0  0  0  0  0  0
    3.7390   -1.2850   -0.0720 H   0  0  0  0  0  0  0  0  0  0  0  0
    5.2610    0.7990   -0.0590 H   0  0  0  0  0  0  0  0  0  0  0  0
    4.8980    3.5760   -0.6260 H   0  0  0  0  0  0  0  0  0  0  0  0
    3.2340    5.2440   -1.3210 H   0  0  0  0  0  0  0  0  0  0  0  0
    0.9200    4.4690   -1.7430 H   0  0  0  0  0  0  0  0  0  0  0  0
    0.3210    2.0700   -1.4730 H   0  0  0  0  0  0  0  0  0  0  0  0
   -3.2070   -3.9120    0.0500 C   0  0  0  0  0  0  0  0  0  0  0  0
   -3.8620   -3.1320    1.1690 C   0  0  1  0  0  0  0  0  0  0  0  0
   -3.4390   -3.6900    2.3660 O   0  0  0  0  0  0  0  0  0  0  0  0
   -3.5690   -1.6580    1.0780 C   0  0  2  0  0  0  0  0  0  0  0  0
   -2.1750   -1.3530    1.1750 N   0  0  0  0  0  0  0  0  0  0  0  0
   -4.3880   -0.9140    2.0670 C   0  0  0  0  0  0  0  0  0  0  0  0
   -5.6320   -1.0720    2.1080 O   0  0  0  0  0  0  0  0  0  0  0  0
   -3.8210   -0.0290    2.9700 O   0  0  0  0  0  0  0  0  0  0  0  0
   -3.1390   -4.9790    0.4120 H   0  0  0  0  0  0  0  0  0  0  0  0
   -2.1640   -3.5710   -0.0660 H   0  0  0  0  0  0  0  0  0  0  0  0
   -3.7930   -3.8850   -0.8900 H   0  0  0  0  0  0  0  0  0  0  0  0
   -4.9510   -3.2720    1.0960 H   0  0  0  0  0  0  0  0  0  0  0  0
   -2.4730   -3.6380    2.4150 H   0  0  0  0  0  0  0  0  0  0  0  0
   -3.9180   -1.3150    0.0740 H   0  0  0  0  0  0  0  0  0  0  0  0
   -1.6510   -1.6090    2.0540 H   0  0  0  0  0  0  0  0  0  0  0  0
  1  6  1  0  0  0  0
  2  7  1  0  0  0  0
  2  1  1  0  0  0  0
  3  2  1  0  0  0  0
  4  3  2  0  0  0  0
  5  1  1  0  0  0  0
  8  2  1  0  0  0  0
  9  3  1  0  0  0  0
  9 23  1  0  0  0  0
 10 24  1  1  0  0  0
 10  9  1  0  0  0  0
 11 12  1  0  0  0  0
 11 10  1  0  0  0  0
 12 13  2  0  0  0  0
 13 14  1  0  0  0  0
 13 27  1  0  0  0  0
 14 28  1  0  0  0  0
 15 14  1  0  0  0  0
 16 15  1  0  0  0  0
 16 29  1  0  0  0  0
 17 16  2  0  0  0  0
 18 19  2  0  0  0  0
 18 17  1  0  0  0  0
 19 20  1  0  0  0  0
 20 12  1  0  0  0  0
 20 15  2  0  0  0  0
 21 10  1  0  0  0  0
 21 37  1  0  0  0  0
 22 21  2  0  0  0  0
 25 11  1  0  0  0  0
 26 11  1  0  0  0  0
 30 17  1  0  0  0  0
 31 18  1  0  0  0  0
 32 19  1  0  0  0  0
 33 41  1  0  0  0  0
 33 34  1  0  0  0  0
 34 44  1  6  0  0  0
 34 35  1  0  0  0  0
 35 45  1  0  0  0  0
 36 46  1  6  0  0  0
 36 34  1  0  0  0  0
 36 37  1  0  0  0  0
 36 38  1  0  0  0  0
 37 47  1  0  0  0  0
 38 39  2  0  0  0  0
 38 40  1  0  0  0  0
 42 33  1  0  0  0  0
 43 33  1  0  0  0  0
M  END
$$$$
