GWV.pdb
 OpenBabel07022418253D

 49 50  0  0  1  0  0  0  0  0999 V2000
    4.1300   -3.4720    1.1220 N   0  0  0  0  0  0  0  0  0  0  0  0
    3.2620   -3.3650    2.2520 C   0  0  0  0  0  0  0  0  0  0  0  0
    2.0550   -2.5200    1.9510 C   0  0  0  0  0  0  0  0  0  0  0  0
    1.1970   -2.3310    2.8500 O   0  0  0  0  0  0  0  0  0  0  0  0
    4.7650   -4.2840    1.2370 H   0  0  0  0  0  0  0  0  0  0  0  0
    4.7500   -2.6260    1.0670 H   0  0  0  0  0  0  0  0  0  0  0  0
    3.8210   -2.9750    3.1270 H   0  0  0  0  0  0  0  0  0  0  0  0
    2.8750   -4.3770    2.5570 H   0  0  0  0  0  0  0  0  0  0  0  0
    1.8300   -1.9190    0.6970 N   0  0  0  0  0  0  0  0  0  0  0  0
    0.7050   -1.1020    0.3430 C   0  0  1  0  0  0  0  0  0  0  0  0
    1.0680    0.2810   -0.0790 C   0  0  0  0  0  0  0  0  0  0  0  0
    1.7780    1.0220    0.9830 C   0  0  0  0  0  0  0  0  0  0  0  0
    3.1500    1.2940    1.0390 C   0  0  0  0  0  0  0  0  0  0  0  0
    3.4180    1.9940    2.1590 N   0  0  0  0  0  0  0  0  0  0  0  0
    2.2770    2.2040    2.8620 C   0  0  0  0  0  0  0  0  0  0  0  0
    2.0380    2.8580    4.0550 C   0  0  0  0  0  0  0  0  0  0  0  0
    0.7570    2.9250    4.5530 C   0  0  0  0  0  0  0  0  0  0  0  0
   -0.2470    2.3310    3.8360 C   0  0  0  0  0  0  0  0  0  0  0  0
    0.0020    1.6800    2.6440 C   0  0  0  0  0  0  0  0  0  0  0  0
    1.2790    1.6040    2.1320 C   0  0  0  0  0  0  0  0  0  0  0  0
   -0.1810   -1.7610   -0.6510 C   0  0  0  0  0  0  0  0  0  0  0  0
    0.1280   -2.9160   -1.0340 O   0  0  0  0  0  0  0  0  0  0  0  0
    2.5720   -2.0980   -0.0440 H   0  0  0  0  0  0  0  0  0  0  0  0
    0.0720   -1.0250    1.2770 H   0  0  0  0  0  0  0  0  0  0  0  0
    1.6440    0.3360   -1.0070 H   0  0  0  0  0  0  0  0  0  0  0  0
    0.1050    0.8360   -0.2720 H   0  0  0  0  0  0  0  0  0  0  0  0
    3.8330    0.9610    0.2620 H   0  0  0  0  0  0  0  0  0  0  0  0
    4.3750    2.3080    2.4110 H   0  0  0  0  0  0  0  0  0  0  0  0
    2.8180    3.3330    4.6340 H   0  0  0  0  0  0  0  0  0  0  0  0
    0.5240    3.4370    5.5000 H   0  0  0  0  0  0  0  0  0  0  0  0
   -1.2730    2.3570    4.1860 H   0  0  0  0  0  0  0  0  0  0  0  0
   -0.7860    1.2040    2.0650 H   0  0  0  0  0  0  0  0  0  0  0  0
   -3.4370   -2.7680   -0.2730 C   0  0  0  0  0  0  0  0  0  0  0  0
   -3.5670   -1.8790   -1.4910 C   0  0  0  0  0  0  0  0  0  0  0  0
   -4.1260   -0.5470   -1.0190 C   0  0  0  0  0  0  0  0  0  0  0  0
   -2.2240   -1.7350   -2.1260 C   0  0  2  0  0  0  0  0  0  0  0  0
   -1.3250   -1.1420   -1.1580 N   0  0  0  0  0  0  0  0  0  0  0  0
   -2.2380   -1.0520   -3.4090 C   0  0  0  0  0  0  0  0  0  0  0  0
   -2.9730   -1.4620   -4.3280 O   0  0  0  0  0  0  0  0  0  0  0  0
   -1.4460    0.0500   -3.6290 O   0  0  0  0  0  0  0  0  0  0  0  0
   -4.4430   -2.9640    0.1870 H   0  0  0  0  0  0  0  0  0  0  0  0
   -2.8100   -2.2670    0.5020 H   0  0  0  0  0  0  0  0  0  0  0  0
   -2.9450   -3.7260   -0.5140 H   0  0  0  0  0  0  0  0  0  0  0  0
   -4.3060   -2.3840   -2.1550 H   0  0  0  0  0  0  0  0  0  0  0  0
   -3.5240   -0.1190   -0.1970 H   0  0  0  0  0  0  0  0  0  0  0  0
   -5.1310   -0.7630   -0.5730 H   0  0  0  0  0  0  0  0  0  0  0  0
   -4.3020    0.1390   -1.8500 H   0  0  0  0  0  0  0  0  0  0  0  0
   -1.8200   -2.7670   -2.3110 H   0  0  0  0  0  0  0  0  0  0  0  0
   -1.5780   -0.1840   -0.8370 H   0  0  0  0  0  0  0  0  0  0  0  0
  1  5  1  0  0  0  0
  1  2  1  0  0  0  0
  2  8  1  0  0  0  0
  2  7  1  0  0  0  0
  3  2  1  0  0  0  0
  3  4  2  0  0  0  0
  6  1  1  0  0  0  0
  9  3  1  0  0  0  0
 10  9  1  0  0  0  0
 10 24  1  1  0  0  0
 11 10  1  0  0  0  0
 11 12  1  0  0  0  0
 12 13  2  0  0  0  0
 12 20  1  0  0  0  0
 13 14  1  0  0  0  0
 14 28  1  0  0  0  0
 14 15  1  0  0  0  0
 15 16  1  0  0  0  0
 16 17  2  0  0  0  0
 16 29  1  0  0  0  0
 17 30  1  0  0  0  0
 18 31  1  0  0  0  0
 18 17  1  0  0  0  0
 19 18  2  0  0  0  0
 20 19  1  0  0  0  0
 20 15  2  0  0  0  0
 21 10  1  0  0  0  0
 22 21  2  0  0  0  0
 23  9  1  0  0  0  0
 25 11  1  0  0  0  0
 26 11  1  0  0  0  0
 27 13  1  0  0  0  0
 32 19  1  0  0  0  0
 33 41  1  0  0  0  0
 33 42  1  0  0  0  0
 34 35  1  0  0  0  0
 34 33  1  0  0  0  0
 35 46  1  0  0  0  0
 35 45  1  0  0  0  0
 36 48  1  6  0  0  0
 36 34  1  0  0  0  0
 36 37  1  0  0  0  0
 37 49  1  0  0  0  0
 37 21  1  0  0  0  0
 38 36  1  0  0  0  0
 39 38  2  0  0  0  0
 40 38  1  0  0  0  0
 43 33  1  0  0  0  0
 44 34  1  0  0  0  0
 47 35  1  0  0  0  0
M  END
$$$$
