GWY.pdb
 OpenBabel07022418253D

 54 56  0  0  1  0  0  0  0  0999 V2000
   -0.4610   -0.7410    6.7240 N   0  0  0  0  0  0  0  0  0  0  0  0
   -0.0040   -1.5220    5.5840 C   0  0  0  0  0  0  0  0  0  0  0  0
    0.3740   -0.6400    4.4520 C   0  0  0  0  0  0  0  0  0  0  0  0
    0.2580    0.6160    4.6110 O   0  0  0  0  0  0  0  0  0  0  0  0
    0.3210   -0.2330    7.1830 H   0  0  0  0  0  0  0  0  0  0  0  0
   -1.2680   -0.1360    6.5220 H   0  0  0  0  0  0  0  0  0  0  0  0
   -0.7830   -2.2270    5.2410 H   0  0  0  0  0  0  0  0  0  0  0  0
    0.9140   -2.0610    5.9200 H   0  0  0  0  0  0  0  0  0  0  0  0
    0.8500   -1.1800    3.2290 N   0  0  0  0  0  0  0  0  0  0  0  0
    1.2230   -0.3320    2.1130 C   0  0  1  0  0  0  0  0  0  0  0  0
    2.6500   -0.4960    1.7140 C   0  0  0  0  0  0  0  0  0  0  0  0
    2.9470    0.4090    0.5790 C   0  0  0  0  0  0  0  0  0  0  0  0
    3.1160    0.1340   -0.7690 C   0  0  0  0  0  0  0  0  0  0  0  0
    3.3820    1.2730   -1.4320 N   0  0  0  0  0  0  0  0  0  0  0  0
    3.4000    2.3140   -0.5800 C   0  0  0  0  0  0  0  0  0  0  0  0
    3.6180    3.6710   -0.7140 C   0  0  0  0  0  0  0  0  0  0  0  0
    3.5800    4.5480    0.3560 C   0  0  0  0  0  0  0  0  0  0  0  0
    3.3120    4.0230    1.6020 C   0  0  0  0  0  0  0  0  0  0  0  0
    3.0960    2.6660    1.7310 C   0  0  0  0  0  0  0  0  0  0  0  0
    3.1320    1.7920    0.6690 C   0  0  0  0  0  0  0  0  0  0  0  0
    0.2800   -0.5530    0.9580 C   0  0  0  0  0  0  0  0  0  0  0  0
    0.4820    0.1300   -0.0740 O   0  0  0  0  0  0  0  0  0  0  0  0
    0.9300   -2.2030    3.1400 H   0  0  0  0  0  0  0  0  0  0  0  0
    1.0610    0.7200    2.4230 H   0  0  0  0  0  0  0  0  0  0  0  0
    3.2690   -0.2420    2.6020 H   0  0  0  0  0  0  0  0  0  0  0  0
    2.8310   -1.5440    1.3800 H   0  0  0  0  0  0  0  0  0  0  0  0
    3.0350   -0.8610   -1.1750 H   0  0  0  0  0  0  0  0  0  0  0  0
    3.5460    1.3180   -2.4540 H   0  0  0  0  0  0  0  0  0  0  0  0
    3.8290    4.0980   -1.6860 H   0  0  0  0  0  0  0  0  0  0  0  0
    3.7540    5.6150    0.2340 H   0  0  0  0  0  0  0  0  0  0  0  0
    3.2840    4.7120    2.4360 H   0  0  0  0  0  0  0  0  0  0  0  0
    2.8840    2.2410    2.7140 H   0  0  0  0  0  0  0  0  0  0  0  0
   -4.8790   -3.5580   -5.2330 O   0  0  0  0  0  0  0  0  0  0  0  0
   -4.0750   -3.4400   -4.1090 C   0  0  0  0  0  0  0  0  0  0  0  0
   -4.5480   -3.8130   -2.8640 C   0  0  0  0  0  0  0  0  0  0  0  0
   -3.7310   -3.6900   -1.7480 C   0  0  0  0  0  0  0  0  0  0  0  0
   -2.4490   -3.2050   -1.8190 C   0  0  0  0  0  0  0  0  0  0  0  0
   -1.5610   -3.0560   -0.6560 C   0  0  0  0  0  0  0  0  0  0  0  0
   -1.6550   -1.6460   -0.1300 C   0  0  2  0  0  0  0  0  0  0  0  0
   -0.7780   -1.4820    1.0330 N   0  0  0  0  0  0  0  0  0  0  0  0
   -3.0170   -1.3140    0.2940 C   0  0  0  0  0  0  0  0  0  0  0  0
   -3.2530   -1.0510    1.4940 O   0  0  0  0  0  0  0  0  0  0  0  0
   -1.9650   -2.8270   -3.0760 C   0  0  0  0  0  0  0  0  0  0  0  0
   -2.7880   -2.9530   -4.1910 C   0  0  0  0  0  0  0  0  0  0  0  0
   -4.0650   -1.2760   -0.5970 O   0  0  0  0  0  0  0  0  0  0  0  0
   -5.6120   -2.9010   -5.3770 H   0  0  0  0  0  0  0  0  0  0  0  0
   -5.5550   -4.2030   -2.7500 H   0  0  0  0  0  0  0  0  0  0  0  0
   -4.0930   -3.9870   -0.7660 H   0  0  0  0  0  0  0  0  0  0  0  0
   -0.5080   -3.3030   -0.9360 H   0  0  0  0  0  0  0  0  0  0  0  0
   -1.8920   -3.7430    0.1680 H   0  0  0  0  0  0  0  0  0  0  0  0
   -1.2990   -0.9820   -0.9570 H   0  0  0  0  0  0  0  0  0  0  0  0
   -0.9000   -2.0150    1.9000 H   0  0  0  0  0  0  0  0  0  0  0  0
   -0.9610   -2.4440   -3.1540 H   0  0  0  0  0  0  0  0  0  0  0  0
   -2.4160   -2.6580   -5.1790 H   0  0  0  0  0  0  0  0  0  0  0  0
  1  5  1  0  0  0  0
  2  8  1  0  0  0  0
  2  1  1  0  0  0  0
  3  4  2  0  0  0  0
  3  2  1  0  0  0  0
  6  1  1  0  0  0  0
  7  2  1  0  0  0  0
  9  3  1  0  0  0  0
 10 24  1  1  0  0  0
 10  9  1  0  0  0  0
 11 10  1  0  0  0  0
 11 25  1  0  0  0  0
 12 20  1  0  0  0  0
 12 11  1  0  0  0  0
 13 12  2  0  0  0  0
 14 13  1  0  0  0  0
 14 15  1  0  0  0  0
 15 20  1  0  0  0  0
 16 15  2  0  0  0  0
 16 17  1  0  0  0  0
 17 18  2  0  0  0  0
 18 19  1  0  0  0  0
 18 31  1  0  0  0  0
 19 32  1  0  0  0  0
 20 19  2  0  0  0  0
 21 40  1  0  0  0  0
 21 10  1  0  0  0  0
 22 21  2  0  0  0  0
 23  9  1  0  0  0  0
 26 11  1  0  0  0  0
 27 13  1  0  0  0  0
 28 14  1  0  0  0  0
 29 16  1  0  0  0  0
 30 17  1  0  0  0  0
 33 34  1  0  0  0  0
 34 35  1  0  0  0  0
 35 47  1  0  0  0  0
 35 36  2  0  0  0  0
 36 48  1  0  0  0  0
 37 36  1  0  0  0  0
 37 38  1  0  0  0  0
 38 39  1  0  0  0  0
 38 50  1  0  0  0  0
 39 51  1  6  0  0  0
 39 41  1  0  0  0  0
 39 40  1  0  0  0  0
 40 52  1  0  0  0  0
 41 42  1  0  0  0  0
 43 37  2  0  0  0  0
 44 34  2  0  0  0  0
 44 43  1  0  0  0  0
 45 41  2  0  0  0  0
 46 33  1  0  0  0  0
 49 38  1  0  0  0  0
 53 43  1  0  0  0  0
 54 44  1  0  0  0  0
M  END
$$$$
