GYA.pdb
 OpenBabel07022418253D

 40 40  0  0  1  0  0  0  0  0999 V2000
   -2.1060   -5.0290   -2.5400 N   0  0  0  0  0  0  0  0  0  0  0  0
   -2.3230   -3.6060   -2.3790 C   0  0  0  0  0  0  0  0  0  0  0  0
   -1.2730   -3.0800   -1.4760 C   0  0  0  0  0  0  0  0  0  0  0  0
   -0.4070   -3.8580   -1.0070 O   0  0  0  0  0  0  0  0  0  0  0  0
   -1.0760   -5.1900   -2.4580 H   0  0  0  0  0  0  0  0  0  0  0  0
   -2.5560   -5.5010   -1.7240 H   0  0  0  0  0  0  0  0  0  0  0  0
   -3.3430   -3.4870   -1.9310 H   0  0  0  0  0  0  0  0  0  0  0  0
   -2.3260   -3.0880   -3.3590 H   0  0  0  0  0  0  0  0  0  0  0  0
    5.1490    1.9790    1.8290 O   0  0  0  0  0  0  0  0  0  0  0  0
    4.0730    1.4200    1.1460 C   0  0  0  0  0  0  0  0  0  0  0  0
    4.1630    0.1790    0.5510 C   0  0  0  0  0  0  0  0  0  0  0  0
    3.0780   -0.3270   -0.1090 C   0  0  0  0  0  0  0  0  0  0  0  0
    1.8580    0.3380   -0.2250 C   0  0  0  0  0  0  0  0  0  0  0  0
    0.7510   -0.2640   -0.9790 C   0  0  0  0  0  0  0  0  0  0  0  0
   -0.1150   -1.2210   -0.1910 C   0  0  2  0  0  0  0  0  0  0  0  0
   -1.1770   -1.7260   -1.0970 N   0  0  0  0  0  0  0  0  0  0  0  0
   -0.8220   -0.6160    0.9480 C   0  0  0  0  0  0  0  0  0  0  0  0
   -2.0970   -0.4610    0.9220 O   0  0  0  0  0  0  0  0  0  0  0  0
    1.7760    1.5960    0.3820 C   0  0  0  0  0  0  0  0  0  0  0  0
    2.8770    2.0960    1.0440 C   0  0  0  0  0  0  0  0  0  0  0  0
    5.8700    1.3470    2.1790 H   0  0  0  0  0  0  0  0  0  0  0  0
    5.0990   -0.3600    0.6250 H   0  0  0  0  0  0  0  0  0  0  0  0
    3.1410   -1.3020   -0.5790 H   0  0  0  0  0  0  0  0  0  0  0  0
    0.0540    0.5240   -1.3640 H   0  0  0  0  0  0  0  0  0  0  0  0
    1.1480   -0.7700   -1.9090 H   0  0  0  0  0  0  0  0  0  0  0  0
    0.5430   -2.0670    0.1070 H   0  0  0  0  0  0  0  0  0  0  0  0
   -1.8750   -1.0550   -1.4660 H   0  0  0  0  0  0  0  0  0  0  0  0
    0.8450    2.1290    0.3060 H   0  0  0  0  0  0  0  0  0  0  0  0
    2.8060    3.0730    1.5130 H   0  0  0  0  0  0  0  0  0  0  0  0
   -0.8790   -0.5660    4.3970 C   0  0  0  0  0  0  0  0  0  0  0  0
   -0.9790    0.4320    3.2330 C   0  0  2  0  0  0  0  0  0  0  0  0
   -0.2260   -0.1560    2.1520 N   0  0  0  0  0  0  0  0  0  0  0  0
   -0.4650    1.7040    3.7310 C   0  0  0  0  0  0  0  0  0  0  0  0
    0.5470    2.2890    3.2970 O   0  0  0  0  0  0  0  0  0  0  0  0
   -1.1640    2.3100    4.7730 O   0  0  0  0  0  0  0  0  0  0  0  0
    0.0100   -0.3530    4.9990 H   0  0  0  0  0  0  0  0  0  0  0  0
   -1.7730   -0.4180    5.0580 H   0  0  0  0  0  0  0  0  0  0  0  0
   -0.8400   -1.5750    3.9740 H   0  0  0  0  0  0  0  0  0  0  0  0
   -2.0600    0.4980    3.0140 H   0  0  0  0  0  0  0  0  0  0  0  0
    0.8010   -0.2640    2.2570 H   0  0  0  0  0  0  0  0  0  0  0  0
  1  5  1  0  0  0  0
  1  2  1  0  0  0  0
  1  6  1  0  0  0  0
  2  7  1  0  0  0  0
  2  3  1  0  0  0  0
  3 16  1  0  0  0  0
  3  4  2  0  0  0  0
  8  2  1  0  0  0  0
  9 21  1  0  0  0  0
 10  9  1  0  0  0  0
 11 22  1  0  0  0  0
 11 10  2  0  0  0  0
 12 11  1  0  0  0  0
 13 12  2  0  0  0  0
 13 19  1  0  0  0  0
 14 13  1  0  0  0  0
 14 15  1  0  0  0  0
 15 26  1  1  0  0  0
 15 17  1  0  0  0  0
 16 15  1  0  0  0  0
 17 32  1  0  0  0  0
 18 17  2  0  0  0  0
 19 20  2  0  0  0  0
 20 10  1  0  0  0  0
 20 29  1  0  0  0  0
 23 12  1  0  0  0  0
 24 14  1  0  0  0  0
 25 14  1  0  0  0  0
 27 16  1  0  0  0  0
 28 19  1  0  0  0  0
 30 36  1  0  0  0  0
 30 37  1  0  0  0  0
 31 39  1  6  0  0  0
 31 33  1  0  0  0  0
 31 30  1  0  0  0  0
 32 40  1  0  0  0  0
 32 31  1  0  0  0  0
 33 35  1  0  0  0  0
 34 33  2  0  0  0  0
 38 30  1  0  0  0  0
M  END
$$$$
