GYC.pdb
 OpenBabel07022418253D

 41 41  0  0  1  0  0  0  0  0999 V2000
    1.3960   -3.7410    1.6010 N   0  0  0  0  0  0  0  0  0  0  0  0
    1.0950   -3.4470    0.2130 C   0  0  0  0  0  0  0  0  0  0  0  0
    0.7370   -2.0090    0.0260 C   0  0  0  0  0  0  0  0  0  0  0  0
    0.4570   -1.6450   -1.1370 O   0  0  0  0  0  0  0  0  0  0  0  0
    2.2830   -3.2400    1.8300 H   0  0  0  0  0  0  0  0  0  0  0  0
    1.4900   -4.7780    1.6740 H   0  0  0  0  0  0  0  0  0  0  0  0
    0.2330   -4.0350   -0.1680 H   0  0  0  0  0  0  0  0  0  0  0  0
    1.9620   -3.6380   -0.4540 H   0  0  0  0  0  0  0  0  0  0  0  0
    6.7200    0.9320    0.7320 O   0  0  0  0  0  0  0  0  0  0  0  0
    5.3440    0.9270    0.5000 C   0  0  0  0  0  0  0  0  0  0  0  0
    4.5100    1.8800    1.0460 C   0  0  0  0  0  0  0  0  0  0  0  0
    3.1530    1.9290    0.8580 C   0  0  0  0  0  0  0  0  0  0  0  0
    2.5820    0.9330    0.0490 C   0  0  0  0  0  0  0  0  0  0  0  0
    1.1210    1.0040   -0.1660 C   0  0  0  0  0  0  0  0  0  0  0  0
    0.3820    0.3150    0.9910 C   0  0  2  0  0  0  0  0  0  0  0  0
    0.7090   -1.0810    1.1020 N   0  0  0  0  0  0  0  0  0  0  0  0
   -1.0470    0.6130    0.9900 C   0  0  0  0  0  0  0  0  0  0  0  0
   -1.4700    1.7810    0.9000 O   0  0  0  0  0  0  0  0  0  0  0  0
    3.4000   -0.0250   -0.5040 C   0  0  0  0  0  0  0  0  0  0  0  0
    4.7870   -0.0510   -0.2940 C   0  0  0  0  0  0  0  0  0  0  0  0
    7.1740    0.0480    0.9350 H   0  0  0  0  0  0  0  0  0  0  0  0
    4.9400    2.6670    1.6820 H   0  0  0  0  0  0  0  0  0  0  0  0
    2.5170    2.6940    1.3020 H   0  0  0  0  0  0  0  0  0  0  0  0
    0.7610    2.0740   -0.1380 H   0  0  0  0  0  0  0  0  0  0  0  0
    0.8220    0.6240   -1.1460 H   0  0  0  0  0  0  0  0  0  0  0  0
    0.9070    0.7950    1.8840 H   0  0  0  0  0  0  0  0  0  0  0  0
    0.9620   -1.5270    2.0420 H   0  0  0  0  0  0  0  0  0  0  0  0
    3.0220   -0.8010   -1.1390 H   0  0  0  0  0  0  0  0  0  0  0  0
    5.4160   -0.8090   -0.7340 H   0  0  0  0  0  0  0  0  0  0  0  0
   -2.0700   -0.3940    1.0910 N   0  0  0  0  0  0  0  0  0  0  0  0
   -3.4690   -0.1200    1.0920 C   0  0  1  0  0  0  0  0  0  0  0  0
   -4.2390   -0.8500    0.0230 C   0  0  0  0  0  0  0  0  0  0  0  0
   -4.0850   -2.6570    0.1980 S   0  0  0  0  0  0  0  0  0  0  0  0
   -4.0090   -0.5790    2.4060 C   0  0  0  0  0  0  0  0  0  0  0  0
   -5.2330   -0.4560    2.6770 O   0  0  0  0  0  0  0  0  0  0  0  0
   -3.2070   -1.1550    3.3810 O   0  0  0  0  0  0  0  0  0  0  0  0
   -1.7550   -1.3850    1.1690 H   0  0  0  0  0  0  0  0  0  0  0  0
   -3.7220    0.9480    1.0080 H   0  0  0  0  0  0  0  0  0  0  0  0
   -5.3200   -0.6220    0.2120 H   0  0  0  0  0  0  0  0  0  0  0  0
   -4.0240   -0.5110   -0.9910 H   0  0  0  0  0  0  0  0  0  0  0  0
   -3.9220   -3.2280   -1.0670 H   0  0  0  0  0  0  0  0  0  0  0  0
  1  6  1  0  0  0  0
  1  5  1  0  0  0  0
  2  1  1  0  0  0  0
  3  2  1  0  0  0  0
  3 16  1  0  0  0  0
  4  3  2  0  0  0  0
  7  2  1  0  0  0  0
  8  2  1  0  0  0  0
  9 21  1  0  0  0  0
 10  9  1  0  0  0  0
 10 11  1  0  0  0  0
 11 22  1  0  0  0  0
 12 11  2  0  0  0  0
 12 23  1  0  0  0  0
 13 12  1  0  0  0  0
 14 24  1  0  0  0  0
 14 13  1  0  0  0  0
 14 15  1  0  0  0  0
 15 16  1  0  0  0  0
 15 26  1  1  0  0  0
 16 27  1  0  0  0  0
 17 15  1  0  0  0  0
 17 30  1  0  0  0  0
 18 17  2  0  0  0  0
 19 20  1  0  0  0  0
 19 13  2  0  0  0  0
 20 10  2  0  0  0  0
 25 14  1  0  0  0  0
 28 19  1  0  0  0  0
 29 20  1  0  0  0  0
 30 31  1  0  0  0  0
 30 37  1  0  0  0  0
 31 38  1  6  0  0  0
 31 34  1  0  0  0  0
 32 33  1  0  0  0  0
 32 39  1  0  0  0  0
 32 31  1  0  0  0  0
 34 35  2  0  0  0  0
 34 36  1  0  0  0  0
 40 32  1  0  0  0  0
 41 33  1  0  0  0  0
M  END
$$$$
