GYD.pdb
 OpenBabel07022418253D

 43 43  0  0  1  0  0  0  0  0999 V2000
    1.3660   -2.1300    3.1700 N   0  0  0  0  0  0  0  0  0  0  0  0
    0.3530   -1.2240    3.6750 C   0  0  0  0  0  0  0  0  0  0  0  0
   -0.1340   -0.3100    2.5890 C   0  0  0  0  0  0  0  0  0  0  0  0
   -1.0170    0.5490    2.8370 O   0  0  0  0  0  0  0  0  0  0  0  0
    1.0350   -2.7290    2.4100 H   0  0  0  0  0  0  0  0  0  0  0  0
    2.2850   -1.6770    3.0290 H   0  0  0  0  0  0  0  0  0  0  0  0
    0.6870   -0.6780    4.5610 H   0  0  0  0  0  0  0  0  0  0  0  0
   -0.5180   -1.8430    3.9720 H   0  0  0  0  0  0  0  0  0  0  0  0
    3.1880    4.6820    3.7680 O   0  0  0  0  0  0  0  0  0  0  0  0
    2.6470    3.8820    2.7600 C   0  0  0  0  0  0  0  0  0  0  0  0
    1.5920    4.2960    1.9810 C   0  0  0  0  0  0  0  0  0  0  0  0
    1.0840    3.4820    0.9970 C   0  0  0  0  0  0  0  0  0  0  0  0
    1.5930    2.2240    0.7380 C   0  0  0  0  0  0  0  0  0  0  0  0
    1.0140    1.3790   -0.3320 C   0  0  0  0  0  0  0  0  0  0  0  0
   -0.1040    0.5160    0.2100 C   0  0  2  0  0  0  0  0  0  0  0  0
    0.3630   -0.3650    1.2610 N   0  0  0  0  0  0  0  0  0  0  0  0
   -0.7630   -0.2680   -0.8660 C   0  0  0  0  0  0  0  0  0  0  0  0
   -1.2490    0.2590   -1.8910 O   0  0  0  0  0  0  0  0  0  0  0  0
    2.6490    1.8190    1.5240 C   0  0  0  0  0  0  0  0  0  0  0  0
    3.1780    2.6230    2.5220 C   0  0  0  0  0  0  0  0  0  0  0  0
    2.9440    4.5650    4.7470 H   0  0  0  0  0  0  0  0  0  0  0  0
    1.1770    5.2720    2.1630 H   0  0  0  0  0  0  0  0  0  0  0  0
    0.2460    3.7910    0.3650 H   0  0  0  0  0  0  0  0  0  0  0  0
    1.7970    0.6710   -0.7290 H   0  0  0  0  0  0  0  0  0  0  0  0
    0.6840    1.9650   -1.2060 H   0  0  0  0  0  0  0  0  0  0  0  0
   -0.8890    1.2200    0.5990 H   0  0  0  0  0  0  0  0  0  0  0  0
    1.0960   -1.0770    1.0510 H   0  0  0  0  0  0  0  0  0  0  0  0
    3.0810    0.8330    1.3520 H   0  0  0  0  0  0  0  0  0  0  0  0
    4.0140    2.2990    3.1420 H   0  0  0  0  0  0  0  0  0  0  0  0
   -0.8620   -1.7060   -0.7480 N   0  0  0  0  0  0  0  0  0  0  0  0
   -1.4990   -2.4840   -1.7820 C   0  0  1  0  0  0  0  0  0  0  0  0
   -0.5460   -3.5060   -2.3310 C   0  0  0  0  0  0  0  0  0  0  0  0
   -0.1340   -4.4270   -1.2560 C   0  0  0  0  0  0  0  0  0  0  0  0
   -0.6010   -4.3420   -0.1010 O   0  0  0  0  0  0  0  0  0  0  0  0
   -2.6660   -3.2520   -1.2270 C   0  0  0  0  0  0  0  0  0  0  0  0
   -3.3740   -3.9950   -1.9480 O   0  0  0  0  0  0  0  0  0  0  0  0
    0.8030   -5.4500   -1.4670 O   0  0  0  0  0  0  0  0  0  0  0  0
   -2.9860   -3.1510    0.1190 O   0  0  0  0  0  0  0  0  0  0  0  0
   -0.4500   -2.0960    0.1140 H   0  0  0  0  0  0  0  0  0  0  0  0
   -1.8760   -1.8440   -2.6080 H   0  0  0  0  0  0  0  0  0  0  0  0
   -0.9920   -4.0600   -3.1840 H   0  0  0  0  0  0  0  0  0  0  0  0
    0.3640   -2.9360   -2.6920 H   0  0  0  0  0  0  0  0  0  0  0  0
    0.7770   -6.2710   -0.8430 H   0  0  0  0  0  0  0  0  0  0  0  0
  1  2  1  0  0  0  0
  2  8  1  0  0  0  0
  2  7  1  0  0  0  0
  3  4  2  0  0  0  0
  3  2  1  0  0  0  0
  5  1  1  0  0  0  0
  6  1  1  0  0  0  0
  9 21  1  0  0  0  0
 10  9  1  0  0  0  0
 11 22  1  0  0  0  0
 11 10  2  0  0  0  0
 12 11  1  0  0  0  0
 13 12  2  0  0  0  0
 13 19  1  0  0  0  0
 14 15  1  0  0  0  0
 14 13  1  0  0  0  0
 15 26  1  1  0  0  0
 15 16  1  0  0  0  0
 16  3  1  0  0  0  0
 17 30  1  0  0  0  0
 17 15  1  0  0  0  0
 18 17  2  0  0  0  0
 19 20  2  0  0  0  0
 20 10  1  0  0  0  0
 20 29  1  0  0  0  0
 23 12  1  0  0  0  0
 24 14  1  0  0  0  0
 25 14  1  0  0  0  0
 27 16  1  0  0  0  0
 28 19  1  0  0  0  0
 30 39  1  0  0  0  0
 31 40  1  6  0  0  0
 31 35  1  0  0  0  0
 31 30  1  0  0  0  0
 32 31  1  0  0  0  0
 32 33  1  0  0  0  0
 33 34  2  0  0  0  0
 35 38  1  0  0  0  0
 36 35  2  0  0  0  0
 37 33  1  0  0  0  0
 37 43  1  0  0  0  0
 41 32  1  0  0  0  0
 42 32  1  0  0  0  0
M  END
$$$$
