GYE.pdb
 OpenBabel07022418253D

 46 46  0  0  1  0  0  0  0  0999 V2000
    1.8840   -4.3350   -1.7300 N   0  0  0  0  0  0  0  0  0  0  0  0
    3.1200   -3.6880   -1.4160 C   0  0  0  0  0  0  0  0  0  0  0  0
    2.8590   -2.3380   -0.8530 C   0  0  0  0  0  0  0  0  0  0  0  0
    3.8000   -1.5720   -0.4980 O   0  0  0  0  0  0  0  0  0  0  0  0
    2.1030   -5.2270   -2.2650 H   0  0  0  0  0  0  0  0  0  0  0  0
    1.3860   -3.7350   -2.4300 H   0  0  0  0  0  0  0  0  0  0  0  0
    3.6750   -3.5150   -2.3810 H   0  0  0  0  0  0  0  0  0  0  0  0
    3.7810   -4.2910   -0.7620 H   0  0  0  0  0  0  0  0  0  0  0  0
   -0.5210    5.6270    0.7210 O   0  0  0  0  0  0  0  0  0  0  0  0
   -0.2170    4.3490    0.2560 C   0  0  0  0  0  0  0  0  0  0  0  0
    0.9970    4.0200   -0.3060 C   0  0  0  0  0  0  0  0  0  0  0  0
    1.2510    2.7370   -0.7540 C   0  0  0  0  0  0  0  0  0  0  0  0
    0.3010    1.7240   -0.6590 C   0  0  0  0  0  0  0  0  0  0  0  0
    0.6190    0.3680   -1.1610 C   0  0  0  0  0  0  0  0  0  0  0  0
    1.2550   -0.5070   -0.1320 C   0  0  2  0  0  0  0  0  0  0  0  0
    1.5480   -1.8410   -0.6850 N   0  0  0  0  0  0  0  0  0  0  0  0
    0.5700   -0.5950    1.1560 C   0  0  0  0  0  0  0  0  0  0  0  0
    0.2780    0.4630    1.7690 O   0  0  0  0  0  0  0  0  0  0  0  0
   -0.9110    2.0710   -0.0930 C   0  0  0  0  0  0  0  0  0  0  0  0
   -1.1660    3.3510    0.3540 C   0  0  0  0  0  0  0  0  0  0  0  0
    0.0430    6.4310    0.5430 H   0  0  0  0  0  0  0  0  0  0  0  0
    1.7300    4.8190   -0.3750 H   0  0  0  0  0  0  0  0  0  0  0  0
    2.2040    2.4820   -1.1940 H   0  0  0  0  0  0  0  0  0  0  0  0
   -0.2800   -0.0670   -1.6320 H   0  0  0  0  0  0  0  0  0  0  0  0
    1.3680    0.5060   -1.9800 H   0  0  0  0  0  0  0  0  0  0  0  0
    2.2680   -0.0690    0.0770 H   0  0  0  0  0  0  0  0  0  0  0  0
    0.7570   -2.4590   -0.9720 H   0  0  0  0  0  0  0  0  0  0  0  0
   -1.6550    1.2850   -0.0170 H   0  0  0  0  0  0  0  0  0  0  0  0
   -2.1150    3.6200    0.7970 H   0  0  0  0  0  0  0  0  0  0  0  0
    0.1970   -1.8110    1.7890 N   0  0  0  0  0  0  0  0  0  0  0  0
   -0.4820   -1.8120    3.0710 C   0  0  1  0  0  0  0  0  0  0  0  0
   -1.8290   -2.4580    2.9650 C   0  0  0  0  0  0  0  0  0  0  0  0
   -2.7410   -1.7820    2.0040 C   0  0  0  0  0  0  0  0  0  0  0  0
   -3.0550   -0.3890    2.3130 C   0  0  0  0  0  0  0  0  0  0  0  0
   -3.7930    0.2350    1.4830 O   0  0  0  0  0  0  0  0  0  0  0  0
    0.3180   -2.4810    4.1170 C   0  0  0  0  0  0  0  0  0  0  0  0
    1.4360   -2.9600    3.8570 O   0  0  0  0  0  0  0  0  0  0  0  0
   -2.6380    0.3340    3.4130 O   0  0  0  0  0  0  0  0  0  0  0  0
   -0.1840   -2.5720    5.3930 O   0  0  0  0  0  0  0  0  0  0  0  0
    0.4150   -2.6970    1.3240 H   0  0  0  0  0  0  0  0  0  0  0  0
   -0.6150   -0.7570    3.3740 H   0  0  0  0  0  0  0  0  0  0  0  0
   -2.3080   -2.3870    3.9820 H   0  0  0  0  0  0  0  0  0  0  0  0
   -1.7830   -3.5390    2.7460 H   0  0  0  0  0  0  0  0  0  0  0  0
   -2.3650   -1.8110    0.9580 H   0  0  0  0  0  0  0  0  0  0  0  0
   -3.7160   -2.3570    2.0410 H   0  0  0  0  0  0  0  0  0  0  0  0
   -3.3010    0.9830    3.8560 H   0  0  0  0  0  0  0  0  0  0  0  0
  1  2  1  0  0  0  0
  2  3  1  0  0  0  0
  2  8  1  0  0  0  0
  3 16  1  0  0  0  0
  3  4  2  0  0  0  0
  5  1  1  0  0  0  0
  6  1  1  0  0  0  0
  7  2  1  0  0  0  0
 10 20  1  0  0  0  0
 10  9  1  0  0  0  0
 11 10  2  0  0  0  0
 12 13  2  0  0  0  0
 12 11  1  0  0  0  0
 13 19  1  0  0  0  0
 14 13  1  0  0  0  0
 14 15  1  0  0  0  0
 15 26  1  1  0  0  0
 15 17  1  0  0  0  0
 16 15  1  0  0  0  0
 17 18  2  0  0  0  0
 17 30  1  0  0  0  0
 19 28  1  0  0  0  0
 19 20  2  0  0  0  0
 20 29  1  0  0  0  0
 21  9  1  0  0  0  0
 22 11  1  0  0  0  0
 23 12  1  0  0  0  0
 24 14  1  0  0  0  0
 25 14  1  0  0  0  0
 27 16  1  0  0  0  0
 30 31  1  0  0  0  0
 31 41  1  1  0  0  0
 31 36  1  0  0  0  0
 32 31  1  0  0  0  0
 32 42  1  0  0  0  0
 33 45  1  0  0  0  0
 33 34  1  0  0  0  0
 33 32  1  0  0  0  0
 34 38  1  0  0  0  0
 35 34  2  0  0  0  0
 36 39  1  0  0  0  0
 37 36  2  0  0  0  0
 38 46  1  0  0  0  0
 40 30  1  0  0  0  0
 43 32  1  0  0  0  0
 44 33  1  0  0  0  0
M  END
$$$$
