GYG.pdb
 OpenBabel07022418253D

 37 37  0  0  1  0  0  0  0  0999 V2000
    1.0950   -4.2010    2.3890 N   0  0  0  0  0  0  0  0  0  0  0  0
   -0.3200   -4.3970    2.5060 C   0  0  0  0  0  0  0  0  0  0  0  0
   -1.0840   -3.2400    1.9420 C   0  0  0  0  0  0  0  0  0  0  0  0
   -2.3410   -3.2120    1.9460 O   0  0  0  0  0  0  0  0  0  0  0  0
    1.4340   -3.9940    1.4440 H   0  0  0  0  0  0  0  0  0  0  0  0
    1.4140   -3.5240    3.1180 H   0  0  0  0  0  0  0  0  0  0  0  0
   -0.6290   -5.3550    2.0230 H   0  0  0  0  0  0  0  0  0  0  0  0
   -0.5690   -4.4520    3.5880 H   0  0  0  0  0  0  0  0  0  0  0  0
    4.8480    1.0020    1.7580 O   0  0  0  0  0  0  0  0  0  0  0  0
    3.4630    0.7990    1.7560 C   0  0  0  0  0  0  0  0  0  0  0  0
    2.8410   -0.0170    2.6860 C   0  0  0  0  0  0  0  0  0  0  0  0
    1.4890   -0.1940    2.6580 C   0  0  0  0  0  0  0  0  0  0  0  0
    0.7220    0.4300    1.7090 C   0  0  0  0  0  0  0  0  0  0  0  0
   -0.7490    0.2200    1.7000 C   0  0  0  0  0  0  0  0  0  0  0  0
   -1.0910   -0.9820    0.8200 C   0  0  2  0  0  0  0  0  0  0  0  0
   -0.4300   -2.1150    1.3740 N   0  0  0  0  0  0  0  0  0  0  0  0
   -0.7810   -0.6820   -0.5620 C   0  0  0  0  0  0  0  0  0  0  0  0
    0.0140   -1.3550   -1.2490 O   0  0  0  0  0  0  0  0  0  0  0  0
    1.3250    1.2400    0.7830 C   0  0  0  0  0  0  0  0  0  0  0  0
    2.6880    1.4270    0.8010 C   0  0  0  0  0  0  0  0  0  0  0  0
    5.3570    0.6290    0.9760 H   0  0  0  0  0  0  0  0  0  0  0  0
    3.5030   -0.4870    3.4170 H   0  0  0  0  0  0  0  0  0  0  0  0
    1.0690   -0.8470    3.4160 H   0  0  0  0  0  0  0  0  0  0  0  0
   -1.2530    1.1000    1.2490 H   0  0  0  0  0  0  0  0  0  0  0  0
   -1.1450   -0.0030    2.7190 H   0  0  0  0  0  0  0  0  0  0  0  0
   -2.1930   -1.1580    0.9230 H   0  0  0  0  0  0  0  0  0  0  0  0
    0.6100   -2.1260    1.3640 H   0  0  0  0  0  0  0  0  0  0  0  0
    0.7550    1.7610    0.0040 H   0  0  0  0  0  0  0  0  0  0  0  0
    3.1410    2.0730    0.0570 H   0  0  0  0  0  0  0  0  0  0  0  0
   -1.4070    0.4350   -1.1780 N   0  0  0  0  0  0  0  0  0  0  0  0
   -1.1440    0.7850   -2.5380 C   0  0  0  0  0  0  0  0  0  0  0  0
   -1.9300    1.9840   -2.9100 C   0  0  0  0  0  0  0  0  0  0  0  0
   -1.8700    2.4890   -4.0610 O   0  0  0  0  0  0  0  0  0  0  0  0
   -2.7650    2.5870   -1.9790 O   0  0  0  0  0  0  0  0  0  0  0  0
   -2.0930    1.0430   -0.6350 H   0  0  0  0  0  0  0  0  0  0  0  0
   -0.0550    1.0290   -2.6960 H   0  0  0  0  0  0  0  0  0  0  0  0
   -1.3970   -0.0800   -3.2010 H   0  0  0  0  0  0  0  0  0  0  0  0
  1  2  1  0  0  0  0
  1  6  1  0  0  0  0
  2  8  1  0  0  0  0
  3  4  2  0  0  0  0
  3  2  1  0  0  0  0
  5  1  1  0  0  0  0
  7  2  1  0  0  0  0
 10  9  1  0  0  0  0
 10 11  1  0  0  0  0
 11 22  1  0  0  0  0
 12 11  2  0  0  0  0
 12 23  1  0  0  0  0
 13 12  1  0  0  0  0
 14 13  1  0  0  0  0
 14 25  1  0  0  0  0
 15 26  1  1  0  0  0
 15 16  1  0  0  0  0
 15 14  1  0  0  0  0
 16  3  1  0  0  0  0
 17 15  1  0  0  0  0
 18 17  2  0  0  0  0
 19 20  1  0  0  0  0
 19 13  2  0  0  0  0
 20 10  2  0  0  0  0
 21  9  1  0  0  0  0
 24 14  1  0  0  0  0
 27 16  1  0  0  0  0
 28 19  1  0  0  0  0
 29 20  1  0  0  0  0
 30 35  1  0  0  0  0
 30 17  1  0  0  0  0
 31 30  1  0  0  0  0
 32 31  1  0  0  0  0
 32 34  1  0  0  0  0
 33 32  2  0  0  0  0
 36 31  1  0  0  0  0
 37 31  1  0  0  0  0
M  END
$$$$
