GYI.pdb
 OpenBabel07022418253D

 49 49  0  0  1  0  0  0  0  0999 V2000
    3.8540   -4.0820    2.1010 N   0  0  0  0  0  0  0  0  0  0  0  0
    3.6810   -3.2610    0.9250 C   0  0  0  0  0  0  0  0  0  0  0  0
    2.4810   -2.4350    1.0970 C   0  0  0  0  0  0  0  0  0  0  0  0
    1.7730   -2.5020    2.1470 O   0  0  0  0  0  0  0  0  0  0  0  0
    3.3120   -3.6970    2.8860 H   0  0  0  0  0  0  0  0  0  0  0  0
    3.6200   -5.0720    1.9240 H   0  0  0  0  0  0  0  0  0  0  0  0
    3.5720   -3.9680    0.0550 H   0  0  0  0  0  0  0  0  0  0  0  0
    4.6060   -2.6680    0.7960 H   0  0  0  0  0  0  0  0  0  0  0  0
    4.9710    1.7140    4.5340 O   0  0  0  0  0  0  0  0  0  0  0  0
    4.1070    1.4660    3.4790 C   0  0  0  0  0  0  0  0  0  0  0  0
    2.7510    1.6190    3.7300 C   0  0  0  0  0  0  0  0  0  0  0  0
    1.8440    1.3870    2.7190 C   0  0  0  0  0  0  0  0  0  0  0  0
    2.2310    1.0000    1.4400 C   0  0  0  0  0  0  0  0  0  0  0  0
    1.2910    0.7480    0.3520 C   0  0  0  0  0  0  0  0  0  0  0  0
    0.8370   -0.7020    0.3040 C   0  0  2  0  0  0  0  0  0  0  0  0
    2.0260   -1.5070    0.1100 N   0  0  0  0  0  0  0  0  0  0  0  0
   -0.1710   -0.9140   -0.7510 C   0  0  0  0  0  0  0  0  0  0  0  0
    0.0190   -1.7290   -1.7170 O   0  0  0  0  0  0  0  0  0  0  0  0
    3.5730    0.8560    1.2180 C   0  0  0  0  0  0  0  0  0  0  0  0
    4.5000    1.0880    2.2310 C   0  0  0  0  0  0  0  0  0  0  0  0
    5.1180    0.9810    5.2300 H   0  0  0  0  0  0  0  0  0  0  0  0
    2.4040    1.9190    4.7120 H   0  0  0  0  0  0  0  0  0  0  0  0
    0.8130    1.5110    2.9390 H   0  0  0  0  0  0  0  0  0  0  0  0
    0.3570    1.3560    0.5000 H   0  0  0  0  0  0  0  0  0  0  0  0
    1.7090    1.0710   -0.6240 H   0  0  0  0  0  0  0  0  0  0  0  0
    0.3620   -0.9070    1.2840 H   0  0  0  0  0  0  0  0  0  0  0  0
    2.5920   -1.4340   -0.7630 H   0  0  0  0  0  0  0  0  0  0  0  0
    4.0050    0.5590    0.2620 H   0  0  0  0  0  0  0  0  0  0  0  0
    5.5750    0.9760    2.0640 H   0  0  0  0  0  0  0  0  0  0  0  0
   -5.3090   -0.9680    0.7580 C   0  0  0  0  0  0  0  0  0  0  0  0
   -4.1190   -0.3120    0.1320 C   0  0  0  0  0  0  0  0  0  0  0  0
   -3.5940   -1.0790   -1.0550 C   0  0  2  0  0  0  0  0  0  0  0  0
   -3.1690   -2.4710   -0.6700 C   0  0  0  0  0  0  0  0  0  0  0  0
   -2.4400   -0.3630   -1.7240 C   0  0  2  0  0  0  0  0  0  0  0  0
   -1.3930   -0.2260   -0.7410 N   0  0  0  0  0  0  0  0  0  0  0  0
   -2.8210    0.8780   -2.3690 C   0  0  0  0  0  0  0  0  0  0  0  0
   -3.7140    0.9090   -3.2400 O   0  0  0  0  0  0  0  0  0  0  0  0
   -2.2000    2.0620   -2.0320 O   0  0  0  0  0  0  0  0  0  0  0  0
   -6.0050   -0.1710    1.1040 H   0  0  0  0  0  0  0  0  0  0  0  0
   -5.8350   -1.6170    0.0270 H   0  0  0  0  0  0  0  0  0  0  0  0
   -5.0520   -1.5880    1.6490 H   0  0  0  0  0  0  0  0  0  0  0  0
   -4.3860    0.7100   -0.1980 H   0  0  0  0  0  0  0  0  0  0  0  0
   -3.2960   -0.2270    0.8760 H   0  0  0  0  0  0  0  0  0  0  0  0
   -4.4130   -1.2070   -1.8190 H   0  0  0  0  0  0  0  0  0  0  0  0
   -2.7780   -2.5290    0.3660 H   0  0  0  0  0  0  0  0  0  0  0  0
   -2.4450   -2.9140   -1.3660 H   0  0  0  0  0  0  0  0  0  0  0  0
   -4.0730   -3.1360   -0.6890 H   0  0  0  0  0  0  0  0  0  0  0  0
   -2.0410   -1.1160   -2.4700 H   0  0  0  0  0  0  0  0  0  0  0  0
   -1.5710    0.4450    0.0370 H   0  0  0  0  0  0  0  0  0  0  0  0
  1  5  1  0  0  0  0
  2  3  1  0  0  0  0
  2  1  1  0  0  0  0
  3  4  2  0  0  0  0
  6  1  1  0  0  0  0
  7  2  1  0  0  0  0
  8  2  1  0  0  0  0
  9 21  1  0  0  0  0
 10 11  1  0  0  0  0
 10  9  1  0  0  0  0
 11 22  1  0  0  0  0
 12 23  1  0  0  0  0
 12 11  2  0  0  0  0
 13 12  1  0  0  0  0
 14 24  1  0  0  0  0
 14 13  1  0  0  0  0
 15 14  1  0  0  0  0
 15 26  1  1  0  0  0
 16 15  1  0  0  0  0
 16  3  1  0  0  0  0
 17 35  1  0  0  0  0
 17 15  1  0  0  0  0
 18 17  2  0  0  0  0
 19 13  2  0  0  0  0
 19 20  1  0  0  0  0
 20 10  2  0  0  0  0
 25 14  1  0  0  0  0
 27 16  1  0  0  0  0
 28 19  1  0  0  0  0
 29 20  1  0  0  0  0
 30 39  1  0  0  0  0
 30 41  1  0  0  0  0
 31 30  1  0  0  0  0
 31 43  1  0  0  0  0
 32 44  1  6  0  0  0
 32 33  1  0  0  0  0
 32 31  1  0  0  0  0
 33 45  1  0  0  0  0
 34 48  1  6  0  0  0
 34 32  1  0  0  0  0
 34 35  1  0  0  0  0
 35 49  1  0  0  0  0
 36 38  1  0  0  0  0
 36 34  1  0  0  0  0
 37 36  2  0  0  0  0
 40 30  1  0  0  0  0
 42 31  1  0  0  0  0
 46 33  1  0  0  0  0
 47 33  1  0  0  0  0
M  END
$$$$
