GYL.pdb
 OpenBabel07022418253D

 49 49  0  0  1  0  0  0  0  0999 V2000
   -0.1240    1.3260    3.6420 N   0  0  0  0  0  0  0  0  0  0  0  0
    0.6000    2.3250    2.8780 C   0  0  0  0  0  0  0  0  0  0  0  0
    0.9840    1.7090    1.5880 C   0  0  0  0  0  0  0  0  0  0  0  0
    1.6270    2.3280    0.7030 O   0  0  0  0  0  0  0  0  0  0  0  0
   -0.9950    1.0410    3.1650 H   0  0  0  0  0  0  0  0  0  0  0  0
    0.4490    0.4780    3.8480 H   0  0  0  0  0  0  0  0  0  0  0  0
    1.4980    2.6200    3.4660 H   0  0  0  0  0  0  0  0  0  0  0  0
   -0.0810    3.1680    2.7180 H   0  0  0  0  0  0  0  0  0  0  0  0
    6.9790   -0.2660    2.2660 O   0  0  0  0  0  0  0  0  0  0  0  0
    5.7210   -0.5630    1.7410 C   0  0  0  0  0  0  0  0  0  0  0  0
    5.4730   -0.4330    0.3910 C   0  0  0  0  0  0  0  0  0  0  0  0
    4.2300   -0.7260   -0.1330 C   0  0  0  0  0  0  0  0  0  0  0  0
    3.1770   -1.1590    0.6480 C   0  0  0  0  0  0  0  0  0  0  0  0
    1.8510   -1.4630    0.0350 C   0  0  0  0  0  0  0  0  0  0  0  0
    1.0040   -0.2610    0.0240 C   0  0  2  0  0  0  0  0  0  0  0  0
    0.6650    0.3720    1.2300 N   0  0  0  0  0  0  0  0  0  0  0  0
   -0.2360   -0.4800   -0.7730 C   0  0  0  0  0  0  0  0  0  0  0  0
   -0.2240   -1.0320   -1.9040 O   0  0  0  0  0  0  0  0  0  0  0  0
    3.4290   -1.2880    1.9990 C   0  0  0  0  0  0  0  0  0  0  0  0
    4.6800   -0.9950    2.5340 C   0  0  0  0  0  0  0  0  0  0  0  0
    7.1000    0.5600    2.8520 H   0  0  0  0  0  0  0  0  0  0  0  0
    6.2920   -0.0900   -0.2550 H   0  0  0  0  0  0  0  0  0  0  0  0
    4.0430   -0.6190   -1.2060 H   0  0  0  0  0  0  0  0  0  0  0  0
    1.4680   -2.3580    0.5180 H   0  0  0  0  0  0  0  0  0  0  0  0
    2.0650   -1.7460   -1.0200 H   0  0  0  0  0  0  0  0  0  0  0  0
    1.5750    0.5120   -0.5870 H   0  0  0  0  0  0  0  0  0  0  0  0
    0.1280   -0.1820    1.9420 H   0  0  0  0  0  0  0  0  0  0  0  0
    2.6080   -1.6280    2.6230 H   0  0  0  0  0  0  0  0  0  0  0  0
    4.8480   -1.1050    3.6000 H   0  0  0  0  0  0  0  0  0  0  0  0
   -3.9390   -3.3430    0.8870 C   0  0  0  0  0  0  0  0  0  0  0  0
   -2.9910   -2.4670    0.0800 C   0  0  0  0  0  0  0  0  0  0  0  0
   -2.6940   -3.2200   -1.1980 C   0  0  0  0  0  0  0  0  0  0  0  0
   -3.6560   -1.1240   -0.2340 C   0  0  0  0  0  0  0  0  0  0  0  0
   -2.6940   -0.2750   -1.0350 C   0  0  2  0  0  0  0  0  0  0  0  0
   -1.4930   -0.0600   -0.2590 N   0  0  0  0  0  0  0  0  0  0  0  0
   -3.3510    1.0320   -1.3170 C   0  0  0  0  0  0  0  0  0  0  0  0
   -4.4140    1.0680   -1.9830 O   0  0  0  0  0  0  0  0  0  0  0  0
   -2.8180    2.2280   -0.8630 O   0  0  0  0  0  0  0  0  0  0  0  0
   -3.6460   -4.4100    0.8060 H   0  0  0  0  0  0  0  0  0  0  0  0
   -4.9440   -3.2730    0.4020 H   0  0  0  0  0  0  0  0  0  0  0  0
   -3.9540   -3.0770    1.9560 H   0  0  0  0  0  0  0  0  0  0  0  0
   -2.0930   -2.3000    0.7040 H   0  0  0  0  0  0  0  0  0  0  0  0
   -1.5820   -3.3500   -1.3190 H   0  0  0  0  0  0  0  0  0  0  0  0
   -3.1230   -2.7010   -2.0840 H   0  0  0  0  0  0  0  0  0  0  0  0
   -3.0970   -4.2570   -1.1890 H   0  0  0  0  0  0  0  0  0  0  0  0
   -4.5770   -1.3040   -0.8110 H   0  0  0  0  0  0  0  0  0  0  0  0
   -3.8650   -0.6030    0.7190 H   0  0  0  0  0  0  0  0  0  0  0  0
   -2.4450   -0.7780   -1.9870 H   0  0  0  0  0  0  0  0  0  0  0  0
   -1.5460    0.4020    0.6760 H   0  0  0  0  0  0  0  0  0  0  0  0
  1  6  1  0  0  0  0
  2  7  1  0  0  0  0
  2  1  1  0  0  0  0
  3  2  1  0  0  0  0
  4  3  2  0  0  0  0
  5  1  1  0  0  0  0
  8  2  1  0  0  0  0
  9 21  1  0  0  0  0
 10  9  1  0  0  0  0
 10 20  1  0  0  0  0
 11 10  2  0  0  0  0
 12 11  1  0  0  0  0
 12 13  2  0  0  0  0
 13 19  1  0  0  0  0
 14 24  1  0  0  0  0
 14 13  1  0  0  0  0
 15 26  1  6  0  0  0
 15 14  1  0  0  0  0
 15 16  1  0  0  0  0
 16  3  1  0  0  0  0
 16 27  1  0  0  0  0
 17 35  1  0  0  0  0
 17 15  1  0  0  0  0
 18 17  2  0  0  0  0
 19 20  2  0  0  0  0
 19 28  1  0  0  0  0
 20 29  1  0  0  0  0
 22 11  1  0  0  0  0
 23 12  1  0  0  0  0
 25 14  1  0  0  0  0
 30 41  1  0  0  0  0
 31 42  1  0  0  0  0
 31 30  1  0  0  0  0
 32 45  1  0  0  0  0
 32 31  1  0  0  0  0
 33 31  1  0  0  0  0
 33 47  1  0  0  0  0
 34 48  1  6  0  0  0
 34 35  1  0  0  0  0
 34 33  1  0  0  0  0
 35 49  1  0  0  0  0
 36 34  1  0  0  0  0
 36 38  1  0  0  0  0
 37 36  2  0  0  0  0
 39 30  1  0  0  0  0
 40 30  1  0  0  0  0
 43 32  1  0  0  0  0
 44 32  1  0  0  0  0
 46 33  1  0  0  0  0
M  END
$$$$
