GYM.pdb
 OpenBabel07022418253D

 47 47  0  0  1  0  0  0  0  0999 V2000
    3.7320   -4.0860    1.3270 N   0  0  0  0  0  0  0  0  0  0  0  0
    3.1740   -2.9850    2.0880 C   0  0  0  0  0  0  0  0  0  0  0  0
    2.2100   -2.2220    1.2510 C   0  0  0  0  0  0  0  0  0  0  0  0
    2.0050   -2.5830    0.0870 O   0  0  0  0  0  0  0  0  0  0  0  0
    4.6580   -4.3760    1.6790 H   0  0  0  0  0  0  0  0  0  0  0  0
    3.0940   -4.9100    1.2970 H   0  0  0  0  0  0  0  0  0  0  0  0
    4.0280   -2.3320    2.3840 H   0  0  0  0  0  0  0  0  0  0  0  0
    2.7360   -3.3880    3.0030 H   0  0  0  0  0  0  0  0  0  0  0  0
    4.8820    4.1730    1.5180 O   0  0  0  0  0  0  0  0  0  0  0  0
    3.9730    3.2240    1.0800 C   0  0  0  0  0  0  0  0  0  0  0  0
    4.4050    1.9540    0.7950 C   0  0  0  0  0  0  0  0  0  0  0  0
    3.4900    1.0220    0.3600 C   0  0  0  0  0  0  0  0  0  0  0  0
    2.1590    1.3520    0.2120 C   0  0  0  0  0  0  0  0  0  0  0  0
    1.1830    0.3430   -0.2540 C   0  0  0  0  0  0  0  0  0  0  0  0
    0.5930   -0.3880    0.9100 C   0  0  2  0  0  0  0  0  0  0  0  0
    1.5050   -1.0900    1.7250 N   0  0  0  0  0  0  0  0  0  0  0  0
   -0.4880   -1.3080    0.4810 C   0  0  0  0  0  0  0  0  0  0  0  0
   -0.4630   -2.4790    0.8920 O   0  0  0  0  0  0  0  0  0  0  0  0
    1.7340    2.6120    0.4950 C   0  0  0  0  0  0  0  0  0  0  0  0
    2.6330    3.5590    0.9310 C   0  0  0  0  0  0  0  0  0  0  0  0
    5.7500    3.9240    1.9580 H   0  0  0  0  0  0  0  0  0  0  0  0
    5.4420    1.6900    0.9090 H   0  0  0  0  0  0  0  0  0  0  0  0
    3.8580    0.0310    0.1440 H   0  0  0  0  0  0  0  0  0  0  0  0
    0.3540    0.8940   -0.7440 H   0  0  0  0  0  0  0  0  0  0  0  0
    1.6010   -0.3330   -1.0290 H   0  0  0  0  0  0  0  0  0  0  0  0
    0.0610    0.3830    1.5290 H   0  0  0  0  0  0  0  0  0  0  0  0
    1.6730   -0.7780    2.7000 H   0  0  0  0  0  0  0  0  0  0  0  0
    0.6850    2.9320    0.3960 H   0  0  0  0  0  0  0  0  0  0  0  0
    2.2940    4.5680    1.1590 H   0  0  0  0  0  0  0  0  0  0  0  0
   -5.7010   -0.5780    3.4490 C   0  0  0  0  0  0  0  0  0  0  0  0
   -5.7020   -0.6390    1.6350 S   0  0  0  0  0  0  0  0  0  0  0  0
   -4.0890   -1.2040    1.1000 C   0  0  0  0  0  0  0  0  0  0  0  0
   -3.9870   -1.2910   -0.4270 C   0  0  0  0  0  0  0  0  0  0  0  0
   -2.6120   -1.7690   -0.8140 C   0  0  2  0  0  0  0  0  0  0  0  0
   -1.5510   -0.9250   -0.3740 N   0  0  0  0  0  0  0  0  0  0  0  0
   -2.5310   -1.9250   -2.2930 C   0  0  0  0  0  0  0  0  0  0  0  0
   -1.6390   -1.3690   -2.9920 O   0  0  0  0  0  0  0  0  0  0  0  0
   -3.4730   -2.7160   -2.9610 O   0  0  0  0  0  0  0  0  0  0  0  0
   -6.6470   -0.2270    3.8680 H   0  0  0  0  0  0  0  0  0  0  0  0
   -4.8690    0.0710    3.8240 H   0  0  0  0  0  0  0  0  0  0  0  0
   -5.4630   -1.5980    3.8620 H   0  0  0  0  0  0  0  0  0  0  0  0
   -3.8720   -2.1610    1.5750 H   0  0  0  0  0  0  0  0  0  0  0  0
   -3.2840   -0.4920    1.4180 H   0  0  0  0  0  0  0  0  0  0  0  0
   -4.7110   -2.0790   -0.7230 H   0  0  0  0  0  0  0  0  0  0  0  0
   -4.3020   -0.3680   -0.9090 H   0  0  0  0  0  0  0  0  0  0  0  0
   -2.5170   -2.8100   -0.3990 H   0  0  0  0  0  0  0  0  0  0  0  0
   -1.5410    0.0680   -0.7000 H   0  0  0  0  0  0  0  0  0  0  0  0
  1  5  1  0  0  0  0
  1  2  1  0  0  0  0
  2  7  1  0  0  0  0
  2  8  1  0  0  0  0
  3 16  1  0  0  0  0
  3  2  1  0  0  0  0
  4  3  2  0  0  0  0
  6  1  1  0  0  0  0
  9 21  1  0  0  0  0
 10  9  1  0  0  0  0
 11 22  1  0  0  0  0
 11 10  2  0  0  0  0
 12 11  1  0  0  0  0
 13 12  2  0  0  0  0
 13 19  1  0  0  0  0
 14 13  1  0  0  0  0
 14 15  1  0  0  0  0
 15 26  1  1  0  0  0
 15 16  1  0  0  0  0
 16 27  1  0  0  0  0
 17 18  2  0  0  0  0
 17 15  1  0  0  0  0
 19 20  2  0  0  0  0
 20 10  1  0  0  0  0
 20 29  1  0  0  0  0
 23 12  1  0  0  0  0
 24 14  1  0  0  0  0
 25 14  1  0  0  0  0
 28 19  1  0  0  0  0
 30 40  1  0  0  0  0
 30 41  1  0  0  0  0
 30 39  1  0  0  0  0
 31 30  1  0  0  0  0
 32 43  1  0  0  0  0
 32 42  1  0  0  0  0
 32 31  1  0  0  0  0
 33 32  1  0  0  0  0
 34 33  1  0  0  0  0
 34 46  1  1  0  0  0
 34 35  1  0  0  0  0
 35 17  1  0  0  0  0
 36 34  1  0  0  0  0
 37 36  2  0  0  0  0
 38 36  1  0  0  0  0
 44 33  1  0  0  0  0
 45 33  1  0  0  0  0
 47 35  1  0  0  0  0
M  END
$$$$
