GYP.pdb
 OpenBabel07022418253D

 44 45  0  0  1  0  0  0  0  0999 V2000
    0.4770   -3.6740    2.2330 N   0  0  0  0  0  0  0  0  0  0  0  0
    0.7310   -3.6530    0.8240 C   0  0  0  0  0  0  0  0  0  0  0  0
    0.7410   -2.2720    0.2600 C   0  0  0  0  0  0  0  0  0  0  0  0
    0.9570   -2.1680   -0.9710 O   0  0  0  0  0  0  0  0  0  0  0  0
    1.2090   -3.1630    2.7400 H   0  0  0  0  0  0  0  0  0  0  0  0
   -0.4950   -3.4030    2.4900 H   0  0  0  0  0  0  0  0  0  0  0  0
   -0.0740   -4.2560    0.3300 H   0  0  0  0  0  0  0  0  0  0  0  0
    1.6820   -4.1810    0.6350 H   0  0  0  0  0  0  0  0  0  0  0  0
    6.8550    0.1960    1.9790 O   0  0  0  0  0  0  0  0  0  0  0  0
    5.5820    0.2460    1.4240 C   0  0  0  0  0  0  0  0  0  0  0  0
    4.8190    1.3740    1.6080 C   0  0  0  0  0  0  0  0  0  0  0  0
    3.5600    1.4320    1.0650 C   0  0  0  0  0  0  0  0  0  0  0  0
    2.9840    0.4040    0.3210 C   0  0  0  0  0  0  0  0  0  0  0  0
    1.6450    0.5270   -0.2500 C   0  0  0  0  0  0  0  0  0  0  0  0
    0.5190    0.1430    0.6940 C   0  0  2  0  0  0  0  0  0  0  0  0
    0.5100   -1.1910    1.1400 N   0  0  0  0  0  0  0  0  0  0  0  0
   -0.7520    0.7280    0.2920 C   0  0  0  0  0  0  0  0  0  0  0  0
   -0.6980    1.8830   -0.2690 O   0  0  0  0  0  0  0  0  0  0  0  0
    3.7530   -0.7100    0.1460 C   0  0  0  0  0  0  0  0  0  0  0  0
    5.0450   -0.7870    0.6960 C   0  0  0  0  0  0  0  0  0  0  0  0
    6.9790    0.1090    2.9950 H   0  0  0  0  0  0  0  0  0  0  0  0
    5.1940    2.2210    2.1760 H   0  0  0  0  0  0  0  0  0  0  0  0
    2.9750    2.3100    1.2120 H   0  0  0  0  0  0  0  0  0  0  0  0
    1.6020    0.0090   -1.2170 H   0  0  0  0  0  0  0  0  0  0  0  0
    1.4910    1.6090   -0.4900 H   0  0  0  0  0  0  0  0  0  0  0  0
    0.8210    0.8270    1.6170 H   0  0  0  0  0  0  0  0  0  0  0  0
    0.3280   -1.4150    2.1650 H   0  0  0  0  0  0  0  0  0  0  0  0
    3.4520   -1.5730   -0.4080 H   0  0  0  0  0  0  0  0  0  0  0  0
    5.6540   -1.6650    0.5590 H   0  0  0  0  0  0  0  0  0  0  0  0
   -2.0470    0.1750    0.4470 N   0  0  0  0  0  0  0  0  0  0  0  0
   -2.5320   -1.0430    1.0390 C   0  0  0  0  0  0  0  0  0  0  0  0
   -3.4880   -1.5280   -0.0610 C   0  0  0  0  0  0  0  0  0  0  0  0
   -3.9940   -0.2860   -0.7210 C   0  0  0  0  0  0  0  0  0  0  0  0
   -3.2720    0.8380   -0.0380 C   0  0  1  0  0  0  0  0  0  0  0  0
   -4.1030    1.3530    1.0630 C   0  0  0  0  0  0  0  0  0  0  0  0
   -5.2150    1.8560    0.7670 O   0  0  0  0  0  0  0  0  0  0  0  0
   -3.7680    1.3350    2.4040 O   0  0  0  0  0  0  0  0  0  0  0  0
   -3.1200   -0.8060    1.9610 H   0  0  0  0  0  0  0  0  0  0  0  0
   -1.8190   -1.8330    1.2110 H   0  0  0  0  0  0  0  0  0  0  0  0
   -2.9460   -2.2110   -0.7440 H   0  0  0  0  0  0  0  0  0  0  0  0
   -4.2880   -2.1190    0.4320 H   0  0  0  0  0  0  0  0  0  0  0  0
   -5.1130   -0.1990   -0.5930 H   0  0  0  0  0  0  0  0  0  0  0  0
   -3.7350   -0.3240   -1.7990 H   0  0  0  0  0  0  0  0  0  0  0  0
   -2.9930    1.6480   -0.7600 H   0  0  0  0  0  0  0  0  0  0  0  0
  1  6  1  0  0  0  0
  1  5  1  0  0  0  0
  2  1  1  0  0  0  0
  3  2  1  0  0  0  0
  3 16  1  0  0  0  0
  4  3  2  0  0  0  0
  7  2  1  0  0  0  0
  8  2  1  0  0  0  0
  9 21  1  0  0  0  0
 10 11  1  0  0  0  0
 10  9  1  0  0  0  0
 11 22  1  0  0  0  0
 12 23  1  0  0  0  0
 12 11  2  0  0  0  0
 13 12  1  0  0  0  0
 14 13  1  0  0  0  0
 14 15  1  0  0  0  0
 15 16  1  0  0  0  0
 15 26  1  1  0  0  0
 16 27  1  0  0  0  0
 17 30  1  0  0  0  0
 17 15  1  0  0  0  0
 18 17  2  0  0  0  0
 19 13  2  0  0  0  0
 19 20  1  0  0  0  0
 20 10  2  0  0  0  0
 24 14  1  0  0  0  0
 25 14  1  0  0  0  0
 28 19  1  0  0  0  0
 29 20  1  0  0  0  0
 30 31  1  0  0  0  0
 31 39  1  0  0  0  0
 31 38  1  0  0  0  0
 32 41  1  0  0  0  0
 32 31  1  0  0  0  0
 33 42  1  0  0  0  0
 33 32  1  0  0  0  0
 33 34  1  0  0  0  0
 34 44  1  6  0  0  0
 34 30  1  0  0  0  0
 34 35  1  0  0  0  0
 35 37  1  0  0  0  0
 36 35  2  0  0  0  0
 40 32  1  0  0  0  0
 43 33  1  0  0  0  0
M  END
$$$$
