GYQ.pdb
 OpenBabel07022418253D

 47 47  0  0  1  0  0  0  0  0999 V2000
    3.3610   -3.2780    0.4830 N   0  0  0  0  0  0  0  0  0  0  0  0
    2.7000   -3.2960    1.7820 C   0  0  0  0  0  0  0  0  0  0  0  0
    1.6110   -2.2850    1.8240 C   0  0  0  0  0  0  0  0  0  0  0  0
    0.9540   -2.1910    2.8930 O   0  0  0  0  0  0  0  0  0  0  0  0
    3.9970   -4.0920    0.4100 H   0  0  0  0  0  0  0  0  0  0  0  0
    3.9620   -2.4210    0.4490 H   0  0  0  0  0  0  0  0  0  0  0  0
    3.4910   -3.0770    2.5330 H   0  0  0  0  0  0  0  0  0  0  0  0
    2.3280   -4.3250    2.0390 H   0  0  0  0  0  0  0  0  0  0  0  0
    4.9400    2.3030    3.9720 O   0  0  0  0  0  0  0  0  0  0  0  0
    3.9190    1.9510    3.0990 C   0  0  0  0  0  0  0  0  0  0  0  0
    2.6230    2.3320    3.3760 C   0  0  0  0  0  0  0  0  0  0  0  0
    1.6030    1.9860    2.5140 C   0  0  0  0  0  0  0  0  0  0  0  0
    1.9150    1.2650    1.3950 C   0  0  0  0  0  0  0  0  0  0  0  0
    0.8680    0.8740    0.4520 C   0  0  0  0  0  0  0  0  0  0  0  0
    0.2410   -0.4600    0.7590 C   0  0  2  0  0  0  0  0  0  0  0  0
    1.3070   -1.4440    0.7070 N   0  0  0  0  0  0  0  0  0  0  0  0
   -0.7330   -0.8170   -0.3110 C   0  0  0  0  0  0  0  0  0  0  0  0
   -0.5830   -1.8020   -1.0760 O   0  0  0  0  0  0  0  0  0  0  0  0
    3.2230    0.8810    1.1170 C   0  0  0  0  0  0  0  0  0  0  0  0
    4.2530    1.2220    1.9740 C   0  0  0  0  0  0  0  0  0  0  0  0
    5.0840    3.2160    4.3440 H   0  0  0  0  0  0  0  0  0  0  0  0
    2.3480    2.9070    4.2600 H   0  0  0  0  0  0  0  0  0  0  0  0
    0.5640    2.2490    2.6660 H   0  0  0  0  0  0  0  0  0  0  0  0
    1.2660    0.9310   -0.5740 H   0  0  0  0  0  0  0  0  0  0  0  0
    0.0530    1.6410    0.5080 H   0  0  0  0  0  0  0  0  0  0  0  0
   -0.2100   -0.5200    1.7450 H   0  0  0  0  0  0  0  0  0  0  0  0
    1.8950   -1.5800   -0.1460 H   0  0  0  0  0  0  0  0  0  0  0  0
    3.4870    0.3090    0.2360 H   0  0  0  0  0  0  0  0  0  0  0  0
    5.2860    0.9510    1.8100 H   0  0  0  0  0  0  0  0  0  0  0  0
   -2.8860   -3.1330    1.8010 N   0  0  0  0  0  0  0  0  0  0  0  0
   -3.4030   -1.9900    1.1450 C   0  0  0  0  0  0  0  0  0  0  0  0
   -3.2070   -0.8850    1.7120 O   0  0  0  0  0  0  0  0  0  0  0  0
   -4.1330   -2.0430   -0.1150 C   0  0  0  0  0  0  0  0  0  0  0  0
   -4.1550   -0.8500   -0.9810 C   0  0  0  0  0  0  0  0  0  0  0  0
   -2.8490   -0.3890   -1.5590 C   0  0  2  0  0  0  0  0  0  0  0  0
   -1.9210   -0.0320   -0.5260 N   0  0  0  0  0  0  0  0  0  0  0  0
   -3.1190    0.7330   -2.4860 C   0  0  0  0  0  0  0  0  0  0  0  0
   -2.5490    1.8240   -2.2990 O   0  0  0  0  0  0  0  0  0  0  0  0
   -3.9810    0.5590   -3.5250 O   0  0  0  0  0  0  0  0  0  0  0  0
   -2.6000   -3.0860    2.7860 H   0  0  0  0  0  0  0  0  0  0  0  0
   -2.8000   -4.0170    1.2780 H   0  0  0  0  0  0  0  0  0  0  0  0
   -3.8410   -2.9760   -0.6800 H   0  0  0  0  0  0  0  0  0  0  0  0
   -5.2160   -2.2570    0.1610 H   0  0  0  0  0  0  0  0  0  0  0  0
   -4.6280   -0.0200   -0.3590 H   0  0  0  0  0  0  0  0  0  0  0  0
   -4.9200   -0.9570   -1.8160 H   0  0  0  0  0  0  0  0  0  0  0  0
   -2.4470   -1.2220   -2.2020 H   0  0  0  0  0  0  0  0  0  0  0  0
   -2.0880    0.8110    0.0610 H   0  0  0  0  0  0  0  0  0  0  0  0
  1  2  1  0  0  0  0
  2  3  1  0  0  0  0
  2  8  1  0  0  0  0
  2  7  1  0  0  0  0
  3  4  2  0  0  0  0
  5  1  1  0  0  0  0
  6  1  1  0  0  0  0
  9 21  1  0  0  0  0
 10 11  1  0  0  0  0
 10  9  1  0  0  0  0
 11 22  1  0  0  0  0
 12 23  1  0  0  0  0
 12 11  2  0  0  0  0
 13 12  1  0  0  0  0
 14 25  1  0  0  0  0
 14 15  1  0  0  0  0
 14 13  1  0  0  0  0
 15 26  1  1  0  0  0
 16 15  1  0  0  0  0
 16  3  1  0  0  0  0
 17 15  1  0  0  0  0
 18 17  2  0  0  0  0
 19 13  2  0  0  0  0
 19 20  1  0  0  0  0
 20 10  2  0  0  0  0
 24 14  1  0  0  0  0
 27 16  1  0  0  0  0
 28 19  1  0  0  0  0
 29 20  1  0  0  0  0
 30 40  1  0  0  0  0
 31 32  2  0  0  0  0
 31 30  1  0  0  0  0
 33 43  1  0  0  0  0
 33 31  1  0  0  0  0
 34 44  1  0  0  0  0
 34 33  1  0  0  0  0
 35 46  1  6  0  0  0
 35 34  1  0  0  0  0
 35 36  1  0  0  0  0
 36 17  1  0  0  0  0
 36 47  1  0  0  0  0
 37 38  1  0  0  0  0
 37 35  1  0  0  0  0
 39 37  2  0  0  0  0
 41 30  1  0  0  0  0
 42 33  1  0  0  0  0
 45 34  1  0  0  0  0
M  END
$$$$
