GYR.pdb
 OpenBabel07022418253D

 53 53  0  0  1  0  0  0  0  0999 V2000
   -0.6760    0.8180    3.1080 N   0  0  0  0  0  0  0  0  0  0  0  0
   -0.0120   -0.4410    2.9640 C   0  0  0  0  0  0  0  0  0  0  0  0
    0.7010   -0.5730    1.6560 C   0  0  0  0  0  0  0  0  0  0  0  0
    1.3190   -1.6320    1.4180 O   0  0  0  0  0  0  0  0  0  0  0  0
   -1.5920    0.7060    3.6100 H   0  0  0  0  0  0  0  0  0  0  0  0
   -0.0730    1.4680    3.6850 H   0  0  0  0  0  0  0  0  0  0  0  0
    0.7200   -0.5480    3.8050 H   0  0  0  0  0  0  0  0  0  0  0  0
   -0.7570   -1.2710    3.0750 H   0  0  0  0  0  0  0  0  0  0  0  0
    6.1010    3.5000    2.4740 O   0  0  0  0  0  0  0  0  0  0  0  0
    5.2610    2.6280    1.7740 C   0  0  0  0  0  0  0  0  0  0  0  0
    4.9730    2.8800    0.4590 C   0  0  0  0  0  0  0  0  0  0  0  0
    4.1530    2.0500   -0.2630 C   0  0  0  0  0  0  0  0  0  0  0  0
    3.5980    0.9260    0.3450 C   0  0  0  0  0  0  0  0  0  0  0  0
    2.7380    0.0680   -0.4890 C   0  0  0  0  0  0  0  0  0  0  0  0
    1.2880    0.5090   -0.5250 C   0  0  2  0  0  0  0  0  0  0  0  0
    0.6410    0.5090    0.7550 N   0  0  0  0  0  0  0  0  0  0  0  0
    0.5260   -0.2950   -1.4880 C   0  0  0  0  0  0  0  0  0  0  0  0
    0.9940   -0.4120   -2.6780 O   0  0  0  0  0  0  0  0  0  0  0  0
    3.8930    0.6870    1.6520 C   0  0  0  0  0  0  0  0  0  0  0  0
    4.7290    1.5300    2.3960 C   0  0  0  0  0  0  0  0  0  0  0  0
    5.7860    3.9880    3.2900 H   0  0  0  0  0  0  0  0  0  0  0  0
    5.4000    3.7550   -0.0270 H   0  0  0  0  0  0  0  0  0  0  0  0
    3.9320    2.2630   -1.3120 H   0  0  0  0  0  0  0  0  0  0  0  0
    3.1000    0.1540   -1.5600 H   0  0  0  0  0  0  0  0  0  0  0  0
    2.8220   -0.9760   -0.1890 H   0  0  0  0  0  0  0  0  0  0  0  0
    1.3470    1.5920   -0.8730 H   0  0  0  0  0  0  0  0  0  0  0  0
    0.0910    1.3590    1.0390 H   0  0  0  0  0  0  0  0  0  0  0  0
    3.4880   -0.1750    2.1500 H   0  0  0  0  0  0  0  0  0  0  0  0
    4.9620    1.3460    3.4200 H   0  0  0  0  0  0  0  0  0  0  0  0
   -4.3960   -3.6120    3.2400 N   0  0  0  0  0  0  0  0  0  0  0  0
   -4.0480   -2.8920    2.0730 C   0  0  0  0  0  0  0  0  0  0  0  0
   -3.4080   -1.7560    2.1050 N   0  0  0  0  0  0  0  0  0  0  0  0
   -4.4000   -3.4040    0.7960 N   0  0  0  0  0  0  0  0  0  0  0  0
   -3.7740   -3.0060   -0.4440 C   0  0  0  0  0  0  0  0  0  0  0  0
   -2.3550   -3.4720   -0.5290 C   0  0  0  0  0  0  0  0  0  0  0  0
   -1.6150   -3.1390   -1.7430 C   0  0  0  0  0  0  0  0  0  0  0  0
   -1.4200   -1.7200   -2.1080 C   0  0  2  0  0  0  0  0  0  0  0  0
   -0.7030   -0.9380   -1.1390 N   0  0  0  0  0  0  0  0  0  0  0  0
   -2.6560   -1.0490   -2.5840 C   0  0  0  0  0  0  0  0  0  0  0  0
   -2.9920    0.0770   -2.1670 O   0  0  0  0  0  0  0  0  0  0  0  0
   -3.4480   -1.6960   -3.5100 O   0  0  0  0  0  0  0  0  0  0  0  0
   -3.7710   -4.4090    3.5140 H   0  0  0  0  0  0  0  0  0  0  0  0
   -5.2250   -3.3850    3.8160 H   0  0  0  0  0  0  0  0  0  0  0  0
   -3.1470   -1.3760    3.0610 H   0  0  0  0  0  0  0  0  0  0  0  0
   -5.1640   -4.1130    0.7840 H   0  0  0  0  0  0  0  0  0  0  0  0
   -3.8910   -1.9110   -0.5040 H   0  0  0  0  0  0  0  0  0  0  0  0
   -4.3790   -3.4190   -1.2760 H   0  0  0  0  0  0  0  0  0  0  0  0
   -2.3800   -4.5890   -0.4330 H   0  0  0  0  0  0  0  0  0  0  0  0
   -1.8280   -3.1220    0.3880 H   0  0  0  0  0  0  0  0  0  0  0  0
   -0.5890   -3.6050   -1.6560 H   0  0  0  0  0  0  0  0  0  0  0  0
   -2.0560   -3.6590   -2.6410 H   0  0  0  0  0  0  0  0  0  0  0  0
   -0.7810   -1.7240   -3.0470 H   0  0  0  0  0  0  0  0  0  0  0  0
   -1.0180   -0.7930   -0.1540 H   0  0  0  0  0  0  0  0  0  0  0  0
  1  5  1  0  0  0  0
  1  6  1  0  0  0  0
  2  8  1  0  0  0  0
  2  1  1  0  0  0  0
  2  7  1  0  0  0  0
  3  2  1  0  0  0  0
  4  3  2  0  0  0  0
  9 21  1  0  0  0  0
 10 20  1  0  0  0  0
 10  9  1  0  0  0  0
 11 10  2  0  0  0  0
 12 13  2  0  0  0  0
 12 11  1  0  0  0  0
 13 19  1  0  0  0  0
 14 25  1  0  0  0  0
 14 13  1  0  0  0  0
 15 26  1  6  0  0  0
 15 14  1  0  0  0  0
 15 16  1  0  0  0  0
 16 27  1  0  0  0  0
 16  3  1  0  0  0  0
 17 38  1  0  0  0  0
 17 15  1  0  0  0  0
 18 17  2  0  0  0  0
 19 28  1  0  0  0  0
 19 20  2  0  0  0  0
 20 29  1  0  0  0  0
 22 11  1  0  0  0  0
 23 12  1  0  0  0  0
 24 14  1  0  0  0  0
 30 42  1  0  0  0  0
 30 43  1  0  0  0  0
 31 32  2  0  0  0  0
 31 30  1  0  0  0  0
 32 44  1  0  0  0  0
 33 31  1  0  0  0  0
 34 33  1  0  0  0  0
 35 34  1  0  0  0  0
 35 48  1  0  0  0  0
 35 49  1  0  0  0  0
 36 50  1  0  0  0  0
 36 35  1  0  0  0  0
 37 52  1  6  0  0  0
 37 36  1  0  0  0  0
 37 38  1  0  0  0  0
 38 53  1  0  0  0  0
 39 40  1  0  0  0  0
 39 37  1  0  0  0  0
 41 39  2  0  0  0  0
 45 33  1  0  0  0  0
 46 34  1  0  0  0  0
 47 34  1  0  0  0  0
 51 36  1  0  0  0  0
M  END
$$$$
