GYS.pdb
 OpenBabel07022418253D

 41 41  0  0  1  0  0  0  0  0999 V2000
    3.3400   -4.5270    1.3370 N   0  0  0  0  0  0  0  0  0  0  0  0
    2.3760   -4.0610    0.3590 C   0  0  0  0  0  0  0  0  0  0  0  0
    1.7910   -2.8030    0.8880 C   0  0  0  0  0  0  0  0  0  0  0  0
    2.1390   -2.3210    1.9920 O   0  0  0  0  0  0  0  0  0  0  0  0
    3.7900   -3.6790    1.7550 H   0  0  0  0  0  0  0  0  0  0  0  0
    2.7590   -4.9330    2.1300 H   0  0  0  0  0  0  0  0  0  0  0  0
    1.6160   -4.8490    0.1830 H   0  0  0  0  0  0  0  0  0  0  0  0
    2.8890   -3.7810   -0.6060 H   0  0  0  0  0  0  0  0  0  0  0  0
    6.1960    1.0290   -0.4780 O   0  0  0  0  0  0  0  0  0  0  0  0
    4.8200    0.8380   -0.4440 C   0  0  0  0  0  0  0  0  0  0  0  0
    4.0490    1.4850    0.4990 C   0  0  0  0  0  0  0  0  0  0  0  0
    2.6790    1.3110    0.5500 C   0  0  0  0  0  0  0  0  0  0  0  0
    2.0170    0.4840   -0.3350 C   0  0  0  0  0  0  0  0  0  0  0  0
    0.5410    0.3110   -0.2620 C   0  0  0  0  0  0  0  0  0  0  0  0
    0.2080   -0.8430    0.6570 C   0  0  2  0  0  0  0  0  0  0  0  0
    0.7960   -2.0710    0.1670 N   0  0  0  0  0  0  0  0  0  0  0  0
   -1.2440   -0.9720    0.8960 C   0  0  0  0  0  0  0  0  0  0  0  0
   -1.7730   -2.0940    0.6530 O   0  0  0  0  0  0  0  0  0  0  0  0
    2.7940   -0.1610   -1.2770 C   0  0  0  0  0  0  0  0  0  0  0  0
    4.1640    0.0110   -1.3320 C   0  0  0  0  0  0  0  0  0  0  0  0
    6.6990    1.2190    0.3970 H   0  0  0  0  0  0  0  0  0  0  0  0
    4.5370    2.1370    1.2030 H   0  0  0  0  0  0  0  0  0  0  0  0
    2.0590    1.8200    1.2950 H   0  0  0  0  0  0  0  0  0  0  0  0
    0.0400    1.2370    0.0040 H   0  0  0  0  0  0  0  0  0  0  0  0
    0.2130    0.0110   -1.2850 H   0  0  0  0  0  0  0  0  0  0  0  0
    0.6800   -0.6340    1.6400 H   0  0  0  0  0  0  0  0  0  0  0  0
    0.5080   -2.4750   -0.7520 H   0  0  0  0  0  0  0  0  0  0  0  0
    2.2870   -0.8060   -1.9700 H   0  0  0  0  0  0  0  0  0  0  0  0
    4.7860   -0.4940   -2.0720 H   0  0  0  0  0  0  0  0  0  0  0  0
   -5.1580   -0.1770    3.2770 O   0  0  0  0  0  0  0  0  0  0  0  0
   -3.8000    0.0000    3.0650 C   0  0  0  0  0  0  0  0  0  0  0  0
   -3.4840   -0.1280    1.5850 C   0  0  2  0  0  0  0  0  0  0  0  0
   -2.0690    0.0580    1.3710 N   0  0  0  0  0  0  0  0  0  0  0  0
   -4.2950    0.8560    0.8230 C   0  0  0  0  0  0  0  0  0  0  0  0
   -5.5480    0.8440    0.8900 O   0  0  0  0  0  0  0  0  0  0  0  0
   -3.7210    1.8240    0.0120 O   0  0  0  0  0  0  0  0  0  0  0  0
   -5.4510    0.2150    4.1390 H   0  0  0  0  0  0  0  0  0  0  0  0
   -3.5790    1.0770    3.3240 H   0  0  0  0  0  0  0  0  0  0  0  0
   -3.1740   -0.6440    3.6850 H   0  0  0  0  0  0  0  0  0  0  0  0
   -3.7400   -1.1850    1.3100 H   0  0  0  0  0  0  0  0  0  0  0  0
   -1.6180    0.9860    1.5690 H   0  0  0  0  0  0  0  0  0  0  0  0
  1  5  1  0  0  0  0
  1  6  1  0  0  0  0
  2  3  1  0  0  0  0
  2  1  1  0  0  0  0
  3  4  2  0  0  0  0
  7  2  1  0  0  0  0
  8  2  1  0  0  0  0
  9 10  1  0  0  0  0
  9 21  1  0  0  0  0
 10 11  1  0  0  0  0
 11 12  2  0  0  0  0
 11 22  1  0  0  0  0
 12 23  1  0  0  0  0
 13 14  1  0  0  0  0
 13 12  1  0  0  0  0
 14 24  1  0  0  0  0
 14 15  1  0  0  0  0
 15 17  1  0  0  0  0
 15 26  1  1  0  0  0
 16 15  1  0  0  0  0
 16  3  1  0  0  0  0
 17 33  1  0  0  0  0
 18 17  2  0  0  0  0
 19 13  2  0  0  0  0
 20 19  1  0  0  0  0
 20 10  2  0  0  0  0
 25 14  1  0  0  0  0
 27 16  1  0  0  0  0
 28 19  1  0  0  0  0
 29 20  1  0  0  0  0
 30 37  1  0  0  0  0
 31 30  1  0  0  0  0
 31 38  1  0  0  0  0
 31 39  1  0  0  0  0
 32 40  1  6  0  0  0
 32 31  1  0  0  0  0
 33 41  1  0  0  0  0
 33 32  1  0  0  0  0
 34 35  1  0  0  0  0
 34 32  1  0  0  0  0
 36 34  2  0  0  0  0
M  END
$$$$
