GYT.pdb
 OpenBabel07022418253D

 44 44  0  0  1  0  0  0  0  0999 V2000
    0.3020   -3.7250    0.0330 N   0  0  0  0  0  0  0  0  0  0  0  0
    1.0400   -3.6480    1.2810 C   0  0  0  0  0  0  0  0  0  0  0  0
    1.2210   -2.2290    1.6500 C   0  0  0  0  0  0  0  0  0  0  0  0
    1.8350   -1.9190    2.7010 O   0  0  0  0  0  0  0  0  0  0  0  0
   -0.7180   -3.6160    0.2300 H   0  0  0  0  0  0  0  0  0  0  0  0
    0.4420   -4.6290   -0.4670 H   0  0  0  0  0  0  0  0  0  0  0  0
    1.9940   -4.1890    1.1310 H   0  0  0  0  0  0  0  0  0  0  0  0
    0.4000   -4.1250    2.0520 H   0  0  0  0  0  0  0  0  0  0  0  0
    6.9480   -0.9720    0.1600 O   0  0  0  0  0  0  0  0  0  0  0  0
    5.6290   -0.5330    0.1040 C   0  0  0  0  0  0  0  0  0  0  0  0
    5.2700    0.5000    0.9430 C   0  0  0  0  0  0  0  0  0  0  0  0
    3.9590    0.9570    0.9060 C   0  0  0  0  0  0  0  0  0  0  0  0
    3.0220    0.4060    0.0600 C   0  0  0  0  0  0  0  0  0  0  0  0
    1.6540    0.9480    0.0840 C   0  0  0  0  0  0  0  0  0  0  0  0
    0.8300    0.2010    1.0990 C   0  0  2  0  0  0  0  0  0  0  0  0
    0.7170   -1.2000    0.8460 N   0  0  0  0  0  0  0  0  0  0  0  0
   -0.4620    0.8730    1.3130 C   0  0  0  0  0  0  0  0  0  0  0  0
   -0.4940    2.0940    1.5430 O   0  0  0  0  0  0  0  0  0  0  0  0
    3.4260   -0.6250   -0.7600 C   0  0  0  0  0  0  0  0  0  0  0  0
    4.7170   -1.1060   -0.7530 C   0  0  0  0  0  0  0  0  0  0  0  0
    7.2840   -1.6290    0.8530 H   0  0  0  0  0  0  0  0  0  0  0  0
    6.0050    0.9390    1.6120 H   0  0  0  0  0  0  0  0  0  0  0  0
    3.7180    1.7830    1.5930 H   0  0  0  0  0  0  0  0  0  0  0  0
    1.1800    0.9850   -0.9150 H   0  0  0  0  0  0  0  0  0  0  0  0
    1.7140    1.9990    0.4300 H   0  0  0  0  0  0  0  0  0  0  0  0
    1.4020    0.3070    2.0700 H   0  0  0  0  0  0  0  0  0  0  0  0
    0.2020   -1.4920   -0.0360 H   0  0  0  0  0  0  0  0  0  0  0  0
    2.7090   -1.0810   -1.4390 H   0  0  0  0  0  0  0  0  0  0  0  0
    5.0310   -1.9290   -1.4110 H   0  0  0  0  0  0  0  0  0  0  0  0
   -5.1960    0.9850    0.3340 C   0  0  0  0  0  0  0  0  0  0  0  0
   -3.7810    0.4710    0.1900 C   0  0  1  0  0  0  0  0  0  0  0  0
   -3.1380    1.0540   -0.9170 O   0  0  0  0  0  0  0  0  0  0  0  0
   -2.9800    0.7370    1.4600 C   0  0  2  0  0  0  0  0  0  0  0  0
   -1.6600    0.1370    1.2580 N   0  0  0  0  0  0  0  0  0  0  0  0
   -3.6870    0.0640    2.5800 C   0  0  0  0  0  0  0  0  0  0  0  0
   -4.8270    0.4310    2.9080 O   0  0  0  0  0  0  0  0  0  0  0  0
   -3.0690   -0.9650    3.2460 O   0  0  0  0  0  0  0  0  0  0  0  0
   -5.5920    1.1090   -0.7140 H   0  0  0  0  0  0  0  0  0  0  0  0
   -5.2650    1.9190    0.9040 H   0  0  0  0  0  0  0  0  0  0  0  0
   -5.7920    0.1520    0.7980 H   0  0  0  0  0  0  0  0  0  0  0  0
   -3.8360   -0.6090   -0.0290 H   0  0  0  0  0  0  0  0  0  0  0  0
   -3.2590    0.4990   -1.7230 H   0  0  0  0  0  0  0  0  0  0  0  0
   -2.8940    1.8130    1.6550 H   0  0  0  0  0  0  0  0  0  0  0  0
   -1.5950   -0.8860    1.0620 H   0  0  0  0  0  0  0  0  0  0  0  0
  1  5  1  0  0  0  0
  1  2  1  0  0  0  0
  2  3  1  0  0  0  0
  2  8  1  0  0  0  0
  3  4  2  0  0  0  0
  6  1  1  0  0  0  0
  7  2  1  0  0  0  0
  9 21  1  0  0  0  0
 10  9  1  0  0  0  0
 10 11  1  0  0  0  0
 11 22  1  0  0  0  0
 12 11  2  0  0  0  0
 12 23  1  0  0  0  0
 13 14  1  0  0  0  0
 13 12  1  0  0  0  0
 14 25  1  0  0  0  0
 14 15  1  0  0  0  0
 15 17  1  0  0  0  0
 15 26  1  1  0  0  0
 16 15  1  0  0  0  0
 16  3  1  0  0  0  0
 17 18  2  0  0  0  0
 19 20  1  0  0  0  0
 19 13  2  0  0  0  0
 20 10  2  0  0  0  0
 24 14  1  0  0  0  0
 27 16  1  0  0  0  0
 28 19  1  0  0  0  0
 29 20  1  0  0  0  0
 30 40  1  0  0  0  0
 30 39  1  0  0  0  0
 31 41  1  6  0  0  0
 31 30  1  0  0  0  0
 31 33  1  0  0  0  0
 32 31  1  0  0  0  0
 33 43  1  1  0  0  0
 33 35  1  0  0  0  0
 34 17  1  0  0  0  0
 34 33  1  0  0  0  0
 35 36  2  0  0  0  0
 35 37  1  0  0  0  0
 38 30  1  0  0  0  0
 42 32  1  0  0  0  0
 44 34  1  0  0  0  0
M  END
$$$$
