GYV.pdb
 OpenBabel07022418253D

 46 46  0  0  1  0  0  0  0  0999 V2000
    2.1390   -2.7480    2.8100 N   0  0  0  0  0  0  0  0  0  0  0  0
    2.8660   -1.5050    2.8050 C   0  0  0  0  0  0  0  0  0  0  0  0
    2.2450   -0.4850    1.9150 C   0  0  0  0  0  0  0  0  0  0  0  0
    2.8270    0.6340    1.8530 O   0  0  0  0  0  0  0  0  0  0  0  0
    1.3090   -2.7080    3.4160 H   0  0  0  0  0  0  0  0  0  0  0  0
    2.0070   -3.1500    1.8680 H   0  0  0  0  0  0  0  0  0  0  0  0
    3.9310   -1.7120    2.5060 H   0  0  0  0  0  0  0  0  0  0  0  0
    2.8760   -1.1490    3.8770 H   0  0  0  0  0  0  0  0  0  0  0  0
    5.6760   -1.0930   -3.1340 O   0  0  0  0  0  0  0  0  0  0  0  0
    4.3980   -0.8820   -2.6370 C   0  0  0  0  0  0  0  0  0  0  0  0
    3.8500    0.3890   -2.6950 C   0  0  0  0  0  0  0  0  0  0  0  0
    2.5930    0.5730   -2.2010 C   0  0  0  0  0  0  0  0  0  0  0  0
    1.8410   -0.4410   -1.6490 C   0  0  0  0  0  0  0  0  0  0  0  0
    0.4740   -0.1630   -1.1340 C   0  0  0  0  0  0  0  0  0  0  0  0
    0.5060    0.2460    0.3380 C   0  0  2  0  0  0  0  0  0  0  0  0
    1.0590   -0.7580    1.1740 N   0  0  0  0  0  0  0  0  0  0  0  0
   -0.8280    0.7270    0.7570 C   0  0  0  0  0  0  0  0  0  0  0  0
   -1.3570    1.6260    0.0400 O   0  0  0  0  0  0  0  0  0  0  0  0
    2.4040   -1.6980   -1.6010 C   0  0  0  0  0  0  0  0  0  0  0  0
    3.6700   -1.9360   -2.0860 C   0  0  0  0  0  0  0  0  0  0  0  0
    6.4690   -1.2060   -2.5240 H   0  0  0  0  0  0  0  0  0  0  0  0
    4.4540    1.1810   -3.1320 H   0  0  0  0  0  0  0  0  0  0  0  0
    2.1940    1.5780   -2.2620 H   0  0  0  0  0  0  0  0  0  0  0  0
   -0.1220   -1.1000   -1.2480 H   0  0  0  0  0  0  0  0  0  0  0  0
    0.0110    0.6520   -1.7130 H   0  0  0  0  0  0  0  0  0  0  0  0
    1.1650    1.1490    0.3770 H   0  0  0  0  0  0  0  0  0  0  0  0
    0.6710   -1.7180    1.3100 H   0  0  0  0  0  0  0  0  0  0  0  0
    1.8360   -2.5140   -1.1710 H   0  0  0  0  0  0  0  0  0  0  0  0
    4.1210   -2.9200   -2.0540 H   0  0  0  0  0  0  0  0  0  0  0  0
   -3.6580   -1.4190    3.1070 C   0  0  0  0  0  0  0  0  0  0  0  0
   -3.9190   -0.2800    2.1680 C   0  0  0  0  0  0  0  0  0  0  0  0
   -4.0110   -0.8150    0.7670 C   0  0  0  0  0  0  0  0  0  0  0  0
   -2.8540    0.7870    2.2300 C   0  0  2  0  0  0  0  0  0  0  0  0
   -1.5470    0.2640    1.8850 N   0  0  0  0  0  0  0  0  0  0  0  0
   -2.8440    1.5010    3.5200 C   0  0  0  0  0  0  0  0  0  0  0  0
   -1.7850    1.5840    4.1680 O   0  0  0  0  0  0  0  0  0  0  0  0
   -3.9900    2.0760    4.0160 O   0  0  0  0  0  0  0  0  0  0  0  0
   -3.0150   -2.2120    2.6320 H   0  0  0  0  0  0  0  0  0  0  0  0
   -4.6190   -1.9430    3.3540 H   0  0  0  0  0  0  0  0  0  0  0  0
   -3.2300   -1.1280    4.0760 H   0  0  0  0  0  0  0  0  0  0  0  0
   -4.8940    0.1670    2.4340 H   0  0  0  0  0  0  0  0  0  0  0  0
   -4.2830   -0.0600    0.0130 H   0  0  0  0  0  0  0  0  0  0  0  0
   -4.7570   -1.6390    0.6790 H   0  0  0  0  0  0  0  0  0  0  0  0
   -3.0370   -1.2630    0.4350 H   0  0  0  0  0  0  0  0  0  0  0  0
   -3.1130    1.5390    1.4510 H   0  0  0  0  0  0  0  0  0  0  0  0
   -1.0670   -0.4900    2.4550 H   0  0  0  0  0  0  0  0  0  0  0  0
  1  5  1  0  0  0  0
  2  1  1  0  0  0  0
  2  8  1  0  0  0  0
  3  2  1  0  0  0  0
  4  3  2  0  0  0  0
  6  1  1  0  0  0  0
  7  2  1  0  0  0  0
  9 10  1  0  0  0  0
  9 21  1  0  0  0  0
 10 20  1  0  0  0  0
 11 10  2  0  0  0  0
 11 12  1  0  0  0  0
 12 13  2  0  0  0  0
 13 19  1  0  0  0  0
 13 14  1  0  0  0  0
 14 15  1  0  0  0  0
 15 26  1  1  0  0  0
 15 17  1  0  0  0  0
 15 16  1  0  0  0  0
 16 27  1  0  0  0  0
 16  3  1  0  0  0  0
 17 34  1  0  0  0  0
 18 17  2  0  0  0  0
 19 28  1  0  0  0  0
 20 29  1  0  0  0  0
 20 19  2  0  0  0  0
 22 11  1  0  0  0  0
 23 12  1  0  0  0  0
 24 14  1  0  0  0  0
 25 14  1  0  0  0  0
 30 39  1  0  0  0  0
 30 40  1  0  0  0  0
 31 33  1  0  0  0  0
 31 41  1  0  0  0  0
 31 30  1  0  0  0  0
 32 31  1  0  0  0  0
 33 45  1  6  0  0  0
 33 35  1  0  0  0  0
 34 33  1  0  0  0  0
 34 46  1  0  0  0  0
 35 37  2  0  0  0  0
 35 36  1  0  0  0  0
 38 30  1  0  0  0  0
 42 32  1  0  0  0  0
 43 32  1  0  0  0  0
 44 32  1  0  0  0  0
M  END
$$$$
