GYW.pdb
 OpenBabel07022418253D

 54 56  0  0  1  0  0  0  0  0999 V2000
   -0.4170   -2.5830    3.8810 N   0  0  0  0  0  0  0  0  0  0  0  0
   -0.3260   -1.2930    4.5380 C   0  0  0  0  0  0  0  0  0  0  0  0
   -0.1290   -0.1900    3.5960 C   0  0  0  0  0  0  0  0  0  0  0  0
   -0.0340    0.9830    4.0370 O   0  0  0  0  0  0  0  0  0  0  0  0
    0.4440   -2.7310    3.3210 H   0  0  0  0  0  0  0  0  0  0  0  0
   -0.6750   -3.3440    4.5110 H   0  0  0  0  0  0  0  0  0  0  0  0
    0.5420   -1.3420    5.2260 H   0  0  0  0  0  0  0  0  0  0  0  0
   -1.2180   -1.1720    5.1790 H   0  0  0  0  0  0  0  0  0  0  0  0
    6.3700   -0.3290    2.6410 O   0  0  0  0  0  0  0  0  0  0  0  0
    5.1240   -0.0850    2.0720 C   0  0  0  0  0  0  0  0  0  0  0  0
    4.6850    1.1950    1.7980 C   0  0  0  0  0  0  0  0  0  0  0  0
    3.4570    1.4740    1.2350 C   0  0  0  0  0  0  0  0  0  0  0  0
    2.6070    0.4480    0.9200 C   0  0  0  0  0  0  0  0  0  0  0  0
    1.2760    0.6130    0.3170 C   0  0  0  0  0  0  0  0  0  0  0  0
    0.1590    0.7630    1.2840 C   0  0  2  0  0  0  0  0  0  0  0  0
   -0.0330   -0.3230    2.1840 N   0  0  0  0  0  0  0  0  0  0  0  0
   -1.0960    0.8960    0.4840 C   0  0  0  0  0  0  0  0  0  0  0  0
   -1.1340    1.8070   -0.3810 O   0  0  0  0  0  0  0  0  0  0  0  0
    3.0310   -0.8380    1.1880 C   0  0  0  0  0  0  0  0  0  0  0  0
    4.2590   -1.1230    1.7510 C   0  0  0  0  0  0  0  0  0  0  0  0
    6.3950   -1.0220    3.3820 H   0  0  0  0  0  0  0  0  0  0  0  0
    5.3620    2.0050    2.0490 H   0  0  0  0  0  0  0  0  0  0  0  0
    3.1170    2.4790    1.0220 H   0  0  0  0  0  0  0  0  0  0  0  0
    1.3190    1.5710   -0.2800 H   0  0  0  0  0  0  0  0  0  0  0  0
    1.0150   -0.1670   -0.4240 H   0  0  0  0  0  0  0  0  0  0  0  0
    0.2280    1.7160    1.8660 H   0  0  0  0  0  0  0  0  0  0  0  0
   -0.1090   -1.2880    1.7920 H   0  0  0  0  0  0  0  0  0  0  0  0
    2.3950   -1.6910    0.9580 H   0  0  0  0  0  0  0  0  0  0  0  0
    4.5910   -2.1300    1.9610 H   0  0  0  0  0  0  0  0  0  0  0  0
   -2.2250    0.0630    0.6470 N   0  0  0  0  0  0  0  0  0  0  0  0
   -3.4370    0.1680   -0.1030 C   0  0  1  0  0  0  0  0  0  0  0  0
   -3.7070   -0.9940   -1.0210 C   0  0  0  0  0  0  0  0  0  0  0  0
   -2.6540   -1.1930   -2.0430 C   0  0  0  0  0  0  0  0  0  0  0  0
   -2.7570   -0.7430   -3.3690 C   0  0  0  0  0  0  0  0  0  0  0  0
   -1.6330   -1.0580   -4.0250 N   0  0  0  0  0  0  0  0  0  0  0  0
   -0.8150   -1.7000   -3.1540 C   0  0  0  0  0  0  0  0  0  0  0  0
    0.4450   -2.2280   -3.3370 C   0  0  0  0  0  0  0  0  0  0  0  0
    1.0580   -2.8390   -2.2720 C   0  0  0  0  0  0  0  0  0  0  0  0
    0.4650   -2.9470   -1.0310 C   0  0  0  0  0  0  0  0  0  0  0  0
   -0.7930   -2.4170   -0.8580 C   0  0  0  0  0  0  0  0  0  0  0  0
   -1.4270   -1.8000   -1.9040 C   0  0  0  0  0  0  0  0  0  0  0  0
   -4.6060    0.5090    0.7310 C   0  0  0  0  0  0  0  0  0  0  0  0
   -4.4480    0.6710    1.9580 O   0  0  0  0  0  0  0  0  0  0  0  0
   -5.8780    0.6580    0.2050 O   0  0  0  0  0  0  0  0  0  0  0  0
   -2.1660   -0.6810    1.3760 H   0  0  0  0  0  0  0  0  0  0  0  0
   -3.3060    1.0580   -0.7970 H   0  0  0  0  0  0  0  0  0  0  0  0
   -4.6830   -0.7840   -1.5230 H   0  0  0  0  0  0  0  0  0  0  0  0
   -3.8560   -1.9220   -0.3950 H   0  0  0  0  0  0  0  0  0  0  0  0
   -3.6040   -0.2360   -3.7570 H   0  0  0  0  0  0  0  0  0  0  0  0
   -1.3880   -0.8690   -5.0180 H   0  0  0  0  0  0  0  0  0  0  0  0
    0.9300   -2.1510   -4.3140 H   0  0  0  0  0  0  0  0  0  0  0  0
    2.0470   -3.2490   -2.4320 H   0  0  0  0  0  0  0  0  0  0  0  0
    0.9830   -3.4400   -0.2120 H   0  0  0  0  0  0  0  0  0  0  0  0
   -1.3050   -2.4810    0.0880 H   0  0  0  0  0  0  0  0  0  0  0  0
  1  6  1  0  0  0  0
  1  2  1  0  0  0  0
  2  8  1  0  0  0  0
  2  7  1  0  0  0  0
  3  4  2  0  0  0  0
  3  2  1  0  0  0  0
  5  1  1  0  0  0  0
  9 21  1  0  0  0  0
 10  9  1  0  0  0  0
 11 22  1  0  0  0  0
 11 10  1  0  0  0  0
 12 11  2  0  0  0  0
 13 19  2  0  0  0  0
 13 12  1  0  0  0  0
 14 13  1  0  0  0  0
 14 15  1  0  0  0  0
 15 26  1  1  0  0  0
 15 16  1  0  0  0  0
 16  3  1  0  0  0  0
 17 30  1  0  0  0  0
 17 15  1  0  0  0  0
 18 17  2  0  0  0  0
 19 20  1  0  0  0  0
 20 29  1  0  0  0  0
 20 10  2  0  0  0  0
 23 12  1  0  0  0  0
 24 14  1  0  0  0  0
 25 14  1  0  0  0  0
 27 16  1  0  0  0  0
 28 19  1  0  0  0  0
 30 45  1  0  0  0  0
 31 46  1  6  0  0  0
 31 30  1  0  0  0  0
 31 42  1  0  0  0  0
 32 48  1  0  0  0  0
 32 31  1  0  0  0  0
 33 41  1  0  0  0  0
 33 32  1  0  0  0  0
 34 33  2  0  0  0  0
 35 34  1  0  0  0  0
 35 36  1  0  0  0  0
 36 41  1  0  0  0  0
 37 36  2  0  0  0  0
 37 38  1  0  0  0  0
 38 39  2  0  0  0  0
 39 40  1  0  0  0  0
 39 53  1  0  0  0  0
 40 54  1  0  0  0  0
 41 40  2  0  0  0  0
 42 43  1  0  0  0  0
 44 42  2  0  0  0  0
 47 32  1  0  0  0  0
 49 34  1  0  0  0  0
 50 35  1  0  0  0  0
 51 37  1  0  0  0  0
 52 38  1  0  0  0  0
M  END
$$$$
