HAD.pdb
 OpenBabel07022418353D

 42 42  0  0  1  0  0  0  0  0999 V2000
    2.1080   -1.8710    0.8150 N   0  0  0  0  0  0  0  0  0  0  0  0
    2.4320   -0.5160    1.0110 C   0  0  1  0  0  0  0  0  0  0  0  0
    3.8250   -0.2500    0.4630 C   0  0  0  0  0  0  0  0  0  0  0  0
    4.8460   -1.0830    1.1490 C   0  0  0  0  0  0  0  0  0  0  0  0
    5.2650   -2.3400    0.7680 C   0  0  0  0  0  0  0  0  0  0  0  0
    6.2040   -2.7340    1.6650 N   0  0  0  0  0  0  0  0  0  0  0  0
    6.3870   -1.7720    2.5890 C   0  0  0  0  0  0  0  0  0  0  0  0
    5.5560   -0.7800    2.2600 N   0  0  0  0  0  0  0  0  0  0  0  0
    1.5060    0.4740    0.4730 C   0  0  0  0  0  0  0  0  0  0  0  0
    1.8100    1.6960    0.6290 O   0  0  0  0  0  0  0  0  0  0  0  0
    1.1200   -2.1140    0.7290 H   0  0  0  0  0  0  0  0  0  0  0  0
    2.6680   -2.4750    1.4550 H   0  0  0  0  0  0  0  0  0  0  0  0
    2.4950   -0.3200    2.1230 H   0  0  0  0  0  0  0  0  0  0  0  0
    4.0830    0.8430    0.5970 H   0  0  0  0  0  0  0  0  0  0  0  0
    3.8640   -0.4200   -0.6380 H   0  0  0  0  0  0  0  0  0  0  0  0
    4.9290   -2.9240   -0.0740 H   0  0  0  0  0  0  0  0  0  0  0  0
    6.6840   -3.6680    1.5940 H   0  0  0  0  0  0  0  0  0  0  0  0
    7.0930   -1.8690    3.4070 H   0  0  0  0  0  0  0  0  0  0  0  0
   -0.9180    1.0910   -2.1620 C   0  0  0  0  0  0  0  0  0  0  0  0
   -0.5810    1.2320   -0.7170 C   0  0  2  0  0  0  0  0  0  0  0  0
    0.3040    0.2110   -0.2030 N   0  0  0  0  0  0  0  0  0  0  0  0
   -1.8590    1.1560    0.0810 C   0  0  0  0  0  0  0  0  0  0  0  0
   -2.8150    1.9460   -0.1570 O   0  0  0  0  0  0  0  0  0  0  0  0
   -0.9800    0.0440   -2.5100 H   0  0  0  0  0  0  0  0  0  0  0  0
   -1.9460    1.5160   -2.3570 H   0  0  0  0  0  0  0  0  0  0  0  0
   -0.2430    1.6740   -2.8170 H   0  0  0  0  0  0  0  0  0  0  0  0
   -0.1990    2.2580   -0.5380 H   0  0  0  0  0  0  0  0  0  0  0  0
    0.0280   -0.7790   -0.3470 H   0  0  0  0  0  0  0  0  0  0  0  0
   -2.0440    0.2140    1.1130 N   0  0  0  0  0  0  0  0  0  0  0  0
   -3.2520    0.1050    1.9060 C   0  0  1  0  0  0  0  0  0  0  0  0
   -3.8170   -1.2950    1.6570 C   0  0  0  0  0  0  0  0  0  0  0  0
   -4.1350   -1.5070    0.2330 C   0  0  0  0  0  0  0  0  0  0  0  0
   -5.1510   -1.0050   -0.3080 O   0  0  0  0  0  0  0  0  0  0  0  0
   -2.8930    0.1750    3.3300 C   0  0  0  0  0  0  0  0  0  0  0  0
   -3.7900    0.1050    4.1970 O   0  0  0  0  0  0  0  0  0  0  0  0
   -3.3010   -2.2820   -0.5580 O   0  0  0  0  0  0  0  0  0  0  0  0
   -1.5770    0.3160    3.7100 O   0  0  0  0  0  0  0  0  0  0  0  0
   -1.2450   -0.4510    1.3160 H   0  0  0  0  0  0  0  0  0  0  0  0
   -3.9740    0.8820    1.5790 H   0  0  0  0  0  0  0  0  0  0  0  0
   -3.0500   -1.9970    2.0350 H   0  0  0  0  0  0  0  0  0  0  0  0
   -4.7020   -1.3850    2.3190 H   0  0  0  0  0  0  0  0  0  0  0  0
   -3.5280   -2.4790   -1.5450 H   0  0  0  0  0  0  0  0  0  0  0  0
  1  2  1  0  0  0  0
  1 12  1  0  0  0  0
  2 13  1  1  0  0  0
  3 14  1  0  0  0  0
  3  2  1  0  0  0  0
  3  4  1  0  0  0  0
  4  8  1  0  0  0  0
  5  4  2  0  0  0  0
  5  6  1  0  0  0  0
  6  7  1  0  0  0  0
  7 18  1  0  0  0  0
  8  7  2  0  0  0  0
  9 10  2  0  0  0  0
  9  2  1  0  0  0  0
 11  1  1  0  0  0  0
 15  3  1  0  0  0  0
 16  5  1  0  0  0  0
 17  6  1  0  0  0  0
 19 20  1  0  0  0  0
 20 27  1  1  0  0  0
 20 21  1  0  0  0  0
 20 22  1  0  0  0  0
 21  9  1  0  0  0  0
 22 29  1  0  0  0  0
 23 22  2  0  0  0  0
 24 19  1  0  0  0  0
 25 19  1  0  0  0  0
 26 19  1  0  0  0  0
 28 21  1  0  0  0  0
 29 38  1  0  0  0  0
 29 30  1  0  0  0  0
 30 39  1  6  0  0  0
 30 34  1  0  0  0  0
 31 30  1  0  0  0  0
 31 40  1  0  0  0  0
 31 41  1  0  0  0  0
 32 31  1  0  0  0  0
 33 32  2  0  0  0  0
 34 37  2  0  0  0  0
 34 35  1  0  0  0  0
 36 32  1  0  0  0  0
 42 36  1  0  0  0  0
M  END
$$$$
