HAE.pdb
 OpenBabel07022418353D

 45 45  0  0  1  0  0  0  0  0999 V2000
    1.5920   -2.1460   -1.2670 N   0  0  0  0  0  0  0  0  0  0  0  0
    2.5300   -1.0870   -0.9540 C   0  0  1  0  0  0  0  0  0  0  0  0
    3.0570   -0.5780   -2.2730 C   0  0  0  0  0  0  0  0  0  0  0  0
    4.0330    0.5130   -2.1560 C   0  0  0  0  0  0  0  0  0  0  0  0
    5.3960    0.4210   -2.0490 C   0  0  0  0  0  0  0  0  0  0  0  0
    5.8470    1.6800   -1.9720 N   0  0  0  0  0  0  0  0  0  0  0  0
    4.8160    2.5390   -2.0260 C   0  0  0  0  0  0  0  0  0  0  0  0
    3.7050    1.8030   -2.1390 N   0  0  0  0  0  0  0  0  0  0  0  0
    1.8070   -0.0440   -0.1970 C   0  0  0  0  0  0  0  0  0  0  0  0
    2.3850    0.9970    0.1990 O   0  0  0  0  0  0  0  0  0  0  0  0
    0.7970   -1.8100   -1.8540 H   0  0  0  0  0  0  0  0  0  0  0  0
    1.2050   -2.6200   -0.4460 H   0  0  0  0  0  0  0  0  0  0  0  0
    3.3140   -1.5470   -0.3200 H   0  0  0  0  0  0  0  0  0  0  0  0
    2.1740   -0.2380   -2.8570 H   0  0  0  0  0  0  0  0  0  0  0  0
    3.4980   -1.4340   -2.8240 H   0  0  0  0  0  0  0  0  0  0  0  0
    6.0180   -0.4890   -2.0300 H   0  0  0  0  0  0  0  0  0  0  0  0
    6.8510    2.0170   -1.8800 H   0  0  0  0  0  0  0  0  0  0  0  0
    4.8800    3.6440   -1.9850 H   0  0  0  0  0  0  0  0  0  0  0  0
   -1.3450    1.4150   -0.0650 C   0  0  0  0  0  0  0  0  0  0  0  0
   -0.2510    0.8420    0.8450 C   0  0  2  0  0  0  0  0  0  0  0  0
    0.4310   -0.1830    0.1090 N   0  0  0  0  0  0  0  0  0  0  0  0
   -0.9850    0.2840    2.0290 C   0  0  0  0  0  0  0  0  0  0  0  0
   -1.6150    1.0540    2.7740 O   0  0  0  0  0  0  0  0  0  0  0  0
   -1.5840    0.6980   -0.8820 H   0  0  0  0  0  0  0  0  0  0  0  0
   -2.2850    1.5920    0.4800 H   0  0  0  0  0  0  0  0  0  0  0  0
   -1.0270    2.3540   -0.5460 H   0  0  0  0  0  0  0  0  0  0  0  0
    0.3980    1.6790    1.1070 H   0  0  0  0  0  0  0  0  0  0  0  0
   -0.0980   -1.0270   -0.1960 H   0  0  0  0  0  0  0  0  0  0  0  0
   -0.9590   -1.0930    2.2920 N   0  0  0  0  0  0  0  0  0  0  0  0
   -1.7000   -1.5730    3.4700 C   0  0  1  0  0  0  0  0  0  0  0  0
   -2.7520   -2.5340    2.9250 C   0  0  0  0  0  0  0  0  0  0  0  0
   -3.6990   -1.9090    1.9640 C   0  0  0  0  0  0  0  0  0  0  0  0
   -4.5060   -0.8070    2.5230 C   0  0  0  0  0  0  0  0  0  0  0  0
   -5.2710   -0.1230    1.8070 O   0  0  0  0  0  0  0  0  0  0  0  0
   -0.7790   -2.3960    4.2740 C   0  0  0  0  0  0  0  0  0  0  0  0
    0.3970   -2.5620    3.8930 O   0  0  0  0  0  0  0  0  0  0  0  0
   -4.4160   -0.5250    3.8710 O   0  0  0  0  0  0  0  0  0  0  0  0
   -1.1920   -2.9930    5.4460 O   0  0  0  0  0  0  0  0  0  0  0  0
   -0.4370   -1.7480    1.6800 H   0  0  0  0  0  0  0  0  0  0  0  0
   -2.1510   -0.7500    4.0160 H   0  0  0  0  0  0  0  0  0  0  0  0
   -2.2890   -3.4340    2.5200 H   0  0  0  0  0  0  0  0  0  0  0  0
   -3.3670   -2.8820    3.8060 H   0  0  0  0  0  0  0  0  0  0  0  0
   -3.1720   -1.4620    1.0760 H   0  0  0  0  0  0  0  0  0  0  0  0
   -4.4060   -2.6350    1.5200 H   0  0  0  0  0  0  0  0  0  0  0  0
   -5.1570   -0.0770    4.4010 H   0  0  0  0  0  0  0  0  0  0  0  0
  1  2  1  0  0  0  0
  1 12  1  0  0  0  0
  2 13  1  1  0  0  0
  2  9  1  0  0  0  0
  3  4  1  0  0  0  0
  3  2  1  0  0  0  0
  4  8  1  0  0  0  0
  4  5  2  0  0  0  0
  5 16  1  0  0  0  0
  5  6  1  0  0  0  0
  6 17  1  0  0  0  0
  7 18  1  0  0  0  0
  7  6  1  0  0  0  0
  8  7  2  0  0  0  0
  9 21  1  0  0  0  0
  9 10  2  0  0  0  0
 11  1  1  0  0  0  0
 14  3  1  0  0  0  0
 15  3  1  0  0  0  0
 19 25  1  0  0  0  0
 19 20  1  0  0  0  0
 20 27  1  1  0  0  0
 20 22  1  0  0  0  0
 21 20  1  0  0  0  0
 22 29  1  0  0  0  0
 22 23  2  0  0  0  0
 24 19  1  0  0  0  0
 26 19  1  0  0  0  0
 28 21  1  0  0  0  0
 29 30  1  0  0  0  0
 30 40  1  1  0  0  0
 30 35  1  0  0  0  0
 31 30  1  0  0  0  0
 31 42  1  0  0  0  0
 32 33  1  0  0  0  0
 32 31  1  0  0  0  0
 33 37  1  0  0  0  0
 34 33  2  0  0  0  0
 35 38  1  0  0  0  0
 36 35  2  0  0  0  0
 37 45  1  0  0  0  0
 39 29  1  0  0  0  0
 41 31  1  0  0  0  0
 43 32  1  0  0  0  0
 44 32  1  0  0  0  0
M  END
$$$$
