HAH.pdb
 OpenBabel07022418353D

 46 47  0  0  1  0  0  0  0  0999 V2000
    2.3880   -3.6750    1.1100 N   0  0  0  0  0  0  0  0  0  0  0  0
    2.5230   -2.4970    0.2550 C   0  0  1  0  0  0  0  0  0  0  0  0
    1.4260   -2.4990   -0.7320 C   0  0  0  0  0  0  0  0  0  0  0  0
    1.4500   -1.4070   -1.7290 C   0  0  0  0  0  0  0  0  0  0  0  0
    0.5030   -1.2050   -2.7170 C   0  0  0  0  0  0  0  0  0  0  0  0
    0.8810   -0.1240   -3.4060 N   0  0  0  0  0  0  0  0  0  0  0  0
    2.0200    0.3650   -2.9010 C   0  0  0  0  0  0  0  0  0  0  0  0
    2.3550   -0.4310   -1.8770 N   0  0  0  0  0  0  0  0  0  0  0  0
    2.6300   -1.2850    1.1030 C   0  0  0  0  0  0  0  0  0  0  0  0
    3.5610   -1.3010    1.9800 O   0  0  0  0  0  0  0  0  0  0  0  0
    1.9260   -4.4290    0.5450 H   0  0  0  0  0  0  0  0  0  0  0  0
    1.8040   -3.5020    1.9320 H   0  0  0  0  0  0  0  0  0  0  0  0
    3.4870   -2.6170   -0.2760 H   0  0  0  0  0  0  0  0  0  0  0  0
    1.3890   -3.4610   -1.3010 H   0  0  0  0  0  0  0  0  0  0  0  0
    0.4150   -2.4570   -0.2260 H   0  0  0  0  0  0  0  0  0  0  0  0
   -0.3930   -1.8110   -2.9070 H   0  0  0  0  0  0  0  0  0  0  0  0
    0.3760    0.3050   -4.2320 H   0  0  0  0  0  0  0  0  0  0  0  0
    2.5400    1.2510   -3.2890 H   0  0  0  0  0  0  0  0  0  0  0  0
    2.3910    2.2270    1.1900 C   0  0  0  0  0  0  0  0  0  0  0  0
    2.0610    0.9590    1.9380 C   0  0  2  0  0  0  0  0  0  0  0  0
    1.8270   -0.1550    1.0420 N   0  0  0  0  0  0  0  0  0  0  0  0
    0.8470    1.1740    2.7370 C   0  0  0  0  0  0  0  0  0  0  0  0
    0.7990    2.1040    3.6050 O   0  0  0  0  0  0  0  0  0  0  0  0
    1.8040    2.3710    0.2780 H   0  0  0  0  0  0  0  0  0  0  0  0
    2.1340    3.0730    1.8750 H   0  0  0  0  0  0  0  0  0  0  0  0
    3.4930    2.2960    1.0340 H   0  0  0  0  0  0  0  0  0  0  0  0
    2.9120    0.7290    2.5900 H   0  0  0  0  0  0  0  0  0  0  0  0
    1.0440   -0.0780    0.3930 H   0  0  0  0  0  0  0  0  0  0  0  0
   -0.3110    0.3680    2.5820 N   0  0  0  0  0  0  0  0  0  0  0  0
   -1.5060    0.5780    3.3670 C   0  0  1  0  0  0  0  0  0  0  0  0
   -2.6620    0.9620    2.4900 C   0  0  0  0  0  0  0  0  0  0  0  0
   -3.0090   -0.0360    1.4800 C   0  0  0  0  0  0  0  0  0  0  0  0
   -2.4850   -0.0890    0.2090 C   0  0  0  0  0  0  0  0  0  0  0  0
   -3.0340   -1.1330   -0.4310 N   0  0  0  0  0  0  0  0  0  0  0  0
   -3.8790   -1.7170    0.4220 C   0  0  0  0  0  0  0  0  0  0  0  0
   -3.8610   -1.0530    1.5710 N   0  0  0  0  0  0  0  0  0  0  0  0
   -1.7440   -0.5740    4.2210 C   0  0  0  0  0  0  0  0  0  0  0  0
   -0.9470   -1.5420    4.1800 O   0  0  0  0  0  0  0  0  0  0  0  0
   -2.8110   -0.7000    5.1060 O   0  0  0  0  0  0  0  0  0  0  0  0
   -0.3090   -0.3970    1.8860 H   0  0  0  0  0  0  0  0  0  0  0  0
   -1.2860    1.4490    4.0490 H   0  0  0  0  0  0  0  0  0  0  0  0
   -2.3910    1.9590    2.0340 H   0  0  0  0  0  0  0  0  0  0  0  0
   -3.5290    1.1830    3.1480 H   0  0  0  0  0  0  0  0  0  0  0  0
   -1.7550    0.5580   -0.2720 H   0  0  0  0  0  0  0  0  0  0  0  0
   -2.8340   -1.4420   -1.4330 H   0  0  0  0  0  0  0  0  0  0  0  0
   -4.4880   -2.6170    0.1760 H   0  0  0  0  0  0  0  0  0  0  0  0
  1 12  1  0  0  0  0
  2 13  1  6  0  0  0
  2  9  1  0  0  0  0
  2  1  1  0  0  0  0
  3 15  1  0  0  0  0
  3  2  1  0  0  0  0
  4  3  1  0  0  0  0
  5  4  2  0  0  0  0
  6  7  1  0  0  0  0
  6  5  1  0  0  0  0
  7  8  2  0  0  0  0
  8  4  1  0  0  0  0
  9 10  2  0  0  0  0
 11  1  1  0  0  0  0
 14  3  1  0  0  0  0
 16  5  1  0  0  0  0
 17  6  1  0  0  0  0
 18  7  1  0  0  0  0
 19 25  1  0  0  0  0
 19 20  1  0  0  0  0
 20 27  1  1  0  0  0
 20 22  1  0  0  0  0
 21  9  1  0  0  0  0
 21 20  1  0  0  0  0
 22 23  2  0  0  0  0
 24 19  1  0  0  0  0
 26 19  1  0  0  0  0
 28 21  1  0  0  0  0
 29 22  1  0  0  0  0
 29 30  1  0  0  0  0
 30 41  1  1  0  0  0
 30 37  1  0  0  0  0
 31 43  1  0  0  0  0
 31 30  1  0  0  0  0
 32 36  1  0  0  0  0
 32 31  1  0  0  0  0
 33 32  2  0  0  0  0
 34 33  1  0  0  0  0
 34 35  1  0  0  0  0
 35 36  2  0  0  0  0
 37 39  1  0  0  0  0
 38 37  2  0  0  0  0
 40 29  1  0  0  0  0
 42 31  1  0  0  0  0
 44 33  1  0  0  0  0
 45 34  1  0  0  0  0
 46 35  1  0  0  0  0
M  END
$$$$
