HAI.pdb
 OpenBabel07022418353D

 48 48  0  0  1  0  0  0  0  0999 V2000
    1.2630   -3.0780    0.6560 N   0  0  0  0  0  0  0  0  0  0  0  0
    2.2830   -2.1480    0.2050 C   0  0  1  0  0  0  0  0  0  0  0  0
    3.3450   -2.8100   -0.6050 C   0  0  0  0  0  0  0  0  0  0  0  0
    4.3460   -1.8010   -1.0250 C   0  0  0  0  0  0  0  0  0  0  0  0
    5.4910   -1.4100   -0.3550 C   0  0  0  0  0  0  0  0  0  0  0  0
    6.1310   -0.4710   -1.0700 N   0  0  0  0  0  0  0  0  0  0  0  0
    5.4140   -0.2570   -2.1830 C   0  0  0  0  0  0  0  0  0  0  0  0
    4.3360   -1.0590   -2.1600 N   0  0  0  0  0  0  0  0  0  0  0  0
    1.6470   -0.9850   -0.4280 C   0  0  0  0  0  0  0  0  0  0  0  0
    2.2660    0.0050   -0.8860 O   0  0  0  0  0  0  0  0  0  0  0  0
    1.0010   -2.9560    1.6480 H   0  0  0  0  0  0  0  0  0  0  0  0
    1.4660   -4.0550    0.3730 H   0  0  0  0  0  0  0  0  0  0  0  0
    2.7730   -1.7690    1.1470 H   0  0  0  0  0  0  0  0  0  0  0  0
    3.8140   -3.6000    0.0180 H   0  0  0  0  0  0  0  0  0  0  0  0
    2.8520   -3.2690   -1.4950 H   0  0  0  0  0  0  0  0  0  0  0  0
    5.7900   -1.8190    0.5920 H   0  0  0  0  0  0  0  0  0  0  0  0
    7.0160    0.0250   -0.8430 H   0  0  0  0  0  0  0  0  0  0  0  0
    5.6220    0.4330   -2.9960 H   0  0  0  0  0  0  0  0  0  0  0  0
   -1.1790   -0.2230   -2.4160 C   0  0  0  0  0  0  0  0  0  0  0  0
   -0.4160    0.2000   -1.1730 C   0  0  2  0  0  0  0  0  0  0  0  0
    0.2150   -0.9520   -0.5460 N   0  0  0  0  0  0  0  0  0  0  0  0
   -1.3230    0.8880   -0.2000 C   0  0  0  0  0  0  0  0  0  0  0  0
   -1.9540    1.9070   -0.5640 O   0  0  0  0  0  0  0  0  0  0  0  0
   -1.4270   -1.3150   -2.3350 H   0  0  0  0  0  0  0  0  0  0  0  0
   -2.1030    0.3620   -2.5460 H   0  0  0  0  0  0  0  0  0  0  0  0
   -0.5070   -0.1360   -3.2980 H   0  0  0  0  0  0  0  0  0  0  0  0
    0.3260    0.9500   -1.4950 H   0  0  0  0  0  0  0  0  0  0  0  0
   -0.3590   -1.7440   -0.1850 H   0  0  0  0  0  0  0  0  0  0  0  0
   -2.4110   -1.1620    4.2970 C   0  0  0  0  0  0  0  0  0  0  0  0
   -3.0930   -1.2160    2.9660 C   0  0  0  0  0  0  0  0  0  0  0  0
   -3.5090    0.1110    2.4220 C   0  0  2  0  0  0  0  0  0  0  0  0
   -4.1810   -0.1720    1.0680 C   0  0  0  0  0  0  0  0  0  0  0  0
   -2.3390    1.0230    2.1100 C   0  0  2  0  0  0  0  0  0  0  0  0
   -1.4830    0.4070    1.1290 N   0  0  0  0  0  0  0  0  0  0  0  0
   -1.6480    1.5330    3.2800 C   0  0  0  0  0  0  0  0  0  0  0  0
   -0.4120    1.4320    3.3990 O   0  0  0  0  0  0  0  0  0  0  0  0
   -2.3470    2.1450    4.2950 O   0  0  0  0  0  0  0  0  0  0  0  0
   -1.3290   -1.0120    4.2560 H   0  0  0  0  0  0  0  0  0  0  0  0
   -2.9220   -0.4570    4.9680 H   0  0  0  0  0  0  0  0  0  0  0  0
   -2.5570   -2.1780    4.7700 H   0  0  0  0  0  0  0  0  0  0  0  0
   -4.0130   -1.8270    3.0860 H   0  0  0  0  0  0  0  0  0  0  0  0
   -2.4830   -1.7320    2.1980 H   0  0  0  0  0  0  0  0  0  0  0  0
   -4.2510    0.6380    3.0240 H   0  0  0  0  0  0  0  0  0  0  0  0
   -3.3490   -0.4280    0.3760 H   0  0  0  0  0  0  0  0  0  0  0  0
   -4.7180    0.7060    0.7020 H   0  0  0  0  0  0  0  0  0  0  0  0
   -4.8110   -1.0900    1.1430 H   0  0  0  0  0  0  0  0  0  0  0  0
   -2.8040    1.9130    1.5870 H   0  0  0  0  0  0  0  0  0  0  0  0
   -0.9330   -0.4480    1.3810 H   0  0  0  0  0  0  0  0  0  0  0  0
  1 11  1  0  0  0  0
  2  1  1  0  0  0  0
  2 13  1  1  0  0  0
  3 14  1  0  0  0  0
  3  2  1  0  0  0  0
  4  3  1  0  0  0  0
  4  5  2  0  0  0  0
  5 16  1  0  0  0  0
  6 17  1  0  0  0  0
  6  5  1  0  0  0  0
  7  8  2  0  0  0  0
  7  6  1  0  0  0  0
  8  4  1  0  0  0  0
  9  2  1  0  0  0  0
 10  9  2  0  0  0  0
 12  1  1  0  0  0  0
 15  3  1  0  0  0  0
 18  7  1  0  0  0  0
 19 24  1  0  0  0  0
 19 20  1  0  0  0  0
 20 27  1  6  0  0  0
 20 21  1  0  0  0  0
 20 22  1  0  0  0  0
 21  9  1  0  0  0  0
 21 28  1  0  0  0  0
 22 34  1  0  0  0  0
 23 22  2  0  0  0  0
 25 19  1  0  0  0  0
 26 19  1  0  0  0  0
 29 40  1  0  0  0  0
 29 39  1  0  0  0  0
 30 41  1  0  0  0  0
 30 29  1  0  0  0  0
 31 30  1  0  0  0  0
 31 43  1  1  0  0  0
 32 46  1  0  0  0  0
 32 31  1  0  0  0  0
 33 47  1  6  0  0  0
 33 31  1  0  0  0  0
 33 35  1  0  0  0  0
 34 48  1  0  0  0  0
 34 33  1  0  0  0  0
 35 36  2  0  0  0  0
 35 37  1  0  0  0  0
 38 29  1  0  0  0  0
 42 30  1  0  0  0  0
 44 32  1  0  0  0  0
 45 32  1  0  0  0  0
M  END
$$$$
