HAK.pdb
 OpenBabel07022418353D

 50 50  0  0  1  0  0  0  0  0999 V2000
    4.5280   -1.1410    3.4920 N   0  0  0  0  0  0  0  0  0  0  0  0
    3.6520   -1.1250    2.2430 C   0  0  1  0  0  0  0  0  0  0  0  0
    3.8440   -2.4980    1.7170 C   0  0  0  0  0  0  0  0  0  0  0  0
    3.2040   -2.8810    0.4670 C   0  0  0  0  0  0  0  0  0  0  0  0
    2.4630   -2.2430   -0.4730 C   0  0  0  0  0  0  0  0  0  0  0  0
    2.1490   -3.0940   -1.4820 N   0  0  0  0  0  0  0  0  0  0  0  0
    2.7020   -4.2580   -1.1540 C   0  0  0  0  0  0  0  0  0  0  0  0
    3.3470   -4.1710    0.0120 N   0  0  0  0  0  0  0  0  0  0  0  0
    2.3020   -0.8810    2.8500 C   0  0  0  0  0  0  0  0  0  0  0  0
    2.0310   -1.3010    4.0330 O   0  0  0  0  0  0  0  0  0  0  0  0
    4.1480   -1.9750    3.9990 H   0  0  0  0  0  0  0  0  0  0  0  0
    4.2210   -0.3060    4.0500 H   0  0  0  0  0  0  0  0  0  0  0  0
    4.0010   -0.3250    1.6290 H   0  0  0  0  0  0  0  0  0  0  0  0
    3.6000   -3.2880    2.4720 H   0  0  0  0  0  0  0  0  0  0  0  0
    4.9590   -2.6450    1.5570 H   0  0  0  0  0  0  0  0  0  0  0  0
    2.1970   -1.1980   -0.4040 H   0  0  0  0  0  0  0  0  0  0  0  0
    1.5830   -2.7930   -2.2980 H   0  0  0  0  0  0  0  0  0  0  0  0
    2.6100   -5.1370   -1.7910 H   0  0  0  0  0  0  0  0  0  0  0  0
   -0.1230    1.5280    3.0380 C   0  0  0  0  0  0  0  0  0  0  0  0
    0.0350    0.0200    2.7830 C   0  0  2  0  0  0  0  0  0  0  0  0
    1.3280   -0.1800    2.1160 N   0  0  0  0  0  0  0  0  0  0  0  0
   -1.1130   -0.3950    1.9520 C   0  0  0  0  0  0  0  0  0  0  0  0
   -2.3040   -0.2790    2.4110 O   0  0  0  0  0  0  0  0  0  0  0  0
   -0.9390    1.6470    3.7550 H   0  0  0  0  0  0  0  0  0  0  0  0
    0.8240    1.9290    3.4790 H   0  0  0  0  0  0  0  0  0  0  0  0
   -0.3490    2.0700    2.1100 H   0  0  0  0  0  0  0  0  0  0  0  0
    0.0220   -0.4320    3.7900 H   0  0  0  0  0  0  0  0  0  0  0  0
    1.4350    0.2240    1.1630 H   0  0  0  0  0  0  0  0  0  0  0  0
   -1.0110   -0.9290    0.6410 N   0  0  0  0  0  0  0  0  0  0  0  0
   -2.1590   -1.3260   -0.1480 C   0  0  1  0  0  0  0  0  0  0  0  0
   -2.1650   -0.6680   -1.5040 C   0  0  0  0  0  0  0  0  0  0  0  0
   -2.2040    0.8260   -1.4560 C   0  0  0  0  0  0  0  0  0  0  0  0
   -3.4430    1.3430   -0.7440 C   0  0  0  0  0  0  0  0  0  0  0  0
   -3.4280    2.8520   -0.7290 C   0  0  0  0  0  0  0  0  0  0  0  0
   -2.2590    3.3720   -0.0420 N   0  0  0  0  0  0  0  0  0  0  0  0
   -2.1330   -2.8100   -0.4060 C   0  0  0  0  0  0  0  0  0  0  0  0
   -3.0260   -3.3640   -1.0650 O   0  0  0  0  0  0  0  0  0  0  0  0
   -1.1070   -3.5780    0.0910 O   0  0  0  0  0  0  0  0  0  0  0  0
   -0.0800   -1.0440    0.2190 H   0  0  0  0  0  0  0  0  0  0  0  0
   -3.0570   -1.1350    0.4490 H   0  0  0  0  0  0  0  0  0  0  0  0
   -1.1930   -0.9460   -1.9920 H   0  0  0  0  0  0  0  0  0  0  0  0
   -2.9490   -1.0850   -2.1660 H   0  0  0  0  0  0  0  0  0  0  0  0
   -1.2750    1.1880   -0.9770 H   0  0  0  0  0  0  0  0  0  0  0  0
   -2.1980    1.1930   -2.4960 H   0  0  0  0  0  0  0  0  0  0  0  0
   -3.5370    0.9260    0.2690 H   0  0  0  0  0  0  0  0  0  0  0  0
   -4.3190    1.0090   -1.3240 H   0  0  0  0  0  0  0  0  0  0  0  0
   -4.3290    3.2280   -0.2020 H   0  0  0  0  0  0  0  0  0  0  0  0
   -3.4540    3.2110   -1.7640 H   0  0  0  0  0  0  0  0  0  0  0  0
   -2.1920    3.0510    0.9290 H   0  0  0  0  0  0  0  0  0  0  0  0
   -1.3880    3.2530   -0.6040 H   0  0  0  0  0  0  0  0  0  0  0  0
  1 11  1  0  0  0  0
  1 12  1  0  0  0  0
  2 13  1  6  0  0  0
  2  9  1  0  0  0  0
  2  1  1  0  0  0  0
  3  2  1  0  0  0  0
  3 14  1  0  0  0  0
  4  3  1  0  0  0  0
  5 16  1  0  0  0  0
  5  4  2  0  0  0  0
  6  7  1  0  0  0  0
  6  5  1  0  0  0  0
  7  8  2  0  0  0  0
  8  4  1  0  0  0  0
  9 10  2  0  0  0  0
 15  3  1  0  0  0  0
 17  6  1  0  0  0  0
 18  7  1  0  0  0  0
 19 25  1  0  0  0  0
 19 24  1  0  0  0  0
 20 19  1  0  0  0  0
 20 27  1  1  0  0  0
 21 20  1  0  0  0  0
 21  9  1  0  0  0  0
 22 23  2  0  0  0  0
 22 20  1  0  0  0  0
 26 19  1  0  0  0  0
 28 21  1  0  0  0  0
 29 22  1  0  0  0  0
 30 40  1  1  0  0  0
 30 29  1  0  0  0  0
 31 32  1  0  0  0  0
 31 30  1  0  0  0  0
 32 43  1  0  0  0  0
 32 33  1  0  0  0  0
 33 34  1  0  0  0  0
 33 45  1  0  0  0  0
 34 47  1  0  0  0  0
 34 35  1  0  0  0  0
 35 49  1  0  0  0  0
 36 30  1  0  0  0  0
 36 38  1  0  0  0  0
 37 36  2  0  0  0  0
 39 29  1  0  0  0  0
 41 31  1  0  0  0  0
 42 31  1  0  0  0  0
 44 32  1  0  0  0  0
 46 33  1  0  0  0  0
 48 34  1  0  0  0  0
 50 35  1  0  0  0  0
M  END
$$$$
