HAL.pdb
 OpenBabel07022418353D

 48 48  0  0  1  0  0  0  0  0999 V2000
    1.3520   -2.7280    1.0170 N   0  0  0  0  0  0  0  0  0  0  0  0
    2.4270   -1.7470    1.0550 C   0  0  1  0  0  0  0  0  0  0  0  0
    3.6690   -2.3740    0.5090 C   0  0  0  0  0  0  0  0  0  0  0  0
    4.7680   -1.4000    0.5390 C   0  0  0  0  0  0  0  0  0  0  0  0
    5.6330   -1.2330    1.6070 C   0  0  0  0  0  0  0  0  0  0  0  0
    6.4830   -0.2670    1.2590 N   0  0  0  0  0  0  0  0  0  0  0  0
    6.1590    0.1490    0.0230 C   0  0  0  0  0  0  0  0  0  0  0  0
    5.1000   -0.5430   -0.4340 N   0  0  0  0  0  0  0  0  0  0  0  0
    2.0250   -0.4960    0.3740 C   0  0  0  0  0  0  0  0  0  0  0  0
    2.7730    0.5120    0.2990 O   0  0  0  0  0  0  0  0  0  0  0  0
    1.4690   -3.4550    1.7530 H   0  0  0  0  0  0  0  0  0  0  0  0
    1.3000   -3.2200    0.0990 H   0  0  0  0  0  0  0  0  0  0  0  0
    2.6030   -1.5420    2.1450 H   0  0  0  0  0  0  0  0  0  0  0  0
    3.4460   -2.7100   -0.5250 H   0  0  0  0  0  0  0  0  0  0  0  0
    3.9250   -3.2500    1.1480 H   0  0  0  0  0  0  0  0  0  0  0  0
    5.6380   -1.7710    2.5520 H   0  0  0  0  0  0  0  0  0  0  0  0
    7.2620    0.0830    1.8720 H   0  0  0  0  0  0  0  0  0  0  0  0
    6.6480    0.9280   -0.5660 H   0  0  0  0  0  0  0  0  0  0  0  0
    0.0440    0.3700   -2.3630 C   0  0  0  0  0  0  0  0  0  0  0  0
    0.2760    0.7780   -0.9110 C   0  0  2  0  0  0  0  0  0  0  0  0
    0.7300   -0.4260   -0.2260 N   0  0  0  0  0  0  0  0  0  0  0  0
   -0.9790    1.2960   -0.3250 C   0  0  0  0  0  0  0  0  0  0  0  0
   -1.5220    2.3160   -0.7760 O   0  0  0  0  0  0  0  0  0  0  0  0
   -0.8850   -0.2630   -2.3500 H   0  0  0  0  0  0  0  0  0  0  0  0
   -0.0660    1.2380   -3.0190 H   0  0  0  0  0  0  0  0  0  0  0  0
    0.8750   -0.3030   -2.6320 H   0  0  0  0  0  0  0  0  0  0  0  0
    1.1020    1.5240   -0.8510 H   0  0  0  0  0  0  0  0  0  0  0  0
    0.1370   -1.2790   -0.1460 H   0  0  0  0  0  0  0  0  0  0  0  0
   -2.7190   -2.1690    0.8390 C   0  0  0  0  0  0  0  0  0  0  0  0
   -3.7840   -1.3460    1.4260 C   0  0  0  0  0  0  0  0  0  0  0  0
   -5.1320   -2.0300    1.1410 C   0  0  0  0  0  0  0  0  0  0  0  0
   -3.8830    0.0750    1.1090 C   0  0  0  0  0  0  0  0  0  0  0  0
   -2.7690    0.9950    1.4350 C   0  0  2  0  0  0  0  0  0  0  0  0
   -1.5640    0.6150    0.7670 N   0  0  0  0  0  0  0  0  0  0  0  0
   -2.6230    1.3260    2.8450 C   0  0  0  0  0  0  0  0  0  0  0  0
   -1.5290    1.2860    3.4470 O   0  0  0  0  0  0  0  0  0  0  0  0
   -3.7320    1.7050    3.5730 O   0  0  0  0  0  0  0  0  0  0  0  0
   -1.8740   -2.4270    1.5050 H   0  0  0  0  0  0  0  0  0  0  0  0
   -3.1320   -3.1850    0.5510 H   0  0  0  0  0  0  0  0  0  0  0  0
   -2.3950   -1.7520   -0.1450 H   0  0  0  0  0  0  0  0  0  0  0  0
   -3.6950   -1.4410    2.5540 H   0  0  0  0  0  0  0  0  0  0  0  0
   -5.3730   -2.7900    1.8840 H   0  0  0  0  0  0  0  0  0  0  0  0
   -5.0440   -2.5640    0.1500 H   0  0  0  0  0  0  0  0  0  0  0  0
   -5.9170   -1.2610    0.9910 H   0  0  0  0  0  0  0  0  0  0  0  0
   -4.0740    0.1840   -0.0030 H   0  0  0  0  0  0  0  0  0  0  0  0
   -4.8190    0.5230    1.5580 H   0  0  0  0  0  0  0  0  0  0  0  0
   -3.0650    1.9760    0.9290 H   0  0  0  0  0  0  0  0  0  0  0  0
   -1.0700   -0.2280    1.1150 H   0  0  0  0  0  0  0  0  0  0  0  0
  1  2  1  0  0  0  0
  1 11  1  0  0  0  0
  2 13  1  1  0  0  0
  3  4  1  0  0  0  0
  3  2  1  0  0  0  0
  3 15  1  0  0  0  0
  4  5  2  0  0  0  0
  5 16  1  0  0  0  0
  6  5  1  0  0  0  0
  6 17  1  0  0  0  0
  7  6  1  0  0  0  0
  8  7  2  0  0  0  0
  8  4  1  0  0  0  0
  9  2  1  0  0  0  0
 10  9  2  0  0  0  0
 12  1  1  0  0  0  0
 14  3  1  0  0  0  0
 18  7  1  0  0  0  0
 19 24  1  0  0  0  0
 19 20  1  0  0  0  0
 20 27  1  1  0  0  0
 20 22  1  0  0  0  0
 20 21  1  0  0  0  0
 21 28  1  0  0  0  0
 21  9  1  0  0  0  0
 22 34  1  0  0  0  0
 23 22  2  0  0  0  0
 25 19  1  0  0  0  0
 26 19  1  0  0  0  0
 29 30  1  0  0  0  0
 29 38  1  0  0  0  0
 30 41  1  0  0  0  0
 31 30  1  0  0  0  0
 31 42  1  0  0  0  0
 32 30  1  0  0  0  0
 32 33  1  0  0  0  0
 32 46  1  0  0  0  0
 33 47  1  6  0  0  0
 33 35  1  0  0  0  0
 34 48  1  0  0  0  0
 34 33  1  0  0  0  0
 35 36  2  0  0  0  0
 35 37  1  0  0  0  0
 39 29  1  0  0  0  0
 40 29  1  0  0  0  0
 43 31  1  0  0  0  0
 44 31  1  0  0  0  0
 45 32  1  0  0  0  0
M  END
$$$$
