HAM.pdb
 OpenBabel07022418353D

 46 46  0  0  1  0  0  0  0  0999 V2000
    1.1800   -2.8920    0.7650 N   0  0  0  0  0  0  0  0  0  0  0  0
    2.0710   -1.7730    0.6140 C   0  0  1  0  0  0  0  0  0  0  0  0
    3.3520   -2.1820   -0.0230 C   0  0  0  0  0  0  0  0  0  0  0  0
    4.3090   -1.0590   -0.1980 C   0  0  0  0  0  0  0  0  0  0  0  0
    5.2800   -0.6340    0.7120 C   0  0  0  0  0  0  0  0  0  0  0  0
    5.9650    0.4130    0.2230 N   0  0  0  0  0  0  0  0  0  0  0  0
    5.4380    0.6570   -0.9900 C   0  0  0  0  0  0  0  0  0  0  0  0
    4.4460   -0.2230   -1.2440 N   0  0  0  0  0  0  0  0  0  0  0  0
    1.4100   -0.6820   -0.1580 C   0  0  0  0  0  0  0  0  0  0  0  0
    1.9750    0.3960   -0.4550 O   0  0  0  0  0  0  0  0  0  0  0  0
    0.6570   -2.8760    1.6630 H   0  0  0  0  0  0  0  0  0  0  0  0
    1.6190   -3.8120    0.6710 H   0  0  0  0  0  0  0  0  0  0  0  0
    2.3130   -1.4110    1.6490 H   0  0  0  0  0  0  0  0  0  0  0  0
    3.1990   -2.6330   -1.0230 H   0  0  0  0  0  0  0  0  0  0  0  0
    3.8500   -2.9180    0.6540 H   0  0  0  0  0  0  0  0  0  0  0  0
    5.4470   -1.0910    1.6690 H   0  0  0  0  0  0  0  0  0  0  0  0
    6.7460    0.9770    0.6180 H   0  0  0  0  0  0  0  0  0  0  0  0
    5.7220    1.4260   -1.7000 H   0  0  0  0  0  0  0  0  0  0  0  0
   -1.1110   -0.2590   -2.6790 C   0  0  0  0  0  0  0  0  0  0  0  0
   -0.6090    0.2360   -1.3650 C   0  0  2  0  0  0  0  0  0  0  0  0
    0.0590   -0.8190   -0.6070 N   0  0  0  0  0  0  0  0  0  0  0  0
   -1.6820    0.7640   -0.4820 C   0  0  0  0  0  0  0  0  0  0  0  0
   -2.4130    1.6940   -0.9070 O   0  0  0  0  0  0  0  0  0  0  0  0
   -1.3340   -1.3550   -2.5800 H   0  0  0  0  0  0  0  0  0  0  0  0
   -1.9730    0.3020   -3.0660 H   0  0  0  0  0  0  0  0  0  0  0  0
   -0.3200   -0.1990   -3.4580 H   0  0  0  0  0  0  0  0  0  0  0  0
    0.0820    1.0850   -1.5580 H   0  0  0  0  0  0  0  0  0  0  0  0
   -0.4400   -1.7030   -0.3760 H   0  0  0  0  0  0  0  0  0  0  0  0
   -1.4860   -1.0120    4.3950 C   0  0  0  0  0  0  0  0  0  0  0  0
   -3.1270   -1.6000    4.0970 S   0  0  0  0  0  0  0  0  0  0  0  0
   -3.7490   -1.5320    2.4460 C   0  0  0  0  0  0  0  0  0  0  0  0
   -4.0550   -0.2010    1.8580 C   0  0  0  0  0  0  0  0  0  0  0  0
   -2.9710    0.7870    1.6860 C   0  0  2  0  0  0  0  0  0  0  0  0
   -1.9340    0.2710    0.8380 N   0  0  0  0  0  0  0  0  0  0  0  0
   -2.5160    1.5200    2.8650 C   0  0  0  0  0  0  0  0  0  0  0  0
   -3.2750    1.9410    3.7720 O   0  0  0  0  0  0  0  0  0  0  0  0
   -1.1480    1.8120    3.0570 O   0  0  0  0  0  0  0  0  0  0  0  0
   -0.9070   -0.8880    3.4600 H   0  0  0  0  0  0  0  0  0  0  0  0
   -0.9350   -1.7640    5.0320 H   0  0  0  0  0  0  0  0  0  0  0  0
   -1.4820   -0.0870    5.0290 H   0  0  0  0  0  0  0  0  0  0  0  0
   -4.7490   -2.0860    2.4500 H   0  0  0  0  0  0  0  0  0  0  0  0
   -3.1480   -2.1750    1.7370 H   0  0  0  0  0  0  0  0  0  0  0  0
   -4.9160    0.2150    2.4640 H   0  0  0  0  0  0  0  0  0  0  0  0
   -4.5750   -0.4170    0.8620 H   0  0  0  0  0  0  0  0  0  0  0  0
   -3.4850    1.6370    1.0530 H   0  0  0  0  0  0  0  0  0  0  0  0
   -1.3160   -0.4940    1.1500 H   0  0  0  0  0  0  0  0  0  0  0  0
  1 11  1  0  0  0  0
  2  1  1  0  0  0  0
  2 13  1  1  0  0  0
  3  2  1  0  0  0  0
  3 15  1  0  0  0  0
  4  3  1  0  0  0  0
  4  5  2  0  0  0  0
  5 16  1  0  0  0  0
  6 17  1  0  0  0  0
  6  5  1  0  0  0  0
  7  6  1  0  0  0  0
  8  7  2  0  0  0  0
  8  4  1  0  0  0  0
  9  2  1  0  0  0  0
 10  9  2  0  0  0  0
 12  1  1  0  0  0  0
 14  3  1  0  0  0  0
 18  7  1  0  0  0  0
 19 24  1  0  0  0  0
 19 20  1  0  0  0  0
 20 27  1  6  0  0  0
 20 21  1  0  0  0  0
 20 22  1  0  0  0  0
 21 28  1  0  0  0  0
 21  9  1  0  0  0  0
 22 34  1  0  0  0  0
 23 22  2  0  0  0  0
 25 19  1  0  0  0  0
 26 19  1  0  0  0  0
 29 40  1  0  0  0  0
 29 39  1  0  0  0  0
 30 29  1  0  0  0  0
 31 41  1  0  0  0  0
 31 30  1  0  0  0  0
 32 31  1  0  0  0  0
 32 43  1  0  0  0  0
 33 45  1  6  0  0  0
 33 32  1  0  0  0  0
 33 35  1  0  0  0  0
 34 46  1  0  0  0  0
 34 33  1  0  0  0  0
 35 37  2  0  0  0  0
 35 36  1  0  0  0  0
 38 29  1  0  0  0  0
 42 31  1  0  0  0  0
 44 32  1  0  0  0  0
M  END
$$$$
