HAQ.pdb
 OpenBabel07022418353D

 46 46  0  0  1  0  0  0  0  0999 V2000
    1.2780   -2.3920    0.0620 N   0  0  0  0  0  0  0  0  0  0  0  0
    2.0270   -2.3550    1.2700 C   0  0  1  0  0  0  0  0  0  0  0  0
    3.4480   -2.8390    1.1220 C   0  0  0  0  0  0  0  0  0  0  0  0
    4.2400   -2.0580    0.1650 C   0  0  0  0  0  0  0  0  0  0  0  0
    4.9890   -0.9420    0.4930 C   0  0  0  0  0  0  0  0  0  0  0  0
    5.5790   -0.4870   -0.6290 N   0  0  0  0  0  0  0  0  0  0  0  0
    5.2320   -1.2750   -1.6610 C   0  0  0  0  0  0  0  0  0  0  0  0
    4.4210   -2.2200   -1.1580 N   0  0  0  0  0  0  0  0  0  0  0  0
    1.9260   -1.0370    1.8930 C   0  0  0  0  0  0  0  0  0  0  0  0
    2.5150   -0.7550    2.9920 O   0  0  0  0  0  0  0  0  0  0  0  0
    1.7570   -2.0070   -0.7740 H   0  0  0  0  0  0  0  0  0  0  0  0
    0.7390   -3.2540   -0.0990 H   0  0  0  0  0  0  0  0  0  0  0  0
    1.5360   -3.0840    1.9790 H   0  0  0  0  0  0  0  0  0  0  0  0
    3.3750   -3.9280    0.8350 H   0  0  0  0  0  0  0  0  0  0  0  0
    3.8950   -2.8410    2.1440 H   0  0  0  0  0  0  0  0  0  0  0  0
    5.0830   -0.5100    1.4830 H   0  0  0  0  0  0  0  0  0  0  0  0
    6.2110    0.3510   -0.6860 H   0  0  0  0  0  0  0  0  0  0  0  0
    5.5570   -1.1570   -2.7070 H   0  0  0  0  0  0  0  0  0  0  0  0
    1.5270    2.3570    0.8590 C   0  0  0  0  0  0  0  0  0  0  0  0
    0.9770    1.2950    1.7830 C   0  0  2  0  0  0  0  0  0  0  0  0
    1.1470   -0.0330    1.2610 N   0  0  0  0  0  0  0  0  0  0  0  0
   -0.4480    1.5360    2.0920 C   0  0  0  0  0  0  0  0  0  0  0  0
   -0.7830    2.6420    2.5570 O   0  0  0  0  0  0  0  0  0  0  0  0
    1.4520    1.9450   -0.1830 H   0  0  0  0  0  0  0  0  0  0  0  0
    0.8590    3.2470    0.8770 H   0  0  0  0  0  0  0  0  0  0  0  0
    2.5470    2.6700    1.1000 H   0  0  0  0  0  0  0  0  0  0  0  0
    1.5580    1.3600    2.7390 H   0  0  0  0  0  0  0  0  0  0  0  0
    0.6600   -0.2570    0.3590 H   0  0  0  0  0  0  0  0  0  0  0  0
   -4.4710   -1.8420   -1.7480 N   0  0  0  0  0  0  0  0  0  0  0  0
   -4.4300   -0.6510   -0.9740 C   0  0  0  0  0  0  0  0  0  0  0  0
   -5.1210    0.3220   -1.3620 O   0  0  0  0  0  0  0  0  0  0  0  0
   -3.5780   -0.6270    0.2400 C   0  0  0  0  0  0  0  0  0  0  0  0
   -3.6690    0.7290    0.9250 C   0  0  0  0  0  0  0  0  0  0  0  0
   -2.8060    0.7690    2.1670 C   0  0  2  0  0  0  0  0  0  0  0  0
   -1.4080    0.5300    1.8630 N   0  0  0  0  0  0  0  0  0  0  0  0
   -3.3120   -0.1840    3.1640 C   0  0  0  0  0  0  0  0  0  0  0  0
   -2.5730   -1.0670    3.6480 O   0  0  0  0  0  0  0  0  0  0  0  0
   -4.6340   -0.0930    3.5660 O   0  0  0  0  0  0  0  0  0  0  0  0
   -4.4050   -2.7600   -1.2590 H   0  0  0  0  0  0  0  0  0  0  0  0
   -4.5630   -1.8490   -2.7860 H   0  0  0  0  0  0  0  0  0  0  0  0
   -2.5080   -0.7910   -0.0110 H   0  0  0  0  0  0  0  0  0  0  0  0
   -3.9420   -1.4270    0.9090 H   0  0  0  0  0  0  0  0  0  0  0  0
   -4.7100    0.9280    1.2600 H   0  0  0  0  0  0  0  0  0  0  0  0
   -3.3940    1.5210    0.2210 H   0  0  0  0  0  0  0  0  0  0  0  0
   -2.9250    1.8140    2.5770 H   0  0  0  0  0  0  0  0  0  0  0  0
   -1.1590   -0.4110    1.4720 H   0  0  0  0  0  0  0  0  0  0  0  0
  1  2  1  0  0  0  0
  2  9  1  0  0  0  0
  2 13  1  1  0  0  0
  3  2  1  0  0  0  0
  3 15  1  0  0  0  0
  4  5  2  0  0  0  0
  4  3  1  0  0  0  0
  5 16  1  0  0  0  0
  6  5  1  0  0  0  0
  7  8  2  0  0  0  0
  7  6  1  0  0  0  0
  8  4  1  0  0  0  0
  9 10  2  0  0  0  0
 11  1  1  0  0  0  0
 12  1  1  0  0  0  0
 14  3  1  0  0  0  0
 17  6  1  0  0  0  0
 18  7  1  0  0  0  0
 19 25  1  0  0  0  0
 19 26  1  0  0  0  0
 19 20  1  0  0  0  0
 20 22  1  0  0  0  0
 20 27  1  1  0  0  0
 21 20  1  0  0  0  0
 21  9  1  0  0  0  0
 22 23  2  0  0  0  0
 24 19  1  0  0  0  0
 28 21  1  0  0  0  0
 29 39  1  0  0  0  0
 29 30  1  0  0  0  0
 30 32  1  0  0  0  0
 31 30  2  0  0  0  0
 32 42  1  0  0  0  0
 32 33  1  0  0  0  0
 33 43  1  0  0  0  0
 33 34  1  0  0  0  0
 34 45  1  1  0  0  0
 34 36  1  0  0  0  0
 35 22  1  0  0  0  0
 35 34  1  0  0  0  0
 36 38  2  0  0  0  0
 36 37  1  0  0  0  0
 40 29  1  0  0  0  0
 41 32  1  0  0  0  0
 44 33  1  0  0  0  0
 46 35  1  0  0  0  0
M  END
$$$$
