HAS.pdb
 OpenBabel07022418353D

 40 40  0  0  1  0  0  0  0  0999 V2000
    3.3140   -1.7130   -2.4780 N   0  0  0  0  0  0  0  0  0  0  0  0
    1.9370   -1.9290   -2.0950 C   0  0  1  0  0  0  0  0  0  0  0  0
    1.7820   -3.1140   -1.1680 C   0  0  0  0  0  0  0  0  0  0  0  0
    2.5460   -2.9520    0.0840 C   0  0  0  0  0  0  0  0  0  0  0  0
    3.8440   -3.3280    0.3540 C   0  0  0  0  0  0  0  0  0  0  0  0
    4.1520   -2.9950    1.6230 N   0  0  0  0  0  0  0  0  0  0  0  0
    3.0620   -2.4150    2.1500 C   0  0  0  0  0  0  0  0  0  0  0  0
    2.0840   -2.3890    1.2110 N   0  0  0  0  0  0  0  0  0  0  0  0
    1.3700   -0.6860   -1.4650 C   0  0  0  0  0  0  0  0  0  0  0  0
    2.0590    0.3570   -1.3250 O   0  0  0  0  0  0  0  0  0  0  0  0
    3.3870   -0.7330   -2.8660 H   0  0  0  0  0  0  0  0  0  0  0  0
    3.9650   -1.7200   -1.6490 H   0  0  0  0  0  0  0  0  0  0  0  0
    1.3550   -2.1130   -3.0120 H   0  0  0  0  0  0  0  0  0  0  0  0
    2.1790   -3.9950   -1.7220 H   0  0  0  0  0  0  0  0  0  0  0  0
    0.7120   -3.3020   -1.0090 H   0  0  0  0  0  0  0  0  0  0  0  0
    4.5490   -3.8240   -0.3320 H   0  0  0  0  0  0  0  0  0  0  0  0
    5.0540   -3.1380    2.1470 H   0  0  0  0  0  0  0  0  0  0  0  0
    2.8990   -2.0060    3.1450 H   0  0  0  0  0  0  0  0  0  0  0  0
   -1.7720    1.0110   -1.1590 C   0  0  0  0  0  0  0  0  0  0  0  0
   -0.5540    0.5290   -0.3910 C   0  0  2  0  0  0  0  0  0  0  0  0
    0.0310   -0.6410   -1.0010 N   0  0  0  0  0  0  0  0  0  0  0  0
   -0.9600    0.1980    0.9970 C   0  0  0  0  0  0  0  0  0  0  0  0
   -0.7670   -0.9560    1.4480 O   0  0  0  0  0  0  0  0  0  0  0  0
   -2.2490    0.2070   -1.7480 H   0  0  0  0  0  0  0  0  0  0  0  0
   -2.5080    1.4220   -0.4660 H   0  0  0  0  0  0  0  0  0  0  0  0
   -1.4840    1.8400   -1.8630 H   0  0  0  0  0  0  0  0  0  0  0  0
    0.1470    1.3750   -0.3260 H   0  0  0  0  0  0  0  0  0  0  0  0
   -0.5370   -1.5080   -1.1190 H   0  0  0  0  0  0  0  0  0  0  0  0
    0.2160    1.2600    3.9390 O   0  0  0  0  0  0  0  0  0  0  0  0
   -1.1150    1.6460    4.1750 C   0  0  0  0  0  0  0  0  0  0  0  0
   -1.9720    0.8340    3.2280 C   0  0  2  0  0  0  0  0  0  0  0  0
   -1.5690    1.1350    1.8690 N   0  0  0  0  0  0  0  0  0  0  0  0
   -3.4050    1.0230    3.4530 C   0  0  0  0  0  0  0  0  0  0  0  0
   -4.1300    1.4090    2.5060 O   0  0  0  0  0  0  0  0  0  0  0  0
   -4.0000    0.7920    4.6800 O   0  0  0  0  0  0  0  0  0  0  0  0
    0.7040    2.0290    3.5540 H   0  0  0  0  0  0  0  0  0  0  0  0
   -1.3410    1.3290    5.2200 H   0  0  0  0  0  0  0  0  0  0  0  0
   -1.2280    2.7310    4.0230 H   0  0  0  0  0  0  0  0  0  0  0  0
   -1.7010   -0.2430    3.4010 H   0  0  0  0  0  0  0  0  0  0  0  0
   -1.7400    2.1000    1.5210 H   0  0  0  0  0  0  0  0  0  0  0  0
  1  2  1  0  0  0  0
  1 12  1  0  0  0  0
  2 13  1  6  0  0  0
  2  9  1  0  0  0  0
  2  3  1  0  0  0  0
  3 15  1  0  0  0  0
  3  4  1  0  0  0  0
  4  5  2  0  0  0  0
  4  8  1  0  0  0  0
  5  6  1  0  0  0  0
  6 17  1  0  0  0  0
  6  7  1  0  0  0  0
  7 18  1  0  0  0  0
  8  7  2  0  0  0  0
  9 10  2  0  0  0  0
  9 21  1  0  0  0  0
 11  1  1  0  0  0  0
 14  3  1  0  0  0  0
 16  5  1  0  0  0  0
 19 25  1  0  0  0  0
 19 20  1  0  0  0  0
 20 27  1  1  0  0  0
 20 22  1  0  0  0  0
 21 20  1  0  0  0  0
 22 23  2  0  0  0  0
 22 32  1  0  0  0  0
 24 19  1  0  0  0  0
 26 19  1  0  0  0  0
 28 21  1  0  0  0  0
 29 30  1  0  0  0  0
 30 37  1  0  0  0  0
 31 39  1  1  0  0  0
 31 33  1  0  0  0  0
 31 30  1  0  0  0  0
 32 31  1  0  0  0  0
 33 35  1  0  0  0  0
 34 33  2  0  0  0  0
 36 29  1  0  0  0  0
 38 30  1  0  0  0  0
 40 32  1  0  0  0  0
M  END
$$$$
