HAT.pdb
 OpenBabel07022418353D

 43 43  0  0  1  0  0  0  0  0999 V2000
   -1.1900   -3.8860   -2.7390 N   0  0  0  0  0  0  0  0  0  0  0  0
   -0.9170   -3.2850   -1.3980 C   0  0  1  0  0  0  0  0  0  0  0  0
    0.3950   -3.8560   -0.9910 C   0  0  0  0  0  0  0  0  0  0  0  0
    0.8880   -3.4230    0.3280 C   0  0  0  0  0  0  0  0  0  0  0  0
    0.5950   -4.0870    1.5150 C   0  0  0  0  0  0  0  0  0  0  0  0
    1.2120   -3.4150    2.4790 N   0  0  0  0  0  0  0  0  0  0  0  0
    1.8800   -2.3650    1.9810 C   0  0  0  0  0  0  0  0  0  0  0  0
    1.6640   -2.3930    0.6600 N   0  0  0  0  0  0  0  0  0  0  0  0
   -0.9960   -1.8500   -1.6010 C   0  0  0  0  0  0  0  0  0  0  0  0
   -1.0100   -1.3520   -2.7820 O   0  0  0  0  0  0  0  0  0  0  0  0
   -2.2300   -3.8370   -2.8610 H   0  0  0  0  0  0  0  0  0  0  0  0
   -0.9540   -4.8970   -2.6660 H   0  0  0  0  0  0  0  0  0  0  0  0
   -1.7270   -3.7030   -0.7530 H   0  0  0  0  0  0  0  0  0  0  0  0
    1.1210   -3.6100   -1.8050 H   0  0  0  0  0  0  0  0  0  0  0  0
    0.2850   -4.9830   -0.9450 H   0  0  0  0  0  0  0  0  0  0  0  0
   -0.0160   -4.9740    1.6180 H   0  0  0  0  0  0  0  0  0  0  0  0
    1.1720   -3.6850    3.4970 H   0  0  0  0  0  0  0  0  0  0  0  0
    2.4760   -1.6390    2.5390 H   0  0  0  0  0  0  0  0  0  0  0  0
   -2.6050    1.0380   -0.6940 C   0  0  0  0  0  0  0  0  0  0  0  0
   -1.1590    0.5460   -0.8690 C   0  0  2  0  0  0  0  0  0  0  0  0
   -1.0690   -0.8580   -0.5630 N   0  0  0  0  0  0  0  0  0  0  0  0
   -0.2930    1.4360   -0.1090 C   0  0  0  0  0  0  0  0  0  0  0  0
   -0.2910    2.6740   -0.4020 O   0  0  0  0  0  0  0  0  0  0  0  0
   -2.9430    0.9150    0.3510 H   0  0  0  0  0  0  0  0  0  0  0  0
   -3.2600    0.5750   -1.4420 H   0  0  0  0  0  0  0  0  0  0  0  0
   -2.5730    2.1270   -0.9040 H   0  0  0  0  0  0  0  0  0  0  0  0
   -0.9720    0.6740   -1.9540 H   0  0  0  0  0  0  0  0  0  0  0  0
   -1.0530   -1.2120    0.4140 H   0  0  0  0  0  0  0  0  0  0  0  0
    1.9810    3.0640    3.8470 C   0  0  0  0  0  0  0  0  0  0  0  0
    1.1620    1.9960    3.1530 C   0  0  1  0  0  0  0  0  0  0  0  0
   -0.1850    2.3330    3.3330 O   0  0  0  0  0  0  0  0  0  0  0  0
    1.4010    2.0100    1.6540 C   0  0  2  0  0  0  0  0  0  0  0  0
    0.5770    1.0790    0.9550 N   0  0  0  0  0  0  0  0  0  0  0  0
    2.8320    1.6770    1.4460 C   0  0  0  0  0  0  0  0  0  0  0  0
    3.1170    0.6860    0.7300 O   0  0  0  0  0  0  0  0  0  0  0  0
    3.8590    2.4210    2.0140 O   0  0  0  0  0  0  0  0  0  0  0  0
    2.2300    3.8490    3.0910 H   0  0  0  0  0  0  0  0  0  0  0  0
    1.3790    3.5070    4.6510 H   0  0  0  0  0  0  0  0  0  0  0  0
    2.9400    2.6610    4.2330 H   0  0  0  0  0  0  0  0  0  0  0  0
    1.4210    1.0400    3.6110 H   0  0  0  0  0  0  0  0  0  0  0  0
   -0.3100    3.2910    3.5320 H   0  0  0  0  0  0  0  0  0  0  0  0
    1.2710    3.0470    1.2520 H   0  0  0  0  0  0  0  0  0  0  0  0
    0.5840    0.0750    1.2200 H   0  0  0  0  0  0  0  0  0  0  0  0
  1 12  1  0  0  0  0
  1  2  1  0  0  0  0
  2  3  1  0  0  0  0
  2 13  1  1  0  0  0
  3 15  1  0  0  0  0
  3  4  1  0  0  0  0
  4  8  1  0  0  0  0
  4  5  2  0  0  0  0
  5 16  1  0  0  0  0
  5  6  1  0  0  0  0
  6 17  1  0  0  0  0
  7  6  1  0  0  0  0
  7 18  1  0  0  0  0
  8  7  2  0  0  0  0
  9  2  1  0  0  0  0
  9 21  1  0  0  0  0
 10  9  2  0  0  0  0
 11  1  1  0  0  0  0
 14  3  1  0  0  0  0
 19 24  1  0  0  0  0
 20 27  1  6  0  0  0
 20 19  1  0  0  0  0
 20 21  1  0  0  0  0
 20 22  1  0  0  0  0
 21 28  1  0  0  0  0
 22 33  1  0  0  0  0
 23 22  2  0  0  0  0
 25 19  1  0  0  0  0
 26 19  1  0  0  0  0
 29 39  1  0  0  0  0
 29 38  1  0  0  0  0
 30 31  1  0  0  0  0
 30 40  1  1  0  0  0
 30 29  1  0  0  0  0
 31 41  1  0  0  0  0
 32 42  1  6  0  0  0
 32 30  1  0  0  0  0
 33 43  1  0  0  0  0
 33 32  1  0  0  0  0
 34 32  1  0  0  0  0
 34 36  1  0  0  0  0
 35 34  2  0  0  0  0
 37 29  1  0  0  0  0
M  END
$$$$
