HAV.pdb
 OpenBabel07022418353D

 45 45  0  0  1  0  0  0  0  0999 V2000
   -0.8240   -1.8080   -3.5750 N   0  0  0  0  0  0  0  0  0  0  0  0
   -0.9990   -1.0770   -2.3390 C   0  0  1  0  0  0  0  0  0  0  0  0
   -1.4720   -2.0930   -1.2820 C   0  0  0  0  0  0  0  0  0  0  0  0
   -0.4250   -3.1670   -1.1480 C   0  0  0  0  0  0  0  0  0  0  0  0
    0.6620   -3.1560   -0.3020 C   0  0  0  0  0  0  0  0  0  0  0  0
    1.3870   -4.2820   -0.4650 N   0  0  0  0  0  0  0  0  0  0  0  0
    0.7730   -5.0010   -1.3980 C   0  0  0  0  0  0  0  0  0  0  0  0
   -0.3330   -4.3310   -1.8220 N   0  0  0  0  0  0  0  0  0  0  0  0
    0.2510   -0.4260   -1.8710 C   0  0  0  0  0  0  0  0  0  0  0  0
    1.3210   -0.6900   -2.4710 O   0  0  0  0  0  0  0  0  0  0  0  0
   -1.4210   -1.4170   -4.3480 H   0  0  0  0  0  0  0  0  0  0  0  0
   -1.1160   -2.7990   -3.4700 H   0  0  0  0  0  0  0  0  0  0  0  0
   -1.8370   -0.3760   -2.4780 H   0  0  0  0  0  0  0  0  0  0  0  0
   -2.3900   -2.5980   -1.6370 H   0  0  0  0  0  0  0  0  0  0  0  0
   -1.6070   -1.6270   -0.2970 H   0  0  0  0  0  0  0  0  0  0  0  0
    0.9120   -2.3770    0.3830 H   0  0  0  0  0  0  0  0  0  0  0  0
    2.2610   -4.5490    0.0400 H   0  0  0  0  0  0  0  0  0  0  0  0
    1.0580   -5.9630   -1.7940 H   0  0  0  0  0  0  0  0  0  0  0  0
    1.5520    2.5790   -0.7460 C   0  0  0  0  0  0  0  0  0  0  0  0
    1.5210    1.1090   -0.3290 C   0  0  2  0  0  0  0  0  0  0  0  0
    0.3040    0.4750   -0.7870 N   0  0  0  0  0  0  0  0  0  0  0  0
    1.6250    0.9780    1.1390 C   0  0  0  0  0  0  0  0  0  0  0  0
    2.6290    1.4710    1.7400 O   0  0  0  0  0  0  0  0  0  0  0  0
    0.7940    3.1780   -0.2400 H   0  0  0  0  0  0  0  0  0  0  0  0
    1.5070    2.6090   -1.8370 H   0  0  0  0  0  0  0  0  0  0  0  0
    2.5480    2.9550   -0.4290 H   0  0  0  0  0  0  0  0  0  0  0  0
    2.3910    0.6580   -0.8180 H   0  0  0  0  0  0  0  0  0  0  0  0
   -0.5810    0.7010   -0.2870 H   0  0  0  0  0  0  0  0  0  0  0  0
   -1.5960    0.4810    3.9390 C   0  0  0  0  0  0  0  0  0  0  0  0
   -0.2140    0.9860    4.1810 C   0  0  0  0  0  0  0  0  0  0  0  0
   -0.1060    2.4900    3.9180 C   0  0  0  0  0  0  0  0  0  0  0  0
    0.8490    0.2600    3.3920 C   0  0  2  0  0  0  0  0  0  0  0  0
    0.6830    0.3350    1.9820 N   0  0  0  0  0  0  0  0  0  0  0  0
    0.9430   -1.1380    3.8750 C   0  0  0  0  0  0  0  0  0  0  0  0
    1.1000   -1.3040    5.1380 O   0  0  0  0  0  0  0  0  0  0  0  0
    0.8780   -2.2570    3.0940 O   0  0  0  0  0  0  0  0  0  0  0  0
   -2.0730    0.0310    4.8440 H   0  0  0  0  0  0  0  0  0  0  0  0
   -1.6590   -0.3030    3.1480 H   0  0  0  0  0  0  0  0  0  0  0  0
   -2.2800    1.3350    3.6560 H   0  0  0  0  0  0  0  0  0  0  0  0
    0.0220    0.8450    5.2560 H   0  0  0  0  0  0  0  0  0  0  0  0
   -0.6550    3.0700    4.6890 H   0  0  0  0  0  0  0  0  0  0  0  0
   -0.5630    2.7570    2.9400 H   0  0  0  0  0  0  0  0  0  0  0  0
    0.9540    2.8060    3.9840 H   0  0  0  0  0  0  0  0  0  0  0  0
    1.8190    0.7530    3.7040 H   0  0  0  0  0  0  0  0  0  0  0  0
   -0.1460   -0.0860    1.5280 H   0  0  0  0  0  0  0  0  0  0  0  0
  1 12  1  0  0  0  0
  1  2  1  0  0  0  0
  2 13  1  6  0  0  0
  2  9  1  0  0  0  0
  2  3  1  0  0  0  0
  3  4  1  0  0  0  0
  3 15  1  0  0  0  0
  4  5  2  0  0  0  0
  5 16  1  0  0  0  0
  6  5  1  0  0  0  0
  6 17  1  0  0  0  0
  7  6  1  0  0  0  0
  8  7  2  0  0  0  0
  8  4  1  0  0  0  0
  9 21  1  0  0  0  0
 10  9  2  0  0  0  0
 11  1  1  0  0  0  0
 14  3  1  0  0  0  0
 18  7  1  0  0  0  0
 19 26  1  0  0  0  0
 19 20  1  0  0  0  0
 19 24  1  0  0  0  0
 20 27  1  6  0  0  0
 20 22  1  0  0  0  0
 21 20  1  0  0  0  0
 21 28  1  0  0  0  0
 22 23  2  0  0  0  0
 22 33  1  0  0  0  0
 25 19  1  0  0  0  0
 29 30  1  0  0  0  0
 29 37  1  0  0  0  0
 30 40  1  0  0  0  0
 31 43  1  0  0  0  0
 31 30  1  0  0  0  0
 31 41  1  0  0  0  0
 32 44  1  1  0  0  0
 32 34  1  0  0  0  0
 32 30  1  0  0  0  0
 33 32  1  0  0  0  0
 34 35  1  0  0  0  0
 36 34  2  0  0  0  0
 38 29  1  0  0  0  0
 39 29  1  0  0  0  0
 42 31  1  0  0  0  0
 45 33  1  0  0  0  0
M  END
$$$$
