HAY.pdb
 OpenBabel07022418353D

 50 51  0  0  1  0  0  0  0  0999 V2000
    3.3100   -1.4830    3.1030 N   0  0  0  0  0  0  0  0  0  0  0  0
    2.3910   -0.6290    2.3790 C   0  0  1  0  0  0  0  0  0  0  0  0
    1.9260   -1.3090    1.1090 C   0  0  0  0  0  0  0  0  0  0  0  0
    3.1010   -1.5980    0.2480 C   0  0  0  0  0  0  0  0  0  0  0  0
    3.6640   -0.7790   -0.7340 C   0  0  0  0  0  0  0  0  0  0  0  0
    4.7150   -1.3990   -1.2890 N   0  0  0  0  0  0  0  0  0  0  0  0
    4.8360   -2.5950   -0.6840 C   0  0  0  0  0  0  0  0  0  0  0  0
    3.8570   -2.7110    0.2460 N   0  0  0  0  0  0  0  0  0  0  0  0
    1.2280   -0.2420    3.2370 C   0  0  0  0  0  0  0  0  0  0  0  0
    1.1250   -0.6420    4.4270 O   0  0  0  0  0  0  0  0  0  0  0  0
    2.8430   -1.7360    4.0120 H   0  0  0  0  0  0  0  0  0  0  0  0
    3.4400   -2.3500    2.5610 H   0  0  0  0  0  0  0  0  0  0  0  0
    2.9350    0.2980    2.1290 H   0  0  0  0  0  0  0  0  0  0  0  0
    1.5140   -2.3060    1.4200 H   0  0  0  0  0  0  0  0  0  0  0  0
    1.1320   -0.7650    0.5980 H   0  0  0  0  0  0  0  0  0  0  0  0
    3.2480    0.1950   -0.9480 H   0  0  0  0  0  0  0  0  0  0  0  0
    5.3290   -1.0300   -2.0500 H   0  0  0  0  0  0  0  0  0  0  0  0
    5.6110   -3.3290   -0.9290 H   0  0  0  0  0  0  0  0  0  0  0  0
   -1.0640    2.4850    3.6870 C   0  0  0  0  0  0  0  0  0  0  0  0
   -0.9460    0.9800    3.5660 C   0  0  2  0  0  0  0  0  0  0  0  0
    0.1870    0.5940    2.7510 N   0  0  0  0  0  0  0  0  0  0  0  0
   -2.1720    0.4980    2.9010 C   0  0  0  0  0  0  0  0  0  0  0  0
   -3.3000    0.7050    3.4020 O   0  0  0  0  0  0  0  0  0  0  0  0
   -0.1140    2.9950    3.4000 H   0  0  0  0  0  0  0  0  0  0  0  0
   -1.2940    2.7480    4.7400 H   0  0  0  0  0  0  0  0  0  0  0  0
   -1.8870    2.8820    3.0650 H   0  0  0  0  0  0  0  0  0  0  0  0
   -0.7980    0.5070    4.5680 H   0  0  0  0  0  0  0  0  0  0  0  0
    0.2920    0.9200    1.7510 H   0  0  0  0  0  0  0  0  0  0  0  0
    1.0140   -1.3290   -3.6950 O   0  0  0  0  0  0  0  0  0  0  0  0
   -0.0540   -0.9970   -2.8650 C   0  0  0  0  0  0  0  0  0  0  0  0
   -0.0300    0.1360   -2.0540 C   0  0  0  0  0  0  0  0  0  0  0  0
   -1.1050    0.4230   -1.2530 C   0  0  0  0  0  0  0  0  0  0  0  0
   -2.2260   -0.3780   -1.2190 C   0  0  0  0  0  0  0  0  0  0  0  0
   -3.3850   -0.0730   -0.3580 C   0  0  0  0  0  0  0  0  0  0  0  0
   -3.2730   -0.6970    1.0010 C   0  0  2  0  0  0  0  0  0  0  0  0
   -2.0810   -0.2090    1.6810 N   0  0  0  0  0  0  0  0  0  0  0  0
   -3.2470   -2.1970    0.9220 C   0  0  0  0  0  0  0  0  0  0  0  0
   -4.1780   -2.8390    0.3760 O   0  0  0  0  0  0  0  0  0  0  0  0
   -2.2600   -1.5000   -2.0160 C   0  0  0  0  0  0  0  0  0  0  0  0
   -1.1680   -1.8000   -2.8350 C   0  0  0  0  0  0  0  0  0  0  0  0
   -2.1910   -2.9260    1.4510 O   0  0  0  0  0  0  0  0  0  0  0  0
    1.2650   -0.7940   -4.5010 H   0  0  0  0  0  0  0  0  0  0  0  0
    0.8640    0.7450   -2.1030 H   0  0  0  0  0  0  0  0  0  0  0  0
   -1.0300    1.3310   -0.6350 H   0  0  0  0  0  0  0  0  0  0  0  0
   -4.3400   -0.4280   -0.8120 H   0  0  0  0  0  0  0  0  0  0  0  0
   -3.4450    1.0160   -0.2240 H   0  0  0  0  0  0  0  0  0  0  0  0
   -4.1840   -0.4300    1.5750 H   0  0  0  0  0  0  0  0  0  0  0  0
   -1.1570   -0.4080    1.2220 H   0  0  0  0  0  0  0  0  0  0  0  0
   -3.0870   -2.1940   -2.0640 H   0  0  0  0  0  0  0  0  0  0  0  0
   -1.1680   -2.6750   -3.4710 H   0  0  0  0  0  0  0  0  0  0  0  0
  1 11  1  0  0  0  0
  2 13  1  6  0  0  0
  2  1  1  0  0  0  0
  2  9  1  0  0  0  0
  3 14  1  0  0  0  0
  3  2  1  0  0  0  0
  4  3  1  0  0  0  0
  5  4  2  0  0  0  0
  6  5  1  0  0  0  0
  6  7  1  0  0  0  0
  7  8  2  0  0  0  0
  8  4  1  0  0  0  0
  9 10  2  0  0  0  0
 12  1  1  0  0  0  0
 15  3  1  0  0  0  0
 16  5  1  0  0  0  0
 17  6  1  0  0  0  0
 18  7  1  0  0  0  0
 19 25  1  0  0  0  0
 20 19  1  0  0  0  0
 20 27  1  1  0  0  0
 21  9  1  0  0  0  0
 21 20  1  0  0  0  0
 22 23  2  0  0  0  0
 22 20  1  0  0  0  0
 24 19  1  0  0  0  0
 26 19  1  0  0  0  0
 28 21  1  0  0  0  0
 29 30  1  0  0  0  0
 30 40  2  0  0  0  0
 30 31  1  0  0  0  0
 31 32  2  0  0  0  0
 32 33  1  0  0  0  0
 32 44  1  0  0  0  0
 33 34  1  0  0  0  0
 34 46  1  0  0  0  0
 34 35  1  0  0  0  0
 35 47  1  1  0  0  0
 35 36  1  0  0  0  0
 36 22  1  0  0  0  0
 37 35  1  0  0  0  0
 37 41  1  0  0  0  0
 38 37  2  0  0  0  0
 39 33  2  0  0  0  0
 40 39  1  0  0  0  0
 42 29  1  0  0  0  0
 43 31  1  0  0  0  0
 45 34  1  0  0  0  0
 48 36  1  0  0  0  0
 49 39  1  0  0  0  0
 50 40  1  0  0  0  0
M  END
$$$$
