HCA.pdb
 OpenBabel07022418363D

 40 40  0  0  1  0  0  0  0  0999 V2000
   -1.6500   -0.3420   -3.3440 N   0  0  0  0  0  0  0  0  0  0  0  0
   -1.5390   -0.3180   -1.8620 C   0  0  1  0  0  0  0  0  0  0  0  0
   -1.9610   -1.6970   -1.4420 C   0  0  0  0  0  0  0  0  0  0  0  0
   -1.9520   -1.9280   -0.0030 C   0  0  0  0  0  0  0  0  0  0  0  0
   -3.0230   -1.7030    0.8600 C   0  0  0  0  0  0  0  0  0  0  0  0
   -2.6850   -2.0260    2.1150 N   0  0  0  0  0  0  0  0  0  0  0  0
   -1.4170   -2.4550    2.0730 C   0  0  0  0  0  0  0  0  0  0  0  0
   -0.9770   -2.3920    0.7800 N   0  0  0  0  0  0  0  0  0  0  0  0
   -0.1630    0.0590   -1.5850 C   0  0  0  0  0  0  0  0  0  0  0  0
    0.7210   -0.0100   -2.5180 O   0  0  0  0  0  0  0  0  0  0  0  0
   -2.3890   -0.9880   -3.6370 H   0  0  0  0  0  0  0  0  0  0  0  0
   -1.7680    0.6310   -3.7010 H   0  0  0  0  0  0  0  0  0  0  0  0
   -2.3060    0.3890   -1.5250 H   0  0  0  0  0  0  0  0  0  0  0  0
   -1.4040   -2.4890   -2.0030 H   0  0  0  0  0  0  0  0  0  0  0  0
   -3.0380   -1.7870   -1.7860 H   0  0  0  0  0  0  0  0  0  0  0  0
   -3.9840   -1.3200    0.5380 H   0  0  0  0  0  0  0  0  0  0  0  0
   -3.2910   -1.9540    2.9360 H   0  0  0  0  0  0  0  0  0  0  0  0
   -0.8220   -2.7990    2.9200 H   0  0  0  0  0  0  0  0  0  0  0  0
    0.3840    0.5280   -0.3600 N   0  0  0  0  0  0  0  0  0  0  0  0
    1.7740    0.8810   -0.2290 C   0  0  1  0  0  0  0  0  0  0  0  0
    1.9600    2.3970   -0.2750 C   0  0  0  0  0  0  0  0  0  0  0  0
    3.7310    2.7230   -0.1030 S   0  0  0  0  0  0  0  0  0  0  0  0
    2.3630    0.3350    1.0070 C   0  0  0  0  0  0  0  0  0  0  0  0
    3.6230    0.4990    1.2130 O   0  0  0  0  0  0  0  0  0  0  0  0
   -0.2420    0.6140    0.4540 H   0  0  0  0  0  0  0  0  0  0  0  0
    2.3490    0.5220   -1.1320 H   0  0  0  0  0  0  0  0  0  0  0  0
    1.6440    2.7350   -1.2600 H   0  0  0  0  0  0  0  0  0  0  0  0
    1.4510    2.8850    0.5680 H   0  0  0  0  0  0  0  0  0  0  0  0
    3.9980    4.0240    0.3240 H   0  0  0  0  0  0  0  0  0  0  0  0
    1.7440   -0.3930    4.4870 C   0  0  0  0  0  0  0  0  0  0  0  0
    2.3310   -0.8780    3.2140 C   0  0  2  0  0  0  0  0  0  0  0  0
    1.7020   -0.3630    2.0250 N   0  0  0  0  0  0  0  0  0  0  0  0
    2.3400   -2.3630    3.2170 C   0  0  0  0  0  0  0  0  0  0  0  0
    1.8340   -2.9630    2.2430 O   0  0  0  0  0  0  0  0  0  0  0  0
    2.8800   -3.1200    4.2430 O   0  0  0  0  0  0  0  0  0  0  0  0
    1.8760   -1.1790    5.2600 H   0  0  0  0  0  0  0  0  0  0  0  0
    2.2260    0.5190    4.8940 H   0  0  0  0  0  0  0  0  0  0  0  0
    0.6400   -0.2600    4.3770 H   0  0  0  0  0  0  0  0  0  0  0  0
    3.4150   -0.5810    3.1390 H   0  0  0  0  0  0  0  0  0  0  0  0
    0.6790   -0.5110    1.9140 H   0  0  0  0  0  0  0  0  0  0  0  0
  1  2  1  0  0  0  0
  2  9  1  0  0  0  0
  2 13  1  1  0  0  0
  2  3  1  0  0  0  0
  3  4  1  0  0  0  0
  4  8  1  0  0  0  0
  4  5  2  0  0  0  0
  5  6  1  0  0  0  0
  6 17  1  0  0  0  0
  7  6  1  0  0  0  0
  7 18  1  0  0  0  0
  8  7  2  0  0  0  0
  9 19  1  0  0  0  0
 10  9  2  0  0  0  0
 11  1  1  0  0  0  0
 12  1  1  0  0  0  0
 14  3  1  0  0  0  0
 15  3  1  0  0  0  0
 16  5  1  0  0  0  0
 19 20  1  0  0  0  0
 19 25  1  0  0  0  0
 20 26  1  6  0  0  0
 20 23  1  0  0  0  0
 21 20  1  0  0  0  0
 21 22  1  0  0  0  0
 21 28  1  0  0  0  0
 22 29  1  0  0  0  0
 23 24  2  0  0  0  0
 23 32  1  0  0  0  0
 27 21  1  0  0  0  0
 30 37  1  0  0  0  0
 30 36  1  0  0  0  0
 31 39  1  6  0  0  0
 31 33  1  0  0  0  0
 31 30  1  0  0  0  0
 32 31  1  0  0  0  0
 33 35  1  0  0  0  0
 34 33  2  0  0  0  0
 38 30  1  0  0  0  0
 40 32  1  0  0  0  0
M  END
$$$$
