HCD.pdb
 OpenBabel07022418363D

 43 43  0  0  1  0  0  0  0  0999 V2000
    1.0090   -2.6400    1.2550 N   0  0  0  0  0  0  0  0  0  0  0  0
    2.0810   -1.7910    1.6690 C   0  0  1  0  0  0  0  0  0  0  0  0
    3.4370   -2.3820    1.4680 C   0  0  0  0  0  0  0  0  0  0  0  0
    3.7710   -2.7200    0.0900 C   0  0  0  0  0  0  0  0  0  0  0  0
    3.0200   -2.5760   -1.0430 C   0  0  0  0  0  0  0  0  0  0  0  0
    3.7540   -3.0280   -2.0630 N   0  0  0  0  0  0  0  0  0  0  0  0
    4.9600   -3.4560   -1.5940 C   0  0  0  0  0  0  0  0  0  0  0  0
    4.9430   -3.2580   -0.2890 N   0  0  0  0  0  0  0  0  0  0  0  0
    1.9160   -0.4350    1.1450 C   0  0  0  0  0  0  0  0  0  0  0  0
    2.7300    0.4980    1.3540 O   0  0  0  0  0  0  0  0  0  0  0  0
    1.3160   -3.5130    0.7770 H   0  0  0  0  0  0  0  0  0  0  0  0
    0.2820   -2.8000    1.9830 H   0  0  0  0  0  0  0  0  0  0  0  0
    1.9680   -1.6890    2.7930 H   0  0  0  0  0  0  0  0  0  0  0  0
    3.4700   -3.3330    2.0670 H   0  0  0  0  0  0  0  0  0  0  0  0
    4.1930   -1.7210    1.9370 H   0  0  0  0  0  0  0  0  0  0  0  0
    2.0320   -2.1750   -1.0850 H   0  0  0  0  0  0  0  0  0  0  0  0
    3.5200   -3.0800   -3.0780 H   0  0  0  0  0  0  0  0  0  0  0  0
    5.7840   -3.8800   -2.1680 H   0  0  0  0  0  0  0  0  0  0  0  0
    0.7760   -0.1360    0.3530 N   0  0  0  0  0  0  0  0  0  0  0  0
    0.5730    1.1790   -0.1820 C   0  0  1  0  0  0  0  0  0  0  0  0
    0.5470    1.2000   -1.6920 C   0  0  0  0  0  0  0  0  0  0  0  0
    0.2860    2.8950   -2.2830 S   0  0  0  0  0  0  0  0  0  0  0  0
   -0.6590    1.7490    0.4070 C   0  0  0  0  0  0  0  0  0  0  0  0
   -1.0430    2.9030    0.0840 O   0  0  0  0  0  0  0  0  0  0  0  0
    0.0550   -0.8730    0.1390 H   0  0  0  0  0  0  0  0  0  0  0  0
    1.4140    1.8530    0.1220 H   0  0  0  0  0  0  0  0  0  0  0  0
    1.4890    0.7920   -2.0690 H   0  0  0  0  0  0  0  0  0  0  0  0
   -0.2990    0.5870   -2.0940 H   0  0  0  0  0  0  0  0  0  0  0  0
    0.8470    3.7940   -1.3300 H   0  0  0  0  0  0  0  0  0  0  0  0
   -1.4240    0.9970    1.3440 N   0  0  0  0  0  0  0  0  0  0  0  0
   -2.6270    1.6110    1.8890 C   0  0  1  0  0  0  0  0  0  0  0  0
   -3.8100    0.7510    1.4310 C   0  0  0  0  0  0  0  0  0  0  0  0
   -3.6440   -0.6290    1.9460 C   0  0  0  0  0  0  0  0  0  0  0  0
   -3.9330   -0.8140    3.1750 O   0  0  0  0  0  0  0  0  0  0  0  0
   -2.5970    1.6750    3.3600 C   0  0  0  0  0  0  0  0  0  0  0  0
   -3.5990    2.1910    3.9330 O   0  0  0  0  0  0  0  0  0  0  0  0
   -3.1990   -1.6900    1.1540 O   0  0  0  0  0  0  0  0  0  0  0  0
   -1.5660    1.2190    4.1530 O   0  0  0  0  0  0  0  0  0  0  0  0
   -1.1360    0.0390    1.6350 H   0  0  0  0  0  0  0  0  0  0  0  0
   -2.7870    2.6220    1.4790 H   0  0  0  0  0  0  0  0  0  0  0  0
   -3.8830    0.7180    0.3400 H   0  0  0  0  0  0  0  0  0  0  0  0
   -4.7490    1.2320    1.8120 H   0  0  0  0  0  0  0  0  0  0  0  0
   -2.5620   -2.3580    1.6090 H   0  0  0  0  0  0  0  0  0  0  0  0
  1  2  1  0  0  0  0
  1 12  1  0  0  0  0
  2 13  1  1  0  0  0
  3  2  1  0  0  0  0
  3 15  1  0  0  0  0
  3 14  1  0  0  0  0
  4  3  1  0  0  0  0
  5  4  2  0  0  0  0
  6  7  1  0  0  0  0
  6  5  1  0  0  0  0
  7  8  2  0  0  0  0
  8  4  1  0  0  0  0
  9 10  2  0  0  0  0
  9  2  1  0  0  0  0
 11  1  1  0  0  0  0
 16  5  1  0  0  0  0
 17  6  1  0  0  0  0
 18  7  1  0  0  0  0
 19  9  1  0  0  0  0
 20 26  1  1  0  0  0
 20 19  1  0  0  0  0
 20 23  1  0  0  0  0
 21 20  1  0  0  0  0
 22 21  1  0  0  0  0
 22 29  1  0  0  0  0
 23 30  1  0  0  0  0
 24 23  2  0  0  0  0
 25 19  1  0  0  0  0
 27 21  1  0  0  0  0
 28 21  1  0  0  0  0
 30 39  1  0  0  0  0
 30 31  1  0  0  0  0
 31 40  1  6  0  0  0
 31 35  1  0  0  0  0
 32 42  1  0  0  0  0
 32 31  1  0  0  0  0
 32 33  1  0  0  0  0
 33 34  2  0  0  0  0
 35 36  2  0  0  0  0
 35 38  1  0  0  0  0
 37 43  1  0  0  0  0
 37 33  1  0  0  0  0
 41 32  1  0  0  0  0
M  END
$$$$
