HCF.pdb
 OpenBabel07022418363D

 50 51  0  0  1  0  0  0  0  0999 V2000
    2.5340   -2.5090   -0.1240 N   0  0  0  0  0  0  0  0  0  0  0  0
    3.3160   -1.4730    0.6010 C   0  0  1  0  0  0  0  0  0  0  0  0
    4.6220   -1.3720   -0.1310 C   0  0  0  0  0  0  0  0  0  0  0  0
    5.6030   -0.4510    0.4700 C   0  0  0  0  0  0  0  0  0  0  0  0
    5.5610    0.2240    1.6650 C   0  0  0  0  0  0  0  0  0  0  0  0
    6.7320    0.9040    1.8100 N   0  0  0  0  0  0  0  0  0  0  0  0
    7.4970    0.6660    0.7340 C   0  0  0  0  0  0  0  0  0  0  0  0
    6.8230   -0.1430   -0.0650 N   0  0  0  0  0  0  0  0  0  0  0  0
    2.5630   -0.1890    0.3160 C   0  0  0  0  0  0  0  0  0  0  0  0
    2.9440    0.9180    0.7380 O   0  0  0  0  0  0  0  0  0  0  0  0
    1.7110   -2.7870    0.4270 H   0  0  0  0  0  0  0  0  0  0  0  0
    3.2080   -3.2980   -0.2960 H   0  0  0  0  0  0  0  0  0  0  0  0
    3.3870   -1.6680    1.6680 H   0  0  0  0  0  0  0  0  0  0  0  0
    5.0530   -2.3980   -0.2410 H   0  0  0  0  0  0  0  0  0  0  0  0
    4.4360   -1.0280   -1.1910 H   0  0  0  0  0  0  0  0  0  0  0  0
    4.7670    0.2130    2.3920 H   0  0  0  0  0  0  0  0  0  0  0  0
    6.9330    1.4980    2.6530 H   0  0  0  0  0  0  0  0  0  0  0  0
    8.5040    1.0850    0.5750 H   0  0  0  0  0  0  0  0  0  0  0  0
    1.3540   -0.1930   -0.4680 N   0  0  0  0  0  0  0  0  0  0  0  0
    0.6450    1.0380   -0.7290 C   0  0  1  0  0  0  0  0  0  0  0  0
    0.6110    1.3310   -2.2140 C   0  0  0  0  0  0  0  0  0  0  0  0
    2.3420    1.4730   -2.7700 S   0  0  0  0  0  0  0  0  0  0  0  0
   -0.7120    0.9280   -0.1550 C   0  0  0  0  0  0  0  0  0  0  0  0
   -1.5570    1.8740   -0.2280 O   0  0  0  0  0  0  0  0  0  0  0  0
    1.0270   -1.1020   -0.8260 H   0  0  0  0  0  0  0  0  0  0  0  0
    1.1490    1.8950   -0.2180 H   0  0  0  0  0  0  0  0  0  0  0  0
    0.1260    2.2980   -2.3620 H   0  0  0  0  0  0  0  0  0  0  0  0
    0.1550    0.4860   -2.7580 H   0  0  0  0  0  0  0  0  0  0  0  0
    2.8550    2.7230   -2.3520 H   0  0  0  0  0  0  0  0  0  0  0  0
   -1.1190   -0.2560    0.5020 N   0  0  0  0  0  0  0  0  0  0  0  0
   -2.4390   -0.4550    1.0970 C   0  0  1  0  0  0  0  0  0  0  0  0
   -3.1720   -1.5750    0.4500 C   0  0  0  0  0  0  0  0  0  0  0  0
   -4.4980   -1.7500    1.0740 C   0  0  0  0  0  0  0  0  0  0  0  0
   -5.6060   -1.0010    0.6500 C   0  0  0  0  0  0  0  0  0  0  0  0
   -6.8450   -1.1690    1.2060 C   0  0  0  0  0  0  0  0  0  0  0  0
   -7.0740   -2.0770    2.2070 C   0  0  0  0  0  0  0  0  0  0  0  0
   -6.0040   -2.8340    2.6510 C   0  0  0  0  0  0  0  0  0  0  0  0
   -4.7450   -2.6590    2.0810 C   0  0  0  0  0  0  0  0  0  0  0  0
   -2.2510   -0.7070    2.5280 C   0  0  0  0  0  0  0  0  0  0  0  0
   -1.0810   -0.7940    2.9900 O   0  0  0  0  0  0  0  0  0  0  0  0
   -3.2630   -0.8640    3.4640 O   0  0  0  0  0  0  0  0  0  0  0  0
   -0.4620   -1.0580    0.5870 H   0  0  0  0  0  0  0  0  0  0  0  0
   -3.0640    0.4700    0.9610 H   0  0  0  0  0  0  0  0  0  0  0  0
   -3.3530   -1.3700   -0.6450 H   0  0  0  0  0  0  0  0  0  0  0  0
   -2.6090   -2.5300    0.4890 H   0  0  0  0  0  0  0  0  0  0  0  0
   -5.3970   -0.2880   -0.1450 H   0  0  0  0  0  0  0  0  0  0  0  0
   -7.6670   -0.5760    0.8520 H   0  0  0  0  0  0  0  0  0  0  0  0
   -8.0600   -2.2200    2.6600 H   0  0  0  0  0  0  0  0  0  0  0  0
   -6.1640   -3.5550    3.4400 H   0  0  0  0  0  0  0  0  0  0  0  0
   -3.9420   -3.2850    2.4600 H   0  0  0  0  0  0  0  0  0  0  0  0
  1 11  1  0  0  0  0
  1  2  1  0  0  0  0
  2 13  1  1  0  0  0
  3  4  1  0  0  0  0
  3  2  1  0  0  0  0
  4  5  2  0  0  0  0
  5  6  1  0  0  0  0
  5 16  1  0  0  0  0
  6 17  1  0  0  0  0
  7  6  1  0  0  0  0
  8  4  1  0  0  0  0
  8  7  2  0  0  0  0
  9  2  1  0  0  0  0
  9 10  2  0  0  0  0
 12  1  1  0  0  0  0
 14  3  1  0  0  0  0
 15  3  1  0  0  0  0
 18  7  1  0  0  0  0
 19  9  1  0  0  0  0
 20 19  1  0  0  0  0
 20 26  1  1  0  0  0
 20 23  1  0  0  0  0
 21 20  1  0  0  0  0
 22 29  1  0  0  0  0
 22 21  1  0  0  0  0
 23 30  1  0  0  0  0
 24 23  2  0  0  0  0
 25 19  1  0  0  0  0
 27 21  1  0  0  0  0
 28 21  1  0  0  0  0
 30 42  1  0  0  0  0
 30 31  1  0  0  0  0
 31 43  1  6  0  0  0
 31 39  1  0  0  0  0
 32 45  1  0  0  0  0
 32 33  1  0  0  0  0
 32 31  1  0  0  0  0
 33 38  1  0  0  0  0
 34 33  2  0  0  0  0
 34 35  1  0  0  0  0
 35 36  2  0  0  0  0
 36 37  1  0  0  0  0
 36 48  1  0  0  0  0
 37 49  1  0  0  0  0
 38 50  1  0  0  0  0
 38 37  2  0  0  0  0
 39 40  2  0  0  0  0
 39 41  1  0  0  0  0
 44 32  1  0  0  0  0
 46 34  1  0  0  0  0
 47 35  1  0  0  0  0
M  END
$$$$
