HCI.pdb
 OpenBabel07022418363D

 49 49  0  0  1  0  0  0  0  0999 V2000
    1.3640   -0.1640    4.3330 N   0  0  0  0  0  0  0  0  0  0  0  0
    2.0170   -0.6650    3.0800 C   0  0  1  0  0  0  0  0  0  0  0  0
    1.4580   -2.0170    2.8800 C   0  0  0  0  0  0  0  0  0  0  0  0
    1.9350   -2.8120    1.7400 C   0  0  0  0  0  0  0  0  0  0  0  0
    1.4310   -2.9280    0.4750 C   0  0  0  0  0  0  0  0  0  0  0  0
    2.1560   -3.8000   -0.2620 N   0  0  0  0  0  0  0  0  0  0  0  0
    3.1380   -4.2510    0.5340 C   0  0  0  0  0  0  0  0  0  0  0  0
    3.0140   -3.6670    1.7320 N   0  0  0  0  0  0  0  0  0  0  0  0
    1.6920    0.3690    2.0820 C   0  0  0  0  0  0  0  0  0  0  0  0
    1.0130    1.4170    2.3990 O   0  0  0  0  0  0  0  0  0  0  0  0
    1.6780    0.8080    4.5220 H   0  0  0  0  0  0  0  0  0  0  0  0
    0.3360   -0.0980    4.1060 H   0  0  0  0  0  0  0  0  0  0  0  0
    3.0990   -0.6520    3.3390 H   0  0  0  0  0  0  0  0  0  0  0  0
    0.3310   -1.9160    2.8350 H   0  0  0  0  0  0  0  0  0  0  0  0
    1.6000   -2.5820    3.8570 H   0  0  0  0  0  0  0  0  0  0  0  0
    0.5850   -2.4210    0.0450 H   0  0  0  0  0  0  0  0  0  0  0  0
    2.0190   -4.0970   -1.2580 H   0  0  0  0  0  0  0  0  0  0  0  0
    3.8910   -4.9790    0.2050 H   0  0  0  0  0  0  0  0  0  0  0  0
    2.0990    0.2830    0.7310 N   0  0  0  0  0  0  0  0  0  0  0  0
    1.7590    1.3360   -0.2010 C   0  0  1  0  0  0  0  0  0  0  0  0
    2.7710    1.4560   -1.3040 C   0  0  0  0  0  0  0  0  0  0  0  0
    4.4240    1.8290   -0.6770 S   0  0  0  0  0  0  0  0  0  0  0  0
    0.3710    1.2650   -0.7200 C   0  0  0  0  0  0  0  0  0  0  0  0
    0.0630    1.9830   -1.7300 O   0  0  0  0  0  0  0  0  0  0  0  0
    2.6850   -0.5360    0.3760 H   0  0  0  0  0  0  0  0  0  0  0  0
    1.7540    2.3080    0.4350 H   0  0  0  0  0  0  0  0  0  0  0  0
    2.8110    0.4980   -1.8420 H   0  0  0  0  0  0  0  0  0  0  0  0
    2.4370    2.2310   -2.0280 H   0  0  0  0  0  0  0  0  0  0  0  0
    4.3010    2.6920    0.4380 H   0  0  0  0  0  0  0  0  0  0  0  0
   -2.2820   -1.7500    1.6110 C   0  0  0  0  0  0  0  0  0  0  0  0
   -3.2640   -1.1000    0.7200 C   0  0  0  0  0  0  0  0  0  0  0  0
   -2.8420   -0.6900   -0.6350 C   0  0  2  0  0  0  0  0  0  0  0  0
   -2.3520   -1.8830   -1.4560 C   0  0  0  0  0  0  0  0  0  0  0  0
   -1.9690    0.4880   -0.7750 C   0  0  2  0  0  0  0  0  0  0  0  0
   -0.6660    0.4600   -0.1780 N   0  0  0  0  0  0  0  0  0  0  0  0
   -2.6700    1.7120   -0.1620 C   0  0  0  0  0  0  0  0  0  0  0  0
   -2.1170    2.4470    0.6700 O   0  0  0  0  0  0  0  0  0  0  0  0
   -3.9510    1.9630   -0.5790 O   0  0  0  0  0  0  0  0  0  0  0  0
   -2.7540   -2.5040    2.3000 H   0  0  0  0  0  0  0  0  0  0  0  0
   -1.8760   -0.9790    2.3230 H   0  0  0  0  0  0  0  0  0  0  0  0
   -1.4370   -2.2450    1.1490 H   0  0  0  0  0  0  0  0  0  0  0  0
   -3.7020   -0.2250    1.2580 H   0  0  0  0  0  0  0  0  0  0  0  0
   -4.1240   -1.8110    0.5980 H   0  0  0  0  0  0  0  0  0  0  0  0
   -3.8180   -0.4110   -1.1770 H   0  0  0  0  0  0  0  0  0  0  0  0
   -1.8320   -1.5510   -2.3780 H   0  0  0  0  0  0  0  0  0  0  0  0
   -3.2060   -2.5110   -1.7870 H   0  0  0  0  0  0  0  0  0  0  0  0
   -1.6290   -2.4530   -0.8570 H   0  0  0  0  0  0  0  0  0  0  0  0
   -1.9410    0.8040   -1.8620 H   0  0  0  0  0  0  0  0  0  0  0  0
   -0.4580   -0.1280    0.6340 H   0  0  0  0  0  0  0  0  0  0  0  0
  1 11  1  0  0  0  0
  2 13  1  1  0  0  0
  2  1  1  0  0  0  0
  3  2  1  0  0  0  0
  3 15  1  0  0  0  0
  4  3  1  0  0  0  0
  5  4  2  0  0  0  0
  6  5  1  0  0  0  0
  6  7  1  0  0  0  0
  7  8  2  0  0  0  0
  8  4  1  0  0  0  0
  9 10  2  0  0  0  0
  9  2  1  0  0  0  0
 12  1  1  0  0  0  0
 14  3  1  0  0  0  0
 16  5  1  0  0  0  0
 17  6  1  0  0  0  0
 18  7  1  0  0  0  0
 19  9  1  0  0  0  0
 20 26  1  1  0  0  0
 20 19  1  0  0  0  0
 21 22  1  0  0  0  0
 21 20  1  0  0  0  0
 22 29  1  0  0  0  0
 23 20  1  0  0  0  0
 23 35  1  0  0  0  0
 24 23  2  0  0  0  0
 25 19  1  0  0  0  0
 27 21  1  0  0  0  0
 28 21  1  0  0  0  0
 30 39  1  0  0  0  0
 30 40  1  0  0  0  0
 31 42  1  0  0  0  0
 31 30  1  0  0  0  0
 32 44  1  6  0  0  0
 32 31  1  0  0  0  0
 33 47  1  0  0  0  0
 33 32  1  0  0  0  0
 34 48  1  6  0  0  0
 34 32  1  0  0  0  0
 34 35  1  0  0  0  0
 34 36  1  0  0  0  0
 35 49  1  0  0  0  0
 36 37  1  0  0  0  0
 38 36  2  0  0  0  0
 41 30  1  0  0  0  0
 43 31  1  0  0  0  0
 45 33  1  0  0  0  0
 46 33  1  0  0  0  0
M  END
$$$$
