HCK.pdb
 OpenBabel07022418363D

 51 51  0  0  1  0  0  0  0  0999 V2000
    2.7910   -0.4270   -0.4970 N   0  0  0  0  0  0  0  0  0  0  0  0
    3.1130    0.6730    0.4160 C   0  0  1  0  0  0  0  0  0  0  0  0
    3.6370    1.8590   -0.3860 C   0  0  0  0  0  0  0  0  0  0  0  0
    3.9620    2.9670    0.5280 C   0  0  0  0  0  0  0  0  0  0  0  0
    3.1940    4.0100    0.9750 C   0  0  0  0  0  0  0  0  0  0  0  0
    3.9240    4.7770    1.7900 N   0  0  0  0  0  0  0  0  0  0  0  0
    5.1390    4.2390    1.8670 C   0  0  0  0  0  0  0  0  0  0  0  0
    5.1830    3.1380    1.1060 N   0  0  0  0  0  0  0  0  0  0  0  0
    1.8580    1.0460    1.1100 C   0  0  0  0  0  0  0  0  0  0  0  0
    1.8900    1.8350    2.0650 O   0  0  0  0  0  0  0  0  0  0  0  0
    3.1850   -1.3340   -0.1610 H   0  0  0  0  0  0  0  0  0  0  0  0
    3.1220   -0.2350   -1.4720 H   0  0  0  0  0  0  0  0  0  0  0  0
    3.8690    0.4030    1.1440 H   0  0  0  0  0  0  0  0  0  0  0  0
    4.4610    1.5540   -1.0400 H   0  0  0  0  0  0  0  0  0  0  0  0
    2.8130    2.2090   -1.0700 H   0  0  0  0  0  0  0  0  0  0  0  0
    2.1720    4.2030    0.7240 H   0  0  0  0  0  0  0  0  0  0  0  0
    3.6620    5.6540    2.3110 H   0  0  0  0  0  0  0  0  0  0  0  0
    5.9800    4.6180    2.4520 H   0  0  0  0  0  0  0  0  0  0  0  0
    0.6000    0.5300    0.7180 N   0  0  0  0  0  0  0  0  0  0  0  0
   -0.6270    0.8930    1.3980 C   0  0  1  0  0  0  0  0  0  0  0  0
   -1.4910    1.7190    0.4480 C   0  0  0  0  0  0  0  0  0  0  0  0
   -0.6650    3.2170   -0.0770 S   0  0  0  0  0  0  0  0  0  0  0  0
   -1.3860   -0.3350    1.8050 C   0  0  0  0  0  0  0  0  0  0  0  0
   -2.4600   -0.2320    2.4240 O   0  0  0  0  0  0  0  0  0  0  0  0
    0.5860   -0.1240   -0.0900 H   0  0  0  0  0  0  0  0  0  0  0  0
   -0.3980    1.5510    2.2520 H   0  0  0  0  0  0  0  0  0  0  0  0
   -2.4330    1.9990    0.9620 H   0  0  0  0  0  0  0  0  0  0  0  0
   -1.7530    1.1170   -0.4410 H   0  0  0  0  0  0  0  0  0  0  0  0
   -0.3580    4.0870    0.9590 H   0  0  0  0  0  0  0  0  0  0  0  0
   -0.9240   -1.6160    1.5050 N   0  0  0  0  0  0  0  0  0  0  0  0
   -1.5630   -2.8670    1.8280 C   0  0  1  0  0  0  0  0  0  0  0  0
   -1.9950   -3.6220    0.5830 C   0  0  0  0  0  0  0  0  0  0  0  0
   -2.9690   -2.8300   -0.2290 C   0  0  0  0  0  0  0  0  0  0  0  0
   -3.3510   -3.5060   -1.4900 C   0  0  0  0  0  0  0  0  0  0  0  0
   -3.9920   -4.8240   -1.2950 C   0  0  0  0  0  0  0  0  0  0  0  0
   -3.2320   -5.8490   -0.6750 N   0  0  0  0  0  0  0  0  0  0  0  0
   -0.5970   -3.6870    2.5720 C   0  0  0  0  0  0  0  0  0  0  0  0
    0.5670   -3.3550    2.8750 O   0  0  0  0  0  0  0  0  0  0  0  0
   -1.0250   -4.9560    2.9760 O   0  0  0  0  0  0  0  0  0  0  0  0
   -0.0090   -1.7130    0.9890 H   0  0  0  0  0  0  0  0  0  0  0  0
   -2.4510   -2.6940    2.4570 H   0  0  0  0  0  0  0  0  0  0  0  0
   -1.2010   -4.0230   -0.0220 H   0  0  0  0  0  0  0  0  0  0  0  0
   -2.5760   -4.5060    0.9850 H   0  0  0  0  0  0  0  0  0  0  0  0
   -3.9360   -2.7060    0.3630 H   0  0  0  0  0  0  0  0  0  0  0  0
   -2.6430   -1.7700   -0.3730 H   0  0  0  0  0  0  0  0  0  0  0  0
   -2.3710   -3.7090   -2.0400 H   0  0  0  0  0  0  0  0  0  0  0  0
   -3.9360   -2.8410   -2.1790 H   0  0  0  0  0  0  0  0  0  0  0  0
   -4.3530   -5.1990   -2.2950 H   0  0  0  0  0  0  0  0  0  0  0  0
   -4.9600   -4.7460   -0.7040 H   0  0  0  0  0  0  0  0  0  0  0  0
   -2.5780   -6.3640   -1.2820 H   0  0  0  0  0  0  0  0  0  0  0  0
   -3.7180   -6.4080    0.0380 H   0  0  0  0  0  0  0  0  0  0  0  0
  1 11  1  0  0  0  0
  1  2  1  0  0  0  0
  2  9  1  0  0  0  0
  2 13  1  1  0  0  0
  3  2  1  0  0  0  0
  3  4  1  0  0  0  0
  4  5  2  0  0  0  0
  4  8  1  0  0  0  0
  5  6  1  0  0  0  0
  6  7  1  0  0  0  0
  6 17  1  0  0  0  0
  7 18  1  0  0  0  0
  8  7  2  0  0  0  0
  9 10  2  0  0  0  0
 12  1  1  0  0  0  0
 14  3  1  0  0  0  0
 15  3  1  0  0  0  0
 16  5  1  0  0  0  0
 19  9  1  0  0  0  0
 19 20  1  0  0  0  0
 20 23  1  0  0  0  0
 20 26  1  1  0  0  0
 21 27  1  0  0  0  0
 21 20  1  0  0  0  0
 22 21  1  0  0  0  0
 22 29  1  0  0  0  0
 23 24  2  0  0  0  0
 25 19  1  0  0  0  0
 28 21  1  0  0  0  0
 30 23  1  0  0  0  0
 30 31  1  0  0  0  0
 31 41  1  1  0  0  0
 31 37  1  0  0  0  0
 32 43  1  0  0  0  0
 32 31  1  0  0  0  0
 33 44  1  0  0  0  0
 33 32  1  0  0  0  0
 34 35  1  0  0  0  0
 34 33  1  0  0  0  0
 35 49  1  0  0  0  0
 35 36  1  0  0  0  0
 36 51  1  0  0  0  0
 37 38  2  0  0  0  0
 37 39  1  0  0  0  0
 40 30  1  0  0  0  0
 42 32  1  0  0  0  0
 45 33  1  0  0  0  0
 46 34  1  0  0  0  0
 47 34  1  0  0  0  0
 48 35  1  0  0  0  0
 50 36  1  0  0  0  0
M  END
$$$$
