HCL.pdb
 OpenBabel07022418363D

 49 49  0  0  1  0  0  0  0  0999 V2000
    1.5660   -3.4520   -0.1570 N   0  0  0  0  0  0  0  0  0  0  0  0
    2.2660   -2.3450    0.4450 C   0  0  1  0  0  0  0  0  0  0  0  0
    3.7260   -2.4780    0.0420 C   0  0  0  0  0  0  0  0  0  0  0  0
    4.5740   -1.4140    0.5840 C   0  0  0  0  0  0  0  0  0  0  0  0
    4.8370   -0.2130   -0.0370 C   0  0  0  0  0  0  0  0  0  0  0  0
    5.6500    0.5250    0.7410 N   0  0  0  0  0  0  0  0  0  0  0  0
    5.9000   -0.2040    1.8490 C   0  0  0  0  0  0  0  0  0  0  0  0
    5.2390   -1.3890    1.7480 N   0  0  0  0  0  0  0  0  0  0  0  0
    1.7020   -1.0420    0.0680 C   0  0  0  0  0  0  0  0  0  0  0  0
    2.1460    0.0600    0.4720 O   0  0  0  0  0  0  0  0  0  0  0  0
    2.1490   -4.0130   -0.8160 H   0  0  0  0  0  0  0  0  0  0  0  0
    1.1490   -4.1130    0.5280 H   0  0  0  0  0  0  0  0  0  0  0  0
    2.2340   -2.5010    1.5530 H   0  0  0  0  0  0  0  0  0  0  0  0
    4.1010   -3.4820    0.3270 H   0  0  0  0  0  0  0  0  0  0  0  0
    3.7820   -2.4460   -1.0800 H   0  0  0  0  0  0  0  0  0  0  0  0
    4.4700    0.1280   -1.0020 H   0  0  0  0  0  0  0  0  0  0  0  0
    6.0000    1.4780    0.4990 H   0  0  0  0  0  0  0  0  0  0  0  0
    6.5280    0.1320    2.6630 H   0  0  0  0  0  0  0  0  0  0  0  0
    0.5810   -0.9770   -0.8060 N   0  0  0  0  0  0  0  0  0  0  0  0
   -0.0250    0.2380   -1.2200 C   0  0  1  0  0  0  0  0  0  0  0  0
   -0.1170    0.4640   -2.6830 C   0  0  0  0  0  0  0  0  0  0  0  0
    1.5300    0.4720   -3.4180 S   0  0  0  0  0  0  0  0  0  0  0  0
   -1.4190    0.3110   -0.6510 C   0  0  0  0  0  0  0  0  0  0  0  0
   -2.0800    1.3140   -0.9260 O   0  0  0  0  0  0  0  0  0  0  0  0
    0.1520   -1.8750   -1.1880 H   0  0  0  0  0  0  0  0  0  0  0  0
    0.5270    1.0900   -0.7620 H   0  0  0  0  0  0  0  0  0  0  0  0
   -0.8200   -0.2100   -3.2070 H   0  0  0  0  0  0  0  0  0  0  0  0
   -0.5380    1.4960   -2.8250 H   0  0  0  0  0  0  0  0  0  0  0  0
    1.5400    1.3960   -4.4800 H   0  0  0  0  0  0  0  0  0  0  0  0
   -1.1340   -0.3650    2.9310 C   0  0  0  0  0  0  0  0  0  0  0  0
   -2.6020   -0.4810    3.1490 C   0  0  0  0  0  0  0  0  0  0  0  0
   -2.9680    0.4110    4.3430 C   0  0  0  0  0  0  0  0  0  0  0  0
   -3.4400   -0.0240    2.0060 C   0  0  0  0  0  0  0  0  0  0  0  0
   -3.2350   -0.7440    0.7230 C   0  0  2  0  0  0  0  0  0  0  0  0
   -1.9450   -0.7100    0.1520 N   0  0  0  0  0  0  0  0  0  0  0  0
   -4.2970   -0.3790   -0.2520 C   0  0  0  0  0  0  0  0  0  0  0  0
   -4.0550   -0.1590   -1.4530 O   0  0  0  0  0  0  0  0  0  0  0  0
   -5.6260   -0.2740    0.1750 O   0  0  0  0  0  0  0  0  0  0  0  0
   -0.6590   -0.1030    3.9070 H   0  0  0  0  0  0  0  0  0  0  0  0
   -0.8570    0.4790    2.2410 H   0  0  0  0  0  0  0  0  0  0  0  0
   -0.6460   -1.3200    2.6300 H   0  0  0  0  0  0  0  0  0  0  0  0
   -2.8280   -1.5210    3.4340 H   0  0  0  0  0  0  0  0  0  0  0  0
   -2.3450    0.1920    5.2230 H   0  0  0  0  0  0  0  0  0  0  0  0
   -2.7960    1.4870    4.0810 H   0  0  0  0  0  0  0  0  0  0  0  0
   -4.0400    0.3020    4.5570 H   0  0  0  0  0  0  0  0  0  0  0  0
   -4.5150   -0.2070    2.3060 H   0  0  0  0  0  0  0  0  0  0  0  0
   -3.3660    1.0770    1.9260 H   0  0  0  0  0  0  0  0  0  0  0  0
   -3.4900   -1.8490    0.9330 H   0  0  0  0  0  0  0  0  0  0  0  0
   -1.2740   -1.5230    0.3260 H   0  0  0  0  0  0  0  0  0  0  0  0
  1  2  1  0  0  0  0
  1 12  1  0  0  0  0
  2 13  1  1  0  0  0
  3 14  1  0  0  0  0
  3  2  1  0  0  0  0
  3  4  1  0  0  0  0
  4  8  1  0  0  0  0
  5  4  2  0  0  0  0
  5  6  1  0  0  0  0
  6  7  1  0  0  0  0
  7 18  1  0  0  0  0
  8  7  2  0  0  0  0
  9  2  1  0  0  0  0
  9 10  2  0  0  0  0
 11  1  1  0  0  0  0
 15  3  1  0  0  0  0
 16  5  1  0  0  0  0
 17  6  1  0  0  0  0
 19  9  1  0  0  0  0
 20 19  1  0  0  0  0
 20 26  1  1  0  0  0
 20 23  1  0  0  0  0
 21 20  1  0  0  0  0
 22 21  1  0  0  0  0
 23 35  1  0  0  0  0
 24 23  2  0  0  0  0
 25 19  1  0  0  0  0
 27 21  1  0  0  0  0
 28 21  1  0  0  0  0
 29 22  1  0  0  0  0
 30 31  1  0  0  0  0
 30 39  1  0  0  0  0
 31 42  1  0  0  0  0
 31 32  1  0  0  0  0
 32 45  1  0  0  0  0
 32 43  1  0  0  0  0
 33 46  1  0  0  0  0
 33 31  1  0  0  0  0
 34 48  1  1  0  0  0
 34 33  1  0  0  0  0
 35 49  1  0  0  0  0
 35 34  1  0  0  0  0
 36 38  1  0  0  0  0
 36 34  1  0  0  0  0
 37 36  2  0  0  0  0
 40 30  1  0  0  0  0
 41 30  1  0  0  0  0
 44 32  1  0  0  0  0
 47 33  1  0  0  0  0
M  END
$$$$
