HCM.pdb
 OpenBabel07022418363D

 47 47  0  0  1  0  0  0  0  0999 V2000
    3.4340   -1.6660    2.7270 N   0  0  0  0  0  0  0  0  0  0  0  0
    3.2130   -1.0860    1.3500 C   0  0  1  0  0  0  0  0  0  0  0  0
    2.8890   -2.2260    0.4970 C   0  0  0  0  0  0  0  0  0  0  0  0
    2.7110   -2.0190   -0.9370 C   0  0  0  0  0  0  0  0  0  0  0  0
    2.8730   -0.9330   -1.7630 C   0  0  0  0  0  0  0  0  0  0  0  0
    2.6330   -1.3000   -3.0170 N   0  0  0  0  0  0  0  0  0  0  0  0
    2.3210   -2.6030   -2.9960 C   0  0  0  0  0  0  0  0  0  0  0  0
    2.3610   -3.0650   -1.7430 N   0  0  0  0  0  0  0  0  0  0  0  0
    2.2240   -0.0300    1.5550 C   0  0  0  0  0  0  0  0  0  0  0  0
    2.3750    0.6520    2.6360 O   0  0  0  0  0  0  0  0  0  0  0  0
    2.4780   -1.9850    3.0020 H   0  0  0  0  0  0  0  0  0  0  0  0
    3.9990   -2.5250    2.5440 H   0  0  0  0  0  0  0  0  0  0  0  0
    4.2340   -0.7000    1.0810 H   0  0  0  0  0  0  0  0  0  0  0  0
    3.6770   -3.0160    0.6210 H   0  0  0  0  0  0  0  0  0  0  0  0
    1.9480   -2.7460    0.8670 H   0  0  0  0  0  0  0  0  0  0  0  0
    3.1600    0.0720   -1.3910 H   0  0  0  0  0  0  0  0  0  0  0  0
    2.6920   -0.6460   -3.8330 H   0  0  0  0  0  0  0  0  0  0  0  0
    2.0730   -3.1910   -3.8750 H   0  0  0  0  0  0  0  0  0  0  0  0
    1.1340    0.3560    0.7630 N   0  0  0  0  0  0  0  0  0  0  0  0
    0.2850    1.4340    1.1540 C   0  0  1  0  0  0  0  0  0  0  0  0
    0.4760    2.6630    0.2730 C   0  0  0  0  0  0  0  0  0  0  0  0
    0.0960    2.2590   -1.4570 S   0  0  0  0  0  0  0  0  0  0  0  0
   -1.1320    1.0070    1.1190 C   0  0  0  0  0  0  0  0  0  0  0  0
   -2.0620    1.8590    1.3290 O   0  0  0  0  0  0  0  0  0  0  0  0
    0.9070   -0.1400   -0.1220 H   0  0  0  0  0  0  0  0  0  0  0  0
    0.5480    1.7920    2.1890 H   0  0  0  0  0  0  0  0  0  0  0  0
   -0.2810    3.4130    0.5930 H   0  0  0  0  0  0  0  0  0  0  0  0
    1.4570    3.1160    0.4060 H   0  0  0  0  0  0  0  0  0  0  0  0
    1.2290    2.6140   -2.2170 H   0  0  0  0  0  0  0  0  0  0  0  0
   -0.8380   -1.0990    3.6550 C   0  0  0  0  0  0  0  0  0  0  0  0
   -2.2660   -0.0310    3.9820 S   0  0  0  0  0  0  0  0  0  0  0  0
   -3.7490   -0.5280    3.1420 C   0  0  0  0  0  0  0  0  0  0  0  0
   -3.8800   -0.3020    1.6860 C   0  0  0  0  0  0  0  0  0  0  0  0
   -2.8490   -0.8440    0.7820 C   0  0  2  0  0  0  0  0  0  0  0  0
   -1.5190   -0.3330    0.8550 N   0  0  0  0  0  0  0  0  0  0  0  0
   -3.3350   -1.0340   -0.5970 C   0  0  0  0  0  0  0  0  0  0  0  0
   -2.5920   -0.7500   -1.5550 O   0  0  0  0  0  0  0  0  0  0  0  0
   -4.5980   -1.5210   -0.8390 O   0  0  0  0  0  0  0  0  0  0  0  0
   -0.5300   -1.5170    4.6610 H   0  0  0  0  0  0  0  0  0  0  0  0
    0.0080   -0.5450    3.2620 H   0  0  0  0  0  0  0  0  0  0  0  0
   -1.1380   -1.9910    3.0460 H   0  0  0  0  0  0  0  0  0  0  0  0
   -3.9090   -1.6340    3.3500 H   0  0  0  0  0  0  0  0  0  0  0  0
   -4.6100   -0.0070    3.6930 H   0  0  0  0  0  0  0  0  0  0  0  0
   -4.0560    0.7950    1.5350 H   0  0  0  0  0  0  0  0  0  0  0  0
   -4.8660   -0.7650    1.3350 H   0  0  0  0  0  0  0  0  0  0  0  0
   -2.7370   -1.9450    1.1820 H   0  0  0  0  0  0  0  0  0  0  0  0
   -0.6870   -0.9880    0.7060 H   0  0  0  0  0  0  0  0  0  0  0  0
  1 11  1  0  0  0  0
  2 13  1  6  0  0  0
  2  9  1  0  0  0  0
  2  1  1  0  0  0  0
  3 14  1  0  0  0  0
  3 15  1  0  0  0  0
  3  2  1  0  0  0  0
  4  3  1  0  0  0  0
  5 16  1  0  0  0  0
  5  4  2  0  0  0  0
  6  7  1  0  0  0  0
  6  5  1  0  0  0  0
  7  8  2  0  0  0  0
  8  4  1  0  0  0  0
  9 10  2  0  0  0  0
 12  1  1  0  0  0  0
 17  6  1  0  0  0  0
 18  7  1  0  0  0  0
 19 20  1  0  0  0  0
 19  9  1  0  0  0  0
 20 26  1  1  0  0  0
 21 28  1  0  0  0  0
 21 27  1  0  0  0  0
 21 20  1  0  0  0  0
 22 21  1  0  0  0  0
 23 20  1  0  0  0  0
 23 24  2  0  0  0  0
 25 19  1  0  0  0  0
 29 22  1  0  0  0  0
 30 31  1  0  0  0  0
 30 39  1  0  0  0  0
 32 42  1  0  0  0  0
 32 43  1  0  0  0  0
 32 31  1  0  0  0  0
 33 32  1  0  0  0  0
 34 35  1  0  0  0  0
 34 46  1  1  0  0  0
 34 33  1  0  0  0  0
 35 23  1  0  0  0  0
 36 34  1  0  0  0  0
 37 36  2  0  0  0  0
 38 36  1  0  0  0  0
 40 30  1  0  0  0  0
 41 30  1  0  0  0  0
 44 33  1  0  0  0  0
 45 33  1  0  0  0  0
 47 35  1  0  0  0  0
M  END
$$$$
