HCP.pdb
 OpenBabel07022418363D

 44 45  0  0  1  0  0  0  0  0999 V2000
    0.4990   -3.3240   -0.2320 N   0  0  0  0  0  0  0  0  0  0  0  0
    1.4310   -2.6640    0.6570 C   0  0  1  0  0  0  0  0  0  0  0  0
    2.8280   -3.2200    0.4630 C   0  0  0  0  0  0  0  0  0  0  0  0
    3.8130   -2.5720    1.3540 C   0  0  0  0  0  0  0  0  0  0  0  0
    4.2050   -2.9250    2.6290 C   0  0  0  0  0  0  0  0  0  0  0  0
    5.1310   -2.0760    3.1060 N   0  0  0  0  0  0  0  0  0  0  0  0
    5.3310   -1.1750    2.1280 C   0  0  0  0  0  0  0  0  0  0  0  0
    4.5490   -1.4580    1.0710 N   0  0  0  0  0  0  0  0  0  0  0  0
    1.3890   -1.2020    0.4730 C   0  0  0  0  0  0  0  0  0  0  0  0
    2.0970   -0.3960    1.1310 O   0  0  0  0  0  0  0  0  0  0  0  0
   -0.4460   -3.4530    0.1900 H   0  0  0  0  0  0  0  0  0  0  0  0
    0.8530   -4.2750   -0.4560 H   0  0  0  0  0  0  0  0  0  0  0  0
    1.1270   -2.9510    1.7030 H   0  0  0  0  0  0  0  0  0  0  0  0
    3.1260   -3.0870   -0.6040 H   0  0  0  0  0  0  0  0  0  0  0  0
    2.8660   -4.3070    0.6770 H   0  0  0  0  0  0  0  0  0  0  0  0
    3.8050   -3.7780    3.1550 H   0  0  0  0  0  0  0  0  0  0  0  0
    5.6020   -2.1000    4.0350 H   0  0  0  0  0  0  0  0  0  0  0  0
    6.0130   -0.3400    2.1630 H   0  0  0  0  0  0  0  0  0  0  0  0
    0.4890   -0.6690   -0.5110 N   0  0  0  0  0  0  0  0  0  0  0  0
    0.4130    0.7510   -0.7260 C   0  0  1  0  0  0  0  0  0  0  0  0
    0.5660    1.0380   -2.2010 C   0  0  0  0  0  0  0  0  0  0  0  0
    0.4770    2.8210   -2.5250 S   0  0  0  0  0  0  0  0  0  0  0  0
   -0.7710    1.4200   -0.1930 C   0  0  0  0  0  0  0  0  0  0  0  0
   -0.8690    2.6690   -0.5190 O   0  0  0  0  0  0  0  0  0  0  0  0
   -0.1010   -1.3330   -1.0970 H   0  0  0  0  0  0  0  0  0  0  0  0
    1.2910    1.2650   -0.2050 H   0  0  0  0  0  0  0  0  0  0  0  0
   -0.2350    0.5090   -2.7420 H   0  0  0  0  0  0  0  0  0  0  0  0
    1.5300    0.6780   -2.6000 H   0  0  0  0  0  0  0  0  0  0  0  0
    1.1600    3.5410   -1.5200 H   0  0  0  0  0  0  0  0  0  0  0  0
   -1.7840    0.9040    0.6040 N   0  0  0  0  0  0  0  0  0  0  0  0
   -1.9950   -0.3980    1.1680 C   0  0  0  0  0  0  0  0  0  0  0  0
   -3.5110   -0.5970    1.0630 C   0  0  0  0  0  0  0  0  0  0  0  0
   -4.1020    0.7560    0.8490 C   0  0  0  0  0  0  0  0  0  0  0  0
   -2.9500    1.6750    1.0710 C   0  0  1  0  0  0  0  0  0  0  0  0
   -2.8260    2.0030    2.5040 C   0  0  0  0  0  0  0  0  0  0  0  0
   -3.7420    2.6520    3.0700 O   0  0  0  0  0  0  0  0  0  0  0  0
   -1.7470    1.6390    3.2970 O   0  0  0  0  0  0  0  0  0  0  0  0
   -1.6840   -0.4410    2.2470 H   0  0  0  0  0  0  0  0  0  0  0  0
   -1.4860   -1.2340    0.6910 H   0  0  0  0  0  0  0  0  0  0  0  0
   -3.8260   -1.0730    2.0070 H   0  0  0  0  0  0  0  0  0  0  0  0
   -3.6890   -1.2690    0.1970 H   0  0  0  0  0  0  0  0  0  0  0  0
   -4.8820    0.9690    1.6230 H   0  0  0  0  0  0  0  0  0  0  0  0
   -4.5860    0.8760   -0.1390 H   0  0  0  0  0  0  0  0  0  0  0  0
   -3.0220    2.6160    0.5110 H   0  0  0  0  0  0  0  0  0  0  0  0
  1 11  1  0  0  0  0
  1  2  1  0  0  0  0
  2 13  1  1  0  0  0
  3  2  1  0  0  0  0
  3 15  1  0  0  0  0
  3  4  1  0  0  0  0
  4  5  2  0  0  0  0
  5  6  1  0  0  0  0
  5 16  1  0  0  0  0
  6 17  1  0  0  0  0
  7 18  1  0  0  0  0
  7  6  1  0  0  0  0
  8  4  1  0  0  0  0
  8  7  2  0  0  0  0
  9  2  1  0  0  0  0
  9 10  2  0  0  0  0
 12  1  1  0  0  0  0
 14  3  1  0  0  0  0
 19  9  1  0  0  0  0
 20 19  1  0  0  0  0
 20 26  1  1  0  0  0
 20 23  1  0  0  0  0
 21 20  1  0  0  0  0
 22 21  1  0  0  0  0
 22 29  1  0  0  0  0
 23 30  1  0  0  0  0
 24 23  2  0  0  0  0
 25 19  1  0  0  0  0
 27 21  1  0  0  0  0
 28 21  1  0  0  0  0
 30 34  1  0  0  0  0
 30 31  1  0  0  0  0
 31 38  1  0  0  0  0
 32 31  1  0  0  0  0
 32 40  1  0  0  0  0
 33 32  1  0  0  0  0
 33 34  1  0  0  0  0
 33 42  1  0  0  0  0
 34 44  1  6  0  0  0
 34 35  1  0  0  0  0
 35 36  2  0  0  0  0
 35 37  1  0  0  0  0
 39 31  1  0  0  0  0
 41 32  1  0  0  0  0
 43 33  1  0  0  0  0
M  END
$$$$
