HCS.pdb
 OpenBabel07022418363D

 41 41  0  0  1  0  0  0  0  0999 V2000
    1.1320   -3.2350   -2.5150 N   0  0  0  0  0  0  0  0  0  0  0  0
    0.3300   -2.1730   -1.9930 C   0  0  1  0  0  0  0  0  0  0  0  0
   -0.5700   -2.6860   -0.8910 C   0  0  0  0  0  0  0  0  0  0  0  0
    0.1860   -3.2620    0.2340 C   0  0  0  0  0  0  0  0  0  0  0  0
   -0.3670   -3.8040    1.3690 C   0  0  0  0  0  0  0  0  0  0  0  0
    0.6200   -4.2280    2.1700 N   0  0  0  0  0  0  0  0  0  0  0  0
    1.7800   -3.9720    1.5770 C   0  0  0  0  0  0  0  0  0  0  0  0
    1.5120   -3.3750    0.3820 N   0  0  0  0  0  0  0  0  0  0  0  0
    1.1330   -1.0090   -1.5510 C   0  0  0  0  0  0  0  0  0  0  0  0
    2.4020   -1.0020   -1.6370 O   0  0  0  0  0  0  0  0  0  0  0  0
    1.9380   -3.5200   -1.9540 H   0  0  0  0  0  0  0  0  0  0  0  0
    0.6180   -3.9620   -3.0160 H   0  0  0  0  0  0  0  0  0  0  0  0
   -0.3500   -1.8320   -2.8200 H   0  0  0  0  0  0  0  0  0  0  0  0
   -1.2750   -3.4360   -1.3000 H   0  0  0  0  0  0  0  0  0  0  0  0
   -1.2270   -1.8570   -0.5050 H   0  0  0  0  0  0  0  0  0  0  0  0
   -1.4170   -3.9020    1.6330 H   0  0  0  0  0  0  0  0  0  0  0  0
    0.5170   -4.6920    3.1180 H   0  0  0  0  0  0  0  0  0  0  0  0
    2.7880   -4.1820    1.9430 H   0  0  0  0  0  0  0  0  0  0  0  0
    0.5610    0.1700   -1.0050 N   0  0  0  0  0  0  0  0  0  0  0  0
    1.3910    1.2820   -0.5880 C   0  0  1  0  0  0  0  0  0  0  0  0
    1.0830    2.5170   -1.4220 C   0  0  0  0  0  0  0  0  0  0  0  0
    2.1590    3.8470   -0.8360 S   0  0  0  0  0  0  0  0  0  0  0  0
    1.1220    1.6520    0.8310 C   0  0  0  0  0  0  0  0  0  0  0  0
    1.7250    2.5890    1.3990 O   0  0  0  0  0  0  0  0  0  0  0  0
   -0.4740    0.2470   -0.9000 H   0  0  0  0  0  0  0  0  0  0  0  0
    2.4600    1.0490   -0.7620 H   0  0  0  0  0  0  0  0  0  0  0  0
    0.0230    2.8370   -1.2860 H   0  0  0  0  0  0  0  0  0  0  0  0
    1.2370    2.3270   -2.5010 H   0  0  0  0  0  0  0  0  0  0  0  0
    3.2930    3.3540   -0.1570 H   0  0  0  0  0  0  0  0  0  0  0  0
   -1.8620    1.8650    4.4910 O   0  0  0  0  0  0  0  0  0  0  0  0
   -1.6040    1.5540    3.1650 C   0  0  0  0  0  0  0  0  0  0  0  0
   -0.1290    1.2780    2.9870 C   0  0  2  0  0  0  0  0  0  0  0  0
    0.1670    0.9460    1.5850 N   0  0  0  0  0  0  0  0  0  0  0  0
    0.2650    0.1000    3.8070 C   0  0  0  0  0  0  0  0  0  0  0  0
    0.1110    0.1240    5.0650 O   0  0  0  0  0  0  0  0  0  0  0  0
    0.8040   -1.0560    3.2770 O   0  0  0  0  0  0  0  0  0  0  0  0
   -1.0860    2.2380    4.9590 H   0  0  0  0  0  0  0  0  0  0  0  0
   -2.1930    0.6630    2.9130 H   0  0  0  0  0  0  0  0  0  0  0  0
   -1.9040    2.4100    2.5380 H   0  0  0  0  0  0  0  0  0  0  0  0
    0.4850    2.1230    3.3300 H   0  0  0  0  0  0  0  0  0  0  0  0
   -0.3450    0.1600    1.1290 H   0  0  0  0  0  0  0  0  0  0  0  0
  1  2  1  0  0  0  0
  1 11  1  0  0  0  0
  2 13  1  6  0  0  0
  2  9  1  0  0  0  0
  2  3  1  0  0  0  0
  3 15  1  0  0  0  0
  3  4  1  0  0  0  0
  4  8  1  0  0  0  0
  4  5  2  0  0  0  0
  5 16  1  0  0  0  0
  5  6  1  0  0  0  0
  6 17  1  0  0  0  0
  7 18  1  0  0  0  0
  7  6  1  0  0  0  0
  8  7  2  0  0  0  0
  9 19  1  0  0  0  0
 10  9  2  0  0  0  0
 12  1  1  0  0  0  0
 14  3  1  0  0  0  0
 19 25  1  0  0  0  0
 19 20  1  0  0  0  0
 20 26  1  6  0  0  0
 20 23  1  0  0  0  0
 21 27  1  0  0  0  0
 21 22  1  0  0  0  0
 21 20  1  0  0  0  0
 22 29  1  0  0  0  0
 23 24  2  0  0  0  0
 23 33  1  0  0  0  0
 28 21  1  0  0  0  0
 30 37  1  0  0  0  0
 31 30  1  0  0  0  0
 32 31  1  0  0  0  0
 32 40  1  1  0  0  0
 32 34  1  0  0  0  0
 33 32  1  0  0  0  0
 34 35  1  0  0  0  0
 36 34  2  0  0  0  0
 38 31  1  0  0  0  0
 39 31  1  0  0  0  0
 41 33  1  0  0  0  0
M  END
$$$$
