HCW.pdb
 OpenBabel07022418363D

 54 56  0  0  1  0  0  0  0  0999 V2000
    5.1750   -0.0540   -1.1340 N   0  0  0  0  0  0  0  0  0  0  0  0
    3.8880   -0.7460   -1.2160 C   0  0  1  0  0  0  0  0  0  0  0  0
    3.9530   -1.9110   -0.2530 C   0  0  0  0  0  0  0  0  0  0  0  0
    2.7520   -2.7410   -0.2040 C   0  0  0  0  0  0  0  0  0  0  0  0
    2.5170   -3.8670   -0.9780 C   0  0  0  0  0  0  0  0  0  0  0  0
    1.3130   -4.3210   -0.5990 N   0  0  0  0  0  0  0  0  0  0  0  0
    0.8120   -3.5130    0.3740 C   0  0  0  0  0  0  0  0  0  0  0  0
    1.7020   -2.5410    0.6150 N   0  0  0  0  0  0  0  0  0  0  0  0
    2.8160    0.2070   -0.8610 C   0  0  0  0  0  0  0  0  0  0  0  0
    3.0300    1.1970   -0.1220 O   0  0  0  0  0  0  0  0  0  0  0  0
    5.2300    0.6040   -1.9510 H   0  0  0  0  0  0  0  0  0  0  0  0
    5.9650   -0.7100   -1.1100 H   0  0  0  0  0  0  0  0  0  0  0  0
    3.7460   -1.0930   -2.2400 H   0  0  0  0  0  0  0  0  0  0  0  0
    4.8260   -2.5290   -0.5140 H   0  0  0  0  0  0  0  0  0  0  0  0
    4.1910   -1.4800    0.7590 H   0  0  0  0  0  0  0  0  0  0  0  0
    3.1760   -4.2780   -1.7270 H   0  0  0  0  0  0  0  0  0  0  0  0
    0.7850   -5.1630   -0.9530 H   0  0  0  0  0  0  0  0  0  0  0  0
   -0.1610   -3.6690    0.8500 H   0  0  0  0  0  0  0  0  0  0  0  0
    1.4710    0.0450   -1.3550 N   0  0  0  0  0  0  0  0  0  0  0  0
    0.4430    1.0070   -0.9880 C   0  0  1  0  0  0  0  0  0  0  0  0
    0.2000    1.9480   -2.1620 C   0  0  0  0  0  0  0  0  0  0  0  0
    1.7440    2.7830   -2.5130 S   0  0  0  0  0  0  0  0  0  0  0  0
   -0.7910    0.3230   -0.5710 C   0  0  0  0  0  0  0  0  0  0  0  0
   -0.8520   -0.9220   -0.6130 O   0  0  0  0  0  0  0  0  0  0  0  0
    1.3210   -0.7740   -1.9660 H   0  0  0  0  0  0  0  0  0  0  0  0
    0.8210    1.6120   -0.1500 H   0  0  0  0  0  0  0  0  0  0  0  0
   -0.5830    2.6580   -1.8610 H   0  0  0  0  0  0  0  0  0  0  0  0
   -0.1530    1.3950   -3.0470 H   0  0  0  0  0  0  0  0  0  0  0  0
    1.6270    4.1730   -2.6260 H   0  0  0  0  0  0  0  0  0  0  0  0
   -1.9380    1.0550   -0.1150 N   0  0  0  0  0  0  0  0  0  0  0  0
   -3.1500    0.4060    0.2940 C   0  0  1  0  0  0  0  0  0  0  0  0
   -3.5450    0.6970    1.7250 C   0  0  0  0  0  0  0  0  0  0  0  0
   -2.4910    0.2520    2.6960 C   0  0  0  0  0  0  0  0  0  0  0  0
   -1.5890    1.0470    3.3720 C   0  0  0  0  0  0  0  0  0  0  0  0
   -0.8460    0.2240    4.1280 N   0  0  0  0  0  0  0  0  0  0  0  0
   -1.2350   -1.0620    3.9630 C   0  0  0  0  0  0  0  0  0  0  0  0
   -0.7980   -2.2520    4.5050 C   0  0  0  0  0  0  0  0  0  0  0  0
   -1.4010   -3.4480    4.1450 C   0  0  0  0  0  0  0  0  0  0  0  0
   -2.4470   -3.4500    3.2370 C   0  0  0  0  0  0  0  0  0  0  0  0
   -2.8880   -2.2500    2.6890 C   0  0  0  0  0  0  0  0  0  0  0  0
   -2.2760   -1.0570    3.0580 C   0  0  0  0  0  0  0  0  0  0  0  0
   -4.2280    0.7450   -0.6600 C   0  0  0  0  0  0  0  0  0  0  0  0
   -5.4150    0.3220   -0.5680 O   0  0  0  0  0  0  0  0  0  0  0  0
   -3.9420    1.5760   -1.7250 O   0  0  0  0  0  0  0  0  0  0  0  0
   -1.8040    2.0940   -0.1040 H   0  0  0  0  0  0  0  0  0  0  0  0
   -3.0590   -0.7180    0.2330 H   0  0  0  0  0  0  0  0  0  0  0  0
   -4.4670    0.1460    1.9800 H   0  0  0  0  0  0  0  0  0  0  0  0
   -3.7200    1.7670    1.9140 H   0  0  0  0  0  0  0  0  0  0  0  0
   -1.4730    2.1040    3.3310 H   0  0  0  0  0  0  0  0  0  0  0  0
   -0.0590    0.4850    4.7770 H   0  0  0  0  0  0  0  0  0  0  0  0
    0.0120   -2.2330    5.2020 H   0  0  0  0  0  0  0  0  0  0  0  0
   -1.0480   -4.3870    4.5780 H   0  0  0  0  0  0  0  0  0  0  0  0
   -2.9190   -4.3660    2.9550 H   0  0  0  0  0  0  0  0  0  0  0  0
   -3.6920   -2.2250    1.9880 H   0  0  0  0  0  0  0  0  0  0  0  0
  1 12  1  0  0  0  0
  2 13  1  6  0  0  0
  2  1  1  0  0  0  0
  2  9  1  0  0  0  0
  2  3  1  0  0  0  0
  3  4  1  0  0  0  0
  3 15  1  0  0  0  0
  4  8  1  0  0  0  0
  5  6  1  0  0  0  0
  5  4  2  0  0  0  0
  6  7  1  0  0  0  0
  7  8  2  0  0  0  0
  7 18  1  0  0  0  0
  9 10  2  0  0  0  0
 11  1  1  0  0  0  0
 14  3  1  0  0  0  0
 16  5  1  0  0  0  0
 17  6  1  0  0  0  0
 19 20  1  0  0  0  0
 19  9  1  0  0  0  0
 20 23  1  0  0  0  0
 20 26  1  1  0  0  0
 21 27  1  0  0  0  0
 21 20  1  0  0  0  0
 22 21  1  0  0  0  0
 23 30  1  0  0  0  0
 24 23  2  0  0  0  0
 25 19  1  0  0  0  0
 28 21  1  0  0  0  0
 29 22  1  0  0  0  0
 30 45  1  0  0  0  0
 30 31  1  0  0  0  0
 31 46  1  6  0  0  0
 31 32  1  0  0  0  0
 32 48  1  0  0  0  0
 32 47  1  0  0  0  0
 32 33  1  0  0  0  0
 33 41  1  0  0  0  0
 33 34  2  0  0  0  0
 34 35  1  0  0  0  0
 35 50  1  0  0  0  0
 36 35  1  0  0  0  0
 36 37  1  0  0  0  0
 37 51  1  0  0  0  0
 38 37  2  0  0  0  0
 38 52  1  0  0  0  0
 39 38  1  0  0  0  0
 40 41  1  0  0  0  0
 40 39  2  0  0  0  0
 41 36  2  0  0  0  0
 42 43  1  0  0  0  0
 42 31  1  0  0  0  0
 44 42  2  0  0  0  0
 49 34  1  0  0  0  0
 53 39  1  0  0  0  0
 54 40  1  0  0  0  0
M  END
$$$$
