HCY.pdb
 OpenBabel07022418363D

 51 52  0  0  1  0  0  0  0  0999 V2000
    0.1160    1.4630    3.5000 N   0  0  0  0  0  0  0  0  0  0  0  0
    1.2640    0.8660    2.7410 C   0  0  1  0  0  0  0  0  0  0  0  0
    1.2950   -0.5520    3.1380 C   0  0  0  0  0  0  0  0  0  0  0  0
    2.3530   -1.4160    2.5930 C   0  0  0  0  0  0  0  0  0  0  0  0
    2.3960   -2.2450    1.5000 C   0  0  0  0  0  0  0  0  0  0  0  0
    3.6030   -2.8660    1.4570 N   0  0  0  0  0  0  0  0  0  0  0  0
    4.3310   -2.4520    2.4990 C   0  0  0  0  0  0  0  0  0  0  0  0
    3.5750   -1.5800    3.1790 N   0  0  0  0  0  0  0  0  0  0  0  0
    1.0450    1.2230    1.3400 C   0  0  0  0  0  0  0  0  0  0  0  0
    0.0380    2.0020    1.0880 O   0  0  0  0  0  0  0  0  0  0  0  0
   -0.7400    1.1050    2.9790 H   0  0  0  0  0  0  0  0  0  0  0  0
    0.1750    2.4870    3.2540 H   0  0  0  0  0  0  0  0  0  0  0  0
    2.1400    1.4310    3.1860 H   0  0  0  0  0  0  0  0  0  0  0  0
    0.3200   -1.0600    2.8820 H   0  0  0  0  0  0  0  0  0  0  0  0
    1.2900   -0.6420    4.2790 H   0  0  0  0  0  0  0  0  0  0  0  0
    1.6180   -2.4030    0.7590 H   0  0  0  0  0  0  0  0  0  0  0  0
    3.9240   -3.5520    0.7420 H   0  0  0  0  0  0  0  0  0  0  0  0
    5.3580   -2.7550    2.7670 H   0  0  0  0  0  0  0  0  0  0  0  0
    1.8180    0.8130    0.2240 N   0  0  0  0  0  0  0  0  0  0  0  0
    1.5550    1.2210   -1.1170 C   0  0  1  0  0  0  0  0  0  0  0  0
    2.7850    1.4080   -1.9490 C   0  0  0  0  0  0  0  0  0  0  0  0
    3.6700   -0.1970   -2.0050 S   0  0  0  0  0  0  0  0  0  0  0  0
    0.4900    0.4850   -1.8160 C   0  0  0  0  0  0  0  0  0  0  0  0
    0.3800    0.5860   -3.0840 O   0  0  0  0  0  0  0  0  0  0  0  0
    2.6460    0.1980    0.4010 H   0  0  0  0  0  0  0  0  0  0  0  0
    1.0780    2.2850   -1.0310 H   0  0  0  0  0  0  0  0  0  0  0  0
    2.5800    1.7790   -2.9630 H   0  0  0  0  0  0  0  0  0  0  0  0
    3.4860    2.1280   -1.4840 H   0  0  0  0  0  0  0  0  0  0  0  0
    5.0100    0.1000   -2.3120 H   0  0  0  0  0  0  0  0  0  0  0  0
   -4.2330   -2.0330    3.8880 O   0  0  0  0  0  0  0  0  0  0  0  0
   -3.6220   -2.0990    2.6470 C   0  0  0  0  0  0  0  0  0  0  0  0
   -4.3810   -2.0070    1.4980 C   0  0  0  0  0  0  0  0  0  0  0  0
   -3.8360   -2.0640    0.2250 C   0  0  0  0  0  0  0  0  0  0  0  0
   -2.4790   -2.2200    0.0820 C   0  0  0  0  0  0  0  0  0  0  0  0
   -1.8790   -2.2930   -1.2490 C   0  0  0  0  0  0  0  0  0  0  0  0
   -1.4600   -1.0280   -1.8790 C   0  0  2  0  0  0  0  0  0  0  0  0
   -0.4360   -0.3350   -1.1330 N   0  0  0  0  0  0  0  0  0  0  0  0
   -2.6630   -0.1450   -2.0610 C   0  0  0  0  0  0  0  0  0  0  0  0
   -3.5950   -0.6420   -2.7390 O   0  0  0  0  0  0  0  0  0  0  0  0
   -1.7150   -2.3120    1.2100 C   0  0  0  0  0  0  0  0  0  0  0  0
   -2.2670   -2.2540    2.4920 C   0  0  0  0  0  0  0  0  0  0  0  0
   -2.7990    1.1110   -1.5570 O   0  0  0  0  0  0  0  0  0  0  0  0
   -4.2960   -1.1600    4.3960 H   0  0  0  0  0  0  0  0  0  0  0  0
   -5.4690   -1.8820    1.6200 H   0  0  0  0  0  0  0  0  0  0  0  0
   -4.5420   -1.9850   -0.5890 H   0  0  0  0  0  0  0  0  0  0  0  0
   -2.5370   -2.9000   -1.9230 H   0  0  0  0  0  0  0  0  0  0  0  0
   -0.9430   -2.9400   -1.1780 H   0  0  0  0  0  0  0  0  0  0  0  0
   -1.0880   -1.1950   -2.9060 H   0  0  0  0  0  0  0  0  0  0  0  0
   -0.3920   -0.4470   -0.1180 H   0  0  0  0  0  0  0  0  0  0  0  0
   -0.6480   -2.4390    1.1930 H   0  0  0  0  0  0  0  0  0  0  0  0
   -1.6640   -2.3260    3.3800 H   0  0  0  0  0  0  0  0  0  0  0  0
  2  3  1  0  0  0  0
  2 13  1  1  0  0  0
  2  1  1  0  0  0  0
  3 15  1  0  0  0  0
  4  3  1  0  0  0  0
  4  8  1  0  0  0  0
  5  4  2  0  0  0  0
  6  5  1  0  0  0  0
  6  7  1  0  0  0  0
  7 18  1  0  0  0  0
  7  8  2  0  0  0  0
  9  2  1  0  0  0  0
 10  9  2  0  0  0  0
 11  1  1  0  0  0  0
 12  1  1  0  0  0  0
 14  3  1  0  0  0  0
 16  5  1  0  0  0  0
 17  6  1  0  0  0  0
 19 25  1  0  0  0  0
 19  9  1  0  0  0  0
 20 26  1  1  0  0  0
 20 19  1  0  0  0  0
 21 28  1  0  0  0  0
 21 20  1  0  0  0  0
 22 21  1  0  0  0  0
 23 37  1  0  0  0  0
 23 20  1  0  0  0  0
 24 23  2  0  0  0  0
 27 21  1  0  0  0  0
 29 22  1  0  0  0  0
 30 43  1  0  0  0  0
 31 30  1  0  0  0  0
 32 44  1  0  0  0  0
 32 31  2  0  0  0  0
 33 32  1  0  0  0  0
 34 33  2  0  0  0  0
 34 40  1  0  0  0  0
 35 47  1  0  0  0  0
 35 34  1  0  0  0  0
 36 48  1  6  0  0  0
 36 35  1  0  0  0  0
 36 37  1  0  0  0  0
 37 49  1  0  0  0  0
 38 36  1  0  0  0  0
 38 42  1  0  0  0  0
 39 38  2  0  0  0  0
 40 41  2  0  0  0  0
 41 31  1  0  0  0  0
 41 51  1  0  0  0  0
 45 33  1  0  0  0  0
 46 35  1  0  0  0  0
 50 40  1  0  0  0  0
M  END
$$$$
