HDA.pdb
 OpenBabel07022418353D

 42 42  0  0  1  0  0  0  0  0999 V2000
   -1.5150   -2.5890   -0.3700 N   0  0  0  0  0  0  0  0  0  0  0  0
   -0.1060   -2.8650   -0.1630 C   0  0  1  0  0  0  0  0  0  0  0  0
    0.5240   -3.4320   -1.4120 C   0  0  0  0  0  0  0  0  0  0  0  0
    1.9600   -3.7410   -1.2850 C   0  0  0  0  0  0  0  0  0  0  0  0
    3.0560   -2.9470   -1.5670 C   0  0  0  0  0  0  0  0  0  0  0  0
    4.1730   -3.6460   -1.3180 N   0  0  0  0  0  0  0  0  0  0  0  0
    3.8170   -4.8800   -0.8790 C   0  0  0  0  0  0  0  0  0  0  0  0
    2.4740   -4.9380   -0.8590 N   0  0  0  0  0  0  0  0  0  0  0  0
    0.6380   -1.6270    0.2030 C   0  0  0  0  0  0  0  0  0  0  0  0
    1.8550   -1.6630    0.5180 O   0  0  0  0  0  0  0  0  0  0  0  0
   -2.0360   -2.4810    0.5270 H   0  0  0  0  0  0  0  0  0  0  0  0
   -1.7130   -1.8290   -1.0240 H   0  0  0  0  0  0  0  0  0  0  0  0
   -0.0410   -3.6500    0.6170 H   0  0  0  0  0  0  0  0  0  0  0  0
   -0.0160   -4.3810   -1.6330 H   0  0  0  0  0  0  0  0  0  0  0  0
    0.3340   -2.7360   -2.2800 H   0  0  0  0  0  0  0  0  0  0  0  0
    3.0320   -1.9320   -1.9310 H   0  0  0  0  0  0  0  0  0  0  0  0
    5.1610   -3.3050   -1.4390 H   0  0  0  0  0  0  0  0  0  0  0  0
    4.4850   -5.6880   -0.5920 H   0  0  0  0  0  0  0  0  0  0  0  0
    0.0270   -0.3460    0.2190 N   0  0  0  0  0  0  0  0  0  0  0  0
    0.8260    0.8300    0.5910 C   0  0  1  0  0  0  0  0  0  0  0  0
    0.8580    1.8360   -0.5090 C   0  0  0  0  0  0  0  0  0  0  0  0
    1.6750    2.9930   -0.0900 C   0  0  0  0  0  0  0  0  0  0  0  0
    1.2300    4.0320    0.4610 O   0  0  0  0  0  0  0  0  0  0  0  0
    0.1870    1.3580    1.8150 C   0  0  0  0  0  0  0  0  0  0  0  0
    0.7010    2.3620    2.3590 O   0  0  0  0  0  0  0  0  0  0  0  0
    3.0630    2.9350   -0.3230 O   0  0  0  0  0  0  0  0  0  0  0  0
   -0.9680   -0.2170   -0.0250 H   0  0  0  0  0  0  0  0  0  0  0  0
    1.8730    0.5370    0.8110 H   0  0  0  0  0  0  0  0  0  0  0  0
   -0.1570    2.1500   -0.8380 H   0  0  0  0  0  0  0  0  0  0  0  0
    1.3890    1.3480   -1.3780 H   0  0  0  0  0  0  0  0  0  0  0  0
    3.6690    3.7200   -0.1750 H   0  0  0  0  0  0  0  0  0  0  0  0
   -2.9500    1.8270    3.2980 C   0  0  0  0  0  0  0  0  0  0  0  0
   -1.5600    1.3660    3.6280 C   0  0  2  0  0  0  0  0  0  0  0  0
   -0.9710    0.7970    2.4130 N   0  0  0  0  0  0  0  0  0  0  0  0
   -1.5880    0.3630    4.7210 C   0  0  0  0  0  0  0  0  0  0  0  0
   -1.1310   -0.7810    4.4820 O   0  0  0  0  0  0  0  0  0  0  0  0
   -2.0960    0.6710    5.9530 O   0  0  0  0  0  0  0  0  0  0  0  0
   -3.2950    1.4020    2.3410 H   0  0  0  0  0  0  0  0  0  0  0  0
   -3.6220    1.5200    4.1520 H   0  0  0  0  0  0  0  0  0  0  0  0
   -2.9610    2.9510    3.2290 H   0  0  0  0  0  0  0  0  0  0  0  0
   -0.9260    2.2510    3.9080 H   0  0  0  0  0  0  0  0  0  0  0  0
   -1.3960   -0.0430    1.9540 H   0  0  0  0  0  0  0  0  0  0  0  0
  1  2  1  0  0  0  0
  1 11  1  0  0  0  0
  2  9  1  0  0  0  0
  2 13  1  1  0  0  0
  3  4  1  0  0  0  0
  3  2  1  0  0  0  0
  4  8  1  0  0  0  0
  5  6  1  0  0  0  0
  5  4  2  0  0  0  0
  6  7  1  0  0  0  0
  7  8  2  0  0  0  0
  7 18  1  0  0  0  0
  9 19  1  0  0  0  0
  9 10  2  0  0  0  0
 12  1  1  0  0  0  0
 14  3  1  0  0  0  0
 15  3  1  0  0  0  0
 16  5  1  0  0  0  0
 17  6  1  0  0  0  0
 19 20  1  0  0  0  0
 20 28  1  1  0  0  0
 20 24  1  0  0  0  0
 21 22  1  0  0  0  0
 21 20  1  0  0  0  0
 22 23  2  0  0  0  0
 24 25  2  0  0  0  0
 24 34  1  0  0  0  0
 26 31  1  0  0  0  0
 26 22  1  0  0  0  0
 27 19  1  0  0  0  0
 29 21  1  0  0  0  0
 30 21  1  0  0  0  0
 32 33  1  0  0  0  0
 32 39  1  0  0  0  0
 33 41  1  1  0  0  0
 33 35  1  0  0  0  0
 34 33  1  0  0  0  0
 35 37  1  0  0  0  0
 36 35  2  0  0  0  0
 38 32  1  0  0  0  0
 40 32  1  0  0  0  0
 42 34  1  0  0  0  0
M  END
$$$$
