HDC.pdb
 OpenBabel07022418353D

 43 43  0  0  1  0  0  0  0  0999 V2000
   -2.4900   -0.5890    0.4050 N   0  0  0  0  0  0  0  0  0  0  0  0
   -2.3380   -0.2520    1.8410 C   0  0  1  0  0  0  0  0  0  0  0  0
   -2.7070   -1.4400    2.6340 C   0  0  0  0  0  0  0  0  0  0  0  0
   -1.9330   -2.6530    2.4520 C   0  0  0  0  0  0  0  0  0  0  0  0
   -2.1340   -3.6540    1.5230 C   0  0  0  0  0  0  0  0  0  0  0  0
   -1.1990   -4.5830    1.6780 N   0  0  0  0  0  0  0  0  0  0  0  0
   -0.3960   -4.1880    2.7010 C   0  0  0  0  0  0  0  0  0  0  0  0
   -0.8570   -3.0310    3.1480 N   0  0  0  0  0  0  0  0  0  0  0  0
   -1.0640    0.4070    2.0860 C   0  0  0  0  0  0  0  0  0  0  0  0
   -0.9460    1.1950    3.0910 O   0  0  0  0  0  0  0  0  0  0  0  0
   -3.4850   -0.9460    0.2290 H   0  0  0  0  0  0  0  0  0  0  0  0
   -2.5170    0.3420   -0.1350 H   0  0  0  0  0  0  0  0  0  0  0  0
   -3.1530    0.5120    2.0290 H   0  0  0  0  0  0  0  0  0  0  0  0
   -3.7950   -1.6590    2.3550 H   0  0  0  0  0  0  0  0  0  0  0  0
   -2.8050   -1.1360    3.7250 H   0  0  0  0  0  0  0  0  0  0  0  0
   -2.9200   -3.6710    0.7930 H   0  0  0  0  0  0  0  0  0  0  0  0
   -1.0570   -5.5010    1.1340 H   0  0  0  0  0  0  0  0  0  0  0  0
    0.4780   -4.7360    3.0810 H   0  0  0  0  0  0  0  0  0  0  0  0
    0.0730    0.2340    1.2610 N   0  0  0  0  0  0  0  0  0  0  0  0
    1.3310    0.8550    1.3650 C   0  0  1  0  0  0  0  0  0  0  0  0
    2.3000    0.2420    2.3680 C   0  0  0  0  0  0  0  0  0  0  0  0
    1.7570    0.3110    3.7340 C   0  0  0  0  0  0  0  0  0  0  0  0
    1.2210   -0.6430    4.3040 O   0  0  0  0  0  0  0  0  0  0  0  0
    2.0530    1.1370    0.1270 C   0  0  0  0  0  0  0  0  0  0  0  0
    3.1300    1.7980    0.2770 O   0  0  0  0  0  0  0  0  0  0  0  0
    1.8560    1.5390    4.4230 O   0  0  0  0  0  0  0  0  0  0  0  0
   -0.0570   -0.4740    0.4710 H   0  0  0  0  0  0  0  0  0  0  0  0
    1.1330    1.8880    1.8500 H   0  0  0  0  0  0  0  0  0  0  0  0
    3.2750    0.8160    2.3560 H   0  0  0  0  0  0  0  0  0  0  0  0
    2.5580   -0.8070    2.1120 H   0  0  0  0  0  0  0  0  0  0  0  0
    1.5340    1.5400    5.3820 H   0  0  0  0  0  0  0  0  0  0  0  0
    1.6720    0.7540   -1.1570 N   0  0  0  0  0  0  0  0  0  0  0  0
    2.4430    1.0750   -2.3650 C   0  0  1  0  0  0  0  0  0  0  0  0
    3.0600   -0.2000   -2.9590 C   0  0  0  0  0  0  0  0  0  0  0  0
    4.1750   -0.9620   -1.7400 S   0  0  0  0  0  0  0  0  0  0  0  0
    1.6000    1.6750   -3.4040 C   0  0  0  0  0  0  0  0  0  0  0  0
    2.0960    2.0480   -4.5270 O   0  0  0  0  0  0  0  0  0  0  0  0
    0.2540    1.8660   -3.2300 O   0  0  0  0  0  0  0  0  0  0  0  0
    0.8130    0.2200   -1.3100 H   0  0  0  0  0  0  0  0  0  0  0  0
    3.2750    1.7320   -2.0040 H   0  0  0  0  0  0  0  0  0  0  0  0
    2.2900   -0.9420   -3.1940 H   0  0  0  0  0  0  0  0  0  0  0  0
    3.5910    0.0540   -3.8880 H   0  0  0  0  0  0  0  0  0  0  0  0
    3.4870   -1.6150   -0.7250 H   0  0  0  0  0  0  0  0  0  0  0  0
  1  2  1  0  0  0  0
  2 13  1  1  0  0  0
  2  9  1  0  0  0  0
  2  3  1  0  0  0  0
  3 15  1  0  0  0  0
  4  3  1  0  0  0  0
  4  8  1  0  0  0  0
  5  6  1  0  0  0  0
  5  4  2  0  0  0  0
  6  7  1  0  0  0  0
  7 18  1  0  0  0  0
  7  8  2  0  0  0  0
  9 10  2  0  0  0  0
 11  1  1  0  0  0  0
 12  1  1  0  0  0  0
 14  3  1  0  0  0  0
 16  5  1  0  0  0  0
 17  6  1  0  0  0  0
 19 20  1  0  0  0  0
 19  9  1  0  0  0  0
 20 28  1  1  0  0  0
 20 21  1  0  0  0  0
 21 22  1  0  0  0  0
 22 23  2  0  0  0  0
 22 26  1  0  0  0  0
 24 25  2  0  0  0  0
 24 20  1  0  0  0  0
 26 31  1  0  0  0  0
 27 19  1  0  0  0  0
 29 21  1  0  0  0  0
 30 21  1  0  0  0  0
 32 24  1  0  0  0  0
 33 40  1  1  0  0  0
 33 32  1  0  0  0  0
 34 33  1  0  0  0  0
 34 35  1  0  0  0  0
 35 43  1  0  0  0  0
 36 38  1  0  0  0  0
 36 33  1  0  0  0  0
 37 36  2  0  0  0  0
 39 32  1  0  0  0  0
 41 34  1  0  0  0  0
 42 34  1  0  0  0  0
M  END
$$$$
