HDF.pdb
 OpenBabel07022418353D

 52 53  0  0  1  0  0  0  0  0999 V2000
    2.6640    1.2550   -0.1220 N   0  0  0  0  0  0  0  0  0  0  0  0
    2.8690    0.5540    1.1840 C   0  0  1  0  0  0  0  0  0  0  0  0
    3.8890    1.3510    1.9020 C   0  0  0  0  0  0  0  0  0  0  0  0
    4.3510    0.8180    3.1990 C   0  0  0  0  0  0  0  0  0  0  0  0
    4.1240   -0.3600    3.8300 C   0  0  0  0  0  0  0  0  0  0  0  0
    4.8380   -0.3960    4.9820 N   0  0  0  0  0  0  0  0  0  0  0  0
    5.5160    0.7410    5.0930 C   0  0  0  0  0  0  0  0  0  0  0  0
    5.2310    1.4840    4.0220 N   0  0  0  0  0  0  0  0  0  0  0  0
    1.5210    0.5450    1.8330 C   0  0  0  0  0  0  0  0  0  0  0  0
    1.3750    0.1500    2.9880 O   0  0  0  0  0  0  0  0  0  0  0  0
    2.4370    0.5500   -0.8700 H   0  0  0  0  0  0  0  0  0  0  0  0
    3.5860    1.6720   -0.4000 H   0  0  0  0  0  0  0  0  0  0  0  0
    3.2110   -0.4400    0.9510 H   0  0  0  0  0  0  0  0  0  0  0  0
    3.6160    2.4350    1.9950 H   0  0  0  0  0  0  0  0  0  0  0  0
    4.8130    1.3490    1.2430 H   0  0  0  0  0  0  0  0  0  0  0  0
    3.4920   -1.1720    3.4630 H   0  0  0  0  0  0  0  0  0  0  0  0
    4.8480   -1.1830    5.6570 H   0  0  0  0  0  0  0  0  0  0  0  0
    6.1820    0.9910    5.9320 H   0  0  0  0  0  0  0  0  0  0  0  0
    0.3510    0.9920    1.1450 N   0  0  0  0  0  0  0  0  0  0  0  0
   -0.9680    1.0150    1.6930 C   0  0  1  0  0  0  0  0  0  0  0  0
   -1.6130    2.3680    1.6350 C   0  0  0  0  0  0  0  0  0  0  0  0
   -0.8360    3.3920    2.3860 C   0  0  0  0  0  0  0  0  0  0  0  0
    0.2200    3.0260    2.9600 O   0  0  0  0  0  0  0  0  0  0  0  0
   -1.8590    0.0690    0.9030 C   0  0  0  0  0  0  0  0  0  0  0  0
   -3.0600   -0.0520    1.1990 O   0  0  0  0  0  0  0  0  0  0  0  0
   -1.2170    4.7020    2.4800 O   0  0  0  0  0  0  0  0  0  0  0  0
    0.4770    1.3270    0.1650 H   0  0  0  0  0  0  0  0  0  0  0  0
   -0.9090    0.6160    2.7430 H   0  0  0  0  0  0  0  0  0  0  0  0
   -2.6540    2.2980    2.0050 H   0  0  0  0  0  0  0  0  0  0  0  0
   -1.6860    2.6350    0.5500 H   0  0  0  0  0  0  0  0  0  0  0  0
   -0.9460    5.3280    3.2350 H   0  0  0  0  0  0  0  0  0  0  0  0
   -1.3110   -0.6650   -0.1640 N   0  0  0  0  0  0  0  0  0  0  0  0
   -1.9800   -1.5750   -1.0250 C   0  0  1  0  0  0  0  0  0  0  0  0
   -1.5780   -2.9950   -0.8230 C   0  0  0  0  0  0  0  0  0  0  0  0
   -2.2690   -3.9560   -1.6970 C   0  0  0  0  0  0  0  0  0  0  0  0
   -1.7530   -4.1860   -2.9570 C   0  0  0  0  0  0  0  0  0  0  0  0
   -2.3340   -5.1080   -3.8330 C   0  0  0  0  0  0  0  0  0  0  0  0
   -3.4520   -5.7900   -3.3960 C   0  0  0  0  0  0  0  0  0  0  0  0
   -3.9760   -5.5610   -2.1270 C   0  0  0  0  0  0  0  0  0  0  0  0
   -3.4040   -4.6560   -1.2700 C   0  0  0  0  0  0  0  0  0  0  0  0
   -3.4060   -1.3480   -1.3010 C   0  0  0  0  0  0  0  0  0  0  0  0
   -4.0210   -2.2080   -2.0430 O   0  0  0  0  0  0  0  0  0  0  0  0
   -4.2100   -0.3200   -0.8760 O   0  0  0  0  0  0  0  0  0  0  0  0
   -0.2460   -0.5380   -0.3690 H   0  0  0  0  0  0  0  0  0  0  0  0
   -1.5280   -1.2970   -2.0790 H   0  0  0  0  0  0  0  0  0  0  0  0
   -0.4770   -3.1530   -1.0140 H   0  0  0  0  0  0  0  0  0  0  0  0
   -1.8140   -3.3350    0.2370 H   0  0  0  0  0  0  0  0  0  0  0  0
   -0.8750   -3.6420   -3.2880 H   0  0  0  0  0  0  0  0  0  0  0  0
   -1.9110   -5.2830   -4.8360 H   0  0  0  0  0  0  0  0  0  0  0  0
   -3.8830   -6.4970   -4.0860 H   0  0  0  0  0  0  0  0  0  0  0  0
   -4.8450   -6.1080   -1.8190 H   0  0  0  0  0  0  0  0  0  0  0  0
   -3.7680   -4.4410   -0.2850 H   0  0  0  0  0  0  0  0  0  0  0  0
  1  2  1  0  0  0  0
  2 13  1  6  0  0  0
  2  9  1  0  0  0  0
  2  3  1  0  0  0  0
  3 14  1  0  0  0  0
  3  4  1  0  0  0  0
  4  5  2  0  0  0  0
  4  8  1  0  0  0  0
  5  6  1  0  0  0  0
  6  7  1  0  0  0  0
  6 17  1  0  0  0  0
  7 18  1  0  0  0  0
  8  7  2  0  0  0  0
  9 10  2  0  0  0  0
 11  1  1  0  0  0  0
 12  1  1  0  0  0  0
 15  3  1  0  0  0  0
 16  5  1  0  0  0  0
 19 20  1  0  0  0  0
 19  9  1  0  0  0  0
 20 28  1  1  0  0  0
 21 20  1  0  0  0  0
 21 29  1  0  0  0  0
 21 22  1  0  0  0  0
 22 26  1  0  0  0  0
 22 23  2  0  0  0  0
 24 25  2  0  0  0  0
 24 20  1  0  0  0  0
 26 31  1  0  0  0  0
 27 19  1  0  0  0  0
 30 21  1  0  0  0  0
 32 24  1  0  0  0  0
 33 45  1  6  0  0  0
 33 34  1  0  0  0  0
 33 32  1  0  0  0  0
 34 47  1  0  0  0  0
 35 40  1  0  0  0  0
 35 34  1  0  0  0  0
 36 35  2  0  0  0  0
 37 38  2  0  0  0  0
 37 36  1  0  0  0  0
 38 39  1  0  0  0  0
 39 51  1  0  0  0  0
 39 40  2  0  0  0  0
 40 52  1  0  0  0  0
 41 33  1  0  0  0  0
 41 43  1  0  0  0  0
 42 41  2  0  0  0  0
 44 32  1  0  0  0  0
 46 34  1  0  0  0  0
 48 36  1  0  0  0  0
 49 37  1  0  0  0  0
 50 38  1  0  0  0  0
M  END
$$$$
