HDG.pdb
 OpenBabel07022418353D

 39 39  0  0  1  0  0  0  0  0999 V2000
    0.9600   -3.8720   -1.4440 N   0  0  0  0  0  0  0  0  0  0  0  0
    0.0490   -2.9750   -0.8140 C   0  0  1  0  0  0  0  0  0  0  0  0
   -0.0380   -3.3220    0.6600 C   0  0  0  0  0  0  0  0  0  0  0  0
    1.2840   -3.2090    1.3210 C   0  0  0  0  0  0  0  0  0  0  0  0
    1.5700   -3.4500    2.6440 C   0  0  0  0  0  0  0  0  0  0  0  0
    2.8960   -3.2260    2.8060 N   0  0  0  0  0  0  0  0  0  0  0  0
    3.4490   -2.8550    1.6370 C   0  0  0  0  0  0  0  0  0  0  0  0
    2.4440   -2.8520    0.7460 N   0  0  0  0  0  0  0  0  0  0  0  0
    0.4780   -1.5440   -0.9350 C   0  0  0  0  0  0  0  0  0  0  0  0
    1.5730   -1.2110   -1.4640 O   0  0  0  0  0  0  0  0  0  0  0  0
    0.7410   -4.8370   -1.1580 H   0  0  0  0  0  0  0  0  0  0  0  0
    1.1410   -3.7120   -2.4410 H   0  0  0  0  0  0  0  0  0  0  0  0
   -0.9460   -3.0710   -1.2850 H   0  0  0  0  0  0  0  0  0  0  0  0
   -0.7650   -2.6680    1.1450 H   0  0  0  0  0  0  0  0  0  0  0  0
   -0.3780   -4.3700    0.7880 H   0  0  0  0  0  0  0  0  0  0  0  0
    0.8870   -3.7640    3.4440 H   0  0  0  0  0  0  0  0  0  0  0  0
    3.3850   -3.3320    3.7020 H   0  0  0  0  0  0  0  0  0  0  0  0
    4.5010   -2.6250    1.5230 H   0  0  0  0  0  0  0  0  0  0  0  0
   -0.3290   -0.4800   -0.4570 N   0  0  0  0  0  0  0  0  0  0  0  0
    0.0480    0.9300   -0.5500 C   0  0  1  0  0  0  0  0  0  0  0  0
   -0.9720    1.6960   -1.3590 C   0  0  0  0  0  0  0  0  0  0  0  0
   -0.5940    3.1020   -1.4960 C   0  0  0  0  0  0  0  0  0  0  0  0
   -1.4830    3.9180   -1.9300 O   0  0  0  0  0  0  0  0  0  0  0  0
    0.0190    1.4340    0.8440 C   0  0  0  0  0  0  0  0  0  0  0  0
    0.2590    2.6360    1.0730 O   0  0  0  0  0  0  0  0  0  0  0  0
    0.6350    3.6680   -1.2100 O   0  0  0  0  0  0  0  0  0  0  0  0
   -1.2470   -0.7020   -0.0200 H   0  0  0  0  0  0  0  0  0  0  0  0
    1.0240    1.0700   -1.0220 H   0  0  0  0  0  0  0  0  0  0  0  0
   -1.9940    1.5800   -0.9240 H   0  0  0  0  0  0  0  0  0  0  0  0
   -1.0460    1.2210   -2.3850 H   0  0  0  0  0  0  0  0  0  0  0  0
    0.7780    4.6840   -1.1970 H   0  0  0  0  0  0  0  0  0  0  0  0
   -0.2690    0.6180    1.9590 N   0  0  0  0  0  0  0  0  0  0  0  0
   -0.2900    1.1550    3.3280 C   0  0  0  0  0  0  0  0  0  0  0  0
   -1.3110    2.2270    3.4520 C   0  0  0  0  0  0  0  0  0  0  0  0
   -1.4260    2.7670    4.5850 O   0  0  0  0  0  0  0  0  0  0  0  0
   -2.0710    2.5860    2.3750 O   0  0  0  0  0  0  0  0  0  0  0  0
   -0.4670   -0.3890    1.7990 H   0  0  0  0  0  0  0  0  0  0  0  0
   -0.5070    0.3060    4.0050 H   0  0  0  0  0  0  0  0  0  0  0  0
    0.7140    1.5210    3.5960 H   0  0  0  0  0  0  0  0  0  0  0  0
  1 11  1  0  0  0  0
  1  2  1  0  0  0  0
  2 13  1  6  0  0  0
  2  3  1  0  0  0  0
  3 15  1  0  0  0  0
  3 14  1  0  0  0  0
  3  4  1  0  0  0  0
  4  5  2  0  0  0  0
  5  6  1  0  0  0  0
  5 16  1  0  0  0  0
  6 17  1  0  0  0  0
  7  6  1  0  0  0  0
  8  4  1  0  0  0  0
  8  7  2  0  0  0  0
  9  2  1  0  0  0  0
  9 19  1  0  0  0  0
 10  9  2  0  0  0  0
 12  1  1  0  0  0  0
 18  7  1  0  0  0  0
 19 27  1  0  0  0  0
 20 28  1  6  0  0  0
 20 19  1  0  0  0  0
 20 24  1  0  0  0  0
 21 29  1  0  0  0  0
 21 20  1  0  0  0  0
 22 21  1  0  0  0  0
 22 26  1  0  0  0  0
 23 22  2  0  0  0  0
 24 25  2  0  0  0  0
 24 32  1  0  0  0  0
 26 31  1  0  0  0  0
 30 21  1  0  0  0  0
 32 33  1  0  0  0  0
 33 34  1  0  0  0  0
 33 39  1  0  0  0  0
 33 38  1  0  0  0  0
 34 35  1  0  0  0  0
 36 34  2  0  0  0  0
 37 32  1  0  0  0  0
M  END
$$$$
