HDH.pdb
 OpenBabel07022418353D

 49 50  0  0  1  0  0  0  0  0999 V2000
    0.6960    0.3790    5.3510 N   0  0  0  0  0  0  0  0  0  0  0  0
    1.8470    0.0290    4.4700 C   0  0  1  0  0  0  0  0  0  0  0  0
    1.9240   -1.4530    4.4150 C   0  0  0  0  0  0  0  0  0  0  0  0
    3.0740   -1.9850    3.6580 C   0  0  0  0  0  0  0  0  0  0  0  0
    4.1500   -1.3410    3.0670 C   0  0  0  0  0  0  0  0  0  0  0  0
    4.9560   -2.2720    2.5470 N   0  0  0  0  0  0  0  0  0  0  0  0
    4.4390   -3.4760    2.7830 C   0  0  0  0  0  0  0  0  0  0  0  0
    3.2910   -3.3190    3.4590 N   0  0  0  0  0  0  0  0  0  0  0  0
    1.4140    0.6530    3.1670 C   0  0  0  0  0  0  0  0  0  0  0  0
    0.9240    1.8350    3.2040 O   0  0  0  0  0  0  0  0  0  0  0  0
    0.7690   -0.1340    6.2550 H   0  0  0  0  0  0  0  0  0  0  0  0
   -0.1410   -0.0130    4.8380 H   0  0  0  0  0  0  0  0  0  0  0  0
    2.7750    0.4770    4.8360 H   0  0  0  0  0  0  0  0  0  0  0  0
    0.9620   -1.8970    4.0230 H   0  0  0  0  0  0  0  0  0  0  0  0
    2.0020   -1.9020    5.4440 H   0  0  0  0  0  0  0  0  0  0  0  0
    4.2740   -0.2510    3.0540 H   0  0  0  0  0  0  0  0  0  0  0  0
    5.8520   -2.1240    2.0340 H   0  0  0  0  0  0  0  0  0  0  0  0
    4.8220   -4.4610    2.5070 H   0  0  0  0  0  0  0  0  0  0  0  0
    1.4850    0.0710    1.9020 N   0  0  0  0  0  0  0  0  0  0  0  0
    1.0540    0.7570    0.7280 C   0  0  1  0  0  0  0  0  0  0  0  0
    2.1120    0.9810   -0.3000 C   0  0  0  0  0  0  0  0  0  0  0  0
    2.7200   -0.2530   -0.8200 C   0  0  0  0  0  0  0  0  0  0  0  0
    3.6210   -0.1360   -1.6890 O   0  0  0  0  0  0  0  0  0  0  0  0
   -0.1360    0.0490    0.1840 C   0  0  0  0  0  0  0  0  0  0  0  0
   -0.5460   -0.9680    0.7980 O   0  0  0  0  0  0  0  0  0  0  0  0
    2.3830   -1.5320   -0.4300 O   0  0  0  0  0  0  0  0  0  0  0  0
    1.8320   -0.9000    1.7510 H   0  0  0  0  0  0  0  0  0  0  0  0
    0.6860    1.7590    1.0310 H   0  0  0  0  0  0  0  0  0  0  0  0
    2.8500    1.7000    0.1090 H   0  0  0  0  0  0  0  0  0  0  0  0
    1.6360    1.4990   -1.1620 H   0  0  0  0  0  0  0  0  0  0  0  0
    2.8520   -2.3660   -0.8050 H   0  0  0  0  0  0  0  0  0  0  0  0
   -0.8190    0.4610   -0.9770 N   0  0  0  0  0  0  0  0  0  0  0  0
   -1.9750   -0.3290   -1.3990 C   0  0  1  0  0  0  0  0  0  0  0  0
   -3.1880    0.5460   -1.3080 C   0  0  0  0  0  0  0  0  0  0  0  0
   -4.3950   -0.1840   -1.7170 C   0  0  0  0  0  0  0  0  0  0  0  0
   -4.9670   -0.2470   -2.9910 C   0  0  0  0  0  0  0  0  0  0  0  0
   -6.0800   -0.9960   -2.9680 N   0  0  0  0  0  0  0  0  0  0  0  0
   -6.2220   -1.4080   -1.7020 C   0  0  0  0  0  0  0  0  0  0  0  0
   -5.2190   -0.9270   -0.9450 N   0  0  0  0  0  0  0  0  0  0  0  0
   -1.7970   -0.8850   -2.7360 C   0  0  0  0  0  0  0  0  0  0  0  0
   -2.6660   -1.6360   -3.2300 O   0  0  0  0  0  0  0  0  0  0  0  0
   -0.6730   -0.6230   -3.5360 O   0  0  0  0  0  0  0  0  0  0  0  0
   -0.4940    1.2920   -1.4880 H   0  0  0  0  0  0  0  0  0  0  0  0
   -2.1420   -1.1780   -0.7000 H   0  0  0  0  0  0  0  0  0  0  0  0
   -3.2470    0.9030   -0.2530 H   0  0  0  0  0  0  0  0  0  0  0  0
   -3.0160    1.4180   -1.9810 H   0  0  0  0  0  0  0  0  0  0  0  0
   -4.5490    0.2500   -3.8600 H   0  0  0  0  0  0  0  0  0  0  0  0
   -6.7080   -1.2180   -3.7580 H   0  0  0  0  0  0  0  0  0  0  0  0
   -7.0570   -2.0450   -1.3840 H   0  0  0  0  0  0  0  0  0  0  0  0
  1 11  1  0  0  0  0
  2 13  1  1  0  0  0
  2  1  1  0  0  0  0
  3  2  1  0  0  0  0
  3 15  1  0  0  0  0
  4  3  1  0  0  0  0
  5  4  2  0  0  0  0
  6  7  1  0  0  0  0
  6  5  1  0  0  0  0
  7  8  2  0  0  0  0
  8  4  1  0  0  0  0
  9 10  2  0  0  0  0
  9  2  1  0  0  0  0
 12  1  1  0  0  0  0
 14  3  1  0  0  0  0
 16  5  1  0  0  0  0
 17  6  1  0  0  0  0
 18  7  1  0  0  0  0
 19  9  1  0  0  0  0
 20 28  1  1  0  0  0
 20 19  1  0  0  0  0
 21 29  1  0  0  0  0
 21 20  1  0  0  0  0
 22 26  1  0  0  0  0
 22 21  1  0  0  0  0
 23 22  2  0  0  0  0
 24 20  1  0  0  0  0
 24 25  2  0  0  0  0
 27 19  1  0  0  0  0
 30 21  1  0  0  0  0
 31 26  1  0  0  0  0
 32 24  1  0  0  0  0
 33 34  1  0  0  0  0
 33 32  1  0  0  0  0
 33 44  1  1  0  0  0
 34 45  1  0  0  0  0
 35 34  1  0  0  0  0
 35 39  1  0  0  0  0
 36 37  1  0  0  0  0
 36 35  2  0  0  0  0
 37 38  1  0  0  0  0
 38 49  1  0  0  0  0
 38 39  2  0  0  0  0
 40 33  1  0  0  0  0
 41 40  1  0  0  0  0
 42 40  2  0  0  0  0
 43 32  1  0  0  0  0
 46 34  1  0  0  0  0
 47 36  1  0  0  0  0
 48 37  1  0  0  0  0
M  END
$$$$
