HDI.pdb
 OpenBabel07022418353D

 51 51  0  0  1  0  0  0  0  0999 V2000
   -1.6860   -4.0500   -0.3120 N   0  0  0  0  0  0  0  0  0  0  0  0
   -1.1910   -3.6940   -1.6290 C   0  0  1  0  0  0  0  0  0  0  0  0
   -2.4220   -3.2000   -2.3940 C   0  0  0  0  0  0  0  0  0  0  0  0
   -3.4060   -4.3270   -2.4400 C   0  0  0  0  0  0  0  0  0  0  0  0
   -4.6550   -4.3360   -3.0110 C   0  0  0  0  0  0  0  0  0  0  0  0
   -5.1690   -5.5550   -2.8040 N   0  0  0  0  0  0  0  0  0  0  0  0
   -4.2820   -6.3070   -2.1220 C   0  0  0  0  0  0  0  0  0  0  0  0
   -3.2160   -5.5290   -1.9150 N   0  0  0  0  0  0  0  0  0  0  0  0
   -0.1600   -2.6020   -1.5480 C   0  0  0  0  0  0  0  0  0  0  0  0
    0.4670   -2.2630   -2.5780 O   0  0  0  0  0  0  0  0  0  0  0  0
   -2.2930   -3.2610    0.0230 H   0  0  0  0  0  0  0  0  0  0  0  0
   -0.9540   -4.3320    0.3560 H   0  0  0  0  0  0  0  0  0  0  0  0
   -0.7840   -4.5740   -2.1530 H   0  0  0  0  0  0  0  0  0  0  0  0
   -2.1710   -2.8890   -3.4260 H   0  0  0  0  0  0  0  0  0  0  0  0
   -2.8220   -2.3470   -1.7910 H   0  0  0  0  0  0  0  0  0  0  0  0
   -5.1290   -3.5270   -3.5210 H   0  0  0  0  0  0  0  0  0  0  0  0
   -6.1120   -5.9070   -3.1090 H   0  0  0  0  0  0  0  0  0  0  0  0
   -4.3290   -7.3260   -1.7740 H   0  0  0  0  0  0  0  0  0  0  0  0
    0.0910   -1.9740   -0.3230 N   0  0  0  0  0  0  0  0  0  0  0  0
    1.0130   -0.9540    0.0300 C   0  0  1  0  0  0  0  0  0  0  0  0
    1.8950   -0.4240   -1.0860 C   0  0  0  0  0  0  0  0  0  0  0  0
    2.7870   -1.4820   -1.5750 C   0  0  0  0  0  0  0  0  0  0  0  0
    2.8610   -2.5630   -0.9110 O   0  0  0  0  0  0  0  0  0  0  0  0
    0.4880    0.0640    0.9220 C   0  0  0  0  0  0  0  0  0  0  0  0
   -0.7330    0.0360    1.3370 O   0  0  0  0  0  0  0  0  0  0  0  0
    3.5650   -1.3970   -2.7170 O   0  0  0  0  0  0  0  0  0  0  0  0
   -0.5290   -2.3330    0.4970 H   0  0  0  0  0  0  0  0  0  0  0  0
    1.8310   -1.5510    0.6280 H   0  0  0  0  0  0  0  0  0  0  0  0
    2.5310    0.3700   -0.6460 H   0  0  0  0  0  0  0  0  0  0  0  0
    1.3070    0.0660   -1.8830 H   0  0  0  0  0  0  0  0  0  0  0  0
    4.4420   -1.8670   -2.8260 H   0  0  0  0  0  0  0  0  0  0  0  0
    1.3380    2.7340    6.0400 C   0  0  0  0  0  0  0  0  0  0  0  0
    0.7510    3.0120    4.6770 C   0  0  0  0  0  0  0  0  0  0  0  0
    1.3010    2.0320    3.6730 C   0  0  2  0  0  0  0  0  0  0  0  0
    2.7940    2.0980    3.5210 C   0  0  0  0  0  0  0  0  0  0  0  0
    0.6460    2.1550    2.3130 C   0  0  2  0  0  0  0  0  0  0  0  0
    1.2310    1.1610    1.4190 N   0  0  0  0  0  0  0  0  0  0  0  0
    0.7180    3.5080    1.7460 C   0  0  0  0  0  0  0  0  0  0  0  0
    1.2650    3.6470    0.6060 O   0  0  0  0  0  0  0  0  0  0  0  0
    0.2450    4.6460    2.3380 O   0  0  0  0  0  0  0  0  0  0  0  0
    0.9890    1.7600    6.4620 H   0  0  0  0  0  0  0  0  0  0  0  0
    2.4400    2.7170    6.0580 H   0  0  0  0  0  0  0  0  0  0  0  0
    1.0170    3.5070    6.7870 H   0  0  0  0  0  0  0  0  0  0  0  0
    1.0020    4.0690    4.4500 H   0  0  0  0  0  0  0  0  0  0  0  0
   -0.3400    2.8980    4.6690 H   0  0  0  0  0  0  0  0  0  0  0  0
    0.9810    1.0140    4.0650 H   0  0  0  0  0  0  0  0  0  0  0  0
    3.2320    2.8380    4.2160 H   0  0  0  0  0  0  0  0  0  0  0  0
    3.0650    2.4930    2.4980 H   0  0  0  0  0  0  0  0  0  0  0  0
    3.2890    1.1190    3.6180 H   0  0  0  0  0  0  0  0  0  0  0  0
   -0.4440    1.8980    2.4670 H   0  0  0  0  0  0  0  0  0  0  0  0
    2.2210    1.2600    1.1400 H   0  0  0  0  0  0  0  0  0  0  0  0
  1 11  1  0  0  0  0
  1 12  1  0  0  0  0
  2 13  1  6  0  0  0
  2  9  1  0  0  0  0
  2  1  1  0  0  0  0
  3 15  1  0  0  0  0
  3  2  1  0  0  0  0
  4  3  1  0  0  0  0
  4  8  1  0  0  0  0
  5  6  1  0  0  0  0
  5  4  2  0  0  0  0
  6  7  1  0  0  0  0
  7  8  2  0  0  0  0
  7 18  1  0  0  0  0
  9 19  1  0  0  0  0
 10  9  2  0  0  0  0
 14  3  1  0  0  0  0
 16  5  1  0  0  0  0
 17  6  1  0  0  0  0
 19 20  1  0  0  0  0
 19 27  1  0  0  0  0
 20 28  1  1  0  0  0
 20 24  1  0  0  0  0
 21 29  1  0  0  0  0
 21 20  1  0  0  0  0
 22 21  1  0  0  0  0
 22 23  2  0  0  0  0
 24 25  2  0  0  0  0
 24 37  1  0  0  0  0
 26 22  1  0  0  0  0
 30 21  1  0  0  0  0
 31 26  1  0  0  0  0
 32 42  1  0  0  0  0
 32 41  1  0  0  0  0
 32 43  1  0  0  0  0
 33 32  1  0  0  0  0
 34 46  1  1  0  0  0
 34 33  1  0  0  0  0
 35 49  1  0  0  0  0
 35 34  1  0  0  0  0
 35 47  1  0  0  0  0
 36 50  1  1  0  0  0
 36 34  1  0  0  0  0
 37 36  1  0  0  0  0
 38 36  1  0  0  0  0
 38 40  1  0  0  0  0
 39 38  2  0  0  0  0
 44 33  1  0  0  0  0
 45 33  1  0  0  0  0
 48 35  1  0  0  0  0
 51 37  1  0  0  0  0
M  END
$$$$
