HDL.pdb
 OpenBabel07022418353D

 51 51  0  0  1  0  0  0  0  0999 V2000
    0.6160   -1.5570    5.5480 N   0  0  0  0  0  0  0  0  0  0  0  0
    0.6540   -0.4000    4.6790 C   0  0  1  0  0  0  0  0  0  0  0  0
    2.0360    0.0580    4.3710 C   0  0  0  0  0  0  0  0  0  0  0  0
    2.8630   -1.0010    3.6950 C   0  0  0  0  0  0  0  0  0  0  0  0
    2.9610   -1.1930    2.3370 C   0  0  0  0  0  0  0  0  0  0  0  0
    3.7970   -2.2310    2.1610 N   0  0  0  0  0  0  0  0  0  0  0  0
    4.2130   -2.6810    3.3570 C   0  0  0  0  0  0  0  0  0  0  0  0
    3.6350   -1.9210    4.2830 N   0  0  0  0  0  0  0  0  0  0  0  0
   -0.1980   -0.6820    3.5060 C   0  0  0  0  0  0  0  0  0  0  0  0
   -0.7740   -1.8100    3.3530 O   0  0  0  0  0  0  0  0  0  0  0  0
   -0.1670   -2.2050    5.3270 H   0  0  0  0  0  0  0  0  0  0  0  0
    0.6660   -1.3050    6.5560 H   0  0  0  0  0  0  0  0  0  0  0  0
    0.1890    0.4290    5.2980 H   0  0  0  0  0  0  0  0  0  0  0  0
    1.9940    0.9460    3.7390 H   0  0  0  0  0  0  0  0  0  0  0  0
    2.5060    0.3550    5.3360 H   0  0  0  0  0  0  0  0  0  0  0  0
    2.4500   -0.6040    1.5700 H   0  0  0  0  0  0  0  0  0  0  0  0
    4.0970   -2.6480    1.2370 H   0  0  0  0  0  0  0  0  0  0  0  0
    4.9090   -3.5280    3.5060 H   0  0  0  0  0  0  0  0  0  0  0  0
   -0.4420    0.2640    2.4740 N   0  0  0  0  0  0  0  0  0  0  0  0
   -1.2780   -0.0040    1.3280 C   0  0  1  0  0  0  0  0  0  0  0  0
   -2.5650    0.7990    1.3880 C   0  0  0  0  0  0  0  0  0  0  0  0
   -2.1780    2.2420    1.4130 C   0  0  0  0  0  0  0  0  0  0  0  0
   -1.7310    2.7960    2.4440 O   0  0  0  0  0  0  0  0  0  0  0  0
   -0.6080    0.1130    0.0320 C   0  0  0  0  0  0  0  0  0  0  0  0
    0.5960    0.4180   -0.1580 O   0  0  0  0  0  0  0  0  0  0  0  0
   -2.3080    3.0150    0.2730 O   0  0  0  0  0  0  0  0  0  0  0  0
    0.0210    1.1950    2.5770 H   0  0  0  0  0  0  0  0  0  0  0  0
   -1.6090   -1.0800    1.4390 H   0  0  0  0  0  0  0  0  0  0  0  0
   -3.2410    0.5700    0.5570 H   0  0  0  0  0  0  0  0  0  0  0  0
   -3.1000    0.5940    2.3340 H   0  0  0  0  0  0  0  0  0  0  0  0
   -1.5560    3.6750    0.0260 H   0  0  0  0  0  0  0  0  0  0  0  0
    0.8670   -2.6530   -2.6480 C   0  0  0  0  0  0  0  0  0  0  0  0
   -0.5960   -2.5330   -2.8610 C   0  0  0  0  0  0  0  0  0  0  0  0
   -1.3220   -3.0080   -1.6200 C   0  0  0  0  0  0  0  0  0  0  0  0
   -1.0760   -1.2180   -3.3510 C   0  0  0  0  0  0  0  0  0  0  0  0
   -0.7880   -0.0460   -2.4740 C   0  0  2  0  0  0  0  0  0  0  0  0
   -1.3580   -0.1350   -1.1680 N   0  0  0  0  0  0  0  0  0  0  0  0
   -1.4150    1.1430   -3.1630 C   0  0  0  0  0  0  0  0  0  0  0  0
   -2.2810    1.8610   -2.5990 O   0  0  0  0  0  0  0  0  0  0  0  0
   -1.0650    1.5010   -4.4580 O   0  0  0  0  0  0  0  0  0  0  0  0
    1.4920   -2.0490   -3.2980 H   0  0  0  0  0  0  0  0  0  0  0  0
    1.2150   -3.7220   -2.7750 H   0  0  0  0  0  0  0  0  0  0  0  0
    1.1640   -2.4060   -1.5910 H   0  0  0  0  0  0  0  0  0  0  0  0
   -0.8710   -3.2820   -3.6640 H   0  0  0  0  0  0  0  0  0  0  0  0
   -1.2500   -4.1340   -1.6160 H   0  0  0  0  0  0  0  0  0  0  0  0
   -0.8080   -2.6920   -0.6900 H   0  0  0  0  0  0  0  0  0  0  0  0
   -2.3730   -2.7110   -1.6610 H   0  0  0  0  0  0  0  0  0  0  0  0
   -0.6850   -1.0020   -4.3610 H   0  0  0  0  0  0  0  0  0  0  0  0
   -2.1890   -1.2800   -3.4570 H   0  0  0  0  0  0  0  0  0  0  0  0
    0.2920    0.2130   -2.4080 H   0  0  0  0  0  0  0  0  0  0  0  0
   -2.3580   -0.3880   -1.0650 H   0  0  0  0  0  0  0  0  0  0  0  0
  1 12  1  0  0  0  0
  2 13  1  1  0  0  0
  2  1  1  0  0  0  0
  3  2  1  0  0  0  0
  3 15  1  0  0  0  0
  4  8  1  0  0  0  0
  4  3  1  0  0  0  0
  5  4  2  0  0  0  0
  6  5  1  0  0  0  0
  6  7  1  0  0  0  0
  7 18  1  0  0  0  0
  7  8  2  0  0  0  0
  9  2  1  0  0  0  0
 10  9  2  0  0  0  0
 11  1  1  0  0  0  0
 14  3  1  0  0  0  0
 16  5  1  0  0  0  0
 17  6  1  0  0  0  0
 19 27  1  0  0  0  0
 19  9  1  0  0  0  0
 20 21  1  0  0  0  0
 20 28  1  1  0  0  0
 20 19  1  0  0  0  0
 21 22  1  0  0  0  0
 21 30  1  0  0  0  0
 22 23  2  0  0  0  0
 24 20  1  0  0  0  0
 25 24  2  0  0  0  0
 26 22  1  0  0  0  0
 29 21  1  0  0  0  0
 31 26  1  0  0  0  0
 32 43  1  0  0  0  0
 33 32  1  0  0  0  0
 33 34  1  0  0  0  0
 34 45  1  0  0  0  0
 34 46  1  0  0  0  0
 35 33  1  0  0  0  0
 35 36  1  0  0  0  0
 36 50  1  1  0  0  0
 36 37  1  0  0  0  0
 37 51  1  0  0  0  0
 37 24  1  0  0  0  0
 38 39  1  0  0  0  0
 38 36  1  0  0  0  0
 40 38  2  0  0  0  0
 41 32  1  0  0  0  0
 42 32  1  0  0  0  0
 44 33  1  0  0  0  0
 47 34  1  0  0  0  0
 48 35  1  0  0  0  0
 49 35  1  0  0  0  0
M  END
$$$$
