HDM.pdb
 OpenBabel07022418353D

 49 49  0  0  1  0  0  0  0  0999 V2000
    2.2470   -1.7620    2.4510 N   0  0  0  0  0  0  0  0  0  0  0  0
    1.2920   -1.0590    3.2510 C   0  0  1  0  0  0  0  0  0  0  0  0
    2.0270   -0.2360    4.2870 C   0  0  0  0  0  0  0  0  0  0  0  0
    2.9420    0.7540    3.7140 C   0  0  0  0  0  0  0  0  0  0  0  0
    2.6160    2.0470    3.3880 C   0  0  0  0  0  0  0  0  0  0  0  0
    3.7060    2.6460    2.8920 N   0  0  0  0  0  0  0  0  0  0  0  0
    4.6900    1.7360    2.9120 C   0  0  0  0  0  0  0  0  0  0  0  0
    4.2310    0.5850    3.4110 N   0  0  0  0  0  0  0  0  0  0  0  0
    0.3740   -0.2120    2.4380 C   0  0  0  0  0  0  0  0  0  0  0  0
   -0.5400    0.4550    2.9870 O   0  0  0  0  0  0  0  0  0  0  0  0
    3.0140   -2.1000    3.1050 H   0  0  0  0  0  0  0  0  0  0  0  0
    1.8040   -2.6370    2.0820 H   0  0  0  0  0  0  0  0  0  0  0  0
    0.6720   -1.7920    3.7940 H   0  0  0  0  0  0  0  0  0  0  0  0
    1.2370    0.3060    4.8620 H   0  0  0  0  0  0  0  0  0  0  0  0
    2.5600   -0.8720    5.0180 H   0  0  0  0  0  0  0  0  0  0  0  0
    1.6530    2.5180    3.5030 H   0  0  0  0  0  0  0  0  0  0  0  0
    3.7910    3.6480    2.5460 H   0  0  0  0  0  0  0  0  0  0  0  0
    5.7090    1.9030    2.5750 H   0  0  0  0  0  0  0  0  0  0  0  0
    0.4740   -0.1100    1.0310 N   0  0  0  0  0  0  0  0  0  0  0  0
   -0.4300    0.7230    0.2210 C   0  0  1  0  0  0  0  0  0  0  0  0
    0.4500    1.6690   -0.5440 C   0  0  0  0  0  0  0  0  0  0  0  0
   -0.2290    2.6370   -1.3980 C   0  0  0  0  0  0  0  0  0  0  0  0
   -1.4740    2.7930   -1.4480 O   0  0  0  0  0  0  0  0  0  0  0  0
   -1.1590   -0.1620   -0.7360 C   0  0  0  0  0  0  0  0  0  0  0  0
   -1.9830    0.3450   -1.5070 O   0  0  0  0  0  0  0  0  0  0  0  0
    0.5040    3.4900   -2.2550 O   0  0  0  0  0  0  0  0  0  0  0  0
    1.2140   -0.6360    0.5390 H   0  0  0  0  0  0  0  0  0  0  0  0
   -1.1600    1.2610    0.8370 H   0  0  0  0  0  0  0  0  0  0  0  0
    1.1700    1.1070   -1.1930 H   0  0  0  0  0  0  0  0  0  0  0  0
    1.1030    2.2360    0.1710 H   0  0  0  0  0  0  0  0  0  0  0  0
    0.0280    4.0060   -2.9920 H   0  0  0  0  0  0  0  0  0  0  0  0
   -1.4680   -4.9090    0.6020 C   0  0  0  0  0  0  0  0  0  0  0  0
   -3.1990   -4.5180    0.3540 S   0  0  0  0  0  0  0  0  0  0  0  0
   -3.5400   -2.8360   -0.1080 C   0  0  0  0  0  0  0  0  0  0  0  0
   -3.0820   -2.4200   -1.4740 C   0  0  0  0  0  0  0  0  0  0  0  0
   -1.6150   -2.4570   -1.6930 C   0  0  2  0  0  0  0  0  0  0  0  0
   -0.9330   -1.5650   -0.7830 N   0  0  0  0  0  0  0  0  0  0  0  0
   -1.3610   -1.9570   -3.0950 C   0  0  0  0  0  0  0  0  0  0  0  0
   -1.8740   -2.5350   -4.0820 O   0  0  0  0  0  0  0  0  0  0  0  0
   -0.5570   -0.8540   -3.3110 O   0  0  0  0  0  0  0  0  0  0  0  0
   -1.3080   -5.5460    1.5120 H   0  0  0  0  0  0  0  0  0  0  0  0
   -1.0460   -5.4450   -0.3010 H   0  0  0  0  0  0  0  0  0  0  0  0
   -0.8790   -3.9820    0.7040 H   0  0  0  0  0  0  0  0  0  0  0  0
   -4.6370   -2.5970   -0.0170 H   0  0  0  0  0  0  0  0  0  0  0  0
   -2.9990   -2.1570    0.6240 H   0  0  0  0  0  0  0  0  0  0  0  0
   -3.4640   -1.3760   -1.6650 H   0  0  0  0  0  0  0  0  0  0  0  0
   -3.6280   -3.1050   -2.1890 H   0  0  0  0  0  0  0  0  0  0  0  0
   -1.2070   -3.4950   -1.6080 H   0  0  0  0  0  0  0  0  0  0  0  0
   -0.2130   -1.9050   -0.0940 H   0  0  0  0  0  0  0  0  0  0  0  0
  1 11  1  0  0  0  0
  1  2  1  0  0  0  0
  2 13  1  1  0  0  0
  2  3  1  0  0  0  0
  3 14  1  0  0  0  0
  3 15  1  0  0  0  0
  4  3  1  0  0  0  0
  5 16  1  0  0  0  0
  5  4  2  0  0  0  0
  6  7  1  0  0  0  0
  6  5  1  0  0  0  0
  7  8  2  0  0  0  0
  8  4  1  0  0  0  0
  9 10  2  0  0  0  0
  9  2  1  0  0  0  0
 12  1  1  0  0  0  0
 17  6  1  0  0  0  0
 18  7  1  0  0  0  0
 19  9  1  0  0  0  0
 20 28  1  1  0  0  0
 20 19  1  0  0  0  0
 21 30  1  0  0  0  0
 21 20  1  0  0  0  0
 22 21  1  0  0  0  0
 23 22  2  0  0  0  0
 24 20  1  0  0  0  0
 25 24  2  0  0  0  0
 26 22  1  0  0  0  0
 27 19  1  0  0  0  0
 29 21  1  0  0  0  0
 31 26  1  0  0  0  0
 32 43  1  0  0  0  0
 32 41  1  0  0  0  0
 33 32  1  0  0  0  0
 34 44  1  0  0  0  0
 34 33  1  0  0  0  0
 34 45  1  0  0  0  0
 35 34  1  0  0  0  0
 36 48  1  1  0  0  0
 36 35  1  0  0  0  0
 36 37  1  0  0  0  0
 37 24  1  0  0  0  0
 37 49  1  0  0  0  0
 38 36  1  0  0  0  0
 39 38  2  0  0  0  0
 40 38  1  0  0  0  0
 42 32  1  0  0  0  0
 46 35  1  0  0  0  0
 47 35  1  0  0  0  0
M  END
$$$$
