HDR.pdb
 OpenBabel07022418353D

 55 55  0  0  1  0  0  0  0  0999 V2000
    2.0530   -2.5250    3.6200 N   0  0  0  0  0  0  0  0  0  0  0  0
    1.1370   -1.8010    2.7690 C   0  0  1  0  0  0  0  0  0  0  0  0
    0.5470   -0.5990    3.4710 C   0  0  0  0  0  0  0  0  0  0  0  0
    1.6730    0.2910    3.8520 C   0  0  0  0  0  0  0  0  0  0  0  0
    2.3670    0.2300    5.0530 C   0  0  0  0  0  0  0  0  0  0  0  0
    3.3190    1.1810    5.0580 N   0  0  0  0  0  0  0  0  0  0  0  0
    3.2090    1.8060    3.8910 C   0  0  0  0  0  0  0  0  0  0  0  0
    2.2170    1.2800    3.1500 N   0  0  0  0  0  0  0  0  0  0  0  0
    1.8670   -1.3810    1.5080 C   0  0  0  0  0  0  0  0  0  0  0  0
    3.0770   -1.6620    1.4150 O   0  0  0  0  0  0  0  0  0  0  0  0
    1.8160   -3.5620    3.5990 H   0  0  0  0  0  0  0  0  0  0  0  0
    3.0530   -2.3610    3.3540 H   0  0  0  0  0  0  0  0  0  0  0  0
    0.2960   -2.4760    2.5180 H   0  0  0  0  0  0  0  0  0  0  0  0
    0.0360   -0.9090    4.4040 H   0  0  0  0  0  0  0  0  0  0  0  0
   -0.1780   -0.0600    2.8610 H   0  0  0  0  0  0  0  0  0  0  0  0
    2.1770   -0.4660    5.8490 H   0  0  0  0  0  0  0  0  0  0  0  0
    3.9990    1.3810    5.8200 H   0  0  0  0  0  0  0  0  0  0  0  0
    3.8410    2.6310    3.5890 H   0  0  0  0  0  0  0  0  0  0  0  0
    1.1670   -0.6990    0.4970 N   0  0  0  0  0  0  0  0  0  0  0  0
    1.5790   -0.1770   -0.7480 C   0  0  1  0  0  0  0  0  0  0  0  0
    2.9320   -0.5820   -1.2890 C   0  0  0  0  0  0  0  0  0  0  0  0
    4.0020   -0.0620   -0.4370 C   0  0  0  0  0  0  0  0  0  0  0  0
    5.1540   -0.5760   -0.4970 O   0  0  0  0  0  0  0  0  0  0  0  0
    0.5700   -0.0790   -1.7980 C   0  0  0  0  0  0  0  0  0  0  0  0
    0.9240    0.4270   -2.9140 O   0  0  0  0  0  0  0  0  0  0  0  0
    3.8530    1.0020    0.4730 O   0  0  0  0  0  0  0  0  0  0  0  0
    0.1130   -0.5640    0.7810 H   0  0  0  0  0  0  0  0  0  0  0  0
    1.8410    0.9440   -0.4730 H   0  0  0  0  0  0  0  0  0  0  0  0
    3.0080   -1.6730   -1.4720 H   0  0  0  0  0  0  0  0  0  0  0  0
    3.0310   -0.0570   -2.2830 H   0  0  0  0  0  0  0  0  0  0  0  0
    4.5510    1.7290    0.5200 H   0  0  0  0  0  0  0  0  0  0  0  0
   -3.7240   -0.2710    1.3320 N   0  0  0  0  0  0  0  0  0  0  0  0
   -3.5870   -1.4000    0.4810 C   0  0  0  0  0  0  0  0  0  0  0  0
   -2.8870   -2.4320    0.8030 N   0  0  0  0  0  0  0  0  0  0  0  0
   -4.2360   -1.4380   -0.8000 N   0  0  0  0  0  0  0  0  0  0  0  0
   -4.0810   -2.4990   -1.7220 C   0  0  0  0  0  0  0  0  0  0  0  0
   -2.7680   -2.7270   -2.3540 C   0  0  0  0  0  0  0  0  0  0  0  0
   -2.1610   -1.7260   -3.2200 C   0  0  0  0  0  0  0  0  0  0  0  0
   -1.7500   -0.3930   -2.7490 C   0  0  2  0  0  0  0  0  0  0  0  0
   -0.7620   -0.5060   -1.6590 N   0  0  0  0  0  0  0  0  0  0  0  0
   -2.8540    0.5060   -2.4470 C   0  0  0  0  0  0  0  0  0  0  0  0
   -3.8150    0.6240   -3.2370 O   0  0  0  0  0  0  0  0  0  0  0  0
   -2.8740    1.2620   -1.2760 O   0  0  0  0  0  0  0  0  0  0  0  0
   -2.8760    0.2660    1.6050 H   0  0  0  0  0  0  0  0  0  0  0  0
   -4.6460    0.0480    1.6990 H   0  0  0  0  0  0  0  0  0  0  0  0
   -2.4000   -2.4260    1.7410 H   0  0  0  0  0  0  0  0  0  0  0  0
   -4.8690   -0.6210   -0.9880 H   0  0  0  0  0  0  0  0  0  0  0  0
   -4.9090   -2.4390   -2.5160 H   0  0  0  0  0  0  0  0  0  0  0  0
   -4.4160   -3.4490   -1.1680 H   0  0  0  0  0  0  0  0  0  0  0  0
   -2.0540   -3.0640   -1.5210 H   0  0  0  0  0  0  0  0  0  0  0  0
   -2.9000   -3.7130   -2.9490 H   0  0  0  0  0  0  0  0  0  0  0  0
   -1.2500   -2.1920   -3.7640 H   0  0  0  0  0  0  0  0  0  0  0  0
   -2.8720   -1.5530   -4.0990 H   0  0  0  0  0  0  0  0  0  0  0  0
   -1.1330    0.0680   -3.6260 H   0  0  0  0  0  0  0  0  0  0  0  0
   -1.0510   -0.9180   -0.7600 H   0  0  0  0  0  0  0  0  0  0  0  0
  2 13  1  6  0  0  0
  2  3  1  0  0  0  0
  2  1  1  0  0  0  0
  3  4  1  0  0  0  0
  3 14  1  0  0  0  0
  4  5  2  0  0  0  0
  5  6  1  0  0  0  0
  5 16  1  0  0  0  0
  6 17  1  0  0  0  0
  7  6  1  0  0  0  0
  8  4  1  0  0  0  0
  8  7  2  0  0  0  0
  9  2  1  0  0  0  0
 10  9  2  0  0  0  0
 11  1  1  0  0  0  0
 12  1  1  0  0  0  0
 15  3  1  0  0  0  0
 18  7  1  0  0  0  0
 19 27  1  0  0  0  0
 19  9  1  0  0  0  0
 20 28  1  1  0  0  0
 20 19  1  0  0  0  0
 21 20  1  0  0  0  0
 21 22  1  0  0  0  0
 22 26  1  0  0  0  0
 23 22  2  0  0  0  0
 24 40  1  0  0  0  0
 24 20  1  0  0  0  0
 25 24  2  0  0  0  0
 26 31  1  0  0  0  0
 29 21  1  0  0  0  0
 30 21  1  0  0  0  0
 32 44  1  0  0  0  0
 32 45  1  0  0  0  0
 33 34  2  0  0  0  0
 33 32  1  0  0  0  0
 34 46  1  0  0  0  0
 35 33  1  0  0  0  0
 36 49  1  0  0  0  0
 36 35  1  0  0  0  0
 37 36  1  0  0  0  0
 37 50  1  0  0  0  0
 38 39  1  0  0  0  0
 38 37  1  0  0  0  0
 39 54  1  6  0  0  0
 39 41  1  0  0  0  0
 39 40  1  0  0  0  0
 40 55  1  0  0  0  0
 41 43  1  0  0  0  0
 42 41  2  0  0  0  0
 47 35  1  0  0  0  0
 48 36  1  0  0  0  0
 51 37  1  0  0  0  0
 52 38  1  0  0  0  0
 53 38  1  0  0  0  0
M  END
$$$$
