HDS.pdb
 OpenBabel07022418353D

 43 43  0  0  1  0  0  0  0  0999 V2000
    1.1490   -2.9210    1.6680 N   0  0  0  0  0  0  0  0  0  0  0  0
    2.0260   -1.8840    2.1000 C   0  0  1  0  0  0  0  0  0  0  0  0
    3.4440   -2.2980    1.9830 C   0  0  0  0  0  0  0  0  0  0  0  0
    3.8870   -2.6580    0.6280 C   0  0  0  0  0  0  0  0  0  0  0  0
    3.1210   -2.6710   -0.5140 C   0  0  0  0  0  0  0  0  0  0  0  0
    3.9020   -3.0660   -1.5260 N   0  0  0  0  0  0  0  0  0  0  0  0
    5.1580   -3.3090   -1.0600 C   0  0  0  0  0  0  0  0  0  0  0  0
    5.1430   -3.0570    0.2640 N   0  0  0  0  0  0  0  0  0  0  0  0
    1.7570   -0.5540    1.4860 C   0  0  0  0  0  0  0  0  0  0  0  0
    2.5190    0.4320    1.7590 O   0  0  0  0  0  0  0  0  0  0  0  0
    0.2960   -3.0080    2.2600 H   0  0  0  0  0  0  0  0  0  0  0  0
    1.6230   -3.8360    1.5000 H   0  0  0  0  0  0  0  0  0  0  0  0
    1.8320   -1.7490    3.2090 H   0  0  0  0  0  0  0  0  0  0  0  0
    4.1460   -1.5750    2.4880 H   0  0  0  0  0  0  0  0  0  0  0  0
    3.5560   -3.2350    2.6050 H   0  0  0  0  0  0  0  0  0  0  0  0
    2.0800   -2.4070   -0.5490 H   0  0  0  0  0  0  0  0  0  0  0  0
    3.5400   -3.1550   -2.5060 H   0  0  0  0  0  0  0  0  0  0  0  0
    5.9900   -3.6450   -1.6790 H   0  0  0  0  0  0  0  0  0  0  0  0
    0.7010   -0.3150    0.6110 N   0  0  0  0  0  0  0  0  0  0  0  0
    0.5020    1.0370    0.0420 C   0  0  1  0  0  0  0  0  0  0  0  0
    0.4340    0.9550   -1.4410 C   0  0  0  0  0  0  0  0  0  0  0  0
    0.2870    2.2720   -2.0600 C   0  0  0  0  0  0  0  0  0  0  0  0
    0.3480    3.3160   -1.3880 O   0  0  0  0  0  0  0  0  0  0  0  0
   -0.8130    1.5380    0.5950 C   0  0  0  0  0  0  0  0  0  0  0  0
   -1.3160    2.6450    0.3530 O   0  0  0  0  0  0  0  0  0  0  0  0
    0.0720    2.4140   -3.4370 O   0  0  0  0  0  0  0  0  0  0  0  0
    0.0310   -1.0430    0.3270 H   0  0  0  0  0  0  0  0  0  0  0  0
    1.2720    1.7200    0.4140 H   0  0  0  0  0  0  0  0  0  0  0  0
   -0.4560    0.3500   -1.7680 H   0  0  0  0  0  0  0  0  0  0  0  0
    1.3590    0.4230   -1.7970 H   0  0  0  0  0  0  0  0  0  0  0  0
    0.5590    3.1460   -3.9680 H   0  0  0  0  0  0  0  0  0  0  0  0
   -3.6430   -1.0580    1.7390 O   0  0  0  0  0  0  0  0  0  0  0  0
   -3.9160    0.2500    1.3850 C   0  0  0  0  0  0  0  0  0  0  0  0
   -2.8520    1.1550    2.0220 C   0  0  2  0  0  0  0  0  0  0  0  0
   -1.5930    0.7040    1.4820 N   0  0  0  0  0  0  0  0  0  0  0  0
   -2.9300    1.1090    3.4850 C   0  0  0  0  0  0  0  0  0  0  0  0
   -2.0270    0.7230    4.2570 O   0  0  0  0  0  0  0  0  0  0  0  0
   -4.1270    1.5360    4.0660 O   0  0  0  0  0  0  0  0  0  0  0  0
   -4.4300   -1.6410    1.5700 H   0  0  0  0  0  0  0  0  0  0  0  0
   -3.7460    0.3130    0.2760 H   0  0  0  0  0  0  0  0  0  0  0  0
   -4.9350    0.5760    1.5860 H   0  0  0  0  0  0  0  0  0  0  0  0
   -3.1190    2.1760    1.6880 H   0  0  0  0  0  0  0  0  0  0  0  0
   -1.2130   -0.2360    1.7170 H   0  0  0  0  0  0  0  0  0  0  0  0
  1  2  1  0  0  0  0
  1 11  1  0  0  0  0
  2 13  1  1  0  0  0
  3  2  1  0  0  0  0
  3 14  1  0  0  0  0
  3 15  1  0  0  0  0
  4  3  1  0  0  0  0
  5  4  2  0  0  0  0
  6  7  1  0  0  0  0
  6  5  1  0  0  0  0
  7  8  2  0  0  0  0
  8  4  1  0  0  0  0
  9 10  2  0  0  0  0
  9  2  1  0  0  0  0
 12  1  1  0  0  0  0
 16  5  1  0  0  0  0
 17  6  1  0  0  0  0
 18  7  1  0  0  0  0
 19  9  1  0  0  0  0
 20 28  1  1  0  0  0
 20 24  1  0  0  0  0
 20 19  1  0  0  0  0
 21 20  1  0  0  0  0
 22 21  1  0  0  0  0
 22 23  2  0  0  0  0
 24 35  1  0  0  0  0
 25 24  2  0  0  0  0
 26 22  1  0  0  0  0
 27 19  1  0  0  0  0
 29 21  1  0  0  0  0
 30 21  1  0  0  0  0
 31 26  1  0  0  0  0
 33 41  1  0  0  0  0
 33 32  1  0  0  0  0
 33 34  1  0  0  0  0
 34 42  1  6  0  0  0
 34 36  1  0  0  0  0
 35 43  1  0  0  0  0
 35 34  1  0  0  0  0
 36 38  2  0  0  0  0
 36 37  1  0  0  0  0
 39 32  1  0  0  0  0
 40 33  1  0  0  0  0
M  END
$$$$
