HDV.pdb
 OpenBabel07022418353D

 48 48  0  0  1  0  0  0  0  0999 V2000
    5.1870   -0.9220   -0.0220 N   0  0  0  0  0  0  0  0  0  0  0  0
    4.2230   -0.6600    1.0180 C   0  0  1  0  0  0  0  0  0  0  0  0
    4.0330    0.7810    1.3430 C   0  0  0  0  0  0  0  0  0  0  0  0
    3.5670    1.5970    0.2110 C   0  0  0  0  0  0  0  0  0  0  0  0
    3.2820    1.2580   -1.0810 C   0  0  0  0  0  0  0  0  0  0  0  0
    2.8930    2.3830   -1.7100 N   0  0  0  0  0  0  0  0  0  0  0  0
    2.9280    3.4060   -0.8440 C   0  0  0  0  0  0  0  0  0  0  0  0
    3.3400    2.9200    0.3250 N   0  0  0  0  0  0  0  0  0  0  0  0
    2.9440   -1.3880    0.7840 C   0  0  0  0  0  0  0  0  0  0  0  0
    2.8420   -2.1210   -0.2330 O   0  0  0  0  0  0  0  0  0  0  0  0
    5.3590   -1.9630   -0.0170 H   0  0  0  0  0  0  0  0  0  0  0  0
    6.0820   -0.4800    0.2920 H   0  0  0  0  0  0  0  0  0  0  0  0
    4.6590   -1.1360    1.9480 H   0  0  0  0  0  0  0  0  0  0  0  0
    4.9790    1.1930    1.7210 H   0  0  0  0  0  0  0  0  0  0  0  0
    3.3190    0.8340    2.2000 H   0  0  0  0  0  0  0  0  0  0  0  0
    3.3630    0.2670   -1.4950 H   0  0  0  0  0  0  0  0  0  0  0  0
    2.5980    2.5020   -2.7120 H   0  0  0  0  0  0  0  0  0  0  0  0
    2.6640    4.4480   -1.0750 H   0  0  0  0  0  0  0  0  0  0  0  0
    1.8320   -1.3020    1.6450 N   0  0  0  0  0  0  0  0  0  0  0  0
    0.5640   -2.0140    1.4300 C   0  0  1  0  0  0  0  0  0  0  0  0
    0.3780   -2.9190    2.6160 C   0  0  0  0  0  0  0  0  0  0  0  0
   -0.8280   -3.7340    2.5930 C   0  0  0  0  0  0  0  0  0  0  0  0
   -1.8360   -3.5250    3.2840 O   0  0  0  0  0  0  0  0  0  0  0  0
   -0.5530   -1.0570    1.3480 C   0  0  0  0  0  0  0  0  0  0  0  0
   -0.3290    0.1930    1.5670 O   0  0  0  0  0  0  0  0  0  0  0  0
   -0.8650   -4.8310    1.7390 O   0  0  0  0  0  0  0  0  0  0  0  0
    1.9110   -0.6960    2.4880 H   0  0  0  0  0  0  0  0  0  0  0  0
    0.5950   -2.6280    0.5260 H   0  0  0  0  0  0  0  0  0  0  0  0
    0.3480   -2.3320    3.5780 H   0  0  0  0  0  0  0  0  0  0  0  0
    1.3040   -3.5620    2.7580 H   0  0  0  0  0  0  0  0  0  0  0  0
   -1.4500   -5.6360    1.9150 H   0  0  0  0  0  0  0  0  0  0  0  0
   -4.0220   -1.3120   -1.0650 C   0  0  0  0  0  0  0  0  0  0  0  0
   -3.4070   -0.1090   -0.4550 C   0  0  0  0  0  0  0  0  0  0  0  0
   -4.3850    1.0390   -0.4390 C   0  0  0  0  0  0  0  0  0  0  0  0
   -2.9200   -0.3090    0.9650 C   0  0  2  0  0  0  0  0  0  0  0  0
   -1.9070   -1.3460    1.0370 N   0  0  0  0  0  0  0  0  0  0  0  0
   -4.0900   -0.6590    1.7760 C   0  0  0  0  0  0  0  0  0  0  0  0
   -5.0980    0.1190    1.8990 O   0  0  0  0  0  0  0  0  0  0  0  0
   -4.1960   -1.8470    2.4640 O   0  0  0  0  0  0  0  0  0  0  0  0
   -3.3030   -1.8480   -1.7300 H   0  0  0  0  0  0  0  0  0  0  0  0
   -4.4140   -2.0560   -0.3490 H   0  0  0  0  0  0  0  0  0  0  0  0
   -4.8700   -1.0000   -1.7220 H   0  0  0  0  0  0  0  0  0  0  0  0
   -2.5130    0.2190   -1.0630 H   0  0  0  0  0  0  0  0  0  0  0  0
   -4.2880    1.6720   -1.3480 H   0  0  0  0  0  0  0  0  0  0  0  0
   -4.2210    1.7010    0.4330 H   0  0  0  0  0  0  0  0  0  0  0  0
   -5.4230    0.6190   -0.3520 H   0  0  0  0  0  0  0  0  0  0  0  0
   -2.5340    0.6790    1.2770 H   0  0  0  0  0  0  0  0  0  0  0  0
   -2.1490   -2.3420    0.8550 H   0  0  0  0  0  0  0  0  0  0  0  0
  1 11  1  0  0  0  0
  1 12  1  0  0  0  0
  1  2  1  0  0  0  0
  2  3  1  0  0  0  0
  2 13  1  1  0  0  0
  3 14  1  0  0  0  0
  3 15  1  0  0  0  0
  4  8  1  0  0  0  0
  4  3  1  0  0  0  0
  5  4  2  0  0  0  0
  6  5  1  0  0  0  0
  6  7  1  0  0  0  0
  7  8  2  0  0  0  0
  9  2  1  0  0  0  0
  9 19  1  0  0  0  0
 10  9  2  0  0  0  0
 16  5  1  0  0  0  0
 17  6  1  0  0  0  0
 18  7  1  0  0  0  0
 19 27  1  0  0  0  0
 20 28  1  6  0  0  0
 20 19  1  0  0  0  0
 20 21  1  0  0  0  0
 21 30  1  0  0  0  0
 21 29  1  0  0  0  0
 22 21  1  0  0  0  0
 22 23  2  0  0  0  0
 24 20  1  0  0  0  0
 24 25  2  0  0  0  0
 26 31  1  0  0  0  0
 26 22  1  0  0  0  0
 32 33  1  0  0  0  0
 32 41  1  0  0  0  0
 33 34  1  0  0  0  0
 33 35  1  0  0  0  0
 34 46  1  0  0  0  0
 34 45  1  0  0  0  0
 35 36  1  0  0  0  0
 35 47  1  1  0  0  0
 35 37  1  0  0  0  0
 36 24  1  0  0  0  0
 37 38  2  0  0  0  0
 37 39  1  0  0  0  0
 40 32  1  0  0  0  0
 42 32  1  0  0  0  0
 43 33  1  0  0  0  0
 44 34  1  0  0  0  0
 48 36  1  0  0  0  0
M  END
$$$$
