HDW.pdb
 OpenBabel07022418353D

 56 58  0  0  1  0  0  0  0  0999 V2000
    2.2940    1.0370    3.6620 N   0  0  0  0  0  0  0  0  0  0  0  0
    1.9660    0.6670    2.2980 C   0  0  1  0  0  0  0  0  0  0  0  0
    1.5110   -0.7900    2.2560 C   0  0  0  0  0  0  0  0  0  0  0  0
    2.6340   -1.6070    2.7640 C   0  0  0  0  0  0  0  0  0  0  0  0
    2.8570   -1.9630    4.0770 C   0  0  0  0  0  0  0  0  0  0  0  0
    3.9820   -2.7120    4.1550 N   0  0  0  0  0  0  0  0  0  0  0  0
    4.4470   -2.8150    2.8980 C   0  0  0  0  0  0  0  0  0  0  0  0
    3.6250   -2.1400    2.0430 N   0  0  0  0  0  0  0  0  0  0  0  0
    0.9150    1.5710    1.7760 C   0  0  0  0  0  0  0  0  0  0  0  0
    0.4510    2.4900    2.5300 O   0  0  0  0  0  0  0  0  0  0  0  0
    1.4820    1.4600    4.1690 H   0  0  0  0  0  0  0  0  0  0  0  0
    3.0980    1.7060    3.6180 H   0  0  0  0  0  0  0  0  0  0  0  0
    2.8750    0.7420    1.6860 H   0  0  0  0  0  0  0  0  0  0  0  0
    1.2310   -1.0640    1.2310 H   0  0  0  0  0  0  0  0  0  0  0  0
    0.6510   -0.8450    2.9760 H   0  0  0  0  0  0  0  0  0  0  0  0
    2.2310   -1.6840    4.9010 H   0  0  0  0  0  0  0  0  0  0  0  0
    4.3380   -3.0880    5.0520 H   0  0  0  0  0  0  0  0  0  0  0  0
    5.3470   -3.3630    2.6380 H   0  0  0  0  0  0  0  0  0  0  0  0
    0.4090    1.4370    0.4470 N   0  0  0  0  0  0  0  0  0  0  0  0
   -0.6110    2.3480    0.0070 C   0  0  1  0  0  0  0  0  0  0  0  0
   -0.1630    3.2760   -1.0930 C   0  0  0  0  0  0  0  0  0  0  0  0
    0.2810    2.5940   -2.3240 C   0  0  0  0  0  0  0  0  0  0  0  0
    0.3180    1.3670   -2.5210 O   0  0  0  0  0  0  0  0  0  0  0  0
   -1.8530    1.6740   -0.4290 C   0  0  0  0  0  0  0  0  0  0  0  0
   -2.7710    2.3780   -0.9090 O   0  0  0  0  0  0  0  0  0  0  0  0
    0.6990    3.4140   -3.3680 O   0  0  0  0  0  0  0  0  0  0  0  0
    0.7940    0.6870   -0.1580 H   0  0  0  0  0  0  0  0  0  0  0  0
   -0.8790    3.0660    0.8610 H   0  0  0  0  0  0  0  0  0  0  0  0
    0.6830    3.9320   -0.7330 H   0  0  0  0  0  0  0  0  0  0  0  0
   -0.9940    3.9490   -1.3920 H   0  0  0  0  0  0  0  0  0  0  0  0
    1.3650    3.1210   -4.0690 H   0  0  0  0  0  0  0  0  0  0  0  0
   -2.0920    0.2640   -0.3410 N   0  0  0  0  0  0  0  0  0  0  0  0
   -3.3030   -0.3460   -0.7690 C   0  0  1  0  0  0  0  0  0  0  0  0
   -3.2260   -1.4870   -1.7030 C   0  0  0  0  0  0  0  0  0  0  0  0
   -2.5160   -2.6790   -1.2770 C   0  0  0  0  0  0  0  0  0  0  0  0
   -3.0980   -3.8340   -0.7790 C   0  0  0  0  0  0  0  0  0  0  0  0
   -2.1460   -4.7210   -0.4730 N   0  0  0  0  0  0  0  0  0  0  0  0
   -0.9540   -4.2110   -0.7440 C   0  0  0  0  0  0  0  0  0  0  0  0
    0.3180   -4.7530   -0.6000 C   0  0  0  0  0  0  0  0  0  0  0  0
    1.4040   -4.0080   -0.9680 C   0  0  0  0  0  0  0  0  0  0  0  0
    1.2310   -2.7400   -1.4710 C   0  0  0  0  0  0  0  0  0  0  0  0
   -0.0410   -2.2290   -1.6010 C   0  0  0  0  0  0  0  0  0  0  0  0
   -1.1700   -2.9310   -1.2490 C   0  0  0  0  0  0  0  0  0  0  0  0
   -4.1760   -0.7050    0.4250 C   0  0  0  0  0  0  0  0  0  0  0  0
   -3.8330   -0.4770    1.5900 O   0  0  0  0  0  0  0  0  0  0  0  0
   -5.4050   -1.3100    0.2010 O   0  0  0  0  0  0  0  0  0  0  0  0
   -1.3230   -0.3070    0.0660 H   0  0  0  0  0  0  0  0  0  0  0  0
   -3.9360    0.4510   -1.2690 H   0  0  0  0  0  0  0  0  0  0  0  0
   -2.7280   -1.1440   -2.6640 H   0  0  0  0  0  0  0  0  0  0  0  0
   -4.2830   -1.7010   -2.0380 H   0  0  0  0  0  0  0  0  0  0  0  0
   -4.1520   -3.9880   -0.6600 H   0  0  0  0  0  0  0  0  0  0  0  0
   -2.2980   -5.6870   -0.0750 H   0  0  0  0  0  0  0  0  0  0  0  0
    0.4660   -5.7490   -0.2060 H   0  0  0  0  0  0  0  0  0  0  0  0
    2.4130   -4.4180   -0.8620 H   0  0  0  0  0  0  0  0  0  0  0  0
    2.0540   -2.1180   -1.7730 H   0  0  0  0  0  0  0  0  0  0  0  0
   -0.2100   -1.2320   -1.9970 H   0  0  0  0  0  0  0  0  0  0  0  0
  1 11  1  0  0  0  0
  2 13  1  6  0  0  0
  2  1  1  0  0  0  0
  3  2  1  0  0  0  0
  3  4  1  0  0  0  0
  3 15  1  0  0  0  0
  4  5  2  0  0  0  0
  5  6  1  0  0  0  0
  5 16  1  0  0  0  0
  6 17  1  0  0  0  0
  7  6  1  0  0  0  0
  8  4  1  0  0  0  0
  8  7  2  0  0  0  0
  9  2  1  0  0  0  0
  9 10  2  0  0  0  0
 12  1  1  0  0  0  0
 14  3  1  0  0  0  0
 18  7  1  0  0  0  0
 19  9  1  0  0  0  0
 20 19  1  0  0  0  0
 20 28  1  1  0  0  0
 21 29  1  0  0  0  0
 21 20  1  0  0  0  0
 22 21  1  0  0  0  0
 23 22  2  0  0  0  0
 24 32  1  0  0  0  0
 24 20  1  0  0  0  0
 25 24  2  0  0  0  0
 26 22  1  0  0  0  0
 27 19  1  0  0  0  0
 30 21  1  0  0  0  0
 31 26  1  0  0  0  0
 32 47  1  0  0  0  0
 33 48  1  6  0  0  0
 33 32  1  0  0  0  0
 33 44  1  0  0  0  0
 34 35  1  0  0  0  0
 34 33  1  0  0  0  0
 35 43  1  0  0  0  0
 35 36  2  0  0  0  0
 36 51  1  0  0  0  0
 36 37  1  0  0  0  0
 37 52  1  0  0  0  0
 38 39  1  0  0  0  0
 38 37  1  0  0  0  0
 39 53  1  0  0  0  0
 40 54  1  0  0  0  0
 40 39  2  0  0  0  0
 41 40  1  0  0  0  0
 42 41  2  0  0  0  0
 42 43  1  0  0  0  0
 43 38  2  0  0  0  0
 44 45  1  0  0  0  0
 46 44  2  0  0  0  0
 49 34  1  0  0  0  0
 50 34  1  0  0  0  0
 55 41  1  0  0  0  0
 56 42  1  0  0  0  0
M  END
$$$$
