HEA.pdb
 OpenBabel07022418353D

 45 45  0  0  1  0  0  0  0  0999 V2000
   -0.0430   -0.6440    4.0350 N   0  0  0  0  0  0  0  0  0  0  0  0
    0.3820   -1.5920    3.0270 C   0  0  1  0  0  0  0  0  0  0  0  0
   -0.7750   -2.4820    2.7220 C   0  0  0  0  0  0  0  0  0  0  0  0
   -0.5280   -3.5160    1.7090 C   0  0  0  0  0  0  0  0  0  0  0  0
   -0.7020   -3.4630    0.3480 C   0  0  0  0  0  0  0  0  0  0  0  0
   -0.3580   -4.6320   -0.1990 N   0  0  0  0  0  0  0  0  0  0  0  0
    0.0360   -5.4250    0.8220 C   0  0  0  0  0  0  0  0  0  0  0  0
   -0.0590   -4.7680    1.9900 N   0  0  0  0  0  0  0  0  0  0  0  0
    0.9140   -0.9060    1.8000 C   0  0  0  0  0  0  0  0  0  0  0  0
    1.3140   -1.6830    0.9060 O   0  0  0  0  0  0  0  0  0  0  0  0
   -1.0410   -0.3740    3.9560 H   0  0  0  0  0  0  0  0  0  0  0  0
    0.0720   -1.1390    4.9680 H   0  0  0  0  0  0  0  0  0  0  0  0
    1.2250   -2.1720    3.4460 H   0  0  0  0  0  0  0  0  0  0  0  0
   -1.6440   -1.8460    2.4030 H   0  0  0  0  0  0  0  0  0  0  0  0
   -1.1030   -2.9960    3.6500 H   0  0  0  0  0  0  0  0  0  0  0  0
   -1.0620   -2.6090   -0.1920 H   0  0  0  0  0  0  0  0  0  0  0  0
   -0.3620   -4.9470   -1.1970 H   0  0  0  0  0  0  0  0  0  0  0  0
    0.3850   -6.4550    0.7410 H   0  0  0  0  0  0  0  0  0  0  0  0
    0.9440    0.4730    1.7000 N   0  0  0  0  0  0  0  0  0  0  0  0
    1.4370    1.2380    0.6070 C   0  0  1  0  0  0  0  0  0  0  0  0
    2.4600    0.4400   -0.1860 C   0  0  0  0  0  0  0  0  0  0  0  0
    3.6660    0.0750    0.6340 C   0  0  0  0  0  0  0  0  0  0  0  0
    4.6170   -0.7360   -0.1990 C   0  0  0  0  0  0  0  0  0  0  0  0
    4.3250   -0.9930   -1.3820 O   0  0  0  0  0  0  0  0  0  0  0  0
    0.3140    1.7280   -0.2090 C   0  0  0  0  0  0  0  0  0  0  0  0
    0.4790    2.4340   -1.2410 O   0  0  0  0  0  0  0  0  0  0  0  0
    5.7850   -1.1620    0.3940 O   0  0  0  0  0  0  0  0  0  0  0  0
    0.5580    1.0370    2.5290 H   0  0  0  0  0  0  0  0  0  0  0  0
    2.0520    2.1260    1.0020 H   0  0  0  0  0  0  0  0  0  0  0  0
    2.0650   -0.4220   -0.7230 H   0  0  0  0  0  0  0  0  0  0  0  0
    2.8440    1.1690   -0.9900 H   0  0  0  0  0  0  0  0  0  0  0  0
    4.2260    1.0080    0.9480 H   0  0  0  0  0  0  0  0  0  0  0  0
    3.4930   -0.4610    1.5640 H   0  0  0  0  0  0  0  0  0  0  0  0
    6.4730   -1.6570   -0.1560 H   0  0  0  0  0  0  0  0  0  0  0  0
   -3.0110    0.7730   -1.1800 C   0  0  0  0  0  0  0  0  0  0  0  0
   -2.1740    1.8740   -0.6270 C   0  0  2  0  0  0  0  0  0  0  0  0
   -1.0430    1.4280    0.1260 N   0  0  0  0  0  0  0  0  0  0  0  0
   -3.0540    2.7900    0.1410 C   0  0  0  0  0  0  0  0  0  0  0  0
   -2.7920    3.1110    1.3290 O   0  0  0  0  0  0  0  0  0  0  0  0
   -4.2020    3.3300   -0.4190 O   0  0  0  0  0  0  0  0  0  0  0  0
   -4.0130    0.7020   -0.7130 H   0  0  0  0  0  0  0  0  0  0  0  0
   -3.1890    0.9470   -2.2600 H   0  0  0  0  0  0  0  0  0  0  0  0
   -2.4560   -0.1950   -1.1130 H   0  0  0  0  0  0  0  0  0  0  0  0
   -1.7790    2.4770   -1.4810 H   0  0  0  0  0  0  0  0  0  0  0  0
   -1.1910    0.8450    0.9770 H   0  0  0  0  0  0  0  0  0  0  0  0
  1 12  1  0  0  0  0
  2 13  1  1  0  0  0
  2  1  1  0  0  0  0
  3  2  1  0  0  0  0
  3 15  1  0  0  0  0
  4  8  1  0  0  0  0
  4  3  1  0  0  0  0
  5  4  2  0  0  0  0
  6  5  1  0  0  0  0
  6  7  1  0  0  0  0
  7  8  2  0  0  0  0
  9  2  1  0  0  0  0
 10  9  2  0  0  0  0
 11  1  1  0  0  0  0
 14  3  1  0  0  0  0
 16  5  1  0  0  0  0
 17  6  1  0  0  0  0
 18  7  1  0  0  0  0
 19  9  1  0  0  0  0
 19 28  1  0  0  0  0
 20 29  1  1  0  0  0
 20 19  1  0  0  0  0
 21 20  1  0  0  0  0
 21 22  1  0  0  0  0
 22 32  1  0  0  0  0
 22 33  1  0  0  0  0
 23 27  1  0  0  0  0
 23 22  1  0  0  0  0
 24 23  2  0  0  0  0
 25 37  1  0  0  0  0
 25 20  1  0  0  0  0
 26 25  2  0  0  0  0
 30 21  1  0  0  0  0
 31 21  1  0  0  0  0
 34 27  1  0  0  0  0
 35 43  1  0  0  0  0
 35 41  1  0  0  0  0
 35 36  1  0  0  0  0
 36 44  1  6  0  0  0
 36 37  1  0  0  0  0
 36 38  1  0  0  0  0
 37 45  1  0  0  0  0
 38 39  1  0  0  0  0
 40 38  2  0  0  0  0
 42 35  1  0  0  0  0
M  END
$$$$
