HEC.pdb
 OpenBabel07022418353D

 46 46  0  0  1  0  0  0  0  0999 V2000
    2.6000   -3.4850    1.3440 N   0  0  0  0  0  0  0  0  0  0  0  0
    1.5140   -2.8230    2.0540 C   0  0  1  0  0  0  0  0  0  0  0  0
    1.7670   -2.5850    3.4770 C   0  0  0  0  0  0  0  0  0  0  0  0
    2.9260   -1.7570    3.7780 C   0  0  0  0  0  0  0  0  0  0  0  0
    3.0480   -0.4030    3.9920 C   0  0  0  0  0  0  0  0  0  0  0  0
    4.3090   -0.0830    4.2720 N   0  0  0  0  0  0  0  0  0  0  0  0
    5.0110   -1.2090    4.2410 C   0  0  0  0  0  0  0  0  0  0  0  0
    4.1930   -2.2390    3.9430 N   0  0  0  0  0  0  0  0  0  0  0  0
    0.8780   -1.8210    1.2250 C   0  0  0  0  0  0  0  0  0  0  0  0
    1.0730   -1.9160   -0.0300 O   0  0  0  0  0  0  0  0  0  0  0  0
    2.2440   -4.0450    0.5290 H   0  0  0  0  0  0  0  0  0  0  0  0
    3.3420   -2.8070    1.0540 H   0  0  0  0  0  0  0  0  0  0  0  0
    0.7130   -3.6940    2.0640 H   0  0  0  0  0  0  0  0  0  0  0  0
    1.9440   -3.6050    3.9510 H   0  0  0  0  0  0  0  0  0  0  0  0
    0.8300   -2.1840    3.9490 H   0  0  0  0  0  0  0  0  0  0  0  0
    2.2240    0.3020    3.9430 H   0  0  0  0  0  0  0  0  0  0  0  0
    4.6480    0.8810    4.4750 H   0  0  0  0  0  0  0  0  0  0  0  0
    6.0690   -1.3050    4.4220 H   0  0  0  0  0  0  0  0  0  0  0  0
    0.0510   -0.7310    1.6120 N   0  0  0  0  0  0  0  0  0  0  0  0
   -0.5430    0.1810    0.6680 C   0  0  1  0  0  0  0  0  0  0  0  0
    0.2720    0.8090   -0.3820 C   0  0  0  0  0  0  0  0  0  0  0  0
    1.3640    1.7320   -0.0050 C   0  0  0  0  0  0  0  0  0  0  0  0
    2.4950    1.2630    0.7840 C   0  0  0  0  0  0  0  0  0  0  0  0
    3.1380    0.2260    0.5590 O   0  0  0  0  0  0  0  0  0  0  0  0
   -1.8570   -0.3380    0.2080 C   0  0  0  0  0  0  0  0  0  0  0  0
   -2.2500   -1.4160    0.7220 O   0  0  0  0  0  0  0  0  0  0  0  0
    2.9470    2.0060    1.9150 O   0  0  0  0  0  0  0  0  0  0  0  0
   -0.0980   -0.6480    2.6530 H   0  0  0  0  0  0  0  0  0  0  0  0
   -0.7720    1.1140    1.3520 H   0  0  0  0  0  0  0  0  0  0  0  0
   -0.4450    1.4260   -1.0240 H   0  0  0  0  0  0  0  0  0  0  0  0
    0.6980    0.0940   -1.1280 H   0  0  0  0  0  0  0  0  0  0  0  0
    0.9230    2.6530    0.5170 H   0  0  0  0  0  0  0  0  0  0  0  0
    1.8390    2.1800   -0.9490 H   0  0  0  0  0  0  0  0  0  0  0  0
    3.8580    1.8330    2.3000 H   0  0  0  0  0  0  0  0  0  0  0  0
   -2.7080    0.2500   -0.7380 N   0  0  0  0  0  0  0  0  0  0  0  0
   -3.9880   -0.2950   -1.1340 C   0  0  1  0  0  0  0  0  0  0  0  0
   -5.0400    0.7870   -1.1570 C   0  0  0  0  0  0  0  0  0  0  0  0
   -4.5880    2.0910   -2.3470 S   0  0  0  0  0  0  0  0  0  0  0  0
   -3.9550   -0.9140   -2.4750 C   0  0  0  0  0  0  0  0  0  0  0  0
   -2.9660   -0.9360   -3.2420 O   0  0  0  0  0  0  0  0  0  0  0  0
   -5.1210   -1.5240   -2.9180 O   0  0  0  0  0  0  0  0  0  0  0  0
   -2.4140    1.1290   -1.1930 H   0  0  0  0  0  0  0  0  0  0  0  0
   -4.3190   -1.0860   -0.4290 H   0  0  0  0  0  0  0  0  0  0  0  0
   -5.1230    1.2180   -0.1280 H   0  0  0  0  0  0  0  0  0  0  0  0
   -6.0260    0.4130   -1.4440 H   0  0  0  0  0  0  0  0  0  0  0  0
   -5.0070    1.6570   -3.6160 H   0  0  0  0  0  0  0  0  0  0  0  0
  1  2  1  0  0  0  0
  2 13  1  1  0  0  0
  2  3  1  0  0  0  0
  3  4  1  0  0  0  0
  3 15  1  0  0  0  0
  3 14  1  0  0  0  0
  4  8  1  0  0  0  0
  4  5  2  0  0  0  0
  5  6  1  0  0  0  0
  6 17  1  0  0  0  0
  7  6  1  0  0  0  0
  7 18  1  0  0  0  0
  8  7  2  0  0  0  0
  9 19  1  0  0  0  0
  9  2  1  0  0  0  0
 10  9  2  0  0  0  0
 11  1  1  0  0  0  0
 12  1  1  0  0  0  0
 16  5  1  0  0  0  0
 19 28  1  0  0  0  0
 20 29  1  1  0  0  0
 20 19  1  0  0  0  0
 21 22  1  0  0  0  0
 21 20  1  0  0  0  0
 22 32  1  0  0  0  0
 22 23  1  0  0  0  0
 23 27  1  0  0  0  0
 24 23  2  0  0  0  0
 25 20  1  0  0  0  0
 25 26  2  0  0  0  0
 27 34  1  0  0  0  0
 30 21  1  0  0  0  0
 31 21  1  0  0  0  0
 33 22  1  0  0  0  0
 35 25  1  0  0  0  0
 36 35  1  0  0  0  0
 36 43  1  1  0  0  0
 37 36  1  0  0  0  0
 37 44  1  0  0  0  0
 38 37  1  0  0  0  0
 39 36  1  0  0  0  0
 40 39  2  0  0  0  0
 41 39  1  0  0  0  0
 42 35  1  0  0  0  0
 45 37  1  0  0  0  0
 46 38  1  0  0  0  0
M  END
$$$$
