HEE.pdb
 OpenBabel07022418353D

 51 51  0  0  1  0  0  0  0  0999 V2000
    1.4040   -1.1440    3.2070 N   0  0  0  0  0  0  0  0  0  0  0  0
    1.7520    0.2580    3.1490 C   0  0  1  0  0  0  0  0  0  0  0  0
    3.2750    0.3210    3.3250 C   0  0  0  0  0  0  0  0  0  0  0  0
    3.6620   -0.2610    4.6270 C   0  0  0  0  0  0  0  0  0  0  0  0
    3.7750    0.3990    5.8270 C   0  0  0  0  0  0  0  0  0  0  0  0
    4.1440   -0.4750    6.7970 N   0  0  0  0  0  0  0  0  0  0  0  0
    4.2510   -1.6650    6.1680 C   0  0  0  0  0  0  0  0  0  0  0  0
    3.9630   -1.5450    4.8580 N   0  0  0  0  0  0  0  0  0  0  0  0
    1.3550    0.8470    1.8510 C   0  0  0  0  0  0  0  0  0  0  0  0
    1.5140    2.0820    1.7080 O   0  0  0  0  0  0  0  0  0  0  0  0
    0.4290   -1.3370    3.4930 H   0  0  0  0  0  0  0  0  0  0  0  0
    1.7250   -1.7040    2.4170 H   0  0  0  0  0  0  0  0  0  0  0  0
    1.2490    0.7830    3.9890 H   0  0  0  0  0  0  0  0  0  0  0  0
    3.7420   -0.1890    2.4600 H   0  0  0  0  0  0  0  0  0  0  0  0
    3.5600    1.3970    3.2690 H   0  0  0  0  0  0  0  0  0  0  0  0
    3.6040    1.4660    6.0180 H   0  0  0  0  0  0  0  0  0  0  0  0
    4.3070   -0.2710    7.8080 H   0  0  0  0  0  0  0  0  0  0  0  0
    4.5300   -2.6120    6.6320 H   0  0  0  0  0  0  0  0  0  0  0  0
    0.8100    0.1220    0.7620 N   0  0  0  0  0  0  0  0  0  0  0  0
    0.4280    0.7720   -0.5100 C   0  0  1  0  0  0  0  0  0  0  0  0
    1.5620    0.5670   -1.4440 C   0  0  0  0  0  0  0  0  0  0  0  0
    1.4330    1.0570   -2.8340 C   0  0  0  0  0  0  0  0  0  0  0  0
    0.4290    0.2520   -3.5640 C   0  0  0  0  0  0  0  0  0  0  0  0
    0.1040   -0.8640   -3.1140 O   0  0  0  0  0  0  0  0  0  0  0  0
   -0.9280    0.4680   -0.9090 C   0  0  0  0  0  0  0  0  0  0  0  0
   -1.5570    1.0840   -1.8440 O   0  0  0  0  0  0  0  0  0  0  0  0
   -0.1470    0.7160   -4.7260 O   0  0  0  0  0  0  0  0  0  0  0  0
    0.6800   -0.9020    0.8800 H   0  0  0  0  0  0  0  0  0  0  0  0
    0.4570    1.8850   -0.2470 H   0  0  0  0  0  0  0  0  0  0  0  0
    2.4500    1.1190   -0.9810 H   0  0  0  0  0  0  0  0  0  0  0  0
    1.9450   -0.5010   -1.4350 H   0  0  0  0  0  0  0  0  0  0  0  0
    2.4060    0.8830   -3.3820 H   0  0  0  0  0  0  0  0  0  0  0  0
    1.2290    2.1470   -2.9080 H   0  0  0  0  0  0  0  0  0  0  0  0
   -0.6760    0.1180   -5.3440 H   0  0  0  0  0  0  0  0  0  0  0  0
   -1.7440   -0.5550   -0.3210 N   0  0  0  0  0  0  0  0  0  0  0  0
   -3.1110   -0.8350   -0.7630 C   0  0  1  0  0  0  0  0  0  0  0  0
   -3.0420   -2.2750   -1.2460 C   0  0  0  0  0  0  0  0  0  0  0  0
   -4.3200   -2.8230   -1.7630 C   0  0  0  0  0  0  0  0  0  0  0  0
   -4.0950   -4.2280   -2.2090 C   0  0  0  0  0  0  0  0  0  0  0  0
   -5.0110   -4.9400   -2.6680 O   0  0  0  0  0  0  0  0  0  0  0  0
   -4.0760   -0.6600    0.3400 C   0  0  0  0  0  0  0  0  0  0  0  0
   -5.2980   -0.8470    0.1370 O   0  0  0  0  0  0  0  0  0  0  0  0
   -2.8220   -4.8010   -2.1250 O   0  0  0  0  0  0  0  0  0  0  0  0
   -3.6910   -0.2900    1.6250 O   0  0  0  0  0  0  0  0  0  0  0  0
   -1.3410   -1.1150    0.4520 H   0  0  0  0  0  0  0  0  0  0  0  0
   -3.4040   -0.1690   -1.6020 H   0  0  0  0  0  0  0  0  0  0  0  0
   -2.2290   -2.2940   -2.0260 H   0  0  0  0  0  0  0  0  0  0  0  0
   -2.6220   -2.8530   -0.3940 H   0  0  0  0  0  0  0  0  0  0  0  0
   -4.7740   -2.2100   -2.5630 H   0  0  0  0  0  0  0  0  0  0  0  0
   -5.0420   -2.8950   -0.9050 H   0  0  0  0  0  0  0  0  0  0  0  0
   -2.6590   -5.7850   -2.1270 H   0  0  0  0  0  0  0  0  0  0  0  0
  1 11  1  0  0  0  0
  2  1  1  0  0  0  0
  2  3  1  0  0  0  0
  2 13  1  1  0  0  0
  3  4  1  0  0  0  0
  4  8  1  0  0  0  0
  4  5  2  0  0  0  0
  5 16  1  0  0  0  0
  5  6  1  0  0  0  0
  6 17  1  0  0  0  0
  7 18  1  0  0  0  0
  7  6  1  0  0  0  0
  8  7  2  0  0  0  0
  9  2  1  0  0  0  0
 10  9  2  0  0  0  0
 12  1  1  0  0  0  0
 14  3  1  0  0  0  0
 15  3  1  0  0  0  0
 19 28  1  0  0  0  0
 19  9  1  0  0  0  0
 20 29  1  1  0  0  0
 20 19  1  0  0  0  0
 21 31  1  0  0  0  0
 21 30  1  0  0  0  0
 21 20  1  0  0  0  0
 22 21  1  0  0  0  0
 23 24  2  0  0  0  0
 23 22  1  0  0  0  0
 25 20  1  0  0  0  0
 25 35  1  0  0  0  0
 26 25  2  0  0  0  0
 27 23  1  0  0  0  0
 32 22  1  0  0  0  0
 33 22  1  0  0  0  0
 34 27  1  0  0  0  0
 35 45  1  0  0  0  0
 36 46  1  6  0  0  0
 36 35  1  0  0  0  0
 36 41  1  0  0  0  0
 37 36  1  0  0  0  0
 37 48  1  0  0  0  0
 38 37  1  0  0  0  0
 38 50  1  0  0  0  0
 39 43  1  0  0  0  0
 39 38  1  0  0  0  0
 40 39  2  0  0  0  0
 41 44  1  0  0  0  0
 42 41  2  0  0  0  0
 47 37  1  0  0  0  0
 49 38  1  0  0  0  0
 51 43  1  0  0  0  0
M  END
$$$$
