HEF.pdb
 OpenBabel07022418363D

 55 56  0  0  1  0  0  0  0  0999 V2000
    4.8420   -0.3430   -0.7960 N   0  0  0  0  0  0  0  0  0  0  0  0
    4.1990   -0.1890    0.5120 C   0  0  1  0  0  0  0  0  0  0  0  0
    5.0180    0.7670    1.3190 C   0  0  0  0  0  0  0  0  0  0  0  0
    4.4790    1.0290    2.6650 C   0  0  0  0  0  0  0  0  0  0  0  0
    4.7740    0.2980    3.7910 C   0  0  0  0  0  0  0  0  0  0  0  0
    4.0920    0.8360    4.8140 N   0  0  0  0  0  0  0  0  0  0  0  0
    3.3860    1.8830    4.3360 C   0  0  0  0  0  0  0  0  0  0  0  0
    3.6060    2.0180    3.0280 N   0  0  0  0  0  0  0  0  0  0  0  0
    2.7830    0.2260    0.3250 C   0  0  0  0  0  0  0  0  0  0  0  0
    2.4290    0.6250   -0.8310 O   0  0  0  0  0  0  0  0  0  0  0  0
    4.2900    0.1460   -1.5250 H   0  0  0  0  0  0  0  0  0  0  0  0
    5.0120   -1.3580   -1.0220 H   0  0  0  0  0  0  0  0  0  0  0  0
    4.2720   -1.1770    1.0100 H   0  0  0  0  0  0  0  0  0  0  0  0
    6.0280    0.2920    1.4370 H   0  0  0  0  0  0  0  0  0  0  0  0
    5.1320    1.7250    0.7640 H   0  0  0  0  0  0  0  0  0  0  0  0
    5.4400   -0.5730    3.8780 H   0  0  0  0  0  0  0  0  0  0  0  0
    4.1030    0.5030    5.8210 H   0  0  0  0  0  0  0  0  0  0  0  0
    2.7340    2.5050    4.9720 H   0  0  0  0  0  0  0  0  0  0  0  0
    1.8210    0.2020    1.3430 N   0  0  0  0  0  0  0  0  0  0  0  0
    0.4230    0.6300    1.1430 C   0  0  1  0  0  0  0  0  0  0  0  0
    0.4000    2.0550    0.8000 C   0  0  0  0  0  0  0  0  0  0  0  0
   -0.8480    2.7640    0.4970 C   0  0  0  0  0  0  0  0  0  0  0  0
   -1.5310    2.3940   -0.7530 C   0  0  0  0  0  0  0  0  0  0  0  0
   -0.9750    1.6300   -1.5670 O   0  0  0  0  0  0  0  0  0  0  0  0
   -0.2810   -0.3920    0.4170 C   0  0  0  0  0  0  0  0  0  0  0  0
    0.4370   -1.2740   -0.1950 O   0  0  0  0  0  0  0  0  0  0  0  0
   -2.7920    2.8770   -1.0610 O   0  0  0  0  0  0  0  0  0  0  0  0
    2.1270   -0.1500    2.2730 H   0  0  0  0  0  0  0  0  0  0  0  0
   -0.0110    0.5810    2.2170 H   0  0  0  0  0  0  0  0  0  0  0  0
    0.8410    2.5930    1.7200 H   0  0  0  0  0  0  0  0  0  0  0  0
    1.1710    2.3400    0.0210 H   0  0  0  0  0  0  0  0  0  0  0  0
   -0.6960    3.8900    0.4180 H   0  0  0  0  0  0  0  0  0  0  0  0
   -1.6050    2.6980    1.3410 H   0  0  0  0  0  0  0  0  0  0  0  0
   -3.2500    2.6910   -1.9530 H   0  0  0  0  0  0  0  0  0  0  0  0
   -1.6720   -0.5940    0.2740 N   0  0  0  0  0  0  0  0  0  0  0  0
   -2.2620   -1.6890   -0.4780 C   0  0  1  0  0  0  0  0  0  0  0  0
   -2.8520   -2.7160    0.4440 C   0  0  0  0  0  0  0  0  0  0  0  0
   -3.4560   -3.8150   -0.3180 C   0  0  0  0  0  0  0  0  0  0  0  0
   -4.8140   -3.8740   -0.6560 C   0  0  0  0  0  0  0  0  0  0  0  0
   -5.3860   -4.8810   -1.3590 C   0  0  0  0  0  0  0  0  0  0  0  0
   -4.6180   -5.9310   -1.7830 C   0  0  0  0  0  0  0  0  0  0  0  0
   -3.2700   -5.9300   -1.4800 C   0  0  0  0  0  0  0  0  0  0  0  0
   -2.7020   -4.8930   -0.7620 C   0  0  0  0  0  0  0  0  0  0  0  0
   -3.2450   -1.2720   -1.4770 C   0  0  0  0  0  0  0  0  0  0  0  0
   -3.5720   -0.0320   -1.5070 O   0  0  0  0  0  0  0  0  0  0  0  0
   -3.8460   -2.1050   -2.3900 O   0  0  0  0  0  0  0  0  0  0  0  0
   -2.3120    0.0750    0.7370 H   0  0  0  0  0  0  0  0  0  0  0  0
   -1.4150   -2.2040   -1.0080 H   0  0  0  0  0  0  0  0  0  0  0  0
   -3.6820   -2.2420    1.0450 H   0  0  0  0  0  0  0  0  0  0  0  0
   -2.0890   -3.1570    1.1250 H   0  0  0  0  0  0  0  0  0  0  0  0
   -5.4090   -3.0310   -0.3100 H   0  0  0  0  0  0  0  0  0  0  0  0
   -6.4380   -4.8900   -1.6000 H   0  0  0  0  0  0  0  0  0  0  0  0
   -5.0740   -6.7360   -2.3430 H   0  0  0  0  0  0  0  0  0  0  0  0
   -2.7010   -6.7770   -1.8340 H   0  0  0  0  0  0  0  0  0  0  0  0
   -1.6520   -4.9460   -0.5560 H   0  0  0  0  0  0  0  0  0  0  0  0
  1  2  1  0  0  0  0
  2 13  1  1  0  0  0
  2  3  1  0  0  0  0
  3 14  1  0  0  0  0
  3  4  1  0  0  0  0
  4  8  1  0  0  0  0
  4  5  2  0  0  0  0
  5 16  1  0  0  0  0
  5  6  1  0  0  0  0
  6 17  1  0  0  0  0
  7  6  1  0  0  0  0
  7 18  1  0  0  0  0
  8  7  2  0  0  0  0
  9  2  1  0  0  0  0
  9 19  1  0  0  0  0
 10  9  2  0  0  0  0
 11  1  1  0  0  0  0
 12  1  1  0  0  0  0
 15  3  1  0  0  0  0
 19 28  1  0  0  0  0
 20 19  1  0  0  0  0
 20 29  1  1  0  0  0
 21 20  1  0  0  0  0
 21 30  1  0  0  0  0
 22 21  1  0  0  0  0
 22 33  1  0  0  0  0
 23 22  1  0  0  0  0
 24 23  2  0  0  0  0
 25 20  1  0  0  0  0
 26 25  2  0  0  0  0
 27 23  1  0  0  0  0
 31 21  1  0  0  0  0
 32 22  1  0  0  0  0
 34 27  1  0  0  0  0
 35 25  1  0  0  0  0
 35 47  1  0  0  0  0
 36 48  1  6  0  0  0
 36 35  1  0  0  0  0
 36 37  1  0  0  0  0
 37 49  1  0  0  0  0
 37 50  1  0  0  0  0
 38 37  1  0  0  0  0
 39 38  1  0  0  0  0
 39 51  1  0  0  0  0
 40 39  2  0  0  0  0
 41 42  2  0  0  0  0
 41 40  1  0  0  0  0
 42 43  1  0  0  0  0
 43 55  1  0  0  0  0
 43 38  2  0  0  0  0
 44 36  1  0  0  0  0
 45 44  1  0  0  0  0
 46 44  2  0  0  0  0
 52 40  1  0  0  0  0
 53 41  1  0  0  0  0
 54 42  1  0  0  0  0
M  END
$$$$
