HEG.pdb
 OpenBabel07022418353D

 42 42  0  0  1  0  0  0  0  0999 V2000
   -1.6500   -3.2540   -0.3370 N   0  0  0  0  0  0  0  0  0  0  0  0
   -0.2290   -3.2850   -0.0310 C   0  0  1  0  0  0  0  0  0  0  0  0
    0.5360   -3.7730   -1.2650 C   0  0  0  0  0  0  0  0  0  0  0  0
    1.9850   -3.8360   -1.0450 C   0  0  0  0  0  0  0  0  0  0  0  0
    2.7330   -4.9000   -0.5700 C   0  0  0  0  0  0  0  0  0  0  0  0
    4.0380   -4.5840   -0.5030 N   0  0  0  0  0  0  0  0  0  0  0  0
    4.1150   -3.3140   -0.9380 C   0  0  0  0  0  0  0  0  0  0  0  0
    2.9010   -2.8520   -1.2660 N   0  0  0  0  0  0  0  0  0  0  0  0
    0.2550   -1.9320    0.3680 C   0  0  0  0  0  0  0  0  0  0  0  0
    1.4560   -1.7450    0.6860 O   0  0  0  0  0  0  0  0  0  0  0  0
   -2.2270   -3.2840    0.5330 H   0  0  0  0  0  0  0  0  0  0  0  0
   -1.8630   -4.1550   -0.8420 H   0  0  0  0  0  0  0  0  0  0  0  0
   -0.0780   -4.0430    0.7510 H   0  0  0  0  0  0  0  0  0  0  0  0
    0.3130   -3.0510   -2.0950 H   0  0  0  0  0  0  0  0  0  0  0  0
    0.1830   -4.7500   -1.5980 H   0  0  0  0  0  0  0  0  0  0  0  0
    2.3360   -5.8640   -0.2850 H   0  0  0  0  0  0  0  0  0  0  0  0
    4.8240   -5.1920   -0.1820 H   0  0  0  0  0  0  0  0  0  0  0  0
    5.0270   -2.7400   -1.0160 H   0  0  0  0  0  0  0  0  0  0  0  0
   -0.5960   -0.8020    0.4090 N   0  0  0  0  0  0  0  0  0  0  0  0
   -0.1020    0.5390    0.8080 C   0  0  1  0  0  0  0  0  0  0  0  0
   -0.3300    1.4310   -0.3710 C   0  0  0  0  0  0  0  0  0  0  0  0
    0.0940    2.8360   -0.2280 C   0  0  0  0  0  0  0  0  0  0  0  0
    1.5280    3.0520    0.0360 C   0  0  0  0  0  0  0  0  0  0  0  0
    2.3470    2.1190    0.1250 O   0  0  0  0  0  0  0  0  0  0  0  0
   -0.8820    0.9040    2.0050 C   0  0  0  0  0  0  0  0  0  0  0  0
   -1.8470    0.1540    2.3420 O   0  0  0  0  0  0  0  0  0  0  0  0
    2.0020    4.3460    0.1950 O   0  0  0  0  0  0  0  0  0  0  0  0
   -1.5980   -0.9170    0.1520 H   0  0  0  0  0  0  0  0  0  0  0  0
    0.9580    0.5050    1.0460 H   0  0  0  0  0  0  0  0  0  0  0  0
   -1.4050    1.4130   -0.7060 H   0  0  0  0  0  0  0  0  0  0  0  0
    0.2360    0.9870   -1.2230 H   0  0  0  0  0  0  0  0  0  0  0  0
   -0.0890    3.3300   -1.2440 H   0  0  0  0  0  0  0  0  0  0  0  0
   -0.5310    3.4550    0.4590 H   0  0  0  0  0  0  0  0  0  0  0  0
    2.8930    4.4650    0.7010 H   0  0  0  0  0  0  0  0  0  0  0  0
   -0.6020    2.0470    2.7910 N   0  0  0  0  0  0  0  0  0  0  0  0
   -1.3970    2.3820    3.9680 C   0  0  0  0  0  0  0  0  0  0  0  0
   -1.3440    1.2940    4.9740 C   0  0  0  0  0  0  0  0  0  0  0  0
   -0.6640    0.2740    4.7130 O   0  0  0  0  0  0  0  0  0  0  0  0
   -2.0070    1.3470    6.1850 O   0  0  0  0  0  0  0  0  0  0  0  0
    0.1990    2.6480    2.5250 H   0  0  0  0  0  0  0  0  0  0  0  0
   -1.0310    3.3140    4.3940 H   0  0  0  0  0  0  0  0  0  0  0  0
   -2.4630    2.5240    3.6640 H   0  0  0  0  0  0  0  0  0  0  0  0
  1  2  1  0  0  0  0
  1 11  1  0  0  0  0
  2  9  1  0  0  0  0
  2 13  1  1  0  0  0
  3  4  1  0  0  0  0
  3  2  1  0  0  0  0
  4  5  2  0  0  0  0
  5  6  1  0  0  0  0
  5 16  1  0  0  0  0
  6 17  1  0  0  0  0
  7  6  1  0  0  0  0
  8  4  1  0  0  0  0
  8  7  2  0  0  0  0
  9 19  1  0  0  0  0
  9 10  2  0  0  0  0
 12  1  1  0  0  0  0
 14  3  1  0  0  0  0
 15  3  1  0  0  0  0
 18  7  1  0  0  0  0
 19 20  1  0  0  0  0
 20 29  1  1  0  0  0
 20 25  1  0  0  0  0
 21 22  1  0  0  0  0
 21 20  1  0  0  0  0
 22 23  1  0  0  0  0
 22 33  1  0  0  0  0
 23 24  2  0  0  0  0
 23 27  1  0  0  0  0
 25 26  2  0  0  0  0
 25 35  1  0  0  0  0
 27 34  1  0  0  0  0
 28 19  1  0  0  0  0
 30 21  1  0  0  0  0
 31 21  1  0  0  0  0
 32 22  1  0  0  0  0
 35 36  1  0  0  0  0
 36 41  1  0  0  0  0
 36 37  1  0  0  0  0
 37 39  1  0  0  0  0
 38 37  2  0  0  0  0
 40 35  1  0  0  0  0
 42 36  1  0  0  0  0
M  END
$$$$
