HEH.pdb
 OpenBabel07022418363D

 52 53  0  0  1  0  0  0  0  0999 V2000
    3.2240   -1.0310    0.0100 N   0  0  0  0  0  0  0  0  0  0  0  0
    2.1290   -0.6820    0.8610 C   0  0  1  0  0  0  0  0  0  0  0  0
    2.5860    0.2100    1.9680 C   0  0  0  0  0  0  0  0  0  0  0  0
    3.6100   -0.3930    2.8300 C   0  0  0  0  0  0  0  0  0  0  0  0
    4.1610   -1.6550    2.7160 C   0  0  0  0  0  0  0  0  0  0  0  0
    5.0470   -1.7620    3.7210 N   0  0  0  0  0  0  0  0  0  0  0  0
    5.0550   -0.6220    4.4360 C   0  0  0  0  0  0  0  0  0  0  0  0
    4.1640    0.2200    3.8780 N   0  0  0  0  0  0  0  0  0  0  0  0
    1.0430    0.0730    0.1140 C   0  0  0  0  0  0  0  0  0  0  0  0
    1.2520    0.2850   -1.0870 O   0  0  0  0  0  0  0  0  0  0  0  0
    2.9940   -1.7370   -0.7010 H   0  0  0  0  0  0  0  0  0  0  0  0
    3.8300   -0.2610   -0.2830 H   0  0  0  0  0  0  0  0  0  0  0  0
    1.7120   -1.6110    1.3020 H   0  0  0  0  0  0  0  0  0  0  0  0
    2.9710    1.1540    1.5100 H   0  0  0  0  0  0  0  0  0  0  0  0
    1.6990    0.4210    2.6260 H   0  0  0  0  0  0  0  0  0  0  0  0
    3.9400   -2.4210    1.9750 H   0  0  0  0  0  0  0  0  0  0  0  0
    5.6440   -2.5670    3.9460 H   0  0  0  0  0  0  0  0  0  0  0  0
    5.6450   -0.3890    5.2930 H   0  0  0  0  0  0  0  0  0  0  0  0
   -0.1090    0.4770    0.8030 N   0  0  0  0  0  0  0  0  0  0  0  0
   -1.1820    1.2030    0.2090 C   0  0  1  0  0  0  0  0  0  0  0  0
   -0.8140    2.0350   -0.9830 C   0  0  0  0  0  0  0  0  0  0  0  0
    0.1760    3.0970   -0.6160 C   0  0  0  0  0  0  0  0  0  0  0  0
   -0.3860    4.1020    0.3150 C   0  0  0  0  0  0  0  0  0  0  0  0
   -1.5720    4.1430    0.6430 O   0  0  0  0  0  0  0  0  0  0  0  0
   -2.3890    0.3940   -0.0270 C   0  0  0  0  0  0  0  0  0  0  0  0
   -3.4110    0.9530   -0.4850 O   0  0  0  0  0  0  0  0  0  0  0  0
    0.4520    5.0900    0.8830 O   0  0  0  0  0  0  0  0  0  0  0  0
   -0.1770    0.2150    1.8600 H   0  0  0  0  0  0  0  0  0  0  0  0
   -1.4310    2.0030    1.0000 H   0  0  0  0  0  0  0  0  0  0  0  0
   -0.4950    1.4130   -1.8240 H   0  0  0  0  0  0  0  0  0  0  0  0
   -1.7920    2.5460   -1.2800 H   0  0  0  0  0  0  0  0  0  0  0  0
    1.0840    2.6780   -0.1270 H   0  0  0  0  0  0  0  0  0  0  0  0
    0.4620    3.5990   -1.5730 H   0  0  0  0  0  0  0  0  0  0  0  0
    0.0710    5.7880    1.4830 H   0  0  0  0  0  0  0  0  0  0  0  0
   -2.4570   -0.9990    0.2390 N   0  0  0  0  0  0  0  0  0  0  0  0
   -3.6740   -1.7170   -0.0160 C   0  0  1  0  0  0  0  0  0  0  0  0
   -3.6440   -2.6090   -1.1900 C   0  0  0  0  0  0  0  0  0  0  0  0
   -2.6880   -3.7000   -1.2170 C   0  0  0  0  0  0  0  0  0  0  0  0
   -1.7610   -4.1520   -0.3360 C   0  0  0  0  0  0  0  0  0  0  0  0
   -1.1550   -5.2210   -0.8810 N   0  0  0  0  0  0  0  0  0  0  0  0
   -1.6830   -5.4520   -2.0890 C   0  0  0  0  0  0  0  0  0  0  0  0
   -2.6130   -4.5350   -2.3030 N   0  0  0  0  0  0  0  0  0  0  0  0
   -4.1650   -2.3730    1.2270 C   0  0  0  0  0  0  0  0  0  0  0  0
   -5.2060   -3.0730    1.2820 O   0  0  0  0  0  0  0  0  0  0  0  0
   -3.4340   -2.2030    2.3860 O   0  0  0  0  0  0  0  0  0  0  0  0
   -1.5830   -1.4210    0.6170 H   0  0  0  0  0  0  0  0  0  0  0  0
   -4.4630   -0.9390   -0.2580 H   0  0  0  0  0  0  0  0  0  0  0  0
   -3.5170   -1.9550   -2.1020 H   0  0  0  0  0  0  0  0  0  0  0  0
   -4.6700   -3.0550   -1.3470 H   0  0  0  0  0  0  0  0  0  0  0  0
   -1.5460   -3.7400    0.6350 H   0  0  0  0  0  0  0  0  0  0  0  0
   -0.3910   -5.7610   -0.3950 H   0  0  0  0  0  0  0  0  0  0  0  0
   -1.3930   -6.2510   -2.7690 H   0  0  0  0  0  0  0  0  0  0  0  0
  1  2  1  0  0  0  0
  2 13  1  1  0  0  0
  2  3  1  0  0  0  0
  3 15  1  0  0  0  0
  3  4  1  0  0  0  0
  4  8  1  0  0  0  0
  5  4  2  0  0  0  0
  5  6  1  0  0  0  0
  6 17  1  0  0  0  0
  6  7  1  0  0  0  0
  7 18  1  0  0  0  0
  8  7  2  0  0  0  0
  9 19  1  0  0  0  0
  9  2  1  0  0  0  0
 10  9  2  0  0  0  0
 11  1  1  0  0  0  0
 12  1  1  0  0  0  0
 14  3  1  0  0  0  0
 16  5  1  0  0  0  0
 19 28  1  0  0  0  0
 20 19  1  0  0  0  0
 20 29  1  1  0  0  0
 21 22  1  0  0  0  0
 21 20  1  0  0  0  0
 22 32  1  0  0  0  0
 22 23  1  0  0  0  0
 23 24  2  0  0  0  0
 23 27  1  0  0  0  0
 25 20  1  0  0  0  0
 25 35  1  0  0  0  0
 26 25  2  0  0  0  0
 27 34  1  0  0  0  0
 30 21  1  0  0  0  0
 31 21  1  0  0  0  0
 33 22  1  0  0  0  0
 35 46  1  0  0  0  0
 36 47  1  6  0  0  0
 36 35  1  0  0  0  0
 36 43  1  0  0  0  0
 37 36  1  0  0  0  0
 38 37  1  0  0  0  0
 38 39  2  0  0  0  0
 39 50  1  0  0  0  0
 40 51  1  0  0  0  0
 40 39  1  0  0  0  0
 41 40  1  0  0  0  0
 42 41  2  0  0  0  0
 42 38  1  0  0  0  0
 43 44  2  0  0  0  0
 43 45  1  0  0  0  0
 48 37  1  0  0  0  0
 49 37  1  0  0  0  0
 52 41  1  0  0  0  0
M  END
$$$$
