HEI.pdb
 OpenBabel07022418363D

 54 54  0  0  1  0  0  0  0  0999 V2000
    2.6050   -0.7660    1.9050 N   0  0  0  0  0  0  0  0  0  0  0  0
    2.2280    0.1440    0.8700 C   0  0  1  0  0  0  0  0  0  0  0  0
    2.3610   -0.5210   -0.4620 C   0  0  0  0  0  0  0  0  0  0  0  0
    3.7310   -0.9470   -0.7880 C   0  0  0  0  0  0  0  0  0  0  0  0
    4.9020   -0.7830   -0.0860 C   0  0  0  0  0  0  0  0  0  0  0  0
    5.8720   -1.3390   -0.8420 N   0  0  0  0  0  0  0  0  0  0  0  0
    5.3250   -1.8210   -1.9570 C   0  0  0  0  0  0  0  0  0  0  0  0
    4.0180   -1.5970   -1.9540 N   0  0  0  0  0  0  0  0  0  0  0  0
    0.8240    0.5980    1.0360 C   0  0  0  0  0  0  0  0  0  0  0  0
    0.3210    1.2720    0.0610 O   0  0  0  0  0  0  0  0  0  0  0  0
    1.7690   -1.3100    2.2840 H   0  0  0  0  0  0  0  0  0  0  0  0
    3.1760   -1.5640    1.4700 H   0  0  0  0  0  0  0  0  0  0  0  0
    2.8370    1.0930    0.9160 H   0  0  0  0  0  0  0  0  0  0  0  0
    1.7040   -1.4140   -0.5470 H   0  0  0  0  0  0  0  0  0  0  0  0
    2.0190    0.1470   -1.3040 H   0  0  0  0  0  0  0  0  0  0  0  0
    5.0350   -0.3050    0.8670 H   0  0  0  0  0  0  0  0  0  0  0  0
    6.8730   -1.3570   -0.5490 H   0  0  0  0  0  0  0  0  0  0  0  0
    5.8300   -2.3330   -2.7820 H   0  0  0  0  0  0  0  0  0  0  0  0
   -0.0090    0.3760    2.1280 N   0  0  0  0  0  0  0  0  0  0  0  0
   -1.3590    0.8510    2.2100 C   0  0  1  0  0  0  0  0  0  0  0  0
   -1.5840    2.2720    1.7960 C   0  0  0  0  0  0  0  0  0  0  0  0
   -0.8310    3.2160    2.6680 C   0  0  0  0  0  0  0  0  0  0  0  0
    0.6280    3.0780    2.7010 C   0  0  0  0  0  0  0  0  0  0  0  0
    1.3450    3.6430    1.8100 O   0  0  0  0  0  0  0  0  0  0  0  0
   -2.2780   -0.1280    1.6350 C   0  0  0  0  0  0  0  0  0  0  0  0
   -3.5080    0.1240    1.6210 O   0  0  0  0  0  0  0  0  0  0  0  0
    1.2880    2.3360    3.6910 O   0  0  0  0  0  0  0  0  0  0  0  0
    0.3580   -0.1590    2.9430 H   0  0  0  0  0  0  0  0  0  0  0  0
   -1.6550    0.8810    3.3400 H   0  0  0  0  0  0  0  0  0  0  0  0
   -2.6890    2.4640    2.0310 H   0  0  0  0  0  0  0  0  0  0  0  0
   -1.4800    2.4760    0.7230 H   0  0  0  0  0  0  0  0  0  0  0  0
   -1.1650    3.1280    3.7520 H   0  0  0  0  0  0  0  0  0  0  0  0
   -1.1130    4.2910    2.4220 H   0  0  0  0  0  0  0  0  0  0  0  0
    2.2540    2.1090    3.5870 H   0  0  0  0  0  0  0  0  0  0  0  0
   -1.6010   -0.5800   -1.7630 C   0  0  0  0  0  0  0  0  0  0  0  0
   -2.5660   -1.6900   -1.8990 C   0  0  0  0  0  0  0  0  0  0  0  0
   -2.4850   -2.7780   -0.8590 C   0  0  2  0  0  0  0  0  0  0  0  0
   -3.5700   -3.7890   -1.2200 C   0  0  0  0  0  0  0  0  0  0  0  0
   -2.7360   -2.3480    0.5210 C   0  0  2  0  0  0  0  0  0  0  0  0
   -1.8800   -1.3550    1.0880 N   0  0  0  0  0  0  0  0  0  0  0  0
   -2.7060   -3.5280    1.4200 C   0  0  0  0  0  0  0  0  0  0  0  0
   -2.0020   -3.5310    2.4480 O   0  0  0  0  0  0  0  0  0  0  0  0
   -3.4480   -4.6600    1.1600 O   0  0  0  0  0  0  0  0  0  0  0  0
   -0.6490   -0.9270   -1.2670 H   0  0  0  0  0  0  0  0  0  0  0  0
   -1.9380    0.2970   -1.2110 H   0  0  0  0  0  0  0  0  0  0  0  0
   -1.2400   -0.1880   -2.7610 H   0  0  0  0  0  0  0  0  0  0  0  0
   -3.5870   -1.2620   -1.9810 H   0  0  0  0  0  0  0  0  0  0  0  0
   -2.4010   -2.2060   -2.8920 H   0  0  0  0  0  0  0  0  0  0  0  0
   -1.5400   -3.3560   -0.9310 H   0  0  0  0  0  0  0  0  0  0  0  0
   -3.2180   -4.8380   -1.1310 H   0  0  0  0  0  0  0  0  0  0  0  0
   -4.4640   -3.5800   -0.6280 H   0  0  0  0  0  0  0  0  0  0  0  0
   -3.8500   -3.6500   -2.3050 H   0  0  0  0  0  0  0  0  0  0  0  0
   -3.7940   -1.9550    0.5900 H   0  0  0  0  0  0  0  0  0  0  0  0
   -0.8600   -1.5770    1.0880 H   0  0  0  0  0  0  0  0  0  0  0  0
  1 11  1  0  0  0  0
  2 13  1  1  0  0  0
  2  9  1  0  0  0  0
  2  1  1  0  0  0  0
  3  2  1  0  0  0  0
  4  3  1  0  0  0  0
  4  5  2  0  0  0  0
  5 16  1  0  0  0  0
  6 17  1  0  0  0  0
  6  5  1  0  0  0  0
  7  8  2  0  0  0  0
  7  6  1  0  0  0  0
  8  4  1  0  0  0  0
  9 19  1  0  0  0  0
 10  9  2  0  0  0  0
 12  1  1  0  0  0  0
 14  3  1  0  0  0  0
 15  3  1  0  0  0  0
 18  7  1  0  0  0  0
 19 20  1  0  0  0  0
 19 28  1  0  0  0  0
 20 29  1  1  0  0  0
 21 30  1  0  0  0  0
 21 20  1  0  0  0  0
 21 22  1  0  0  0  0
 22 23  1  0  0  0  0
 22 32  1  0  0  0  0
 23 27  1  0  0  0  0
 24 23  2  0  0  0  0
 25 20  1  0  0  0  0
 26 25  2  0  0  0  0
 31 21  1  0  0  0  0
 33 22  1  0  0  0  0
 34 27  1  0  0  0  0
 35 44  1  0  0  0  0
 35 45  1  0  0  0  0
 36 35  1  0  0  0  0
 36 37  1  0  0  0  0
 37 49  1  6  0  0  0
 37 39  1  0  0  0  0
 38 50  1  0  0  0  0
 38 37  1  0  0  0  0
 38 51  1  0  0  0  0
 39 53  1  1  0  0  0
 39 40  1  0  0  0  0
 39 41  1  0  0  0  0
 40 25  1  0  0  0  0
 41 42  1  0  0  0  0
 43 41  2  0  0  0  0
 46 35  1  0  0  0  0
 47 36  1  0  0  0  0
 48 36  1  0  0  0  0
 52 38  1  0  0  0  0
 54 40  1  0  0  0  0
M  END
$$$$
