HEL.pdb
 OpenBabel07022418363D

 54 54  0  0  1  0  0  0  0  0999 V2000
    2.4930   -1.7300    1.6580 N   0  0  0  0  0  0  0  0  0  0  0  0
    2.7450   -0.5300    0.9020 C   0  0  1  0  0  0  0  0  0  0  0  0
    2.9970   -0.9340   -0.5340 C   0  0  0  0  0  0  0  0  0  0  0  0
    4.1620   -1.8390   -0.6560 C   0  0  0  0  0  0  0  0  0  0  0  0
    5.0030   -2.3400    0.2860 C   0  0  0  0  0  0  0  0  0  0  0  0
    5.9170   -3.1230   -0.3080 N   0  0  0  0  0  0  0  0  0  0  0  0
    5.6230   -3.0950   -1.6300 C   0  0  0  0  0  0  0  0  0  0  0  0
    4.5600   -2.3200   -1.8650 N   0  0  0  0  0  0  0  0  0  0  0  0
    1.5680    0.3740    0.9750 C   0  0  0  0  0  0  0  0  0  0  0  0
    1.6170    1.4600    0.3750 O   0  0  0  0  0  0  0  0  0  0  0  0
    2.6140   -2.6040    1.1370 H   0  0  0  0  0  0  0  0  0  0  0  0
    2.8420   -1.7190    2.6190 H   0  0  0  0  0  0  0  0  0  0  0  0
    3.6000    0.0320    1.3290 H   0  0  0  0  0  0  0  0  0  0  0  0
    3.1620   -0.0410   -1.1810 H   0  0  0  0  0  0  0  0  0  0  0  0
    2.1240   -1.4690   -0.9580 H   0  0  0  0  0  0  0  0  0  0  0  0
    4.9620   -2.1530    1.3390 H   0  0  0  0  0  0  0  0  0  0  0  0
    6.6780   -3.6290    0.1910 H   0  0  0  0  0  0  0  0  0  0  0  0
    6.2320   -3.6630   -2.3390 H   0  0  0  0  0  0  0  0  0  0  0  0
    0.4120    0.0440    1.6960 N   0  0  0  0  0  0  0  0  0  0  0  0
   -0.7720    0.7740    1.8910 C   0  0  1  0  0  0  0  0  0  0  0  0
   -0.7690    2.2560    1.6370 C   0  0  0  0  0  0  0  0  0  0  0  0
    0.1220    3.0510    2.5280 C   0  0  0  0  0  0  0  0  0  0  0  0
   -0.2650    2.9210    3.9740 C   0  0  0  0  0  0  0  0  0  0  0  0
    0.2640    2.0240    4.6620 O   0  0  0  0  0  0  0  0  0  0  0  0
   -2.0290    0.1280    1.4820 C   0  0  0  0  0  0  0  0  0  0  0  0
   -3.1590    0.6690    1.6000 O   0  0  0  0  0  0  0  0  0  0  0  0
   -1.1860    3.7580    4.5730 O   0  0  0  0  0  0  0  0  0  0  0  0
    0.4510   -0.9210    2.1680 H   0  0  0  0  0  0  0  0  0  0  0  0
   -0.8560    0.8240    3.0670 H   0  0  0  0  0  0  0  0  0  0  0  0
   -1.8240    2.5870    1.8880 H   0  0  0  0  0  0  0  0  0  0  0  0
   -0.6650    2.5130    0.5650 H   0  0  0  0  0  0  0  0  0  0  0  0
    1.1980    2.8560    2.4430 H   0  0  0  0  0  0  0  0  0  0  0  0
    0.0320    4.1630    2.3160 H   0  0  0  0  0  0  0  0  0  0  0  0
   -1.2770    3.7790    5.5790 H   0  0  0  0  0  0  0  0  0  0  0  0
   -3.9730   -0.1970   -1.7180 C   0  0  0  0  0  0  0  0  0  0  0  0
   -2.7510   -1.0740   -1.8320 C   0  0  0  0  0  0  0  0  0  0  0  0
   -2.5710   -1.4720   -3.2700 C   0  0  0  0  0  0  0  0  0  0  0  0
   -2.9400   -2.3070   -0.9620 C   0  0  0  0  0  0  0  0  0  0  0  0
   -3.1300   -1.9050    0.4880 C   0  0  2  0  0  0  0  0  0  0  0  0
   -1.9680   -1.1890    0.9170 N   0  0  0  0  0  0  0  0  0  0  0  0
   -3.2260   -3.1690    1.2930 C   0  0  0  0  0  0  0  0  0  0  0  0
   -4.1790   -3.9820    1.0990 O   0  0  0  0  0  0  0  0  0  0  0  0
   -2.2790   -3.4730    2.2600 O   0  0  0  0  0  0  0  0  0  0  0  0
   -4.7850   -0.7730   -1.2500 H   0  0  0  0  0  0  0  0  0  0  0  0
   -4.3150    0.1190   -2.7430 H   0  0  0  0  0  0  0  0  0  0  0  0
   -3.7670    0.6920   -1.0800 H   0  0  0  0  0  0  0  0  0  0  0  0
   -1.8850   -0.4730   -1.4960 H   0  0  0  0  0  0  0  0  0  0  0  0
   -1.6250   -1.0370   -3.6790 H   0  0  0  0  0  0  0  0  0  0  0  0
   -3.4370   -1.1240   -3.8890 H   0  0  0  0  0  0  0  0  0  0  0  0
   -2.4760   -2.5710   -3.3210 H   0  0  0  0  0  0  0  0  0  0  0  0
   -3.8370   -2.8640   -1.2700 H   0  0  0  0  0  0  0  0  0  0  0  0
   -2.0460   -2.9450   -1.0670 H   0  0  0  0  0  0  0  0  0  0  0  0
   -4.0610   -1.3380    0.6330 H   0  0  0  0  0  0  0  0  0  0  0  0
   -1.0340   -1.6320    0.8220 H   0  0  0  0  0  0  0  0  0  0  0  0
  1 12  1  0  0  0  0
  2  9  1  0  0  0  0
  2 13  1  1  0  0  0
  2  1  1  0  0  0  0
  3  2  1  0  0  0  0
  4  3  1  0  0  0  0
  4  5  2  0  0  0  0
  5 16  1  0  0  0  0
  6 17  1  0  0  0  0
  6  5  1  0  0  0  0
  7  6  1  0  0  0  0
  8  7  2  0  0  0  0
  8  4  1  0  0  0  0
  9 19  1  0  0  0  0
 10  9  2  0  0  0  0
 11  1  1  0  0  0  0
 14  3  1  0  0  0  0
 15  3  1  0  0  0  0
 18  7  1  0  0  0  0
 19 20  1  0  0  0  0
 19 28  1  0  0  0  0
 20 29  1  1  0  0  0
 21 30  1  0  0  0  0
 21 20  1  0  0  0  0
 21 22  1  0  0  0  0
 22 23  1  0  0  0  0
 23 27  1  0  0  0  0
 23 24  2  0  0  0  0
 25 26  2  0  0  0  0
 25 20  1  0  0  0  0
 27 34  1  0  0  0  0
 31 21  1  0  0  0  0
 32 22  1  0  0  0  0
 33 22  1  0  0  0  0
 35 44  1  0  0  0  0
 35 46  1  0  0  0  0
 36 35  1  0  0  0  0
 36 47  1  0  0  0  0
 36 38  1  0  0  0  0
 37 36  1  0  0  0  0
 38 39  1  0  0  0  0
 39 53  1  1  0  0  0
 39 40  1  0  0  0  0
 39 41  1  0  0  0  0
 40 25  1  0  0  0  0
 41 43  1  0  0  0  0
 42 41  2  0  0  0  0
 45 35  1  0  0  0  0
 48 37  1  0  0  0  0
 49 37  1  0  0  0  0
 50 37  1  0  0  0  0
 51 38  1  0  0  0  0
 52 38  1  0  0  0  0
 54 40  1  0  0  0  0
M  END
$$$$
