HEM.pdb
 OpenBabel07022418363D

 52 52  0  0  1  0  0  0  0  0999 V2000
    2.5670   -1.1330    1.9090 N   0  0  0  0  0  0  0  0  0  0  0  0
    2.0200   -0.1210    1.0240 C   0  0  1  0  0  0  0  0  0  0  0  0
    1.9860   -0.6660   -0.3880 C   0  0  0  0  0  0  0  0  0  0  0  0
    3.3700   -1.0070   -0.7950 C   0  0  0  0  0  0  0  0  0  0  0  0
    4.3250   -0.2200   -1.4230 C   0  0  0  0  0  0  0  0  0  0  0  0
    5.4450   -0.9370   -1.6040 N   0  0  0  0  0  0  0  0  0  0  0  0
    5.2010   -2.1480   -1.1000 C   0  0  0  0  0  0  0  0  0  0  0  0
    3.9400   -2.2080   -0.6030 N   0  0  0  0  0  0  0  0  0  0  0  0
    0.5880    0.1780    1.4000 C   0  0  0  0  0  0  0  0  0  0  0  0
    0.0110    1.0390    0.7000 O   0  0  0  0  0  0  0  0  0  0  0  0
    2.4960   -0.8160    2.8950 H   0  0  0  0  0  0  0  0  0  0  0  0
    2.0660   -2.0330    1.8310 H   0  0  0  0  0  0  0  0  0  0  0  0
    2.5660    0.8310    1.1050 H   0  0  0  0  0  0  0  0  0  0  0  0
    1.5360    0.0700   -1.0880 H   0  0  0  0  0  0  0  0  0  0  0  0
    1.3560   -1.5630   -0.4130 H   0  0  0  0  0  0  0  0  0  0  0  0
    4.1620    0.8210   -1.7160 H   0  0  0  0  0  0  0  0  0  0  0  0
    6.3260   -0.6130   -2.0470 H   0  0  0  0  0  0  0  0  0  0  0  0
    5.9290   -2.9570   -1.1010 H   0  0  0  0  0  0  0  0  0  0  0  0
   -0.0590   -0.4560    2.4550 N   0  0  0  0  0  0  0  0  0  0  0  0
   -1.4050   -0.1900    2.8340 C   0  0  1  0  0  0  0  0  0  0  0  0
   -1.7610    1.2810    2.9010 C   0  0  0  0  0  0  0  0  0  0  0  0
   -0.9600    2.0360    3.8990 C   0  0  0  0  0  0  0  0  0  0  0  0
    0.4820    2.0710    3.7230 C   0  0  0  0  0  0  0  0  0  0  0  0
    1.0740    2.9190    2.9710 O   0  0  0  0  0  0  0  0  0  0  0  0
   -2.4200   -0.9150    2.0380 C   0  0  0  0  0  0  0  0  0  0  0  0
   -3.6180   -0.7600    2.2860 O   0  0  0  0  0  0  0  0  0  0  0  0
    1.3000    1.1610    4.3820 O   0  0  0  0  0  0  0  0  0  0  0  0
    0.4930   -1.1780    3.0040 H   0  0  0  0  0  0  0  0  0  0  0  0
   -1.5610   -0.5200    3.9260 H   0  0  0  0  0  0  0  0  0  0  0  0
   -1.7450    1.8000    1.9390 H   0  0  0  0  0  0  0  0  0  0  0  0
   -2.8310    1.3190    3.2360 H   0  0  0  0  0  0  0  0  0  0  0  0
   -1.3110    3.1120    3.9760 H   0  0  0  0  0  0  0  0  0  0  0  0
   -1.1420    1.6600    4.9560 H   0  0  0  0  0  0  0  0  0  0  0  0
    2.2970    1.3180    4.4190 H   0  0  0  0  0  0  0  0  0  0  0  0
   -1.5760   -0.1230   -3.6750 C   0  0  0  0  0  0  0  0  0  0  0  0
   -3.2950   -0.0800   -3.0970 S   0  0  0  0  0  0  0  0  0  0  0  0
   -3.3030   -0.6680   -1.3830 C   0  0  0  0  0  0  0  0  0  0  0  0
   -2.9150   -2.1300   -1.2880 C   0  0  0  0  0  0  0  0  0  0  0  0
   -2.9450   -2.5360    0.1630 C   0  0  2  0  0  0  0  0  0  0  0  0
   -2.0470   -1.7890    0.9920 N   0  0  0  0  0  0  0  0  0  0  0  0
   -2.8140   -3.9940    0.3200 C   0  0  0  0  0  0  0  0  0  0  0  0
   -3.5400   -4.7510   -0.3490 O   0  0  0  0  0  0  0  0  0  0  0  0
   -1.9000   -4.5270    1.1960 O   0  0  0  0  0  0  0  0  0  0  0  0
   -1.2880    0.8830   -4.0650 H   0  0  0  0  0  0  0  0  0  0  0  0
   -1.4280   -0.8280   -4.5130 H   0  0  0  0  0  0  0  0  0  0  0  0
   -0.8690   -0.3520   -2.8640 H   0  0  0  0  0  0  0  0  0  0  0  0
   -4.3350   -0.5050   -1.0020 H   0  0  0  0  0  0  0  0  0  0  0  0
   -2.6300   -0.0640   -0.7420 H   0  0  0  0  0  0  0  0  0  0  0  0
   -1.9860   -2.3580   -1.8040 H   0  0  0  0  0  0  0  0  0  0  0  0
   -3.7230   -2.7000   -1.7930 H   0  0  0  0  0  0  0  0  0  0  0  0
   -3.9880   -2.2820    0.5220 H   0  0  0  0  0  0  0  0  0  0  0  0
   -1.0250   -1.8990    0.8080 H   0  0  0  0  0  0  0  0  0  0  0  0
  1 11  1  0  0  0  0
  2 13  1  1  0  0  0
  2  9  1  0  0  0  0
  2  1  1  0  0  0  0
  3  2  1  0  0  0  0
  4  8  1  0  0  0  0
  4  3  1  0  0  0  0
  5  4  2  0  0  0  0
  6  5  1  0  0  0  0
  6  7  1  0  0  0  0
  7  8  2  0  0  0  0
  9 19  1  0  0  0  0
 10  9  2  0  0  0  0
 12  1  1  0  0  0  0
 14  3  1  0  0  0  0
 15  3  1  0  0  0  0
 16  5  1  0  0  0  0
 17  6  1  0  0  0  0
 18  7  1  0  0  0  0
 19 20  1  0  0  0  0
 19 28  1  0  0  0  0
 20 21  1  0  0  0  0
 20 29  1  1  0  0  0
 21 31  1  0  0  0  0
 21 22  1  0  0  0  0
 22 32  1  0  0  0  0
 22 33  1  0  0  0  0
 23 22  1  0  0  0  0
 23 27  1  0  0  0  0
 24 23  2  0  0  0  0
 25 26  2  0  0  0  0
 25 20  1  0  0  0  0
 27 34  1  0  0  0  0
 30 21  1  0  0  0  0
 35 36  1  0  0  0  0
 35 46  1  0  0  0  0
 36 37  1  0  0  0  0
 37 38  1  0  0  0  0
 37 47  1  0  0  0  0
 37 48  1  0  0  0  0
 38 39  1  0  0  0  0
 39 41  1  0  0  0  0
 39 51  1  1  0  0  0
 39 40  1  0  0  0  0
 40 25  1  0  0  0  0
 41 43  1  0  0  0  0
 42 41  2  0  0  0  0
 44 35  1  0  0  0  0
 45 35  1  0  0  0  0
 49 38  1  0  0  0  0
 50 38  1  0  0  0  0
 52 40  1  0  0  0  0
M  END
$$$$
