HEN.pdb
 OpenBabel07022418353D

 49 49  0  0  1  0  0  0  0  0999 V2000
    2.7260   -1.5750    1.2500 N   0  0  0  0  0  0  0  0  0  0  0  0
    2.4740   -0.2010    0.8670 C   0  0  1  0  0  0  0  0  0  0  0  0
    2.3490   -0.2190   -0.6580 C   0  0  0  0  0  0  0  0  0  0  0  0
    3.6250   -0.7300   -1.1960 C   0  0  0  0  0  0  0  0  0  0  0  0
    4.7340   -0.0180   -1.5500 C   0  0  0  0  0  0  0  0  0  0  0  0
    5.6940   -0.8710   -2.0030 N   0  0  0  0  0  0  0  0  0  0  0  0
    5.1810   -2.1010   -1.9290 C   0  0  0  0  0  0  0  0  0  0  0  0
    3.9280   -2.0280   -1.4420 N   0  0  0  0  0  0  0  0  0  0  0  0
    1.1260    0.2390    1.3690 C   0  0  0  0  0  0  0  0  0  0  0  0
    0.8090    1.4080    1.1340 O   0  0  0  0  0  0  0  0  0  0  0  0
    3.7240   -1.8150    1.2450 H   0  0  0  0  0  0  0  0  0  0  0  0
    2.1010   -2.2440    0.7710 H   0  0  0  0  0  0  0  0  0  0  0  0
    3.2710    0.4500    1.2090 H   0  0  0  0  0  0  0  0  0  0  0  0
    1.5170   -0.8450   -0.9750 H   0  0  0  0  0  0  0  0  0  0  0  0
    2.2210    0.8110   -1.0640 H   0  0  0  0  0  0  0  0  0  0  0  0
    4.8700    1.0490   -1.4950 H   0  0  0  0  0  0  0  0  0  0  0  0
    6.6350   -0.6170   -2.3380 H   0  0  0  0  0  0  0  0  0  0  0  0
    5.6840   -3.0140   -2.2130 H   0  0  0  0  0  0  0  0  0  0  0  0
    0.2660   -0.6090    2.0640 N   0  0  0  0  0  0  0  0  0  0  0  0
   -0.9980   -0.2870    2.5840 C   0  0  1  0  0  0  0  0  0  0  0  0
   -1.2690    1.1600    2.9220 C   0  0  0  0  0  0  0  0  0  0  0  0
   -0.4200    1.7510    3.9770 C   0  0  0  0  0  0  0  0  0  0  0  0
   -0.5470    1.0550    5.2910 C   0  0  0  0  0  0  0  0  0  0  0  0
    0.0740   -0.0120    5.5310 O   0  0  0  0  0  0  0  0  0  0  0  0
   -2.0780   -0.7900    1.7480 C   0  0  0  0  0  0  0  0  0  0  0  0
   -3.2610   -0.5890    2.0860 O   0  0  0  0  0  0  0  0  0  0  0  0
   -1.3520    1.5470    6.3070 O   0  0  0  0  0  0  0  0  0  0  0  0
    0.6080   -1.6070    2.2130 H   0  0  0  0  0  0  0  0  0  0  0  0
   -1.0590   -0.7680    3.6350 H   0  0  0  0  0  0  0  0  0  0  0  0
   -1.3070    1.8120    2.0260 H   0  0  0  0  0  0  0  0  0  0  0  0
   -2.3330    1.1670    3.3120 H   0  0  0  0  0  0  0  0  0  0  0  0
    0.6270    1.8610    3.6740 H   0  0  0  0  0  0  0  0  0  0  0  0
   -0.7700    2.8090    4.1710 H   0  0  0  0  0  0  0  0  0  0  0  0
   -1.1840    1.2280    7.2500 H   0  0  0  0  0  0  0  0  0  0  0  0
   -2.7590    0.6360   -3.0180 N   0  0  0  0  0  0  0  0  0  0  0  0
   -2.8310   -0.0120   -1.7530 C   0  0  0  0  0  0  0  0  0  0  0  0
   -2.9760    0.6920   -0.7170 O   0  0  0  0  0  0  0  0  0  0  0  0
   -2.7320   -1.4800   -1.6940 C   0  0  0  0  0  0  0  0  0  0  0  0
   -2.8260   -2.0090   -0.2850 C   0  0  2  0  0  0  0  0  0  0  0  0
   -1.7790   -1.4990    0.5640 N   0  0  0  0  0  0  0  0  0  0  0  0
   -2.7300   -3.4890   -0.3290 C   0  0  0  0  0  0  0  0  0  0  0  0
   -1.8430   -4.1150    0.3110 O   0  0  0  0  0  0  0  0  0  0  0  0
   -3.6180   -4.2490   -1.0790 O   0  0  0  0  0  0  0  0  0  0  0  0
   -3.5870    0.9990   -3.5070 H   0  0  0  0  0  0  0  0  0  0  0  0
   -1.8290    0.7500   -3.4700 H   0  0  0  0  0  0  0  0  0  0  0  0
   -3.5630   -1.9120   -2.2810 H   0  0  0  0  0  0  0  0  0  0  0  0
   -1.7890   -1.8510   -2.1670 H   0  0  0  0  0  0  0  0  0  0  0  0
   -3.7940   -1.7450    0.1470 H   0  0  0  0  0  0  0  0  0  0  0  0
   -0.7770   -1.6850    0.2540 H   0  0  0  0  0  0  0  0  0  0  0  0
  2 13  1  1  0  0  0
  2  1  1  0  0  0  0
  2  9  1  0  0  0  0
  3  2  1  0  0  0  0
  4  3  1  0  0  0  0
  5 16  1  0  0  0  0
  5  4  2  0  0  0  0
  6  7  1  0  0  0  0
  6  5  1  0  0  0  0
  7  8  2  0  0  0  0
  8  4  1  0  0  0  0
  9 19  1  0  0  0  0
 10  9  2  0  0  0  0
 11  1  1  0  0  0  0
 12  1  1  0  0  0  0
 14  3  1  0  0  0  0
 15  3  1  0  0  0  0
 17  6  1  0  0  0  0
 18  7  1  0  0  0  0
 19 28  1  0  0  0  0
 19 20  1  0  0  0  0
 20 21  1  0  0  0  0
 20 29  1  1  0  0  0
 21 31  1  0  0  0  0
 21 22  1  0  0  0  0
 22 33  1  0  0  0  0
 22 23  1  0  0  0  0
 23 24  2  0  0  0  0
 23 27  1  0  0  0  0
 25 26  2  0  0  0  0
 25 20  1  0  0  0  0
 27 34  1  0  0  0  0
 30 21  1  0  0  0  0
 32 22  1  0  0  0  0
 35 36  1  0  0  0  0
 36 38  1  0  0  0  0
 36 37  2  0  0  0  0
 38 39  1  0  0  0  0
 39 48  1  1  0  0  0
 39 40  1  0  0  0  0
 40 25  1  0  0  0  0
 41 39  1  0  0  0  0
 41 42  1  0  0  0  0
 43 41  2  0  0  0  0
 44 35  1  0  0  0  0
 45 35  1  0  0  0  0
 46 38  1  0  0  0  0
 47 38  1  0  0  0  0
 49 40  1  0  0  0  0
M  END
$$$$
