HES.pdb
 OpenBabel07022418363D

 46 46  0  0  1  0  0  0  0  0999 V2000
    0.4180   -2.3730   -1.6460 N   0  0  0  0  0  0  0  0  0  0  0  0
    1.6650   -1.7010   -1.2070 C   0  0  1  0  0  0  0  0  0  0  0  0
    2.1690   -0.8920   -2.3740 C   0  0  0  0  0  0  0  0  0  0  0  0
    3.4400   -0.1990   -2.0700 C   0  0  0  0  0  0  0  0  0  0  0  0
    4.1380    0.6480   -2.9540 C   0  0  0  0  0  0  0  0  0  0  0  0
    5.2470    1.1080   -2.3580 N   0  0  0  0  0  0  0  0  0  0  0  0
    5.2860    0.5870   -1.1200 C   0  0  0  0  0  0  0  0  0  0  0  0
    4.2030   -0.1890   -0.9640 N   0  0  0  0  0  0  0  0  0  0  0  0
    1.3290   -0.8260   -0.0420 C   0  0  0  0  0  0  0  0  0  0  0  0
    2.1990   -0.2750    0.6330 O   0  0  0  0  0  0  0  0  0  0  0  0
    0.0210   -2.8220   -0.8060 H   0  0  0  0  0  0  0  0  0  0  0  0
   -0.1870   -1.6550   -2.0730 H   0  0  0  0  0  0  0  0  0  0  0  0
    2.4280   -2.4360   -0.9230 H   0  0  0  0  0  0  0  0  0  0  0  0
    1.4110   -0.0900   -2.5990 H   0  0  0  0  0  0  0  0  0  0  0  0
    2.2490   -1.5380   -3.2740 H   0  0  0  0  0  0  0  0  0  0  0  0
    3.7870    0.8560   -3.9450 H   0  0  0  0  0  0  0  0  0  0  0  0
    5.9420    1.7530   -2.7900 H   0  0  0  0  0  0  0  0  0  0  0  0
    6.0480    0.7580   -0.3820 H   0  0  0  0  0  0  0  0  0  0  0  0
   -0.0270   -0.5840    0.3470 N   0  0  0  0  0  0  0  0  0  0  0  0
   -0.3670    0.2770    1.4970 C   0  0  1  0  0  0  0  0  0  0  0  0
   -0.8710    1.6030    0.9940 C   0  0  0  0  0  0  0  0  0  0  0  0
   -1.2590    2.5790    2.0560 C   0  0  0  0  0  0  0  0  0  0  0  0
   -0.1830    2.9690    2.9800 C   0  0  0  0  0  0  0  0  0  0  0  0
    0.9950    2.5500    2.8880 O   0  0  0  0  0  0  0  0  0  0  0  0
   -1.2310   -0.4080    2.4450 C   0  0  0  0  0  0  0  0  0  0  0  0
   -1.5730    0.1940    3.5080 O   0  0  0  0  0  0  0  0  0  0  0  0
   -0.4350    3.8590    4.0460 O   0  0  0  0  0  0  0  0  0  0  0  0
   -0.7670   -1.0460   -0.2220 H   0  0  0  0  0  0  0  0  0  0  0  0
    0.6060    0.4860    1.9830 H   0  0  0  0  0  0  0  0  0  0  0  0
   -1.6900    1.5310    0.2660 H   0  0  0  0  0  0  0  0  0  0  0  0
   -0.0120    2.0680    0.4250 H   0  0  0  0  0  0  0  0  0  0  0  0
   -2.1650    2.2320    2.6210 H   0  0  0  0  0  0  0  0  0  0  0  0
   -1.6130    3.5100    1.5300 H   0  0  0  0  0  0  0  0  0  0  0  0
    0.2120    3.8370    4.8230 H   0  0  0  0  0  0  0  0  0  0  0  0
   -3.9350   -3.3030    1.5760 O   0  0  0  0  0  0  0  0  0  0  0  0
   -3.9940   -2.4770    2.6830 C   0  0  0  0  0  0  0  0  0  0  0  0
   -2.6050   -2.3090    3.3000 C   0  0  2  0  0  0  0  0  0  0  0  0
   -1.7500   -1.7210    2.2990 N   0  0  0  0  0  0  0  0  0  0  0  0
   -2.1630   -3.6410    3.7320 C   0  0  0  0  0  0  0  0  0  0  0  0
   -2.7840   -4.2990    4.6010 O   0  0  0  0  0  0  0  0  0  0  0  0
   -1.0300   -4.2220    3.1870 O   0  0  0  0  0  0  0  0  0  0  0  0
   -4.4800   -2.9200    0.8670 H   0  0  0  0  0  0  0  0  0  0  0  0
   -4.2910   -1.4600    2.3510 H   0  0  0  0  0  0  0  0  0  0  0  0
   -4.6620   -2.8840    3.4560 H   0  0  0  0  0  0  0  0  0  0  0  0
   -2.7240   -1.6000    4.1220 H   0  0  0  0  0  0  0  0  0  0  0  0
   -1.5000   -2.2500    1.4550 H   0  0  0  0  0  0  0  0  0  0  0  0
  1  2  1  0  0  0  0
  1 11  1  0  0  0  0
  2 13  1  1  0  0  0
  2  9  1  0  0  0  0
  3  4  1  0  0  0  0
  3  2  1  0  0  0  0
  4  8  1  0  0  0  0
  5  6  1  0  0  0  0
  5  4  2  0  0  0  0
  6  7  1  0  0  0  0
  7  8  2  0  0  0  0
  7 18  1  0  0  0  0
  9 19  1  0  0  0  0
  9 10  2  0  0  0  0
 12  1  1  0  0  0  0
 14  3  1  0  0  0  0
 15  3  1  0  0  0  0
 16  5  1  0  0  0  0
 17  6  1  0  0  0  0
 19 20  1  0  0  0  0
 20 29  1  1  0  0  0
 20 25  1  0  0  0  0
 21 20  1  0  0  0  0
 21 22  1  0  0  0  0
 22 32  1  0  0  0  0
 22 23  1  0  0  0  0
 23 27  1  0  0  0  0
 24 23  2  0  0  0  0
 25 26  2  0  0  0  0
 27 34  1  0  0  0  0
 28 19  1  0  0  0  0
 30 21  1  0  0  0  0
 31 21  1  0  0  0  0
 33 22  1  0  0  0  0
 35 36  1  0  0  0  0
 36 37  1  0  0  0  0
 36 44  1  0  0  0  0
 37 39  1  0  0  0  0
 37 45  1  1  0  0  0
 38 25  1  0  0  0  0
 38 37  1  0  0  0  0
 39 40  1  0  0  0  0
 41 39  2  0  0  0  0
 42 35  1  0  0  0  0
 43 36  1  0  0  0  0
 46 38  1  0  0  0  0
M  END
$$$$
