HEV.pdb
 OpenBabel07022418363D

 51 51  0  0  1  0  0  0  0  0999 V2000
    0.0210    1.7190    1.9040 N   0  0  0  0  0  0  0  0  0  0  0  0
    1.2190    1.7610    0.9980 C   0  0  1  0  0  0  0  0  0  0  0  0
    2.3300    2.1290    1.8950 C   0  0  0  0  0  0  0  0  0  0  0  0
    3.6610    2.3300    1.3360 C   0  0  0  0  0  0  0  0  0  0  0  0
    4.1870    2.3420    0.0770 C   0  0  0  0  0  0  0  0  0  0  0  0
    5.5170    2.6350    0.1990 N   0  0  0  0  0  0  0  0  0  0  0  0
    5.7950    2.7960    1.4870 C   0  0  0  0  0  0  0  0  0  0  0  0
    4.7000    2.6180    2.1800 N   0  0  0  0  0  0  0  0  0  0  0  0
    1.2950    0.4060    0.3990 C   0  0  0  0  0  0  0  0  0  0  0  0
    2.1840    0.1020   -0.3970 O   0  0  0  0  0  0  0  0  0  0  0  0
    0.1710    1.0220    2.6640 H   0  0  0  0  0  0  0  0  0  0  0  0
   -0.8420    1.5650    1.3830 H   0  0  0  0  0  0  0  0  0  0  0  0
    1.0150    2.5460    0.2710 H   0  0  0  0  0  0  0  0  0  0  0  0
    2.4110    1.3720    2.7290 H   0  0  0  0  0  0  0  0  0  0  0  0
    2.0340    3.0710    2.4330 H   0  0  0  0  0  0  0  0  0  0  0  0
    3.6580    2.1730   -0.8250 H   0  0  0  0  0  0  0  0  0  0  0  0
    6.1430    2.7040   -0.6140 H   0  0  0  0  0  0  0  0  0  0  0  0
    6.7870    3.0370    1.8900 H   0  0  0  0  0  0  0  0  0  0  0  0
    0.3200   -0.5930    0.7390 N   0  0  0  0  0  0  0  0  0  0  0  0
    0.4620   -1.8790    0.1230 C   0  0  1  0  0  0  0  0  0  0  0  0
    0.7210   -2.9060    1.2090 C   0  0  0  0  0  0  0  0  0  0  0  0
    1.9870   -2.5260    1.9940 C   0  0  0  0  0  0  0  0  0  0  0  0
    2.3040   -3.5580    3.0280 C   0  0  0  0  0  0  0  0  0  0  0  0
    2.3050   -4.7990    2.6870 O   0  0  0  0  0  0  0  0  0  0  0  0
   -0.7860   -2.3270   -0.5590 C   0  0  0  0  0  0  0  0  0  0  0  0
   -0.7910   -3.4700   -1.0930 O   0  0  0  0  0  0  0  0  0  0  0  0
    2.5990   -3.2610    4.3450 O   0  0  0  0  0  0  0  0  0  0  0  0
   -0.4720   -0.4270    1.4090 H   0  0  0  0  0  0  0  0  0  0  0  0
    1.3420   -1.9240   -0.5620 H   0  0  0  0  0  0  0  0  0  0  0  0
   -0.0990   -2.9480    1.9580 H   0  0  0  0  0  0  0  0  0  0  0  0
    0.8640   -3.9280    0.8150 H   0  0  0  0  0  0  0  0  0  0  0  0
    2.8740   -2.4470    1.3350 H   0  0  0  0  0  0  0  0  0  0  0  0
    1.7850   -1.5660    2.5140 H   0  0  0  0  0  0  0  0  0  0  0  0
    3.1670   -3.8620    4.9010 H   0  0  0  0  0  0  0  0  0  0  0  0
   -4.3240   -2.6590    0.8360 C   0  0  0  0  0  0  0  0  0  0  0  0
   -4.3890   -1.8690   -0.4540 C   0  0  0  0  0  0  0  0  0  0  0  0
   -4.8220   -0.4360   -0.2220 C   0  0  0  0  0  0  0  0  0  0  0  0
   -3.1680   -1.9900   -1.3000 C   0  0  2  0  0  0  0  0  0  0  0  0
   -1.9540   -1.5480   -0.6410 N   0  0  0  0  0  0  0  0  0  0  0  0
   -3.3700   -1.2500   -2.5840 C   0  0  0  0  0  0  0  0  0  0  0  0
   -2.5430   -0.4190   -3.0020 O   0  0  0  0  0  0  0  0  0  0  0  0
   -4.5090   -1.5020   -3.3210 O   0  0  0  0  0  0  0  0  0  0  0  0
   -3.6850   -3.5580    0.6420 H   0  0  0  0  0  0  0  0  0  0  0  0
   -3.7540   -2.0390    1.5740 H   0  0  0  0  0  0  0  0  0  0  0  0
   -5.3030   -2.9730    1.2020 H   0  0  0  0  0  0  0  0  0  0  0  0
   -5.2350   -2.3240   -1.0490 H   0  0  0  0  0  0  0  0  0  0  0  0
   -5.5410   -0.4500    0.6220 H   0  0  0  0  0  0  0  0  0  0  0  0
   -5.3710   -0.0070   -1.0870 H   0  0  0  0  0  0  0  0  0  0  0  0
   -3.9820    0.2330    0.0450 H   0  0  0  0  0  0  0  0  0  0  0  0
   -3.0230   -3.0480   -1.5850 H   0  0  0  0  0  0  0  0  0  0  0  0
   -1.9690   -0.6090   -0.2170 H   0  0  0  0  0  0  0  0  0  0  0  0
  1 11  1  0  0  0  0
  2 13  1  6  0  0  0
  2  3  1  0  0  0  0
  2  1  1  0  0  0  0
  3 15  1  0  0  0  0
  3 14  1  0  0  0  0
  4  3  1  0  0  0  0
  4  8  1  0  0  0  0
  5  6  1  0  0  0  0
  5  4  2  0  0  0  0
  6  7  1  0  0  0  0
  7 18  1  0  0  0  0
  7  8  2  0  0  0  0
  9 19  1  0  0  0  0
  9  2  1  0  0  0  0
 10  9  2  0  0  0  0
 12  1  1  0  0  0  0
 16  5  1  0  0  0  0
 17  6  1  0  0  0  0
 19 28  1  0  0  0  0
 20 29  1  6  0  0  0
 20 19  1  0  0  0  0
 20 21  1  0  0  0  0
 21 30  1  0  0  0  0
 21 22  1  0  0  0  0
 22 33  1  0  0  0  0
 22 23  1  0  0  0  0
 23 27  1  0  0  0  0
 24 23  2  0  0  0  0
 25 20  1  0  0  0  0
 26 25  2  0  0  0  0
 27 34  1  0  0  0  0
 31 21  1  0  0  0  0
 32 22  1  0  0  0  0
 35 45  1  0  0  0  0
 35 44  1  0  0  0  0
 36 37  1  0  0  0  0
 36 35  1  0  0  0  0
 37 49  1  0  0  0  0
 37 47  1  0  0  0  0
 38 50  1  6  0  0  0
 38 39  1  0  0  0  0
 38 36  1  0  0  0  0
 39 25  1  0  0  0  0
 39 51  1  0  0  0  0
 40 38  1  0  0  0  0
 41 40  1  0  0  0  0
 42 40  2  0  0  0  0
 43 35  1  0  0  0  0
 46 36  1  0  0  0  0
 48 37  1  0  0  0  0
M  END
$$$$
