HEW.pdb
 OpenBabel07022418363D

 59 61  0  0  1  0  0  0  0  0999 V2000
    4.1140   -1.0770   -0.6190 N   0  0  0  0  0  0  0  0  0  0  0  0
    3.5610   -1.6670    0.5520 C   0  0  1  0  0  0  0  0  0  0  0  0
    4.3560   -1.4890    1.8070 C   0  0  0  0  0  0  0  0  0  0  0  0
    4.5660   -0.0940    2.2070 C   0  0  0  0  0  0  0  0  0  0  0  0
    3.6970    0.6000    3.0370 C   0  0  0  0  0  0  0  0  0  0  0  0
    4.2260    1.8260    3.1660 N   0  0  0  0  0  0  0  0  0  0  0  0
    5.3580    1.8930    2.4600 C   0  0  0  0  0  0  0  0  0  0  0  0
    5.5610    0.7060    1.8710 N   0  0  0  0  0  0  0  0  0  0  0  0
    2.1280   -1.2300    0.7270 C   0  0  0  0  0  0  0  0  0  0  0  0
    1.4580   -1.5960    1.7090 O   0  0  0  0  0  0  0  0  0  0  0  0
    4.4010   -0.0930   -0.5370 H   0  0  0  0  0  0  0  0  0  0  0  0
    4.7650   -1.6920   -1.1590 H   0  0  0  0  0  0  0  0  0  0  0  0
    3.4770   -2.7800    0.3800 H   0  0  0  0  0  0  0  0  0  0  0  0
    3.8030   -2.0320    2.6130 H   0  0  0  0  0  0  0  0  0  0  0  0
    5.3410   -1.9980    1.7220 H   0  0  0  0  0  0  0  0  0  0  0  0
    2.7740    0.2180    3.4880 H   0  0  0  0  0  0  0  0  0  0  0  0
    3.7890    2.5880    3.7420 H   0  0  0  0  0  0  0  0  0  0  0  0
    6.0060    2.7820    2.3810 H   0  0  0  0  0  0  0  0  0  0  0  0
    1.5040   -0.3830   -0.2300 N   0  0  0  0  0  0  0  0  0  0  0  0
    0.1360    0.0870   -0.1400 C   0  0  1  0  0  0  0  0  0  0  0  0
   -0.0250    1.5440   -0.3350 C   0  0  0  0  0  0  0  0  0  0  0  0
    0.6830    2.4440    0.6140 C   0  0  0  0  0  0  0  0  0  0  0  0
    0.2910    2.2720    2.0220 C   0  0  0  0  0  0  0  0  0  0  0  0
    0.3250    1.1470    2.5760 O   0  0  0  0  0  0  0  0  0  0  0  0
   -0.6100   -0.6800   -1.2130 C   0  0  0  0  0  0  0  0  0  0  0  0
   -0.0600   -1.5320   -1.9500 O   0  0  0  0  0  0  0  0  0  0  0  0
   -0.1470    3.3340    2.8370 O   0  0  0  0  0  0  0  0  0  0  0  0
    2.1260   -0.1040   -1.0470 H   0  0  0  0  0  0  0  0  0  0  0  0
   -0.3360   -0.2110    0.8200 H   0  0  0  0  0  0  0  0  0  0  0  0
    0.1640    1.8770   -1.3980 H   0  0  0  0  0  0  0  0  0  0  0  0
   -1.1290    1.7620   -0.2040 H   0  0  0  0  0  0  0  0  0  0  0  0
    1.7940    2.2200    0.5850 H   0  0  0  0  0  0  0  0  0  0  0  0
    0.6080    3.5130    0.3090 H   0  0  0  0  0  0  0  0  0  0  0  0
   -0.5840    3.1840    3.7420 H   0  0  0  0  0  0  0  0  0  0  0  0
   -2.0140   -0.4520   -1.4330 N   0  0  0  0  0  0  0  0  0  0  0  0
   -2.7670   -1.1550   -2.4480 C   0  0  1  0  0  0  0  0  0  0  0  0
   -3.9300   -1.9600   -1.8850 C   0  0  0  0  0  0  0  0  0  0  0  0
   -3.5510   -3.0050   -0.9430 C   0  0  0  0  0  0  0  0  0  0  0  0
   -3.4110   -4.3300   -1.2790 C   0  0  0  0  0  0  0  0  0  0  0  0
   -3.0350   -4.9810   -0.1780 N   0  0  0  0  0  0  0  0  0  0  0  0
   -2.9260   -4.1370    0.8600 C   0  0  0  0  0  0  0  0  0  0  0  0
   -2.5790   -4.3140    2.1950 C   0  0  0  0  0  0  0  0  0  0  0  0
   -2.5440   -3.2740    3.0930 C   0  0  0  0  0  0  0  0  0  0  0  0
   -2.8690   -2.0120    2.6300 C   0  0  0  0  0  0  0  0  0  0  0  0
   -3.2130   -1.8460    1.2970 C   0  0  0  0  0  0  0  0  0  0  0  0
   -3.2510   -2.8850    0.3850 C   0  0  0  0  0  0  0  0  0  0  0  0
   -3.3650   -0.1810   -3.3760 C   0  0  0  0  0  0  0  0  0  0  0  0
   -3.1700    1.0450   -3.1780 O   0  0  0  0  0  0  0  0  0  0  0  0
   -4.1320   -0.5540   -4.4590 O   0  0  0  0  0  0  0  0  0  0  0  0
   -2.4360    0.2690   -0.8080 H   0  0  0  0  0  0  0  0  0  0  0  0
   -2.0980   -1.8380   -3.0340 H   0  0  0  0  0  0  0  0  0  0  0  0
   -4.5400   -2.3780   -2.7140 H   0  0  0  0  0  0  0  0  0  0  0  0
   -4.5920   -1.1870   -1.3850 H   0  0  0  0  0  0  0  0  0  0  0  0
   -3.5710   -4.7970   -2.2660 H   0  0  0  0  0  0  0  0  0  0  0  0
   -2.8420   -6.0210   -0.0960 H   0  0  0  0  0  0  0  0  0  0  0  0
   -2.3260   -5.3170    2.5480 H   0  0  0  0  0  0  0  0  0  0  0  0
   -2.2640   -3.4610    4.1400 H   0  0  0  0  0  0  0  0  0  0  0  0
   -2.8510   -1.1810    3.3010 H   0  0  0  0  0  0  0  0  0  0  0  0
   -3.4760   -0.8690    0.9340 H   0  0  0  0  0  0  0  0  0  0  0  0
  1 11  1  0  0  0  0
  1  2  1  0  0  0  0
  2 13  1  6  0  0  0
  2  9  1  0  0  0  0
  2  3  1  0  0  0  0
  3  4  1  0  0  0  0
  3 14  1  0  0  0  0
  4  5  2  0  0  0  0
  5  6  1  0  0  0  0
  5 16  1  0  0  0  0
  6 17  1  0  0  0  0
  7  6  1  0  0  0  0
  8  4  1  0  0  0  0
  8  7  2  0  0  0  0
  9 10  2  0  0  0  0
 12  1  1  0  0  0  0
 15  3  1  0  0  0  0
 18  7  1  0  0  0  0
 19 20  1  0  0  0  0
 19  9  1  0  0  0  0
 20 29  1  1  0  0  0
 21 31  1  0  0  0  0
 21 20  1  0  0  0  0
 21 22  1  0  0  0  0
 22 23  1  0  0  0  0
 23 24  2  0  0  0  0
 23 27  1  0  0  0  0
 25 20  1  0  0  0  0
 26 25  2  0  0  0  0
 27 34  1  0  0  0  0
 28 19  1  0  0  0  0
 30 21  1  0  0  0  0
 32 22  1  0  0  0  0
 33 22  1  0  0  0  0
 35 25  1  0  0  0  0
 35 50  1  0  0  0  0
 36 51  1  6  0  0  0
 36 37  1  0  0  0  0
 36 35  1  0  0  0  0
 37 53  1  0  0  0  0
 37 38  1  0  0  0  0
 38 46  1  0  0  0  0
 39 38  2  0  0  0  0
 39 40  1  0  0  0  0
 40 55  1  0  0  0  0
 40 41  1  0  0  0  0
 41 42  1  0  0  0  0
 42 56  1  0  0  0  0
 42 43  2  0  0  0  0
 43 57  1  0  0  0  0
 44 43  1  0  0  0  0
 44 58  1  0  0  0  0
 45 44  2  0  0  0  0
 46 41  2  0  0  0  0
 46 45  1  0  0  0  0
 47 48  1  0  0  0  0
 47 36  1  0  0  0  0
 49 47  2  0  0  0  0
 52 37  1  0  0  0  0
 54 39  1  0  0  0  0
 59 45  1  0  0  0  0
M  END
$$$$
