HEY.pdb
 OpenBabel07022418363D

 56 57  0  0  1  0  0  0  0  0999 V2000
    1.8790   -0.2070    3.0880 N   0  0  0  0  0  0  0  0  0  0  0  0
    2.2170    0.1890    1.7360 C   0  0  1  0  0  0  0  0  0  0  0  0
    2.9940   -0.9230    1.0670 C   0  0  0  0  0  0  0  0  0  0  0  0
    4.2160   -1.1310    1.8840 C   0  0  0  0  0  0  0  0  0  0  0  0
    4.3880   -1.9900    2.9650 C   0  0  0  0  0  0  0  0  0  0  0  0
    5.6260   -1.8920    3.4350 N   0  0  0  0  0  0  0  0  0  0  0  0
    6.2570   -0.9800    2.6720 C   0  0  0  0  0  0  0  0  0  0  0  0
    5.3990   -0.5200    1.7320 N   0  0  0  0  0  0  0  0  0  0  0  0
    0.9540    0.5130    0.9640 C   0  0  0  0  0  0  0  0  0  0  0  0
    1.0330    0.8770   -0.2310 O   0  0  0  0  0  0  0  0  0  0  0  0
    1.3230   -1.0670    3.1240 H   0  0  0  0  0  0  0  0  0  0  0  0
    1.4350    0.6020    3.5620 H   0  0  0  0  0  0  0  0  0  0  0  0
    2.8350    1.0930    1.7560 H   0  0  0  0  0  0  0  0  0  0  0  0
    3.3140   -0.5490    0.0800 H   0  0  0  0  0  0  0  0  0  0  0  0
    2.4170   -1.8590    1.0160 H   0  0  0  0  0  0  0  0  0  0  0  0
    3.6090   -2.6360    3.3490 H   0  0  0  0  0  0  0  0  0  0  0  0
    5.9940   -2.4440    4.2510 H   0  0  0  0  0  0  0  0  0  0  0  0
    7.2950   -0.7110    2.8480 H   0  0  0  0  0  0  0  0  0  0  0  0
   -0.3110    0.4110    1.5720 N   0  0  0  0  0  0  0  0  0  0  0  0
   -1.6010    0.6950    1.0040 C   0  0  1  0  0  0  0  0  0  0  0  0
   -1.4520    1.7290   -0.1140 C   0  0  0  0  0  0  0  0  0  0  0  0
   -0.9310    3.0480    0.3270 C   0  0  0  0  0  0  0  0  0  0  0  0
   -1.8690    3.7360    1.2620 C   0  0  0  0  0  0  0  0  0  0  0  0
   -3.0000    3.3440    1.5680 O   0  0  0  0  0  0  0  0  0  0  0  0
   -2.3640   -0.4890    0.6000 C   0  0  0  0  0  0  0  0  0  0  0  0
   -3.5090   -0.3350    0.1130 O   0  0  0  0  0  0  0  0  0  0  0  0
   -1.4330    4.9430    1.8540 O   0  0  0  0  0  0  0  0  0  0  0  0
   -0.2780    0.0740    2.6010 H   0  0  0  0  0  0  0  0  0  0  0  0
   -2.1860    1.3200    1.7800 H   0  0  0  0  0  0  0  0  0  0  0  0
   -2.5380    1.9400   -0.4310 H   0  0  0  0  0  0  0  0  0  0  0  0
   -1.0020    1.3320   -1.0260 H   0  0  0  0  0  0  0  0  0  0  0  0
   -0.9000    3.7060   -0.5940 H   0  0  0  0  0  0  0  0  0  0  0  0
    0.0980    3.0820    0.7130 H   0  0  0  0  0  0  0  0  0  0  0  0
   -2.0980    5.5090    2.3860 H   0  0  0  0  0  0  0  0  0  0  0  0
   -1.3160   -0.6410   -5.4460 O   0  0  0  0  0  0  0  0  0  0  0  0
   -1.4060   -1.3980   -4.2790 C   0  0  0  0  0  0  0  0  0  0  0  0
   -0.4510   -1.3800   -3.2820 C   0  0  0  0  0  0  0  0  0  0  0  0
   -0.5480   -2.1300   -2.1350 C   0  0  0  0  0  0  0  0  0  0  0  0
   -1.6230   -2.9380   -1.9420 C   0  0  0  0  0  0  0  0  0  0  0  0
   -1.7940   -3.7850   -0.7050 C   0  0  0  0  0  0  0  0  0  0  0  0
   -2.5540   -3.0050    0.3670 C   0  0  2  0  0  0  0  0  0  0  0  0
   -1.8460   -1.8060    0.7440 N   0  0  0  0  0  0  0  0  0  0  0  0
   -2.7010   -3.8980    1.5300 C   0  0  0  0  0  0  0  0  0  0  0  0
   -2.2500   -3.5960    2.6670 O   0  0  0  0  0  0  0  0  0  0  0  0
   -2.6070   -2.9960   -2.9040 C   0  0  0  0  0  0  0  0  0  0  0  0
   -2.4900   -2.2390   -4.0410 C   0  0  0  0  0  0  0  0  0  0  0  0
   -3.3460   -5.1200    1.4240 O   0  0  0  0  0  0  0  0  0  0  0  0
   -2.0260    0.0740   -5.5750 H   0  0  0  0  0  0  0  0  0  0  0  0
    0.4000   -0.7100   -3.4850 H   0  0  0  0  0  0  0  0  0  0  0  0
    0.2300   -2.0690   -1.4010 H   0  0  0  0  0  0  0  0  0  0  0  0
   -0.8260   -4.1290   -0.3100 H   0  0  0  0  0  0  0  0  0  0  0  0
   -2.3710   -4.6780   -1.0140 H   0  0  0  0  0  0  0  0  0  0  0  0
   -3.5770   -2.7290   -0.0250 H   0  0  0  0  0  0  0  0  0  0  0  0
   -0.8910   -1.8940    1.1500 H   0  0  0  0  0  0  0  0  0  0  0  0
   -3.4680   -3.6570   -2.7240 H   0  0  0  0  0  0  0  0  0  0  0  0
   -3.2520   -2.2740   -4.8020 H   0  0  0  0  0  0  0  0  0  0  0  0
  1 11  1  0  0  0  0
  1 12  1  0  0  0  0
  2 13  1  1  0  0  0
  2  1  1  0  0  0  0
  3  2  1  0  0  0  0
  3  4  1  0  0  0  0
  4  5  2  0  0  0  0
  5 16  1  0  0  0  0
  5  6  1  0  0  0  0
  6 17  1  0  0  0  0
  7 18  1  0  0  0  0
  7  6  1  0  0  0  0
  8  4  1  0  0  0  0
  8  7  2  0  0  0  0
  9 19  1  0  0  0  0
  9  2  1  0  0  0  0
 10  9  2  0  0  0  0
 14  3  1  0  0  0  0
 15  3  1  0  0  0  0
 19 28  1  0  0  0  0
 20 19  1  0  0  0  0
 20 29  1  1  0  0  0
 21 22  1  0  0  0  0
 21 20  1  0  0  0  0
 22 33  1  0  0  0  0
 22 23  1  0  0  0  0
 23 24  2  0  0  0  0
 23 27  1  0  0  0  0
 25 42  1  0  0  0  0
 25 20  1  0  0  0  0
 26 25  2  0  0  0  0
 27 34  1  0  0  0  0
 30 21  1  0  0  0  0
 31 21  1  0  0  0  0
 32 22  1  0  0  0  0
 35 36  1  0  0  0  0
 36 46  2  0  0  0  0
 36 37  1  0  0  0  0
 37 38  2  0  0  0  0
 38 39  1  0  0  0  0
 38 50  1  0  0  0  0
 39 40  1  0  0  0  0
 40 51  1  0  0  0  0
 40 41  1  0  0  0  0
 41 53  1  6  0  0  0
 41 42  1  0  0  0  0
 41 43  1  0  0  0  0
 42 54  1  0  0  0  0
 43 44  1  0  0  0  0
 45 55  1  0  0  0  0
 45 39  2  0  0  0  0
 46 45  1  0  0  0  0
 47 43  2  0  0  0  0
 48 35  1  0  0  0  0
 49 37  1  0  0  0  0
 52 40  1  0  0  0  0
 56 46  1  0  0  0  0
M  END
$$$$
