HFC.pdb
 OpenBabel07022418383D

 50 51  0  0  1  0  0  0  0  0999 V2000
    3.4950   -1.1330   -0.0390 N   0  0  0  0  0  0  0  0  0  0  0  0
    2.1600   -0.5720   -0.1030 C   0  0  1  0  0  0  0  0  0  0  0  0
    1.5610   -0.8950   -1.4660 C   0  0  0  0  0  0  0  0  0  0  0  0
    2.4150   -0.3000   -2.5260 C   0  0  0  0  0  0  0  0  0  0  0  0
    2.2610    0.9640   -3.0470 C   0  0  0  0  0  0  0  0  0  0  0  0
    3.2050    1.1960   -3.9980 N   0  0  0  0  0  0  0  0  0  0  0  0
    3.9430    0.0620   -4.0600 C   0  0  0  0  0  0  0  0  0  0  0  0
    3.4640   -0.8340   -3.1730 N   0  0  0  0  0  0  0  0  0  0  0  0
    1.3640   -1.1070    0.9980 C   0  0  0  0  0  0  0  0  0  0  0  0
    1.8580   -1.9230    1.8210 O   0  0  0  0  0  0  0  0  0  0  0  0
    3.5570   -2.0680   -0.5060 H   0  0  0  0  0  0  0  0  0  0  0  0
    3.6910   -1.3230    0.9850 H   0  0  0  0  0  0  0  0  0  0  0  0
    2.2820    0.5330   -0.0720 H   0  0  0  0  0  0  0  0  0  0  0  0
    0.5540   -0.4420   -1.5610 H   0  0  0  0  0  0  0  0  0  0  0  0
    1.4240   -1.9840   -1.6110 H   0  0  0  0  0  0  0  0  0  0  0  0
    1.5050    1.7160   -2.7720 H   0  0  0  0  0  0  0  0  0  0  0  0
    3.3100    2.0810   -4.5500 H   0  0  0  0  0  0  0  0  0  0  0  0
    4.7860   -0.0400   -4.7480 H   0  0  0  0  0  0  0  0  0  0  0  0
   -0.0080   -0.7630    1.2330 N   0  0  0  0  0  0  0  0  0  0  0  0
   -0.8000   -1.2790    2.3060 C   0  0  1  0  0  0  0  0  0  0  0  0
   -1.1850   -0.0890    3.1860 C   0  0  0  0  0  0  0  0  0  0  0  0
    0.0240    0.5850    3.7230 C   0  0  0  0  0  0  0  0  0  0  0  0
    0.6610    1.6210    3.0640 C   0  0  0  0  0  0  0  0  0  0  0  0
    1.7800    2.2330    3.5770 C   0  0  0  0  0  0  0  0  0  0  0  0
    2.2700    1.8000    4.7680 C   0  0  0  0  0  0  0  0  0  0  0  0
    1.6720    0.7780    5.4540 C   0  0  0  0  0  0  0  0  0  0  0  0
    0.5590    0.1730    4.9380 C   0  0  0  0  0  0  0  0  0  0  0  0
   -2.0500   -1.9170    1.8770 C   0  0  0  0  0  0  0  0  0  0  0  0
   -2.8020   -2.3950    2.7640 O   0  0  0  0  0  0  0  0  0  0  0  0
   -0.4370   -0.0900    0.5630 H   0  0  0  0  0  0  0  0  0  0  0  0
   -0.2670   -1.9800    2.9620 H   0  0  0  0  0  0  0  0  0  0  0  0
   -1.8170   -0.4920    3.9940 H   0  0  0  0  0  0  0  0  0  0  0  0
   -1.7110    0.6530    2.5560 H   0  0  0  0  0  0  0  0  0  0  0  0
    0.2430    1.9460    2.1080 H   0  0  0  0  0  0  0  0  0  0  0  0
    2.2180    3.0360    2.9980 H   0  0  0  0  0  0  0  0  0  0  0  0
    3.1610    2.2700    5.2000 H   0  0  0  0  0  0  0  0  0  0  0  0
    2.0480    0.4100    6.4180 H   0  0  0  0  0  0  0  0  0  0  0  0
    0.0520   -0.6500    5.4600 H   0  0  0  0  0  0  0  0  0  0  0  0
   -2.4920   -2.0420    0.5320 N   0  0  0  0  0  0  0  0  0  0  0  0
   -3.7370   -2.6820    0.1710 C   0  0  1  0  0  0  0  0  0  0  0  0
   -4.5880   -1.6300   -0.5390 C   0  0  0  0  0  0  0  0  0  0  0  0
   -4.9110   -0.2170    0.5360 S   0  0  0  0  0  0  0  0  0  0  0  0
   -3.5260   -3.7800   -0.8100 C   0  0  0  0  0  0  0  0  0  0  0  0
   -4.4440   -4.4710   -1.2660 O   0  0  0  0  0  0  0  0  0  0  0  0
   -2.2250   -4.0280   -1.2240 O   0  0  0  0  0  0  0  0  0  0  0  0
   -1.8680   -1.6440   -0.2000 H   0  0  0  0  0  0  0  0  0  0  0  0
   -4.2830   -3.0500    1.0540 H   0  0  0  0  0  0  0  0  0  0  0  0
   -4.0300   -1.3510   -1.4570 H   0  0  0  0  0  0  0  0  0  0  0  0
   -5.5410   -2.1030   -0.8660 H   0  0  0  0  0  0  0  0  0  0  0  0
   -4.6030    0.9570   -0.2130 H   0  0  0  0  0  0  0  0  0  0  0  0
  1 12  1  0  0  0  0
  2 13  1  1  0  0  0
  2  1  1  0  0  0  0
  2  9  1  0  0  0  0
  3  2  1  0  0  0  0
  4  3  1  0  0  0  0
  5 16  1  0  0  0  0
  5  4  2  0  0  0  0
  6  5  1  0  0  0  0
  7  6  1  0  0  0  0
  7  8  2  0  0  0  0
  8  4  1  0  0  0  0
  9 19  1  0  0  0  0
  9 10  2  0  0  0  0
 11  1  1  0  0  0  0
 14  3  1  0  0  0  0
 15  3  1  0  0  0  0
 17  6  1  0  0  0  0
 18  7  1  0  0  0  0
 19 20  1  0  0  0  0
 20 31  1  1  0  0  0
 20 21  1  0  0  0  0
 21 22  1  0  0  0  0
 21 32  1  0  0  0  0
 22 27  1  0  0  0  0
 23 24  1  0  0  0  0
 23 22  2  0  0  0  0
 24 25  2  0  0  0  0
 25 36  1  0  0  0  0
 25 26  1  0  0  0  0
 26 37  1  0  0  0  0
 27 26  2  0  0  0  0
 27 38  1  0  0  0  0
 28 20  1  0  0  0  0
 28 29  2  0  0  0  0
 30 19  1  0  0  0  0
 33 21  1  0  0  0  0
 34 23  1  0  0  0  0
 35 24  1  0  0  0  0
 39 28  1  0  0  0  0
 40 39  1  0  0  0  0
 40 47  1  1  0  0  0
 41 40  1  0  0  0  0
 41 42  1  0  0  0  0
 43 40  1  0  0  0  0
 44 43  2  0  0  0  0
 45 43  1  0  0  0  0
 46 39  1  0  0  0  0
 48 41  1  0  0  0  0
 49 41  1  0  0  0  0
 50 42  1  0  0  0  0
M  END
$$$$
