HFD.pdb
 OpenBabel07022418383D

 52 53  0  0  1  0  0  0  0  0999 V2000
    4.4790   -0.3680    1.5770 N   0  0  0  0  0  0  0  0  0  0  0  0
    3.0950    0.0320    1.7320 C   0  0  1  0  0  0  0  0  0  0  0  0
    2.9260    1.3140    0.9270 C   0  0  0  0  0  0  0  0  0  0  0  0
    3.8670    2.3100    1.5010 C   0  0  0  0  0  0  0  0  0  0  0  0
    5.1930    2.5280    1.1120 C   0  0  0  0  0  0  0  0  0  0  0  0
    5.7160    3.5210    1.8750 N   0  0  0  0  0  0  0  0  0  0  0  0
    4.7680    3.9240    2.7160 C   0  0  0  0  0  0  0  0  0  0  0  0
    3.6570    3.2000    2.4940 N   0  0  0  0  0  0  0  0  0  0  0  0
    2.2420   -1.0530    1.2000 C   0  0  0  0  0  0  0  0  0  0  0  0
    2.7760   -2.0800    0.7170 O   0  0  0  0  0  0  0  0  0  0  0  0
    4.7140   -1.1610    2.2470 H   0  0  0  0  0  0  0  0  0  0  0  0
    4.5730   -0.8030    0.6250 H   0  0  0  0  0  0  0  0  0  0  0  0
    2.8480    0.2910    2.7810 H   0  0  0  0  0  0  0  0  0  0  0  0
    1.8840    1.6640    1.0330 H   0  0  0  0  0  0  0  0  0  0  0  0
    3.1220    1.1600   -0.1460 H   0  0  0  0  0  0  0  0  0  0  0  0
    5.7020    1.9850    0.3320 H   0  0  0  0  0  0  0  0  0  0  0  0
    6.6990    3.8530    1.7590 H   0  0  0  0  0  0  0  0  0  0  0  0
    4.9250    4.7230    3.4490 H   0  0  0  0  0  0  0  0  0  0  0  0
    0.8270   -1.0120    1.1990 N   0  0  0  0  0  0  0  0  0  0  0  0
    0.0110   -2.0970    0.6670 C   0  0  1  0  0  0  0  0  0  0  0  0
   -0.6720   -2.7100    1.8840 C   0  0  0  0  0  0  0  0  0  0  0  0
   -1.5160   -1.7290    2.6120 C   0  0  0  0  0  0  0  0  0  0  0  0
   -1.0080   -0.9450    3.6270 C   0  0  0  0  0  0  0  0  0  0  0  0
   -1.8200   -0.0390    4.2920 C   0  0  0  0  0  0  0  0  0  0  0  0
   -3.1490    0.1010    3.9590 C   0  0  0  0  0  0  0  0  0  0  0  0
   -3.6650   -0.6780    2.9470 C   0  0  0  0  0  0  0  0  0  0  0  0
   -2.8440   -1.5880    2.2810 C   0  0  0  0  0  0  0  0  0  0  0  0
   -0.9410   -1.6250   -0.3520 C   0  0  0  0  0  0  0  0  0  0  0  0
   -0.9660   -0.3910   -0.5980 O   0  0  0  0  0  0  0  0  0  0  0  0
    0.3760   -0.1630    1.5990 H   0  0  0  0  0  0  0  0  0  0  0  0
    0.6790   -2.8960    0.2820 H   0  0  0  0  0  0  0  0  0  0  0  0
   -1.2350   -3.6170    1.6080 H   0  0  0  0  0  0  0  0  0  0  0  0
    0.1630   -2.9840    2.5800 H   0  0  0  0  0  0  0  0  0  0  0  0
    0.0500   -1.0290    3.9210 H   0  0  0  0  0  0  0  0  0  0  0  0
   -1.4130    0.5840    5.0990 H   0  0  0  0  0  0  0  0  0  0  0  0
   -3.8240    0.7960    4.4500 H   0  0  0  0  0  0  0  0  0  0  0  0
   -4.7170   -0.6120    2.6360 H   0  0  0  0  0  0  0  0  0  0  0  0
   -3.2920   -2.1750    1.4980 H   0  0  0  0  0  0  0  0  0  0  0  0
   -1.8050   -2.4730   -1.0510 N   0  0  0  0  0  0  0  0  0  0  0  0
   -2.7500   -1.9970   -2.0680 C   0  0  1  0  0  0  0  0  0  0  0  0
   -2.2190   -2.5470   -3.3730 C   0  0  0  0  0  0  0  0  0  0  0  0
   -2.9870   -2.1810   -4.5610 C   0  0  0  0  0  0  0  0  0  0  0  0
   -2.7880   -2.7570   -5.6890 O   0  0  0  0  0  0  0  0  0  0  0  0
   -4.0980   -2.4970   -1.8000 C   0  0  0  0  0  0  0  0  0  0  0  0
   -4.2820   -3.2660   -0.8030 O   0  0  0  0  0  0  0  0  0  0  0  0
   -3.9620   -1.2060   -4.5580 O   0  0  0  0  0  0  0  0  0  0  0  0
   -5.2040   -2.1950   -2.5560 O   0  0  0  0  0  0  0  0  0  0  0  0
   -1.7900   -3.4950   -0.8540 H   0  0  0  0  0  0  0  0  0  0  0  0
   -2.7080   -0.8940   -2.1180 H   0  0  0  0  0  0  0  0  0  0  0  0
   -2.1540   -3.6600   -3.3460 H   0  0  0  0  0  0  0  0  0  0  0  0
   -1.1610   -2.2100   -3.5490 H   0  0  0  0  0  0  0  0  0  0  0  0
   -4.6800   -1.1340   -5.2850 H   0  0  0  0  0  0  0  0  0  0  0  0
  1  2  1  0  0  0  0
  1 11  1  0  0  0  0
  2 13  1  1  0  0  0
  3 14  1  0  0  0  0
  3  4  1  0  0  0  0
  3  2  1  0  0  0  0
  4  8  1  0  0  0  0
  5  4  2  0  0  0  0
  5  6  1  0  0  0  0
  6  7  1  0  0  0  0
  7 18  1  0  0  0  0
  8  7  2  0  0  0  0
  9  2  1  0  0  0  0
 10  9  2  0  0  0  0
 12  1  1  0  0  0  0
 15  3  1  0  0  0  0
 16  5  1  0  0  0  0
 17  6  1  0  0  0  0
 19  9  1  0  0  0  0
 19 30  1  0  0  0  0
 20 31  1  6  0  0  0
 20 19  1  0  0  0  0
 20 21  1  0  0  0  0
 21 33  1  0  0  0  0
 21 22  1  0  0  0  0
 22 23  1  0  0  0  0
 23 34  1  0  0  0  0
 23 24  2  0  0  0  0
 24 35  1  0  0  0  0
 25 24  1  0  0  0  0
 25 36  1  0  0  0  0
 26 25  2  0  0  0  0
 27 22  2  0  0  0  0
 27 26  1  0  0  0  0
 28 20  1  0  0  0  0
 29 28  2  0  0  0  0
 32 21  1  0  0  0  0
 37 26  1  0  0  0  0
 38 27  1  0  0  0  0
 39 48  1  0  0  0  0
 39 28  1  0  0  0  0
 40 49  1  6  0  0  0
 40 44  1  0  0  0  0
 40 39  1  0  0  0  0
 41 50  1  0  0  0  0
 41 40  1  0  0  0  0
 42 46  1  0  0  0  0
 42 41  1  0  0  0  0
 43 42  2  0  0  0  0
 44 45  1  0  0  0  0
 47 44  2  0  0  0  0
 51 41  1  0  0  0  0
 52 46  1  0  0  0  0
M  END
$$$$
