HFE.pdb
 OpenBabel07022418383D

 55 56  0  0  1  0  0  0  0  0999 V2000
    0.9600   -0.1960    3.4490 N   0  0  0  0  0  0  0  0  0  0  0  0
    1.8570    0.1370    2.3590 C   0  0  1  0  0  0  0  0  0  0  0  0
    2.9870   -0.8500    2.3010 C   0  0  0  0  0  0  0  0  0  0  0  0
    3.7200   -0.7930    3.5920 C   0  0  0  0  0  0  0  0  0  0  0  0
    3.4930   -1.5270    4.7380 C   0  0  0  0  0  0  0  0  0  0  0  0
    4.3990   -1.1340    5.6400 N   0  0  0  0  0  0  0  0  0  0  0  0
    5.1890   -0.1840    5.1130 C   0  0  0  0  0  0  0  0  0  0  0  0
    4.7630    0.0200    3.8520 N   0  0  0  0  0  0  0  0  0  0  0  0
    1.1350    0.2170    1.0650 C   0  0  0  0  0  0  0  0  0  0  0  0
    1.7750    0.4970    0.0500 O   0  0  0  0  0  0  0  0  0  0  0  0
    0.9410   -1.2200    3.5650 H   0  0  0  0  0  0  0  0  0  0  0  0
    1.2760    0.2380    4.3570 H   0  0  0  0  0  0  0  0  0  0  0  0
    2.2730    1.1370    2.5640 H   0  0  0  0  0  0  0  0  0  0  0  0
    2.6620   -1.8620    2.0500 H   0  0  0  0  0  0  0  0  0  0  0  0
    3.6960   -0.5320    1.4920 H   0  0  0  0  0  0  0  0  0  0  0  0
    2.7200   -2.2660    4.8430 H   0  0  0  0  0  0  0  0  0  0  0  0
    4.4290   -1.5560    6.6080 H   0  0  0  0  0  0  0  0  0  0  0  0
    6.0070    0.3190    5.6060 H   0  0  0  0  0  0  0  0  0  0  0  0
   -0.2620   -0.0170    0.9500 N   0  0  0  0  0  0  0  0  0  0  0  0
   -0.9940    0.0600   -0.2520 C   0  0  1  0  0  0  0  0  0  0  0  0
   -0.7070    1.2280   -1.1710 C   0  0  0  0  0  0  0  0  0  0  0  0
   -1.0060    2.5420   -0.5540 C   0  0  0  0  0  0  0  0  0  0  0  0
   -0.1030    3.3200    0.1200 C   0  0  0  0  0  0  0  0  0  0  0  0
   -0.4280    4.5500    0.6950 C   0  0  0  0  0  0  0  0  0  0  0  0
   -1.7090    4.9930    0.5760 C   0  0  0  0  0  0  0  0  0  0  0  0
   -2.6700    4.2640   -0.0890 C   0  0  0  0  0  0  0  0  0  0  0  0
   -2.3050    3.0750   -0.6300 C   0  0  0  0  0  0  0  0  0  0  0  0
   -1.2380   -1.2100   -0.9660 C   0  0  0  0  0  0  0  0  0  0  0  0
   -1.9010   -1.1820   -2.0560 O   0  0  0  0  0  0  0  0  0  0  0  0
   -0.7210   -0.2660    1.8850 H   0  0  0  0  0  0  0  0  0  0  0  0
   -2.0520    0.3790    0.1060 H   0  0  0  0  0  0  0  0  0  0  0  0
    0.2860    1.2470   -1.5880 H   0  0  0  0  0  0  0  0  0  0  0  0
   -1.4260    1.1210   -2.0250 H   0  0  0  0  0  0  0  0  0  0  0  0
    0.9240    2.9900    0.2200 H   0  0  0  0  0  0  0  0  0  0  0  0
    0.3300    5.1310    1.2220 H   0  0  0  0  0  0  0  0  0  0  0  0
   -1.9830    5.9510    1.0170 H   0  0  0  0  0  0  0  0  0  0  0  0
   -3.6640    4.6860   -0.1390 H   0  0  0  0  0  0  0  0  0  0  0  0
   -3.0410    2.4770   -1.1600 H   0  0  0  0  0  0  0  0  0  0  0  0
   -0.7860   -2.4670   -0.5250 N   0  0  0  0  0  0  0  0  0  0  0  0
   -1.0450   -3.7190   -1.2690 C   0  0  1  0  0  0  0  0  0  0  0  0
   -2.4520   -4.0800   -1.0340 C   0  0  0  0  0  0  0  0  0  0  0  0
   -3.0410   -5.2770   -1.6550 C   0  0  0  0  0  0  0  0  0  0  0  0
   -3.1460   -5.2860   -3.1240 C   0  0  0  0  0  0  0  0  0  0  0  0
   -3.0060   -6.3420   -3.7860 O   0  0  0  0  0  0  0  0  0  0  0  0
   -0.5060   -3.6760   -2.6060 C   0  0  0  0  0  0  0  0  0  0  0  0
   -0.5010   -4.6720   -3.3540 O   0  0  0  0  0  0  0  0  0  0  0  0
   -3.4080   -4.1150   -3.8150 O   0  0  0  0  0  0  0  0  0  0  0  0
    0.0410   -2.5170   -3.1390 O   0  0  0  0  0  0  0  0  0  0  0  0
   -0.2510   -2.4870    0.3630 H   0  0  0  0  0  0  0  0  0  0  0  0
   -0.4190   -4.5020   -0.7190 H   0  0  0  0  0  0  0  0  0  0  0  0
   -3.1210   -3.2100   -1.3010 H   0  0  0  0  0  0  0  0  0  0  0  0
   -2.6500   -4.1770    0.0880 H   0  0  0  0  0  0  0  0  0  0  0  0
   -4.1170   -5.3280   -1.2870 H   0  0  0  0  0  0  0  0  0  0  0  0
   -2.6160   -6.2400   -1.2690 H   0  0  0  0  0  0  0  0  0  0  0  0
   -3.9000   -4.2180   -4.7150 H   0  0  0  0  0  0  0  0  0  0  0  0
  1 11  1  0  0  0  0
  1 12  1  0  0  0  0
  2 13  1  1  0  0  0
  2  1  1  0  0  0  0
  3  2  1  0  0  0  0
  3  4  1  0  0  0  0
  4  8  1  0  0  0  0
  4  5  2  0  0  0  0
  5 16  1  0  0  0  0
  5  6  1  0  0  0  0
  6 17  1  0  0  0  0
  7 18  1  0  0  0  0
  7  6  1  0  0  0  0
  8  7  2  0  0  0  0
  9  2  1  0  0  0  0
 10  9  2  0  0  0  0
 14  3  1  0  0  0  0
 15  3  1  0  0  0  0
 19  9  1  0  0  0  0
 19 30  1  0  0  0  0
 20 31  1  1  0  0  0
 20 19  1  0  0  0  0
 21 22  1  0  0  0  0
 21 20  1  0  0  0  0
 22 23  1  0  0  0  0
 23 34  1  0  0  0  0
 23 24  2  0  0  0  0
 24 35  1  0  0  0  0
 25 24  1  0  0  0  0
 25 36  1  0  0  0  0
 26 25  2  0  0  0  0
 27 22  2  0  0  0  0
 27 26  1  0  0  0  0
 28 39  1  0  0  0  0
 28 20  1  0  0  0  0
 29 28  2  0  0  0  0
 32 21  1  0  0  0  0
 33 21  1  0  0  0  0
 37 26  1  0  0  0  0
 38 27  1  0  0  0  0
 39 49  1  0  0  0  0
 40 41  1  0  0  0  0
 40 50  1  1  0  0  0
 40 39  1  0  0  0  0
 41 52  1  0  0  0  0
 42 53  1  0  0  0  0
 42 54  1  0  0  0  0
 42 41  1  0  0  0  0
 43 42  1  0  0  0  0
 44 43  2  0  0  0  0
 45 40  1  0  0  0  0
 46 45  2  0  0  0  0
 47 43  1  0  0  0  0
 48 45  1  0  0  0  0
 51 41  1  0  0  0  0
 55 47  1  0  0  0  0
M  END
$$$$
