HFG.pdb
 OpenBabel07022418383D

 46 47  0  0  1  0  0  0  0  0999 V2000
    1.8840   -2.7470    0.9260 N   0  0  0  0  0  0  0  0  0  0  0  0
    1.6250   -1.7130   -0.0840 C   0  0  1  0  0  0  0  0  0  0  0  0
    0.9140   -2.3010   -1.2610 C   0  0  0  0  0  0  0  0  0  0  0  0
    0.6970   -1.2830   -2.3100 C   0  0  0  0  0  0  0  0  0  0  0  0
    0.0340   -1.5000   -3.5370 C   0  0  0  0  0  0  0  0  0  0  0  0
    0.0210   -0.3600   -4.2410 N   0  0  0  0  0  0  0  0  0  0  0  0
    0.6420    0.5730   -3.5260 C   0  0  0  0  0  0  0  0  0  0  0  0
    1.0410    0.0050   -2.3730 N   0  0  0  0  0  0  0  0  0  0  0  0
    0.6870   -0.7380    0.5770 C   0  0  0  0  0  0  0  0  0  0  0  0
    0.3090    0.3220    0.0240 O   0  0  0  0  0  0  0  0  0  0  0  0
    1.8910   -3.6910    0.5230 H   0  0  0  0  0  0  0  0  0  0  0  0
    2.8240   -2.5310    1.3170 H   0  0  0  0  0  0  0  0  0  0  0  0
    2.5540   -1.2370   -0.4230 H   0  0  0  0  0  0  0  0  0  0  0  0
   -0.0870   -2.6600   -0.8780 H   0  0  0  0  0  0  0  0  0  0  0  0
    1.4450   -3.1850   -1.6840 H   0  0  0  0  0  0  0  0  0  0  0  0
   -0.3790   -2.4720   -3.8050 H   0  0  0  0  0  0  0  0  0  0  0  0
   -0.4020   -0.2290   -5.1850 H   0  0  0  0  0  0  0  0  0  0  0  0
    0.8170    1.6070   -3.7830 H   0  0  0  0  0  0  0  0  0  0  0  0
    0.1910   -0.9920    1.8770 N   0  0  0  0  0  0  0  0  0  0  0  0
   -0.7050   -0.1160    2.5730 C   0  0  1  0  0  0  0  0  0  0  0  0
   -0.0680    1.2180    2.7920 C   0  0  0  0  0  0  0  0  0  0  0  0
    1.1720    1.0640    3.6100 C   0  0  0  0  0  0  0  0  0  0  0  0
    2.4220    0.8960    3.0700 C   0  0  0  0  0  0  0  0  0  0  0  0
    3.5700    0.7470    3.8560 C   0  0  0  0  0  0  0  0  0  0  0  0
    3.4560    0.7680    5.2260 C   0  0  0  0  0  0  0  0  0  0  0  0
    2.2130    0.9360    5.7960 C   0  0  0  0  0  0  0  0  0  0  0  0
    1.0960    1.0800    5.0100 C   0  0  0  0  0  0  0  0  0  0  0  0
   -2.0080    0.0210    1.8720 C   0  0  0  0  0  0  0  0  0  0  0  0
   -2.8750    0.8450    2.3180 O   0  0  0  0  0  0  0  0  0  0  0  0
    0.4950   -1.8680    2.3560 H   0  0  0  0  0  0  0  0  0  0  0  0
   -0.9580   -0.5690    3.5960 H   0  0  0  0  0  0  0  0  0  0  0  0
   -0.7410    1.9250    3.3390 H   0  0  0  0  0  0  0  0  0  0  0  0
    0.1820    1.6960    1.8480 H   0  0  0  0  0  0  0  0  0  0  0  0
    2.5550    0.8800    2.0100 H   0  0  0  0  0  0  0  0  0  0  0  0
    4.5360    0.6170    3.3930 H   0  0  0  0  0  0  0  0  0  0  0  0
    4.3550    0.6510    5.8190 H   0  0  0  0  0  0  0  0  0  0  0  0
    2.1510    0.9480    6.8760 H   0  0  0  0  0  0  0  0  0  0  0  0
    0.1220    1.2120    5.4610 H   0  0  0  0  0  0  0  0  0  0  0  0
   -2.3760   -0.7060    0.7230 N   0  0  0  0  0  0  0  0  0  0  0  0
   -3.6850   -0.4980    0.0990 C   0  0  0  0  0  0  0  0  0  0  0  0
   -3.8310   -1.3710   -1.0830 C   0  0  0  0  0  0  0  0  0  0  0  0
   -2.8820   -2.1400   -1.3960 O   0  0  0  0  0  0  0  0  0  0  0  0
   -5.0090   -1.3230   -1.8160 O   0  0  0  0  0  0  0  0  0  0  0  0
   -1.7390   -1.3960    0.3120 H   0  0  0  0  0  0  0  0  0  0  0  0
   -4.4680   -0.7370    0.8560 H   0  0  0  0  0  0  0  0  0  0  0  0
   -3.7910    0.5670   -0.2320 H   0  0  0  0  0  0  0  0  0  0  0  0
  1 12  1  0  0  0  0
  2 13  1  6  0  0  0
  2  9  1  0  0  0  0
  2  1  1  0  0  0  0
  3 14  1  0  0  0  0
  3  2  1  0  0  0  0
  4  3  1  0  0  0  0
  5  4  2  0  0  0  0
  6  5  1  0  0  0  0
  6  7  1  0  0  0  0
  7  8  2  0  0  0  0
  8  4  1  0  0  0  0
  9 19  1  0  0  0  0
 10  9  2  0  0  0  0
 11  1  1  0  0  0  0
 15  3  1  0  0  0  0
 16  5  1  0  0  0  0
 17  6  1  0  0  0  0
 18  7  1  0  0  0  0
 19 30  1  0  0  0  0
 19 20  1  0  0  0  0
 20 21  1  0  0  0  0
 20 31  1  1  0  0  0
 21 32  1  0  0  0  0
 21 22  1  0  0  0  0
 22 27  1  0  0  0  0
 23 22  2  0  0  0  0
 23 24  1  0  0  0  0
 24 25  2  0  0  0  0
 25 26  1  0  0  0  0
 25 36  1  0  0  0  0
 26 37  1  0  0  0  0
 27 38  1  0  0  0  0
 27 26  2  0  0  0  0
 28 29  2  0  0  0  0
 28 20  1  0  0  0  0
 33 21  1  0  0  0  0
 34 23  1  0  0  0  0
 35 24  1  0  0  0  0
 39 28  1  0  0  0  0
 40 39  1  0  0  0  0
 40 45  1  0  0  0  0
 41 40  1  0  0  0  0
 42 41  1  0  0  0  0
 43 41  2  0  0  0  0
 44 39  1  0  0  0  0
 46 40  1  0  0  0  0
M  END
$$$$
