HFI.pdb
 OpenBabel07022418383D

 58 59  0  0  1  0  0  0  0  0999 V2000
    4.0590    0.8370    2.5620 N   0  0  0  0  0  0  0  0  0  0  0  0
    3.2480    0.3620    1.4580 C   0  0  1  0  0  0  0  0  0  0  0  0
    2.9830   -1.1130    1.6340 C   0  0  0  0  0  0  0  0  0  0  0  0
    4.2000   -1.9160    1.6690 C   0  0  0  0  0  0  0  0  0  0  0  0
    5.4990   -1.4900    1.5610 C   0  0  0  0  0  0  0  0  0  0  0  0
    6.3110   -2.5850    1.6470 N   0  0  0  0  0  0  0  0  0  0  0  0
    5.5080   -3.6480    1.8040 C   0  0  0  0  0  0  0  0  0  0  0  0
    4.2430   -3.2450    1.8170 N   0  0  0  0  0  0  0  0  0  0  0  0
    1.9350    1.0530    1.4020 C   0  0  0  0  0  0  0  0  0  0  0  0
    1.6170    1.9310    2.2420 O   0  0  0  0  0  0  0  0  0  0  0  0
    4.8120    1.4870    2.2430 H   0  0  0  0  0  0  0  0  0  0  0  0
    3.4860    1.2380    3.3350 H   0  0  0  0  0  0  0  0  0  0  0  0
    3.7830    0.5760    0.5200 H   0  0  0  0  0  0  0  0  0  0  0  0
    2.3780   -1.4070    0.7250 H   0  0  0  0  0  0  0  0  0  0  0  0
    2.3330   -1.2690    2.5000 H   0  0  0  0  0  0  0  0  0  0  0  0
    5.8850   -0.4980    1.4320 H   0  0  0  0  0  0  0  0  0  0  0  0
    7.3380   -2.6160    1.6030 H   0  0  0  0  0  0  0  0  0  0  0  0
    5.8010   -4.6980    1.9100 H   0  0  0  0  0  0  0  0  0  0  0  0
    1.0350    0.7150    0.3900 N   0  0  0  0  0  0  0  0  0  0  0  0
   -0.2780    1.3110    0.2170 C   0  0  1  0  0  0  0  0  0  0  0  0
   -0.3840    1.9420   -1.1380 C   0  0  0  0  0  0  0  0  0  0  0  0
   -1.6320    2.5790   -1.4650 C   0  0  0  0  0  0  0  0  0  0  0  0
   -2.6350    1.8580   -2.0790 C   0  0  0  0  0  0  0  0  0  0  0  0
   -3.8480    2.4470   -2.4050 C   0  0  0  0  0  0  0  0  0  0  0  0
   -4.0730    3.7660   -2.1210 C   0  0  0  0  0  0  0  0  0  0  0  0
   -3.0720    4.5130   -1.5000 C   0  0  0  0  0  0  0  0  0  0  0  0
   -1.8800    3.8940   -1.1910 C   0  0  0  0  0  0  0  0  0  0  0  0
   -1.3140    0.2710    0.4570 C   0  0  0  0  0  0  0  0  0  0  0  0
   -2.5540    0.5580    0.3960 O   0  0  0  0  0  0  0  0  0  0  0  0
    1.3060   -0.0160   -0.3040 H   0  0  0  0  0  0  0  0  0  0  0  0
   -0.3760    2.0460    1.0450 H   0  0  0  0  0  0  0  0  0  0  0  0
   -0.2160    1.1100   -1.8820 H   0  0  0  0  0  0  0  0  0  0  0  0
    0.4360    2.6950   -1.2080 H   0  0  0  0  0  0  0  0  0  0  0  0
   -2.5220    0.8270   -2.3290 H   0  0  0  0  0  0  0  0  0  0  0  0
   -4.6150    1.8650   -2.8830 H   0  0  0  0  0  0  0  0  0  0  0  0
   -5.0120    4.2360   -2.3690 H   0  0  0  0  0  0  0  0  0  0  0  0
   -3.2880    5.5500   -1.2930 H   0  0  0  0  0  0  0  0  0  0  0  0
   -1.1090    4.4630   -0.7160 H   0  0  0  0  0  0  0  0  0  0  0  0
   -2.7350   -5.3370    0.9370 C   0  0  0  0  0  0  0  0  0  0  0  0
   -2.9960   -4.2360   -0.0230 C   0  0  0  0  0  0  0  0  0  0  0  0
   -2.0230   -3.1210   -0.0690 C   0  0  2  0  0  0  0  0  0  0  0  0
   -0.6280   -3.6420   -0.3970 C   0  0  0  0  0  0  0  0  0  0  0  0
   -2.0610   -2.0890    0.9960 C   0  0  2  0  0  0  0  0  0  0  0  0
   -1.0140   -1.0770    0.7630 N   0  0  0  0  0  0  0  0  0  0  0  0
   -1.8830   -2.5330    2.3810 C   0  0  0  0  0  0  0  0  0  0  0  0
   -2.6460   -3.3170    3.0000 O   0  0  0  0  0  0  0  0  0  0  0  0
   -0.7880   -2.0970    3.1710 O   0  0  0  0  0  0  0  0  0  0  0  0
   -3.5760   -5.4290    1.6500 H   0  0  0  0  0  0  0  0  0  0  0  0
   -1.7420   -5.2990    1.4470 H   0  0  0  0  0  0  0  0  0  0  0  0
   -2.7520   -6.3290    0.3650 H   0  0  0  0  0  0  0  0  0  0  0  0
   -4.0420   -3.8770    0.1450 H   0  0  0  0  0  0  0  0  0  0  0  0
   -3.0640   -4.6930   -1.0640 H   0  0  0  0  0  0  0  0  0  0  0  0
   -2.2920   -2.5790   -1.0750 H   0  0  0  0  0  0  0  0  0  0  0  0
   -0.7570   -4.2410   -1.3390 H   0  0  0  0  0  0  0  0  0  0  0  0
    0.0290   -2.7940   -0.6490 H   0  0  0  0  0  0  0  0  0  0  0  0
   -0.2420   -4.2820    0.4180 H   0  0  0  0  0  0  0  0  0  0  0  0
   -3.0700   -1.6000    0.9330 H   0  0  0  0  0  0  0  0  0  0  0  0
   -0.0140   -1.3540    0.8230 H   0  0  0  0  0  0  0  0  0  0  0  0
  1 12  1  0  0  0  0
  2 13  1  6  0  0  0
  2  3  1  0  0  0  0
  2  1  1  0  0  0  0
  3  4  1  0  0  0  0
  3 15  1  0  0  0  0
  4  8  1  0  0  0  0
  5  6  1  0  0  0  0
  5  4  2  0  0  0  0
  6  7  1  0  0  0  0
  7  8  2  0  0  0  0
  7 18  1  0  0  0  0
  9  2  1  0  0  0  0
  9 10  2  0  0  0  0
 11  1  1  0  0  0  0
 14  3  1  0  0  0  0
 16  5  1  0  0  0  0
 17  6  1  0  0  0  0
 19  9  1  0  0  0  0
 20 19  1  0  0  0  0
 20 28  1  0  0  0  0
 20 31  1  1  0  0  0
 21 20  1  0  0  0  0
 22 27  1  0  0  0  0
 22 21  1  0  0  0  0
 23 22  2  0  0  0  0
 24 25  2  0  0  0  0
 24 23  1  0  0  0  0
 25 26  1  0  0  0  0
 26 37  1  0  0  0  0
 26 27  2  0  0  0  0
 27 38  1  0  0  0  0
 28 44  1  0  0  0  0
 29 28  2  0  0  0  0
 30 19  1  0  0  0  0
 32 21  1  0  0  0  0
 33 21  1  0  0  0  0
 34 23  1  0  0  0  0
 35 24  1  0  0  0  0
 36 25  1  0  0  0  0
 39 49  1  0  0  0  0
 39 48  1  0  0  0  0
 40 51  1  0  0  0  0
 40 39  1  0  0  0  0
 41 53  1  6  0  0  0
 41 40  1  0  0  0  0
 41 43  1  0  0  0  0
 42 41  1  0  0  0  0
 42 56  1  0  0  0  0
 43 57  1  6  0  0  0
 43 45  1  0  0  0  0
 44 58  1  0  0  0  0
 44 43  1  0  0  0  0
 45 46  2  0  0  0  0
 45 47  1  0  0  0  0
 50 39  1  0  0  0  0
 52 40  1  0  0  0  0
 54 42  1  0  0  0  0
 55 42  1  0  0  0  0
M  END
$$$$
