HFK.pdb
 OpenBabel07022418383D

 60 61  0  0  1  0  0  0  0  0999 V2000
   -2.9560   -0.0040    3.2010 N   0  0  0  0  0  0  0  0  0  0  0  0
   -1.5210   -0.2490    3.2230 C   0  0  1  0  0  0  0  0  0  0  0  0
   -1.3420   -1.7140    3.4750 C   0  0  0  0  0  0  0  0  0  0  0  0
    0.0800   -2.0840    3.5300 C   0  0  0  0  0  0  0  0  0  0  0  0
    0.8710   -2.0890    4.6640 C   0  0  0  0  0  0  0  0  0  0  0  0
    2.0980   -2.4830    4.2980 N   0  0  0  0  0  0  0  0  0  0  0  0
    2.0860   -2.7160    2.9950 C   0  0  0  0  0  0  0  0  0  0  0  0
    0.8570   -2.4750    2.5180 N   0  0  0  0  0  0  0  0  0  0  0  0
   -0.9190    0.0780    1.8930 C   0  0  0  0  0  0  0  0  0  0  0  0
    0.3060   -0.0460    1.6670 O   0  0  0  0  0  0  0  0  0  0  0  0
   -3.2960    0.4940    4.0310 H   0  0  0  0  0  0  0  0  0  0  0  0
   -3.4890   -0.8670    2.9570 H   0  0  0  0  0  0  0  0  0  0  0  0
   -1.0670    0.3950    3.9690 H   0  0  0  0  0  0  0  0  0  0  0  0
   -1.8100   -2.0260    4.4500 H   0  0  0  0  0  0  0  0  0  0  0  0
   -1.8900   -2.3360    2.7120 H   0  0  0  0  0  0  0  0  0  0  0  0
    0.4960   -1.8100    5.6520 H   0  0  0  0  0  0  0  0  0  0  0  0
    2.9240   -2.5840    4.9530 H   0  0  0  0  0  0  0  0  0  0  0  0
    2.9440   -3.0460    2.4330 H   0  0  0  0  0  0  0  0  0  0  0  0
   -1.7180    0.5490    0.8140 N   0  0  0  0  0  0  0  0  0  0  0  0
   -1.2020    0.8820   -0.4780 C   0  0  1  0  0  0  0  0  0  0  0  0
   -0.1720    1.9910   -0.4050 C   0  0  0  0  0  0  0  0  0  0  0  0
   -0.7540    3.2300    0.1660 C   0  0  0  0  0  0  0  0  0  0  0  0
   -0.7120    3.5180    1.5080 C   0  0  0  0  0  0  0  0  0  0  0  0
   -1.2740    4.6940    2.0180 C   0  0  0  0  0  0  0  0  0  0  0  0
   -1.8930    5.6090    1.1930 C   0  0  0  0  0  0  0  0  0  0  0  0
   -1.9320    5.3140   -0.1520 C   0  0  0  0  0  0  0  0  0  0  0  0
   -1.3790    4.1580   -0.6580 C   0  0  0  0  0  0  0  0  0  0  0  0
   -0.7340   -0.2560   -1.2750 C   0  0  0  0  0  0  0  0  0  0  0  0
   -0.2690   -0.0080   -2.4250 O   0  0  0  0  0  0  0  0  0  0  0  0
   -2.7550    0.6530    0.9980 H   0  0  0  0  0  0  0  0  0  0  0  0
   -2.0730    1.3610   -1.0450 H   0  0  0  0  0  0  0  0  0  0  0  0
    0.6780    1.6900    0.2320 H   0  0  0  0  0  0  0  0  0  0  0  0
    0.2650    2.1920   -1.4090 H   0  0  0  0  0  0  0  0  0  0  0  0
   -0.2380    2.8430    2.1930 H   0  0  0  0  0  0  0  0  0  0  0  0
   -1.2430    4.9250    3.0740 H   0  0  0  0  0  0  0  0  0  0  0  0
   -2.3270    6.5170    1.5890 H   0  0  0  0  0  0  0  0  0  0  0  0
   -2.4270    6.0490   -0.7960 H   0  0  0  0  0  0  0  0  0  0  0  0
   -1.4150    3.9370   -1.7050 H   0  0  0  0  0  0  0  0  0  0  0  0
   -0.7670   -1.5850   -0.8530 N   0  0  0  0  0  0  0  0  0  0  0  0
   -0.2950   -2.7140   -1.6660 C   0  0  1  0  0  0  0  0  0  0  0  0
    0.8160   -3.3590   -0.8700 C   0  0  0  0  0  0  0  0  0  0  0  0
    1.4330   -4.5520   -1.5650 C   0  0  0  0  0  0  0  0  0  0  0  0
    2.0190   -4.1870   -2.9060 C   0  0  0  0  0  0  0  0  0  0  0  0
    3.1000   -3.1520   -2.8140 C   0  0  0  0  0  0  0  0  0  0  0  0
    4.2150   -3.5810   -2.0000 N   0  0  0  0  0  0  0  0  0  0  0  0
   -1.4300   -3.6500   -1.7950 C   0  0  0  0  0  0  0  0  0  0  0  0
   -1.3290   -4.7070   -2.4590 O   0  0  0  0  0  0  0  0  0  0  0  0
   -2.6430   -3.3820   -1.1840 O   0  0  0  0  0  0  0  0  0  0  0  0
   -1.1420   -1.8220    0.0880 H   0  0  0  0  0  0  0  0  0  0  0  0
    0.0720   -2.3530   -2.6480 H   0  0  0  0  0  0  0  0  0  0  0  0
    0.3820   -3.7690    0.0900 H   0  0  0  0  0  0  0  0  0  0  0  0
    1.5900   -2.6460   -0.5570 H   0  0  0  0  0  0  0  0  0  0  0  0
    2.3050   -4.9460   -0.9610 H   0  0  0  0  0  0  0  0  0  0  0  0
    0.7350   -5.3880   -1.6930 H   0  0  0  0  0  0  0  0  0  0  0  0
    1.2510   -3.8280   -3.6020 H   0  0  0  0  0  0  0  0  0  0  0  0
    2.4490   -5.1290   -3.3250 H   0  0  0  0  0  0  0  0  0  0  0  0
    3.4930   -2.9680   -3.8310 H   0  0  0  0  0  0  0  0  0  0  0  0
    2.7350   -2.1950   -2.4140 H   0  0  0  0  0  0  0  0  0  0  0  0
    3.9840   -3.6150   -0.9830 H   0  0  0  0  0  0  0  0  0  0  0  0
    4.6620   -4.4530   -2.3610 H   0  0  0  0  0  0  0  0  0  0  0  0
  1  2  1  0  0  0  0
  1 11  1  0  0  0  0
  2  3  1  0  0  0  0
  2 13  1  1  0  0  0
  3  4  1  0  0  0  0
  3 14  1  0  0  0  0
  4  5  2  0  0  0  0
  5 16  1  0  0  0  0
  6  5  1  0  0  0  0
  6 17  1  0  0  0  0
  7  6  1  0  0  0  0
  8  7  2  0  0  0  0
  8  4  1  0  0  0  0
  9  2  1  0  0  0  0
 10  9  2  0  0  0  0
 12  1  1  0  0  0  0
 15  3  1  0  0  0  0
 18  7  1  0  0  0  0
 19 30  1  0  0  0  0
 19  9  1  0  0  0  0
 20 31  1  6  0  0  0
 20 21  1  0  0  0  0
 20 19  1  0  0  0  0
 21 22  1  0  0  0  0
 21 32  1  0  0  0  0
 22 23  1  0  0  0  0
 23 24  2  0  0  0  0
 23 34  1  0  0  0  0
 24 35  1  0  0  0  0
 25 36  1  0  0  0  0
 25 24  1  0  0  0  0
 26 25  2  0  0  0  0
 27 26  1  0  0  0  0
 27 22  2  0  0  0  0
 28 39  1  0  0  0  0
 28 20  1  0  0  0  0
 29 28  2  0  0  0  0
 33 21  1  0  0  0  0
 37 26  1  0  0  0  0
 38 27  1  0  0  0  0
 39 49  1  0  0  0  0
 40 50  1  6  0  0  0
 40 41  1  0  0  0  0
 40 39  1  0  0  0  0
 41 52  1  0  0  0  0
 41 51  1  0  0  0  0
 42 53  1  0  0  0  0
 42 41  1  0  0  0  0
 43 44  1  0  0  0  0
 43 42  1  0  0  0  0
 44 58  1  0  0  0  0
 44 45  1  0  0  0  0
 45 59  1  0  0  0  0
 46 40  1  0  0  0  0
 46 48  1  0  0  0  0
 47 46  2  0  0  0  0
 54 42  1  0  0  0  0
 55 43  1  0  0  0  0
 56 43  1  0  0  0  0
 57 44  1  0  0  0  0
 60 45  1  0  0  0  0
M  END
$$$$
