HFL.pdb
 OpenBabel07022418383D

 58 59  0  0  1  0  0  0  0  0999 V2000
    2.1760    2.5790    2.1460 N   0  0  0  0  0  0  0  0  0  0  0  0
    3.1520    2.0470    1.1810 C   0  0  1  0  0  0  0  0  0  0  0  0
    4.3920    1.6870    1.9350 C   0  0  0  0  0  0  0  0  0  0  0  0
    4.1220    0.6610    2.9730 C   0  0  0  0  0  0  0  0  0  0  0  0
    3.7590    0.8880    4.2840 C   0  0  0  0  0  0  0  0  0  0  0  0
    3.6030   -0.2910    4.9210 N   0  0  0  0  0  0  0  0  0  0  0  0
    3.8660   -1.2750    4.0220 C   0  0  0  0  0  0  0  0  0  0  0  0
    4.1780   -0.6890    2.8490 N   0  0  0  0  0  0  0  0  0  0  0  0
    2.4930    0.8840    0.5310 C   0  0  0  0  0  0  0  0  0  0  0  0
    3.1040    0.1920   -0.3440 O   0  0  0  0  0  0  0  0  0  0  0  0
    1.9560    1.8790    2.8730 H   0  0  0  0  0  0  0  0  0  0  0  0
    1.3290    2.9540    1.6680 H   0  0  0  0  0  0  0  0  0  0  0  0
    3.3570    2.7980    0.3960 H   0  0  0  0  0  0  0  0  0  0  0  0
    4.7210    2.6020    2.4810 H   0  0  0  0  0  0  0  0  0  0  0  0
    5.2270    1.3720    1.2990 H   0  0  0  0  0  0  0  0  0  0  0  0
    3.6270    1.8870    4.7070 H   0  0  0  0  0  0  0  0  0  0  0  0
    3.3290   -0.4160    5.9280 H   0  0  0  0  0  0  0  0  0  0  0  0
    3.8110   -2.3230    4.2840 H   0  0  0  0  0  0  0  0  0  0  0  0
    1.1660    0.4660    0.8280 N   0  0  0  0  0  0  0  0  0  0  0  0
    0.5060   -0.6640    0.2050 C   0  0  1  0  0  0  0  0  0  0  0  0
    0.2070   -1.7480    1.1840 C   0  0  0  0  0  0  0  0  0  0  0  0
   -0.6470   -1.4000    2.2990 C   0  0  0  0  0  0  0  0  0  0  0  0
   -2.0060   -1.4860    2.3740 C   0  0  0  0  0  0  0  0  0  0  0  0
   -2.7370   -1.1290    3.4810 C   0  0  0  0  0  0  0  0  0  0  0  0
   -2.0870   -0.6510    4.6020 C   0  0  0  0  0  0  0  0  0  0  0  0
   -0.7130   -0.5500    4.5650 C   0  0  0  0  0  0  0  0  0  0  0  0
   -0.0120   -0.9120    3.4510 C   0  0  0  0  0  0  0  0  0  0  0  0
   -0.6020   -0.2670   -0.6720 C   0  0  0  0  0  0  0  0  0  0  0  0
   -0.9580    0.9290   -0.8200 O   0  0  0  0  0  0  0  0  0  0  0  0
    0.6630    1.0310    1.5440 H   0  0  0  0  0  0  0  0  0  0  0  0
    1.2860   -1.0910   -0.5000 H   0  0  0  0  0  0  0  0  0  0  0  0
    1.1740   -2.1370    1.5630 H   0  0  0  0  0  0  0  0  0  0  0  0
   -0.2600   -2.6030    0.6350 H   0  0  0  0  0  0  0  0  0  0  0  0
   -2.5270   -1.8500    1.5280 H   0  0  0  0  0  0  0  0  0  0  0  0
   -3.8100   -1.2090    3.5070 H   0  0  0  0  0  0  0  0  0  0  0  0
   -2.6700   -0.3730    5.4690 H   0  0  0  0  0  0  0  0  0  0  0  0
   -0.2300   -0.1720    5.4590 H   0  0  0  0  0  0  0  0  0  0  0  0
    1.0590   -0.8100    3.4820 H   0  0  0  0  0  0  0  0  0  0  0  0
   -0.6040   -2.9210   -3.7810 C   0  0  0  0  0  0  0  0  0  0  0  0
   -1.8260   -2.2310   -4.2970 C   0  0  0  0  0  0  0  0  0  0  0  0
   -3.0270   -3.1770   -4.3110 C   0  0  0  0  0  0  0  0  0  0  0  0
   -2.1420   -0.9120   -3.7220 C   0  0  0  0  0  0  0  0  0  0  0  0
   -2.4010   -0.8260   -2.2550 C   0  0  2  0  0  0  0  0  0  0  0  0
   -1.3290   -1.2410   -1.4040 N   0  0  0  0  0  0  0  0  0  0  0  0
   -3.6350   -1.5520   -1.8610 C   0  0  0  0  0  0  0  0  0  0  0  0
   -4.7250   -1.3240   -2.4800 O   0  0  0  0  0  0  0  0  0  0  0  0
   -3.7100   -2.4870   -0.8450 O   0  0  0  0  0  0  0  0  0  0  0  0
   -0.0340   -3.4350   -4.6200 H   0  0  0  0  0  0  0  0  0  0  0  0
   -0.9050   -3.7700   -3.1300 H   0  0  0  0  0  0  0  0  0  0  0  0
    0.1380   -2.2400   -3.3410 H   0  0  0  0  0  0  0  0  0  0  0  0
   -1.6280   -2.0510   -5.3990 H   0  0  0  0  0  0  0  0  0  0  0  0
   -2.7960   -4.0470   -4.9800 H   0  0  0  0  0  0  0  0  0  0  0  0
   -3.9190   -2.7010   -4.7190 H   0  0  0  0  0  0  0  0  0  0  0  0
   -3.1590   -3.6160   -3.3000 H   0  0  0  0  0  0  0  0  0  0  0  0
   -1.3230   -0.2080   -3.9690 H   0  0  0  0  0  0  0  0  0  0  0  0
   -3.0440   -0.5180   -4.2360 H   0  0  0  0  0  0  0  0  0  0  0  0
   -2.6460    0.2770   -2.0880 H   0  0  0  0  0  0  0  0  0  0  0  0
   -1.0990   -2.2520   -1.3230 H   0  0  0  0  0  0  0  0  0  0  0  0
  1 11  1  0  0  0  0
  2 13  1  6  0  0  0
  2  3  1  0  0  0  0
  2  1  1  0  0  0  0
  3 14  1  0  0  0  0
  3  4  1  0  0  0  0
  4  5  2  0  0  0  0
  5 16  1  0  0  0  0
  5  6  1  0  0  0  0
  6 17  1  0  0  0  0
  7 18  1  0  0  0  0
  7  6  1  0  0  0  0
  8  4  1  0  0  0  0
  8  7  2  0  0  0  0
  9 19  1  0  0  0  0
  9  2  1  0  0  0  0
 10  9  2  0  0  0  0
 12  1  1  0  0  0  0
 15  3  1  0  0  0  0
 19 30  1  0  0  0  0
 20 31  1  6  0  0  0
 20 19  1  0  0  0  0
 20 21  1  0  0  0  0
 21 32  1  0  0  0  0
 21 22  1  0  0  0  0
 22 23  2  0  0  0  0
 22 27  1  0  0  0  0
 23 24  1  0  0  0  0
 24 35  1  0  0  0  0
 24 25  2  0  0  0  0
 25 36  1  0  0  0  0
 26 25  1  0  0  0  0
 26 37  1  0  0  0  0
 27 38  1  0  0  0  0
 27 26  2  0  0  0  0
 28 20  1  0  0  0  0
 29 28  2  0  0  0  0
 33 21  1  0  0  0  0
 34 23  1  0  0  0  0
 39 50  1  0  0  0  0
 39 49  1  0  0  0  0
 40 39  1  0  0  0  0
 40 42  1  0  0  0  0
 41 40  1  0  0  0  0
 41 54  1  0  0  0  0
 42 43  1  0  0  0  0
 43 57  1  1  0  0  0
 43 45  1  0  0  0  0
 43 44  1  0  0  0  0
 44 58  1  0  0  0  0
 44 28  1  0  0  0  0
 45 47  1  0  0  0  0
 46 45  2  0  0  0  0
 48 39  1  0  0  0  0
 51 40  1  0  0  0  0
 52 41  1  0  0  0  0
 53 41  1  0  0  0  0
 55 42  1  0  0  0  0
 56 42  1  0  0  0  0
M  END
$$$$
