HFP.pdb
 OpenBabel07022418383D

 53 55  0  0  1  0  0  0  0  0999 V2000
   -0.5070   -2.2460    2.9080 N   0  0  0  0  0  0  0  0  0  0  0  0
    0.7730   -1.6130    2.4950 C   0  0  1  0  0  0  0  0  0  0  0  0
    1.7110   -2.7070    2.1520 C   0  0  0  0  0  0  0  0  0  0  0  0
    3.0710   -2.2590    1.8000 C   0  0  0  0  0  0  0  0  0  0  0  0
    3.6270   -1.0210    1.8710 C   0  0  0  0  0  0  0  0  0  0  0  0
    4.9370   -1.1320    1.4910 N   0  0  0  0  0  0  0  0  0  0  0  0
    5.1950   -2.4090    1.1920 C   0  0  0  0  0  0  0  0  0  0  0  0
    4.0700   -3.0760    1.3810 N   0  0  0  0  0  0  0  0  0  0  0  0
    0.4140   -0.7720    1.2800 C   0  0  0  0  0  0  0  0  0  0  0  0
    1.2580   -0.3780    0.4660 O   0  0  0  0  0  0  0  0  0  0  0  0
   -0.5210   -3.2500    2.6370 H   0  0  0  0  0  0  0  0  0  0  0  0
   -0.6550   -2.1080    3.9400 H   0  0  0  0  0  0  0  0  0  0  0  0
    1.0990   -0.9840    3.3310 H   0  0  0  0  0  0  0  0  0  0  0  0
    1.2560   -3.2950    1.3080 H   0  0  0  0  0  0  0  0  0  0  0  0
    1.7760   -3.4610    2.9880 H   0  0  0  0  0  0  0  0  0  0  0  0
    3.1370   -0.1130    2.1930 H   0  0  0  0  0  0  0  0  0  0  0  0
    5.5710   -0.2910    1.4680 H   0  0  0  0  0  0  0  0  0  0  0  0
    6.1710   -2.7740    0.8600 H   0  0  0  0  0  0  0  0  0  0  0  0
   -0.9480   -0.3990    1.0400 N   0  0  0  0  0  0  0  0  0  0  0  0
   -1.3670    0.3940   -0.0380 C   0  0  1  0  0  0  0  0  0  0  0  0
   -0.5260    1.6560   -0.3000 C   0  0  0  0  0  0  0  0  0  0  0  0
   -0.5520    2.5820    0.8290 C   0  0  0  0  0  0  0  0  0  0  0  0
    0.4180    2.5800    1.7820 C   0  0  0  0  0  0  0  0  0  0  0  0
    0.3370    3.4800    2.8570 C   0  0  0  0  0  0  0  0  0  0  0  0
   -0.7260    4.3490    2.9230 C   0  0  0  0  0  0  0  0  0  0  0  0
   -1.7020    4.3440    1.9540 C   0  0  0  0  0  0  0  0  0  0  0  0
   -1.6050    3.4580    0.9140 C   0  0  0  0  0  0  0  0  0  0  0  0
   -1.7950   -0.2090   -1.2830 C   0  0  0  0  0  0  0  0  0  0  0  0
   -2.1500    0.6200   -2.2240 O   0  0  0  0  0  0  0  0  0  0  0  0
   -1.6290   -0.7790    1.7710 H   0  0  0  0  0  0  0  0  0  0  0  0
   -2.3430    0.9190    0.3660 H   0  0  0  0  0  0  0  0  0  0  0  0
   -1.0780    2.1490   -1.1580 H   0  0  0  0  0  0  0  0  0  0  0  0
    0.4620    1.4320   -0.7090 H   0  0  0  0  0  0  0  0  0  0  0  0
    1.2970    1.9160    1.7760 H   0  0  0  0  0  0  0  0  0  0  0  0
    1.0780    3.5060    3.6210 H   0  0  0  0  0  0  0  0  0  0  0  0
   -0.8200    5.0550    3.7360 H   0  0  0  0  0  0  0  0  0  0  0  0
   -2.5590    5.0330    1.9930 H   0  0  0  0  0  0  0  0  0  0  0  0
   -2.4030    3.4800    0.1540 H   0  0  0  0  0  0  0  0  0  0  0  0
   -1.8730   -1.5800   -1.5880 N   0  0  0  0  0  0  0  0  0  0  0  0
   -2.3450   -2.1060   -2.8990 C   0  0  0  0  0  0  0  0  0  0  0  0
   -2.7310   -3.5150   -2.6430 C   0  0  0  0  0  0  0  0  0  0  0  0
   -2.6960   -3.7000   -1.1640 C   0  0  0  0  0  0  0  0  0  0  0  0
   -1.5500   -2.7390   -0.7880 C   0  0  1  0  0  0  0  0  0  0  0  0
   -0.3140   -3.3830   -1.3270 C   0  0  0  0  0  0  0  0  0  0  0  0
    0.1210   -4.4440   -0.8630 O   0  0  0  0  0  0  0  0  0  0  0  0
    0.3760   -2.7800   -2.3820 O   0  0  0  0  0  0  0  0  0  0  0  0
   -3.2390   -1.4860   -3.1270 H   0  0  0  0  0  0  0  0  0  0  0  0
   -1.5630   -1.9640   -3.6660 H   0  0  0  0  0  0  0  0  0  0  0  0
   -3.7800   -3.6770   -3.0070 H   0  0  0  0  0  0  0  0  0  0  0  0
   -2.0670   -4.2600   -3.1280 H   0  0  0  0  0  0  0  0  0  0  0  0
   -3.6020   -3.3300   -0.6700 H   0  0  0  0  0  0  0  0  0  0  0  0
   -2.4320   -4.7360   -0.9330 H   0  0  0  0  0  0  0  0  0  0  0  0
   -1.5740   -2.6140    0.2810 H   0  0  0  0  0  0  0  0  0  0  0  0
  1 12  1  0  0  0  0
  2  1  1  0  0  0  0
  2 13  1  1  0  0  0
  3  2  1  0  0  0  0
  3 15  1  0  0  0  0
  4  5  2  0  0  0  0
  4  3  1  0  0  0  0
  5 16  1  0  0  0  0
  6  5  1  0  0  0  0
  7  8  2  0  0  0  0
  7  6  1  0  0  0  0
  8  4  1  0  0  0  0
  9  2  1  0  0  0  0
 10  9  2  0  0  0  0
 11  1  1  0  0  0  0
 14  3  1  0  0  0  0
 17  6  1  0  0  0  0
 18  7  1  0  0  0  0
 19  9  1  0  0  0  0
 19 30  1  0  0  0  0
 20 31  1  1  0  0  0
 20 19  1  0  0  0  0
 21 20  1  0  0  0  0
 21 22  1  0  0  0  0
 22 27  2  0  0  0  0
 22 23  1  0  0  0  0
 23 24  2  0  0  0  0
 24 25  1  0  0  0  0
 24 35  1  0  0  0  0
 25 36  1  0  0  0  0
 26 37  1  0  0  0  0
 26 25  2  0  0  0  0
 27 26  1  0  0  0  0
 28 20  1  0  0  0  0
 29 28  2  0  0  0  0
 32 21  1  0  0  0  0
 33 21  1  0  0  0  0
 34 23  1  0  0  0  0
 38 27  1  0  0  0  0
 39 28  1  0  0  0  0
 39 43  1  0  0  0  0
 40 41  1  0  0  0  0
 40 39  1  0  0  0  0
 41 42  1  0  0  0  0
 42 52  1  0  0  0  0
 42 43  1  0  0  0  0
 42 51  1  0  0  0  0
 43 53  1  1  0  0  0
 44 45  1  0  0  0  0
 44 43  1  0  0  0  0
 46 44  2  0  0  0  0
 47 40  1  0  0  0  0
 48 40  1  0  0  0  0
 49 41  1  0  0  0  0
 50 41  1  0  0  0  0
M  END
$$$$
