HFQ.pdb
 OpenBabel07022418383D

 56 57  0  0  1  0  0  0  0  0999 V2000
   -0.3640   -0.5850    3.0930 N   0  0  0  0  0  0  0  0  0  0  0  0
    0.8090   -0.2160    2.3320 C   0  0  1  0  0  0  0  0  0  0  0  0
    1.7810   -1.3710    2.3780 C   0  0  0  0  0  0  0  0  0  0  0  0
    2.1170   -1.6040    3.8100 C   0  0  0  0  0  0  0  0  0  0  0  0
    1.5000   -2.4210    4.7220 C   0  0  0  0  0  0  0  0  0  0  0  0
    2.1460   -2.3130    5.8900 N   0  0  0  0  0  0  0  0  0  0  0  0
    3.1720   -1.4360    5.7390 C   0  0  0  0  0  0  0  0  0  0  0  0
    3.1320   -1.0210    4.4690 N   0  0  0  0  0  0  0  0  0  0  0  0
    0.3970    0.1060    0.9410 C   0  0  0  0  0  0  0  0  0  0  0  0
    1.2660    0.4490    0.1210 O   0  0  0  0  0  0  0  0  0  0  0  0
   -0.2660   -0.3910    4.1100 H   0  0  0  0  0  0  0  0  0  0  0  0
   -0.5140   -1.6120    2.9460 H   0  0  0  0  0  0  0  0  0  0  0  0
    1.2690    0.6550    2.8420 H   0  0  0  0  0  0  0  0  0  0  0  0
    2.7050   -1.1470    1.7850 H   0  0  0  0  0  0  0  0  0  0  0  0
    1.3080   -2.2760    1.9920 H   0  0  0  0  0  0  0  0  0  0  0  0
    0.6470   -3.0410    4.5410 H   0  0  0  0  0  0  0  0  0  0  0  0
    1.9600   -2.7850    6.8100 H   0  0  0  0  0  0  0  0  0  0  0  0
    3.8670   -1.1430    6.4950 H   0  0  0  0  0  0  0  0  0  0  0  0
   -0.9540    0.0330    0.5260 N   0  0  0  0  0  0  0  0  0  0  0  0
   -1.4900    0.3190   -0.7460 C   0  0  1  0  0  0  0  0  0  0  0  0
   -0.9270    1.5870   -1.4190 C   0  0  0  0  0  0  0  0  0  0  0  0
   -1.2530    2.7720   -0.6080 C   0  0  0  0  0  0  0  0  0  0  0  0
   -0.4200    3.3330    0.3110 C   0  0  0  0  0  0  0  0  0  0  0  0
   -0.8430    4.4570    1.0440 C   0  0  0  0  0  0  0  0  0  0  0  0
   -2.0750    5.0360    0.8830 C   0  0  0  0  0  0  0  0  0  0  0  0
   -2.9120    4.4630   -0.0490 C   0  0  0  0  0  0  0  0  0  0  0  0
   -2.5140    3.3640   -0.7740 C   0  0  0  0  0  0  0  0  0  0  0  0
   -1.5640   -0.7420   -1.7280 C   0  0  0  0  0  0  0  0  0  0  0  0
   -2.0530   -0.4480   -2.8730 O   0  0  0  0  0  0  0  0  0  0  0  0
   -1.6230   -0.2850    1.2970 H   0  0  0  0  0  0  0  0  0  0  0  0
   -2.5700    0.7110   -0.5260 H   0  0  0  0  0  0  0  0  0  0  0  0
    0.1490    1.5030   -1.6230 H   0  0  0  0  0  0  0  0  0  0  0  0
   -1.5200    1.6560   -2.3740 H   0  0  0  0  0  0  0  0  0  0  0  0
    0.5790    2.9440    0.4920 H   0  0  0  0  0  0  0  0  0  0  0  0
   -0.1620    4.8820    1.7680 H   0  0  0  0  0  0  0  0  0  0  0  0
   -2.3440    5.8990    1.4770 H   0  0  0  0  0  0  0  0  0  0  0  0
   -3.8860    4.9150   -0.1810 H   0  0  0  0  0  0  0  0  0  0  0  0
   -3.1800    2.9170   -1.5080 H   0  0  0  0  0  0  0  0  0  0  0  0
    2.2760   -3.5500   -0.4000 N   0  0  0  0  0  0  0  0  0  0  0  0
    1.6140   -3.1160   -1.5730 C   0  0  0  0  0  0  0  0  0  0  0  0
    1.4950   -1.8880   -1.8600 O   0  0  0  0  0  0  0  0  0  0  0  0
    1.0270   -4.0640   -2.5380 C   0  0  0  0  0  0  0  0  0  0  0  0
   -0.0620   -3.4760   -3.3570 C   0  0  0  0  0  0  0  0  0  0  0  0
   -1.2830   -3.0730   -2.6260 C   0  0  2  0  0  0  0  0  0  0  0  0
   -1.1550   -2.0970   -1.5790 N   0  0  0  0  0  0  0  0  0  0  0  0
   -2.0600   -4.2430   -2.1090 C   0  0  0  0  0  0  0  0  0  0  0  0
   -2.4800   -4.2520   -0.9280 O   0  0  0  0  0  0  0  0  0  0  0  0
   -2.3380   -5.3410   -2.9040 O   0  0  0  0  0  0  0  0  0  0  0  0
    3.3010   -3.4200   -0.3130 H   0  0  0  0  0  0  0  0  0  0  0  0
    1.7680   -3.9980    0.3860 H   0  0  0  0  0  0  0  0  0  0  0  0
    0.6600   -4.9400   -1.9310 H   0  0  0  0  0  0  0  0  0  0  0  0
    1.8110   -4.5050   -3.1940 H   0  0  0  0  0  0  0  0  0  0  0  0
   -0.4010   -4.1860   -4.1720 H   0  0  0  0  0  0  0  0  0  0  0  0
    0.3060   -2.5870   -3.9330 H   0  0  0  0  0  0  0  0  0  0  0  0
   -1.9530   -2.5820   -3.4080 H   0  0  0  0  0  0  0  0  0  0  0  0
   -0.7690   -2.3310   -0.6170 H   0  0  0  0  0  0  0  0  0  0  0  0
  1 11  1  0  0  0  0
  2  3  1  0  0  0  0
  2 13  1  1  0  0  0
  2  1  1  0  0  0  0
  3  4  1  0  0  0  0
  4  8  1  0  0  0  0
  4  5  2  0  0  0  0
  5  6  1  0  0  0  0
  6 17  1  0  0  0  0
  7  6  1  0  0  0  0
  7 18  1  0  0  0  0
  8  7  2  0  0  0  0
  9  2  1  0  0  0  0
 10  9  2  0  0  0  0
 12  1  1  0  0  0  0
 14  3  1  0  0  0  0
 15  3  1  0  0  0  0
 16  5  1  0  0  0  0
 19  9  1  0  0  0  0
 19 30  1  0  0  0  0
 20 31  1  1  0  0  0
 20 19  1  0  0  0  0
 21 20  1  0  0  0  0
 21 22  1  0  0  0  0
 22 23  1  0  0  0  0
 23 34  1  0  0  0  0
 23 24  2  0  0  0  0
 24 35  1  0  0  0  0
 25 24  1  0  0  0  0
 25 36  1  0  0  0  0
 26 25  2  0  0  0  0
 27 22  2  0  0  0  0
 27 26  1  0  0  0  0
 28 45  1  0  0  0  0
 28 20  1  0  0  0  0
 29 28  2  0  0  0  0
 32 21  1  0  0  0  0
 33 21  1  0  0  0  0
 37 26  1  0  0  0  0
 38 27  1  0  0  0  0
 39 49  1  0  0  0  0
 39 50  1  0  0  0  0
 40 39  1  0  0  0  0
 41 40  2  0  0  0  0
 42 51  1  0  0  0  0
 42 40  1  0  0  0  0
 43 44  1  0  0  0  0
 43 42  1  0  0  0  0
 44 55  1  6  0  0  0
 44 46  1  0  0  0  0
 44 45  1  0  0  0  0
 45 56  1  0  0  0  0
 46 47  1  0  0  0  0
 48 46  2  0  0  0  0
 52 42  1  0  0  0  0
 53 43  1  0  0  0  0
 54 43  1  0  0  0  0
M  END
$$$$
