HFS.pdb
 OpenBabel07022418383D

 50 51  0  0  1  0  0  0  0  0999 V2000
    3.6270   -2.6630   -0.8010 N   0  0  0  0  0  0  0  0  0  0  0  0
    2.6770   -1.6710   -0.3540 C   0  0  1  0  0  0  0  0  0  0  0  0
    1.8330   -1.2740   -1.5230 C   0  0  0  0  0  0  0  0  0  0  0  0
    2.7290   -0.7150   -2.5670 C   0  0  0  0  0  0  0  0  0  0  0  0
    2.3560   -0.2320   -3.8030 C   0  0  0  0  0  0  0  0  0  0  0  0
    3.4650    0.1950   -4.4780 N   0  0  0  0  0  0  0  0  0  0  0  0
    4.5080   -0.0220   -3.6700 C   0  0  0  0  0  0  0  0  0  0  0  0
    4.0860   -0.5670   -2.5210 N   0  0  0  0  0  0  0  0  0  0  0  0
    1.9440   -2.1180    0.8220 C   0  0  0  0  0  0  0  0  0  0  0  0
    2.2080   -3.2640    1.2910 O   0  0  0  0  0  0  0  0  0  0  0  0
    3.5790   -3.5460   -0.2510 H   0  0  0  0  0  0  0  0  0  0  0  0
    3.6200   -2.8170   -1.8270 H   0  0  0  0  0  0  0  0  0  0  0  0
    3.2910   -0.7640   -0.0780 H   0  0  0  0  0  0  0  0  0  0  0  0
    1.3440   -2.1740   -1.9510 H   0  0  0  0  0  0  0  0  0  0  0  0
    1.0280   -0.5600   -1.2720 H   0  0  0  0  0  0  0  0  0  0  0  0
    1.3280   -0.2050   -4.1630 H   0  0  0  0  0  0  0  0  0  0  0  0
    3.4660    0.6090   -5.4420 H   0  0  0  0  0  0  0  0  0  0  0  0
    5.5280    0.2050   -3.9040 H   0  0  0  0  0  0  0  0  0  0  0  0
    0.9460   -1.3860    1.5040 N   0  0  0  0  0  0  0  0  0  0  0  0
    0.2310   -1.8390    2.6620 C   0  0  1  0  0  0  0  0  0  0  0  0
    0.5970   -0.8980    3.8110 C   0  0  0  0  0  0  0  0  0  0  0  0
    0.2120    0.5030    3.4860 C   0  0  0  0  0  0  0  0  0  0  0  0
    1.0580    1.3850    2.8460 C   0  0  0  0  0  0  0  0  0  0  0  0
    0.6970    2.6830    2.5460 C   0  0  0  0  0  0  0  0  0  0  0  0
   -0.5440    3.1480    2.8830 C   0  0  0  0  0  0  0  0  0  0  0  0
   -1.4160    2.2990    3.5220 C   0  0  0  0  0  0  0  0  0  0  0  0
   -1.0500    1.0030    3.8190 C   0  0  0  0  0  0  0  0  0  0  0  0
   -1.2350   -1.8660    2.4710 C   0  0  0  0  0  0  0  0  0  0  0  0
   -1.9350   -2.2510    3.4370 O   0  0  0  0  0  0  0  0  0  0  0  0
    0.7140   -0.4390    1.1340 H   0  0  0  0  0  0  0  0  0  0  0  0
    0.5320   -2.8510    2.9960 H   0  0  0  0  0  0  0  0  0  0  0  0
    0.1320   -1.2370    4.7600 H   0  0  0  0  0  0  0  0  0  0  0  0
    1.6850   -0.9240    3.9330 H   0  0  0  0  0  0  0  0  0  0  0  0
    2.0510    1.0660    2.5590 H   0  0  0  0  0  0  0  0  0  0  0  0
    1.3630    3.3750    2.0430 H   0  0  0  0  0  0  0  0  0  0  0  0
   -0.8750    4.1560    2.6700 H   0  0  0  0  0  0  0  0  0  0  0  0
   -2.4160    2.6590    3.7980 H   0  0  0  0  0  0  0  0  0  0  0  0
   -1.7770    0.3830    4.3210 H   0  0  0  0  0  0  0  0  0  0  0  0
   -5.3050   -0.2320    0.7130 O   0  0  0  0  0  0  0  0  0  0  0  0
   -3.9180   -0.1800    0.8270 C   0  0  0  0  0  0  0  0  0  0  0  0
   -3.3420   -1.5410    1.1600 C   0  0  2  0  0  0  0  0  0  0  0  0
   -1.8980   -1.4890    1.2790 N   0  0  0  0  0  0  0  0  0  0  0  0
   -3.6960   -2.4750    0.0550 C   0  0  0  0  0  0  0  0  0  0  0  0
   -2.8090   -3.0780   -0.6110 O   0  0  0  0  0  0  0  0  0  0  0  0
   -5.0140   -2.7300   -0.2980 O   0  0  0  0  0  0  0  0  0  0  0  0
   -5.6810   -0.8420    1.4020 H   0  0  0  0  0  0  0  0  0  0  0  0
   -3.7030    0.5300    1.6710 H   0  0  0  0  0  0  0  0  0  0  0  0
   -3.5260    0.2280   -0.1100 H   0  0  0  0  0  0  0  0  0  0  0  0
   -3.8200   -1.8990    2.0900 H   0  0  0  0  0  0  0  0  0  0  0  0
   -1.3150   -1.1700    0.4790 H   0  0  0  0  0  0  0  0  0  0  0  0
  1  2  1  0  0  0  0
  1 11  1  0  0  0  0
  2 13  1  1  0  0  0
  2  9  1  0  0  0  0
  3 15  1  0  0  0  0
  3  2  1  0  0  0  0
  4  8  1  0  0  0  0
  4  3  1  0  0  0  0
  5  4  2  0  0  0  0
  6  5  1  0  0  0  0
  6  7  1  0  0  0  0
  7  8  2  0  0  0  0
  9 10  2  0  0  0  0
  9 19  1  0  0  0  0
 12  1  1  0  0  0  0
 14  3  1  0  0  0  0
 16  5  1  0  0  0  0
 17  6  1  0  0  0  0
 18  7  1  0  0  0  0
 19 20  1  0  0  0  0
 20 31  1  1  0  0  0
 20 21  1  0  0  0  0
 21 33  1  0  0  0  0
 21 32  1  0  0  0  0
 22 21  1  0  0  0  0
 22 27  1  0  0  0  0
 23 22  2  0  0  0  0
 24 23  1  0  0  0  0
 24 25  2  0  0  0  0
 25 26  1  0  0  0  0
 26 37  1  0  0  0  0
 26 27  2  0  0  0  0
 27 38  1  0  0  0  0
 28 20  1  0  0  0  0
 28 29  2  0  0  0  0
 30 19  1  0  0  0  0
 34 23  1  0  0  0  0
 35 24  1  0  0  0  0
 36 25  1  0  0  0  0
 39 40  1  0  0  0  0
 39 46  1  0  0  0  0
 40 41  1  0  0  0  0
 40 47  1  0  0  0  0
 41 42  1  0  0  0  0
 41 49  1  1  0  0  0
 42 28  1  0  0  0  0
 43 41  1  0  0  0  0
 44 43  2  0  0  0  0
 45 43  1  0  0  0  0
 48 40  1  0  0  0  0
 50 42  1  0  0  0  0
M  END
$$$$
