HFT.pdb
 OpenBabel07022418383D

 53 54  0  0  1  0  0  0  0  0999 V2000
    0.9560   -0.4470    5.5500 N   0  0  0  0  0  0  0  0  0  0  0  0
    0.0380   -0.5100    4.4200 C   0  0  1  0  0  0  0  0  0  0  0  0
   -0.5770    0.8420    4.1410 C   0  0  0  0  0  0  0  0  0  0  0  0
    0.4680    1.8640    3.8290 C   0  0  0  0  0  0  0  0  0  0  0  0
    1.0040    2.1890    2.6170 C   0  0  0  0  0  0  0  0  0  0  0  0
    1.9070    3.1480    2.7970 N   0  0  0  0  0  0  0  0  0  0  0  0
    1.9390    3.4230    4.1120 C   0  0  0  0  0  0  0  0  0  0  0  0
    1.0590    2.6390    4.7420 N   0  0  0  0  0  0  0  0  0  0  0  0
    0.6320   -1.1230    3.2180 C   0  0  0  0  0  0  0  0  0  0  0  0
    1.8660   -1.4630    3.1680 O   0  0  0  0  0  0  0  0  0  0  0  0
    1.0190    0.5430    5.8630 H   0  0  0  0  0  0  0  0  0  0  0  0
    1.8720   -0.8800    5.3410 H   0  0  0  0  0  0  0  0  0  0  0  0
   -0.7940   -1.1700    4.7440 H   0  0  0  0  0  0  0  0  0  0  0  0
   -1.1040    1.1630    5.0520 H   0  0  0  0  0  0  0  0  0  0  0  0
   -1.2730    0.7500    3.3150 H   0  0  0  0  0  0  0  0  0  0  0  0
    0.7440    1.7440    1.6780 H   0  0  0  0  0  0  0  0  0  0  0  0
    2.5150    3.6350    2.0690 H   0  0  0  0  0  0  0  0  0  0  0  0
    2.6020    4.1850    4.5540 H   0  0  0  0  0  0  0  0  0  0  0  0
   -0.1800   -1.3420    2.0960 N   0  0  0  0  0  0  0  0  0  0  0  0
    0.3130   -1.9410    0.8700 C   0  0  1  0  0  0  0  0  0  0  0  0
   -0.1520   -3.4030    0.8040 C   0  0  0  0  0  0  0  0  0  0  0  0
    0.3060   -4.0730   -0.4120 C   0  0  0  0  0  0  0  0  0  0  0  0
    1.5680   -4.6790   -0.4510 C   0  0  0  0  0  0  0  0  0  0  0  0
    2.0080   -5.3330   -1.5770 C   0  0  0  0  0  0  0  0  0  0  0  0
    1.2440   -5.4300   -2.7210 C   0  0  0  0  0  0  0  0  0  0  0  0
    0.0050   -4.8380   -2.6900 C   0  0  0  0  0  0  0  0  0  0  0  0
   -0.4460   -4.1830   -1.5750 C   0  0  0  0  0  0  0  0  0  0  0  0
   -0.0240   -1.2370   -0.3460 C   0  0  0  0  0  0  0  0  0  0  0  0
    0.4330   -1.6550   -1.4390 O   0  0  0  0  0  0  0  0  0  0  0  0
   -1.1830   -1.0760    2.1080 H   0  0  0  0  0  0  0  0  0  0  0  0
    1.4160   -2.0170    0.9710 H   0  0  0  0  0  0  0  0  0  0  0  0
    0.2700   -3.9320    1.6840 H   0  0  0  0  0  0  0  0  0  0  0  0
   -1.2550   -3.4330    0.9230 H   0  0  0  0  0  0  0  0  0  0  0  0
    2.2060   -4.6330    0.4180 H   0  0  0  0  0  0  0  0  0  0  0  0
    2.9790   -5.7910   -1.5880 H   0  0  0  0  0  0  0  0  0  0  0  0
    1.6150   -5.9540   -3.6050 H   0  0  0  0  0  0  0  0  0  0  0  0
   -0.6140   -4.8970   -3.5670 H   0  0  0  0  0  0  0  0  0  0  0  0
   -1.4340   -3.7210   -1.5780 H   0  0  0  0  0  0  0  0  0  0  0  0
   -2.7270    1.0400   -3.5040 C   0  0  0  0  0  0  0  0  0  0  0  0
   -2.5930    0.4860   -2.0990 C   0  0  1  0  0  0  0  0  0  0  0  0
   -2.8910   -0.8900   -2.2150 O   0  0  0  0  0  0  0  0  0  0  0  0
   -1.1520    0.5660   -1.6900 C   0  0  2  0  0  0  0  0  0  0  0  0
   -0.8500   -0.0770   -0.4570 N   0  0  0  0  0  0  0  0  0  0  0  0
   -0.6700    1.9680   -1.7850 C   0  0  0  0  0  0  0  0  0  0  0  0
   -0.8800    2.6620   -2.8390 O   0  0  0  0  0  0  0  0  0  0  0  0
    0.0200    2.6320   -0.7900 O   0  0  0  0  0  0  0  0  0  0  0  0
   -3.0540    2.0990   -3.5030 H   0  0  0  0  0  0  0  0  0  0  0  0
   -3.5170    0.4520   -4.0520 H   0  0  0  0  0  0  0  0  0  0  0  0
   -1.8060    0.9310   -4.0900 H   0  0  0  0  0  0  0  0  0  0  0  0
   -3.2900    1.0230   -1.4640 H   0  0  0  0  0  0  0  0  0  0  0  0
   -2.5650   -1.2680   -3.0600 H   0  0  0  0  0  0  0  0  0  0  0  0
   -0.5970   -0.0120   -2.4900 H   0  0  0  0  0  0  0  0  0  0  0  0
   -1.2530    0.3180    0.4210 H   0  0  0  0  0  0  0  0  0  0  0  0
  1 11  1  0  0  0  0
  2 13  1  1  0  0  0
  2  1  1  0  0  0  0
  3  2  1  0  0  0  0
  3 14  1  0  0  0  0
  4  3  1  0  0  0  0
  4  8  1  0  0  0  0
  5  6  1  0  0  0  0
  5  4  2  0  0  0  0
  6  7  1  0  0  0  0
  7 18  1  0  0  0  0
  7  8  2  0  0  0  0
  9  2  1  0  0  0  0
 10  9  2  0  0  0  0
 12  1  1  0  0  0  0
 15  3  1  0  0  0  0
 16  5  1  0  0  0  0
 17  6  1  0  0  0  0
 19 30  1  0  0  0  0
 19  9  1  0  0  0  0
 20 31  1  1  0  0  0
 20 19  1  0  0  0  0
 21 20  1  0  0  0  0
 21 33  1  0  0  0  0
 21 32  1  0  0  0  0
 22 21  1  0  0  0  0
 23 22  1  0  0  0  0
 23 34  1  0  0  0  0
 24 23  2  0  0  0  0
 25 26  2  0  0  0  0
 25 24  1  0  0  0  0
 26 27  1  0  0  0  0
 27 22  2  0  0  0  0
 28 20  1  0  0  0  0
 29 28  2  0  0  0  0
 35 24  1  0  0  0  0
 36 25  1  0  0  0  0
 37 26  1  0  0  0  0
 38 27  1  0  0  0  0
 39 47  1  0  0  0  0
 39 40  1  0  0  0  0
 40 42  1  0  0  0  0
 40 50  1  1  0  0  0
 41 40  1  0  0  0  0
 42 52  1  6  0  0  0
 42 43  1  0  0  0  0
 43 28  1  0  0  0  0
 43 53  1  0  0  0  0
 44 42  1  0  0  0  0
 44 46  1  0  0  0  0
 45 44  2  0  0  0  0
 48 39  1  0  0  0  0
 49 39  1  0  0  0  0
 51 41  1  0  0  0  0
M  END
$$$$
