HFV.pdb
 OpenBabel07022418383D

 55 56  0  0  1  0  0  0  0  0999 V2000
    1.7820    2.5460    2.0800 N   0  0  0  0  0  0  0  0  0  0  0  0
    2.7600    1.5460    1.6440 C   0  0  1  0  0  0  0  0  0  0  0  0
    3.5710    1.1670    2.8590 C   0  0  0  0  0  0  0  0  0  0  0  0
    4.6040    0.1500    2.5350 C   0  0  0  0  0  0  0  0  0  0  0  0
    5.9080    0.3840    2.1210 C   0  0  0  0  0  0  0  0  0  0  0  0
    6.5500   -0.7940    1.9210 N   0  0  0  0  0  0  0  0  0  0  0  0
    5.6640   -1.7560    2.2060 C   0  0  0  0  0  0  0  0  0  0  0  0
    4.5000   -1.2050    2.5730 N   0  0  0  0  0  0  0  0  0  0  0  0
    2.0470    0.3500    1.1180 C   0  0  0  0  0  0  0  0  0  0  0  0
    2.6980   -0.6270    0.6840 O   0  0  0  0  0  0  0  0  0  0  0  0
    1.3150    2.1560    2.9220 H   0  0  0  0  0  0  0  0  0  0  0  0
    2.3050    3.4050    2.3510 H   0  0  0  0  0  0  0  0  0  0  0  0
    3.4140    2.0180    0.9050 H   0  0  0  0  0  0  0  0  0  0  0  0
    2.8930    0.7170    3.6140 H   0  0  0  0  0  0  0  0  0  0  0  0
    4.0070    2.0650    3.3310 H   0  0  0  0  0  0  0  0  0  0  0  0
    6.3090    1.3770    1.9910 H   0  0  0  0  0  0  0  0  0  0  0  0
    7.5420   -0.8720    1.6070 H   0  0  0  0  0  0  0  0  0  0  0  0
    5.8440   -2.8110    2.1520 H   0  0  0  0  0  0  0  0  0  0  0  0
    0.6490    0.2900    1.0950 N   0  0  0  0  0  0  0  0  0  0  0  0
   -0.0350   -0.8580    0.5890 C   0  0  1  0  0  0  0  0  0  0  0  0
   -0.8050   -1.5940    1.6550 C   0  0  0  0  0  0  0  0  0  0  0  0
   -1.8220   -0.7810    2.3210 C   0  0  0  0  0  0  0  0  0  0  0  0
   -1.6050   -0.0350    3.4520 C   0  0  0  0  0  0  0  0  0  0  0  0
   -2.6110    0.7080    4.0220 C   0  0  0  0  0  0  0  0  0  0  0  0
   -3.8940    0.7400    3.4830 C   0  0  0  0  0  0  0  0  0  0  0  0
   -4.1100   -0.0080    2.3500 C   0  0  0  0  0  0  0  0  0  0  0  0
   -3.0920   -0.7530    1.7820 C   0  0  0  0  0  0  0  0  0  0  0  0
   -0.8670   -0.6260   -0.5870 C   0  0  0  0  0  0  0  0  0  0  0  0
   -1.0540    0.5300   -1.0970 O   0  0  0  0  0  0  0  0  0  0  0  0
    0.1120    1.1320    1.4680 H   0  0  0  0  0  0  0  0  0  0  0  0
    0.7560   -1.5960    0.2610 H   0  0  0  0  0  0  0  0  0  0  0  0
   -1.3120   -2.4470    1.1620 H   0  0  0  0  0  0  0  0  0  0  0  0
   -0.1380   -2.0280    2.4210 H   0  0  0  0  0  0  0  0  0  0  0  0
   -0.6400   -0.0300    3.8990 H   0  0  0  0  0  0  0  0  0  0  0  0
   -2.4080    1.2780    4.9040 H   0  0  0  0  0  0  0  0  0  0  0  0
   -4.6910    1.3210    3.9240 H   0  0  0  0  0  0  0  0  0  0  0  0
   -5.1000   -0.0230    1.8780 H   0  0  0  0  0  0  0  0  0  0  0  0
   -3.3370   -1.3130    0.8940 H   0  0  0  0  0  0  0  0  0  0  0  0
   -2.4470   -1.8560   -4.8710 C   0  0  0  0  0  0  0  0  0  0  0  0
   -1.6500   -2.0910   -3.6170 C   0  0  0  0  0  0  0  0  0  0  0  0
   -1.4060   -3.5530   -3.4410 C   0  0  0  0  0  0  0  0  0  0  0  0
   -2.3400   -1.4750   -2.4060 C   0  0  2  0  0  0  0  0  0  0  0  0
   -1.5250   -1.7360   -1.2340 N   0  0  0  0  0  0  0  0  0  0  0  0
   -3.6640   -2.1060   -2.2810 C   0  0  0  0  0  0  0  0  0  0  0  0
   -4.5560   -1.9780   -3.1900 O   0  0  0  0  0  0  0  0  0  0  0  0
   -4.0570   -2.8780   -1.1980 O   0  0  0  0  0  0  0  0  0  0  0  0
   -1.7770   -1.9410   -5.7550 H   0  0  0  0  0  0  0  0  0  0  0  0
   -2.8960   -0.8370   -4.9140 H   0  0  0  0  0  0  0  0  0  0  0  0
   -3.2360   -2.6230   -5.0150 H   0  0  0  0  0  0  0  0  0  0  0  0
   -0.6750   -1.5730   -3.7490 H   0  0  0  0  0  0  0  0  0  0  0  0
   -2.1570   -4.0690   -2.8350 H   0  0  0  0  0  0  0  0  0  0  0  0
   -1.4490   -4.0380   -4.4590 H   0  0  0  0  0  0  0  0  0  0  0  0
   -0.3640   -3.7080   -3.0950 H   0  0  0  0  0  0  0  0  0  0  0  0
   -2.4600   -0.3930   -2.5600 H   0  0  0  0  0  0  0  0  0  0  0  0
   -1.4090   -2.7020   -0.8590 H   0  0  0  0  0  0  0  0  0  0  0  0
  1 12  1  0  0  0  0
  1 11  1  0  0  0  0
  2 13  1  6  0  0  0
  2  1  1  0  0  0  0
  2  3  1  0  0  0  0
  3 15  1  0  0  0  0
  3 14  1  0  0  0  0
  4  8  1  0  0  0  0
  4  3  1  0  0  0  0
  5  4  2  0  0  0  0
  6  5  1  0  0  0  0
  6  7  1  0  0  0  0
  7  8  2  0  0  0  0
  9  2  1  0  0  0  0
 10  9  2  0  0  0  0
 16  5  1  0  0  0  0
 17  6  1  0  0  0  0
 18  7  1  0  0  0  0
 19  9  1  0  0  0  0
 19 30  1  0  0  0  0
 20 31  1  6  0  0  0
 20 19  1  0  0  0  0
 20 21  1  0  0  0  0
 21 22  1  0  0  0  0
 21 33  1  0  0  0  0
 22 23  1  0  0  0  0
 23 34  1  0  0  0  0
 23 24  2  0  0  0  0
 24 35  1  0  0  0  0
 25 36  1  0  0  0  0
 25 24  1  0  0  0  0
 26 25  2  0  0  0  0
 27 22  2  0  0  0  0
 27 26  1  0  0  0  0
 28 20  1  0  0  0  0
 29 28  2  0  0  0  0
 32 21  1  0  0  0  0
 37 26  1  0  0  0  0
 38 27  1  0  0  0  0
 39 40  1  0  0  0  0
 40 41  1  0  0  0  0
 40 42  1  0  0  0  0
 41 53  1  0  0  0  0
 41 51  1  0  0  0  0
 42 54  1  6  0  0  0
 42 44  1  0  0  0  0
 42 43  1  0  0  0  0
 43 55  1  0  0  0  0
 43 28  1  0  0  0  0
 44 46  1  0  0  0  0
 45 44  2  0  0  0  0
 47 39  1  0  0  0  0
 48 39  1  0  0  0  0
 49 39  1  0  0  0  0
 50 40  1  0  0  0  0
 52 41  1  0  0  0  0
M  END
$$$$
