HFW.pdb
 OpenBabel07022418383D

 63 66  0  0  1  0  0  0  0  0999 V2000
   -0.6680   -1.1420    4.8420 N   0  0  0  0  0  0  0  0  0  0  0  0
    0.3180   -0.5980    3.8870 C   0  0  1  0  0  0  0  0  0  0  0  0
    1.3960   -1.6490    3.8150 C   0  0  0  0  0  0  0  0  0  0  0  0
    2.4850   -1.2750    2.9070 C   0  0  0  0  0  0  0  0  0  0  0  0
    3.6130   -0.5490    3.2930 C   0  0  0  0  0  0  0  0  0  0  0  0
    4.4290   -0.3610    2.2510 N   0  0  0  0  0  0  0  0  0  0  0  0
    3.8560   -0.9520    1.1870 C   0  0  0  0  0  0  0  0  0  0  0  0
    2.6780   -1.5020    1.5990 N   0  0  0  0  0  0  0  0  0  0  0  0
   -0.3180   -0.4380    2.5580 C   0  0  0  0  0  0  0  0  0  0  0  0
   -1.4510   -1.0240    2.3740 O   0  0  0  0  0  0  0  0  0  0  0  0
   -0.6000   -2.1610    4.9360 H   0  0  0  0  0  0  0  0  0  0  0  0
   -0.6540   -0.6080    5.7310 H   0  0  0  0  0  0  0  0  0  0  0  0
    0.7070    0.3280    4.3100 H   0  0  0  0  0  0  0  0  0  0  0  0
    0.8860   -2.5500    3.3520 H   0  0  0  0  0  0  0  0  0  0  0  0
    1.7570   -1.9470    4.8240 H   0  0  0  0  0  0  0  0  0  0  0  0
    3.7780   -0.2010    4.2980 H   0  0  0  0  0  0  0  0  0  0  0  0
    5.3290    0.1470    2.2790 H   0  0  0  0  0  0  0  0  0  0  0  0
    4.2970   -0.9570    0.2020 H   0  0  0  0  0  0  0  0  0  0  0  0
    0.2100    0.3030    1.4860 N   0  0  0  0  0  0  0  0  0  0  0  0
   -0.5260    0.3840    0.2450 C   0  0  1  0  0  0  0  0  0  0  0  0
   -1.1390    1.7970    0.1200 C   0  0  0  0  0  0  0  0  0  0  0  0
   -2.0460    2.0160    1.2770 C   0  0  0  0  0  0  0  0  0  0  0  0
   -1.5620    2.5710    2.4460 C   0  0  0  0  0  0  0  0  0  0  0  0
   -2.4010    2.7800    3.5380 C   0  0  0  0  0  0  0  0  0  0  0  0
   -3.7360    2.4390    3.4780 C   0  0  0  0  0  0  0  0  0  0  0  0
   -4.2280    1.8840    2.3130 C   0  0  0  0  0  0  0  0  0  0  0  0
   -3.3790    1.6800    1.2310 C   0  0  0  0  0  0  0  0  0  0  0  0
    0.2670    0.0780   -0.9570 C   0  0  0  0  0  0  0  0  0  0  0  0
    1.4810   -0.2120   -0.9400 O   0  0  0  0  0  0  0  0  0  0  0  0
    1.1310    0.7840    1.6300 H   0  0  0  0  0  0  0  0  0  0  0  0
   -1.4200   -0.2700    0.3140 H   0  0  0  0  0  0  0  0  0  0  0  0
   -1.7270    1.8530   -0.8170 H   0  0  0  0  0  0  0  0  0  0  0  0
   -0.3370    2.5520    0.0560 H   0  0  0  0  0  0  0  0  0  0  0  0
   -0.5250    2.8430    2.5120 H   0  0  0  0  0  0  0  0  0  0  0  0
   -2.0460    3.2140    4.4690 H   0  0  0  0  0  0  0  0  0  0  0  0
   -4.4200    2.5930    4.3250 H   0  0  0  0  0  0  0  0  0  0  0  0
   -5.2830    1.6110    2.2590 H   0  0  0  0  0  0  0  0  0  0  0  0
   -3.7960    1.2410    0.3280 H   0  0  0  0  0  0  0  0  0  0  0  0
   -0.3300    0.0930   -2.2750 N   0  0  0  0  0  0  0  0  0  0  0  0
    0.4480   -0.2100   -3.4490 C   0  0  1  0  0  0  0  0  0  0  0  0
    0.0150   -1.5290   -4.0370 C   0  0  0  0  0  0  0  0  0  0  0  0
    0.2190   -2.5930   -3.0260 C   0  0  0  0  0  0  0  0  0  0  0  0
    1.3450   -3.4010   -2.9530 C   0  0  0  0  0  0  0  0  0  0  0  0
    1.2510   -4.2330   -1.9120 N   0  0  0  0  0  0  0  0  0  0  0  0
    0.0930   -4.0080   -1.2840 C   0  0  0  0  0  0  0  0  0  0  0  0
   -0.5220   -4.5610   -0.1820 C   0  0  0  0  0  0  0  0  0  0  0  0
   -1.7510   -4.1380    0.2550 C   0  0  0  0  0  0  0  0  0  0  0  0
   -2.3920   -3.1250   -0.4340 C   0  0  0  0  0  0  0  0  0  0  0  0
   -1.8020   -2.5580   -1.5330 C   0  0  0  0  0  0  0  0  0  0  0  0
   -0.5740   -2.9870   -1.9590 C   0  0  0  0  0  0  0  0  0  0  0  0
    0.4330    0.8820   -4.4410 C   0  0  0  0  0  0  0  0  0  0  0  0
   -0.1960    1.9460   -4.2620 O   0  0  0  0  0  0  0  0  0  0  0  0
    1.1390    0.7360   -5.6250 O   0  0  0  0  0  0  0  0  0  0  0  0
   -1.3420    0.3440   -2.3020 H   0  0  0  0  0  0  0  0  0  0  0  0
    1.5370   -0.3670   -3.1690 H   0  0  0  0  0  0  0  0  0  0  0  0
   -1.0550   -1.5140   -4.3440 H   0  0  0  0  0  0  0  0  0  0  0  0
    0.6870   -1.7360   -4.8960 H   0  0  0  0  0  0  0  0  0  0  0  0
    2.1890   -3.3740   -3.6330 H   0  0  0  0  0  0  0  0  0  0  0  0
    1.9250   -4.9620   -1.5820 H   0  0  0  0  0  0  0  0  0  0  0  0
   -0.0320   -5.3630    0.3750 H   0  0  0  0  0  0  0  0  0  0  0  0
   -2.2530   -4.5650    1.1270 H   0  0  0  0  0  0  0  0  0  0  0  0
   -3.3770   -2.7930   -0.0760 H   0  0  0  0  0  0  0  0  0  0  0  0
   -2.3180   -1.7840   -2.0650 H   0  0  0  0  0  0  0  0  0  0  0  0
  1 11  1  0  0  0  0
  1 12  1  0  0  0  0
  2 13  1  1  0  0  0
  2  1  1  0  0  0  0
  3  2  1  0  0  0  0
  3 15  1  0  0  0  0
  4  5  2  0  0  0  0
  4  3  1  0  0  0  0
  5 16  1  0  0  0  0
  6 17  1  0  0  0  0
  6  5  1  0  0  0  0
  7  8  2  0  0  0  0
  7  6  1  0  0  0  0
  8  4  1  0  0  0  0
  9  2  1  0  0  0  0
 10  9  2  0  0  0  0
 14  3  1  0  0  0  0
 18  7  1  0  0  0  0
 19 30  1  0  0  0  0
 19  9  1  0  0  0  0
 20 31  1  1  0  0  0
 20 19  1  0  0  0  0
 21 20  1  0  0  0  0
 21 22  1  0  0  0  0
 22 23  1  0  0  0  0
 23 34  1  0  0  0  0
 23 24  2  0  0  0  0
 24 35  1  0  0  0  0
 25 24  1  0  0  0  0
 25 36  1  0  0  0  0
 26 25  2  0  0  0  0
 27 22  2  0  0  0  0
 27 26  1  0  0  0  0
 28 29  2  0  0  0  0
 28 20  1  0  0  0  0
 32 21  1  0  0  0  0
 33 21  1  0  0  0  0
 37 26  1  0  0  0  0
 38 27  1  0  0  0  0
 39 28  1  0  0  0  0
 40 55  1  1  0  0  0
 40 39  1  0  0  0  0
 41 40  1  0  0  0  0
 41 42  1  0  0  0  0
 42 43  2  0  0  0  0
 42 50  1  0  0  0  0
 43 44  1  0  0  0  0
 44 59  1  0  0  0  0
 44 45  1  0  0  0  0
 45 46  1  0  0  0  0
 46 47  2  0  0  0  0
 46 60  1  0  0  0  0
 47 61  1  0  0  0  0
 48 62  1  0  0  0  0
 48 47  1  0  0  0  0
 49 48  2  0  0  0  0
 50 49  1  0  0  0  0
 50 45  2  0  0  0  0
 51 52  1  0  0  0  0
 51 40  1  0  0  0  0
 53 51  2  0  0  0  0
 54 39  1  0  0  0  0
 56 41  1  0  0  0  0
 57 41  1  0  0  0  0
 58 43  1  0  0  0  0
 63 49  1  0  0  0  0
M  END
$$$$
