HFY.pdb
 OpenBabel07022418383D

 60 62  0  0  1  0  0  0  0  0999 V2000
    1.6900    3.6810    2.6500 N   0  0  0  0  0  0  0  0  0  0  0  0
    1.6750    2.6290    1.5930 C   0  0  1  0  0  0  0  0  0  0  0  0
    3.1400    2.3620    1.3260 C   0  0  0  0  0  0  0  0  0  0  0  0
    3.4190    1.3410    0.3140 C   0  0  0  0  0  0  0  0  0  0  0  0
    3.5920    1.4720   -1.0450 C   0  0  0  0  0  0  0  0  0  0  0  0
    3.8460    0.2450   -1.5420 N   0  0  0  0  0  0  0  0  0  0  0  0
    3.8380   -0.6420   -0.5410 C   0  0  0  0  0  0  0  0  0  0  0  0
    3.5800    0.0220    0.5740 N   0  0  0  0  0  0  0  0  0  0  0  0
    1.0890    1.4400    2.2400 C   0  0  0  0  0  0  0  0  0  0  0  0
    1.2340    1.2670    3.4730 O   0  0  0  0  0  0  0  0  0  0  0  0
    2.5550    4.2280    2.6200 H   0  0  0  0  0  0  0  0  0  0  0  0
    1.4440    3.3020    3.5670 H   0  0  0  0  0  0  0  0  0  0  0  0
    1.1530    2.9720    0.7020 H   0  0  0  0  0  0  0  0  0  0  0  0
    3.6790    2.0980    2.2770 H   0  0  0  0  0  0  0  0  0  0  0  0
    3.6490    3.3150    1.0020 H   0  0  0  0  0  0  0  0  0  0  0  0
    3.5350    2.3900   -1.6150 H   0  0  0  0  0  0  0  0  0  0  0  0
    4.0170    0.0740   -2.5660 H   0  0  0  0  0  0  0  0  0  0  0  0
    4.0200   -1.7230   -0.6510 H   0  0  0  0  0  0  0  0  0  0  0  0
    0.3310    0.4260    1.5540 N   0  0  0  0  0  0  0  0  0  0  0  0
   -0.2080   -0.7090    2.2960 C   0  0  1  0  0  0  0  0  0  0  0  0
   -1.5800   -0.2820    2.8640 C   0  0  0  0  0  0  0  0  0  0  0  0
   -2.1330   -1.4200    3.6160 C   0  0  0  0  0  0  0  0  0  0  0  0
   -3.0150   -2.3450    3.0590 C   0  0  0  0  0  0  0  0  0  0  0  0
   -3.5220   -3.4030    3.7790 C   0  0  0  0  0  0  0  0  0  0  0  0
   -3.1370   -3.5440    5.0950 C   0  0  0  0  0  0  0  0  0  0  0  0
   -2.2690   -2.6670    5.7100 C   0  0  0  0  0  0  0  0  0  0  0  0
   -1.7840   -1.6210    4.9570 C   0  0  0  0  0  0  0  0  0  0  0  0
   -0.3440   -1.8930    1.4960 C   0  0  0  0  0  0  0  0  0  0  0  0
   -0.6340   -2.9980    2.0680 O   0  0  0  0  0  0  0  0  0  0  0  0
    0.1970    0.5560    0.5410 H   0  0  0  0  0  0  0  0  0  0  0  0
    0.4020   -0.8580    3.2020 H   0  0  0  0  0  0  0  0  0  0  0  0
   -1.4220    0.6200    3.4750 H   0  0  0  0  0  0  0  0  0  0  0  0
   -2.2470   -0.0480    2.0040 H   0  0  0  0  0  0  0  0  0  0  0  0
   -3.3070   -2.2120    2.0100 H   0  0  0  0  0  0  0  0  0  0  0  0
   -4.2170   -4.1290    3.3330 H   0  0  0  0  0  0  0  0  0  0  0  0
   -3.5190   -4.3680    5.6880 H   0  0  0  0  0  0  0  0  0  0  0  0
   -1.9630   -2.7720    6.7420 H   0  0  0  0  0  0  0  0  0  0  0  0
   -1.1070   -0.9130    5.3860 H   0  0  0  0  0  0  0  0  0  0  0  0
   -1.4330    0.8960   -5.3440 O   0  0  0  0  0  0  0  0  0  0  0  0
   -1.4890   -0.1110   -4.3790 C   0  0  0  0  0  0  0  0  0  0  0  0
   -1.9700    0.1770   -3.1350 C   0  0  0  0  0  0  0  0  0  0  0  0
   -2.0160   -0.8290   -2.2010 C   0  0  0  0  0  0  0  0  0  0  0  0
   -1.5970   -2.1210   -2.4620 C   0  0  0  0  0  0  0  0  0  0  0  0
   -1.6550   -3.1990   -1.4490 C   0  0  0  0  0  0  0  0  0  0  0  0
   -0.3790   -3.2680   -0.6050 C   0  0  2  0  0  0  0  0  0  0  0  0
   -0.1960   -1.9960    0.0820 N   0  0  0  0  0  0  0  0  0  0  0  0
    0.7140   -3.5760   -1.5250 C   0  0  0  0  0  0  0  0  0  0  0  0
    0.6520   -4.6970   -2.1300 O   0  0  0  0  0  0  0  0  0  0  0  0
   -1.1170   -2.3860   -3.7240 C   0  0  0  0  0  0  0  0  0  0  0  0
   -1.0630   -1.3690   -4.6870 C   0  0  0  0  0  0  0  0  0  0  0  0
    1.8060   -2.7920   -1.8150 O   0  0  0  0  0  0  0  0  0  0  0  0
   -2.2600    1.2730   -5.7830 H   0  0  0  0  0  0  0  0  0  0  0  0
   -2.3010    1.1810   -2.9120 H   0  0  0  0  0  0  0  0  0  0  0  0
   -2.3940   -0.6080   -1.2200 H   0  0  0  0  0  0  0  0  0  0  0  0
   -1.8280   -4.1410   -1.9810 H   0  0  0  0  0  0  0  0  0  0  0  0
   -2.5200   -3.0410   -0.7650 H   0  0  0  0  0  0  0  0  0  0  0  0
   -0.5050   -4.0900    0.1280 H   0  0  0  0  0  0  0  0  0  0  0  0
    0.0470   -1.1580   -0.4750 H   0  0  0  0  0  0  0  0  0  0  0  0
   -0.7710   -3.3480   -4.0290 H   0  0  0  0  0  0  0  0  0  0  0  0
   -0.6800   -1.6040   -5.6750 H   0  0  0  0  0  0  0  0  0  0  0  0
  1 12  1  0  0  0  0
  2 13  1  6  0  0  0
  2  9  1  0  0  0  0
  2  1  1  0  0  0  0
  3  2  1  0  0  0  0
  3 14  1  0  0  0  0
  4  8  1  0  0  0  0
  4  3  1  0  0  0  0
  5  4  2  0  0  0  0
  6  5  1  0  0  0  0
  6  7  1  0  0  0  0
  7  8  2  0  0  0  0
  9 10  2  0  0  0  0
 11  1  1  0  0  0  0
 15  3  1  0  0  0  0
 16  5  1  0  0  0  0
 17  6  1  0  0  0  0
 18  7  1  0  0  0  0
 19  9  1  0  0  0  0
 19 20  1  0  0  0  0
 20 21  1  0  0  0  0
 20 31  1  1  0  0  0
 21 32  1  0  0  0  0
 21 22  1  0  0  0  0
 22 27  1  0  0  0  0
 23 22  2  0  0  0  0
 23 24  1  0  0  0  0
 24 25  2  0  0  0  0
 25 36  1  0  0  0  0
 25 26  1  0  0  0  0
 26 37  1  0  0  0  0
 27 38  1  0  0  0  0
 27 26  2  0  0  0  0
 28 29  2  0  0  0  0
 28 20  1  0  0  0  0
 30 19  1  0  0  0  0
 33 21  1  0  0  0  0
 34 23  1  0  0  0  0
 35 24  1  0  0  0  0
 39 40  1  0  0  0  0
 40 41  1  0  0  0  0
 41 53  1  0  0  0  0
 41 42  2  0  0  0  0
 42 54  1  0  0  0  0
 43 42  1  0  0  0  0
 43 44  1  0  0  0  0
 44 56  1  0  0  0  0
 44 45  1  0  0  0  0
 45 46  1  0  0  0  0
 45 57  1  1  0  0  0
 46 28  1  0  0  0  0
 47 45  1  0  0  0  0
 48 47  2  0  0  0  0
 49 43  2  0  0  0  0
 50 40  2  0  0  0  0
 50 49  1  0  0  0  0
 51 47  1  0  0  0  0
 52 39  1  0  0  0  0
 55 44  1  0  0  0  0
 58 46  1  0  0  0  0
 59 49  1  0  0  0  0
 60 50  1  0  0  0  0
M  END
$$$$
