HGA.pdb
 OpenBabel07022418363D

 36 36  0  0  1  0  0  0  0  0999 V2000
    1.0400   -2.4640    3.4890 N   0  0  0  0  0  0  0  0  0  0  0  0
    1.7240   -1.9160    2.2890 C   0  0  1  0  0  0  0  0  0  0  0  0
    1.3840   -2.8410    1.1750 C   0  0  0  0  0  0  0  0  0  0  0  0
    1.9650   -2.5200   -0.1440 C   0  0  0  0  0  0  0  0  0  0  0  0
    1.4680   -1.8050   -1.2130 C   0  0  0  0  0  0  0  0  0  0  0  0
    2.3710   -1.8340   -2.1980 N   0  0  0  0  0  0  0  0  0  0  0  0
    3.4290   -2.5400   -1.8020 C   0  0  0  0  0  0  0  0  0  0  0  0
    3.1930   -2.9620   -0.5570 N   0  0  0  0  0  0  0  0  0  0  0  0
    1.2910   -0.5160    2.1440 C   0  0  0  0  0  0  0  0  0  0  0  0
    0.3800   -0.0560    2.9280 O   0  0  0  0  0  0  0  0  0  0  0  0
    0.1280   -1.9620    3.5620 H   0  0  0  0  0  0  0  0  0  0  0  0
    1.6640   -2.2380    4.2960 H   0  0  0  0  0  0  0  0  0  0  0  0
    2.8240   -1.9200    2.4890 H   0  0  0  0  0  0  0  0  0  0  0  0
    1.7020   -3.8860    1.4050 H   0  0  0  0  0  0  0  0  0  0  0  0
    0.2740   -2.9160    1.0130 H   0  0  0  0  0  0  0  0  0  0  0  0
    0.5090   -1.3140   -1.2400 H   0  0  0  0  0  0  0  0  0  0  0  0
    2.2770   -1.3770   -3.1400 H   0  0  0  0  0  0  0  0  0  0  0  0
    4.3210   -2.7290   -2.4050 H   0  0  0  0  0  0  0  0  0  0  0  0
    1.7850    0.4170    1.2070 N   0  0  0  0  0  0  0  0  0  0  0  0
    1.2860    1.7620    1.1440 C   0  0  0  0  0  0  0  0  0  0  0  0
   -0.1180    1.8840    0.7960 C   0  0  0  0  0  0  0  0  0  0  0  0
   -0.7130    3.0140    0.7350 O   0  0  0  0  0  0  0  0  0  0  0  0
    2.5590    0.0970    0.5470 H   0  0  0  0  0  0  0  0  0  0  0  0
    1.8620    2.3030    0.3270 H   0  0  0  0  0  0  0  0  0  0  0  0
    1.5570    2.3500    2.0590 H   0  0  0  0  0  0  0  0  0  0  0  0
   -2.6300    0.4750   -1.2640 C   0  0  0  0  0  0  0  0  0  0  0  0
   -2.3400    0.9220    0.1420 C   0  0  2  0  0  0  0  0  0  0  0  0
   -0.9390    0.7900    0.4930 N   0  0  0  0  0  0  0  0  0  0  0  0
   -3.1380    0.1870    1.1440 C   0  0  0  0  0  0  0  0  0  0  0  0
   -4.3950    0.1570    1.0620 O   0  0  0  0  0  0  0  0  0  0  0  0
   -2.5690   -0.4940    2.2030 O   0  0  0  0  0  0  0  0  0  0  0  0
   -3.7230    0.2790   -1.3280 H   0  0  0  0  0  0  0  0  0  0  0  0
   -2.1190   -0.4570   -1.5460 H   0  0  0  0  0  0  0  0  0  0  0  0
   -2.4270    1.3150   -1.9710 H   0  0  0  0  0  0  0  0  0  0  0  0
   -2.6080    1.9920    0.1950 H   0  0  0  0  0  0  0  0  0  0  0  0
   -0.5840   -0.1840    0.4930 H   0  0  0  0  0  0  0  0  0  0  0  0
  1 11  1  0  0  0  0
  1 12  1  0  0  0  0
  2 13  1  1  0  0  0
  2  1  1  0  0  0  0
  3 14  1  0  0  0  0
  3  2  1  0  0  0  0
  4  3  1  0  0  0  0
  5  4  2  0  0  0  0
  6  7  1  0  0  0  0
  6  5  1  0  0  0  0
  7  8  2  0  0  0  0
  8  4  1  0  0  0  0
  9  2  1  0  0  0  0
  9 10  2  0  0  0  0
 15  3  1  0  0  0  0
 16  5  1  0  0  0  0
 17  6  1  0  0  0  0
 18  7  1  0  0  0  0
 19  9  1  0  0  0  0
 20 19  1  0  0  0  0
 20 25  1  0  0  0  0
 21 20  1  0  0  0  0
 22 21  2  0  0  0  0
 23 19  1  0  0  0  0
 24 20  1  0  0  0  0
 26 27  1  0  0  0  0
 27 35  1  1  0  0  0
 27 28  1  0  0  0  0
 27 29  1  0  0  0  0
 28 36  1  0  0  0  0
 28 21  1  0  0  0  0
 29 31  1  0  0  0  0
 30 29  2  0  0  0  0
 32 26  1  0  0  0  0
 33 26  1  0  0  0  0
 34 26  1  0  0  0  0
M  END
$$$$
