HGD.pdb
 OpenBabel07022418363D

 39 39  0  0  1  0  0  0  0  0999 V2000
    0.9200   -3.8210   -0.7880 N   0  0  0  0  0  0  0  0  0  0  0  0
   -0.0110   -3.3630    0.2210 C   0  0  1  0  0  0  0  0  0  0  0  0
    0.7210   -3.2390    1.5240 C   0  0  0  0  0  0  0  0  0  0  0  0
    1.8580   -2.2790    1.4330 C   0  0  0  0  0  0  0  0  0  0  0  0
    2.7440   -1.9020    2.4090 C   0  0  0  0  0  0  0  0  0  0  0  0
    3.5830   -1.0170    1.8450 N   0  0  0  0  0  0  0  0  0  0  0  0
    3.2660   -0.8170    0.5510 C   0  0  0  0  0  0  0  0  0  0  0  0
    2.2000   -1.6070    0.3260 N   0  0  0  0  0  0  0  0  0  0  0  0
   -0.7970   -2.1870   -0.1690 C   0  0  0  0  0  0  0  0  0  0  0  0
   -1.6660   -1.7760    0.6670 O   0  0  0  0  0  0  0  0  0  0  0  0
    0.5410   -4.5930   -1.3750 H   0  0  0  0  0  0  0  0  0  0  0  0
    1.8260   -4.1500   -0.3830 H   0  0  0  0  0  0  0  0  0  0  0  0
   -0.7280   -4.2260    0.3690 H   0  0  0  0  0  0  0  0  0  0  0  0
    0.0620   -2.9410    2.3530 H   0  0  0  0  0  0  0  0  0  0  0  0
    1.1460   -4.2150    1.7720 H   0  0  0  0  0  0  0  0  0  0  0  0
    2.7540   -2.2550    3.4290 H   0  0  0  0  0  0  0  0  0  0  0  0
    4.3950   -0.5190    2.3070 H   0  0  0  0  0  0  0  0  0  0  0  0
    3.7410   -0.1720   -0.1770 H   0  0  0  0  0  0  0  0  0  0  0  0
   -0.6100   -1.5320   -1.4140 N   0  0  0  0  0  0  0  0  0  0  0  0
   -1.3590   -0.3930   -1.8160 C   0  0  0  0  0  0  0  0  0  0  0  0
   -1.2420    0.8090   -0.9910 C   0  0  0  0  0  0  0  0  0  0  0  0
   -1.9430    1.8130   -1.3640 O   0  0  0  0  0  0  0  0  0  0  0  0
    0.1360   -1.9380   -2.0520 H   0  0  0  0  0  0  0  0  0  0  0  0
   -1.0850   -0.1090   -2.8780 H   0  0  0  0  0  0  0  0  0  0  0  0
   -2.4620   -0.6260   -1.9130 H   0  0  0  0  0  0  0  0  0  0  0  0
   -0.4610    0.9950    0.1500 N   0  0  0  0  0  0  0  0  0  0  0  0
   -0.4550    2.2580    0.8650 C   0  0  1  0  0  0  0  0  0  0  0  0
   -0.8220    2.0700    2.3050 C   0  0  0  0  0  0  0  0  0  0  0  0
   -2.1540    1.4910    2.5060 C   0  0  0  0  0  0  0  0  0  0  0  0
   -2.9390    1.1710    1.5770 O   0  0  0  0  0  0  0  0  0  0  0  0
    0.9240    2.8560    0.8370 C   0  0  0  0  0  0  0  0  0  0  0  0
    1.1190    3.9560    1.4090 O   0  0  0  0  0  0  0  0  0  0  0  0
   -2.5830    1.2790    3.8090 O   0  0  0  0  0  0  0  0  0  0  0  0
    1.9830    2.2430    0.2070 O   0  0  0  0  0  0  0  0  0  0  0  0
    0.1240    0.2250    0.4830 H   0  0  0  0  0  0  0  0  0  0  0  0
   -1.1300    2.9460    0.3560 H   0  0  0  0  0  0  0  0  0  0  0  0
   -0.0810    1.3530    2.7410 H   0  0  0  0  0  0  0  0  0  0  0  0
   -0.6950    3.0140    2.8620 H   0  0  0  0  0  0  0  0  0  0  0  0
   -3.2350    0.5550    4.0680 H   0  0  0  0  0  0  0  0  0  0  0  0
  1 12  1  0  0  0  0
  1  2  1  0  0  0  0
  2 13  1  1  0  0  0
  2  3  1  0  0  0  0
  3 15  1  0  0  0  0
  3 14  1  0  0  0  0
  4  3  1  0  0  0  0
  4  5  2  0  0  0  0
  5 16  1  0  0  0  0
  6 17  1  0  0  0  0
  6  5  1  0  0  0  0
  7  6  1  0  0  0  0
  8  7  2  0  0  0  0
  8  4  1  0  0  0  0
  9  2  1  0  0  0  0
  9 10  2  0  0  0  0
 11  1  1  0  0  0  0
 18  7  1  0  0  0  0
 19  9  1  0  0  0  0
 20 19  1  0  0  0  0
 20 21  1  0  0  0  0
 21 26  1  0  0  0  0
 22 21  2  0  0  0  0
 23 19  1  0  0  0  0
 24 20  1  0  0  0  0
 25 20  1  0  0  0  0
 26 35  1  0  0  0  0
 26 27  1  0  0  0  0
 27 36  1  6  0  0  0
 27 28  1  0  0  0  0
 28 29  1  0  0  0  0
 28 37  1  0  0  0  0
 28 38  1  0  0  0  0
 29 33  1  0  0  0  0
 30 29  2  0  0  0  0
 31 27  1  0  0  0  0
 31 32  1  0  0  0  0
 33 39  1  0  0  0  0
 34 31  2  0  0  0  0
M  END
$$$$
