HGE.pdb
 OpenBabel07022418363D

 42 42  0  0  1  0  0  0  0  0999 V2000
   -2.3040   -3.2820   -0.3730 N   0  0  0  0  0  0  0  0  0  0  0  0
   -0.8930   -3.1110   -0.0890 C   0  0  1  0  0  0  0  0  0  0  0  0
   -0.1310   -3.9660   -1.0670 C   0  0  0  0  0  0  0  0  0  0  0  0
    1.3280   -3.8930   -0.8980 C   0  0  0  0  0  0  0  0  0  0  0  0
    2.1400   -4.6800   -0.1040 C   0  0  0  0  0  0  0  0  0  0  0  0
    3.4180   -4.2840   -0.2380 N   0  0  0  0  0  0  0  0  0  0  0  0
    3.4340   -3.2590   -1.1010 C   0  0  0  0  0  0  0  0  0  0  0  0
    2.1840   -3.0180   -1.5020 N   0  0  0  0  0  0  0  0  0  0  0  0
   -0.5120   -1.6750   -0.2310 C   0  0  0  0  0  0  0  0  0  0  0  0
    0.6790   -1.3550   -0.0170 O   0  0  0  0  0  0  0  0  0  0  0  0
   -2.9210   -2.7340    0.2360 H   0  0  0  0  0  0  0  0  0  0  0  0
   -2.5400   -3.1100   -1.3680 H   0  0  0  0  0  0  0  0  0  0  0  0
   -0.7010   -3.5010    0.9250 H   0  0  0  0  0  0  0  0  0  0  0  0
   -0.4000   -3.7920   -2.1160 H   0  0  0  0  0  0  0  0  0  0  0  0
   -0.4250   -5.0310   -0.8430 H   0  0  0  0  0  0  0  0  0  0  0  0
    1.8040   -5.4920    0.5280 H   0  0  0  0  0  0  0  0  0  0  0  0
    4.2110   -4.7310    0.2660 H   0  0  0  0  0  0  0  0  0  0  0  0
    4.3050   -2.7150   -1.4230 H   0  0  0  0  0  0  0  0  0  0  0  0
   -1.4310   -0.6820   -0.5910 N   0  0  0  0  0  0  0  0  0  0  0  0
   -1.1950    0.7190   -0.7490 C   0  0  0  0  0  0  0  0  0  0  0  0
   -0.7640    1.4510    0.4570 C   0  0  0  0  0  0  0  0  0  0  0  0
   -0.5360    2.6890    0.3460 O   0  0  0  0  0  0  0  0  0  0  0  0
   -2.4240   -1.0260   -0.7640 H   0  0  0  0  0  0  0  0  0  0  0  0
   -2.0970    1.2010   -1.2060 H   0  0  0  0  0  0  0  0  0  0  0  0
   -0.3640    0.8880   -1.5030 H   0  0  0  0  0  0  0  0  0  0  0  0
   -0.5740    0.9370    1.7480 N   0  0  0  0  0  0  0  0  0  0  0  0
   -0.1590    1.5440    2.9350 C   0  0  1  0  0  0  0  0  0  0  0  0
    0.7030    2.7190    3.0280 C   0  0  0  0  0  0  0  0  0  0  0  0
    2.1020    2.5660    2.5200 C   0  0  0  0  0  0  0  0  0  0  0  0
    2.3510    2.2060    1.1560 C   0  0  0  0  0  0  0  0  0  0  0  0
    2.4300    1.0120    0.8090 O   0  0  0  0  0  0  0  0  0  0  0  0
   -1.2840    1.5790    3.8980 C   0  0  0  0  0  0  0  0  0  0  0  0
   -2.4320    1.1130    3.6370 O   0  0  0  0  0  0  0  0  0  0  0  0
    2.5250    3.1470    0.1180 O   0  0  0  0  0  0  0  0  0  0  0  0
   -1.1390    2.1400    5.1790 O   0  0  0  0  0  0  0  0  0  0  0  0
   -0.8100   -0.1100    1.8230 H   0  0  0  0  0  0  0  0  0  0  0  0
    0.5490    0.7150    3.4040 H   0  0  0  0  0  0  0  0  0  0  0  0
    0.2440    3.6840    2.7070 H   0  0  0  0  0  0  0  0  0  0  0  0
    0.8500    2.9160    4.1430 H   0  0  0  0  0  0  0  0  0  0  0  0
    2.7120    3.4880    2.7580 H   0  0  0  0  0  0  0  0  0  0  0  0
    2.5980    1.7720    3.1680 H   0  0  0  0  0  0  0  0  0  0  0  0
    3.0250    2.8900   -0.7140 H   0  0  0  0  0  0  0  0  0  0  0  0
  1  2  1  0  0  0  0
  1 11  1  0  0  0  0
  2 13  1  1  0  0  0
  3  4  1  0  0  0  0
  3 15  1  0  0  0  0
  3  2  1  0  0  0  0
  4  5  2  0  0  0  0
  5 16  1  0  0  0  0
  6  5  1  0  0  0  0
  6 17  1  0  0  0  0
  7  6  1  0  0  0  0
  8  7  2  0  0  0  0
  8  4  1  0  0  0  0
  9  2  1  0  0  0  0
  9 10  2  0  0  0  0
 12  1  1  0  0  0  0
 14  3  1  0  0  0  0
 18  7  1  0  0  0  0
 19  9  1  0  0  0  0
 20 19  1  0  0  0  0
 20 21  1  0  0  0  0
 21 26  1  0  0  0  0
 22 21  2  0  0  0  0
 23 19  1  0  0  0  0
 24 20  1  0  0  0  0
 25 20  1  0  0  0  0
 26 36  1  0  0  0  0
 26 27  1  0  0  0  0
 27 28  1  0  0  0  0
 27 37  1  1  0  0  0
 27 32  1  0  0  0  0
 28 39  1  0  0  0  0
 29 40  1  0  0  0  0
 29 28  1  0  0  0  0
 29 41  1  0  0  0  0
 30 29  1  0  0  0  0
 31 30  2  0  0  0  0
 32 35  1  0  0  0  0
 33 32  2  0  0  0  0
 34 30  1  0  0  0  0
 38 28  1  0  0  0  0
 42 34  1  0  0  0  0
M  END
$$$$
