HGF.pdb
 OpenBabel07022418363D

 46 47  0  0  1  0  0  0  0  0999 V2000
    4.3360   -2.7830    1.6550 N   0  0  0  0  0  0  0  0  0  0  0  0
    3.7540   -2.0520    0.5760 C   0  0  1  0  0  0  0  0  0  0  0  0
    2.6620   -2.8980   -0.0420 C   0  0  0  0  0  0  0  0  0  0  0  0
    1.9880   -2.2410   -1.1780 C   0  0  0  0  0  0  0  0  0  0  0  0
    2.3420   -2.3110   -2.5200 C   0  0  0  0  0  0  0  0  0  0  0  0
    1.4620   -1.5670   -3.1970 N   0  0  0  0  0  0  0  0  0  0  0  0
    0.5660   -1.0280   -2.3500 C   0  0  0  0  0  0  0  0  0  0  0  0
    0.9160   -1.4580   -1.1340 N   0  0  0  0  0  0  0  0  0  0  0  0
    3.2500   -0.7280    0.9860 C   0  0  0  0  0  0  0  0  0  0  0  0
    2.6800    0.0460    0.1940 O   0  0  0  0  0  0  0  0  0  0  0  0
    5.1600   -3.3590    1.3950 H   0  0  0  0  0  0  0  0  0  0  0  0
    3.6510   -3.2760    2.2610 H   0  0  0  0  0  0  0  0  0  0  0  0
    4.5210   -1.9020   -0.2170 H   0  0  0  0  0  0  0  0  0  0  0  0
    1.8750   -3.1570    0.7100 H   0  0  0  0  0  0  0  0  0  0  0  0
    3.0600   -3.8660   -0.3940 H   0  0  0  0  0  0  0  0  0  0  0  0
    3.1580   -2.8470   -2.9700 H   0  0  0  0  0  0  0  0  0  0  0  0
    1.4150   -1.3850   -4.2360 H   0  0  0  0  0  0  0  0  0  0  0  0
   -0.2690   -0.3840   -2.5550 H   0  0  0  0  0  0  0  0  0  0  0  0
    3.4430   -0.3530    2.3530 N   0  0  0  0  0  0  0  0  0  0  0  0
    2.9530    0.9320    2.7800 C   0  0  0  0  0  0  0  0  0  0  0  0
    1.4860    1.0820    2.6780 C   0  0  0  0  0  0  0  0  0  0  0  0
    1.0120    2.2280    3.0120 O   0  0  0  0  0  0  0  0  0  0  0  0
    3.9390   -1.0190    3.0240 H   0  0  0  0  0  0  0  0  0  0  0  0
    3.4280    1.7480    2.1920 H   0  0  0  0  0  0  0  0  0  0  0  0
    3.2900    1.0830    3.8290 H   0  0  0  0  0  0  0  0  0  0  0  0
    0.5700    0.1060    2.2580 N   0  0  0  0  0  0  0  0  0  0  0  0
   -0.8520    0.4090    2.2090 C   0  0  1  0  0  0  0  0  0  0  0  0
   -1.4070    0.2590    0.8360 C   0  0  0  0  0  0  0  0  0  0  0  0
   -2.8370    0.5500    0.7260 C   0  0  0  0  0  0  0  0  0  0  0  0
   -3.2340    1.8570    0.5100 C   0  0  0  0  0  0  0  0  0  0  0  0
   -4.5510    2.2300    0.3760 C   0  0  0  0  0  0  0  0  0  0  0  0
   -5.5520    1.2900    0.4550 C   0  0  0  0  0  0  0  0  0  0  0  0
   -5.1660   -0.0220    0.6710 C   0  0  0  0  0  0  0  0  0  0  0  0
   -3.8540   -0.3880    0.8030 C   0  0  0  0  0  0  0  0  0  0  0  0
   -1.6060   -0.4290    3.1710 C   0  0  0  0  0  0  0  0  0  0  0  0
   -1.0250   -1.3210    3.8740 O   0  0  0  0  0  0  0  0  0  0  0  0
   -2.9580   -0.3080    3.3740 O   0  0  0  0  0  0  0  0  0  0  0  0
    0.9140   -0.8400    1.9940 H   0  0  0  0  0  0  0  0  0  0  0  0
   -1.0040    1.4610    2.5270 H   0  0  0  0  0  0  0  0  0  0  0  0
   -0.8060    0.9060    0.1600 H   0  0  0  0  0  0  0  0  0  0  0  0
   -1.2680   -0.7980    0.4720 H   0  0  0  0  0  0  0  0  0  0  0  0
   -2.4930    2.6120    0.4430 H   0  0  0  0  0  0  0  0  0  0  0  0
   -4.7840    3.2900    0.2070 H   0  0  0  0  0  0  0  0  0  0  0  0
   -6.5720    1.6010    0.3480 H   0  0  0  0  0  0  0  0  0  0  0  0
   -5.9620   -0.7570    0.7310 H   0  0  0  0  0  0  0  0  0  0  0  0
   -3.5800   -1.4270    0.9670 H   0  0  0  0  0  0  0  0  0  0  0  0
  1 12  1  0  0  0  0
  2 13  1  6  0  0  0
  2  9  1  0  0  0  0
  2  1  1  0  0  0  0
  3  2  1  0  0  0  0
  3 14  1  0  0  0  0
  4  8  1  0  0  0  0
  4  3  1  0  0  0  0
  5  4  2  0  0  0  0
  6  5  1  0  0  0  0
  6  7  1  0  0  0  0
  7  8  2  0  0  0  0
  9 19  1  0  0  0  0
 10  9  2  0  0  0  0
 11  1  1  0  0  0  0
 15  3  1  0  0  0  0
 16  5  1  0  0  0  0
 17  6  1  0  0  0  0
 18  7  1  0  0  0  0
 19 20  1  0  0  0  0
 19 23  1  0  0  0  0
 20 25  1  0  0  0  0
 21 20  1  0  0  0  0
 21 22  2  0  0  0  0
 24 20  1  0  0  0  0
 26 21  1  0  0  0  0
 27 26  1  0  0  0  0
 27 39  1  1  0  0  0
 27 35  1  0  0  0  0
 28 27  1  0  0  0  0
 29 34  1  0  0  0  0
 29 28  1  0  0  0  0
 30 29  2  0  0  0  0
 31 32  2  0  0  0  0
 31 30  1  0  0  0  0
 32 33  1  0  0  0  0
 33 45  1  0  0  0  0
 33 34  2  0  0  0  0
 34 46  1  0  0  0  0
 35 37  2  0  0  0  0
 35 36  1  0  0  0  0
 38 26  1  0  0  0  0
 40 28  1  0  0  0  0
 41 28  1  0  0  0  0
 42 30  1  0  0  0  0
 43 31  1  0  0  0  0
 44 32  1  0  0  0  0
M  END
$$$$
