HGG.pdb
 OpenBabel07022418363D

 33 33  0  0  1  0  0  0  0  0999 V2000
   -0.5640   -2.1740    3.4280 N   0  0  0  0  0  0  0  0  0  0  0  0
    0.3950   -1.1070    3.2420 C   0  0  1  0  0  0  0  0  0  0  0  0
    1.6830   -1.7600    2.7710 C   0  0  0  0  0  0  0  0  0  0  0  0
    1.5460   -2.5030    1.5180 C   0  0  0  0  0  0  0  0  0  0  0  0
    1.2050   -3.8430    1.4400 C   0  0  0  0  0  0  0  0  0  0  0  0
    1.1690   -4.2030    0.1240 N   0  0  0  0  0  0  0  0  0  0  0  0
    1.4790   -3.1170   -0.5950 C   0  0  0  0  0  0  0  0  0  0  0  0
    1.7040   -2.0980    0.2540 N   0  0  0  0  0  0  0  0  0  0  0  0
   -0.1470   -0.1340    2.2750 C   0  0  0  0  0  0  0  0  0  0  0  0
   -1.2650   -0.3250    1.7840 O   0  0  0  0  0  0  0  0  0  0  0  0
   -1.2250   -1.9830    4.2310 H   0  0  0  0  0  0  0  0  0  0  0  0
   -1.1330   -2.3770    2.5940 H   0  0  0  0  0  0  0  0  0  0  0  0
    0.5430   -0.6190    4.2330 H   0  0  0  0  0  0  0  0  0  0  0  0
    2.1180   -2.3660    3.5910 H   0  0  0  0  0  0  0  0  0  0  0  0
    2.4020   -0.9210    2.6120 H   0  0  0  0  0  0  0  0  0  0  0  0
    0.9950   -4.5270    2.2500 H   0  0  0  0  0  0  0  0  0  0  0  0
    0.9420   -5.1510   -0.2440 H   0  0  0  0  0  0  0  0  0  0  0  0
    1.5410   -3.0520   -1.6660 H   0  0  0  0  0  0  0  0  0  0  0  0
    0.5570    1.0340    1.8700 N   0  0  0  0  0  0  0  0  0  0  0  0
    0.0590    1.9990    0.9420 C   0  0  0  0  0  0  0  0  0  0  0  0
   -0.2480    1.4940   -0.3970 C   0  0  0  0  0  0  0  0  0  0  0  0
   -0.0830    0.2890   -0.7030 O   0  0  0  0  0  0  0  0  0  0  0  0
    1.5030    1.1750    2.2940 H   0  0  0  0  0  0  0  0  0  0  0  0
   -0.8850    2.4370    1.3780 H   0  0  0  0  0  0  0  0  0  0  0  0
    0.7630    2.8750    0.8940 H   0  0  0  0  0  0  0  0  0  0  0  0
   -0.7500    2.3710   -1.4050 N   0  0  0  0  0  0  0  0  0  0  0  0
   -1.0650    1.9180   -2.7330 C   0  0  0  0  0  0  0  0  0  0  0  0
   -2.0990    0.8730   -2.7560 C   0  0  0  0  0  0  0  0  0  0  0  0
   -2.4610    0.3950   -3.8590 O   0  0  0  0  0  0  0  0  0  0  0  0
   -2.7030    0.3800   -1.6160 O   0  0  0  0  0  0  0  0  0  0  0  0
   -0.8980    3.3940   -1.1730 H   0  0  0  0  0  0  0  0  0  0  0  0
   -0.1160    1.5390   -3.1680 H   0  0  0  0  0  0  0  0  0  0  0  0
   -1.4440    2.7660   -3.3310 H   0  0  0  0  0  0  0  0  0  0  0  0
  1 11  1  0  0  0  0
  2  1  1  0  0  0  0
  2 13  1  1  0  0  0
  3  2  1  0  0  0  0
  3 14  1  0  0  0  0
  4  3  1  0  0  0  0
  5  4  2  0  0  0  0
  5 16  1  0  0  0  0
  6  5  1  0  0  0  0
  7  6  1  0  0  0  0
  7  8  2  0  0  0  0
  8  4  1  0  0  0  0
  9  2  1  0  0  0  0
 10  9  2  0  0  0  0
 12  1  1  0  0  0  0
 15  3  1  0  0  0  0
 17  6  1  0  0  0  0
 18  7  1  0  0  0  0
 19  9  1  0  0  0  0
 19 23  1  0  0  0  0
 20 24  1  0  0  0  0
 20 19  1  0  0  0  0
 21 20  1  0  0  0  0
 22 21  2  0  0  0  0
 25 20  1  0  0  0  0
 26 31  1  0  0  0  0
 26 21  1  0  0  0  0
 27 26  1  0  0  0  0
 28 27  1  0  0  0  0
 28 30  1  0  0  0  0
 29 28  2  0  0  0  0
 32 27  1  0  0  0  0
 33 27  1  0  0  0  0
M  END
$$$$
