HGH.pdb
 OpenBabel07022418363D

 43 44  0  0  1  0  0  0  0  0999 V2000
    0.2860   -3.2710    1.4760 N   0  0  0  0  0  0  0  0  0  0  0  0
    1.4520   -2.4800    1.2590 C   0  0  1  0  0  0  0  0  0  0  0  0
    2.6040   -3.2700    0.7270 C   0  0  0  0  0  0  0  0  0  0  0  0
    2.3270   -3.9320   -0.5610 C   0  0  0  0  0  0  0  0  0  0  0  0
    1.1570   -3.9020   -1.2650 C   0  0  0  0  0  0  0  0  0  0  0  0
    1.2930   -4.6440   -2.4030 N   0  0  0  0  0  0  0  0  0  0  0  0
    2.5300   -5.1180   -2.3880 C   0  0  0  0  0  0  0  0  0  0  0  0
    3.1640   -4.6980   -1.2850 N   0  0  0  0  0  0  0  0  0  0  0  0
    1.1580   -1.2380    0.4920 C   0  0  0  0  0  0  0  0  0  0  0  0
   -0.0200   -0.9580    0.1820 O   0  0  0  0  0  0  0  0  0  0  0  0
    0.4800   -4.2930    1.5740 H   0  0  0  0  0  0  0  0  0  0  0  0
   -0.2840   -2.9920    2.3030 H   0  0  0  0  0  0  0  0  0  0  0  0
    1.7940   -2.1160    2.2880 H   0  0  0  0  0  0  0  0  0  0  0  0
    3.5130   -2.6180    0.6330 H   0  0  0  0  0  0  0  0  0  0  0  0
    2.8130   -4.0780    1.4820 H   0  0  0  0  0  0  0  0  0  0  0  0
    0.2390   -3.3840   -0.9950 H   0  0  0  0  0  0  0  0  0  0  0  0
    0.5170   -4.7560   -3.0890 H   0  0  0  0  0  0  0  0  0  0  0  0
    2.9220   -5.7580   -3.1910 H   0  0  0  0  0  0  0  0  0  0  0  0
    2.1820   -0.3430    0.0910 N   0  0  0  0  0  0  0  0  0  0  0  0
    1.9680    0.8740   -0.6390 C   0  0  0  0  0  0  0  0  0  0  0  0
    1.1590    1.8780    0.0730 C   0  0  0  0  0  0  0  0  0  0  0  0
    0.8610    3.0000   -0.4770 O   0  0  0  0  0  0  0  0  0  0  0  0
    3.1570   -0.6010    0.3540 H   0  0  0  0  0  0  0  0  0  0  0  0
    2.9600    1.3040   -0.9680 H   0  0  0  0  0  0  0  0  0  0  0  0
    1.3980    0.6370   -1.5800 H   0  0  0  0  0  0  0  0  0  0  0  0
    0.6330    1.7520    1.3860 N   0  0  0  0  0  0  0  0  0  0  0  0
   -0.1600    2.7870    2.0300 C   0  0  1  0  0  0  0  0  0  0  0  0
   -1.3600    2.1590    2.6520 C   0  0  0  0  0  0  0  0  0  0  0  0
   -2.2840    1.4750    1.7560 C   0  0  0  0  0  0  0  0  0  0  0  0
   -2.3500    1.2760    0.4070 C   0  0  0  0  0  0  0  0  0  0  0  0
   -3.4790    0.5580    0.1340 N   0  0  0  0  0  0  0  0  0  0  0  0
   -4.0930    0.3200    1.2840 C   0  0  0  0  0  0  0  0  0  0  0  0
   -3.3980    0.8580    2.2660 N   0  0  0  0  0  0  0  0  0  0  0  0
    0.6740    3.4560    3.1070 C   0  0  0  0  0  0  0  0  0  0  0  0
    1.8470    3.1210    3.3490 O   0  0  0  0  0  0  0  0  0  0  0  0
    0.1090    4.4800    3.8520 O   0  0  0  0  0  0  0  0  0  0  0  0
    0.8410    0.8710    1.9180 H   0  0  0  0  0  0  0  0  0  0  0  0
   -0.4300    3.6010    1.3620 H   0  0  0  0  0  0  0  0  0  0  0  0
   -1.0850    1.5060    3.5360 H   0  0  0  0  0  0  0  0  0  0  0  0
   -1.9380    3.0000    3.1380 H   0  0  0  0  0  0  0  0  0  0  0  0
   -1.6320    1.6370   -0.2870 H   0  0  0  0  0  0  0  0  0  0  0  0
   -3.7690    0.2670   -0.8390 H   0  0  0  0  0  0  0  0  0  0  0  0
   -5.0290   -0.2340    1.4060 H   0  0  0  0  0  0  0  0  0  0  0  0
  1 11  1  0  0  0  0
  1 12  1  0  0  0  0
  2  1  1  0  0  0  0
  2 13  1  1  0  0  0
  3  2  1  0  0  0  0
  3 15  1  0  0  0  0
  4  3  1  0  0  0  0
  5 16  1  0  0  0  0
  5  4  2  0  0  0  0
  6  7  1  0  0  0  0
  6  5  1  0  0  0  0
  7  8  2  0  0  0  0
  8  4  1  0  0  0  0
  9  2  1  0  0  0  0
 10  9  2  0  0  0  0
 14  3  1  0  0  0  0
 17  6  1  0  0  0  0
 18  7  1  0  0  0  0
 19 23  1  0  0  0  0
 19  9  1  0  0  0  0
 20 21  1  0  0  0  0
 20 19  1  0  0  0  0
 21 26  1  0  0  0  0
 22 21  2  0  0  0  0
 24 20  1  0  0  0  0
 25 20  1  0  0  0  0
 26 37  1  0  0  0  0
 26 27  1  0  0  0  0
 27 38  1  6  0  0  0
 27 28  1  0  0  0  0
 27 34  1  0  0  0  0
 28 40  1  0  0  0  0
 28 39  1  0  0  0  0
 29 33  1  0  0  0  0
 29 28  1  0  0  0  0
 30 29  2  0  0  0  0
 31 30  1  0  0  0  0
 31 32  1  0  0  0  0
 32 43  1  0  0  0  0
 32 33  2  0  0  0  0
 34 35  2  0  0  0  0
 34 36  1  0  0  0  0
 41 30  1  0  0  0  0
 42 31  1  0  0  0  0
M  END
$$$$
