HGI.pdb
 OpenBabel07022418363D

 45 45  0  0  1  0  0  0  0  0999 V2000
    0.2660   -3.9320   -3.2310 N   0  0  0  0  0  0  0  0  0  0  0  0
   -0.1630   -3.2910   -2.0100 C   0  0  1  0  0  0  0  0  0  0  0  0
    0.5800   -3.9420   -0.8510 C   0  0  0  0  0  0  0  0  0  0  0  0
    2.0430   -3.7830   -0.9970 C   0  0  0  0  0  0  0  0  0  0  0  0
    3.0220   -4.2410   -0.1450 C   0  0  0  0  0  0  0  0  0  0  0  0
    4.2180   -3.8940   -0.6310 N   0  0  0  0  0  0  0  0  0  0  0  0
    4.0330   -3.2250   -1.7730 C   0  0  0  0  0  0  0  0  0  0  0  0
    2.7090   -3.1650   -1.9840 N   0  0  0  0  0  0  0  0  0  0  0  0
    0.0550   -1.8330   -2.0470 C   0  0  0  0  0  0  0  0  0  0  0  0
    0.5520   -1.2480   -3.0290 O   0  0  0  0  0  0  0  0  0  0  0  0
   -0.5110   -4.5230   -3.5980 H   0  0  0  0  0  0  0  0  0  0  0  0
    1.0770   -4.5440   -3.0150 H   0  0  0  0  0  0  0  0  0  0  0  0
   -1.2520   -3.4900   -1.8560 H   0  0  0  0  0  0  0  0  0  0  0  0
    0.1980   -3.5150    0.1010 H   0  0  0  0  0  0  0  0  0  0  0  0
    0.3530   -5.0210   -0.8480 H   0  0  0  0  0  0  0  0  0  0  0  0
    2.8600   -4.8010    0.7850 H   0  0  0  0  0  0  0  0  0  0  0  0
    5.1540   -4.1020   -0.2040 H   0  0  0  0  0  0  0  0  0  0  0  0
    4.8060   -2.7960   -2.4310 H   0  0  0  0  0  0  0  0  0  0  0  0
   -0.3080   -0.9930   -0.9140 N   0  0  0  0  0  0  0  0  0  0  0  0
   -0.0690    0.4070   -1.0190 C   0  0  0  0  0  0  0  0  0  0  0  0
   -0.4720    1.1620    0.1750 C   0  0  0  0  0  0  0  0  0  0  0  0
   -0.2790    2.4570    0.1530 O   0  0  0  0  0  0  0  0  0  0  0  0
   -0.7180   -1.4500   -0.0930 H   0  0  0  0  0  0  0  0  0  0  0  0
   -0.5280    0.8400   -1.9510 H   0  0  0  0  0  0  0  0  0  0  0  0
    1.0560    0.5890   -1.1250 H   0  0  0  0  0  0  0  0  0  0  0  0
    1.1140    1.7670    4.1510 C   0  0  0  0  0  0  0  0  0  0  0  0
    0.6390    2.6210    2.9860 C   0  0  0  0  0  0  0  0  0  0  0  0
   -0.8370    2.5630    2.7990 C   0  0  2  0  0  0  0  0  0  0  0  0
   -1.4580    3.0750    4.1130 C   0  0  0  0  0  0  0  0  0  0  0  0
   -1.4280    1.2370    2.5050 C   0  0  2  0  0  0  0  0  0  0  0  0
   -1.0350    0.5660    1.3010 N   0  0  0  0  0  0  0  0  0  0  0  0
   -2.8730    1.1490    2.6780 C   0  0  0  0  0  0  0  0  0  0  0  0
   -3.5480    1.6080    3.6400 O   0  0  0  0  0  0  0  0  0  0  0  0
   -3.6140    0.4800    1.6720 O   0  0  0  0  0  0  0  0  0  0  0  0
    0.4700    1.9910    5.0070 H   0  0  0  0  0  0  0  0  0  0  0  0
    1.2180    0.7120    3.9010 H   0  0  0  0  0  0  0  0  0  0  0  0
    2.1370    2.1450    4.4050 H   0  0  0  0  0  0  0  0  0  0  0  0
    1.2910    2.3940    2.1580 H   0  0  0  0  0  0  0  0  0  0  0  0
    0.8730    3.6830    3.2950 H   0  0  0  0  0  0  0  0  0  0  0  0
   -1.1450    3.3100    2.0530 H   0  0  0  0  0  0  0  0  0  0  0  0
   -0.7780    3.8210    4.5810 H   0  0  0  0  0  0  0  0  0  0  0  0
   -1.6470    2.2110    4.7610 H   0  0  0  0  0  0  0  0  0  0  0  0
   -2.4110    3.5760    3.8930 H   0  0  0  0  0  0  0  0  0  0  0  0
   -0.9580    0.5850    3.3560 H   0  0  0  0  0  0  0  0  0  0  0  0
   -1.2230   -0.4820    1.3340 H   0  0  0  0  0  0  0  0  0  0  0  0
  1 12  1  0  0  0  0
  1  2  1  0  0  0  0
  2 13  1  1  0  0  0
  2  3  1  0  0  0  0
  3 15  1  0  0  0  0
  3 14  1  0  0  0  0
  4  3  1  0  0  0  0
  4  5  2  0  0  0  0
  5 16  1  0  0  0  0
  6 17  1  0  0  0  0
  6  5  1  0  0  0  0
  7  6  1  0  0  0  0
  8  7  2  0  0  0  0
  8  4  1  0  0  0  0
  9  2  1  0  0  0  0
  9 19  1  0  0  0  0
 10  9  2  0  0  0  0
 11  1  1  0  0  0  0
 18  7  1  0  0  0  0
 19 23  1  0  0  0  0
 20 19  1  0  0  0  0
 20 21  1  0  0  0  0
 21 31  1  0  0  0  0
 22 21  2  0  0  0  0
 24 20  1  0  0  0  0
 25 20  1  0  0  0  0
 26 37  1  0  0  0  0
 26 35  1  0  0  0  0
 27 39  1  0  0  0  0
 27 26  1  0  0  0  0
 28 40  1  6  0  0  0
 28 27  1  0  0  0  0
 28 29  1  0  0  0  0
 29 41  1  0  0  0  0
 29 42  1  0  0  0  0
 30 32  1  0  0  0  0
 30 28  1  0  0  0  0
 30 44  1  1  0  0  0
 31 45  1  0  0  0  0
 31 30  1  0  0  0  0
 32 33  1  0  0  0  0
 34 32  2  0  0  0  0
 36 26  1  0  0  0  0
 38 27  1  0  0  0  0
 43 29  1  0  0  0  0
M  END
$$$$
