HGK.pdb
 OpenBabel07022418363D

 47 47  0  0  1  0  0  0  0  0999 V2000
   -0.6930   -2.6690   -1.7360 N   0  0  0  0  0  0  0  0  0  0  0  0
    0.5950   -2.4500   -1.1100 C   0  0  1  0  0  0  0  0  0  0  0  0
    1.6900   -3.1910   -1.8410 C   0  0  0  0  0  0  0  0  0  0  0  0
    3.0120   -2.9920   -1.2340 C   0  0  0  0  0  0  0  0  0  0  0  0
    3.5900   -3.7560   -0.2500 C   0  0  0  0  0  0  0  0  0  0  0  0
    4.8000   -3.2620    0.0440 N   0  0  0  0  0  0  0  0  0  0  0  0
    4.9890   -2.1860   -0.7540 C   0  0  0  0  0  0  0  0  0  0  0  0
    3.8950   -2.0290   -1.5280 N   0  0  0  0  0  0  0  0  0  0  0  0
    0.8430   -1.0080   -1.0140 C   0  0  0  0  0  0  0  0  0  0  0  0
    1.9050   -0.5260   -0.5040 O   0  0  0  0  0  0  0  0  0  0  0  0
   -0.9790   -3.6620   -1.5470 H   0  0  0  0  0  0  0  0  0  0  0  0
   -0.7100   -2.4430   -2.7380 H   0  0  0  0  0  0  0  0  0  0  0  0
    0.5270   -2.8630   -0.0720 H   0  0  0  0  0  0  0  0  0  0  0  0
    1.6870   -2.7770   -2.8910 H   0  0  0  0  0  0  0  0  0  0  0  0
    1.4000   -4.2560   -1.9540 H   0  0  0  0  0  0  0  0  0  0  0  0
    3.1770   -4.6400    0.2550 H   0  0  0  0  0  0  0  0  0  0  0  0
    5.4710   -3.6370    0.7540 H   0  0  0  0  0  0  0  0  0  0  0  0
    5.8900   -1.5660   -0.7480 H   0  0  0  0  0  0  0  0  0  0  0  0
   -0.1200   -0.0770   -1.5020 N   0  0  0  0  0  0  0  0  0  0  0  0
    0.0170    1.3520   -1.4470 C   0  0  0  0  0  0  0  0  0  0  0  0
    0.0490    1.8650   -0.0760 C   0  0  0  0  0  0  0  0  0  0  0  0
    0.2330    3.1050    0.1780 O   0  0  0  0  0  0  0  0  0  0  0  0
   -0.9950   -0.4610   -1.9330 H   0  0  0  0  0  0  0  0  0  0  0  0
   -0.7620    1.8510   -2.0730 H   0  0  0  0  0  0  0  0  0  0  0  0
    0.9900    1.6480   -1.9550 H   0  0  0  0  0  0  0  0  0  0  0  0
   -0.1320    0.9890    1.0370 N   0  0  0  0  0  0  0  0  0  0  0  0
   -0.0940    1.4850    2.3760 C   0  0  1  0  0  0  0  0  0  0  0  0
   -1.3390    1.5890    3.1480 C   0  0  0  0  0  0  0  0  0  0  0  0
   -2.1620    0.4130    3.4610 C   0  0  0  0  0  0  0  0  0  0  0  0
   -2.7710   -0.3820    2.3790 C   0  0  0  0  0  0  0  0  0  0  0  0
   -3.6760    0.4020    1.4620 C   0  0  0  0  0  0  0  0  0  0  0  0
   -4.7860    1.0100    2.1220 N   0  0  0  0  0  0  0  0  0  0  0  0
    0.8780    0.6490    3.1510 C   0  0  0  0  0  0  0  0  0  0  0  0
    1.5070   -0.3100    2.6130 O   0  0  0  0  0  0  0  0  0  0  0  0
    1.1450    0.8770    4.4960 O   0  0  0  0  0  0  0  0  0  0  0  0
   -0.2870   -0.0190    0.8750 H   0  0  0  0  0  0  0  0  0  0  0  0
    0.3840    2.5330    2.3780 H   0  0  0  0  0  0  0  0  0  0  0  0
   -2.0280    2.4010    2.7600 H   0  0  0  0  0  0  0  0  0  0  0  0
   -1.0360    2.0350    4.1640 H   0  0  0  0  0  0  0  0  0  0  0  0
   -1.4620   -0.3150    4.0100 H   0  0  0  0  0  0  0  0  0  0  0  0
   -2.9080    0.6320    4.2970 H   0  0  0  0  0  0  0  0  0  0  0  0
   -2.0440   -0.9340    1.7980 H   0  0  0  0  0  0  0  0  0  0  0  0
   -3.3840   -1.1900    2.8970 H   0  0  0  0  0  0  0  0  0  0  0  0
   -3.1160    1.1290    0.8550 H   0  0  0  0  0  0  0  0  0  0  0  0
   -4.0990   -0.3410    0.7260 H   0  0  0  0  0  0  0  0  0  0  0  0
   -4.9820    0.6670    3.0710 H   0  0  0  0  0  0  0  0  0  0  0  0
   -4.8280    2.0440    2.0090 H   0  0  0  0  0  0  0  0  0  0  0  0
  1 11  1  0  0  0  0
  1  2  1  0  0  0  0
  2  9  1  0  0  0  0
  2 13  1  1  0  0  0
  3  4  1  0  0  0  0
  3  2  1  0  0  0  0
  4  5  2  0  0  0  0
  5  6  1  0  0  0  0
  5 16  1  0  0  0  0
  6 17  1  0  0  0  0
  7 18  1  0  0  0  0
  7  6  1  0  0  0  0
  8  4  1  0  0  0  0
  8  7  2  0  0  0  0
  9 10  2  0  0  0  0
 12  1  1  0  0  0  0
 14  3  1  0  0  0  0
 15  3  1  0  0  0  0
 19 20  1  0  0  0  0
 19  9  1  0  0  0  0
 20 21  1  0  0  0  0
 21 22  2  0  0  0  0
 21 26  1  0  0  0  0
 23 19  1  0  0  0  0
 24 20  1  0  0  0  0
 25 20  1  0  0  0  0
 26 27  1  0  0  0  0
 27 37  1  6  0  0  0
 27 28  1  0  0  0  0
 27 33  1  0  0  0  0
 28 29  1  0  0  0  0
 28 39  1  0  0  0  0
 29 40  1  0  0  0  0
 29 41  1  0  0  0  0
 30 43  1  0  0  0  0
 30 29  1  0  0  0  0
 31 32  1  0  0  0  0
 31 30  1  0  0  0  0
 32 46  1  0  0  0  0
 33 35  1  0  0  0  0
 34 33  2  0  0  0  0
 36 26  1  0  0  0  0
 38 28  1  0  0  0  0
 42 30  1  0  0  0  0
 44 31  1  0  0  0  0
 45 31  1  0  0  0  0
 47 32  1  0  0  0  0
M  END
$$$$
