HGM.pdb
 OpenBabel07022418363D

 43 43  0  0  1  0  0  0  0  0999 V2000
   -1.1320   -4.2350   -0.6930 N   0  0  0  0  0  0  0  0  0  0  0  0
   -0.1590   -3.8500    0.2680 C   0  0  1  0  0  0  0  0  0  0  0  0
    1.1940   -3.5640   -0.2660 C   0  0  0  0  0  0  0  0  0  0  0  0
    1.2380   -2.4910   -1.2950 C   0  0  0  0  0  0  0  0  0  0  0  0
    2.3780   -2.0280   -1.9330 C   0  0  0  0  0  0  0  0  0  0  0  0
    2.0570   -1.0590   -2.8010 N   0  0  0  0  0  0  0  0  0  0  0  0
    0.7260   -0.9110   -2.7100 C   0  0  0  0  0  0  0  0  0  0  0  0
    0.2320   -1.7700   -1.8070 N   0  0  0  0  0  0  0  0  0  0  0  0
   -0.6660   -2.8360    1.2100 C   0  0  0  0  0  0  0  0  0  0  0  0
    0.0790   -2.4640    2.1740 O   0  0  0  0  0  0  0  0  0  0  0  0
   -1.0950   -5.1990   -1.0270 H   0  0  0  0  0  0  0  0  0  0  0  0
   -1.4070   -3.5160   -1.3710 H   0  0  0  0  0  0  0  0  0  0  0  0
   -0.0470   -4.7910    0.9340 H   0  0  0  0  0  0  0  0  0  0  0  0
    1.8550   -3.2330    0.5760 H   0  0  0  0  0  0  0  0  0  0  0  0
    1.6730   -4.5120   -0.6340 H   0  0  0  0  0  0  0  0  0  0  0  0
    3.3710   -2.4100   -1.7410 H   0  0  0  0  0  0  0  0  0  0  0  0
    2.6720   -0.5060   -3.4340 H   0  0  0  0  0  0  0  0  0  0  0  0
    0.1600   -0.1790   -3.3100 H   0  0  0  0  0  0  0  0  0  0  0  0
   -1.9630   -2.2480    1.0980 N   0  0  0  0  0  0  0  0  0  0  0  0
   -2.5210   -1.2820    1.9690 C   0  0  0  0  0  0  0  0  0  0  0  0
   -1.7840   -0.0160    1.9950 C   0  0  0  0  0  0  0  0  0  0  0  0
   -2.1640    0.9250    2.7770 O   0  0  0  0  0  0  0  0  0  0  0  0
   -2.5400   -2.5820    0.2810 H   0  0  0  0  0  0  0  0  0  0  0  0
   -2.6580   -1.6740    3.0170 H   0  0  0  0  0  0  0  0  0  0  0  0
   -3.5630   -1.0410    1.6360 H   0  0  0  0  0  0  0  0  0  0  0  0
    1.5040    2.9410    4.6870 C   0  0  0  0  0  0  0  0  0  0  0  0
    1.6070    3.5400    3.0010 S   0  0  0  0  0  0  0  0  0  0  0  0
    2.3380    2.3320    1.8790 C   0  0  0  0  0  0  0  0  0  0  0  0
    1.4350    1.1510    1.7550 C   0  0  0  0  0  0  0  0  0  0  0  0
    0.0690    1.5130    1.2370 C   0  0  2  0  0  0  0  0  0  0  0  0
   -0.6650    0.2250    1.1900 N   0  0  0  0  0  0  0  0  0  0  0  0
    0.0440    2.1680   -0.0660 C   0  0  0  0  0  0  0  0  0  0  0  0
   -0.5210    1.5830   -1.0470 O   0  0  0  0  0  0  0  0  0  0  0  0
    0.6130    3.4010   -0.2660 O   0  0  0  0  0  0  0  0  0  0  0  0
    1.7600    3.7510    5.4120 H   0  0  0  0  0  0  0  0  0  0  0  0
    2.0910    2.0430    4.8900 H   0  0  0  0  0  0  0  0  0  0  0  0
    0.4260    2.7000    4.9010 H   0  0  0  0  0  0  0  0  0  0  0  0
    2.4760    2.7930    0.8870 H   0  0  0  0  0  0  0  0  0  0  0  0
    3.3480    2.0000    2.2330 H   0  0  0  0  0  0  0  0  0  0  0  0
    1.8660    0.3520    1.1110 H   0  0  0  0  0  0  0  0  0  0  0  0
    1.2640    0.6810    2.7610 H   0  0  0  0  0  0  0  0  0  0  0  0
   -0.4490    2.1370    1.9980 H   0  0  0  0  0  0  0  0  0  0  0  0
   -0.2860   -0.4510    0.5160 H   0  0  0  0  0  0  0  0  0  0  0  0
  1  2  1  0  0  0  0
  2 13  1  1  0  0  0
  2  9  1  0  0  0  0
  3  2  1  0  0  0  0
  3 14  1  0  0  0  0
  4  3  1  0  0  0  0
  5 16  1  0  0  0  0
  5  4  2  0  0  0  0
  6  7  1  0  0  0  0
  6  5  1  0  0  0  0
  7  8  2  0  0  0  0
  8  4  1  0  0  0  0
  9 10  2  0  0  0  0
 11  1  1  0  0  0  0
 12  1  1  0  0  0  0
 15  3  1  0  0  0  0
 17  6  1  0  0  0  0
 18  7  1  0  0  0  0
 19  9  1  0  0  0  0
 19 20  1  0  0  0  0
 20 21  1  0  0  0  0
 20 24  1  0  0  0  0
 21 22  2  0  0  0  0
 23 19  1  0  0  0  0
 25 20  1  0  0  0  0
 26 36  1  0  0  0  0
 26 37  1  0  0  0  0
 26 35  1  0  0  0  0
 27 26  1  0  0  0  0
 28 39  1  0  0  0  0
 28 27  1  0  0  0  0
 29 28  1  0  0  0  0
 29 41  1  0  0  0  0
 30 29  1  0  0  0  0
 30 42  1  1  0  0  0
 31 30  1  0  0  0  0
 31 21  1  0  0  0  0
 32 30  1  0  0  0  0
 33 32  2  0  0  0  0
 34 32  1  0  0  0  0
 38 28  1  0  0  0  0
 40 29  1  0  0  0  0
 43 31  1  0  0  0  0
M  END
$$$$
