HGQ.pdb
 OpenBabel07022418363D

 43 43  0  0  1  0  0  0  0  0999 V2000
   -1.4750   -3.3740    1.1340 N   0  0  0  0  0  0  0  0  0  0  0  0
   -0.1660   -3.1460    0.4620 C   0  0  1  0  0  0  0  0  0  0  0  0
    0.0030   -4.3220   -0.4270 C   0  0  0  0  0  0  0  0  0  0  0  0
    1.2290   -4.4390   -1.1890 C   0  0  0  0  0  0  0  0  0  0  0  0
    2.3700   -3.7000   -1.1950 C   0  0  0  0  0  0  0  0  0  0  0  0
    3.2680   -4.2540   -2.0700 N   0  0  0  0  0  0  0  0  0  0  0  0
    2.6580   -5.3180   -2.5770 C   0  0  0  0  0  0  0  0  0  0  0  0
    1.4420   -5.4580   -2.0750 N   0  0  0  0  0  0  0  0  0  0  0  0
   -0.3330   -1.8580   -0.2660 C   0  0  0  0  0  0  0  0  0  0  0  0
    0.5300   -1.3310   -1.0070 O   0  0  0  0  0  0  0  0  0  0  0  0
   -1.6340   -2.7170    1.8990 H   0  0  0  0  0  0  0  0  0  0  0  0
   -2.2140   -3.5130    0.4450 H   0  0  0  0  0  0  0  0  0  0  0  0
    0.6500   -3.0860    1.1810 H   0  0  0  0  0  0  0  0  0  0  0  0
   -0.8690   -4.3370   -1.1270 H   0  0  0  0  0  0  0  0  0  0  0  0
   -0.1830   -5.2330    0.2270 H   0  0  0  0  0  0  0  0  0  0  0  0
    2.6200   -2.8220   -0.6240 H   0  0  0  0  0  0  0  0  0  0  0  0
    4.2260   -3.9040   -2.2840 H   0  0  0  0  0  0  0  0  0  0  0  0
    3.1350   -5.9730   -3.3170 H   0  0  0  0  0  0  0  0  0  0  0  0
   -1.5540   -1.1430   -0.1330 N   0  0  0  0  0  0  0  0  0  0  0  0
   -1.7530    0.1210   -0.8130 C   0  0  0  0  0  0  0  0  0  0  0  0
   -0.8140    1.1590   -0.3320 C   0  0  0  0  0  0  0  0  0  0  0  0
   -0.8950    2.2930   -0.9330 O   0  0  0  0  0  0  0  0  0  0  0  0
   -2.3690   -1.4870    0.4580 H   0  0  0  0  0  0  0  0  0  0  0  0
   -2.8060    0.4650   -0.7350 H   0  0  0  0  0  0  0  0  0  0  0  0
   -1.5060   -0.0400   -1.8970 H   0  0  0  0  0  0  0  0  0  0  0  0
   -1.4100    3.8220    5.1560 N   0  0  0  0  0  0  0  0  0  0  0  0
   -0.2820    3.3520    4.3960 C   0  0  0  0  0  0  0  0  0  0  0  0
    0.8070    3.2940    5.0220 O   0  0  0  0  0  0  0  0  0  0  0  0
   -0.4190    2.9670    2.9650 C   0  0  0  0  0  0  0  0  0  0  0  0
    0.9220    2.5290    2.4760 C   0  0  0  0  0  0  0  0  0  0  0  0
    0.9740    2.1040    1.0510 C   0  0  2  0  0  0  0  0  0  0  0  0
    0.1340    1.0020    0.7110 N   0  0  0  0  0  0  0  0  0  0  0  0
    2.3950    1.7570    0.7410 C   0  0  0  0  0  0  0  0  0  0  0  0
    2.6930    0.6370    0.2570 O   0  0  0  0  0  0  0  0  0  0  0  0
    3.4310    2.6490    0.9730 O   0  0  0  0  0  0  0  0  0  0  0  0
   -1.4920    3.6560    6.1800 H   0  0  0  0  0  0  0  0  0  0  0  0
   -2.1870    4.3460    4.7000 H   0  0  0  0  0  0  0  0  0  0  0  0
   -0.7100    3.8910    2.4120 H   0  0  0  0  0  0  0  0  0  0  0  0
   -1.2020    2.2120    2.9040 H   0  0  0  0  0  0  0  0  0  0  0  0
    1.6310    3.3710    2.6160 H   0  0  0  0  0  0  0  0  0  0  0  0
    1.2740    1.7120    3.1440 H   0  0  0  0  0  0  0  0  0  0  0  0
    0.7290    2.9610    0.3960 H   0  0  0  0  0  0  0  0  0  0  0  0
    0.1440    0.0760    1.1840 H   0  0  0  0  0  0  0  0  0  0  0  0
  1 11  1  0  0  0  0
  2  1  1  0  0  0  0
  2 13  1  1  0  0  0
  3 15  1  0  0  0  0
  3  2  1  0  0  0  0
  4  3  1  0  0  0  0
  5  4  2  0  0  0  0
  5 16  1  0  0  0  0
  6  5  1  0  0  0  0
  7  8  2  0  0  0  0
  7  6  1  0  0  0  0
  8  4  1  0  0  0  0
  9 19  1  0  0  0  0
  9  2  1  0  0  0  0
 10  9  2  0  0  0  0
 12  1  1  0  0  0  0
 14  3  1  0  0  0  0
 17  6  1  0  0  0  0
 18  7  1  0  0  0  0
 19 23  1  0  0  0  0
 20 24  1  0  0  0  0
 20 21  1  0  0  0  0
 20 19  1  0  0  0  0
 21 32  1  0  0  0  0
 22 21  2  0  0  0  0
 25 20  1  0  0  0  0
 26 36  1  0  0  0  0
 27 28  2  0  0  0  0
 27 26  1  0  0  0  0
 29 27  1  0  0  0  0
 30 40  1  0  0  0  0
 30 29  1  0  0  0  0
 30 41  1  0  0  0  0
 31 42  1  6  0  0  0
 31 30  1  0  0  0  0
 32 31  1  0  0  0  0
 32 43  1  0  0  0  0
 33 35  1  0  0  0  0
 33 31  1  0  0  0  0
 34 33  2  0  0  0  0
 37 26  1  0  0  0  0
 38 29  1  0  0  0  0
 39 29  1  0  0  0  0
M  END
$$$$
