HGR.pdb
 OpenBabel07022418363D

 49 49  0  0  1  0  0  0  0  0999 V2000
    3.6350   -2.6700    3.3050 N   0  0  0  0  0  0  0  0  0  0  0  0
    2.6180   -1.8930    2.6370 C   0  0  1  0  0  0  0  0  0  0  0  0
    3.0740   -0.5040    2.2600 C   0  0  0  0  0  0  0  0  0  0  0  0
    4.2180   -0.4710    1.3510 C   0  0  0  0  0  0  0  0  0  0  0  0
    4.1530   -0.4620   -0.0250 C   0  0  0  0  0  0  0  0  0  0  0  0
    5.3880   -0.4300   -0.5310 N   0  0  0  0  0  0  0  0  0  0  0  0
    6.2520   -0.4180    0.4980 C   0  0  0  0  0  0  0  0  0  0  0  0
    5.5250   -0.4430    1.6560 N   0  0  0  0  0  0  0  0  0  0  0  0
    2.0740   -2.6490    1.5180 C   0  0  0  0  0  0  0  0  0  0  0  0
    2.4680   -3.8100    1.2730 O   0  0  0  0  0  0  0  0  0  0  0  0
    3.3530   -3.6750    3.2440 H   0  0  0  0  0  0  0  0  0  0  0  0
    3.6490   -2.4080    4.3320 H   0  0  0  0  0  0  0  0  0  0  0  0
    1.7910   -1.7500    3.3850 H   0  0  0  0  0  0  0  0  0  0  0  0
    2.1720    0.0220    1.8640 H   0  0  0  0  0  0  0  0  0  0  0  0
    3.2930    0.0190    3.2360 H   0  0  0  0  0  0  0  0  0  0  0  0
    3.2080   -0.4800   -0.5840 H   0  0  0  0  0  0  0  0  0  0  0  0
    5.5780   -0.4170   -1.5690 H   0  0  0  0  0  0  0  0  0  0  0  0
    7.3290   -0.3920    0.3890 H   0  0  0  0  0  0  0  0  0  0  0  0
    1.0690   -2.0810    0.6600 N   0  0  0  0  0  0  0  0  0  0  0  0
    0.5250   -2.8100   -0.4460 C   0  0  0  0  0  0  0  0  0  0  0  0
   -0.4780   -2.0610   -1.2050 C   0  0  0  0  0  0  0  0  0  0  0  0
   -1.0140   -2.6420   -2.2170 O   0  0  0  0  0  0  0  0  0  0  0  0
    0.7820   -1.1300    0.9040 H   0  0  0  0  0  0  0  0  0  0  0  0
    1.3310   -3.2300   -1.1050 H   0  0  0  0  0  0  0  0  0  0  0  0
    0.0150   -3.7450   -0.0510 H   0  0  0  0  0  0  0  0  0  0  0  0
   -2.7220    1.5790    3.8850 N   0  0  0  0  0  0  0  0  0  0  0  0
   -3.2940    1.0090    2.6970 C   0  0  0  0  0  0  0  0  0  0  0  0
   -4.4950    1.3320    2.3580 N   0  0  0  0  0  0  0  0  0  0  0  0
   -2.5700    0.0970    1.8910 N   0  0  0  0  0  0  0  0  0  0  0  0
   -3.2410   -0.8030    0.9850 C   0  0  0  0  0  0  0  0  0  0  0  0
   -3.8980   -0.1610   -0.1790 C   0  0  0  0  0  0  0  0  0  0  0  0
   -3.0270    0.6190   -1.1000 C   0  0  0  0  0  0  0  0  0  0  0  0
   -1.9460   -0.1110   -1.7980 C   0  0  2  0  0  0  0  0  0  0  0  0
   -0.9500   -0.7470   -0.9700 N   0  0  0  0  0  0  0  0  0  0  0  0
   -1.1990    0.8330   -2.7030 C   0  0  0  0  0  0  0  0  0  0  0  0
    0.0470    0.9540   -2.6430 O   0  0  0  0  0  0  0  0  0  0  0  0
   -1.8530    1.6090   -3.6400 O   0  0  0  0  0  0  0  0  0  0  0  0
   -2.3040    2.5230    3.8010 H   0  0  0  0  0  0  0  0  0  0  0  0
   -2.7190    1.0840    4.7920 H   0  0  0  0  0  0  0  0  0  0  0  0
   -5.0280    1.9990    2.9490 H   0  0  0  0  0  0  0  0  0  0  0  0
   -1.5230    0.1160    1.9930 H   0  0  0  0  0  0  0  0  0  0  0  0
   -2.5150   -1.5690    0.6650 H   0  0  0  0  0  0  0  0  0  0  0  0
   -4.0630   -1.3560    1.5390 H   0  0  0  0  0  0  0  0  0  0  0  0
   -4.7350    0.4790    0.1780 H   0  0  0  0  0  0  0  0  0  0  0  0
   -4.4250   -0.9930   -0.7420 H   0  0  0  0  0  0  0  0  0  0  0  0
   -2.6480    1.4940   -0.5060 H   0  0  0  0  0  0  0  0  0  0  0  0
   -3.6660    1.1030   -1.9040 H   0  0  0  0  0  0  0  0  0  0  0  0
   -2.3480   -0.9000   -2.4930 H   0  0  0  0  0  0  0  0  0  0  0  0
   -0.5540   -0.2230   -0.1630 H   0  0  0  0  0  0  0  0  0  0  0  0
  1 12  1  0  0  0  0
  2  1  1  0  0  0  0
  2 13  1  1  0  0  0
  3  2  1  0  0  0  0
  3 15  1  0  0  0  0
  4  8  1  0  0  0  0
  4  3  1  0  0  0  0
  5  4  2  0  0  0  0
  6  5  1  0  0  0  0
  6  7  1  0  0  0  0
  7  8  2  0  0  0  0
  9  2  1  0  0  0  0
 10  9  2  0  0  0  0
 11  1  1  0  0  0  0
 14  3  1  0  0  0  0
 16  5  1  0  0  0  0
 17  6  1  0  0  0  0
 18  7  1  0  0  0  0
 19 23  1  0  0  0  0
 19  9  1  0  0  0  0
 20 25  1  0  0  0  0
 20 19  1  0  0  0  0
 21 34  1  0  0  0  0
 21 20  1  0  0  0  0
 22 21  2  0  0  0  0
 24 20  1  0  0  0  0
 26 39  1  0  0  0  0
 27 26  1  0  0  0  0
 28 27  2  0  0  0  0
 28 40  1  0  0  0  0
 29 41  1  0  0  0  0
 29 27  1  0  0  0  0
 30 43  1  0  0  0  0
 30 29  1  0  0  0  0
 31 44  1  0  0  0  0
 31 30  1  0  0  0  0
 32 46  1  0  0  0  0
 32 31  1  0  0  0  0
 33 48  1  6  0  0  0
 33 32  1  0  0  0  0
 33 34  1  0  0  0  0
 34 49  1  0  0  0  0
 35 36  1  0  0  0  0
 35 33  1  0  0  0  0
 37 35  2  0  0  0  0
 38 26  1  0  0  0  0
 42 30  1  0  0  0  0
 45 31  1  0  0  0  0
 47 32  1  0  0  0  0
M  END
$$$$
