HGS.pdb
 OpenBabel07022418363D

 37 37  0  0  1  0  0  0  0  0999 V2000
   -2.0790   -2.1500   -1.1540 N   0  0  0  0  0  0  0  0  0  0  0  0
   -1.1750   -2.2340   -0.0210 C   0  0  1  0  0  0  0  0  0  0  0  0
   -0.7880   -3.6720    0.2570 C   0  0  0  0  0  0  0  0  0  0  0  0
    0.1250   -3.8390    1.3910 C   0  0  0  0  0  0  0  0  0  0  0  0
   -0.2450   -4.0250    2.7000 C   0  0  0  0  0  0  0  0  0  0  0  0
    0.8820   -4.1400    3.4660 N   0  0  0  0  0  0  0  0  0  0  0  0
    1.9310   -4.0280    2.6380 C   0  0  0  0  0  0  0  0  0  0  0  0
    1.4590   -3.8440    1.3730 N   0  0  0  0  0  0  0  0  0  0  0  0
    0.0650   -1.4500   -0.2560 C   0  0  0  0  0  0  0  0  0  0  0  0
    0.9320   -1.3600    0.6480 O   0  0  0  0  0  0  0  0  0  0  0  0
   -2.9730   -2.6290   -0.9050 H   0  0  0  0  0  0  0  0  0  0  0  0
   -2.2520   -1.1890   -1.4630 H   0  0  0  0  0  0  0  0  0  0  0  0
   -1.7380   -1.8830    0.8680 H   0  0  0  0  0  0  0  0  0  0  0  0
   -1.7210   -4.2760    0.3790 H   0  0  0  0  0  0  0  0  0  0  0  0
   -0.2600   -4.0900   -0.6420 H   0  0  0  0  0  0  0  0  0  0  0  0
   -1.2490   -4.0790    3.1180 H   0  0  0  0  0  0  0  0  0  0  0  0
    0.9030   -4.2890    4.5010 H   0  0  0  0  0  0  0  0  0  0  0  0
    2.9790   -4.0670    2.8720 H   0  0  0  0  0  0  0  0  0  0  0  0
    0.3350   -0.7790   -1.4770 N   0  0  0  0  0  0  0  0  0  0  0  0
    1.5110    0.0030   -1.7550 C   0  0  0  0  0  0  0  0  0  0  0  0
    1.6240    1.1920   -0.8750 C   0  0  0  0  0  0  0  0  0  0  0  0
    2.6450    1.9650   -0.9620 O   0  0  0  0  0  0  0  0  0  0  0  0
   -0.3880   -0.8690   -2.2230 H   0  0  0  0  0  0  0  0  0  0  0  0
    1.5020    0.3370   -2.8130 H   0  0  0  0  0  0  0  0  0  0  0  0
    2.4150   -0.6290   -1.5610 H   0  0  0  0  0  0  0  0  0  0  0  0
   -1.5200    3.2620    0.9250 O   0  0  0  0  0  0  0  0  0  0  0  0
   -0.2510    3.7670    0.6670 C   0  0  0  0  0  0  0  0  0  0  0  0
    0.8310    2.7460    0.9310 C   0  0  2  0  0  0  0  0  0  0  0  0
    0.6550    1.5630    0.0910 N   0  0  0  0  0  0  0  0  0  0  0  0
    0.9310    2.3710    2.3630 C   0  0  0  0  0  0  0  0  0  0  0  0
    0.8670    1.1760    2.7560 O   0  0  0  0  0  0  0  0  0  0  0  0
    1.1020    3.3380    3.3430 O   0  0  0  0  0  0  0  0  0  0  0  0
   -2.1720    3.9750    0.8370 H   0  0  0  0  0  0  0  0  0  0  0  0
   -0.1050    4.6610    1.3050 H   0  0  0  0  0  0  0  0  0  0  0  0
   -0.1620    4.0780   -0.3790 H   0  0  0  0  0  0  0  0  0  0  0  0
    1.7950    3.2020    0.6400 H   0  0  0  0  0  0  0  0  0  0  0  0
   -0.2230    0.9720    0.1880 H   0  0  0  0  0  0  0  0  0  0  0  0
  1 11  1  0  0  0  0
  1  2  1  0  0  0  0
  2  3  1  0  0  0  0
  2 13  1  1  0  0  0
  3 14  1  0  0  0  0
  3  4  1  0  0  0  0
  4  5  2  0  0  0  0
  5 16  1  0  0  0  0
  5  6  1  0  0  0  0
  6 17  1  0  0  0  0
  7 18  1  0  0  0  0
  7  6  1  0  0  0  0
  8  4  1  0  0  0  0
  8  7  2  0  0  0  0
  9  2  1  0  0  0  0
  9 10  2  0  0  0  0
 12  1  1  0  0  0  0
 15  3  1  0  0  0  0
 19  9  1  0  0  0  0
 20 25  1  0  0  0  0
 20 19  1  0  0  0  0
 20 21  1  0  0  0  0
 21 29  1  0  0  0  0
 22 21  2  0  0  0  0
 23 19  1  0  0  0  0
 24 20  1  0  0  0  0
 27 26  1  0  0  0  0
 27 28  1  0  0  0  0
 27 34  1  0  0  0  0
 28 36  1  6  0  0  0
 28 30  1  0  0  0  0
 29 37  1  0  0  0  0
 29 28  1  0  0  0  0
 30 31  2  0  0  0  0
 30 32  1  0  0  0  0
 33 26  1  0  0  0  0
 35 27  1  0  0  0  0
M  END
$$$$
