HGT.pdb
 OpenBabel07022418363D

 40 40  0  0  1  0  0  0  0  0999 V2000
   -2.3510   -1.7980   -0.9840 N   0  0  0  0  0  0  0  0  0  0  0  0
   -1.2010   -2.2900   -0.2460 C   0  0  1  0  0  0  0  0  0  0  0  0
   -0.8340   -3.6430   -0.8070 C   0  0  0  0  0  0  0  0  0  0  0  0
    0.3270   -4.2460   -0.1290 C   0  0  0  0  0  0  0  0  0  0  0  0
    0.2950   -5.0580    0.9780 C   0  0  0  0  0  0  0  0  0  0  0  0
    1.5550   -5.4170    1.3130 N   0  0  0  0  0  0  0  0  0  0  0  0
    2.3770   -4.8340    0.4210 C   0  0  0  0  0  0  0  0  0  0  0  0
    1.6200   -4.1170   -0.4610 N   0  0  0  0  0  0  0  0  0  0  0  0
   -0.0330   -1.3840   -0.4030 C   0  0  0  0  0  0  0  0  0  0  0  0
    1.0300   -1.6310    0.2190 O   0  0  0  0  0  0  0  0  0  0  0  0
   -2.8940   -1.0930   -0.4520 H   0  0  0  0  0  0  0  0  0  0  0  0
   -2.9880   -2.6260   -1.1080 H   0  0  0  0  0  0  0  0  0  0  0  0
   -1.4900   -2.4420    0.8140 H   0  0  0  0  0  0  0  0  0  0  0  0
   -0.5820   -3.5210   -1.9000 H   0  0  0  0  0  0  0  0  0  0  0  0
   -1.7200   -4.3410   -0.7370 H   0  0  0  0  0  0  0  0  0  0  0  0
   -0.5920   -5.3540    1.4890 H   0  0  0  0  0  0  0  0  0  0  0  0
    1.8710   -6.0230    2.0980 H   0  0  0  0  0  0  0  0  0  0  0  0
    3.4530   -4.9050    0.3870 H   0  0  0  0  0  0  0  0  0  0  0  0
   -0.0570   -0.2350   -1.2340 N   0  0  0  0  0  0  0  0  0  0  0  0
    1.0340    0.6850   -1.4200 C   0  0  0  0  0  0  0  0  0  0  0  0
    1.4300    1.3920   -0.1790 C   0  0  0  0  0  0  0  0  0  0  0  0
    2.4190    2.2110   -0.1900 O   0  0  0  0  0  0  0  0  0  0  0  0
   -0.9770   -0.0760   -1.7440 H   0  0  0  0  0  0  0  0  0  0  0  0
    1.9040    0.0830   -1.8110 H   0  0  0  0  0  0  0  0  0  0  0  0
    0.7380    1.4670   -2.1490 H   0  0  0  0  0  0  0  0  0  0  0  0
   -0.1020    3.9800    1.6680 C   0  0  0  0  0  0  0  0  0  0  0  0
    0.1870    2.9430    2.7460 C   0  0  1  0  0  0  0  0  0  0  0  0
   -0.9930    2.3260    3.0900 O   0  0  0  0  0  0  0  0  0  0  0  0
    1.2470    1.9780    2.2630 C   0  0  2  0  0  0  0  0  0  0  0  0
    0.7960    1.2510    1.0820 N   0  0  0  0  0  0  0  0  0  0  0  0
    1.7020    1.0680    3.3260 C   0  0  0  0  0  0  0  0  0  0  0  0
    1.6650   -0.1630    3.1390 O   0  0  0  0  0  0  0  0  0  0  0  0
    2.1650    1.5720    4.5170 O   0  0  0  0  0  0  0  0  0  0  0  0
   -0.5380    3.4550    0.7960 H   0  0  0  0  0  0  0  0  0  0  0  0
   -0.8390    4.7230    2.0260 H   0  0  0  0  0  0  0  0  0  0  0  0
    0.8100    4.5330    1.3940 H   0  0  0  0  0  0  0  0  0  0  0  0
    0.5530    3.5140    3.6230 H   0  0  0  0  0  0  0  0  0  0  0  0
   -1.7730    2.7220    2.6580 H   0  0  0  0  0  0  0  0  0  0  0  0
    2.1140    2.5940    1.9530 H   0  0  0  0  0  0  0  0  0  0  0  0
   -0.0280    0.6170    1.1650 H   0  0  0  0  0  0  0  0  0  0  0  0
  1 11  1  0  0  0  0
  1  2  1  0  0  0  0
  2 13  1  1  0  0  0
  3 15  1  0  0  0  0
  3  2  1  0  0  0  0
  3  4  1  0  0  0  0
  4  5  2  0  0  0  0
  5  6  1  0  0  0  0
  5 16  1  0  0  0  0
  6 17  1  0  0  0  0
  7  6  1  0  0  0  0
  8  4  1  0  0  0  0
  8  7  2  0  0  0  0
  9  2  1  0  0  0  0
  9 10  2  0  0  0  0
 12  1  1  0  0  0  0
 14  3  1  0  0  0  0
 18  7  1  0  0  0  0
 19  9  1  0  0  0  0
 20 19  1  0  0  0  0
 20 21  1  0  0  0  0
 21 30  1  0  0  0  0
 22 21  2  0  0  0  0
 23 19  1  0  0  0  0
 24 20  1  0  0  0  0
 25 20  1  0  0  0  0
 26 35  1  0  0  0  0
 26 27  1  0  0  0  0
 27 28  1  0  0  0  0
 27 37  1  1  0  0  0
 29 39  1  6  0  0  0
 29 27  1  0  0  0  0
 29 31  1  0  0  0  0
 30 40  1  0  0  0  0
 30 29  1  0  0  0  0
 31 33  1  0  0  0  0
 32 31  2  0  0  0  0
 34 26  1  0  0  0  0
 36 26  1  0  0  0  0
 38 28  1  0  0  0  0
M  END
$$$$
