HGV.pdb
 OpenBabel07022418363D

 42 42  0  0  1  0  0  0  0  0999 V2000
    2.2810   -2.7760    0.5110 N   0  0  0  0  0  0  0  0  0  0  0  0
    1.8760   -1.6410   -0.2580 C   0  0  1  0  0  0  0  0  0  0  0  0
    2.4980   -1.7050   -1.6230 C   0  0  0  0  0  0  0  0  0  0  0  0
    3.9780   -1.7100   -1.5680 C   0  0  0  0  0  0  0  0  0  0  0  0
    4.8660   -1.7620   -2.6190 C   0  0  0  0  0  0  0  0  0  0  0  0
    6.1210   -1.7470   -2.1510 N   0  0  0  0  0  0  0  0  0  0  0  0
    6.0460   -1.6850   -0.8020 C   0  0  0  0  0  0  0  0  0  0  0  0
    4.7320   -1.6640   -0.4580 N   0  0  0  0  0  0  0  0  0  0  0  0
    0.3950   -1.5540   -0.4140 C   0  0  0  0  0  0  0  0  0  0  0  0
   -0.0840   -0.5870   -1.0660 O   0  0  0  0  0  0  0  0  0  0  0  0
    2.6810   -3.4930   -0.1330 H   0  0  0  0  0  0  0  0  0  0  0  0
    3.0360   -2.5160    1.1810 H   0  0  0  0  0  0  0  0  0  0  0  0
    2.2830   -0.7260    0.2360 H   0  0  0  0  0  0  0  0  0  0  0  0
    2.1900   -2.6550   -2.1470 H   0  0  0  0  0  0  0  0  0  0  0  0
    2.1340   -0.8910   -2.2920 H   0  0  0  0  0  0  0  0  0  0  0  0
    4.5710   -1.8070   -3.6560 H   0  0  0  0  0  0  0  0  0  0  0  0
    7.0300   -1.7740   -2.6650 H   0  0  0  0  0  0  0  0  0  0  0  0
    6.8740   -1.6580   -0.1100 H   0  0  0  0  0  0  0  0  0  0  0  0
   -0.5100   -2.4940    0.1290 N   0  0  0  0  0  0  0  0  0  0  0  0
   -1.9440   -2.4260    0.0030 C   0  0  0  0  0  0  0  0  0  0  0  0
   -2.4700   -1.2240    0.6800 C   0  0  0  0  0  0  0  0  0  0  0  0
   -3.7160   -1.0220    0.5900 O   0  0  0  0  0  0  0  0  0  0  0  0
   -0.0530   -3.2960    0.6610 H   0  0  0  0  0  0  0  0  0  0  0  0
   -2.4300   -3.2970    0.4920 H   0  0  0  0  0  0  0  0  0  0  0  0
   -2.1800   -2.4200   -1.0950 H   0  0  0  0  0  0  0  0  0  0  0  0
   -0.7720    0.7980    4.0600 C   0  0  0  0  0  0  0  0  0  0  0  0
   -2.1920    0.8560    3.5560 C   0  0  0  0  0  0  0  0  0  0  0  0
   -2.8970    2.0850    4.0950 C   0  0  0  0  0  0  0  0  0  0  0  0
   -2.2910    0.8800    2.0540 C   0  0  2  0  0  0  0  0  0  0  0  0
   -1.7110   -0.2810    1.4220 N   0  0  0  0  0  0  0  0  0  0  0  0
   -1.7940    2.1520    1.4740 C   0  0  0  0  0  0  0  0  0  0  0  0
   -0.9540    2.1940    0.5330 O   0  0  0  0  0  0  0  0  0  0  0  0
   -2.2200    3.3950    1.9260 O   0  0  0  0  0  0  0  0  0  0  0  0
   -0.4380    1.8410    4.2810 H   0  0  0  0  0  0  0  0  0  0  0  0
   -0.7290    0.2730    5.0490 H   0  0  0  0  0  0  0  0  0  0  0  0
   -0.0960    0.2550    3.3950 H   0  0  0  0  0  0  0  0  0  0  0  0
   -2.7210   -0.0140    3.9980 H   0  0  0  0  0  0  0  0  0  0  0  0
   -3.3180    1.8800    5.1230 H   0  0  0  0  0  0  0  0  0  0  0  0
   -2.2390    2.9500    4.2200 H   0  0  0  0  0  0  0  0  0  0  0  0
   -3.7770    2.2560    3.4510 H   0  0  0  0  0  0  0  0  0  0  0  0
   -3.3780    0.8480    1.8230 H   0  0  0  0  0  0  0  0  0  0  0  0
   -0.6930   -0.4890    1.5020 H   0  0  0  0  0  0  0  0  0  0  0  0
  1 12  1  0  0  0  0
  2 13  1  1  0  0  0
  2  1  1  0  0  0  0
  3  4  1  0  0  0  0
  3  2  1  0  0  0  0
  4  8  1  0  0  0  0
  5  6  1  0  0  0  0
  5  4  2  0  0  0  0
  6  7  1  0  0  0  0
  7  8  2  0  0  0  0
  7 18  1  0  0  0  0
  9  2  1  0  0  0  0
  9 19  1  0  0  0  0
 10  9  2  0  0  0  0
 11  1  1  0  0  0  0
 14  3  1  0  0  0  0
 15  3  1  0  0  0  0
 16  5  1  0  0  0  0
 17  6  1  0  0  0  0
 19 23  1  0  0  0  0
 20 19  1  0  0  0  0
 20 24  1  0  0  0  0
 20 21  1  0  0  0  0
 21 30  1  0  0  0  0
 22 21  2  0  0  0  0
 25 20  1  0  0  0  0
 26 34  1  0  0  0  0
 26 35  1  0  0  0  0
 27 37  1  0  0  0  0
 27 26  1  0  0  0  0
 27 28  1  0  0  0  0
 28 39  1  0  0  0  0
 28 38  1  0  0  0  0
 29 41  1  6  0  0  0
 29 27  1  0  0  0  0
 30 42  1  0  0  0  0
 30 29  1  0  0  0  0
 31 33  1  0  0  0  0
 31 29  1  0  0  0  0
 32 31  2  0  0  0  0
 36 26  1  0  0  0  0
 40 28  1  0  0  0  0
M  END
$$$$
