HGW.pdb
 OpenBabel07022418363D

 50 52  0  0  1  0  0  0  0  0999 V2000
    0.7910    2.6480   -1.5540 N   0  0  0  0  0  0  0  0  0  0  0  0
    1.6250    1.6070   -0.9850 C   0  0  1  0  0  0  0  0  0  0  0  0
    3.0050    1.6060   -1.5660 C   0  0  0  0  0  0  0  0  0  0  0  0
    3.8890    0.5530   -1.0310 C   0  0  0  0  0  0  0  0  0  0  0  0
    4.7550    0.6110    0.0250 C   0  0  0  0  0  0  0  0  0  0  0  0
    5.3610   -0.6110    0.1190 N   0  0  0  0  0  0  0  0  0  0  0  0
    4.8930   -1.4030   -0.8390 C   0  0  0  0  0  0  0  0  0  0  0  0
    3.9930   -0.6890   -1.5410 N   0  0  0  0  0  0  0  0  0  0  0  0
    1.5490    1.5750    0.4780 C   0  0  0  0  0  0  0  0  0  0  0  0
    2.3220    0.8930    1.1960 O   0  0  0  0  0  0  0  0  0  0  0  0
   -0.2280    2.4460   -1.4770 H   0  0  0  0  0  0  0  0  0  0  0  0
    1.0640    3.5940   -1.2220 H   0  0  0  0  0  0  0  0  0  0  0  0
    1.1490    0.6430   -1.3470 H   0  0  0  0  0  0  0  0  0  0  0  0
    3.4850    2.6140   -1.5150 H   0  0  0  0  0  0  0  0  0  0  0  0
    2.8650    1.3810   -2.6710 H   0  0  0  0  0  0  0  0  0  0  0  0
    4.9560    1.4410    0.6860 H   0  0  0  0  0  0  0  0  0  0  0  0
    6.0800   -0.9110    0.8180 H   0  0  0  0  0  0  0  0  0  0  0  0
    5.1410   -2.4270   -1.0690 H   0  0  0  0  0  0  0  0  0  0  0  0
    0.5530    2.3480    1.1250 N   0  0  0  0  0  0  0  0  0  0  0  0
    0.3090    2.4320    2.5340 C   0  0  0  0  0  0  0  0  0  0  0  0
   -0.0950    1.1290    3.0880 C   0  0  0  0  0  0  0  0  0  0  0  0
   -0.3180    1.0960    4.3590 O   0  0  0  0  0  0  0  0  0  0  0  0
   -0.0680    2.9210    0.4840 H   0  0  0  0  0  0  0  0  0  0  0  0
   -0.4580    3.2210    2.7490 H   0  0  0  0  0  0  0  0  0  0  0  0
    1.2260    2.8000    3.0820 H   0  0  0  0  0  0  0  0  0  0  0  0
   -0.2440   -0.0380    2.3120 N   0  0  0  0  0  0  0  0  0  0  0  0
   -0.6450   -1.2540    2.9980 C   0  0  1  0  0  0  0  0  0  0  0  0
   -1.3020   -2.2660    2.1800 C   0  0  0  0  0  0  0  0  0  0  0  0
   -2.5340   -1.9960    1.4730 C   0  0  0  0  0  0  0  0  0  0  0  0
   -3.5440   -1.0690    1.6180 C   0  0  0  0  0  0  0  0  0  0  0  0
   -4.4910   -1.2460    0.6790 N   0  0  0  0  0  0  0  0  0  0  0  0
   -4.1050   -2.2870   -0.0790 C   0  0  0  0  0  0  0  0  0  0  0  0
   -4.6900   -2.9030   -1.1730 C   0  0  0  0  0  0  0  0  0  0  0  0
   -4.0970   -3.9870   -1.8100 C   0  0  0  0  0  0  0  0  0  0  0  0
   -2.9030   -4.4700   -1.3520 C   0  0  0  0  0  0  0  0  0  0  0  0
   -2.3140   -3.8660   -0.2670 C   0  0  0  0  0  0  0  0  0  0  0  0
   -2.9150   -2.7770    0.3690 C   0  0  0  0  0  0  0  0  0  0  0  0
    0.6510   -1.9400    3.4450 C   0  0  0  0  0  0  0  0  0  0  0  0
    1.7610   -1.4690    3.1400 O   0  0  0  0  0  0  0  0  0  0  0  0
    0.6020   -3.0910    4.1920 O   0  0  0  0  0  0  0  0  0  0  0  0
   -0.1000   -0.0220    1.2980 H   0  0  0  0  0  0  0  0  0  0  0  0
   -1.1810   -0.9930    3.9200 H   0  0  0  0  0  0  0  0  0  0  0  0
   -1.5270   -3.1410    2.8710 H   0  0  0  0  0  0  0  0  0  0  0  0
   -0.5530   -2.7090    1.4750 H   0  0  0  0  0  0  0  0  0  0  0  0
   -3.5750   -0.3030    2.3790 H   0  0  0  0  0  0  0  0  0  0  0  0
   -5.3820   -0.6820    0.5490 H   0  0  0  0  0  0  0  0  0  0  0  0
   -5.6400   -2.5440   -1.5650 H   0  0  0  0  0  0  0  0  0  0  0  0
   -4.5710   -4.4620   -2.6760 H   0  0  0  0  0  0  0  0  0  0  0  0
   -2.3770   -5.3150   -1.7980 H   0  0  0  0  0  0  0  0  0  0  0  0
   -1.3710   -4.2440    0.0960 H   0  0  0  0  0  0  0  0  0  0  0  0
  1 11  1  0  0  0  0
  1 12  1  0  0  0  0
  1  2  1  0  0  0  0
  2 13  1  6  0  0  0
  2  9  1  0  0  0  0
  3 14  1  0  0  0  0
  3  4  1  0  0  0  0
  3  2  1  0  0  0  0
  4  5  2  0  0  0  0
  5  6  1  0  0  0  0
  5 16  1  0  0  0  0
  6 17  1  0  0  0  0
  7  6  1  0  0  0  0
  8  4  1  0  0  0  0
  8  7  2  0  0  0  0
  9 19  1  0  0  0  0
  9 10  2  0  0  0  0
 15  3  1  0  0  0  0
 18  7  1  0  0  0  0
 19 20  1  0  0  0  0
 20 24  1  0  0  0  0
 20 25  1  0  0  0  0
 20 21  1  0  0  0  0
 21 22  2  0  0  0  0
 23 19  1  0  0  0  0
 26 27  1  0  0  0  0
 26 21  1  0  0  0  0
 27 38  1  0  0  0  0
 27 42  1  1  0  0  0
 28 43  1  0  0  0  0
 28 27  1  0  0  0  0
 29 30  2  0  0  0  0
 29 28  1  0  0  0  0
 30 45  1  0  0  0  0
 31 30  1  0  0  0  0
 32 37  1  0  0  0  0
 32 31  1  0  0  0  0
 33 32  2  0  0  0  0
 34 35  2  0  0  0  0
 34 33  1  0  0  0  0
 35 36  1  0  0  0  0
 36 50  1  0  0  0  0
 36 37  2  0  0  0  0
 37 29  1  0  0  0  0
 38 40  1  0  0  0  0
 39 38  2  0  0  0  0
 41 26  1  0  0  0  0
 44 28  1  0  0  0  0
 46 31  1  0  0  0  0
 47 33  1  0  0  0  0
 48 34  1  0  0  0  0
 49 35  1  0  0  0  0
M  END
$$$$
