HHA.pdb
 OpenBabel07022418363D

 46 47  0  0  1  0  0  0  0  0999 V2000
    2.7830   -2.9610    0.7250 N   0  0  0  0  0  0  0  0  0  0  0  0
    2.3410   -2.5250    2.0200 C   0  0  1  0  0  0  0  0  0  0  0  0
    3.4190   -1.8800    2.8300 C   0  0  0  0  0  0  0  0  0  0  0  0
    4.0270   -0.6930    2.2040 C   0  0  0  0  0  0  0  0  0  0  0  0
    3.7850   -0.0900    0.9910 C   0  0  0  0  0  0  0  0  0  0  0  0
    4.5990    0.9700    0.8420 N   0  0  0  0  0  0  0  0  0  0  0  0
    5.3360    1.0180    1.9570 C   0  0  0  0  0  0  0  0  0  0  0  0
    5.0040    0.0300    2.7780 N   0  0  0  0  0  0  0  0  0  0  0  0
    1.0700   -1.7580    2.0020 C   0  0  0  0  0  0  0  0  0  0  0  0
    0.5640   -1.3830    3.1150 O   0  0  0  0  0  0  0  0  0  0  0  0
    1.9600   -3.4770    0.2890 H   0  0  0  0  0  0  0  0  0  0  0  0
    3.5060   -3.6950    0.8720 H   0  0  0  0  0  0  0  0  0  0  0  0
    2.1130   -3.5000    2.5760 H   0  0  0  0  0  0  0  0  0  0  0  0
    4.2260   -2.5740    3.1130 H   0  0  0  0  0  0  0  0  0  0  0  0
    2.9480   -1.5550    3.7890 H   0  0  0  0  0  0  0  0  0  0  0  0
    3.0620   -0.4060    0.2660 H   0  0  0  0  0  0  0  0  0  0  0  0
    4.6660    1.6420    0.0290 H   0  0  0  0  0  0  0  0  0  0  0  0
    6.1140    1.7570    2.1890 H   0  0  0  0  0  0  0  0  0  0  0  0
    0.3620   -1.4030    0.8400 N   0  0  0  0  0  0  0  0  0  0  0  0
   -0.8730   -0.6760    0.7630 C   0  0  1  0  0  0  0  0  0  0  0  0
   -0.7880    0.5800   -0.0430 C   0  0  0  0  0  0  0  0  0  0  0  0
    0.1810    1.5260    0.5300 C   0  0  0  0  0  0  0  0  0  0  0  0
    0.5110    2.7710    0.0440 C   0  0  0  0  0  0  0  0  0  0  0  0
    1.4320    3.2910    0.8770 N   0  0  0  0  0  0  0  0  0  0  0  0
    1.6960    2.4220    1.8690 C   0  0  0  0  0  0  0  0  0  0  0  0
    0.9090    1.3380    1.6300 N   0  0  0  0  0  0  0  0  0  0  0  0
   -1.9970   -1.5400    0.2950 C   0  0  0  0  0  0  0  0  0  0  0  0
   -1.8430   -2.7530    0.0120 O   0  0  0  0  0  0  0  0  0  0  0  0
    0.8120   -1.7210   -0.0710 H   0  0  0  0  0  0  0  0  0  0  0  0
   -1.1810   -0.3700    1.8080 H   0  0  0  0  0  0  0  0  0  0  0  0
   -1.7900    1.1010    0.0380 H   0  0  0  0  0  0  0  0  0  0  0  0
   -0.6080    0.3900   -1.1250 H   0  0  0  0  0  0  0  0  0  0  0  0
    0.1290    3.2810   -0.8370 H   0  0  0  0  0  0  0  0  0  0  0  0
    1.9040    4.2220    0.8130 H   0  0  0  0  0  0  0  0  0  0  0  0
    2.3550    2.4740    2.7020 H   0  0  0  0  0  0  0  0  0  0  0  0
   -5.4510   -1.8590    0.8490 C   0  0  0  0  0  0  0  0  0  0  0  0
   -4.4370   -1.7670   -0.2890 C   0  0  2  0  0  0  0  0  0  0  0  0
   -3.2910   -0.9940    0.1590 N   0  0  0  0  0  0  0  0  0  0  0  0
   -5.0670   -1.1840   -1.4820 C   0  0  0  0  0  0  0  0  0  0  0  0
   -6.0630   -1.7180   -2.0000 O   0  0  0  0  0  0  0  0  0  0  0  0
   -4.5470   -0.0330   -2.0310 O   0  0  0  0  0  0  0  0  0  0  0  0
   -4.9230   -1.9190    1.8140 H   0  0  0  0  0  0  0  0  0  0  0  0
   -6.0160   -2.7960    0.6720 H   0  0  0  0  0  0  0  0  0  0  0  0
   -6.1220   -0.9630    0.7790 H   0  0  0  0  0  0  0  0  0  0  0  0
   -4.0560   -2.8080   -0.4780 H   0  0  0  0  0  0  0  0  0  0  0  0
   -3.4760    0.0080    0.3810 H   0  0  0  0  0  0  0  0  0  0  0  0
  1 12  1  0  0  0  0
  1  2  1  0  0  0  0
  2 13  1  1  0  0  0
  2  3  1  0  0  0  0
  3 14  1  0  0  0  0
  3 15  1  0  0  0  0
  4  8  1  0  0  0  0
  4  3  1  0  0  0  0
  5  4  2  0  0  0  0
  6  5  1  0  0  0  0
  6  7  1  0  0  0  0
  7 18  1  0  0  0  0
  7  8  2  0  0  0  0
  9  2  1  0  0  0  0
  9 10  2  0  0  0  0
 11  1  1  0  0  0  0
 16  5  1  0  0  0  0
 17  6  1  0  0  0  0
 19  9  1  0  0  0  0
 20 19  1  0  0  0  0
 20 30  1  1  0  0  0
 21 31  1  0  0  0  0
 21 22  1  0  0  0  0
 21 20  1  0  0  0  0
 22 26  1  0  0  0  0
 23 22  2  0  0  0  0
 23 24  1  0  0  0  0
 24 25  1  0  0  0  0
 25 35  1  0  0  0  0
 26 25  2  0  0  0  0
 27 20  1  0  0  0  0
 28 27  2  0  0  0  0
 29 19  1  0  0  0  0
 32 21  1  0  0  0  0
 33 23  1  0  0  0  0
 34 24  1  0  0  0  0
 36 42  1  0  0  0  0
 37 45  1  6  0  0  0
 37 38  1  0  0  0  0
 37 36  1  0  0  0  0
 38 27  1  0  0  0  0
 38 46  1  0  0  0  0
 39 37  1  0  0  0  0
 40 39  1  0  0  0  0
 41 39  2  0  0  0  0
 43 36  1  0  0  0  0
 44 36  1  0  0  0  0
M  END
$$$$
