HHC.pdb
 OpenBabel07022418363D

 47 48  0  0  1  0  0  0  0  0999 V2000
    1.4520   -1.8350   -2.0120 N   0  0  0  0  0  0  0  0  0  0  0  0
    1.6080   -1.6980   -0.5660 C   0  0  1  0  0  0  0  0  0  0  0  0
    2.9560   -1.0060   -0.3920 C   0  0  0  0  0  0  0  0  0  0  0  0
    2.9000    0.2860   -1.1140 C   0  0  0  0  0  0  0  0  0  0  0  0
    2.5000    1.5150   -0.6570 C   0  0  0  0  0  0  0  0  0  0  0  0
    2.6110    2.4150   -1.6740 N   0  0  0  0  0  0  0  0  0  0  0  0
    3.0720    1.7610   -2.7440 C   0  0  0  0  0  0  0  0  0  0  0  0
    3.2500    0.4770   -2.4190 N   0  0  0  0  0  0  0  0  0  0  0  0
    0.5060   -0.9810    0.0780 C   0  0  0  0  0  0  0  0  0  0  0  0
   -0.3000   -0.2440   -0.5490 O   0  0  0  0  0  0  0  0  0  0  0  0
    0.5950   -2.3680   -2.2300 H   0  0  0  0  0  0  0  0  0  0  0  0
    2.3120   -2.3120   -2.3570 H   0  0  0  0  0  0  0  0  0  0  0  0
    1.6830   -2.7150   -0.1310 H   0  0  0  0  0  0  0  0  0  0  0  0
    3.2500   -0.9130    0.6600 H   0  0  0  0  0  0  0  0  0  0  0  0
    3.7030   -1.6550   -0.8940 H   0  0  0  0  0  0  0  0  0  0  0  0
    2.1420    1.8050    0.3190 H   0  0  0  0  0  0  0  0  0  0  0  0
    2.3810    3.4400   -1.6410 H   0  0  0  0  0  0  0  0  0  0  0  0
    3.2830    2.1610   -3.7330 H   0  0  0  0  0  0  0  0  0  0  0  0
    0.3260   -1.1220    1.4840 N   0  0  0  0  0  0  0  0  0  0  0  0
   -0.7080   -0.4940    2.2340 C   0  0  1  0  0  0  0  0  0  0  0  0
   -0.3460    0.9420    2.4880 C   0  0  0  0  0  0  0  0  0  0  0  0
    0.9120    0.9220    3.2760 C   0  0  0  0  0  0  0  0  0  0  0  0
    0.9430    0.8970    4.6760 C   0  0  0  0  0  0  0  0  0  0  0  0
    2.2200    0.8830    5.1050 N   0  0  0  0  0  0  0  0  0  0  0  0
    2.9940    0.8990    4.0060 C   0  0  0  0  0  0  0  0  0  0  0  0
    2.1980    0.9220    2.9180 N   0  0  0  0  0  0  0  0  0  0  0  0
   -2.0810   -0.7460    1.8050 C   0  0  0  0  0  0  0  0  0  0  0  0
   -3.0790   -0.1090    2.2610 O   0  0  0  0  0  0  0  0  0  0  0  0
    1.0140   -1.7320    1.9690 H   0  0  0  0  0  0  0  0  0  0  0  0
   -0.6050   -0.9630    3.2950 H   0  0  0  0  0  0  0  0  0  0  0  0
   -1.1140    1.4990    3.0600 H   0  0  0  0  0  0  0  0  0  0  0  0
   -0.1930    1.5130    1.5350 H   0  0  0  0  0  0  0  0  0  0  0  0
    0.0660    0.8900    5.3040 H   0  0  0  0  0  0  0  0  0  0  0  0
    2.5140    0.8630    6.1060 H   0  0  0  0  0  0  0  0  0  0  0  0
    4.0710    0.8940    3.9520 H   0  0  0  0  0  0  0  0  0  0  0  0
   -2.3640   -1.7360    0.8460 N   0  0  0  0  0  0  0  0  0  0  0  0
   -3.7320   -2.0150    0.3850 C   0  0  1  0  0  0  0  0  0  0  0  0
   -3.8980   -1.7200   -1.0760 C   0  0  0  0  0  0  0  0  0  0  0  0
   -3.5360    0.0320   -1.3510 S   0  0  0  0  0  0  0  0  0  0  0  0
   -4.1270   -3.3970    0.7530 C   0  0  0  0  0  0  0  0  0  0  0  0
   -5.2590   -3.8580    0.4610 O   0  0  0  0  0  0  0  0  0  0  0  0
   -3.2700   -4.2570    1.4400 O   0  0  0  0  0  0  0  0  0  0  0  0
   -1.5920   -2.3140    0.4490 H   0  0  0  0  0  0  0  0  0  0  0  0
   -4.4040   -1.3220    0.9360 H   0  0  0  0  0  0  0  0  0  0  0  0
   -4.9600   -1.9070   -1.3350 H   0  0  0  0  0  0  0  0  0  0  0  0
   -3.2840   -2.3610   -1.7270 H   0  0  0  0  0  0  0  0  0  0  0  0
   -4.5750    0.8600   -0.9210 H   0  0  0  0  0  0  0  0  0  0  0  0
  1  2  1  0  0  0  0
  2  3  1  0  0  0  0
  2 13  1  1  0  0  0
  2  9  1  0  0  0  0
  3 14  1  0  0  0  0
  4  5  2  0  0  0  0
  4  3  1  0  0  0  0
  5 16  1  0  0  0  0
  6 17  1  0  0  0  0
  6  5  1  0  0  0  0
  7  8  2  0  0  0  0
  7  6  1  0  0  0  0
  8  4  1  0  0  0  0
  9 19  1  0  0  0  0
 10  9  2  0  0  0  0
 11  1  1  0  0  0  0
 12  1  1  0  0  0  0
 15  3  1  0  0  0  0
 18  7  1  0  0  0  0
 19 29  1  0  0  0  0
 19 20  1  0  0  0  0
 20 21  1  0  0  0  0
 20 30  1  1  0  0  0
 21 31  1  0  0  0  0
 21 22  1  0  0  0  0
 22 23  2  0  0  0  0
 23 24  1  0  0  0  0
 23 33  1  0  0  0  0
 24 34  1  0  0  0  0
 25 24  1  0  0  0  0
 26 22  1  0  0  0  0
 26 25  2  0  0  0  0
 27 20  1  0  0  0  0
 27 28  2  0  0  0  0
 32 21  1  0  0  0  0
 35 25  1  0  0  0  0
 36 27  1  0  0  0  0
 37 40  1  0  0  0  0
 37 36  1  0  0  0  0
 37 44  1  1  0  0  0
 38 37  1  0  0  0  0
 39 38  1  0  0  0  0
 39 47  1  0  0  0  0
 40 42  1  0  0  0  0
 41 40  2  0  0  0  0
 43 36  1  0  0  0  0
 45 38  1  0  0  0  0
 46 38  1  0  0  0  0
M  END
$$$$
