HHD.pdb
 OpenBabel07022418363D

 49 50  0  0  1  0  0  0  0  0999 V2000
    3.5450   -1.5450    1.7010 N   0  0  0  0  0  0  0  0  0  0  0  0
    2.5010   -0.9220    0.9520 C   0  0  1  0  0  0  0  0  0  0  0  0
    1.9710   -1.8070   -0.1370 C   0  0  0  0  0  0  0  0  0  0  0  0
    3.0900   -2.1270   -1.0600 C   0  0  0  0  0  0  0  0  0  0  0  0
    3.4400   -1.3840   -2.1730 C   0  0  0  0  0  0  0  0  0  0  0  0
    4.5110   -1.9930   -2.7600 N   0  0  0  0  0  0  0  0  0  0  0  0
    4.8210   -3.0810   -2.0380 C   0  0  0  0  0  0  0  0  0  0  0  0
    3.9610   -3.1590   -1.0120 N   0  0  0  0  0  0  0  0  0  0  0  0
    1.4050   -0.4050    1.8340 C   0  0  0  0  0  0  0  0  0  0  0  0
    1.4380   -0.5020    3.0880 O   0  0  0  0  0  0  0  0  0  0  0  0
    3.3590   -1.4820    2.7160 H   0  0  0  0  0  0  0  0  0  0  0  0
    3.7290   -2.5190    1.3610 H   0  0  0  0  0  0  0  0  0  0  0  0
    2.9350   -0.0180    0.4630 H   0  0  0  0  0  0  0  0  0  0  0  0
    1.5580   -2.7620    0.2390 H   0  0  0  0  0  0  0  0  0  0  0  0
    1.2180   -1.2180   -0.7050 H   0  0  0  0  0  0  0  0  0  0  0  0
    2.9310   -0.4720   -2.5010 H   0  0  0  0  0  0  0  0  0  0  0  0
    4.9480   -1.6080   -3.6180 H   0  0  0  0  0  0  0  0  0  0  0  0
    5.6250   -3.7520   -2.2680 H   0  0  0  0  0  0  0  0  0  0  0  0
    0.2550    0.2300    1.2800 N   0  0  0  0  0  0  0  0  0  0  0  0
   -0.8420    0.7570    2.0340 C   0  0  1  0  0  0  0  0  0  0  0  0
   -1.1230    2.2050    1.7920 C   0  0  0  0  0  0  0  0  0  0  0  0
    0.0300    3.0740    2.1280 C   0  0  0  0  0  0  0  0  0  0  0  0
    0.3310    3.6750    3.3240 C   0  0  0  0  0  0  0  0  0  0  0  0
    1.4680    4.3810    3.2000 N   0  0  0  0  0  0  0  0  0  0  0  0
    1.8680    4.2160    1.9270 C   0  0  0  0  0  0  0  0  0  0  0  0
    1.0030    3.4250    1.2690 N   0  0  0  0  0  0  0  0  0  0  0  0
   -2.1070    0.0090    1.7460 C   0  0  0  0  0  0  0  0  0  0  0  0
   -3.2090    0.3010    2.2680 O   0  0  0  0  0  0  0  0  0  0  0  0
    0.2190    0.3130    0.2420 H   0  0  0  0  0  0  0  0  0  0  0  0
   -0.6850    0.6300    3.1470 H   0  0  0  0  0  0  0  0  0  0  0  0
   -1.4620    2.3450    0.7480 H   0  0  0  0  0  0  0  0  0  0  0  0
   -1.9600    2.4940    2.4670 H   0  0  0  0  0  0  0  0  0  0  0  0
   -0.2650    3.5860    4.2250 H   0  0  0  0  0  0  0  0  0  0  0  0
    1.9680    4.9580    3.9390 H   0  0  0  0  0  0  0  0  0  0  0  0
    2.7760    4.6700    1.5030 H   0  0  0  0  0  0  0  0  0  0  0  0
   -2.0470   -1.0710    0.8480 N   0  0  0  0  0  0  0  0  0  0  0  0
   -3.1910   -1.8960    0.4650 C   0  0  1  0  0  0  0  0  0  0  0  0
   -3.3760   -1.8980   -1.0210 C   0  0  0  0  0  0  0  0  0  0  0  0
   -4.5370   -2.6920   -1.4690 C   0  0  0  0  0  0  0  0  0  0  0  0
   -4.6750   -2.9760   -2.7150 O   0  0  0  0  0  0  0  0  0  0  0  0
   -2.8510   -3.2700    0.8890 C   0  0  0  0  0  0  0  0  0  0  0  0
   -3.6410   -4.2120    0.7050 O   0  0  0  0  0  0  0  0  0  0  0  0
   -5.5420   -3.1860   -0.6620 O   0  0  0  0  0  0  0  0  0  0  0  0
   -1.6450   -3.5300    1.5000 O   0  0  0  0  0  0  0  0  0  0  0  0
   -1.1310   -1.3170    0.4150 H   0  0  0  0  0  0  0  0  0  0  0  0
   -4.1240   -1.5260    0.9350 H   0  0  0  0  0  0  0  0  0  0  0  0
   -2.4760   -2.3860   -1.4980 H   0  0  0  0  0  0  0  0  0  0  0  0
   -3.4840   -0.8790   -1.4460 H   0  0  0  0  0  0  0  0  0  0  0  0
   -6.2260   -3.8780   -0.9940 H   0  0  0  0  0  0  0  0  0  0  0  0
  1 11  1  0  0  0  0
  2 13  1  6  0  0  0
  2  1  1  0  0  0  0
  2  9  1  0  0  0  0
  3 14  1  0  0  0  0
  3  2  1  0  0  0  0
  4  8  1  0  0  0  0
  4  3  1  0  0  0  0
  5  4  2  0  0  0  0
  6  5  1  0  0  0  0
  6  7  1  0  0  0  0
  7  8  2  0  0  0  0
  9 10  2  0  0  0  0
 12  1  1  0  0  0  0
 15  3  1  0  0  0  0
 16  5  1  0  0  0  0
 17  6  1  0  0  0  0
 18  7  1  0  0  0  0
 19  9  1  0  0  0  0
 19 20  1  0  0  0  0
 20 30  1  1  0  0  0
 21 20  1  0  0  0  0
 21 22  1  0  0  0  0
 21 32  1  0  0  0  0
 22 23  2  0  0  0  0
 23 33  1  0  0  0  0
 24 23  1  0  0  0  0
 24 34  1  0  0  0  0
 25 24  1  0  0  0  0
 26 25  2  0  0  0  0
 26 22  1  0  0  0  0
 27 20  1  0  0  0  0
 27 28  2  0  0  0  0
 29 19  1  0  0  0  0
 31 21  1  0  0  0  0
 35 25  1  0  0  0  0
 36 27  1  0  0  0  0
 37 36  1  0  0  0  0
 37 41  1  0  0  0  0
 37 46  1  1  0  0  0
 38 37  1  0  0  0  0
 39 38  1  0  0  0  0
 39 43  1  0  0  0  0
 40 39  2  0  0  0  0
 41 44  1  0  0  0  0
 42 41  2  0  0  0  0
 45 36  1  0  0  0  0
 47 38  1  0  0  0  0
 48 38  1  0  0  0  0
 49 43  1  0  0  0  0
M  END
$$$$
