HHE.pdb
 OpenBabel07022418363D

 52 53  0  0  1  0  0  0  0  0999 V2000
    2.8200    1.0080   -1.5560 N   0  0  0  0  0  0  0  0  0  0  0  0
    2.4070    0.2860   -0.3940 C   0  0  1  0  0  0  0  0  0  0  0  0
    2.9790    0.9260    0.8400 C   0  0  0  0  0  0  0  0  0  0  0  0
    4.4510    0.9100    0.7860 C   0  0  0  0  0  0  0  0  0  0  0  0
    5.2160    0.4110   -0.2370 C   0  0  0  0  0  0  0  0  0  0  0  0
    6.5130    0.5780    0.0650 N   0  0  0  0  0  0  0  0  0  0  0  0
    6.5420    1.1780    1.2680 C   0  0  0  0  0  0  0  0  0  0  0  0
    5.3110    1.3840    1.7190 N   0  0  0  0  0  0  0  0  0  0  0  0
    0.8840    0.3360   -0.3180 C   0  0  0  0  0  0  0  0  0  0  0  0
    0.2100    0.9070   -1.1870 O   0  0  0  0  0  0  0  0  0  0  0  0
    2.8950    0.4250   -2.4040 H   0  0  0  0  0  0  0  0  0  0  0  0
    2.1090    1.7940   -1.6990 H   0  0  0  0  0  0  0  0  0  0  0  0
    2.7390   -0.7700   -0.4680 H   0  0  0  0  0  0  0  0  0  0  0  0
    2.6750    2.0190    0.8420 H   0  0  0  0  0  0  0  0  0  0  0  0
    2.5460    0.4720    1.7580 H   0  0  0  0  0  0  0  0  0  0  0  0
    4.8980   -0.0600   -1.1630 H   0  0  0  0  0  0  0  0  0  0  0  0
    7.3590    0.3220   -0.4810 H   0  0  0  0  0  0  0  0  0  0  0  0
    7.4470    1.4620    1.8060 H   0  0  0  0  0  0  0  0  0  0  0  0
    0.2310   -0.2830    0.7700 N   0  0  0  0  0  0  0  0  0  0  0  0
   -1.1520   -0.3480    1.0720 C   0  0  1  0  0  0  0  0  0  0  0  0
   -1.8950    0.9590    0.6990 C   0  0  0  0  0  0  0  0  0  0  0  0
   -1.3680    2.0590    1.4880 C   0  0  0  0  0  0  0  0  0  0  0  0
   -0.3670    2.9580    1.3070 C   0  0  0  0  0  0  0  0  0  0  0  0
   -0.3210    3.7860    2.3930 N   0  0  0  0  0  0  0  0  0  0  0  0
   -1.2780    3.4150    3.2450 C   0  0  0  0  0  0  0  0  0  0  0  0
   -1.9120    2.3760    2.7100 N   0  0  0  0  0  0  0  0  0  0  0  0
   -1.7970   -1.4940    0.4290 C   0  0  0  0  0  0  0  0  0  0  0  0
   -1.3440   -1.9210   -0.6450 O   0  0  0  0  0  0  0  0  0  0  0  0
    0.9180   -0.7670    1.4560 H   0  0  0  0  0  0  0  0  0  0  0  0
   -1.2610   -0.3080    2.1980 H   0  0  0  0  0  0  0  0  0  0  0  0
   -1.9240    1.1050   -0.3910 H   0  0  0  0  0  0  0  0  0  0  0  0
   -2.9460    0.7520    0.9980 H   0  0  0  0  0  0  0  0  0  0  0  0
    0.2830    3.0120    0.4440 H   0  0  0  0  0  0  0  0  0  0  0  0
    0.3800    4.5590    2.4600 H   0  0  0  0  0  0  0  0  0  0  0  0
   -1.4990    3.8700    4.2000 H   0  0  0  0  0  0  0  0  0  0  0  0
   -2.9210   -2.1540    0.9700 N   0  0  0  0  0  0  0  0  0  0  0  0
   -3.6740   -3.2360    0.5000 C   0  0  1  0  0  0  0  0  0  0  0  0
   -3.2570   -4.6090    0.9590 C   0  0  0  0  0  0  0  0  0  0  0  0
   -1.8520   -4.9960    0.5010 C   0  0  0  0  0  0  0  0  0  0  0  0
   -1.7400   -5.0960   -0.9670 C   0  0  0  0  0  0  0  0  0  0  0  0
   -2.7560   -5.0750   -1.7050 O   0  0  0  0  0  0  0  0  0  0  0  0
   -5.1270   -3.1310    0.7350 C   0  0  0  0  0  0  0  0  0  0  0  0
   -5.9330   -4.0250    0.3710 O   0  0  0  0  0  0  0  0  0  0  0  0
   -0.5210   -5.2170   -1.6110 O   0  0  0  0  0  0  0  0  0  0  0  0
   -5.6600   -2.0180    1.3760 O   0  0  0  0  0  0  0  0  0  0  0  0
   -3.2290   -1.7480    1.9070 H   0  0  0  0  0  0  0  0  0  0  0  0
   -3.5170   -3.2790   -0.6180 H   0  0  0  0  0  0  0  0  0  0  0  0
   -3.3690   -4.7910    2.0450 H   0  0  0  0  0  0  0  0  0  0  0  0
   -3.9430   -5.3180    0.4650 H   0  0  0  0  0  0  0  0  0  0  0  0
   -1.0810   -4.3110    0.9210 H   0  0  0  0  0  0  0  0  0  0  0  0
   -1.6010   -5.9890    0.9910 H   0  0  0  0  0  0  0  0  0  0  0  0
   -0.4320   -5.3210   -2.6380 H   0  0  0  0  0  0  0  0  0  0  0  0
  1  2  1  0  0  0  0
  2 13  1  6  0  0  0
  2  9  1  0  0  0  0
  2  3  1  0  0  0  0
  3 14  1  0  0  0  0
  3 15  1  0  0  0  0
  4  3  1  0  0  0  0
  4  8  1  0  0  0  0
  5  6  1  0  0  0  0
  5  4  2  0  0  0  0
  6  7  1  0  0  0  0
  7  8  2  0  0  0  0
  7 18  1  0  0  0  0
  9 19  1  0  0  0  0
 10  9  2  0  0  0  0
 11  1  1  0  0  0  0
 12  1  1  0  0  0  0
 16  5  1  0  0  0  0
 17  6  1  0  0  0  0
 19 20  1  0  0  0  0
 19 29  1  0  0  0  0
 20 30  1  1  0  0  0
 21 32  1  0  0  0  0
 21 20  1  0  0  0  0
 21 22  1  0  0  0  0
 22 26  1  0  0  0  0
 23 22  2  0  0  0  0
 23 24  1  0  0  0  0
 24 34  1  0  0  0  0
 24 25  1  0  0  0  0
 25 35  1  0  0  0  0
 26 25  2  0  0  0  0
 27 36  1  0  0  0  0
 27 20  1  0  0  0  0
 28 27  2  0  0  0  0
 31 21  1  0  0  0  0
 33 23  1  0  0  0  0
 36 46  1  0  0  0  0
 37 47  1  6  0  0  0
 37 42  1  0  0  0  0
 37 38  1  0  0  0  0
 37 36  1  0  0  0  0
 38 48  1  0  0  0  0
 39 50  1  0  0  0  0
 39 38  1  0  0  0  0
 39 51  1  0  0  0  0
 40 39  1  0  0  0  0
 41 40  2  0  0  0  0
 42 45  1  0  0  0  0
 43 42  2  0  0  0  0
 44 40  1  0  0  0  0
 49 38  1  0  0  0  0
 52 44  1  0  0  0  0
M  END
$$$$
