HHF.pdb
 OpenBabel07022418373D

 56 58  0  0  1  0  0  0  0  0999 V2000
    2.0200    1.1430    4.4930 N   0  0  0  0  0  0  0  0  0  0  0  0
    1.9970    1.3050    3.0540 C   0  0  1  0  0  0  0  0  0  0  0  0
    3.0490    0.3490    2.4870 C   0  0  0  0  0  0  0  0  0  0  0  0
    4.3940    0.7020    3.0420 C   0  0  0  0  0  0  0  0  0  0  0  0
    4.9930    0.2300    4.1880 C   0  0  0  0  0  0  0  0  0  0  0  0
    6.1920    0.8320    4.2740 N   0  0  0  0  0  0  0  0  0  0  0  0
    6.3280    1.6480    3.2180 C   0  0  0  0  0  0  0  0  0  0  0  0
    5.2230    1.5720    2.4560 N   0  0  0  0  0  0  0  0  0  0  0  0
    0.6900    0.8470    2.5190 C   0  0  0  0  0  0  0  0  0  0  0  0
   -0.1800    0.4060    3.3100 O   0  0  0  0  0  0  0  0  0  0  0  0
    1.2720    0.4670    4.7720 H   0  0  0  0  0  0  0  0  0  0  0  0
    1.7650    2.0500    4.9770 H   0  0  0  0  0  0  0  0  0  0  0  0
    2.2210    2.3440    2.8130 H   0  0  0  0  0  0  0  0  0  0  0  0
    3.0410    0.3550    1.3800 H   0  0  0  0  0  0  0  0  0  0  0  0
    2.8450   -0.6870    2.8290 H   0  0  0  0  0  0  0  0  0  0  0  0
    4.5630   -0.4910    4.8770 H   0  0  0  0  0  0  0  0  0  0  0  0
    6.8970    0.6750    5.0520 H   0  0  0  0  0  0  0  0  0  0  0  0
    7.2000    2.2600    3.0320 H   0  0  0  0  0  0  0  0  0  0  0  0
    0.3600    0.8790    1.1390 N   0  0  0  0  0  0  0  0  0  0  0  0
   -0.9170    0.4300    0.6290 C   0  0  1  0  0  0  0  0  0  0  0  0
   -1.6790    1.5820   -0.0130 C   0  0  0  0  0  0  0  0  0  0  0  0
   -1.9330    2.6640    0.9720 C   0  0  0  0  0  0  0  0  0  0  0  0
   -3.0490    2.7660    1.7940 C   0  0  0  0  0  0  0  0  0  0  0  0
   -2.9220    3.8790    2.5490 N   0  0  0  0  0  0  0  0  0  0  0  0
   -1.7710    4.4780    2.2320 C   0  0  0  0  0  0  0  0  0  0  0  0
   -1.1790    3.7230    1.2660 N   0  0  0  0  0  0  0  0  0  0  0  0
   -0.7500   -0.6910   -0.3440 C   0  0  0  0  0  0  0  0  0  0  0  0
    0.4060   -1.1210   -0.6200 O   0  0  0  0  0  0  0  0  0  0  0  0
    1.1130    1.2560    0.5000 H   0  0  0  0  0  0  0  0  0  0  0  0
   -1.5290    0.0850    1.4810 H   0  0  0  0  0  0  0  0  0  0  0  0
   -2.6730    1.2230   -0.3490 H   0  0  0  0  0  0  0  0  0  0  0  0
   -1.1470    1.9690   -0.9110 H   0  0  0  0  0  0  0  0  0  0  0  0
   -3.8980    2.0870    1.8510 H   0  0  0  0  0  0  0  0  0  0  0  0
   -3.5950    4.2470    3.2780 H   0  0  0  0  0  0  0  0  0  0  0  0
   -1.3820    5.3930    2.6620 H   0  0  0  0  0  0  0  0  0  0  0  0
   -1.8410   -1.3080   -0.9860 N   0  0  0  0  0  0  0  0  0  0  0  0
   -1.6570   -2.4160   -1.9460 C   0  0  1  0  0  0  0  0  0  0  0  0
   -2.2530   -3.6650   -1.4040 C   0  0  0  0  0  0  0  0  0  0  0  0
   -2.0860   -4.7890   -2.3400 C   0  0  0  0  0  0  0  0  0  0  0  0
   -3.0400   -5.1580   -3.2720 C   0  0  0  0  0  0  0  0  0  0  0  0
   -2.8600   -6.2160   -4.1440 C   0  0  0  0  0  0  0  0  0  0  0  0
   -1.6970   -6.9530   -4.1110 C   0  0  0  0  0  0  0  0  0  0  0  0
   -0.7220   -6.6160   -3.1970 C   0  0  0  0  0  0  0  0  0  0  0  0
   -0.9260   -5.5570   -2.3390 C   0  0  0  0  0  0  0  0  0  0  0  0
   -2.1920   -2.0740   -3.2520 C   0  0  0  0  0  0  0  0  0  0  0  0
   -2.7990   -0.9590   -3.3910 O   0  0  0  0  0  0  0  0  0  0  0  0
   -2.0700   -2.9000   -4.3440 O   0  0  0  0  0  0  0  0  0  0  0  0
   -2.8100   -1.0110   -0.8110 H   0  0  0  0  0  0  0  0  0  0  0  0
   -0.5410   -2.5730   -1.9830 H   0  0  0  0  0  0  0  0  0  0  0  0
   -1.8050   -3.9490   -0.4160 H   0  0  0  0  0  0  0  0  0  0  0  0
   -3.3470   -3.4830   -1.2580 H   0  0  0  0  0  0  0  0  0  0  0  0
   -3.9670   -4.5710   -3.2940 H   0  0  0  0  0  0  0  0  0  0  0  0
   -3.6480   -6.4460   -4.8440 H   0  0  0  0  0  0  0  0  0  0  0  0
   -1.6020   -7.7690   -4.8120 H   0  0  0  0  0  0  0  0  0  0  0  0
    0.1980   -7.1810   -3.1550 H   0  0  0  0  0  0  0  0  0  0  0  0
   -0.1740   -5.2750   -1.6130 H   0  0  0  0  0  0  0  0  0  0  0  0
  1 11  1  0  0  0  0
  1 12  1  0  0  0  0
  2 13  1  6  0  0  0
  2  1  1  0  0  0  0
  3 15  1  0  0  0  0
  3  4  1  0  0  0  0
  3  2  1  0  0  0  0
  4  5  2  0  0  0  0
  5  6  1  0  0  0  0
  5 16  1  0  0  0  0
  6 17  1  0  0  0  0
  7  6  1  0  0  0  0
  8  4  1  0  0  0  0
  8  7  2  0  0  0  0
  9  2  1  0  0  0  0
  9 10  2  0  0  0  0
 14  3  1  0  0  0  0
 18  7  1  0  0  0  0
 19  9  1  0  0  0  0
 20 19  1  0  0  0  0
 20 30  1  1  0  0  0
 21 20  1  0  0  0  0
 21 22  1  0  0  0  0
 22 26  1  0  0  0  0
 22 23  2  0  0  0  0
 23 33  1  0  0  0  0
 23 24  1  0  0  0  0
 24 34  1  0  0  0  0
 25 24  1  0  0  0  0
 25 35  1  0  0  0  0
 26 25  2  0  0  0  0
 27 20  1  0  0  0  0
 28 27  2  0  0  0  0
 29 19  1  0  0  0  0
 31 21  1  0  0  0  0
 32 21  1  0  0  0  0
 36 48  1  0  0  0  0
 36 27  1  0  0  0  0
 37 49  1  6  0  0  0
 37 38  1  0  0  0  0
 37 36  1  0  0  0  0
 38 51  1  0  0  0  0
 38 50  1  0  0  0  0
 39 44  1  0  0  0  0
 39 38  1  0  0  0  0
 40 39  2  0  0  0  0
 41 42  2  0  0  0  0
 41 40  1  0  0  0  0
 42 43  1  0  0  0  0
 43 55  1  0  0  0  0
 43 44  2  0  0  0  0
 44 56  1  0  0  0  0
 45 37  1  0  0  0  0
 46 45  1  0  0  0  0
 47 45  2  0  0  0  0
 52 40  1  0  0  0  0
 53 41  1  0  0  0  0
 54 42  1  0  0  0  0
M  END
$$$$
