HHG.pdb
 OpenBabel07022418363D

 43 44  0  0  1  0  0  0  0  0999 V2000
    0.7580   -4.3200    0.2470 N   0  0  0  0  0  0  0  0  0  0  0  0
    1.3390   -3.8670    1.4700 C   0  0  1  0  0  0  0  0  0  0  0  0
    2.8510   -4.0380    1.3490 C   0  0  0  0  0  0  0  0  0  0  0  0
    3.3310   -3.2190    0.1950 C   0  0  0  0  0  0  0  0  0  0  0  0
    3.7560   -1.9070    0.1810 C   0  0  0  0  0  0  0  0  0  0  0  0
    4.1060   -1.5520   -1.0730 N   0  0  0  0  0  0  0  0  0  0  0  0
    3.9000   -2.6410   -1.8420 C   0  0  0  0  0  0  0  0  0  0  0  0
    3.4340   -3.6430   -1.0810 N   0  0  0  0  0  0  0  0  0  0  0  0
    1.0900   -2.4310    1.7400 C   0  0  0  0  0  0  0  0  0  0  0  0
    1.5430   -1.8940    2.7830 O   0  0  0  0  0  0  0  0  0  0  0  0
   -0.2000   -4.7150    0.3510 H   0  0  0  0  0  0  0  0  0  0  0  0
    0.8700   -3.6880   -0.5500 H   0  0  0  0  0  0  0  0  0  0  0  0
    1.0140   -4.5210    2.3010 H   0  0  0  0  0  0  0  0  0  0  0  0
    3.2890   -3.5970    2.2650 H   0  0  0  0  0  0  0  0  0  0  0  0
    3.1320   -5.1080    1.2210 H   0  0  0  0  0  0  0  0  0  0  0  0
    3.8070   -1.2460    1.0450 H   0  0  0  0  0  0  0  0  0  0  0  0
    4.4660   -0.6500   -1.4420 H   0  0  0  0  0  0  0  0  0  0  0  0
    4.0850   -2.6880   -2.9080 H   0  0  0  0  0  0  0  0  0  0  0  0
    0.3650   -1.5750    0.9070 N   0  0  0  0  0  0  0  0  0  0  0  0
    0.1200   -0.1680    1.1690 C   0  0  1  0  0  0  0  0  0  0  0  0
    0.6000    0.7250    0.1040 C   0  0  0  0  0  0  0  0  0  0  0  0
    0.3460    2.1450    0.3460 C   0  0  0  0  0  0  0  0  0  0  0  0
    1.1560    3.0600    1.0320 C   0  0  0  0  0  0  0  0  0  0  0  0
    0.5960    4.2670    1.0510 N   0  0  0  0  0  0  0  0  0  0  0  0
   -0.5600    4.1610    0.3930 C   0  0  0  0  0  0  0  0  0  0  0  0
   -0.7230    2.9170   -0.0290 N   0  0  0  0  0  0  0  0  0  0  0  0
   -1.3370   -0.0470    1.3700 C   0  0  0  0  0  0  0  0  0  0  0  0
   -2.1220   -0.9990    1.0160 O   0  0  0  0  0  0  0  0  0  0  0  0
   -0.0440   -1.9390    0.0240 H   0  0  0  0  0  0  0  0  0  0  0  0
    0.6110    0.0710    2.1310 H   0  0  0  0  0  0  0  0  0  0  0  0
   -0.0190    0.4800   -0.8210 H   0  0  0  0  0  0  0  0  0  0  0  0
    1.6320    0.5190   -0.2590 H   0  0  0  0  0  0  0  0  0  0  0  0
    2.0920    2.7870    1.4680 H   0  0  0  0  0  0  0  0  0  0  0  0
    0.9470    5.1490    1.4780 H   0  0  0  0  0  0  0  0  0  0  0  0
   -1.2980    4.9500    0.2030 H   0  0  0  0  0  0  0  0  0  0  0  0
   -2.0040    1.0640    1.9460 N   0  0  0  0  0  0  0  0  0  0  0  0
   -3.4440    1.1110    2.1000 C   0  0  0  0  0  0  0  0  0  0  0  0
   -4.1500    1.0070    0.8180 C   0  0  0  0  0  0  0  0  0  0  0  0
   -3.5060    0.8920   -0.2520 O   0  0  0  0  0  0  0  0  0  0  0  0
   -5.5310    1.0310    0.7480 O   0  0  0  0  0  0  0  0  0  0  0  0
   -1.4430    1.8550    2.2900 H   0  0  0  0  0  0  0  0  0  0  0  0
   -3.6900    0.2320    2.7700 H   0  0  0  0  0  0  0  0  0  0  0  0
   -3.7260    1.9950    2.6910 H   0  0  0  0  0  0  0  0  0  0  0  0
  1 11  1  0  0  0  0
  1  2  1  0  0  0  0
  2  9  1  0  0  0  0
  2 13  1  1  0  0  0
  3  2  1  0  0  0  0
  3 14  1  0  0  0  0
  4  3  1  0  0  0  0
  5  4  2  0  0  0  0
  5 16  1  0  0  0  0
  6  5  1  0  0  0  0
  7  8  2  0  0  0  0
  7  6  1  0  0  0  0
  8  4  1  0  0  0  0
  9 10  2  0  0  0  0
 12  1  1  0  0  0  0
 15  3  1  0  0  0  0
 17  6  1  0  0  0  0
 18  7  1  0  0  0  0
 19 20  1  0  0  0  0
 19  9  1  0  0  0  0
 20 27  1  0  0  0  0
 20 30  1  1  0  0  0
 21 22  1  0  0  0  0
 21 20  1  0  0  0  0
 22 23  2  0  0  0  0
 23 24  1  0  0  0  0
 23 33  1  0  0  0  0
 24 34  1  0  0  0  0
 25 24  1  0  0  0  0
 26 22  1  0  0  0  0
 26 25  2  0  0  0  0
 27 36  1  0  0  0  0
 28 27  2  0  0  0  0
 29 19  1  0  0  0  0
 31 21  1  0  0  0  0
 32 21  1  0  0  0  0
 35 25  1  0  0  0  0
 36 37  1  0  0  0  0
 36 41  1  0  0  0  0
 37 43  1  0  0  0  0
 37 42  1  0  0  0  0
 38 37  1  0  0  0  0
 39 38  2  0  0  0  0
 40 38  1  0  0  0  0
M  END
$$$$
