HHK.pdb
 OpenBabel07022418363D

 57 58  0  0  1  0  0  0  0  0999 V2000
    3.3970   -1.8850    1.2190 N   0  0  0  0  0  0  0  0  0  0  0  0
    3.0210   -1.3230    2.5420 C   0  0  1  0  0  0  0  0  0  0  0  0
    4.1900   -0.5430    3.0160 C   0  0  0  0  0  0  0  0  0  0  0  0
    3.9790    0.0390    4.3590 C   0  0  0  0  0  0  0  0  0  0  0  0
    4.9420    0.8260    4.9870 C   0  0  0  0  0  0  0  0  0  0  0  0
    4.4830    1.2020    6.1670 N   0  0  0  0  0  0  0  0  0  0  0  0
    3.2570    0.6720    6.2960 C   0  0  0  0  0  0  0  0  0  0  0  0
    2.9530   -0.0290    5.2070 N   0  0  0  0  0  0  0  0  0  0  0  0
    1.8590   -0.4140    2.3260 C   0  0  0  0  0  0  0  0  0  0  0  0
    1.3200    0.1540    3.2790 O   0  0  0  0  0  0  0  0  0  0  0  0
    4.1600   -1.3320    0.7890 H   0  0  0  0  0  0  0  0  0  0  0  0
    3.6560   -2.8780    1.3060 H   0  0  0  0  0  0  0  0  0  0  0  0
    2.7590   -2.1450    3.1940 H   0  0  0  0  0  0  0  0  0  0  0  0
    4.3870    0.3060    2.3120 H   0  0  0  0  0  0  0  0  0  0  0  0
    5.1060   -1.2050    3.0650 H   0  0  0  0  0  0  0  0  0  0  0  0
    5.9100    1.0850    4.5720 H   0  0  0  0  0  0  0  0  0  0  0  0
    4.9600    1.7980    6.8830 H   0  0  0  0  0  0  0  0  0  0  0  0
    2.6110    0.8070    7.1800 H   0  0  0  0  0  0  0  0  0  0  0  0
    1.3430   -0.1800    1.0240 N   0  0  0  0  0  0  0  0  0  0  0  0
    0.2140    0.7050    0.8100 C   0  0  1  0  0  0  0  0  0  0  0  0
    0.6720    1.7360   -0.2000 C   0  0  0  0  0  0  0  0  0  0  0  0
   -0.3430    2.7300   -0.5530 C   0  0  0  0  0  0  0  0  0  0  0  0
   -0.5430    3.9320    0.0840 C   0  0  0  0  0  0  0  0  0  0  0  0
   -1.5540    4.5550   -0.5280 N   0  0  0  0  0  0  0  0  0  0  0  0
   -2.0060    3.7950   -1.5320 C   0  0  0  0  0  0  0  0  0  0  0  0
   -1.2480    2.6680   -1.5370 N   0  0  0  0  0  0  0  0  0  0  0  0
   -0.8880   -0.0920    0.1600 C   0  0  0  0  0  0  0  0  0  0  0  0
   -1.9880    0.4750   -0.1320 O   0  0  0  0  0  0  0  0  0  0  0  0
    1.8030   -0.6650    0.2270 H   0  0  0  0  0  0  0  0  0  0  0  0
   -0.1360    1.1560    1.7510 H   0  0  0  0  0  0  0  0  0  0  0  0
    1.6130    2.2400    0.1710 H   0  0  0  0  0  0  0  0  0  0  0  0
    1.0330    1.1730   -1.1120 H   0  0  0  0  0  0  0  0  0  0  0  0
    0.0030    4.3360    0.9360 H   0  0  0  0  0  0  0  0  0  0  0  0
   -1.9210    5.4960   -0.2490 H   0  0  0  0  0  0  0  0  0  0  0  0
   -2.8150    4.0530   -2.1910 H   0  0  0  0  0  0  0  0  0  0  0  0
   -0.7390   -1.4530   -0.1380 N   0  0  0  0  0  0  0  0  0  0  0  0
   -1.9200   -2.1720   -0.7980 C   0  0  1  0  0  0  0  0  0  0  0  0
   -1.3780   -2.6840   -2.0800 C   0  0  0  0  0  0  0  0  0  0  0  0
   -2.1620   -3.2530   -3.1610 C   0  0  0  0  0  0  0  0  0  0  0  0
   -3.2130   -4.2470   -2.9990 C   0  0  0  0  0  0  0  0  0  0  0  0
   -4.5240   -3.7520   -2.4260 C   0  0  0  0  0  0  0  0  0  0  0  0
   -5.1020   -2.7530   -3.3640 N   0  0  0  0  0  0  0  0  0  0  0  0
   -2.1760   -3.2500    0.2220 C   0  0  0  0  0  0  0  0  0  0  0  0
   -1.4590   -3.1720    1.2940 O   0  0  0  0  0  0  0  0  0  0  0  0
   -3.0300   -4.2910    0.2070 O   0  0  0  0  0  0  0  0  0  0  0  0
    0.1210   -1.9750    0.0690 H   0  0  0  0  0  0  0  0  0  0  0  0
   -2.6940   -1.4560   -0.9180 H   0  0  0  0  0  0  0  0  0  0  0  0
   -0.5180   -3.4130   -1.8150 H   0  0  0  0  0  0  0  0  0  0  0  0
   -0.7530   -1.8320   -2.5530 H   0  0  0  0  0  0  0  0  0  0  0  0
   -1.3890   -3.7000   -3.9150 H   0  0  0  0  0  0  0  0  0  0  0  0
   -2.5950   -2.3950   -3.8130 H   0  0  0  0  0  0  0  0  0  0  0  0
   -3.5060   -4.7310   -3.9840 H   0  0  0  0  0  0  0  0  0  0  0  0
   -2.8680   -5.1060   -2.3730 H   0  0  0  0  0  0  0  0  0  0  0  0
   -5.2030   -4.6140   -2.3290 H   0  0  0  0  0  0  0  0  0  0  0  0
   -4.4770   -3.2140   -1.4950 H   0  0  0  0  0  0  0  0  0  0  0  0
   -4.9700   -3.1020   -4.3360 H   0  0  0  0  0  0  0  0  0  0  0  0
   -4.6110   -1.8320   -3.2040 H   0  0  0  0  0  0  0  0  0  0  0  0
  1 12  1  0  0  0  0
  1  2  1  0  0  0  0
  2  3  1  0  0  0  0
  2 13  1  1  0  0  0
  3 15  1  0  0  0  0
  3  4  1  0  0  0  0
  4  5  2  0  0  0  0
  4  8  1  0  0  0  0
  5  6  1  0  0  0  0
  6  7  1  0  0  0  0
  6 17  1  0  0  0  0
  7 18  1  0  0  0  0
  8  7  2  0  0  0  0
  9  2  1  0  0  0  0
  9 10  2  0  0  0  0
 11  1  1  0  0  0  0
 14  3  1  0  0  0  0
 16  5  1  0  0  0  0
 19  9  1  0  0  0  0
 20 19  1  0  0  0  0
 20 30  1  1  0  0  0
 21 31  1  0  0  0  0
 21 20  1  0  0  0  0
 22 21  1  0  0  0  0
 22 23  2  0  0  0  0
 23 33  1  0  0  0  0
 24 34  1  0  0  0  0
 24 23  1  0  0  0  0
 25 24  1  0  0  0  0
 26 25  2  0  0  0  0
 26 22  1  0  0  0  0
 27 20  1  0  0  0  0
 28 27  2  0  0  0  0
 29 19  1  0  0  0  0
 32 21  1  0  0  0  0
 35 25  1  0  0  0  0
 36 46  1  0  0  0  0
 36 27  1  0  0  0  0
 37 47  1  6  0  0  0
 37 36  1  0  0  0  0
 37 43  1  0  0  0  0
 38 48  1  0  0  0  0
 38 37  1  0  0  0  0
 39 40  1  0  0  0  0
 39 38  1  0  0  0  0
 40 41  1  0  0  0  0
 40 53  1  0  0  0  0
 41 54  1  0  0  0  0
 41 55  1  0  0  0  0
 42 57  1  0  0  0  0
 42 41  1  0  0  0  0
 43 44  1  0  0  0  0
 45 43  2  0  0  0  0
 49 38  1  0  0  0  0
 50 39  1  0  0  0  0
 51 39  1  0  0  0  0
 52 40  1  0  0  0  0
 56 42  1  0  0  0  0
M  END
$$$$
