HHL.pdb
 OpenBabel07022418363D

 55 56  0  0  1  0  0  0  0  0999 V2000
    0.6390    1.0410    3.6520 N   0  0  0  0  0  0  0  0  0  0  0  0
    1.0480    0.3490    2.4600 C   0  0  1  0  0  0  0  0  0  0  0  0
    0.8710   -1.1170    2.6080 C   0  0  0  0  0  0  0  0  0  0  0  0
    1.6930   -1.6310    3.7350 C   0  0  0  0  0  0  0  0  0  0  0  0
    3.0160   -2.0720    3.5770 C   0  0  0  0  0  0  0  0  0  0  0  0
    3.4740   -2.4660    4.7710 N   0  0  0  0  0  0  0  0  0  0  0  0
    2.5040   -2.2980    5.6880 C   0  0  0  0  0  0  0  0  0  0  0  0
    1.4280   -1.7880    5.0350 N   0  0  0  0  0  0  0  0  0  0  0  0
    0.4020    0.9510    1.2890 C   0  0  0  0  0  0  0  0  0  0  0  0
   -0.3960    1.9000    1.4480 O   0  0  0  0  0  0  0  0  0  0  0  0
    0.1110    0.4240    4.3090 H   0  0  0  0  0  0  0  0  0  0  0  0
    0.0810    1.9040    3.4920 H   0  0  0  0  0  0  0  0  0  0  0  0
    2.1550    0.5860    2.3440 H   0  0  0  0  0  0  0  0  0  0  0  0
    1.0430   -1.7190    1.7270 H   0  0  0  0  0  0  0  0  0  0  0  0
   -0.2000   -1.3320    2.9330 H   0  0  0  0  0  0  0  0  0  0  0  0
    3.5320   -2.0680    2.6260 H   0  0  0  0  0  0  0  0  0  0  0  0
    4.4560   -2.8450    4.9250 H   0  0  0  0  0  0  0  0  0  0  0  0
    2.5750   -2.5260    6.7360 H   0  0  0  0  0  0  0  0  0  0  0  0
    0.6510    0.4830   -0.0270 N   0  0  0  0  0  0  0  0  0  0  0  0
    0.1010    0.9680   -1.2510 C   0  0  1  0  0  0  0  0  0  0  0  0
    1.1530    1.4700   -2.2100 C   0  0  0  0  0  0  0  0  0  0  0  0
    1.8780    2.5890   -1.5360 C   0  0  0  0  0  0  0  0  0  0  0  0
    1.4950    3.9240   -1.6010 C   0  0  0  0  0  0  0  0  0  0  0  0
    2.3570    4.6460   -0.8800 N   0  0  0  0  0  0  0  0  0  0  0  0
    3.2650    3.7950   -0.3650 C   0  0  0  0  0  0  0  0  0  0  0  0
    2.9700    2.5510   -0.7650 N   0  0  0  0  0  0  0  0  0  0  0  0
   -0.8450    0.0280   -1.9010 C   0  0  0  0  0  0  0  0  0  0  0  0
   -1.0200    0.1080   -3.1330 O   0  0  0  0  0  0  0  0  0  0  0  0
    1.3390   -0.3210   -0.0490 H   0  0  0  0  0  0  0  0  0  0  0  0
   -0.4970    1.9180   -1.0190 H   0  0  0  0  0  0  0  0  0  0  0  0
    1.8540    0.6810   -2.5570 H   0  0  0  0  0  0  0  0  0  0  0  0
    0.5900    1.9300   -3.0720 H   0  0  0  0  0  0  0  0  0  0  0  0
    0.6560    4.3610   -2.1320 H   0  0  0  0  0  0  0  0  0  0  0  0
    2.3910    5.6760   -0.6980 H   0  0  0  0  0  0  0  0  0  0  0  0
    4.1060    4.0410    0.2750 H   0  0  0  0  0  0  0  0  0  0  0  0
   -3.0730   -5.1480    0.0430 C   0  0  0  0  0  0  0  0  0  0  0  0
   -2.1230   -4.0830   -0.5820 C   0  0  0  0  0  0  0  0  0  0  0  0
   -1.1790   -3.6060    0.5030 C   0  0  0  0  0  0  0  0  0  0  0  0
   -3.0030   -3.0260   -1.1440 C   0  0  0  0  0  0  0  0  0  0  0  0
   -2.4760   -1.8740   -1.8290 C   0  0  2  0  0  0  0  0  0  0  0  0
   -1.5740   -0.9520   -1.2180 N   0  0  0  0  0  0  0  0  0  0  0  0
   -3.6860   -0.9990   -2.1900 C   0  0  0  0  0  0  0  0  0  0  0  0
   -3.7100    0.2080   -1.8890 O   0  0  0  0  0  0  0  0  0  0  0  0
   -4.7920   -1.5050   -2.8570 O   0  0  0  0  0  0  0  0  0  0  0  0
   -2.5580   -5.7120    0.8450 H   0  0  0  0  0  0  0  0  0  0  0  0
   -3.9530   -4.6460    0.4770 H   0  0  0  0  0  0  0  0  0  0  0  0
   -3.3260   -5.8420   -0.7710 H   0  0  0  0  0  0  0  0  0  0  0  0
   -1.5140   -4.6560   -1.2750 H   0  0  0  0  0  0  0  0  0  0  0  0
   -0.9250   -4.4970    1.1780 H   0  0  0  0  0  0  0  0  0  0  0  0
   -0.2500   -3.1790    0.1660 H   0  0  0  0  0  0  0  0  0  0  0  0
   -1.7430   -2.9110    1.1510 H   0  0  0  0  0  0  0  0  0  0  0  0
   -3.8520   -2.7880   -0.4110 H   0  0  0  0  0  0  0  0  0  0  0  0
   -3.6360   -3.5760   -1.9310 H   0  0  0  0  0  0  0  0  0  0  0  0
   -2.0960   -2.1310   -2.8410 H   0  0  0  0  0  0  0  0  0  0  0  0
   -1.4670   -1.0170   -0.1950 H   0  0  0  0  0  0  0  0  0  0  0  0
  1 11  1  0  0  0  0
  2 13  1  6  0  0  0
  2  3  1  0  0  0  0
  2  1  1  0  0  0  0
  3 15  1  0  0  0  0
  3  4  1  0  0  0  0
  4  8  1  0  0  0  0
  5  4  2  0  0  0  0
  5  6  1  0  0  0  0
  6 17  1  0  0  0  0
  6  7  1  0  0  0  0
  7 18  1  0  0  0  0
  8  7  2  0  0  0  0
  9 10  2  0  0  0  0
  9  2  1  0  0  0  0
 12  1  1  0  0  0  0
 14  3  1  0  0  0  0
 16  5  1  0  0  0  0
 19  9  1  0  0  0  0
 20 30  1  1  0  0  0
 20 19  1  0  0  0  0
 21 22  1  0  0  0  0
 21 20  1  0  0  0  0
 22 26  1  0  0  0  0
 23 22  2  0  0  0  0
 23 24  1  0  0  0  0
 24 34  1  0  0  0  0
 24 25  1  0  0  0  0
 25 35  1  0  0  0  0
 26 25  2  0  0  0  0
 27 20  1  0  0  0  0
 27 41  1  0  0  0  0
 28 27  2  0  0  0  0
 29 19  1  0  0  0  0
 31 21  1  0  0  0  0
 32 21  1  0  0  0  0
 33 23  1  0  0  0  0
 36 46  1  0  0  0  0
 36 45  1  0  0  0  0
 37 36  1  0  0  0  0
 37 38  1  0  0  0  0
 38 51  1  0  0  0  0
 38 49  1  0  0  0  0
 39 37  1  0  0  0  0
 39 52  1  0  0  0  0
 40 54  1  6  0  0  0
 40 41  1  0  0  0  0
 40 39  1  0  0  0  0
 41 55  1  0  0  0  0
 42 43  1  0  0  0  0
 42 40  1  0  0  0  0
 44 42  2  0  0  0  0
 47 36  1  0  0  0  0
 48 37  1  0  0  0  0
 50 38  1  0  0  0  0
 53 39  1  0  0  0  0
M  END
$$$$
