HHM.pdb
 OpenBabel07022418373D

 53 54  0  0  1  0  0  0  0  0999 V2000
    1.7850    0.5280    3.9920 N   0  0  0  0  0  0  0  0  0  0  0  0
    1.9140    0.0140    2.6680 C   0  0  1  0  0  0  0  0  0  0  0  0
    2.3560   -1.4100    2.7210 C   0  0  0  0  0  0  0  0  0  0  0  0
    3.6840   -1.4520    3.4270 C   0  0  0  0  0  0  0  0  0  0  0  0
    4.9160   -1.3440    2.8210 C   0  0  0  0  0  0  0  0  0  0  0  0
    5.8680   -1.4240    3.7640 N   0  0  0  0  0  0  0  0  0  0  0  0
    5.2240   -1.5790    4.9350 C   0  0  0  0  0  0  0  0  0  0  0  0
    3.9040   -1.5950    4.7290 N   0  0  0  0  0  0  0  0  0  0  0  0
    0.7080    0.2350    1.8360 C   0  0  0  0  0  0  0  0  0  0  0  0
   -0.2930    0.8410    2.3190 O   0  0  0  0  0  0  0  0  0  0  0  0
    1.0100    1.1890    4.1370 H   0  0  0  0  0  0  0  0  0  0  0  0
    1.9780   -0.1250    4.7570 H   0  0  0  0  0  0  0  0  0  0  0  0
    2.7420    0.5970    2.1680 H   0  0  0  0  0  0  0  0  0  0  0  0
    1.6560   -2.0220    3.3150 H   0  0  0  0  0  0  0  0  0  0  0  0
    2.5040   -1.8670    1.7260 H   0  0  0  0  0  0  0  0  0  0  0  0
    5.1320   -1.2150    1.7610 H   0  0  0  0  0  0  0  0  0  0  0  0
    6.9120   -1.3760    3.6300 H   0  0  0  0  0  0  0  0  0  0  0  0
    5.6900   -1.6760    5.9050 H   0  0  0  0  0  0  0  0  0  0  0  0
    0.5970   -0.2040    0.4920 N   0  0  0  0  0  0  0  0  0  0  0  0
   -0.6000    0.0360   -0.2740 C   0  0  1  0  0  0  0  0  0  0  0  0
   -0.3420    0.8430   -1.5230 C   0  0  0  0  0  0  0  0  0  0  0  0
    0.2270    2.1690   -1.2670 C   0  0  0  0  0  0  0  0  0  0  0  0
   -0.4460    3.3510   -1.0570 C   0  0  0  0  0  0  0  0  0  0  0  0
    0.4840    4.3030   -0.8660 N   0  0  0  0  0  0  0  0  0  0  0  0
    1.7100    3.7510   -0.9500 C   0  0  0  0  0  0  0  0  0  0  0  0
    1.5360    2.4510   -1.1950 N   0  0  0  0  0  0  0  0  0  0  0  0
   -1.1870   -1.2660   -0.6570 C   0  0  0  0  0  0  0  0  0  0  0  0
   -0.5870   -2.3240   -0.2810 O   0  0  0  0  0  0  0  0  0  0  0  0
    1.3810   -0.7110    0.0300 H   0  0  0  0  0  0  0  0  0  0  0  0
   -1.3450    0.6000    0.3440 H   0  0  0  0  0  0  0  0  0  0  0  0
    0.2640    0.2430   -2.2490 H   0  0  0  0  0  0  0  0  0  0  0  0
   -1.3300    0.9850   -2.0170 H   0  0  0  0  0  0  0  0  0  0  0  0
   -1.5270    3.5200   -1.0420 H   0  0  0  0  0  0  0  0  0  0  0  0
    0.3180    5.3160   -0.6790 H   0  0  0  0  0  0  0  0  0  0  0  0
    2.6470    4.2940   -0.8350 H   0  0  0  0  0  0  0  0  0  0  0  0
   -3.0020   -3.3680    1.6020 C   0  0  0  0  0  0  0  0  0  0  0  0
   -4.6360   -3.4650    0.9220 S   0  0  0  0  0  0  0  0  0  0  0  0
   -5.0090   -2.4290   -0.4610 C   0  0  0  0  0  0  0  0  0  0  0  0
   -4.3800   -2.7570   -1.7720 C   0  0  0  0  0  0  0  0  0  0  0  0
   -2.8960   -2.6670   -1.7500 C   0  0  2  0  0  0  0  0  0  0  0  0
   -2.3780   -1.3600   -1.4180 N   0  0  0  0  0  0  0  0  0  0  0  0
   -2.3730   -2.9840   -3.1520 C   0  0  0  0  0  0  0  0  0  0  0  0
   -2.6670   -4.0710   -3.7100 O   0  0  0  0  0  0  0  0  0  0  0  0
   -1.5780   -2.0620   -3.7940 O   0  0  0  0  0  0  0  0  0  0  0  0
   -2.2960   -4.0530    1.1050 H   0  0  0  0  0  0  0  0  0  0  0  0
   -2.9770   -3.6810    2.6970 H   0  0  0  0  0  0  0  0  0  0  0  0
   -2.5660   -2.3410    1.5930 H   0  0  0  0  0  0  0  0  0  0  0  0
   -4.8690   -1.3300   -0.2250 H   0  0  0  0  0  0  0  0  0  0  0  0
   -6.1350   -2.4730   -0.6580 H   0  0  0  0  0  0  0  0  0  0  0  0
   -4.7750   -2.0660   -2.5630 H   0  0  0  0  0  0  0  0  0  0  0  0
   -4.6430   -3.8060   -2.0800 H   0  0  0  0  0  0  0  0  0  0  0  0
   -2.4750   -3.4820   -1.1410 H   0  0  0  0  0  0  0  0  0  0  0  0
   -2.8480   -0.4850   -1.7160 H   0  0  0  0  0  0  0  0  0  0  0  0
  1 11  1  0  0  0  0
  1 12  1  0  0  0  0
  2 13  1  6  0  0  0
  2  3  1  0  0  0  0
  2  1  1  0  0  0  0
  3 14  1  0  0  0  0
  3  4  1  0  0  0  0
  4  8  1  0  0  0  0
  5  4  2  0  0  0  0
  5  6  1  0  0  0  0
  6  7  1  0  0  0  0
  7 18  1  0  0  0  0
  8  7  2  0  0  0  0
  9 10  2  0  0  0  0
  9  2  1  0  0  0  0
 15  3  1  0  0  0  0
 16  5  1  0  0  0  0
 17  6  1  0  0  0  0
 19  9  1  0  0  0  0
 20 30  1  1  0  0  0
 20 19  1  0  0  0  0
 21 22  1  0  0  0  0
 21 20  1  0  0  0  0
 22 26  1  0  0  0  0
 22 23  2  0  0  0  0
 23 33  1  0  0  0  0
 23 24  1  0  0  0  0
 24 34  1  0  0  0  0
 25 24  1  0  0  0  0
 25 35  1  0  0  0  0
 26 25  2  0  0  0  0
 27 28  2  0  0  0  0
 27 20  1  0  0  0  0
 29 19  1  0  0  0  0
 31 21  1  0  0  0  0
 32 21  1  0  0  0  0
 36 46  1  0  0  0  0
 37 36  1  0  0  0  0
 38 48  1  0  0  0  0
 38 37  1  0  0  0  0
 39 40  1  0  0  0  0
 39 38  1  0  0  0  0
 40 41  1  0  0  0  0
 40 52  1  1  0  0  0
 41 27  1  0  0  0  0
 42 40  1  0  0  0  0
 43 42  1  0  0  0  0
 44 42  2  0  0  0  0
 45 36  1  0  0  0  0
 47 36  1  0  0  0  0
 49 38  1  0  0  0  0
 50 39  1  0  0  0  0
 51 39  1  0  0  0  0
 53 41  1  0  0  0  0
M  END
$$$$
