HHP.pdb
 OpenBabel07022418373D

 50 52  0  0  1  0  0  0  0  0999 V2000
   -2.1480    1.2660    1.8780 N   0  0  0  0  0  0  0  0  0  0  0  0
   -1.6490    1.7800    0.6440 C   0  0  1  0  0  0  0  0  0  0  0  0
   -0.8930    3.0460    0.7900 C   0  0  0  0  0  0  0  0  0  0  0  0
    0.2970    2.9850    1.6630 C   0  0  0  0  0  0  0  0  0  0  0  0
    1.1720    4.0400    1.9590 C   0  0  0  0  0  0  0  0  0  0  0  0
    2.1170    3.5650    2.7870 N   0  0  0  0  0  0  0  0  0  0  0  0
    1.8940    2.2620    3.0380 C   0  0  0  0  0  0  0  0  0  0  0  0
    0.8010    1.9500    2.3510 N   0  0  0  0  0  0  0  0  0  0  0  0
   -0.9660    0.7520   -0.2020 C   0  0  0  0  0  0  0  0  0  0  0  0
   -0.2910    1.0940   -1.1820 O   0  0  0  0  0  0  0  0  0  0  0  0
   -2.9190    0.5960    1.7440 H   0  0  0  0  0  0  0  0  0  0  0  0
   -1.3970    0.8450    2.4600 H   0  0  0  0  0  0  0  0  0  0  0  0
   -2.6000    2.0240    0.0330 H   0  0  0  0  0  0  0  0  0  0  0  0
   -0.5920    3.4600   -0.2150 H   0  0  0  0  0  0  0  0  0  0  0  0
   -1.5540    3.8520    1.2210 H   0  0  0  0  0  0  0  0  0  0  0  0
    1.0510    5.0300    1.5600 H   0  0  0  0  0  0  0  0  0  0  0  0
    2.9120    4.1030    3.1890 H   0  0  0  0  0  0  0  0  0  0  0  0
    2.4940    1.6050    3.6770 H   0  0  0  0  0  0  0  0  0  0  0  0
   -1.0850   -0.6230    0.1000 N   0  0  0  0  0  0  0  0  0  0  0  0
   -0.5650   -1.7380   -0.5660 C   0  0  1  0  0  0  0  0  0  0  0  0
   -0.1820   -1.5240   -2.0440 C   0  0  0  0  0  0  0  0  0  0  0  0
   -1.3390   -1.2000   -2.8930 C   0  0  0  0  0  0  0  0  0  0  0  0
   -2.0920   -2.2160   -3.5140 C   0  0  0  0  0  0  0  0  0  0  0  0
   -3.0900   -1.6770   -4.2280 N   0  0  0  0  0  0  0  0  0  0  0  0
   -3.0020   -0.3430   -4.0870 C   0  0  0  0  0  0  0  0  0  0  0  0
   -1.9450   -0.0790   -3.2820 N   0  0  0  0  0  0  0  0  0  0  0  0
    0.3760   -2.6340    0.0440 C   0  0  0  0  0  0  0  0  0  0  0  0
    0.7690   -3.5900   -0.7320 O   0  0  0  0  0  0  0  0  0  0  0  0
   -1.6750   -0.8240    0.9760 H   0  0  0  0  0  0  0  0  0  0  0  0
   -1.5060   -2.4410   -0.7820 H   0  0  0  0  0  0  0  0  0  0  0  0
    0.2540   -2.5040   -2.3550 H   0  0  0  0  0  0  0  0  0  0  0  0
    0.6540   -0.8030   -2.1370 H   0  0  0  0  0  0  0  0  0  0  0  0
   -1.9010   -3.2700   -3.4310 H   0  0  0  0  0  0  0  0  0  0  0  0
   -3.8220   -2.1460   -4.8030 H   0  0  0  0  0  0  0  0  0  0  0  0
   -3.6800    0.3590   -4.5530 H   0  0  0  0  0  0  0  0  0  0  0  0
    0.9320   -2.6360    1.3460 N   0  0  0  0  0  0  0  0  0  0  0  0
    0.7420   -1.7630    2.4590 C   0  0  0  0  0  0  0  0  0  0  0  0
    2.0770   -1.7270    3.1300 C   0  0  0  0  0  0  0  0  0  0  0  0
    2.9410   -2.7510    2.4300 C   0  0  0  0  0  0  0  0  0  0  0  0
    1.8770   -3.6260    1.8090 C   0  0  1  0  0  0  0  0  0  0  0  0
    1.3230   -4.4980    2.8570 C   0  0  0  0  0  0  0  0  0  0  0  0
    0.1460   -4.4690    3.2910 O   0  0  0  0  0  0  0  0  0  0  0  0
    2.1410   -5.4740    3.4650 O   0  0  0  0  0  0  0  0  0  0  0  0
    0.3590   -0.7630    2.1880 H   0  0  0  0  0  0  0  0  0  0  0  0
   -0.0510   -2.1970    3.1310 H   0  0  0  0  0  0  0  0  0  0  0  0
    2.5390   -0.7310    3.1580 H   0  0  0  0  0  0  0  0  0  0  0  0
    1.9220   -2.0180    4.2060 H   0  0  0  0  0  0  0  0  0  0  0  0
    3.5370   -2.2850    1.6020 H   0  0  0  0  0  0  0  0  0  0  0  0
    3.6010   -3.3030    3.1270 H   0  0  0  0  0  0  0  0  0  0  0  0
    2.2920   -4.2210    0.9550 H   0  0  0  0  0  0  0  0  0  0  0  0
  1 12  1  0  0  0  0
  2 13  1  6  0  0  0
  2  3  1  0  0  0  0
  2  1  1  0  0  0  0
  3 15  1  0  0  0  0
  3  4  1  0  0  0  0
  4  5  2  0  0  0  0
  4  8  1  0  0  0  0
  5  6  1  0  0  0  0
  6  7  1  0  0  0  0
  6 17  1  0  0  0  0
  7 18  1  0  0  0  0
  8  7  2  0  0  0  0
  9 19  1  0  0  0  0
  9  2  1  0  0  0  0
 10  9  2  0  0  0  0
 11  1  1  0  0  0  0
 14  3  1  0  0  0  0
 16  5  1  0  0  0  0
 19 29  1  0  0  0  0
 20 30  1  6  0  0  0
 20 27  1  0  0  0  0
 20 19  1  0  0  0  0
 21 20  1  0  0  0  0
 22 21  1  0  0  0  0
 23 33  1  0  0  0  0
 23 22  2  0  0  0  0
 24 25  1  0  0  0  0
 24 23  1  0  0  0  0
 25 26  2  0  0  0  0
 26 22  1  0  0  0  0
 27 36  1  0  0  0  0
 28 27  2  0  0  0  0
 31 21  1  0  0  0  0
 32 21  1  0  0  0  0
 34 24  1  0  0  0  0
 35 25  1  0  0  0  0
 36 40  1  0  0  0  0
 36 37  1  0  0  0  0
 37 38  1  0  0  0  0
 37 45  1  0  0  0  0
 38 46  1  0  0  0  0
 38 47  1  0  0  0  0
 39 49  1  0  0  0  0
 39 38  1  0  0  0  0
 40 50  1  6  0  0  0
 40 39  1  0  0  0  0
 40 41  1  0  0  0  0
 41 42  2  0  0  0  0
 41 43  1  0  0  0  0
 44 37  1  0  0  0  0
 48 39  1  0  0  0  0
M  END
$$$$
