HHQ.pdb
 OpenBabel07022418363D

 53 54  0  0  1  0  0  0  0  0999 V2000
   -0.3830   -1.0360    3.4730 N   0  0  0  0  0  0  0  0  0  0  0  0
   -0.4560    0.0780    2.5350 C   0  0  1  0  0  0  0  0  0  0  0  0
    0.3130    1.2400    3.0710 C   0  0  0  0  0  0  0  0  0  0  0  0
    1.7330    0.9970    3.3210 C   0  0  0  0  0  0  0  0  0  0  0  0
    2.8240    1.1640    2.4980 C   0  0  0  0  0  0  0  0  0  0  0  0
    3.9530    0.8230    3.1390 N   0  0  0  0  0  0  0  0  0  0  0  0
    3.5950    0.4310    4.3870 C   0  0  0  0  0  0  0  0  0  0  0  0
    2.2680    0.5370    4.4900 N   0  0  0  0  0  0  0  0  0  0  0  0
    0.0110   -0.3570    1.2140 C   0  0  0  0  0  0  0  0  0  0  0  0
    0.4680   -1.5040    1.0600 O   0  0  0  0  0  0  0  0  0  0  0  0
   -0.4190   -0.6910    4.4420 H   0  0  0  0  0  0  0  0  0  0  0  0
   -1.1100   -1.7440    3.2360 H   0  0  0  0  0  0  0  0  0  0  0  0
   -1.5550    0.3480    2.5180 H   0  0  0  0  0  0  0  0  0  0  0  0
    0.1520    2.1670    2.4550 H   0  0  0  0  0  0  0  0  0  0  0  0
   -0.1570    1.5010    4.0650 H   0  0  0  0  0  0  0  0  0  0  0  0
    2.8080    1.5190    1.4810 H   0  0  0  0  0  0  0  0  0  0  0  0
    4.9420    0.8310    2.8100 H   0  0  0  0  0  0  0  0  0  0  0  0
    4.2270    0.0850    5.1970 H   0  0  0  0  0  0  0  0  0  0  0  0
   -0.0380    0.4890    0.0690 N   0  0  0  0  0  0  0  0  0  0  0  0
    0.4060    0.0200   -1.1860 C   0  0  1  0  0  0  0  0  0  0  0  0
    1.8480   -0.0950   -1.4560 C   0  0  0  0  0  0  0  0  0  0  0  0
    2.5730    1.1980   -1.3600 C   0  0  0  0  0  0  0  0  0  0  0  0
    3.9120    1.4570   -1.5470 C   0  0  0  0  0  0  0  0  0  0  0  0
    4.1010    2.7740   -1.3530 N   0  0  0  0  0  0  0  0  0  0  0  0
    2.9300    3.3580   -1.0500 C   0  0  0  0  0  0  0  0  0  0  0  0
    2.0040    2.3830   -1.0570 N   0  0  0  0  0  0  0  0  0  0  0  0
   -0.3950   -1.1410   -1.7350 C   0  0  0  0  0  0  0  0  0  0  0  0
    0.0410   -1.6670   -2.8180 O   0  0  0  0  0  0  0  0  0  0  0  0
   -0.4250    1.4680    0.2430 H   0  0  0  0  0  0  0  0  0  0  0  0
    0.0560    0.8420   -1.9170 H   0  0  0  0  0  0  0  0  0  0  0  0
    2.4050   -0.8150   -0.8360 H   0  0  0  0  0  0  0  0  0  0  0  0
    1.9860   -0.4390   -2.5130 H   0  0  0  0  0  0  0  0  0  0  0  0
    4.6550    0.7080   -1.8050 H   0  0  0  0  0  0  0  0  0  0  0  0
    5.0200    3.2810   -1.4260 H   0  0  0  0  0  0  0  0  0  0  0  0
    2.8160    4.4150   -0.8480 H   0  0  0  0  0  0  0  0  0  0  0  0
   -4.4610   -3.6740    2.2260 N   0  0  0  0  0  0  0  0  0  0  0  0
   -4.0890   -3.6510    0.8570 C   0  0  0  0  0  0  0  0  0  0  0  0
   -4.9570   -3.3500    0.0340 O   0  0  0  0  0  0  0  0  0  0  0  0
   -2.7100   -3.9860    0.5280 C   0  0  0  0  0  0  0  0  0  0  0  0
   -2.2450   -3.9670   -0.8520 C   0  0  0  0  0  0  0  0  0  0  0  0
   -2.2870   -2.7420   -1.6660 C   0  0  2  0  0  0  0  0  0  0  0  0
   -1.5600   -1.6290   -1.1040 N   0  0  0  0  0  0  0  0  0  0  0  0
   -3.6090   -2.3640   -2.1810 C   0  0  0  0  0  0  0  0  0  0  0  0
   -4.0260   -1.2020   -1.9860 O   0  0  0  0  0  0  0  0  0  0  0  0
   -4.4320   -3.2250   -2.8840 O   0  0  0  0  0  0  0  0  0  0  0  0
   -4.1100   -2.9440    2.8700 H   0  0  0  0  0  0  0  0  0  0  0  0
   -5.0830   -4.4110    2.6040 H   0  0  0  0  0  0  0  0  0  0  0  0
   -2.0350   -3.4500    1.2540 H   0  0  0  0  0  0  0  0  0  0  0  0
   -2.5870   -5.0680    0.8860 H   0  0  0  0  0  0  0  0  0  0  0  0
   -2.8340   -4.7560   -1.4190 H   0  0  0  0  0  0  0  0  0  0  0  0
   -1.2010   -4.4080   -0.8670 H   0  0  0  0  0  0  0  0  0  0  0  0
   -1.6850   -3.0170   -2.6140 H   0  0  0  0  0  0  0  0  0  0  0  0
   -1.8560   -1.1350   -0.2330 H   0  0  0  0  0  0  0  0  0  0  0  0
  1 11  1  0  0  0  0
  2 13  1  6  0  0  0
  2  3  1  0  0  0  0
  2  1  1  0  0  0  0
  3  4  1  0  0  0  0
  3 15  1  0  0  0  0
  4  8  1  0  0  0  0
  5  6  1  0  0  0  0
  5  4  2  0  0  0  0
  6  7  1  0  0  0  0
  7  8  2  0  0  0  0
  7 18  1  0  0  0  0
  9  2  1  0  0  0  0
 10  9  2  0  0  0  0
 12  1  1  0  0  0  0
 14  3  1  0  0  0  0
 16  5  1  0  0  0  0
 17  6  1  0  0  0  0
 19 29  1  0  0  0  0
 19  9  1  0  0  0  0
 20 30  1  6  0  0  0
 20 19  1  0  0  0  0
 21 22  1  0  0  0  0
 21 20  1  0  0  0  0
 21 31  1  0  0  0  0
 22 26  1  0  0  0  0
 23 22  2  0  0  0  0
 23 24  1  0  0  0  0
 24 25  1  0  0  0  0
 25 35  1  0  0  0  0
 26 25  2  0  0  0  0
 27 20  1  0  0  0  0
 27 42  1  0  0  0  0
 28 27  2  0  0  0  0
 32 21  1  0  0  0  0
 33 23  1  0  0  0  0
 34 24  1  0  0  0  0
 36 47  1  0  0  0  0
 36 46  1  0  0  0  0
 37 36  1  0  0  0  0
 38 37  2  0  0  0  0
 39 37  1  0  0  0  0
 39 49  1  0  0  0  0
 39 48  1  0  0  0  0
 40 39  1  0  0  0  0
 41 52  1  6  0  0  0
 41 42  1  0  0  0  0
 41 40  1  0  0  0  0
 42 53  1  0  0  0  0
 43 44  1  0  0  0  0
 43 41  1  0  0  0  0
 45 43  2  0  0  0  0
 50 40  1  0  0  0  0
 51 40  1  0  0  0  0
M  END
$$$$
