HHS.pdb
 OpenBabel07022418373D

 47 48  0  0  1  0  0  0  0  0999 V2000
    2.3700   -3.7320    2.3300 N   0  0  0  0  0  0  0  0  0  0  0  0
    2.4260   -2.2990    2.0340 C   0  0  1  0  0  0  0  0  0  0  0  0
    3.4360   -1.9890    0.9970 C   0  0  0  0  0  0  0  0  0  0  0  0
    3.2540   -2.6190   -0.3180 C   0  0  0  0  0  0  0  0  0  0  0  0
    2.6230   -2.0640   -1.4110 C   0  0  0  0  0  0  0  0  0  0  0  0
    2.6820   -2.9020   -2.4600 N   0  0  0  0  0  0  0  0  0  0  0  0
    3.3500   -3.9840   -2.0280 C   0  0  0  0  0  0  0  0  0  0  0  0
    3.7060   -3.8310   -0.7290 N   0  0  0  0  0  0  0  0  0  0  0  0
    1.1010   -1.7220    1.8590 C   0  0  0  0  0  0  0  0  0  0  0  0
    0.0350   -2.3770    2.1500 O   0  0  0  0  0  0  0  0  0  0  0  0
    2.1920   -4.2430    1.4210 H   0  0  0  0  0  0  0  0  0  0  0  0
    3.3620   -4.0030    2.5920 H   0  0  0  0  0  0  0  0  0  0  0  0
    2.8380   -1.8140    3.0010 H   0  0  0  0  0  0  0  0  0  0  0  0
    3.4760   -0.8710    0.8400 H   0  0  0  0  0  0  0  0  0  0  0  0
    4.4780   -2.2520    1.3480 H   0  0  0  0  0  0  0  0  0  0  0  0
    2.1460   -1.1020   -1.4780 H   0  0  0  0  0  0  0  0  0  0  0  0
    2.2960   -2.7610   -3.4250 H   0  0  0  0  0  0  0  0  0  0  0  0
    3.6040   -4.8800   -2.5840 H   0  0  0  0  0  0  0  0  0  0  0  0
    0.9120   -0.4120    1.3690 N   0  0  0  0  0  0  0  0  0  0  0  0
   -0.3950    0.1440    1.2380 C   0  0  1  0  0  0  0  0  0  0  0  0
   -0.5600    1.4960    1.9240 C   0  0  0  0  0  0  0  0  0  0  0  0
   -0.3000    1.3910    3.3780 C   0  0  0  0  0  0  0  0  0  0  0  0
   -1.2490    1.0990    4.3390 C   0  0  0  0  0  0  0  0  0  0  0  0
   -0.6860    1.0770    5.5560 N   0  0  0  0  0  0  0  0  0  0  0  0
    0.6150    1.3490    5.4000 C   0  0  0  0  0  0  0  0  0  0  0  0
    0.8400    1.5400    4.0680 N   0  0  0  0  0  0  0  0  0  0  0  0
   -0.9680    0.1250   -0.1270 C   0  0  0  0  0  0  0  0  0  0  0  0
   -0.3870   -0.3530   -1.1220 O   0  0  0  0  0  0  0  0  0  0  0  0
    1.7300    0.2060    1.0810 H   0  0  0  0  0  0  0  0  0  0  0  0
   -1.0880   -0.5370    1.8540 H   0  0  0  0  0  0  0  0  0  0  0  0
   -1.5620    1.9030    1.7970 H   0  0  0  0  0  0  0  0  0  0  0  0
    0.1580    2.2520    1.5310 H   0  0  0  0  0  0  0  0  0  0  0  0
   -2.2930    0.9170    4.1250 H   0  0  0  0  0  0  0  0  0  0  0  0
   -1.1560    0.8860    6.4540 H   0  0  0  0  0  0  0  0  0  0  0  0
    1.3540    1.4050    6.2160 H   0  0  0  0  0  0  0  0  0  0  0  0
   -3.5870   -1.5280   -1.2260 O   0  0  0  0  0  0  0  0  0  0  0  0
   -4.0960   -0.2760   -1.5910 C   0  0  0  0  0  0  0  0  0  0  0  0
   -2.8780    0.6610   -1.6860 C   0  0  2  0  0  0  0  0  0  0  0  0
   -2.2710    0.6700   -0.3870 N   0  0  0  0  0  0  0  0  0  0  0  0
   -3.2290    1.9680   -2.2330 C   0  0  0  0  0  0  0  0  0  0  0  0
   -3.7830    2.0540   -3.3490 O   0  0  0  0  0  0  0  0  0  0  0  0
   -2.9540    3.1190   -1.5290 O   0  0  0  0  0  0  0  0  0  0  0  0
   -3.8980   -1.7420   -0.3130 H   0  0  0  0  0  0  0  0  0  0  0  0
   -4.8170    0.0810   -0.8290 H   0  0  0  0  0  0  0  0  0  0  0  0
   -4.5420   -0.4020   -2.6020 H   0  0  0  0  0  0  0  0  0  0  0  0
   -2.1490    0.1330   -2.3720 H   0  0  0  0  0  0  0  0  0  0  0  0
   -2.7900    1.0840    0.4080 H   0  0  0  0  0  0  0  0  0  0  0  0
  1 12  1  0  0  0  0
  2  1  1  0  0  0  0
  2 13  1  1  0  0  0
  3 15  1  0  0  0  0
  3  2  1  0  0  0  0
  4  3  1  0  0  0  0
  5  4  2  0  0  0  0
  6  7  1  0  0  0  0
  6  5  1  0  0  0  0
  7  8  2  0  0  0  0
  8  4  1  0  0  0  0
  9  2  1  0  0  0  0
  9 10  2  0  0  0  0
 11  1  1  0  0  0  0
 14  3  1  0  0  0  0
 16  5  1  0  0  0  0
 17  6  1  0  0  0  0
 18  7  1  0  0  0  0
 19  9  1  0  0  0  0
 20 19  1  0  0  0  0
 20 30  1  1  0  0  0
 20 21  1  0  0  0  0
 21 22  1  0  0  0  0
 22 26  1  0  0  0  0
 22 23  2  0  0  0  0
 23 24  1  0  0  0  0
 24 34  1  0  0  0  0
 25 24  1  0  0  0  0
 25 35  1  0  0  0  0
 26 25  2  0  0  0  0
 27 20  1  0  0  0  0
 28 27  2  0  0  0  0
 29 19  1  0  0  0  0
 31 21  1  0  0  0  0
 32 21  1  0  0  0  0
 33 23  1  0  0  0  0
 36 43  1  0  0  0  0
 37 36  1  0  0  0  0
 37 44  1  0  0  0  0
 38 46  1  6  0  0  0
 38 37  1  0  0  0  0
 38 39  1  0  0  0  0
 39 27  1  0  0  0  0
 39 47  1  0  0  0  0
 40 38  1  0  0  0  0
 40 42  1  0  0  0  0
 41 40  2  0  0  0  0
 45 37  1  0  0  0  0
M  END
$$$$
