HHT.pdb
 OpenBabel07022418373D

 50 51  0  0  1  0  0  0  0  0999 V2000
    2.9550   -1.7790    1.3300 N   0  0  0  0  0  0  0  0  0  0  0  0
    2.8000   -0.4190    0.7310 C   0  0  1  0  0  0  0  0  0  0  0  0
    2.9140   -0.6580   -0.7370 C   0  0  0  0  0  0  0  0  0  0  0  0
    2.8810    0.4930   -1.6170 C   0  0  0  0  0  0  0  0  0  0  0  0
    2.8820    1.8210   -1.3360 C   0  0  0  0  0  0  0  0  0  0  0  0
    2.9040    2.4930   -2.5170 N   0  0  0  0  0  0  0  0  0  0  0  0
    2.9180    1.5980   -3.5080 C   0  0  0  0  0  0  0  0  0  0  0  0
    2.9040    0.3770   -2.9790 N   0  0  0  0  0  0  0  0  0  0  0  0
    1.4270    0.0000    1.1550 C   0  0  0  0  0  0  0  0  0  0  0  0
    0.9700    1.0930    0.8060 O   0  0  0  0  0  0  0  0  0  0  0  0
    3.1540   -1.6690    2.3470 H   0  0  0  0  0  0  0  0  0  0  0  0
    3.6890   -2.3120    0.8170 H   0  0  0  0  0  0  0  0  0  0  0  0
    3.5780    0.2360    1.1050 H   0  0  0  0  0  0  0  0  0  0  0  0
    3.9340   -1.1450   -0.8780 H   0  0  0  0  0  0  0  0  0  0  0  0
    2.2160   -1.4750   -1.0700 H   0  0  0  0  0  0  0  0  0  0  0  0
    2.8900    2.3280   -0.3710 H   0  0  0  0  0  0  0  0  0  0  0  0
    2.9100    3.5180   -2.6220 H   0  0  0  0  0  0  0  0  0  0  0  0
    2.9370    1.7670   -4.5860 H   0  0  0  0  0  0  0  0  0  0  0  0
    0.5900   -0.8270    1.9680 N   0  0  0  0  0  0  0  0  0  0  0  0
   -0.7130   -0.5210    2.4380 C   0  0  1  0  0  0  0  0  0  0  0  0
   -0.9710    0.9440    2.7640 C   0  0  0  0  0  0  0  0  0  0  0  0
   -0.0680    1.3390    3.8500 C   0  0  0  0  0  0  0  0  0  0  0  0
    1.1740    1.8770    3.9270 C   0  0  0  0  0  0  0  0  0  0  0  0
    1.5460    2.0500    5.2240 N   0  0  0  0  0  0  0  0  0  0  0  0
    0.5270    1.6180    5.9660 C   0  0  0  0  0  0  0  0  0  0  0  0
   -0.4470    1.1880    5.1610 N   0  0  0  0  0  0  0  0  0  0  0  0
   -1.8260   -1.1790    1.7420 C   0  0  0  0  0  0  0  0  0  0  0  0
   -3.0210   -0.9600    2.1000 O   0  0  0  0  0  0  0  0  0  0  0  0
    1.0220   -1.7650    2.2290 H   0  0  0  0  0  0  0  0  0  0  0  0
   -0.7260   -0.9550    3.5170 H   0  0  0  0  0  0  0  0  0  0  0  0
   -2.0260    0.9500    3.1660 H   0  0  0  0  0  0  0  0  0  0  0  0
   -0.9780    1.6020    1.8870 H   0  0  0  0  0  0  0  0  0  0  0  0
    1.7890    2.1380    3.0940 H   0  0  0  0  0  0  0  0  0  0  0  0
    2.4570    2.4480    5.5410 H   0  0  0  0  0  0  0  0  0  0  0  0
    0.5340    1.6320    7.0490 H   0  0  0  0  0  0  0  0  0  0  0  0
   -3.8620   -3.0550   -2.2070 C   0  0  0  0  0  0  0  0  0  0  0  0
   -2.7280   -2.3250   -1.5190 C   0  0  1  0  0  0  0  0  0  0  0  0
   -3.0250   -0.9540   -1.6040 O   0  0  0  0  0  0  0  0  0  0  0  0
   -2.6410   -2.7530   -0.0730 C   0  0  2  0  0  0  0  0  0  0  0  0
   -1.6350   -2.0660    0.6660 N   0  0  0  0  0  0  0  0  0  0  0  0
   -2.5510   -4.2300    0.0540 C   0  0  0  0  0  0  0  0  0  0  0  0
   -1.6530   -4.7810    0.7590 O   0  0  0  0  0  0  0  0  0  0  0  0
   -3.4440   -5.0700   -0.5930 O   0  0  0  0  0  0  0  0  0  0  0  0
   -4.2400   -2.3930   -3.0340 H   0  0  0  0  0  0  0  0  0  0  0  0
   -4.6820   -3.3360   -1.5440 H   0  0  0  0  0  0  0  0  0  0  0  0
   -3.5010   -3.9950   -2.7000 H   0  0  0  0  0  0  0  0  0  0  0  0
   -1.8030   -2.4720   -2.0810 H   0  0  0  0  0  0  0  0  0  0  0  0
   -3.9780   -0.7990   -1.3750 H   0  0  0  0  0  0  0  0  0  0  0  0
   -3.6320   -2.4640    0.3760 H   0  0  0  0  0  0  0  0  0  0  0  0
   -0.6150   -2.2240    0.3960 H   0  0  0  0  0  0  0  0  0  0  0  0
  1 11  1  0  0  0  0
  2 13  1  1  0  0  0
  2  9  1  0  0  0  0
  2  1  1  0  0  0  0
  3  2  1  0  0  0  0
  4  5  2  0  0  0  0
  4  3  1  0  0  0  0
  5 16  1  0  0  0  0
  6  5  1  0  0  0  0
  7  8  2  0  0  0  0
  7  6  1  0  0  0  0
  8  4  1  0  0  0  0
  9 19  1  0  0  0  0
 10  9  2  0  0  0  0
 12  1  1  0  0  0  0
 14  3  1  0  0  0  0
 15  3  1  0  0  0  0
 17  6  1  0  0  0  0
 18  7  1  0  0  0  0
 19 29  1  0  0  0  0
 19 20  1  0  0  0  0
 20 21  1  0  0  0  0
 20 30  1  1  0  0  0
 21 31  1  0  0  0  0
 21 22  1  0  0  0  0
 22 23  2  0  0  0  0
 22 26  1  0  0  0  0
 23 24  1  0  0  0  0
 24 34  1  0  0  0  0
 24 25  1  0  0  0  0
 25 35  1  0  0  0  0
 26 25  2  0  0  0  0
 27 28  2  0  0  0  0
 27 20  1  0  0  0  0
 32 21  1  0  0  0  0
 33 23  1  0  0  0  0
 36 45  1  0  0  0  0
 36 37  1  0  0  0  0
 37 47  1  6  0  0  0
 37 39  1  0  0  0  0
 38 37  1  0  0  0  0
 38 48  1  0  0  0  0
 39 41  1  0  0  0  0
 39 49  1  1  0  0  0
 39 40  1  0  0  0  0
 40 27  1  0  0  0  0
 41 42  1  0  0  0  0
 43 41  2  0  0  0  0
 44 36  1  0  0  0  0
 46 36  1  0  0  0  0
 50 40  1  0  0  0  0
M  END
$$$$
