HHV.pdb
 OpenBabel07022418373D

 52 53  0  0  1  0  0  0  0  0999 V2000
    2.4550   -1.5480    0.9860 N   0  0  0  0  0  0  0  0  0  0  0  0
    2.1730   -0.3280    0.2540 C   0  0  1  0  0  0  0  0  0  0  0  0
    2.0710   -0.6160   -1.2350 C   0  0  0  0  0  0  0  0  0  0  0  0
    3.3910   -1.1820   -1.6450 C   0  0  0  0  0  0  0  0  0  0  0  0
    4.4370   -0.3840   -2.0850 C   0  0  0  0  0  0  0  0  0  0  0  0
    5.4480   -1.2200   -2.3610 N   0  0  0  0  0  0  0  0  0  0  0  0
    5.0370   -2.4860   -2.1010 C   0  0  0  0  0  0  0  0  0  0  0  0
    3.7850   -2.4650   -1.6650 N   0  0  0  0  0  0  0  0  0  0  0  0
    0.8890    0.2850    0.7400 C   0  0  0  0  0  0  0  0  0  0  0  0
    0.4910    1.3350    0.2260 O   0  0  0  0  0  0  0  0  0  0  0  0
    2.6050   -1.3200    1.9810 H   0  0  0  0  0  0  0  0  0  0  0  0
    1.7250   -2.2660    0.8070 H   0  0  0  0  0  0  0  0  0  0  0  0
    2.9640    0.4140    0.4720 H   0  0  0  0  0  0  0  0  0  0  0  0
    1.2460   -1.3330   -1.3780 H   0  0  0  0  0  0  0  0  0  0  0  0
    1.8830    0.3270   -1.7860 H   0  0  0  0  0  0  0  0  0  0  0  0
    4.4560    0.6820   -2.1890 H   0  0  0  0  0  0  0  0  0  0  0  0
    6.4090   -1.0260   -2.7150 H   0  0  0  0  0  0  0  0  0  0  0  0
    5.6240   -3.4060   -2.2220 H   0  0  0  0  0  0  0  0  0  0  0  0
    0.1330   -0.3320    1.7820 N   0  0  0  0  0  0  0  0  0  0  0  0
   -1.0810    0.1620    2.3310 C   0  0  1  0  0  0  0  0  0  0  0  0
   -1.1840    1.6770    2.4280 C   0  0  0  0  0  0  0  0  0  0  0  0
   -0.1310    2.2100    3.3410 C   0  0  0  0  0  0  0  0  0  0  0  0
    1.1420    2.6550    3.1120 C   0  0  0  0  0  0  0  0  0  0  0  0
    1.7160    3.0570    4.2700 N   0  0  0  0  0  0  0  0  0  0  0  0
    0.8180    2.8730    5.2430 C   0  0  0  0  0  0  0  0  0  0  0  0
   -0.2930    2.3660    4.7010 N   0  0  0  0  0  0  0  0  0  0  0  0
   -2.3170   -0.4950    1.8900 C   0  0  0  0  0  0  0  0  0  0  0  0
   -3.3990   -0.0830    2.3540 O   0  0  0  0  0  0  0  0  0  0  0  0
    0.5680   -1.2400    2.1380 H   0  0  0  0  0  0  0  0  0  0  0  0
   -0.9820   -0.0860    3.4630 H   0  0  0  0  0  0  0  0  0  0  0  0
   -1.2630    2.1940    1.4780 H   0  0  0  0  0  0  0  0  0  0  0  0
   -2.1690    1.8600    2.9460 H   0  0  0  0  0  0  0  0  0  0  0  0
    1.6560    2.7000    2.1480 H   0  0  0  0  0  0  0  0  0  0  0  0
    2.6910    3.4410    4.3700 H   0  0  0  0  0  0  0  0  0  0  0  0
    0.9510    3.0910    6.2940 H   0  0  0  0  0  0  0  0  0  0  0  0
   -3.8060   -0.7620   -1.4910 C   0  0  0  0  0  0  0  0  0  0  0  0
   -3.7420   -2.1850   -0.9770 C   0  0  0  0  0  0  0  0  0  0  0  0
   -2.6840   -3.0010   -1.6630 C   0  0  0  0  0  0  0  0  0  0  0  0
   -3.5660   -2.2230    0.5280 C   0  0  2  0  0  0  0  0  0  0  0  0
   -2.3660   -1.5730    0.9660 N   0  0  0  0  0  0  0  0  0  0  0  0
   -3.4960   -3.6650    0.9080 C   0  0  0  0  0  0  0  0  0  0  0  0
   -4.5130   -4.3630    0.5730 O   0  0  0  0  0  0  0  0  0  0  0  0
   -2.4480   -4.2420    1.5650 O   0  0  0  0  0  0  0  0  0  0  0  0
   -2.8500   -0.4330   -1.9440 H   0  0  0  0  0  0  0  0  0  0  0  0
   -4.5770   -0.6470   -2.2980 H   0  0  0  0  0  0  0  0  0  0  0  0
   -4.1490   -0.0580   -0.6800 H   0  0  0  0  0  0  0  0  0  0  0  0
   -4.7220   -2.6500   -1.2180 H   0  0  0  0  0  0  0  0  0  0  0  0
   -1.6660   -2.8380   -1.2550 H   0  0  0  0  0  0  0  0  0  0  0  0
   -2.7510   -2.8950   -2.7450 H   0  0  0  0  0  0  0  0  0  0  0  0
   -2.9160   -4.0830   -1.4330 H   0  0  0  0  0  0  0  0  0  0  0  0
   -4.4820   -1.8140    0.9760 H   0  0  0  0  0  0  0  0  0  0  0  0
   -1.4450   -1.8950    0.5950 H   0  0  0  0  0  0  0  0  0  0  0  0
  1 11  1  0  0  0  0
  2 13  1  1  0  0  0
  2  9  1  0  0  0  0
  2  1  1  0  0  0  0
  3  2  1  0  0  0  0
  4  3  1  0  0  0  0
  5  4  2  0  0  0  0
  6  7  1  0  0  0  0
  6  5  1  0  0  0  0
  7  8  2  0  0  0  0
  8  4  1  0  0  0  0
  9 19  1  0  0  0  0
 10  9  2  0  0  0  0
 12  1  1  0  0  0  0
 14  3  1  0  0  0  0
 15  3  1  0  0  0  0
 16  5  1  0  0  0  0
 17  6  1  0  0  0  0
 18  7  1  0  0  0  0
 19 29  1  0  0  0  0
 19 20  1  0  0  0  0
 20 21  1  0  0  0  0
 20 30  1  1  0  0  0
 21 32  1  0  0  0  0
 21 22  1  0  0  0  0
 22 26  1  0  0  0  0
 23 22  2  0  0  0  0
 23 24  1  0  0  0  0
 24 34  1  0  0  0  0
 24 25  1  0  0  0  0
 25 35  1  0  0  0  0
 26 25  2  0  0  0  0
 27 20  1  0  0  0  0
 27 28  2  0  0  0  0
 31 21  1  0  0  0  0
 33 23  1  0  0  0  0
 36 37  1  0  0  0  0
 36 46  1  0  0  0  0
 37 39  1  0  0  0  0
 38 50  1  0  0  0  0
 38 48  1  0  0  0  0
 38 37  1  0  0  0  0
 39 41  1  0  0  0  0
 39 40  1  0  0  0  0
 39 51  1  1  0  0  0
 40 27  1  0  0  0  0
 41 43  1  0  0  0  0
 42 41  2  0  0  0  0
 44 36  1  0  0  0  0
 45 36  1  0  0  0  0
 47 37  1  0  0  0  0
 49 38  1  0  0  0  0
 52 40  1  0  0  0  0
M  END
$$$$
