HHY.pdb
 OpenBabel07022418373D

 57 59  0  0  1  0  0  0  0  0999 V2000
    3.9610    0.5610    0.6410 N   0  0  0  0  0  0  0  0  0  0  0  0
    3.6470   -0.5220    1.5490 C   0  0  1  0  0  0  0  0  0  0  0  0
    3.8660    0.0410    2.9600 C   0  0  0  0  0  0  0  0  0  0  0  0
    5.2970    0.4590    3.0470 C   0  0  0  0  0  0  0  0  0  0  0  0
    5.8080    1.7100    2.7300 C   0  0  0  0  0  0  0  0  0  0  0  0
    7.1390    1.7350    2.9250 N   0  0  0  0  0  0  0  0  0  0  0  0
    7.4710    0.5040    3.3650 C   0  0  0  0  0  0  0  0  0  0  0  0
    6.3590   -0.2670    3.4390 N   0  0  0  0  0  0  0  0  0  0  0  0
    2.2520   -0.9240    1.3560 C   0  0  0  0  0  0  0  0  0  0  0  0
    1.6860   -1.8480    2.0060 O   0  0  0  0  0  0  0  0  0  0  0  0
    3.8480    0.3090   -0.3650 H   0  0  0  0  0  0  0  0  0  0  0  0
    3.3620    1.3950    0.8190 H   0  0  0  0  0  0  0  0  0  0  0  0
    4.3660   -1.3600    1.4620 H   0  0  0  0  0  0  0  0  0  0  0  0
    3.6870   -0.7510    3.7210 H   0  0  0  0  0  0  0  0  0  0  0  0
    3.2310    0.9270    3.1450 H   0  0  0  0  0  0  0  0  0  0  0  0
    5.2240    2.5530    2.3740 H   0  0  0  0  0  0  0  0  0  0  0  0
    7.8000    2.5310    2.7750 H   0  0  0  0  0  0  0  0  0  0  0  0
    8.4640    0.1890    3.6160 H   0  0  0  0  0  0  0  0  0  0  0  0
    1.4580   -0.2580    0.3910 N   0  0  0  0  0  0  0  0  0  0  0  0
    0.0860   -0.6140    0.1640 C   0  0  1  0  0  0  0  0  0  0  0  0
   -0.7770    0.5750    0.5470 C   0  0  0  0  0  0  0  0  0  0  0  0
   -0.6180    0.9600    1.9550 C   0  0  0  0  0  0  0  0  0  0  0  0
    0.2850    1.8550    2.4680 C   0  0  0  0  0  0  0  0  0  0  0  0
    0.1250    1.9430    3.8070 N   0  0  0  0  0  0  0  0  0  0  0  0
   -0.8720    1.1100    4.1390 C   0  0  0  0  0  0  0  0  0  0  0  0
   -1.3270    0.5070    2.9960 N   0  0  0  0  0  0  0  0  0  0  0  0
   -0.2030   -0.9290   -1.2520 C   0  0  0  0  0  0  0  0  0  0  0  0
    0.7100   -0.8710   -2.1180 O   0  0  0  0  0  0  0  0  0  0  0  0
    1.8310    0.5320   -0.2100 H   0  0  0  0  0  0  0  0  0  0  0  0
   -0.1720   -1.4380    0.8500 H   0  0  0  0  0  0  0  0  0  0  0  0
   -0.5300    1.4680   -0.0890 H   0  0  0  0  0  0  0  0  0  0  0  0
   -1.8600    0.3740    0.3330 H   0  0  0  0  0  0  0  0  0  0  0  0
    1.0040    2.3910    1.8520 H   0  0  0  0  0  0  0  0  0  0  0  0
    0.6750    2.5440    4.4440 H   0  0  0  0  0  0  0  0  0  0  0  0
   -1.2710    0.9240    5.1260 H   0  0  0  0  0  0  0  0  0  0  0  0
   -6.8560   -3.6580    0.3930 O   0  0  0  0  0  0  0  0  0  0  0  0
   -5.7800   -3.5010   -0.4700 C   0  0  0  0  0  0  0  0  0  0  0  0
   -4.5030   -3.6800    0.0100 C   0  0  0  0  0  0  0  0  0  0  0  0
   -3.4340   -3.5270   -0.8320 C   0  0  0  0  0  0  0  0  0  0  0  0
   -3.5860   -3.1950   -2.1700 C   0  0  0  0  0  0  0  0  0  0  0  0
   -2.3980   -3.0470   -3.0190 C   0  0  0  0  0  0  0  0  0  0  0  0
   -1.8640   -1.6180   -3.0160 C   0  0  2  0  0  0  0  0  0  0  0  0
   -1.5210   -1.2970   -1.6320 N   0  0  0  0  0  0  0  0  0  0  0  0
   -2.9560   -0.7410   -3.5110 C   0  0  0  0  0  0  0  0  0  0  0  0
   -3.4140   -0.8260   -4.6780 O   0  0  0  0  0  0  0  0  0  0  0  0
   -4.8790   -3.0230   -2.6180 C   0  0  0  0  0  0  0  0  0  0  0  0
   -5.9750   -3.1690   -1.7950 C   0  0  0  0  0  0  0  0  0  0  0  0
   -3.5330    0.2350   -2.6910 O   0  0  0  0  0  0  0  0  0  0  0  0
   -6.8540   -4.3530    1.1150 H   0  0  0  0  0  0  0  0  0  0  0  0
   -4.2990   -3.9420    1.0490 H   0  0  0  0  0  0  0  0  0  0  0  0
   -2.4190   -3.6750   -0.4310 H   0  0  0  0  0  0  0  0  0  0  0  0
   -1.5830   -3.6690   -2.5810 H   0  0  0  0  0  0  0  0  0  0  0  0
   -2.6020   -3.3990   -4.0460 H   0  0  0  0  0  0  0  0  0  0  0  0
   -0.9750   -1.5260   -3.6690 H   0  0  0  0  0  0  0  0  0  0  0  0
   -2.2370   -1.3280   -0.8750 H   0  0  0  0  0  0  0  0  0  0  0  0
   -5.0600   -2.7640   -3.6500 H   0  0  0  0  0  0  0  0  0  0  0  0
   -6.9970   -3.0400   -2.1240 H   0  0  0  0  0  0  0  0  0  0  0  0
  1 12  1  0  0  0  0
  1  2  1  0  0  0  0
  2 13  1  6  0  0  0
  2  3  1  0  0  0  0
  3  4  1  0  0  0  0
  3 15  1  0  0  0  0
  3 14  1  0  0  0  0
  4  8  1  0  0  0  0
  5  6  1  0  0  0  0
  5  4  2  0  0  0  0
  6  7  1  0  0  0  0
  7  8  2  0  0  0  0
  7 18  1  0  0  0  0
  9  2  1  0  0  0  0
  9 10  2  0  0  0  0
 11  1  1  0  0  0  0
 16  5  1  0  0  0  0
 17  6  1  0  0  0  0
 19  9  1  0  0  0  0
 20 19  1  0  0  0  0
 20 21  1  0  0  0  0
 20 30  1  1  0  0  0
 21 22  1  0  0  0  0
 22 23  2  0  0  0  0
 22 26  1  0  0  0  0
 23 24  1  0  0  0  0
 24 25  1  0  0  0  0
 24 34  1  0  0  0  0
 25 35  1  0  0  0  0
 26 25  2  0  0  0  0
 27 20  1  0  0  0  0
 28 27  2  0  0  0  0
 29 19  1  0  0  0  0
 31 21  1  0  0  0  0
 32 21  1  0  0  0  0
 33 23  1  0  0  0  0
 36 49  1  0  0  0  0
 37 38  1  0  0  0  0
 37 36  1  0  0  0  0
 38 50  1  0  0  0  0
 39 51  1  0  0  0  0
 39 38  2  0  0  0  0
 40 39  1  0  0  0  0
 41 42  1  0  0  0  0
 41 52  1  0  0  0  0
 41 40  1  0  0  0  0
 42 54  1  6  0  0  0
 42 43  1  0  0  0  0
 43 27  1  0  0  0  0
 43 55  1  0  0  0  0
 44 42  1  0  0  0  0
 44 48  1  0  0  0  0
 45 44  2  0  0  0  0
 46 40  2  0  0  0  0
 46 47  1  0  0  0  0
 47 37  2  0  0  0  0
 53 41  1  0  0  0  0
 56 46  1  0  0  0  0
 57 47  1  0  0  0  0
M  END
$$$$
