HIA.pdb
 OpenBabel07022418373D

 48 48  0  0  1  0  0  0  0  0999 V2000
   -0.8480   -2.8480    4.5450 N   0  0  0  0  0  0  0  0  0  0  0  0
    0.3420   -2.2660    3.8420 C   0  0  1  0  0  0  0  0  0  0  0  0
    0.9840   -3.3580    3.1050 C   0  0  0  0  0  0  0  0  0  0  0  0
    2.2280   -3.0710    2.3940 C   0  0  0  0  0  0  0  0  0  0  0  0
    2.9900   -1.9470    2.3470 C   0  0  0  0  0  0  0  0  0  0  0  0
    4.0800   -2.1720    1.5970 N   0  0  0  0  0  0  0  0  0  0  0  0
    3.9990   -3.4560    1.1690 C   0  0  0  0  0  0  0  0  0  0  0  0
    2.8770   -4.0170    1.6460 N   0  0  0  0  0  0  0  0  0  0  0  0
   -0.1890   -1.1280    3.1110 C   0  0  0  0  0  0  0  0  0  0  0  0
   -0.9090   -0.3010    3.7590 O   0  0  0  0  0  0  0  0  0  0  0  0
   -1.2480   -2.1330    5.1930 H   0  0  0  0  0  0  0  0  0  0  0  0
   -1.5550   -2.9370    3.7560 H   0  0  0  0  0  0  0  0  0  0  0  0
    0.9760   -1.9210    4.7140 H   0  0  0  0  0  0  0  0  0  0  0  0
    0.2480   -3.8470    2.4320 H   0  0  0  0  0  0  0  0  0  0  0  0
    1.2460   -4.1580    3.8640 H   0  0  0  0  0  0  0  0  0  0  0  0
    2.7780   -1.0060    2.8270 H   0  0  0  0  0  0  0  0  0  0  0  0
    4.8560   -1.5100    1.3690 H   0  0  0  0  0  0  0  0  0  0  0  0
    4.7490   -3.9230    0.5370 H   0  0  0  0  0  0  0  0  0  0  0  0
    1.0790    0.0210   -1.5350 C   0  0  0  0  0  0  0  0  0  0  0  0
    1.6240    0.6210   -0.2760 C   0  0  0  0  0  0  0  0  0  0  0  0
    0.5770    1.1720    0.6130 C   0  0  2  0  0  0  0  0  0  0  0  0
    1.1820    1.7840    1.8790 C   0  0  0  0  0  0  0  0  0  0  0  0
   -0.5170    0.2770    1.0480 C   0  0  2  0  0  0  0  0  0  0  0  0
    0.0290   -0.8890    1.7660 N   0  0  0  0  0  0  0  0  0  0  0  0
   -1.4380   -0.2290    0.0220 C   0  0  0  0  0  0  0  0  0  0  0  0
   -1.6160   -1.4640   -0.1330 O   0  0  0  0  0  0  0  0  0  0  0  0
    0.7100   -1.0190   -1.4220 H   0  0  0  0  0  0  0  0  0  0  0  0
    0.3030    0.6540   -2.0020 H   0  0  0  0  0  0  0  0  0  0  0  0
    1.9090   -0.0480   -2.3140 H   0  0  0  0  0  0  0  0  0  0  0  0
    2.3240   -0.0640    0.2530 H   0  0  0  0  0  0  0  0  0  0  0  0
    2.2950    1.4800   -0.5870 H   0  0  0  0  0  0  0  0  0  0  0  0
    0.0910    2.0540    0.1010 H   0  0  0  0  0  0  0  0  0  0  0  0
    0.4100    1.8480    2.6680 H   0  0  0  0  0  0  0  0  0  0  0  0
    1.5030    2.8430    1.6720 H   0  0  0  0  0  0  0  0  0  0  0  0
    2.0300    1.1980    2.2650 H   0  0  0  0  0  0  0  0  0  0  0  0
   -1.0880    0.8530    1.8430 H   0  0  0  0  0  0  0  0  0  0  0  0
    0.5700   -1.5300    1.1730 H   0  0  0  0  0  0  0  0  0  0  0  0
   -4.5190    0.3690   -1.4200 C   0  0  0  0  0  0  0  0  0  0  0  0
   -3.1000    0.0520   -1.8590 C   0  0  2  0  0  0  0  0  0  0  0  0
   -2.2000    0.6070   -0.8670 N   0  0  0  0  0  0  0  0  0  0  0  0
   -2.8360    0.5120   -3.2300 C   0  0  0  0  0  0  0  0  0  0  0  0
   -3.5430    0.0880   -4.1620 O   0  0  0  0  0  0  0  0  0  0  0  0
   -1.8250    1.4070   -3.5430 O   0  0  0  0  0  0  0  0  0  0  0  0
   -4.8260    1.3970   -1.7520 H   0  0  0  0  0  0  0  0  0  0  0  0
   -4.5240    0.3340   -0.3110 H   0  0  0  0  0  0  0  0  0  0  0  0
   -5.1730   -0.4190   -1.8290 H   0  0  0  0  0  0  0  0  0  0  0  0
   -3.0070   -1.0550   -1.7980 H   0  0  0  0  0  0  0  0  0  0  0  0
   -2.1010    1.6220   -0.7930 H   0  0  0  0  0  0  0  0  0  0  0  0
  1 11  1  0  0  0  0
  2  1  1  0  0  0  0
  2 13  1  1  0  0  0
  3  2  1  0  0  0  0
  3 15  1  0  0  0  0
  4  3  1  0  0  0  0
  5  4  2  0  0  0  0
  5 16  1  0  0  0  0
  6  5  1  0  0  0  0
  7  6  1  0  0  0  0
  7  8  2  0  0  0  0
  8  4  1  0  0  0  0
  9 10  2  0  0  0  0
  9  2  1  0  0  0  0
 12  1  1  0  0  0  0
 14  3  1  0  0  0  0
 17  6  1  0  0  0  0
 18  7  1  0  0  0  0
 19 27  1  0  0  0  0
 19 20  1  0  0  0  0
 20 30  1  0  0  0  0
 20 21  1  0  0  0  0
 21 32  1  6  0  0  0
 21 23  1  0  0  0  0
 21 22  1  0  0  0  0
 22 35  1  0  0  0  0
 22 33  1  0  0  0  0
 23 24  1  0  0  0  0
 23 36  1  1  0  0  0
 24  9  1  0  0  0  0
 25 23  1  0  0  0  0
 26 25  2  0  0  0  0
 28 19  1  0  0  0  0
 29 19  1  0  0  0  0
 31 20  1  0  0  0  0
 34 22  1  0  0  0  0
 37 24  1  0  0  0  0
 38 45  1  0  0  0  0
 39 47  1  1  0  0  0
 39 38  1  0  0  0  0
 39 40  1  0  0  0  0
 40 48  1  0  0  0  0
 40 25  1  0  0  0  0
 41 39  1  0  0  0  0
 42 41  2  0  0  0  0
 43 41  1  0  0  0  0
 44 38  1  0  0  0  0
 46 38  1  0  0  0  0
M  END
$$$$
