HID.pdb
 OpenBabel07022418373D

 51 51  0  0  1  0  0  0  0  0999 V2000
    1.1060   -3.7490    1.7950 N   0  0  0  0  0  0  0  0  0  0  0  0
    0.3760   -2.6610    2.3850 C   0  0  1  0  0  0  0  0  0  0  0  0
    1.1710   -2.1710    3.5990 C   0  0  0  0  0  0  0  0  0  0  0  0
    2.5170   -1.7580    3.1230 C   0  0  0  0  0  0  0  0  0  0  0  0
    2.9440   -0.5410    2.6820 C   0  0  0  0  0  0  0  0  0  0  0  0
    4.2450   -0.6430    2.3500 N   0  0  0  0  0  0  0  0  0  0  0  0
    4.6310   -1.9050    2.5790 C   0  0  0  0  0  0  0  0  0  0  0  0
    3.5750   -2.5900    3.0520 N   0  0  0  0  0  0  0  0  0  0  0  0
    0.1920   -1.5830    1.4220 C   0  0  0  0  0  0  0  0  0  0  0  0
    0.9450   -1.5060    0.4150 O   0  0  0  0  0  0  0  0  0  0  0  0
    1.7960   -3.4380    1.0940 H   0  0  0  0  0  0  0  0  0  0  0  0
    1.5670   -4.3490    2.5130 H   0  0  0  0  0  0  0  0  0  0  0  0
   -0.6110   -2.9820    2.7940 H   0  0  0  0  0  0  0  0  0  0  0  0
    0.6310   -1.3300    4.0980 H   0  0  0  0  0  0  0  0  0  0  0  0
    1.2460   -3.0310    4.2870 H   0  0  0  0  0  0  0  0  0  0  0  0
    2.3920    0.3810    2.5910 H   0  0  0  0  0  0  0  0  0  0  0  0
    4.8470    0.1250    1.9800 H   0  0  0  0  0  0  0  0  0  0  0  0
    5.5930   -2.3310    2.4280 H   0  0  0  0  0  0  0  0  0  0  0  0
    1.1810    2.9640    2.3290 C   0  0  0  0  0  0  0  0  0  0  0  0
    0.0640    1.9860    2.1560 C   0  0  0  0  0  0  0  0  0  0  0  0
    0.0580    1.3880    0.7370 C   0  0  2  0  0  0  0  0  0  0  0  0
   -0.1070    2.5510   -0.2090 C   0  0  0  0  0  0  0  0  0  0  0  0
   -1.0600    0.4190    0.7090 C   0  0  2  0  0  0  0  0  0  0  0  0
   -0.8690   -0.6250    1.6520 N   0  0  0  0  0  0  0  0  0  0  0  0
   -1.4440   -0.1130   -0.6140 C   0  0  0  0  0  0  0  0  0  0  0  0
   -1.4940    0.6440   -1.6280 O   0  0  0  0  0  0  0  0  0  0  0  0
    0.7580    3.9930    2.2380 H   0  0  0  0  0  0  0  0  0  0  0  0
    2.0070    2.8230    1.5990 H   0  0  0  0  0  0  0  0  0  0  0  0
    1.5540    2.8900    3.3790 H   0  0  0  0  0  0  0  0  0  0  0  0
    0.1600    1.1930    2.9210 H   0  0  0  0  0  0  0  0  0  0  0  0
   -0.9180    2.4800    2.3660 H   0  0  0  0  0  0  0  0  0  0  0  0
    1.0680    0.9570    0.5990 H   0  0  0  0  0  0  0  0  0  0  0  0
   -1.1870    2.8110   -0.3130 H   0  0  0  0  0  0  0  0  0  0  0  0
    0.3700    2.4150   -1.1880 H   0  0  0  0  0  0  0  0  0  0  0  0
    0.3820    3.4290    0.2570 H   0  0  0  0  0  0  0  0  0  0  0  0
   -1.9780    1.0030    1.0970 H   0  0  0  0  0  0  0  0  0  0  0  0
   -1.4620   -0.7470    2.5220 H   0  0  0  0  0  0  0  0  0  0  0  0
   -1.7600   -1.4690   -0.7550 N   0  0  0  0  0  0  0  0  0  0  0  0
   -2.1700   -2.2240   -1.8900 C   0  0  1  0  0  0  0  0  0  0  0  0
   -2.2420   -1.4790   -3.2010 C   0  0  0  0  0  0  0  0  0  0  0  0
   -3.3020   -0.4500   -3.1150 C   0  0  0  0  0  0  0  0  0  0  0  0
   -3.3980    0.4390   -3.9920 O   0  0  0  0  0  0  0  0  0  0  0  0
   -1.6410   -3.5840   -1.9900 C   0  0  0  0  0  0  0  0  0  0  0  0
   -0.8770   -4.1180   -1.1270 O   0  0  0  0  0  0  0  0  0  0  0  0
   -4.2480   -0.4090   -2.0720 O   0  0  0  0  0  0  0  0  0  0  0  0
   -1.9850   -4.3570   -3.0890 O   0  0  0  0  0  0  0  0  0  0  0  0
   -1.7120   -2.0640    0.1590 H   0  0  0  0  0  0  0  0  0  0  0  0
   -3.3360   -2.3620   -1.7010 H   0  0  0  0  0  0  0  0  0  0  0  0
   -2.5030   -2.2470   -3.9740 H   0  0  0  0  0  0  0  0  0  0  0  0
   -1.2390   -1.0280   -3.3860 H   0  0  0  0  0  0  0  0  0  0  0  0
   -5.1370    0.0970   -2.1740 H   0  0  0  0  0  0  0  0  0  0  0  0
  1  2  1  0  0  0  0
  1 12  1  0  0  0  0
  2 13  1  1  0  0  0
  2  3  1  0  0  0  0
  3 14  1  0  0  0  0
  3 15  1  0  0  0  0
  4  3  1  0  0  0  0
  5  4  2  0  0  0  0
  6  7  1  0  0  0  0
  6  5  1  0  0  0  0
  7  8  2  0  0  0  0
  8  4  1  0  0  0  0
  9 24  1  0  0  0  0
  9  2  1  0  0  0  0
 10  9  2  0  0  0  0
 11  1  1  0  0  0  0
 16  5  1  0  0  0  0
 17  6  1  0  0  0  0
 18  7  1  0  0  0  0
 19 29  1  0  0  0  0
 20 19  1  0  0  0  0
 20 31  1  0  0  0  0
 20 30  1  0  0  0  0
 21 32  1  6  0  0  0
 21 20  1  0  0  0  0
 22 35  1  0  0  0  0
 22 21  1  0  0  0  0
 23 21  1  0  0  0  0
 23 36  1  1  0  0  0
 23 24  1  0  0  0  0
 24 37  1  0  0  0  0
 25 23  1  0  0  0  0
 26 25  2  0  0  0  0
 27 19  1  0  0  0  0
 28 19  1  0  0  0  0
 33 22  1  0  0  0  0
 34 22  1  0  0  0  0
 38 25  1  0  0  0  0
 38 47  1  0  0  0  0
 39 48  1  1  0  0  0
 39 38  1  0  0  0  0
 40 41  1  0  0  0  0
 40 39  1  0  0  0  0
 41 45  1  0  0  0  0
 42 41  2  0  0  0  0
 43 39  1  0  0  0  0
 43 44  1  0  0  0  0
 46 43  2  0  0  0  0
 49 40  1  0  0  0  0
 50 40  1  0  0  0  0
 51 45  1  0  0  0  0
M  END
$$$$
