HIE.pdb
 OpenBabel07022418373D

 54 54  0  0  1  0  0  0  0  0999 V2000
    0.6630   -2.1530    3.4340 N   0  0  0  0  0  0  0  0  0  0  0  0
    1.8070   -1.4310    2.8550 C   0  0  1  0  0  0  0  0  0  0  0  0
    2.5440   -2.4370    2.0400 C   0  0  0  0  0  0  0  0  0  0  0  0
    3.8100   -1.9830    1.4340 C   0  0  0  0  0  0  0  0  0  0  0  0
    4.4720   -0.8220    1.6660 C   0  0  0  0  0  0  0  0  0  0  0  0
    5.6300   -0.8600    0.9570 N   0  0  0  0  0  0  0  0  0  0  0  0
    5.6620   -2.0260    0.3110 C   0  0  0  0  0  0  0  0  0  0  0  0
    4.5680   -2.7410    0.5770 N   0  0  0  0  0  0  0  0  0  0  0  0
    1.2240   -0.3640    1.9580 C   0  0  0  0  0  0  0  0  0  0  0  0
    1.9900    0.2520    1.2170 O   0  0  0  0  0  0  0  0  0  0  0  0
    0.2580   -2.8270    2.7650 H   0  0  0  0  0  0  0  0  0  0  0  0
    0.8840   -2.5310    4.3670 H   0  0  0  0  0  0  0  0  0  0  0  0
    2.3780   -0.9790    3.6370 H   0  0  0  0  0  0  0  0  0  0  0  0
    2.7220   -3.3930    2.6010 H   0  0  0  0  0  0  0  0  0  0  0  0
    1.9040   -2.7620    1.1600 H   0  0  0  0  0  0  0  0  0  0  0  0
    4.2710    0.0460    2.2870 H   0  0  0  0  0  0  0  0  0  0  0  0
    6.3700   -0.1460    0.9000 H   0  0  0  0  0  0  0  0  0  0  0  0
    6.4470   -2.4060   -0.3590 H   0  0  0  0  0  0  0  0  0  0  0  0
   -0.4360    3.5270    2.6240 C   0  0  0  0  0  0  0  0  0  0  0  0
    0.6300    2.9130    1.7190 C   0  0  0  0  0  0  0  0  0  0  0  0
    0.0070    2.0650    0.6550 C   0  0  2  0  0  0  0  0  0  0  0  0
   -0.9080    3.0050   -0.1470 C   0  0  0  0  0  0  0  0  0  0  0  0
   -0.8340    0.9220    1.1780 C   0  0  2  0  0  0  0  0  0  0  0  0
   -0.1400   -0.0650    1.9490 N   0  0  0  0  0  0  0  0  0  0  0  0
   -1.7940    0.3800    0.2050 C   0  0  0  0  0  0  0  0  0  0  0  0
   -2.4970    1.0860   -0.5600 O   0  0  0  0  0  0  0  0  0  0  0  0
   -0.7700    2.7780    3.3620 H   0  0  0  0  0  0  0  0  0  0  0  0
   -1.2980    3.9120    2.0880 H   0  0  0  0  0  0  0  0  0  0  0  0
    0.0140    4.3610    3.2340 H   0  0  0  0  0  0  0  0  0  0  0  0
    1.0630    3.8150    1.1760 H   0  0  0  0  0  0  0  0  0  0  0  0
    1.4430    2.5020    2.2950 H   0  0  0  0  0  0  0  0  0  0  0  0
    0.7650    1.7110   -0.0560 H   0  0  0  0  0  0  0  0  0  0  0  0
   -1.8850    3.1370    0.3230 H   0  0  0  0  0  0  0  0  0  0  0  0
   -0.4250    4.0230   -0.1520 H   0  0  0  0  0  0  0  0  0  0  0  0
   -0.9430    2.7040   -1.2130 H   0  0  0  0  0  0  0  0  0  0  0  0
   -1.4900    1.5040    1.9530 H   0  0  0  0  0  0  0  0  0  0  0  0
   -0.7280   -0.6680    2.6200 H   0  0  0  0  0  0  0  0  0  0  0  0
   -2.0140   -1.0260    0.0460 N   0  0  0  0  0  0  0  0  0  0  0  0
   -2.9670   -1.5690   -0.9200 C   0  0  1  0  0  0  0  0  0  0  0  0
   -2.3020   -2.4410   -1.9180 C   0  0  0  0  0  0  0  0  0  0  0  0
   -3.2840   -2.9800   -2.9150 C   0  0  0  0  0  0  0  0  0  0  0  0
   -2.5340   -3.8180   -3.9120 C   0  0  0  0  0  0  0  0  0  0  0  0
   -3.1770   -4.3560   -4.8250 O   0  0  0  0  0  0  0  0  0  0  0  0
   -3.9690   -2.3350   -0.1600 C   0  0  0  0  0  0  0  0  0  0  0  0
   -4.9940   -2.8810   -0.6340 O   0  0  0  0  0  0  0  0  0  0  0  0
   -1.1730   -3.9720   -3.7980 O   0  0  0  0  0  0  0  0  0  0  0  0
   -3.7680   -2.4770    1.2310 O   0  0  0  0  0  0  0  0  0  0  0  0
   -1.4800   -1.6930    0.6350 H   0  0  0  0  0  0  0  0  0  0  0  0
   -3.4650   -0.7360   -1.4790 H   0  0  0  0  0  0  0  0  0  0  0  0
   -1.4520   -1.9520   -2.4450 H   0  0  0  0  0  0  0  0  0  0  0  0
   -1.9330   -3.3490   -1.3480 H   0  0  0  0  0  0  0  0  0  0  0  0
   -3.8560   -2.1800   -3.4060 H   0  0  0  0  0  0  0  0  0  0  0  0
   -4.0330   -3.6820   -2.4500 H   0  0  0  0  0  0  0  0  0  0  0  0
   -0.6240   -4.5110   -4.4510 H   0  0  0  0  0  0  0  0  0  0  0  0
  1 12  1  0  0  0  0
  2  1  1  0  0  0  0
  2 13  1  1  0  0  0
  3 14  1  0  0  0  0
  3  2  1  0  0  0  0
  4  5  2  0  0  0  0
  4  3  1  0  0  0  0
  5 16  1  0  0  0  0
  6  5  1  0  0  0  0
  7  8  2  0  0  0  0
  7  6  1  0  0  0  0
  8  4  1  0  0  0  0
  9  2  1  0  0  0  0
 10  9  2  0  0  0  0
 11  1  1  0  0  0  0
 15  3  1  0  0  0  0
 17  6  1  0  0  0  0
 18  7  1  0  0  0  0
 19 29  1  0  0  0  0
 19 27  1  0  0  0  0
 20 31  1  0  0  0  0
 20 19  1  0  0  0  0
 21 32  1  6  0  0  0
 21 23  1  0  0  0  0
 21 20  1  0  0  0  0
 22 33  1  0  0  0  0
 22 21  1  0  0  0  0
 23 24  1  0  0  0  0
 23 36  1  1  0  0  0
 24  9  1  0  0  0  0
 24 37  1  0  0  0  0
 25 23  1  0  0  0  0
 26 25  2  0  0  0  0
 28 19  1  0  0  0  0
 30 20  1  0  0  0  0
 34 22  1  0  0  0  0
 35 22  1  0  0  0  0
 38 25  1  0  0  0  0
 38 48  1  0  0  0  0
 39 49  1  6  0  0  0
 39 44  1  0  0  0  0
 39 38  1  0  0  0  0
 40 51  1  0  0  0  0
 40 39  1  0  0  0  0
 41 53  1  0  0  0  0
 41 40  1  0  0  0  0
 42 46  1  0  0  0  0
 42 41  1  0  0  0  0
 43 42  2  0  0  0  0
 44 47  1  0  0  0  0
 45 44  2  0  0  0  0
 50 40  1  0  0  0  0
 52 41  1  0  0  0  0
 54 46  1  0  0  0  0
M  END
$$$$
