HIF.pdb
 OpenBabel07022418373D

 58 59  0  0  1  0  0  0  0  0999 V2000
   -0.4760    0.7420    4.8160 N   0  0  0  0  0  0  0  0  0  0  0  0
    0.6920    0.9780    4.0060 C   0  0  1  0  0  0  0  0  0  0  0  0
    1.7130   -0.0780    4.2150 C   0  0  0  0  0  0  0  0  0  0  0  0
    2.1900   -0.2000    5.6140 C   0  0  0  0  0  0  0  0  0  0  0  0
    1.7010   -1.0550    6.5950 C   0  0  0  0  0  0  0  0  0  0  0  0
    2.4150   -0.8860    7.7410 N   0  0  0  0  0  0  0  0  0  0  0  0
    3.3500    0.0650    7.4920 C   0  0  0  0  0  0  0  0  0  0  0  0
    3.2060    0.4680    6.2180 N   0  0  0  0  0  0  0  0  0  0  0  0
    0.2220    1.0930    2.6060 C   0  0  0  0  0  0  0  0  0  0  0  0
   -0.9090    1.5480    2.3440 O   0  0  0  0  0  0  0  0  0  0  0  0
   -1.3680    0.7110    4.2640 H   0  0  0  0  0  0  0  0  0  0  0  0
   -0.3890   -0.0970    5.4350 H   0  0  0  0  0  0  0  0  0  0  0  0
    1.1110    1.9720    4.3630 H   0  0  0  0  0  0  0  0  0  0  0  0
    2.6590    0.1200    3.6170 H   0  0  0  0  0  0  0  0  0  0  0  0
    1.3010   -1.0790    3.9050 H   0  0  0  0  0  0  0  0  0  0  0  0
    0.8810   -1.7770    6.5230 H   0  0  0  0  0  0  0  0  0  0  0  0
    2.3110   -1.3690    8.6610 H   0  0  0  0  0  0  0  0  0  0  0  0
    4.0820    0.4470    8.1750 H   0  0  0  0  0  0  0  0  0  0  0  0
    3.7810    1.0460   -0.0290 C   0  0  0  0  0  0  0  0  0  0  0  0
    2.8050    0.7800   -1.1460 C   0  0  0  0  0  0  0  0  0  0  0  0
    1.4820    1.3710   -0.8730 C   0  0  2  0  0  0  0  0  0  0  0  0
    1.6420    2.8710   -0.6940 C   0  0  0  0  0  0  0  0  0  0  0  0
    0.5900    0.7880    0.1160 C   0  0  2  0  0  0  0  0  0  0  0  0
    1.0220    0.6880    1.4810 N   0  0  0  0  0  0  0  0  0  0  0  0
   -0.1400   -0.4640   -0.3010 C   0  0  0  0  0  0  0  0  0  0  0  0
   -0.3710   -1.3740    0.5470 O   0  0  0  0  0  0  0  0  0  0  0  0
    3.4160    1.8250    0.6660 H   0  0  0  0  0  0  0  0  0  0  0  0
    4.7240    1.5050   -0.4660 H   0  0  0  0  0  0  0  0  0  0  0  0
    4.1230    0.1190    0.4850 H   0  0  0  0  0  0  0  0  0  0  0  0
    2.7900   -0.2860   -1.4470 H   0  0  0  0  0  0  0  0  0  0  0  0
    3.2050    1.3040   -2.0650 H   0  0  0  0  0  0  0  0  0  0  0  0
    0.9180    1.3060   -1.8750 H   0  0  0  0  0  0  0  0  0  0  0  0
    2.3230    3.2390   -1.4970 H   0  0  0  0  0  0  0  0  0  0  0  0
    1.9280    3.1740    0.3120 H   0  0  0  0  0  0  0  0  0  0  0  0
    0.6350    3.3210   -0.9330 H   0  0  0  0  0  0  0  0  0  0  0  0
   -0.2860    1.5320    0.1900 H   0  0  0  0  0  0  0  0  0  0  0  0
    1.9600    0.2910    1.7160 H   0  0  0  0  0  0  0  0  0  0  0  0
   -0.6030   -0.7050   -1.6110 N   0  0  0  0  0  0  0  0  0  0  0  0
   -1.3330   -1.9570   -1.9160 C   0  0  1  0  0  0  0  0  0  0  0  0
   -2.5640   -1.6520   -2.6970 C   0  0  0  0  0  0  0  0  0  0  0  0
   -3.4070   -2.7980   -3.0510 C   0  0  0  0  0  0  0  0  0  0  0  0
   -3.1940   -3.4940   -4.2160 C   0  0  0  0  0  0  0  0  0  0  0  0
   -4.0380   -4.5740   -4.5300 C   0  0  0  0  0  0  0  0  0  0  0  0
   -5.0570   -4.9230   -3.6850 C   0  0  0  0  0  0  0  0  0  0  0  0
   -5.2680   -4.2230   -2.5210 C   0  0  0  0  0  0  0  0  0  0  0  0
   -4.4260   -3.1580   -2.2200 C   0  0  0  0  0  0  0  0  0  0  0  0
   -0.4130   -2.9200   -2.5650 C   0  0  0  0  0  0  0  0  0  0  0  0
    0.7700   -2.5620   -2.7870 O   0  0  0  0  0  0  0  0  0  0  0  0
   -0.7880   -4.2000   -2.9400 O   0  0  0  0  0  0  0  0  0  0  0  0
   -0.4510   -0.0270   -2.3840 H   0  0  0  0  0  0  0  0  0  0  0  0
   -1.6030   -2.4170   -0.9440 H   0  0  0  0  0  0  0  0  0  0  0  0
   -2.2420   -1.1060   -3.6300 H   0  0  0  0  0  0  0  0  0  0  0  0
   -3.2210   -0.9100   -2.1750 H   0  0  0  0  0  0  0  0  0  0  0  0
   -2.4110   -3.2680   -4.9200 H   0  0  0  0  0  0  0  0  0  0  0  0
   -3.8670   -5.1190   -5.4490 H   0  0  0  0  0  0  0  0  0  0  0  0
   -5.7040   -5.7750   -3.9500 H   0  0  0  0  0  0  0  0  0  0  0  0
   -6.0740   -4.4880   -1.8430 H   0  0  0  0  0  0  0  0  0  0  0  0
   -4.5770   -2.5980   -1.3130 H   0  0  0  0  0  0  0  0  0  0  0  0
  1 12  1  0  0  0  0
  2  3  1  0  0  0  0
  2 13  1  1  0  0  0
  2  1  1  0  0  0  0
  3  4  1  0  0  0  0
  4  8  1  0  0  0  0
  4  5  2  0  0  0  0
  5  6  1  0  0  0  0
  6 17  1  0  0  0  0
  7  6  1  0  0  0  0
  7 18  1  0  0  0  0
  8  7  2  0  0  0  0
  9  2  1  0  0  0  0
 10  9  2  0  0  0  0
 11  1  1  0  0  0  0
 14  3  1  0  0  0  0
 15  3  1  0  0  0  0
 16  5  1  0  0  0  0
 19 29  1  0  0  0  0
 19 27  1  0  0  0  0
 20 21  1  0  0  0  0
 20 19  1  0  0  0  0
 21 32  1  6  0  0  0
 21 22  1  0  0  0  0
 21 23  1  0  0  0  0
 22 34  1  0  0  0  0
 23 36  1  1  0  0  0
 23 24  1  0  0  0  0
 24 37  1  0  0  0  0
 24  9  1  0  0  0  0
 25 23  1  0  0  0  0
 25 26  2  0  0  0  0
 28 19  1  0  0  0  0
 30 20  1  0  0  0  0
 31 20  1  0  0  0  0
 33 22  1  0  0  0  0
 35 22  1  0  0  0  0
 38 25  1  0  0  0  0
 39 38  1  0  0  0  0
 39 51  1  1  0  0  0
 40 53  1  0  0  0  0
 40 39  1  0  0  0  0
 41 40  1  0  0  0  0
 41 46  1  0  0  0  0
 42 41  2  0  0  0  0
 43 42  1  0  0  0  0
 43 44  2  0  0  0  0
 44 45  1  0  0  0  0
 45 46  2  0  0  0  0
 45 57  1  0  0  0  0
 46 58  1  0  0  0  0
 47 39  1  0  0  0  0
 48 47  1  0  0  0  0
 49 47  2  0  0  0  0
 50 38  1  0  0  0  0
 52 40  1  0  0  0  0
 54 42  1  0  0  0  0
 55 43  1  0  0  0  0
 56 44  1  0  0  0  0
M  END
$$$$
