HIL.pdb
 OpenBabel07022418373D

 57 57  0  0  1  0  0  0  0  0999 V2000
   -0.0060   -3.3830    2.1550 N   0  0  0  0  0  0  0  0  0  0  0  0
    1.3750   -2.8830    2.1850 C   0  0  1  0  0  0  0  0  0  0  0  0
    2.1710   -3.7750    1.2620 C   0  0  0  0  0  0  0  0  0  0  0  0
    3.5880   -3.4060    1.1780 C   0  0  0  0  0  0  0  0  0  0  0  0
    4.1390   -2.5250    0.2810 C   0  0  0  0  0  0  0  0  0  0  0  0
    5.4730   -2.4160    0.4820 N   0  0  0  0  0  0  0  0  0  0  0  0
    5.7640   -3.2340    1.5130 C   0  0  0  0  0  0  0  0  0  0  0  0
    4.6420   -3.8290    1.9340 N   0  0  0  0  0  0  0  0  0  0  0  0
    1.3820   -1.4740    1.7880 C   0  0  0  0  0  0  0  0  0  0  0  0
    2.4420   -0.8430    1.7410 O   0  0  0  0  0  0  0  0  0  0  0  0
    0.0010   -4.4230    2.2660 H   0  0  0  0  0  0  0  0  0  0  0  0
   -0.5340   -2.9540    2.9330 H   0  0  0  0  0  0  0  0  0  0  0  0
    1.8080   -3.0260    3.2060 H   0  0  0  0  0  0  0  0  0  0  0  0
    2.1220   -4.8030    1.7060 H   0  0  0  0  0  0  0  0  0  0  0  0
    1.6910   -3.8760    0.2540 H   0  0  0  0  0  0  0  0  0  0  0  0
    3.6070   -1.9840   -0.4850 H   0  0  0  0  0  0  0  0  0  0  0  0
    6.1770   -1.8400   -0.0190 H   0  0  0  0  0  0  0  0  0  0  0  0
    6.7650   -3.3710    1.9210 H   0  0  0  0  0  0  0  0  0  0  0  0
    0.0270    2.2860    3.4990 C   0  0  0  0  0  0  0  0  0  0  0  0
    1.2660    1.7410    2.8000 C   0  0  0  0  0  0  0  0  0  0  0  0
    1.0290    1.5610    1.3240 C   0  0  2  0  0  0  0  0  0  0  0  0
    0.6720    2.9190    0.7630 C   0  0  0  0  0  0  0  0  0  0  0  0
   -0.0190    0.5310    1.0710 C   0  0  2  0  0  0  0  0  0  0  0  0
    0.1950   -0.8000    1.4520 N   0  0  0  0  0  0  0  0  0  0  0  0
   -0.7080    0.6130   -0.2250 C   0  0  0  0  0  0  0  0  0  0  0  0
   -1.0280    1.7400   -0.7470 O   0  0  0  0  0  0  0  0  0  0  0  0
   -0.6420    1.4510    3.7940 H   0  0  0  0  0  0  0  0  0  0  0  0
   -0.5540    2.9880    2.9060 H   0  0  0  0  0  0  0  0  0  0  0  0
    0.3010    2.8000    4.4440 H   0  0  0  0  0  0  0  0  0  0  0  0
    1.5640    0.8870    3.3800 H   0  0  0  0  0  0  0  0  0  0  0  0
    2.0300    2.5680    2.9230 H   0  0  0  0  0  0  0  0  0  0  0  0
    1.9960    1.3250    0.7920 H   0  0  0  0  0  0  0  0  0  0  0  0
   -0.3620    3.2280    0.9120 H   0  0  0  0  0  0  0  0  0  0  0  0
    1.0250    3.0400   -0.2860 H   0  0  0  0  0  0  0  0  0  0  0  0
    1.2990    3.6610    1.3420 H   0  0  0  0  0  0  0  0  0  0  0  0
   -0.8240    0.8890    1.8470 H   0  0  0  0  0  0  0  0  0  0  0  0
   -0.7190   -1.3850    1.4900 H   0  0  0  0  0  0  0  0  0  0  0  0
   -3.4960   -1.7350   -0.0640 C   0  0  0  0  0  0  0  0  0  0  0  0
   -3.8670   -1.6210   -1.5020 C   0  0  0  0  0  0  0  0  0  0  0  0
   -5.3810   -1.4590   -1.6010 C   0  0  0  0  0  0  0  0  0  0  0  0
   -3.2090   -0.5000   -2.2300 C   0  0  0  0  0  0  0  0  0  0  0  0
   -1.7250   -0.5590   -2.2560 C   0  0  2  0  0  0  0  0  0  0  0  0
   -1.0670   -0.5370   -0.9910 N   0  0  0  0  0  0  0  0  0  0  0  0
   -1.1160    0.3620   -3.2420 C   0  0  0  0  0  0  0  0  0  0  0  0
   -1.6450    0.5060   -4.3580 O   0  0  0  0  0  0  0  0  0  0  0  0
    0.0270    1.0520   -2.9340 O   0  0  0  0  0  0  0  0  0  0  0  0
   -2.8030   -2.6040    0.0630 H   0  0  0  0  0  0  0  0  0  0  0  0
   -3.1450   -0.8160    0.4090 H   0  0  0  0  0  0  0  0  0  0  0  0
   -4.4100   -2.0440    0.5230 H   0  0  0  0  0  0  0  0  0  0  0  0
   -3.6360   -2.5680   -2.0300 H   0  0  0  0  0  0  0  0  0  0  0  0
   -5.6890   -0.7310   -0.8000 H   0  0  0  0  0  0  0  0  0  0  0  0
   -5.5970   -0.9170   -2.5640 H   0  0  0  0  0  0  0  0  0  0  0  0
   -5.9160   -2.4070   -1.5440 H   0  0  0  0  0  0  0  0  0  0  0  0
   -3.5770   -0.3910   -3.2540 H   0  0  0  0  0  0  0  0  0  0  0  0
   -3.5140    0.4500   -1.6990 H   0  0  0  0  0  0  0  0  0  0  0  0
   -1.4530   -1.5910   -2.6970 H   0  0  0  0  0  0  0  0  0  0  0  0
   -0.7850   -1.4510   -0.5120 H   0  0  0  0  0  0  0  0  0  0  0  0
  1  2  1  0  0  0  0
  1 11  1  0  0  0  0
  1 12  1  0  0  0  0
  2 13  1  1  0  0  0
  3 14  1  0  0  0  0
  3  2  1  0  0  0  0
  4  3  1  0  0  0  0
  4  8  1  0  0  0  0
  5  6  1  0  0  0  0
  5  4  2  0  0  0  0
  6  7  1  0  0  0  0
  7 18  1  0  0  0  0
  7  8  2  0  0  0  0
  9  2  1  0  0  0  0
 10  9  2  0  0  0  0
 15  3  1  0  0  0  0
 16  5  1  0  0  0  0
 17  6  1  0  0  0  0
 19 27  1  0  0  0  0
 19 29  1  0  0  0  0
 20 31  1  0  0  0  0
 20 30  1  0  0  0  0
 20 19  1  0  0  0  0
 21 32  1  6  0  0  0
 21 20  1  0  0  0  0
 22 33  1  0  0  0  0
 22 21  1  0  0  0  0
 22 35  1  0  0  0  0
 23 21  1  0  0  0  0
 23 24  1  0  0  0  0
 23 36  1  1  0  0  0
 24 37  1  0  0  0  0
 24  9  1  0  0  0  0
 25 23  1  0  0  0  0
 26 25  2  0  0  0  0
 28 19  1  0  0  0  0
 34 22  1  0  0  0  0
 38 47  1  0  0  0  0
 38 48  1  0  0  0  0
 38 49  1  0  0  0  0
 39 38  1  0  0  0  0
 40 53  1  0  0  0  0
 40 39  1  0  0  0  0
 40 51  1  0  0  0  0
 41 55  1  0  0  0  0
 41 39  1  0  0  0  0
 42 56  1  6  0  0  0
 42 41  1  0  0  0  0
 42 43  1  0  0  0  0
 43 57  1  0  0  0  0
 43 25  1  0  0  0  0
 44 46  1  0  0  0  0
 44 42  1  0  0  0  0
 45 44  2  0  0  0  0
 50 39  1  0  0  0  0
 52 40  1  0  0  0  0
 54 41  1  0  0  0  0
M  END
$$$$
