HIM.pdb
 OpenBabel07022418373D

 55 55  0  0  1  0  0  0  0  0999 V2000
    1.5770   -2.3620    4.8020 N   0  0  0  0  0  0  0  0  0  0  0  0
    1.8760   -1.3390    3.8110 C   0  0  1  0  0  0  0  0  0  0  0  0
    3.1330   -1.7150    3.0870 C   0  0  0  0  0  0  0  0  0  0  0  0
    3.0330   -3.0180    2.3830 C   0  0  0  0  0  0  0  0  0  0  0  0
    2.6060   -3.1960    1.0880 C   0  0  0  0  0  0  0  0  0  0  0  0
    2.6500   -4.5130    0.7970 N   0  0  0  0  0  0  0  0  0  0  0  0
    3.0940   -5.1530    1.8850 C   0  0  0  0  0  0  0  0  0  0  0  0
    3.3270   -4.2470    2.8480 N   0  0  0  0  0  0  0  0  0  0  0  0
    0.7200   -1.0730    2.9460 C   0  0  0  0  0  0  0  0  0  0  0  0
   -0.3290   -1.7240    3.1050 O   0  0  0  0  0  0  0  0  0  0  0  0
    1.9510   -3.2950    4.5290 H   0  0  0  0  0  0  0  0  0  0  0  0
    2.0310   -2.0700    5.6820 H   0  0  0  0  0  0  0  0  0  0  0  0
    2.1020   -0.3580    4.3230 H   0  0  0  0  0  0  0  0  0  0  0  0
    3.4270   -0.9000    2.3970 H   0  0  0  0  0  0  0  0  0  0  0  0
    3.9340   -1.8180    3.8370 H   0  0  0  0  0  0  0  0  0  0  0  0
    2.2850   -2.4260    0.3970 H   0  0  0  0  0  0  0  0  0  0  0  0
    2.3790   -4.9460   -0.1260 H   0  0  0  0  0  0  0  0  0  0  0  0
    3.2280   -6.2370    1.9310 H   0  0  0  0  0  0  0  0  0  0  0  0
   -1.5830    2.8180    3.5190 C   0  0  0  0  0  0  0  0  0  0  0  0
   -1.1560    1.4820    2.9600 C   0  0  0  0  0  0  0  0  0  0  0  0
   -0.7870    1.6130    1.4730 C   0  0  2  0  0  0  0  0  0  0  0  0
   -2.0070    2.1030    0.7720 C   0  0  0  0  0  0  0  0  0  0  0  0
   -0.3550    0.2050    1.0560 C   0  0  2  0  0  0  0  0  0  0  0  0
    0.7750   -0.0920    1.9370 N   0  0  0  0  0  0  0  0  0  0  0  0
    0.0320    0.1100   -0.3550 C   0  0  0  0  0  0  0  0  0  0  0  0
    1.2480   -0.1290   -0.6830 O   0  0  0  0  0  0  0  0  0  0  0  0
   -1.0420    3.0030    4.4890 H   0  0  0  0  0  0  0  0  0  0  0  0
   -2.6690    2.8150    3.6730 H   0  0  0  0  0  0  0  0  0  0  0  0
   -1.2520    3.6620    2.8590 H   0  0  0  0  0  0  0  0  0  0  0  0
   -0.3270    1.0790    3.5530 H   0  0  0  0  0  0  0  0  0  0  0  0
   -1.9990    0.7510    3.0690 H   0  0  0  0  0  0  0  0  0  0  0  0
    0.0550    2.3040    1.3690 H   0  0  0  0  0  0  0  0  0  0  0  0
   -2.7930    1.3290    0.6810 H   0  0  0  0  0  0  0  0  0  0  0  0
   -1.8450    2.5500   -0.2130 H   0  0  0  0  0  0  0  0  0  0  0  0
   -2.4800    2.8960    1.4170 H   0  0  0  0  0  0  0  0  0  0  0  0
   -1.1630   -0.4710    1.3210 H   0  0  0  0  0  0  0  0  0  0  0  0
    1.6380    0.4950    1.7510 H   0  0  0  0  0  0  0  0  0  0  0  0
   -3.0230   -3.8860   -3.1540 C   0  0  0  0  0  0  0  0  0  0  0  0
   -3.3110   -2.4180   -4.1550 S   0  0  0  0  0  0  0  0  0  0  0  0
   -2.5490   -0.9420   -3.4260 C   0  0  0  0  0  0  0  0  0  0  0  0
   -1.0330   -1.0660   -3.4400 C   0  0  0  0  0  0  0  0  0  0  0  0
   -0.3670    0.1510   -2.8410 C   0  0  2  0  0  0  0  0  0  0  0  0
   -0.8360    0.2590   -1.4660 N   0  0  0  0  0  0  0  0  0  0  0  0
   -0.6160    1.3720   -3.6130 C   0  0  0  0  0  0  0  0  0  0  0  0
   -1.1720    2.4030   -3.1570 O   0  0  0  0  0  0  0  0  0  0  0  0
   -0.2180    1.4100   -4.9420 O   0  0  0  0  0  0  0  0  0  0  0  0
   -3.8920   -4.5750   -3.3050 H   0  0  0  0  0  0  0  0  0  0  0  0
   -3.0010   -3.6420   -2.0630 H   0  0  0  0  0  0  0  0  0  0  0  0
   -2.1290   -4.4460   -3.4470 H   0  0  0  0  0  0  0  0  0  0  0  0
   -2.9250   -0.8800   -2.3930 H   0  0  0  0  0  0  0  0  0  0  0  0
   -2.8400   -0.0780   -4.0520 H   0  0  0  0  0  0  0  0  0  0  0  0
   -0.6490   -1.3370   -4.4210 H   0  0  0  0  0  0  0  0  0  0  0  0
   -0.7940   -1.9280   -2.7590 H   0  0  0  0  0  0  0  0  0  0  0  0
    0.7240   -0.0520   -2.8530 H   0  0  0  0  0  0  0  0  0  0  0  0
   -1.8450    0.4470   -1.3000 H   0  0  0  0  0  0  0  0  0  0  0  0
  1 12  1  0  0  0  0
  2 13  1  1  0  0  0
  2  1  1  0  0  0  0
  3  2  1  0  0  0  0
  3 15  1  0  0  0  0
  4  8  1  0  0  0  0
  4  3  1  0  0  0  0
  5  4  2  0  0  0  0
  6  5  1  0  0  0  0
  6  7  1  0  0  0  0
  7 18  1  0  0  0  0
  7  8  2  0  0  0  0
  9 10  2  0  0  0  0
  9  2  1  0  0  0  0
 11  1  1  0  0  0  0
 14  3  1  0  0  0  0
 16  5  1  0  0  0  0
 17  6  1  0  0  0  0
 19 28  1  0  0  0  0
 19 27  1  0  0  0  0
 20 31  1  0  0  0  0
 20 19  1  0  0  0  0
 20 30  1  0  0  0  0
 21 32  1  6  0  0  0
 21 20  1  0  0  0  0
 22 35  1  0  0  0  0
 22 21  1  0  0  0  0
 23 36  1  1  0  0  0
 23 21  1  0  0  0  0
 23 24  1  0  0  0  0
 24  9  1  0  0  0  0
 25 23  1  0  0  0  0
 26 25  2  0  0  0  0
 29 19  1  0  0  0  0
 33 22  1  0  0  0  0
 34 22  1  0  0  0  0
 37 24  1  0  0  0  0
 38 48  1  0  0  0  0
 39 40  1  0  0  0  0
 39 38  1  0  0  0  0
 40 50  1  0  0  0  0
 41 40  1  0  0  0  0
 41 42  1  0  0  0  0
 41 53  1  0  0  0  0
 42 54  1  1  0  0  0
 42 43  1  0  0  0  0
 43 55  1  0  0  0  0
 43 25  1  0  0  0  0
 44 45  1  0  0  0  0
 44 42  1  0  0  0  0
 46 44  2  0  0  0  0
 47 38  1  0  0  0  0
 49 38  1  0  0  0  0
 51 40  1  0  0  0  0
 52 41  1  0  0  0  0
M  END
$$$$
