HIN.pdb
 OpenBabel07022418373D

 52 52  0  0  1  0  0  0  0  0999 V2000
    0.3410   -1.6890    4.3260 N   0  0  0  0  0  0  0  0  0  0  0  0
    1.4170   -1.9140    3.3290 C   0  0  1  0  0  0  0  0  0  0  0  0
    1.3740   -3.3520    2.9730 C   0  0  0  0  0  0  0  0  0  0  0  0
    2.4080   -3.8240    2.0520 C   0  0  0  0  0  0  0  0  0  0  0  0
    3.4810   -3.1470    1.5570 C   0  0  0  0  0  0  0  0  0  0  0  0
    4.1820   -4.0310    0.7840 N   0  0  0  0  0  0  0  0  0  0  0  0
    3.5560   -5.2130    0.8070 C   0  0  0  0  0  0  0  0  0  0  0  0
    2.4820   -5.0840    1.5780 N   0  0  0  0  0  0  0  0  0  0  0  0
    0.9110   -1.1000    2.1440 C   0  0  0  0  0  0  0  0  0  0  0  0
    1.4510   -1.2860    1.0430 O   0  0  0  0  0  0  0  0  0  0  0  0
    0.5820   -2.1820    5.2170 H   0  0  0  0  0  0  0  0  0  0  0  0
   -0.5780   -1.9870    3.9110 H   0  0  0  0  0  0  0  0  0  0  0  0
    2.3620   -1.5050    3.6650 H   0  0  0  0  0  0  0  0  0  0  0  0
    0.3410   -3.5700    2.5750 H   0  0  0  0  0  0  0  0  0  0  0  0
    1.4030   -3.9370    3.9390 H   0  0  0  0  0  0  0  0  0  0  0  0
    3.8290   -2.1480    1.6770 H   0  0  0  0  0  0  0  0  0  0  0  0
    5.0550   -3.8360    0.2630 H   0  0  0  0  0  0  0  0  0  0  0  0
    3.8380   -6.1530    0.2980 H   0  0  0  0  0  0  0  0  0  0  0  0
    2.1310    3.1650    1.5010 C   0  0  0  0  0  0  0  0  0  0  0  0
    0.9820    2.2680    1.8450 C   0  0  0  0  0  0  0  0  0  0  0  0
    0.5790    1.4050    0.6210 C   0  0  2  0  0  0  0  0  0  0  0  0
    0.1980    2.4310   -0.4340 C   0  0  0  0  0  0  0  0  0  0  0  0
   -0.5780    0.5930    1.1120 C   0  0  2  0  0  0  0  0  0  0  0  0
   -0.1240   -0.1690    2.2640 N   0  0  0  0  0  0  0  0  0  0  0  0
   -1.2300   -0.2780    0.1250 C   0  0  0  0  0  0  0  0  0  0  0  0
   -1.2690   -1.5470    0.3480 O   0  0  0  0  0  0  0  0  0  0  0  0
    2.7140    3.3000    2.4660 H   0  0  0  0  0  0  0  0  0  0  0  0
    2.8740    2.6860    0.8200 H   0  0  0  0  0  0  0  0  0  0  0  0
    1.8370    4.1790    1.1980 H   0  0  0  0  0  0  0  0  0  0  0  0
    0.1160    2.8590    2.1320 H   0  0  0  0  0  0  0  0  0  0  0  0
    1.2570    1.5860    2.6870 H   0  0  0  0  0  0  0  0  0  0  0  0
    1.4100    0.8020    0.2540 H   0  0  0  0  0  0  0  0  0  0  0  0
    1.0310    3.1900   -0.3950 H   0  0  0  0  0  0  0  0  0  0  0  0
   -0.7720    2.8920   -0.2640 H   0  0  0  0  0  0  0  0  0  0  0  0
    0.3050    1.9470   -1.4180 H   0  0  0  0  0  0  0  0  0  0  0  0
   -1.3380    1.3260    1.4740 H   0  0  0  0  0  0  0  0  0  0  0  0
   -0.5720   -0.0300    3.2150 H   0  0  0  0  0  0  0  0  0  0  0  0
   -5.7860   -1.5060   -0.7440 N   0  0  0  0  0  0  0  0  0  0  0  0
   -4.6310   -0.6850   -0.8490 C   0  0  0  0  0  0  0  0  0  0  0  0
   -4.1910   -0.0140    0.1540 O   0  0  0  0  0  0  0  0  0  0  0  0
   -3.9360   -0.6280   -2.1700 C   0  0  0  0  0  0  0  0  0  0  0  0
   -2.4430   -0.8710   -1.9790 C   0  0  2  0  0  0  0  0  0  0  0  0
   -1.8390    0.1330   -1.0840 N   0  0  0  0  0  0  0  0  0  0  0  0
   -1.7680   -0.8160   -3.3100 C   0  0  0  0  0  0  0  0  0  0  0  0
   -2.1490   -1.5730   -4.2330 O   0  0  0  0  0  0  0  0  0  0  0  0
   -0.7140    0.0500   -3.5890 O   0  0  0  0  0  0  0  0  0  0  0  0
   -5.9580   -1.9880    0.1630 H   0  0  0  0  0  0  0  0  0  0  0  0
   -6.4690   -1.6550   -1.5090 H   0  0  0  0  0  0  0  0  0  0  0  0
   -4.3130   -1.4510   -2.7880 H   0  0  0  0  0  0  0  0  0  0  0  0
   -4.1250    0.3700   -2.6390 H   0  0  0  0  0  0  0  0  0  0  0  0
   -2.3210   -1.8850   -1.5970 H   0  0  0  0  0  0  0  0  0  0  0  0
   -1.8700    1.1410   -1.3350 H   0  0  0  0  0  0  0  0  0  0  0  0
  1 11  1  0  0  0  0
  2 13  1  1  0  0  0
  2  1  1  0  0  0  0
  3  2  1  0  0  0  0
  3 15  1  0  0  0  0
  4  3  1  0  0  0  0
  5 16  1  0  0  0  0
  5  4  2  0  0  0  0
  6  7  1  0  0  0  0
  6  5  1  0  0  0  0
  7  8  2  0  0  0  0
  8  4  1  0  0  0  0
  9 24  1  0  0  0  0
  9  2  1  0  0  0  0
 10  9  2  0  0  0  0
 12  1  1  0  0  0  0
 14  3  1  0  0  0  0
 17  6  1  0  0  0  0
 18  7  1  0  0  0  0
 19 20  1  0  0  0  0
 19 27  1  0  0  0  0
 20 30  1  0  0  0  0
 20 31  1  0  0  0  0
 21 32  1  6  0  0  0
 21 23  1  0  0  0  0
 21 20  1  0  0  0  0
 22 33  1  0  0  0  0
 22 34  1  0  0  0  0
 22 21  1  0  0  0  0
 23 36  1  1  0  0  0
 23 24  1  0  0  0  0
 24 37  1  0  0  0  0
 25 26  2  0  0  0  0
 25 23  1  0  0  0  0
 28 19  1  0  0  0  0
 29 19  1  0  0  0  0
 35 22  1  0  0  0  0
 38 47  1  0  0  0  0
 39 38  1  0  0  0  0
 39 40  2  0  0  0  0
 41 42  1  0  0  0  0
 41 39  1  0  0  0  0
 42 51  1  1  0  0  0
 42 43  1  0  0  0  0
 43 25  1  0  0  0  0
 44 42  1  0  0  0  0
 45 44  2  0  0  0  0
 46 44  1  0  0  0  0
 48 38  1  0  0  0  0
 49 41  1  0  0  0  0
 50 41  1  0  0  0  0
 52 43  1  0  0  0  0
M  END
$$$$
