HIT.pdb
 OpenBabel07022418373D

 52 52  0  0  1  0  0  0  0  0999 V2000
    0.7520   -3.5480    2.6760 N   0  0  0  0  0  0  0  0  0  0  0  0
    1.4240   -2.8220    1.6200 C   0  0  1  0  0  0  0  0  0  0  0  0
    1.2250   -3.5710    0.3400 C   0  0  0  0  0  0  0  0  0  0  0  0
    1.8800   -2.9060   -0.8130 C   0  0  0  0  0  0  0  0  0  0  0  0
    3.1610   -3.1350   -1.2310 C   0  0  0  0  0  0  0  0  0  0  0  0
    3.3660   -2.3420   -2.2960 N   0  0  0  0  0  0  0  0  0  0  0  0
    2.2550   -1.6310   -2.5510 C   0  0  0  0  0  0  0  0  0  0  0  0
    1.3510   -1.9900   -1.6300 N   0  0  0  0  0  0  0  0  0  0  0  0
    0.9310   -1.4190    1.5340 C   0  0  0  0  0  0  0  0  0  0  0  0
    1.3730   -0.6020    0.6880 O   0  0  0  0  0  0  0  0  0  0  0  0
    0.6880   -4.5490    2.4130 H   0  0  0  0  0  0  0  0  0  0  0  0
    1.3040   -3.4860    3.5570 H   0  0  0  0  0  0  0  0  0  0  0  0
    2.5160   -2.7820    1.8260 H   0  0  0  0  0  0  0  0  0  0  0  0
    1.6720   -4.5740    0.4610 H   0  0  0  0  0  0  0  0  0  0  0  0
    0.1420   -3.6980    0.1040 H   0  0  0  0  0  0  0  0  0  0  0  0
    3.9170   -3.8030   -0.8360 H   0  0  0  0  0  0  0  0  0  0  0  0
    4.2320   -2.2460   -2.8800 H   0  0  0  0  0  0  0  0  0  0  0  0
    2.1210   -0.8980   -3.3600 H   0  0  0  0  0  0  0  0  0  0  0  0
    1.9120    0.2510    4.1350 C   0  0  0  0  0  0  0  0  0  0  0  0
    0.9940    1.4090    4.0530 C   0  0  0  0  0  0  0  0  0  0  0  0
    0.2740    1.4490    2.7310 C   0  0  2  0  0  0  0  0  0  0  0  0
   -0.6030    2.7210    2.8150 C   0  0  0  0  0  0  0  0  0  0  0  0
   -0.6390    0.3090    2.4770 C   0  0  2  0  0  0  0  0  0  0  0  0
   -0.0800   -1.0000    2.4510 N   0  0  0  0  0  0  0  0  0  0  0  0
   -1.5040    0.5510    1.2680 C   0  0  0  0  0  0  0  0  0  0  0  0
   -2.0770    1.6460    1.1220 O   0  0  0  0  0  0  0  0  0  0  0  0
    2.5380    0.2140    3.2100 H   0  0  0  0  0  0  0  0  0  0  0  0
    1.3490   -0.6820    4.2940 H   0  0  0  0  0  0  0  0  0  0  0  0
    2.6010    0.3560    5.0370 H   0  0  0  0  0  0  0  0  0  0  0  0
    1.5030    2.3920    4.2320 H   0  0  0  0  0  0  0  0  0  0  0  0
    0.1810    1.2960    4.8300 H   0  0  0  0  0  0  0  0  0  0  0  0
    1.0110    1.6520    1.9510 H   0  0  0  0  0  0  0  0  0  0  0  0
   -0.1750    3.4130    3.6040 H   0  0  0  0  0  0  0  0  0  0  0  0
   -0.6460    3.2570    1.8670 H   0  0  0  0  0  0  0  0  0  0  0  0
   -1.5850    2.4310    3.2230 H   0  0  0  0  0  0  0  0  0  0  0  0
   -1.3970    0.3350    3.3240 H   0  0  0  0  0  0  0  0  0  0  0  0
   -0.4240   -1.7120    3.1330 H   0  0  0  0  0  0  0  0  0  0  0  0
   -2.7050    0.1480   -3.2980 C   0  0  0  0  0  0  0  0  0  0  0  0
   -1.7420   -0.2100   -2.1840 C   0  0  1  0  0  0  0  0  0  0  0  0
   -0.7750    0.7900   -2.0880 O   0  0  0  0  0  0  0  0  0  0  0  0
   -2.5390   -0.1870   -0.8960 C   0  0  2  0  0  0  0  0  0  0  0  0
   -1.7060   -0.4340    0.2600 N   0  0  0  0  0  0  0  0  0  0  0  0
   -3.6420   -1.1550   -0.9040 C   0  0  0  0  0  0  0  0  0  0  0  0
   -3.7380   -2.0070   -0.0030 O   0  0  0  0  0  0  0  0  0  0  0  0
   -4.5790   -1.1280   -1.9110 O   0  0  0  0  0  0  0  0  0  0  0  0
   -2.1400    0.6710   -4.1210 H   0  0  0  0  0  0  0  0  0  0  0  0
   -3.5260    0.7900   -2.9710 H   0  0  0  0  0  0  0  0  0  0  0  0
   -3.1170   -0.8050   -3.7080 H   0  0  0  0  0  0  0  0  0  0  0  0
   -1.2540   -1.1850   -2.3570 H   0  0  0  0  0  0  0  0  0  0  0  0
   -0.7520    1.3040   -2.9200 H   0  0  0  0  0  0  0  0  0  0  0  0
   -2.9550    0.8570   -0.8300 H   0  0  0  0  0  0  0  0  0  0  0  0
   -1.2400   -1.3430    0.3730 H   0  0  0  0  0  0  0  0  0  0  0  0
  1 12  1  0  0  0  0
  2 13  1  1  0  0  0
  2  1  1  0  0  0  0
  3 14  1  0  0  0  0
  3  2  1  0  0  0  0
  4  3  1  0  0  0  0
  5 16  1  0  0  0  0
  5  4  2  0  0  0  0
  6  5  1  0  0  0  0
  7  6  1  0  0  0  0
  7  8  2  0  0  0  0
  8  4  1  0  0  0  0
  9  2  1  0  0  0  0
  9 24  1  0  0  0  0
 10  9  2  0  0  0  0
 11  1  1  0  0  0  0
 15  3  1  0  0  0  0
 17  6  1  0  0  0  0
 18  7  1  0  0  0  0
 19 28  1  0  0  0  0
 19 29  1  0  0  0  0
 20 19  1  0  0  0  0
 20 30  1  0  0  0  0
 20 31  1  0  0  0  0
 21 32  1  6  0  0  0
 21 22  1  0  0  0  0
 21 20  1  0  0  0  0
 22 35  1  0  0  0  0
 22 33  1  0  0  0  0
 23 21  1  0  0  0  0
 23 36  1  1  0  0  0
 24 23  1  0  0  0  0
 24 37  1  0  0  0  0
 25 23  1  0  0  0  0
 26 25  2  0  0  0  0
 27 19  1  0  0  0  0
 34 22  1  0  0  0  0
 38 47  1  0  0  0  0
 38 39  1  0  0  0  0
 39 49  1  6  0  0  0
 39 40  1  0  0  0  0
 39 41  1  0  0  0  0
 41 51  1  1  0  0  0
 41 42  1  0  0  0  0
 42 52  1  0  0  0  0
 42 25  1  0  0  0  0
 43 41  1  0  0  0  0
 43 44  1  0  0  0  0
 45 43  2  0  0  0  0
 46 38  1  0  0  0  0
 48 38  1  0  0  0  0
 50 40  1  0  0  0  0
M  END
$$$$
