HIV.pdb
 OpenBabel07022418373D

 54 54  0  0  1  0  0  0  0  0999 V2000
    2.0840   -3.1410   -0.8240 N   0  0  0  0  0  0  0  0  0  0  0  0
    1.7110   -3.7660    0.4060 C   0  0  1  0  0  0  0  0  0  0  0  0
    2.9690   -4.0320    1.2060 C   0  0  0  0  0  0  0  0  0  0  0  0
    3.6920   -2.7740    1.4990 C   0  0  0  0  0  0  0  0  0  0  0  0
    3.5300   -1.9420    2.6100 C   0  0  0  0  0  0  0  0  0  0  0  0
    4.3710   -0.9170    2.4900 N   0  0  0  0  0  0  0  0  0  0  0  0
    5.0640   -1.0620    1.3450 C   0  0  0  0  0  0  0  0  0  0  0  0
    4.6570   -2.1990    0.7260 N   0  0  0  0  0  0  0  0  0  0  0  0
    0.8490   -2.8650    1.2470 C   0  0  0  0  0  0  0  0  0  0  0  0
    0.4190   -3.2370    2.3680 O   0  0  0  0  0  0  0  0  0  0  0  0
    2.8060   -2.4180   -0.7540 H   0  0  0  0  0  0  0  0  0  0  0  0
    1.2760   -2.8800   -1.4250 H   0  0  0  0  0  0  0  0  0  0  0  0
    1.2190   -4.7220    0.1900 H   0  0  0  0  0  0  0  0  0  0  0  0
    3.6350   -4.7420    0.6430 H   0  0  0  0  0  0  0  0  0  0  0  0
    2.7400   -4.5190    2.1820 H   0  0  0  0  0  0  0  0  0  0  0  0
    2.8480   -2.0860    3.4340 H   0  0  0  0  0  0  0  0  0  0  0  0
    4.4790   -0.1310    3.1650 H   0  0  0  0  0  0  0  0  0  0  0  0
    5.8200   -0.3780    0.9850 H   0  0  0  0  0  0  0  0  0  0  0  0
   -0.7050    0.9360    4.0920 C   0  0  0  0  0  0  0  0  0  0  0  0
   -0.1210    1.5220    2.8430 C   0  0  0  0  0  0  0  0  0  0  0  0
    0.5350    0.4880    1.9930 C   0  0  2  0  0  0  0  0  0  0  0  0
    1.1110    1.1480    0.7520 C   0  0  0  0  0  0  0  0  0  0  0  0
   -0.3550   -0.6790    1.6280 C   0  0  2  0  0  0  0  0  0  0  0  0
    0.4900   -1.5630    0.8040 N   0  0  0  0  0  0  0  0  0  0  0  0
   -1.5690   -0.2880    0.9000 C   0  0  0  0  0  0  0  0  0  0  0  0
   -2.3980    0.4690    1.4570 O   0  0  0  0  0  0  0  0  0  0  0  0
    0.1520    0.7040    4.7740 H   0  0  0  0  0  0  0  0  0  0  0  0
   -1.3720    0.0900    3.9620 H   0  0  0  0  0  0  0  0  0  0  0  0
   -1.2570    1.7640    4.6100 H   0  0  0  0  0  0  0  0  0  0  0  0
   -0.8360    2.1660    2.2930 H   0  0  0  0  0  0  0  0  0  0  0  0
    0.6990    2.2210    3.1750 H   0  0  0  0  0  0  0  0  0  0  0  0
    1.3930    0.0700    2.5580 H   0  0  0  0  0  0  0  0  0  0  0  0
    2.1400    0.7830    0.5380 H   0  0  0  0  0  0  0  0  0  0  0  0
    0.4880    0.9840   -0.1440 H   0  0  0  0  0  0  0  0  0  0  0  0
    1.2290    2.2460    0.9690 H   0  0  0  0  0  0  0  0  0  0  0  0
   -0.6280   -1.1860    2.5720 H   0  0  0  0  0  0  0  0  0  0  0  0
    0.8380   -1.2380   -0.1230 H   0  0  0  0  0  0  0  0  0  0  0  0
   -4.1010    0.8230   -2.9730 C   0  0  0  0  0  0  0  0  0  0  0  0
   -2.7630    0.4730   -2.3540 C   0  0  0  0  0  0  0  0  0  0  0  0
   -2.0400    1.7420   -2.0550 C   0  0  0  0  0  0  0  0  0  0  0  0
   -3.0560   -0.3320   -1.1130 C   0  0  2  0  0  0  0  0  0  0  0  0
   -1.8530   -0.7310   -0.4190 N   0  0  0  0  0  0  0  0  0  0  0  0
   -3.8970   -1.4980   -1.4060 C   0  0  0  0  0  0  0  0  0  0  0  0
   -3.4940   -2.6350   -1.0460 O   0  0  0  0  0  0  0  0  0  0  0  0
   -5.1140   -1.4530   -2.0550 O   0  0  0  0  0  0  0  0  0  0  0  0
   -4.4260    0.0400   -3.7080 H   0  0  0  0  0  0  0  0  0  0  0  0
   -4.9050    0.8640   -2.2040 H   0  0  0  0  0  0  0  0  0  0  0  0
   -4.0650    1.7970   -3.5040 H   0  0  0  0  0  0  0  0  0  0  0  0
   -2.2080   -0.1110   -3.1190 H   0  0  0  0  0  0  0  0  0  0  0  0
   -1.9340    1.9760   -0.9910 H   0  0  0  0  0  0  0  0  0  0  0  0
   -1.0000    1.7230   -2.4830 H   0  0  0  0  0  0  0  0  0  0  0  0
   -2.5230    2.6370   -2.5330 H   0  0  0  0  0  0  0  0  0  0  0  0
   -3.6290    0.3300   -0.4320 H   0  0  0  0  0  0  0  0  0  0  0  0
   -1.1410   -1.3660   -0.8640 H   0  0  0  0  0  0  0  0  0  0  0  0
  1 11  1  0  0  0  0
  1  2  1  0  0  0  0
  2 13  1  6  0  0  0
  2  3  1  0  0  0  0
  2  9  1  0  0  0  0
  3  4  1  0  0  0  0
  3 15  1  0  0  0  0
  4  5  2  0  0  0  0
  5 16  1  0  0  0  0
  6  5  1  0  0  0  0
  6 17  1  0  0  0  0
  7  6  1  0  0  0  0
  8  7  2  0  0  0  0
  8  4  1  0  0  0  0
  9 10  2  0  0  0  0
 12  1  1  0  0  0  0
 14  3  1  0  0  0  0
 18  7  1  0  0  0  0
 19 29  1  0  0  0  0
 19 27  1  0  0  0  0
 20 31  1  0  0  0  0
 20 19  1  0  0  0  0
 21 32  1  1  0  0  0
 21 20  1  0  0  0  0
 22 35  1  0  0  0  0
 22 21  1  0  0  0  0
 23 21  1  0  0  0  0
 23 36  1  1  0  0  0
 24  9  1  0  0  0  0
 24 23  1  0  0  0  0
 25 26  2  0  0  0  0
 25 23  1  0  0  0  0
 28 19  1  0  0  0  0
 30 20  1  0  0  0  0
 33 22  1  0  0  0  0
 34 22  1  0  0  0  0
 37 24  1  0  0  0  0
 38 39  1  0  0  0  0
 38 47  1  0  0  0  0
 39 40  1  0  0  0  0
 39 41  1  0  0  0  0
 40 50  1  0  0  0  0
 41 53  1  1  0  0  0
 41 42  1  0  0  0  0
 42 25  1  0  0  0  0
 43 41  1  0  0  0  0
 43 44  1  0  0  0  0
 45 43  2  0  0  0  0
 46 38  1  0  0  0  0
 48 38  1  0  0  0  0
 49 39  1  0  0  0  0
 51 40  1  0  0  0  0
 52 40  1  0  0  0  0
 54 42  1  0  0  0  0
M  END
$$$$
