HKC.pdb
 OpenBabel07022418373D

 51 51  0  0  1  0  0  0  0  0999 V2000
    2.2560   -3.3620    2.4760 N   0  0  0  0  0  0  0  0  0  0  0  0
    2.7940   -2.6810    1.2670 C   0  0  1  0  0  0  0  0  0  0  0  0
    2.9240   -3.7240    0.1970 C   0  0  0  0  0  0  0  0  0  0  0  0
    3.5010   -3.1620   -1.0430 C   0  0  0  0  0  0  0  0  0  0  0  0
    3.7270   -3.8920   -2.2330 C   0  0  0  0  0  0  0  0  0  0  0  0
    4.2590   -3.0960   -3.1720 N   0  0  0  0  0  0  0  0  0  0  0  0
    4.3830   -1.8770   -2.6230 C   0  0  0  0  0  0  0  0  0  0  0  0
    3.9300   -1.9310   -1.3610 N   0  0  0  0  0  0  0  0  0  0  0  0
    1.8310   -1.5850    0.9160 C   0  0  0  0  0  0  0  0  0  0  0  0
    2.1270   -0.8100    0.0040 O   0  0  0  0  0  0  0  0  0  0  0  0
    2.7090   -4.2970    2.5030 H   0  0  0  0  0  0  0  0  0  0  0  0
    2.5220   -2.7730    3.3000 H   0  0  0  0  0  0  0  0  0  0  0  0
    3.7870   -2.3180    1.5420 H   0  0  0  0  0  0  0  0  0  0  0  0
    1.9090   -4.1390   -0.0800 H   0  0  0  0  0  0  0  0  0  0  0  0
    3.5630   -4.5440    0.6130 H   0  0  0  0  0  0  0  0  0  0  0  0
    3.4860   -4.9360   -2.3170 H   0  0  0  0  0  0  0  0  0  0  0  0
    4.5280   -3.3660   -4.1440 H   0  0  0  0  0  0  0  0  0  0  0  0
    4.7750   -0.9930   -3.0930 H   0  0  0  0  0  0  0  0  0  0  0  0
    0.6040   -1.4190    1.5990 N   0  0  0  0  0  0  0  0  0  0  0  0
   -0.3980   -0.4190    1.3910 C   0  0  1  0  0  0  0  0  0  0  0  0
    0.0580    0.8910    0.8270 C   0  0  0  0  0  0  0  0  0  0  0  0
    1.0360    1.6570    1.6260 C   0  0  0  0  0  0  0  0  0  0  0  0
    0.6190    2.0810    2.9850 C   0  0  0  0  0  0  0  0  0  0  0  0
   -0.5490    2.9900    3.0780 C   0  0  0  0  0  0  0  0  0  0  0  0
   -1.7570    2.4430    2.5480 N   0  0  0  0  0  0  0  0  0  0  0  0
   -1.5490   -0.9190    0.6200 C   0  0  0  0  0  0  0  0  0  0  0  0
   -1.5570   -2.1350    0.2120 O   0  0  0  0  0  0  0  0  0  0  0  0
    0.4470   -2.1640    2.3650 H   0  0  0  0  0  0  0  0  0  0  0  0
   -0.6950   -0.1220    2.4710 H   0  0  0  0  0  0  0  0  0  0  0  0
    0.4790    0.7020   -0.1910 H   0  0  0  0  0  0  0  0  0  0  0  0
   -0.8740    1.4750    0.6090 H   0  0  0  0  0  0  0  0  0  0  0  0
    1.2390    2.6050    1.0240 H   0  0  0  0  0  0  0  0  0  0  0  0
    2.0100    1.1460    1.6810 H   0  0  0  0  0  0  0  0  0  0  0  0
    1.4900    2.6360    3.4470 H   0  0  0  0  0  0  0  0  0  0  0  0
    0.4310    1.1410    3.5840 H   0  0  0  0  0  0  0  0  0  0  0  0
   -0.7770    3.2740    4.1440 H   0  0  0  0  0  0  0  0  0  0  0  0
   -0.3650    3.9570    2.5360 H   0  0  0  0  0  0  0  0  0  0  0  0
   -2.1090    1.7250    3.2290 H   0  0  0  0  0  0  0  0  0  0  0  0
   -2.4560    3.2070    2.4310 H   0  0  0  0  0  0  0  0  0  0  0  0
   -2.6840   -0.1600    0.2750 N   0  0  0  0  0  0  0  0  0  0  0  0
   -3.7820   -0.7610   -0.5030 C   0  0  1  0  0  0  0  0  0  0  0  0
   -5.0560   -0.7020    0.3430 C   0  0  0  0  0  0  0  0  0  0  0  0
   -4.7870   -1.6310    1.8760 S   0  0  0  0  0  0  0  0  0  0  0  0
   -4.0470    0.0600   -1.7120 C   0  0  0  0  0  0  0  0  0  0  0  0
   -4.9520   -0.2910   -2.5070 O   0  0  0  0  0  0  0  0  0  0  0  0
   -3.3210    1.1980   -1.9810 O   0  0  0  0  0  0  0  0  0  0  0  0
   -2.7730    0.8340    0.5590 H   0  0  0  0  0  0  0  0  0  0  0  0
   -3.5330   -1.7990   -0.7180 H   0  0  0  0  0  0  0  0  0  0  0  0
   -5.3000    0.3390    0.6080 H   0  0  0  0  0  0  0  0  0  0  0  0
   -5.8850   -1.1070   -0.2580 H   0  0  0  0  0  0  0  0  0  0  0  0
   -5.7170   -2.6590    1.9630 H   0  0  0  0  0  0  0  0  0  0  0  0
  1 11  1  0  0  0  0
  1 12  1  0  0  0  0
  2 13  1  1  0  0  0
  2  1  1  0  0  0  0
  3 15  1  0  0  0  0
  3  2  1  0  0  0  0
  4  3  1  0  0  0  0
  5  4  2  0  0  0  0
  6  7  1  0  0  0  0
  6  5  1  0  0  0  0
  7  8  2  0  0  0  0
  8  4  1  0  0  0  0
  9  2  1  0  0  0  0
  9 19  1  0  0  0  0
 10  9  2  0  0  0  0
 14  3  1  0  0  0  0
 16  5  1  0  0  0  0
 17  6  1  0  0  0  0
 18  7  1  0  0  0  0
 19 28  1  0  0  0  0
 20 19  1  0  0  0  0
 20 29  1  1  0  0  0
 21 20  1  0  0  0  0
 21 22  1  0  0  0  0
 22 33  1  0  0  0  0
 22 23  1  0  0  0  0
 23 24  1  0  0  0  0
 23 34  1  0  0  0  0
 23 35  1  0  0  0  0
 24 36  1  0  0  0  0
 25 24  1  0  0  0  0
 25 38  1  0  0  0  0
 26 20  1  0  0  0  0
 27 26  2  0  0  0  0
 30 21  1  0  0  0  0
 31 21  1  0  0  0  0
 32 22  1  0  0  0  0
 37 24  1  0  0  0  0
 39 25  1  0  0  0  0
 40 47  1  0  0  0  0
 40 26  1  0  0  0  0
 41 48  1  6  0  0  0
 41 40  1  0  0  0  0
 41 42  1  0  0  0  0
 42 49  1  0  0  0  0
 42 43  1  0  0  0  0
 43 51  1  0  0  0  0
 44 41  1  0  0  0  0
 45 44  2  0  0  0  0
 46 44  1  0  0  0  0
 50 42  1  0  0  0  0
M  END
$$$$
