HKD.pdb
 OpenBabel07022418373D

 53 53  0  0  1  0  0  0  0  0999 V2000
    0.1910   -3.5850    1.5080 N   0  0  0  0  0  0  0  0  0  0  0  0
    1.4110   -2.7700    1.5930 C   0  0  1  0  0  0  0  0  0  0  0  0
    2.4520   -3.3070    0.6730 C   0  0  0  0  0  0  0  0  0  0  0  0
    3.7430   -2.6140    0.7470 C   0  0  0  0  0  0  0  0  0  0  0  0
    4.1980   -1.6400    1.6010 C   0  0  0  0  0  0  0  0  0  0  0  0
    5.4890   -1.4140    1.2480 N   0  0  0  0  0  0  0  0  0  0  0  0
    5.8300   -2.1960    0.2370 C   0  0  0  0  0  0  0  0  0  0  0  0
    4.7750   -2.9480   -0.0950 N   0  0  0  0  0  0  0  0  0  0  0  0
    0.9430   -1.4020    1.1420 C   0  0  0  0  0  0  0  0  0  0  0  0
    1.8130   -0.6140    0.7060 O   0  0  0  0  0  0  0  0  0  0  0  0
   -0.3910   -3.4870    2.3510 H   0  0  0  0  0  0  0  0  0  0  0  0
   -0.3670   -3.3910    0.6670 H   0  0  0  0  0  0  0  0  0  0  0  0
    1.7110   -2.6910    2.6450 H   0  0  0  0  0  0  0  0  0  0  0  0
    2.6180   -4.3820    0.9810 H   0  0  0  0  0  0  0  0  0  0  0  0
    2.0410   -3.3350   -0.3630 H   0  0  0  0  0  0  0  0  0  0  0  0
    3.6740   -1.1590    2.4020 H   0  0  0  0  0  0  0  0  0  0  0  0
    6.0790   -0.7150    1.7370 H   0  0  0  0  0  0  0  0  0  0  0  0
    6.7930   -2.2720   -0.2920 H   0  0  0  0  0  0  0  0  0  0  0  0
   -0.4100   -1.0510    1.2170 N   0  0  0  0  0  0  0  0  0  0  0  0
   -0.9940    0.2280    0.8410 C   0  0  1  0  0  0  0  0  0  0  0  0
   -0.0040    1.3360    0.7770 C   0  0  0  0  0  0  0  0  0  0  0  0
    0.6100    1.6710    2.0750 C   0  0  0  0  0  0  0  0  0  0  0  0
   -0.0760    2.4970    3.0890 C   0  0  0  0  0  0  0  0  0  0  0  0
   -1.4180    2.2340    3.6150 C   0  0  0  0  0  0  0  0  0  0  0  0
   -2.5040    2.4370    2.6960 N   0  0  0  0  0  0  0  0  0  0  0  0
   -1.9330    0.1430   -0.2860 C   0  0  0  0  0  0  0  0  0  0  0  0
   -2.4980    1.1680   -0.6990 O   0  0  0  0  0  0  0  0  0  0  0  0
   -1.0890   -1.7870    1.5930 H   0  0  0  0  0  0  0  0  0  0  0  0
   -1.6130    0.4690    1.7730 H   0  0  0  0  0  0  0  0  0  0  0  0
   -0.6310    2.2590    0.4590 H   0  0  0  0  0  0  0  0  0  0  0  0
    0.7820    1.2150   -0.0090 H   0  0  0  0  0  0  0  0  0  0  0  0
    0.8210    0.6820    2.6570 H   0  0  0  0  0  0  0  0  0  0  0  0
    1.6830    2.0280    1.9330 H   0  0  0  0  0  0  0  0  0  0  0  0
    0.6490    2.5520    3.9950 H   0  0  0  0  0  0  0  0  0  0  0  0
   -0.0320    3.6140    2.7730 H   0  0  0  0  0  0  0  0  0  0  0  0
   -1.6540    2.9040    4.5060 H   0  0  0  0  0  0  0  0  0  0  0  0
   -1.5270    1.2060    4.0680 H   0  0  0  0  0  0  0  0  0  0  0  0
   -3.4190    2.5910    3.1820 H   0  0  0  0  0  0  0  0  0  0  0  0
   -2.3040    3.2000    2.0010 H   0  0  0  0  0  0  0  0  0  0  0  0
   -2.2470   -1.0800   -0.9590 N   0  0  0  0  0  0  0  0  0  0  0  0
   -3.1650   -1.1730   -2.0690 C   0  0  1  0  0  0  0  0  0  0  0  0
   -2.4650   -1.8630   -3.2290 C   0  0  0  0  0  0  0  0  0  0  0  0
   -1.2690   -1.1250   -3.6740 C   0  0  0  0  0  0  0  0  0  0  0  0
   -1.3880   -0.0860   -4.3710 O   0  0  0  0  0  0  0  0  0  0  0  0
   -4.3340   -2.0470   -1.7230 C   0  0  0  0  0  0  0  0  0  0  0  0
   -5.2450   -2.2720   -2.5230 O   0  0  0  0  0  0  0  0  0  0  0  0
    0.0320   -1.5450   -3.3450 O   0  0  0  0  0  0  0  0  0  0  0  0
   -4.3820   -2.6080   -0.4730 O   0  0  0  0  0  0  0  0  0  0  0  0
   -1.7680   -1.9350   -0.6010 H   0  0  0  0  0  0  0  0  0  0  0  0
   -3.5890   -0.2060   -2.3620 H   0  0  0  0  0  0  0  0  0  0  0  0
   -2.1410   -2.8860   -2.9530 H   0  0  0  0  0  0  0  0  0  0  0  0
   -3.2100   -1.9990   -4.0450 H   0  0  0  0  0  0  0  0  0  0  0  0
    0.8040   -1.3020   -3.9510 H   0  0  0  0  0  0  0  0  0  0  0  0
  1  2  1  0  0  0  0
  1 11  1  0  0  0  0
  2 13  1  1  0  0  0
  3  4  1  0  0  0  0
  3 14  1  0  0  0  0
  3  2  1  0  0  0  0
  4  5  2  0  0  0  0
  5 16  1  0  0  0  0
  6  5  1  0  0  0  0
  6 17  1  0  0  0  0
  7  6  1  0  0  0  0
  8  7  2  0  0  0  0
  8  4  1  0  0  0  0
  9 19  1  0  0  0  0
  9  2  1  0  0  0  0
 10  9  2  0  0  0  0
 12  1  1  0  0  0  0
 15  3  1  0  0  0  0
 18  7  1  0  0  0  0
 19 28  1  0  0  0  0
 20 19  1  0  0  0  0
 20 29  1  1  0  0  0
 21 20  1  0  0  0  0
 21 22  1  0  0  0  0
 22 32  1  0  0  0  0
 22 23  1  0  0  0  0
 23 24  1  0  0  0  0
 23 34  1  0  0  0  0
 24 37  1  0  0  0  0
 24 36  1  0  0  0  0
 25 38  1  0  0  0  0
 25 24  1  0  0  0  0
 26 20  1  0  0  0  0
 27 26  2  0  0  0  0
 30 21  1  0  0  0  0
 31 21  1  0  0  0  0
 33 22  1  0  0  0  0
 35 23  1  0  0  0  0
 39 25  1  0  0  0  0
 40 49  1  0  0  0  0
 40 26  1  0  0  0  0
 41 50  1  6  0  0  0
 41 45  1  0  0  0  0
 41 40  1  0  0  0  0
 42 51  1  0  0  0  0
 42 41  1  0  0  0  0
 43 47  1  0  0  0  0
 43 42  1  0  0  0  0
 44 43  2  0  0  0  0
 45 48  1  0  0  0  0
 46 45  2  0  0  0  0
 52 42  1  0  0  0  0
 53 47  1  0  0  0  0
M  END
$$$$
