HKE.pdb
 OpenBabel07022418373D

 56 56  0  0  1  0  0  0  0  0999 V2000
    3.2960    0.4260    1.5710 N   0  0  0  0  0  0  0  0  0  0  0  0
    2.6310   -0.7120    2.1700 C   0  0  1  0  0  0  0  0  0  0  0  0
    2.5740   -0.4710    3.6710 C   0  0  0  0  0  0  0  0  0  0  0  0
    3.9230   -0.3320    4.2560 C   0  0  0  0  0  0  0  0  0  0  0  0
    5.1010   -0.4070    3.5690 C   0  0  0  0  0  0  0  0  0  0  0  0
    6.1200   -0.2290    4.4610 N   0  0  0  0  0  0  0  0  0  0  0  0
    5.5250   -0.0530    5.6540 C   0  0  0  0  0  0  0  0  0  0  0  0
    4.1880   -0.1150    5.5350 N   0  0  0  0  0  0  0  0  0  0  0  0
    1.2480   -0.8780    1.6500 C   0  0  0  0  0  0  0  0  0  0  0  0
    0.5810   -1.8410    2.1070 O   0  0  0  0  0  0  0  0  0  0  0  0
    3.2280    0.4540    0.5420 H   0  0  0  0  0  0  0  0  0  0  0  0
    3.0240    1.3100    2.0460 H   0  0  0  0  0  0  0  0  0  0  0  0
    3.2620   -1.5950    1.9620 H   0  0  0  0  0  0  0  0  0  0  0  0
    2.1320   -1.4030    4.1330 H   0  0  0  0  0  0  0  0  0  0  0  0
    1.9000    0.3470    3.9260 H   0  0  0  0  0  0  0  0  0  0  0  0
    5.2320   -0.5750    2.5110 H   0  0  0  0  0  0  0  0  0  0  0  0
    7.1150   -0.2410    4.1950 H   0  0  0  0  0  0  0  0  0  0  0  0
    6.0430    0.1160    6.5910 H   0  0  0  0  0  0  0  0  0  0  0  0
    0.6620   -0.0350    0.6990 N   0  0  0  0  0  0  0  0  0  0  0  0
   -0.7080   -0.1910    0.1830 C   0  0  1  0  0  0  0  0  0  0  0  0
   -1.4210    1.1010    0.2350 C   0  0  0  0  0  0  0  0  0  0  0  0
   -1.5440    1.7210    1.5660 C   0  0  0  0  0  0  0  0  0  0  0  0
   -2.3040    1.1330    2.6670 C   0  0  0  0  0  0  0  0  0  0  0  0
   -1.9590   -0.1810    3.2480 C   0  0  0  0  0  0  0  0  0  0  0  0
   -2.8800   -0.4570    4.4070 N   0  0  0  0  0  0  0  0  0  0  0  0
   -0.5950   -0.6580   -1.2630 C   0  0  0  0  0  0  0  0  0  0  0  0
    0.5340   -0.8330   -1.7730 O   0  0  0  0  0  0  0  0  0  0  0  0
    1.2180    0.7570    0.3240 H   0  0  0  0  0  0  0  0  0  0  0  0
   -1.1890   -0.9740    0.7260 H   0  0  0  0  0  0  0  0  0  0  0  0
   -1.0230    1.8340   -0.5340 H   0  0  0  0  0  0  0  0  0  0  0  0
   -2.4670    0.8850   -0.1980 H   0  0  0  0  0  0  0  0  0  0  0  0
   -1.9370    2.7850    1.3950 H   0  0  0  0  0  0  0  0  0  0  0  0
   -0.4810    1.9260    1.9850 H   0  0  0  0  0  0  0  0  0  0  0  0
   -3.4330    1.1310    2.4390 H   0  0  0  0  0  0  0  0  0  0  0  0
   -2.2390    1.8860    3.5390 H   0  0  0  0  0  0  0  0  0  0  0  0
   -0.9600   -0.2380    3.7000 H   0  0  0  0  0  0  0  0  0  0  0  0
   -2.1540   -1.0580    2.6070 H   0  0  0  0  0  0  0  0  0  0  0  0
   -3.8650   -0.4570    4.0210 H   0  0  0  0  0  0  0  0  0  0  0  0
   -2.6910   -1.4300    4.7360 H   0  0  0  0  0  0  0  0  0  0  0  0
   -1.7390   -0.9060   -2.0570 N   0  0  0  0  0  0  0  0  0  0  0  0
   -1.5820   -1.3560   -3.4480 C   0  0  1  0  0  0  0  0  0  0  0  0
   -2.1960   -2.7400   -3.4930 C   0  0  0  0  0  0  0  0  0  0  0  0
   -2.1300   -3.3740   -4.8480 C   0  0  0  0  0  0  0  0  0  0  0  0
   -2.7530   -4.7310   -4.7800 C   0  0  0  0  0  0  0  0  0  0  0  0
   -3.2230   -5.1600   -3.6960 O   0  0  0  0  0  0  0  0  0  0  0  0
   -2.2200   -0.4140   -4.3800 C   0  0  0  0  0  0  0  0  0  0  0  0
   -2.8030    0.5970   -3.9120 O   0  0  0  0  0  0  0  0  0  0  0  0
   -2.8420   -5.5670   -5.8780 O   0  0  0  0  0  0  0  0  0  0  0  0
   -2.2240   -0.5610   -5.7560 O   0  0  0  0  0  0  0  0  0  0  0  0
   -2.6870   -0.7650   -1.6460 H   0  0  0  0  0  0  0  0  0  0  0  0
   -0.5330   -1.4560   -3.7230 H   0  0  0  0  0  0  0  0  0  0  0  0
   -3.2740   -2.5980   -3.1910 H   0  0  0  0  0  0  0  0  0  0  0  0
   -1.7430   -3.4160   -2.7410 H   0  0  0  0  0  0  0  0  0  0  0  0
   -2.7890   -2.8010   -5.5630 H   0  0  0  0  0  0  0  0  0  0  0  0
   -1.1250   -3.3780   -5.2860 H   0  0  0  0  0  0  0  0  0  0  0  0
   -3.2470   -6.5090   -5.7690 H   0  0  0  0  0  0  0  0  0  0  0  0
  1 12  1  0  0  0  0
  1  2  1  0  0  0  0
  2 13  1  6  0  0  0
  2  3  1  0  0  0  0
  3 15  1  0  0  0  0
  3 14  1  0  0  0  0
  3  4  1  0  0  0  0
  4  8  1  0  0  0  0
  5  4  2  0  0  0  0
  5  6  1  0  0  0  0
  6  7  1  0  0  0  0
  7 18  1  0  0  0  0
  8  7  2  0  0  0  0
  9 10  2  0  0  0  0
  9  2  1  0  0  0  0
 11  1  1  0  0  0  0
 16  5  1  0  0  0  0
 17  6  1  0  0  0  0
 19  9  1  0  0  0  0
 20 21  1  0  0  0  0
 20 19  1  0  0  0  0
 20 29  1  1  0  0  0
 21 22  1  0  0  0  0
 22 33  1  0  0  0  0
 22 23  1  0  0  0  0
 23 24  1  0  0  0  0
 23 35  1  0  0  0  0
 24 36  1  0  0  0  0
 24 25  1  0  0  0  0
 25 39  1  0  0  0  0
 26 20  1  0  0  0  0
 27 26  2  0  0  0  0
 28 19  1  0  0  0  0
 30 21  1  0  0  0  0
 31 21  1  0  0  0  0
 32 22  1  0  0  0  0
 34 23  1  0  0  0  0
 37 24  1  0  0  0  0
 38 25  1  0  0  0  0
 40 50  1  0  0  0  0
 40 26  1  0  0  0  0
 41 51  1  6  0  0  0
 41 40  1  0  0  0  0
 42 41  1  0  0  0  0
 42 52  1  0  0  0  0
 42 53  1  0  0  0  0
 43 44  1  0  0  0  0
 43 42  1  0  0  0  0
 44 45  2  0  0  0  0
 46 47  1  0  0  0  0
 46 41  1  0  0  0  0
 48 56  1  0  0  0  0
 48 44  1  0  0  0  0
 49 46  2  0  0  0  0
 54 43  1  0  0  0  0
 55 43  1  0  0  0  0
M  END
$$$$
