HKF.pdb
 OpenBabel07022418373D

 60 61  0  0  1  0  0  0  0  0999 V2000
    1.9370   -0.8890    4.0590 N   0  0  0  0  0  0  0  0  0  0  0  0
    1.8090   -0.7510    2.6220 C   0  0  1  0  0  0  0  0  0  0  0  0
    1.9090   -2.1160    1.9890 C   0  0  0  0  0  0  0  0  0  0  0  0
    3.2400   -2.6680    2.3530 C   0  0  0  0  0  0  0  0  0  0  0  0
    3.5170   -3.4230    3.4660 C   0  0  0  0  0  0  0  0  0  0  0  0
    4.8130   -3.7520    3.4810 N   0  0  0  0  0  0  0  0  0  0  0  0
    5.3740   -3.2140    2.3850 C   0  0  0  0  0  0  0  0  0  0  0  0
    4.4050   -2.5480    1.6920 N   0  0  0  0  0  0  0  0  0  0  0  0
    0.5370   -0.0720    2.3410 C   0  0  0  0  0  0  0  0  0  0  0  0
   -0.2150    0.2810    3.2830 O   0  0  0  0  0  0  0  0  0  0  0  0
    1.5880   -0.0260    4.5410 H   0  0  0  0  0  0  0  0  0  0  0  0
    1.2760   -1.6600    4.3780 H   0  0  0  0  0  0  0  0  0  0  0  0
    2.6970   -0.1790    2.2870 H   0  0  0  0  0  0  0  0  0  0  0  0
    1.0880   -2.7880    2.2290 H   0  0  0  0  0  0  0  0  0  0  0  0
    1.9350   -1.9550    0.8760 H   0  0  0  0  0  0  0  0  0  0  0  0
    2.7780   -3.6980    4.2060 H   0  0  0  0  0  0  0  0  0  0  0  0
    5.3080   -4.3150    4.1960 H   0  0  0  0  0  0  0  0  0  0  0  0
    6.4100   -3.2910    2.0970 H   0  0  0  0  0  0  0  0  0  0  0  0
    0.0680    0.2310    1.0310 N   0  0  0  0  0  0  0  0  0  0  0  0
   -1.2040    0.9090    0.7680 C   0  0  1  0  0  0  0  0  0  0  0  0
   -0.8460    2.1840    0.0700 C   0  0  0  0  0  0  0  0  0  0  0  0
   -1.9890    3.0590   -0.3060 C   0  0  0  0  0  0  0  0  0  0  0  0
   -2.8300    3.5280    0.8310 C   0  0  0  0  0  0  0  0  0  0  0  0
   -2.0210    4.3310    1.8250 C   0  0  0  0  0  0  0  0  0  0  0  0
   -1.4430    5.5000    1.1910 N   0  0  0  0  0  0  0  0  0  0  0  0
   -2.0990    0.0880   -0.0650 C   0  0  0  0  0  0  0  0  0  0  0  0
   -3.2310    0.5410   -0.3650 O   0  0  0  0  0  0  0  0  0  0  0  0
    0.6840   -0.0580    0.2430 H   0  0  0  0  0  0  0  0  0  0  0  0
   -1.7370    1.1540    1.6920 H   0  0  0  0  0  0  0  0  0  0  0  0
   -0.3470    1.8800   -0.8980 H   0  0  0  0  0  0  0  0  0  0  0  0
   -0.0690    2.7590    0.6120 H   0  0  0  0  0  0  0  0  0  0  0  0
   -1.5280    3.9910   -0.7530 H   0  0  0  0  0  0  0  0  0  0  0  0
   -2.6320    2.6640   -1.1100 H   0  0  0  0  0  0  0  0  0  0  0  0
   -3.4210    2.7310    1.3230 H   0  0  0  0  0  0  0  0  0  0  0  0
   -3.5880    4.2380    0.4100 H   0  0  0  0  0  0  0  0  0  0  0  0
   -2.6110    4.6520    2.6830 H   0  0  0  0  0  0  0  0  0  0  0  0
   -1.1630    3.7320    2.2250 H   0  0  0  0  0  0  0  0  0  0  0  0
   -0.4260    5.5470    1.2860 H   0  0  0  0  0  0  0  0  0  0  0  0
   -1.8790    6.3660    1.5760 H   0  0  0  0  0  0  0  0  0  0  0  0
   -1.7680   -1.2020   -0.5610 N   0  0  0  0  0  0  0  0  0  0  0  0
   -2.6910   -1.9750   -1.3830 C   0  0  1  0  0  0  0  0  0  0  0  0
   -1.9930   -2.2240   -2.6950 C   0  0  0  0  0  0  0  0  0  0  0  0
   -0.7270   -2.9780   -2.5380 C   0  0  0  0  0  0  0  0  0  0  0  0
   -0.6720   -4.3620   -2.5800 C   0  0  0  0  0  0  0  0  0  0  0  0
    0.5110   -5.0610   -2.4320 C   0  0  0  0  0  0  0  0  0  0  0  0
    1.6930   -4.3970   -2.2350 C   0  0  0  0  0  0  0  0  0  0  0  0
    1.6670   -3.0150   -2.1890 C   0  0  0  0  0  0  0  0  0  0  0  0
    0.4850   -2.3220   -2.3370 C   0  0  0  0  0  0  0  0  0  0  0  0
   -3.0010   -3.2850   -0.7710 C   0  0  0  0  0  0  0  0  0  0  0  0
   -2.5300   -3.6810    0.3120 O   0  0  0  0  0  0  0  0  0  0  0  0
   -3.8780   -4.1100   -1.4680 O   0  0  0  0  0  0  0  0  0  0  0  0
   -0.8250   -1.5680   -0.3050 H   0  0  0  0  0  0  0  0  0  0  0  0
   -3.6300   -1.4550   -1.5590 H   0  0  0  0  0  0  0  0  0  0  0  0
   -2.6830   -2.8810   -3.2950 H   0  0  0  0  0  0  0  0  0  0  0  0
   -1.8610   -1.2880   -3.2770 H   0  0  0  0  0  0  0  0  0  0  0  0
   -1.5770   -4.9200   -2.7330 H   0  0  0  0  0  0  0  0  0  0  0  0
    0.5380   -6.1490   -2.4680 H   0  0  0  0  0  0  0  0  0  0  0  0
    2.6370   -4.8980   -2.1160 H   0  0  0  0  0  0  0  0  0  0  0  0
    2.6130   -2.4990   -2.0320 H   0  0  0  0  0  0  0  0  0  0  0  0
    0.4910   -1.2500   -2.2970 H   0  0  0  0  0  0  0  0  0  0  0  0
  1 12  1  0  0  0  0
  1 11  1  0  0  0  0
  2 13  1  6  0  0  0
  2  1  1  0  0  0  0
  3 14  1  0  0  0  0
  3  4  1  0  0  0  0
  3  2  1  0  0  0  0
  4  5  2  0  0  0  0
  5  6  1  0  0  0  0
  5 16  1  0  0  0  0
  6 17  1  0  0  0  0
  7  6  1  0  0  0  0
  8  4  1  0  0  0  0
  8  7  2  0  0  0  0
  9  2  1  0  0  0  0
  9 10  2  0  0  0  0
 15  3  1  0  0  0  0
 18  7  1  0  0  0  0
 19  9  1  0  0  0  0
 20 19  1  0  0  0  0
 20 29  1  1  0  0  0
 21 31  1  0  0  0  0
 21 20  1  0  0  0  0
 22 21  1  0  0  0  0
 22 23  1  0  0  0  0
 23 34  1  0  0  0  0
 23 24  1  0  0  0  0
 24 37  1  0  0  0  0
 24 36  1  0  0  0  0
 25 38  1  0  0  0  0
 25 39  1  0  0  0  0
 25 24  1  0  0  0  0
 26 20  1  0  0  0  0
 27 26  2  0  0  0  0
 28 19  1  0  0  0  0
 30 21  1  0  0  0  0
 32 22  1  0  0  0  0
 33 22  1  0  0  0  0
 35 23  1  0  0  0  0
 40 52  1  0  0  0  0
 40 26  1  0  0  0  0
 41 53  1  6  0  0  0
 41 49  1  0  0  0  0
 41 40  1  0  0  0  0
 42 43  1  0  0  0  0
 42 41  1  0  0  0  0
 43 48  1  0  0  0  0
 44 43  2  0  0  0  0
 44 45  1  0  0  0  0
 45 46  2  0  0  0  0
 46 47  1  0  0  0  0
 46 58  1  0  0  0  0
 47 59  1  0  0  0  0
 48 60  1  0  0  0  0
 48 47  2  0  0  0  0
 49 50  1  0  0  0  0
 51 49  2  0  0  0  0
 54 42  1  0  0  0  0
 55 42  1  0  0  0  0
 56 44  1  0  0  0  0
 57 45  1  0  0  0  0
M  END
$$$$
