HKG.pdb
 OpenBabel07022418373D

 47 47  0  0  1  0  0  0  0  0999 V2000
   -0.0020   -3.5060   -0.9280 N   0  0  0  0  0  0  0  0  0  0  0  0
    0.7130   -3.1640    0.2920 C   0  0  1  0  0  0  0  0  0  0  0  0
    2.1830   -3.3580    0.0120 C   0  0  0  0  0  0  0  0  0  0  0  0
    3.0400   -3.0470    1.1670 C   0  0  0  0  0  0  0  0  0  0  0  0
    3.4650   -3.8860    2.1650 C   0  0  0  0  0  0  0  0  0  0  0  0
    4.2310   -3.2010    3.0250 N   0  0  0  0  0  0  0  0  0  0  0  0
    4.2780   -1.9420    2.5580 C   0  0  0  0  0  0  0  0  0  0  0  0
    3.5580   -1.8410    1.4310 N   0  0  0  0  0  0  0  0  0  0  0  0
    0.4030   -1.7770    0.7210 C   0  0  0  0  0  0  0  0  0  0  0  0
    0.9430   -1.3460    1.7500 O   0  0  0  0  0  0  0  0  0  0  0  0
   -1.0160   -3.5540   -0.6790 H   0  0  0  0  0  0  0  0  0  0  0  0
    0.2710   -4.5050   -1.1480 H   0  0  0  0  0  0  0  0  0  0  0  0
    0.4180   -3.8330    1.1270 H   0  0  0  0  0  0  0  0  0  0  0  0
    2.5020   -2.7940   -0.8790 H   0  0  0  0  0  0  0  0  0  0  0  0
    2.3220   -4.4390   -0.2200 H   0  0  0  0  0  0  0  0  0  0  0  0
    3.2420   -4.9450    2.2810 H   0  0  0  0  0  0  0  0  0  0  0  0
    4.7200   -3.5340    3.9020 H   0  0  0  0  0  0  0  0  0  0  0  0
    4.8360   -1.1410    3.0560 H   0  0  0  0  0  0  0  0  0  0  0  0
   -0.4800   -0.9290    0.0060 N   0  0  0  0  0  0  0  0  0  0  0  0
   -0.7750    0.4420    0.4470 C   0  0  1  0  0  0  0  0  0  0  0  0
   -0.4550    1.3530   -0.6900 C   0  0  0  0  0  0  0  0  0  0  0  0
   -0.7000    2.8030   -0.4080 C   0  0  0  0  0  0  0  0  0  0  0  0
    0.0840    3.3570    0.7270 C   0  0  0  0  0  0  0  0  0  0  0  0
    1.5870    3.2460    0.5080 C   0  0  0  0  0  0  0  0  0  0  0  0
    2.3240    3.7900    1.6230 N   0  0  0  0  0  0  0  0  0  0  0  0
   -2.2210    0.4730    0.7880 C   0  0  0  0  0  0  0  0  0  0  0  0
   -2.7900    1.5250    1.2050 O   0  0  0  0  0  0  0  0  0  0  0  0
   -0.9170   -1.3250   -0.8550 H   0  0  0  0  0  0  0  0  0  0  0  0
   -0.2200    0.6580    1.3620 H   0  0  0  0  0  0  0  0  0  0  0  0
   -1.1430    1.0730   -1.5370 H   0  0  0  0  0  0  0  0  0  0  0  0
    0.5620    1.1660   -1.0640 H   0  0  0  0  0  0  0  0  0  0  0  0
   -0.4010    3.3660   -1.3280 H   0  0  0  0  0  0  0  0  0  0  0  0
   -1.7670    3.0420   -0.2490 H   0  0  0  0  0  0  0  0  0  0  0  0
   -0.1220    4.4680    0.7490 H   0  0  0  0  0  0  0  0  0  0  0  0
   -0.2080    2.9910    1.7220 H   0  0  0  0  0  0  0  0  0  0  0  0
    1.9040    3.8130   -0.3910 H   0  0  0  0  0  0  0  0  0  0  0  0
    1.8050    2.1820    0.3120 H   0  0  0  0  0  0  0  0  0  0  0  0
    1.7040    4.2910    2.3030 H   0  0  0  0  0  0  0  0  0  0  0  0
    2.8250    3.0090    2.1190 H   0  0  0  0  0  0  0  0  0  0  0  0
   -3.0680   -0.6750    0.6690 N   0  0  0  0  0  0  0  0  0  0  0  0
   -4.4750   -0.6330    1.0040 C   0  0  0  0  0  0  0  0  0  0  0  0
   -5.0560   -1.9670    0.7740 C   0  0  0  0  0  0  0  0  0  0  0  0
   -6.2680   -2.1810    0.9940 O   0  0  0  0  0  0  0  0  0  0  0  0
   -4.2670   -2.9970    0.3120 O   0  0  0  0  0  0  0  0  0  0  0  0
   -2.6110   -1.5560    0.3240 H   0  0  0  0  0  0  0  0  0  0  0  0
   -4.5650   -0.4210    2.0930 H   0  0  0  0  0  0  0  0  0  0  0  0
   -5.0170    0.1450    0.4270 H   0  0  0  0  0  0  0  0  0  0  0  0
  1 11  1  0  0  0  0
  1  2  1  0  0  0  0
  2  9  1  0  0  0  0
  2 13  1  1  0  0  0
  3  2  1  0  0  0  0
  3  4  1  0  0  0  0
  4  8  1  0  0  0  0
  4  5  2  0  0  0  0
  5 16  1  0  0  0  0
  5  6  1  0  0  0  0
  6 17  1  0  0  0  0
  7  6  1  0  0  0  0
  7 18  1  0  0  0  0
  8  7  2  0  0  0  0
  9 10  2  0  0  0  0
 12  1  1  0  0  0  0
 14  3  1  0  0  0  0
 15  3  1  0  0  0  0
 19 20  1  0  0  0  0
 19  9  1  0  0  0  0
 20 26  1  0  0  0  0
 20 29  1  1  0  0  0
 21 22  1  0  0  0  0
 21 20  1  0  0  0  0
 22 33  1  0  0  0  0
 22 23  1  0  0  0  0
 23 34  1  0  0  0  0
 23 35  1  0  0  0  0
 24 23  1  0  0  0  0
 24 25  1  0  0  0  0
 25 39  1  0  0  0  0
 25 38  1  0  0  0  0
 26 27  2  0  0  0  0
 28 19  1  0  0  0  0
 30 21  1  0  0  0  0
 31 21  1  0  0  0  0
 32 22  1  0  0  0  0
 36 24  1  0  0  0  0
 37 24  1  0  0  0  0
 40 26  1  0  0  0  0
 40 41  1  0  0  0  0
 41 46  1  0  0  0  0
 42 43  1  0  0  0  0
 42 41  1  0  0  0  0
 44 42  2  0  0  0  0
 45 40  1  0  0  0  0
 47 41  1  0  0  0  0
M  END
$$$$
