HKI.pdb
 OpenBabel07022418373D

 59 59  0  0  1  0  0  0  0  0999 V2000
    1.7690    0.2650   -1.8680 N   0  0  0  0  0  0  0  0  0  0  0  0
    2.7630   -0.6440   -1.2730 C   0  0  1  0  0  0  0  0  0  0  0  0
    4.0580    0.1250   -1.2690 C   0  0  0  0  0  0  0  0  0  0  0  0
    5.1190   -0.7230   -0.6820 C   0  0  0  0  0  0  0  0  0  0  0  0
    5.5390   -0.8280    0.6230 C   0  0  0  0  0  0  0  0  0  0  0  0
    6.5390   -1.7290    0.6220 N   0  0  0  0  0  0  0  0  0  0  0  0
    6.7460   -2.1760   -0.6250 C   0  0  0  0  0  0  0  0  0  0  0  0
    5.8800   -1.5630   -1.4230 N   0  0  0  0  0  0  0  0  0  0  0  0
    2.3470   -1.0250    0.0970 C   0  0  0  0  0  0  0  0  0  0  0  0
    2.9830   -1.8160    0.8150 O   0  0  0  0  0  0  0  0  0  0  0  0
    0.8710   -0.2320   -1.9290 H   0  0  0  0  0  0  0  0  0  0  0  0
    1.7360    1.1770   -1.3640 H   0  0  0  0  0  0  0  0  0  0  0  0
    2.8010   -1.5420   -1.8970 H   0  0  0  0  0  0  0  0  0  0  0  0
    3.9680    1.0770   -0.7020 H   0  0  0  0  0  0  0  0  0  0  0  0
    4.3730    0.4110   -2.3010 H   0  0  0  0  0  0  0  0  0  0  0  0
    5.1530   -0.3000    1.4670 H   0  0  0  0  0  0  0  0  0  0  0  0
    7.1000   -2.0630    1.4420 H   0  0  0  0  0  0  0  0  0  0  0  0
    7.4710   -2.9060   -0.9850 H   0  0  0  0  0  0  0  0  0  0  0  0
    1.1660   -0.4670    0.6300 N   0  0  0  0  0  0  0  0  0  0  0  0
    0.6380   -0.7460    1.9550 C   0  0  1  0  0  0  0  0  0  0  0  0
    0.6200    0.4370    2.8410 C   0  0  0  0  0  0  0  0  0  0  0  0
   -0.1730    1.6100    2.3990 C   0  0  0  0  0  0  0  0  0  0  0  0
   -1.6410    1.4390    2.2760 C   0  0  0  0  0  0  0  0  0  0  0  0
   -2.3200    1.1410    3.5930 C   0  0  0  0  0  0  0  0  0  0  0  0
   -3.7450    0.9790    3.3740 N   0  0  0  0  0  0  0  0  0  0  0  0
   -0.6050   -1.5250    1.8330 C   0  0  0  0  0  0  0  0  0  0  0  0
   -1.2850   -1.9710    2.7940 O   0  0  0  0  0  0  0  0  0  0  0  0
    0.6130    0.1990    0.0490 H   0  0  0  0  0  0  0  0  0  0  0  0
    1.4000   -1.4620    2.4030 H   0  0  0  0  0  0  0  0  0  0  0  0
    0.2930    0.0600    3.8580 H   0  0  0  0  0  0  0  0  0  0  0  0
    1.6920    0.7340    3.0390 H   0  0  0  0  0  0  0  0  0  0  0  0
    0.0020    2.4310    3.1610 H   0  0  0  0  0  0  0  0  0  0  0  0
    0.2700    2.0580    1.4610 H   0  0  0  0  0  0  0  0  0  0  0  0
   -2.1080    2.3630    1.8830 H   0  0  0  0  0  0  0  0  0  0  0  0
   -1.9340    0.6310    1.5690 H   0  0  0  0  0  0  0  0  0  0  0  0
   -2.2520    2.0390    4.2810 H   0  0  0  0  0  0  0  0  0  0  0  0
   -1.9470    0.2390    4.0910 H   0  0  0  0  0  0  0  0  0  0  0  0
   -4.3180    1.2690    4.1980 H   0  0  0  0  0  0  0  0  0  0  0  0
   -4.0430    1.4490    2.4860 H   0  0  0  0  0  0  0  0  0  0  0  0
   -3.9630   -1.2980   -2.8430 C   0  0  0  0  0  0  0  0  0  0  0  0
   -2.8320   -1.6870   -1.9340 C   0  0  0  0  0  0  0  0  0  0  0  0
   -3.3810   -1.9510   -0.5500 C   0  0  2  0  0  0  0  0  0  0  0  0
   -4.0610   -0.7680    0.0530 C   0  0  0  0  0  0  0  0  0  0  0  0
   -2.3500   -2.6010    0.3290 C   0  0  2  0  0  0  0  0  0  0  0  0
   -1.1570   -1.8500    0.5310 N   0  0  0  0  0  0  0  0  0  0  0  0
   -2.0510   -3.9300   -0.3200 C   0  0  0  0  0  0  0  0  0  0  0  0
   -2.9570   -4.7450   -0.5830 O   0  0  0  0  0  0  0  0  0  0  0  0
   -0.7250   -4.2010   -0.6090 O   0  0  0  0  0  0  0  0  0  0  0  0
   -4.8550   -1.9020   -2.5240 H   0  0  0  0  0  0  0  0  0  0  0  0
   -3.7640   -1.5840   -3.8950 H   0  0  0  0  0  0  0  0  0  0  0  0
   -4.2680   -0.2460   -2.7330 H   0  0  0  0  0  0  0  0  0  0  0  0
   -2.4380   -2.6610   -2.3030 H   0  0  0  0  0  0  0  0  0  0  0  0
   -2.0270   -0.9520   -1.8870 H   0  0  0  0  0  0  0  0  0  0  0  0
   -4.1760   -2.7410   -0.7030 H   0  0  0  0  0  0  0  0  0  0  0  0
   -3.9110   -0.6560    1.1270 H   0  0  0  0  0  0  0  0  0  0  0  0
   -3.6440    0.1530   -0.4430 H   0  0  0  0  0  0  0  0  0  0  0  0
   -5.1390   -0.7670   -0.2370 H   0  0  0  0  0  0  0  0  0  0  0  0
   -2.8210   -2.8640    1.3090 H   0  0  0  0  0  0  0  0  0  0  0  0
   -0.6110   -1.4890   -0.2790 H   0  0  0  0  0  0  0  0  0  0  0  0
  1 12  1  0  0  0  0
  1  2  1  0  0  0  0
  2 13  1  6  0  0  0
  2  3  1  0  0  0  0
  2  9  1  0  0  0  0
  3 14  1  0  0  0  0
  3  4  1  0  0  0  0
  4  5  2  0  0  0  0
  5 16  1  0  0  0  0
  6  5  1  0  0  0  0
  6 17  1  0  0  0  0
  7  6  1  0  0  0  0
  8  4  1  0  0  0  0
  8  7  2  0  0  0  0
  9 19  1  0  0  0  0
  9 10  2  0  0  0  0
 11  1  1  0  0  0  0
 15  3  1  0  0  0  0
 18  7  1  0  0  0  0
 19 20  1  0  0  0  0
 20 29  1  1  0  0  0
 20 21  1  0  0  0  0
 21 31  1  0  0  0  0
 21 30  1  0  0  0  0
 22 21  1  0  0  0  0
 22 32  1  0  0  0  0
 23 22  1  0  0  0  0
 23 24  1  0  0  0  0
 24 37  1  0  0  0  0
 24 36  1  0  0  0  0
 25 24  1  0  0  0  0
 25 38  1  0  0  0  0
 26 20  1  0  0  0  0
 26 27  2  0  0  0  0
 28 19  1  0  0  0  0
 33 22  1  0  0  0  0
 34 23  1  0  0  0  0
 35 23  1  0  0  0  0
 39 25  1  0  0  0  0
 40 51  1  0  0  0  0
 40 49  1  0  0  0  0
 40 41  1  0  0  0  0
 41 53  1  0  0  0  0
 41 42  1  0  0  0  0
 42 54  1  6  0  0  0
 42 43  1  0  0  0  0
 42 44  1  0  0  0  0
 43 55  1  0  0  0  0
 44 45  1  0  0  0  0
 44 58  1  1  0  0  0
 45 26  1  0  0  0  0
 46 44  1  0  0  0  0
 47 46  1  0  0  0  0
 48 46  2  0  0  0  0
 50 40  1  0  0  0  0
 52 41  1  0  0  0  0
 56 43  1  0  0  0  0
 57 43  1  0  0  0  0
 59 45  1  0  0  0  0
M  END
$$$$
