HKL.pdb
 OpenBabel07022418373D

 59 59  0  0  1  0  0  0  0  0999 V2000
    0.9660   -2.8200    2.9390 N   0  0  0  0  0  0  0  0  0  0  0  0
    1.8350   -1.8400    2.2520 C   0  0  1  0  0  0  0  0  0  0  0  0
    2.5490   -2.6110    1.1900 C   0  0  0  0  0  0  0  0  0  0  0  0
    3.5480   -1.8700    0.4140 C   0  0  0  0  0  0  0  0  0  0  0  0
    4.0730   -0.6130    0.5290 C   0  0  0  0  0  0  0  0  0  0  0  0
    5.0110   -0.4870   -0.4360 N   0  0  0  0  0  0  0  0  0  0  0  0
    5.0940   -1.6170   -1.1490 C   0  0  0  0  0  0  0  0  0  0  0  0
    4.2100   -2.4560   -0.6370 N   0  0  0  0  0  0  0  0  0  0  0  0
    0.8800   -0.8500    1.6060 C   0  0  0  0  0  0  0  0  0  0  0  0
    1.2900   -0.0270    0.7790 O   0  0  0  0  0  0  0  0  0  0  0  0
    0.5900   -2.4750    3.8240 H   0  0  0  0  0  0  0  0  0  0  0  0
    0.2890   -3.2430    2.3060 H   0  0  0  0  0  0  0  0  0  0  0  0
    2.4540   -1.3770    3.0120 H   0  0  0  0  0  0  0  0  0  0  0  0
    1.7740   -2.9680    0.4550 H   0  0  0  0  0  0  0  0  0  0  0  0
    2.9760   -3.5770    1.5890 H   0  0  0  0  0  0  0  0  0  0  0  0
    3.8000    0.1170    1.2700 H   0  0  0  0  0  0  0  0  0  0  0  0
    5.5640    0.3850   -0.5660 H   0  0  0  0  0  0  0  0  0  0  0  0
    5.7360   -1.8270   -1.9720 H   0  0  0  0  0  0  0  0  0  0  0  0
   -0.4960   -0.8630    1.9540 N   0  0  0  0  0  0  0  0  0  0  0  0
   -1.4830    0.0380    1.4100 C   0  0  1  0  0  0  0  0  0  0  0  0
   -1.0340    1.3950    1.0810 C   0  0  0  0  0  0  0  0  0  0  0  0
   -0.4670    2.3000    2.0610 C   0  0  0  0  0  0  0  0  0  0  0  0
   -1.1160    2.8530    3.2410 C   0  0  0  0  0  0  0  0  0  0  0  0
   -1.5840    2.0570    4.3880 C   0  0  0  0  0  0  0  0  0  0  0  0
   -2.5830    1.1300    4.2590 N   0  0  0  0  0  0  0  0  0  0  0  0
   -2.0770   -0.5460    0.1490 C   0  0  0  0  0  0  0  0  0  0  0  0
   -2.9670    0.1000   -0.4540 O   0  0  0  0  0  0  0  0  0  0  0  0
   -0.7940   -1.5900    2.6640 H   0  0  0  0  0  0  0  0  0  0  0  0
   -2.3350    0.0950    2.0930 H   0  0  0  0  0  0  0  0  0  0  0  0
   -0.4320    1.3940    0.1030 H   0  0  0  0  0  0  0  0  0  0  0  0
   -1.9910    1.9270    0.6860 H   0  0  0  0  0  0  0  0  0  0  0  0
    0.5910    1.9420    2.3900 H   0  0  0  0  0  0  0  0  0  0  0  0
   -0.1340    3.2450    1.4490 H   0  0  0  0  0  0  0  0  0  0  0  0
   -0.4470    3.6790    3.6880 H   0  0  0  0  0  0  0  0  0  0  0  0
   -2.0160    3.5060    2.9050 H   0  0  0  0  0  0  0  0  0  0  0  0
   -1.8900    2.7710    5.2430 H   0  0  0  0  0  0  0  0  0  0  0  0
   -0.6970    1.5370    4.8920 H   0  0  0  0  0  0  0  0  0  0  0  0
   -3.4630    1.3560    3.7960 H   0  0  0  0  0  0  0  0  0  0  0  0
   -2.4810    0.1830    4.6360 H   0  0  0  0  0  0  0  0  0  0  0  0
    0.5210   -1.0770   -2.1800 C   0  0  0  0  0  0  0  0  0  0  0  0
   -0.3780   -1.7430   -3.1940 C   0  0  0  0  0  0  0  0  0  0  0  0
   -1.0110   -0.6840   -4.0440 C   0  0  0  0  0  0  0  0  0  0  0  0
   -1.2920   -2.7540   -2.6410 C   0  0  0  0  0  0  0  0  0  0  0  0
   -2.2790   -2.3330   -1.6060 C   0  0  2  0  0  0  0  0  0  0  0  0
   -1.6870   -1.7880   -0.3960 N   0  0  0  0  0  0  0  0  0  0  0  0
   -3.0220   -3.5550   -1.2010 C   0  0  0  0  0  0  0  0  0  0  0  0
   -3.6520   -4.2620   -2.0350 O   0  0  0  0  0  0  0  0  0  0  0  0
   -3.0440   -3.9560    0.1210 O   0  0  0  0  0  0  0  0  0  0  0  0
    1.4820   -0.7250   -2.6620 H   0  0  0  0  0  0  0  0  0  0  0  0
    0.0470   -0.1490   -1.7790 H   0  0  0  0  0  0  0  0  0  0  0  0
    0.8350   -1.7810   -1.4010 H   0  0  0  0  0  0  0  0  0  0  0  0
    0.3260   -2.3000   -3.8850 H   0  0  0  0  0  0  0  0  0  0  0  0
   -1.3550   -1.0590   -5.0330 H   0  0  0  0  0  0  0  0  0  0  0  0
   -1.8640   -0.1740   -3.5790 H   0  0  0  0  0  0  0  0  0  0  0  0
   -0.2470    0.0960   -4.2550 H   0  0  0  0  0  0  0  0  0  0  0  0
   -1.8250   -3.2980   -3.4420 H   0  0  0  0  0  0  0  0  0  0  0  0
   -0.6470   -3.5460   -2.1540 H   0  0  0  0  0  0  0  0  0  0  0  0
   -3.0660   -1.6520   -2.0090 H   0  0  0  0  0  0  0  0  0  0  0  0
   -0.9420   -2.3120    0.1140 H   0  0  0  0  0  0  0  0  0  0  0  0
  1 11  1  0  0  0  0
  2  1  1  0  0  0  0
  2 13  1  1  0  0  0
  3 15  1  0  0  0  0
  3  2  1  0  0  0  0
  4  5  2  0  0  0  0
  4  3  1  0  0  0  0
  5 16  1  0  0  0  0
  6  5  1  0  0  0  0
  7  8  2  0  0  0  0
  7  6  1  0  0  0  0
  8  4  1  0  0  0  0
  9 19  1  0  0  0  0
  9  2  1  0  0  0  0
 10  9  2  0  0  0  0
 12  1  1  0  0  0  0
 14  3  1  0  0  0  0
 17  6  1  0  0  0  0
 18  7  1  0  0  0  0
 19 28  1  0  0  0  0
 20 19  1  0  0  0  0
 20 29  1  1  0  0  0
 21 20  1  0  0  0  0
 21 22  1  0  0  0  0
 22 32  1  0  0  0  0
 22 23  1  0  0  0  0
 23 34  1  0  0  0  0
 23 24  1  0  0  0  0
 24 37  1  0  0  0  0
 24 36  1  0  0  0  0
 25 24  1  0  0  0  0
 25 39  1  0  0  0  0
 26 20  1  0  0  0  0
 27 26  2  0  0  0  0
 30 21  1  0  0  0  0
 31 21  1  0  0  0  0
 33 22  1  0  0  0  0
 35 23  1  0  0  0  0
 38 25  1  0  0  0  0
 40 50  1  0  0  0  0
 40 51  1  0  0  0  0
 41 43  1  0  0  0  0
 41 40  1  0  0  0  0
 42 54  1  0  0  0  0
 42 41  1  0  0  0  0
 43 57  1  0  0  0  0
 43 44  1  0  0  0  0
 44 58  1  6  0  0  0
 44 46  1  0  0  0  0
 44 45  1  0  0  0  0
 45 59  1  0  0  0  0
 45 26  1  0  0  0  0
 46 48  1  0  0  0  0
 47 46  2  0  0  0  0
 49 40  1  0  0  0  0
 52 41  1  0  0  0  0
 53 42  1  0  0  0  0
 55 42  1  0  0  0  0
 56 43  1  0  0  0  0
M  END
$$$$
