HKP.pdb
 OpenBabel07022418373D

 54 55  0  0  1  0  0  0  0  0999 V2000
    3.2650   -1.3460    2.4690 N   0  0  0  0  0  0  0  0  0  0  0  0
    1.8440   -1.5680    2.3160 C   0  0  1  0  0  0  0  0  0  0  0  0
    1.0840   -1.3170    3.5790 C   0  0  0  0  0  0  0  0  0  0  0  0
    1.2230    0.0390    4.0900 C   0  0  0  0  0  0  0  0  0  0  0  0
    1.9480    1.0900    3.6060 C   0  0  0  0  0  0  0  0  0  0  0  0
    1.7440    2.1170    4.4530 N   0  0  0  0  0  0  0  0  0  0  0  0
    0.9260    1.7570    5.4430 C   0  0  0  0  0  0  0  0  0  0  0  0
    0.6080    0.4790    5.2160 N   0  0  0  0  0  0  0  0  0  0  0  0
    1.2710   -0.8650    1.1360 C   0  0  0  0  0  0  0  0  0  0  0  0
    2.0640   -0.1780    0.4630 O   0  0  0  0  0  0  0  0  0  0  0  0
    3.8560   -2.1590    2.2580 H   0  0  0  0  0  0  0  0  0  0  0  0
    3.4930   -0.9580    3.4040 H   0  0  0  0  0  0  0  0  0  0  0  0
    1.7590   -2.6870    2.1210 H   0  0  0  0  0  0  0  0  0  0  0  0
    0.0060   -1.5070    3.3910 H   0  0  0  0  0  0  0  0  0  0  0  0
    1.4160   -2.0570    4.3580 H   0  0  0  0  0  0  0  0  0  0  0  0
    2.5720    1.1660    2.7500 H   0  0  0  0  0  0  0  0  0  0  0  0
    2.1560    3.0710    4.3700 H   0  0  0  0  0  0  0  0  0  0  0  0
    0.6030    2.4090    6.2600 H   0  0  0  0  0  0  0  0  0  0  0  0
   -0.0860   -0.9960    0.8340 N   0  0  0  0  0  0  0  0  0  0  0  0
   -0.8360   -0.4120   -0.2020 C   0  0  1  0  0  0  0  0  0  0  0  0
   -0.0790    0.7480   -0.8420 C   0  0  0  0  0  0  0  0  0  0  0  0
    0.0980    1.8010    0.2230 C   0  0  0  0  0  0  0  0  0  0  0  0
    0.9010    2.9940   -0.2620 C   0  0  0  0  0  0  0  0  0  0  0  0
    0.2150    3.6390   -1.4230 C   0  0  0  0  0  0  0  0  0  0  0  0
   -1.1010    4.1230   -1.1440 N   0  0  0  0  0  0  0  0  0  0  0  0
   -1.5160   -1.2740   -1.1560 C   0  0  0  0  0  0  0  0  0  0  0  0
   -2.2110   -0.6620   -2.0590 O   0  0  0  0  0  0  0  0  0  0  0  0
   -0.6230   -1.6500    1.5140 H   0  0  0  0  0  0  0  0  0  0  0  0
   -1.6730    0.2250    0.3310 H   0  0  0  0  0  0  0  0  0  0  0  0
    0.8810    0.4920   -1.2700 H   0  0  0  0  0  0  0  0  0  0  0  0
   -0.7100    1.1720   -1.6780 H   0  0  0  0  0  0  0  0  0  0  0  0
    0.3350    1.4570    1.2270 H   0  0  0  0  0  0  0  0  0  0  0  0
   -0.9490    2.2960    0.3980 H   0  0  0  0  0  0  0  0  0  0  0  0
    1.8770    2.6120   -0.5900 H   0  0  0  0  0  0  0  0  0  0  0  0
    0.9650    3.6960    0.5880 H   0  0  0  0  0  0  0  0  0  0  0  0
    0.1390    2.9280   -2.2730 H   0  0  0  0  0  0  0  0  0  0  0  0
    0.8630    4.4910   -1.7760 H   0  0  0  0  0  0  0  0  0  0  0  0
   -1.8700    3.5930   -1.5650 H   0  0  0  0  0  0  0  0  0  0  0  0
   -1.2400    4.4660   -0.1910 H   0  0  0  0  0  0  0  0  0  0  0  0
   -1.5090   -2.6810   -1.2140 N   0  0  0  0  0  0  0  0  0  0  0  0
   -0.8190   -3.5920   -0.3680 C   0  0  0  0  0  0  0  0  0  0  0  0
   -0.6840   -4.8640   -1.1910 C   0  0  0  0  0  0  0  0  0  0  0  0
   -1.1750   -4.4680   -2.5870 C   0  0  0  0  0  0  0  0  0  0  0  0
   -2.2380   -3.4680   -2.1650 C   0  0  1  0  0  0  0  0  0  0  0  0
   -3.3350   -4.2520   -1.5370 C   0  0  0  0  0  0  0  0  0  0  0  0
   -3.5110   -4.1350   -0.3050 O   0  0  0  0  0  0  0  0  0  0  0  0
   -4.1580   -5.0930   -2.2490 O   0  0  0  0  0  0  0  0  0  0  0  0
   -1.3800   -3.8550    0.5700 H   0  0  0  0  0  0  0  0  0  0  0  0
    0.1850   -3.2320   -0.0460 H   0  0  0  0  0  0  0  0  0  0  0  0
    0.3460   -5.2480   -1.2070 H   0  0  0  0  0  0  0  0  0  0  0  0
   -1.3330   -5.6660   -0.7870 H   0  0  0  0  0  0  0  0  0  0  0  0
   -1.6140   -5.3260   -3.1150 H   0  0  0  0  0  0  0  0  0  0  0  0
   -0.4120   -3.9220   -3.1510 H   0  0  0  0  0  0  0  0  0  0  0  0
   -2.6030   -2.8740   -3.0300 H   0  0  0  0  0  0  0  0  0  0  0  0
  1 12  1  0  0  0  0
  2 13  1  6  0  0  0
  2  1  1  0  0  0  0
  2  3  1  0  0  0  0
  3  4  1  0  0  0  0
  3 15  1  0  0  0  0
  4  8  1  0  0  0  0
  5  4  2  0  0  0  0
  5  6  1  0  0  0  0
  6  7  1  0  0  0  0
  7 18  1  0  0  0  0
  8  7  2  0  0  0  0
  9  2  1  0  0  0  0
 10  9  2  0  0  0  0
 11  1  1  0  0  0  0
 14  3  1  0  0  0  0
 16  5  1  0  0  0  0
 17  6  1  0  0  0  0
 19  9  1  0  0  0  0
 19 28  1  0  0  0  0
 20 29  1  1  0  0  0
 20 19  1  0  0  0  0
 21 20  1  0  0  0  0
 21 22  1  0  0  0  0
 22 33  1  0  0  0  0
 22 32  1  0  0  0  0
 23 22  1  0  0  0  0
 23 35  1  0  0  0  0
 24 25  1  0  0  0  0
 24 23  1  0  0  0  0
 25 39  1  0  0  0  0
 26 20  1  0  0  0  0
 27 26  2  0  0  0  0
 30 21  1  0  0  0  0
 31 21  1  0  0  0  0
 34 23  1  0  0  0  0
 36 24  1  0  0  0  0
 37 24  1  0  0  0  0
 38 25  1  0  0  0  0
 40 26  1  0  0  0  0
 40 41  1  0  0  0  0
 41 49  1  0  0  0  0
 41 48  1  0  0  0  0
 42 51  1  0  0  0  0
 42 41  1  0  0  0  0
 43 44  1  0  0  0  0
 43 42  1  0  0  0  0
 44 54  1  6  0  0  0
 44 45  1  0  0  0  0
 44 40  1  0  0  0  0
 45 46  1  0  0  0  0
 47 45  2  0  0  0  0
 50 42  1  0  0  0  0
 52 43  1  0  0  0  0
 53 43  1  0  0  0  0
M  END
$$$$
