HKW.pdb
 OpenBabel07022418373D

 64 66  0  0  1  0  0  0  0  0999 V2000
    4.4770    1.2280    0.6550 N   0  0  0  0  0  0  0  0  0  0  0  0
    4.0620    0.0920    1.4210 C   0  0  1  0  0  0  0  0  0  0  0  0
    4.4400    0.1620    2.8750 C   0  0  0  0  0  0  0  0  0  0  0  0
    5.8970    0.2580    3.0880 C   0  0  0  0  0  0  0  0  0  0  0  0
    6.5820    1.4530    3.1660 C   0  0  0  0  0  0  0  0  0  0  0  0
    7.8860    1.2000    3.3660 N   0  0  0  0  0  0  0  0  0  0  0  0
    8.0020   -0.1250    3.4110 C   0  0  0  0  0  0  0  0  0  0  0  0
    6.8100   -0.7160    3.2450 N   0  0  0  0  0  0  0  0  0  0  0  0
    2.5810   -0.1160    1.3550 C   0  0  0  0  0  0  0  0  0  0  0  0
    2.0410   -1.0750    1.9840 O   0  0  0  0  0  0  0  0  0  0  0  0
    5.4980    1.3320    0.7560 H   0  0  0  0  0  0  0  0  0  0  0  0
    4.2720    1.0260   -0.3460 H   0  0  0  0  0  0  0  0  0  0  0  0
    4.5950   -0.8060    0.9900 H   0  0  0  0  0  0  0  0  0  0  0  0
    3.8920    0.9860    3.3860 H   0  0  0  0  0  0  0  0  0  0  0  0
    4.0660   -0.7880    3.3450 H   0  0  0  0  0  0  0  0  0  0  0  0
    6.1500    2.4390    3.0810 H   0  0  0  0  0  0  0  0  0  0  0  0
    8.6850    1.8920    3.4710 H   0  0  0  0  0  0  0  0  0  0  0  0
    8.9280   -0.6640    3.5600 H   0  0  0  0  0  0  0  0  0  0  0  0
    1.7140    0.7120    0.6150 N   0  0  0  0  0  0  0  0  0  0  0  0
    0.2430    0.4800    0.5720 C   0  0  1  0  0  0  0  0  0  0  0  0
   -0.4050    1.7080    1.1690 C   0  0  0  0  0  0  0  0  0  0  0  0
   -1.8820    1.6150    1.2140 C   0  0  0  0  0  0  0  0  0  0  0  0
   -2.3720    0.4510    2.0320 C   0  0  0  0  0  0  0  0  0  0  0  0
   -3.8990    0.4310    2.0210 C   0  0  0  0  0  0  0  0  0  0  0  0
   -4.4260    0.2960    0.6780 N   0  0  0  0  0  0  0  0  0  0  0  0
   -0.1070    0.2280   -0.8420 C   0  0  0  0  0  0  0  0  0  0  0  0
    0.7850    0.4700   -1.7410 O   0  0  0  0  0  0  0  0  0  0  0  0
    2.0860    1.5130    0.0770 H   0  0  0  0  0  0  0  0  0  0  0  0
   -0.0430   -0.3880    1.1850 H   0  0  0  0  0  0  0  0  0  0  0  0
   -0.0490    2.6400    0.6760 H   0  0  0  0  0  0  0  0  0  0  0  0
   -0.0230    1.7510    2.2320 H   0  0  0  0  0  0  0  0  0  0  0  0
   -2.3320    2.5290    1.7410 H   0  0  0  0  0  0  0  0  0  0  0  0
   -2.3120    1.6140    0.2170 H   0  0  0  0  0  0  0  0  0  0  0  0
   -1.9930   -0.5240    1.7370 H   0  0  0  0  0  0  0  0  0  0  0  0
   -2.0840    0.6020    3.0960 H   0  0  0  0  0  0  0  0  0  0  0  0
   -4.2090   -0.4770    2.6110 H   0  0  0  0  0  0  0  0  0  0  0  0
   -4.3010    1.3540    2.4760 H   0  0  0  0  0  0  0  0  0  0  0  0
   -4.9710   -0.5970    0.5770 H   0  0  0  0  0  0  0  0  0  0  0  0
   -5.1120    1.0690    0.4830 H   0  0  0  0  0  0  0  0  0  0  0  0
   -1.3380   -0.2660   -1.3280 N   0  0  0  0  0  0  0  0  0  0  0  0
   -1.6010   -0.4820   -2.7360 C   0  0  1  0  0  0  0  0  0  0  0  0
   -1.7040   -1.9250   -3.1000 C   0  0  0  0  0  0  0  0  0  0  0  0
   -2.7410   -2.6990   -2.4350 C   0  0  0  0  0  0  0  0  0  0  0  0
   -3.9760   -2.9930   -3.0040 C   0  0  0  0  0  0  0  0  0  0  0  0
   -4.7050   -3.7030   -2.1280 N   0  0  0  0  0  0  0  0  0  0  0  0
   -3.9450   -3.8630   -1.0060 C   0  0  0  0  0  0  0  0  0  0  0  0
   -4.2270   -4.5170    0.1740 C   0  0  0  0  0  0  0  0  0  0  0  0
   -3.2900   -4.5610    1.1900 C   0  0  0  0  0  0  0  0  0  0  0  0
   -2.0670   -3.9460    1.0180 C   0  0  0  0  0  0  0  0  0  0  0  0
   -1.7700   -3.2870   -0.1560 C   0  0  0  0  0  0  0  0  0  0  0  0
   -2.7230   -3.2490   -1.1740 C   0  0  0  0  0  0  0  0  0  0  0  0
   -2.7460    0.3220   -3.1500 C   0  0  0  0  0  0  0  0  0  0  0  0
   -3.1760    0.3210   -4.3330 O   0  0  0  0  0  0  0  0  0  0  0  0
   -3.4010    1.1230   -2.2340 O   0  0  0  0  0  0  0  0  0  0  0  0
   -2.0860   -0.4950   -0.6460 H   0  0  0  0  0  0  0  0  0  0  0  0
   -0.7040   -0.0870   -3.2700 H   0  0  0  0  0  0  0  0  0  0  0  0
   -0.6880   -2.3770   -2.8920 H   0  0  0  0  0  0  0  0  0  0  0  0
   -1.7970   -1.9700   -4.2200 H   0  0  0  0  0  0  0  0  0  0  0  0
   -4.3450   -2.7210   -3.9890 H   0  0  0  0  0  0  0  0  0  0  0  0
   -5.6800   -4.0830   -2.2400 H   0  0  0  0  0  0  0  0  0  0  0  0
   -5.1850   -5.0190    0.3510 H   0  0  0  0  0  0  0  0  0  0  0  0
   -3.4860   -5.0760    2.1430 H   0  0  0  0  0  0  0  0  0  0  0  0
   -1.2990   -3.9540    1.7910 H   0  0  0  0  0  0  0  0  0  0  0  0
   -0.8180   -2.8010   -0.3140 H   0  0  0  0  0  0  0  0  0  0  0  0
  1 11  1  0  0  0  0
  1  2  1  0  0  0  0
  2 13  1  6  0  0  0
  2  3  1  0  0  0  0
  3  4  1  0  0  0  0
  3 15  1  0  0  0  0
  3 14  1  0  0  0  0
  4  5  2  0  0  0  0
  4  8  1  0  0  0  0
  5  6  1  0  0  0  0
  6  7  1  0  0  0  0
  6 17  1  0  0  0  0
  7 18  1  0  0  0  0
  8  7  2  0  0  0  0
  9  2  1  0  0  0  0
  9 10  2  0  0  0  0
 12  1  1  0  0  0  0
 16  5  1  0  0  0  0
 19  9  1  0  0  0  0
 20 19  1  0  0  0  0
 20 21  1  0  0  0  0
 20 29  1  1  0  0  0
 21 22  1  0  0  0  0
 21 31  1  0  0  0  0
 22 32  1  0  0  0  0
 22 23  1  0  0  0  0
 23 35  1  0  0  0  0
 24 23  1  0  0  0  0
 24 37  1  0  0  0  0
 24 36  1  0  0  0  0
 25 24  1  0  0  0  0
 26 20  1  0  0  0  0
 27 26  2  0  0  0  0
 28 19  1  0  0  0  0
 30 21  1  0  0  0  0
 33 22  1  0  0  0  0
 34 23  1  0  0  0  0
 38 25  1  0  0  0  0
 39 25  1  0  0  0  0
 40 26  1  0  0  0  0
 40 55  1  0  0  0  0
 41 56  1  6  0  0  0
 41 40  1  0  0  0  0
 42 57  1  0  0  0  0
 42 41  1  0  0  0  0
 42 43  1  0  0  0  0
 43 51  1  0  0  0  0
 44 43  2  0  0  0  0
 44 45  1  0  0  0  0
 45 46  1  0  0  0  0
 46 47  1  0  0  0  0
 47 61  1  0  0  0  0
 47 48  2  0  0  0  0
 48 62  1  0  0  0  0
 49 48  1  0  0  0  0
 49 63  1  0  0  0  0
 50 49  2  0  0  0  0
 51 46  2  0  0  0  0
 51 50  1  0  0  0  0
 52 41  1  0  0  0  0
 52 54  1  0  0  0  0
 53 52  2  0  0  0  0
 58 42  1  0  0  0  0
 59 44  1  0  0  0  0
 60 45  1  0  0  0  0
 64 50  1  0  0  0  0
M  END
$$$$
