HKY.pdb
 OpenBabel07022418373D

 61 62  0  0  1  0  0  0  0  0999 V2000
    3.5080   -1.2130    0.4120 N   0  0  0  0  0  0  0  0  0  0  0  0
    3.2270   -1.5960    1.7690 C   0  0  1  0  0  0  0  0  0  0  0  0
    4.0500   -0.7580    2.7100 C   0  0  0  0  0  0  0  0  0  0  0  0
    3.7900    0.6940    2.6100 C   0  0  0  0  0  0  0  0  0  0  0  0
    2.8660    1.4480    3.3310 C   0  0  0  0  0  0  0  0  0  0  0  0
    2.9420    2.7310    2.9580 N   0  0  0  0  0  0  0  0  0  0  0  0
    3.8960    2.8190    2.0110 C   0  0  0  0  0  0  0  0  0  0  0  0
    4.4050    1.5860    1.8050 N   0  0  0  0  0  0  0  0  0  0  0  0
    1.8050   -1.4790    2.1200 C   0  0  0  0  0  0  0  0  0  0  0  0
    1.4370   -1.6410    3.3060 O   0  0  0  0  0  0  0  0  0  0  0  0
    3.9220   -0.2550    0.3710 H   0  0  0  0  0  0  0  0  0  0  0  0
    4.0750   -1.9030   -0.1130 H   0  0  0  0  0  0  0  0  0  0  0  0
    3.5650   -2.6690    1.8560 H   0  0  0  0  0  0  0  0  0  0  0  0
    5.1500   -0.9830    2.5730 H   0  0  0  0  0  0  0  0  0  0  0  0
    3.8640   -1.0280    3.7790 H   0  0  0  0  0  0  0  0  0  0  0  0
    2.1950    1.0330    4.0780 H   0  0  0  0  0  0  0  0  0  0  0  0
    2.3620    3.5390    3.3320 H   0  0  0  0  0  0  0  0  0  0  0  0
    4.1690    3.7480    1.5300 H   0  0  0  0  0  0  0  0  0  0  0  0
    0.7800   -1.1840    1.1590 N   0  0  0  0  0  0  0  0  0  0  0  0
   -0.6230   -1.0710    1.5060 C   0  0  1  0  0  0  0  0  0  0  0  0
   -1.1270    0.2910    1.1070 C   0  0  0  0  0  0  0  0  0  0  0  0
   -0.3990    1.4070    1.7800 C   0  0  0  0  0  0  0  0  0  0  0  0
   -0.9240    2.7680    1.3760 C   0  0  0  0  0  0  0  0  0  0  0  0
   -2.3740    2.9410    1.7180 C   0  0  0  0  0  0  0  0  0  0  0  0
   -2.6260    2.8080    3.1390 N   0  0  0  0  0  0  0  0  0  0  0  0
   -1.4260   -2.1610    0.9060 C   0  0  0  0  0  0  0  0  0  0  0  0
   -2.6550   -2.1960    1.1160 O   0  0  0  0  0  0  0  0  0  0  0  0
    1.1020   -1.0500    0.1760 H   0  0  0  0  0  0  0  0  0  0  0  0
   -0.6560   -1.1200    2.6300 H   0  0  0  0  0  0  0  0  0  0  0  0
   -2.2240    0.3710    1.2640 H   0  0  0  0  0  0  0  0  0  0  0  0
   -0.9990    0.4400   -0.0060 H   0  0  0  0  0  0  0  0  0  0  0  0
    0.6860    1.4200    1.4650 H   0  0  0  0  0  0  0  0  0  0  0  0
   -0.4020    1.3210    2.8750 H   0  0  0  0  0  0  0  0  0  0  0  0
   -0.7830    2.9740    0.3100 H   0  0  0  0  0  0  0  0  0  0  0  0
   -0.3440    3.5150    1.9450 H   0  0  0  0  0  0  0  0  0  0  0  0
   -2.6570    3.9780    1.4430 H   0  0  0  0  0  0  0  0  0  0  0  0
   -3.0460    2.2640    1.1890 H   0  0  0  0  0  0  0  0  0  0  0  0
   -1.9340    3.2670    3.7360 H   0  0  0  0  0  0  0  0  0  0  0  0
   -2.8020    1.8060    3.3510 H   0  0  0  0  0  0  0  0  0  0  0  0
   -3.4010    0.6280   -4.2900 O   0  0  0  0  0  0  0  0  0  0  0  0
   -2.9310   -0.5580   -3.7330 C   0  0  0  0  0  0  0  0  0  0  0  0
   -1.5970   -0.6980   -3.3610 C   0  0  0  0  0  0  0  0  0  0  0  0
   -1.1240   -1.8670   -2.8090 C   0  0  0  0  0  0  0  0  0  0  0  0
   -1.9470   -2.9500   -2.6000 C   0  0  0  0  0  0  0  0  0  0  0  0
   -1.4590   -4.2300   -2.0030 C   0  0  0  0  0  0  0  0  0  0  0  0
   -1.5860   -4.2250   -0.4920 C   0  0  2  0  0  0  0  0  0  0  0  0
   -0.8180   -3.1510    0.1040 N   0  0  0  0  0  0  0  0  0  0  0  0
   -1.1170   -5.5350   -0.0040 C   0  0  0  0  0  0  0  0  0  0  0  0
   -0.1720   -5.5750    0.8150 O   0  0  0  0  0  0  0  0  0  0  0  0
   -3.2690   -2.8310   -2.9620 C   0  0  0  0  0  0  0  0  0  0  0  0
   -3.7370   -1.6560   -3.5150 C   0  0  0  0  0  0  0  0  0  0  0  0
   -1.6830   -6.7250   -0.4180 O   0  0  0  0  0  0  0  0  0  0  0  0
   -4.3540    0.9450   -4.1690 H   0  0  0  0  0  0  0  0  0  0  0  0
   -0.9720    0.1730   -3.5370 H   0  0  0  0  0  0  0  0  0  0  0  0
   -0.0860   -1.9440   -2.5310 H   0  0  0  0  0  0  0  0  0  0  0  0
   -2.0900   -5.0300   -2.4390 H   0  0  0  0  0  0  0  0  0  0  0  0
   -0.4250   -4.4220   -2.2910 H   0  0  0  0  0  0  0  0  0  0  0  0
   -2.6520   -4.0900   -0.1970 H   0  0  0  0  0  0  0  0  0  0  0  0
    0.2250   -3.1090   -0.0650 H   0  0  0  0  0  0  0  0  0  0  0  0
   -3.9160   -3.6950   -2.7940 H   0  0  0  0  0  0  0  0  0  0  0  0
   -4.7960   -1.5760   -3.7990 H   0  0  0  0  0  0  0  0  0  0  0  0
  1  2  1  0  0  0  0
  2 13  1  1  0  0  0
  2  9  1  0  0  0  0
  2  3  1  0  0  0  0
  3 15  1  0  0  0  0
  4  3  1  0  0  0  0
  4  5  2  0  0  0  0
  5 16  1  0  0  0  0
  6  5  1  0  0  0  0
  6 17  1  0  0  0  0
  7  6  1  0  0  0  0
  8  7  2  0  0  0  0
  8  4  1  0  0  0  0
  9 10  2  0  0  0  0
 11  1  1  0  0  0  0
 12  1  1  0  0  0  0
 14  3  1  0  0  0  0
 18  7  1  0  0  0  0
 19 20  1  0  0  0  0
 19  9  1  0  0  0  0
 20 29  1  1  0  0  0
 21 30  1  0  0  0  0
 21 20  1  0  0  0  0
 21 22  1  0  0  0  0
 22 33  1  0  0  0  0
 23 24  1  0  0  0  0
 23 22  1  0  0  0  0
 23 35  1  0  0  0  0
 24 25  1  0  0  0  0
 25 39  1  0  0  0  0
 25 38  1  0  0  0  0
 26 27  2  0  0  0  0
 26 20  1  0  0  0  0
 28 19  1  0  0  0  0
 31 21  1  0  0  0  0
 32 22  1  0  0  0  0
 34 23  1  0  0  0  0
 36 24  1  0  0  0  0
 37 24  1  0  0  0  0
 40 53  1  0  0  0  0
 40 41  1  0  0  0  0
 41 51  2  0  0  0  0
 41 42  1  0  0  0  0
 42 43  2  0  0  0  0
 43 44  1  0  0  0  0
 43 55  1  0  0  0  0
 44 45  1  0  0  0  0
 45 46  1  0  0  0  0
 46 58  1  1  0  0  0
 46 48  1  0  0  0  0
 46 47  1  0  0  0  0
 47 26  1  0  0  0  0
 48 49  1  0  0  0  0
 50 60  1  0  0  0  0
 50 44  2  0  0  0  0
 51 50  1  0  0  0  0
 52 48  2  0  0  0  0
 54 42  1  0  0  0  0
 56 45  1  0  0  0  0
 57 45  1  0  0  0  0
 59 47  1  0  0  0  0
 61 51  1  0  0  0  0
M  END
$$$$
