HLA.pdb
 OpenBabel07022418373D

 48 48  0  0  1  0  0  0  0  0999 V2000
    1.3420   -2.0650    5.2190 N   0  0  0  0  0  0  0  0  0  0  0  0
    1.5760   -2.3480    3.7460 C   0  0  1  0  0  0  0  0  0  0  0  0
    0.9760   -3.7160    3.6000 C   0  0  0  0  0  0  0  0  0  0  0  0
    1.0890   -4.3090    2.2810 C   0  0  0  0  0  0  0  0  0  0  0  0
    1.7340   -3.8740    1.1510 C   0  0  0  0  0  0  0  0  0  0  0  0
    1.6030   -4.7920    0.1480 N   0  0  0  0  0  0  0  0  0  0  0  0
    0.8890   -5.7880    0.6390 C   0  0  0  0  0  0  0  0  0  0  0  0
    0.5710   -5.5230    1.9090 N   0  0  0  0  0  0  0  0  0  0  0  0
    0.6800   -1.3380    3.0980 C   0  0  0  0  0  0  0  0  0  0  0  0
   -0.4190   -1.0580    3.6250 O   0  0  0  0  0  0  0  0  0  0  0  0
    1.5090   -1.0260    5.2870 H   0  0  0  0  0  0  0  0  0  0  0  0
    0.3230   -2.2460    5.3250 H   0  0  0  0  0  0  0  0  0  0  0  0
    2.6210   -2.2540    3.5070 H   0  0  0  0  0  0  0  0  0  0  0  0
    1.4300   -4.4430    4.3280 H   0  0  0  0  0  0  0  0  0  0  0  0
   -0.1180   -3.6760    3.8570 H   0  0  0  0  0  0  0  0  0  0  0  0
    2.2960   -2.9760    0.9890 H   0  0  0  0  0  0  0  0  0  0  0  0
    1.9880   -4.7220   -0.8120 H   0  0  0  0  0  0  0  0  0  0  0  0
    0.5960   -6.6920    0.1040 H   0  0  0  0  0  0  0  0  0  0  0  0
    0.2230    2.9280   -0.6770 C   0  0  0  0  0  0  0  0  0  0  0  0
    0.5090    2.8300    0.7840 C   0  0  0  0  0  0  0  0  0  0  0  0
   -0.6530    3.4450    1.5550 C   0  0  0  0  0  0  0  0  0  0  0  0
    0.9570    1.5450    1.3190 C   0  0  0  0  0  0  0  0  0  0  0  0
    0.1300    0.3270    1.2630 C   0  0  2  0  0  0  0  0  0  0  0  0
    1.0360   -0.6950    1.9290 N   0  0  0  0  0  0  0  0  0  0  0  0
   -0.2880   -0.2110   -0.0180 C   0  0  0  0  0  0  0  0  0  0  0  0
    0.3400   -1.2280   -0.5100 O   0  0  0  0  0  0  0  0  0  0  0  0
    0.6360    2.0920   -1.2690 H   0  0  0  0  0  0  0  0  0  0  0  0
   -0.8550    3.1170   -0.8280 H   0  0  0  0  0  0  0  0  0  0  0  0
    0.7110    3.8520   -1.1350 H   0  0  0  0  0  0  0  0  0  0  0  0
    1.3550    3.5700    0.9730 H   0  0  0  0  0  0  0  0  0  0  0  0
   -0.9560    4.3470    0.9810 H   0  0  0  0  0  0  0  0  0  0  0  0
   -0.3100    3.8140    2.5490 H   0  0  0  0  0  0  0  0  0  0  0  0
   -1.5190    2.7810    1.6040 H   0  0  0  0  0  0  0  0  0  0  0  0
    1.9560    1.2750    0.8510 H   0  0  0  0  0  0  0  0  0  0  0  0
    1.2480    1.6750    2.4190 H   0  0  0  0  0  0  0  0  0  0  0  0
   -0.7510    0.3500    1.9430 H   0  0  0  0  0  0  0  0  0  0  0  0
    1.9140   -0.7960    1.3930 H   0  0  0  0  0  0  0  0  0  0  0  0
   -3.0290   -1.1090   -1.9840 C   0  0  0  0  0  0  0  0  0  0  0  0
   -1.6930   -0.3610   -2.0920 C   0  0  2  0  0  0  0  0  0  0  0  0
   -1.3540    0.2550   -0.8330 N   0  0  0  0  0  0  0  0  0  0  0  0
   -1.7410    0.5560   -3.2280 C   0  0  0  0  0  0  0  0  0  0  0  0
   -1.5210    1.7770   -3.1160 O   0  0  0  0  0  0  0  0  0  0  0  0
   -2.0420    0.1130   -4.5260 O   0  0  0  0  0  0  0  0  0  0  0  0
   -3.8650   -0.3860   -2.0710 H   0  0  0  0  0  0  0  0  0  0  0  0
   -3.0560   -1.6900   -1.0430 H   0  0  0  0  0  0  0  0  0  0  0  0
   -3.0520   -1.8180   -2.8350 H   0  0  0  0  0  0  0  0  0  0  0  0
   -0.9530   -1.1810   -2.3130 H   0  0  0  0  0  0  0  0  0  0  0  0
   -1.9150    1.0490   -0.5040 H   0  0  0  0  0  0  0  0  0  0  0  0
  1 11  1  0  0  0  0
  1 12  1  0  0  0  0
  2 13  1  6  0  0  0
  2  1  1  0  0  0  0
  3  2  1  0  0  0  0
  3 15  1  0  0  0  0
  3 14  1  0  0  0  0
  4  3  1  0  0  0  0
  5  4  2  0  0  0  0
  6  7  1  0  0  0  0
  6  5  1  0  0  0  0
  7  8  2  0  0  0  0
  8  4  1  0  0  0  0
  9 10  2  0  0  0  0
  9  2  1  0  0  0  0
 16  5  1  0  0  0  0
 17  6  1  0  0  0  0
 18  7  1  0  0  0  0
 19 20  1  0  0  0  0
 20 30  1  0  0  0  0
 20 22  1  0  0  0  0
 20 21  1  0  0  0  0
 21 33  1  0  0  0  0
 21 32  1  0  0  0  0
 22 35  1  0  0  0  0
 23 22  1  0  0  0  0
 23 24  1  0  0  0  0
 23 36  1  1  0  0  0
 24  9  1  0  0  0  0
 25 23  1  0  0  0  0
 26 25  2  0  0  0  0
 27 19  1  0  0  0  0
 28 19  1  0  0  0  0
 29 19  1  0  0  0  0
 31 21  1  0  0  0  0
 34 22  1  0  0  0  0
 37 24  1  0  0  0  0
 38 45  1  0  0  0  0
 39 47  1  6  0  0  0
 39 38  1  0  0  0  0
 39 40  1  0  0  0  0
 40 48  1  0  0  0  0
 40 25  1  0  0  0  0
 41 42  1  0  0  0  0
 41 39  1  0  0  0  0
 43 41  2  0  0  0  0
 44 38  1  0  0  0  0
 46 38  1  0  0  0  0
M  END
$$$$
