HLC.pdb
 OpenBabel07022418373D

 49 49  0  0  1  0  0  0  0  0999 V2000
    4.0090   -2.7300   -1.0680 N   0  0  0  0  0  0  0  0  0  0  0  0
    3.4630   -1.6390   -0.2800 C   0  0  1  0  0  0  0  0  0  0  0  0
    3.4250   -0.3510   -1.0410 C   0  0  0  0  0  0  0  0  0  0  0  0
    2.5730   -0.4740   -2.2730 C   0  0  0  0  0  0  0  0  0  0  0  0
    2.9740   -0.8550   -3.5300 C   0  0  0  0  0  0  0  0  0  0  0  0
    1.8980   -0.8310   -4.3330 N   0  0  0  0  0  0  0  0  0  0  0  0
    0.8250   -0.4420   -3.6050 C   0  0  0  0  0  0  0  0  0  0  0  0
    1.2560   -0.2320   -2.3650 N   0  0  0  0  0  0  0  0  0  0  0  0
    2.1050   -2.0190    0.2370 C   0  0  0  0  0  0  0  0  0  0  0  0
    1.5910   -3.1350   -0.0220 O   0  0  0  0  0  0  0  0  0  0  0  0
    3.4160   -2.9450   -1.9050 H   0  0  0  0  0  0  0  0  0  0  0  0
    4.0530   -3.6100   -0.5100 H   0  0  0  0  0  0  0  0  0  0  0  0
    4.1140   -1.5120    0.6010 H   0  0  0  0  0  0  0  0  0  0  0  0
    4.4590   -0.0590   -1.3170 H   0  0  0  0  0  0  0  0  0  0  0  0
    2.9560    0.4130   -0.3870 H   0  0  0  0  0  0  0  0  0  0  0  0
    3.9980   -1.1280   -3.8130 H   0  0  0  0  0  0  0  0  0  0  0  0
    1.8890   -1.0740   -5.3610 H   0  0  0  0  0  0  0  0  0  0  0  0
   -0.1690   -0.3440   -4.0270 H   0  0  0  0  0  0  0  0  0  0  0  0
    1.7930   -0.0030    3.8180 C   0  0  0  0  0  0  0  0  0  0  0  0
    0.3990   -0.5150    3.9320 C   0  0  0  0  0  0  0  0  0  0  0  0
   -0.5670    0.6640    3.9550 C   0  0  0  0  0  0  0  0  0  0  0  0
   -0.0080   -1.6030    3.0390 C   0  0  0  0  0  0  0  0  0  0  0  0
    0.0300   -1.4310    1.5730 C   0  0  2  0  0  0  0  0  0  0  0  0
    1.3450   -1.1260    1.0440 N   0  0  0  0  0  0  0  0  0  0  0  0
   -0.9360   -0.4940    0.9900 C   0  0  0  0  0  0  0  0  0  0  0  0
   -0.5310    0.3920    0.2110 O   0  0  0  0  0  0  0  0  0  0  0  0
    1.8250    0.9800    3.2890 H   0  0  0  0  0  0  0  0  0  0  0  0
    2.1830    0.2690    4.8490 H   0  0  0  0  0  0  0  0  0  0  0  0
    2.5290   -0.7390    3.4480 H   0  0  0  0  0  0  0  0  0  0  0  0
    0.3080   -0.9450    4.9810 H   0  0  0  0  0  0  0  0  0  0  0  0
   -0.2860    1.3770    4.7850 H   0  0  0  0  0  0  0  0  0  0  0  0
   -1.5920    0.3360    4.2220 H   0  0  0  0  0  0  0  0  0  0  0  0
   -0.5090    1.2620    3.0270 H   0  0  0  0  0  0  0  0  0  0  0  0
   -1.0540   -1.8950    3.3130 H   0  0  0  0  0  0  0  0  0  0  0  0
    0.6000   -2.5100    3.2870 H   0  0  0  0  0  0  0  0  0  0  0  0
   -0.2370   -2.4720    1.1820 H   0  0  0  0  0  0  0  0  0  0  0  0
    1.8030   -0.2090    1.2350 H   0  0  0  0  0  0  0  0  0  0  0  0
   -2.3200   -0.5620    1.2800 N   0  0  0  0  0  0  0  0  0  0  0  0
   -3.3220    0.3030    0.7530 C   0  0  1  0  0  0  0  0  0  0  0  0
   -4.2990   -0.3890   -0.1650 C   0  0  0  0  0  0  0  0  0  0  0  0
   -3.5050   -1.1310   -1.5960 S   0  0  0  0  0  0  0  0  0  0  0  0
   -4.1230    1.0140    1.7700 C   0  0  0  0  0  0  0  0  0  0  0  0
   -3.9700    0.8880    3.0110 O   0  0  0  0  0  0  0  0  0  0  0  0
   -5.1450    1.9090    1.3970 O   0  0  0  0  0  0  0  0  0  0  0  0
   -2.6610   -1.3170    1.9470 H   0  0  0  0  0  0  0  0  0  0  0  0
   -2.8160    1.0730    0.1230 H   0  0  0  0  0  0  0  0  0  0  0  0
   -4.9990    0.3910   -0.5360 H   0  0  0  0  0  0  0  0  0  0  0  0
   -4.9340   -1.1090    0.4040 H   0  0  0  0  0  0  0  0  0  0  0  0
   -3.0080   -0.0980   -2.4080 H   0  0  0  0  0  0  0  0  0  0  0  0
  1 12  1  0  0  0  0
  1  2  1  0  0  0  0
  2  9  1  0  0  0  0
  2 13  1  1  0  0  0
  3 15  1  0  0  0  0
  3  2  1  0  0  0  0
  4  3  1  0  0  0  0
  5  4  2  0  0  0  0
  6  7  1  0  0  0  0
  6  5  1  0  0  0  0
  7  8  2  0  0  0  0
  8  4  1  0  0  0  0
  9 24  1  0  0  0  0
 10  9  2  0  0  0  0
 11  1  1  0  0  0  0
 14  3  1  0  0  0  0
 16  5  1  0  0  0  0
 17  6  1  0  0  0  0
 18  7  1  0  0  0  0
 19 20  1  0  0  0  0
 19 28  1  0  0  0  0
 20 21  1  0  0  0  0
 20 30  1  0  0  0  0
 21 32  1  0  0  0  0
 21 31  1  0  0  0  0
 22 35  1  0  0  0  0
 22 34  1  0  0  0  0
 22 20  1  0  0  0  0
 23 36  1  6  0  0  0
 23 22  1  0  0  0  0
 24 37  1  0  0  0  0
 24 23  1  0  0  0  0
 25 38  1  0  0  0  0
 25 23  1  0  0  0  0
 26 25  2  0  0  0  0
 27 19  1  0  0  0  0
 29 19  1  0  0  0  0
 33 21  1  0  0  0  0
 38 45  1  0  0  0  0
 39 46  1  6  0  0  0
 39 38  1  0  0  0  0
 39 42  1  0  0  0  0
 40 48  1  0  0  0  0
 40 39  1  0  0  0  0
 41 40  1  0  0  0  0
 42 43  1  0  0  0  0
 44 42  2  0  0  0  0
 47 40  1  0  0  0  0
 49 41  1  0  0  0  0
M  END
$$$$
