HLD.pdb
 OpenBabel07022418373D

 51 51  0  0  1  0  0  0  0  0999 V2000
   -0.7350   -0.3870    5.4110 N   0  0  0  0  0  0  0  0  0  0  0  0
    0.1810   -0.7920    4.2890 C   0  0  1  0  0  0  0  0  0  0  0  0
    0.2220   -2.2780    4.4230 C   0  0  0  0  0  0  0  0  0  0  0  0
    1.0580   -3.0220    3.4970 C   0  0  0  0  0  0  0  0  0  0  0  0
    1.9090   -2.6970    2.4850 C   0  0  0  0  0  0  0  0  0  0  0  0
    2.4250   -3.8250    1.9900 N   0  0  0  0  0  0  0  0  0  0  0  0
    1.9300   -4.8780    2.6560 C   0  0  0  0  0  0  0  0  0  0  0  0
    1.1030   -4.3930    3.5680 N   0  0  0  0  0  0  0  0  0  0  0  0
   -0.6440   -0.4610    3.0820 C   0  0  0  0  0  0  0  0  0  0  0  0
   -1.8920   -0.6620    3.1610 O   0  0  0  0  0  0  0  0  0  0  0  0
   -0.4960   -0.9370    6.2610 H   0  0  0  0  0  0  0  0  0  0  0  0
   -0.6900    0.6310    5.5360 H   0  0  0  0  0  0  0  0  0  0  0  0
    1.1030   -0.2540    4.3790 H   0  0  0  0  0  0  0  0  0  0  0  0
   -0.8180   -2.7260    4.3550 H   0  0  0  0  0  0  0  0  0  0  0  0
    0.5380   -2.5940    5.4670 H   0  0  0  0  0  0  0  0  0  0  0  0
    2.1530   -1.7240    2.1290 H   0  0  0  0  0  0  0  0  0  0  0  0
    3.1020   -3.8770    1.2140 H   0  0  0  0  0  0  0  0  0  0  0  0
    2.1910   -5.9040    2.4470 H   0  0  0  0  0  0  0  0  0  0  0  0
    1.3690    2.6750    1.2710 C   0  0  0  0  0  0  0  0  0  0  0  0
    0.3690    2.5840    0.1800 C   0  0  0  0  0  0  0  0  0  0  0  0
    1.1160    2.1890   -1.0880 C   0  0  0  0  0  0  0  0  0  0  0  0
   -0.8420    1.8060    0.4360 C   0  0  0  0  0  0  0  0  0  0  0  0
   -0.7660    0.3720    0.7650 C   0  0  2  0  0  0  0  0  0  0  0  0
   -0.0120    0.0510    1.9400 N   0  0  0  0  0  0  0  0  0  0  0  0
   -0.4220   -0.5330   -0.3780 C   0  0  0  0  0  0  0  0  0  0  0  0
    0.4640   -1.4200   -0.2640 O   0  0  0  0  0  0  0  0  0  0  0  0
    2.2720    2.0490    1.1150 H   0  0  0  0  0  0  0  0  0  0  0  0
    0.9490    2.5810    2.2990 H   0  0  0  0  0  0  0  0  0  0  0  0
    1.7910    3.7260    1.2590 H   0  0  0  0  0  0  0  0  0  0  0  0
    0.0300    3.6430   -0.0470 H   0  0  0  0  0  0  0  0  0  0  0  0
    0.6910    2.6810   -1.9800 H   0  0  0  0  0  0  0  0  0  0  0  0
    2.1720    2.5860   -1.0160 H   0  0  0  0  0  0  0  0  0  0  0  0
    1.2350    1.0950   -1.1890 H   0  0  0  0  0  0  0  0  0  0  0  0
   -1.5220    1.9000   -0.4630 H   0  0  0  0  0  0  0  0  0  0  0  0
   -1.4400    2.3030    1.2510 H   0  0  0  0  0  0  0  0  0  0  0  0
   -1.8410    0.0770    1.0070 H   0  0  0  0  0  0  0  0  0  0  0  0
    1.0040    0.2170    1.9450 H   0  0  0  0  0  0  0  0  0  0  0  0
   -1.0610   -0.4610   -1.6450 N   0  0  0  0  0  0  0  0  0  0  0  0
   -0.7870   -1.3030   -2.7700 C   0  0  1  0  0  0  0  0  0  0  0  0
   -2.0400   -1.9730   -3.2630 C   0  0  0  0  0  0  0  0  0  0  0  0
   -2.6120   -2.7960   -2.1870 C   0  0  0  0  0  0  0  0  0  0  0  0
   -3.6880   -3.4450   -2.4220 O   0  0  0  0  0  0  0  0  0  0  0  0
   -0.1070   -0.5710   -3.8770 C   0  0  0  0  0  0  0  0  0  0  0  0
    0.1400    0.6480   -3.7450 O   0  0  0  0  0  0  0  0  0  0  0  0
   -2.0970   -2.9480   -0.9180 O   0  0  0  0  0  0  0  0  0  0  0  0
    0.2680   -1.1840   -5.0580 O   0  0  0  0  0  0  0  0  0  0  0  0
   -1.8010    0.3040   -1.7140 H   0  0  0  0  0  0  0  0  0  0  0  0
   -0.0800   -2.0870   -2.4400 H   0  0  0  0  0  0  0  0  0  0  0  0
   -1.8160   -2.5870   -4.1650 H   0  0  0  0  0  0  0  0  0  0  0  0
   -2.7450   -1.1320   -3.5330 H   0  0  0  0  0  0  0  0  0  0  0  0
   -2.5900   -3.2580   -0.1130 H   0  0  0  0  0  0  0  0  0  0  0  0
  1 12  1  0  0  0  0
  1 11  1  0  0  0  0
  2 13  1  1  0  0  0
  2  3  1  0  0  0  0
  2  1  1  0  0  0  0
  3 15  1  0  0  0  0
  4  8  1  0  0  0  0
  4  3  1  0  0  0  0
  5  4  2  0  0  0  0
  6  5  1  0  0  0  0
  6  7  1  0  0  0  0
  7  8  2  0  0  0  0
  9 10  2  0  0  0  0
  9  2  1  0  0  0  0
 14  3  1  0  0  0  0
 16  5  1  0  0  0  0
 17  6  1  0  0  0  0
 18  7  1  0  0  0  0
 19 28  1  0  0  0  0
 20 22  1  0  0  0  0
 20 19  1  0  0  0  0
 21 32  1  0  0  0  0
 21 20  1  0  0  0  0
 22 23  1  0  0  0  0
 22 35  1  0  0  0  0
 23 36  1  1  0  0  0
 23 24  1  0  0  0  0
 24 37  1  0  0  0  0
 24  9  1  0  0  0  0
 25 26  2  0  0  0  0
 25 23  1  0  0  0  0
 27 19  1  0  0  0  0
 29 19  1  0  0  0  0
 30 20  1  0  0  0  0
 31 21  1  0  0  0  0
 33 21  1  0  0  0  0
 34 22  1  0  0  0  0
 38 25  1  0  0  0  0
 39 48  1  1  0  0  0
 39 38  1  0  0  0  0
 40 39  1  0  0  0  0
 40 41  1  0  0  0  0
 41 45  1  0  0  0  0
 42 41  2  0  0  0  0
 43 44  1  0  0  0  0
 43 39  1  0  0  0  0
 45 51  1  0  0  0  0
 46 43  2  0  0  0  0
 47 38  1  0  0  0  0
 49 40  1  0  0  0  0
 50 40  1  0  0  0  0
M  END
$$$$
