HLF.pdb
 OpenBabel07022418373D

 58 59  0  0  1  0  0  0  0  0999 V2000
    2.6590   -0.5350   -0.1450 N   0  0  0  0  0  0  0  0  0  0  0  0
    2.7330   -0.7990    1.3000 C   0  0  1  0  0  0  0  0  0  0  0  0
    3.9000   -0.1370    1.9170 C   0  0  0  0  0  0  0  0  0  0  0  0
    4.1190   -0.4130    3.3420 C   0  0  0  0  0  0  0  0  0  0  0  0
    3.5040   -1.2910    4.1770 C   0  0  0  0  0  0  0  0  0  0  0  0
    4.0990   -1.2320    5.3970 N   0  0  0  0  0  0  0  0  0  0  0  0
    5.0790   -0.3200    5.3110 C   0  0  0  0  0  0  0  0  0  0  0  0
    5.1080    0.1900    4.0720 N   0  0  0  0  0  0  0  0  0  0  0  0
    1.4260   -0.2400    1.7980 C   0  0  0  0  0  0  0  0  0  0  0  0
    1.2780   -0.0890    3.0140 O   0  0  0  0  0  0  0  0  0  0  0  0
    2.3010   -1.3910   -0.6260 H   0  0  0  0  0  0  0  0  0  0  0  0
    3.6400   -0.3600   -0.4530 H   0  0  0  0  0  0  0  0  0  0  0  0
    2.7260   -1.8720    1.4470 H   0  0  0  0  0  0  0  0  0  0  0  0
    3.8070    0.9690    1.7590 H   0  0  0  0  0  0  0  0  0  0  0  0
    4.8270   -0.4120    1.3230 H   0  0  0  0  0  0  0  0  0  0  0  0
    2.7060   -1.9650    3.9800 H   0  0  0  0  0  0  0  0  0  0  0  0
    3.8670   -1.7690    6.2420 H   0  0  0  0  0  0  0  0  0  0  0  0
    5.7290   -0.0530    6.1220 H   0  0  0  0  0  0  0  0  0  0  0  0
   -0.1190    2.3120   -1.0590 C   0  0  0  0  0  0  0  0  0  0  0  0
   -1.3360    2.4990   -0.1900 C   0  0  0  0  0  0  0  0  0  0  0  0
   -1.5890    4.0190   -0.1390 C   0  0  0  0  0  0  0  0  0  0  0  0
   -1.1720    2.0650    1.2130 C   0  0  0  0  0  0  0  0  0  0  0  0
   -0.8500    0.6430    1.4870 C   0  0  2  0  0  0  0  0  0  0  0  0
    0.3520    0.1230    0.9420 N   0  0  0  0  0  0  0  0  0  0  0  0
   -2.0330   -0.2450    1.1910 C   0  0  0  0  0  0  0  0  0  0  0  0
   -3.1380    0.1480    1.6410 O   0  0  0  0  0  0  0  0  0  0  0  0
   -0.0650    3.1960   -1.7680 H   0  0  0  0  0  0  0  0  0  0  0  0
   -0.3030    1.4530   -1.7400 H   0  0  0  0  0  0  0  0  0  0  0  0
    0.8180    2.2810   -0.5080 H   0  0  0  0  0  0  0  0  0  0  0  0
   -2.2590    2.1100   -0.6810 H   0  0  0  0  0  0  0  0  0  0  0  0
   -2.6000    4.2360    0.2070 H   0  0  0  0  0  0  0  0  0  0  0  0
   -0.7990    4.4200    0.5300 H   0  0  0  0  0  0  0  0  0  0  0  0
   -1.3670    4.4090   -1.1570 H   0  0  0  0  0  0  0  0  0  0  0  0
   -2.1130    2.2920    1.7980 H   0  0  0  0  0  0  0  0  0  0  0  0
   -0.4230    2.7670    1.6880 H   0  0  0  0  0  0  0  0  0  0  0  0
   -0.7700    0.5770    2.6190 H   0  0  0  0  0  0  0  0  0  0  0  0
    0.5160   -0.0320   -0.0990 H   0  0  0  0  0  0  0  0  0  0  0  0
   -1.9350   -1.4480    0.4560 N   0  0  0  0  0  0  0  0  0  0  0  0
   -3.0660   -2.2870    0.1780 C   0  0  1  0  0  0  0  0  0  0  0  0
   -3.3640   -2.4260   -1.2910 C   0  0  0  0  0  0  0  0  0  0  0  0
   -2.2920   -2.9950   -2.0820 C   0  0  0  0  0  0  0  0  0  0  0  0
   -1.3440   -2.1750   -2.6500 C   0  0  0  0  0  0  0  0  0  0  0  0
   -0.3120   -2.7310   -3.4110 C   0  0  0  0  0  0  0  0  0  0  0  0
   -0.2200   -4.1050   -3.6110 C   0  0  0  0  0  0  0  0  0  0  0  0
   -1.1940   -4.9130   -3.0240 C   0  0  0  0  0  0  0  0  0  0  0  0
   -2.2020   -4.3470   -2.2780 C   0  0  0  0  0  0  0  0  0  0  0  0
   -2.8970   -3.5910    0.8550 C   0  0  0  0  0  0  0  0  0  0  0  0
   -3.7980   -4.4600    0.7230 O   0  0  0  0  0  0  0  0  0  0  0  0
   -1.8050   -3.9270    1.6340 O   0  0  0  0  0  0  0  0  0  0  0  0
   -0.9910   -1.7480    0.0920 H   0  0  0  0  0  0  0  0  0  0  0  0
   -3.9580   -1.8030    0.6400 H   0  0  0  0  0  0  0  0  0  0  0  0
   -4.2830   -3.0310   -1.3840 H   0  0  0  0  0  0  0  0  0  0  0  0
   -3.6140   -1.4110   -1.6730 H   0  0  0  0  0  0  0  0  0  0  0  0
   -1.3330   -1.1010   -2.5510 H   0  0  0  0  0  0  0  0  0  0  0  0
    0.4260   -2.1040   -3.8550 H   0  0  0  0  0  0  0  0  0  0  0  0
    0.5730   -4.5570   -4.1980 H   0  0  0  0  0  0  0  0  0  0  0  0
   -1.1180   -5.9800   -3.1820 H   0  0  0  0  0  0  0  0  0  0  0  0
   -2.9390   -4.9840   -1.8360 H   0  0  0  0  0  0  0  0  0  0  0  0
  1  2  1  0  0  0  0
  2 13  1  1  0  0  0
  2  9  1  0  0  0  0
  2  3  1  0  0  0  0
  3  4  1  0  0  0  0
  4  8  1  0  0  0  0
  4  5  2  0  0  0  0
  5  6  1  0  0  0  0
  6 17  1  0  0  0  0
  7  6  1  0  0  0  0
  7 18  1  0  0  0  0
  8  7  2  0  0  0  0
  9 10  2  0  0  0  0
 11  1  1  0  0  0  0
 12  1  1  0  0  0  0
 14  3  1  0  0  0  0
 15  3  1  0  0  0  0
 16  5  1  0  0  0  0
 19 29  1  0  0  0  0
 19 20  1  0  0  0  0
 20 21  1  0  0  0  0
 20 22  1  0  0  0  0
 21 31  1  0  0  0  0
 21 32  1  0  0  0  0
 22 23  1  0  0  0  0
 22 35  1  0  0  0  0
 22 34  1  0  0  0  0
 23 36  1  1  0  0  0
 24 23  1  0  0  0  0
 24  9  1  0  0  0  0
 25 23  1  0  0  0  0
 25 26  2  0  0  0  0
 27 19  1  0  0  0  0
 28 19  1  0  0  0  0
 30 20  1  0  0  0  0
 33 21  1  0  0  0  0
 37 24  1  0  0  0  0
 38 25  1  0  0  0  0
 39 38  1  0  0  0  0
 39 51  1  1  0  0  0
 39 47  1  0  0  0  0
 40 39  1  0  0  0  0
 41 40  1  0  0  0  0
 42 54  1  0  0  0  0
 42 41  2  0  0  0  0
 43 42  1  0  0  0  0
 44 43  2  0  0  0  0
 44 45  1  0  0  0  0
 45 46  2  0  0  0  0
 46 41  1  0  0  0  0
 46 58  1  0  0  0  0
 47 49  1  0  0  0  0
 48 47  2  0  0  0  0
 50 38  1  0  0  0  0
 52 40  1  0  0  0  0
 53 40  1  0  0  0  0
 55 43  1  0  0  0  0
 56 44  1  0  0  0  0
 57 45  1  0  0  0  0
M  END
$$$$
