HLH.pdb
 OpenBabel07022418373D

 55 56  0  0  1  0  0  0  0  0999 V2000
    3.9520   -0.4550   -0.2010 N   0  0  0  0  0  0  0  0  0  0  0  0
    2.5610   -0.2540   -0.5440 C   0  0  1  0  0  0  0  0  0  0  0  0
    1.9920   -1.4710   -1.2160 C   0  0  0  0  0  0  0  0  0  0  0  0
    2.7840   -1.7210   -2.4690 C   0  0  0  0  0  0  0  0  0  0  0  0
    3.8460   -0.9960   -2.9640 C   0  0  0  0  0  0  0  0  0  0  0  0
    4.2770   -1.5500   -4.1180 N   0  0  0  0  0  0  0  0  0  0  0  0
    3.4890   -2.6010   -4.3240 C   0  0  0  0  0  0  0  0  0  0  0  0
    2.5780   -2.7300   -3.3460 N   0  0  0  0  0  0  0  0  0  0  0  0
    1.8240    0.1480    0.6630 C   0  0  0  0  0  0  0  0  0  0  0  0
    2.4530    0.2560    1.7450 O   0  0  0  0  0  0  0  0  0  0  0  0
    3.9800   -0.8430    0.7700 H   0  0  0  0  0  0  0  0  0  0  0  0
    4.3950    0.4890   -0.1560 H   0  0  0  0  0  0  0  0  0  0  0  0
    2.5140    0.5740   -1.2900 H   0  0  0  0  0  0  0  0  0  0  0  0
    0.9550   -1.2810   -1.5590 H   0  0  0  0  0  0  0  0  0  0  0  0
    1.9880   -2.3720   -0.6100 H   0  0  0  0  0  0  0  0  0  0  0  0
    4.2900   -0.1130   -2.5220 H   0  0  0  0  0  0  0  0  0  0  0  0
    5.0540   -1.2580   -4.7480 H   0  0  0  0  0  0  0  0  0  0  0  0
    3.5700   -3.2800   -5.1850 H   0  0  0  0  0  0  0  0  0  0  0  0
   -2.1000    4.1140    2.7680 C   0  0  0  0  0  0  0  0  0  0  0  0
   -1.5870    2.6860    2.9990 C   0  0  0  0  0  0  0  0  0  0  0  0
   -0.7500    2.7370    4.2600 C   0  0  0  0  0  0  0  0  0  0  0  0
   -0.8300    2.1990    1.7930 C   0  0  0  0  0  0  0  0  0  0  0  0
   -0.2880    0.8290    1.9140 C   0  0  2  0  0  0  0  0  0  0  0  0
    0.4410    0.4260    0.6980 N   0  0  0  0  0  0  0  0  0  0  0  0
   -1.2140   -0.2420    2.2700 C   0  0  0  0  0  0  0  0  0  0  0  0
   -1.9120   -0.1130    3.3020 O   0  0  0  0  0  0  0  0  0  0  0  0
   -2.6400    4.1780    1.8000 H   0  0  0  0  0  0  0  0  0  0  0  0
   -2.7900    4.3920    3.5710 H   0  0  0  0  0  0  0  0  0  0  0  0
   -1.2130    4.7700    2.8200 H   0  0  0  0  0  0  0  0  0  0  0  0
   -2.5080    2.0820    3.1530 H   0  0  0  0  0  0  0  0  0  0  0  0
   -1.4470    2.7750    5.1340 H   0  0  0  0  0  0  0  0  0  0  0  0
   -0.0340    3.5630    4.2600 H   0  0  0  0  0  0  0  0  0  0  0  0
   -0.2220    1.7690    4.3490 H   0  0  0  0  0  0  0  0  0  0  0  0
    0.0350    2.9050    1.6130 H   0  0  0  0  0  0  0  0  0  0  0  0
   -1.4920    2.3660    0.9230 H   0  0  0  0  0  0  0  0  0  0  0  0
    0.5070    0.8450    2.7050 H   0  0  0  0  0  0  0  0  0  0  0  0
   -0.0900    0.3400   -0.1930 H   0  0  0  0  0  0  0  0  0  0  0  0
   -1.3920   -1.4420    1.5300 N   0  0  0  0  0  0  0  0  0  0  0  0
   -2.3280   -2.4740    1.9330 C   0  0  1  0  0  0  0  0  0  0  0  0
   -3.4260   -2.6290    0.9080 C   0  0  0  0  0  0  0  0  0  0  0  0
   -2.8840   -3.0060   -0.4260 C   0  0  0  0  0  0  0  0  0  0  0  0
   -2.6910   -4.2910   -0.8670 C   0  0  0  0  0  0  0  0  0  0  0  0
   -2.1910   -4.2260   -2.1090 N   0  0  0  0  0  0  0  0  0  0  0  0
   -2.0780   -2.9280   -2.4250 C   0  0  0  0  0  0  0  0  0  0  0  0
   -2.5000   -2.1820   -1.4010 N   0  0  0  0  0  0  0  0  0  0  0  0
   -1.6010   -3.7400    2.0810 C   0  0  0  0  0  0  0  0  0  0  0  0
   -2.2590   -4.7650    2.4320 O   0  0  0  0  0  0  0  0  0  0  0  0
   -0.2270   -3.8380    1.8490 O   0  0  0  0  0  0  0  0  0  0  0  0
   -0.8460   -1.5970    0.6810 H   0  0  0  0  0  0  0  0  0  0  0  0
   -2.8140   -2.1200    2.8670 H   0  0  0  0  0  0  0  0  0  0  0  0
   -4.0870   -3.4470    1.2370 H   0  0  0  0  0  0  0  0  0  0  0  0
   -4.0240   -1.7170    0.8120 H   0  0  0  0  0  0  0  0  0  0  0  0
   -2.8940   -5.2300   -0.3380 H   0  0  0  0  0  0  0  0  0  0  0  0
   -1.9240   -5.0290   -2.7490 H   0  0  0  0  0  0  0  0  0  0  0  0
   -1.6890   -2.5860   -3.3980 H   0  0  0  0  0  0  0  0  0  0  0  0
  1 12  1  0  0  0  0
  1 11  1  0  0  0  0
  2 13  1  6  0  0  0
  2  1  1  0  0  0  0
  2  9  1  0  0  0  0
  3 15  1  0  0  0  0
  3  2  1  0  0  0  0
  4  3  1  0  0  0  0
  5 16  1  0  0  0  0
  5  4  2  0  0  0  0
  6  5  1  0  0  0  0
  7  6  1  0  0  0  0
  7  8  2  0  0  0  0
  8  4  1  0  0  0  0
  9 24  1  0  0  0  0
  9 10  2  0  0  0  0
 14  3  1  0  0  0  0
 17  6  1  0  0  0  0
 18  7  1  0  0  0  0
 19 29  1  0  0  0  0
 19 20  1  0  0  0  0
 19 28  1  0  0  0  0
 20 30  1  0  0  0  0
 20 21  1  0  0  0  0
 21 32  1  0  0  0  0
 21 33  1  0  0  0  0
 21 31  1  0  0  0  0
 22 23  1  0  0  0  0
 22 20  1  0  0  0  0
 23 25  1  0  0  0  0
 23 36  1  1  0  0  0
 24 23  1  0  0  0  0
 25 26  2  0  0  0  0
 27 19  1  0  0  0  0
 34 22  1  0  0  0  0
 35 22  1  0  0  0  0
 37 24  1  0  0  0  0
 38 39  1  0  0  0  0
 38 25  1  0  0  0  0
 39 46  1  0  0  0  0
 39 50  1  1  0  0  0
 40 51  1  0  0  0  0
 40 39  1  0  0  0  0
 41 40  1  0  0  0  0
 42 41  2  0  0  0  0
 42 53  1  0  0  0  0
 43 42  1  0  0  0  0
 44 43  1  0  0  0  0
 44 45  2  0  0  0  0
 45 41  1  0  0  0  0
 46 47  1  0  0  0  0
 48 46  2  0  0  0  0
 49 38  1  0  0  0  0
 52 40  1  0  0  0  0
 54 43  1  0  0  0  0
 55 44  1  0  0  0  0
M  END
$$$$
