HLI.pdb
 OpenBabel07022418373D

 57 57  0  0  1  0  0  0  0  0999 V2000
    0.1720   -1.2950    5.6070 N   0  0  0  0  0  0  0  0  0  0  0  0
    0.4540   -0.2560    4.6370 C   0  0  1  0  0  0  0  0  0  0  0  0
    1.9200   -0.0090    4.5660 C   0  0  0  0  0  0  0  0  0  0  0  0
    2.7300   -1.1700    4.1810 C   0  0  0  0  0  0  0  0  0  0  0  0
    3.1510   -1.5760    2.9240 C   0  0  0  0  0  0  0  0  0  0  0  0
    3.8750   -2.6790    3.1210 N   0  0  0  0  0  0  0  0  0  0  0  0
    3.9200   -2.9670    4.4200 C   0  0  0  0  0  0  0  0  0  0  0  0
    3.2130   -2.0390    5.1100 N   0  0  0  0  0  0  0  0  0  0  0  0
   -0.2680   -0.5050    3.3960 C   0  0  0  0  0  0  0  0  0  0  0  0
   -1.1770   -1.4140    3.3110 O   0  0  0  0  0  0  0  0  0  0  0  0
   -0.3810   -2.0800    5.2210 H   0  0  0  0  0  0  0  0  0  0  0  0
   -0.1210   -0.9420    6.5190 H   0  0  0  0  0  0  0  0  0  0  0  0
    0.0400    0.6960    5.1440 H   0  0  0  0  0  0  0  0  0  0  0  0
    2.1650    0.8820    3.9390 H   0  0  0  0  0  0  0  0  0  0  0  0
    2.2180    0.3330    5.6110 H   0  0  0  0  0  0  0  0  0  0  0  0
    2.9100   -1.0610    2.0030 H   0  0  0  0  0  0  0  0  0  0  0  0
    4.3390   -3.2330    2.3510 H   0  0  0  0  0  0  0  0  0  0  0  0
    4.4090   -3.7920    4.9320 H   0  0  0  0  0  0  0  0  0  0  0  0
   -0.5990    3.0730    1.5990 C   0  0  0  0  0  0  0  0  0  0  0  0
   -1.2810    2.4290    0.4220 C   0  0  0  0  0  0  0  0  0  0  0  0
   -0.5180    2.7000   -0.8500 C   0  0  0  0  0  0  0  0  0  0  0  0
   -1.7640    1.0570    0.6150 C   0  0  0  0  0  0  0  0  0  0  0  0
   -0.7980   -0.0260    0.9590 C   0  0  2  0  0  0  0  0  0  0  0  0
   -0.0750    0.1920    2.1740 N   0  0  0  0  0  0  0  0  0  0  0  0
   -0.0370   -0.5950   -0.1500 C   0  0  0  0  0  0  0  0  0  0  0  0
    1.1670   -0.8570   -0.0360 O   0  0  0  0  0  0  0  0  0  0  0  0
    0.4860    3.1660    1.3920 H   0  0  0  0  0  0  0  0  0  0  0  0
   -0.9240    4.1600    1.7090 H   0  0  0  0  0  0  0  0  0  0  0  0
   -0.8570    2.6350    2.5650 H   0  0  0  0  0  0  0  0  0  0  0  0
   -2.2290    3.0490    0.2790 H   0  0  0  0  0  0  0  0  0  0  0  0
   -1.1730    2.5860   -1.7290 H   0  0  0  0  0  0  0  0  0  0  0  0
    0.4540    2.2260   -0.9010 H   0  0  0  0  0  0  0  0  0  0  0  0
   -0.2990    3.8140   -0.8190 H   0  0  0  0  0  0  0  0  0  0  0  0
   -2.5190    1.1020    1.4630 H   0  0  0  0  0  0  0  0  0  0  0  0
   -2.3760    0.7490   -0.2550 H   0  0  0  0  0  0  0  0  0  0  0  0
   -1.5030   -0.8950    1.2420 H   0  0  0  0  0  0  0  0  0  0  0  0
    0.6860    0.9280    2.1370 H   0  0  0  0  0  0  0  0  0  0  0  0
   -2.7260   -3.6650   -4.0300 C   0  0  0  0  0  0  0  0  0  0  0  0
   -2.0900   -2.3900   -3.4920 C   0  0  0  0  0  0  0  0  0  0  0  0
   -0.6830   -2.6850   -3.0360 C   0  0  2  0  0  0  0  0  0  0  0  0
   -0.7410   -3.7180   -1.9560 C   0  0  0  0  0  0  0  0  0  0  0  0
    0.0060   -1.4410   -2.5200 C   0  0  2  0  0  0  0  0  0  0  0  0
   -0.6860   -0.8570   -1.3800 N   0  0  0  0  0  0  0  0  0  0  0  0
    0.1130   -0.4500   -3.6230 C   0  0  0  0  0  0  0  0  0  0  0  0
   -0.3280    0.7290   -3.5640 O   0  0  0  0  0  0  0  0  0  0  0  0
    0.7320   -0.7790   -4.8380 O   0  0  0  0  0  0  0  0  0  0  0  0
   -3.4750   -4.0470   -3.2960 H   0  0  0  0  0  0  0  0  0  0  0  0
   -3.3080   -3.4550   -4.9660 H   0  0  0  0  0  0  0  0  0  0  0  0
   -1.9190   -4.3910   -4.2340 H   0  0  0  0  0  0  0  0  0  0  0  0
   -2.0960   -1.6670   -4.3500 H   0  0  0  0  0  0  0  0  0  0  0  0
   -2.6780   -2.0290   -2.6240 H   0  0  0  0  0  0  0  0  0  0  0  0
   -0.1100   -3.0430   -3.8950 H   0  0  0  0  0  0  0  0  0  0  0  0
   -1.6280   -4.3960   -2.1390 H   0  0  0  0  0  0  0  0  0  0  0  0
   -0.9430   -3.2560   -0.9620 H   0  0  0  0  0  0  0  0  0  0  0  0
    0.1470   -4.4040   -1.9530 H   0  0  0  0  0  0  0  0  0  0  0  0
    1.0500   -1.6700   -2.2100 H   0  0  0  0  0  0  0  0  0  0  0  0
   -1.7010   -0.6440   -1.5460 H   0  0  0  0  0  0  0  0  0  0  0  0
  1 12  1  0  0  0  0
  2 13  1  1  0  0  0
  2  1  1  0  0  0  0
  3  2  1  0  0  0  0
  3 15  1  0  0  0  0
  4  3  1  0  0  0  0
  4  8  1  0  0  0  0
  5  6  1  0  0  0  0
  5  4  2  0  0  0  0
  6  7  1  0  0  0  0
  7 18  1  0  0  0  0
  7  8  2  0  0  0  0
  9  2  1  0  0  0  0
 10  9  2  0  0  0  0
 11  1  1  0  0  0  0
 14  3  1  0  0  0  0
 16  5  1  0  0  0  0
 17  6  1  0  0  0  0
 19 28  1  0  0  0  0
 19 29  1  0  0  0  0
 20 22  1  0  0  0  0
 20 19  1  0  0  0  0
 21 33  1  0  0  0  0
 21 20  1  0  0  0  0
 22 23  1  0  0  0  0
 22 34  1  0  0  0  0
 23 36  1  1  0  0  0
 23 24  1  0  0  0  0
 24  9  1  0  0  0  0
 25 26  2  0  0  0  0
 25 23  1  0  0  0  0
 27 19  1  0  0  0  0
 30 20  1  0  0  0  0
 31 21  1  0  0  0  0
 32 21  1  0  0  0  0
 35 22  1  0  0  0  0
 37 24  1  0  0  0  0
 38 39  1  0  0  0  0
 38 47  1  0  0  0  0
 39 40  1  0  0  0  0
 39 51  1  0  0  0  0
 40 52  1  6  0  0  0
 40 42  1  0  0  0  0
 40 41  1  0  0  0  0
 41 55  1  0  0  0  0
 41 54  1  0  0  0  0
 42 56  1  1  0  0  0
 42 43  1  0  0  0  0
 43 25  1  0  0  0  0
 44 45  1  0  0  0  0
 44 42  1  0  0  0  0
 46 44  2  0  0  0  0
 48 38  1  0  0  0  0
 49 38  1  0  0  0  0
 50 39  1  0  0  0  0
 53 41  1  0  0  0  0
 57 43  1  0  0  0  0
M  END
$$$$
