HLK.pdb
 OpenBabel07022418373D

 59 59  0  0  1  0  0  0  0  0999 V2000
    4.1140    0.3280    2.7280 N   0  0  0  0  0  0  0  0  0  0  0  0
    3.1670    0.9630    1.8130 C   0  0  1  0  0  0  0  0  0  0  0  0
    3.7620    0.8030    0.4210 C   0  0  0  0  0  0  0  0  0  0  0  0
    5.0790    1.4700    0.3870 C   0  0  0  0  0  0  0  0  0  0  0  0
    5.7430    2.1410    1.3660 C   0  0  0  0  0  0  0  0  0  0  0  0
    6.9060    2.5690    0.8560 N   0  0  0  0  0  0  0  0  0  0  0  0
    6.9810    2.1770   -0.4240 C   0  0  0  0  0  0  0  0  0  0  0  0
    5.8710    1.5060   -0.7190 N   0  0  0  0  0  0  0  0  0  0  0  0
    1.8860    0.2390    1.9340 C   0  0  0  0  0  0  0  0  0  0  0  0
    1.7330   -0.7470    2.7190 O   0  0  0  0  0  0  0  0  0  0  0  0
    3.7220    0.3760    3.6980 H   0  0  0  0  0  0  0  0  0  0  0  0
    4.1690   -0.6730    2.4360 H   0  0  0  0  0  0  0  0  0  0  0  0
    3.0280    2.0280    2.0740 H   0  0  0  0  0  0  0  0  0  0  0  0
    3.1340    1.2600   -0.3610 H   0  0  0  0  0  0  0  0  0  0  0  0
    3.9320   -0.2830    0.2800 H   0  0  0  0  0  0  0  0  0  0  0  0
    5.3970    2.2980    2.3630 H   0  0  0  0  0  0  0  0  0  0  0  0
    7.6350    3.1170    1.3700 H   0  0  0  0  0  0  0  0  0  0  0  0
    7.8300    2.4010   -1.0580 H   0  0  0  0  0  0  0  0  0  0  0  0
   -1.4840    0.6690    4.0220 C   0  0  0  0  0  0  0  0  0  0  0  0
   -1.5490    1.6180    2.8470 C   0  0  0  0  0  0  0  0  0  0  0  0
   -0.4540    2.6250    2.9450 C   0  0  0  0  0  0  0  0  0  0  0  0
   -1.6590    0.9270    1.5280 C   0  0  0  0  0  0  0  0  0  0  0  0
   -0.5210    0.0030    1.1980 C   0  0  2  0  0  0  0  0  0  0  0  0
    0.7610    0.6490    1.1440 N   0  0  0  0  0  0  0  0  0  0  0  0
   -0.8360   -0.6080   -0.1200 C   0  0  0  0  0  0  0  0  0  0  0  0
   -0.0020   -0.4910   -1.0480 O   0  0  0  0  0  0  0  0  0  0  0  0
   -1.8760    1.1240    4.9550 H   0  0  0  0  0  0  0  0  0  0  0  0
   -2.0600   -0.2540    3.8460 H   0  0  0  0  0  0  0  0  0  0  0  0
   -0.4180    0.3950    4.2400 H   0  0  0  0  0  0  0  0  0  0  0  0
   -2.5240    2.1760    2.9740 H   0  0  0  0  0  0  0  0  0  0  0  0
   -0.8060    3.4730    3.5670 H   0  0  0  0  0  0  0  0  0  0  0  0
    0.4580    2.2500    3.4480 H   0  0  0  0  0  0  0  0  0  0  0  0
   -0.1870    3.0640    1.9480 H   0  0  0  0  0  0  0  0  0  0  0  0
   -2.5780    0.2890    1.5720 H   0  0  0  0  0  0  0  0  0  0  0  0
   -1.8320    1.6700    0.7530 H   0  0  0  0  0  0  0  0  0  0  0  0
   -0.4800   -0.8320    1.9470 H   0  0  0  0  0  0  0  0  0  0  0  0
    0.8790    1.4590    0.4970 H   0  0  0  0  0  0  0  0  0  0  0  0
   -2.0210   -1.3140   -0.3890 N   0  0  0  0  0  0  0  0  0  0  0  0
   -2.2930   -1.9080   -1.7210 C   0  0  1  0  0  0  0  0  0  0  0  0
   -2.3940   -3.4030   -1.5370 C   0  0  0  0  0  0  0  0  0  0  0  0
   -2.6570   -4.1550   -2.7880 C   0  0  0  0  0  0  0  0  0  0  0  0
   -2.7400   -5.6360   -2.6550 C   0  0  0  0  0  0  0  0  0  0  0  0
   -3.7900   -6.1750   -1.7630 C   0  0  0  0  0  0  0  0  0  0  0  0
   -3.7420   -5.8000   -0.3930 N   0  0  0  0  0  0  0  0  0  0  0  0
   -3.4970   -1.2810   -2.2910 C   0  0  0  0  0  0  0  0  0  0  0  0
   -3.9580   -1.5440   -3.4200 O   0  0  0  0  0  0  0  0  0  0  0  0
   -4.2190   -0.3120   -1.5600 O   0  0  0  0  0  0  0  0  0  0  0  0
   -2.7200   -1.4160    0.3780 H   0  0  0  0  0  0  0  0  0  0  0  0
   -1.4140   -1.6660   -2.3510 H   0  0  0  0  0  0  0  0  0  0  0  0
   -3.2230   -3.5620   -0.8140 H   0  0  0  0  0  0  0  0  0  0  0  0
   -1.4160   -3.7300   -1.1260 H   0  0  0  0  0  0  0  0  0  0  0  0
   -3.5210   -3.7700   -3.3900 H   0  0  0  0  0  0  0  0  0  0  0  0
   -1.7720   -3.9600   -3.4670 H   0  0  0  0  0  0  0  0  0  0  0  0
   -1.7210   -6.0240   -2.4450 H   0  0  0  0  0  0  0  0  0  0  0  0
   -2.9700   -6.0290   -3.6900 H   0  0  0  0  0  0  0  0  0  0  0  0
   -4.7870   -5.8820   -2.1610 H   0  0  0  0  0  0  0  0  0  0  0  0
   -3.7280   -7.2940   -1.8220 H   0  0  0  0  0  0  0  0  0  0  0  0
   -4.3350   -6.4960    0.1460 H   0  0  0  0  0  0  0  0  0  0  0  0
   -2.8000   -5.8500    0.0470 H   0  0  0  0  0  0  0  0  0  0  0  0
  1 11  1  0  0  0  0
  2  9  1  0  0  0  0
  2 13  1  1  0  0  0
  2  1  1  0  0  0  0
  3  2  1  0  0  0  0
  4  3  1  0  0  0  0
  4  5  2  0  0  0  0
  5 16  1  0  0  0  0
  6  5  1  0  0  0  0
  6 17  1  0  0  0  0
  7  6  1  0  0  0  0
  8  7  2  0  0  0  0
  8  4  1  0  0  0  0
  9 10  2  0  0  0  0
 12  1  1  0  0  0  0
 14  3  1  0  0  0  0
 15  3  1  0  0  0  0
 18  7  1  0  0  0  0
 19 29  1  0  0  0  0
 19 27  1  0  0  0  0
 20 21  1  0  0  0  0
 20 30  1  0  0  0  0
 20 19  1  0  0  0  0
 21 32  1  0  0  0  0
 21 31  1  0  0  0  0
 22 34  1  0  0  0  0
 22 20  1  0  0  0  0
 23 22  1  0  0  0  0
 23 36  1  1  0  0  0
 24 23  1  0  0  0  0
 24  9  1  0  0  0  0
 25 23  1  0  0  0  0
 26 25  2  0  0  0  0
 28 19  1  0  0  0  0
 33 21  1  0  0  0  0
 35 22  1  0  0  0  0
 37 24  1  0  0  0  0
 38 25  1  0  0  0  0
 38 48  1  0  0  0  0
 39 49  1  6  0  0  0
 39 40  1  0  0  0  0
 39 38  1  0  0  0  0
 40 51  1  0  0  0  0
 40 50  1  0  0  0  0
 41 42  1  0  0  0  0
 41 40  1  0  0  0  0
 42 54  1  0  0  0  0
 42 43  1  0  0  0  0
 43 44  1  0  0  0  0
 44 59  1  0  0  0  0
 44 58  1  0  0  0  0
 45 39  1  0  0  0  0
 45 47  1  0  0  0  0
 46 45  2  0  0  0  0
 52 41  1  0  0  0  0
 53 41  1  0  0  0  0
 55 42  1  0  0  0  0
 56 43  1  0  0  0  0
 57 43  1  0  0  0  0
M  END
$$$$
