HLM.pdb
 OpenBabel07022418373D

 55 55  0  0  1  0  0  0  0  0999 V2000
    0.9500    1.5670    3.9520 N   0  0  0  0  0  0  0  0  0  0  0  0
    1.7000    1.9140    2.7340 C   0  0  1  0  0  0  0  0  0  0  0  0
    3.1490    2.0060    3.0050 C   0  0  0  0  0  0  0  0  0  0  0  0
    3.9400    2.4560    1.8380 C   0  0  0  0  0  0  0  0  0  0  0  0
    3.5780    2.9220    0.6040 C   0  0  0  0  0  0  0  0  0  0  0  0
    4.6760    3.2740   -0.1150 N   0  0  0  0  0  0  0  0  0  0  0  0
    5.7260    3.0300    0.6630 C   0  0  0  0  0  0  0  0  0  0  0  0
    5.3120    2.5420    1.8340 N   0  0  0  0  0  0  0  0  0  0  0  0
    1.3760    0.8210    1.7470 C   0  0  0  0  0  0  0  0  0  0  0  0
    2.1560    0.5700    0.8220 O   0  0  0  0  0  0  0  0  0  0  0  0
    0.9720    2.3920    4.5810 H   0  0  0  0  0  0  0  0  0  0  0  0
    1.2780    0.7040    4.3890 H   0  0  0  0  0  0  0  0  0  0  0  0
    1.2970    2.8580    2.3610 H   0  0  0  0  0  0  0  0  0  0  0  0
    3.5750    1.0410    3.4110 H   0  0  0  0  0  0  0  0  0  0  0  0
    3.2790    2.7430    3.8530 H   0  0  0  0  0  0  0  0  0  0  0  0
    2.5890    3.0450    0.2100 H   0  0  0  0  0  0  0  0  0  0  0  0
    4.6620    3.6590   -1.1030 H   0  0  0  0  0  0  0  0  0  0  0  0
    6.7640    3.2230    0.3400 H   0  0  0  0  0  0  0  0  0  0  0  0
    1.8110   -3.0820    1.7310 C   0  0  0  0  0  0  0  0  0  0  0  0
    0.5680   -2.7780    2.4960 C   0  0  0  0  0  0  0  0  0  0  0  0
    0.0400   -4.1210    3.0280 C   0  0  0  0  0  0  0  0  0  0  0  0
   -0.5400   -2.2290    1.6290 C   0  0  0  0  0  0  0  0  0  0  0  0
   -0.1790   -0.9800    0.9400 C   0  0  2  0  0  0  0  0  0  0  0  0
    0.1660    0.0730    1.8720 N   0  0  0  0  0  0  0  0  0  0  0  0
   -1.2100   -0.4510    0.0370 C   0  0  0  0  0  0  0  0  0  0  0  0
   -1.3750    0.8210   -0.0140 O   0  0  0  0  0  0  0  0  0  0  0  0
    2.0580   -4.1760    1.7940 H   0  0  0  0  0  0  0  0  0  0  0  0
    2.6440   -2.4870    2.1780 H   0  0  0  0  0  0  0  0  0  0  0  0
    1.7990   -2.8460    0.6610 H   0  0  0  0  0  0  0  0  0  0  0  0
    0.7550   -2.1560    3.3980 H   0  0  0  0  0  0  0  0  0  0  0  0
   -0.1800   -4.7650    2.1420 H   0  0  0  0  0  0  0  0  0  0  0  0
    0.7510   -4.5730    3.7390 H   0  0  0  0  0  0  0  0  0  0  0  0
   -0.9270   -3.9650    3.5470 H   0  0  0  0  0  0  0  0  0  0  0  0
   -1.4550   -2.0850    2.2670 H   0  0  0  0  0  0  0  0  0  0  0  0
   -0.8120   -3.0560    0.9300 H   0  0  0  0  0  0  0  0  0  0  0  0
    0.7680   -1.2000    0.3150 H   0  0  0  0  0  0  0  0  0  0  0  0
   -0.4570    0.3240    2.6780 H   0  0  0  0  0  0  0  0  0  0  0  0
   -2.8800   -4.1020   -4.8230 C   0  0  0  0  0  0  0  0  0  0  0  0
   -4.4170   -3.6040   -3.9890 S   0  0  0  0  0  0  0  0  0  0  0  0
   -3.9980   -2.6970   -2.4940 C   0  0  0  0  0  0  0  0  0  0  0  0
   -3.3700   -1.3670   -2.8880 C   0  0  0  0  0  0  0  0  0  0  0  0
   -3.0220   -0.5510   -1.6720 C   0  0  2  0  0  0  0  0  0  0  0  0
   -2.0630   -1.2170   -0.8050 N   0  0  0  0  0  0  0  0  0  0  0  0
   -4.2700   -0.2120   -0.8970 C   0  0  0  0  0  0  0  0  0  0  0  0
   -4.3940   -0.6300    0.2510 O   0  0  0  0  0  0  0  0  0  0  0  0
   -5.2210    0.5490   -1.5030 O   0  0  0  0  0  0  0  0  0  0  0  0
   -2.6410   -5.1880   -4.5780 H   0  0  0  0  0  0  0  0  0  0  0  0
   -2.9810   -4.0350   -5.9380 H   0  0  0  0  0  0  0  0  0  0  0  0
   -2.0010   -3.5380   -4.4450 H   0  0  0  0  0  0  0  0  0  0  0  0
   -4.9340   -2.5420   -1.9050 H   0  0  0  0  0  0  0  0  0  0  0  0
   -3.2400   -3.3090   -1.9500 H   0  0  0  0  0  0  0  0  0  0  0  0
   -2.4280   -1.6100   -3.4180 H   0  0  0  0  0  0  0  0  0  0  0  0
   -4.0480   -0.8030   -3.5540 H   0  0  0  0  0  0  0  0  0  0  0  0
   -2.6160    0.4240   -1.9620 H   0  0  0  0  0  0  0  0  0  0  0  0
   -1.9730   -2.2560   -0.7660 H   0  0  0  0  0  0  0  0  0  0  0  0
  1 12  1  0  0  0  0
  1 11  1  0  0  0  0
  2 13  1  6  0  0  0
  2  3  1  0  0  0  0
  2  1  1  0  0  0  0
  3 14  1  0  0  0  0
  3 15  1  0  0  0  0
  4  3  1  0  0  0  0
  5  4  2  0  0  0  0
  6  5  1  0  0  0  0
  6  7  1  0  0  0  0
  7  8  2  0  0  0  0
  8  4  1  0  0  0  0
  9 24  1  0  0  0  0
  9  2  1  0  0  0  0
 10  9  2  0  0  0  0
 16  5  1  0  0  0  0
 17  6  1  0  0  0  0
 18  7  1  0  0  0  0
 19 27  1  0  0  0  0
 19 28  1  0  0  0  0
 19 20  1  0  0  0  0
 20 21  1  0  0  0  0
 20 30  1  0  0  0  0
 21 33  1  0  0  0  0
 21 32  1  0  0  0  0
 22 34  1  0  0  0  0
 22 20  1  0  0  0  0
 23 36  1  6  0  0  0
 23 22  1  0  0  0  0
 23 24  1  0  0  0  0
 24 37  1  0  0  0  0
 25 23  1  0  0  0  0
 26 25  2  0  0  0  0
 29 19  1  0  0  0  0
 31 21  1  0  0  0  0
 35 22  1  0  0  0  0
 38 47  1  0  0  0  0
 38 49  1  0  0  0  0
 38 39  1  0  0  0  0
 39 40  1  0  0  0  0
 40 51  1  0  0  0  0
 40 50  1  0  0  0  0
 41 40  1  0  0  0  0
 41 42  1  0  0  0  0
 42 54  1  6  0  0  0
 42 44  1  0  0  0  0
 42 43  1  0  0  0  0
 43 55  1  0  0  0  0
 43 25  1  0  0  0  0
 44 45  1  0  0  0  0
 46 44  2  0  0  0  0
 48 38  1  0  0  0  0
 52 41  1  0  0  0  0
 53 41  1  0  0  0  0
M  END
$$$$
