HLN.pdb
 OpenBabel07022418373D

 52 52  0  0  1  0  0  0  0  0999 V2000
    0.0760   -0.1080    4.5960 N   0  0  0  0  0  0  0  0  0  0  0  0
    0.9810    0.8320    3.9130 C   0  0  1  0  0  0  0  0  0  0  0  0
    2.3580    0.5850    4.4390 C   0  0  0  0  0  0  0  0  0  0  0  0
    3.3870    1.5030    3.9310 C   0  0  0  0  0  0  0  0  0  0  0  0
    3.2710    2.6320    3.1710 C   0  0  0  0  0  0  0  0  0  0  0  0
    4.4930    3.2020    2.9960 N   0  0  0  0  0  0  0  0  0  0  0  0
    5.3620    2.4250    3.6500 C   0  0  0  0  0  0  0  0  0  0  0  0
    4.7310    1.4010    4.2200 N   0  0  0  0  0  0  0  0  0  0  0  0
    0.9930    0.3680    2.4560 C   0  0  0  0  0  0  0  0  0  0  0  0
    1.6630    0.9170    1.5640 O   0  0  0  0  0  0  0  0  0  0  0  0
    0.1630    0.0900    5.6240 H   0  0  0  0  0  0  0  0  0  0  0  0
   -0.9000    0.1440    4.3000 H   0  0  0  0  0  0  0  0  0  0  0  0
    0.6960    1.8560    3.9380 H   0  0  0  0  0  0  0  0  0  0  0  0
    2.7090   -0.4560    4.2470 H   0  0  0  0  0  0  0  0  0  0  0  0
    2.3100    0.6760    5.5530 H   0  0  0  0  0  0  0  0  0  0  0  0
    2.3550    3.0570    2.7740 H   0  0  0  0  0  0  0  0  0  0  0  0
    4.6500    4.0840    2.4420 H   0  0  0  0  0  0  0  0  0  0  0  0
    6.4290    2.6170    3.6990 H   0  0  0  0  0  0  0  0  0  0  0  0
    1.8090   -2.6130   -1.7080 C   0  0  0  0  0  0  0  0  0  0  0  0
    1.0700   -3.3080   -0.5940 C   0  0  0  0  0  0  0  0  0  0  0  0
   -0.1150   -4.0310   -1.1470 C   0  0  0  0  0  0  0  0  0  0  0  0
    0.8900   -2.5370    0.6420 C   0  0  0  0  0  0  0  0  0  0  0  0
    0.1850   -1.2400    0.6510 C   0  0  2  0  0  0  0  0  0  0  0  0
    0.2120   -0.7410    2.0670 N   0  0  0  0  0  0  0  0  0  0  0  0
   -1.1770   -1.1350    0.1530 C   0  0  0  0  0  0  0  0  0  0  0  0
   -2.1080   -0.8690    1.0170 O   0  0  0  0  0  0  0  0  0  0  0  0
    1.8370   -3.3360   -2.5690 H   0  0  0  0  0  0  0  0  0  0  0  0
    2.8920   -2.4590   -1.4460 H   0  0  0  0  0  0  0  0  0  0  0  0
    1.3400   -1.6980   -2.0830 H   0  0  0  0  0  0  0  0  0  0  0  0
    1.8110   -4.1860   -0.3430 H   0  0  0  0  0  0  0  0  0  0  0  0
   -0.3090   -3.7290   -2.2170 H   0  0  0  0  0  0  0  0  0  0  0  0
   -0.9960   -3.8680   -0.5020 H   0  0  0  0  0  0  0  0  0  0  0  0
    0.0370   -5.1470   -1.2230 H   0  0  0  0  0  0  0  0  0  0  0  0
    1.9470   -2.2950    1.0170 H   0  0  0  0  0  0  0  0  0  0  0  0
    0.5380   -3.2240    1.4750 H   0  0  0  0  0  0  0  0  0  0  0  0
    0.8260   -0.5140    0.1060 H   0  0  0  0  0  0  0  0  0  0  0  0
   -0.3610   -1.2390    2.7480 H   0  0  0  0  0  0  0  0  0  0  0  0
   -5.5980    0.7990   -1.7250 N   0  0  0  0  0  0  0  0  0  0  0  0
   -4.7100    0.2380   -2.6740 C   0  0  0  0  0  0  0  0  0  0  0  0
   -5.1350   -0.1600   -3.7830 O   0  0  0  0  0  0  0  0  0  0  0  0
   -3.2820    0.1240   -2.3440 C   0  0  0  0  0  0  0  0  0  0  0  0
   -3.0650   -1.1190   -1.5050 C   0  0  2  0  0  0  0  0  0  0  0  0
   -1.6640   -1.2700   -1.1600 N   0  0  0  0  0  0  0  0  0  0  0  0
   -3.6990   -2.2790   -2.0970 C   0  0  0  0  0  0  0  0  0  0  0  0
   -4.9370   -2.3090   -2.3920 O   0  0  0  0  0  0  0  0  0  0  0  0
   -3.0050   -3.4370   -2.3850 O   0  0  0  0  0  0  0  0  0  0  0  0
   -5.2790    1.0360   -0.7640 H   0  0  0  0  0  0  0  0  0  0  0  0
   -6.5780    0.9820   -1.9760 H   0  0  0  0  0  0  0  0  0  0  0  0
   -3.0210    1.0530   -1.7630 H   0  0  0  0  0  0  0  0  0  0  0  0
   -2.7140    0.0640   -3.2970 H   0  0  0  0  0  0  0  0  0  0  0  0
   -3.6040   -0.8960   -0.5370 H   0  0  0  0  0  0  0  0  0  0  0  0
   -1.0010   -1.4680   -1.9090 H   0  0  0  0  0  0  0  0  0  0  0  0
  1 11  1  0  0  0  0
  2 13  1  1  0  0  0
  2  3  1  0  0  0  0
  2  1  1  0  0  0  0
  3 15  1  0  0  0  0
  4  8  1  0  0  0  0
  4  3  1  0  0  0  0
  5  4  2  0  0  0  0
  6  5  1  0  0  0  0
  6  7  1  0  0  0  0
  7 18  1  0  0  0  0
  7  8  2  0  0  0  0
  9  2  1  0  0  0  0
 10  9  2  0  0  0  0
 12  1  1  0  0  0  0
 14  3  1  0  0  0  0
 16  5  1  0  0  0  0
 17  6  1  0  0  0  0
 19 28  1  0  0  0  0
 19 20  1  0  0  0  0
 20 30  1  0  0  0  0
 20 22  1  0  0  0  0
 21 20  1  0  0  0  0
 21 32  1  0  0  0  0
 22 23  1  0  0  0  0
 22 34  1  0  0  0  0
 22 35  1  0  0  0  0
 23 36  1  6  0  0  0
 23 24  1  0  0  0  0
 24  9  1  0  0  0  0
 24 37  1  0  0  0  0
 25 23  1  0  0  0  0
 25 26  2  0  0  0  0
 27 19  1  0  0  0  0
 29 19  1  0  0  0  0
 31 21  1  0  0  0  0
 33 21  1  0  0  0  0
 38 47  1  0  0  0  0
 39 41  1  0  0  0  0
 39 38  1  0  0  0  0
 40 39  2  0  0  0  0
 41 49  1  0  0  0  0
 41 42  1  0  0  0  0
 42 43  1  0  0  0  0
 42 51  1  1  0  0  0
 43 25  1  0  0  0  0
 44 42  1  0  0  0  0
 45 44  2  0  0  0  0
 46 44  1  0  0  0  0
 48 38  1  0  0  0  0
 50 41  1  0  0  0  0
 52 43  1  0  0  0  0
M  END
$$$$
