HLQ.pdb
 OpenBabel07022418373D

 55 55  0  0  1  0  0  0  0  0999 V2000
    2.2820   -0.9280    3.0320 N   0  0  0  0  0  0  0  0  0  0  0  0
    2.0610   -0.3270    1.7390 C   0  0  1  0  0  0  0  0  0  0  0  0
    2.6770   -1.2330    0.6950 C   0  0  0  0  0  0  0  0  0  0  0  0
    4.1260   -1.4110    0.9010 C   0  0  0  0  0  0  0  0  0  0  0  0
    4.9480   -0.8900    1.8660 C   0  0  0  0  0  0  0  0  0  0  0  0
    6.1980   -1.3400    1.6400 N   0  0  0  0  0  0  0  0  0  0  0  0
    6.1760   -2.1360    0.5490 C   0  0  0  0  0  0  0  0  0  0  0  0
    4.9020   -2.1690    0.1090 N   0  0  0  0  0  0  0  0  0  0  0  0
    0.5740   -0.2890    1.4530 C   0  0  0  0  0  0  0  0  0  0  0  0
    0.2110    0.2120    0.3520 O   0  0  0  0  0  0  0  0  0  0  0  0
    2.5100   -0.2650    3.7800 H   0  0  0  0  0  0  0  0  0  0  0  0
    2.8450   -1.7920    3.0070 H   0  0  0  0  0  0  0  0  0  0  0  0
    2.4850    0.6750    1.7380 H   0  0  0  0  0  0  0  0  0  0  0  0
    2.1430   -2.1980    0.6330 H   0  0  0  0  0  0  0  0  0  0  0  0
    2.5600   -0.7600   -0.3220 H   0  0  0  0  0  0  0  0  0  0  0  0
    4.6530   -0.2320    2.6720 H   0  0  0  0  0  0  0  0  0  0  0  0
    7.0610   -1.1380    2.1830 H   0  0  0  0  0  0  0  0  0  0  0  0
    6.9760   -2.6710    0.0670 H   0  0  0  0  0  0  0  0  0  0  0  0
   -1.0240    2.3110    2.4910 C   0  0  0  0  0  0  0  0  0  0  0  0
   -2.3490    1.6910    2.2120 C   0  0  0  0  0  0  0  0  0  0  0  0
   -2.7480    2.0050    0.7920 C   0  0  0  0  0  0  0  0  0  0  0  0
   -2.5540    0.3090    2.6550 C   0  0  0  0  0  0  0  0  0  0  0  0
   -1.7340   -0.8020    2.1820 C   0  0  2  0  0  0  0  0  0  0  0  0
   -0.3360   -0.8010    2.4030 N   0  0  0  0  0  0  0  0  0  0  0  0
   -2.1850   -1.3750    0.8830 C   0  0  0  0  0  0  0  0  0  0  0  0
   -3.3880   -1.1920    0.5650 O   0  0  0  0  0  0  0  0  0  0  0  0
   -0.4210    2.5510    1.5940 H   0  0  0  0  0  0  0  0  0  0  0  0
   -0.4690    1.7130    3.2540 H   0  0  0  0  0  0  0  0  0  0  0  0
   -1.1820    3.2990    2.9850 H   0  0  0  0  0  0  0  0  0  0  0  0
   -3.1020    2.2950    2.8290 H   0  0  0  0  0  0  0  0  0  0  0  0
   -1.9300    1.8660    0.0600 H   0  0  0  0  0  0  0  0  0  0  0  0
   -3.6720    1.5330    0.4640 H   0  0  0  0  0  0  0  0  0  0  0  0
   -2.9560    3.1180    0.7440 H   0  0  0  0  0  0  0  0  0  0  0  0
   -3.6360    0.0560    2.4240 H   0  0  0  0  0  0  0  0  0  0  0  0
   -2.5830    0.3400    3.7930 H   0  0  0  0  0  0  0  0  0  0  0  0
   -2.0990   -1.7060    2.8730 H   0  0  0  0  0  0  0  0  0  0  0  0
    0.1090   -1.1770    3.2840 H   0  0  0  0  0  0  0  0  0  0  0  0
   -2.3760    1.1200   -3.4940 N   0  0  0  0  0  0  0  0  0  0  0  0
   -2.3590   -0.2450   -3.1350 C   0  0  0  0  0  0  0  0  0  0  0  0
   -3.4420   -0.8510   -3.0140 O   0  0  0  0  0  0  0  0  0  0  0  0
   -1.0570   -0.9050   -2.9150 C   0  0  0  0  0  0  0  0  0  0  0  0
   -1.1730   -2.3320   -2.5010 C   0  0  0  0  0  0  0  0  0  0  0  0
   -1.8820   -2.6450   -1.2650 C   0  0  2  0  0  0  0  0  0  0  0  0
   -1.4020   -2.1080   -0.0260 N   0  0  0  0  0  0  0  0  0  0  0  0
   -1.8970   -4.1410   -1.1160 C   0  0  0  0  0  0  0  0  0  0  0  0
   -1.5340   -4.7080   -0.0580 O   0  0  0  0  0  0  0  0  0  0  0  0
   -2.3210   -4.9370   -2.1680 O   0  0  0  0  0  0  0  0  0  0  0  0
   -3.2850    1.6180   -3.6350 H   0  0  0  0  0  0  0  0  0  0  0  0
   -1.4600    1.6490   -3.6220 H   0  0  0  0  0  0  0  0  0  0  0  0
   -0.5540   -0.9260   -3.9340 H   0  0  0  0  0  0  0  0  0  0  0  0
   -0.4930   -0.2580   -2.2210 H   0  0  0  0  0  0  0  0  0  0  0  0
   -1.7540   -2.8340   -3.3380 H   0  0  0  0  0  0  0  0  0  0  0  0
   -0.1810   -2.8730   -2.5640 H   0  0  0  0  0  0  0  0  0  0  0  0
   -2.9600   -2.3700   -1.3340 H   0  0  0  0  0  0  0  0  0  0  0  0
   -0.4040   -2.3160    0.1940 H   0  0  0  0  0  0  0  0  0  0  0  0
  1 11  1  0  0  0  0
  2 13  1  6  0  0  0
  2  1  1  0  0  0  0
  3  4  1  0  0  0  0
  3  2  1  0  0  0  0
  4  5  2  0  0  0  0
  5 16  1  0  0  0  0
  6  5  1  0  0  0  0
  6 17  1  0  0  0  0
  7  6  1  0  0  0  0
  8  7  2  0  0  0  0
  8  4  1  0  0  0  0
  9  2  1  0  0  0  0
  9 24  1  0  0  0  0
 10  9  2  0  0  0  0
 12  1  1  0  0  0  0
 14  3  1  0  0  0  0
 15  3  1  0  0  0  0
 18  7  1  0  0  0  0
 19 29  1  0  0  0  0
 19 28  1  0  0  0  0
 20 19  1  0  0  0  0
 20 22  1  0  0  0  0
 20 30  1  0  0  0  0
 21 20  1  0  0  0  0
 22 35  1  0  0  0  0
 23 24  1  0  0  0  0
 23 22  1  0  0  0  0
 23 36  1  1  0  0  0
 24 37  1  0  0  0  0
 25 23  1  0  0  0  0
 26 25  2  0  0  0  0
 27 19  1  0  0  0  0
 31 21  1  0  0  0  0
 32 21  1  0  0  0  0
 33 21  1  0  0  0  0
 34 22  1  0  0  0  0
 38 39  1  0  0  0  0
 39 40  2  0  0  0  0
 39 41  1  0  0  0  0
 41 42  1  0  0  0  0
 41 51  1  0  0  0  0
 42 43  1  0  0  0  0
 43 54  1  6  0  0  0
 43 45  1  0  0  0  0
 43 44  1  0  0  0  0
 44 55  1  0  0  0  0
 44 25  1  0  0  0  0
 45 46  1  0  0  0  0
 47 45  2  0  0  0  0
 48 38  1  0  0  0  0
 49 38  1  0  0  0  0
 50 41  1  0  0  0  0
 52 42  1  0  0  0  0
 53 42  1  0  0  0  0
M  END
$$$$
