HLT.pdb
 OpenBabel07022418373D

 52 52  0  0  1  0  0  0  0  0999 V2000
    2.0750    0.0520    3.7650 N   0  0  0  0  0  0  0  0  0  0  0  0
    2.3500    0.8190    2.5260 C   0  0  1  0  0  0  0  0  0  0  0  0
    3.7690    0.5350    2.1990 C   0  0  0  0  0  0  0  0  0  0  0  0
    4.3430    1.2260    1.0480 C   0  0  0  0  0  0  0  0  0  0  0  0
    3.8940    2.2040    0.2010 C   0  0  0  0  0  0  0  0  0  0  0  0
    4.8960    2.4950   -0.6650 N   0  0  0  0  0  0  0  0  0  0  0  0
    5.9510    1.7300   -0.3810 C   0  0  0  0  0  0  0  0  0  0  0  0
    5.6290    0.9660    0.6450 N   0  0  0  0  0  0  0  0  0  0  0  0
    1.3990    0.2300    1.5370 C   0  0  0  0  0  0  0  0  0  0  0  0
    1.4630    0.5510    0.3230 O   0  0  0  0  0  0  0  0  0  0  0  0
    1.1280    0.2920    4.0880 H   0  0  0  0  0  0  0  0  0  0  0  0
    2.1420   -0.9480    3.5250 H   0  0  0  0  0  0  0  0  0  0  0  0
    2.1850    1.8720    2.7440 H   0  0  0  0  0  0  0  0  0  0  0  0
    4.4490    0.7200    3.0810 H   0  0  0  0  0  0  0  0  0  0  0  0
    3.8490   -0.5840    2.0430 H   0  0  0  0  0  0  0  0  0  0  0  0
    2.9130    2.6870    0.2240 H   0  0  0  0  0  0  0  0  0  0  0  0
    4.7880    3.2200   -1.4170 H   0  0  0  0  0  0  0  0  0  0  0  0
    6.8800    1.7600   -0.9160 H   0  0  0  0  0  0  0  0  0  0  0  0
    1.3670   -2.9140   -0.9260 C   0  0  0  0  0  0  0  0  0  0  0  0
    0.7870   -3.3610    0.3980 C   0  0  0  0  0  0  0  0  0  0  0  0
    1.8630   -3.1960    1.4420 C   0  0  0  0  0  0  0  0  0  0  0  0
   -0.5080   -2.7190    0.7270 C   0  0  0  0  0  0  0  0  0  0  0  0
   -0.5140   -1.2380    0.8320 C   0  0  2  0  0  0  0  0  0  0  0  0
    0.3750   -0.7090    1.8610 N   0  0  0  0  0  0  0  0  0  0  0  0
   -1.9140   -0.7180    1.0550 C   0  0  0  0  0  0  0  0  0  0  0  0
   -2.1560    0.0470    2.0120 O   0  0  0  0  0  0  0  0  0  0  0  0
    1.4030   -1.8300   -1.0510 H   0  0  0  0  0  0  0  0  0  0  0  0
    2.4110   -3.2910   -0.9590 H   0  0  0  0  0  0  0  0  0  0  0  0
    0.8430   -3.4240   -1.7860 H   0  0  0  0  0  0  0  0  0  0  0  0
    0.6300   -4.4770    0.2700 H   0  0  0  0  0  0  0  0  0  0  0  0
    2.5600   -2.3730    1.1060 H   0  0  0  0  0  0  0  0  0  0  0  0
    2.5170   -4.1120    1.3970 H   0  0  0  0  0  0  0  0  0  0  0  0
    1.4620   -3.0360    2.4510 H   0  0  0  0  0  0  0  0  0  0  0  0
   -1.2680   -3.0570   -0.0190 H   0  0  0  0  0  0  0  0  0  0  0  0
   -0.8600   -3.1880    1.6950 H   0  0  0  0  0  0  0  0  0  0  0  0
   -0.2030   -0.8040   -0.1390 H   0  0  0  0  0  0  0  0  0  0  0  0
    0.2780   -1.0020    2.8510 H   0  0  0  0  0  0  0  0  0  0  0  0
   -6.0750    0.5500   -1.0340 C   0  0  0  0  0  0  0  0  0  0  0  0
   -4.6560    0.0920   -0.9600 C   0  0  1  0  0  0  0  0  0  0  0  0
   -3.7430    1.1490   -1.0720 O   0  0  0  0  0  0  0  0  0  0  0  0
   -4.3300   -0.6280    0.3390 C   0  0  2  0  0  0  0  0  0  0  0  0
   -2.9500   -1.0870    0.1930 N   0  0  0  0  0  0  0  0  0  0  0  0
   -5.2630   -1.7930    0.4180 C   0  0  0  0  0  0  0  0  0  0  0  0
   -6.4880   -1.6800    0.5440 O   0  0  0  0  0  0  0  0  0  0  0  0
   -4.7280   -3.0770    0.3460 O   0  0  0  0  0  0  0  0  0  0  0  0
   -6.5440    0.5800   -0.0490 H   0  0  0  0  0  0  0  0  0  0  0  0
   -6.0770    1.5560   -1.5430 H   0  0  0  0  0  0  0  0  0  0  0  0
   -6.6080   -0.1230   -1.7620 H   0  0  0  0  0  0  0  0  0  0  0  0
   -4.3900   -0.6300   -1.7790 H   0  0  0  0  0  0  0  0  0  0  0  0
   -3.3280    1.2020   -1.9490 H   0  0  0  0  0  0  0  0  0  0  0  0
   -4.4270    0.0430    1.2180 H   0  0  0  0  0  0  0  0  0  0  0  0
   -2.7260   -1.7270   -0.6010 H   0  0  0  0  0  0  0  0  0  0  0  0
  1 11  1  0  0  0  0
  2 13  1  1  0  0  0
  2  1  1  0  0  0  0
  3  2  1  0  0  0  0
  3 14  1  0  0  0  0
  4  3  1  0  0  0  0
  5 16  1  0  0  0  0
  5  4  2  0  0  0  0
  6  7  1  0  0  0  0
  6  5  1  0  0  0  0
  7  8  2  0  0  0  0
  8  4  1  0  0  0  0
  9 24  1  0  0  0  0
  9  2  1  0  0  0  0
 10  9  2  0  0  0  0
 12  1  1  0  0  0  0
 15  3  1  0  0  0  0
 17  6  1  0  0  0  0
 18  7  1  0  0  0  0
 19 20  1  0  0  0  0
 20 22  1  0  0  0  0
 20 21  1  0  0  0  0
 21 33  1  0  0  0  0
 22 23  1  0  0  0  0
 22 35  1  0  0  0  0
 23 36  1  6  0  0  0
 23 25  1  0  0  0  0
 23 24  1  0  0  0  0
 24 37  1  0  0  0  0
 25 26  2  0  0  0  0
 27 19  1  0  0  0  0
 28 19  1  0  0  0  0
 29 19  1  0  0  0  0
 30 20  1  0  0  0  0
 31 21  1  0  0  0  0
 32 21  1  0  0  0  0
 34 22  1  0  0  0  0
 38 39  1  0  0  0  0
 38 46  1  0  0  0  0
 39 49  1  6  0  0  0
 39 41  1  0  0  0  0
 40 39  1  0  0  0  0
 41 43  1  0  0  0  0
 41 51  1  1  0  0  0
 42 41  1  0  0  0  0
 42 25  1  0  0  0  0
 43 44  1  0  0  0  0
 45 43  2  0  0  0  0
 47 38  1  0  0  0  0
 48 38  1  0  0  0  0
 50 40  1  0  0  0  0
 52 42  1  0  0  0  0
M  END
$$$$
