HLV.pdb
 OpenBabel07022418373D

 54 54  0  0  1  0  0  0  0  0999 V2000
   -0.3190    2.5590    4.5090 N   0  0  0  0  0  0  0  0  0  0  0  0
   -1.1830    1.7700    3.6840 C   0  0  1  0  0  0  0  0  0  0  0  0
   -1.8550    2.5550    2.5830 C   0  0  0  0  0  0  0  0  0  0  0  0
   -0.8740    3.1770    1.6630 C   0  0  0  0  0  0  0  0  0  0  0  0
   -1.2440    3.9420    0.5820 C   0  0  0  0  0  0  0  0  0  0  0  0
   -0.1170    4.3440   -0.0290 N   0  0  0  0  0  0  0  0  0  0  0  0
    0.9200    3.8490    0.6440 C   0  0  0  0  0  0  0  0  0  0  0  0
    0.4600    3.1370    1.6770 N   0  0  0  0  0  0  0  0  0  0  0  0
   -0.4870    0.5650    3.1320 C   0  0  0  0  0  0  0  0  0  0  0  0
    0.7300    0.3320    3.4050 O   0  0  0  0  0  0  0  0  0  0  0  0
    0.6760    2.5720    4.1960 H   0  0  0  0  0  0  0  0  0  0  0  0
   -0.3870    2.2350    5.5000 H   0  0  0  0  0  0  0  0  0  0  0  0
   -1.9990    1.3710    4.3310 H   0  0  0  0  0  0  0  0  0  0  0  0
   -2.5490    3.3020    3.0080 H   0  0  0  0  0  0  0  0  0  0  0  0
   -2.4490    1.8340    1.9860 H   0  0  0  0  0  0  0  0  0  0  0  0
   -2.2640    4.1920    0.2590 H   0  0  0  0  0  0  0  0  0  0  0  0
   -0.1040    4.9390   -0.8800 H   0  0  0  0  0  0  0  0  0  0  0  0
    1.9820    4.0050    0.3880 H   0  0  0  0  0  0  0  0  0  0  0  0
   -0.7780   -4.6260    0.6850 C   0  0  0  0  0  0  0  0  0  0  0  0
   -0.6770   -4.1130    2.0720 C   0  0  0  0  0  0  0  0  0  0  0  0
    0.7090   -4.4190    2.6600 C   0  0  0  0  0  0  0  0  0  0  0  0
   -1.1020   -2.7350    2.3540 C   0  0  0  0  0  0  0  0  0  0  0  0
   -0.4450   -1.5620    1.7430 C   0  0  2  0  0  0  0  0  0  0  0  0
   -1.1600   -0.3440    2.2970 N   0  0  0  0  0  0  0  0  0  0  0  0
   -0.4440   -1.4230    0.2890 C   0  0  0  0  0  0  0  0  0  0  0  0
   -1.2810   -0.5940   -0.2440 O   0  0  0  0  0  0  0  0  0  0  0  0
    0.2150   -4.8670    0.2340 H   0  0  0  0  0  0  0  0  0  0  0  0
   -1.4180   -3.9990    0.0590 H   0  0  0  0  0  0  0  0  0  0  0  0
   -1.2970   -5.6440    0.6690 H   0  0  0  0  0  0  0  0  0  0  0  0
   -1.3570   -4.7880    2.6990 H   0  0  0  0  0  0  0  0  0  0  0  0
    0.7640   -5.4610    3.0350 H   0  0  0  0  0  0  0  0  0  0  0  0
    1.4300   -4.3740    1.8010 H   0  0  0  0  0  0  0  0  0  0  0  0
    0.9760   -3.7390    3.4680 H   0  0  0  0  0  0  0  0  0  0  0  0
   -1.2170   -2.6100    3.4750 H   0  0  0  0  0  0  0  0  0  0  0  0
   -2.2030   -2.6730    2.0150 H   0  0  0  0  0  0  0  0  0  0  0  0
    0.5800   -1.4830    2.1590 H   0  0  0  0  0  0  0  0  0  0  0  0
   -2.1480   -0.1820    2.0570 H   0  0  0  0  0  0  0  0  0  0  0  0
    1.4760   -0.7840   -4.0210 C   0  0  0  0  0  0  0  0  0  0  0  0
    1.5310   -1.1030   -2.5470 C   0  0  0  0  0  0  0  0  0  0  0  0
    1.7900    0.1460   -1.7380 C   0  0  0  0  0  0  0  0  0  0  0  0
    0.2550   -1.7970   -2.0890 C   0  0  2  0  0  0  0  0  0  0  0  0
    0.3750   -2.0750   -0.6620 N   0  0  0  0  0  0  0  0  0  0  0  0
    0.0850   -3.0460   -2.8370 C   0  0  0  0  0  0  0  0  0  0  0  0
    0.0620   -4.2080   -2.3700 O   0  0  0  0  0  0  0  0  0  0  0  0
   -0.0700   -2.9460   -4.2390 O   0  0  0  0  0  0  0  0  0  0  0  0
    0.4280   -0.6270   -4.3430 H   0  0  0  0  0  0  0  0  0  0  0  0
    2.0390    0.1490   -4.2490 H   0  0  0  0  0  0  0  0  0  0  0  0
    1.9270   -1.6280   -4.6070 H   0  0  0  0  0  0  0  0  0  0  0  0
    2.3700   -1.8050   -2.3910 H   0  0  0  0  0  0  0  0  0  0  0  0
    1.8090   -0.1430   -0.6570 H   0  0  0  0  0  0  0  0  0  0  0  0
    1.0360    0.9290   -1.9340 H   0  0  0  0  0  0  0  0  0  0  0  0
    2.7780    0.5400   -2.0440 H   0  0  0  0  0  0  0  0  0  0  0  0
   -0.5960   -1.1210   -2.2970 H   0  0  0  0  0  0  0  0  0  0  0  0
    1.0830   -2.7470   -0.3140 H   0  0  0  0  0  0  0  0  0  0  0  0
  1 12  1  0  0  0  0
  2 13  1  1  0  0  0
  2  1  1  0  0  0  0
  3 14  1  0  0  0  0
  3  2  1  0  0  0  0
  4  8  1  0  0  0  0
  4  3  1  0  0  0  0
  5  4  2  0  0  0  0
  6  5  1  0  0  0  0
  6  7  1  0  0  0  0
  7  8  2  0  0  0  0
  9 10  2  0  0  0  0
  9  2  1  0  0  0  0
 11  1  1  0  0  0  0
 15  3  1  0  0  0  0
 16  5  1  0  0  0  0
 17  6  1  0  0  0  0
 18  7  1  0  0  0  0
 19 20  1  0  0  0  0
 20 22  1  0  0  0  0
 20 21  1  0  0  0  0
 20 30  1  0  0  0  0
 21 31  1  0  0  0  0
 21 33  1  0  0  0  0
 22 34  1  0  0  0  0
 23 36  1  1  0  0  0
 23 24  1  0  0  0  0
 23 22  1  0  0  0  0
 24  9  1  0  0  0  0
 25 23  1  0  0  0  0
 26 25  2  0  0  0  0
 27 19  1  0  0  0  0
 28 19  1  0  0  0  0
 29 19  1  0  0  0  0
 32 21  1  0  0  0  0
 35 22  1  0  0  0  0
 37 24  1  0  0  0  0
 38 39  1  0  0  0  0
 39 49  1  0  0  0  0
 39 41  1  0  0  0  0
 39 40  1  0  0  0  0
 40 50  1  0  0  0  0
 41 53  1  6  0  0  0
 41 42  1  0  0  0  0
 42 54  1  0  0  0  0
 42 25  1  0  0  0  0
 43 44  1  0  0  0  0
 43 41  1  0  0  0  0
 45 43  2  0  0  0  0
 46 38  1  0  0  0  0
 47 38  1  0  0  0  0
 48 38  1  0  0  0  0
 51 40  1  0  0  0  0
 52 40  1  0  0  0  0
M  END
$$$$
