HLW.pdb
 OpenBabel07022418373D

 62 64  0  0  1  0  0  0  0  0999 V2000
    0.8330    4.2030    0.3260 N   0  0  0  0  0  0  0  0  0  0  0  0
    1.9970    3.3560    0.0210 C   0  0  1  0  0  0  0  0  0  0  0  0
    3.0730    3.7700    0.9700 C   0  0  0  0  0  0  0  0  0  0  0  0
    4.3300    3.0450    0.8210 C   0  0  0  0  0  0  0  0  0  0  0  0
    5.4540    3.2780    1.6130 C   0  0  0  0  0  0  0  0  0  0  0  0
    6.4380    2.4560    1.2300 N   0  0  0  0  0  0  0  0  0  0  0  0
    5.9710    1.7060    0.2170 C   0  0  0  0  0  0  0  0  0  0  0  0
    4.7120    2.0750   -0.0100 N   0  0  0  0  0  0  0  0  0  0  0  0
    1.5760    1.9470    0.1300 C   0  0  0  0  0  0  0  0  0  0  0  0
    2.3360    0.9600   -0.1100 O   0  0  0  0  0  0  0  0  0  0  0  0
    0.8470    4.4060    1.3450 H   0  0  0  0  0  0  0  0  0  0  0  0
    1.0280    5.1270   -0.1510 H   0  0  0  0  0  0  0  0  0  0  0  0
    2.2980    3.5240   -1.0520 H   0  0  0  0  0  0  0  0  0  0  0  0
    3.2700    4.8550    0.7680 H   0  0  0  0  0  0  0  0  0  0  0  0
    2.6380    3.7180    2.0010 H   0  0  0  0  0  0  0  0  0  0  0  0
    5.5180    4.0090    2.4100 H   0  0  0  0  0  0  0  0  0  0  0  0
    7.3980    2.3690    1.6070 H   0  0  0  0  0  0  0  0  0  0  0  0
    6.5270    0.9270   -0.3290 H   0  0  0  0  0  0  0  0  0  0  0  0
    1.4470   -0.7890    2.9340 C   0  0  0  0  0  0  0  0  0  0  0  0
    0.3010    0.1850    3.1180 C   0  0  0  0  0  0  0  0  0  0  0  0
    0.8200    1.5670    3.3620 C   0  0  0  0  0  0  0  0  0  0  0  0
   -0.7350    0.0610    2.0530 C   0  0  0  0  0  0  0  0  0  0  0  0
   -0.2770    0.2930    0.6570 C   0  0  2  0  0  0  0  0  0  0  0  0
    0.2430    1.6370    0.5260 N   0  0  0  0  0  0  0  0  0  0  0  0
   -1.3140    0.0890   -0.3570 C   0  0  0  0  0  0  0  0  0  0  0  0
   -1.6050    1.0160   -1.1420 O   0  0  0  0  0  0  0  0  0  0  0  0
    2.4130   -0.2230    2.8820 H   0  0  0  0  0  0  0  0  0  0  0  0
    1.5360   -1.4970    3.7800 H   0  0  0  0  0  0  0  0  0  0  0  0
    1.3320   -1.3960    2.0130 H   0  0  0  0  0  0  0  0  0  0  0  0
   -0.2130   -0.1490    4.0750 H   0  0  0  0  0  0  0  0  0  0  0  0
    0.9240    1.7050    4.4810 H   0  0  0  0  0  0  0  0  0  0  0  0
    0.1380    2.3550    3.0430 H   0  0  0  0  0  0  0  0  0  0  0  0
    1.8630    1.7020    2.9940 H   0  0  0  0  0  0  0  0  0  0  0  0
   -1.5220    0.8370    2.2880 H   0  0  0  0  0  0  0  0  0  0  0  0
   -1.2520   -0.9100    2.1980 H   0  0  0  0  0  0  0  0  0  0  0  0
    0.5730   -0.3740    0.3660 H   0  0  0  0  0  0  0  0  0  0  0  0
   -0.4130    2.4250    0.7330 H   0  0  0  0  0  0  0  0  0  0  0  0
   -1.9900   -1.1470   -0.4560 N   0  0  0  0  0  0  0  0  0  0  0  0
   -3.0210   -1.4280   -1.4210 C   0  0  1  0  0  0  0  0  0  0  0  0
   -2.6070   -2.5420   -2.3580 C   0  0  0  0  0  0  0  0  0  0  0  0
   -2.2750   -3.8050   -1.7270 C   0  0  0  0  0  0  0  0  0  0  0  0
   -0.9630   -4.1920   -1.4290 C   0  0  0  0  0  0  0  0  0  0  0  0
   -0.9920   -5.3720   -0.8310 N   0  0  0  0  0  0  0  0  0  0  0  0
   -2.2650   -5.8210   -0.7020 C   0  0  0  0  0  0  0  0  0  0  0  0
   -2.7810   -6.9710   -0.1650 C   0  0  0  0  0  0  0  0  0  0  0  0
   -4.1290   -7.1880   -0.1700 C   0  0  0  0  0  0  0  0  0  0  0  0
   -4.9510   -6.2290   -0.7240 C   0  0  0  0  0  0  0  0  0  0  0  0
   -4.4250   -5.0760   -1.2610 C   0  0  0  0  0  0  0  0  0  0  0  0
   -3.0490   -4.8250   -1.2690 C   0  0  0  0  0  0  0  0  0  0  0  0
   -4.3570   -1.6480   -0.8670 C   0  0  0  0  0  0  0  0  0  0  0  0
   -4.4980   -1.7260    0.3830 O   0  0  0  0  0  0  0  0  0  0  0  0
   -5.5050   -1.7760   -1.6310 O   0  0  0  0  0  0  0  0  0  0  0  0
   -1.7220   -1.8990    0.2130 H   0  0  0  0  0  0  0  0  0  0  0  0
   -3.1150   -0.4560   -2.0150 H   0  0  0  0  0  0  0  0  0  0  0  0
   -1.7380   -2.1370   -2.9430 H   0  0  0  0  0  0  0  0  0  0  0  0
   -3.4050   -2.6530   -3.1550 H   0  0  0  0  0  0  0  0  0  0  0  0
   -0.0590   -3.6270   -1.6460 H   0  0  0  0  0  0  0  0  0  0  0  0
   -0.1770   -5.9220   -0.4880 H   0  0  0  0  0  0  0  0  0  0  0  0
   -2.1360   -7.7180    0.2670 H   0  0  0  0  0  0  0  0  0  0  0  0
   -4.5490   -8.0960    0.2540 H   0  0  0  0  0  0  0  0  0  0  0  0
   -6.0150   -6.4250   -0.7160 H   0  0  0  0  0  0  0  0  0  0  0  0
   -5.0650   -4.3540   -1.6950 H   0  0  0  0  0  0  0  0  0  0  0  0
  1 11  1  0  0  0  0
  2 13  1  6  0  0  0
  2  9  1  0  0  0  0
  2  1  1  0  0  0  0
  2  3  1  0  0  0  0
  3 15  1  0  0  0  0
  4  3  1  0  0  0  0
  4  5  2  0  0  0  0
  5 16  1  0  0  0  0
  6 17  1  0  0  0  0
  6  5  1  0  0  0  0
  7  6  1  0  0  0  0
  8  7  2  0  0  0  0
  8  4  1  0  0  0  0
  9 24  1  0  0  0  0
 10  9  2  0  0  0  0
 12  1  1  0  0  0  0
 14  3  1  0  0  0  0
 18  7  1  0  0  0  0
 19 20  1  0  0  0  0
 19 28  1  0  0  0  0
 20 21  1  0  0  0  0
 20 30  1  0  0  0  0
 21 31  1  0  0  0  0
 22 35  1  0  0  0  0
 22 34  1  0  0  0  0
 22 20  1  0  0  0  0
 23 36  1  6  0  0  0
 23 22  1  0  0  0  0
 24 23  1  0  0  0  0
 24 37  1  0  0  0  0
 25 23  1  0  0  0  0
 26 25  2  0  0  0  0
 27 19  1  0  0  0  0
 29 19  1  0  0  0  0
 32 21  1  0  0  0  0
 33 21  1  0  0  0  0
 38 25  1  0  0  0  0
 38 53  1  0  0  0  0
 39 54  1  6  0  0  0
 39 50  1  0  0  0  0
 39 38  1  0  0  0  0
 40 41  1  0  0  0  0
 40 39  1  0  0  0  0
 41 42  2  0  0  0  0
 41 49  1  0  0  0  0
 42 43  1  0  0  0  0
 43 44  1  0  0  0  0
 43 58  1  0  0  0  0
 44 45  1  0  0  0  0
 45 59  1  0  0  0  0
 46 45  2  0  0  0  0
 46 60  1  0  0  0  0
 47 61  1  0  0  0  0
 47 46  1  0  0  0  0
 48 47  2  0  0  0  0
 49 48  1  0  0  0  0
 49 44  2  0  0  0  0
 50 51  1  0  0  0  0
 52 50  2  0  0  0  0
 55 40  1  0  0  0  0
 56 40  1  0  0  0  0
 57 42  1  0  0  0  0
 62 48  1  0  0  0  0
M  END
$$$$
