HLY.pdb
 OpenBabel07022418373D

 59 60  0  0  1  0  0  0  0  0999 V2000
    2.1690    1.8550    3.6570 N   0  0  0  0  0  0  0  0  0  0  0  0
    2.7350    1.8320    2.3250 C   0  0  1  0  0  0  0  0  0  0  0  0
    3.8920    0.8530    2.3520 C   0  0  0  0  0  0  0  0  0  0  0  0
    4.9300    1.2550    3.3240 C   0  0  0  0  0  0  0  0  0  0  0  0
    4.9560    0.8660    4.6630 C   0  0  0  0  0  0  0  0  0  0  0  0
    6.0290    1.4180    5.2220 N   0  0  0  0  0  0  0  0  0  0  0  0
    6.7000    2.1450    4.3160 C   0  0  0  0  0  0  0  0  0  0  0  0
    6.0150    2.0340    3.1630 N   0  0  0  0  0  0  0  0  0  0  0  0
    1.7450    1.3110    1.3260 C   0  0  0  0  0  0  0  0  0  0  0  0
    2.1570    1.2580    0.1430 O   0  0  0  0  0  0  0  0  0  0  0  0
    1.7980    0.9340    3.9140 H   0  0  0  0  0  0  0  0  0  0  0  0
    1.5670    2.6630    3.8470 H   0  0  0  0  0  0  0  0  0  0  0  0
    3.1370    2.8170    2.0300 H   0  0  0  0  0  0  0  0  0  0  0  0
    4.4030    0.8020    1.3520 H   0  0  0  0  0  0  0  0  0  0  0  0
    3.5440   -0.1850    2.5610 H   0  0  0  0  0  0  0  0  0  0  0  0
    4.2090    0.2270    5.1150 H   0  0  0  0  0  0  0  0  0  0  0  0
    6.3130    1.3010    6.2380 H   0  0  0  0  0  0  0  0  0  0  0  0
    7.6110    2.7250    4.4240 H   0  0  0  0  0  0  0  0  0  0  0  0
   -1.3480    0.6450   -2.4410 C   0  0  0  0  0  0  0  0  0  0  0  0
   -1.7410    1.5370   -1.3110 C   0  0  0  0  0  0  0  0  0  0  0  0
   -3.1940    1.2770   -0.9500 C   0  0  0  0  0  0  0  0  0  0  0  0
   -0.8290    1.5500   -0.1740 C   0  0  0  0  0  0  0  0  0  0  0  0
   -0.5280    0.3860    0.6530 C   0  0  2  0  0  0  0  0  0  0  0  0
    0.4540    0.9080    1.6690 N   0  0  0  0  0  0  0  0  0  0  0  0
    0.0410   -0.8320    0.1480 C   0  0  0  0  0  0  0  0  0  0  0  0
    1.2730   -1.1690    0.3390 O   0  0  0  0  0  0  0  0  0  0  0  0
   -1.3420    1.2090   -3.4330 H   0  0  0  0  0  0  0  0  0  0  0  0
   -0.3080    0.2760   -2.3640 H   0  0  0  0  0  0  0  0  0  0  0  0
   -2.0890   -0.1710   -2.6240 H   0  0  0  0  0  0  0  0  0  0  0  0
   -1.7610    2.5920   -1.7400 H   0  0  0  0  0  0  0  0  0  0  0  0
   -3.5900    1.9780   -0.2150 H   0  0  0  0  0  0  0  0  0  0  0  0
   -3.7720    1.4240   -1.8980 H   0  0  0  0  0  0  0  0  0  0  0  0
   -3.3780    0.2490   -0.6240 H   0  0  0  0  0  0  0  0  0  0  0  0
   -1.1840    2.3590    0.5690 H   0  0  0  0  0  0  0  0  0  0  0  0
    0.1270    2.0680   -0.5530 H   0  0  0  0  0  0  0  0  0  0  0  0
   -1.4400    0.1390    1.2550 H   0  0  0  0  0  0  0  0  0  0  0  0
    0.1670    0.9750    2.6670 H   0  0  0  0  0  0  0  0  0  0  0  0
   -6.3000   -4.6960   -1.1470 O   0  0  0  0  0  0  0  0  0  0  0  0
   -4.9120   -4.5720   -0.9510 C   0  0  0  0  0  0  0  0  0  0  0  0
   -4.4230   -3.8230    0.0980 C   0  0  0  0  0  0  0  0  0  0  0  0
   -3.0680   -3.6660    0.3400 C   0  0  0  0  0  0  0  0  0  0  0  0
   -2.1850   -4.2930   -0.5140 C   0  0  0  0  0  0  0  0  0  0  0  0
   -0.7290   -4.1880   -0.3430 C   0  0  0  0  0  0  0  0  0  0  0  0
   -0.1200   -3.0160   -1.0890 C   0  0  2  0  0  0  0  0  0  0  0  0
   -0.7130   -1.7820   -0.6000 N   0  0  0  0  0  0  0  0  0  0  0  0
   -0.1640   -3.1720   -2.5320 C   0  0  0  0  0  0  0  0  0  0  0  0
    0.3520   -4.2500   -3.0140 O   0  0  0  0  0  0  0  0  0  0  0  0
   -2.6730   -5.0430   -1.5640 C   0  0  0  0  0  0  0  0  0  0  0  0
   -4.0240   -5.1960   -1.8020 C   0  0  0  0  0  0  0  0  0  0  0  0
   -0.6810   -2.3270   -3.4750 O   0  0  0  0  0  0  0  0  0  0  0  0
   -6.9060   -4.5920   -0.3260 H   0  0  0  0  0  0  0  0  0  0  0  0
   -5.1070   -3.3210    0.7840 H   0  0  0  0  0  0  0  0  0  0  0  0
   -2.7130   -3.0610    1.1860 H   0  0  0  0  0  0  0  0  0  0  0  0
   -0.3970   -4.1160    0.7030 H   0  0  0  0  0  0  0  0  0  0  0  0
   -0.2460   -5.1110   -0.7710 H   0  0  0  0  0  0  0  0  0  0  0  0
    0.9500   -3.0040   -0.7720 H   0  0  0  0  0  0  0  0  0  0  0  0
   -1.7280   -1.6150   -0.7960 H   0  0  0  0  0  0  0  0  0  0  0  0
   -1.9970   -5.5520   -2.2590 H   0  0  0  0  0  0  0  0  0  0  0  0
   -4.4300   -5.7790   -2.6180 H   0  0  0  0  0  0  0  0  0  0  0  0
  1 12  1  0  0  0  0
  1 11  1  0  0  0  0
  2 13  1  6  0  0  0
  2  3  1  0  0  0  0
  2  1  1  0  0  0  0
  3 15  1  0  0  0  0
  3  4  1  0  0  0  0
  4  5  2  0  0  0  0
  5 16  1  0  0  0  0
  5  6  1  0  0  0  0
  6 17  1  0  0  0  0
  7 18  1  0  0  0  0
  7  6  1  0  0  0  0
  8  4  1  0  0  0  0
  8  7  2  0  0  0  0
  9 24  1  0  0  0  0
  9  2  1  0  0  0  0
 10  9  2  0  0  0  0
 14  3  1  0  0  0  0
 19 28  1  0  0  0  0
 19 20  1  0  0  0  0
 20 21  1  0  0  0  0
 20 22  1  0  0  0  0
 21 33  1  0  0  0  0
 21 31  1  0  0  0  0
 22 34  1  0  0  0  0
 22 23  1  0  0  0  0
 23 36  1  1  0  0  0
 23 24  1  0  0  0  0
 24 37  1  0  0  0  0
 25 26  2  0  0  0  0
 25 23  1  0  0  0  0
 27 19  1  0  0  0  0
 29 19  1  0  0  0  0
 30 20  1  0  0  0  0
 32 21  1  0  0  0  0
 35 22  1  0  0  0  0
 38 39  1  0  0  0  0
 38 51  1  0  0  0  0
 39 40  1  0  0  0  0
 40 41  2  0  0  0  0
 40 52  1  0  0  0  0
 41 53  1  0  0  0  0
 42 43  1  0  0  0  0
 42 41  1  0  0  0  0
 43 54  1  0  0  0  0
 44 56  1  1  0  0  0
 44 45  1  0  0  0  0
 44 43  1  0  0  0  0
 45 25  1  0  0  0  0
 46 44  1  0  0  0  0
 47 46  1  0  0  0  0
 48 42  2  0  0  0  0
 49 48  1  0  0  0  0
 49 39  2  0  0  0  0
 50 46  2  0  0  0  0
 55 43  1  0  0  0  0
 57 45  1  0  0  0  0
 58 48  1  0  0  0  0
 59 49  1  0  0  0  0
M  END
$$$$
