HMF.pdb
 OpenBabel07022418373D

 56 57  0  0  1  0  0  0  0  0999 V2000
   -3.8510   -3.9790   -1.8890 N   0  0  0  0  0  0  0  0  0  0  0  0
   -2.9520   -2.8770   -2.1380 C   0  0  1  0  0  0  0  0  0  0  0  0
   -3.7620   -1.6430   -2.3630 C   0  0  0  0  0  0  0  0  0  0  0  0
   -4.6190   -1.2940   -1.2180 C   0  0  0  0  0  0  0  0  0  0  0  0
   -5.4590   -0.2080   -1.1880 C   0  0  0  0  0  0  0  0  0  0  0  0
   -6.1150   -0.1470   -0.0210 N   0  0  0  0  0  0  0  0  0  0  0  0
   -5.6960   -1.1960    0.7030 C   0  0  0  0  0  0  0  0  0  0  0  0
   -4.7910   -1.8940   -0.0170 N   0  0  0  0  0  0  0  0  0  0  0  0
   -1.9250   -2.7940   -1.0980 C   0  0  0  0  0  0  0  0  0  0  0  0
   -2.0240   -3.5570   -0.1030 O   0  0  0  0  0  0  0  0  0  0  0  0
   -3.4920   -4.5780   -1.1330 H   0  0  0  0  0  0  0  0  0  0  0  0
   -4.8510   -3.6960   -1.7790 H   0  0  0  0  0  0  0  0  0  0  0  0
   -2.4110   -3.0800   -3.0970 H   0  0  0  0  0  0  0  0  0  0  0  0
   -3.1100   -0.7950   -2.6740 H   0  0  0  0  0  0  0  0  0  0  0  0
   -4.4460   -1.8480   -3.2290 H   0  0  0  0  0  0  0  0  0  0  0  0
   -5.5970    0.5180   -1.9770 H   0  0  0  0  0  0  0  0  0  0  0  0
   -6.8180    0.5590    0.2910 H   0  0  0  0  0  0  0  0  0  0  0  0
   -5.9930   -1.4880    1.6980 H   0  0  0  0  0  0  0  0  0  0  0  0
    3.0960    0.2880   -3.2320 C   0  0  0  0  0  0  0  0  0  0  0  0
    2.4810   -0.3690   -1.6730 S   0  0  0  0  0  0  0  0  0  0  0  0
    1.9550   -2.0590   -1.8010 C   0  0  0  0  0  0  0  0  0  0  0  0
    1.3630   -2.6340   -0.5460 C   0  0  0  0  0  0  0  0  0  0  0  0
    0.1420   -1.9140   -0.0510 C   0  0  2  0  0  0  0  0  0  0  0  0
   -0.8190   -1.9150   -1.1310 N   0  0  0  0  0  0  0  0  0  0  0  0
    0.3130   -0.5890    0.5250 C   0  0  0  0  0  0  0  0  0  0  0  0
    0.9300   -0.4420    1.6240 O   0  0  0  0  0  0  0  0  0  0  0  0
    3.6770    1.1990   -3.0290 H   0  0  0  0  0  0  0  0  0  0  0  0
    3.7940   -0.4150   -3.7610 H   0  0  0  0  0  0  0  0  0  0  0  0
    2.2860    0.5380   -3.9500 H   0  0  0  0  0  0  0  0  0  0  0  0
    2.8740   -2.6850   -2.0280 H   0  0  0  0  0  0  0  0  0  0  0  0
    1.2180   -2.2370   -2.6210 H   0  0  0  0  0  0  0  0  0  0  0  0
    2.1810   -2.7030    0.2350 H   0  0  0  0  0  0  0  0  0  0  0  0
    1.1070   -3.7010   -0.7740 H   0  0  0  0  0  0  0  0  0  0  0  0
   -0.2880   -2.6230    0.7520 H   0  0  0  0  0  0  0  0  0  0  0  0
   -0.7220   -1.2760   -1.9620 H   0  0  0  0  0  0  0  0  0  0  0  0
   -0.1650    0.6110   -0.0300 N   0  0  0  0  0  0  0  0  0  0  0  0
   -0.1470    1.9140    0.4290 C   0  0  1  0  0  0  0  0  0  0  0  0
    0.8230    2.9640    0.2620 C   0  0  0  0  0  0  0  0  0  0  0  0
    2.1980    2.7940    0.7990 C   0  0  0  0  0  0  0  0  0  0  0  0
    2.4060    3.0210    2.1740 C   0  0  0  0  0  0  0  0  0  0  0  0
    3.6270    2.9430    2.7740 C   0  0  0  0  0  0  0  0  0  0  0  0
    4.7230    2.6280    2.0100 C   0  0  0  0  0  0  0  0  0  0  0  0
    4.5510    2.3990    0.6550 C   0  0  0  0  0  0  0  0  0  0  0  0
    3.3110    2.4840    0.0720 C   0  0  0  0  0  0  0  0  0  0  0  0
   -1.5230    2.5250    0.2400 C   0  0  0  0  0  0  0  0  0  0  0  0
   -1.7630    3.7060    0.5550 O   0  0  0  0  0  0  0  0  0  0  0  0
   -2.5170    1.7440   -0.2960 O   0  0  0  0  0  0  0  0  0  0  0  0
   -0.6260    0.4820   -0.9910 H   0  0  0  0  0  0  0  0  0  0  0  0
   -0.1600    1.7740    1.6130 H   0  0  0  0  0  0  0  0  0  0  0  0
    0.4110    3.8660    0.8290 H   0  0  0  0  0  0  0  0  0  0  0  0
    0.8710    3.4110   -0.7850 H   0  0  0  0  0  0  0  0  0  0  0  0
    1.5260    3.2720    2.7710 H   0  0  0  0  0  0  0  0  0  0  0  0
    3.7520    3.1260    3.8370 H   0  0  0  0  0  0  0  0  0  0  0  0
    5.6970    2.5620    2.4690 H   0  0  0  0  0  0  0  0  0  0  0  0
    5.4530    2.1500    0.0840 H   0  0  0  0  0  0  0  0  0  0  0  0
    3.2270    2.3230   -0.9830 H   0  0  0  0  0  0  0  0  0  0  0  0
  1 12  1  0  0  0  0
  1 11  1  0  0  0  0
  2 13  1  6  0  0  0
  2  1  1  0  0  0  0
  2  9  1  0  0  0  0
  3  2  1  0  0  0  0
  3  4  1  0  0  0  0
  4  5  2  0  0  0  0
  4  8  1  0  0  0  0
  5  6  1  0  0  0  0
  6 17  1  0  0  0  0
  6  7  1  0  0  0  0
  7 18  1  0  0  0  0
  8  7  2  0  0  0  0
  9 10  2  0  0  0  0
 14  3  1  0  0  0  0
 15  3  1  0  0  0  0
 16  5  1  0  0  0  0
 19 27  1  0  0  0  0
 19 20  1  0  0  0  0
 21 20  1  0  0  0  0
 21 22  1  0  0  0  0
 22 23  1  0  0  0  0
 22 32  1  0  0  0  0
 23 25  1  0  0  0  0
 23 34  1  1  0  0  0
 24  9  1  0  0  0  0
 24 23  1  0  0  0  0
 25 26  2  0  0  0  0
 28 19  1  0  0  0  0
 29 19  1  0  0  0  0
 30 21  1  0  0  0  0
 31 21  1  0  0  0  0
 33 22  1  0  0  0  0
 35 24  1  0  0  0  0
 36 37  1  0  0  0  0
 36 25  1  0  0  0  0
 37 49  1  1  0  0  0
 38 37  1  0  0  0  0
 38 39  1  0  0  0  0
 38 50  1  0  0  0  0
 39 40  1  0  0  0  0
 40 52  1  0  0  0  0
 40 41  2  0  0  0  0
 41 53  1  0  0  0  0
 42 54  1  0  0  0  0
 42 41  1  0  0  0  0
 43 42  2  0  0  0  0
 44 43  1  0  0  0  0
 44 39  2  0  0  0  0
 45 37  1  0  0  0  0
 45 46  1  0  0  0  0
 47 45  2  0  0  0  0
 48 36  1  0  0  0  0
 51 38  1  0  0  0  0
 55 43  1  0  0  0  0
 56 44  1  0  0  0  0
M  END
$$$$
