HMG.pdb
 OpenBabel07022418373D

 43 43  0  0  1  0  0  0  0  0999 V2000
    0.4450   -0.4320   -3.5760 N   0  0  0  0  0  0  0  0  0  0  0  0
    0.9130   -0.7210   -2.2400 C   0  0  1  0  0  0  0  0  0  0  0  0
    2.0630    0.1920   -1.9360 C   0  0  0  0  0  0  0  0  0  0  0  0
    3.1260   -0.0750   -2.9420 C   0  0  0  0  0  0  0  0  0  0  0  0
    4.1610   -1.0080   -2.8260 C   0  0  0  0  0  0  0  0  0  0  0  0
    4.9210   -0.9630   -3.9300 N   0  0  0  0  0  0  0  0  0  0  0  0
    4.4170   -0.0360   -4.7570 C   0  0  0  0  0  0  0  0  0  0  0  0
    3.3230    0.5010   -4.1470 N   0  0  0  0  0  0  0  0  0  0  0  0
   -0.1860   -0.6490   -1.2580 C   0  0  0  0  0  0  0  0  0  0  0  0
   -1.3500   -0.3690   -1.6660 O   0  0  0  0  0  0  0  0  0  0  0  0
    0.3580    0.6210   -3.6340 H   0  0  0  0  0  0  0  0  0  0  0  0
    1.1820   -0.7350   -4.2530 H   0  0  0  0  0  0  0  0  0  0  0  0
    1.3480   -1.7640   -2.2940 H   0  0  0  0  0  0  0  0  0  0  0  0
    1.7780    1.2690   -2.0260 H   0  0  0  0  0  0  0  0  0  0  0  0
    2.4660    0.0440   -0.9050 H   0  0  0  0  0  0  0  0  0  0  0  0
    4.2730   -1.6390   -1.9510 H   0  0  0  0  0  0  0  0  0  0  0  0
    5.7600   -1.5400   -4.1290 H   0  0  0  0  0  0  0  0  0  0  0  0
    4.7840    0.2570   -5.7310 H   0  0  0  0  0  0  0  0  0  0  0  0
   -0.5190   -1.5870    5.2340 C   0  0  0  0  0  0  0  0  0  0  0  0
    0.6100   -1.7340    3.8230 S   0  0  0  0  0  0  0  0  0  0  0  0
   -0.0490   -2.7250    2.4910 C   0  0  0  0  0  0  0  0  0  0  0  0
   -1.2260   -2.1460    1.7790 C   0  0  0  0  0  0  0  0  0  0  0  0
   -0.9800   -0.8290    1.1160 C   0  0  2  0  0  0  0  0  0  0  0  0
    0.0640   -0.8890    0.1200 N   0  0  0  0  0  0  0  0  0  0  0  0
   -0.7990    0.3070    2.0490 C   0  0  0  0  0  0  0  0  0  0  0  0
    0.2040    1.0460    1.8990 O   0  0  0  0  0  0  0  0  0  0  0  0
   -0.5060   -0.5240    5.5590 H   0  0  0  0  0  0  0  0  0  0  0  0
   -0.1140   -2.2030    6.0800 H   0  0  0  0  0  0  0  0  0  0  0  0
   -1.5400   -1.9370    4.9720 H   0  0  0  0  0  0  0  0  0  0  0  0
    0.7850   -2.9880    1.8070 H   0  0  0  0  0  0  0  0  0  0  0  0
   -0.3890   -3.7210    2.9050 H   0  0  0  0  0  0  0  0  0  0  0  0
   -2.1300   -2.0870    2.3840 H   0  0  0  0  0  0  0  0  0  0  0  0
   -1.4700   -2.8670    0.9440 H   0  0  0  0  0  0  0  0  0  0  0  0
   -1.9360   -0.5880    0.5580 H   0  0  0  0  0  0  0  0  0  0  0  0
    1.0550   -1.1150    0.3800 H   0  0  0  0  0  0  0  0  0  0  0  0
   -1.6980    0.6000    3.0980 N   0  0  0  0  0  0  0  0  0  0  0  0
   -1.4910    1.7340    4.0040 C   0  0  0  0  0  0  0  0  0  0  0  0
   -2.5710    1.8130    5.0040 C   0  0  0  0  0  0  0  0  0  0  0  0
   -3.5000    0.9760    5.0090 O   0  0  0  0  0  0  0  0  0  0  0  0
   -2.5790    2.8130    5.9570 O   0  0  0  0  0  0  0  0  0  0  0  0
   -2.5290   -0.0310    3.2070 H   0  0  0  0  0  0  0  0  0  0  0  0
   -1.5660    2.6750    3.3850 H   0  0  0  0  0  0  0  0  0  0  0  0
   -0.4890    1.6620    4.4490 H   0  0  0  0  0  0  0  0  0  0  0  0
  1  2  1  0  0  0  0
  2 13  1  1  0  0  0
  2  3  1  0  0  0  0
  2  9  1  0  0  0  0
  3 15  1  0  0  0  0
  4  5  2  0  0  0  0
  4  3  1  0  0  0  0
  5 16  1  0  0  0  0
  6  5  1  0  0  0  0
  7  8  2  0  0  0  0
  7  6  1  0  0  0  0
  8  4  1  0  0  0  0
  9 24  1  0  0  0  0
 10  9  2  0  0  0  0
 11  1  1  0  0  0  0
 12  1  1  0  0  0  0
 14  3  1  0  0  0  0
 17  6  1  0  0  0  0
 18  7  1  0  0  0  0
 19 27  1  0  0  0  0
 19 28  1  0  0  0  0
 20 19  1  0  0  0  0
 21 31  1  0  0  0  0
 21 20  1  0  0  0  0
 22 32  1  0  0  0  0
 22 21  1  0  0  0  0
 23 34  1  6  0  0  0
 23 22  1  0  0  0  0
 23 25  1  0  0  0  0
 24 35  1  0  0  0  0
 24 23  1  0  0  0  0
 25 36  1  0  0  0  0
 26 25  2  0  0  0  0
 29 19  1  0  0  0  0
 30 21  1  0  0  0  0
 33 22  1  0  0  0  0
 36 41  1  0  0  0  0
 36 37  1  0  0  0  0
 37 43  1  0  0  0  0
 37 38  1  0  0  0  0
 38 39  2  0  0  0  0
 38 40  1  0  0  0  0
 42 37  1  0  0  0  0
M  END
$$$$
