HMH.pdb
 OpenBabel07022418373D

 53 54  0  0  1  0  0  0  0  0999 V2000
    2.8950   -0.2810    3.7760 N   0  0  0  0  0  0  0  0  0  0  0  0
    2.1030   -0.0100    2.5880 C   0  0  1  0  0  0  0  0  0  0  0  0
    2.6940   -0.7880    1.4280 C   0  0  0  0  0  0  0  0  0  0  0  0
    4.0850   -0.4170    1.1520 C   0  0  0  0  0  0  0  0  0  0  0  0
    4.4830    0.5800    0.2870 C   0  0  0  0  0  0  0  0  0  0  0  0
    5.8230    0.6290    0.2940 N   0  0  0  0  0  0  0  0  0  0  0  0
    6.2610   -0.3170    1.1460 C   0  0  0  0  0  0  0  0  0  0  0  0
    5.1930   -0.9520    1.6670 N   0  0  0  0  0  0  0  0  0  0  0  0
    0.7200   -0.5100    2.8350 C   0  0  0  0  0  0  0  0  0  0  0  0
    0.4050   -1.0670    3.9200 O   0  0  0  0  0  0  0  0  0  0  0  0
    2.4440   -0.9980    4.3910 H   0  0  0  0  0  0  0  0  0  0  0  0
    2.9360    0.6160    4.3190 H   0  0  0  0  0  0  0  0  0  0  0  0
    2.0500    1.0680    2.3610 H   0  0  0  0  0  0  0  0  0  0  0  0
    2.0520   -0.7020    0.5480 H   0  0  0  0  0  0  0  0  0  0  0  0
    2.6850   -1.8670    1.7580 H   0  0  0  0  0  0  0  0  0  0  0  0
    3.8110    1.2220   -0.3050 H   0  0  0  0  0  0  0  0  0  0  0  0
    6.3700    1.3040   -0.2820 H   0  0  0  0  0  0  0  0  0  0  0  0
    7.3130   -0.5290    1.3730 H   0  0  0  0  0  0  0  0  0  0  0  0
   -0.9010    3.3150    1.6680 C   0  0  0  0  0  0  0  0  0  0  0  0
   -1.4290    2.0760    0.5000 S   0  0  0  0  0  0  0  0  0  0  0  0
   -2.8320    1.1130    1.0090 C   0  0  0  0  0  0  0  0  0  0  0  0
   -2.6520    0.2180    2.1740 C   0  0  0  0  0  0  0  0  0  0  0  0
   -1.6380   -0.8550    2.0750 C   0  0  2  0  0  0  0  0  0  0  0  0
   -0.3070   -0.3800    1.8520 N   0  0  0  0  0  0  0  0  0  0  0  0
   -1.9470   -1.8970    1.0800 C   0  0  0  0  0  0  0  0  0  0  0  0
   -3.0840   -2.4310    1.1200 O   0  0  0  0  0  0  0  0  0  0  0  0
   -1.2600    4.3380    1.4350 H   0  0  0  0  0  0  0  0  0  0  0  0
    0.2130    3.3620    1.6470 H   0  0  0  0  0  0  0  0  0  0  0  0
   -1.1760    2.9960    2.6920 H   0  0  0  0  0  0  0  0  0  0  0  0
   -3.2520    0.5800    0.1060 H   0  0  0  0  0  0  0  0  0  0  0  0
   -3.6560    1.8390    1.2790 H   0  0  0  0  0  0  0  0  0  0  0  0
   -3.6380   -0.1980    2.5330 H   0  0  0  0  0  0  0  0  0  0  0  0
   -2.3410    0.8770    3.0410 H   0  0  0  0  0  0  0  0  0  0  0  0
   -1.6300   -1.3860    3.0760 H   0  0  0  0  0  0  0  0  0  0  0  0
   -0.0100    0.0770    0.9660 H   0  0  0  0  0  0  0  0  0  0  0  0
   -1.0490   -2.3450    0.0770 N   0  0  0  0  0  0  0  0  0  0  0  0
   -1.3950   -3.3750   -0.8810 C   0  0  1  0  0  0  0  0  0  0  0  0
   -1.3560   -2.9080   -2.3080 C   0  0  0  0  0  0  0  0  0  0  0  0
   -2.2950   -1.7930   -2.5650 C   0  0  0  0  0  0  0  0  0  0  0  0
   -3.6060   -1.8900   -2.9660 C   0  0  0  0  0  0  0  0  0  0  0  0
   -4.1100   -0.6510   -3.0880 N   0  0  0  0  0  0  0  0  0  0  0  0
   -3.1380    0.2480   -2.7700 C   0  0  0  0  0  0  0  0  0  0  0  0
   -2.0310   -0.4710   -2.4520 N   0  0  0  0  0  0  0  0  0  0  0  0
   -0.5530   -4.5920   -0.6880 C   0  0  0  0  0  0  0  0  0  0  0  0
    0.3190   -4.6130    0.2270 O   0  0  0  0  0  0  0  0  0  0  0  0
   -0.7250   -5.6940   -1.5080 O   0  0  0  0  0  0  0  0  0  0  0  0
   -0.1040   -1.8780    0.0710 H   0  0  0  0  0  0  0  0  0  0  0  0
   -2.4550   -3.6780   -0.6540 H   0  0  0  0  0  0  0  0  0  0  0  0
   -1.6870   -3.7550   -2.9430 H   0  0  0  0  0  0  0  0  0  0  0  0
   -0.3290   -2.6270   -2.6220 H   0  0  0  0  0  0  0  0  0  0  0  0
   -4.1560   -2.8000   -3.1550 H   0  0  0  0  0  0  0  0  0  0  0  0
   -5.0630   -0.3730   -3.3710 H   0  0  0  0  0  0  0  0  0  0  0  0
   -3.2250    1.3210   -2.7710 H   0  0  0  0  0  0  0  0  0  0  0  0
  1 12  1  0  0  0  0
  1 11  1  0  0  0  0
  2 13  1  6  0  0  0
  2  9  1  0  0  0  0
  2  1  1  0  0  0  0
  3 15  1  0  0  0  0
  3  2  1  0  0  0  0
  4  3  1  0  0  0  0
  4  8  1  0  0  0  0
  5  6  1  0  0  0  0
  5  4  2  0  0  0  0
  6  7  1  0  0  0  0
  7 18  1  0  0  0  0
  7  8  2  0  0  0  0
  9 10  2  0  0  0  0
 14  3  1  0  0  0  0
 16  5  1  0  0  0  0
 17  6  1  0  0  0  0
 19 29  1  0  0  0  0
 20 21  1  0  0  0  0
 20 19  1  0  0  0  0
 21 31  1  0  0  0  0
 21 22  1  0  0  0  0
 22 32  1  0  0  0  0
 22 33  1  0  0  0  0
 23 22  1  0  0  0  0
 23 34  1  1  0  0  0
 24 23  1  0  0  0  0
 24  9  1  0  0  0  0
 25 26  2  0  0  0  0
 25 23  1  0  0  0  0
 27 19  1  0  0  0  0
 28 19  1  0  0  0  0
 30 21  1  0  0  0  0
 35 24  1  0  0  0  0
 36 25  1  0  0  0  0
 37 44  1  0  0  0  0
 37 48  1  1  0  0  0
 37 36  1  0  0  0  0
 38 37  1  0  0  0  0
 39 43  1  0  0  0  0
 39 38  1  0  0  0  0
 40 39  2  0  0  0  0
 41 40  1  0  0  0  0
 41 42  1  0  0  0  0
 42 43  2  0  0  0  0
 44 45  1  0  0  0  0
 46 44  2  0  0  0  0
 47 36  1  0  0  0  0
 49 38  1  0  0  0  0
 50 38  1  0  0  0  0
 51 40  1  0  0  0  0
 52 41  1  0  0  0  0
 53 42  1  0  0  0  0
M  END
$$$$
