HMI.pdb
 OpenBabel07022418373D

 55 55  0  0  1  0  0  0  0  0999 V2000
    3.6480   -2.0450    2.5270 N   0  0  0  0  0  0  0  0  0  0  0  0
    2.7490   -2.1480    1.4310 C   0  0  1  0  0  0  0  0  0  0  0  0
    1.4520   -2.8730    1.8960 C   0  0  0  0  0  0  0  0  0  0  0  0
    0.8350   -2.0870    2.9970 C   0  0  0  0  0  0  0  0  0  0  0  0
   -0.0400   -1.0480    2.8910 C   0  0  0  0  0  0  0  0  0  0  0  0
   -0.3320   -0.5640    4.1350 N   0  0  0  0  0  0  0  0  0  0  0  0
    0.3660   -1.3140    4.9730 C   0  0  0  0  0  0  0  0  0  0  0  0
    1.0860   -2.2470    4.3430 N   0  0  0  0  0  0  0  0  0  0  0  0
    2.3670   -0.8500    0.8030 C   0  0  0  0  0  0  0  0  0  0  0  0
    2.6970    0.2660    1.2250 O   0  0  0  0  0  0  0  0  0  0  0  0
    4.6040   -1.8290    2.2060 H   0  0  0  0  0  0  0  0  0  0  0  0
    3.7190   -3.0010    2.9590 H   0  0  0  0  0  0  0  0  0  0  0  0
    3.1620   -2.7940    0.6440 H   0  0  0  0  0  0  0  0  0  0  0  0
    0.8340   -3.0110    1.0220 H   0  0  0  0  0  0  0  0  0  0  0  0
    1.7940   -3.8730    2.2170 H   0  0  0  0  0  0  0  0  0  0  0  0
   -0.4350   -0.6590    1.9930 H   0  0  0  0  0  0  0  0  0  0  0  0
   -0.9880    0.2380    4.3080 H   0  0  0  0  0  0  0  0  0  0  0  0
    0.3450   -1.1840    6.0760 H   0  0  0  0  0  0  0  0  0  0  0  0
    3.4290    3.6180   -1.2350 C   0  0  0  0  0  0  0  0  0  0  0  0
    1.7370    3.2830   -1.7710 S   0  0  0  0  0  0  0  0  0  0  0  0
    1.6510    1.8810   -2.9190 C   0  0  0  0  0  0  0  0  0  0  0  0
    2.0450    0.6040   -2.2350 C   0  0  0  0  0  0  0  0  0  0  0  0
    1.1630    0.3090   -1.0670 C   0  0  2  0  0  0  0  0  0  0  0  0
    1.5590   -0.9000   -0.3850 N   0  0  0  0  0  0  0  0  0  0  0  0
   -0.2640    0.3190   -1.3530 C   0  0  0  0  0  0  0  0  0  0  0  0
   -0.7510    1.2150   -2.1350 O   0  0  0  0  0  0  0  0  0  0  0  0
    4.1730    3.5440   -2.0340 H   0  0  0  0  0  0  0  0  0  0  0  0
    3.7490    2.9310   -0.4140 H   0  0  0  0  0  0  0  0  0  0  0  0
    3.4470    4.6610   -0.7940 H   0  0  0  0  0  0  0  0  0  0  0  0
    2.4610    2.1160   -3.7030 H   0  0  0  0  0  0  0  0  0  0  0  0
    0.7300    1.8580   -3.4960 H   0  0  0  0  0  0  0  0  0  0  0  0
    3.0900    0.7390   -1.9110 H   0  0  0  0  0  0  0  0  0  0  0  0
    1.9360   -0.2080   -2.9980 H   0  0  0  0  0  0  0  0  0  0  0  0
    1.3700    1.1530   -0.3270 H   0  0  0  0  0  0  0  0  0  0  0  0
    1.2380   -1.8060   -0.7900 H   0  0  0  0  0  0  0  0  0  0  0  0
   -3.0770   -3.2660    2.0800 C   0  0  0  0  0  0  0  0  0  0  0  0
   -2.5050   -2.8210    0.7090 C   0  0  0  0  0  0  0  0  0  0  0  0
   -3.0920   -1.5030    0.3540 C   0  0  2  0  0  0  0  0  0  0  0  0
   -4.5960   -1.7220    0.2730 C   0  0  0  0  0  0  0  0  0  0  0  0
   -2.5280   -0.8720   -0.9030 C   0  0  2  0  0  0  0  0  0  0  0  0
   -1.1340   -0.6590   -0.7660 N   0  0  0  0  0  0  0  0  0  0  0  0
   -3.3730    0.2320   -1.3540 C   0  0  0  0  0  0  0  0  0  0  0  0
   -4.6140   -0.0650   -1.4360 O   0  0  0  0  0  0  0  0  0  0  0  0
   -3.0490    1.5140   -1.6960 O   0  0  0  0  0  0  0  0  0  0  0  0
   -3.8700   -4.0040    1.9290 H   0  0  0  0  0  0  0  0  0  0  0  0
   -2.2790   -3.7040    2.7090 H   0  0  0  0  0  0  0  0  0  0  0  0
   -3.4220   -2.3370    2.6370 H   0  0  0  0  0  0  0  0  0  0  0  0
   -2.7230   -3.6440   -0.0030 H   0  0  0  0  0  0  0  0  0  0  0  0
   -1.4240   -2.7930    0.8610 H   0  0  0  0  0  0  0  0  0  0  0  0
   -2.8680   -0.7850    1.2110 H   0  0  0  0  0  0  0  0  0  0  0  0
   -4.8050   -2.5650    1.0070 H   0  0  0  0  0  0  0  0  0  0  0  0
   -4.8180   -2.1750   -0.7130 H   0  0  0  0  0  0  0  0  0  0  0  0
   -5.1840   -0.8800    0.5950 H   0  0  0  0  0  0  0  0  0  0  0  0
   -2.6180   -1.6350   -1.7660 H   0  0  0  0  0  0  0  0  0  0  0  0
   -0.6530   -1.4040   -0.1260 H   0  0  0  0  0  0  0  0  0  0  0  0
  1 12  1  0  0  0  0
  2 13  1  6  0  0  0
  2  3  1  0  0  0  0
  2  1  1  0  0  0  0
  3 15  1  0  0  0  0
  3  4  1  0  0  0  0
  4  8  1  0  0  0  0
  5  4  2  0  0  0  0
  5  6  1  0  0  0  0
  6 17  1  0  0  0  0
  6  7  1  0  0  0  0
  7 18  1  0  0  0  0
  8  7  2  0  0  0  0
  9 10  2  0  0  0  0
  9  2  1  0  0  0  0
 11  1  1  0  0  0  0
 14  3  1  0  0  0  0
 16  5  1  0  0  0  0
 19 29  1  0  0  0  0
 19 28  1  0  0  0  0
 20 19  1  0  0  0  0
 21 22  1  0  0  0  0
 21 20  1  0  0  0  0
 22 32  1  0  0  0  0
 22 23  1  0  0  0  0
 23 24  1  0  0  0  0
 23 34  1  1  0  0  0
 24  9  1  0  0  0  0
 25 23  1  0  0  0  0
 25 41  1  0  0  0  0
 26 25  2  0  0  0  0
 27 19  1  0  0  0  0
 30 21  1  0  0  0  0
 31 21  1  0  0  0  0
 33 22  1  0  0  0  0
 35 24  1  0  0  0  0
 36 47  1  0  0  0  0
 36 46  1  0  0  0  0
 37 49  1  0  0  0  0
 37 36  1  0  0  0  0
 38 37  1  0  0  0  0
 38 50  1  1  0  0  0
 39 38  1  0  0  0  0
 39 53  1  0  0  0  0
 39 51  1  0  0  0  0
 40 54  1  6  0  0  0
 40 41  1  0  0  0  0
 40 38  1  0  0  0  0
 41 55  1  0  0  0  0
 42 40  1  0  0  0  0
 43 42  1  0  0  0  0
 44 42  2  0  0  0  0
 45 36  1  0  0  0  0
 48 37  1  0  0  0  0
 52 39  1  0  0  0  0
M  END
$$$$
