HML.pdb
 OpenBabel07022418373D

 55 55  0  0  1  0  0  0  0  0999 V2000
    4.5270   -2.2910    0.6150 N   0  0  0  0  0  0  0  0  0  0  0  0
    3.4010   -2.2470   -0.2620 C   0  0  1  0  0  0  0  0  0  0  0  0
    2.5530   -3.4840    0.0550 C   0  0  0  0  0  0  0  0  0  0  0  0
    2.1560   -3.3960    1.4950 C   0  0  0  0  0  0  0  0  0  0  0  0
    1.0730   -2.8310    2.0830 C   0  0  0  0  0  0  0  0  0  0  0  0
    1.1460   -3.0020    3.4110 N   0  0  0  0  0  0  0  0  0  0  0  0
    2.2780   -3.6750    3.6500 C   0  0  0  0  0  0  0  0  0  0  0  0
    2.9080   -3.9250    2.4960 N   0  0  0  0  0  0  0  0  0  0  0  0
    2.6040   -0.9950   -0.1010 C   0  0  0  0  0  0  0  0  0  0  0  0
    2.8790   -0.1520    0.7930 O   0  0  0  0  0  0  0  0  0  0  0  0
    5.2760   -1.6370    0.2880 H   0  0  0  0  0  0  0  0  0  0  0  0
    4.9510   -3.2440    0.5900 H   0  0  0  0  0  0  0  0  0  0  0  0
    3.7670   -2.3700   -1.3040 H   0  0  0  0  0  0  0  0  0  0  0  0
    1.6680   -3.5300   -0.5990 H   0  0  0  0  0  0  0  0  0  0  0  0
    3.2050   -4.3650   -0.0770 H   0  0  0  0  0  0  0  0  0  0  0  0
    0.2740   -2.3230    1.5760 H   0  0  0  0  0  0  0  0  0  0  0  0
    0.4460   -2.6710    4.1400 H   0  0  0  0  0  0  0  0  0  0  0  0
    2.5880   -3.9510    4.6580 H   0  0  0  0  0  0  0  0  0  0  0  0
    2.4030    4.2390   -0.4140 C   0  0  0  0  0  0  0  0  0  0  0  0
    0.6850    3.6760   -0.3080 S   0  0  0  0  0  0  0  0  0  0  0  0
    0.1980    2.7530   -1.7860 C   0  0  0  0  0  0  0  0  0  0  0  0
    0.9440    1.4580   -1.9210 C   0  0  0  0  0  0  0  0  0  0  0  0
    0.7590    0.5250   -0.7620 C   0  0  2  0  0  0  0  0  0  0  0  0
    1.5070   -0.7040   -0.9500 N   0  0  0  0  0  0  0  0  0  0  0  0
   -0.6740    0.2280   -0.4500 C   0  0  0  0  0  0  0  0  0  0  0  0
   -1.4920    1.1340   -0.1760 O   0  0  0  0  0  0  0  0  0  0  0  0
    2.8850    3.6970   -1.2460 H   0  0  0  0  0  0  0  0  0  0  0  0
    2.3950    5.3490   -0.6090 H   0  0  0  0  0  0  0  0  0  0  0  0
    2.9400    4.1160    0.5490 H   0  0  0  0  0  0  0  0  0  0  0  0
   -0.8960    2.6170   -1.7660 H   0  0  0  0  0  0  0  0  0  0  0  0
    0.3910    3.4090   -2.6770 H   0  0  0  0  0  0  0  0  0  0  0  0
    2.0230    1.6840   -1.9910 H   0  0  0  0  0  0  0  0  0  0  0  0
    0.5770    0.9420   -2.8390 H   0  0  0  0  0  0  0  0  0  0  0  0
    1.1710    1.0390    0.1230 H   0  0  0  0  0  0  0  0  0  0  0  0
    1.2590   -1.3830   -1.7010 H   0  0  0  0  0  0  0  0  0  0  0  0
   -4.5170    0.6850    2.1200 C   0  0  0  0  0  0  0  0  0  0  0  0
   -3.2850   -0.1780    1.7780 C   0  0  0  0  0  0  0  0  0  0  0  0
   -3.3380   -1.3940    2.7510 C   0  0  0  0  0  0  0  0  0  0  0  0
   -3.5260   -0.7240    0.4060 C   0  0  0  0  0  0  0  0  0  0  0  0
   -2.4560   -1.5870   -0.1660 C   0  0  2  0  0  0  0  0  0  0  0  0
   -1.1840   -1.0880   -0.4450 N   0  0  0  0  0  0  0  0  0  0  0  0
   -2.9460   -2.4690   -1.2260 C   0  0  0  0  0  0  0  0  0  0  0  0
   -2.2500   -2.7080   -2.2480 O   0  0  0  0  0  0  0  0  0  0  0  0
   -4.1960   -3.0990   -1.1870 O   0  0  0  0  0  0  0  0  0  0  0  0
   -5.3000    0.0210    2.5400 H   0  0  0  0  0  0  0  0  0  0  0  0
   -4.2510    1.5150    2.7820 H   0  0  0  0  0  0  0  0  0  0  0  0
   -4.9470    1.1300    1.1990 H   0  0  0  0  0  0  0  0  0  0  0  0
   -2.3720    0.3060    2.0220 H   0  0  0  0  0  0  0  0  0  0  0  0
   -3.5950   -0.9640    3.7320 H   0  0  0  0  0  0  0  0  0  0  0  0
   -4.0380   -2.1460    2.3890 H   0  0  0  0  0  0  0  0  0  0  0  0
   -2.3040   -1.8000    2.8280 H   0  0  0  0  0  0  0  0  0  0  0  0
   -4.4300   -1.4010    0.5120 H   0  0  0  0  0  0  0  0  0  0  0  0
   -3.8870    0.0620   -0.3100 H   0  0  0  0  0  0  0  0  0  0  0  0
   -2.2580   -2.2950    0.7670 H   0  0  0  0  0  0  0  0  0  0  0  0
   -0.4450   -1.8340   -0.7060 H   0  0  0  0  0  0  0  0  0  0  0  0
  2 13  1  6  0  0  0
  2  9  1  0  0  0  0
  2  3  1  0  0  0  0
  2  1  1  0  0  0  0
  3  4  1  0  0  0  0
  4  5  2  0  0  0  0
  4  8  1  0  0  0  0
  5  6  1  0  0  0  0
  6  7  1  0  0  0  0
  6 17  1  0  0  0  0
  7 18  1  0  0  0  0
  8  7  2  0  0  0  0
  9 10  2  0  0  0  0
 11  1  1  0  0  0  0
 12  1  1  0  0  0  0
 14  3  1  0  0  0  0
 15  3  1  0  0  0  0
 16  5  1  0  0  0  0
 19 20  1  0  0  0  0
 19 29  1  0  0  0  0
 21 30  1  0  0  0  0
 21 20  1  0  0  0  0
 22 21  1  0  0  0  0
 22 23  1  0  0  0  0
 23 25  1  0  0  0  0
 23 34  1  1  0  0  0
 24 23  1  0  0  0  0
 24  9  1  0  0  0  0
 25 41  1  0  0  0  0
 25 26  2  0  0  0  0
 27 19  1  0  0  0  0
 28 19  1  0  0  0  0
 31 21  1  0  0  0  0
 32 22  1  0  0  0  0
 33 22  1  0  0  0  0
 35 24  1  0  0  0  0
 36 45  1  0  0  0  0
 36 46  1  0  0  0  0
 37 48  1  0  0  0  0
 37 36  1  0  0  0  0
 37 38  1  0  0  0  0
 38 51  1  0  0  0  0
 38 49  1  0  0  0  0
 39 52  1  0  0  0  0
 39 37  1  0  0  0  0
 40 39  1  0  0  0  0
 40 54  1  1  0  0  0
 41 40  1  0  0  0  0
 42 44  1  0  0  0  0
 42 40  1  0  0  0  0
 43 42  2  0  0  0  0
 47 36  1  0  0  0  0
 50 38  1  0  0  0  0
 53 39  1  0  0  0  0
 55 41  1  0  0  0  0
M  END
$$$$
