HMP.pdb
 OpenBabel07022418373D

 50 51  0  0  1  0  0  0  0  0999 V2000
    4.4680   -2.3630    0.9960 N   0  0  0  0  0  0  0  0  0  0  0  0
    3.5910   -1.2330    0.9590 C   0  0  1  0  0  0  0  0  0  0  0  0
    3.7780   -0.4670   -0.3200 C   0  0  0  0  0  0  0  0  0  0  0  0
    3.5060   -1.2530   -1.5300 C   0  0  0  0  0  0  0  0  0  0  0  0
    2.3170   -1.4150   -2.2140 C   0  0  0  0  0  0  0  0  0  0  0  0
    2.4930   -2.2170   -3.2740 N   0  0  0  0  0  0  0  0  0  0  0  0
    3.7930   -2.5760   -3.2800 C   0  0  0  0  0  0  0  0  0  0  0  0
    4.4000   -2.0020   -2.2400 N   0  0  0  0  0  0  0  0  0  0  0  0
    2.1650   -1.5880    1.1550 C   0  0  0  0  0  0  0  0  0  0  0  0
    1.7620   -2.7600    1.3290 O   0  0  0  0  0  0  0  0  0  0  0  0
    4.2260   -3.0520    1.7390 H   0  0  0  0  0  0  0  0  0  0  0  0
    5.4280   -1.9930    1.2660 H   0  0  0  0  0  0  0  0  0  0  0  0
    3.8490   -0.5240    1.7910 H   0  0  0  0  0  0  0  0  0  0  0  0
    4.8590   -0.1610   -0.3670 H   0  0  0  0  0  0  0  0  0  0  0  0
    3.2010    0.4810   -0.2710 H   0  0  0  0  0  0  0  0  0  0  0  0
    1.3590   -0.9790   -1.9670 H   0  0  0  0  0  0  0  0  0  0  0  0
    1.7620   -2.5190   -3.9790 H   0  0  0  0  0  0  0  0  0  0  0  0
    4.2320   -3.2320   -4.0350 H   0  0  0  0  0  0  0  0  0  0  0  0
    0.5590    1.2070    5.6760 C   0  0  0  0  0  0  0  0  0  0  0  0
   -0.5030    1.9670    4.4410 S   0  0  0  0  0  0  0  0  0  0  0  0
   -0.1270    1.3520    2.7590 C   0  0  0  0  0  0  0  0  0  0  0  0
   -0.4850   -0.1070    2.6900 C   0  0  0  0  0  0  0  0  0  0  0  0
   -0.2140   -0.7220    1.3190 C   0  0  2  0  0  0  0  0  0  0  0  0
    1.2320   -0.5300    1.1390 N   0  0  0  0  0  0  0  0  0  0  0  0
   -0.9780   -0.0990    0.2590 C   0  0  0  0  0  0  0  0  0  0  0  0
   -0.3330    0.6580   -0.5500 O   0  0  0  0  0  0  0  0  0  0  0  0
    1.4130    1.8720    5.9650 H   0  0  0  0  0  0  0  0  0  0  0  0
    1.0080    0.2600    5.3520 H   0  0  0  0  0  0  0  0  0  0  0  0
    0.0120    1.0190    6.6420 H   0  0  0  0  0  0  0  0  0  0  0  0
   -0.8070    1.9050    2.0770 H   0  0  0  0  0  0  0  0  0  0  0  0
    0.9300    1.5510    2.5810 H   0  0  0  0  0  0  0  0  0  0  0  0
    0.2620   -0.6230    3.3680 H   0  0  0  0  0  0  0  0  0  0  0  0
   -1.4630   -0.3510    3.0580 H   0  0  0  0  0  0  0  0  0  0  0  0
   -0.3770   -1.8040    1.4160 H   0  0  0  0  0  0  0  0  0  0  0  0
    1.5300    0.4560    0.9940 H   0  0  0  0  0  0  0  0  0  0  0  0
   -2.3570   -0.2430    0.0270 N   0  0  0  0  0  0  0  0  0  0  0  0
   -3.1530    0.4270   -1.0250 C   0  0  0  0  0  0  0  0  0  0  0  0
   -4.2860    0.9860   -0.1670 C   0  0  0  0  0  0  0  0  0  0  0  0
   -4.5500   -0.1810    0.7680 C   0  0  0  0  0  0  0  0  0  0  0  0
   -3.3270   -1.0710    0.6990 C   0  0  1  0  0  0  0  0  0  0  0  0
   -3.6890   -2.2740   -0.0960 C   0  0  0  0  0  0  0  0  0  0  0  0
   -4.5660   -3.0410    0.3490 O   0  0  0  0  0  0  0  0  0  0  0  0
   -3.0820   -2.5530   -1.2990 O   0  0  0  0  0  0  0  0  0  0  0  0
   -2.5760    1.1990   -1.5280 H   0  0  0  0  0  0  0  0  0  0  0  0
   -3.5950   -0.3400   -1.6600 H   0  0  0  0  0  0  0  0  0  0  0  0
   -5.1720    1.2380   -0.7750 H   0  0  0  0  0  0  0  0  0  0  0  0
   -3.9100    1.8760    0.3720 H   0  0  0  0  0  0  0  0  0  0  0  0
   -4.6740    0.2300    1.7780 H   0  0  0  0  0  0  0  0  0  0  0  0
   -5.4720   -0.7030    0.4120 H   0  0  0  0  0  0  0  0  0  0  0  0
   -2.9990   -1.3900    1.7110 H   0  0  0  0  0  0  0  0  0  0  0  0
  1 12  1  0  0  0  0
  1 11  1  0  0  0  0
  2  1  1  0  0  0  0
  2  9  1  0  0  0  0
  2 13  1  1  0  0  0
  3 15  1  0  0  0  0
  3  2  1  0  0  0  0
  4  3  1  0  0  0  0
  5 16  1  0  0  0  0
  5  4  2  0  0  0  0
  6  5  1  0  0  0  0
  7  6  1  0  0  0  0
  7  8  2  0  0  0  0
  8  4  1  0  0  0  0
  9 10  2  0  0  0  0
 14  3  1  0  0  0  0
 17  6  1  0  0  0  0
 18  7  1  0  0  0  0
 19 27  1  0  0  0  0
 19 29  1  0  0  0  0
 20 19  1  0  0  0  0
 21 20  1  0  0  0  0
 22 21  1  0  0  0  0
 22 33  1  0  0  0  0
 22 32  1  0  0  0  0
 23 34  1  1  0  0  0
 23 22  1  0  0  0  0
 24  9  1  0  0  0  0
 24 23  1  0  0  0  0
 25 23  1  0  0  0  0
 26 25  2  0  0  0  0
 28 19  1  0  0  0  0
 30 21  1  0  0  0  0
 31 21  1  0  0  0  0
 35 24  1  0  0  0  0
 36 25  1  0  0  0  0
 36 40  1  0  0  0  0
 37 38  1  0  0  0  0
 37 36  1  0  0  0  0
 38 47  1  0  0  0  0
 38 39  1  0  0  0  0
 39 48  1  0  0  0  0
 40 39  1  0  0  0  0
 40 50  1  1  0  0  0
 41 42  1  0  0  0  0
 41 40  1  0  0  0  0
 43 41  2  0  0  0  0
 44 37  1  0  0  0  0
 45 37  1  0  0  0  0
 46 38  1  0  0  0  0
 49 39  1  0  0  0  0
M  END
$$$$
