HMR.pdb
 OpenBabel07022418373D

 59 59  0  0  1  0  0  0  0  0999 V2000
    2.4420   -0.4940    0.1770 N   0  0  0  0  0  0  0  0  0  0  0  0
    1.9340   -0.3260    1.5120 C   0  0  1  0  0  0  0  0  0  0  0  0
    2.7830    0.5550    2.3720 C   0  0  0  0  0  0  0  0  0  0  0  0
    4.1680   -0.0150    2.5130 C   0  0  0  0  0  0  0  0  0  0  0  0
    5.2240    0.2590    1.6760 C   0  0  0  0  0  0  0  0  0  0  0  0
    6.3090   -0.4320    2.1120 N   0  0  0  0  0  0  0  0  0  0  0  0
    5.9400   -1.1270    3.2020 C   0  0  0  0  0  0  0  0  0  0  0  0
    4.6370   -0.8670    3.4390 N   0  0  0  0  0  0  0  0  0  0  0  0
    0.4940    0.0060    1.5240 C   0  0  0  0  0  0  0  0  0  0  0  0
   -0.1080    0.1000    0.4490 O   0  0  0  0  0  0  0  0  0  0  0  0
    3.0110    0.3370   -0.1090 H   0  0  0  0  0  0  0  0  0  0  0  0
    2.9850   -1.3760    0.0480 H   0  0  0  0  0  0  0  0  0  0  0  0
    1.9980   -1.3560    1.9850 H   0  0  0  0  0  0  0  0  0  0  0  0
    2.8630    1.5940    1.9770 H   0  0  0  0  0  0  0  0  0  0  0  0
    2.3350    0.6180    3.3720 H   0  0  0  0  0  0  0  0  0  0  0  0
    5.2780    0.8920    0.8080 H   0  0  0  0  0  0  0  0  0  0  0  0
    7.2580   -0.4510    1.7120 H   0  0  0  0  0  0  0  0  0  0  0  0
    6.5910   -1.7750    3.7750 H   0  0  0  0  0  0  0  0  0  0  0  0
    0.7780    4.2070    0.7130 C   0  0  0  0  0  0  0  0  0  0  0  0
    0.2450    2.9980    1.9520 S   0  0  0  0  0  0  0  0  0  0  0  0
   -1.5540    2.9190    2.0570 C   0  0  0  0  0  0  0  0  0  0  0  0
   -1.9740    1.9240    3.0770 C   0  0  0  0  0  0  0  0  0  0  0  0
   -1.5810    0.5100    2.8480 C   0  0  2  0  0  0  0  0  0  0  0  0
   -0.2060    0.2150    2.7480 N   0  0  0  0  0  0  0  0  0  0  0  0
   -2.4860   -0.2470    1.9300 C   0  0  0  0  0  0  0  0  0  0  0  0
   -3.6200    0.2480    1.7210 O   0  0  0  0  0  0  0  0  0  0  0  0
    1.7090    4.7240    1.0150 H   0  0  0  0  0  0  0  0  0  0  0  0
    0.9380    3.6790   -0.2520 H   0  0  0  0  0  0  0  0  0  0  0  0
   -0.0650    4.9300    0.5560 H   0  0  0  0  0  0  0  0  0  0  0  0
   -1.9530    3.9290    2.3300 H   0  0  0  0  0  0  0  0  0  0  0  0
   -1.9920    2.7030    1.0620 H   0  0  0  0  0  0  0  0  0  0  0  0
   -3.0870    1.9950    3.1900 H   0  0  0  0  0  0  0  0  0  0  0  0
   -1.5970    2.2320    4.1050 H   0  0  0  0  0  0  0  0  0  0  0  0
   -1.8740   -0.0040    3.8820 H   0  0  0  0  0  0  0  0  0  0  0  0
    0.3710    0.1420    3.6330 H   0  0  0  0  0  0  0  0  0  0  0  0
   -2.3380   -4.4040   -5.6850 N   0  0  0  0  0  0  0  0  0  0  0  0
   -1.5210   -3.6900   -4.7850 C   0  0  0  0  0  0  0  0  0  0  0  0
   -0.4700   -3.0960   -5.2680 N   0  0  0  0  0  0  0  0  0  0  0  0
   -1.8210   -3.6130   -3.3970 N   0  0  0  0  0  0  0  0  0  0  0  0
   -0.8520   -3.0040   -2.5390 C   0  0  0  0  0  0  0  0  0  0  0  0
   -1.2820   -2.9780   -1.0890 C   0  0  0  0  0  0  0  0  0  0  0  0
   -2.5500   -2.2010   -0.9830 C   0  0  0  0  0  0  0  0  0  0  0  0
   -3.0750   -2.1090    0.4300 C   0  0  2  0  0  0  0  0  0  0  0  0
   -2.1270   -1.4620    1.3140 N   0  0  0  0  0  0  0  0  0  0  0  0
   -3.4680   -3.4250    0.9680 C   0  0  0  0  0  0  0  0  0  0  0  0
   -2.9690   -3.8050    2.0540 O   0  0  0  0  0  0  0  0  0  0  0  0
   -4.3610   -4.2900    0.3580 O   0  0  0  0  0  0  0  0  0  0  0  0
   -1.8920   -4.8970   -6.4900 H   0  0  0  0  0  0  0  0  0  0  0  0
   -3.3890   -4.4520   -5.5630 H   0  0  0  0  0  0  0  0  0  0  0  0
    0.1520   -2.5600   -4.6250 H   0  0  0  0  0  0  0  0  0  0  0  0
   -2.7270   -4.0030   -3.0780 H   0  0  0  0  0  0  0  0  0  0  0  0
    0.1130   -3.5370   -2.6470 H   0  0  0  0  0  0  0  0  0  0  0  0
   -0.7340   -1.9410   -2.8530 H   0  0  0  0  0  0  0  0  0  0  0  0
   -1.4490   -4.0310   -0.7830 H   0  0  0  0  0  0  0  0  0  0  0  0
   -0.4440   -2.5580   -0.5140 H   0  0  0  0  0  0  0  0  0  0  0  0
   -3.2980   -2.6530   -1.6640 H   0  0  0  0  0  0  0  0  0  0  0  0
   -2.3950   -1.1560   -1.3340 H   0  0  0  0  0  0  0  0  0  0  0  0
   -3.9950   -1.4940    0.3820 H   0  0  0  0  0  0  0  0  0  0  0  0
   -1.1950   -1.9510    1.4940 H   0  0  0  0  0  0  0  0  0  0  0  0
  1  2  1  0  0  0  0
  2  9  1  0  0  0  0
  2 13  1  1  0  0  0
  2  3  1  0  0  0  0
  3  4  1  0  0  0  0
  3 15  1  0  0  0  0
  4  8  1  0  0  0  0
  5  6  1  0  0  0  0
  5  4  2  0  0  0  0
  6  7  1  0  0  0  0
  7  8  2  0  0  0  0
  7 18  1  0  0  0  0
  9 24  1  0  0  0  0
 10  9  2  0  0  0  0
 11  1  1  0  0  0  0
 12  1  1  0  0  0  0
 14  3  1  0  0  0  0
 16  5  1  0  0  0  0
 17  6  1  0  0  0  0
 19 27  1  0  0  0  0
 19 20  1  0  0  0  0
 20 21  1  0  0  0  0
 21 30  1  0  0  0  0
 21 22  1  0  0  0  0
 22 32  1  0  0  0  0
 22 33  1  0  0  0  0
 23 22  1  0  0  0  0
 23 34  1  1  0  0  0
 24 23  1  0  0  0  0
 24 35  1  0  0  0  0
 25 23  1  0  0  0  0
 26 25  2  0  0  0  0
 28 19  1  0  0  0  0
 29 19  1  0  0  0  0
 31 21  1  0  0  0  0
 36 49  1  0  0  0  0
 36 37  1  0  0  0  0
 37 39  1  0  0  0  0
 38 37  2  0  0  0  0
 38 50  1  0  0  0  0
 39 51  1  0  0  0  0
 39 40  1  0  0  0  0
 40 41  1  0  0  0  0
 41 42  1  0  0  0  0
 41 54  1  0  0  0  0
 41 55  1  0  0  0  0
 42 43  1  0  0  0  0
 43 58  1  6  0  0  0
 43 45  1  0  0  0  0
 43 44  1  0  0  0  0
 44 59  1  0  0  0  0
 44 25  1  0  0  0  0
 45 46  1  0  0  0  0
 47 45  2  0  0  0  0
 48 36  1  0  0  0  0
 52 40  1  0  0  0  0
 53 40  1  0  0  0  0
 56 42  1  0  0  0  0
 57 42  1  0  0  0  0
M  END
$$$$
