HMT.pdb
 OpenBabel07022418373D

 50 50  0  0  1  0  0  0  0  0999 V2000
    1.4930   -2.0230    3.4910 N   0  0  0  0  0  0  0  0  0  0  0  0
    0.0550   -1.9400    3.5070 C   0  0  1  0  0  0  0  0  0  0  0  0
   -0.5250   -1.4330    4.7920 C   0  0  0  0  0  0  0  0  0  0  0  0
   -0.1180   -0.0940    5.1960 C   0  0  0  0  0  0  0  0  0  0  0  0
    0.9720    0.2170    5.9740 C   0  0  0  0  0  0  0  0  0  0  0  0
    1.0010    1.5670    6.1220 N   0  0  0  0  0  0  0  0  0  0  0  0
   -0.0480    2.0710    5.4490 C   0  0  0  0  0  0  0  0  0  0  0  0
   -0.7390    1.0510    4.8780 N   0  0  0  0  0  0  0  0  0  0  0  0
   -0.4820   -1.3110    2.2890 C   0  0  0  0  0  0  0  0  0  0  0  0
   -1.6970   -1.0230    2.1610 O   0  0  0  0  0  0  0  0  0  0  0  0
    1.9080   -1.9490    4.4280 H   0  0  0  0  0  0  0  0  0  0  0  0
    1.8730   -2.7630    2.8900 H   0  0  0  0  0  0  0  0  0  0  0  0
   -0.2840   -3.0290    3.4560 H   0  0  0  0  0  0  0  0  0  0  0  0
   -1.6310   -1.5020    4.7120 H   0  0  0  0  0  0  0  0  0  0  0  0
   -0.2600   -2.2140    5.5680 H   0  0  0  0  0  0  0  0  0  0  0  0
    1.7210   -0.4180    6.4280 H   0  0  0  0  0  0  0  0  0  0  0  0
    1.7130    2.1370    6.6640 H   0  0  0  0  0  0  0  0  0  0  0  0
   -0.2500    3.1350    5.4100 H   0  0  0  0  0  0  0  0  0  0  0  0
    3.0990    1.0490    2.0360 C   0  0  0  0  0  0  0  0  0  0  0  0
    1.3090    1.2680    2.2090 S   0  0  0  0  0  0  0  0  0  0  0  0
    0.5610    1.8620    0.6660 C   0  0  0  0  0  0  0  0  0  0  0  0
    0.6550    0.8350   -0.4260 C   0  0  0  0  0  0  0  0  0  0  0  0
   -0.0840   -0.4080    0.0050 C   0  0  2  0  0  0  0  0  0  0  0  0
    0.4060   -1.0150    1.2010 N   0  0  0  0  0  0  0  0  0  0  0  0
   -0.0960   -1.4110   -1.1350 C   0  0  0  0  0  0  0  0  0  0  0  0
    0.2810   -2.5980   -0.9820 O   0  0  0  0  0  0  0  0  0  0  0  0
    3.6480    1.9550    2.3600 H   0  0  0  0  0  0  0  0  0  0  0  0
    3.3080    0.8290    0.9750 H   0  0  0  0  0  0  0  0  0  0  0  0
    3.4400    0.1540    2.6080 H   0  0  0  0  0  0  0  0  0  0  0  0
    0.9680    2.8490    0.3620 H   0  0  0  0  0  0  0  0  0  0  0  0
   -0.5160    2.0460    0.8950 H   0  0  0  0  0  0  0  0  0  0  0  0
    0.0910    1.2530   -1.3000 H   0  0  0  0  0  0  0  0  0  0  0  0
    1.6930    0.6250   -0.7340 H   0  0  0  0  0  0  0  0  0  0  0  0
   -1.1550   -0.1200    0.1680 H   0  0  0  0  0  0  0  0  0  0  0  0
    1.4360   -1.2370    1.2570 H   0  0  0  0  0  0  0  0  0  0  0  0
   -2.8300   -2.5490   -2.7940 C   0  0  0  0  0  0  0  0  0  0  0  0
   -1.9910   -2.1310   -3.9790 C   0  0  1  0  0  0  0  0  0  0  0  0
   -2.3630   -0.8370   -4.4100 O   0  0  0  0  0  0  0  0  0  0  0  0
   -0.5460   -1.9890   -3.4980 C   0  0  2  0  0  0  0  0  0  0  0  0
   -0.5390   -1.0330   -2.4290 N   0  0  0  0  0  0  0  0  0  0  0  0
    0.2590   -1.5940   -4.6530 C   0  0  0  0  0  0  0  0  0  0  0  0
    0.8890   -0.5120   -4.6850 O   0  0  0  0  0  0  0  0  0  0  0  0
    0.3320   -2.4350   -5.7480 O   0  0  0  0  0  0  0  0  0  0  0  0
   -2.4280   -2.0330   -1.8990 H   0  0  0  0  0  0  0  0  0  0  0  0
   -3.8750   -2.2230   -2.9430 H   0  0  0  0  0  0  0  0  0  0  0  0
   -2.8130   -3.6430   -2.7000 H   0  0  0  0  0  0  0  0  0  0  0  0
   -2.0410   -2.8230   -4.8190 H   0  0  0  0  0  0  0  0  0  0  0  0
   -3.1400   -0.5640   -3.8780 H   0  0  0  0  0  0  0  0  0  0  0  0
   -0.1840   -2.9730   -3.1370 H   0  0  0  0  0  0  0  0  0  0  0  0
   -0.8660   -0.0530   -2.6190 H   0  0  0  0  0  0  0  0  0  0  0  0
  1  2  1  0  0  0  0
  1 11  1  0  0  0  0
  2 13  1  6  0  0  0
  2  3  1  0  0  0  0
  3  4  1  0  0  0  0
  3 15  1  0  0  0  0
  4  5  2  0  0  0  0
  5  6  1  0  0  0  0
  5 16  1  0  0  0  0
  6 17  1  0  0  0  0
  7  6  1  0  0  0  0
  8  4  1  0  0  0  0
  8  7  2  0  0  0  0
  9  2  1  0  0  0  0
 10  9  2  0  0  0  0
 12  1  1  0  0  0  0
 14  3  1  0  0  0  0
 18  7  1  0  0  0  0
 19 20  1  0  0  0  0
 19 27  1  0  0  0  0
 19 29  1  0  0  0  0
 21 31  1  0  0  0  0
 21 20  1  0  0  0  0
 22 23  1  0  0  0  0
 22 21  1  0  0  0  0
 23 34  1  1  0  0  0
 23 24  1  0  0  0  0
 24 35  1  0  0  0  0
 24  9  1  0  0  0  0
 25 26  2  0  0  0  0
 25 23  1  0  0  0  0
 28 19  1  0  0  0  0
 30 21  1  0  0  0  0
 32 22  1  0  0  0  0
 33 22  1  0  0  0  0
 36 46  1  0  0  0  0
 36 44  1  0  0  0  0
 37 47  1  6  0  0  0
 37 39  1  0  0  0  0
 37 36  1  0  0  0  0
 38 37  1  0  0  0  0
 38 48  1  0  0  0  0
 39 49  1  1  0  0  0
 39 40  1  0  0  0  0
 40 25  1  0  0  0  0
 41 39  1  0  0  0  0
 42 41  1  0  0  0  0
 43 41  2  0  0  0  0
 45 36  1  0  0  0  0
 50 40  1  0  0  0  0
M  END
$$$$
