HMW.pdb
 OpenBabel07022418373D

 60 62  0  0  1  0  0  0  0  0999 V2000
    3.2720   -0.5650    1.1020 N   0  0  0  0  0  0  0  0  0  0  0  0
    2.4010   -0.9200    2.1720 C   0  0  1  0  0  0  0  0  0  0  0  0
    2.8730   -0.4360    3.5020 C   0  0  0  0  0  0  0  0  0  0  0  0
    4.2120   -0.9930    3.8500 C   0  0  0  0  0  0  0  0  0  0  0  0
    5.4360   -0.4260    3.5520 C   0  0  0  0  0  0  0  0  0  0  0  0
    6.4010   -1.2250    4.0310 N   0  0  0  0  0  0  0  0  0  0  0  0
    5.8150   -2.2620    4.6120 C   0  0  0  0  0  0  0  0  0  0  0  0
    4.4760   -2.1340    4.5090 N   0  0  0  0  0  0  0  0  0  0  0  0
    0.9910   -0.5000    1.9670 C   0  0  0  0  0  0  0  0  0  0  0  0
    0.2070   -0.7850    2.9230 O   0  0  0  0  0  0  0  0  0  0  0  0
    3.5530    0.4280    1.0620 H   0  0  0  0  0  0  0  0  0  0  0  0
    3.0540   -1.0000    0.1990 H   0  0  0  0  0  0  0  0  0  0  0  0
    2.3740   -2.0440    2.2080 H   0  0  0  0  0  0  0  0  0  0  0  0
    2.1750   -0.7430    4.3150 H   0  0  0  0  0  0  0  0  0  0  0  0
    2.9360    0.6610    3.5320 H   0  0  0  0  0  0  0  0  0  0  0  0
    5.5370    0.5140    3.0160 H   0  0  0  0  0  0  0  0  0  0  0  0
    7.4250   -1.0540    3.9560 H   0  0  0  0  0  0  0  0  0  0  0  0
    6.3060   -3.1040    5.1060 H   0  0  0  0  0  0  0  0  0  0  0  0
   -2.3750    3.4790   -2.0680 C   0  0  0  0  0  0  0  0  0  0  0  0
   -3.1670    2.6090   -0.6930 S   0  0  0  0  0  0  0  0  0  0  0  0
   -2.2370    2.7010    0.8180 C   0  0  0  0  0  0  0  0  0  0  0  0
   -0.9390    2.0240    0.8660 C   0  0  0  0  0  0  0  0  0  0  0  0
   -0.9260    0.5210    0.7490 C   0  0  2  0  0  0  0  0  0  0  0  0
    0.5280    0.1600    0.8230 N   0  0  0  0  0  0  0  0  0  0  0  0
   -1.3960    0.0350   -0.5260 C   0  0  0  0  0  0  0  0  0  0  0  0
   -0.5270   -0.1170   -1.4590 O   0  0  0  0  0  0  0  0  0  0  0  0
   -2.3790    4.5720   -1.9380 H   0  0  0  0  0  0  0  0  0  0  0  0
   -1.3440    3.0950   -2.2750 H   0  0  0  0  0  0  0  0  0  0  0  0
   -2.9840    3.2690   -2.9790 H   0  0  0  0  0  0  0  0  0  0  0  0
   -2.1680    3.7900    1.1270 H   0  0  0  0  0  0  0  0  0  0  0  0
   -2.8850    2.2630    1.6440 H   0  0  0  0  0  0  0  0  0  0  0  0
   -0.4980    2.2310    1.9000 H   0  0  0  0  0  0  0  0  0  0  0  0
   -0.1650    2.4810    0.1890 H   0  0  0  0  0  0  0  0  0  0  0  0
   -1.3820    0.0420    1.6430 H   0  0  0  0  0  0  0  0  0  0  0  0
    1.1710    0.3910    0.0520 H   0  0  0  0  0  0  0  0  0  0  0  0
   -2.7420   -0.3200   -0.8860 N   0  0  0  0  0  0  0  0  0  0  0  0
   -3.0040   -0.7970   -2.2070 C   0  0  1  0  0  0  0  0  0  0  0  0
   -3.0830   -2.3430   -2.2680 C   0  0  0  0  0  0  0  0  0  0  0  0
   -1.8410   -2.9790   -1.8180 C   0  0  0  0  0  0  0  0  0  0  0  0
   -0.8070   -3.4410   -2.6270 C   0  0  0  0  0  0  0  0  0  0  0  0
    0.1730   -3.9430   -1.8600 N   0  0  0  0  0  0  0  0  0  0  0  0
   -0.1990   -3.8190   -0.5760 C   0  0  0  0  0  0  0  0  0  0  0  0
    0.4610   -4.1950    0.5610 C   0  0  0  0  0  0  0  0  0  0  0  0
   -0.1580   -3.9630    1.7710 C   0  0  0  0  0  0  0  0  0  0  0  0
   -1.3870   -3.3790    1.8630 C   0  0  0  0  0  0  0  0  0  0  0  0
   -2.0430   -3.0040    0.7230 C   0  0  0  0  0  0  0  0  0  0  0  0
   -1.4570   -3.2190   -0.5200 C   0  0  0  0  0  0  0  0  0  0  0  0
   -4.2090   -0.2570   -2.8640 C   0  0  0  0  0  0  0  0  0  0  0  0
   -4.9920    0.5050   -2.2840 O   0  0  0  0  0  0  0  0  0  0  0  0
   -4.4790   -0.6140   -4.1770 O   0  0  0  0  0  0  0  0  0  0  0  0
   -3.4690   -0.2270   -0.1530 H   0  0  0  0  0  0  0  0  0  0  0  0
   -2.1250   -0.5610   -2.8790 H   0  0  0  0  0  0  0  0  0  0  0  0
   -3.9880   -2.6740   -1.7190 H   0  0  0  0  0  0  0  0  0  0  0  0
   -3.2120   -2.5760   -3.3590 H   0  0  0  0  0  0  0  0  0  0  0  0
   -0.8320   -3.3840   -3.7010 H   0  0  0  0  0  0  0  0  0  0  0  0
    1.0520   -4.3480   -2.2350 H   0  0  0  0  0  0  0  0  0  0  0  0
    1.4450   -4.6650    0.5270 H   0  0  0  0  0  0  0  0  0  0  0  0
    0.3730   -4.2640    2.6670 H   0  0  0  0  0  0  0  0  0  0  0  0
   -1.8810   -3.1930    2.8080 H   0  0  0  0  0  0  0  0  0  0  0  0
   -3.0190   -2.5410    0.7840 H   0  0  0  0  0  0  0  0  0  0  0  0
  1  2  1  0  0  0  0
  2 13  1  1  0  0  0
  2  3  1  0  0  0  0
  3 15  1  0  0  0  0
  3  4  1  0  0  0  0
  3 14  1  0  0  0  0
  4  8  1  0  0  0  0
  5  4  2  0  0  0  0
  5  6  1  0  0  0  0
  6  7  1  0  0  0  0
  7 18  1  0  0  0  0
  8  7  2  0  0  0  0
  9  2  1  0  0  0  0
  9 10  2  0  0  0  0
 11  1  1  0  0  0  0
 12  1  1  0  0  0  0
 16  5  1  0  0  0  0
 17  6  1  0  0  0  0
 19 27  1  0  0  0  0
 19 20  1  0  0  0  0
 20 21  1  0  0  0  0
 21 22  1  0  0  0  0
 21 30  1  0  0  0  0
 21 31  1  0  0  0  0
 22 32  1  0  0  0  0
 23 24  1  0  0  0  0
 23 22  1  0  0  0  0
 23 34  1  1  0  0  0
 24  9  1  0  0  0  0
 25 23  1  0  0  0  0
 26 25  2  0  0  0  0
 28 19  1  0  0  0  0
 29 19  1  0  0  0  0
 33 22  1  0  0  0  0
 35 24  1  0  0  0  0
 36 25  1  0  0  0  0
 36 51  1  0  0  0  0
 37 52  1  6  0  0  0
 37 36  1  0  0  0  0
 38 37  1  0  0  0  0
 38 39  1  0  0  0  0
 38 53  1  0  0  0  0
 39 47  1  0  0  0  0
 40 41  1  0  0  0  0
 40 39  2  0  0  0  0
 41 42  1  0  0  0  0
 42 47  2  0  0  0  0
 42 43  1  0  0  0  0
 43 44  2  0  0  0  0
 44 45  1  0  0  0  0
 44 58  1  0  0  0  0
 45 59  1  0  0  0  0
 46 60  1  0  0  0  0
 46 45  2  0  0  0  0
 47 46  1  0  0  0  0
 48 49  1  0  0  0  0
 48 37  1  0  0  0  0
 50 48  2  0  0  0  0
 54 38  1  0  0  0  0
 55 40  1  0  0  0  0
 56 41  1  0  0  0  0
 57 43  1  0  0  0  0
M  END
$$$$
