HMY.pdb
 OpenBabel07022418373D

 57 58  0  0  1  0  0  0  0  0999 V2000
    1.9850   -1.1980    0.7630 N   0  0  0  0  0  0  0  0  0  0  0  0
    1.7200   -0.2980    1.8320 C   0  0  1  0  0  0  0  0  0  0  0  0
    2.9910    0.4620    2.1420 C   0  0  0  0  0  0  0  0  0  0  0  0
    4.0680   -0.4790    2.5380 C   0  0  0  0  0  0  0  0  0  0  0  0
    4.9910   -1.1030    1.7070 C   0  0  0  0  0  0  0  0  0  0  0  0
    5.7990   -1.8780    2.4510 N   0  0  0  0  0  0  0  0  0  0  0  0
    5.4130   -1.7640    3.7320 C   0  0  0  0  0  0  0  0  0  0  0  0
    4.3590   -0.9090    3.7670 N   0  0  0  0  0  0  0  0  0  0  0  0
    0.5700    0.5900    1.6090 C   0  0  0  0  0  0  0  0  0  0  0  0
    0.2580    1.4210    2.5020 O   0  0  0  0  0  0  0  0  0  0  0  0
    2.7170   -0.9200    0.1040 H   0  0  0  0  0  0  0  0  0  0  0  0
    1.9880   -2.2030    1.0240 H   0  0  0  0  0  0  0  0  0  0  0  0
    1.4900   -0.9060    2.7440 H   0  0  0  0  0  0  0  0  0  0  0  0
    3.3640    1.0080    1.2350 H   0  0  0  0  0  0  0  0  0  0  0  0
    2.8610    1.2300    2.9190 H   0  0  0  0  0  0  0  0  0  0  0  0
    5.0670   -0.9940    0.6220 H   0  0  0  0  0  0  0  0  0  0  0  0
    6.5730   -2.4570    2.1080 H   0  0  0  0  0  0  0  0  0  0  0  0
    5.8640   -2.2670    4.5940 H   0  0  0  0  0  0  0  0  0  0  0  0
    1.2390    5.3650    0.7460 C   0  0  0  0  0  0  0  0  0  0  0  0
   -0.1710    4.2560    0.5170 S   0  0  0  0  0  0  0  0  0  0  0  0
    0.0420    3.1810   -0.9270 C   0  0  0  0  0  0  0  0  0  0  0  0
   -1.1830    2.3010   -1.0260 C   0  0  0  0  0  0  0  0  0  0  0  0
   -1.3580    1.4480    0.2160 C   0  0  2  0  0  0  0  0  0  0  0  0
   -0.2300    0.5790    0.4380 N   0  0  0  0  0  0  0  0  0  0  0  0
   -2.5880    0.6390    0.0070 C   0  0  0  0  0  0  0  0  0  0  0  0
   -3.6740    1.2770   -0.2040 O   0  0  0  0  0  0  0  0  0  0  0  0
    0.9670    6.3800    0.3690 H   0  0  0  0  0  0  0  0  0  0  0  0
    1.4120    5.4760    1.8500 H   0  0  0  0  0  0  0  0  0  0  0  0
    2.1360    5.0140    0.2170 H   0  0  0  0  0  0  0  0  0  0  0  0
    0.9780    2.6250   -0.9140 H   0  0  0  0  0  0  0  0  0  0  0  0
    0.0390    3.8410   -1.8180 H   0  0  0  0  0  0  0  0  0  0  0  0
   -2.0580    2.9770   -1.1110 H   0  0  0  0  0  0  0  0  0  0  0  0
   -1.1660    1.6850   -1.9480 H   0  0  0  0  0  0  0  0  0  0  0  0
   -1.5520    2.1350    1.0490 H   0  0  0  0  0  0  0  0  0  0  0  0
    0.0200   -0.1060   -0.3070 H   0  0  0  0  0  0  0  0  0  0  0  0
    0.4000   -5.9700   -0.8220 O   0  0  0  0  0  0  0  0  0  0  0  0
   -0.6450   -5.0670   -0.9700 C   0  0  0  0  0  0  0  0  0  0  0  0
   -0.3660   -3.8290   -1.5040 C   0  0  0  0  0  0  0  0  0  0  0  0
   -1.4060   -2.9470   -1.6450 C   0  0  0  0  0  0  0  0  0  0  0  0
   -2.6950   -3.2950   -1.2610 C   0  0  0  0  0  0  0  0  0  0  0  0
   -3.7900   -2.3180   -1.4350 C   0  0  0  0  0  0  0  0  0  0  0  0
   -3.8630   -1.4650   -0.1860 C   0  0  2  0  0  0  0  0  0  0  0  0
   -2.6180   -0.7730    0.0280 N   0  0  0  0  0  0  0  0  0  0  0  0
   -4.2520   -2.3050    0.9590 C   0  0  0  0  0  0  0  0  0  0  0  0
   -5.3270   -2.9570    0.9530 O   0  0  0  0  0  0  0  0  0  0  0  0
   -2.9580   -4.5230   -0.7350 C   0  0  0  0  0  0  0  0  0  0  0  0
   -1.9080   -5.4300   -0.5860 C   0  0  0  0  0  0  0  0  0  0  0  0
   -3.4590   -2.4190    2.0950 O   0  0  0  0  0  0  0  0  0  0  0  0
    0.6560   -6.5150   -1.6330 H   0  0  0  0  0  0  0  0  0  0  0  0
    0.6420   -3.5900   -1.7910 H   0  0  0  0  0  0  0  0  0  0  0  0
   -1.2270   -1.9650   -2.0590 H   0  0  0  0  0  0  0  0  0  0  0  0
   -4.7440   -2.8450   -1.6030 H   0  0  0  0  0  0  0  0  0  0  0  0
   -3.6000   -1.6700   -2.3140 H   0  0  0  0  0  0  0  0  0  0  0  0
   -4.6810   -0.7140   -0.3510 H   0  0  0  0  0  0  0  0  0  0  0  0
   -1.7510   -1.2940    0.1970 H   0  0  0  0  0  0  0  0  0  0  0  0
   -3.9370   -4.8460   -0.4250 H   0  0  0  0  0  0  0  0  0  0  0  0
   -2.1480   -6.4000   -0.1650 H   0  0  0  0  0  0  0  0  0  0  0  0
  1 12  1  0  0  0  0
  1  2  1  0  0  0  0
  2  3  1  0  0  0  0
  2 13  1  1  0  0  0
  3  4  1  0  0  0  0
  3 15  1  0  0  0  0
  4  8  1  0  0  0  0
  5  6  1  0  0  0  0
  5  4  2  0  0  0  0
  6  7  1  0  0  0  0
  7  8  2  0  0  0  0
  7 18  1  0  0  0  0
  9  2  1  0  0  0  0
  9 10  2  0  0  0  0
 11  1  1  0  0  0  0
 14  3  1  0  0  0  0
 16  5  1  0  0  0  0
 17  6  1  0  0  0  0
 19 28  1  0  0  0  0
 20 19  1  0  0  0  0
 21 30  1  0  0  0  0
 21 20  1  0  0  0  0
 22 21  1  0  0  0  0
 22 23  1  0  0  0  0
 23 24  1  0  0  0  0
 23 34  1  1  0  0  0
 24  9  1  0  0  0  0
 25 43  1  0  0  0  0
 25 23  1  0  0  0  0
 26 25  2  0  0  0  0
 27 19  1  0  0  0  0
 29 19  1  0  0  0  0
 31 21  1  0  0  0  0
 32 22  1  0  0  0  0
 33 22  1  0  0  0  0
 35 24  1  0  0  0  0
 37 36  1  0  0  0  0
 37 47  1  0  0  0  0
 38 37  2  0  0  0  0
 39 38  1  0  0  0  0
 39 40  2  0  0  0  0
 40 46  1  0  0  0  0
 41 40  1  0  0  0  0
 41 42  1  0  0  0  0
 42 54  1  6  0  0  0
 42 43  1  0  0  0  0
 42 44  1  0  0  0  0
 43 55  1  0  0  0  0
 44 48  1  0  0  0  0
 45 44  2  0  0  0  0
 46 47  2  0  0  0  0
 46 56  1  0  0  0  0
 47 57  1  0  0  0  0
 49 36  1  0  0  0  0
 50 38  1  0  0  0  0
 51 39  1  0  0  0  0
 52 41  1  0  0  0  0
 53 41  1  0  0  0  0
M  END
$$$$
