HNA.pdb
 OpenBabel07022418353D

 43 43  0  0  1  0  0  0  0  0999 V2000
    2.4020   -2.1150    4.4880 N   0  0  0  0  0  0  0  0  0  0  0  0
    2.4620   -1.1640    3.4040 C   0  0  1  0  0  0  0  0  0  0  0  0
    3.4110   -1.6470    2.3540 C   0  0  0  0  0  0  0  0  0  0  0  0
    3.0430   -2.9470    1.7740 C   0  0  0  0  0  0  0  0  0  0  0  0
    2.2460   -3.1340    0.6720 C   0  0  0  0  0  0  0  0  0  0  0  0
    2.1320   -4.4510    0.4320 N   0  0  0  0  0  0  0  0  0  0  0  0
    2.8490   -5.0950    1.3730 C   0  0  0  0  0  0  0  0  0  0  0  0
    3.4060   -4.1670    2.1930 N   0  0  0  0  0  0  0  0  0  0  0  0
    1.1350   -0.7750    2.9080 C   0  0  0  0  0  0  0  0  0  0  0  0
    0.0800   -1.3030    3.3940 O   0  0  0  0  0  0  0  0  0  0  0  0
    1.8680   -1.7090    5.2950 H   0  0  0  0  0  0  0  0  0  0  0  0
    3.3980   -2.2030    4.8480 H   0  0  0  0  0  0  0  0  0  0  0  0
    2.9170   -0.2310    3.8480 H   0  0  0  0  0  0  0  0  0  0  0  0
    3.5210   -0.8920    1.5460 H   0  0  0  0  0  0  0  0  0  0  0  0
    4.4160   -1.7200    2.8260 H   0  0  0  0  0  0  0  0  0  0  0  0
    1.7600   -2.3950    0.0520 H   0  0  0  0  0  0  0  0  0  0  0  0
    1.5740   -4.8890   -0.3600 H   0  0  0  0  0  0  0  0  0  0  0  0
    2.9480   -6.1780    1.4390 H   0  0  0  0  0  0  0  0  0  0  0  0
   -1.6270    4.1590    2.0110 N   0  0  0  0  0  0  0  0  0  0  0  0
   -1.6860    2.7640    1.6340 C   0  0  0  0  0  0  0  0  0  0  0  0
   -2.7540    2.3960    1.1570 O   0  0  0  0  0  0  0  0  0  0  0  0
   -0.5120    1.9830    1.8550 C   0  0  0  0  0  0  0  0  0  0  0  0
   -0.4460    0.5500    1.4210 C   0  0  2  0  0  0  0  0  0  0  0  0
    0.9270    0.1790    1.8960 N   0  0  0  0  0  0  0  0  0  0  0  0
   -0.3880    0.3050   -0.0170 C   0  0  0  0  0  0  0  0  0  0  0  0
    0.7520    0.0720   -0.5770 O   0  0  0  0  0  0  0  0  0  0  0  0
   -2.4600    4.6290    2.4050 H   0  0  0  0  0  0  0  0  0  0  0  0
   -0.7380    4.6810    1.8810 H   0  0  0  0  0  0  0  0  0  0  0  0
    0.4360    2.4550    1.4820 H   0  0  0  0  0  0  0  0  0  0  0  0
   -0.3350    1.9460    2.9780 H   0  0  0  0  0  0  0  0  0  0  0  0
   -1.1290   -0.1060    1.9870 H   0  0  0  0  0  0  0  0  0  0  0  0
    1.7330    0.6470    1.4560 H   0  0  0  0  0  0  0  0  0  0  0  0
   -2.0630   -1.1750   -2.8100 C   0  0  0  0  0  0  0  0  0  0  0  0
   -1.3230    0.0400   -2.3370 C   0  0  2  0  0  0  0  0  0  0  0  0
   -1.4790    0.2880   -0.9100 N   0  0  0  0  0  0  0  0  0  0  0  0
   -1.7050    1.2610   -3.1200 C   0  0  0  0  0  0  0  0  0  0  0  0
   -2.0990    2.3250   -2.5890 O   0  0  0  0  0  0  0  0  0  0  0  0
   -1.6190    1.2140   -4.5010 O   0  0  0  0  0  0  0  0  0  0  0  0
   -1.3740   -2.0140   -2.9270 H   0  0  0  0  0  0  0  0  0  0  0  0
   -2.5650   -0.9110   -3.7770 H   0  0  0  0  0  0  0  0  0  0  0  0
   -2.8190   -1.4420   -2.0480 H   0  0  0  0  0  0  0  0  0  0  0  0
   -0.2440   -0.1120   -2.5230 H   0  0  0  0  0  0  0  0  0  0  0  0
   -2.4300    0.4410   -0.5240 H   0  0  0  0  0  0  0  0  0  0  0  0
  1 12  1  0  0  0  0
  1 11  1  0  0  0  0
  2 13  1  1  0  0  0
  2  1  1  0  0  0  0
  3 15  1  0  0  0  0
  3  2  1  0  0  0  0
  4  8  1  0  0  0  0
  4  3  1  0  0  0  0
  5  4  2  0  0  0  0
  6  5  1  0  0  0  0
  6  7  1  0  0  0  0
  7 18  1  0  0  0  0
  7  8  2  0  0  0  0
  9 10  2  0  0  0  0
  9  2  1  0  0  0  0
 14  3  1  0  0  0  0
 16  5  1  0  0  0  0
 17  6  1  0  0  0  0
 19 27  1  0  0  0  0
 20 22  1  0  0  0  0
 20 19  1  0  0  0  0
 21 20  2  0  0  0  0
 22 30  1  0  0  0  0
 23 22  1  0  0  0  0
 23 24  1  0  0  0  0
 23 31  1  1  0  0  0
 24  9  1  0  0  0  0
 25 23  1  0  0  0  0
 26 25  2  0  0  0  0
 28 19  1  0  0  0  0
 29 22  1  0  0  0  0
 32 24  1  0  0  0  0
 33 34  1  0  0  0  0
 33 41  1  0  0  0  0
 34 42  1  6  0  0  0
 34 35  1  0  0  0  0
 35 43  1  0  0  0  0
 35 25  1  0  0  0  0
 36 37  1  0  0  0  0
 36 34  1  0  0  0  0
 38 36  2  0  0  0  0
 39 33  1  0  0  0  0
 40 33  1  0  0  0  0
M  END
$$$$
