HNE.pdb
 OpenBabel07022418353D

 49 49  0  0  1  0  0  0  0  0999 V2000
    0.5510   -1.2070   -3.4080 N   0  0  0  0  0  0  0  0  0  0  0  0
    1.7230   -1.4810   -2.5650 C   0  0  1  0  0  0  0  0  0  0  0  0
    2.8570   -0.6880   -3.1930 C   0  0  0  0  0  0  0  0  0  0  0  0
    4.1380   -0.8460   -2.4640 C   0  0  0  0  0  0  0  0  0  0  0  0
    4.6680   -0.1060   -1.4260 C   0  0  0  0  0  0  0  0  0  0  0  0
    5.8810   -0.6200   -1.0770 N   0  0  0  0  0  0  0  0  0  0  0  0
    6.1040   -1.6590   -1.8800 C   0  0  0  0  0  0  0  0  0  0  0  0
    5.0570   -1.8010   -2.7190 N   0  0  0  0  0  0  0  0  0  0  0  0
    1.4310   -0.9640   -1.2030 C   0  0  0  0  0  0  0  0  0  0  0  0
    2.3130   -1.1400   -0.3320 O   0  0  0  0  0  0  0  0  0  0  0  0
    0.8090   -1.1280   -4.4160 H   0  0  0  0  0  0  0  0  0  0  0  0
   -0.2050   -1.9110   -3.2560 H   0  0  0  0  0  0  0  0  0  0  0  0
    1.9200   -2.5630   -2.5780 H   0  0  0  0  0  0  0  0  0  0  0  0
    2.9530   -0.9150   -4.2720 H   0  0  0  0  0  0  0  0  0  0  0  0
    2.5760    0.4010   -3.1520 H   0  0  0  0  0  0  0  0  0  0  0  0
    4.2010    0.7420   -0.9660 H   0  0  0  0  0  0  0  0  0  0  0  0
    6.5000   -0.2530   -0.3210 H   0  0  0  0  0  0  0  0  0  0  0  0
    7.0000   -2.2950   -1.8570 H   0  0  0  0  0  0  0  0  0  0  0  0
   -1.0380    3.8400    1.4030 N   0  0  0  0  0  0  0  0  0  0  0  0
   -0.5660    2.4750    1.5330 C   0  0  0  0  0  0  0  0  0  0  0  0
   -0.4050    2.0540    2.6900 O   0  0  0  0  0  0  0  0  0  0  0  0
   -0.3120    1.6910    0.3510 C   0  0  0  0  0  0  0  0  0  0  0  0
   -0.0390    0.2100    0.5130 C   0  0  2  0  0  0  0  0  0  0  0  0
    0.2480   -0.3080   -0.8610 N   0  0  0  0  0  0  0  0  0  0  0  0
   -1.3180   -0.4670    0.8500 C   0  0  0  0  0  0  0  0  0  0  0  0
   -2.0060   -0.9880   -0.0840 O   0  0  0  0  0  0  0  0  0  0  0  0
   -0.7770    4.5710    2.0790 H   0  0  0  0  0  0  0  0  0  0  0  0
   -1.6560    4.0910    0.6070 H   0  0  0  0  0  0  0  0  0  0  0  0
    0.5610    2.0710   -0.2580 H   0  0  0  0  0  0  0  0  0  0  0  0
   -1.1830    1.8470   -0.3510 H   0  0  0  0  0  0  0  0  0  0  0  0
    0.8010   -0.0320    1.1560 H   0  0  0  0  0  0  0  0  0  0  0  0
   -0.4910   -0.1530   -1.5610 H   0  0  0  0  0  0  0  0  0  0  0  0
   -1.9020   -0.6230    2.1190 N   0  0  0  0  0  0  0  0  0  0  0  0
   -3.1560   -1.2840    2.3600 C   0  0  1  0  0  0  0  0  0  0  0  0
   -3.1430   -2.6170    2.9630 C   0  0  0  0  0  0  0  0  0  0  0  0
   -2.5700   -2.8660    4.2980 C   0  0  0  0  0  0  0  0  0  0  0  0
   -1.1760   -2.5890    4.5690 C   0  0  0  0  0  0  0  0  0  0  0  0
   -0.7550   -1.5720    5.1630 O   0  0  0  0  0  0  0  0  0  0  0  0
   -4.1300   -0.3410    2.9890 C   0  0  0  0  0  0  0  0  0  0  0  0
   -5.3010   -0.6510    3.3090 O   0  0  0  0  0  0  0  0  0  0  0  0
   -0.1880   -3.4750    4.1680 O   0  0  0  0  0  0  0  0  0  0  0  0
   -3.7330    0.9630    3.2440 O   0  0  0  0  0  0  0  0  0  0  0  0
   -1.3980   -0.2560    2.9430 H   0  0  0  0  0  0  0  0  0  0  0  0
   -3.5900   -1.4340    1.3130 H   0  0  0  0  0  0  0  0  0  0  0  0
   -4.2200   -2.9870    3.0400 H   0  0  0  0  0  0  0  0  0  0  0  0
   -2.7590   -3.3560    2.1850 H   0  0  0  0  0  0  0  0  0  0  0  0
   -2.8160   -3.9610    4.5230 H   0  0  0  0  0  0  0  0  0  0  0  0
   -3.1890   -2.3670    5.1180 H   0  0  0  0  0  0  0  0  0  0  0  0
    0.7320   -3.2060    3.8540 H   0  0  0  0  0  0  0  0  0  0  0  0
  1 12  1  0  0  0  0
  1  2  1  0  0  0  0
  2 13  1  1  0  0  0
  2  9  1  0  0  0  0
  3 15  1  0  0  0  0
  3  2  1  0  0  0  0
  3  4  1  0  0  0  0
  4  5  2  0  0  0  0
  5  6  1  0  0  0  0
  5 16  1  0  0  0  0
  6 17  1  0  0  0  0
  7 18  1  0  0  0  0
  7  6  1  0  0  0  0
  8  4  1  0  0  0  0
  8  7  2  0  0  0  0
  9 24  1  0  0  0  0
  9 10  2  0  0  0  0
 11  1  1  0  0  0  0
 14  3  1  0  0  0  0
 19 20  1  0  0  0  0
 19 27  1  0  0  0  0
 20 21  2  0  0  0  0
 22 23  1  0  0  0  0
 22 20  1  0  0  0  0
 23 25  1  0  0  0  0
 23 31  1  1  0  0  0
 24 23  1  0  0  0  0
 25 33  1  0  0  0  0
 26 25  2  0  0  0  0
 28 19  1  0  0  0  0
 29 22  1  0  0  0  0
 30 22  1  0  0  0  0
 32 24  1  0  0  0  0
 33 34  1  0  0  0  0
 33 43  1  0  0  0  0
 34 44  1  6  0  0  0
 34 35  1  0  0  0  0
 34 39  1  0  0  0  0
 35 45  1  0  0  0  0
 35 36  1  0  0  0  0
 36 47  1  0  0  0  0
 36 37  1  0  0  0  0
 36 48  1  0  0  0  0
 37 38  2  0  0  0  0
 39 42  2  0  0  0  0
 39 40  1  0  0  0  0
 41 37  1  0  0  0  0
 46 35  1  0  0  0  0
 49 41  1  0  0  0  0
M  END
$$$$
