HNF.pdb
 OpenBabel07022418353D

 53 54  0  0  1  0  0  0  0  0999 V2000
    0.8430   -2.6860    2.6590 N   0  0  0  0  0  0  0  0  0  0  0  0
    0.3570   -1.6330    3.4680 C   0  0  1  0  0  0  0  0  0  0  0  0
    1.0780   -1.3690    4.7410 C   0  0  0  0  0  0  0  0  0  0  0  0
    2.4770   -0.9790    4.6250 C   0  0  0  0  0  0  0  0  0  0  0  0
    3.2870   -0.7500    3.5460 C   0  0  0  0  0  0  0  0  0  0  0  0
    4.4890   -0.3880    4.0420 N   0  0  0  0  0  0  0  0  0  0  0  0
    4.4680   -0.3810    5.3640 C   0  0  0  0  0  0  0  0  0  0  0  0
    3.2420   -0.7410    5.7300 N   0  0  0  0  0  0  0  0  0  0  0  0
    0.2130   -0.3190    2.7410 C   0  0  0  0  0  0  0  0  0  0  0  0
   -0.0450    0.6930    3.4400 O   0  0  0  0  0  0  0  0  0  0  0  0
    0.0510   -3.2460    2.2790 H   0  0  0  0  0  0  0  0  0  0  0  0
    1.4350   -2.3850    1.9060 H   0  0  0  0  0  0  0  0  0  0  0  0
   -0.6960   -1.9610    3.7930 H   0  0  0  0  0  0  0  0  0  0  0  0
    0.5780   -0.5490    5.3440 H   0  0  0  0  0  0  0  0  0  0  0  0
    1.0200   -2.2600    5.4440 H   0  0  0  0  0  0  0  0  0  0  0  0
    3.0300   -0.8290    2.4770 H   0  0  0  0  0  0  0  0  0  0  0  0
    5.3210   -0.1480    3.4570 H   0  0  0  0  0  0  0  0  0  0  0  0
    5.2510   -0.1410    6.1020 H   0  0  0  0  0  0  0  0  0  0  0  0
    2.8260    0.7550   -2.1400 N   0  0  0  0  0  0  0  0  0  0  0  0
    1.7380    0.4920   -1.2780 C   0  0  0  0  0  0  0  0  0  0  0  0
    1.0900   -0.5670   -1.4270 O   0  0  0  0  0  0  0  0  0  0  0  0
    1.3770    1.4390   -0.2330 C   0  0  0  0  0  0  0  0  0  0  0  0
    0.2160    1.0780    0.6200 C   0  0  2  0  0  0  0  0  0  0  0  0
    0.3430   -0.1510    1.3590 N   0  0  0  0  0  0  0  0  0  0  0  0
   -1.0850    0.9970   -0.1130 C   0  0  0  0  0  0  0  0  0  0  0  0
   -1.4310    1.9070   -0.9040 O   0  0  0  0  0  0  0  0  0  0  0  0
    3.5830    1.4140   -1.8760 H   0  0  0  0  0  0  0  0  0  0  0  0
    2.8970    0.2940   -3.0610 H   0  0  0  0  0  0  0  0  0  0  0  0
    2.2590    1.6200    0.4500 H   0  0  0  0  0  0  0  0  0  0  0  0
    1.1590    2.4710   -0.6390 H   0  0  0  0  0  0  0  0  0  0  0  0
    0.0660    1.9590    1.3230 H   0  0  0  0  0  0  0  0  0  0  0  0
    0.5530   -1.0200    0.7810 H   0  0  0  0  0  0  0  0  0  0  0  0
   -1.9830   -0.0870    0.0450 N   0  0  0  0  0  0  0  0  0  0  0  0
   -3.2570   -0.2160   -0.6310 C   0  0  1  0  0  0  0  0  0  0  0  0
   -3.4900   -1.5300   -1.2850 C   0  0  0  0  0  0  0  0  0  0  0  0
   -2.5120   -1.8820   -2.3290 C   0  0  0  0  0  0  0  0  0  0  0  0
   -1.3800   -2.5960   -1.9770 C   0  0  0  0  0  0  0  0  0  0  0  0
   -0.4380   -2.9690   -2.9230 C   0  0  0  0  0  0  0  0  0  0  0  0
   -0.5930   -2.6420   -4.2520 C   0  0  0  0  0  0  0  0  0  0  0  0
   -1.7180   -1.9300   -4.6150 C   0  0  0  0  0  0  0  0  0  0  0  0
   -2.6710   -1.5500   -3.6690 C   0  0  0  0  0  0  0  0  0  0  0  0
   -4.3730    0.1160    0.3220 C   0  0  0  0  0  0  0  0  0  0  0  0
   -5.5720    0.0820   -0.0440 O   0  0  0  0  0  0  0  0  0  0  0  0
   -4.1250    0.4760    1.6490 O   0  0  0  0  0  0  0  0  0  0  0  0
   -1.7010   -0.8470    0.6970 H   0  0  0  0  0  0  0  0  0  0  0  0
   -3.3090    0.5970   -1.3900 H   0  0  0  0  0  0  0  0  0  0  0  0
   -4.4880   -1.4650   -1.8110 H   0  0  0  0  0  0  0  0  0  0  0  0
   -3.5910   -2.3640   -0.5390 H   0  0  0  0  0  0  0  0  0  0  0  0
   -1.2590   -2.8570   -0.9110 H   0  0  0  0  0  0  0  0  0  0  0  0
    0.4490   -3.5350   -2.6190 H   0  0  0  0  0  0  0  0  0  0  0  0
    0.1440   -2.9300   -5.0040 H   0  0  0  0  0  0  0  0  0  0  0  0
   -1.8190   -1.6850   -5.6650 H   0  0  0  0  0  0  0  0  0  0  0  0
   -3.5470   -0.9910   -3.9630 H   0  0  0  0  0  0  0  0  0  0  0  0
  1  2  1  0  0  0  0
  2 13  1  1  0  0  0
  2  3  1  0  0  0  0
  3 14  1  0  0  0  0
  3 15  1  0  0  0  0
  4  3  1  0  0  0  0
  4  8  1  0  0  0  0
  5  6  1  0  0  0  0
  5  4  2  0  0  0  0
  6  7  1  0  0  0  0
  7  8  2  0  0  0  0
  7 18  1  0  0  0  0
  9 10  2  0  0  0  0
  9  2  1  0  0  0  0
 11  1  1  0  0  0  0
 12  1  1  0  0  0  0
 16  5  1  0  0  0  0
 17  6  1  0  0  0  0
 19 27  1  0  0  0  0
 19 20  1  0  0  0  0
 20 22  1  0  0  0  0
 21 20  2  0  0  0  0
 22 29  1  0  0  0  0
 22 23  1  0  0  0  0
 23 31  1  1  0  0  0
 23 24  1  0  0  0  0
 24  9  1  0  0  0  0
 25 33  1  0  0  0  0
 25 23  1  0  0  0  0
 26 25  2  0  0  0  0
 28 19  1  0  0  0  0
 30 22  1  0  0  0  0
 32 24  1  0  0  0  0
 33 45  1  0  0  0  0
 34 46  1  6  0  0  0
 34 33  1  0  0  0  0
 34 42  1  0  0  0  0
 35 34  1  0  0  0  0
 35 48  1  0  0  0  0
 36 37  1  0  0  0  0
 36 35  1  0  0  0  0
 37 49  1  0  0  0  0
 38 50  1  0  0  0  0
 38 37  2  0  0  0  0
 39 38  1  0  0  0  0
 40 39  2  0  0  0  0
 40 41  1  0  0  0  0
 41 36  2  0  0  0  0
 42 44  1  0  0  0  0
 43 42  2  0  0  0  0
 47 35  1  0  0  0  0
 51 39  1  0  0  0  0
 52 40  1  0  0  0  0
 53 41  1  0  0  0  0
M  END
$$$$
