HNG.pdb
 OpenBabel07022418353D

 40 40  0  0  1  0  0  0  0  0999 V2000
    2.0580   -3.9350    1.8740 N   0  0  0  0  0  0  0  0  0  0  0  0
    2.2290   -2.9180    0.8500 C   0  0  1  0  0  0  0  0  0  0  0  0
    1.5370   -3.1820   -0.4320 C   0  0  0  0  0  0  0  0  0  0  0  0
    1.8490   -2.0990   -1.3990 C   0  0  0  0  0  0  0  0  0  0  0  0
    2.6820   -1.0000   -1.2620 C   0  0  0  0  0  0  0  0  0  0  0  0
    2.7060   -0.2780   -2.3810 N   0  0  0  0  0  0  0  0  0  0  0  0
    1.8960   -0.9000   -3.2430 C   0  0  0  0  0  0  0  0  0  0  0  0
    1.3690   -1.9970   -2.6740 N   0  0  0  0  0  0  0  0  0  0  0  0
    1.8430   -1.6150    1.4580 C   0  0  0  0  0  0  0  0  0  0  0  0
    2.5290   -1.2650    2.4780 O   0  0  0  0  0  0  0  0  0  0  0  0
    2.9140   -3.9390    2.4710 H   0  0  0  0  0  0  0  0  0  0  0  0
    1.7730   -4.8480    1.5110 H   0  0  0  0  0  0  0  0  0  0  0  0
    3.3220   -2.8460    0.6410 H   0  0  0  0  0  0  0  0  0  0  0  0
    1.8240   -4.1800   -0.8220 H   0  0  0  0  0  0  0  0  0  0  0  0
    0.4170   -3.2410   -0.3110 H   0  0  0  0  0  0  0  0  0  0  0  0
    3.2420   -0.7470   -0.3830 H   0  0  0  0  0  0  0  0  0  0  0  0
    3.2640    0.6040   -2.5260 H   0  0  0  0  0  0  0  0  0  0  0  0
    1.7230   -0.5290   -4.2470 H   0  0  0  0  0  0  0  0  0  0  0  0
   -0.9850    0.5150   -1.0100 N   0  0  0  0  0  0  0  0  0  0  0  0
   -0.1040    1.5320   -0.6250 C   0  0  0  0  0  0  0  0  0  0  0  0
    0.0560    2.4980   -1.4350 O   0  0  0  0  0  0  0  0  0  0  0  0
    0.6600    1.5960    0.6280 C   0  0  0  0  0  0  0  0  0  0  0  0
    0.4350    0.4290    1.5390 C   0  0  2  0  0  0  0  0  0  0  0  0
    0.7960   -0.8320    0.9490 N   0  0  0  0  0  0  0  0  0  0  0  0
   -0.9050    0.3380    2.0970 C   0  0  0  0  0  0  0  0  0  0  0  0
   -1.5460   -0.7300    2.0120 O   0  0  0  0  0  0  0  0  0  0  0  0
   -0.7510   -0.1100   -1.7910 H   0  0  0  0  0  0  0  0  0  0  0  0
   -1.8810    0.3860   -0.5060 H   0  0  0  0  0  0  0  0  0  0  0  0
    0.4150    2.5160    1.1820 H   0  0  0  0  0  0  0  0  0  0  0  0
    1.7370    1.6230    0.3750 H   0  0  0  0  0  0  0  0  0  0  0  0
    1.1270    0.6080    2.4190 H   0  0  0  0  0  0  0  0  0  0  0  0
    0.2460   -1.1630    0.1400 H   0  0  0  0  0  0  0  0  0  0  0  0
   -1.5050    1.4460    2.7400 N   0  0  0  0  0  0  0  0  0  0  0  0
   -2.8480    1.3880    3.3100 C   0  0  0  0  0  0  0  0  0  0  0  0
   -2.9190    0.3530    4.3530 C   0  0  0  0  0  0  0  0  0  0  0  0
   -1.8940   -0.3190    4.6220 O   0  0  0  0  0  0  0  0  0  0  0  0
   -4.1060    0.1280    5.0280 O   0  0  0  0  0  0  0  0  0  0  0  0
   -0.9400    2.3210    2.7920 H   0  0  0  0  0  0  0  0  0  0  0  0
   -3.5220    1.1380    2.4580 H   0  0  0  0  0  0  0  0  0  0  0  0
   -3.1340    2.3810    3.6820 H   0  0  0  0  0  0  0  0  0  0  0  0
  1 11  1  0  0  0  0
  2 13  1  6  0  0  0
  2  9  1  0  0  0  0
  2  1  1  0  0  0  0
  3 15  1  0  0  0  0
  3  2  1  0  0  0  0
  4  5  2  0  0  0  0
  4  3  1  0  0  0  0
  5 16  1  0  0  0  0
  6  5  1  0  0  0  0
  7  8  2  0  0  0  0
  7  6  1  0  0  0  0
  8  4  1  0  0  0  0
  9 10  2  0  0  0  0
 12  1  1  0  0  0  0
 14  3  1  0  0  0  0
 17  6  1  0  0  0  0
 18  7  1  0  0  0  0
 19 20  1  0  0  0  0
 19 28  1  0  0  0  0
 20 22  1  0  0  0  0
 21 20  2  0  0  0  0
 22 29  1  0  0  0  0
 22 23  1  0  0  0  0
 23 25  1  0  0  0  0
 23 31  1  1  0  0  0
 24  9  1  0  0  0  0
 24 23  1  0  0  0  0
 25 33  1  0  0  0  0
 26 25  2  0  0  0  0
 27 19  1  0  0  0  0
 30 22  1  0  0  0  0
 32 24  1  0  0  0  0
 33 38  1  0  0  0  0
 33 34  1  0  0  0  0
 34 40  1  0  0  0  0
 34 35  1  0  0  0  0
 35 36  2  0  0  0  0
 35 37  1  0  0  0  0
 39 34  1  0  0  0  0
M  END
$$$$
