HNH.pdb
 OpenBabel07022418353D

 50 51  0  0  1  0  0  0  0  0999 V2000
    1.2240   -3.4540    1.2940 N   0  0  0  0  0  0  0  0  0  0  0  0
    1.9240   -2.4550    2.0780 C   0  0  1  0  0  0  0  0  0  0  0  0
    3.3950   -2.6880    1.8290 C   0  0  0  0  0  0  0  0  0  0  0  0
    4.2840   -1.7580    2.5510 C   0  0  0  0  0  0  0  0  0  0  0  0
    4.7640   -0.5550    2.1040 C   0  0  0  0  0  0  0  0  0  0  0  0
    5.5630    0.0120    3.0490 N   0  0  0  0  0  0  0  0  0  0  0  0
    5.5650   -0.8570    4.0720 C   0  0  0  0  0  0  0  0  0  0  0  0
    4.7990   -1.9260    3.7850 N   0  0  0  0  0  0  0  0  0  0  0  0
    1.5800   -1.0800    1.6470 C   0  0  0  0  0  0  0  0  0  0  0  0
    2.0770   -0.1210    2.2900 O   0  0  0  0  0  0  0  0  0  0  0  0
    1.3710   -4.4090    1.6240 H   0  0  0  0  0  0  0  0  0  0  0  0
    1.2790   -3.3060    0.2800 H   0  0  0  0  0  0  0  0  0  0  0  0
    1.7160   -2.6290    3.1350 H   0  0  0  0  0  0  0  0  0  0  0  0
    3.6920   -3.7350    2.0610 H   0  0  0  0  0  0  0  0  0  0  0  0
    3.6430   -2.5650    0.7360 H   0  0  0  0  0  0  0  0  0  0  0  0
    4.5740   -0.0610    1.1420 H   0  0  0  0  0  0  0  0  0  0  0  0
    6.0650    0.9260    2.9830 H   0  0  0  0  0  0  0  0  0  0  0  0
    6.1130   -0.7000    4.9910 H   0  0  0  0  0  0  0  0  0  0  0  0
    0.2780    3.3380   -0.7890 N   0  0  0  0  0  0  0  0  0  0  0  0
    0.6150    2.2620   -1.6410 C   0  0  0  0  0  0  0  0  0  0  0  0
    0.7040    2.5320   -2.8910 O   0  0  0  0  0  0  0  0  0  0  0  0
    0.8710    0.8770   -1.2190 C   0  0  0  0  0  0  0  0  0  0  0  0
    0.4330    0.6170    0.1870 C   0  0  2  0  0  0  0  0  0  0  0  0
    0.7420   -0.7700    0.5740 N   0  0  0  0  0  0  0  0  0  0  0  0
   -1.0220    0.7670    0.4120 C   0  0  0  0  0  0  0  0  0  0  0  0
   -1.6130    1.8470    0.1530 O   0  0  0  0  0  0  0  0  0  0  0  0
   -0.3750    4.0640   -1.1430 H   0  0  0  0  0  0  0  0  0  0  0  0
    0.6800    3.3980    0.1760 H   0  0  0  0  0  0  0  0  0  0  0  0
    0.3400    0.2250   -1.9500 H   0  0  0  0  0  0  0  0  0  0  0  0
    1.9720    0.7260   -1.2590 H   0  0  0  0  0  0  0  0  0  0  0  0
    1.0160    1.2640    0.8650 H   0  0  0  0  0  0  0  0  0  0  0  0
    0.3110   -1.5150    0.0110 H   0  0  0  0  0  0  0  0  0  0  0  0
   -1.7880   -0.2890    0.9230 N   0  0  0  0  0  0  0  0  0  0  0  0
   -3.2190   -0.1980    1.1630 C   0  0  1  0  0  0  0  0  0  0  0  0
   -3.9820   -1.2820    0.4640 C   0  0  0  0  0  0  0  0  0  0  0  0
   -3.8080   -1.2550   -1.0070 C   0  0  0  0  0  0  0  0  0  0  0  0
   -4.4150   -2.1580   -1.8530 C   0  0  0  0  0  0  0  0  0  0  0  0
   -4.0670   -1.8770   -3.1230 N   0  0  0  0  0  0  0  0  0  0  0  0
   -3.2520   -0.8090   -3.0580 C   0  0  0  0  0  0  0  0  0  0  0  0
   -3.0920   -0.4280   -1.7780 N   0  0  0  0  0  0  0  0  0  0  0  0
   -3.4260   -0.3730    2.6240 C   0  0  0  0  0  0  0  0  0  0  0  0
   -4.5840   -0.3380    3.1160 O   0  0  0  0  0  0  0  0  0  0  0  0
   -2.3750   -0.5800    3.5060 O   0  0  0  0  0  0  0  0  0  0  0  0
   -1.3300   -1.1930    1.1490 H   0  0  0  0  0  0  0  0  0  0  0  0
   -3.5300    0.8190    0.8560 H   0  0  0  0  0  0  0  0  0  0  0  0
   -3.6960   -2.2470    0.9220 H   0  0  0  0  0  0  0  0  0  0  0  0
   -5.0670   -1.1560    0.6560 H   0  0  0  0  0  0  0  0  0  0  0  0
   -5.0770   -2.9760   -1.5370 H   0  0  0  0  0  0  0  0  0  0  0  0
   -4.3920   -2.4120   -3.9530 H   0  0  0  0  0  0  0  0  0  0  0  0
   -2.8200   -0.3700   -3.9650 H   0  0  0  0  0  0  0  0  0  0  0  0
  1 11  1  0  0  0  0
  1  2  1  0  0  0  0
  2 13  1  1  0  0  0
  3 14  1  0  0  0  0
  3  2  1  0  0  0  0
  3  4  1  0  0  0  0
  4  8  1  0  0  0  0
  5  4  2  0  0  0  0
  5  6  1  0  0  0  0
  6  7  1  0  0  0  0
  7 18  1  0  0  0  0
  8  7  2  0  0  0  0
  9  2  1  0  0  0  0
  9 10  2  0  0  0  0
 12  1  1  0  0  0  0
 15  3  1  0  0  0  0
 16  5  1  0  0  0  0
 17  6  1  0  0  0  0
 19 28  1  0  0  0  0
 20 22  1  0  0  0  0
 20 19  1  0  0  0  0
 21 20  2  0  0  0  0
 22 23  1  0  0  0  0
 23 25  1  0  0  0  0
 23 24  1  0  0  0  0
 23 31  1  1  0  0  0
 24  9  1  0  0  0  0
 25 33  1  0  0  0  0
 26 25  2  0  0  0  0
 27 19  1  0  0  0  0
 29 22  1  0  0  0  0
 30 22  1  0  0  0  0
 32 24  1  0  0  0  0
 33 44  1  0  0  0  0
 33 34  1  0  0  0  0
 34 45  1  6  0  0  0
 34 41  1  0  0  0  0
 35 47  1  0  0  0  0
 35 46  1  0  0  0  0
 35 34  1  0  0  0  0
 36 35  1  0  0  0  0
 37 48  1  0  0  0  0
 37 36  2  0  0  0  0
 38 39  1  0  0  0  0
 38 37  1  0  0  0  0
 39 40  2  0  0  0  0
 40 36  1  0  0  0  0
 41 42  2  0  0  0  0
 41 43  1  0  0  0  0
 49 38  1  0  0  0  0
 50 39  1  0  0  0  0
M  END
$$$$
