HNK.pdb
 OpenBabel07022418353D

 54 54  0  0  1  0  0  0  0  0999 V2000
    4.3570   -0.1660    1.8220 N   0  0  0  0  0  0  0  0  0  0  0  0
    3.1640    0.2040    1.0880 C   0  0  1  0  0  0  0  0  0  0  0  0
    2.6670   -0.9230    0.2260 C   0  0  0  0  0  0  0  0  0  0  0  0
    3.7420   -1.2720   -0.7390 C   0  0  0  0  0  0  0  0  0  0  0  0
    4.9930   -0.7060   -0.8760 C   0  0  0  0  0  0  0  0  0  0  0  0
    5.6490   -1.3240   -1.8750 N   0  0  0  0  0  0  0  0  0  0  0  0
    4.8370   -2.2720   -2.3750 C   0  0  0  0  0  0  0  0  0  0  0  0
    3.6810   -2.2440   -1.6900 N   0  0  0  0  0  0  0  0  0  0  0  0
    2.1400    0.7130    2.0180 C   0  0  0  0  0  0  0  0  0  0  0  0
    2.3950    0.7650    3.2520 O   0  0  0  0  0  0  0  0  0  0  0  0
    4.2970    0.1000    2.8320 H   0  0  0  0  0  0  0  0  0  0  0  0
    4.5490   -1.1870    1.7910 H   0  0  0  0  0  0  0  0  0  0  0  0
    3.3950    1.0550    0.3820 H   0  0  0  0  0  0  0  0  0  0  0  0
    1.8060   -0.5520   -0.3600 H   0  0  0  0  0  0  0  0  0  0  0  0
    2.4460   -1.8400    0.8000 H   0  0  0  0  0  0  0  0  0  0  0  0
    5.4060    0.0960   -0.2970 H   0  0  0  0  0  0  0  0  0  0  0  0
    6.6070   -1.1420   -2.2350 H   0  0  0  0  0  0  0  0  0  0  0  0
    5.0910   -2.9330   -3.1900 H   0  0  0  0  0  0  0  0  0  0  0  0
   -1.5300    4.5440    0.4150 N   0  0  0  0  0  0  0  0  0  0  0  0
   -1.1020    3.2520    0.8230 C   0  0  0  0  0  0  0  0  0  0  0  0
   -1.2060    2.2780    0.0370 O   0  0  0  0  0  0  0  0  0  0  0  0
   -0.5350    3.0680    2.1790 C   0  0  0  0  0  0  0  0  0  0  0  0
   -0.1340    1.6400    2.4250 C   0  0  2  0  0  0  0  0  0  0  0  0
    0.8570    1.1460    1.5190 N   0  0  0  0  0  0  0  0  0  0  0  0
   -1.3530    0.7800    2.4540 C   0  0  0  0  0  0  0  0  0  0  0  0
   -2.2860    1.1310    3.2220 O   0  0  0  0  0  0  0  0  0  0  0  0
   -2.3350    4.6540   -0.2430 H   0  0  0  0  0  0  0  0  0  0  0  0
   -1.0710    5.4150    0.7470 H   0  0  0  0  0  0  0  0  0  0  0  0
   -1.2650    3.3500    2.9700 H   0  0  0  0  0  0  0  0  0  0  0  0
    0.3420    3.7330    2.3320 H   0  0  0  0  0  0  0  0  0  0  0  0
    0.2720    1.6070    3.4650 H   0  0  0  0  0  0  0  0  0  0  0  0
    0.7340    1.0670    0.4880 H   0  0  0  0  0  0  0  0  0  0  0  0
   -1.5140   -0.3760    1.6850 N   0  0  0  0  0  0  0  0  0  0  0  0
   -2.7130   -1.2300    1.7060 C   0  0  1  0  0  0  0  0  0  0  0  0
   -3.4010   -1.2280    0.3910 C   0  0  0  0  0  0  0  0  0  0  0  0
   -2.6470   -1.6880   -0.7850 C   0  0  0  0  0  0  0  0  0  0  0  0
   -2.1680   -3.0790   -0.8440 C   0  0  0  0  0  0  0  0  0  0  0  0
   -3.2420   -4.1380   -0.8510 C   0  0  0  0  0  0  0  0  0  0  0  0
   -4.1140   -3.9880   -2.0140 N   0  0  0  0  0  0  0  0  0  0  0  0
   -2.3460   -2.5320    2.2710 C   0  0  0  0  0  0  0  0  0  0  0  0
   -1.1330   -2.8000    2.5750 O   0  0  0  0  0  0  0  0  0  0  0  0
   -3.2510   -3.5460    2.5190 O   0  0  0  0  0  0  0  0  0  0  0  0
   -0.7560   -0.6840    1.0430 H   0  0  0  0  0  0  0  0  0  0  0  0
   -3.4580   -0.7880    2.4410 H   0  0  0  0  0  0  0  0  0  0  0  0
   -3.6830   -0.1510    0.1880 H   0  0  0  0  0  0  0  0  0  0  0  0
   -4.3840   -1.7300    0.5280 H   0  0  0  0  0  0  0  0  0  0  0  0
   -3.2990   -1.5160   -1.6840 H   0  0  0  0  0  0  0  0  0  0  0  0
   -1.7760   -1.0140   -0.9390 H   0  0  0  0  0  0  0  0  0  0  0  0
   -1.3690   -3.3110   -0.1100 H   0  0  0  0  0  0  0  0  0  0  0  0
   -1.6460   -3.1950   -1.8430 H   0  0  0  0  0  0  0  0  0  0  0  0
   -3.8920   -4.1650    0.0140 H   0  0  0  0  0  0  0  0  0  0  0  0
   -2.7390   -5.1230   -0.9430 H   0  0  0  0  0  0  0  0  0  0  0  0
   -3.7790   -3.2660   -2.6640 H   0  0  0  0  0  0  0  0  0  0  0  0
   -4.3480   -4.8990   -2.4520 H   0  0  0  0  0  0  0  0  0  0  0  0
  1 11  1  0  0  0  0
  2 13  1  6  0  0  0
  2  1  1  0  0  0  0
  2  9  1  0  0  0  0
  3 15  1  0  0  0  0
  3  2  1  0  0  0  0
  4  3  1  0  0  0  0
  5  4  2  0  0  0  0
  5 16  1  0  0  0  0
  6  5  1  0  0  0  0
  7  6  1  0  0  0  0
  7  8  2  0  0  0  0
  8  4  1  0  0  0  0
  9 10  2  0  0  0  0
 12  1  1  0  0  0  0
 14  3  1  0  0  0  0
 17  6  1  0  0  0  0
 18  7  1  0  0  0  0
 19 28  1  0  0  0  0
 19 20  1  0  0  0  0
 20 22  1  0  0  0  0
 21 20  2  0  0  0  0
 22 30  1  0  0  0  0
 22 23  1  0  0  0  0
 22 29  1  0  0  0  0
 23 25  1  0  0  0  0
 23 31  1  1  0  0  0
 24  9  1  0  0  0  0
 24 23  1  0  0  0  0
 25 26  2  0  0  0  0
 27 19  1  0  0  0  0
 32 24  1  0  0  0  0
 33 34  1  0  0  0  0
 33 25  1  0  0  0  0
 34 40  1  0  0  0  0
 34 44  1  1  0  0  0
 35 46  1  0  0  0  0
 35 34  1  0  0  0  0
 36 35  1  0  0  0  0
 37 36  1  0  0  0  0
 37 49  1  0  0  0  0
 38 37  1  0  0  0  0
 38 51  1  0  0  0  0
 39 38  1  0  0  0  0
 40 42  2  0  0  0  0
 40 41  1  0  0  0  0
 43 33  1  0  0  0  0
 45 35  1  0  0  0  0
 47 36  1  0  0  0  0
 48 36  1  0  0  0  0
 50 37  1  0  0  0  0
 52 38  1  0  0  0  0
 53 39  1  0  0  0  0
 54 39  1  0  0  0  0
M  END
$$$$
