HNL.pdb
 OpenBabel07022418353D

 52 52  0  0  1  0  0  0  0  0999 V2000
    2.2430   -1.1400    4.2530 N   0  0  0  0  0  0  0  0  0  0  0  0
    1.5480    0.1090    4.3230 C   0  0  1  0  0  0  0  0  0  0  0  0
    2.5020    1.2680    4.6380 C   0  0  0  0  0  0  0  0  0  0  0  0
    3.5430    1.3770    3.5780 C   0  0  0  0  0  0  0  0  0  0  0  0
    4.5700    2.2930    3.5140 C   0  0  0  0  0  0  0  0  0  0  0  0
    5.2850    2.0420    2.3900 N   0  0  0  0  0  0  0  0  0  0  0  0
    4.7330    0.9980    1.7540 C   0  0  0  0  0  0  0  0  0  0  0  0
    3.6700    0.5970    2.4850 N   0  0  0  0  0  0  0  0  0  0  0  0
    0.9320    0.4640    2.9930 C   0  0  0  0  0  0  0  0  0  0  0  0
    0.2760    1.5230    2.8450 O   0  0  0  0  0  0  0  0  0  0  0  0
    1.7030   -1.8700    4.7630 H   0  0  0  0  0  0  0  0  0  0  0  0
    3.1540   -1.0360    4.7520 H   0  0  0  0  0  0  0  0  0  0  0  0
    0.7460    0.0530    5.0560 H   0  0  0  0  0  0  0  0  0  0  0  0
    2.9260    1.1590    5.6470 H   0  0  0  0  0  0  0  0  0  0  0  0
    1.9260    2.2150    4.6070 H   0  0  0  0  0  0  0  0  0  0  0  0
    4.7530    3.0690    4.2470 H   0  0  0  0  0  0  0  0  0  0  0  0
    6.1210    2.5440    2.0410 H   0  0  0  0  0  0  0  0  0  0  0  0
    5.0230    0.5130    0.8320 H   0  0  0  0  0  0  0  0  0  0  0  0
    2.3520   -2.2480   -0.0720 N   0  0  0  0  0  0  0  0  0  0  0  0
    2.4040   -1.0090   -0.7430 C   0  0  0  0  0  0  0  0  0  0  0  0
    3.2870   -0.8730   -1.6310 O   0  0  0  0  0  0  0  0  0  0  0  0
    1.5150    0.1340   -0.4920 C   0  0  0  0  0  0  0  0  0  0  0  0
    0.4940   -0.0840    0.5660 C   0  0  2  0  0  0  0  0  0  0  0  0
    1.0690   -0.3860    1.8590 N   0  0  0  0  0  0  0  0  0  0  0  0
   -0.5680   -1.0470    0.1940 C   0  0  0  0  0  0  0  0  0  0  0  0
   -0.8420   -1.9820    1.0080 O   0  0  0  0  0  0  0  0  0  0  0  0
    1.5270   -2.8570   -0.0850 H   0  0  0  0  0  0  0  0  0  0  0  0
    3.2030   -2.5610    0.4690 H   0  0  0  0  0  0  0  0  0  0  0  0
    1.0000    0.4340   -1.4210 H   0  0  0  0  0  0  0  0  0  0  0  0
    2.1450    0.9970   -0.1880 H   0  0  0  0  0  0  0  0  0  0  0  0
   -0.0380    0.9030    0.6860 H   0  0  0  0  0  0  0  0  0  0  0  0
    1.6210   -1.2590    2.0180 H   0  0  0  0  0  0  0  0  0  0  0  0
   -5.9440   -0.9010   -2.0170 C   0  0  0  0  0  0  0  0  0  0  0  0
   -4.8200   -1.9450   -1.8740 C   0  0  0  0  0  0  0  0  0  0  0  0
   -5.1780   -2.8810   -0.7650 C   0  0  0  0  0  0  0  0  0  0  0  0
   -3.5920   -1.1590   -1.5310 C   0  0  0  0  0  0  0  0  0  0  0  0
   -2.3490   -1.9860   -1.3310 C   0  0  2  0  0  0  0  0  0  0  0  0
   -1.2950   -0.9980   -1.0030 N   0  0  0  0  0  0  0  0  0  0  0  0
   -2.0250   -2.6940   -2.5680 C   0  0  0  0  0  0  0  0  0  0  0  0
   -2.7720   -3.6020   -2.9910 O   0  0  0  0  0  0  0  0  0  0  0  0
   -0.8910   -2.4150   -3.3430 O   0  0  0  0  0  0  0  0  0  0  0  0
   -5.9040   -0.4590   -3.0310 H   0  0  0  0  0  0  0  0  0  0  0  0
   -6.9140   -1.3900   -1.8270 H   0  0  0  0  0  0  0  0  0  0  0  0
   -5.7500   -0.0910   -1.2800 H   0  0  0  0  0  0  0  0  0  0  0  0
   -4.7400   -2.4630   -2.8550 H   0  0  0  0  0  0  0  0  0  0  0  0
   -4.6220   -3.8330   -0.8240 H   0  0  0  0  0  0  0  0  0  0  0  0
   -6.2830   -3.0610   -0.7620 H   0  0  0  0  0  0  0  0  0  0  0  0
   -4.9380   -2.4200    0.2090 H   0  0  0  0  0  0  0  0  0  0  0  0
   -3.8350   -0.5750   -0.6120 H   0  0  0  0  0  0  0  0  0  0  0  0
   -3.3880   -0.3680   -2.3060 H   0  0  0  0  0  0  0  0  0  0  0  0
   -2.4190   -2.6880   -0.5040 H   0  0  0  0  0  0  0  0  0  0  0  0
   -1.0990   -0.2570   -1.6820 H   0  0  0  0  0  0  0  0  0  0  0  0
  1  2  1  0  0  0  0
  1 12  1  0  0  0  0
  1 11  1  0  0  0  0
  2  3  1  0  0  0  0
  2 13  1  1  0  0  0
  3 14  1  0  0  0  0
  4  3  1  0  0  0  0
  5  4  2  0  0  0  0
  5 16  1  0  0  0  0
  6  5  1  0  0  0  0
  7  6  1  0  0  0  0
  7  8  2  0  0  0  0
  8  4  1  0  0  0  0
  9  2  1  0  0  0  0
 10  9  2  0  0  0  0
 15  3  1  0  0  0  0
 17  6  1  0  0  0  0
 18  7  1  0  0  0  0
 19 28  1  0  0  0  0
 20 22  1  0  0  0  0
 20 19  1  0  0  0  0
 21 20  2  0  0  0  0
 22 30  1  0  0  0  0
 22 23  1  0  0  0  0
 23 31  1  1  0  0  0
 23 24  1  0  0  0  0
 24 32  1  0  0  0  0
 24  9  1  0  0  0  0
 25 23  1  0  0  0  0
 25 26  2  0  0  0  0
 27 19  1  0  0  0  0
 29 22  1  0  0  0  0
 33 34  1  0  0  0  0
 33 43  1  0  0  0  0
 33 44  1  0  0  0  0
 34 36  1  0  0  0  0
 34 35  1  0  0  0  0
 35 47  1  0  0  0  0
 35 48  1  0  0  0  0
 36 37  1  0  0  0  0
 36 49  1  0  0  0  0
 37 38  1  0  0  0  0
 37 51  1  1  0  0  0
 38 25  1  0  0  0  0
 39 37  1  0  0  0  0
 40 39  1  0  0  0  0
 41 39  2  0  0  0  0
 42 33  1  0  0  0  0
 45 34  1  0  0  0  0
 46 35  1  0  0  0  0
 50 36  1  0  0  0  0
 52 38  1  0  0  0  0
M  END
$$$$
