HNM.pdb
 OpenBabel07022418353D

 50 50  0  0  1  0  0  0  0  0999 V2000
    2.2800   -0.3380    4.1020 N   0  0  0  0  0  0  0  0  0  0  0  0
    1.2670    0.7070    3.9470 C   0  0  1  0  0  0  0  0  0  0  0  0
    1.9320    2.0630    4.0180 C   0  0  0  0  0  0  0  0  0  0  0  0
    2.9370    2.2150    2.9520 C   0  0  0  0  0  0  0  0  0  0  0  0
    3.6900    3.3880    2.7960 C   0  0  0  0  0  0  0  0  0  0  0  0
    4.5040    3.2190    1.7470 N   0  0  0  0  0  0  0  0  0  0  0  0
    4.2870    1.9880    1.2460 C   0  0  0  0  0  0  0  0  0  0  0  0
    3.3280    1.3800    1.9870 N   0  0  0  0  0  0  0  0  0  0  0  0
    0.6020    0.6040    2.6220 C   0  0  0  0  0  0  0  0  0  0  0  0
   -0.2330    1.4770    2.2960 O   0  0  0  0  0  0  0  0  0  0  0  0
    1.8480   -1.1440    4.6480 H   0  0  0  0  0  0  0  0  0  0  0  0
    3.0050    0.0810    4.7430 H   0  0  0  0  0  0  0  0  0  0  0  0
    0.5330    0.6630    4.7790 H   0  0  0  0  0  0  0  0  0  0  0  0
    1.1470    2.8490    3.8380 H   0  0  0  0  0  0  0  0  0  0  0  0
    2.3380    2.2550    5.0330 H   0  0  0  0  0  0  0  0  0  0  0  0
    3.6300    4.2770    3.4080 H   0  0  0  0  0  0  0  0  0  0  0  0
    5.1950    3.9330    1.3780 H   0  0  0  0  0  0  0  0  0  0  0  0
    4.8110    1.5970    0.4010 H   0  0  0  0  0  0  0  0  0  0  0  0
    3.6430   -1.0970   -0.5680 N   0  0  0  0  0  0  0  0  0  0  0  0
    2.2680   -1.4020   -0.6570 C   0  0  0  0  0  0  0  0  0  0  0  0
    1.9240   -2.6070   -0.7070 O   0  0  0  0  0  0  0  0  0  0  0  0
    1.2470   -0.3360   -0.6880 C   0  0  0  0  0  0  0  0  0  0  0  0
    0.1880   -0.4980    0.3930 C   0  0  2  0  0  0  0  0  0  0  0  0
    0.8640   -0.4410    1.6990 N   0  0  0  0  0  0  0  0  0  0  0  0
   -0.5580   -1.7730    0.2980 C   0  0  0  0  0  0  0  0  0  0  0  0
   -0.5440   -2.6000    1.2480 O   0  0  0  0  0  0  0  0  0  0  0  0
    4.3820   -1.7180   -0.1670 H   0  0  0  0  0  0  0  0  0  0  0  0
    3.9610   -0.1750   -0.9320 H   0  0  0  0  0  0  0  0  0  0  0  0
    0.7550   -0.2890   -1.7030 H   0  0  0  0  0  0  0  0  0  0  0  0
    1.6890    0.6710   -0.5400 H   0  0  0  0  0  0  0  0  0  0  0  0
   -0.4690    0.3890    0.3370 H   0  0  0  0  0  0  0  0  0  0  0  0
    1.5470   -1.1700    1.9650 H   0  0  0  0  0  0  0  0  0  0  0  0
   -6.0120   -0.5580   -1.3660 C   0  0  0  0  0  0  0  0  0  0  0  0
   -5.6950   -1.7130   -0.0110 S   0  0  0  0  0  0  0  0  0  0  0  0
   -3.9760   -2.1940    0.0980 C   0  0  0  0  0  0  0  0  0  0  0  0
   -3.5230   -3.0040   -1.1030 C   0  0  0  0  0  0  0  0  0  0  0  0
   -2.0560   -3.3830   -0.9360 C   0  0  2  0  0  0  0  0  0  0  0  0
   -1.3210   -2.1400   -0.8430 N   0  0  0  0  0  0  0  0  0  0  0  0
   -1.6940   -4.1780   -2.1210 C   0  0  0  0  0  0  0  0  0  0  0  0
   -0.8340   -3.7470   -2.9140 O   0  0  0  0  0  0  0  0  0  0  0  0
   -2.2930   -5.3970   -2.3700 O   0  0  0  0  0  0  0  0  0  0  0  0
   -5.6910   -0.9980   -2.3340 H   0  0  0  0  0  0  0  0  0  0  0  0
   -7.0960   -0.3470   -1.4340 H   0  0  0  0  0  0  0  0  0  0  0  0
   -5.4610    0.3790   -1.2490 H   0  0  0  0  0  0  0  0  0  0  0  0
   -3.8760   -2.8840    0.9760 H   0  0  0  0  0  0  0  0  0  0  0  0
   -3.2750   -1.3590    0.3090 H   0  0  0  0  0  0  0  0  0  0  0  0
   -3.5450   -2.2910   -1.9800 H   0  0  0  0  0  0  0  0  0  0  0  0
   -4.1790   -3.8650   -1.2910 H   0  0  0  0  0  0  0  0  0  0  0  0
   -1.9760   -4.0130   -0.0270 H   0  0  0  0  0  0  0  0  0  0  0  0
   -1.3470   -1.4860   -1.6390 H   0  0  0  0  0  0  0  0  0  0  0  0
  1 11  1  0  0  0  0
  1 12  1  0  0  0  0
  2  3  1  0  0  0  0
  2  1  1  0  0  0  0
  2 13  1  1  0  0  0
  3 15  1  0  0  0  0
  4  3  1  0  0  0  0
  5  4  2  0  0  0  0
  5 16  1  0  0  0  0
  6  5  1  0  0  0  0
  7  6  1  0  0  0  0
  7  8  2  0  0  0  0
  8  4  1  0  0  0  0
  9  2  1  0  0  0  0
 10  9  2  0  0  0  0
 14  3  1  0  0  0  0
 17  6  1  0  0  0  0
 18  7  1  0  0  0  0
 19 27  1  0  0  0  0
 20 19  1  0  0  0  0
 21 20  2  0  0  0  0
 22 20  1  0  0  0  0
 22 30  1  0  0  0  0
 22 23  1  0  0  0  0
 23 31  1  6  0  0  0
 23 24  1  0  0  0  0
 24 32  1  0  0  0  0
 24  9  1  0  0  0  0
 25 23  1  0  0  0  0
 25 26  2  0  0  0  0
 28 19  1  0  0  0  0
 29 22  1  0  0  0  0
 33 44  1  0  0  0  0
 33 34  1  0  0  0  0
 34 35  1  0  0  0  0
 35 46  1  0  0  0  0
 35 45  1  0  0  0  0
 36 37  1  0  0  0  0
 36 35  1  0  0  0  0
 37 38  1  0  0  0  0
 37 49  1  1  0  0  0
 38 25  1  0  0  0  0
 39 37  1  0  0  0  0
 40 39  2  0  0  0  0
 41 39  1  0  0  0  0
 42 33  1  0  0  0  0
 43 33  1  0  0  0  0
 47 36  1  0  0  0  0
 48 36  1  0  0  0  0
 50 38  1  0  0  0  0
M  END
$$$$
