HNQ.pdb
 OpenBabel07022418353D

 50 50  0  0  1  0  0  0  0  0999 V2000
    0.3730    1.2920    3.7370 N   0  0  0  0  0  0  0  0  0  0  0  0
   -0.4150    0.1240    4.0970 C   0  0  1  0  0  0  0  0  0  0  0  0
   -1.6630    0.5830    4.8240 C   0  0  0  0  0  0  0  0  0  0  0  0
   -1.3900    1.3340    6.0610 C   0  0  0  0  0  0  0  0  0  0  0  0
   -1.2670    0.7620    7.3100 C   0  0  0  0  0  0  0  0  0  0  0  0
   -1.0250    1.7500    8.2090 N   0  0  0  0  0  0  0  0  0  0  0  0
   -0.9950    2.9180    7.5490 C   0  0  0  0  0  0  0  0  0  0  0  0
   -1.2170    2.6500    6.2580 N   0  0  0  0  0  0  0  0  0  0  0  0
   -0.9120   -0.5060    2.8250 C   0  0  0  0  0  0  0  0  0  0  0  0
   -1.5960   -1.5720    2.8690 O   0  0  0  0  0  0  0  0  0  0  0  0
    1.2680    1.2970    4.2630 H   0  0  0  0  0  0  0  0  0  0  0  0
   -0.1240    2.1850    4.0140 H   0  0  0  0  0  0  0  0  0  0  0  0
    0.1340   -0.5940    4.7330 H   0  0  0  0  0  0  0  0  0  0  0  0
   -2.3090   -0.3090    4.9980 H   0  0  0  0  0  0  0  0  0  0  0  0
   -2.2190    1.2410    4.1170 H   0  0  0  0  0  0  0  0  0  0  0  0
   -1.3330   -0.2700    7.6270 H   0  0  0  0  0  0  0  0  0  0  0  0
   -0.8800    1.6710    9.2380 H   0  0  0  0  0  0  0  0  0  0  0  0
   -0.8290    3.9010    7.9480 H   0  0  0  0  0  0  0  0  0  0  0  0
   -3.6920    0.7460   -2.2560 N   0  0  0  0  0  0  0  0  0  0  0  0
   -2.8710   -0.1400   -1.4340 C   0  0  0  0  0  0  0  0  0  0  0  0
   -2.8230   -1.3110   -1.8440 O   0  0  0  0  0  0  0  0  0  0  0  0
   -2.1930    0.3520   -0.2530 C   0  0  0  0  0  0  0  0  0  0  0  0
   -1.1650   -0.6150    0.3090 C   0  0  2  0  0  0  0  0  0  0  0  0
   -0.6440    0.0510    1.5600 N   0  0  0  0  0  0  0  0  0  0  0  0
    0.0490   -0.7140   -0.5230 C   0  0  0  0  0  0  0  0  0  0  0  0
    1.0790   -0.0300   -0.1470 O   0  0  0  0  0  0  0  0  0  0  0  0
   -4.6760    0.4680   -2.4050 H   0  0  0  0  0  0  0  0  0  0  0  0
   -3.2820    1.6030   -2.6570 H   0  0  0  0  0  0  0  0  0  0  0  0
   -2.9630    0.4420    0.5660 H   0  0  0  0  0  0  0  0  0  0  0  0
   -1.7390    1.3650   -0.3870 H   0  0  0  0  0  0  0  0  0  0  0  0
   -1.6230   -1.5300    0.6360 H   0  0  0  0  0  0  0  0  0  0  0  0
   -0.0900    0.9160    1.4910 H   0  0  0  0  0  0  0  0  0  0  0  0
    4.8430   -4.9710   -3.8280 N   0  0  0  0  0  0  0  0  0  0  0  0
    3.6730   -4.5160   -3.1710 C   0  0  0  0  0  0  0  0  0  0  0  0
    2.9530   -5.3630   -2.5870 O   0  0  0  0  0  0  0  0  0  0  0  0
    3.3210   -3.0640   -3.1820 C   0  0  0  0  0  0  0  0  0  0  0  0
    2.0030   -2.8720   -2.4650 C   0  0  0  0  0  0  0  0  0  0  0  0
    1.5580   -1.4290   -2.4100 C   0  0  2  0  0  0  0  0  0  0  0  0
    0.2740   -1.4520   -1.6860 N   0  0  0  0  0  0  0  0  0  0  0  0
    1.3860   -0.8730   -3.7600 C   0  0  0  0  0  0  0  0  0  0  0  0
    2.2920   -0.6970   -4.6050 O   0  0  0  0  0  0  0  0  0  0  0  0
    0.0910   -0.4950   -4.1670 O   0  0  0  0  0  0  0  0  0  0  0  0
    5.2710   -5.8610   -3.5170 H   0  0  0  0  0  0  0  0  0  0  0  0
    5.3070   -4.4600   -4.6160 H   0  0  0  0  0  0  0  0  0  0  0  0
    4.1160   -2.4260   -2.8050 H   0  0  0  0  0  0  0  0  0  0  0  0
    3.1440   -2.8100   -4.2590 H   0  0  0  0  0  0  0  0  0  0  0  0
    2.1160   -3.3190   -1.4660 H   0  0  0  0  0  0  0  0  0  0  0  0
    1.1960   -3.4540   -2.9650 H   0  0  0  0  0  0  0  0  0  0  0  0
    2.2960   -0.7800   -1.8930 H   0  0  0  0  0  0  0  0  0  0  0  0
   -0.4440   -2.0650   -2.0790 H   0  0  0  0  0  0  0  0  0  0  0  0
  1 12  1  0  0  0  0
  1  2  1  0  0  0  0
  1 11  1  0  0  0  0
  2 13  1  1  0  0  0
  2  3  1  0  0  0  0
  3 14  1  0  0  0  0
  3  4  1  0  0  0  0
  4  8  1  0  0  0  0
  4  5  2  0  0  0  0
  5 16  1  0  0  0  0
  5  6  1  0  0  0  0
  6 17  1  0  0  0  0
  7 18  1  0  0  0  0
  7  6  1  0  0  0  0
  8  7  2  0  0  0  0
  9 10  2  0  0  0  0
  9  2  1  0  0  0  0
 15  3  1  0  0  0  0
 19 20  1  0  0  0  0
 20 22  1  0  0  0  0
 21 20  2  0  0  0  0
 22 23  1  0  0  0  0
 22 29  1  0  0  0  0
 23 31  1  1  0  0  0
 23 24  1  0  0  0  0
 24  9  1  0  0  0  0
 25 26  2  0  0  0  0
 25 23  1  0  0  0  0
 27 19  1  0  0  0  0
 28 19  1  0  0  0  0
 30 22  1  0  0  0  0
 32 24  1  0  0  0  0
 33 43  1  0  0  0  0
 33 34  1  0  0  0  0
 34 35  2  0  0  0  0
 36 34  1  0  0  0  0
 36 45  1  0  0  0  0
 36 37  1  0  0  0  0
 37 38  1  0  0  0  0
 37 47  1  0  0  0  0
 38 49  1  1  0  0  0
 38 39  1  0  0  0  0
 39 25  1  0  0  0  0
 40 38  1  0  0  0  0
 41 40  2  0  0  0  0
 42 40  1  0  0  0  0
 44 33  1  0  0  0  0
 46 36  1  0  0  0  0
 48 37  1  0  0  0  0
 50 39  1  0  0  0  0
M  END
$$$$
