HNR.pdb
 OpenBabel07022418353D

 56 56  0  0  1  0  0  0  0  0999 V2000
    2.1210   -1.1400   -0.0430 N   0  0  0  0  0  0  0  0  0  0  0  0
    2.3170   -1.2810    1.3680 C   0  0  1  0  0  0  0  0  0  0  0  0
    3.6020   -0.6530    1.8690 C   0  0  0  0  0  0  0  0  0  0  0  0
    4.7890   -1.2730    1.2120 C   0  0  0  0  0  0  0  0  0  0  0  0
    5.5370   -2.3620    1.6010 C   0  0  0  0  0  0  0  0  0  0  0  0
    6.5260   -2.5850    0.7140 N   0  0  0  0  0  0  0  0  0  0  0  0
    6.4080   -1.6440   -0.2310 C   0  0  0  0  0  0  0  0  0  0  0  0
    5.3650   -0.8530    0.0650 N   0  0  0  0  0  0  0  0  0  0  0  0
    1.2170   -0.6810    2.1700 C   0  0  0  0  0  0  0  0  0  0  0  0
    1.2980   -0.7520    3.4230 O   0  0  0  0  0  0  0  0  0  0  0  0
    2.6170   -1.9040   -0.5700 H   0  0  0  0  0  0  0  0  0  0  0  0
    2.3210   -0.2070   -0.4280 H   0  0  0  0  0  0  0  0  0  0  0  0
    2.3920   -2.3910    1.5700 H   0  0  0  0  0  0  0  0  0  0  0  0
    3.6270   -0.8600    2.9710 H   0  0  0  0  0  0  0  0  0  0  0  0
    3.5740    0.4430    1.7270 H   0  0  0  0  0  0  0  0  0  0  0  0
    5.3220   -2.9280    2.4990 H   0  0  0  0  0  0  0  0  0  0  0  0
    7.2630   -3.3520    0.7440 H   0  0  0  0  0  0  0  0  0  0  0  0
    7.0690   -1.5640   -1.0850 H   0  0  0  0  0  0  0  0  0  0  0  0
   -0.0480    4.1670    2.0450 N   0  0  0  0  0  0  0  0  0  0  0  0
   -0.0340    2.7670    2.3070 C   0  0  0  0  0  0  0  0  0  0  0  0
    1.0250    2.2470    2.7210 O   0  0  0  0  0  0  0  0  0  0  0  0
   -1.2430    1.9720    2.0900 C   0  0  0  0  0  0  0  0  0  0  0  0
   -0.9740    0.5420    2.4250 C   0  0  2  0  0  0  0  0  0  0  0  0
    0.0830   -0.0340    1.6170 N   0  0  0  0  0  0  0  0  0  0  0  0
   -2.1940   -0.3010    2.1440 C   0  0  0  0  0  0  0  0  0  0  0  0
   -3.2670   -0.0350    2.7430 O   0  0  0  0  0  0  0  0  0  0  0  0
   -0.6210    4.8400    2.6000 H   0  0  0  0  0  0  0  0  0  0  0  0
    0.5450    4.5520    1.2550 H   0  0  0  0  0  0  0  0  0  0  0  0
   -1.6850    2.1080    1.0790 H   0  0  0  0  0  0  0  0  0  0  0  0
   -2.0370    2.3290    2.8030 H   0  0  0  0  0  0  0  0  0  0  0  0
   -0.7570    0.4380    3.4850 H   0  0  0  0  0  0  0  0  0  0  0  0
    0.0380    0.0120    0.5750 H   0  0  0  0  0  0  0  0  0  0  0  0
   -2.7050    1.4200   -3.1480 N   0  0  0  0  0  0  0  0  0  0  0  0
   -2.2920    0.0650   -3.1580 C   0  0  0  0  0  0  0  0  0  0  0  0
   -1.0220   -0.2230   -3.1760 N   0  0  0  0  0  0  0  0  0  0  0  0
   -3.2900   -0.9370   -3.1470 N   0  0  0  0  0  0  0  0  0  0  0  0
   -2.9440   -2.3120   -2.8740 C   0  0  0  0  0  0  0  0  0  0  0  0
   -2.4990   -2.4930   -1.4350 C   0  0  0  0  0  0  0  0  0  0  0  0
   -3.6300   -2.0740   -0.5430 C   0  0  0  0  0  0  0  0  0  0  0  0
   -3.3170   -2.2120    0.9360 C   0  0  2  0  0  0  0  0  0  0  0  0
   -2.1810   -1.3850    1.2300 N   0  0  0  0  0  0  0  0  0  0  0  0
   -2.9700   -3.6350    1.1890 C   0  0  0  0  0  0  0  0  0  0  0  0
   -3.8270   -4.5620    0.9910 O   0  0  0  0  0  0  0  0  0  0  0  0
   -1.7280   -4.0510    1.6440 O   0  0  0  0  0  0  0  0  0  0  0  0
   -3.0280    1.9060   -2.2950 H   0  0  0  0  0  0  0  0  0  0  0  0
   -2.6930    1.9810   -4.0330 H   0  0  0  0  0  0  0  0  0  0  0  0
   -0.3190    0.5460   -3.1830 H   0  0  0  0  0  0  0  0  0  0  0  0
   -4.2760   -0.6690   -3.3380 H   0  0  0  0  0  0  0  0  0  0  0  0
   -2.1770   -2.6570   -3.5990 H   0  0  0  0  0  0  0  0  0  0  0  0
   -3.8350   -2.9520   -3.0180 H   0  0  0  0  0  0  0  0  0  0  0  0
   -1.5470   -1.9810   -1.2410 H   0  0  0  0  0  0  0  0  0  0  0  0
   -2.3220   -3.5770   -1.2860 H   0  0  0  0  0  0  0  0  0  0  0  0
   -3.9700   -1.0360   -0.7000 H   0  0  0  0  0  0  0  0  0  0  0  0
   -4.5070   -2.7260   -0.8250 H   0  0  0  0  0  0  0  0  0  0  0  0
   -4.2020   -1.9500    1.5540 H   0  0  0  0  0  0  0  0  0  0  0  0
   -1.2830   -1.6030    0.7320 H   0  0  0  0  0  0  0  0  0  0  0  0
  1  2  1  0  0  0  0
  2 13  1  1  0  0  0
  2  3  1  0  0  0  0
  2  9  1  0  0  0  0
  3 14  1  0  0  0  0
  4  5  2  0  0  0  0
  4  3  1  0  0  0  0
  5 16  1  0  0  0  0
  6 17  1  0  0  0  0
  6  5  1  0  0  0  0
  7  8  2  0  0  0  0
  7  6  1  0  0  0  0
  8  4  1  0  0  0  0
  9 10  2  0  0  0  0
 11  1  1  0  0  0  0
 12  1  1  0  0  0  0
 15  3  1  0  0  0  0
 18  7  1  0  0  0  0
 19 20  1  0  0  0  0
 19 27  1  0  0  0  0
 20 21  2  0  0  0  0
 22 20  1  0  0  0  0
 22 23  1  0  0  0  0
 22 30  1  0  0  0  0
 23 31  1  1  0  0  0
 24  9  1  0  0  0  0
 24 23  1  0  0  0  0
 25 23  1  0  0  0  0
 25 26  2  0  0  0  0
 28 19  1  0  0  0  0
 29 22  1  0  0  0  0
 32 24  1  0  0  0  0
 33 45  1  0  0  0  0
 34 33  1  0  0  0  0
 34 36  1  0  0  0  0
 35 34  2  0  0  0  0
 36 37  1  0  0  0  0
 37 38  1  0  0  0  0
 38 52  1  0  0  0  0
 38 51  1  0  0  0  0
 38 39  1  0  0  0  0
 39 40  1  0  0  0  0
 40 42  1  0  0  0  0
 40 41  1  0  0  0  0
 40 55  1  1  0  0  0
 41 25  1  0  0  0  0
 42 44  1  0  0  0  0
 43 42  2  0  0  0  0
 46 33  1  0  0  0  0
 47 35  1  0  0  0  0
 48 36  1  0  0  0  0
 49 37  1  0  0  0  0
 50 37  1  0  0  0  0
 53 39  1  0  0  0  0
 54 39  1  0  0  0  0
 56 41  1  0  0  0  0
M  END
$$$$
