HNS.pdb
 OpenBabel07022418353D

 44 44  0  0  1  0  0  0  0  0999 V2000
    1.1270   -2.7650    3.7580 N   0  0  0  0  0  0  0  0  0  0  0  0
    1.9330   -2.2570    2.6210 C   0  0  1  0  0  0  0  0  0  0  0  0
    1.5670   -3.0100    1.4130 C   0  0  0  0  0  0  0  0  0  0  0  0
    2.3170   -2.6880    0.1970 C   0  0  0  0  0  0  0  0  0  0  0  0
    3.3730   -1.8270   -0.0310 C   0  0  0  0  0  0  0  0  0  0  0  0
    3.7080   -1.9420   -1.3240 N   0  0  0  0  0  0  0  0  0  0  0  0
    2.9040   -2.8360   -1.9060 C   0  0  0  0  0  0  0  0  0  0  0  0
    2.0460   -3.3040   -0.9910 N   0  0  0  0  0  0  0  0  0  0  0  0
    1.5700   -0.8230    2.5670 C   0  0  0  0  0  0  0  0  0  0  0  0
    1.6960   -0.0660    3.5780 O   0  0  0  0  0  0  0  0  0  0  0  0
    0.1380   -2.7420    3.4000 H   0  0  0  0  0  0  0  0  0  0  0  0
    1.4240   -3.7440    3.9550 H   0  0  0  0  0  0  0  0  0  0  0  0
    3.0110   -2.4140    2.8280 H   0  0  0  0  0  0  0  0  0  0  0  0
    1.7370   -4.1090    1.6210 H   0  0  0  0  0  0  0  0  0  0  0  0
    0.4880   -2.9630    1.1440 H   0  0  0  0  0  0  0  0  0  0  0  0
    3.7930   -1.2120    0.7430 H   0  0  0  0  0  0  0  0  0  0  0  0
    4.4880   -1.3880   -1.7510 H   0  0  0  0  0  0  0  0  0  0  0  0
    2.9710   -3.1110   -2.9600 H   0  0  0  0  0  0  0  0  0  0  0  0
    1.5900    4.0260   -1.0670 N   0  0  0  0  0  0  0  0  0  0  0  0
    1.0960    3.3000    0.0740 C   0  0  0  0  0  0  0  0  0  0  0  0
    0.4560    3.9900    0.9110 O   0  0  0  0  0  0  0  0  0  0  0  0
    1.3570    1.8510    0.1920 C   0  0  0  0  0  0  0  0  0  0  0  0
    0.7180    1.1710    1.3450 C   0  0  2  0  0  0  0  0  0  0  0  0
    1.0690   -0.2570    1.3920 N   0  0  0  0  0  0  0  0  0  0  0  0
   -0.7590    1.1460    1.1320 C   0  0  0  0  0  0  0  0  0  0  0  0
   -1.3630    2.2350    1.0510 O   0  0  0  0  0  0  0  0  0  0  0  0
    0.9760    4.7200   -1.5170 H   0  0  0  0  0  0  0  0  0  0  0  0
    2.5300    3.8500   -1.4160 H   0  0  0  0  0  0  0  0  0  0  0  0
    1.0940    1.4070   -0.7910 H   0  0  0  0  0  0  0  0  0  0  0  0
    2.4750    1.7680    0.3540 H   0  0  0  0  0  0  0  0  0  0  0  0
    0.9690    1.5930    2.3280 H   0  0  0  0  0  0  0  0  0  0  0  0
    0.8800   -0.7440    0.4880 H   0  0  0  0  0  0  0  0  0  0  0  0
   -4.7500   -0.7400   -0.5400 O   0  0  0  0  0  0  0  0  0  0  0  0
   -3.3580   -0.7740   -0.4500 C   0  0  0  0  0  0  0  0  0  0  0  0
   -2.9530   -0.0530    0.8090 C   0  0  2  0  0  0  0  0  0  0  0  0
   -1.5410   -0.0200    1.0130 N   0  0  0  0  0  0  0  0  0  0  0  0
   -3.5970   -0.6980    1.9760 C   0  0  0  0  0  0  0  0  0  0  0  0
   -4.8490   -0.8370    2.0140 O   0  0  0  0  0  0  0  0  0  0  0  0
   -2.8180   -1.1470    3.0250 O   0  0  0  0  0  0  0  0  0  0  0  0
   -5.0290   -0.7190   -1.4930 H   0  0  0  0  0  0  0  0  0  0  0  0
   -3.0610   -1.8390   -0.4330 H   0  0  0  0  0  0  0  0  0  0  0  0
   -2.9710   -0.2310   -1.3410 H   0  0  0  0  0  0  0  0  0  0  0  0
   -3.3590    0.9850    0.7480 H   0  0  0  0  0  0  0  0  0  0  0  0
   -1.0490   -0.9400    1.0820 H   0  0  0  0  0  0  0  0  0  0  0  0
  1 12  1  0  0  0  0
  2 13  1  1  0  0  0
  2  1  1  0  0  0  0
  3 14  1  0  0  0  0
  3  2  1  0  0  0  0
  4  3  1  0  0  0  0
  5  4  2  0  0  0  0
  5 16  1  0  0  0  0
  6  5  1  0  0  0  0
  7  6  1  0  0  0  0
  7  8  2  0  0  0  0
  8  4  1  0  0  0  0
  9  2  1  0  0  0  0
  9 10  2  0  0  0  0
 11  1  1  0  0  0  0
 15  3  1  0  0  0  0
 17  6  1  0  0  0  0
 18  7  1  0  0  0  0
 19 20  1  0  0  0  0
 20 22  1  0  0  0  0
 20 21  2  0  0  0  0
 22 30  1  0  0  0  0
 22 23  1  0  0  0  0
 23 24  1  0  0  0  0
 23 31  1  1  0  0  0
 24  9  1  0  0  0  0
 25 23  1  0  0  0  0
 26 25  2  0  0  0  0
 27 19  1  0  0  0  0
 28 19  1  0  0  0  0
 29 22  1  0  0  0  0
 32 24  1  0  0  0  0
 33 34  1  0  0  0  0
 34 41  1  0  0  0  0
 34 35  1  0  0  0  0
 35 43  1  6  0  0  0
 35 36  1  0  0  0  0
 35 37  1  0  0  0  0
 36 44  1  0  0  0  0
 36 25  1  0  0  0  0
 37 38  2  0  0  0  0
 37 39  1  0  0  0  0
 40 33  1  0  0  0  0
 42 34  1  0  0  0  0
M  END
$$$$
