HNV.pdb
 OpenBabel07022418353D

 49 49  0  0  1  0  0  0  0  0999 V2000
    1.9410   -2.5760   -0.8920 N   0  0  0  0  0  0  0  0  0  0  0  0
    2.7880   -1.6930   -0.0980 C   0  0  1  0  0  0  0  0  0  0  0  0
    3.9070   -1.2580   -1.0180 C   0  0  0  0  0  0  0  0  0  0  0  0
    4.8790   -0.3530   -0.3910 C   0  0  0  0  0  0  0  0  0  0  0  0
    4.8190    1.0140   -0.3700 C   0  0  0  0  0  0  0  0  0  0  0  0
    5.9070    1.4570    0.3050 N   0  0  0  0  0  0  0  0  0  0  0  0
    6.6400    0.4080    0.7030 C   0  0  0  0  0  0  0  0  0  0  0  0
    5.9900   -0.7110    0.2640 N   0  0  0  0  0  0  0  0  0  0  0  0
    2.0340   -0.5310    0.4060 C   0  0  0  0  0  0  0  0  0  0  0  0
    2.6200    0.3080    1.1310 O   0  0  0  0  0  0  0  0  0  0  0  0
    2.4940   -3.1280   -1.5840 H   0  0  0  0  0  0  0  0  0  0  0  0
    1.2930   -3.1390   -0.3190 H   0  0  0  0  0  0  0  0  0  0  0  0
    3.2040   -2.3330    0.7270 H   0  0  0  0  0  0  0  0  0  0  0  0
    4.3800   -2.2000   -1.4040 H   0  0  0  0  0  0  0  0  0  0  0  0
    3.4090   -0.7950   -1.9140 H   0  0  0  0  0  0  0  0  0  0  0  0
    4.0420    1.6320   -0.8120 H   0  0  0  0  0  0  0  0  0  0  0  0
    6.0970    2.4730    0.4630 H   0  0  0  0  0  0  0  0  0  0  0  0
    7.5620    0.4690    1.2620 H   0  0  0  0  0  0  0  0  0  0  0  0
   -1.8910    1.9200   -2.5340 N   0  0  0  0  0  0  0  0  0  0  0  0
   -1.4060    1.1400   -1.4500 C   0  0  0  0  0  0  0  0  0  0  0  0
   -1.7710   -0.0560   -1.3810 O   0  0  0  0  0  0  0  0  0  0  0  0
   -0.5120    1.7830   -0.4850 C   0  0  0  0  0  0  0  0  0  0  0  0
   -0.0630    0.8490    0.6220 C   0  0  2  0  0  0  0  0  0  0  0  0
    0.6530   -0.2950    0.1170 N   0  0  0  0  0  0  0  0  0  0  0  0
   -1.1900    0.4970    1.5020 C   0  0  0  0  0  0  0  0  0  0  0  0
   -1.8520    1.4550    1.9830 O   0  0  0  0  0  0  0  0  0  0  0  0
   -2.2190    2.8890   -2.4500 H   0  0  0  0  0  0  0  0  0  0  0  0
   -1.9170    1.4780   -3.4870 H   0  0  0  0  0  0  0  0  0  0  0  0
   -1.0900    2.6020    0.0090 H   0  0  0  0  0  0  0  0  0  0  0  0
    0.3780    2.2600   -0.9340 H   0  0  0  0  0  0  0  0  0  0  0  0
    0.6520    1.4380    1.2340 H   0  0  0  0  0  0  0  0  0  0  0  0
    0.1910   -1.0100   -0.4890 H   0  0  0  0  0  0  0  0  0  0  0  0
   -3.2420   -3.1960    1.5570 C   0  0  0  0  0  0  0  0  0  0  0  0
   -3.7880   -1.8720    2.0340 C   0  0  0  0  0  0  0  0  0  0  0  0
   -4.3870   -1.1410    0.8680 C   0  0  0  0  0  0  0  0  0  0  0  0
   -2.6910   -1.0930    2.7090 C   0  0  2  0  0  0  0  0  0  0  0  0
   -1.5730   -0.8170    1.8380 N   0  0  0  0  0  0  0  0  0  0  0  0
   -2.2800   -1.8540    3.9190 C   0  0  0  0  0  0  0  0  0  0  0  0
   -1.0750   -2.1870    4.0920 O   0  0  0  0  0  0  0  0  0  0  0  0
   -3.2010   -2.2180    4.8840 O   0  0  0  0  0  0  0  0  0  0  0  0
   -2.4170   -2.9660    0.8480 H   0  0  0  0  0  0  0  0  0  0  0  0
   -3.9960   -3.7410    0.9200 H   0  0  0  0  0  0  0  0  0  0  0  0
   -2.9060   -3.8460    2.3990 H   0  0  0  0  0  0  0  0  0  0  0  0
   -4.5880   -2.1080    2.7700 H   0  0  0  0  0  0  0  0  0  0  0  0
   -4.4040   -0.0320    1.0370 H   0  0  0  0  0  0  0  0  0  0  0  0
   -5.4360   -1.4480    0.6750 H   0  0  0  0  0  0  0  0  0  0  0  0
   -3.8260   -1.3500   -0.0730 H   0  0  0  0  0  0  0  0  0  0  0  0
   -3.1410   -0.1250    3.0640 H   0  0  0  0  0  0  0  0  0  0  0  0
   -1.0320   -1.6140    1.4480 H   0  0  0  0  0  0  0  0  0  0  0  0
  1 12  1  0  0  0  0
  1  2  1  0  0  0  0
  2  9  1  0  0  0  0
  2 13  1  1  0  0  0
  3  4  1  0  0  0  0
  3  2  1  0  0  0  0
  4  5  2  0  0  0  0
  4  8  1  0  0  0  0
  5  6  1  0  0  0  0
  6 17  1  0  0  0  0
  6  7  1  0  0  0  0
  7 18  1  0  0  0  0
  8  7  2  0  0  0  0
  9 10  2  0  0  0  0
 11  1  1  0  0  0  0
 14  3  1  0  0  0  0
 15  3  1  0  0  0  0
 16  5  1  0  0  0  0
 19 27  1  0  0  0  0
 19 20  1  0  0  0  0
 20 21  2  0  0  0  0
 20 22  1  0  0  0  0
 22 29  1  0  0  0  0
 22 23  1  0  0  0  0
 23 31  1  1  0  0  0
 23 25  1  0  0  0  0
 24  9  1  0  0  0  0
 24 23  1  0  0  0  0
 25 37  1  0  0  0  0
 25 26  2  0  0  0  0
 28 19  1  0  0  0  0
 30 22  1  0  0  0  0
 32 24  1  0  0  0  0
 33 34  1  0  0  0  0
 33 43  1  0  0  0  0
 34 36  1  0  0  0  0
 34 44  1  0  0  0  0
 35 45  1  0  0  0  0
 35 34  1  0  0  0  0
 36 48  1  1  0  0  0
 36 38  1  0  0  0  0
 37 36  1  0  0  0  0
 38 39  2  0  0  0  0
 38 40  1  0  0  0  0
 41 33  1  0  0  0  0
 42 33  1  0  0  0  0
 46 35  1  0  0  0  0
 47 35  1  0  0  0  0
 49 37  1  0  0  0  0
M  END
$$$$
