HNW.pdb
 OpenBabel07022418353D

 57 59  0  0  1  0  0  0  0  0999 V2000
    2.0670   -1.2710    2.2640 N   0  0  0  0  0  0  0  0  0  0  0  0
    1.3150   -0.6830    3.3540 C   0  0  1  0  0  0  0  0  0  0  0  0
    2.2710   -0.0740    4.3410 C   0  0  0  0  0  0  0  0  0  0  0  0
    3.1540   -1.1570    4.8460 C   0  0  0  0  0  0  0  0  0  0  0  0
    4.3750   -1.5520    4.2870 C   0  0  0  0  0  0  0  0  0  0  0  0
    4.8790   -2.5590    5.0150 N   0  0  0  0  0  0  0  0  0  0  0  0
    4.0130   -2.8030    6.0050 C   0  0  0  0  0  0  0  0  0  0  0  0
    2.9590   -1.9560    5.9120 N   0  0  0  0  0  0  0  0  0  0  0  0
    0.2740    0.2540    2.8820 C   0  0  0  0  0  0  0  0  0  0  0  0
   -0.4240    0.8620    3.7190 O   0  0  0  0  0  0  0  0  0  0  0  0
    1.4740   -1.8030    1.5960 H   0  0  0  0  0  0  0  0  0  0  0  0
    2.6400   -0.5690    1.7550 H   0  0  0  0  0  0  0  0  0  0  0  0
    0.8010   -1.5280    3.8640 H   0  0  0  0  0  0  0  0  0  0  0  0
    1.7000    0.3150    5.2150 H   0  0  0  0  0  0  0  0  0  0  0  0
    2.8560    0.7330    3.8450 H   0  0  0  0  0  0  0  0  0  0  0  0
    4.8080   -1.0930    3.4110 H   0  0  0  0  0  0  0  0  0  0  0  0
    5.7650   -3.0710    4.8660 H   0  0  0  0  0  0  0  0  0  0  0  0
    4.1010   -3.5640    6.7960 H   0  0  0  0  0  0  0  0  0  0  0  0
    0.8710    1.1290   -1.4180 N   0  0  0  0  0  0  0  0  0  0  0  0
    0.5010    2.3320   -0.8170 C   0  0  0  0  0  0  0  0  0  0  0  0
    0.9960    3.3900   -1.3560 O   0  0  0  0  0  0  0  0  0  0  0  0
   -0.3630    2.5590    0.3290 C   0  0  0  0  0  0  0  0  0  0  0  0
   -0.9620    1.3880    1.0000 C   0  0  2  0  0  0  0  0  0  0  0  0
    0.0340    0.4900    1.5080 N   0  0  0  0  0  0  0  0  0  0  0  0
   -2.1000    0.7420    0.3260 C   0  0  0  0  0  0  0  0  0  0  0  0
   -2.9490    1.5080   -0.2080 O   0  0  0  0  0  0  0  0  0  0  0  0
    1.7540    0.6580   -1.1530 H   0  0  0  0  0  0  0  0  0  0  0  0
    0.2720    0.6900   -2.1390 H   0  0  0  0  0  0  0  0  0  0  0  0
    0.2720    3.0870    1.1050 H   0  0  0  0  0  0  0  0  0  0  0  0
   -1.1330    3.3210    0.0710 H   0  0  0  0  0  0  0  0  0  0  0  0
   -1.4410    1.8260    1.9560 H   0  0  0  0  0  0  0  0  0  0  0  0
    0.6420   -0.0430    0.8440 H   0  0  0  0  0  0  0  0  0  0  0  0
   -2.3410   -0.6480    0.2210 N   0  0  0  0  0  0  0  0  0  0  0  0
   -3.5030   -1.1380   -0.4620 C   0  0  1  0  0  0  0  0  0  0  0  0
   -3.3100   -2.1400   -1.5300 C   0  0  0  0  0  0  0  0  0  0  0  0
   -2.4820   -1.7540   -2.6750 C   0  0  0  0  0  0  0  0  0  0  0  0
   -2.9190   -1.2690   -3.9080 C   0  0  0  0  0  0  0  0  0  0  0  0
   -1.8490   -1.0110   -4.6630 N   0  0  0  0  0  0  0  0  0  0  0  0
   -0.7190   -1.3030   -3.9890 C   0  0  0  0  0  0  0  0  0  0  0  0
    0.6330   -1.2110   -4.3530 C   0  0  0  0  0  0  0  0  0  0  0  0
    1.5970   -1.5950   -3.4450 C   0  0  0  0  0  0  0  0  0  0  0  0
    1.2060   -2.0610   -2.2030 C   0  0  0  0  0  0  0  0  0  0  0  0
   -0.1130   -2.1530   -1.8420 C   0  0  0  0  0  0  0  0  0  0  0  0
   -1.0960   -1.7640   -2.7550 C   0  0  0  0  0  0  0  0  0  0  0  0
   -4.5070   -1.6650    0.5400 C   0  0  0  0  0  0  0  0  0  0  0  0
   -5.5960   -2.1450    0.1540 O   0  0  0  0  0  0  0  0  0  0  0  0
   -4.1610   -1.5890    1.8710 O   0  0  0  0  0  0  0  0  0  0  0  0
   -1.6590   -1.2860    0.6600 H   0  0  0  0  0  0  0  0  0  0  0  0
   -4.0770   -0.2720   -0.9290 H   0  0  0  0  0  0  0  0  0  0  0  0
   -2.9130   -3.1170   -1.1650 H   0  0  0  0  0  0  0  0  0  0  0  0
   -4.3350   -2.3730   -1.9490 H   0  0  0  0  0  0  0  0  0  0  0  0
   -3.9810   -1.1380   -4.1720 H   0  0  0  0  0  0  0  0  0  0  0  0
   -1.8720   -0.6330   -5.6490 H   0  0  0  0  0  0  0  0  0  0  0  0
    0.8540   -0.8370   -5.3420 H   0  0  0  0  0  0  0  0  0  0  0  0
    2.6480   -1.5290   -3.7170 H   0  0  0  0  0  0  0  0  0  0  0  0
    1.9890   -2.3650   -1.4900 H   0  0  0  0  0  0  0  0  0  0  0  0
   -0.4150   -2.5240   -0.8770 H   0  0  0  0  0  0  0  0  0  0  0  0
  1  2  1  0  0  0  0
  2 13  1  1  0  0  0
  2  3  1  0  0  0  0
  3  4  1  0  0  0  0
  3 14  1  0  0  0  0
  4  8  1  0  0  0  0
  5  4  2  0  0  0  0
  5  6  1  0  0  0  0
  6  7  1  0  0  0  0
  7 18  1  0  0  0  0
  8  7  2  0  0  0  0
  9  2  1  0  0  0  0
  9 10  2  0  0  0  0
 11  1  1  0  0  0  0
 12  1  1  0  0  0  0
 15  3  1  0  0  0  0
 16  5  1  0  0  0  0
 17  6  1  0  0  0  0
 19 27  1  0  0  0  0
 19 20  1  0  0  0  0
 20 22  1  0  0  0  0
 21 20  2  0  0  0  0
 22 23  1  0  0  0  0
 22 29  1  0  0  0  0
 23 24  1  0  0  0  0
 23 31  1  1  0  0  0
 24  9  1  0  0  0  0
 25 23  1  0  0  0  0
 26 25  2  0  0  0  0
 28 19  1  0  0  0  0
 30 22  1  0  0  0  0
 32 24  1  0  0  0  0
 33 25  1  0  0  0  0
 33 48  1  0  0  0  0
 34 49  1  6  0  0  0
 34 33  1  0  0  0  0
 34 45  1  0  0  0  0
 35 50  1  0  0  0  0
 35 34  1  0  0  0  0
 36 35  1  0  0  0  0
 37 36  2  0  0  0  0
 38 39  1  0  0  0  0
 38 37  1  0  0  0  0
 39 44  1  0  0  0  0
 40 39  2  0  0  0  0
 40 41  1  0  0  0  0
 41 42  2  0  0  0  0
 42 43  1  0  0  0  0
 42 56  1  0  0  0  0
 43 57  1  0  0  0  0
 44 36  1  0  0  0  0
 44 43  2  0  0  0  0
 45 47  1  0  0  0  0
 46 45  2  0  0  0  0
 51 35  1  0  0  0  0
 52 37  1  0  0  0  0
 53 38  1  0  0  0  0
 54 40  1  0  0  0  0
 55 41  1  0  0  0  0
M  END
$$$$
