HPA.pdb
 OpenBabel07022418383D

 43 44  0  0  1  0  0  0  0  0999 V2000
    0.5780   -4.3090    2.9760 N   0  0  0  0  0  0  0  0  0  0  0  0
    1.0530   -3.0420    2.3130 C   0  0  1  0  0  0  0  0  0  0  0  0
    1.5580   -3.4770    0.9920 C   0  0  0  0  0  0  0  0  0  0  0  0
    2.1080   -2.4920    0.0820 C   0  0  0  0  0  0  0  0  0  0  0  0
    3.4160   -2.0140   -0.0440 C   0  0  0  0  0  0  0  0  0  0  0  0
    3.4650   -1.1020   -1.0280 N   0  0  0  0  0  0  0  0  0  0  0  0
    2.2230   -0.9900   -1.5290 C   0  0  0  0  0  0  0  0  0  0  0  0
    1.4150   -1.8290   -0.8560 N   0  0  0  0  0  0  0  0  0  0  0  0
   -0.0860   -2.1260    2.3550 C   0  0  0  0  0  0  0  0  0  0  0  0
   -1.2720   -2.5820    2.4510 O   0  0  0  0  0  0  0  0  0  0  0  0
    0.4500   -4.1020    3.9820 H   0  0  0  0  0  0  0  0  0  0  0  0
    1.3110   -5.0250    2.8150 H   0  0  0  0  0  0  0  0  0  0  0  0
    1.8640   -2.6950    2.9990 H   0  0  0  0  0  0  0  0  0  0  0  0
    0.7270   -4.0850    0.5180 H   0  0  0  0  0  0  0  0  0  0  0  0
    2.3650   -4.2670    1.1330 H   0  0  0  0  0  0  0  0  0  0  0  0
    4.2350   -2.3380    0.5600 H   0  0  0  0  0  0  0  0  0  0  0  0
    4.3110   -0.5550   -1.3700 H   0  0  0  0  0  0  0  0  0  0  0  0
    1.9460   -0.3240   -2.3430 H   0  0  0  0  0  0  0  0  0  0  0  0
    0.0550   -0.6910    2.3030 N   0  0  0  0  0  0  0  0  0  0  0  0
    1.2790    0.0550    2.1360 C   0  0  0  0  0  0  0  0  0  0  0  0
    1.0660    1.3940    2.8080 C   0  0  0  0  0  0  0  0  0  0  0  0
   -0.2990    1.2790    3.4310 C   0  0  0  0  0  0  0  0  0  0  0  0
   -0.9770    0.2740    2.4880 C   0  0  1  0  0  0  0  0  0  0  0  0
   -1.4290    1.0300    1.3130 C   0  0  0  0  0  0  0  0  0  0  0  0
   -2.2530    2.0030    1.4990 O   0  0  0  0  0  0  0  0  0  0  0  0
    1.5110    0.1380    1.0810 H   0  0  0  0  0  0  0  0  0  0  0  0
    2.0530   -0.4710    2.7330 H   0  0  0  0  0  0  0  0  0  0  0  0
    1.1200    2.2360    2.0920 H   0  0  0  0  0  0  0  0  0  0  0  0
    1.8310    1.6020    3.5920 H   0  0  0  0  0  0  0  0  0  0  0  0
   -0.8250    2.2530    3.3740 H   0  0  0  0  0  0  0  0  0  0  0  0
   -0.2640    0.8800    4.4640 H   0  0  0  0  0  0  0  0  0  0  0  0
   -1.8500   -0.1490    3.0620 H   0  0  0  0  0  0  0  0  0  0  0  0
   -0.4760    2.2970   -1.8990 C   0  0  0  0  0  0  0  0  0  0  0  0
   -1.5770    1.6350   -1.1040 C   0  0  2  0  0  0  0  0  0  0  0  0
   -1.0720    0.8260   -0.0230 N   0  0  0  0  0  0  0  0  0  0  0  0
   -2.3210    0.7420   -2.0270 C   0  0  0  0  0  0  0  0  0  0  0  0
   -2.4270   -0.4840   -1.8060 O   0  0  0  0  0  0  0  0  0  0  0  0
   -2.9330    1.2240   -3.1780 O   0  0  0  0  0  0  0  0  0  0  0  0
   -0.2500    3.3300   -1.5100 H   0  0  0  0  0  0  0  0  0  0  0  0
   -0.8780    2.4670   -2.9240 H   0  0  0  0  0  0  0  0  0  0  0  0
    0.4220    1.6820   -2.0060 H   0  0  0  0  0  0  0  0  0  0  0  0
   -2.2670    2.4240   -0.7720 H   0  0  0  0  0  0  0  0  0  0  0  0
   -0.4230    0.0620   -0.2710 H   0  0  0  0  0  0  0  0  0  0  0  0
  1 11  1  0  0  0  0
  2  9  1  0  0  0  0
  2  1  1  0  0  0  0
  2 13  1  1  0  0  0
  3 15  1  0  0  0  0
  3  2  1  0  0  0  0
  4  3  1  0  0  0  0
  5  4  2  0  0  0  0
  5 16  1  0  0  0  0
  6  5  1  0  0  0  0
  7  6  1  0  0  0  0
  7  8  2  0  0  0  0
  8  4  1  0  0  0  0
  9 10  2  0  0  0  0
 12  1  1  0  0  0  0
 14  3  1  0  0  0  0
 17  6  1  0  0  0  0
 18  7  1  0  0  0  0
 19  9  1  0  0  0  0
 19 23  1  0  0  0  0
 20 19  1  0  0  0  0
 20 27  1  0  0  0  0
 20 21  1  0  0  0  0
 21 22  1  0  0  0  0
 21 29  1  0  0  0  0
 22 31  1  0  0  0  0
 23 32  1  1  0  0  0
 23 22  1  0  0  0  0
 24 25  2  0  0  0  0
 24 23  1  0  0  0  0
 26 20  1  0  0  0  0
 28 21  1  0  0  0  0
 30 22  1  0  0  0  0
 33 39  1  0  0  0  0
 33 34  1  0  0  0  0
 34 42  1  1  0  0  0
 34 35  1  0  0  0  0
 35 24  1  0  0  0  0
 36 37  1  0  0  0  0
 36 34  1  0  0  0  0
 38 36  2  0  0  0  0
 40 33  1  0  0  0  0
 41 33  1  0  0  0  0
 43 35  1  0  0  0  0
M  END
$$$$
