HPC.pdb
 OpenBabel07022418383D

 44 45  0  0  1  0  0  0  0  0999 V2000
    0.3460   -1.8600    4.9130 N   0  0  0  0  0  0  0  0  0  0  0  0
    1.1590   -1.6200    3.7120 C   0  0  1  0  0  0  0  0  0  0  0  0
    1.2220   -3.0200    3.0760 C   0  0  0  0  0  0  0  0  0  0  0  0
    1.9830   -3.0820    1.8450 C   0  0  0  0  0  0  0  0  0  0  0  0
    3.3500   -3.3590    1.7420 C   0  0  0  0  0  0  0  0  0  0  0  0
    3.7290   -3.3450    0.4560 N   0  0  0  0  0  0  0  0  0  0  0  0
    2.6230   -3.0650   -0.2510 C   0  0  0  0  0  0  0  0  0  0  0  0
    1.5720   -2.9060    0.5730 N   0  0  0  0  0  0  0  0  0  0  0  0
    0.4650   -0.6550    2.8290 C   0  0  0  0  0  0  0  0  0  0  0  0
   -0.8020   -0.5920    2.9520 O   0  0  0  0  0  0  0  0  0  0  0  0
   -0.0470   -0.9670    5.2780 H   0  0  0  0  0  0  0  0  0  0  0  0
   -0.3420   -2.6060    4.7810 H   0  0  0  0  0  0  0  0  0  0  0  0
    2.1460   -1.2580    4.0210 H   0  0  0  0  0  0  0  0  0  0  0  0
    0.1510   -3.2900    2.8930 H   0  0  0  0  0  0  0  0  0  0  0  0
    1.6600   -3.6730    3.8780 H   0  0  0  0  0  0  0  0  0  0  0  0
    4.0030   -3.5540    2.5870 H   0  0  0  0  0  0  0  0  0  0  0  0
    4.6620   -3.5080    0.0280 H   0  0  0  0  0  0  0  0  0  0  0  0
    2.5060   -2.9640   -1.3390 H   0  0  0  0  0  0  0  0  0  0  0  0
    1.0840    0.1840    1.8830 N   0  0  0  0  0  0  0  0  0  0  0  0
    2.4870    0.3450    1.5930 C   0  0  0  0  0  0  0  0  0  0  0  0
    2.5470    0.6800    0.0980 C   0  0  0  0  0  0  0  0  0  0  0  0
    1.3600    1.6530    0.0390 C   0  0  0  0  0  0  0  0  0  0  0  0
    0.3450    1.0660    0.9940 C   0  0  1  0  0  0  0  0  0  0  0  0
   -0.7340    0.3500    0.2570 C   0  0  0  0  0  0  0  0  0  0  0  0
   -0.9580   -0.8800    0.3610 O   0  0  0  0  0  0  0  0  0  0  0  0
    2.8670    1.2430    2.1390 H   0  0  0  0  0  0  0  0  0  0  0  0
    3.1120   -0.4940    1.8760 H   0  0  0  0  0  0  0  0  0  0  0  0
    2.3750   -0.1930   -0.5350 H   0  0  0  0  0  0  0  0  0  0  0  0
    3.5030    1.2000   -0.1070 H   0  0  0  0  0  0  0  0  0  0  0  0
    1.7430    2.6190    0.4310 H   0  0  0  0  0  0  0  0  0  0  0  0
    0.9880    1.7930   -0.9740 H   0  0  0  0  0  0  0  0  0  0  0  0
   -0.1010    1.8600    1.5950 H   0  0  0  0  0  0  0  0  0  0  0  0
   -1.5580    1.1130   -0.6160 N   0  0  0  0  0  0  0  0  0  0  0  0
   -2.6360    0.5170   -1.3800 C   0  0  1  0  0  0  0  0  0  0  0  0
   -3.9830    1.0860   -0.9600 C   0  0  0  0  0  0  0  0  0  0  0  0
   -4.3000    0.7660    0.7960 S   0  0  0  0  0  0  0  0  0  0  0  0
   -2.4600    0.7350   -2.8360 C   0  0  0  0  0  0  0  0  0  0  0  0
   -1.4470    1.3790   -3.2130 O   0  0  0  0  0  0  0  0  0  0  0  0
   -3.3390    0.2750   -3.7870 O   0  0  0  0  0  0  0  0  0  0  0  0
   -1.3700    2.1570   -0.7050 H   0  0  0  0  0  0  0  0  0  0  0  0
   -2.6610   -0.5660   -1.1430 H   0  0  0  0  0  0  0  0  0  0  0  0
   -4.0230    2.1770   -1.1960 H   0  0  0  0  0  0  0  0  0  0  0  0
   -4.8120    0.6180   -1.5260 H   0  0  0  0  0  0  0  0  0  0  0  0
   -4.4820    2.0170    1.4520 H   0  0  0  0  0  0  0  0  0  0  0  0
  1 11  1  0  0  0  0
  2 13  1  1  0  0  0
  2  1  1  0  0  0  0
  3  2  1  0  0  0  0
  3 15  1  0  0  0  0
  4  3  1  0  0  0  0
  5  4  2  0  0  0  0
  5 16  1  0  0  0  0
  6  5  1  0  0  0  0
  7  6  1  0  0  0  0
  7  8  2  0  0  0  0
  8  4  1  0  0  0  0
  9 10  2  0  0  0  0
  9  2  1  0  0  0  0
 12  1  1  0  0  0  0
 14  3  1  0  0  0  0
 17  6  1  0  0  0  0
 18  7  1  0  0  0  0
 19  9  1  0  0  0  0
 20 27  1  0  0  0  0
 20 19  1  0  0  0  0
 20 26  1  0  0  0  0
 21 20  1  0  0  0  0
 22 21  1  0  0  0  0
 22 30  1  0  0  0  0
 22 23  1  0  0  0  0
 23 32  1  1  0  0  0
 23 19  1  0  0  0  0
 24 25  2  0  0  0  0
 24 23  1  0  0  0  0
 28 21  1  0  0  0  0
 29 21  1  0  0  0  0
 31 22  1  0  0  0  0
 33 24  1  0  0  0  0
 34 41  1  1  0  0  0
 34 35  1  0  0  0  0
 34 33  1  0  0  0  0
 35 36  1  0  0  0  0
 36 44  1  0  0  0  0
 37 34  1  0  0  0  0
 38 37  1  0  0  0  0
 39 37  2  0  0  0  0
 40 33  1  0  0  0  0
 42 35  1  0  0  0  0
 43 35  1  0  0  0  0
M  END
$$$$
