HPE.pdb
 OpenBabel07022418383D

 49 50  0  0  1  0  0  0  0  0999 V2000
    1.0920   -1.9470    0.4430 N   0  0  0  0  0  0  0  0  0  0  0  0
    2.2170   -1.7520    1.3220 C   0  0  1  0  0  0  0  0  0  0  0  0
    3.3860   -1.4460    0.4010 C   0  0  0  0  0  0  0  0  0  0  0  0
    4.6520   -1.2050    1.0690 C   0  0  0  0  0  0  0  0  0  0  0  0
    5.2640   -0.0470    1.4930 C   0  0  0  0  0  0  0  0  0  0  0  0
    6.4580   -0.3240    2.0310 N   0  0  0  0  0  0  0  0  0  0  0  0
    6.6180   -1.6560    1.9570 C   0  0  0  0  0  0  0  0  0  0  0  0
    5.5260   -2.2080    1.3720 N   0  0  0  0  0  0  0  0  0  0  0  0
    2.0090   -0.6120    2.2410 C   0  0  0  0  0  0  0  0  0  0  0  0
    3.0200   -0.3150    2.9580 O   0  0  0  0  0  0  0  0  0  0  0  0
    0.7080   -2.9140    0.4940 H   0  0  0  0  0  0  0  0  0  0  0  0
    1.2440   -1.7140   -0.5430 H   0  0  0  0  0  0  0  0  0  0  0  0
    2.4190   -2.6980    1.8890 H   0  0  0  0  0  0  0  0  0  0  0  0
    3.4300   -2.2780   -0.3630 H   0  0  0  0  0  0  0  0  0  0  0  0
    3.0990   -0.5550   -0.2390 H   0  0  0  0  0  0  0  0  0  0  0  0
    4.8470    0.9350    1.4000 H   0  0  0  0  0  0  0  0  0  0  0  0
    7.1680    0.3260    2.4420 H   0  0  0  0  0  0  0  0  0  0  0  0
    7.4810   -2.1930    2.3110 H   0  0  0  0  0  0  0  0  0  0  0  0
    0.8360    0.1470    2.3810 N   0  0  0  0  0  0  0  0  0  0  0  0
    0.8690    1.3630    3.2720 C   0  0  0  0  0  0  0  0  0  0  0  0
    0.3210    2.3830    2.2530 C   0  0  0  0  0  0  0  0  0  0  0  0
   -0.4640    1.5530    1.2160 C   0  0  0  0  0  0  0  0  0  0  0  0
   -0.4910    0.2280    1.9630 C   0  0  1  0  0  0  0  0  0  0  0  0
   -1.3060   -0.8140    1.4790 C   0  0  0  0  0  0  0  0  0  0  0  0
   -1.3380   -1.9460    2.0580 O   0  0  0  0  0  0  0  0  0  0  0  0
    0.2020    1.2270    4.1260 H   0  0  0  0  0  0  0  0  0  0  0  0
    1.8630    1.6240    3.5840 H   0  0  0  0  0  0  0  0  0  0  0  0
   -0.3650    3.0300    2.7950 H   0  0  0  0  0  0  0  0  0  0  0  0
    1.1510    2.9360    1.7760 H   0  0  0  0  0  0  0  0  0  0  0  0
   -1.4600    1.9720    1.0380 H   0  0  0  0  0  0  0  0  0  0  0  0
    0.1880    1.5180    0.3200 H   0  0  0  0  0  0  0  0  0  0  0  0
   -1.0670    0.5710    2.9490 H   0  0  0  0  0  0  0  0  0  0  0  0
   -2.1520   -0.7390    0.3410 N   0  0  0  0  0  0  0  0  0  0  0  0
   -2.9910   -1.7170   -0.2130 C   0  0  1  0  0  0  0  0  0  0  0  0
   -4.4250   -1.5130   -0.2890 C   0  0  0  0  0  0  0  0  0  0  0  0
   -4.8070   -0.2990   -1.0850 C   0  0  0  0  0  0  0  0  0  0  0  0
   -4.3530   -0.3500   -2.4910 C   0  0  0  0  0  0  0  0  0  0  0  0
   -3.3250    0.1870   -2.9480 O   0  0  0  0  0  0  0  0  0  0  0  0
   -2.4350   -2.1930   -1.5030 C   0  0  0  0  0  0  0  0  0  0  0  0
   -3.0620   -3.0340   -2.2310 O   0  0  0  0  0  0  0  0  0  0  0  0
   -5.1430   -1.0680   -3.4160 O   0  0  0  0  0  0  0  0  0  0  0  0
   -1.2120   -1.7580   -1.9880 O   0  0  0  0  0  0  0  0  0  0  0  0
   -2.1260    0.2070   -0.1420 H   0  0  0  0  0  0  0  0  0  0  0  0
   -2.8380   -2.6400    0.4750 H   0  0  0  0  0  0  0  0  0  0  0  0
   -4.8510   -2.3820   -0.8890 H   0  0  0  0  0  0  0  0  0  0  0  0
   -4.9940   -1.5950    0.6610 H   0  0  0  0  0  0  0  0  0  0  0  0
   -4.3510    0.6210   -0.6540 H   0  0  0  0  0  0  0  0  0  0  0  0
   -5.9180   -0.1770   -1.1310 H   0  0  0  0  0  0  0  0  0  0  0  0
   -4.7600   -1.4650   -4.2540 H   0  0  0  0  0  0  0  0  0  0  0  0
  1 11  1  0  0  0  0
  1  2  1  0  0  0  0
  2 13  1  1  0  0  0
  2  9  1  0  0  0  0
  3  4  1  0  0  0  0
  3  2  1  0  0  0  0
  4  8  1  0  0  0  0
  4  5  2  0  0  0  0
  5  6  1  0  0  0  0
  6 17  1  0  0  0  0
  7  6  1  0  0  0  0
  7 18  1  0  0  0  0
  8  7  2  0  0  0  0
  9 19  1  0  0  0  0
  9 10  2  0  0  0  0
 12  1  1  0  0  0  0
 14  3  1  0  0  0  0
 15  3  1  0  0  0  0
 16  5  1  0  0  0  0
 19 20  1  0  0  0  0
 20 27  1  0  0  0  0
 20 26  1  0  0  0  0
 21 28  1  0  0  0  0
 21 20  1  0  0  0  0
 22 23  1  0  0  0  0
 22 21  1  0  0  0  0
 23 19  1  0  0  0  0
 23 32  1  1  0  0  0
 24 23  1  0  0  0  0
 24 25  2  0  0  0  0
 29 21  1  0  0  0  0
 30 22  1  0  0  0  0
 31 22  1  0  0  0  0
 33 24  1  0  0  0  0
 34 33  1  0  0  0  0
 34 44  1  1  0  0  0
 35 34  1  0  0  0  0
 35 46  1  0  0  0  0
 36 47  1  0  0  0  0
 36 35  1  0  0  0  0
 37 36  1  0  0  0  0
 38 37  2  0  0  0  0
 39 34  1  0  0  0  0
 40 39  2  0  0  0  0
 41 37  1  0  0  0  0
 42 39  1  0  0  0  0
 43 33  1  0  0  0  0
 45 35  1  0  0  0  0
 48 36  1  0  0  0  0
 49 41  1  0  0  0  0
M  END
$$$$
