HPF.pdb
 OpenBabel07022418383D

 53 55  0  0  1  0  0  0  0  0999 V2000
   -0.0280    0.4930    2.0890 N   0  0  0  0  0  0  0  0  0  0  0  0
    1.2380    1.0760    2.3890 C   0  0  1  0  0  0  0  0  0  0  0  0
    2.4000    0.0960    2.3910 C   0  0  0  0  0  0  0  0  0  0  0  0
    2.2080   -0.9900    3.3690 C   0  0  0  0  0  0  0  0  0  0  0  0
    2.5830   -0.9710    4.6760 C   0  0  0  0  0  0  0  0  0  0  0  0
    2.1940   -2.1760    5.2010 N   0  0  0  0  0  0  0  0  0  0  0  0
    1.6020   -2.9110    4.2690 C   0  0  0  0  0  0  0  0  0  0  0  0
    1.6130   -2.1730    3.1300 N   0  0  0  0  0  0  0  0  0  0  0  0
    1.6420    2.2130    1.5520 C   0  0  0  0  0  0  0  0  0  0  0  0
    2.7020    2.8050    2.0030 O   0  0  0  0  0  0  0  0  0  0  0  0
   -0.1610   -0.3420    2.7010 H   0  0  0  0  0  0  0  0  0  0  0  0
   -0.7500    1.1830    2.4640 H   0  0  0  0  0  0  0  0  0  0  0  0
    1.1650    1.4710    3.4470 H   0  0  0  0  0  0  0  0  0  0  0  0
    2.6310   -0.2560    1.3770 H   0  0  0  0  0  0  0  0  0  0  0  0
    3.2920    0.7180    2.6830 H   0  0  0  0  0  0  0  0  0  0  0  0
    3.0850   -0.2200    5.2670 H   0  0  0  0  0  0  0  0  0  0  0  0
    2.3210   -2.5070    6.1840 H   0  0  0  0  0  0  0  0  0  0  0  0
    1.1810   -3.9090    4.3720 H   0  0  0  0  0  0  0  0  0  0  0  0
    1.0030    2.6810    0.3660 N   0  0  0  0  0  0  0  0  0  0  0  0
    1.4910    3.8310   -0.3060 C   0  0  0  0  0  0  0  0  0  0  0  0
    0.8220    3.7930   -1.6500 C   0  0  0  0  0  0  0  0  0  0  0  0
   -0.4510    3.0060   -1.4360 C   0  0  0  0  0  0  0  0  0  0  0  0
   -0.1120    2.1390   -0.2750 C   0  0  1  0  0  0  0  0  0  0  0  0
   -0.0070    0.7110   -0.6570 C   0  0  0  0  0  0  0  0  0  0  0  0
    1.0710    0.1710   -0.7630 O   0  0  0  0  0  0  0  0  0  0  0  0
    1.1560    4.7770    0.1960 H   0  0  0  0  0  0  0  0  0  0  0  0
    2.6070    3.8430   -0.4070 H   0  0  0  0  0  0  0  0  0  0  0  0
    1.5390    3.2770   -2.3510 H   0  0  0  0  0  0  0  0  0  0  0  0
    0.5710    4.8070   -2.0290 H   0  0  0  0  0  0  0  0  0  0  0  0
   -0.5740    2.3420   -2.3510 H   0  0  0  0  0  0  0  0  0  0  0  0
   -1.3400    3.6400   -1.3030 H   0  0  0  0  0  0  0  0  0  0  0  0
   -1.0260    2.2590    0.4270 H   0  0  0  0  0  0  0  0  0  0  0  0
   -1.2120    0.0130   -0.8780 N   0  0  0  0  0  0  0  0  0  0  0  0
   -1.2100   -1.4110   -1.2430 C   0  0  1  0  0  0  0  0  0  0  0  0
   -1.7830   -2.1830   -0.0930 C   0  0  0  0  0  0  0  0  0  0  0  0
   -1.8500   -3.6250   -0.3140 C   0  0  0  0  0  0  0  0  0  0  0  0
   -0.8090   -4.4690    0.0100 C   0  0  0  0  0  0  0  0  0  0  0  0
   -0.8970   -5.8290   -0.1790 C   0  0  0  0  0  0  0  0  0  0  0  0
   -2.0540   -6.3930   -0.7080 C   0  0  0  0  0  0  0  0  0  0  0  0
   -3.0810   -5.5650   -1.0310 C   0  0  0  0  0  0  0  0  0  0  0  0
   -2.9910   -4.1900   -0.8390 C   0  0  0  0  0  0  0  0  0  0  0  0
   -1.8790   -1.6740   -2.4900 C   0  0  0  0  0  0  0  0  0  0  0  0
   -1.9540   -2.8260   -2.9730 O   0  0  0  0  0  0  0  0  0  0  0  0
   -2.4960   -0.6700   -3.2590 O   0  0  0  0  0  0  0  0  0  0  0  0
   -2.1670    0.4480   -0.8070 H   0  0  0  0  0  0  0  0  0  0  0  0
   -0.1120   -1.6970   -1.2790 H   0  0  0  0  0  0  0  0  0  0  0  0
   -2.8100   -1.8150    0.1810 H   0  0  0  0  0  0  0  0  0  0  0  0
   -1.1730   -2.0080    0.8350 H   0  0  0  0  0  0  0  0  0  0  0  0
    0.1330   -4.0780    0.4310 H   0  0  0  0  0  0  0  0  0  0  0  0
   -0.0820   -6.4850    0.0830 H   0  0  0  0  0  0  0  0  0  0  0  0
   -2.0770   -7.4540   -0.8380 H   0  0  0  0  0  0  0  0  0  0  0  0
   -3.9720   -6.0220   -1.4420 H   0  0  0  0  0  0  0  0  0  0  0  0
   -3.8590   -3.6060   -1.1240 H   0  0  0  0  0  0  0  0  0  0  0  0
  1  2  1  0  0  0  0
  1 12  1  0  0  0  0
  1 11  1  0  0  0  0
  2  3  1  0  0  0  0
  2 13  1  1  0  0  0
  3 15  1  0  0  0  0
  3  4  1  0  0  0  0
  4  5  2  0  0  0  0
  5  6  1  0  0  0  0
  5 16  1  0  0  0  0
  6 17  1  0  0  0  0
  7 18  1  0  0  0  0
  7  6  1  0  0  0  0
  8  4  1  0  0  0  0
  8  7  2  0  0  0  0
  9 10  2  0  0  0  0
  9  2  1  0  0  0  0
 14  3  1  0  0  0  0
 19  9  1  0  0  0  0
 20 26  1  0  0  0  0
 20 19  1  0  0  0  0
 21 22  1  0  0  0  0
 21 20  1  0  0  0  0
 22 31  1  0  0  0  0
 22 23  1  0  0  0  0
 23 19  1  0  0  0  0
 23 32  1  1  0  0  0
 24 23  1  0  0  0  0
 25 24  2  0  0  0  0
 27 20  1  0  0  0  0
 28 21  1  0  0  0  0
 29 21  1  0  0  0  0
 30 22  1  0  0  0  0
 33 45  1  0  0  0  0
 33 24  1  0  0  0  0
 34 46  1  6  0  0  0
 34 33  1  0  0  0  0
 34 35  1  0  0  0  0
 35 47  1  0  0  0  0
 35 48  1  0  0  0  0
 36 35  1  0  0  0  0
 36 37  1  0  0  0  0
 37 49  1  0  0  0  0
 38 37  2  0  0  0  0
 38 50  1  0  0  0  0
 39 38  1  0  0  0  0
 40 41  1  0  0  0  0
 40 39  2  0  0  0  0
 41 36  2  0  0  0  0
 42 34  1  0  0  0  0
 43 42  1  0  0  0  0
 44 42  2  0  0  0  0
 51 39  1  0  0  0  0
 52 40  1  0  0  0  0
 53 41  1  0  0  0  0
M  END
$$$$
