HPG.pdb
 OpenBabel07022418383D

 40 41  0  0  1  0  0  0  0  0999 V2000
   -0.7390   -2.7960    1.4510 N   0  0  0  0  0  0  0  0  0  0  0  0
    0.5540   -2.3080    1.8160 C   0  0  1  0  0  0  0  0  0  0  0  0
    1.6060   -3.3990    1.6640 C   0  0  0  0  0  0  0  0  0  0  0  0
    2.9580   -2.9330    2.0330 C   0  0  0  0  0  0  0  0  0  0  0  0
    3.5340   -2.9860    3.2830 C   0  0  0  0  0  0  0  0  0  0  0  0
    4.7760   -2.4760    3.2630 N   0  0  0  0  0  0  0  0  0  0  0  0
    4.9980   -2.0910    1.9810 C   0  0  0  0  0  0  0  0  0  0  0  0
    3.9040   -2.3650    1.2370 N   0  0  0  0  0  0  0  0  0  0  0  0
    0.8720   -1.1250    0.9820 C   0  0  0  0  0  0  0  0  0  0  0  0
    1.9590   -0.5450    1.2280 O   0  0  0  0  0  0  0  0  0  0  0  0
   -0.7550   -3.7470    1.0620 H   0  0  0  0  0  0  0  0  0  0  0  0
   -1.4900   -2.5890    2.1400 H   0  0  0  0  0  0  0  0  0  0  0  0
    0.4910   -1.9950    2.8990 H   0  0  0  0  0  0  0  0  0  0  0  0
    1.5710   -3.7080    0.5990 H   0  0  0  0  0  0  0  0  0  0  0  0
    1.3670   -4.2690    2.2760 H   0  0  0  0  0  0  0  0  0  0  0  0
    3.0660   -3.3810    4.1680 H   0  0  0  0  0  0  0  0  0  0  0  0
    5.4530   -2.3820    4.0500 H   0  0  0  0  0  0  0  0  0  0  0  0
    5.9380   -1.6370    1.6740 H   0  0  0  0  0  0  0  0  0  0  0  0
    0.0070   -0.6460   -0.0540 N   0  0  0  0  0  0  0  0  0  0  0  0
   -1.2510   -1.1690   -0.4850 C   0  0  0  0  0  0  0  0  0  0  0  0
   -1.6500   -0.3420   -1.7050 C   0  0  0  0  0  0  0  0  0  0  0  0
   -0.3220    0.2730   -2.1610 C   0  0  0  0  0  0  0  0  0  0  0  0
    0.3320    0.5140   -0.8320 C   0  0  1  0  0  0  0  0  0  0  0  0
   -0.1720    1.7190   -0.1490 C   0  0  0  0  0  0  0  0  0  0  0  0
   -0.0700    2.8790   -0.6280 O   0  0  0  0  0  0  0  0  0  0  0  0
   -1.1430   -2.2390   -0.7960 H   0  0  0  0  0  0  0  0  0  0  0  0
   -2.0310   -1.0620    0.2710 H   0  0  0  0  0  0  0  0  0  0  0  0
   -2.0310   -1.0030   -2.5060 H   0  0  0  0  0  0  0  0  0  0  0  0
   -2.3440    0.4670   -1.4380 H   0  0  0  0  0  0  0  0  0  0  0  0
   -0.4730    1.1750   -2.7620 H   0  0  0  0  0  0  0  0  0  0  0  0
    0.2520   -0.4970   -2.6940 H   0  0  0  0  0  0  0  0  0  0  0  0
    1.4500    0.6260   -0.9400 H   0  0  0  0  0  0  0  0  0  0  0  0
   -0.8020    1.5840    1.1080 N   0  0  0  0  0  0  0  0  0  0  0  0
   -1.3310    2.6990    1.8600 C   0  0  0  0  0  0  0  0  0  0  0  0
   -2.3800    3.4310    1.1280 C   0  0  0  0  0  0  0  0  0  0  0  0
   -2.9100    4.4220    1.6910 O   0  0  0  0  0  0  0  0  0  0  0  0
   -2.8270    3.1030   -0.1450 O   0  0  0  0  0  0  0  0  0  0  0  0
   -0.8850    0.6250    1.5090 H   0  0  0  0  0  0  0  0  0  0  0  0
   -0.4700    3.3790    2.1330 H   0  0  0  0  0  0  0  0  0  0  0  0
   -1.7020    2.3150    2.8290 H   0  0  0  0  0  0  0  0  0  0  0  0
  1  2  1  0  0  0  0
  1 12  1  0  0  0  0
  2 13  1  1  0  0  0
  3  2  1  0  0  0  0
  3  4  1  0  0  0  0
  3 15  1  0  0  0  0
  4  5  2  0  0  0  0
  5 16  1  0  0  0  0
  6  5  1  0  0  0  0
  6 17  1  0  0  0  0
  7  6  1  0  0  0  0
  8  7  2  0  0  0  0
  8  4  1  0  0  0  0
  9 10  2  0  0  0  0
  9  2  1  0  0  0  0
 11  1  1  0  0  0  0
 14  3  1  0  0  0  0
 18  7  1  0  0  0  0
 19  9  1  0  0  0  0
 20 19  1  0  0  0  0
 20 27  1  0  0  0  0
 21 29  1  0  0  0  0
 21 20  1  0  0  0  0
 22 21  1  0  0  0  0
 22 23  1  0  0  0  0
 23 32  1  6  0  0  0
 23 24  1  0  0  0  0
 23 19  1  0  0  0  0
 24 33  1  0  0  0  0
 25 24  2  0  0  0  0
 26 20  1  0  0  0  0
 28 21  1  0  0  0  0
 30 22  1  0  0  0  0
 31 22  1  0  0  0  0
 33 38  1  0  0  0  0
 33 34  1  0  0  0  0
 34 39  1  0  0  0  0
 34 40  1  0  0  0  0
 35 36  1  0  0  0  0
 35 34  1  0  0  0  0
 37 35  2  0  0  0  0
M  END
$$$$
