HPH.pdb
 OpenBabel07022418383D

 50 52  0  0  1  0  0  0  0  0999 V2000
    2.3850   -0.3970    3.7970 N   0  0  0  0  0  0  0  0  0  0  0  0
    1.8870    0.2100    2.5780 C   0  0  1  0  0  0  0  0  0  0  0  0
    2.1980   -0.7580    1.4650 C   0  0  0  0  0  0  0  0  0  0  0  0
    3.6650   -0.9730    1.3800 C   0  0  0  0  0  0  0  0  0  0  0  0
    4.6270   -0.4020    2.1610 C   0  0  0  0  0  0  0  0  0  0  0  0
    5.8230   -0.8620    1.7530 N   0  0  0  0  0  0  0  0  0  0  0  0
    5.6020   -1.6970    0.7440 C   0  0  0  0  0  0  0  0  0  0  0  0
    4.2870   -1.7900    0.4870 N   0  0  0  0  0  0  0  0  0  0  0  0
    0.4680    0.5420    2.7000 C   0  0  0  0  0  0  0  0  0  0  0  0
   -0.1460    0.2380    3.7570 O   0  0  0  0  0  0  0  0  0  0  0  0
    1.9280   -0.0180    4.6560 H   0  0  0  0  0  0  0  0  0  0  0  0
    2.2170   -1.4420    3.7990 H   0  0  0  0  0  0  0  0  0  0  0  0
    2.4420    1.1660    2.3990 H   0  0  0  0  0  0  0  0  0  0  0  0
    1.7380   -1.7590    1.7130 H   0  0  0  0  0  0  0  0  0  0  0  0
    1.8380   -0.4760    0.4800 H   0  0  0  0  0  0  0  0  0  0  0  0
    4.4910    0.3140    2.9870 H   0  0  0  0  0  0  0  0  0  0  0  0
    6.7420   -0.5860    2.1810 H   0  0  0  0  0  0  0  0  0  0  0  0
    6.3580   -2.2470    0.1800 H   0  0  0  0  0  0  0  0  0  0  0  0
   -0.2770    1.1940    1.6920 N   0  0  0  0  0  0  0  0  0  0  0  0
    0.2000    1.6550    0.3750 C   0  0  0  0  0  0  0  0  0  0  0  0
   -0.5450    2.9690    0.1630 C   0  0  0  0  0  0  0  0  0  0  0  0
   -1.6350    2.9810    1.2080 C   0  0  0  0  0  0  0  0  0  0  0  0
   -1.6700    1.5770    1.6820 C   0  0  1  0  0  0  0  0  0  0  0  0
   -2.5530    0.6820    0.9260 C   0  0  0  0  0  0  0  0  0  0  0  0
   -3.7540    1.0970    0.7880 O   0  0  0  0  0  0  0  0  0  0  0  0
    1.2880    1.8510    0.4960 H   0  0  0  0  0  0  0  0  0  0  0  0
   -0.0010    0.9350   -0.4140 H   0  0  0  0  0  0  0  0  0  0  0  0
    0.1640    3.8050    0.4290 H   0  0  0  0  0  0  0  0  0  0  0  0
   -0.9140    3.0730   -0.8720 H   0  0  0  0  0  0  0  0  0  0  0  0
   -1.4710    3.7330    2.0080 H   0  0  0  0  0  0  0  0  0  0  0  0
   -2.5590    3.2920    0.6730 H   0  0  0  0  0  0  0  0  0  0  0  0
   -1.9980    1.5970    2.7530 H   0  0  0  0  0  0  0  0  0  0  0  0
   -2.1900   -0.5650    0.3570 N   0  0  0  0  0  0  0  0  0  0  0  0
   -3.2210   -1.2900   -0.3570 C   0  0  1  0  0  0  0  0  0  0  0  0
   -2.8300   -1.6910   -1.7500 C   0  0  0  0  0  0  0  0  0  0  0  0
   -1.6440   -2.5690   -1.7800 C   0  0  0  0  0  0  0  0  0  0  0  0
   -1.6510   -3.9350   -1.7160 C   0  0  0  0  0  0  0  0  0  0  0  0
   -0.3730   -4.3370   -1.7670 N   0  0  0  0  0  0  0  0  0  0  0  0
    0.4300   -3.2580   -1.8610 C   0  0  0  0  0  0  0  0  0  0  0  0
   -0.3710   -2.1580   -1.8690 N   0  0  0  0  0  0  0  0  0  0  0  0
   -3.5860   -2.5400    0.4000 C   0  0  0  0  0  0  0  0  0  0  0  0
   -3.0030   -2.7910    1.4810 O   0  0  0  0  0  0  0  0  0  0  0  0
   -4.5440   -3.4290   -0.0490 O   0  0  0  0  0  0  0  0  0  0  0  0
   -1.2280   -0.8940    0.4780 H   0  0  0  0  0  0  0  0  0  0  0  0
   -4.1650   -0.7150   -0.4280 H   0  0  0  0  0  0  0  0  0  0  0  0
   -3.6980   -2.2290   -2.1830 H   0  0  0  0  0  0  0  0  0  0  0  0
   -2.7130   -0.7840   -2.3720 H   0  0  0  0  0  0  0  0  0  0  0  0
   -2.5490   -4.5270   -1.6400 H   0  0  0  0  0  0  0  0  0  0  0  0
   -0.0660   -5.3160   -1.7370 H   0  0  0  0  0  0  0  0  0  0  0  0
    1.5030   -3.2490   -1.9200 H   0  0  0  0  0  0  0  0  0  0  0  0
  1 12  1  0  0  0  0
  1 11  1  0  0  0  0
  2 13  1  6  0  0  0
  2  9  1  0  0  0  0
  2  1  1  0  0  0  0
  3 14  1  0  0  0  0
  3  2  1  0  0  0  0
  4  3  1  0  0  0  0
  4  5  2  0  0  0  0
  5 16  1  0  0  0  0
  6  5  1  0  0  0  0
  6 17  1  0  0  0  0
  7  6  1  0  0  0  0
  8  7  2  0  0  0  0
  8  4  1  0  0  0  0
  9 10  2  0  0  0  0
 15  3  1  0  0  0  0
 18  7  1  0  0  0  0
 19  9  1  0  0  0  0
 20 26  1  0  0  0  0
 20 19  1  0  0  0  0
 21 20  1  0  0  0  0
 21 28  1  0  0  0  0
 21 22  1  0  0  0  0
 22 23  1  0  0  0  0
 22 30  1  0  0  0  0
 23 19  1  0  0  0  0
 23 32  1  1  0  0  0
 24 23  1  0  0  0  0
 25 24  2  0  0  0  0
 27 20  1  0  0  0  0
 29 21  1  0  0  0  0
 31 22  1  0  0  0  0
 33 44  1  0  0  0  0
 33 24  1  0  0  0  0
 34 45  1  6  0  0  0
 34 33  1  0  0  0  0
 34 41  1  0  0  0  0
 35 34  1  0  0  0  0
 36 35  1  0  0  0  0
 36 37  2  0  0  0  0
 37 48  1  0  0  0  0
 38 49  1  0  0  0  0
 38 37  1  0  0  0  0
 39 38  1  0  0  0  0
 40 39  2  0  0  0  0
 40 36  1  0  0  0  0
 41 42  1  0  0  0  0
 43 41  2  0  0  0  0
 46 35  1  0  0  0  0
 47 35  1  0  0  0  0
 50 39  1  0  0  0  0
M  END
$$$$
