HPK.pdb
 OpenBabel07022418383D

 54 55  0  0  1  0  0  0  0  0999 V2000
    0.5030   -1.9830    2.1760 N   0  0  0  0  0  0  0  0  0  0  0  0
    1.9210   -1.7960    2.0350 C   0  0  1  0  0  0  0  0  0  0  0  0
    2.3480   -2.4450    0.7470 C   0  0  0  0  0  0  0  0  0  0  0  0
    3.7920   -2.3310    0.4700 C   0  0  0  0  0  0  0  0  0  0  0  0
    4.4150   -1.3330   -0.2450 C   0  0  0  0  0  0  0  0  0  0  0  0
    5.7270   -1.5930   -0.2870 N   0  0  0  0  0  0  0  0  0  0  0  0
    5.9170   -2.7350    0.3920 C   0  0  0  0  0  0  0  0  0  0  0  0
    4.7500   -3.1910    0.8550 N   0  0  0  0  0  0  0  0  0  0  0  0
    2.3640   -0.4100    2.1580 C   0  0  0  0  0  0  0  0  0  0  0  0
    3.6420   -0.2440    2.1150 O   0  0  0  0  0  0  0  0  0  0  0  0
    0.2160   -2.5050    3.0150 H   0  0  0  0  0  0  0  0  0  0  0  0
    0.0650   -2.3800    1.3150 H   0  0  0  0  0  0  0  0  0  0  0  0
    2.4020   -2.3800    2.8570 H   0  0  0  0  0  0  0  0  0  0  0  0
    1.7940   -1.9610   -0.0890 H   0  0  0  0  0  0  0  0  0  0  0  0
    2.0860   -3.5290    0.7970 H   0  0  0  0  0  0  0  0  0  0  0  0
    3.9370   -0.4740   -0.7040 H   0  0  0  0  0  0  0  0  0  0  0  0
    6.4910   -1.0340   -0.7520 H   0  0  0  0  0  0  0  0  0  0  0  0
    6.8670   -3.2260    0.5500 H   0  0  0  0  0  0  0  0  0  0  0  0
    1.5520    0.7350    2.3150 N   0  0  0  0  0  0  0  0  0  0  0  0
    2.0550    2.0800    2.4190 C   0  0  0  0  0  0  0  0  0  0  0  0
    1.0270    2.7460    3.3500 C   0  0  0  0  0  0  0  0  0  0  0  0
   -0.2570    2.0640    2.9750 C   0  0  0  0  0  0  0  0  0  0  0  0
    0.1420    0.7650    2.3940 C   0  0  1  0  0  0  0  0  0  0  0  0
   -0.5210    0.4870    1.0880 C   0  0  0  0  0  0  0  0  0  0  0  0
    0.1600    0.2980    0.0620 O   0  0  0  0  0  0  0  0  0  0  0  0
    3.0450    2.0380    2.9340 H   0  0  0  0  0  0  0  0  0  0  0  0
    2.1400    2.6030    1.4650 H   0  0  0  0  0  0  0  0  0  0  0  0
    1.0040    3.8360    3.1900 H   0  0  0  0  0  0  0  0  0  0  0  0
    1.2740    2.4590    4.3860 H   0  0  0  0  0  0  0  0  0  0  0  0
   -0.9590    1.9790    3.8350 H   0  0  0  0  0  0  0  0  0  0  0  0
   -0.7100    2.7130    2.1660 H   0  0  0  0  0  0  0  0  0  0  0  0
   -0.1710   -0.0170    3.1500 H   0  0  0  0  0  0  0  0  0  0  0  0
   -1.9300    0.4410    1.0250 N   0  0  0  0  0  0  0  0  0  0  0  0
   -2.6590    0.1740   -0.2200 C   0  0  1  0  0  0  0  0  0  0  0  0
   -3.5370   -1.0120    0.0160 C   0  0  0  0  0  0  0  0  0  0  0  0
   -4.3580   -1.4280   -1.1540 C   0  0  0  0  0  0  0  0  0  0  0  0
   -3.5330   -1.8040   -2.3600 C   0  0  0  0  0  0  0  0  0  0  0  0
   -2.6270   -2.9700   -1.9750 C   0  0  0  0  0  0  0  0  0  0  0  0
   -1.8480   -3.3030   -3.1620 N   0  0  0  0  0  0  0  0  0  0  0  0
   -3.4840    1.3790   -0.5830 C   0  0  0  0  0  0  0  0  0  0  0  0
   -3.4540    2.3780    0.1610 O   0  0  0  0  0  0  0  0  0  0  0  0
   -4.2680    1.4070   -1.7120 O   0  0  0  0  0  0  0  0  0  0  0  0
   -2.4850    0.6060    1.9130 H   0  0  0  0  0  0  0  0  0  0  0  0
   -1.9150    0.0350   -1.0070 H   0  0  0  0  0  0  0  0  0  0  0  0
   -2.9210   -1.8250    0.4300 H   0  0  0  0  0  0  0  0  0  0  0  0
   -4.2650   -0.7140    0.8270 H   0  0  0  0  0  0  0  0  0  0  0  0
   -4.8820   -2.3820   -0.8460 H   0  0  0  0  0  0  0  0  0  0  0  0
   -5.1630   -0.7190   -1.3700 H   0  0  0  0  0  0  0  0  0  0  0  0
   -2.9680   -0.9410   -2.7060 H   0  0  0  0  0  0  0  0  0  0  0  0
   -4.2340   -2.2090   -3.1230 H   0  0  0  0  0  0  0  0  0  0  0  0
   -1.9620   -2.7110   -1.1370 H   0  0  0  0  0  0  0  0  0  0  0  0
   -3.2010   -3.8630   -1.7130 H   0  0  0  0  0  0  0  0  0  0  0  0
   -1.5460   -4.2930   -3.1060 H   0  0  0  0  0  0  0  0  0  0  0  0
   -1.0440   -2.6450   -3.2460 H   0  0  0  0  0  0  0  0  0  0  0  0
  1 11  1  0  0  0  0
  2  9  1  0  0  0  0
  2  1  1  0  0  0  0
  2 13  1  1  0  0  0
  3 15  1  0  0  0  0
  3  2  1  0  0  0  0
  4  3  1  0  0  0  0
  4  8  1  0  0  0  0
  5  4  2  0  0  0  0
  6  5  1  0  0  0  0
  6  7  1  0  0  0  0
  7 18  1  0  0  0  0
  7  8  2  0  0  0  0
  9 19  1  0  0  0  0
 10  9  2  0  0  0  0
 12  1  1  0  0  0  0
 14  3  1  0  0  0  0
 16  5  1  0  0  0  0
 17  6  1  0  0  0  0
 19 23  1  0  0  0  0
 19 20  1  0  0  0  0
 20 26  1  0  0  0  0
 20 21  1  0  0  0  0
 21 29  1  0  0  0  0
 22 21  1  0  0  0  0
 22 30  1  0  0  0  0
 23 22  1  0  0  0  0
 23 32  1  1  0  0  0
 24 23  1  0  0  0  0
 25 24  2  0  0  0  0
 27 20  1  0  0  0  0
 28 21  1  0  0  0  0
 31 22  1  0  0  0  0
 33 24  1  0  0  0  0
 33 43  1  0  0  0  0
 34 44  1  6  0  0  0
 34 35  1  0  0  0  0
 34 33  1  0  0  0  0
 35 45  1  0  0  0  0
 35 46  1  0  0  0  0
 36 47  1  0  0  0  0
 36 35  1  0  0  0  0
 37 38  1  0  0  0  0
 37 36  1  0  0  0  0
 38 52  1  0  0  0  0
 38 51  1  0  0  0  0
 39 53  1  0  0  0  0
 39 38  1  0  0  0  0
 40 34  1  0  0  0  0
 40 41  1  0  0  0  0
 42 40  2  0  0  0  0
 48 36  1  0  0  0  0
 49 37  1  0  0  0  0
 50 37  1  0  0  0  0
 54 39  1  0  0  0  0
M  END
$$$$
