HPL.pdb
 OpenBabel07022418383D

 52 53  0  0  1  0  0  0  0  0999 V2000
    3.6940   -0.4560    3.2350 N   0  0  0  0  0  0  0  0  0  0  0  0
    3.7430   -0.3210    1.7760 C   0  0  1  0  0  0  0  0  0  0  0  0
    4.8490   -1.1430    1.2030 C   0  0  0  0  0  0  0  0  0  0  0  0
    4.8900   -0.9980   -0.2660 C   0  0  0  0  0  0  0  0  0  0  0  0
    4.2570   -1.7740   -1.2440 C   0  0  0  0  0  0  0  0  0  0  0  0
    4.5770   -1.3020   -2.4630 N   0  0  0  0  0  0  0  0  0  0  0  0
    5.3920   -0.2510   -2.2950 C   0  0  0  0  0  0  0  0  0  0  0  0
    5.5800   -0.0680   -0.9910 N   0  0  0  0  0  0  0  0  0  0  0  0
    2.4210   -0.6750    1.2500 C   0  0  0  0  0  0  0  0  0  0  0  0
    2.2260   -0.4730    0.0020 O   0  0  0  0  0  0  0  0  0  0  0  0
    4.4090   -1.1850    3.5120 H   0  0  0  0  0  0  0  0  0  0  0  0
    4.0170    0.4230    3.6920 H   0  0  0  0  0  0  0  0  0  0  0  0
    3.9430    0.7480    1.5510 H   0  0  0  0  0  0  0  0  0  0  0  0
    5.8350   -0.8520    1.6410 H   0  0  0  0  0  0  0  0  0  0  0  0
    4.7480   -2.2320    1.4480 H   0  0  0  0  0  0  0  0  0  0  0  0
    3.6150   -2.6200   -0.9950 H   0  0  0  0  0  0  0  0  0  0  0  0
    4.2290   -1.7120   -3.3630 H   0  0  0  0  0  0  0  0  0  0  0  0
    5.8070    0.3250   -3.1050 H   0  0  0  0  0  0  0  0  0  0  0  0
    1.3650   -1.2270    2.0600 N   0  0  0  0  0  0  0  0  0  0  0  0
    1.3830   -1.5370    3.4560 C   0  0  0  0  0  0  0  0  0  0  0  0
    0.0540   -2.1530    3.7980 C   0  0  0  0  0  0  0  0  0  0  0  0
   -0.5110   -2.5590    2.4430 C   0  0  0  0  0  0  0  0  0  0  0  0
    0.0790   -1.5440    1.5210 C   0  0  1  0  0  0  0  0  0  0  0  0
   -0.7790   -0.3500    1.3500 C   0  0  0  0  0  0  0  0  0  0  0  0
   -0.3150    0.7700    1.6800 O   0  0  0  0  0  0  0  0  0  0  0  0
    1.4670   -0.5740    4.0300 H   0  0  0  0  0  0  0  0  0  0  0  0
    2.2280   -2.2080    3.7350 H   0  0  0  0  0  0  0  0  0  0  0  0
    0.1390   -3.0180    4.4800 H   0  0  0  0  0  0  0  0  0  0  0  0
   -0.5960   -1.4110    4.2990 H   0  0  0  0  0  0  0  0  0  0  0  0
   -1.5990   -2.6030    2.4460 H   0  0  0  0  0  0  0  0  0  0  0  0
   -0.1320   -3.5800    2.2400 H   0  0  0  0  0  0  0  0  0  0  0  0
    0.1590   -2.0480    0.5120 H   0  0  0  0  0  0  0  0  0  0  0  0
   -4.1770    0.1740   -3.0180 C   0  0  0  0  0  0  0  0  0  0  0  0
   -3.9310   -0.2710   -1.5660 C   0  0  0  0  0  0  0  0  0  0  0  0
   -5.3260   -0.5110   -0.9860 C   0  0  0  0  0  0  0  0  0  0  0  0
   -3.2980    0.8380   -0.8060 C   0  0  0  0  0  0  0  0  0  0  0  0
   -2.9810    0.5680    0.6250 C   0  0  2  0  0  0  0  0  0  0  0  0
   -2.0810   -0.5270    0.8250 N   0  0  0  0  0  0  0  0  0  0  0  0
   -4.1400    0.4830    1.5260 C   0  0  0  0  0  0  0  0  0  0  0  0
   -4.1930   -0.4970    2.3340 O   0  0  0  0  0  0  0  0  0  0  0  0
   -5.1830    1.3720    1.5790 O   0  0  0  0  0  0  0  0  0  0  0  0
   -3.3020    0.7260   -3.3950 H   0  0  0  0  0  0  0  0  0  0  0  0
   -4.3330   -0.7060   -3.6730 H   0  0  0  0  0  0  0  0  0  0  0  0
   -5.0630    0.8070   -3.1050 H   0  0  0  0  0  0  0  0  0  0  0  0
   -3.3440   -1.1850   -1.6140 H   0  0  0  0  0  0  0  0  0  0  0  0
   -5.2840   -1.1210   -0.0840 H   0  0  0  0  0  0  0  0  0  0  0  0
   -5.8790    0.4450   -0.8950 H   0  0  0  0  0  0  0  0  0  0  0  0
   -5.9270   -1.1010   -1.7360 H   0  0  0  0  0  0  0  0  0  0  0  0
   -2.3590    1.1160   -1.3260 H   0  0  0  0  0  0  0  0  0  0  0  0
   -3.9200    1.7760   -0.8290 H   0  0  0  0  0  0  0  0  0  0  0  0
   -2.4100    1.4950    0.9700 H   0  0  0  0  0  0  0  0  0  0  0  0
   -2.3820   -1.4900    0.5790 H   0  0  0  0  0  0  0  0  0  0  0  0
  1 11  1  0  0  0  0
  1 12  1  0  0  0  0
  2 13  1  6  0  0  0
  2  1  1  0  0  0  0
  3 15  1  0  0  0  0
  3 14  1  0  0  0  0
  3  2  1  0  0  0  0
  4  3  1  0  0  0  0
  5 16  1  0  0  0  0
  5  4  2  0  0  0  0
  6  7  1  0  0  0  0
  6  5  1  0  0  0  0
  7  8  2  0  0  0  0
  8  4  1  0  0  0  0
  9  2  1  0  0  0  0
  9 19  1  0  0  0  0
 10  9  2  0  0  0  0
 17  6  1  0  0  0  0
 18  7  1  0  0  0  0
 19 20  1  0  0  0  0
 20 27  1  0  0  0  0
 20 21  1  0  0  0  0
 20 26  1  0  0  0  0
 21 29  1  0  0  0  0
 21 28  1  0  0  0  0
 22 30  1  0  0  0  0
 22 21  1  0  0  0  0
 23 32  1  6  0  0  0
 23 19  1  0  0  0  0
 23 22  1  0  0  0  0
 24 23  1  0  0  0  0
 24 25  2  0  0  0  0
 31 22  1  0  0  0  0
 33 34  1  0  0  0  0
 34 35  1  0  0  0  0
 34 36  1  0  0  0  0
 35 47  1  0  0  0  0
 35 46  1  0  0  0  0
 36 37  1  0  0  0  0
 37 38  1  0  0  0  0
 37 51  1  1  0  0  0
 37 39  1  0  0  0  0
 38 24  1  0  0  0  0
 39 41  2  0  0  0  0
 39 40  1  0  0  0  0
 42 33  1  0  0  0  0
 43 33  1  0  0  0  0
 44 33  1  0  0  0  0
 45 34  1  0  0  0  0
 48 35  1  0  0  0  0
 49 36  1  0  0  0  0
 50 36  1  0  0  0  0
 52 38  1  0  0  0  0
M  END
$$$$
