HPP.pdb
 OpenBabel07022418383D

 47 49  0  0  1  0  0  0  0  0999 V2000
    0.5150   -1.9750    1.9180 N   0  0  0  0  0  0  0  0  0  0  0  0
    1.7050   -1.9260    1.0240 C   0  0  1  0  0  0  0  0  0  0  0  0
    1.4670   -2.8430   -0.0830 C   0  0  0  0  0  0  0  0  0  0  0  0
    2.5200   -3.0470   -1.0830 C   0  0  0  0  0  0  0  0  0  0  0  0
    3.8010   -2.6360   -1.2060 C   0  0  0  0  0  0  0  0  0  0  0  0
    4.3300   -3.1650   -2.3120 N   0  0  0  0  0  0  0  0  0  0  0  0
    3.3850   -3.9110   -2.8850 C   0  0  0  0  0  0  0  0  0  0  0  0
    2.2720   -3.8570   -2.1570 N   0  0  0  0  0  0  0  0  0  0  0  0
    1.7920   -0.4870    0.6570 C   0  0  0  0  0  0  0  0  0  0  0  0
    2.4560   -0.2160   -0.3800 O   0  0  0  0  0  0  0  0  0  0  0  0
   -0.2770   -2.4220    1.4040 H   0  0  0  0  0  0  0  0  0  0  0  0
    0.7530   -2.4960    2.7960 H   0  0  0  0  0  0  0  0  0  0  0  0
    2.5540   -2.2010    1.6390 H   0  0  0  0  0  0  0  0  0  0  0  0
    0.4860   -2.5630   -0.5670 H   0  0  0  0  0  0  0  0  0  0  0  0
    1.2470   -3.8650    0.3460 H   0  0  0  0  0  0  0  0  0  0  0  0
    4.3320   -1.9850   -0.4950 H   0  0  0  0  0  0  0  0  0  0  0  0
    5.3130   -3.0270   -2.6770 H   0  0  0  0  0  0  0  0  0  0  0  0
    3.5460   -4.4610   -3.8080 H   0  0  0  0  0  0  0  0  0  0  0  0
    1.2090    0.5860    1.3560 N   0  0  0  0  0  0  0  0  0  0  0  0
    1.3160    1.9710    0.9510 C   0  0  0  0  0  0  0  0  0  0  0  0
    0.9350    2.8580    2.0760 C   0  0  0  0  0  0  0  0  0  0  0  0
    0.7730    1.9260    3.2320 C   0  0  0  0  0  0  0  0  0  0  0  0
    0.4680    0.5610    2.5630 C   0  0  1  0  0  0  0  0  0  0  0  0
   -0.9580    0.4050    2.5620 C   0  0  0  0  0  0  0  0  0  0  0  0
   -1.5120    0.4920    3.7290 O   0  0  0  0  0  0  0  0  0  0  0  0
    2.4150    2.1520    0.7280 H   0  0  0  0  0  0  0  0  0  0  0  0
    0.8040    2.2080   -0.0020 H   0  0  0  0  0  0  0  0  0  0  0  0
   -0.0270    3.4020    1.8390 H   0  0  0  0  0  0  0  0  0  0  0  0
    1.6870    3.6470    2.3050 H   0  0  0  0  0  0  0  0  0  0  0  0
    1.7270    1.8490    3.7800 H   0  0  0  0  0  0  0  0  0  0  0  0
   -0.0220    2.1940    3.9470 H   0  0  0  0  0  0  0  0  0  0  0  0
    0.9980   -0.1640    3.2450 H   0  0  0  0  0  0  0  0  0  0  0  0
   -1.8440    0.1740    1.4860 N   0  0  0  0  0  0  0  0  0  0  0  0
   -1.6330   -0.0160    0.0720 C   0  0  0  0  0  0  0  0  0  0  0  0
   -2.8430    0.5590   -0.6270 C   0  0  0  0  0  0  0  0  0  0  0  0
   -3.8030    0.9070    0.4620 C   0  0  0  0  0  0  0  0  0  0  0  0
   -3.3220    0.0970    1.6240 C   0  0  1  0  0  0  0  0  0  0  0  0
   -3.7550   -1.2930    1.5240 C   0  0  0  0  0  0  0  0  0  0  0  0
   -2.9710   -2.2610    1.3920 O   0  0  0  0  0  0  0  0  0  0  0  0
   -5.1300   -1.6270    1.5710 O   0  0  0  0  0  0  0  0  0  0  0  0
   -1.6690   -1.1230   -0.1190 H   0  0  0  0  0  0  0  0  0  0  0  0
   -0.6970    0.4120   -0.3230 H   0  0  0  0  0  0  0  0  0  0  0  0
   -2.5790    1.4210   -1.2740 H   0  0  0  0  0  0  0  0  0  0  0  0
   -3.3380   -0.1770   -1.2890 H   0  0  0  0  0  0  0  0  0  0  0  0
   -3.7230    2.0040    0.6460 H   0  0  0  0  0  0  0  0  0  0  0  0
   -4.8650    0.6400    0.2040 H   0  0  0  0  0  0  0  0  0  0  0  0
   -3.6040    0.5540    2.6040 H   0  0  0  0  0  0  0  0  0  0  0  0
  1 12  1  0  0  0  0
  2 13  1  1  0  0  0
  2  1  1  0  0  0  0
  3 15  1  0  0  0  0
  3  2  1  0  0  0  0
  4  3  1  0  0  0  0
  5  4  2  0  0  0  0
  5 16  1  0  0  0  0
  6  5  1  0  0  0  0
  7  6  1  0  0  0  0
  7  8  2  0  0  0  0
  8  4  1  0  0  0  0
  9  2  1  0  0  0  0
  9 19  1  0  0  0  0
 10  9  2  0  0  0  0
 11  1  1  0  0  0  0
 14  3  1  0  0  0  0
 17  6  1  0  0  0  0
 18  7  1  0  0  0  0
 19 23  1  0  0  0  0
 20 19  1  0  0  0  0
 20 21  1  0  0  0  0
 21 29  1  0  0  0  0
 21 22  1  0  0  0  0
 22 30  1  0  0  0  0
 22 31  1  0  0  0  0
 23 22  1  0  0  0  0
 23 32  1  1  0  0  0
 24 23  1  0  0  0  0
 24 25  2  0  0  0  0
 26 20  1  0  0  0  0
 27 20  1  0  0  0  0
 28 21  1  0  0  0  0
 33 37  1  0  0  0  0
 33 24  1  0  0  0  0
 34 33  1  0  0  0  0
 35 34  1  0  0  0  0
 35 36  1  0  0  0  0
 36 45  1  0  0  0  0
 36 37  1  0  0  0  0
 37 47  1  1  0  0  0
 38 40  1  0  0  0  0
 38 37  1  0  0  0  0
 39 38  2  0  0  0  0
 41 34  1  0  0  0  0
 42 34  1  0  0  0  0
 43 35  1  0  0  0  0
 44 35  1  0  0  0  0
 46 36  1  0  0  0  0
M  END
$$$$
