HPQ.pdb
 OpenBabel07022418383D

 50 51  0  0  1  0  0  0  0  0999 V2000
    0.9340   -2.9980    1.1740 N   0  0  0  0  0  0  0  0  0  0  0  0
    2.0270   -2.2400    0.6910 C   0  0  1  0  0  0  0  0  0  0  0  0
    1.7440   -1.7800   -0.7450 C   0  0  0  0  0  0  0  0  0  0  0  0
    2.8320   -0.9880   -1.3260 C   0  0  0  0  0  0  0  0  0  0  0  0
    3.0340    0.3840   -1.3170 C   0  0  0  0  0  0  0  0  0  0  0  0
    4.1590    0.6920   -1.9760 N   0  0  0  0  0  0  0  0  0  0  0  0
    4.6800   -0.4690   -2.4080 C   0  0  0  0  0  0  0  0  0  0  0  0
    3.8930   -1.4850   -2.0250 N   0  0  0  0  0  0  0  0  0  0  0  0
    2.4250   -1.0570    1.4510 C   0  0  0  0  0  0  0  0  0  0  0  0
    3.6300   -0.6800    1.1290 O   0  0  0  0  0  0  0  0  0  0  0  0
    1.0840   -3.3760    2.1500 H   0  0  0  0  0  0  0  0  0  0  0  0
    0.6640   -3.7720    0.5390 H   0  0  0  0  0  0  0  0  0  0  0  0
    2.8910   -2.9770    0.5920 H   0  0  0  0  0  0  0  0  0  0  0  0
    0.8600   -1.1060   -0.6810 H   0  0  0  0  0  0  0  0  0  0  0  0
    1.4600   -2.6630   -1.3530 H   0  0  0  0  0  0  0  0  0  0  0  0
    2.3740    1.1210   -0.8410 H   0  0  0  0  0  0  0  0  0  0  0  0
    4.5110    1.6730   -2.0970 H   0  0  0  0  0  0  0  0  0  0  0  0
    5.5920   -0.5570   -2.9760 H   0  0  0  0  0  0  0  0  0  0  0  0
    1.7370   -0.3100    2.4260 N   0  0  0  0  0  0  0  0  0  0  0  0
    2.4550    0.8200    3.1120 C   0  0  0  0  0  0  0  0  0  0  0  0
    1.4010    1.8770    3.2350 C   0  0  0  0  0  0  0  0  0  0  0  0
    0.0930    1.2260    2.8970 C   0  0  0  0  0  0  0  0  0  0  0  0
    0.4680   -0.2670    3.0410 C   0  0  1  0  0  0  0  0  0  0  0  0
   -0.6350   -1.0910    2.5970 C   0  0  0  0  0  0  0  0  0  0  0  0
   -1.0340   -2.0120    3.3970 O   0  0  0  0  0  0  0  0  0  0  0  0
    3.2690    1.2020    2.4810 H   0  0  0  0  0  0  0  0  0  0  0  0
    2.8170    0.4330    4.0880 H   0  0  0  0  0  0  0  0  0  0  0  0
    1.3710    2.2010    4.3170 H   0  0  0  0  0  0  0  0  0  0  0  0
    1.6120    2.7720    2.6110 H   0  0  0  0  0  0  0  0  0  0  0  0
   -0.6750    1.4370    3.6800 H   0  0  0  0  0  0  0  0  0  0  0  0
   -0.2770    1.4410    1.8950 H   0  0  0  0  0  0  0  0  0  0  0  0
    0.6250   -0.3740    4.1400 H   0  0  0  0  0  0  0  0  0  0  0  0
   -3.5230    1.1220   -1.9350 N   0  0  0  0  0  0  0  0  0  0  0  0
   -3.7650   -0.0330   -1.1070 C   0  0  0  0  0  0  0  0  0  0  0  0
   -3.8900   -1.1160   -1.6990 O   0  0  0  0  0  0  0  0  0  0  0  0
   -3.8570    0.0870    0.3390 C   0  0  0  0  0  0  0  0  0  0  0  0
   -3.7700   -1.1390    1.1620 C   0  0  0  0  0  0  0  0  0  0  0  0
   -2.4570   -1.8640    1.0280 C   0  0  2  0  0  0  0  0  0  0  0  0
   -1.3470   -0.9990    1.3730 N   0  0  0  0  0  0  0  0  0  0  0  0
   -2.2910   -2.7090   -0.1350 C   0  0  0  0  0  0  0  0  0  0  0  0
   -1.3490   -2.6800   -0.9690 O   0  0  0  0  0  0  0  0  0  0  0  0
   -3.2620   -3.7030   -0.4220 O   0  0  0  0  0  0  0  0  0  0  0  0
   -3.9820    2.0330   -1.7780 H   0  0  0  0  0  0  0  0  0  0  0  0
   -2.8570    1.0180   -2.7170 H   0  0  0  0  0  0  0  0  0  0  0  0
   -4.8650    0.5560    0.5680 H   0  0  0  0  0  0  0  0  0  0  0  0
   -3.1000    0.8400    0.7210 H   0  0  0  0  0  0  0  0  0  0  0  0
   -3.9030   -0.8960    2.2440 H   0  0  0  0  0  0  0  0  0  0  0  0
   -4.5860   -1.8520    0.8980 H   0  0  0  0  0  0  0  0  0  0  0  0
   -2.5010   -2.6150    1.9150 H   0  0  0  0  0  0  0  0  0  0  0  0
   -1.0290   -0.2580    0.7050 H   0  0  0  0  0  0  0  0  0  0  0  0
  1 11  1  0  0  0  0
  2 13  1  6  0  0  0
  2  1  1  0  0  0  0
  2  9  1  0  0  0  0
  3 14  1  0  0  0  0
  3  2  1  0  0  0  0
  4  5  2  0  0  0  0
  4  3  1  0  0  0  0
  5 16  1  0  0  0  0
  6  5  1  0  0  0  0
  7  8  2  0  0  0  0
  7  6  1  0  0  0  0
  8  4  1  0  0  0  0
  9 19  1  0  0  0  0
 10  9  2  0  0  0  0
 12  1  1  0  0  0  0
 15  3  1  0  0  0  0
 17  6  1  0  0  0  0
 18  7  1  0  0  0  0
 19 23  1  0  0  0  0
 19 20  1  0  0  0  0
 20 21  1  0  0  0  0
 20 27  1  0  0  0  0
 21 28  1  0  0  0  0
 22 23  1  0  0  0  0
 22 21  1  0  0  0  0
 22 30  1  0  0  0  0
 23 32  1  1  0  0  0
 24 23  1  0  0  0  0
 24 25  2  0  0  0  0
 26 20  1  0  0  0  0
 29 21  1  0  0  0  0
 31 22  1  0  0  0  0
 33 43  1  0  0  0  0
 33 34  1  0  0  0  0
 34 36  1  0  0  0  0
 35 34  2  0  0  0  0
 36 45  1  0  0  0  0
 36 46  1  0  0  0  0
 36 37  1  0  0  0  0
 37 47  1  0  0  0  0
 38 37  1  0  0  0  0
 38 39  1  0  0  0  0
 38 49  1  1  0  0  0
 39 24  1  0  0  0  0
 40 38  1  0  0  0  0
 41 40  2  0  0  0  0
 42 40  1  0  0  0  0
 44 33  1  0  0  0  0
 48 37  1  0  0  0  0
 50 39  1  0  0  0  0
M  END
$$$$
