HPT.pdb
 OpenBabel07022418383D

 47 48  0  0  1  0  0  0  0  0999 V2000
    1.7320   -2.2620    2.2660 N   0  0  0  0  0  0  0  0  0  0  0  0
    2.1610   -2.0060    0.9240 C   0  0  1  0  0  0  0  0  0  0  0  0
    1.5550   -3.0190    0.0280 C   0  0  0  0  0  0  0  0  0  0  0  0
    1.9000   -2.8950   -1.4050 C   0  0  0  0  0  0  0  0  0  0  0  0
    1.2060   -2.1740   -2.3510 C   0  0  0  0  0  0  0  0  0  0  0  0
    1.8310   -2.3100   -3.5540 N   0  0  0  0  0  0  0  0  0  0  0  0
    2.8890   -3.0960   -3.3660 C   0  0  0  0  0  0  0  0  0  0  0  0
    2.9370   -3.4500   -2.0820 N   0  0  0  0  0  0  0  0  0  0  0  0
    1.9810   -0.5990    0.5580 C   0  0  0  0  0  0  0  0  0  0  0  0
    2.3230   -0.3320   -0.6550 O   0  0  0  0  0  0  0  0  0  0  0  0
    0.9230   -2.9460    2.3210 H   0  0  0  0  0  0  0  0  0  0  0  0
    2.4960   -2.4880    2.9200 H   0  0  0  0  0  0  0  0  0  0  0  0
    3.2770   -2.1970    0.9130 H   0  0  0  0  0  0  0  0  0  0  0  0
    0.4630   -3.1550    0.1650 H   0  0  0  0  0  0  0  0  0  0  0  0
    1.9890   -4.0160    0.3460 H   0  0  0  0  0  0  0  0  0  0  0  0
    0.3100   -1.5760   -2.2410 H   0  0  0  0  0  0  0  0  0  0  0  0
    1.5290   -1.8750   -4.4510 H   0  0  0  0  0  0  0  0  0  0  0  0
    3.5940   -3.4000   -4.1170 H   0  0  0  0  0  0  0  0  0  0  0  0
    1.5040    0.4560    1.3270 N   0  0  0  0  0  0  0  0  0  0  0  0
    1.3490    1.8260    0.8880 C   0  0  0  0  0  0  0  0  0  0  0  0
    1.9550    2.5530    2.0970 C   0  0  0  0  0  0  0  0  0  0  0  0
    1.2400    1.8490    3.2250 C   0  0  0  0  0  0  0  0  0  0  0  0
    1.0720    0.4370    2.7010 C   0  0  1  0  0  0  0  0  0  0  0  0
   -0.3750    0.1440    2.7350 C   0  0  0  0  0  0  0  0  0  0  0  0
   -0.9730    0.0680    3.8640 O   0  0  0  0  0  0  0  0  0  0  0  0
    0.2920    2.1530    0.8490 H   0  0  0  0  0  0  0  0  0  0  0  0
    1.9190    2.0510   -0.0260 H   0  0  0  0  0  0  0  0  0  0  0  0
    1.7230    3.6310    2.0620 H   0  0  0  0  0  0  0  0  0  0  0  0
    3.0390    2.3310    2.1030 H   0  0  0  0  0  0  0  0  0  0  0  0
    0.2630    2.3510    3.3700 H   0  0  0  0  0  0  0  0  0  0  0  0
    1.8040    1.8960    4.1770 H   0  0  0  0  0  0  0  0  0  0  0  0
    1.6790   -0.1990    3.3670 H   0  0  0  0  0  0  0  0  0  0  0  0
   -3.1800    0.7860   -0.3650 C   0  0  0  0  0  0  0  0  0  0  0  0
   -3.4630    0.7580    1.1330 C   0  0  1  0  0  0  0  0  0  0  0  0
   -4.8190    0.4560    1.2620 O   0  0  0  0  0  0  0  0  0  0  0  0
   -2.5990   -0.3440    1.7150 C   0  0  2  0  0  0  0  0  0  0  0  0
   -1.1990   -0.0680    1.6000 N   0  0  0  0  0  0  0  0  0  0  0  0
   -2.9910   -1.6750    1.2030 C   0  0  0  0  0  0  0  0  0  0  0  0
   -2.1180   -2.4320    0.7270 O   0  0  0  0  0  0  0  0  0  0  0  0
   -4.3010   -2.1080    1.2350 O   0  0  0  0  0  0  0  0  0  0  0  0
   -3.6420   -0.1430   -0.8000 H   0  0  0  0  0  0  0  0  0  0  0  0
   -3.6980    1.6550   -0.8510 H   0  0  0  0  0  0  0  0  0  0  0  0
   -2.0950    0.8520   -0.5700 H   0  0  0  0  0  0  0  0  0  0  0  0
   -3.3010    1.7220    1.6110 H   0  0  0  0  0  0  0  0  0  0  0  0
   -5.2780    1.0650    1.8750 H   0  0  0  0  0  0  0  0  0  0  0  0
   -2.8630   -0.3590    2.8140 H   0  0  0  0  0  0  0  0  0  0  0  0
   -0.7270   -0.0120    0.6680 H   0  0  0  0  0  0  0  0  0  0  0  0
  1 11  1  0  0  0  0
  1 12  1  0  0  0  0
  2 13  1  6  0  0  0
  2  1  1  0  0  0  0
  3 14  1  0  0  0  0
  3 15  1  0  0  0  0
  3  2  1  0  0  0  0
  4  3  1  0  0  0  0
  5 16  1  0  0  0  0
  5  4  2  0  0  0  0
  6  7  1  0  0  0  0
  6  5  1  0  0  0  0
  7  8  2  0  0  0  0
  8  4  1  0  0  0  0
  9  2  1  0  0  0  0
  9 19  1  0  0  0  0
 10  9  2  0  0  0  0
 17  6  1  0  0  0  0
 18  7  1  0  0  0  0
 19 23  1  0  0  0  0
 20 19  1  0  0  0  0
 20 21  1  0  0  0  0
 21 29  1  0  0  0  0
 21 22  1  0  0  0  0
 22 30  1  0  0  0  0
 22 31  1  0  0  0  0
 23 24  1  0  0  0  0
 23 22  1  0  0  0  0
 23 32  1  1  0  0  0
 24 25  2  0  0  0  0
 26 20  1  0  0  0  0
 27 20  1  0  0  0  0
 28 21  1  0  0  0  0
 33 34  1  0  0  0  0
 34 35  1  0  0  0  0
 34 44  1  1  0  0  0
 34 36  1  0  0  0  0
 35 45  1  0  0  0  0
 36 46  1  1  0  0  0
 37 36  1  0  0  0  0
 37 24  1  0  0  0  0
 38 40  1  0  0  0  0
 38 36  1  0  0  0  0
 39 38  2  0  0  0  0
 41 33  1  0  0  0  0
 42 33  1  0  0  0  0
 43 33  1  0  0  0  0
 47 37  1  0  0  0  0
M  END
$$$$
