HPV.pdb
 OpenBabel07022418383D

 49 50  0  0  1  0  0  0  0  0999 V2000
    1.9030   -1.9850    1.4220 N   0  0  0  0  0  0  0  0  0  0  0  0
    2.5870   -1.3860    0.2460 C   0  0  1  0  0  0  0  0  0  0  0  0
    2.2160   -2.1260   -0.9630 C   0  0  0  0  0  0  0  0  0  0  0  0
    2.8090   -1.7910   -2.2420 C   0  0  0  0  0  0  0  0  0  0  0  0
    3.7900   -0.9450   -2.6730 C   0  0  0  0  0  0  0  0  0  0  0  0
    3.9450   -1.1010   -3.9940 N   0  0  0  0  0  0  0  0  0  0  0  0
    3.0790   -2.0300   -4.3970 C   0  0  0  0  0  0  0  0  0  0  0  0
    2.3900   -2.4570   -3.3660 N   0  0  0  0  0  0  0  0  0  0  0  0
    2.1660    0.0380    0.2670 C   0  0  0  0  0  0  0  0  0  0  0  0
    2.3630    0.7280   -0.7630 O   0  0  0  0  0  0  0  0  0  0  0  0
    1.1390   -2.5800    1.0380 H   0  0  0  0  0  0  0  0  0  0  0  0
    2.5320   -2.5790    1.9650 H   0  0  0  0  0  0  0  0  0  0  0  0
    3.6580   -1.5010    0.4520 H   0  0  0  0  0  0  0  0  0  0  0  0
    2.3120   -3.2490   -0.8330 H   0  0  0  0  0  0  0  0  0  0  0  0
    1.0930   -2.0110   -1.0960 H   0  0  0  0  0  0  0  0  0  0  0  0
    4.3600   -0.2770   -2.0300 H   0  0  0  0  0  0  0  0  0  0  0  0
    4.6350   -0.5700   -4.5870 H   0  0  0  0  0  0  0  0  0  0  0  0
    2.9380   -2.4020   -5.4130 H   0  0  0  0  0  0  0  0  0  0  0  0
    1.5590    0.6760    1.3610 N   0  0  0  0  0  0  0  0  0  0  0  0
    1.1500    2.0810    1.3470 C   0  0  0  0  0  0  0  0  0  0  0  0
    0.4850    2.3960    2.6310 C   0  0  0  0  0  0  0  0  0  0  0  0
    1.0470    1.3500    3.5660 C   0  0  0  0  0  0  0  0  0  0  0  0
    1.2370    0.1490    2.6360 C   0  0  1  0  0  0  0  0  0  0  0  0
   -0.0980   -0.5460    2.6880 C   0  0  0  0  0  0  0  0  0  0  0  0
   -0.3980   -1.0620    3.7960 O   0  0  0  0  0  0  0  0  0  0  0  0
    2.1170    2.6620    1.3160 H   0  0  0  0  0  0  0  0  0  0  0  0
    0.5810    2.3370    0.4400 H   0  0  0  0  0  0  0  0  0  0  0  0
    0.7620    3.4150    2.9590 H   0  0  0  0  0  0  0  0  0  0  0  0
   -0.6100    2.2830    2.5280 H   0  0  0  0  0  0  0  0  0  0  0  0
    0.3080    1.1450    4.3660 H   0  0  0  0  0  0  0  0  0  0  0  0
    2.0030    1.7050    3.9720 H   0  0  0  0  0  0  0  0  0  0  0  0
    2.0320   -0.4450    3.1140 H   0  0  0  0  0  0  0  0  0  0  0  0
   -3.3600    0.3880    0.2300 C   0  0  0  0  0  0  0  0  0  0  0  0
   -3.3720   -0.3190    1.5430 C   0  0  0  0  0  0  0  0  0  0  0  0
   -4.6710   -1.0510    1.8040 C   0  0  0  0  0  0  0  0  0  0  0  0
   -2.2440   -1.3130    1.7030 C   0  0  2  0  0  0  0  0  0  0  0  0
   -0.9710   -0.6300    1.5940 N   0  0  0  0  0  0  0  0  0  0  0  0
   -2.3480   -2.4600    0.7890 C   0  0  0  0  0  0  0  0  0  0  0  0
   -1.4110   -2.7860    0.0090 O   0  0  0  0  0  0  0  0  0  0  0  0
   -3.5150   -3.2040    0.7890 O   0  0  0  0  0  0  0  0  0  0  0  0
   -2.4870    0.2150   -0.3950 H   0  0  0  0  0  0  0  0  0  0  0  0
   -3.4680    1.4990    0.3830 H   0  0  0  0  0  0  0  0  0  0  0  0
   -4.2620    0.1070   -0.3790 H   0  0  0  0  0  0  0  0  0  0  0  0
   -3.2350    0.4390    2.3580 H   0  0  0  0  0  0  0  0  0  0  0  0
   -4.5170   -1.9210    2.4730 H   0  0  0  0  0  0  0  0  0  0  0  0
   -5.4350   -0.4070    2.2850 H   0  0  0  0  0  0  0  0  0  0  0  0
   -5.1110   -1.4260    0.8430 H   0  0  0  0  0  0  0  0  0  0  0  0
   -2.3540   -1.7220    2.7500 H   0  0  0  0  0  0  0  0  0  0  0  0
   -0.7060   -0.1960    0.6840 H   0  0  0  0  0  0  0  0  0  0  0  0
  1 12  1  0  0  0  0
  2  9  1  0  0  0  0
  2 13  1  1  0  0  0
  2  1  1  0  0  0  0
  3 14  1  0  0  0  0
  3  2  1  0  0  0  0
  4  3  1  0  0  0  0
  5  4  2  0  0  0  0
  5 16  1  0  0  0  0
  6  5  1  0  0  0  0
  7  6  1  0  0  0  0
  7  8  2  0  0  0  0
  8  4  1  0  0  0  0
  9 19  1  0  0  0  0
 10  9  2  0  0  0  0
 11  1  1  0  0  0  0
 15  3  1  0  0  0  0
 17  6  1  0  0  0  0
 18  7  1  0  0  0  0
 19 23  1  0  0  0  0
 20 19  1  0  0  0  0
 20 21  1  0  0  0  0
 21 28  1  0  0  0  0
 21 22  1  0  0  0  0
 22 31  1  0  0  0  0
 22 30  1  0  0  0  0
 23 24  1  0  0  0  0
 23 32  1  1  0  0  0
 23 22  1  0  0  0  0
 24 25  2  0  0  0  0
 26 20  1  0  0  0  0
 27 20  1  0  0  0  0
 29 21  1  0  0  0  0
 33 42  1  0  0  0  0
 33 34  1  0  0  0  0
 34 36  1  0  0  0  0
 34 35  1  0  0  0  0
 34 44  1  0  0  0  0
 35 46  1  0  0  0  0
 35 45  1  0  0  0  0
 36 48  1  1  0  0  0
 37 36  1  0  0  0  0
 37 24  1  0  0  0  0
 38 36  1  0  0  0  0
 39 38  2  0  0  0  0
 40 38  1  0  0  0  0
 41 33  1  0  0  0  0
 43 33  1  0  0  0  0
 47 35  1  0  0  0  0
 49 37  1  0  0  0  0
M  END
$$$$
