HQC.pdb
 OpenBabel07022418363D

 47 47  0  0  1  0  0  0  0  0999 V2000
    2.2930   -1.1680    1.5790 N   0  0  0  0  0  0  0  0  0  0  0  0
    2.1850   -0.7340    0.2060 C   0  0  1  0  0  0  0  0  0  0  0  0
    2.1520   -1.9180   -0.7380 C   0  0  0  0  0  0  0  0  0  0  0  0
    3.3860   -2.7280   -0.6120 C   0  0  0  0  0  0  0  0  0  0  0  0
    4.5370   -2.5230   -1.3570 C   0  0  0  0  0  0  0  0  0  0  0  0
    5.4400   -3.4460   -0.9680 N   0  0  0  0  0  0  0  0  0  0  0  0
    4.9000   -4.2150   -0.0150 C   0  0  0  0  0  0  0  0  0  0  0  0
    3.6530   -3.7680    0.1920 N   0  0  0  0  0  0  0  0  0  0  0  0
    0.9240    0.0790    0.0680 C   0  0  0  0  0  0  0  0  0  0  0  0
    0.6390    0.5620   -1.0760 O   0  0  0  0  0  0  0  0  0  0  0  0
    3.2670   -1.4950    1.7720 H   0  0  0  0  0  0  0  0  0  0  0  0
    1.5980   -1.9250    1.7540 H   0  0  0  0  0  0  0  0  0  0  0  0
    3.0130   -0.0370   -0.0420 H   0  0  0  0  0  0  0  0  0  0  0  0
    1.3130   -2.5750   -0.3730 H   0  0  0  0  0  0  0  0  0  0  0  0
    1.9000   -1.6380   -1.7630 H   0  0  0  0  0  0  0  0  0  0  0  0
    4.6620   -1.7610   -2.1020 H   0  0  0  0  0  0  0  0  0  0  0  0
    6.4040   -3.5540   -1.3400 H   0  0  0  0  0  0  0  0  0  0  0  0
    5.3430   -5.0460    0.5160 H   0  0  0  0  0  0  0  0  0  0  0  0
    0.6220    5.0420   -1.2090 N   0  0  0  0  0  0  0  0  0  0  0  0
   -0.3070    3.9850   -1.0550 C   0  0  0  0  0  0  0  0  0  0  0  0
   -1.2220    3.8420   -1.8960 O   0  0  0  0  0  0  0  0  0  0  0  0
   -0.2060    3.0540    0.0840 C   0  0  0  0  0  0  0  0  0  0  0  0
   -1.2980    2.0100    0.0450 C   0  0  0  0  0  0  0  0  0  0  0  0
   -1.1090    1.0510    1.2120 C   0  0  2  0  0  0  0  0  0  0  0  0
    0.0960    0.2910    1.1770 N   0  0  0  0  0  0  0  0  0  0  0  0
   -2.3080    0.3120    1.5940 C   0  0  0  0  0  0  0  0  0  0  0  0
   -3.4190    0.9080    1.6500 O   0  0  0  0  0  0  0  0  0  0  0  0
    1.0140    5.5720   -0.3790 H   0  0  0  0  0  0  0  0  0  0  0  0
    0.9720    5.3610   -2.1480 H   0  0  0  0  0  0  0  0  0  0  0  0
    0.8030    2.6930    0.2900 H   0  0  0  0  0  0  0  0  0  0  0  0
   -0.4210    3.7300    1.0050 H   0  0  0  0  0  0  0  0  0  0  0  0
   -2.2690    2.5410    0.2860 H   0  0  0  0  0  0  0  0  0  0  0  0
   -1.4450    1.5300   -0.9160 H   0  0  0  0  0  0  0  0  0  0  0  0
   -0.9290    1.8390    2.0600 H   0  0  0  0  0  0  0  0  0  0  0  0
    0.4200   -0.1750    2.0900 H   0  0  0  0  0  0  0  0  0  0  0  0
   -2.3350   -1.0750    1.9200 N   0  0  0  0  0  0  0  0  0  0  0  0
   -3.5360   -1.7900    2.2960 C   0  0  1  0  0  0  0  0  0  0  0  0
   -3.7690   -3.0020    1.4210 C   0  0  0  0  0  0  0  0  0  0  0  0
   -5.3140   -3.7800    2.0300 S   0  0  0  0  0  0  0  0  0  0  0  0
   -3.3570   -2.2830    3.6810 C   0  0  0  0  0  0  0  0  0  0  0  0
   -4.2680   -2.9420    4.2470 O   0  0  0  0  0  0  0  0  0  0  0  0
   -2.2050   -2.0360    4.3700 O   0  0  0  0  0  0  0  0  0  0  0  0
   -1.4340   -1.5910    1.8820 H   0  0  0  0  0  0  0  0  0  0  0  0
   -4.4290   -1.1420    2.3020 H   0  0  0  0  0  0  0  0  0  0  0  0
   -3.8530   -2.6880    0.3780 H   0  0  0  0  0  0  0  0  0  0  0  0
   -2.9740   -3.7630    1.5600 H   0  0  0  0  0  0  0  0  0  0  0  0
   -6.2370   -2.7670    2.4220 H   0  0  0  0  0  0  0  0  0  0  0  0
  1 12  1  0  0  0  0
  1 11  1  0  0  0  0
  2 13  1  6  0  0  0
  2  1  1  0  0  0  0
  3  4  1  0  0  0  0
  3 14  1  0  0  0  0
  3  2  1  0  0  0  0
  4  8  1  0  0  0  0
  5  6  1  0  0  0  0
  5  4  2  0  0  0  0
  6  7  1  0  0  0  0
  7  8  2  0  0  0  0
  7 18  1  0  0  0  0
  9  2  1  0  0  0  0
  9 25  1  0  0  0  0
 10  9  2  0  0  0  0
 15  3  1  0  0  0  0
 16  5  1  0  0  0  0
 17  6  1  0  0  0  0
 19 20  1  0  0  0  0
 19 28  1  0  0  0  0
 20 22  1  0  0  0  0
 21 20  2  0  0  0  0
 22 30  1  0  0  0  0
 22 31  1  0  0  0  0
 23 22  1  0  0  0  0
 23 32  1  0  0  0  0
 23 24  1  0  0  0  0
 24 26  1  0  0  0  0
 24 34  1  1  0  0  0
 25 24  1  0  0  0  0
 25 35  1  0  0  0  0
 26 27  2  0  0  0  0
 26 36  1  0  0  0  0
 29 19  1  0  0  0  0
 33 23  1  0  0  0  0
 36 37  1  0  0  0  0
 37 44  1  6  0  0  0
 37 40  1  0  0  0  0
 38 46  1  0  0  0  0
 38 39  1  0  0  0  0
 38 37  1  0  0  0  0
 39 47  1  0  0  0  0
 40 41  2  0  0  0  0
 40 42  1  0  0  0  0
 43 36  1  0  0  0  0
 45 38  1  0  0  0  0
M  END
$$$$
