HQE.pdb
 OpenBabel07022418363D

 52 52  0  0  1  0  0  0  0  0999 V2000
    0.7600   -0.4140    3.5160 N   0  0  0  0  0  0  0  0  0  0  0  0
    1.6710   -0.0470    2.4780 C   0  0  1  0  0  0  0  0  0  0  0  0
    2.3220   -1.2980    1.9380 C   0  0  0  0  0  0  0  0  0  0  0  0
    3.0720   -2.0310    2.9850 C   0  0  0  0  0  0  0  0  0  0  0  0
    4.3950   -1.8850    3.3470 C   0  0  0  0  0  0  0  0  0  0  0  0
    4.7120   -2.7360    4.3480 N   0  0  0  0  0  0  0  0  0  0  0  0
    3.5770   -3.4260    4.6180 C   0  0  0  0  0  0  0  0  0  0  0  0
    2.5970   -3.0020    3.8010 N   0  0  0  0  0  0  0  0  0  0  0  0
    0.9460    0.6040    1.3050 C   0  0  0  0  0  0  0  0  0  0  0  0
    1.6590    0.9640    0.3450 O   0  0  0  0  0  0  0  0  0  0  0  0
    1.1430   -0.3680    4.4660 H   0  0  0  0  0  0  0  0  0  0  0  0
    0.1250   -1.1890    3.3070 H   0  0  0  0  0  0  0  0  0  0  0  0
    2.3970    0.6790    2.8700 H   0  0  0  0  0  0  0  0  0  0  0  0
    1.5120   -1.9120    1.4920 H   0  0  0  0  0  0  0  0  0  0  0  0
    2.9710   -0.9920    1.0850 H   0  0  0  0  0  0  0  0  0  0  0  0
    5.0850   -1.2040    2.9130 H   0  0  0  0  0  0  0  0  0  0  0  0
    5.6220   -2.8700    4.8390 H   0  0  0  0  0  0  0  0  0  0  0  0
    3.5070   -4.2010    5.3900 H   0  0  0  0  0  0  0  0  0  0  0  0
   -0.8610    5.2430    2.1180 N   0  0  0  0  0  0  0  0  0  0  0  0
   -1.1120    4.2970    1.0720 C   0  0  0  0  0  0  0  0  0  0  0  0
   -2.2700    4.1500    0.6570 O   0  0  0  0  0  0  0  0  0  0  0  0
    0.0410    3.5440    0.5380 C   0  0  0  0  0  0  0  0  0  0  0  0
   -0.3900    2.4330   -0.3620 C   0  0  0  0  0  0  0  0  0  0  0  0
   -1.2100    1.3680    0.3250 C   0  0  2  0  0  0  0  0  0  0  0  0
   -0.4560    0.7550    1.3780 N   0  0  0  0  0  0  0  0  0  0  0  0
   -1.6430    0.3570   -0.7140 C   0  0  0  0  0  0  0  0  0  0  0  0
   -2.3030    0.7500   -1.7050 O   0  0  0  0  0  0  0  0  0  0  0  0
   -0.9500    5.0150    3.1220 H   0  0  0  0  0  0  0  0  0  0  0  0
   -0.5770    6.2000    1.8390 H   0  0  0  0  0  0  0  0  0  0  0  0
    0.6720    4.2470   -0.0570 H   0  0  0  0  0  0  0  0  0  0  0  0
    0.6490    3.1560    1.3990 H   0  0  0  0  0  0  0  0  0  0  0  0
   -1.1170    2.9610   -1.1050 H   0  0  0  0  0  0  0  0  0  0  0  0
    0.3800    2.0480   -1.0510 H   0  0  0  0  0  0  0  0  0  0  0  0
   -2.0960    1.9280    0.7360 H   0  0  0  0  0  0  0  0  0  0  0  0
   -0.9540    0.3930    2.2550 H   0  0  0  0  0  0  0  0  0  0  0  0
   -1.3210   -0.9970   -0.5840 N   0  0  0  0  0  0  0  0  0  0  0  0
   -1.6280   -2.0940   -1.4720 C   0  0  1  0  0  0  0  0  0  0  0  0
   -2.7740   -2.8920   -0.9920 C   0  0  0  0  0  0  0  0  0  0  0  0
   -3.1410   -4.0230   -1.8710 C   0  0  0  0  0  0  0  0  0  0  0  0
   -2.0930   -5.0210   -2.1010 C   0  0  0  0  0  0  0  0  0  0  0  0
   -0.9600   -4.9930   -1.5800 O   0  0  0  0  0  0  0  0  0  0  0  0
   -1.5740   -1.7590   -2.8980 C   0  0  0  0  0  0  0  0  0  0  0  0
   -1.2760   -0.6470   -3.3860 O   0  0  0  0  0  0  0  0  0  0  0  0
   -2.3430   -6.1070   -2.9670 O   0  0  0  0  0  0  0  0  0  0  0  0
   -1.8740   -2.7500   -3.8580 O   0  0  0  0  0  0  0  0  0  0  0  0
   -0.7750   -1.2430    0.3030 H   0  0  0  0  0  0  0  0  0  0  0  0
   -0.6740   -2.7610   -1.3610 H   0  0  0  0  0  0  0  0  0  0  0  0
   -3.6940   -2.2700   -0.8520 H   0  0  0  0  0  0  0  0  0  0  0  0
   -2.5030   -3.3090    0.0190 H   0  0  0  0  0  0  0  0  0  0  0  0
   -3.5810   -3.6780   -2.8300 H   0  0  0  0  0  0  0  0  0  0  0  0
   -4.0150   -4.6100   -1.3730 H   0  0  0  0  0  0  0  0  0  0  0  0
   -1.7520   -6.9340   -2.8880 H   0  0  0  0  0  0  0  0  0  0  0  0
  1 11  1  0  0  0  0
  2 13  1  1  0  0  0
  2  1  1  0  0  0  0
  3  2  1  0  0  0  0
  3  4  1  0  0  0  0
  4  5  2  0  0  0  0
  4  8  1  0  0  0  0
  5  6  1  0  0  0  0
  6  7  1  0  0  0  0
  6 17  1  0  0  0  0
  7 18  1  0  0  0  0
  8  7  2  0  0  0  0
  9 25  1  0  0  0  0
  9  2  1  0  0  0  0
 10  9  2  0  0  0  0
 12  1  1  0  0  0  0
 14  3  1  0  0  0  0
 15  3  1  0  0  0  0
 16  5  1  0  0  0  0
 19 28  1  0  0  0  0
 20 19  1  0  0  0  0
 21 20  2  0  0  0  0
 22 20  1  0  0  0  0
 22 31  1  0  0  0  0
 23 24  1  0  0  0  0
 23 22  1  0  0  0  0
 24 34  1  1  0  0  0
 24 25  1  0  0  0  0
 25 35  1  0  0  0  0
 26 36  1  0  0  0  0
 26 24  1  0  0  0  0
 27 26  2  0  0  0  0
 29 19  1  0  0  0  0
 30 22  1  0  0  0  0
 32 23  1  0  0  0  0
 33 23  1  0  0  0  0
 36 46  1  0  0  0  0
 37 47  1  1  0  0  0
 37 38  1  0  0  0  0
 37 36  1  0  0  0  0
 38 48  1  0  0  0  0
 38 49  1  0  0  0  0
 39 51  1  0  0  0  0
 39 38  1  0  0  0  0
 40 39  1  0  0  0  0
 40 41  2  0  0  0  0
 42 37  1  0  0  0  0
 43 42  1  0  0  0  0
 44 52  1  0  0  0  0
 44 40  1  0  0  0  0
 45 42  2  0  0  0  0
 50 39  1  0  0  0  0
M  END
$$$$
