HQN.pdb
 OpenBabel07022418363D

 50 50  0  0  1  0  0  0  0  0999 V2000
    3.8020    1.4980    0.8850 N   0  0  0  0  0  0  0  0  0  0  0  0
    2.4710    1.2740    0.3540 C   0  0  1  0  0  0  0  0  0  0  0  0
    2.6270    0.6140   -0.9690 C   0  0  0  0  0  0  0  0  0  0  0  0
    3.3530   -0.6890   -0.8320 C   0  0  0  0  0  0  0  0  0  0  0  0
    4.7300   -0.8710   -0.9060 C   0  0  0  0  0  0  0  0  0  0  0  0
    5.0270   -2.1660   -0.7380 N   0  0  0  0  0  0  0  0  0  0  0  0
    3.8440   -2.7980   -0.5600 C   0  0  0  0  0  0  0  0  0  0  0  0
    2.8420   -1.9080   -0.6170 N   0  0  0  0  0  0  0  0  0  0  0  0
    1.6470    0.6300    1.3480 C   0  0  0  0  0  0  0  0  0  0  0  0
    2.1440    0.3140    2.4590 O   0  0  0  0  0  0  0  0  0  0  0  0
    3.9580    0.7930    1.6400 H   0  0  0  0  0  0  0  0  0  0  0  0
    3.9370    2.4390    1.2850 H   0  0  0  0  0  0  0  0  0  0  0  0
    2.0530    2.3150    0.2030 H   0  0  0  0  0  0  0  0  0  0  0  0
    1.7140    0.4320   -1.5260 H   0  0  0  0  0  0  0  0  0  0  0  0
    3.2780    1.2610   -1.5940 H   0  0  0  0  0  0  0  0  0  0  0  0
    5.4410   -0.0680   -1.0750 H   0  0  0  0  0  0  0  0  0  0  0  0
    5.9740   -2.6340   -0.7390 H   0  0  0  0  0  0  0  0  0  0  0  0
    3.6940   -3.8620   -0.3940 H   0  0  0  0  0  0  0  0  0  0  0  0
   -2.1950    3.9200    4.2070 N   0  0  0  0  0  0  0  0  0  0  0  0
   -2.3860    2.6320    3.6380 C   0  0  0  0  0  0  0  0  0  0  0  0
   -3.5520    2.2050    3.5110 O   0  0  0  0  0  0  0  0  0  0  0  0
   -1.1740    1.8690    3.2290 C   0  0  0  0  0  0  0  0  0  0  0  0
   -1.6680    0.5510    2.6630 C   0  0  0  0  0  0  0  0  0  0  0  0
   -0.5160   -0.3320    2.2030 C   0  0  2  0  0  0  0  0  0  0  0  0
    0.2610    0.3070    1.1770 N   0  0  0  0  0  0  0  0  0  0  0  0
   -1.1390   -1.5570    1.6500 C   0  0  0  0  0  0  0  0  0  0  0  0
   -1.8700   -2.2060    2.4790 O   0  0  0  0  0  0  0  0  0  0  0  0
   -2.8640    4.7040    4.0350 H   0  0  0  0  0  0  0  0  0  0  0  0
   -1.3530    4.0770    4.8160 H   0  0  0  0  0  0  0  0  0  0  0  0
   -0.5780    1.7100    4.1500 H   0  0  0  0  0  0  0  0  0  0  0  0
   -0.5500    2.4250    2.5170 H   0  0  0  0  0  0  0  0  0  0  0  0
   -2.3280    0.7060    1.7970 H   0  0  0  0  0  0  0  0  0  0  0  0
   -2.2580    0.0530    3.4560 H   0  0  0  0  0  0  0  0  0  0  0  0
    0.0980   -0.5960    3.0930 H   0  0  0  0  0  0  0  0  0  0  0  0
   -0.1310    0.5750    0.2490 H   0  0  0  0  0  0  0  0  0  0  0  0
   -4.5510   -1.6900   -2.0110 N   0  0  0  0  0  0  0  0  0  0  0  0
   -3.6040   -2.0430   -1.0120 C   0  0  0  0  0  0  0  0  0  0  0  0
   -3.7230   -1.4980    0.1060 O   0  0  0  0  0  0  0  0  0  0  0  0
   -2.5330   -3.0190   -1.3120 C   0  0  0  0  0  0  0  0  0  0  0  0
   -1.6480   -3.2460   -0.1180 C   0  0  2  0  0  0  0  0  0  0  0  0
   -0.9930   -2.0370    0.3370 N   0  0  0  0  0  0  0  0  0  0  0  0
   -0.6300   -4.3000   -0.4320 C   0  0  0  0  0  0  0  0  0  0  0  0
    0.5850   -4.0570   -0.2800 O   0  0  0  0  0  0  0  0  0  0  0  0
   -1.0430   -5.5350   -0.8890 O   0  0  0  0  0  0  0  0  0  0  0  0
   -5.5790   -1.8340   -1.9030 H   0  0  0  0  0  0  0  0  0  0  0  0
   -4.1670   -1.2660   -2.8850 H   0  0  0  0  0  0  0  0  0  0  0  0
   -1.9810   -2.7680   -2.2210 H   0  0  0  0  0  0  0  0  0  0  0  0
   -3.0550   -3.9900   -1.5270 H   0  0  0  0  0  0  0  0  0  0  0  0
   -2.2760   -3.6130    0.7330 H   0  0  0  0  0  0  0  0  0  0  0  0
   -0.3770   -1.4720   -0.3160 H   0  0  0  0  0  0  0  0  0  0  0  0
  1 12  1  0  0  0  0
  1 11  1  0  0  0  0
  2 13  1  6  0  0  0
  2  1  1  0  0  0  0
  2  9  1  0  0  0  0
  3  4  1  0  0  0  0
  3  2  1  0  0  0  0
  4  8  1  0  0  0  0
  5  4  2  0  0  0  0
  5  6  1  0  0  0  0
  6  7  1  0  0  0  0
  7 18  1  0  0  0  0
  8  7  2  0  0  0  0
  9 10  2  0  0  0  0
 14  3  1  0  0  0  0
 15  3  1  0  0  0  0
 16  5  1  0  0  0  0
 17  6  1  0  0  0  0
 19 29  1  0  0  0  0
 20 19  1  0  0  0  0
 21 20  2  0  0  0  0
 22 20  1  0  0  0  0
 22 30  1  0  0  0  0
 23 22  1  0  0  0  0
 23 33  1  0  0  0  0
 24 23  1  0  0  0  0
 24 34  1  1  0  0  0
 25  9  1  0  0  0  0
 25 24  1  0  0  0  0
 26 24  1  0  0  0  0
 26 27  2  0  0  0  0
 28 19  1  0  0  0  0
 31 22  1  0  0  0  0
 32 23  1  0  0  0  0
 35 25  1  0  0  0  0
 36 45  1  0  0  0  0
 36 37  1  0  0  0  0
 37 38  2  0  0  0  0
 39 37  1  0  0  0  0
 39 40  1  0  0  0  0
 40 41  1  0  0  0  0
 40 49  1  1  0  0  0
 41 26  1  0  0  0  0
 42 43  1  0  0  0  0
 42 40  1  0  0  0  0
 44 42  2  0  0  0  0
 46 36  1  0  0  0  0
 47 39  1  0  0  0  0
 48 39  1  0  0  0  0
 50 41  1  0  0  0  0
M  END
$$$$
