HQP.pdb
 OpenBabel07022418363D

 50 51  0  0  1  0  0  0  0  0999 V2000
    1.7930   -0.2280    5.2010 N   0  0  0  0  0  0  0  0  0  0  0  0
    2.1830   -0.5670    3.8110 C   0  0  1  0  0  0  0  0  0  0  0  0
    2.6750   -1.9810    3.8550 C   0  0  0  0  0  0  0  0  0  0  0  0
    3.1250   -2.5550    2.5960 C   0  0  0  0  0  0  0  0  0  0  0  0
    2.4080   -3.2750    1.6690 C   0  0  0  0  0  0  0  0  0  0  0  0
    3.2140   -3.6210    0.6760 N   0  0  0  0  0  0  0  0  0  0  0  0
    4.4460   -3.1350    0.9480 C   0  0  0  0  0  0  0  0  0  0  0  0
    4.3810   -2.4850    2.1230 N   0  0  0  0  0  0  0  0  0  0  0  0
    0.9770   -0.4150    2.9950 C   0  0  0  0  0  0  0  0  0  0  0  0
   -0.1650   -0.2590    3.5500 O   0  0  0  0  0  0  0  0  0  0  0  0
    2.6280   -0.0830    5.7880 H   0  0  0  0  0  0  0  0  0  0  0  0
    1.1920    0.6170    5.2050 H   0  0  0  0  0  0  0  0  0  0  0  0
    3.0140    0.1110    3.5240 H   0  0  0  0  0  0  0  0  0  0  0  0
    1.8190   -2.6040    4.2570 H   0  0  0  0  0  0  0  0  0  0  0  0
    3.4530   -2.0310    4.6540 H   0  0  0  0  0  0  0  0  0  0  0  0
    1.3510   -3.5460    1.6930 H   0  0  0  0  0  0  0  0  0  0  0  0
    2.9310   -4.1830   -0.1790 H   0  0  0  0  0  0  0  0  0  0  0  0
    5.3090   -3.2770    0.2880 H   0  0  0  0  0  0  0  0  0  0  0  0
    0.3470    4.6870    1.1610 N   0  0  0  0  0  0  0  0  0  0  0  0
    0.1380    3.4920    0.4250 C   0  0  0  0  0  0  0  0  0  0  0  0
    0.0630    3.5490   -0.8140 O   0  0  0  0  0  0  0  0  0  0  0  0
    0.0170    2.2150    1.1700 C   0  0  0  0  0  0  0  0  0  0  0  0
   -0.1960    1.1210    0.1780 C   0  0  0  0  0  0  0  0  0  0  0  0
   -0.3350   -0.2540    0.8630 C   0  0  2  0  0  0  0  0  0  0  0  0
    0.9330   -0.4200    1.5690 N   0  0  0  0  0  0  0  0  0  0  0  0
   -0.5370   -1.2570   -0.2000 C   0  0  0  0  0  0  0  0  0  0  0  0
    0.3220   -2.1270   -0.4960 O   0  0  0  0  0  0  0  0  0  0  0  0
    0.6410    4.6610    2.1600 H   0  0  0  0  0  0  0  0  0  0  0  0
    0.2110    5.6320    0.7220 H   0  0  0  0  0  0  0  0  0  0  0  0
   -0.7930    2.2770    1.9300 H   0  0  0  0  0  0  0  0  0  0  0  0
    0.9590    2.1000    1.7440 H   0  0  0  0  0  0  0  0  0  0  0  0
    0.7540    1.0310   -0.4190 H   0  0  0  0  0  0  0  0  0  0  0  0
   -0.9910    1.3190   -0.5410 H   0  0  0  0  0  0  0  0  0  0  0  0
   -1.1600   -0.1980    1.5910 H   0  0  0  0  0  0  0  0  0  0  0  0
    1.8260   -0.5380    1.0490 H   0  0  0  0  0  0  0  0  0  0  0  0
   -1.7550   -1.2940   -0.9730 N   0  0  0  0  0  0  0  0  0  0  0  0
   -2.8750   -0.3930   -0.7900 C   0  0  0  0  0  0  0  0  0  0  0  0
   -4.0690   -1.3160   -0.9450 C   0  0  0  0  0  0  0  0  0  0  0  0
   -3.5670   -2.4410   -1.7910 C   0  0  0  0  0  0  0  0  0  0  0  0
   -2.1050   -2.1840   -2.0410 C   0  0  1  0  0  0  0  0  0  0  0  0
   -1.8640   -1.5840   -3.3810 C   0  0  0  0  0  0  0  0  0  0  0  0
   -1.4050   -0.4240   -3.5470 O   0  0  0  0  0  0  0  0  0  0  0  0
   -2.1500   -2.3120   -4.5280 O   0  0  0  0  0  0  0  0  0  0  0  0
   -2.8860    0.0850    0.2130 H   0  0  0  0  0  0  0  0  0  0  0  0
   -2.9580    0.3880   -1.5430 H   0  0  0  0  0  0  0  0  0  0  0  0
   -4.9130   -0.8410   -1.4690 H   0  0  0  0  0  0  0  0  0  0  0  0
   -4.3450   -1.6360    0.0940 H   0  0  0  0  0  0  0  0  0  0  0  0
   -4.1400   -2.5880   -2.7230 H   0  0  0  0  0  0  0  0  0  0  0  0
   -3.6670   -3.3810   -1.1750 H   0  0  0  0  0  0  0  0  0  0  0  0
   -1.5810   -3.1420   -2.0160 H   0  0  0  0  0  0  0  0  0  0  0  0
  1 12  1  0  0  0  0
  1 11  1  0  0  0  0
  2 13  1  6  0  0  0
  2  3  1  0  0  0  0
  2  1  1  0  0  0  0
  3 14  1  0  0  0  0
  3 15  1  0  0  0  0
  4  3  1  0  0  0  0
  5 16  1  0  0  0  0
  5  4  2  0  0  0  0
  6  7  1  0  0  0  0
  6  5  1  0  0  0  0
  7  8  2  0  0  0  0
  8  4  1  0  0  0  0
  9 10  2  0  0  0  0
  9  2  1  0  0  0  0
 17  6  1  0  0  0  0
 18  7  1  0  0  0  0
 19 28  1  0  0  0  0
 20 19  1  0  0  0  0
 20 22  1  0  0  0  0
 21 20  2  0  0  0  0
 22 31  1  0  0  0  0
 22 30  1  0  0  0  0
 23 24  1  0  0  0  0
 23 22  1  0  0  0  0
 24 25  1  0  0  0  0
 24 34  1  1  0  0  0
 25  9  1  0  0  0  0
 26 24  1  0  0  0  0
 27 26  2  0  0  0  0
 29 19  1  0  0  0  0
 32 23  1  0  0  0  0
 33 23  1  0  0  0  0
 35 25  1  0  0  0  0
 36 37  1  0  0  0  0
 36 26  1  0  0  0  0
 37 44  1  0  0  0  0
 38 37  1  0  0  0  0
 38 47  1  0  0  0  0
 39 49  1  0  0  0  0
 39 38  1  0  0  0  0
 40 50  1  1  0  0  0
 40 39  1  0  0  0  0
 40 36  1  0  0  0  0
 41 40  1  0  0  0  0
 42 41  1  0  0  0  0
 43 41  2  0  0  0  0
 45 37  1  0  0  0  0
 46 38  1  0  0  0  0
 48 39  1  0  0  0  0
M  END
$$$$
