HQT.pdb
 OpenBabel07022418363D

 50 50  0  0  1  0  0  0  0  0999 V2000
    0.1220   -3.4480    2.3600 N   0  0  0  0  0  0  0  0  0  0  0  0
    0.5290   -2.2870    3.1480 C   0  0  1  0  0  0  0  0  0  0  0  0
    1.8420   -2.6320    3.7760 C   0  0  0  0  0  0  0  0  0  0  0  0
    2.4240   -1.5800    4.6190 C   0  0  0  0  0  0  0  0  0  0  0  0
    3.2780   -0.5800    4.2270 C   0  0  0  0  0  0  0  0  0  0  0  0
    3.5690    0.1610    5.3010 N   0  0  0  0  0  0  0  0  0  0  0  0
    2.9240   -0.3400    6.3670 C   0  0  0  0  0  0  0  0  0  0  0  0
    2.2270   -1.4060    5.9380 N   0  0  0  0  0  0  0  0  0  0  0  0
    0.6180   -1.0740    2.2960 C   0  0  0  0  0  0  0  0  0  0  0  0
    0.9500   -0.0040    2.8660 O   0  0  0  0  0  0  0  0  0  0  0  0
    0.2550   -4.2760    2.9950 H   0  0  0  0  0  0  0  0  0  0  0  0
   -0.8810   -3.4140    2.1240 H   0  0  0  0  0  0  0  0  0  0  0  0
   -0.2690   -2.1110    3.9170 H   0  0  0  0  0  0  0  0  0  0  0  0
    2.5480   -2.8880    2.9580 H   0  0  0  0  0  0  0  0  0  0  0  0
    1.6830   -3.5570    4.3840 H   0  0  0  0  0  0  0  0  0  0  0  0
    3.6680   -0.3990    3.2130 H   0  0  0  0  0  0  0  0  0  0  0  0
    4.2030    1.0150    5.3490 H   0  0  0  0  0  0  0  0  0  0  0  0
    2.9650    0.0540    7.3930 H   0  0  0  0  0  0  0  0  0  0  0  0
    3.1120    1.9110   -3.8220 N   0  0  0  0  0  0  0  0  0  0  0  0
    2.7560    0.9340   -2.8680 C   0  0  0  0  0  0  0  0  0  0  0  0
    3.3490   -0.1690   -2.8510 O   0  0  0  0  0  0  0  0  0  0  0  0
    1.6860    1.1520   -1.8580 C   0  0  0  0  0  0  0  0  0  0  0  0
    1.4940   -0.0210   -0.9660 C   0  0  0  0  0  0  0  0  0  0  0  0
    0.4430    0.1230    0.0880 C   0  0  2  0  0  0  0  0  0  0  0  0
    0.3470   -1.0910    0.9040 N   0  0  0  0  0  0  0  0  0  0  0  0
   -0.9010    0.4720   -0.4560 C   0  0  0  0  0  0  0  0  0  0  0  0
   -1.1410    1.4750   -1.1680 O   0  0  0  0  0  0  0  0  0  0  0  0
    3.0610    2.9490   -3.6360 H   0  0  0  0  0  0  0  0  0  0  0  0
    3.4550    1.6710   -4.7940 H   0  0  0  0  0  0  0  0  0  0  0  0
    0.7550    1.3670   -2.4490 H   0  0  0  0  0  0  0  0  0  0  0  0
    1.9590    2.0840   -1.3060 H   0  0  0  0  0  0  0  0  0  0  0  0
    2.4590   -0.1920   -0.4270 H   0  0  0  0  0  0  0  0  0  0  0  0
    1.2170   -0.8940   -1.5920 H   0  0  0  0  0  0  0  0  0  0  0  0
    0.7500    0.9610    0.7590 H   0  0  0  0  0  0  0  0  0  0  0  0
    0.0720   -1.9860    0.4430 H   0  0  0  0  0  0  0  0  0  0  0  0
   -2.9070   -1.2610   -2.7970 C   0  0  0  0  0  0  0  0  0  0  0  0
   -3.8250   -1.2280   -1.5960 C   0  0  1  0  0  0  0  0  0  0  0  0
   -3.8180   -2.4470   -0.9410 O   0  0  0  0  0  0  0  0  0  0  0  0
   -3.3640   -0.1150   -0.6510 C   0  0  2  0  0  0  0  0  0  0  0  0
   -2.0390   -0.3620   -0.1790 N   0  0  0  0  0  0  0  0  0  0  0  0
   -4.3440    0.0840    0.4370 C   0  0  0  0  0  0  0  0  0  0  0  0
   -5.5450    0.3100    0.1840 O   0  0  0  0  0  0  0  0  0  0  0  0
   -3.8920    0.0130    1.7500 O   0  0  0  0  0  0  0  0  0  0  0  0
   -3.4300   -1.6070   -3.7130 H   0  0  0  0  0  0  0  0  0  0  0  0
   -2.4640   -0.2800   -3.0190 H   0  0  0  0  0  0  0  0  0  0  0  0
   -2.0370   -1.9470   -2.5930 H   0  0  0  0  0  0  0  0  0  0  0  0
   -4.8450   -0.9850   -1.9570 H   0  0  0  0  0  0  0  0  0  0  0  0
   -2.9580   -2.9320   -1.0810 H   0  0  0  0  0  0  0  0  0  0  0  0
   -3.3810    0.8230   -1.2680 H   0  0  0  0  0  0  0  0  0  0  0  0
   -1.8610   -1.2000    0.4110 H   0  0  0  0  0  0  0  0  0  0  0  0
  1 11  1  0  0  0  0
  1  2  1  0  0  0  0
  2  3  1  0  0  0  0
  2 13  1  1  0  0  0
  3 15  1  0  0  0  0
  3  4  1  0  0  0  0
  4  8  1  0  0  0  0
  5  4  2  0  0  0  0
  5  6  1  0  0  0  0
  6 17  1  0  0  0  0
  6  7  1  0  0  0  0
  7 18  1  0  0  0  0
  8  7  2  0  0  0  0
  9 10  2  0  0  0  0
  9  2  1  0  0  0  0
 12  1  1  0  0  0  0
 14  3  1  0  0  0  0
 16  5  1  0  0  0  0
 19 28  1  0  0  0  0
 19 20  1  0  0  0  0
 20 21  2  0  0  0  0
 20 22  1  0  0  0  0
 22 31  1  0  0  0  0
 22 23  1  0  0  0  0
 23 32  1  0  0  0  0
 23 24  1  0  0  0  0
 24 34  1  1  0  0  0
 24 25  1  0  0  0  0
 25  9  1  0  0  0  0
 26 40  1  0  0  0  0
 26 24  1  0  0  0  0
 27 26  2  0  0  0  0
 29 19  1  0  0  0  0
 30 22  1  0  0  0  0
 33 23  1  0  0  0  0
 35 25  1  0  0  0  0
 36 46  1  0  0  0  0
 36 37  1  0  0  0  0
 37 47  1  6  0  0  0
 37 38  1  0  0  0  0
 37 39  1  0  0  0  0
 39 49  1  6  0  0  0
 39 40  1  0  0  0  0
 39 41  1  0  0  0  0
 40 50  1  0  0  0  0
 41 43  1  0  0  0  0
 42 41  2  0  0  0  0
 44 36  1  0  0  0  0
 45 36  1  0  0  0  0
 48 38  1  0  0  0  0
M  END
$$$$
