HQV.pdb
 OpenBabel07022418363D

 52 52  0  0  1  0  0  0  0  0999 V2000
    2.0500   -0.6840    4.9860 N   0  0  0  0  0  0  0  0  0  0  0  0
    1.0830    0.0040    4.1710 C   0  0  1  0  0  0  0  0  0  0  0  0
    1.3250    1.4710    4.0670 C   0  0  0  0  0  0  0  0  0  0  0  0
    2.6670    1.6960    3.4790 C   0  0  0  0  0  0  0  0  0  0  0  0
    3.2540    2.9230    3.2170 C   0  0  0  0  0  0  0  0  0  0  0  0
    4.4690    2.7320    2.6870 N   0  0  0  0  0  0  0  0  0  0  0  0
    4.6350    1.3950    2.6190 C   0  0  0  0  0  0  0  0  0  0  0  0
    3.5450    0.7810    3.0980 N   0  0  0  0  0  0  0  0  0  0  0  0
    0.9500   -0.6740    2.8300 C   0  0  0  0  0  0  0  0  0  0  0  0
    1.6660   -1.6620    2.6080 O   0  0  0  0  0  0  0  0  0  0  0  0
    2.1710   -1.6870    4.7140 H   0  0  0  0  0  0  0  0  0  0  0  0
    1.8050   -0.5770    5.9950 H   0  0  0  0  0  0  0  0  0  0  0  0
    0.0990   -0.1160    4.7200 H   0  0  0  0  0  0  0  0  0  0  0  0
    1.2340    1.9050    5.0770 H   0  0  0  0  0  0  0  0  0  0  0  0
    0.5880    1.9410    3.3710 H   0  0  0  0  0  0  0  0  0  0  0  0
    2.7880    3.8690    3.4180 H   0  0  0  0  0  0  0  0  0  0  0  0
    5.1480    3.4730    2.3870 H   0  0  0  0  0  0  0  0  0  0  0  0
    5.5340    0.9170    2.2270 H   0  0  0  0  0  0  0  0  0  0  0  0
    2.7410    1.4290   -1.4150 N   0  0  0  0  0  0  0  0  0  0  0  0
    1.9300    0.2820   -1.2670 C   0  0  0  0  0  0  0  0  0  0  0  0
    0.9730    0.1200   -2.0550 O   0  0  0  0  0  0  0  0  0  0  0  0
    2.1880   -0.7500   -0.1910 C   0  0  0  0  0  0  0  0  0  0  0  0
    0.9710   -1.5590    0.0000 C   0  0  0  0  0  0  0  0  0  0  0  0
   -0.1830   -0.7360    0.5430 C   0  0  2  0  0  0  0  0  0  0  0  0
    0.0380   -0.1980    1.8620 N   0  0  0  0  0  0  0  0  0  0  0  0
   -1.4880   -1.3710    0.4420 C   0  0  0  0  0  0  0  0  0  0  0  0
   -2.2550   -1.3860    1.4650 O   0  0  0  0  0  0  0  0  0  0  0  0
    3.1290    1.9190   -0.5920 H   0  0  0  0  0  0  0  0  0  0  0  0
    2.9500    1.7820   -2.3620 H   0  0  0  0  0  0  0  0  0  0  0  0
    2.5560   -0.2130    0.7020 H   0  0  0  0  0  0  0  0  0  0  0  0
    3.0250   -1.3800   -0.6270 H   0  0  0  0  0  0  0  0  0  0  0  0
    1.1120   -2.5180    0.5240 H   0  0  0  0  0  0  0  0  0  0  0  0
    0.6150   -1.8660   -1.0310 H   0  0  0  0  0  0  0  0  0  0  0  0
   -0.0880    0.2100   -0.1270 H   0  0  0  0  0  0  0  0  0  0  0  0
   -0.5290    0.6490    2.1720 H   0  0  0  0  0  0  0  0  0  0  0  0
   -5.5440   -2.3300   -1.8940 C   0  0  0  0  0  0  0  0  0  0  0  0
   -4.1490   -1.7860   -1.7480 C   0  0  0  0  0  0  0  0  0  0  0  0
   -3.4830   -1.8250   -3.0980 C   0  0  0  0  0  0  0  0  0  0  0  0
   -3.3150   -2.6150   -0.7700 C   0  0  2  0  0  0  0  0  0  0  0  0
   -2.0050   -1.9940   -0.7180 N   0  0  0  0  0  0  0  0  0  0  0  0
   -3.2550   -4.0070   -1.2310 C   0  0  0  0  0  0  0  0  0  0  0  0
   -4.3100   -4.6820   -1.3300 O   0  0  0  0  0  0  0  0  0  0  0  0
   -2.0590   -4.6180   -1.5690 O   0  0  0  0  0  0  0  0  0  0  0  0
   -5.8560   -2.9560   -1.0230 H   0  0  0  0  0  0  0  0  0  0  0  0
   -5.6850   -2.8750   -2.8430 H   0  0  0  0  0  0  0  0  0  0  0  0
   -6.2340   -1.4490   -1.9380 H   0  0  0  0  0  0  0  0  0  0  0  0
   -4.1730   -0.7340   -1.3530 H   0  0  0  0  0  0  0  0  0  0  0  0
   -2.7920   -2.6970   -3.2050 H   0  0  0  0  0  0  0  0  0  0  0  0
   -4.2160   -1.9280   -3.9330 H   0  0  0  0  0  0  0  0  0  0  0  0
   -2.8740   -0.9070   -3.2860 H   0  0  0  0  0  0  0  0  0  0  0  0
   -3.7720   -2.4930    0.2320 H   0  0  0  0  0  0  0  0  0  0  0  0
   -1.3660   -1.9800   -1.5680 H   0  0  0  0  0  0  0  0  0  0  0  0
  1 12  1  0  0  0  0
  2 13  1  1  0  0  0
  2  1  1  0  0  0  0
  3  2  1  0  0  0  0
  3 14  1  0  0  0  0
  4  3  1  0  0  0  0
  5 16  1  0  0  0  0
  5  4  2  0  0  0  0
  6  5  1  0  0  0  0
  7  6  1  0  0  0  0
  7  8  2  0  0  0  0
  8  4  1  0  0  0  0
  9  2  1  0  0  0  0
 10  9  2  0  0  0  0
 11  1  1  0  0  0  0
 15  3  1  0  0  0  0
 17  6  1  0  0  0  0
 18  7  1  0  0  0  0
 19 20  1  0  0  0  0
 19 28  1  0  0  0  0
 20 22  1  0  0  0  0
 21 20  2  0  0  0  0
 22 23  1  0  0  0  0
 22 30  1  0  0  0  0
 23 32  1  0  0  0  0
 23 24  1  0  0  0  0
 24 34  1  6  0  0  0
 24 25  1  0  0  0  0
 25 35  1  0  0  0  0
 25  9  1  0  0  0  0
 26 24  1  0  0  0  0
 26 27  2  0  0  0  0
 29 19  1  0  0  0  0
 31 22  1  0  0  0  0
 33 23  1  0  0  0  0
 36 37  1  0  0  0  0
 36 44  1  0  0  0  0
 37 47  1  0  0  0  0
 37 39  1  0  0  0  0
 38 37  1  0  0  0  0
 39 40  1  0  0  0  0
 39 51  1  1  0  0  0
 40 26  1  0  0  0  0
 41 39  1  0  0  0  0
 42 41  1  0  0  0  0
 43 41  2  0  0  0  0
 45 36  1  0  0  0  0
 46 36  1  0  0  0  0
 48 38  1  0  0  0  0
 49 38  1  0  0  0  0
 50 38  1  0  0  0  0
 52 40  1  0  0  0  0
M  END
$$$$
