HQW.pdb
 OpenBabel07022418363D

 60 62  0  0  1  0  0  0  0  0999 V2000
    4.9960    0.3370    3.0600 N   0  0  0  0  0  0  0  0  0  0  0  0
    3.8500    1.1850    2.7600 C   0  0  1  0  0  0  0  0  0  0  0  0
    4.2550    2.0900    1.6230 C   0  0  0  0  0  0  0  0  0  0  0  0
    4.6290    1.2680    0.4190 C   0  0  0  0  0  0  0  0  0  0  0  0
    5.8800    0.7730    0.0890 C   0  0  0  0  0  0  0  0  0  0  0  0
    5.8150    0.0850   -1.0630 N   0  0  0  0  0  0  0  0  0  0  0  0
    4.5270    0.1420   -1.4650 C   0  0  0  0  0  0  0  0  0  0  0  0
    3.8080    0.8630   -0.5610 N   0  0  0  0  0  0  0  0  0  0  0  0
    2.6960    0.3460    2.4580 C   0  0  0  0  0  0  0  0  0  0  0  0
    2.8280   -0.9020    2.4510 O   0  0  0  0  0  0  0  0  0  0  0  0
    5.0820   -0.3480    2.2790 H   0  0  0  0  0  0  0  0  0  0  0  0
    4.8080   -0.1420    3.9820 H   0  0  0  0  0  0  0  0  0  0  0  0
    3.6710    1.8060    3.6610 H   0  0  0  0  0  0  0  0  0  0  0  0
    3.5180    2.8600    1.3820 H   0  0  0  0  0  0  0  0  0  0  0  0
    5.1830    2.6110    1.9410 H   0  0  0  0  0  0  0  0  0  0  0  0
    6.7790    0.9340    0.6990 H   0  0  0  0  0  0  0  0  0  0  0  0
    6.6170   -0.3860   -1.5260 H   0  0  0  0  0  0  0  0  0  0  0  0
    4.1960   -0.3360   -2.3750 H   0  0  0  0  0  0  0  0  0  0  0  0
   -2.7180    3.2710    2.8980 N   0  0  0  0  0  0  0  0  0  0  0  0
   -2.1330    2.0220    2.4230 C   0  0  0  0  0  0  0  0  0  0  0  0
   -2.3730    1.7920    1.2230 O   0  0  0  0  0  0  0  0  0  0  0  0
   -1.3740    1.2310    3.3660 C   0  0  0  0  0  0  0  0  0  0  0  0
   -0.7520   -0.0340    2.9390 C   0  0  0  0  0  0  0  0  0  0  0  0
    0.2630   -0.0040    1.8590 C   0  0  2  0  0  0  0  0  0  0  0  0
    1.3920    0.8500    2.1610 N   0  0  0  0  0  0  0  0  0  0  0  0
   -0.2600    0.1170    0.4930 C   0  0  0  0  0  0  0  0  0  0  0  0
    0.1590    1.0050   -0.3170 O   0  0  0  0  0  0  0  0  0  0  0  0
   -2.1370    3.8310    3.5390 H   0  0  0  0  0  0  0  0  0  0  0  0
   -3.6690    3.5530    2.5880 H   0  0  0  0  0  0  0  0  0  0  0  0
   -2.0420    0.9610    4.2550 H   0  0  0  0  0  0  0  0  0  0  0  0
   -0.6250    1.9250    3.8580 H   0  0  0  0  0  0  0  0  0  0  0  0
   -0.3130   -0.5370    3.8420 H   0  0  0  0  0  0  0  0  0  0  0  0
   -1.5930   -0.6980    2.5580 H   0  0  0  0  0  0  0  0  0  0  0  0
    0.7080   -1.0720    1.8740 H   0  0  0  0  0  0  0  0  0  0  0  0
    1.3010    1.8900    2.1740 H   0  0  0  0  0  0  0  0  0  0  0  0
   -1.2610   -0.7610    0.0070 N   0  0  0  0  0  0  0  0  0  0  0  0
   -1.8080   -0.6870   -1.3220 C   0  0  1  0  0  0  0  0  0  0  0  0
   -1.3790   -1.8430   -2.1740 C   0  0  0  0  0  0  0  0  0  0  0  0
   -1.7000   -3.1730   -1.7160 C   0  0  0  0  0  0  0  0  0  0  0  0
   -0.7710   -3.9350   -0.9870 C   0  0  0  0  0  0  0  0  0  0  0  0
   -1.3170   -5.0870   -0.6560 N   0  0  0  0  0  0  0  0  0  0  0  0
   -2.5820   -5.1070   -1.1480 C   0  0  0  0  0  0  0  0  0  0  0  0
   -3.5830   -6.0600   -1.1020 C   0  0  0  0  0  0  0  0  0  0  0  0
   -4.8130   -5.8670   -1.6910 C   0  0  0  0  0  0  0  0  0  0  0  0
   -5.0330   -4.6740   -2.3470 C   0  0  0  0  0  0  0  0  0  0  0  0
   -4.0820   -3.7060   -2.4200 C   0  0  0  0  0  0  0  0  0  0  0  0
   -2.8360   -3.9210   -1.8110 C   0  0  0  0  0  0  0  0  0  0  0  0
   -3.2500   -0.4670   -1.3970 C   0  0  0  0  0  0  0  0  0  0  0  0
   -3.8750   -0.2340   -2.4640 O   0  0  0  0  0  0  0  0  0  0  0  0
   -4.0760   -0.4980   -0.2530 O   0  0  0  0  0  0  0  0  0  0  0  0
   -1.6210   -1.4980    0.6450 H   0  0  0  0  0  0  0  0  0  0  0  0
   -1.3400    0.2590   -1.7660 H   0  0  0  0  0  0  0  0  0  0  0  0
   -0.2690   -1.7180   -2.3530 H   0  0  0  0  0  0  0  0  0  0  0  0
   -1.8000   -1.7420   -3.2220 H   0  0  0  0  0  0  0  0  0  0  0  0
    0.2490   -3.6550   -0.7150 H   0  0  0  0  0  0  0  0  0  0  0  0
   -0.8950   -5.8770   -0.1150 H   0  0  0  0  0  0  0  0  0  0  0  0
   -3.3570   -6.9840   -0.5710 H   0  0  0  0  0  0  0  0  0  0  0  0
   -5.5720   -6.6330   -1.6360 H   0  0  0  0  0  0  0  0  0  0  0  0
   -5.9950   -4.4810   -2.8290 H   0  0  0  0  0  0  0  0  0  0  0  0
   -4.2060   -2.7700   -2.9310 H   0  0  0  0  0  0  0  0  0  0  0  0
  1 12  1  0  0  0  0
  2  1  1  0  0  0  0
  2 13  1  1  0  0  0
  3 15  1  0  0  0  0
  3  2  1  0  0  0  0
  4  3  1  0  0  0  0
  5  4  2  0  0  0  0
  5 16  1  0  0  0  0
  6  5  1  0  0  0  0
  7  6  1  0  0  0  0
  7  8  2  0  0  0  0
  8  4  1  0  0  0  0
  9  2  1  0  0  0  0
 10  9  2  0  0  0  0
 11  1  1  0  0  0  0
 14  3  1  0  0  0  0
 17  6  1  0  0  0  0
 18  7  1  0  0  0  0
 19 28  1  0  0  0  0
 20 19  1  0  0  0  0
 20 22  1  0  0  0  0
 21 20  2  0  0  0  0
 22 31  1  0  0  0  0
 22 30  1  0  0  0  0
 23 22  1  0  0  0  0
 23 32  1  0  0  0  0
 24 34  1  1  0  0  0
 24 25  1  0  0  0  0
 24 23  1  0  0  0  0
 25 35  1  0  0  0  0
 25  9  1  0  0  0  0
 26 24  1  0  0  0  0
 27 26  2  0  0  0  0
 29 19  1  0  0  0  0
 33 23  1  0  0  0  0
 36 26  1  0  0  0  0
 36 51  1  0  0  0  0
 37 52  1  6  0  0  0
 37 36  1  0  0  0  0
 38 39  1  0  0  0  0
 38 37  1  0  0  0  0
 39 40  2  0  0  0  0
 40 55  1  0  0  0  0
 40 41  1  0  0  0  0
 41 56  1  0  0  0  0
 42 43  1  0  0  0  0
 42 41  1  0  0  0  0
 43 57  1  0  0  0  0
 44 58  1  0  0  0  0
 44 43  2  0  0  0  0
 45 44  1  0  0  0  0
 46 45  2  0  0  0  0
 46 47  1  0  0  0  0
 47 39  1  0  0  0  0
 47 42  2  0  0  0  0
 48 37  1  0  0  0  0
 48 50  1  0  0  0  0
 49 48  2  0  0  0  0
 53 38  1  0  0  0  0
 54 38  1  0  0  0  0
 59 45  1  0  0  0  0
 60 46  1  0  0  0  0
M  END
$$$$
