HQY.pdb
 OpenBabel07022418363D

 57 58  0  0  1  0  0  0  0  0999 V2000
    2.9440    1.1520    3.3900 N   0  0  0  0  0  0  0  0  0  0  0  0
    2.3830    0.4540    2.2470 C   0  0  1  0  0  0  0  0  0  0  0  0
    2.5300   -1.0270    2.5260 C   0  0  0  0  0  0  0  0  0  0  0  0
    3.9860   -1.2940    2.6830 C   0  0  0  0  0  0  0  0  0  0  0  0
    4.7370   -1.2540    3.8420 C   0  0  0  0  0  0  0  0  0  0  0  0
    6.0160   -1.5550    3.5810 N   0  0  0  0  0  0  0  0  0  0  0  0
    6.1040   -1.7910    2.2610 C   0  0  0  0  0  0  0  0  0  0  0  0
    4.8770   -1.6340    1.7160 N   0  0  0  0  0  0  0  0  0  0  0  0
    0.9580    0.8630    2.1560 C   0  0  0  0  0  0  0  0  0  0  0  0
    0.4420    1.6680    2.9700 O   0  0  0  0  0  0  0  0  0  0  0  0
    2.7560    0.6690    4.2740 H   0  0  0  0  0  0  0  0  0  0  0  0
    2.7150    2.1630    3.3900 H   0  0  0  0  0  0  0  0  0  0  0  0
    2.8920    0.7150    1.3050 H   0  0  0  0  0  0  0  0  0  0  0  0
    2.1370   -1.6420    1.6740 H   0  0  0  0  0  0  0  0  0  0  0  0
    2.0060   -1.3390    3.4320 H   0  0  0  0  0  0  0  0  0  0  0  0
    4.3730   -1.0170    4.8270 H   0  0  0  0  0  0  0  0  0  0  0  0
    6.8120   -1.6030    4.2540 H   0  0  0  0  0  0  0  0  0  0  0  0
    6.9840   -2.0630    1.6940 H   0  0  0  0  0  0  0  0  0  0  0  0
   -0.0660    4.5070   -2.0260 N   0  0  0  0  0  0  0  0  0  0  0  0
   -0.7660    3.3200   -1.7140 C   0  0  0  0  0  0  0  0  0  0  0  0
   -1.5390    2.8280   -2.5560 O   0  0  0  0  0  0  0  0  0  0  0  0
   -0.5800    2.6720   -0.3990 C   0  0  0  0  0  0  0  0  0  0  0  0
   -1.4450    1.4270   -0.3350 C   0  0  0  0  0  0  0  0  0  0  0  0
   -1.2880    0.7230    1.0010 C   0  0  2  0  0  0  0  0  0  0  0  0
    0.0930    0.3610    1.1340 N   0  0  0  0  0  0  0  0  0  0  0  0
   -2.1750   -0.4860    0.9360 C   0  0  0  0  0  0  0  0  0  0  0  0
   -3.4210   -0.3680    0.8180 O   0  0  0  0  0  0  0  0  0  0  0  0
    0.5630    4.5270   -2.8670 H   0  0  0  0  0  0  0  0  0  0  0  0
   -0.1810    5.3490   -1.4190 H   0  0  0  0  0  0  0  0  0  0  0  0
    0.4660    2.4640   -0.1750 H   0  0  0  0  0  0  0  0  0  0  0  0
   -0.9380    3.3700    0.4090 H   0  0  0  0  0  0  0  0  0  0  0  0
   -1.1340    0.7500   -1.1630 H   0  0  0  0  0  0  0  0  0  0  0  0
   -2.5100    1.6870   -0.4430 H   0  0  0  0  0  0  0  0  0  0  0  0
   -1.6350    1.4360    1.7700 H   0  0  0  0  0  0  0  0  0  0  0  0
    0.5160   -0.3070    0.4560 H   0  0  0  0  0  0  0  0  0  0  0  0
   -2.6320   -1.2590   -5.1800 O   0  0  0  0  0  0  0  0  0  0  0  0
   -2.4990   -1.9070   -3.9600 C   0  0  0  0  0  0  0  0  0  0  0  0
   -3.5570   -2.6140   -3.4260 C   0  0  0  0  0  0  0  0  0  0  0  0
   -3.4050   -3.2510   -2.2120 C   0  0  0  0  0  0  0  0  0  0  0  0
   -2.2190   -3.2080   -1.5030 C   0  0  0  0  0  0  0  0  0  0  0  0
   -2.0910   -3.9060   -0.1990 C   0  0  0  0  0  0  0  0  0  0  0  0
   -2.4860   -2.9940    0.9410 C   0  0  2  0  0  0  0  0  0  0  0  0
   -1.6580   -1.8100    1.0020 N   0  0  0  0  0  0  0  0  0  0  0  0
   -2.3050   -3.7660    2.1970 C   0  0  0  0  0  0  0  0  0  0  0  0
   -2.9070   -4.8480    2.4170 O   0  0  0  0  0  0  0  0  0  0  0  0
   -1.1710   -2.5090   -2.0310 C   0  0  0  0  0  0  0  0  0  0  0  0
   -1.3090   -1.8720   -3.2340 C   0  0  0  0  0  0  0  0  0  0  0  0
   -1.4500   -3.3120    3.1850 O   0  0  0  0  0  0  0  0  0  0  0  0
   -3.4260   -0.6550   -5.3540 H   0  0  0  0  0  0  0  0  0  0  0  0
   -4.4850   -2.6390   -3.9950 H   0  0  0  0  0  0  0  0  0  0  0  0
   -4.2650   -3.7930   -1.8340 H   0  0  0  0  0  0  0  0  0  0  0  0
   -1.0850   -4.3230   -0.0830 H   0  0  0  0  0  0  0  0  0  0  0  0
   -2.8190   -4.7440   -0.2050 H   0  0  0  0  0  0  0  0  0  0  0  0
   -3.5490   -2.7800    0.8390 H   0  0  0  0  0  0  0  0  0  0  0  0
   -0.6240   -1.9100    1.0990 H   0  0  0  0  0  0  0  0  0  0  0  0
   -0.2470   -2.4670   -1.4930 H   0  0  0  0  0  0  0  0  0  0  0  0
   -0.5050   -1.2990   -3.7030 H   0  0  0  0  0  0  0  0  0  0  0  0
  1 11  1  0  0  0  0
  2 13  1  6  0  0  0
  2  3  1  0  0  0  0
  2  1  1  0  0  0  0
  3  4  1  0  0  0  0
  3 15  1  0  0  0  0
  4  5  2  0  0  0  0
  5 16  1  0  0  0  0
  6  5  1  0  0  0  0
  6 17  1  0  0  0  0
  7  6  1  0  0  0  0
  8  7  2  0  0  0  0
  8  4  1  0  0  0  0
  9  2  1  0  0  0  0
  9 10  2  0  0  0  0
 12  1  1  0  0  0  0
 14  3  1  0  0  0  0
 18  7  1  0  0  0  0
 19 20  1  0  0  0  0
 19 29  1  0  0  0  0
 20 22  1  0  0  0  0
 21 20  2  0  0  0  0
 22 23  1  0  0  0  0
 22 30  1  0  0  0  0
 22 31  1  0  0  0  0
 23 24  1  0  0  0  0
 24 25  1  0  0  0  0
 24 34  1  1  0  0  0
 25  9  1  0  0  0  0
 26 24  1  0  0  0  0
 26 43  1  0  0  0  0
 27 26  2  0  0  0  0
 28 19  1  0  0  0  0
 32 23  1  0  0  0  0
 33 23  1  0  0  0  0
 35 25  1  0  0  0  0
 36 37  1  0  0  0  0
 37 38  2  0  0  0  0
 37 47  1  0  0  0  0
 38 39  1  0  0  0  0
 39 51  1  0  0  0  0
 39 40  2  0  0  0  0
 40 41  1  0  0  0  0
 41 52  1  0  0  0  0
 41 42  1  0  0  0  0
 42 54  1  6  0  0  0
 42 43  1  0  0  0  0
 42 44  1  0  0  0  0
 43 55  1  0  0  0  0
 44 45  2  0  0  0  0
 44 48  1  0  0  0  0
 46 40  1  0  0  0  0
 46 56  1  0  0  0  0
 47 46  2  0  0  0  0
 49 36  1  0  0  0  0
 50 38  1  0  0  0  0
 53 41  1  0  0  0  0
 57 47  1  0  0  0  0
M  END
$$$$
