HRA.pdb
 OpenBabel07022418353D

 52 52  0  0  1  0  0  0  0  0999 V2000
    1.9420   -3.6790    1.1210 N   0  0  0  0  0  0  0  0  0  0  0  0
    0.9870   -2.9040    1.8490 C   0  0  1  0  0  0  0  0  0  0  0  0
    1.6750   -2.1960    3.0230 C   0  0  0  0  0  0  0  0  0  0  0  0
    2.7400   -1.3430    2.4870 C   0  0  0  0  0  0  0  0  0  0  0  0
    2.6410   -0.0400    2.1040 C   0  0  0  0  0  0  0  0  0  0  0  0
    3.8300    0.4160    1.6640 N   0  0  0  0  0  0  0  0  0  0  0  0
    4.6980   -0.6040    1.7670 C   0  0  0  0  0  0  0  0  0  0  0  0
    4.0490   -1.6700    2.2630 N   0  0  0  0  0  0  0  0  0  0  0  0
    0.1920   -1.9810    1.0130 C   0  0  0  0  0  0  0  0  0  0  0  0
    0.5180   -1.7580   -0.1990 O   0  0  0  0  0  0  0  0  0  0  0  0
    1.4960   -3.9810    0.2170 H   0  0  0  0  0  0  0  0  0  0  0  0
    2.7530   -3.0800    0.8490 H   0  0  0  0  0  0  0  0  0  0  0  0
    0.3060   -3.6500    2.3660 H   0  0  0  0  0  0  0  0  0  0  0  0
    0.9200   -1.5780    3.5740 H   0  0  0  0  0  0  0  0  0  0  0  0
    2.1190   -2.9640    3.6680 H   0  0  0  0  0  0  0  0  0  0  0  0
    1.7750    0.5720    2.1300 H   0  0  0  0  0  0  0  0  0  0  0  0
    4.0150    1.3880    1.3140 H   0  0  0  0  0  0  0  0  0  0  0  0
    5.7430   -0.5190    1.4790 H   0  0  0  0  0  0  0  0  0  0  0  0
    2.0790    2.4800   -0.3860 N   0  0  0  0  0  0  0  0  0  0  0  0
    0.9150    3.0780    0.1670 C   0  0  0  0  0  0  0  0  0  0  0  0
    0.0280    3.5800   -0.6340 N   0  0  0  0  0  0  0  0  0  0  0  0
    0.7510    3.1170    1.5810 N   0  0  0  0  0  0  0  0  0  0  0  0
   -0.5390    2.8810    2.1390 C   0  0  0  0  0  0  0  0  0  0  0  0
   -1.0740    1.5060    2.0350 C   0  0  0  0  0  0  0  0  0  0  0  0
   -1.2360    0.9490    0.6510 C   0  0  0  0  0  0  0  0  0  0  0  0
   -1.7920   -0.4470    0.8330 C   0  0  2  0  0  0  0  0  0  0  0  0
   -0.9620   -1.3340    1.5710 N   0  0  0  0  0  0  0  0  0  0  0  0
   -2.3920   -0.9980   -0.3990 C   0  0  0  0  0  0  0  0  0  0  0  0
   -3.0270   -0.1650   -1.1210 O   0  0  0  0  0  0  0  0  0  0  0  0
    3.0200    2.8990   -0.2940 H   0  0  0  0  0  0  0  0  0  0  0  0
    1.9500    1.5780   -0.9040 H   0  0  0  0  0  0  0  0  0  0  0  0
   -0.8440    4.0330   -0.3510 H   0  0  0  0  0  0  0  0  0  0  0  0
    1.6040    3.3220    2.1600 H   0  0  0  0  0  0  0  0  0  0  0  0
   -1.3020    3.5870    1.7120 H   0  0  0  0  0  0  0  0  0  0  0  0
   -0.5010    3.1510    3.2250 H   0  0  0  0  0  0  0  0  0  0  0  0
   -2.1230    1.5030    2.4770 H   0  0  0  0  0  0  0  0  0  0  0  0
   -0.5110    0.7830    2.6410 H   0  0  0  0  0  0  0  0  0  0  0  0
   -0.2820    0.9290    0.0810 H   0  0  0  0  0  0  0  0  0  0  0  0
   -1.9680    1.5280    0.0560 H   0  0  0  0  0  0  0  0  0  0  0  0
   -2.7220   -0.2640    1.4930 H   0  0  0  0  0  0  0  0  0  0  0  0
   -1.1630   -1.5530    2.5680 H   0  0  0  0  0  0  0  0  0  0  0  0
   -1.9120   -3.3050   -3.0490 C   0  0  0  0  0  0  0  0  0  0  0  0
   -2.9500   -2.7880   -2.0750 C   0  0  2  0  0  0  0  0  0  0  0  0
   -2.3300   -2.3180   -0.8340 N   0  0  0  0  0  0  0  0  0  0  0  0
   -3.9570   -3.8300   -1.7620 C   0  0  0  0  0  0  0  0  0  0  0  0
   -4.6080   -4.3680   -2.6920 O   0  0  0  0  0  0  0  0  0  0  0  0
   -4.2330   -4.2630   -0.4700 O   0  0  0  0  0  0  0  0  0  0  0  0
   -1.8830   -2.7200   -3.9920 H   0  0  0  0  0  0  0  0  0  0  0  0
   -2.2170   -4.3460   -3.3470 H   0  0  0  0  0  0  0  0  0  0  0  0
   -0.9120   -3.4090   -2.5940 H   0  0  0  0  0  0  0  0  0  0  0  0
   -3.4820   -1.9640   -2.5920 H   0  0  0  0  0  0  0  0  0  0  0  0
   -1.8300   -3.0210   -0.2500 H   0  0  0  0  0  0  0  0  0  0  0  0
  1  2  1  0  0  0  0
  2 13  1  1  0  0  0
  2  3  1  0  0  0  0
  3 14  1  0  0  0  0
  3 15  1  0  0  0  0
  4  3  1  0  0  0  0
  5 16  1  0  0  0  0
  5  4  2  0  0  0  0
  6  7  1  0  0  0  0
  6  5  1  0  0  0  0
  7  8  2  0  0  0  0
  8  4  1  0  0  0  0
  9 27  1  0  0  0  0
  9  2  1  0  0  0  0
 10  9  2  0  0  0  0
 11  1  1  0  0  0  0
 12  1  1  0  0  0  0
 17  6  1  0  0  0  0
 18  7  1  0  0  0  0
 19 30  1  0  0  0  0
 19 20  1  0  0  0  0
 20 22  1  0  0  0  0
 21 32  1  0  0  0  0
 21 20  2  0  0  0  0
 22 23  1  0  0  0  0
 22 33  1  0  0  0  0
 23 35  1  0  0  0  0
 24 23  1  0  0  0  0
 24 36  1  0  0  0  0
 24 37  1  0  0  0  0
 25 26  1  0  0  0  0
 25 24  1  0  0  0  0
 26 40  1  1  0  0  0
 26 27  1  0  0  0  0
 27 41  1  0  0  0  0
 28 26  1  0  0  0  0
 29 28  2  0  0  0  0
 31 19  1  0  0  0  0
 34 23  1  0  0  0  0
 38 25  1  0  0  0  0
 39 25  1  0  0  0  0
 42 50  1  0  0  0  0
 42 43  1  0  0  0  0
 43 51  1  6  0  0  0
 43 45  1  0  0  0  0
 43 44  1  0  0  0  0
 44 28  1  0  0  0  0
 44 52  1  0  0  0  0
 45 47  1  0  0  0  0
 46 45  2  0  0  0  0
 48 42  1  0  0  0  0
 49 42  1  0  0  0  0
M  END
$$$$
