HRC.pdb
 OpenBabel07022418353D

 53 53  0  0  1  0  0  0  0  0999 V2000
    1.2010   -0.9150   -1.2120 N   0  0  0  0  0  0  0  0  0  0  0  0
    1.7280   -0.4920    0.0620 C   0  0  1  0  0  0  0  0  0  0  0  0
    2.2360    0.9310   -0.0590 C   0  0  0  0  0  0  0  0  0  0  0  0
    3.3030    0.9120   -1.0960 C   0  0  0  0  0  0  0  0  0  0  0  0
    4.6640    0.6960   -0.8750 C   0  0  0  0  0  0  0  0  0  0  0  0
    5.3260    0.7500   -2.0500 N   0  0  0  0  0  0  0  0  0  0  0  0
    4.3890    0.9970   -2.9820 C   0  0  0  0  0  0  0  0  0  0  0  0
    3.1680    1.0930   -2.4000 N   0  0  0  0  0  0  0  0  0  0  0  0
    0.7050   -0.6590    1.0960 C   0  0  0  0  0  0  0  0  0  0  0  0
    0.9280   -0.3740    2.3220 O   0  0  0  0  0  0  0  0  0  0  0  0
    1.8230   -1.6260   -1.6220 H   0  0  0  0  0  0  0  0  0  0  0  0
    1.1350   -0.1120   -1.8440 H   0  0  0  0  0  0  0  0  0  0  0  0
    2.6020   -1.1320    0.3180 H   0  0  0  0  0  0  0  0  0  0  0  0
    2.6560    1.3090    0.8900 H   0  0  0  0  0  0  0  0  0  0  0  0
    1.4190    1.5680   -0.4630 H   0  0  0  0  0  0  0  0  0  0  0  0
    5.1160    0.5120    0.0880 H   0  0  0  0  0  0  0  0  0  0  0  0
    6.3580    0.6260   -2.1980 H   0  0  0  0  0  0  0  0  0  0  0  0
    4.6210    1.0950   -4.0280 H   0  0  0  0  0  0  0  0  0  0  0  0
   -1.3880    4.8110    0.9510 N   0  0  0  0  0  0  0  0  0  0  0  0
   -1.1480    3.5920    1.6260 C   0  0  0  0  0  0  0  0  0  0  0  0
   -0.0310    3.0030    1.4930 N   0  0  0  0  0  0  0  0  0  0  0  0
   -2.1380    2.9850    2.4750 N   0  0  0  0  0  0  0  0  0  0  0  0
   -2.2330    1.5510    2.6330 C   0  0  0  0  0  0  0  0  0  0  0  0
   -2.6980    0.9260    1.3550 C   0  0  0  0  0  0  0  0  0  0  0  0
   -2.8530   -0.5460    1.3830 C   0  0  0  0  0  0  0  0  0  0  0  0
   -1.6300   -1.3450    1.6820 C   0  0  2  0  0  0  0  0  0  0  0  0
   -0.5760   -1.1490    0.7370 N   0  0  0  0  0  0  0  0  0  0  0  0
   -1.9400   -2.8090    1.7410 C   0  0  0  0  0  0  0  0  0  0  0  0
   -2.8350   -3.2680    2.5210 O   0  0  0  0  0  0  0  0  0  0  0  0
   -0.8280    5.6550    1.2410 H   0  0  0  0  0  0  0  0  0  0  0  0
   -2.1010    4.8330    0.1980 H   0  0  0  0  0  0  0  0  0  0  0  0
    0.7240    3.4140    0.8810 H   0  0  0  0  0  0  0  0  0  0  0  0
   -2.7910    3.6580    2.9770 H   0  0  0  0  0  0  0  0  0  0  0  0
   -1.2450    1.1700    2.9590 H   0  0  0  0  0  0  0  0  0  0  0  0
   -2.9640    1.3800    3.4740 H   0  0  0  0  0  0  0  0  0  0  0  0
   -3.7220    1.3580    1.1550 H   0  0  0  0  0  0  0  0  0  0  0  0
   -2.0550    1.2080    0.5210 H   0  0  0  0  0  0  0  0  0  0  0  0
   -3.2060   -0.8590    0.3620 H   0  0  0  0  0  0  0  0  0  0  0  0
   -3.6850   -0.8510    2.0780 H   0  0  0  0  0  0  0  0  0  0  0  0
   -1.2470   -1.0230    2.6970 H   0  0  0  0  0  0  0  0  0  0  0  0
   -0.7710   -1.3860   -0.2800 H   0  0  0  0  0  0  0  0  0  0  0  0
   -1.2280   -3.7140    0.9130 N   0  0  0  0  0  0  0  0  0  0  0  0
   -1.5200   -5.1330    0.9600 C   0  0  1  0  0  0  0  0  0  0  0  0
   -2.1410   -5.6130   -0.3370 C   0  0  0  0  0  0  0  0  0  0  0  0
   -1.0900   -5.3610   -1.7660 S   0  0  0  0  0  0  0  0  0  0  0  0
   -0.3590   -5.9490    1.3630 C   0  0  0  0  0  0  0  0  0  0  0  0
   -0.4820   -7.1870    1.4340 O   0  0  0  0  0  0  0  0  0  0  0  0
    0.8510   -5.3660    1.6610 O   0  0  0  0  0  0  0  0  0  0  0  0
   -0.4700   -3.3760    0.2460 H   0  0  0  0  0  0  0  0  0  0  0  0
   -2.3220   -5.3060    1.7360 H   0  0  0  0  0  0  0  0  0  0  0  0
   -3.1120   -5.0670   -0.4340 H   0  0  0  0  0  0  0  0  0  0  0  0
   -2.3370   -6.7090   -0.2080 H   0  0  0  0  0  0  0  0  0  0  0  0
   -1.6550   -4.3450   -2.5790 H   0  0  0  0  0  0  0  0  0  0  0  0
  1  2  1  0  0  0  0
  2 13  1  1  0  0  0
  2  9  1  0  0  0  0
  3  2  1  0  0  0  0
  3 14  1  0  0  0  0
  4  5  2  0  0  0  0
  4  3  1  0  0  0  0
  5 16  1  0  0  0  0
  6  5  1  0  0  0  0
  7  8  2  0  0  0  0
  7  6  1  0  0  0  0
  8  4  1  0  0  0  0
  9 10  2  0  0  0  0
 11  1  1  0  0  0  0
 12  1  1  0  0  0  0
 15  3  1  0  0  0  0
 17  6  1  0  0  0  0
 18  7  1  0  0  0  0
 19 30  1  0  0  0  0
 19 20  1  0  0  0  0
 20 22  1  0  0  0  0
 21 20  2  0  0  0  0
 22 23  1  0  0  0  0
 22 33  1  0  0  0  0
 23 34  1  0  0  0  0
 23 35  1  0  0  0  0
 24 25  1  0  0  0  0
 24 23  1  0  0  0  0
 25 26  1  0  0  0  0
 25 39  1  0  0  0  0
 26 28  1  0  0  0  0
 26 40  1  1  0  0  0
 27  9  1  0  0  0  0
 27 26  1  0  0  0  0
 28 29  2  0  0  0  0
 31 19  1  0  0  0  0
 32 21  1  0  0  0  0
 36 24  1  0  0  0  0
 37 24  1  0  0  0  0
 38 25  1  0  0  0  0
 41 27  1  0  0  0  0
 42 43  1  0  0  0  0
 42 28  1  0  0  0  0
 43 46  1  0  0  0  0
 43 50  1  1  0  0  0
 44 52  1  0  0  0  0
 44 43  1  0  0  0  0
 45 44  1  0  0  0  0
 46 47  2  0  0  0  0
 46 48  1  0  0  0  0
 49 42  1  0  0  0  0
 51 44  1  0  0  0  0
 53 45  1  0  0  0  0
M  END
$$$$
