HRE.pdb
 OpenBabel07022418353D

 58 58  0  0  1  0  0  0  0  0999 V2000
    3.6340   -0.3750    0.0280 N   0  0  0  0  0  0  0  0  0  0  0  0
    2.6090   -1.1110    0.7000 C   0  0  1  0  0  0  0  0  0  0  0  0
    2.8480   -1.2750    2.1670 C   0  0  0  0  0  0  0  0  0  0  0  0
    2.9490   -0.0380    2.9370 C   0  0  0  0  0  0  0  0  0  0  0  0
    1.9270    0.6390    3.5510 C   0  0  0  0  0  0  0  0  0  0  0  0
    2.4130    1.7340    4.1640 N   0  0  0  0  0  0  0  0  0  0  0  0
    3.7360    1.7450    3.9370 C   0  0  0  0  0  0  0  0  0  0  0  0
    4.0650    0.6570    3.1830 N   0  0  0  0  0  0  0  0  0  0  0  0
    1.2390   -0.6400    0.3540 C   0  0  0  0  0  0  0  0  0  0  0  0
    1.1820    0.3030   -0.4740 O   0  0  0  0  0  0  0  0  0  0  0  0
    3.7460   -0.6300   -0.9780 H   0  0  0  0  0  0  0  0  0  0  0  0
    3.3950    0.6560    0.0380 H   0  0  0  0  0  0  0  0  0  0  0  0
    2.6510   -2.1590    0.2660 H   0  0  0  0  0  0  0  0  0  0  0  0
    2.0480   -1.9650    2.5470 H   0  0  0  0  0  0  0  0  0  0  0  0
    3.7890   -1.8970    2.2570 H   0  0  0  0  0  0  0  0  0  0  0  0
    0.8620    0.3770    3.5720 H   0  0  0  0  0  0  0  0  0  0  0  0
    1.8260    2.4260    4.7110 H   0  0  0  0  0  0  0  0  0  0  0  0
    4.4300    2.4940    4.2930 H   0  0  0  0  0  0  0  0  0  0  0  0
    0.3550    6.1340    1.9120 N   0  0  0  0  0  0  0  0  0  0  0  0
   -0.5290    5.2720    1.2080 C   0  0  0  0  0  0  0  0  0  0  0  0
   -1.3250    5.7350    0.3180 N   0  0  0  0  0  0  0  0  0  0  0  0
   -0.5440    3.8850    1.4790 N   0  0  0  0  0  0  0  0  0  0  0  0
   -1.0420    2.9390    0.4990 C   0  0  0  0  0  0  0  0  0  0  0  0
   -0.9430    1.5320    1.0450 C   0  0  0  0  0  0  0  0  0  0  0  0
   -1.4420    0.4990    0.0820 C   0  0  0  0  0  0  0  0  0  0  0  0
   -1.2560   -0.8670    0.7030 C   0  0  2  0  0  0  0  0  0  0  0  0
    0.1090   -1.2450    0.9430 N   0  0  0  0  0  0  0  0  0  0  0  0
   -1.9760   -1.9620    0.0780 C   0  0  0  0  0  0  0  0  0  0  0  0
   -3.1940   -1.8120   -0.2080 O   0  0  0  0  0  0  0  0  0  0  0  0
    0.0100    7.0050    2.3710 H   0  0  0  0  0  0  0  0  0  0  0  0
    1.3800    5.9360    2.0020 H   0  0  0  0  0  0  0  0  0  0  0  0
   -1.3130    6.7570    0.1200 H   0  0  0  0  0  0  0  0  0  0  0  0
   -0.1830    3.5650    2.4100 H   0  0  0  0  0  0  0  0  0  0  0  0
   -0.5830    3.0540   -0.4820 H   0  0  0  0  0  0  0  0  0  0  0  0
   -2.1340    3.1870    0.3730 H   0  0  0  0  0  0  0  0  0  0  0  0
   -1.6440    1.5260    1.9680 H   0  0  0  0  0  0  0  0  0  0  0  0
    0.0310    1.3820    1.5030 H   0  0  0  0  0  0  0  0  0  0  0  0
   -2.5640    0.6260    0.0190 H   0  0  0  0  0  0  0  0  0  0  0  0
   -1.0800    0.6060   -0.9320 H   0  0  0  0  0  0  0  0  0  0  0  0
   -1.6370   -0.6340    1.7830 H   0  0  0  0  0  0  0  0  0  0  0  0
    0.2310   -2.0510    1.6260 H   0  0  0  0  0  0  0  0  0  0  0  0
   -1.3750   -3.1890   -0.2240 N   0  0  0  0  0  0  0  0  0  0  0  0
   -2.0580   -4.3180   -0.8510 C   0  0  1  0  0  0  0  0  0  0  0  0
   -1.3940   -4.7340   -2.1140 C   0  0  0  0  0  0  0  0  0  0  0  0
   -2.0400   -5.8720   -2.8120 C   0  0  0  0  0  0  0  0  0  0  0  0
   -1.3420   -6.2230   -4.0890 C   0  0  0  0  0  0  0  0  0  0  0  0
   -1.8120   -7.1720   -4.7520 O   0  0  0  0  0  0  0  0  0  0  0  0
   -2.0510   -5.4180    0.1180 C   0  0  0  0  0  0  0  0  0  0  0  0
   -2.6160   -6.5090   -0.0860 O   0  0  0  0  0  0  0  0  0  0  0  0
   -0.2380   -5.5640   -4.5480 O   0  0  0  0  0  0  0  0  0  0  0  0
   -1.3950   -5.2690    1.3250 O   0  0  0  0  0  0  0  0  0  0  0  0
   -0.3670   -3.3190    0.0110 H   0  0  0  0  0  0  0  0  0  0  0  0
   -3.1290   -4.0610   -1.0540 H   0  0  0  0  0  0  0  0  0  0  0  0
   -1.4130   -3.8570   -2.8120 H   0  0  0  0  0  0  0  0  0  0  0  0
   -0.3040   -4.9360   -1.9510 H   0  0  0  0  0  0  0  0  0  0  0  0
   -3.1010   -5.6880   -3.0630 H   0  0  0  0  0  0  0  0  0  0  0  0
   -1.9620   -6.8070   -2.2010 H   0  0  0  0  0  0  0  0  0  0  0  0
    0.5290   -6.0860   -4.9910 H   0  0  0  0  0  0  0  0  0  0  0  0
  1 12  1  0  0  0  0
  1  2  1  0  0  0  0
  2 13  1  6  0  0  0
  2  3  1  0  0  0  0
  3 15  1  0  0  0  0
  3 14  1  0  0  0  0
  3  4  1  0  0  0  0
  4  8  1  0  0  0  0
  4  5  2  0  0  0  0
  5 16  1  0  0  0  0
  5  6  1  0  0  0  0
  6 17  1  0  0  0  0
  7  6  1  0  0  0  0
  7 18  1  0  0  0  0
  8  7  2  0  0  0  0
  9  2  1  0  0  0  0
  9 27  1  0  0  0  0
 10  9  2  0  0  0  0
 11  1  1  0  0  0  0
 19 31  1  0  0  0  0
 19 30  1  0  0  0  0
 20 22  1  0  0  0  0
 20 19  1  0  0  0  0
 21 20  2  0  0  0  0
 22 33  1  0  0  0  0
 23 24  1  0  0  0  0
 23 22  1  0  0  0  0
 24 37  1  0  0  0  0
 24 36  1  0  0  0  0
 25 26  1  0  0  0  0
 25 24  1  0  0  0  0
 26 27  1  0  0  0  0
 26 40  1  1  0  0  0
 27 41  1  0  0  0  0
 28 26  1  0  0  0  0
 29 28  2  0  0  0  0
 32 21  1  0  0  0  0
 34 23  1  0  0  0  0
 35 23  1  0  0  0  0
 38 25  1  0  0  0  0
 39 25  1  0  0  0  0
 42 52  1  0  0  0  0
 42 28  1  0  0  0  0
 43 53  1  6  0  0  0
 43 42  1  0  0  0  0
 43 48  1  0  0  0  0
 44 55  1  0  0  0  0
 44 43  1  0  0  0  0
 45 57  1  0  0  0  0
 45 44  1  0  0  0  0
 46 45  1  0  0  0  0
 47 46  2  0  0  0  0
 48 51  1  0  0  0  0
 49 48  2  0  0  0  0
 50 46  1  0  0  0  0
 54 44  1  0  0  0  0
 56 45  1  0  0  0  0
 58 50  1  0  0  0  0
M  END
$$$$
