HRG.pdb
 OpenBabel07022418353D

 49 49  0  0  1  0  0  0  0  0999 V2000
    2.6890   -3.7920    2.2220 N   0  0  0  0  0  0  0  0  0  0  0  0
    2.3780   -2.4560    1.7750 C   0  0  1  0  0  0  0  0  0  0  0  0
    3.3070   -2.0660    0.6640 C   0  0  0  0  0  0  0  0  0  0  0  0
    3.2530   -2.9350   -0.5200 C   0  0  0  0  0  0  0  0  0  0  0  0
    2.4660   -2.8450   -1.6490 C   0  0  0  0  0  0  0  0  0  0  0  0
    2.7550   -3.8720   -2.4920 N   0  0  0  0  0  0  0  0  0  0  0  0
    3.7090   -4.5950   -1.9020 C   0  0  0  0  0  0  0  0  0  0  0  0
    4.0060   -4.0460   -0.7360 N   0  0  0  0  0  0  0  0  0  0  0  0
    0.9580   -2.2280    1.5210 C   0  0  0  0  0  0  0  0  0  0  0  0
    0.0470   -3.0900    1.6390 O   0  0  0  0  0  0  0  0  0  0  0  0
    3.6310   -4.1190    1.9820 H   0  0  0  0  0  0  0  0  0  0  0  0
    2.0080   -4.5050    1.8450 H   0  0  0  0  0  0  0  0  0  0  0  0
    2.6760   -1.7920    2.6460 H   0  0  0  0  0  0  0  0  0  0  0  0
    3.2270   -0.9750    0.4130 H   0  0  0  0  0  0  0  0  0  0  0  0
    4.3500   -2.1600    1.0900 H   0  0  0  0  0  0  0  0  0  0  0  0
    1.7340   -2.1050   -1.8670 H   0  0  0  0  0  0  0  0  0  0  0  0
    2.3070   -4.0520   -3.4250 H   0  0  0  0  0  0  0  0  0  0  0  0
    4.1460   -5.4990   -2.3550 H   0  0  0  0  0  0  0  0  0  0  0  0
   -0.1320    3.9640    2.5430 N   0  0  0  0  0  0  0  0  0  0  0  0
   -1.2250    3.2180    3.0420 C   0  0  0  0  0  0  0  0  0  0  0  0
   -2.3930    3.3520    2.4920 N   0  0  0  0  0  0  0  0  0  0  0  0
   -1.1040    2.3170    4.1330 N   0  0  0  0  0  0  0  0  0  0  0  0
   -1.7860    1.0490    4.1640 C   0  0  0  0  0  0  0  0  0  0  0  0
   -1.2750    0.0450    3.1930 C   0  0  0  0  0  0  0  0  0  0  0  0
   -1.3610    0.4720    1.7730 C   0  0  0  0  0  0  0  0  0  0  0  0
   -0.8350   -0.6050    0.8340 C   0  0  2  0  0  0  0  0  0  0  0  0
    0.5380   -0.9200    1.1020 N   0  0  0  0  0  0  0  0  0  0  0  0
   -1.0490   -0.1770   -0.5710 C   0  0  0  0  0  0  0  0  0  0  0  0
   -0.0710   -0.1120   -1.3540 O   0  0  0  0  0  0  0  0  0  0  0  0
    0.5450    4.4660    3.1580 H   0  0  0  0  0  0  0  0  0  0  0  0
    0.0450    4.0440    1.5160 H   0  0  0  0  0  0  0  0  0  0  0  0
   -2.5510    3.9890    1.6970 H   0  0  0  0  0  0  0  0  0  0  0  0
   -0.4840    2.6200    4.9280 H   0  0  0  0  0  0  0  0  0  0  0  0
   -1.6590    0.6330    5.2010 H   0  0  0  0  0  0  0  0  0  0  0  0
   -2.8870    1.2410    3.9750 H   0  0  0  0  0  0  0  0  0  0  0  0
   -0.2030   -0.1330    3.4250 H   0  0  0  0  0  0  0  0  0  0  0  0
   -1.7620   -0.9460    3.3570 H   0  0  0  0  0  0  0  0  0  0  0  0
   -2.3950    0.7350    1.5160 H   0  0  0  0  0  0  0  0  0  0  0  0
   -0.6880    1.3520    1.6010 H   0  0  0  0  0  0  0  0  0  0  0  0
   -1.4480   -1.5100    1.0060 H   0  0  0  0  0  0  0  0  0  0  0  0
    1.2600   -0.1660    0.9880 H   0  0  0  0  0  0  0  0  0  0  0  0
   -2.3320    0.1670   -1.0670 N   0  0  0  0  0  0  0  0  0  0  0  0
   -2.5320    0.5840   -2.4380 C   0  0  0  0  0  0  0  0  0  0  0  0
   -2.0980   -0.4990   -3.3340 C   0  0  0  0  0  0  0  0  0  0  0  0
   -1.6430   -1.5750   -2.8780 O   0  0  0  0  0  0  0  0  0  0  0  0
   -2.1740   -0.3770   -4.7240 O   0  0  0  0  0  0  0  0  0  0  0  0
   -3.1560    0.1120   -0.4050 H   0  0  0  0  0  0  0  0  0  0  0  0
   -3.5790    0.8420   -2.6060 H   0  0  0  0  0  0  0  0  0  0  0  0
   -1.8970    1.4760   -2.6370 H   0  0  0  0  0  0  0  0  0  0  0  0
  2  1  1  0  0  0  0
  2 13  1  1  0  0  0
  3 15  1  0  0  0  0
  3  2  1  0  0  0  0
  4  3  1  0  0  0  0
  5  4  2  0  0  0  0
  6  7  1  0  0  0  0
  6  5  1  0  0  0  0
  7  8  2  0  0  0  0
  8  4  1  0  0  0  0
  9 10  2  0  0  0  0
  9  2  1  0  0  0  0
 11  1  1  0  0  0  0
 12  1  1  0  0  0  0
 14  3  1  0  0  0  0
 16  5  1  0  0  0  0
 17  6  1  0  0  0  0
 18  7  1  0  0  0  0
 19 20  1  0  0  0  0
 19 30  1  0  0  0  0
 20 22  1  0  0  0  0
 21 20  2  0  0  0  0
 22 23  1  0  0  0  0
 22 33  1  0  0  0  0
 23 34  1  0  0  0  0
 24 37  1  0  0  0  0
 24 36  1  0  0  0  0
 24 23  1  0  0  0  0
 25 24  1  0  0  0  0
 26 40  1  1  0  0  0
 26 27  1  0  0  0  0
 26 25  1  0  0  0  0
 27  9  1  0  0  0  0
 28 26  1  0  0  0  0
 29 28  2  0  0  0  0
 31 19  1  0  0  0  0
 32 21  1  0  0  0  0
 35 23  1  0  0  0  0
 38 25  1  0  0  0  0
 39 25  1  0  0  0  0
 41 27  1  0  0  0  0
 42 28  1  0  0  0  0
 42 47  1  0  0  0  0
 43 42  1  0  0  0  0
 44 45  1  0  0  0  0
 44 43  1  0  0  0  0
 46 44  2  0  0  0  0
 48 43  1  0  0  0  0
 49 43  1  0  0  0  0
M  END
$$$$
