HRH.pdb
 OpenBabel07022418353D

 59 60  0  0  1  0  0  0  0  0999 V2000
    3.2910    1.2400    0.3800 N   0  0  0  0  0  0  0  0  0  0  0  0
    3.4180   -0.0350    1.0600 C   0  0  1  0  0  0  0  0  0  0  0  0
    3.9480    0.1350    2.4440 C   0  0  0  0  0  0  0  0  0  0  0  0
    5.3000    0.7820    2.3150 C   0  0  0  0  0  0  0  0  0  0  0  0
    5.5990    2.1290    2.2990 C   0  0  0  0  0  0  0  0  0  0  0  0
    6.9350    2.2960    2.1650 N   0  0  0  0  0  0  0  0  0  0  0  0
    7.4730    1.0720    2.0980 C   0  0  0  0  0  0  0  0  0  0  0  0
    6.5030    0.1530    2.1860 N   0  0  0  0  0  0  0  0  0  0  0  0
    2.1710   -0.8290    0.9720 C   0  0  0  0  0  0  0  0  0  0  0  0
    2.0830   -1.9710    1.5230 O   0  0  0  0  0  0  0  0  0  0  0  0
    2.6020    1.8670    0.8270 H   0  0  0  0  0  0  0  0  0  0  0  0
    4.2230    1.6910    0.2750 H   0  0  0  0  0  0  0  0  0  0  0  0
    4.1870   -0.6050    0.4810 H   0  0  0  0  0  0  0  0  0  0  0  0
    4.0750   -0.8480    2.9290 H   0  0  0  0  0  0  0  0  0  0  0  0
    3.3350    0.7770    3.0930 H   0  0  0  0  0  0  0  0  0  0  0  0
    4.8560    2.9160    2.3830 H   0  0  0  0  0  0  0  0  0  0  0  0
    7.4530    3.2150    2.1220 H   0  0  0  0  0  0  0  0  0  0  0  0
    8.5240    0.8690    1.9890 H   0  0  0  0  0  0  0  0  0  0  0  0
   -1.1960    2.6390    4.4260 N   0  0  0  0  0  0  0  0  0  0  0  0
   -1.4590    2.4530    3.0460 C   0  0  0  0  0  0  0  0  0  0  0  0
   -0.8000    3.1480    2.1860 N   0  0  0  0  0  0  0  0  0  0  0  0
   -2.4320    1.5180    2.5950 N   0  0  0  0  0  0  0  0  0  0  0  0
   -2.8320    1.3950    1.2050 C   0  0  0  0  0  0  0  0  0  0  0  0
   -1.6890    0.8420    0.3780 C   0  0  0  0  0  0  0  0  0  0  0  0
   -1.3420   -0.5050    0.9290 C   0  0  0  0  0  0  0  0  0  0  0  0
   -0.2120   -1.1920    0.2110 C   0  0  2  0  0  0  0  0  0  0  0  0
    1.0000   -0.3980    0.2850 N   0  0  0  0  0  0  0  0  0  0  0  0
   -0.5470   -1.6000   -1.1660 C   0  0  0  0  0  0  0  0  0  0  0  0
    0.1390   -1.2990   -2.1780 O   0  0  0  0  0  0  0  0  0  0  0  0
   -0.4270    2.0980    4.8710 H   0  0  0  0  0  0  0  0  0  0  0  0
   -1.7330    3.2940    5.0340 H   0  0  0  0  0  0  0  0  0  0  0  0
   -0.0790    3.8470    2.4460 H   0  0  0  0  0  0  0  0  0  0  0  0
   -2.8460    0.9110    3.3630 H   0  0  0  0  0  0  0  0  0  0  0  0
   -3.7070    0.6950    1.1790 H   0  0  0  0  0  0  0  0  0  0  0  0
   -3.1350    2.4080    0.8660 H   0  0  0  0  0  0  0  0  0  0  0  0
   -0.8840    1.5700    0.4150 H   0  0  0  0  0  0  0  0  0  0  0  0
   -2.0980    0.6810   -0.6460 H   0  0  0  0  0  0  0  0  0  0  0  0
   -1.0260   -0.3740    1.9870 H   0  0  0  0  0  0  0  0  0  0  0  0
   -2.2620   -1.1080    0.9580 H   0  0  0  0  0  0  0  0  0  0  0  0
   -0.0110   -2.1170    0.7930 H   0  0  0  0  0  0  0  0  0  0  0  0
    1.0780    0.5530   -0.1720 H   0  0  0  0  0  0  0  0  0  0  0  0
   -1.7100   -2.3860   -1.4200 N   0  0  0  0  0  0  0  0  0  0  0  0
   -2.0520   -2.7950   -2.7680 C   0  0  1  0  0  0  0  0  0  0  0  0
   -2.0690   -4.3170   -2.9080 C   0  0  0  0  0  0  0  0  0  0  0  0
   -3.0790   -4.9320   -1.9860 C   0  0  0  0  0  0  0  0  0  0  0  0
   -3.3050   -6.2820   -1.9050 C   0  0  0  0  0  0  0  0  0  0  0  0
   -4.2650   -6.4450   -0.9860 N   0  0  0  0  0  0  0  0  0  0  0  0
   -4.6330   -5.2500   -0.5040 C   0  0  0  0  0  0  0  0  0  0  0  0
   -3.8970   -4.3270   -1.1260 N   0  0  0  0  0  0  0  0  0  0  0  0
   -3.4180   -2.3470   -3.1280 C   0  0  0  0  0  0  0  0  0  0  0  0
   -4.0730   -1.6970   -2.2710 O   0  0  0  0  0  0  0  0  0  0  0  0
   -4.0070   -2.5980   -4.3350 O   0  0  0  0  0  0  0  0  0  0  0  0
   -2.3150   -2.6580   -0.5850 H   0  0  0  0  0  0  0  0  0  0  0  0
   -1.2930   -2.3960   -3.4510 H   0  0  0  0  0  0  0  0  0  0  0  0
   -1.0970   -4.7730   -2.6900 H   0  0  0  0  0  0  0  0  0  0  0  0
   -2.3620   -4.5940   -3.9330 H   0  0  0  0  0  0  0  0  0  0  0  0
   -2.8320   -7.1000   -2.4520 H   0  0  0  0  0  0  0  0  0  0  0  0
   -4.7130   -7.3320   -0.6410 H   0  0  0  0  0  0  0  0  0  0  0  0
   -5.4100   -5.0760    0.2720 H   0  0  0  0  0  0  0  0  0  0  0  0
  1 11  1  0  0  0  0
  1  2  1  0  0  0  0
  2 13  1  6  0  0  0
  2  3  1  0  0  0  0
  3 14  1  0  0  0  0
  3 15  1  0  0  0  0
  4  3  1  0  0  0  0
  5  4  2  0  0  0  0
  5 16  1  0  0  0  0
  6  5  1  0  0  0  0
  7  6  1  0  0  0  0
  7  8  2  0  0  0  0
  8  4  1  0  0  0  0
  9  2  1  0  0  0  0
  9 10  2  0  0  0  0
 12  1  1  0  0  0  0
 17  6  1  0  0  0  0
 18  7  1  0  0  0  0
 19 30  1  0  0  0  0
 19 31  1  0  0  0  0
 20 19  1  0  0  0  0
 21 32  1  0  0  0  0
 21 20  2  0  0  0  0
 22 20  1  0  0  0  0
 22 33  1  0  0  0  0
 23 22  1  0  0  0  0
 24 36  1  0  0  0  0
 24 25  1  0  0  0  0
 24 23  1  0  0  0  0
 25 39  1  0  0  0  0
 25 38  1  0  0  0  0
 26 27  1  0  0  0  0
 26 40  1  1  0  0  0
 26 25  1  0  0  0  0
 27  9  1  0  0  0  0
 28 26  1  0  0  0  0
 29 28  2  0  0  0  0
 34 23  1  0  0  0  0
 35 23  1  0  0  0  0
 37 24  1  0  0  0  0
 41 27  1  0  0  0  0
 42 28  1  0  0  0  0
 42 53  1  0  0  0  0
 43 54  1  6  0  0  0
 43 42  1  0  0  0  0
 44 43  1  0  0  0  0
 44 55  1  0  0  0  0
 44 45  1  0  0  0  0
 45 46  2  0  0  0  0
 45 49  1  0  0  0  0
 46 47  1  0  0  0  0
 47 58  1  0  0  0  0
 47 48  1  0  0  0  0
 48 59  1  0  0  0  0
 49 48  2  0  0  0  0
 50 43  1  0  0  0  0
 50 51  1  0  0  0  0
 52 50  2  0  0  0  0
 56 44  1  0  0  0  0
 57 46  1  0  0  0  0
M  END
$$$$
