HRI.pdb
 OpenBabel07022418353D

 61 61  0  0  1  0  0  0  0  0999 V2000
    3.0980    0.8460    3.2990 N   0  0  0  0  0  0  0  0  0  0  0  0
    2.3950    0.2750    2.1640 C   0  0  1  0  0  0  0  0  0  0  0  0
    2.3750   -1.2400    2.2440 C   0  0  0  0  0  0  0  0  0  0  0  0
    3.7140   -1.8380    2.2550 C   0  0  0  0  0  0  0  0  0  0  0  0
    4.4770   -2.2440    1.1820 C   0  0  0  0  0  0  0  0  0  0  0  0
    5.6550   -2.7470    1.6050 N   0  0  0  0  0  0  0  0  0  0  0  0
    5.6390   -2.6590    2.9570 C   0  0  0  0  0  0  0  0  0  0  0  0
    4.4710   -2.1120    3.3440 N   0  0  0  0  0  0  0  0  0  0  0  0
    0.9730    0.7080    2.2040 C   0  0  0  0  0  0  0  0  0  0  0  0
    0.5720    1.4350    3.1460 O   0  0  0  0  0  0  0  0  0  0  0  0
    3.3230    1.8470    3.0160 H   0  0  0  0  0  0  0  0  0  0  0  0
    3.9960    0.3800    3.4620 H   0  0  0  0  0  0  0  0  0  0  0  0
    2.8730    0.6550    1.2540 H   0  0  0  0  0  0  0  0  0  0  0  0
    1.7470   -1.5850    1.3960 H   0  0  0  0  0  0  0  0  0  0  0  0
    1.7870   -1.4790    3.1750 H   0  0  0  0  0  0  0  0  0  0  0  0
    4.1470   -2.1600    0.1440 H   0  0  0  0  0  0  0  0  0  0  0  0
    6.4450   -3.1360    1.0310 H   0  0  0  0  0  0  0  0  0  0  0  0
    6.4530   -2.9850    3.5910 H   0  0  0  0  0  0  0  0  0  0  0  0
    0.5860    2.5760   -4.2910 N   0  0  0  0  0  0  0  0  0  0  0  0
    0.3760    2.7690   -2.8790 C   0  0  0  0  0  0  0  0  0  0  0  0
    1.3540    2.6180   -2.0560 N   0  0  0  0  0  0  0  0  0  0  0  0
   -0.9170    3.1260   -2.4050 N   0  0  0  0  0  0  0  0  0  0  0  0
   -1.1060    3.7510   -1.1290 C   0  0  0  0  0  0  0  0  0  0  0  0
   -0.8100    2.8710    0.0420 C   0  0  0  0  0  0  0  0  0  0  0  0
   -1.7090    1.6290    0.0480 C   0  0  0  0  0  0  0  0  0  0  0  0
   -1.3640    0.7660    1.2610 C   0  0  2  0  0  0  0  0  0  0  0  0
    0.0180    0.3410    1.2170 N   0  0  0  0  0  0  0  0  0  0  0  0
   -2.2150   -0.4470    1.3020 C   0  0  0  0  0  0  0  0  0  0  0  0
   -3.4820   -0.3770    1.3580 O   0  0  0  0  0  0  0  0  0  0  0  0
    1.4000    3.0860   -4.7440 H   0  0  0  0  0  0  0  0  0  0  0  0
   -0.0590    1.9530   -4.8060 H   0  0  0  0  0  0  0  0  0  0  0  0
    2.2840    2.3570   -2.4430 H   0  0  0  0  0  0  0  0  0  0  0  0
   -1.7520    2.9310   -2.9970 H   0  0  0  0  0  0  0  0  0  0  0  0
   -0.4560    4.6590   -1.0200 H   0  0  0  0  0  0  0  0  0  0  0  0
   -2.1610    4.1240   -1.0060 H   0  0  0  0  0  0  0  0  0  0  0  0
   -0.9700    3.4400    0.9870 H   0  0  0  0  0  0  0  0  0  0  0  0
    0.2600    2.5830    0.0390 H   0  0  0  0  0  0  0  0  0  0  0  0
   -2.7400    1.9860    0.1990 H   0  0  0  0  0  0  0  0  0  0  0  0
   -1.5880    1.0710   -0.8860 H   0  0  0  0  0  0  0  0  0  0  0  0
   -1.6000    1.3740    2.1420 H   0  0  0  0  0  0  0  0  0  0  0  0
    0.3690   -0.2620    0.4420 H   0  0  0  0  0  0  0  0  0  0  0  0
   -4.1030   -2.5760   -1.2430 C   0  0  0  0  0  0  0  0  0  0  0  0
   -2.6370   -2.8730   -1.1810 C   0  0  0  0  0  0  0  0  0  0  0  0
   -2.2690   -3.7080    0.0210 C   0  0  2  0  0  0  0  0  0  0  0  0
   -2.9690   -5.0310    0.0300 C   0  0  0  0  0  0  0  0  0  0  0  0
   -2.4930   -2.9300    1.3180 C   0  0  2  0  0  0  0  0  0  0  0  0
   -1.6580   -1.7480    1.2780 N   0  0  0  0  0  0  0  0  0  0  0  0
   -2.0890   -3.7750    2.4550 C   0  0  0  0  0  0  0  0  0  0  0  0
   -1.1570   -3.4170    3.1950 O   0  0  0  0  0  0  0  0  0  0  0  0
   -2.7300   -4.9790    2.7290 O   0  0  0  0  0  0  0  0  0  0  0  0
   -4.6510   -2.7340   -0.3140 H   0  0  0  0  0  0  0  0  0  0  0  0
   -4.5430   -3.2890   -1.9950 H   0  0  0  0  0  0  0  0  0  0  0  0
   -4.2940   -1.5510   -1.6760 H   0  0  0  0  0  0  0  0  0  0  0  0
   -2.0970   -1.9120   -1.0790 H   0  0  0  0  0  0  0  0  0  0  0  0
   -2.2490   -3.3740   -2.0760 H   0  0  0  0  0  0  0  0  0  0  0  0
   -1.1710   -3.8900   -0.0350 H   0  0  0  0  0  0  0  0  0  0  0  0
   -3.1580   -5.4020   -0.9870 H   0  0  0  0  0  0  0  0  0  0  0  0
   -3.9860   -4.9500    0.5110 H   0  0  0  0  0  0  0  0  0  0  0  0
   -2.4080   -5.8230    0.5690 H   0  0  0  0  0  0  0  0  0  0  0  0
   -3.5470   -2.5910    1.3960 H   0  0  0  0  0  0  0  0  0  0  0  0
   -0.6260   -1.8900    1.2320 H   0  0  0  0  0  0  0  0  0  0  0  0
  1 12  1  0  0  0  0
  2 13  1  6  0  0  0
  2  9  1  0  0  0  0
  2  3  1  0  0  0  0
  2  1  1  0  0  0  0
  3  4  1  0  0  0  0
  3 15  1  0  0  0  0
  4  8  1  0  0  0  0
  5  6  1  0  0  0  0
  5  4  2  0  0  0  0
  6  7  1  0  0  0  0
  7  8  2  0  0  0  0
  7 18  1  0  0  0  0
  9 10  2  0  0  0  0
 11  1  1  0  0  0  0
 14  3  1  0  0  0  0
 16  5  1  0  0  0  0
 17  6  1  0  0  0  0
 19 20  1  0  0  0  0
 20 22  1  0  0  0  0
 20 21  2  0  0  0  0
 22 23  1  0  0  0  0
 23 34  1  0  0  0  0
 23 35  1  0  0  0  0
 23 24  1  0  0  0  0
 24 25  1  0  0  0  0
 24 36  1  0  0  0  0
 25 38  1  0  0  0  0
 25 26  1  0  0  0  0
 26 28  1  0  0  0  0
 26 40  1  1  0  0  0
 27 26  1  0  0  0  0
 27  9  1  0  0  0  0
 28 29  2  0  0  0  0
 30 19  1  0  0  0  0
 31 19  1  0  0  0  0
 32 21  1  0  0  0  0
 33 22  1  0  0  0  0
 37 24  1  0  0  0  0
 39 25  1  0  0  0  0
 41 27  1  0  0  0  0
 42 43  1  0  0  0  0
 42 51  1  0  0  0  0
 43 54  1  0  0  0  0
 43 44  1  0  0  0  0
 44 56  1  6  0  0  0
 44 45  1  0  0  0  0
 44 46  1  0  0  0  0
 45 58  1  0  0  0  0
 45 59  1  0  0  0  0
 46 60  1  1  0  0  0
 46 48  1  0  0  0  0
 47 28  1  0  0  0  0
 47 46  1  0  0  0  0
 48 50  2  0  0  0  0
 48 49  1  0  0  0  0
 52 42  1  0  0  0  0
 53 42  1  0  0  0  0
 55 43  1  0  0  0  0
 57 45  1  0  0  0  0
 61 47  1  0  0  0  0
M  END
$$$$
