HRM.pdb
 OpenBabel07022418353D

 59 59  0  0  1  0  0  0  0  0999 V2000
    2.5710   -1.7250   -0.0220 N   0  0  0  0  0  0  0  0  0  0  0  0
    2.5810   -1.4060    1.3830 C   0  0  1  0  0  0  0  0  0  0  0  0
    3.6190   -0.3330    1.6220 C   0  0  0  0  0  0  0  0  0  0  0  0
    4.9690   -0.7560    1.2350 C   0  0  0  0  0  0  0  0  0  0  0  0
    5.3980   -1.9500    0.7040 C   0  0  0  0  0  0  0  0  0  0  0  0
    6.7240   -1.8920    0.5060 N   0  0  0  0  0  0  0  0  0  0  0  0
    7.1360   -0.6600    0.9130 C   0  0  0  0  0  0  0  0  0  0  0  0
    6.0620    0.0110    1.3490 N   0  0  0  0  0  0  0  0  0  0  0  0
    1.2800   -0.8690    1.8560 C   0  0  0  0  0  0  0  0  0  0  0  0
    1.2000   -0.5730    3.0820 O   0  0  0  0  0  0  0  0  0  0  0  0
    2.5820   -0.8650   -0.5920 H   0  0  0  0  0  0  0  0  0  0  0  0
    1.7790   -2.3450   -0.2600 H   0  0  0  0  0  0  0  0  0  0  0  0
    2.7810   -2.3210    1.9630 H   0  0  0  0  0  0  0  0  0  0  0  0
    3.3550    0.5780    1.0450 H   0  0  0  0  0  0  0  0  0  0  0  0
    3.6460   -0.0110    2.6860 H   0  0  0  0  0  0  0  0  0  0  0  0
    4.7580   -2.7890    0.4870 H   0  0  0  0  0  0  0  0  0  0  0  0
    7.2790   -2.6690    0.1150 H   0  0  0  0  0  0  0  0  0  0  0  0
    8.1730   -0.3620    0.8570 H   0  0  0  0  0  0  0  0  0  0  0  0
    0.3390    4.5190    0.9400 N   0  0  0  0  0  0  0  0  0  0  0  0
   -0.8270    4.1050    0.2750 C   0  0  0  0  0  0  0  0  0  0  0  0
   -0.8140    3.6870   -0.9460 N   0  0  0  0  0  0  0  0  0  0  0  0
   -2.0910    4.1320    0.9300 N   0  0  0  0  0  0  0  0  0  0  0  0
   -3.0730    3.0900    0.7790 C   0  0  0  0  0  0  0  0  0  0  0  0
   -2.6920    1.7810    1.4260 C   0  0  0  0  0  0  0  0  0  0  0  0
   -1.4290    1.1740    0.9020 C   0  0  0  0  0  0  0  0  0  0  0  0
   -1.1130   -0.1310    1.5950 C   0  0  2  0  0  0  0  0  0  0  0  0
    0.1500   -0.6720    1.0410 N   0  0  0  0  0  0  0  0  0  0  0  0
   -2.1490   -1.1640    1.4820 C   0  0  0  0  0  0  0  0  0  0  0  0
   -3.3210   -1.1120    1.8850 O   0  0  0  0  0  0  0  0  0  0  0  0
    0.7460    4.0490    1.7880 H   0  0  0  0  0  0  0  0  0  0  0  0
    0.8510    5.3630    0.5670 H   0  0  0  0  0  0  0  0  0  0  0  0
    0.0860    3.6540   -1.4560 H   0  0  0  0  0  0  0  0  0  0  0  0
   -2.2980    4.9660    1.5540 H   0  0  0  0  0  0  0  0  0  0  0  0
   -4.0060    3.4280    1.2880 H   0  0  0  0  0  0  0  0  0  0  0  0
   -3.2970    2.9400   -0.2990 H   0  0  0  0  0  0  0  0  0  0  0  0
   -3.5120    1.0520    1.3620 H   0  0  0  0  0  0  0  0  0  0  0  0
   -2.5210    1.9390    2.5330 H   0  0  0  0  0  0  0  0  0  0  0  0
   -0.5350    1.8440    1.0990 H   0  0  0  0  0  0  0  0  0  0  0  0
   -1.4910    1.0800   -0.1830 H   0  0  0  0  0  0  0  0  0  0  0  0
   -0.9300    0.0520    2.6720 H   0  0  0  0  0  0  0  0  0  0  0  0
    0.2280   -0.9180    0.0290 H   0  0  0  0  0  0  0  0  0  0  0  0
   -3.0430   -3.2350   -4.1630 C   0  0  0  0  0  0  0  0  0  0  0  0
   -2.4520   -4.6720   -3.2480 S   0  0  0  0  0  0  0  0  0  0  0  0
   -1.9540   -4.2540   -1.5590 C   0  0  0  0  0  0  0  0  0  0  0  0
   -3.1280   -3.8110   -0.7220 C   0  0  0  0  0  0  0  0  0  0  0  0
   -2.7590   -3.4560    0.6800 C   0  0  2  0  0  0  0  0  0  0  0  0
   -1.8250   -2.4090    0.8330 N   0  0  0  0  0  0  0  0  0  0  0  0
   -2.2890   -4.6430    1.4470 C   0  0  0  0  0  0  0  0  0  0  0  0
   -2.9680   -5.7030    1.4570 O   0  0  0  0  0  0  0  0  0  0  0  0
   -1.1060   -4.6530    2.1780 O   0  0  0  0  0  0  0  0  0  0  0  0
   -2.7580   -2.2770   -3.6950 H   0  0  0  0  0  0  0  0  0  0  0  0
   -4.1350   -3.2600   -4.3480 H   0  0  0  0  0  0  0  0  0  0  0  0
   -2.5550   -3.2560   -5.1610 H   0  0  0  0  0  0  0  0  0  0  0  0
   -1.5310   -5.1890   -1.1170 H   0  0  0  0  0  0  0  0  0  0  0  0
   -1.1190   -3.5190   -1.5390 H   0  0  0  0  0  0  0  0  0  0  0  0
   -3.7180   -3.0150   -1.1770 H   0  0  0  0  0  0  0  0  0  0  0  0
   -3.8120   -4.6970   -0.6540 H   0  0  0  0  0  0  0  0  0  0  0  0
   -3.7290   -3.1490    1.1730 H   0  0  0  0  0  0  0  0  0  0  0  0
   -0.8510   -2.5780    0.4430 H   0  0  0  0  0  0  0  0  0  0  0  0
  1  2  1  0  0  0  0
  2  3  1  0  0  0  0
  2  9  1  0  0  0  0
  2 13  1  1  0  0  0
  3 15  1  0  0  0  0
  4  8  1  0  0  0  0
  4  3  1  0  0  0  0
  5  4  2  0  0  0  0
  6  5  1  0  0  0  0
  6  7  1  0  0  0  0
  7  8  2  0  0  0  0
  9 10  2  0  0  0  0
 11  1  1  0  0  0  0
 12  1  1  0  0  0  0
 14  3  1  0  0  0  0
 16  5  1  0  0  0  0
 17  6  1  0  0  0  0
 18  7  1  0  0  0  0
 19 30  1  0  0  0  0
 20 22  1  0  0  0  0
 20 19  1  0  0  0  0
 21 20  2  0  0  0  0
 22 33  1  0  0  0  0
 23 22  1  0  0  0  0
 23 34  1  0  0  0  0
 23 24  1  0  0  0  0
 24 37  1  0  0  0  0
 25 38  1  0  0  0  0
 25 24  1  0  0  0  0
 25 26  1  0  0  0  0
 26 40  1  1  0  0  0
 27 26  1  0  0  0  0
 27  9  1  0  0  0  0
 28 26  1  0  0  0  0
 28 29  2  0  0  0  0
 31 19  1  0  0  0  0
 32 21  1  0  0  0  0
 35 23  1  0  0  0  0
 36 24  1  0  0  0  0
 39 25  1  0  0  0  0
 41 27  1  0  0  0  0
 42 51  1  0  0  0  0
 42 43  1  0  0  0  0
 43 44  1  0  0  0  0
 44 55  1  0  0  0  0
 44 54  1  0  0  0  0
 44 45  1  0  0  0  0
 45 57  1  0  0  0  0
 45 46  1  0  0  0  0
 46 47  1  0  0  0  0
 46 58  1  1  0  0  0
 46 48  1  0  0  0  0
 47 28  1  0  0  0  0
 48 49  2  0  0  0  0
 48 50  1  0  0  0  0
 52 42  1  0  0  0  0
 53 42  1  0  0  0  0
 56 45  1  0  0  0  0
 59 47  1  0  0  0  0
M  END
$$$$
