HRP.pdb
 OpenBabel07022418353D

 56 57  0  0  1  0  0  0  0  0999 V2000
    2.6440   -0.2190    2.7570 N   0  0  0  0  0  0  0  0  0  0  0  0
    2.9600   -1.5070    2.0980 C   0  0  1  0  0  0  0  0  0  0  0  0
    2.9510   -2.5300    3.1660 C   0  0  0  0  0  0  0  0  0  0  0  0
    3.3280   -3.8900    2.7680 C   0  0  0  0  0  0  0  0  0  0  0  0
    3.8070   -4.4040    1.6030 C   0  0  0  0  0  0  0  0  0  0  0  0
    4.0460   -5.7170    1.7970 N   0  0  0  0  0  0  0  0  0  0  0  0
    3.7320   -6.0420    3.0500 C   0  0  0  0  0  0  0  0  0  0  0  0
    3.2940   -4.9250    3.6410 N   0  0  0  0  0  0  0  0  0  0  0  0
    1.8750   -1.7520    1.0910 C   0  0  0  0  0  0  0  0  0  0  0  0
    1.6680   -2.8490    0.5510 O   0  0  0  0  0  0  0  0  0  0  0  0
    3.0830   -0.1640    3.6990 H   0  0  0  0  0  0  0  0  0  0  0  0
    2.9530    0.5210    2.1230 H   0  0  0  0  0  0  0  0  0  0  0  0
    3.8950   -1.3630    1.5590 H   0  0  0  0  0  0  0  0  0  0  0  0
    1.9010   -2.5960    3.5740 H   0  0  0  0  0  0  0  0  0  0  0  0
    3.5870   -2.1930    4.0360 H   0  0  0  0  0  0  0  0  0  0  0  0
    4.0040   -3.9200    0.6790 H   0  0  0  0  0  0  0  0  0  0  0  0
    4.4210   -6.3840    1.0740 H   0  0  0  0  0  0  0  0  0  0  0  0
    3.8260   -7.0460    3.4840 H   0  0  0  0  0  0  0  0  0  0  0  0
   -3.9330    2.9550    2.8960 N   0  0  0  0  0  0  0  0  0  0  0  0
   -2.6700    2.3320    2.7090 C   0  0  0  0  0  0  0  0  0  0  0  0
   -1.7660    2.9910    2.0600 N   0  0  0  0  0  0  0  0  0  0  0  0
   -2.3990    1.0430    3.2060 N   0  0  0  0  0  0  0  0  0  0  0  0
   -1.4580    0.1520    2.4870 C   0  0  0  0  0  0  0  0  0  0  0  0
   -2.0880   -0.2390    1.1830 C   0  0  0  0  0  0  0  0  0  0  0  0
   -1.3850   -1.1720    0.3080 C   0  0  0  0  0  0  0  0  0  0  0  0
   -0.0670   -0.8780   -0.2760 C   0  0  2  0  0  0  0  0  0  0  0  0
    0.9970   -0.6940    0.6890 N   0  0  0  0  0  0  0  0  0  0  0  0
   -0.0540    0.1340   -1.3210 C   0  0  0  0  0  0  0  0  0  0  0  0
    0.9000    1.0030   -1.1870 O   0  0  0  0  0  0  0  0  0  0  0  0
   -4.8200    2.3850    2.8330 H   0  0  0  0  0  0  0  0  0  0  0  0
   -3.9640    3.9840    3.0960 H   0  0  0  0  0  0  0  0  0  0  0  0
   -1.9350    3.9530    1.6750 H   0  0  0  0  0  0  0  0  0  0  0  0
   -2.8570    0.7180    4.0710 H   0  0  0  0  0  0  0  0  0  0  0  0
   -1.1780   -0.7030    3.1180 H   0  0  0  0  0  0  0  0  0  0  0  0
   -0.5650    0.8100    2.2940 H   0  0  0  0  0  0  0  0  0  0  0  0
   -3.1190   -0.6330    1.4680 H   0  0  0  0  0  0  0  0  0  0  0  0
   -2.3530    0.7370    0.6850 H   0  0  0  0  0  0  0  0  0  0  0  0
   -1.2440   -2.1720    0.8970 H   0  0  0  0  0  0  0  0  0  0  0  0
   -2.0890   -1.5340   -0.4870 H   0  0  0  0  0  0  0  0  0  0  0  0
    0.2350   -1.8620   -0.7980 H   0  0  0  0  0  0  0  0  0  0  0  0
    1.1670    0.2360    1.0890 H   0  0  0  0  0  0  0  0  0  0  0  0
   -0.9070    0.2930   -2.4260 N   0  0  0  0  0  0  0  0  0  0  0  0
   -0.7030    1.3870   -3.4150 C   0  0  0  0  0  0  0  0  0  0  0  0
   -2.1330    1.7250   -3.7420 C   0  0  0  0  0  0  0  0  0  0  0  0
   -2.5650    0.3030   -4.1540 C   0  0  0  0  0  0  0  0  0  0  0  0
   -2.0630   -0.4290   -2.8960 C   0  0  1  0  0  0  0  0  0  0  0  0
   -1.7300   -1.7920   -3.3540 C   0  0  0  0  0  0  0  0  0  0  0  0
   -2.6540   -2.5590   -3.7070 O   0  0  0  0  0  0  0  0  0  0  0  0
   -0.4280   -2.2320   -3.3990 O   0  0  0  0  0  0  0  0  0  0  0  0
   -0.1450    2.2160   -2.9710 H   0  0  0  0  0  0  0  0  0  0  0  0
   -0.2520    0.9630   -4.3400 H   0  0  0  0  0  0  0  0  0  0  0  0
   -2.7200    1.9810   -2.8570 H   0  0  0  0  0  0  0  0  0  0  0  0
   -2.2430    2.4220   -4.5950 H   0  0  0  0  0  0  0  0  0  0  0  0
   -3.6340    0.2090   -4.3060 H   0  0  0  0  0  0  0  0  0  0  0  0
   -1.9270    0.0450   -5.0210 H   0  0  0  0  0  0  0  0  0  0  0  0
   -2.9300   -0.3850   -2.1940 H   0  0  0  0  0  0  0  0  0  0  0  0
  1 11  1  0  0  0  0
  2 13  1  6  0  0  0
  2  1  1  0  0  0  0
  2  3  1  0  0  0  0
  3 14  1  0  0  0  0
  3 15  1  0  0  0  0
  4  3  1  0  0  0  0
  4  8  1  0  0  0  0
  5  6  1  0  0  0  0
  5  4  2  0  0  0  0
  6  7  1  0  0  0  0
  7 18  1  0  0  0  0
  7  8  2  0  0  0  0
  9  2  1  0  0  0  0
 10  9  2  0  0  0  0
 12  1  1  0  0  0  0
 16  5  1  0  0  0  0
 17  6  1  0  0  0  0
 19 31  1  0  0  0  0
 20 19  1  0  0  0  0
 20 22  1  0  0  0  0
 21 20  2  0  0  0  0
 22 33  1  0  0  0  0
 23 34  1  0  0  0  0
 23 22  1  0  0  0  0
 24 36  1  0  0  0  0
 24 23  1  0  0  0  0
 25 38  1  0  0  0  0
 25 24  1  0  0  0  0
 26 40  1  6  0  0  0
 26 25  1  0  0  0  0
 26 27  1  0  0  0  0
 27 41  1  0  0  0  0
 27  9  1  0  0  0  0
 28 29  2  0  0  0  0
 28 26  1  0  0  0  0
 30 19  1  0  0  0  0
 32 21  1  0  0  0  0
 35 23  1  0  0  0  0
 37 24  1  0  0  0  0
 39 25  1  0  0  0  0
 42 28  1  0  0  0  0
 43 50  1  0  0  0  0
 43 42  1  0  0  0  0
 44 43  1  0  0  0  0
 44 52  1  0  0  0  0
 45 44  1  0  0  0  0
 45 46  1  0  0  0  0
 46 42  1  0  0  0  0
 46 56  1  1  0  0  0
 47 46  1  0  0  0  0
 48 47  2  0  0  0  0
 49 47  1  0  0  0  0
 51 43  1  0  0  0  0
 53 44  1  0  0  0  0
 54 45  1  0  0  0  0
 55 45  1  0  0  0  0
M  END
$$$$
