HRQ.pdb
 OpenBabel07022418353D

 59 59  0  0  1  0  0  0  0  0999 V2000
    3.1310    1.2400   -0.8580 N   0  0  0  0  0  0  0  0  0  0  0  0
    3.4920   -0.0820   -0.4550 C   0  0  1  0  0  0  0  0  0  0  0  0
    4.6100   -0.1280    0.5630 C   0  0  0  0  0  0  0  0  0  0  0  0
    4.3030    0.5690    1.8160 C   0  0  0  0  0  0  0  0  0  0  0  0
    3.7240    0.1270    2.9780 C   0  0  0  0  0  0  0  0  0  0  0  0
    3.6560    1.1370    3.8470 N   0  0  0  0  0  0  0  0  0  0  0  0
    4.1920    2.2430    3.2510 C   0  0  0  0  0  0  0  0  0  0  0  0
    4.5810    1.8850    2.0180 N   0  0  0  0  0  0  0  0  0  0  0  0
    2.3570   -0.8520    0.1060 C   0  0  0  0  0  0  0  0  0  0  0  0
    2.6330   -1.9780    0.5970 O   0  0  0  0  0  0  0  0  0  0  0  0
    4.0090    1.8110   -0.8920 H   0  0  0  0  0  0  0  0  0  0  0  0
    2.6470    1.1990   -1.7640 H   0  0  0  0  0  0  0  0  0  0  0  0
    3.7930   -0.6620   -1.3830 H   0  0  0  0  0  0  0  0  0  0  0  0
    5.5530    0.2220    0.0940 H   0  0  0  0  0  0  0  0  0  0  0  0
    4.7550   -1.2160    0.8030 H   0  0  0  0  0  0  0  0  0  0  0  0
    3.3830   -0.8700    3.1590 H   0  0  0  0  0  0  0  0  0  0  0  0
    3.2850    1.1900    4.8220 H   0  0  0  0  0  0  0  0  0  0  0  0
    4.3060    3.2290    3.6390 H   0  0  0  0  0  0  0  0  0  0  0  0
    1.7250    4.2970    2.5550 N   0  0  0  0  0  0  0  0  0  0  0  0
    0.7620    3.6620    1.7460 C   0  0  0  0  0  0  0  0  0  0  0  0
    0.4260    4.2650    0.6320 N   0  0  0  0  0  0  0  0  0  0  0  0
    0.1510    2.4250    2.0760 N   0  0  0  0  0  0  0  0  0  0  0  0
   -0.9290    1.9450    1.2870 C   0  0  0  0  0  0  0  0  0  0  0  0
   -1.5390    0.6670    1.6900 C   0  0  0  0  0  0  0  0  0  0  0  0
   -0.7690   -0.5620    1.8000 C   0  0  0  0  0  0  0  0  0  0  0  0
   -0.0460   -1.1430    0.6560 C   0  0  2  0  0  0  0  0  0  0  0  0
    1.0100   -0.3460    0.0930 N   0  0  0  0  0  0  0  0  0  0  0  0
   -0.9620   -1.6210   -0.4370 C   0  0  0  0  0  0  0  0  0  0  0  0
   -0.7910   -1.2860   -1.6390 O   0  0  0  0  0  0  0  0  0  0  0  0
    2.5250    4.7850    2.1100 H   0  0  0  0  0  0  0  0  0  0  0  0
    1.6680    4.2990    3.5900 H   0  0  0  0  0  0  0  0  0  0  0  0
    0.8550    5.1730    0.3630 H   0  0  0  0  0  0  0  0  0  0  0  0
    0.5040    1.8950    2.8870 H   0  0  0  0  0  0  0  0  0  0  0  0
   -0.7230    2.0030    0.2040 H   0  0  0  0  0  0  0  0  0  0  0  0
   -1.7280    2.7910    1.3920 H   0  0  0  0  0  0  0  0  0  0  0  0
   -2.4450    0.4760    1.0500 H   0  0  0  0  0  0  0  0  0  0  0  0
   -2.0240    0.8650    2.7100 H   0  0  0  0  0  0  0  0  0  0  0  0
   -1.4790   -1.3720    2.1730 H   0  0  0  0  0  0  0  0  0  0  0  0
   -0.0240   -0.5350    2.6710 H   0  0  0  0  0  0  0  0  0  0  0  0
    0.4360   -2.0990    1.0400 H   0  0  0  0  0  0  0  0  0  0  0  0
    0.9030    0.5700   -0.3410 H   0  0  0  0  0  0  0  0  0  0  0  0
   -4.3070   -7.4850   -2.9410 N   0  0  0  0  0  0  0  0  0  0  0  0
   -3.5360   -6.6170   -2.1120 C   0  0  0  0  0  0  0  0  0  0  0  0
   -2.6450   -7.0390   -1.3590 O   0  0  0  0  0  0  0  0  0  0  0  0
   -3.7970   -5.1340   -2.1380 C   0  0  0  0  0  0  0  0  0  0  0  0
   -2.8790   -4.4800   -1.1700 C   0  0  0  0  0  0  0  0  0  0  0  0
   -2.9940   -2.9910   -1.0800 C   0  0  2  0  0  0  0  0  0  0  0  0
   -2.0320   -2.4650   -0.0860 N   0  0  0  0  0  0  0  0  0  0  0  0
   -4.3400   -2.4740   -0.8270 C   0  0  0  0  0  0  0  0  0  0  0  0
   -4.6150   -1.7170    0.1620 O   0  0  0  0  0  0  0  0  0  0  0  0
   -5.4240   -2.7600   -1.6390 O   0  0  0  0  0  0  0  0  0  0  0  0
   -3.9680   -8.4330   -3.1190 H   0  0  0  0  0  0  0  0  0  0  0  0
   -5.1870   -7.1560   -3.3480 H   0  0  0  0  0  0  0  0  0  0  0  0
   -3.6180   -4.8360   -3.1900 H   0  0  0  0  0  0  0  0  0  0  0  0
   -4.8760   -4.9470   -1.9480 H   0  0  0  0  0  0  0  0  0  0  0  0
   -1.8340   -4.7950   -1.4630 H   0  0  0  0  0  0  0  0  0  0  0  0
   -2.9870   -4.8800   -0.1280 H   0  0  0  0  0  0  0  0  0  0  0  0
   -2.6530   -2.5720   -2.0490 H   0  0  0  0  0  0  0  0  0  0  0  0
   -2.1550   -2.7370    0.9100 H   0  0  0  0  0  0  0  0  0  0  0  0
  1  2  1  0  0  0  0
  2 13  1  6  0  0  0
  2  9  1  0  0  0  0
  2  3  1  0  0  0  0
  3 15  1  0  0  0  0
  3  4  1  0  0  0  0
  4  8  1  0  0  0  0
  4  5  2  0  0  0  0
  5 16  1  0  0  0  0
  5  6  1  0  0  0  0
  6 17  1  0  0  0  0
  7 18  1  0  0  0  0
  7  6  1  0  0  0  0
  8  7  2  0  0  0  0
  9 10  2  0  0  0  0
 11  1  1  0  0  0  0
 12  1  1  0  0  0  0
 14  3  1  0  0  0  0
 19 31  1  0  0  0  0
 20 22  1  0  0  0  0
 20 19  1  0  0  0  0
 21 20  2  0  0  0  0
 22 33  1  0  0  0  0
 23 35  1  0  0  0  0
 23 24  1  0  0  0  0
 23 22  1  0  0  0  0
 24 25  1  0  0  0  0
 24 37  1  0  0  0  0
 25 38  1  0  0  0  0
 25 39  1  0  0  0  0
 26 40  1  1  0  0  0
 26 25  1  0  0  0  0
 27  9  1  0  0  0  0
 27 26  1  0  0  0  0
 28 48  1  0  0  0  0
 28 26  1  0  0  0  0
 29 28  2  0  0  0  0
 30 19  1  0  0  0  0
 32 21  1  0  0  0  0
 34 23  1  0  0  0  0
 36 24  1  0  0  0  0
 41 27  1  0  0  0  0
 42 43  1  0  0  0  0
 43 44  2  0  0  0  0
 45 43  1  0  0  0  0
 45 55  1  0  0  0  0
 45 46  1  0  0  0  0
 46 47  1  0  0  0  0
 46 57  1  0  0  0  0
 47 58  1  6  0  0  0
 47 49  1  0  0  0  0
 47 48  1  0  0  0  0
 48 59  1  0  0  0  0
 49 50  1  0  0  0  0
 51 49  2  0  0  0  0
 52 42  1  0  0  0  0
 53 42  1  0  0  0  0
 54 45  1  0  0  0  0
 56 46  1  0  0  0  0
M  END
$$$$
