HRS.pdb
 OpenBabel07022418353D

 53 53  0  0  1  0  0  0  0  0999 V2000
    3.6140   -0.2980    0.6830 N   0  0  0  0  0  0  0  0  0  0  0  0
    2.3930    0.2180    0.1020 C   0  0  1  0  0  0  0  0  0  0  0  0
    2.6030    0.2390   -1.3950 C   0  0  0  0  0  0  0  0  0  0  0  0
    3.7610    1.1260   -1.6510 C   0  0  0  0  0  0  0  0  0  0  0  0
    3.7880    2.4810   -1.8800 C   0  0  0  0  0  0  0  0  0  0  0  0
    5.0790    2.8890   -2.0670 N   0  0  0  0  0  0  0  0  0  0  0  0
    5.8380    1.7920   -1.9530 C   0  0  0  0  0  0  0  0  0  0  0  0
    5.0580    0.7280   -1.7030 N   0  0  0  0  0  0  0  0  0  0  0  0
    1.2600   -0.6230    0.5100 C   0  0  0  0  0  0  0  0  0  0  0  0
    1.4900   -1.6120    1.2470 O   0  0  0  0  0  0  0  0  0  0  0  0
    3.6250   -0.2300    1.7170 H   0  0  0  0  0  0  0  0  0  0  0  0
    3.8500   -1.2500    0.3270 H   0  0  0  0  0  0  0  0  0  0  0  0
    2.2680    1.2760    0.4160 H   0  0  0  0  0  0  0  0  0  0  0  0
    1.7370    0.6890   -1.9350 H   0  0  0  0  0  0  0  0  0  0  0  0
    2.8540   -0.7650   -1.7840 H   0  0  0  0  0  0  0  0  0  0  0  0
    2.9250    3.1390   -1.9120 H   0  0  0  0  0  0  0  0  0  0  0  0
    5.3470    3.8790   -2.2580 H   0  0  0  0  0  0  0  0  0  0  0  0
    6.9030    1.7630   -2.0450 H   0  0  0  0  0  0  0  0  0  0  0  0
    0.3480    2.4650    5.1030 N   0  0  0  0  0  0  0  0  0  0  0  0
    0.2300    1.2580    4.3810 C   0  0  0  0  0  0  0  0  0  0  0  0
    1.1490    0.9170    3.5140 N   0  0  0  0  0  0  0  0  0  0  0  0
   -0.8630    0.3600    4.5420 N   0  0  0  0  0  0  0  0  0  0  0  0
   -1.2640   -0.5470    3.4620 C   0  0  0  0  0  0  0  0  0  0  0  0
   -1.8220    0.2930    2.3640 C   0  0  0  0  0  0  0  0  0  0  0  0
   -2.2860   -0.4640    1.1660 C   0  0  0  0  0  0  0  0  0  0  0  0
   -1.1540   -1.2250    0.5420 C   0  0  2  0  0  0  0  0  0  0  0  0
   -0.0800   -0.3620    0.1060 N   0  0  0  0  0  0  0  0  0  0  0  0
   -1.6390   -2.0270   -0.6420 C   0  0  0  0  0  0  0  0  0  0  0  0
   -1.1060   -1.8630   -1.7660 O   0  0  0  0  0  0  0  0  0  0  0  0
    0.4020    3.3590    4.5830 H   0  0  0  0  0  0  0  0  0  0  0  0
    0.3820    2.4630    6.1370 H   0  0  0  0  0  0  0  0  0  0  0  0
    1.9820    1.5530    3.3600 H   0  0  0  0  0  0  0  0  0  0  0  0
   -1.3660    0.3720    5.4560 H   0  0  0  0  0  0  0  0  0  0  0  0
   -0.4220   -1.1480    3.1220 H   0  0  0  0  0  0  0  0  0  0  0  0
   -2.0290   -1.2360    3.8850 H   0  0  0  0  0  0  0  0  0  0  0  0
   -1.0580    1.0720    2.1150 H   0  0  0  0  0  0  0  0  0  0  0  0
   -2.7040    0.8770    2.7460 H   0  0  0  0  0  0  0  0  0  0  0  0
   -2.7470    0.1790    0.4000 H   0  0  0  0  0  0  0  0  0  0  0  0
   -3.1040   -1.1510    1.5120 H   0  0  0  0  0  0  0  0  0  0  0  0
   -0.7770   -1.9600    1.2650 H   0  0  0  0  0  0  0  0  0  0  0  0
   -0.2240    0.4680   -0.5070 H   0  0  0  0  0  0  0  0  0  0  0  0
   -3.6540   -5.5030   -0.0740 O   0  0  0  0  0  0  0  0  0  0  0  0
   -2.9590   -5.2340   -1.2470 C   0  0  0  0  0  0  0  0  0  0  0  0
   -3.2000   -3.7670   -1.6000 C   0  0  2  0  0  0  0  0  0  0  0  0
   -2.6960   -2.9650   -0.4800 N   0  0  0  0  0  0  0  0  0  0  0  0
   -4.6480   -3.5650   -1.7010 C   0  0  0  0  0  0  0  0  0  0  0  0
   -5.2670   -2.7970   -0.9000 O   0  0  0  0  0  0  0  0  0  0  0  0
   -5.4490   -4.1800   -2.6580 O   0  0  0  0  0  0  0  0  0  0  0  0
   -3.2360   -6.2930    0.3850 H   0  0  0  0  0  0  0  0  0  0  0  0
   -3.2530   -5.8730   -2.0870 H   0  0  0  0  0  0  0  0  0  0  0  0
   -1.8610   -5.3180   -1.0320 H   0  0  0  0  0  0  0  0  0  0  0  0
   -2.6490   -3.5250   -2.5280 H   0  0  0  0  0  0  0  0  0  0  0  0
   -3.1060   -3.0640    0.4720 H   0  0  0  0  0  0  0  0  0  0  0  0
  1 11  1  0  0  0  0
  2 13  1  1  0  0  0
  2  9  1  0  0  0  0
  2  1  1  0  0  0  0
  3  2  1  0  0  0  0
  4  3  1  0  0  0  0
  5  4  2  0  0  0  0
  6  7  1  0  0  0  0
  6  5  1  0  0  0  0
  7  8  2  0  0  0  0
  8  4  1  0  0  0  0
  9 10  2  0  0  0  0
 12  1  1  0  0  0  0
 14  3  1  0  0  0  0
 15  3  1  0  0  0  0
 16  5  1  0  0  0  0
 17  6  1  0  0  0  0
 18  7  1  0  0  0  0
 19 31  1  0  0  0  0
 20 22  1  0  0  0  0
 20 19  1  0  0  0  0
 21 20  2  0  0  0  0
 22 33  1  0  0  0  0
 23 35  1  0  0  0  0
 23 22  1  0  0  0  0
 24 37  1  0  0  0  0
 24 23  1  0  0  0  0
 25 39  1  0  0  0  0
 25 24  1  0  0  0  0
 26 25  1  0  0  0  0
 26 40  1  1  0  0  0
 27  9  1  0  0  0  0
 27 26  1  0  0  0  0
 28 45  1  0  0  0  0
 28 26  1  0  0  0  0
 29 28  2  0  0  0  0
 30 19  1  0  0  0  0
 32 21  1  0  0  0  0
 34 23  1  0  0  0  0
 36 24  1  0  0  0  0
 38 25  1  0  0  0  0
 41 27  1  0  0  0  0
 42 49  1  0  0  0  0
 43 51  1  0  0  0  0
 43 42  1  0  0  0  0
 44 52  1  6  0  0  0
 44 43  1  0  0  0  0
 44 45  1  0  0  0  0
 45 53  1  0  0  0  0
 46 44  1  0  0  0  0
 46 47  1  0  0  0  0
 48 46  2  0  0  0  0
 50 43  1  0  0  0  0
M  END
$$$$
