HRT.pdb
 OpenBabel07022418353D

 56 56  0  0  1  0  0  0  0  0999 V2000
   -0.3090   -1.1710    3.6380 N   0  0  0  0  0  0  0  0  0  0  0  0
    0.5380   -1.4570    2.5080 C   0  0  1  0  0  0  0  0  0  0  0  0
    0.6630   -2.9550    2.3780 C   0  0  0  0  0  0  0  0  0  0  0  0
    1.2530   -3.5670    3.5840 C   0  0  0  0  0  0  0  0  0  0  0  0
    2.6160   -3.7780    3.8080 C   0  0  0  0  0  0  0  0  0  0  0  0
    2.6980   -4.3510    5.0190 N   0  0  0  0  0  0  0  0  0  0  0  0
    1.4620   -4.5070    5.5570 C   0  0  0  0  0  0  0  0  0  0  0  0
    0.5880   -4.0190    4.6600 N   0  0  0  0  0  0  0  0  0  0  0  0
   -0.0360   -0.9400    1.2340 C   0  0  0  0  0  0  0  0  0  0  0  0
    0.6280   -1.1270    0.2040 O   0  0  0  0  0  0  0  0  0  0  0  0
   -0.1740   -1.7810    4.4460 H   0  0  0  0  0  0  0  0  0  0  0  0
   -0.3630   -0.1530    3.8600 H   0  0  0  0  0  0  0  0  0  0  0  0
    1.5280   -1.0050    2.6430 H   0  0  0  0  0  0  0  0  0  0  0  0
    1.3420   -3.2320    1.5210 H   0  0  0  0  0  0  0  0  0  0  0  0
   -0.3040   -3.4370    2.1400 H   0  0  0  0  0  0  0  0  0  0  0  0
    3.4470   -3.5410    3.1640 H   0  0  0  0  0  0  0  0  0  0  0  0
    3.5700   -4.6480    5.5090 H   0  0  0  0  0  0  0  0  0  0  0  0
    1.2590   -4.9360    6.5070 H   0  0  0  0  0  0  0  0  0  0  0  0
    1.6610    5.7800   -0.8500 N   0  0  0  0  0  0  0  0  0  0  0  0
    0.8450    4.9460   -0.0470 C   0  0  0  0  0  0  0  0  0  0  0  0
   -0.2180    5.4100    0.4890 N   0  0  0  0  0  0  0  0  0  0  0  0
    1.1680    3.5770    0.1930 N   0  0  0  0  0  0  0  0  0  0  0  0
    0.1090    2.6780    0.6940 C   0  0  0  0  0  0  0  0  0  0  0  0
   -0.8710    2.5300   -0.4100 C   0  0  0  0  0  0  0  0  0  0  0  0
   -2.0590    1.6860   -0.2080 C   0  0  0  0  0  0  0  0  0  0  0  0
   -1.9580    0.2570    0.0560 C   0  0  2  0  0  0  0  0  0  0  0  0
   -1.2810   -0.2630    1.1660 N   0  0  0  0  0  0  0  0  0  0  0  0
   -1.8410   -0.5160   -1.2330 C   0  0  0  0  0  0  0  0  0  0  0  0
   -2.0540    0.1280   -2.3030 O   0  0  0  0  0  0  0  0  0  0  0  0
    1.2460    6.6280   -1.2770 H   0  0  0  0  0  0  0  0  0  0  0  0
    2.6570    5.5700   -1.0230 H   0  0  0  0  0  0  0  0  0  0  0  0
   -0.4760    6.4030    0.3300 H   0  0  0  0  0  0  0  0  0  0  0  0
    2.1120    3.2350    0.0200 H   0  0  0  0  0  0  0  0  0  0  0  0
    0.5260    1.7860    1.1380 H   0  0  0  0  0  0  0  0  0  0  0  0
   -0.3130    3.2690    1.5640 H   0  0  0  0  0  0  0  0  0  0  0  0
   -1.2760    3.5780   -0.5970 H   0  0  0  0  0  0  0  0  0  0  0  0
   -0.3480    2.3280   -1.4010 H   0  0  0  0  0  0  0  0  0  0  0  0
   -2.6860    2.2290    0.5860 H   0  0  0  0  0  0  0  0  0  0  0  0
   -2.7150    1.8780   -1.1280 H   0  0  0  0  0  0  0  0  0  0  0  0
   -3.1090   -0.0380    0.2730 H   0  0  0  0  0  0  0  0  0  0  0  0
   -1.7260   -0.1600    2.1380 H   0  0  0  0  0  0  0  0  0  0  0  0
    0.3950   -4.0200   -1.9150 C   0  0  0  0  0  0  0  0  0  0  0  0
   -0.0260   -2.9710   -2.8990 C   0  0  1  0  0  0  0  0  0  0  0  0
    0.0760   -3.5420   -4.1830 O   0  0  0  0  0  0  0  0  0  0  0  0
   -1.4410   -2.4750   -2.6690 C   0  0  2  0  0  0  0  0  0  0  0  0
   -1.5250   -1.8850   -1.3290 N   0  0  0  0  0  0  0  0  0  0  0  0
   -2.4190   -3.5810   -2.8000 C   0  0  0  0  0  0  0  0  0  0  0  0
   -3.1510   -3.8670   -1.8230 O   0  0  0  0  0  0  0  0  0  0  0  0
   -2.5600   -4.3160   -3.9610 O   0  0  0  0  0  0  0  0  0  0  0  0
    1.2750   -4.5530   -2.3730 H   0  0  0  0  0  0  0  0  0  0  0  0
   -0.3980   -4.7820   -1.7710 H   0  0  0  0  0  0  0  0  0  0  0  0
    0.7710   -3.6120   -0.9620 H   0  0  0  0  0  0  0  0  0  0  0  0
    0.6840   -2.1290   -2.8790 H   0  0  0  0  0  0  0  0  0  0  0  0
    0.9720   -3.9520   -4.2240 H   0  0  0  0  0  0  0  0  0  0  0  0
   -1.6470   -1.7220   -3.4440 H   0  0  0  0  0  0  0  0  0  0  0  0
   -1.3900   -2.4740   -0.4810 H   0  0  0  0  0  0  0  0  0  0  0  0
  1 12  1  0  0  0  0
  1 11  1  0  0  0  0
  2 13  1  1  0  0  0
  2  1  1  0  0  0  0
  3  2  1  0  0  0  0
  3  4  1  0  0  0  0
  4  5  2  0  0  0  0
  4  8  1  0  0  0  0
  5  6  1  0  0  0  0
  6 17  1  0  0  0  0
  6  7  1  0  0  0  0
  7 18  1  0  0  0  0
  8  7  2  0  0  0  0
  9  2  1  0  0  0  0
 10  9  2  0  0  0  0
 14  3  1  0  0  0  0
 15  3  1  0  0  0  0
 16  5  1  0  0  0  0
 19 20  1  0  0  0  0
 20 22  1  0  0  0  0
 20 21  2  0  0  0  0
 22 23  1  0  0  0  0
 23 34  1  0  0  0  0
 23 35  1  0  0  0  0
 24 25  1  0  0  0  0
 24 23  1  0  0  0  0
 25 26  1  0  0  0  0
 25 38  1  0  0  0  0
 26 40  1  1  0  0  0
 26 27  1  0  0  0  0
 27  9  1  0  0  0  0
 27 41  1  0  0  0  0
 28 26  1  0  0  0  0
 29 28  2  0  0  0  0
 30 19  1  0  0  0  0
 31 19  1  0  0  0  0
 32 21  1  0  0  0  0
 33 22  1  0  0  0  0
 36 24  1  0  0  0  0
 37 24  1  0  0  0  0
 39 25  1  0  0  0  0
 42 51  1  0  0  0  0
 42 52  1  0  0  0  0
 43 53  1  1  0  0  0
 43 45  1  0  0  0  0
 43 42  1  0  0  0  0
 44 43  1  0  0  0  0
 45 55  1  6  0  0  0
 45 46  1  0  0  0  0
 46 28  1  0  0  0  0
 46 56  1  0  0  0  0
 47 45  1  0  0  0  0
 47 48  1  0  0  0  0
 49 47  2  0  0  0  0
 50 42  1  0  0  0  0
 54 44  1  0  0  0  0
M  END
$$$$
