HRV.pdb
 OpenBabel07022418353D

 58 58  0  0  1  0  0  0  0  0999 V2000
    1.8710   -1.5220    3.2190 N   0  0  0  0  0  0  0  0  0  0  0  0
    1.8210   -1.1590    1.8360 C   0  0  1  0  0  0  0  0  0  0  0  0
    2.4940   -2.1620    0.9490 C   0  0  0  0  0  0  0  0  0  0  0  0
    3.9320   -2.3210    1.2960 C   0  0  0  0  0  0  0  0  0  0  0  0
    5.0120   -1.6260    0.8020 C   0  0  0  0  0  0  0  0  0  0  0  0
    6.1380   -2.0830    1.3830 N   0  0  0  0  0  0  0  0  0  0  0  0
    5.7910   -3.0490    2.2290 C   0  0  0  0  0  0  0  0  0  0  0  0
    4.4570   -3.2080    2.1910 N   0  0  0  0  0  0  0  0  0  0  0  0
    0.4360   -0.8940    1.3370 C   0  0  0  0  0  0  0  0  0  0  0  0
    0.3580   -0.5760    0.1270 O   0  0  0  0  0  0  0  0  0  0  0  0
    1.3580   -2.3740    3.4680 H   0  0  0  0  0  0  0  0  0  0  0  0
    1.7180   -0.7220    3.8480 H   0  0  0  0  0  0  0  0  0  0  0  0
    2.3650   -0.1820    1.7460 H   0  0  0  0  0  0  0  0  0  0  0  0
    2.3660   -1.9200   -0.1110 H   0  0  0  0  0  0  0  0  0  0  0  0
    2.0160   -3.1470    1.1480 H   0  0  0  0  0  0  0  0  0  0  0  0
    4.9220   -0.8350    0.0570 H   0  0  0  0  0  0  0  0  0  0  0  0
    7.1070   -1.7040    1.1670 H   0  0  0  0  0  0  0  0  0  0  0  0
    6.4850   -3.6210    2.8560 H   0  0  0  0  0  0  0  0  0  0  0  0
   -0.2160    5.2410    0.0820 N   0  0  0  0  0  0  0  0  0  0  0  0
   -0.6030    3.9340    0.5190 C   0  0  0  0  0  0  0  0  0  0  0  0
   -0.7390    3.0360   -0.3920 N   0  0  0  0  0  0  0  0  0  0  0  0
   -0.8250    3.6320    1.8850 N   0  0  0  0  0  0  0  0  0  0  0  0
   -1.0480    2.2480    2.3510 C   0  0  0  0  0  0  0  0  0  0  0  0
   -2.3720    1.7400    1.8490 C   0  0  0  0  0  0  0  0  0  0  0  0
   -2.7690    0.3850    2.2300 C   0  0  0  0  0  0  0  0  0  0  0  0
   -2.0180   -0.8030    1.8360 C   0  0  2  0  0  0  0  0  0  0  0  0
   -0.6810   -1.0040    2.1980 N   0  0  0  0  0  0  0  0  0  0  0  0
   -2.4380   -1.2960    0.4820 C   0  0  0  0  0  0  0  0  0  0  0  0
   -3.4870   -0.7980    0.0040 O   0  0  0  0  0  0  0  0  0  0  0  0
   -0.5110    5.6310   -0.8390 H   0  0  0  0  0  0  0  0  0  0  0  0
    0.3840    5.8560    0.6820 H   0  0  0  0  0  0  0  0  0  0  0  0
   -0.5870    3.2100   -1.3890 H   0  0  0  0  0  0  0  0  0  0  0  0
   -0.8300    4.4140    2.5680 H   0  0  0  0  0  0  0  0  0  0  0  0
   -0.1730    1.7030    2.0170 H   0  0  0  0  0  0  0  0  0  0  0  0
   -1.1200    2.3030    3.4690 H   0  0  0  0  0  0  0  0  0  0  0  0
   -3.1350    2.4410    2.3230 H   0  0  0  0  0  0  0  0  0  0  0  0
   -2.5040    1.9710    0.7600 H   0  0  0  0  0  0  0  0  0  0  0  0
   -2.9170    0.3880    3.3570 H   0  0  0  0  0  0  0  0  0  0  0  0
   -3.8370    0.2460    1.8420 H   0  0  0  0  0  0  0  0  0  0  0  0
   -2.5940   -1.6660    2.4650 H   0  0  0  0  0  0  0  0  0  0  0  0
   -0.4240   -1.2660    3.2020 H   0  0  0  0  0  0  0  0  0  0  0  0
   -0.8860   -1.0240   -2.9200 C   0  0  0  0  0  0  0  0  0  0  0  0
   -1.2960   -2.4400   -2.7090 C   0  0  0  0  0  0  0  0  0  0  0  0
   -0.0650   -3.3170   -2.4800 C   0  0  0  0  0  0  0  0  0  0  0  0
   -2.2630   -2.6770   -1.6020 C   0  0  2  0  0  0  0  0  0  0  0  0
   -1.7700   -2.2670   -0.2870 N   0  0  0  0  0  0  0  0  0  0  0  0
   -2.6170   -4.1200   -1.5970 C   0  0  0  0  0  0  0  0  0  0  0  0
   -3.0570   -4.6460   -2.6440 O   0  0  0  0  0  0  0  0  0  0  0  0
   -2.4520   -4.8510   -0.4270 O   0  0  0  0  0  0  0  0  0  0  0  0
   -0.8890   -0.8220   -4.0300 H   0  0  0  0  0  0  0  0  0  0  0  0
    0.1390   -0.7930   -2.5750 H   0  0  0  0  0  0  0  0  0  0  0  0
   -1.6710   -0.3550   -2.5120 H   0  0  0  0  0  0  0  0  0  0  0  0
   -1.8170   -2.7950   -3.6490 H   0  0  0  0  0  0  0  0  0  0  0  0
    0.3260   -3.2170   -1.4640 H   0  0  0  0  0  0  0  0  0  0  0  0
    0.6770   -3.0340   -3.2760 H   0  0  0  0  0  0  0  0  0  0  0  0
   -0.3950   -4.3650   -2.6320 H   0  0  0  0  0  0  0  0  0  0  0  0
   -3.2210   -2.1180   -1.8270 H   0  0  0  0  0  0  0  0  0  0  0  0
   -0.9220   -2.7580    0.0630 H   0  0  0  0  0  0  0  0  0  0  0  0
  1 11  1  0  0  0  0
  1 12  1  0  0  0  0
  2 13  1  6  0  0  0
  2  1  1  0  0  0  0
  3 15  1  0  0  0  0
  3  4  1  0  0  0  0
  3  2  1  0  0  0  0
  4  8  1  0  0  0  0
  5  4  2  0  0  0  0
  5  6  1  0  0  0  0
  6  7  1  0  0  0  0
  7 18  1  0  0  0  0
  8  7  2  0  0  0  0
  9  2  1  0  0  0  0
  9 27  1  0  0  0  0
 10  9  2  0  0  0  0
 14  3  1  0  0  0  0
 16  5  1  0  0  0  0
 17  6  1  0  0  0  0
 19 20  1  0  0  0  0
 19 31  1  0  0  0  0
 20 22  1  0  0  0  0
 21 20  2  0  0  0  0
 22 23  1  0  0  0  0
 22 33  1  0  0  0  0
 23 35  1  0  0  0  0
 24 25  1  0  0  0  0
 24 36  1  0  0  0  0
 24 23  1  0  0  0  0
 25 38  1  0  0  0  0
 26 27  1  0  0  0  0
 26 25  1  0  0  0  0
 26 40  1  1  0  0  0
 27 41  1  0  0  0  0
 28 26  1  0  0  0  0
 29 28  2  0  0  0  0
 30 19  1  0  0  0  0
 32 21  1  0  0  0  0
 34 23  1  0  0  0  0
 37 24  1  0  0  0  0
 39 25  1  0  0  0  0
 42 43  1  0  0  0  0
 42 51  1  0  0  0  0
 42 52  1  0  0  0  0
 43 44  1  0  0  0  0
 43 45  1  0  0  0  0
 44 54  1  0  0  0  0
 45 57  1  6  0  0  0
 45 47  1  0  0  0  0
 45 46  1  0  0  0  0
 46 58  1  0  0  0  0
 46 28  1  0  0  0  0
 47 49  1  0  0  0  0
 48 47  2  0  0  0  0
 50 42  1  0  0  0  0
 53 43  1  0  0  0  0
 55 44  1  0  0  0  0
 56 44  1  0  0  0  0
M  END
$$$$
