HRY.pdb
 OpenBabel07022418353D

 63 64  0  0  1  0  0  0  0  0999 V2000
    3.1220    1.3280    0.0640 N   0  0  0  0  0  0  0  0  0  0  0  0
    3.3890   -0.0580    0.2830 C   0  0  1  0  0  0  0  0  0  0  0  0
    4.4830   -0.2750    1.3020 C   0  0  0  0  0  0  0  0  0  0  0  0
    5.7240    0.3560    0.8410 C   0  0  0  0  0  0  0  0  0  0  0  0
    6.9210    0.3440    1.5400 C   0  0  0  0  0  0  0  0  0  0  0  0
    7.8250    1.0170    0.8090 N   0  0  0  0  0  0  0  0  0  0  0  0
    7.2320    1.4480   -0.3220 C   0  0  0  0  0  0  0  0  0  0  0  0
    5.9520    1.0410   -0.2940 N   0  0  0  0  0  0  0  0  0  0  0  0
    2.1670   -0.8260    0.6630 C   0  0  0  0  0  0  0  0  0  0  0  0
    2.3480   -2.0720    0.8700 O   0  0  0  0  0  0  0  0  0  0  0  0
    3.6170    1.9730    0.6900 H   0  0  0  0  0  0  0  0  0  0  0  0
    3.1430    1.5910   -0.9370 H   0  0  0  0  0  0  0  0  0  0  0  0
    3.7890   -0.4710   -0.6860 H   0  0  0  0  0  0  0  0  0  0  0  0
    4.2090    0.1150    2.3020 H   0  0  0  0  0  0  0  0  0  0  0  0
    4.6540   -1.3650    1.4200 H   0  0  0  0  0  0  0  0  0  0  0  0
    7.1420   -0.1110    2.5050 H   0  0  0  0  0  0  0  0  0  0  0  0
    8.8220    1.1880    1.0570 H   0  0  0  0  0  0  0  0  0  0  0  0
    7.7430    2.0190   -1.0850 H   0  0  0  0  0  0  0  0  0  0  0  0
   -3.9820    4.0950    2.7960 N   0  0  0  0  0  0  0  0  0  0  0  0
   -3.7030    2.7480    3.1620 C   0  0  0  0  0  0  0  0  0  0  0  0
   -4.5100    1.8010    2.7990 N   0  0  0  0  0  0  0  0  0  0  0  0
   -2.5710    2.3740    3.9150 N   0  0  0  0  0  0  0  0  0  0  0  0
   -2.0320    1.0440    3.8050 C   0  0  0  0  0  0  0  0  0  0  0  0
   -1.4080    0.7900    2.4290 C   0  0  0  0  0  0  0  0  0  0  0  0
   -0.8850   -0.6150    2.4410 C   0  0  0  0  0  0  0  0  0  0  0  0
   -0.2320   -1.0240    1.1520 C   0  0  2  0  0  0  0  0  0  0  0  0
    0.8860   -0.2230    0.7870 N   0  0  0  0  0  0  0  0  0  0  0  0
   -1.2290   -0.9560    0.0450 C   0  0  0  0  0  0  0  0  0  0  0  0
   -1.0210   -0.2580   -0.9960 O   0  0  0  0  0  0  0  0  0  0  0  0
   -4.6200    4.2740    1.9960 H   0  0  0  0  0  0  0  0  0  0  0  0
   -3.5830    4.9160    3.2850 H   0  0  0  0  0  0  0  0  0  0  0  0
   -5.3540    2.0180    2.2470 H   0  0  0  0  0  0  0  0  0  0  0  0
   -2.1280    3.0600    4.5470 H   0  0  0  0  0  0  0  0  0  0  0  0
   -2.8720    0.3310    3.9990 H   0  0  0  0  0  0  0  0  0  0  0  0
   -1.2910    0.8310    4.6130 H   0  0  0  0  0  0  0  0  0  0  0  0
   -2.1850    0.9760    1.6880 H   0  0  0  0  0  0  0  0  0  0  0  0
   -0.5370    1.4700    2.3530 H   0  0  0  0  0  0  0  0  0  0  0  0
   -0.1870   -0.7070    3.2990 H   0  0  0  0  0  0  0  0  0  0  0  0
   -1.7260   -1.3080    2.6410 H   0  0  0  0  0  0  0  0  0  0  0  0
    0.0990   -2.0730    1.2890 H   0  0  0  0  0  0  0  0  0  0  0  0
    0.8550    0.8040    0.5940 H   0  0  0  0  0  0  0  0  0  0  0  0
    0.7810   -5.6250   -3.6980 O   0  0  0  0  0  0  0  0  0  0  0  0
   -0.3370   -4.9410   -3.1950 C   0  0  0  0  0  0  0  0  0  0  0  0
   -0.7780   -5.1300   -1.9050 C   0  0  0  0  0  0  0  0  0  0  0  0
   -1.8830   -4.4330   -1.4610 C   0  0  0  0  0  0  0  0  0  0  0  0
   -2.5650   -3.5430   -2.2780 C   0  0  0  0  0  0  0  0  0  0  0  0
   -3.7350   -2.8580   -1.6800 C   0  0  0  0  0  0  0  0  0  0  0  0
   -3.3940   -1.5640   -1.0120 C   0  0  2  0  0  0  0  0  0  0  0  0
   -2.4680   -1.6490    0.0550 N   0  0  0  0  0  0  0  0  0  0  0  0
   -4.6640   -0.9840   -0.5040 C   0  0  0  0  0  0  0  0  0  0  0  0
   -5.6620   -0.7930   -1.2550 O   0  0  0  0  0  0  0  0  0  0  0  0
   -2.1150   -3.3690   -3.5480 C   0  0  0  0  0  0  0  0  0  0  0  0
   -1.0220   -4.0460   -4.0190 C   0  0  0  0  0  0  0  0  0  0  0  0
   -4.7360   -0.6470    0.8380 O   0  0  0  0  0  0  0  0  0  0  0  0
    1.5510   -5.0080   -3.9980 H   0  0  0  0  0  0  0  0  0  0  0  0
   -0.2560   -5.8260   -1.2450 H   0  0  0  0  0  0  0  0  0  0  0  0
   -2.1840   -4.6260   -0.4280 H   0  0  0  0  0  0  0  0  0  0  0  0
   -4.3060   -3.5480   -1.0150 H   0  0  0  0  0  0  0  0  0  0  0  0
   -4.4230   -2.6220   -2.5200 H   0  0  0  0  0  0  0  0  0  0  0  0
   -3.0330   -0.8780   -1.8110 H   0  0  0  0  0  0  0  0  0  0  0  0
   -2.7100   -2.2440    0.8780 H   0  0  0  0  0  0  0  0  0  0  0  0
   -2.6430   -2.6770   -4.1890 H   0  0  0  0  0  0  0  0  0  0  0  0
   -0.6760   -3.8910   -5.0480 H   0  0  0  0  0  0  0  0  0  0  0  0
  1  2  1  0  0  0  0
  1 11  1  0  0  0  0
  2 13  1  6  0  0  0
  2  9  1  0  0  0  0
  2  3  1  0  0  0  0
  3 15  1  0  0  0  0
  3 14  1  0  0  0  0
  4  3  1  0  0  0  0
  4  5  2  0  0  0  0
  5 16  1  0  0  0  0
  6 17  1  0  0  0  0
  6  5  1  0  0  0  0
  7  8  2  0  0  0  0
  7  6  1  0  0  0  0
  8  4  1  0  0  0  0
  9 27  1  0  0  0  0
  9 10  2  0  0  0  0
 12  1  1  0  0  0  0
 18  7  1  0  0  0  0
 19 20  1  0  0  0  0
 19 31  1  0  0  0  0
 20 22  1  0  0  0  0
 21 20  2  0  0  0  0
 22 33  1  0  0  0  0
 23 22  1  0  0  0  0
 23 34  1  0  0  0  0
 23 35  1  0  0  0  0
 24 25  1  0  0  0  0
 24 23  1  0  0  0  0
 25 39  1  0  0  0  0
 25 38  1  0  0  0  0
 26 40  1  1  0  0  0
 26 25  1  0  0  0  0
 27 26  1  0  0  0  0
 28 49  1  0  0  0  0
 28 26  1  0  0  0  0
 29 28  2  0  0  0  0
 30 19  1  0  0  0  0
 32 21  1  0  0  0  0
 36 24  1  0  0  0  0
 37 24  1  0  0  0  0
 41 27  1  0  0  0  0
 42 43  1  0  0  0  0
 43 44  1  0  0  0  0
 44 45  2  0  0  0  0
 44 56  1  0  0  0  0
 45 57  1  0  0  0  0
 46 47  1  0  0  0  0
 46 45  1  0  0  0  0
 47 58  1  0  0  0  0
 47 48  1  0  0  0  0
 48 60  1  6  0  0  0
 48 50  1  0  0  0  0
 48 49  1  0  0  0  0
 49 61  1  0  0  0  0
 50 54  1  0  0  0  0
 51 50  2  0  0  0  0
 52 46  2  0  0  0  0
 53 52  1  0  0  0  0
 53 43  2  0  0  0  0
 55 42  1  0  0  0  0
 59 47  1  0  0  0  0
 62 52  1  0  0  0  0
 63 53  1  0  0  0  0
M  END
$$$$
