HSA.pdb
 OpenBabel07022418383D

 40 40  0  0  1  0  0  0  0  0999 V2000
    3.2130    1.2670    0.9890 N   0  0  0  0  0  0  0  0  0  0  0  0
    2.5130    1.4910   -0.2520 C   0  0  1  0  0  0  0  0  0  0  0  0
    3.3640    1.2180   -1.4620 C   0  0  0  0  0  0  0  0  0  0  0  0
    3.8640   -0.1460   -1.5570 C   0  0  0  0  0  0  0  0  0  0  0  0
    5.0310   -0.6690   -1.0630 C   0  0  0  0  0  0  0  0  0  0  0  0
    5.0940   -1.9730   -1.3800 N   0  0  0  0  0  0  0  0  0  0  0  0
    3.9810   -2.2820   -2.0670 C   0  0  0  0  0  0  0  0  0  0  0  0
    3.2270   -1.1570   -2.1750 N   0  0  0  0  0  0  0  0  0  0  0  0
    1.2160    0.7710   -0.2900 C   0  0  0  0  0  0  0  0  0  0  0  0
    0.4730    0.8560   -1.3020 O   0  0  0  0  0  0  0  0  0  0  0  0
    2.6750    1.7990    1.7350 H   0  0  0  0  0  0  0  0  0  0  0  0
    3.2680    0.2890    1.2830 H   0  0  0  0  0  0  0  0  0  0  0  0
    2.2740    2.5770   -0.2820 H   0  0  0  0  0  0  0  0  0  0  0  0
    4.2210    1.9290   -1.4210 H   0  0  0  0  0  0  0  0  0  0  0  0
    2.7670    1.5300   -2.3520 H   0  0  0  0  0  0  0  0  0  0  0  0
    5.8100   -0.1590   -0.5030 H   0  0  0  0  0  0  0  0  0  0  0  0
    5.8350   -2.6720   -1.1660 H   0  0  0  0  0  0  0  0  0  0  0  0
    3.6600   -3.2230   -2.4950 H   0  0  0  0  0  0  0  0  0  0  0  0
    0.5470   -2.5730   -0.2430 O   0  0  0  0  0  0  0  0  0  0  0  0
   -0.2590   -2.2210    0.8310 C   0  0  0  0  0  0  0  0  0  0  0  0
   -0.5380   -0.7360    0.7250 C   0  0  2  0  0  0  0  0  0  0  0  0
    0.7310   -0.0380    0.7730 N   0  0  0  0  0  0  0  0  0  0  0  0
   -1.3510   -0.2480    1.8690 C   0  0  0  0  0  0  0  0  0  0  0  0
   -0.9120    0.6280    2.6820 O   0  0  0  0  0  0  0  0  0  0  0  0
    0.1270   -2.3500   -1.0960 H   0  0  0  0  0  0  0  0  0  0  0  0
   -1.1830   -2.8250    0.7680 H   0  0  0  0  0  0  0  0  0  0  0  0
    0.2410   -2.4840    1.7790 H   0  0  0  0  0  0  0  0  0  0  0  0
   -1.0830   -0.5720   -0.2200 H   0  0  0  0  0  0  0  0  0  0  0  0
    1.3000   -0.1400    1.6220 H   0  0  0  0  0  0  0  0  0  0  0  0
   -4.7470    0.2960    2.7130 C   0  0  0  0  0  0  0  0  0  0  0  0
   -3.4260   -0.2490    3.2210 C   0  0  2  0  0  0  0  0  0  0  0  0
   -2.6680   -0.7540    2.0930 N   0  0  0  0  0  0  0  0  0  0  0  0
   -3.7440   -1.3700    4.1570 C   0  0  0  0  0  0  0  0  0  0  0  0
   -4.3930   -1.1900    5.2090 O   0  0  0  0  0  0  0  0  0  0  0  0
   -3.3060   -2.6540    3.8480 O   0  0  0  0  0  0  0  0  0  0  0  0
   -4.9770   -0.1990    1.7560 H   0  0  0  0  0  0  0  0  0  0  0  0
   -5.5220    0.1100    3.4790 H   0  0  0  0  0  0  0  0  0  0  0  0
   -4.6390    1.3960    2.6170 H   0  0  0  0  0  0  0  0  0  0  0  0
   -2.8570    0.5020    3.7940 H   0  0  0  0  0  0  0  0  0  0  0  0
   -3.0260   -1.4650    1.4360 H   0  0  0  0  0  0  0  0  0  0  0  0
  1 12  1  0  0  0  0
  1 11  1  0  0  0  0
  2 13  1  6  0  0  0
  2  1  1  0  0  0  0
  3 14  1  0  0  0  0
  3  2  1  0  0  0  0
  4  3  1  0  0  0  0
  4  5  2  0  0  0  0
  5 16  1  0  0  0  0
  6 17  1  0  0  0  0
  6  5  1  0  0  0  0
  7  6  1  0  0  0  0
  8  7  2  0  0  0  0
  8  4  1  0  0  0  0
  9  2  1  0  0  0  0
  9 22  1  0  0  0  0
 10  9  2  0  0  0  0
 15  3  1  0  0  0  0
 18  7  1  0  0  0  0
 19 20  1  0  0  0  0
 20 27  1  0  0  0  0
 21 28  1  6  0  0  0
 21 22  1  0  0  0  0
 21 20  1  0  0  0  0
 21 23  1  0  0  0  0
 22 29  1  0  0  0  0
 23 32  1  0  0  0  0
 23 24  2  0  0  0  0
 25 19  1  0  0  0  0
 26 20  1  0  0  0  0
 30 31  1  0  0  0  0
 30 37  1  0  0  0  0
 31 39  1  1  0  0  0
 31 33  1  0  0  0  0
 32 31  1  0  0  0  0
 33 34  1  0  0  0  0
 35 33  2  0  0  0  0
 36 30  1  0  0  0  0
 38 30  1  0  0  0  0
 40 32  1  0  0  0  0
M  END
$$$$
