HSC.pdb
 OpenBabel07022418383D

 41 41  0  0  1  0  0  0  0  0999 V2000
    2.9500   -3.5440    2.7600 N   0  0  0  0  0  0  0  0  0  0  0  0
    3.2690   -2.5070    1.7920 C   0  0  1  0  0  0  0  0  0  0  0  0
    3.3250   -2.9810    0.3750 C   0  0  0  0  0  0  0  0  0  0  0  0
    3.7210   -1.8810   -0.5200 C   0  0  0  0  0  0  0  0  0  0  0  0
    4.0860   -0.6030   -0.1190 C   0  0  0  0  0  0  0  0  0  0  0  0
    4.4210    0.1100   -1.2080 N   0  0  0  0  0  0  0  0  0  0  0  0
    4.2790   -0.6790   -2.2830 C   0  0  0  0  0  0  0  0  0  0  0  0
    3.8550   -1.8850   -1.8670 N   0  0  0  0  0  0  0  0  0  0  0  0
    2.2820   -1.3910    1.9950 C   0  0  0  0  0  0  0  0  0  0  0  0
    2.2550   -0.9060    3.1620 O   0  0  0  0  0  0  0  0  0  0  0  0
    2.1300   -4.1140    2.4750 H   0  0  0  0  0  0  0  0  0  0  0  0
    3.7660   -4.0760    3.0790 H   0  0  0  0  0  0  0  0  0  0  0  0
    4.2600   -2.0950    2.0670 H   0  0  0  0  0  0  0  0  0  0  0  0
    4.1300   -3.7520    0.3270 H   0  0  0  0  0  0  0  0  0  0  0  0
    2.3680   -3.4390    0.0360 H   0  0  0  0  0  0  0  0  0  0  0  0
    4.1210   -0.1790    0.8850 H   0  0  0  0  0  0  0  0  0  0  0  0
    4.7410    1.1150   -1.2280 H   0  0  0  0  0  0  0  0  0  0  0  0
    4.4780   -0.3780   -3.3170 H   0  0  0  0  0  0  0  0  0  0  0  0
    0.7070    0.8890   -0.9470 O   0  0  0  0  0  0  0  0  0  0  0  0
    0.8370    1.3430    0.3660 C   0  0  0  0  0  0  0  0  0  0  0  0
    0.4890    0.2230    1.2880 C   0  0  2  0  0  0  0  0  0  0  0  0
    1.4250   -0.8790    1.0170 N   0  0  0  0  0  0  0  0  0  0  0  0
   -0.8760   -0.2990    1.0800 C   0  0  0  0  0  0  0  0  0  0  0  0
   -1.1020   -1.4820    0.7340 O   0  0  0  0  0  0  0  0  0  0  0  0
    0.0220    1.3770   -1.4530 H   0  0  0  0  0  0  0  0  0  0  0  0
    1.9310    1.5560    0.5030 H   0  0  0  0  0  0  0  0  0  0  0  0
    0.3060    2.2780    0.5600 H   0  0  0  0  0  0  0  0  0  0  0  0
    0.6040    0.5320    2.3520 H   0  0  0  0  0  0  0  0  0  0  0  0
    1.4090   -1.2830    0.0610 H   0  0  0  0  0  0  0  0  0  0  0  0
   -2.0050    0.5640    1.2750 N   0  0  0  0  0  0  0  0  0  0  0  0
   -3.3580    0.1160    1.0880 C   0  0  1  0  0  0  0  0  0  0  0  0
   -4.0880    0.2530    2.4100 C   0  0  0  0  0  0  0  0  0  0  0  0
   -5.8080   -0.2900    2.2710 S   0  0  0  0  0  0  0  0  0  0  0  0
   -3.9960    0.9530    0.0490 C   0  0  0  0  0  0  0  0  0  0  0  0
   -3.3380    1.8710   -0.4930 O   0  0  0  0  0  0  0  0  0  0  0  0
   -5.3160    0.7480   -0.3440 O   0  0  0  0  0  0  0  0  0  0  0  0
   -1.7980    1.5400    1.5610 H   0  0  0  0  0  0  0  0  0  0  0  0
   -3.4250   -0.9410    0.7850 H   0  0  0  0  0  0  0  0  0  0  0  0
   -3.5680   -0.4200    3.1320 H   0  0  0  0  0  0  0  0  0  0  0  0
   -4.0060    1.3140    2.7140 H   0  0  0  0  0  0  0  0  0  0  0  0
   -5.9790   -1.5440    2.8820 H   0  0  0  0  0  0  0  0  0  0  0  0
  1 12  1  0  0  0  0
  2  9  1  0  0  0  0
  2 13  1  1  0  0  0
  2  1  1  0  0  0  0
  3  2  1  0  0  0  0
  4  5  2  0  0  0  0
  4  3  1  0  0  0  0
  5 16  1  0  0  0  0
  6  5  1  0  0  0  0
  7  8  2  0  0  0  0
  7  6  1  0  0  0  0
  8  4  1  0  0  0  0
  9 10  2  0  0  0  0
 11  1  1  0  0  0  0
 14  3  1  0  0  0  0
 15  3  1  0  0  0  0
 17  6  1  0  0  0  0
 18  7  1  0  0  0  0
 19 20  1  0  0  0  0
 20 26  1  0  0  0  0
 20 27  1  0  0  0  0
 20 21  1  0  0  0  0
 21 28  1  1  0  0  0
 22 21  1  0  0  0  0
 22  9  1  0  0  0  0
 23 30  1  0  0  0  0
 23 21  1  0  0  0  0
 24 23  2  0  0  0  0
 25 19  1  0  0  0  0
 29 22  1  0  0  0  0
 30 37  1  0  0  0  0
 31 38  1  6  0  0  0
 31 30  1  0  0  0  0
 31 32  1  0  0  0  0
 32 40  1  0  0  0  0
 32 39  1  0  0  0  0
 33 32  1  0  0  0  0
 33 41  1  0  0  0  0
 34 31  1  0  0  0  0
 35 34  2  0  0  0  0
 36 34  1  0  0  0  0
M  END
$$$$
