HSE.pdb
 OpenBabel07022418383D

 46 46  0  0  1  0  0  0  0  0999 V2000
   -1.3910    2.6750    2.3640 N   0  0  0  0  0  0  0  0  0  0  0  0
   -0.5350    2.4970    1.2060 C   0  0  1  0  0  0  0  0  0  0  0  0
    0.1610    3.7630    0.9090 C   0  0  0  0  0  0  0  0  0  0  0  0
    1.0270    3.7240   -0.2890 C   0  0  0  0  0  0  0  0  0  0  0  0
    1.2630    2.7730   -1.2330 C   0  0  0  0  0  0  0  0  0  0  0  0
    2.1170    3.2810   -2.1290 N   0  0  0  0  0  0  0  0  0  0  0  0
    2.4250    4.5170   -1.7780 C   0  0  0  0  0  0  0  0  0  0  0  0
    1.7680    4.8210   -0.6470 N   0  0  0  0  0  0  0  0  0  0  0  0
    0.3830    1.3920    1.5780 C   0  0  0  0  0  0  0  0  0  0  0  0
    1.6130    1.4420    1.2160 O   0  0  0  0  0  0  0  0  0  0  0  0
   -1.9950    1.8880    2.5880 H   0  0  0  0  0  0  0  0  0  0  0  0
   -1.8450    3.6020    2.3910 H   0  0  0  0  0  0  0  0  0  0  0  0
   -1.1800    2.1750    0.3560 H   0  0  0  0  0  0  0  0  0  0  0  0
   -0.5980    4.5410    0.7050 H   0  0  0  0  0  0  0  0  0  0  0  0
    0.7490    4.1140    1.7810 H   0  0  0  0  0  0  0  0  0  0  0  0
    0.8390    1.7950   -1.2780 H   0  0  0  0  0  0  0  0  0  0  0  0
    2.5130    2.8130   -2.9940 H   0  0  0  0  0  0  0  0  0  0  0  0
    3.0870    5.2290   -2.2660 H   0  0  0  0  0  0  0  0  0  0  0  0
    1.0320   -0.3150    4.9730 O   0  0  0  0  0  0  0  0  0  0  0  0
    0.8250   -1.3060    4.0450 C   0  0  0  0  0  0  0  0  0  0  0  0
    0.9440   -0.8040    2.6530 C   0  0  2  0  0  0  0  0  0  0  0  0
    0.0120    0.2600    2.3100 N   0  0  0  0  0  0  0  0  0  0  0  0
    0.7910   -1.9490    1.7000 C   0  0  0  0  0  0  0  0  0  0  0  0
    1.5530   -2.9280    1.8590 O   0  0  0  0  0  0  0  0  0  0  0  0
    1.9840   -0.0840    5.0770 H   0  0  0  0  0  0  0  0  0  0  0  0
    1.5990   -2.0950    4.1990 H   0  0  0  0  0  0  0  0  0  0  0  0
   -0.1880   -1.7290    4.2440 H   0  0  0  0  0  0  0  0  0  0  0  0
    1.9660   -0.4230    2.4690 H   0  0  0  0  0  0  0  0  0  0  0  0
   -0.9650    0.1600    2.6240 H   0  0  0  0  0  0  0  0  0  0  0  0
   -0.1520   -1.9560    0.6680 N   0  0  0  0  0  0  0  0  0  0  0  0
   -0.3430   -3.0320   -0.2930 C   0  0  1  0  0  0  0  0  0  0  0  0
   -1.6740   -3.6900   -0.1370 C   0  0  0  0  0  0  0  0  0  0  0  0
   -1.8840   -4.3100    1.2090 C   0  0  0  0  0  0  0  0  0  0  0  0
   -0.9330   -5.3750    1.5260 C   0  0  0  0  0  0  0  0  0  0  0  0
   -0.9210   -5.8660    2.6830 O   0  0  0  0  0  0  0  0  0  0  0  0
   -0.1400   -2.5500   -1.6720 C   0  0  0  0  0  0  0  0  0  0  0  0
    0.1680   -1.3590   -1.8690 O   0  0  0  0  0  0  0  0  0  0  0  0
   -0.0420   -5.8660    0.6010 O   0  0  0  0  0  0  0  0  0  0  0  0
   -0.2880   -3.4040   -2.7400 O   0  0  0  0  0  0  0  0  0  0  0  0
   -0.7850   -1.1310    0.5660 H   0  0  0  0  0  0  0  0  0  0  0  0
    0.4640   -3.7610   -0.0860 H   0  0  0  0  0  0  0  0  0  0  0  0
   -1.7940   -4.4650   -0.9320 H   0  0  0  0  0  0  0  0  0  0  0  0
   -2.4810   -2.9150   -0.2830 H   0  0  0  0  0  0  0  0  0  0  0  0
   -1.8570   -3.5160    1.9930 H   0  0  0  0  0  0  0  0  0  0  0  0
   -2.9010   -4.7820    1.2110 H   0  0  0  0  0  0  0  0  0  0  0  0
    0.4700   -6.7250    0.7560 H   0  0  0  0  0  0  0  0  0  0  0  0
  1 12  1  0  0  0  0
  1 11  1  0  0  0  0
  2 13  1  6  0  0  0
  2  9  1  0  0  0  0
  2  1  1  0  0  0  0
  3  2  1  0  0  0  0
  3 15  1  0  0  0  0
  4  3  1  0  0  0  0
  5  4  2  0  0  0  0
  6  7  1  0  0  0  0
  6  5  1  0  0  0  0
  7  8  2  0  0  0  0
  8  4  1  0  0  0  0
  9 22  1  0  0  0  0
 10  9  2  0  0  0  0
 14  3  1  0  0  0  0
 16  5  1  0  0  0  0
 17  6  1  0  0  0  0
 18  7  1  0  0  0  0
 19 25  1  0  0  0  0
 20 26  1  0  0  0  0
 20 27  1  0  0  0  0
 20 19  1  0  0  0  0
 21 28  1  6  0  0  0
 21 20  1  0  0  0  0
 22 29  1  0  0  0  0
 22 21  1  0  0  0  0
 23 24  2  0  0  0  0
 23 21  1  0  0  0  0
 30 23  1  0  0  0  0
 31 32  1  0  0  0  0
 31 41  1  1  0  0  0
 31 30  1  0  0  0  0
 32 33  1  0  0  0  0
 33 45  1  0  0  0  0
 33 34  1  0  0  0  0
 33 44  1  0  0  0  0
 34 35  2  0  0  0  0
 36 31  1  0  0  0  0
 37 36  1  0  0  0  0
 38 46  1  0  0  0  0
 38 34  1  0  0  0  0
 39 36  2  0  0  0  0
 40 30  1  0  0  0  0
 42 32  1  0  0  0  0
 43 32  1  0  0  0  0
M  END
$$$$
