HSF.pdb
 OpenBabel07022418383D

 50 51  0  0  1  0  0  0  0  0999 V2000
    4.5860   -0.9540    4.4260 N   0  0  0  0  0  0  0  0  0  0  0  0
    4.0580   -0.7620    3.0250 C   0  0  1  0  0  0  0  0  0  0  0  0
    4.2900   -2.0860    2.3980 C   0  0  0  0  0  0  0  0  0  0  0  0
    3.9300   -2.2680    1.0020 C   0  0  0  0  0  0  0  0  0  0  0  0
    3.4400   -1.4800    0.0120 C   0  0  0  0  0  0  0  0  0  0  0  0
    3.3180   -2.1940   -1.1350 N   0  0  0  0  0  0  0  0  0  0  0  0
    3.7370   -3.4330   -0.8530 C   0  0  0  0  0  0  0  0  0  0  0  0
    4.1040   -3.4950    0.4120 N   0  0  0  0  0  0  0  0  0  0  0  0
    2.6020   -0.4880    3.2780 C   0  0  0  0  0  0  0  0  0  0  0  0
    2.0680   -1.0290    4.2860 O   0  0  0  0  0  0  0  0  0  0  0  0
    4.1310   -0.2910    5.0610 H   0  0  0  0  0  0  0  0  0  0  0  0
    5.6120   -0.9410    4.4050 H   0  0  0  0  0  0  0  0  0  0  0  0
    4.5920    0.0800    2.6190 H   0  0  0  0  0  0  0  0  0  0  0  0
    5.3680   -2.3840    2.5060 H   0  0  0  0  0  0  0  0  0  0  0  0
    3.6950   -2.8350    2.9910 H   0  0  0  0  0  0  0  0  0  0  0  0
    3.1940   -0.4420    0.1100 H   0  0  0  0  0  0  0  0  0  0  0  0
    2.9690   -1.8560   -2.0620 H   0  0  0  0  0  0  0  0  0  0  0  0
    3.7840   -4.2900   -1.5350 H   0  0  0  0  0  0  0  0  0  0  0  0
    0.9420    2.3570    4.1900 O   0  0  0  0  0  0  0  0  0  0  0  0
    0.1690    2.0160    3.0780 C   0  0  0  0  0  0  0  0  0  0  0  0
    0.3700    0.5540    2.7730 C   0  0  2  0  0  0  0  0  0  0  0  0
    1.7840    0.3230    2.4910 N   0  0  0  0  0  0  0  0  0  0  0  0
   -0.4730    0.1250    1.6370 C   0  0  0  0  0  0  0  0  0  0  0  0
    0.0610   -0.3600    0.6160 O   0  0  0  0  0  0  0  0  0  0  0  0
    0.3470    2.6300    4.9520 H   0  0  0  0  0  0  0  0  0  0  0  0
   -0.9080    2.1780    3.2960 H   0  0  0  0  0  0  0  0  0  0  0  0
    0.4750    2.6520    2.2120 H   0  0  0  0  0  0  0  0  0  0  0  0
    0.1370   -0.0250    3.6870 H   0  0  0  0  0  0  0  0  0  0  0  0
    2.1610    0.8190    1.6690 H   0  0  0  0  0  0  0  0  0  0  0  0
   -1.8780    0.2260    1.6190 N   0  0  0  0  0  0  0  0  0  0  0  0
   -2.6190   -0.2170    0.4820 C   0  0  1  0  0  0  0  0  0  0  0  0
   -2.4700    0.5390   -0.7500 C   0  0  0  0  0  0  0  0  0  0  0  0
   -3.2860   -0.0260   -1.8460 C   0  0  0  0  0  0  0  0  0  0  0  0
   -4.6370    0.3260   -1.9930 C   0  0  0  0  0  0  0  0  0  0  0  0
   -5.4150   -0.1600   -3.0180 C   0  0  0  0  0  0  0  0  0  0  0  0
   -4.8970   -1.0240   -3.9570 C   0  0  0  0  0  0  0  0  0  0  0  0
   -3.5740   -1.3840   -3.8340 C   0  0  0  0  0  0  0  0  0  0  0  0
   -2.8030   -0.8930   -2.8050 C   0  0  0  0  0  0  0  0  0  0  0  0
   -2.3640   -1.6670    0.3320 C   0  0  0  0  0  0  0  0  0  0  0  0
   -2.9070   -2.3460   -0.5490 O   0  0  0  0  0  0  0  0  0  0  0  0
   -1.4870   -2.3650    1.1860 O   0  0  0  0  0  0  0  0  0  0  0  0
   -2.4000    0.6210    2.4240 H   0  0  0  0  0  0  0  0  0  0  0  0
   -3.7200   -0.1700    0.7690 H   0  0  0  0  0  0  0  0  0  0  0  0
   -2.8910    1.5790   -0.5870 H   0  0  0  0  0  0  0  0  0  0  0  0
   -1.4420    0.6290   -1.1540 H   0  0  0  0  0  0  0  0  0  0  0  0
   -5.0330    1.0070   -1.2470 H   0  0  0  0  0  0  0  0  0  0  0  0
   -6.4620    0.1210   -3.1210 H   0  0  0  0  0  0  0  0  0  0  0  0
   -5.5200   -1.4140   -4.7790 H   0  0  0  0  0  0  0  0  0  0  0  0
   -3.1490   -2.0630   -4.5640 H   0  0  0  0  0  0  0  0  0  0  0  0
   -1.7530   -1.1760   -2.7150 H   0  0  0  0  0  0  0  0  0  0  0  0
  1 11  1  0  0  0  0
  2 13  1  6  0  0  0
  2  9  1  0  0  0  0
  2  1  1  0  0  0  0
  3 14  1  0  0  0  0
  3 15  1  0  0  0  0
  3  2  1  0  0  0  0
  4  3  1  0  0  0  0
  5 16  1  0  0  0  0
  5  4  2  0  0  0  0
  6  7  1  0  0  0  0
  6  5  1  0  0  0  0
  7  8  2  0  0  0  0
  8  4  1  0  0  0  0
  9 10  2  0  0  0  0
 12  1  1  0  0  0  0
 17  6  1  0  0  0  0
 18  7  1  0  0  0  0
 19 25  1  0  0  0  0
 20 26  1  0  0  0  0
 20 19  1  0  0  0  0
 21 20  1  0  0  0  0
 21 28  1  1  0  0  0
 22 21  1  0  0  0  0
 22  9  1  0  0  0  0
 23 21  1  0  0  0  0
 24 23  2  0  0  0  0
 27 20  1  0  0  0  0
 29 22  1  0  0  0  0
 30 23  1  0  0  0  0
 30 42  1  0  0  0  0
 31 43  1  1  0  0  0
 31 30  1  0  0  0  0
 32 44  1  0  0  0  0
 32 31  1  0  0  0  0
 33 32  1  0  0  0  0
 34 33  1  0  0  0  0
 34 46  1  0  0  0  0
 35 34  2  0  0  0  0
 36 37  2  0  0  0  0
 36 35  1  0  0  0  0
 37 38  1  0  0  0  0
 38 50  1  0  0  0  0
 38 33  2  0  0  0  0
 39 31  1  0  0  0  0
 39 41  1  0  0  0  0
 40 39  2  0  0  0  0
 45 32  1  0  0  0  0
 47 35  1  0  0  0  0
 48 36  1  0  0  0  0
 49 37  1  0  0  0  0
M  END
$$$$
