HSI.pdb
 OpenBabel07022418383D

 49 49  0  0  1  0  0  0  0  0999 V2000
    1.4280   -1.1070    3.1440 N   0  0  0  0  0  0  0  0  0  0  0  0
    2.2870   -0.3240    2.2920 C   0  0  1  0  0  0  0  0  0  0  0  0
    3.6930   -0.8440    2.4740 C   0  0  0  0  0  0  0  0  0  0  0  0
    4.7110   -0.1520    1.6740 C   0  0  0  0  0  0  0  0  0  0  0  0
    5.1580   -0.4610    0.4150 C   0  0  0  0  0  0  0  0  0  0  0  0
    6.1010    0.4240    0.0650 N   0  0  0  0  0  0  0  0  0  0  0  0
    6.2370    1.2730    1.0970 C   0  0  0  0  0  0  0  0  0  0  0  0
    5.3980    0.9310    2.0760 N   0  0  0  0  0  0  0  0  0  0  0  0
    1.9140   -0.3790    0.8740 C   0  0  0  0  0  0  0  0  0  0  0  0
    2.5700    0.3140    0.0590 O   0  0  0  0  0  0  0  0  0  0  0  0
    1.3980   -2.0970    2.8210 H   0  0  0  0  0  0  0  0  0  0  0  0
    0.5220   -0.6820    3.3430 H   0  0  0  0  0  0  0  0  0  0  0  0
    2.2420    0.7270    2.6320 H   0  0  0  0  0  0  0  0  0  0  0  0
    3.7230   -1.9490    2.2710 H   0  0  0  0  0  0  0  0  0  0  0  0
    3.9870   -0.7660    3.5560 H   0  0  0  0  0  0  0  0  0  0  0  0
    4.8270   -1.2830   -0.2280 H   0  0  0  0  0  0  0  0  0  0  0  0
    6.6500    0.4720   -0.8410 H   0  0  0  0  0  0  0  0  0  0  0  0
    6.9360    2.1140    1.1110 H   0  0  0  0  0  0  0  0  0  0  0  0
    0.3130   -2.3970   -3.0250 O   0  0  0  0  0  0  0  0  0  0  0  0
    0.6520   -2.5370   -1.6700 C   0  0  0  0  0  0  0  0  0  0  0  0
    0.5340   -1.1810   -1.0430 C   0  0  2  0  0  0  0  0  0  0  0  0
    0.8540   -1.1670    0.3570 N   0  0  0  0  0  0  0  0  0  0  0  0
   -0.8370   -0.6080   -1.2100 C   0  0  0  0  0  0  0  0  0  0  0  0
   -1.3940   -0.4950   -2.3250 O   0  0  0  0  0  0  0  0  0  0  0  0
    0.5210   -1.4900   -3.3630 H   0  0  0  0  0  0  0  0  0  0  0  0
    1.6950   -2.8530   -1.6320 H   0  0  0  0  0  0  0  0  0  0  0  0
   -0.0580   -3.2700   -1.2470 H   0  0  0  0  0  0  0  0  0  0  0  0
    1.2630   -0.5080   -1.5800 H   0  0  0  0  0  0  0  0  0  0  0  0
    0.3080   -1.7370    1.0110 H   0  0  0  0  0  0  0  0  0  0  0  0
   -2.8110   -1.7130    2.2430 C   0  0  0  0  0  0  0  0  0  0  0  0
   -3.8850   -0.7530    1.8680 C   0  0  0  0  0  0  0  0  0  0  0  0
   -4.0010   -0.4320    0.4210 C   0  0  2  0  0  0  0  0  0  0  0  0
   -4.2720   -1.6850   -0.3780 C   0  0  0  0  0  0  0  0  0  0  0  0
   -2.8930    0.4020   -0.1600 C   0  0  2  0  0  0  0  0  0  0  0  0
   -1.5890   -0.1520   -0.0770 N   0  0  0  0  0  0  0  0  0  0  0  0
   -2.9620    1.8130    0.3260 C   0  0  0  0  0  0  0  0  0  0  0  0
   -4.0450    2.4490    0.3170 O   0  0  0  0  0  0  0  0  0  0  0  0
   -1.8470    2.4820    0.8040 O   0  0  0  0  0  0  0  0  0  0  0  0
   -3.2060   -2.5350    2.9130 H   0  0  0  0  0  0  0  0  0  0  0  0
   -2.0290   -1.1870    2.8220 H   0  0  0  0  0  0  0  0  0  0  0  0
   -2.3170   -2.2200    1.3980 H   0  0  0  0  0  0  0  0  0  0  0  0
   -3.8190    0.1430    2.5210 H   0  0  0  0  0  0  0  0  0  0  0  0
   -4.8710   -1.2240    2.1580 H   0  0  0  0  0  0  0  0  0  0  0  0
   -4.9330    0.2080    0.2620 H   0  0  0  0  0  0  0  0  0  0  0  0
   -4.0730   -1.4230   -1.4490 H   0  0  0  0  0  0  0  0  0  0  0  0
   -5.3690   -1.9220   -0.3290 H   0  0  0  0  0  0  0  0  0  0  0  0
   -3.6660   -2.5440   -0.0910 H   0  0  0  0  0  0  0  0  0  0  0  0
   -3.1390    0.4480   -1.2680 H   0  0  0  0  0  0  0  0  0  0  0  0
   -1.1090   -0.2460    0.8420 H   0  0  0  0  0  0  0  0  0  0  0  0
  1 12  1  0  0  0  0
  2  3  1  0  0  0  0
  2 13  1  1  0  0  0
  2  1  1  0  0  0  0
  3 15  1  0  0  0  0
  4  8  1  0  0  0  0
  4  3  1  0  0  0  0
  5  4  2  0  0  0  0
  6  5  1  0  0  0  0
  6  7  1  0  0  0  0
  7 18  1  0  0  0  0
  7  8  2  0  0  0  0
  9  2  1  0  0  0  0
 10  9  2  0  0  0  0
 11  1  1  0  0  0  0
 14  3  1  0  0  0  0
 16  5  1  0  0  0  0
 17  6  1  0  0  0  0
 19 20  1  0  0  0  0
 20 26  1  0  0  0  0
 20 27  1  0  0  0  0
 20 21  1  0  0  0  0
 21 28  1  6  0  0  0
 21 22  1  0  0  0  0
 22  9  1  0  0  0  0
 22 29  1  0  0  0  0
 23 21  1  0  0  0  0
 23 35  1  0  0  0  0
 24 23  2  0  0  0  0
 25 19  1  0  0  0  0
 30 40  1  0  0  0  0
 30 39  1  0  0  0  0
 31 43  1  0  0  0  0
 31 30  1  0  0  0  0
 31 42  1  0  0  0  0
 32 44  1  6  0  0  0
 32 31  1  0  0  0  0
 33 46  1  0  0  0  0
 33 47  1  0  0  0  0
 33 32  1  0  0  0  0
 34 48  1  6  0  0  0
 34 35  1  0  0  0  0
 34 36  1  0  0  0  0
 34 32  1  0  0  0  0
 35 49  1  0  0  0  0
 36 38  1  0  0  0  0
 37 36  2  0  0  0  0
 41 30  1  0  0  0  0
 45 33  1  0  0  0  0
M  END
$$$$
