HSK.pdb
 OpenBabel07022418383D

 51 51  0  0  1  0  0  0  0  0999 V2000
    2.0300   -1.5430   -1.4110 N   0  0  0  0  0  0  0  0  0  0  0  0
    2.9280   -0.8310   -0.5250 C   0  0  1  0  0  0  0  0  0  0  0  0
    4.0500   -0.2430   -1.3540 C   0  0  0  0  0  0  0  0  0  0  0  0
    5.0400    0.5110   -0.5830 C   0  0  0  0  0  0  0  0  0  0  0  0
    5.0200    1.8540   -0.2950 C   0  0  0  0  0  0  0  0  0  0  0  0
    6.0950    2.1510    0.4180 N   0  0  0  0  0  0  0  0  0  0  0  0
    6.8020    1.0230    0.5920 C   0  0  0  0  0  0  0  0  0  0  0  0
    6.1580    0.0210   -0.0200 N   0  0  0  0  0  0  0  0  0  0  0  0
    2.2490    0.1470    0.3260 C   0  0  0  0  0  0  0  0  0  0  0  0
    2.9510    0.7800    1.1670 O   0  0  0  0  0  0  0  0  0  0  0  0
    2.6180   -1.9740   -2.1590 H   0  0  0  0  0  0  0  0  0  0  0  0
    1.3450   -0.9310   -1.8880 H   0  0  0  0  0  0  0  0  0  0  0  0
    3.3860   -1.6030    0.1340 H   0  0  0  0  0  0  0  0  0  0  0  0
    4.5890   -1.1130   -1.8350 H   0  0  0  0  0  0  0  0  0  0  0  0
    3.6750    0.3500   -2.2210 H   0  0  0  0  0  0  0  0  0  0  0  0
    4.2560    2.5470   -0.5990 H   0  0  0  0  0  0  0  0  0  0  0  0
    6.3820    3.0900    0.8010 H   0  0  0  0  0  0  0  0  0  0  0  0
    7.7380    0.8860    1.1240 H   0  0  0  0  0  0  0  0  0  0  0  0
   -0.7670    3.5420    1.3170 O   0  0  0  0  0  0  0  0  0  0  0  0
   -0.2060    2.6520    0.4090 C   0  0  0  0  0  0  0  0  0  0  0  0
    0.2690    1.4330    1.1730 C   0  0  2  0  0  0  0  0  0  0  0  0
    0.8690    0.4540    0.2980 N   0  0  0  0  0  0  0  0  0  0  0  0
   -0.8450    0.7970    1.9260 C   0  0  0  0  0  0  0  0  0  0  0  0
   -1.4760    1.5070    2.7750 O   0  0  0  0  0  0  0  0  0  0  0  0
   -0.7150    4.4490    0.8690 H   0  0  0  0  0  0  0  0  0  0  0  0
   -0.9360    2.4370   -0.3670 H   0  0  0  0  0  0  0  0  0  0  0  0
    0.7220    3.1470    0.0260 H   0  0  0  0  0  0  0  0  0  0  0  0
    1.0760    1.8130    1.8360 H   0  0  0  0  0  0  0  0  0  0  0  0
    0.2680   -0.0410   -0.3740 H   0  0  0  0  0  0  0  0  0  0  0  0
   -1.2450   -0.5540    1.7520 N   0  0  0  0  0  0  0  0  0  0  0  0
   -2.3240   -1.1910    2.4730 C   0  0  1  0  0  0  0  0  0  0  0  0
   -3.4800   -1.5480    1.5680 C   0  0  0  0  0  0  0  0  0  0  0  0
   -3.0620   -2.5000    0.4710 C   0  0  0  0  0  0  0  0  0  0  0  0
   -4.2200   -2.8450   -0.4300 C   0  0  0  0  0  0  0  0  0  0  0  0
   -5.3510   -3.5050    0.3150 C   0  0  0  0  0  0  0  0  0  0  0  0
   -4.9030   -4.7380    0.9310 N   0  0  0  0  0  0  0  0  0  0  0  0
   -1.8380   -2.4180    3.1190 C   0  0  0  0  0  0  0  0  0  0  0  0
   -2.6240   -3.1090    3.7970 O   0  0  0  0  0  0  0  0  0  0  0  0
   -0.5280   -2.8190    2.9880 O   0  0  0  0  0  0  0  0  0  0  0  0
   -0.7120   -1.1110    1.0520 H   0  0  0  0  0  0  0  0  0  0  0  0
   -2.7610   -0.4840    3.2330 H   0  0  0  0  0  0  0  0  0  0  0  0
   -4.2430   -2.0540    2.1950 H   0  0  0  0  0  0  0  0  0  0  0  0
   -3.9440   -0.6310    1.1720 H   0  0  0  0  0  0  0  0  0  0  0  0
   -2.3280   -1.9350   -0.1670 H   0  0  0  0  0  0  0  0  0  0  0  0
   -2.5480   -3.3830    0.8440 H   0  0  0  0  0  0  0  0  0  0  0  0
   -4.5700   -1.9410   -0.9530 H   0  0  0  0  0  0  0  0  0  0  0  0
   -3.8710   -3.5670   -1.1890 H   0  0  0  0  0  0  0  0  0  0  0  0
   -6.1020   -3.8150   -0.4700 H   0  0  0  0  0  0  0  0  0  0  0  0
   -5.8870   -2.8420    0.9970 H   0  0  0  0  0  0  0  0  0  0  0  0
   -3.9190   -4.9840    0.6990 H   0  0  0  0  0  0  0  0  0  0  0  0
   -5.5830   -5.5110    0.7710 H   0  0  0  0  0  0  0  0  0  0  0  0
  1  2  1  0  0  0  0
  2 13  1  1  0  0  0
  2  9  1  0  0  0  0
  3  4  1  0  0  0  0
  3  2  1  0  0  0  0
  4  5  2  0  0  0  0
  4  8  1  0  0  0  0
  5  6  1  0  0  0  0
  6  7  1  0  0  0  0
  6 17  1  0  0  0  0
  7 18  1  0  0  0  0
  8  7  2  0  0  0  0
  9 10  2  0  0  0  0
 11  1  1  0  0  0  0
 12  1  1  0  0  0  0
 14  3  1  0  0  0  0
 15  3  1  0  0  0  0
 16  5  1  0  0  0  0
 20 21  1  0  0  0  0
 20 19  1  0  0  0  0
 21 28  1  1  0  0  0
 21 23  1  0  0  0  0
 22  9  1  0  0  0  0
 22 21  1  0  0  0  0
 23 24  2  0  0  0  0
 25 19  1  0  0  0  0
 26 20  1  0  0  0  0
 27 20  1  0  0  0  0
 29 22  1  0  0  0  0
 30 23  1  0  0  0  0
 30 31  1  0  0  0  0
 31 37  1  0  0  0  0
 31 41  1  1  0  0  0
 32 42  1  0  0  0  0
 32 31  1  0  0  0  0
 33 45  1  0  0  0  0
 33 32  1  0  0  0  0
 34 35  1  0  0  0  0
 34 33  1  0  0  0  0
 35 36  1  0  0  0  0
 35 49  1  0  0  0  0
 37 38  1  0  0  0  0
 39 37  2  0  0  0  0
 40 30  1  0  0  0  0
 43 32  1  0  0  0  0
 44 33  1  0  0  0  0
 46 34  1  0  0  0  0
 47 34  1  0  0  0  0
 48 35  1  0  0  0  0
 50 36  1  0  0  0  0
 51 36  1  0  0  0  0
M  END
$$$$
