HSL.pdb
 OpenBabel07022418383D

 49 49  0  0  1  0  0  0  0  0999 V2000
    1.4440   -2.7110    3.3230 N   0  0  0  0  0  0  0  0  0  0  0  0
    2.3500   -2.0730    2.3430 C   0  0  1  0  0  0  0  0  0  0  0  0
    2.5440   -2.9620    1.1880 C   0  0  0  0  0  0  0  0  0  0  0  0
    3.4640   -2.5130    0.1470 C   0  0  0  0  0  0  0  0  0  0  0  0
    4.2530   -1.3880    0.0930 C   0  0  0  0  0  0  0  0  0  0  0  0
    4.9510   -1.4360   -1.0490 N   0  0  0  0  0  0  0  0  0  0  0  0
    4.6180   -2.5440   -1.6900 C   0  0  0  0  0  0  0  0  0  0  0  0
    3.7190   -3.2040   -0.9770 N   0  0  0  0  0  0  0  0  0  0  0  0
    1.8110   -0.7210    2.0370 C   0  0  0  0  0  0  0  0  0  0  0  0
    1.6370    0.1230    2.9510 O   0  0  0  0  0  0  0  0  0  0  0  0
    0.4580   -2.6650    3.0070 H   0  0  0  0  0  0  0  0  0  0  0  0
    1.7390   -3.7130    3.3680 H   0  0  0  0  0  0  0  0  0  0  0  0
    3.3280   -1.9500    2.8910 H   0  0  0  0  0  0  0  0  0  0  0  0
    2.9030   -3.9860    1.5050 H   0  0  0  0  0  0  0  0  0  0  0  0
    1.5440   -3.1190    0.6820 H   0  0  0  0  0  0  0  0  0  0  0  0
    4.3120   -0.5820    0.8480 H   0  0  0  0  0  0  0  0  0  0  0  0
    5.6440   -0.7160   -1.3780 H   0  0  0  0  0  0  0  0  0  0  0  0
    5.0080   -2.8880   -2.6620 H   0  0  0  0  0  0  0  0  0  0  0  0
    3.0410    1.9370   -0.0410 O   0  0  0  0  0  0  0  0  0  0  0  0
    1.7390    1.7900   -0.5050 C   0  0  0  0  0  0  0  0  0  0  0  0
    0.9560    1.0000    0.4820 C   0  0  2  0  0  0  0  0  0  0  0  0
    1.4660   -0.3170    0.7310 N   0  0  0  0  0  0  0  0  0  0  0  0
   -0.4690    0.8460    0.0170 C   0  0  0  0  0  0  0  0  0  0  0  0
   -1.1570    1.8680   -0.2790 O   0  0  0  0  0  0  0  0  0  0  0  0
    2.9740    2.1760    0.9200 H   0  0  0  0  0  0  0  0  0  0  0  0
    1.3040    2.8100   -0.5510 H   0  0  0  0  0  0  0  0  0  0  0  0
    1.6970    1.3920   -1.5370 H   0  0  0  0  0  0  0  0  0  0  0  0
    0.9180    1.5540    1.4360 H   0  0  0  0  0  0  0  0  0  0  0  0
    1.5360   -0.9360   -0.1090 H   0  0  0  0  0  0  0  0  0  0  0  0
   -2.3010   -0.0270    2.4300 C   0  0  0  0  0  0  0  0  0  0  0  0
   -3.5610   -0.3100    1.6720 C   0  0  0  0  0  0  0  0  0  0  0  0
   -4.7000    0.4590    2.3260 C   0  0  0  0  0  0  0  0  0  0  0  0
   -3.4990    0.0720    0.2300 C   0  0  0  0  0  0  0  0  0  0  0  0
   -2.4430   -0.6380   -0.5430 C   0  0  2  0  0  0  0  0  0  0  0  0
   -1.0920   -0.4270   -0.1070 N   0  0  0  0  0  0  0  0  0  0  0  0
   -2.5720   -0.4250   -2.0130 C   0  0  0  0  0  0  0  0  0  0  0  0
   -1.5370   -0.1040   -2.6500 O   0  0  0  0  0  0  0  0  0  0  0  0
   -3.7500   -0.5610   -2.6940 O   0  0  0  0  0  0  0  0  0  0  0  0
   -2.0420    1.0520    2.3920 H   0  0  0  0  0  0  0  0  0  0  0  0
   -1.4730   -0.7050    2.2230 H   0  0  0  0  0  0  0  0  0  0  0  0
   -2.5440   -0.1940    3.5320 H   0  0  0  0  0  0  0  0  0  0  0  0
   -3.7370   -1.4160    1.7650 H   0  0  0  0  0  0  0  0  0  0  0  0
   -4.2920    1.4460    2.5970 H   0  0  0  0  0  0  0  0  0  0  0  0
   -5.0410   -0.0980    3.2300 H   0  0  0  0  0  0  0  0  0  0  0  0
   -5.4990    0.5480    1.5670 H   0  0  0  0  0  0  0  0  0  0  0  0
   -4.5090   -0.1540   -0.2260 H   0  0  0  0  0  0  0  0  0  0  0  0
   -3.3240    1.1830    0.2090 H   0  0  0  0  0  0  0  0  0  0  0  0
   -2.6610   -1.7490   -0.4130 H   0  0  0  0  0  0  0  0  0  0  0  0
   -0.4570   -1.2430    0.1510 H   0  0  0  0  0  0  0  0  0  0  0  0
  1 12  1  0  0  0  0
  2 13  1  1  0  0  0
  2  1  1  0  0  0  0
  3 14  1  0  0  0  0
  3  2  1  0  0  0  0
  4  3  1  0  0  0  0
  5  4  2  0  0  0  0
  5 16  1  0  0  0  0
  6  5  1  0  0  0  0
  7  6  1  0  0  0  0
  7  8  2  0  0  0  0
  8  4  1  0  0  0  0
  9  2  1  0  0  0  0
  9 10  2  0  0  0  0
 11  1  1  0  0  0  0
 15  3  1  0  0  0  0
 17  6  1  0  0  0  0
 18  7  1  0  0  0  0
 19 25  1  0  0  0  0
 20 19  1  0  0  0  0
 20 21  1  0  0  0  0
 21 22  1  0  0  0  0
 21 28  1  1  0  0  0
 22  9  1  0  0  0  0
 23 21  1  0  0  0  0
 24 23  2  0  0  0  0
 26 20  1  0  0  0  0
 27 20  1  0  0  0  0
 29 22  1  0  0  0  0
 30 41  1  0  0  0  0
 31 42  1  0  0  0  0
 31 32  1  0  0  0  0
 31 30  1  0  0  0  0
 32 43  1  0  0  0  0
 32 44  1  0  0  0  0
 33 31  1  0  0  0  0
 34 48  1  1  0  0  0
 34 35  1  0  0  0  0
 34 33  1  0  0  0  0
 35 23  1  0  0  0  0
 35 49  1  0  0  0  0
 36 34  1  0  0  0  0
 37 36  1  0  0  0  0
 38 36  2  0  0  0  0
 39 30  1  0  0  0  0
 40 30  1  0  0  0  0
 45 32  1  0  0  0  0
 46 33  1  0  0  0  0
 47 33  1  0  0  0  0
M  END
$$$$
