HSM.pdb
 OpenBabel07022418383D

 47 47  0  0  1  0  0  0  0  0999 V2000
    1.1590   -2.9590    0.6810 N   0  0  0  0  0  0  0  0  0  0  0  0
    2.1010   -1.8740    0.9050 C   0  0  1  0  0  0  0  0  0  0  0  0
    3.4250   -2.3240    0.3420 C   0  0  0  0  0  0  0  0  0  0  0  0
    4.4530   -1.2830    0.5250 C   0  0  0  0  0  0  0  0  0  0  0  0
    5.3010   -1.1090    1.5910 C   0  0  0  0  0  0  0  0  0  0  0  0
    6.0610   -0.0420    1.3280 N   0  0  0  0  0  0  0  0  0  0  0  0
    5.7060    0.4440    0.1380 C   0  0  0  0  0  0  0  0  0  0  0  0
    4.7210   -0.3150   -0.3560 N   0  0  0  0  0  0  0  0  0  0  0  0
    1.6170   -0.6040    0.3300 C   0  0  0  0  0  0  0  0  0  0  0  0
    2.3180    0.4240    0.4920 O   0  0  0  0  0  0  0  0  0  0  0  0
    1.0050   -3.0940   -0.3450 H   0  0  0  0  0  0  0  0  0  0  0  0
    1.6160   -3.8270    1.0550 H   0  0  0  0  0  0  0  0  0  0  0  0
    2.1770   -1.7390    1.9960 H   0  0  0  0  0  0  0  0  0  0  0  0
    3.7150   -3.2530    0.8790 H   0  0  0  0  0  0  0  0  0  0  0  0
    3.3240   -2.6240   -0.7300 H   0  0  0  0  0  0  0  0  0  0  0  0
    5.3570   -1.7250    2.4970 H   0  0  0  0  0  0  0  0  0  0  0  0
    6.7980    0.3360    1.9520 H   0  0  0  0  0  0  0  0  0  0  0  0
    6.1490    1.3180   -0.3510 H   0  0  0  0  0  0  0  0  0  0  0  0
   -0.7110    1.9290   -2.8680 O   0  0  0  0  0  0  0  0  0  0  0  0
   -0.2670    0.6750   -2.4510 C   0  0  0  0  0  0  0  0  0  0  0  0
   -0.0620    0.7440   -0.9510 C   0  0  2  0  0  0  0  0  0  0  0  0
    0.3990   -0.4900   -0.3970 N   0  0  0  0  0  0  0  0  0  0  0  0
   -1.3910    1.1510   -0.3760 C   0  0  0  0  0  0  0  0  0  0  0  0
   -1.9460    2.2120   -0.7450 O   0  0  0  0  0  0  0  0  0  0  0  0
   -0.0200    2.6130   -2.8680 H   0  0  0  0  0  0  0  0  0  0  0  0
    0.6300    0.4120   -3.0110 H   0  0  0  0  0  0  0  0  0  0  0  0
   -1.1270   -0.0260   -2.6670 H   0  0  0  0  0  0  0  0  0  0  0  0
    0.6290    1.5840   -0.7510 H   0  0  0  0  0  0  0  0  0  0  0  0
   -0.1670   -1.3580   -0.5190 H   0  0  0  0  0  0  0  0  0  0  0  0
   -2.6380   -1.9230    3.5990 C   0  0  0  0  0  0  0  0  0  0  0  0
   -4.1040   -2.2650    2.6670 S   0  0  0  0  0  0  0  0  0  0  0  0
   -4.1620   -1.7760    0.9800 C   0  0  0  0  0  0  0  0  0  0  0  0
   -4.2910   -0.3360    0.7320 C   0  0  0  0  0  0  0  0  0  0  0  0
   -3.2450    0.6140    1.1770 C   0  0  2  0  0  0  0  0  0  0  0  0
   -1.9770    0.2920    0.5860 N   0  0  0  0  0  0  0  0  0  0  0  0
   -3.2180    0.9520    2.5990 C   0  0  0  0  0  0  0  0  0  0  0  0
   -4.3130    1.0850    3.2000 O   0  0  0  0  0  0  0  0  0  0  0  0
   -2.0510    1.1480    3.3540 O   0  0  0  0  0  0  0  0  0  0  0  0
   -2.9020   -1.2220    4.4450 H   0  0  0  0  0  0  0  0  0  0  0  0
   -1.7780   -1.5340    3.0380 H   0  0  0  0  0  0  0  0  0  0  0  0
   -2.2700   -2.8370    4.1620 H   0  0  0  0  0  0  0  0  0  0  0  0
   -5.0790   -2.2610    0.4880 H   0  0  0  0  0  0  0  0  0  0  0  0
   -3.2860   -2.2190    0.3860 H   0  0  0  0  0  0  0  0  0  0  0  0
   -5.2550    0.0100    1.2600 H   0  0  0  0  0  0  0  0  0  0  0  0
   -4.5330   -0.1400   -0.3620 H   0  0  0  0  0  0  0  0  0  0  0  0
   -3.5340    1.6130    0.6320 H   0  0  0  0  0  0  0  0  0  0  0  0
   -1.4780   -0.6060    0.8780 H   0  0  0  0  0  0  0  0  0  0  0  0
  1  2  1  0  0  0  0
  1 12  1  0  0  0  0
  2 13  1  1  0  0  0
  3  4  1  0  0  0  0
  3 14  1  0  0  0  0
  3  2  1  0  0  0  0
  4  5  2  0  0  0  0
  5 16  1  0  0  0  0
  6  5  1  0  0  0  0
  6 17  1  0  0  0  0
  7  6  1  0  0  0  0
  8  7  2  0  0  0  0
  8  4  1  0  0  0  0
  9 10  2  0  0  0  0
  9  2  1  0  0  0  0
 11  1  1  0  0  0  0
 15  3  1  0  0  0  0
 18  7  1  0  0  0  0
 19 20  1  0  0  0  0
 20 21  1  0  0  0  0
 21 28  1  1  0  0  0
 21 22  1  0  0  0  0
 21 23  1  0  0  0  0
 22  9  1  0  0  0  0
 23 35  1  0  0  0  0
 24 23  2  0  0  0  0
 25 19  1  0  0  0  0
 26 20  1  0  0  0  0
 27 20  1  0  0  0  0
 29 22  1  0  0  0  0
 30 41  1  0  0  0  0
 30 39  1  0  0  0  0
 31 30  1  0  0  0  0
 32 31  1  0  0  0  0
 33 32  1  0  0  0  0
 33 34  1  0  0  0  0
 33 44  1  0  0  0  0
 34 46  1  6  0  0  0
 34 36  1  0  0  0  0
 35 47  1  0  0  0  0
 35 34  1  0  0  0  0
 36 37  2  0  0  0  0
 36 38  1  0  0  0  0
 40 30  1  0  0  0  0
 42 32  1  0  0  0  0
 43 32  1  0  0  0  0
 45 33  1  0  0  0  0
M  END
$$$$
