HSN.pdb
 OpenBabel07022418383D

 44 44  0  0  1  0  0  0  0  0999 V2000
    0.9570    0.4860    3.4470 N   0  0  0  0  0  0  0  0  0  0  0  0
    2.2110    0.4710    2.6660 C   0  0  1  0  0  0  0  0  0  0  0  0
    2.7160   -0.9480    2.7770 C   0  0  0  0  0  0  0  0  0  0  0  0
    3.9710   -1.2350    2.1080 C   0  0  0  0  0  0  0  0  0  0  0  0
    4.8250   -0.4020    1.4310 C   0  0  0  0  0  0  0  0  0  0  0  0
    5.8740   -1.1670    1.0330 N   0  0  0  0  0  0  0  0  0  0  0  0
    5.6940   -2.4300    1.4400 C   0  0  0  0  0  0  0  0  0  0  0  0
    4.5430   -2.4840    2.0940 N   0  0  0  0  0  0  0  0  0  0  0  0
    1.7880    0.7770    1.2650 C   0  0  0  0  0  0  0  0  0  0  0  0
    2.3570    1.6830    0.6130 O   0  0  0  0  0  0  0  0  0  0  0  0
    0.2230    0.0980    2.8380 H   0  0  0  0  0  0  0  0  0  0  0  0
    1.0570   -0.1680    4.2540 H   0  0  0  0  0  0  0  0  0  0  0  0
    2.8760    1.2150    3.0800 H   0  0  0  0  0  0  0  0  0  0  0  0
    2.8300   -1.2070    3.8720 H   0  0  0  0  0  0  0  0  0  0  0  0
    1.9010   -1.6590    2.4450 H   0  0  0  0  0  0  0  0  0  0  0  0
    4.7550    0.6500    1.2190 H   0  0  0  0  0  0  0  0  0  0  0  0
    6.7000   -0.7980    0.4860 H   0  0  0  0  0  0  0  0  0  0  0  0
    6.3720   -3.2790    1.2730 H   0  0  0  0  0  0  0  0  0  0  0  0
    0.6030   -0.1670   -3.0230 O   0  0  0  0  0  0  0  0  0  0  0  0
    0.9780   -0.5590   -1.7430 C   0  0  0  0  0  0  0  0  0  0  0  0
    0.3970    0.4400   -0.7420 C   0  0  2  0  0  0  0  0  0  0  0  0
    0.7510    0.0770    0.6070 N   0  0  0  0  0  0  0  0  0  0  0  0
   -1.0670    0.5110   -0.9450 C   0  0  0  0  0  0  0  0  0  0  0  0
   -1.5520    0.8270   -2.0670 O   0  0  0  0  0  0  0  0  0  0  0  0
    0.9010   -0.8670   -3.6790 H   0  0  0  0  0  0  0  0  0  0  0  0
    2.0910   -0.4190   -1.7000 H   0  0  0  0  0  0  0  0  0  0  0  0
    0.6900   -1.5940   -1.5360 H   0  0  0  0  0  0  0  0  0  0  0  0
    0.8540    1.4140   -0.9850 H   0  0  0  0  0  0  0  0  0  0  0  0
    0.2410   -0.7030    1.0580 H   0  0  0  0  0  0  0  0  0  0  0  0
   -2.8370   -3.1520    0.9990 N   0  0  0  0  0  0  0  0  0  0  0  0
   -3.5600   -1.9210    1.0030 C   0  0  0  0  0  0  0  0  0  0  0  0
   -3.9410   -1.4290    2.1130 O   0  0  0  0  0  0  0  0  0  0  0  0
   -3.8910   -1.1770   -0.2090 C   0  0  0  0  0  0  0  0  0  0  0  0
   -3.4570    0.2830   -0.1200 C   0  0  2  0  0  0  0  0  0  0  0  0
   -2.0050    0.2320    0.0790 N   0  0  0  0  0  0  0  0  0  0  0  0
   -4.1700    1.0760    0.8580 C   0  0  0  0  0  0  0  0  0  0  0  0
   -5.4220    1.1270    0.7830 O   0  0  0  0  0  0  0  0  0  0  0  0
   -3.5860    1.8090    1.9020 O   0  0  0  0  0  0  0  0  0  0  0  0
   -3.2100   -4.0270    0.5670 H   0  0  0  0  0  0  0  0  0  0  0  0
   -1.8850   -3.2030    1.4450 H   0  0  0  0  0  0  0  0  0  0  0  0
   -4.9800   -1.1590   -0.4480 H   0  0  0  0  0  0  0  0  0  0  0  0
   -3.3840   -1.6310   -1.0820 H   0  0  0  0  0  0  0  0  0  0  0  0
   -3.6630    0.6860   -1.1530 H   0  0  0  0  0  0  0  0  0  0  0  0
   -1.6330   -0.0210    1.0220 H   0  0  0  0  0  0  0  0  0  0  0  0
  1 12  1  0  0  0  0
  2  3  1  0  0  0  0
  2 13  1  1  0  0  0
  2  1  1  0  0  0  0
  3 14  1  0  0  0  0
  4  3  1  0  0  0  0
  5  4  2  0  0  0  0
  6  5  1  0  0  0  0
  6  7  1  0  0  0  0
  7  8  2  0  0  0  0
  8  4  1  0  0  0  0
  9  2  1  0  0  0  0
 10  9  2  0  0  0  0
 11  1  1  0  0  0  0
 15  3  1  0  0  0  0
 16  5  1  0  0  0  0
 17  6  1  0  0  0  0
 18  7  1  0  0  0  0
 19 20  1  0  0  0  0
 20 26  1  0  0  0  0
 20 27  1  0  0  0  0
 20 21  1  0  0  0  0
 21 28  1  6  0  0  0
 21 22  1  0  0  0  0
 22 29  1  0  0  0  0
 22  9  1  0  0  0  0
 23 21  1  0  0  0  0
 23 35  1  0  0  0  0
 24 23  2  0  0  0  0
 25 19  1  0  0  0  0
 30 31  1  0  0  0  0
 30 40  1  0  0  0  0
 31 32  2  0  0  0  0
 33 34  1  0  0  0  0
 33 31  1  0  0  0  0
 34 43  1  6  0  0  0
 34 35  1  0  0  0  0
 34 36  1  0  0  0  0
 35 44  1  0  0  0  0
 36 38  1  0  0  0  0
 37 36  2  0  0  0  0
 39 30  1  0  0  0  0
 41 33  1  0  0  0  0
 42 33  1  0  0  0  0
M  END
$$$$
