HSP.pdb
 OpenBabel07022418383D

 44 45  0  0  1  0  0  0  0  0999 V2000
    0.0430   -3.2180    0.9910 N   0  0  0  0  0  0  0  0  0  0  0  0
    1.1940   -2.6390    1.6280 C   0  0  1  0  0  0  0  0  0  0  0  0
    2.3660   -3.5410    1.4430 C   0  0  0  0  0  0  0  0  0  0  0  0
    2.7500   -3.8160    0.0580 C   0  0  0  0  0  0  0  0  0  0  0  0
    2.1680   -3.3660   -1.1000 C   0  0  0  0  0  0  0  0  0  0  0  0
    2.8640   -3.8870   -2.1290 N   0  0  0  0  0  0  0  0  0  0  0  0
    3.8450   -4.6360   -1.6130 C   0  0  0  0  0  0  0  0  0  0  0  0
    3.8080   -4.6160   -0.2730 N   0  0  0  0  0  0  0  0  0  0  0  0
    1.4760   -1.2440    1.2200 C   0  0  0  0  0  0  0  0  0  0  0  0
    2.4900   -0.6510    1.6580 O   0  0  0  0  0  0  0  0  0  0  0  0
   -0.8580   -2.9200    1.3910 H   0  0  0  0  0  0  0  0  0  0  0  0
    0.1300   -4.2290    0.8120 H   0  0  0  0  0  0  0  0  0  0  0  0
    0.9480   -2.6050    2.7350 H   0  0  0  0  0  0  0  0  0  0  0  0
    3.2270   -3.1120    2.0120 H   0  0  0  0  0  0  0  0  0  0  0  0
    2.1310   -4.5050    1.9700 H   0  0  0  0  0  0  0  0  0  0  0  0
    1.3080   -2.7150   -1.2110 H   0  0  0  0  0  0  0  0  0  0  0  0
    2.6440   -3.7130   -3.1440 H   0  0  0  0  0  0  0  0  0  0  0  0
    4.5850   -5.1930   -2.1670 H   0  0  0  0  0  0  0  0  0  0  0  0
    2.0580    0.2310   -2.0850 O   0  0  0  0  0  0  0  0  0  0  0  0
    0.9780    0.9620   -1.5910 C   0  0  0  0  0  0  0  0  0  0  0  0
    0.8380    0.8060   -0.0950 C   0  0  2  0  0  0  0  0  0  0  0  0
    0.6310   -0.5200    0.3330 N   0  0  0  0  0  0  0  0  0  0  0  0
   -0.0670    1.8440    0.4410 C   0  0  0  0  0  0  0  0  0  0  0  0
    0.0730    3.0560   -0.0230 O   0  0  0  0  0  0  0  0  0  0  0  0
    1.7490   -0.5680   -2.5820 H   0  0  0  0  0  0  0  0  0  0  0  0
    0.0430    0.7680   -2.1260 H   0  0  0  0  0  0  0  0  0  0  0  0
    1.2320    2.0390   -1.7700 H   0  0  0  0  0  0  0  0  0  0  0  0
    1.8650    1.1050    0.3100 H   0  0  0  0  0  0  0  0  0  0  0  0
   -0.2230   -1.0180   -0.0660 H   0  0  0  0  0  0  0  0  0  0  0  0
   -1.0820    1.6950    1.4080 N   0  0  0  0  0  0  0  0  0  0  0  0
   -1.5800    0.6070    2.1890 C   0  0  0  0  0  0  0  0  0  0  0  0
   -3.0740    0.6810    1.9360 C   0  0  0  0  0  0  0  0  0  0  0  0
   -3.2980    2.1880    1.8290 C   0  0  0  0  0  0  0  0  0  0  0  0
   -1.9270    2.8210    1.8270 C   0  0  1  0  0  0  0  0  0  0  0  0
   -1.6200    3.3050    3.1700 C   0  0  0  0  0  0  0  0  0  0  0  0
   -2.3120    4.2620    3.6060 O   0  0  0  0  0  0  0  0  0  0  0  0
   -0.6420    2.8150    4.0130 O   0  0  0  0  0  0  0  0  0  0  0  0
   -1.4220    0.7460    3.2820 H   0  0  0  0  0  0  0  0  0  0  0  0
   -1.1320   -0.3240    1.9180 H   0  0  0  0  0  0  0  0  0  0  0  0
   -3.6180    0.2580    2.8010 H   0  0  0  0  0  0  0  0  0  0  0  0
   -3.3780    0.1740    1.0100 H   0  0  0  0  0  0  0  0  0  0  0  0
   -3.8010    2.4200    0.8730 H   0  0  0  0  0  0  0  0  0  0  0  0
   -3.9140    2.5120    2.6890 H   0  0  0  0  0  0  0  0  0  0  0  0
   -1.8640    3.6730    1.1280 H   0  0  0  0  0  0  0  0  0  0  0  0
  1 11  1  0  0  0  0
  1  2  1  0  0  0  0
  2 13  1  1  0  0  0
  3  2  1  0  0  0  0
  3 15  1  0  0  0  0
  3 14  1  0  0  0  0
  4  3  1  0  0  0  0
  5  4  2  0  0  0  0
  6  7  1  0  0  0  0
  6  5  1  0  0  0  0
  7  8  2  0  0  0  0
  8  4  1  0  0  0  0
  9  2  1  0  0  0  0
  9 10  2  0  0  0  0
 12  1  1  0  0  0  0
 16  5  1  0  0  0  0
 17  6  1  0  0  0  0
 18  7  1  0  0  0  0
 19 20  1  0  0  0  0
 20 21  1  0  0  0  0
 21 28  1  1  0  0  0
 21 22  1  0  0  0  0
 21 23  1  0  0  0  0
 22  9  1  0  0  0  0
 23 30  1  0  0  0  0
 24 23  2  0  0  0  0
 25 19  1  0  0  0  0
 26 20  1  0  0  0  0
 27 20  1  0  0  0  0
 29 22  1  0  0  0  0
 30 34  1  0  0  0  0
 30 31  1  0  0  0  0
 31 38  1  0  0  0  0
 32 31  1  0  0  0  0
 32 40  1  0  0  0  0
 33 32  1  0  0  0  0
 33 43  1  0  0  0  0
 34 44  1  6  0  0  0
 34 33  1  0  0  0  0
 34 35  1  0  0  0  0
 35 36  2  0  0  0  0
 35 37  1  0  0  0  0
 39 31  1  0  0  0  0
 41 32  1  0  0  0  0
 42 33  1  0  0  0  0
M  END
$$$$
