HSQ.pdb
 OpenBabel07022418383D

 47 47  0  0  1  0  0  0  0  0999 V2000
    1.9880   -3.7480    3.9700 N   0  0  0  0  0  0  0  0  0  0  0  0
    1.9460   -2.4370    3.1850 C   0  0  1  0  0  0  0  0  0  0  0  0
    2.6880   -2.8050    1.9420 C   0  0  0  0  0  0  0  0  0  0  0  0
    2.9600   -1.7630    0.9640 C   0  0  0  0  0  0  0  0  0  0  0  0
    2.7900   -0.4040    1.0580 C   0  0  0  0  0  0  0  0  0  0  0  0
    3.2460    0.2190   -0.0550 N   0  0  0  0  0  0  0  0  0  0  0  0
    3.7070   -0.7510   -0.8560 C   0  0  0  0  0  0  0  0  0  0  0  0
    3.5460   -1.9400   -0.2680 N   0  0  0  0  0  0  0  0  0  0  0  0
    0.4740   -2.2440    2.9720 C   0  0  0  0  0  0  0  0  0  0  0  0
   -0.2910   -3.2750    3.1460 O   0  0  0  0  0  0  0  0  0  0  0  0
    3.0140   -3.9360    4.0000 H   0  0  0  0  0  0  0  0  0  0  0  0
    1.7050   -3.4480    4.9340 H   0  0  0  0  0  0  0  0  0  0  0  0
    2.3620   -1.6590    3.7710 H   0  0  0  0  0  0  0  0  0  0  0  0
    2.1070   -3.6660    1.4930 H   0  0  0  0  0  0  0  0  0  0  0  0
    3.6790   -3.2310    2.2660 H   0  0  0  0  0  0  0  0  0  0  0  0
    2.3870    0.1760    1.8720 H   0  0  0  0  0  0  0  0  0  0  0  0
    3.2380    1.2550   -0.2470 H   0  0  0  0  0  0  0  0  0  0  0  0
    4.1430   -0.5410   -1.8430 H   0  0  0  0  0  0  0  0  0  0  0  0
   -1.8560    1.2320    3.1790 O   0  0  0  0  0  0  0  0  0  0  0  0
   -2.3050   -0.0700    3.3680 C   0  0  0  0  0  0  0  0  0  0  0  0
   -1.6400   -1.0480    2.4450 C   0  0  2  0  0  0  0  0  0  0  0  0
   -0.2040   -1.0950    2.6110 N   0  0  0  0  0  0  0  0  0  0  0  0
   -1.9560   -0.8230    1.0270 C   0  0  0  0  0  0  0  0  0  0  0  0
   -3.1720   -0.7350    0.6800 O   0  0  0  0  0  0  0  0  0  0  0  0
   -0.9310    1.2670    3.5330 H   0  0  0  0  0  0  0  0  0  0  0  0
   -3.3870   -0.0700    3.1210 H   0  0  0  0  0  0  0  0  0  0  0  0
   -2.2000   -0.4250    4.3930 H   0  0  0  0  0  0  0  0  0  0  0  0
   -2.0350   -2.0530    2.6970 H   0  0  0  0  0  0  0  0  0  0  0  0
    0.2890   -0.2050    2.4560 H   0  0  0  0  0  0  0  0  0  0  0  0
   -3.0950    3.3250   -0.6220 N   0  0  0  0  0  0  0  0  0  0  0  0
   -2.5010    2.2520   -1.3730 C   0  0  0  0  0  0  0  0  0  0  0  0
   -3.1740    1.5430   -2.1300 O   0  0  0  0  0  0  0  0  0  0  0  0
   -1.0640    2.0400   -1.2000 C   0  0  0  0  0  0  0  0  0  0  0  0
   -0.6020    0.7810   -1.8700 C   0  0  0  0  0  0  0  0  0  0  0  0
   -1.2050   -0.4810   -1.3570 C   0  0  2  0  0  0  0  0  0  0  0  0
   -0.9370   -0.7040    0.0510 N   0  0  0  0  0  0  0  0  0  0  0  0
   -0.7650   -1.6500   -2.1610 C   0  0  0  0  0  0  0  0  0  0  0  0
   -0.2470   -2.6400   -1.5990 O   0  0  0  0  0  0  0  0  0  0  0  0
   -0.9180   -1.6690   -3.5320 O   0  0  0  0  0  0  0  0  0  0  0  0
   -3.9310    3.7700   -1.0140 H   0  0  0  0  0  0  0  0  0  0  0  0
   -2.7110    3.6520    0.2790 H   0  0  0  0  0  0  0  0  0  0  0  0
   -0.5170    2.8800   -1.6940 H   0  0  0  0  0  0  0  0  0  0  0  0
   -0.7720    1.9790   -0.1280 H   0  0  0  0  0  0  0  0  0  0  0  0
   -0.8660    0.8430   -2.9570 H   0  0  0  0  0  0  0  0  0  0  0  0
    0.5090    0.7890   -1.8280 H   0  0  0  0  0  0  0  0  0  0  0  0
   -2.3020   -0.4330   -1.4710 H   0  0  0  0  0  0  0  0  0  0  0  0
    0.0490   -0.7810    0.3530 H   0  0  0  0  0  0  0  0  0  0  0  0
  1 11  1  0  0  0  0
  1 12  1  0  0  0  0
  2 13  1  1  0  0  0
  2  1  1  0  0  0  0
  3 15  1  0  0  0  0
  3  2  1  0  0  0  0
  4  5  2  0  0  0  0
  4  3  1  0  0  0  0
  5 16  1  0  0  0  0
  6  5  1  0  0  0  0
  7  8  2  0  0  0  0
  7  6  1  0  0  0  0
  8  4  1  0  0  0  0
  9 10  2  0  0  0  0
  9  2  1  0  0  0  0
 14  3  1  0  0  0  0
 17  6  1  0  0  0  0
 18  7  1  0  0  0  0
 19 20  1  0  0  0  0
 19 25  1  0  0  0  0
 20 27  1  0  0  0  0
 21 22  1  0  0  0  0
 21 28  1  1  0  0  0
 21 20  1  0  0  0  0
 22  9  1  0  0  0  0
 23 21  1  0  0  0  0
 24 23  2  0  0  0  0
 26 20  1  0  0  0  0
 29 22  1  0  0  0  0
 30 41  1  0  0  0  0
 31 33  1  0  0  0  0
 31 30  1  0  0  0  0
 32 31  2  0  0  0  0
 33 43  1  0  0  0  0
 34 45  1  0  0  0  0
 34 35  1  0  0  0  0
 34 33  1  0  0  0  0
 35 46  1  6  0  0  0
 35 36  1  0  0  0  0
 36 47  1  0  0  0  0
 36 23  1  0  0  0  0
 37 38  1  0  0  0  0
 37 35  1  0  0  0  0
 39 37  2  0  0  0  0
 40 30  1  0  0  0  0
 42 33  1  0  0  0  0
 44 34  1  0  0  0  0
M  END
$$$$
