HST.pdb
 OpenBabel07022418383D

 44 44  0  0  1  0  0  0  0  0999 V2000
    1.4860   -2.1740    2.6050 N   0  0  0  0  0  0  0  0  0  0  0  0
    2.6930   -1.4530    2.2280 C   0  0  1  0  0  0  0  0  0  0  0  0
    3.7590   -2.4750    1.8280 C   0  0  0  0  0  0  0  0  0  0  0  0
    3.2780   -3.2900    0.6780 C   0  0  0  0  0  0  0  0  0  0  0  0
    2.5740   -4.4700    0.7910 C   0  0  0  0  0  0  0  0  0  0  0  0
    2.3060   -4.9270   -0.4320 N   0  0  0  0  0  0  0  0  0  0  0  0
    2.8310   -4.0520   -1.3080 C   0  0  0  0  0  0  0  0  0  0  0  0
    3.4170   -3.0640   -0.6230 N   0  0  0  0  0  0  0  0  0  0  0  0
    2.4000   -0.5340    1.0970 C   0  0  0  0  0  0  0  0  0  0  0  0
    3.3830    0.1570    0.6750 O   0  0  0  0  0  0  0  0  0  0  0  0
    0.8490   -1.5100    3.0850 H   0  0  0  0  0  0  0  0  0  0  0  0
    1.6970   -3.0170    3.1690 H   0  0  0  0  0  0  0  0  0  0  0  0
    3.1050   -0.8910    3.0900 H   0  0  0  0  0  0  0  0  0  0  0  0
    4.7170   -1.9830    1.6260 H   0  0  0  0  0  0  0  0  0  0  0  0
    3.9190   -3.1580    2.6850 H   0  0  0  0  0  0  0  0  0  0  0  0
    2.2650   -4.9830    1.7130 H   0  0  0  0  0  0  0  0  0  0  0  0
    1.7860   -5.8030   -0.6860 H   0  0  0  0  0  0  0  0  0  0  0  0
    2.7760   -4.1520   -2.3820 H   0  0  0  0  0  0  0  0  0  0  0  0
    0.4010    0.5220   -2.8890 O   0  0  0  0  0  0  0  0  0  0  0  0
    0.5770   -0.3560   -1.7990 C   0  0  0  0  0  0  0  0  0  0  0  0
    0.9290    0.4930   -0.5710 C   0  0  2  0  0  0  0  0  0  0  0  0
    1.1020   -0.4310    0.5230 N   0  0  0  0  0  0  0  0  0  0  0  0
   -0.2130    1.4100   -0.3670 C   0  0  0  0  0  0  0  0  0  0  0  0
   -0.4490    2.2530   -1.2600 O   0  0  0  0  0  0  0  0  0  0  0  0
    1.1650    0.4640   -3.5170 H   0  0  0  0  0  0  0  0  0  0  0  0
   -0.3780   -0.8680   -1.6110 H   0  0  0  0  0  0  0  0  0  0  0  0
    1.3760   -1.0720   -2.0430 H   0  0  0  0  0  0  0  0  0  0  0  0
    1.8650    1.0220   -0.8290 H   0  0  0  0  0  0  0  0  0  0  0  0
    0.3630   -1.0210    0.9200 H   0  0  0  0  0  0  0  0  0  0  0  0
   -3.2360    0.3130    2.0310 C   0  0  0  0  0  0  0  0  0  0  0  0
   -3.4230    1.4060    1.0140 C   0  0  1  0  0  0  0  0  0  0  0  0
   -4.5500    2.1640    1.2140 O   0  0  0  0  0  0  0  0  0  0  0  0
   -2.1670    2.2820    0.9800 C   0  0  2  0  0  0  0  0  0  0  0  0
   -1.0540    1.3980    0.7680 N   0  0  0  0  0  0  0  0  0  0  0  0
   -2.0700    3.0430    2.2370 C   0  0  0  0  0  0  0  0  0  0  0  0
   -1.0880    2.8750    2.9830 O   0  0  0  0  0  0  0  0  0  0  0  0
   -3.0590    3.9310    2.5810 O   0  0  0  0  0  0  0  0  0  0  0  0
   -2.6620   -0.5480    1.6200 H   0  0  0  0  0  0  0  0  0  0  0  0
   -4.2010   -0.1080    2.3830 H   0  0  0  0  0  0  0  0  0  0  0  0
   -2.6310    0.6950    2.8960 H   0  0  0  0  0  0  0  0  0  0  0  0
   -3.4430    0.8970    0.0070 H   0  0  0  0  0  0  0  0  0  0  0  0
   -5.2890    1.5320    1.4600 H   0  0  0  0  0  0  0  0  0  0  0  0
   -2.3260    3.0010    0.1630 H   0  0  0  0  0  0  0  0  0  0  0  0
   -0.8520    0.6940    1.5070 H   0  0  0  0  0  0  0  0  0  0  0  0
  1 11  1  0  0  0  0
  1 12  1  0  0  0  0
  2  1  1  0  0  0  0
  2 13  1  1  0  0  0
  3  2  1  0  0  0  0
  3 15  1  0  0  0  0
  4  5  2  0  0  0  0
  4  3  1  0  0  0  0
  5 16  1  0  0  0  0
  6  5  1  0  0  0  0
  7  8  2  0  0  0  0
  7  6  1  0  0  0  0
  8  4  1  0  0  0  0
  9  2  1  0  0  0  0
 10  9  2  0  0  0  0
 14  3  1  0  0  0  0
 17  6  1  0  0  0  0
 18  7  1  0  0  0  0
 19 20  1  0  0  0  0
 20 26  1  0  0  0  0
 20 21  1  0  0  0  0
 21 28  1  6  0  0  0
 21 23  1  0  0  0  0
 21 22  1  0  0  0  0
 22 29  1  0  0  0  0
 22  9  1  0  0  0  0
 23 34  1  0  0  0  0
 24 23  2  0  0  0  0
 25 19  1  0  0  0  0
 27 20  1  0  0  0  0
 30 39  1  0  0  0  0
 30 40  1  0  0  0  0
 31 41  1  6  0  0  0
 31 32  1  0  0  0  0
 31 30  1  0  0  0  0
 32 42  1  0  0  0  0
 33 43  1  6  0  0  0
 33 31  1  0  0  0  0
 33 35  1  0  0  0  0
 34 33  1  0  0  0  0
 34 44  1  0  0  0  0
 35 37  2  0  0  0  0
 35 36  1  0  0  0  0
 38 30  1  0  0  0  0
M  END
$$$$
