HSV.pdb
 OpenBabel07022418383D

 46 46  0  0  1  0  0  0  0  0999 V2000
    1.6240   -2.4780    2.3970 N   0  0  0  0  0  0  0  0  0  0  0  0
    2.7270   -1.5420    2.2770 C   0  0  1  0  0  0  0  0  0  0  0  0
    3.9730   -2.2950    1.8460 C   0  0  0  0  0  0  0  0  0  0  0  0
    3.7850   -2.9690    0.5410 C   0  0  0  0  0  0  0  0  0  0  0  0
    3.3230   -4.2300    0.2930 C   0  0  0  0  0  0  0  0  0  0  0  0
    3.3150   -4.4280   -1.0340 N   0  0  0  0  0  0  0  0  0  0  0  0
    3.7700   -3.3000   -1.6240 C   0  0  0  0  0  0  0  0  0  0  0  0
    4.0510   -2.4240   -0.6600 N   0  0  0  0  0  0  0  0  0  0  0  0
    2.3990   -0.5160    1.2440 C   0  0  0  0  0  0  0  0  0  0  0  0
    3.2350    0.3900    0.9910 O   0  0  0  0  0  0  0  0  0  0  0  0
    0.9950   -2.1070    3.1420 H   0  0  0  0  0  0  0  0  0  0  0  0
    1.9620   -3.4200    2.7150 H   0  0  0  0  0  0  0  0  0  0  0  0
    2.9730   -1.0500    3.2410 H   0  0  0  0  0  0  0  0  0  0  0  0
    4.7960   -1.5550    1.8050 H   0  0  0  0  0  0  0  0  0  0  0  0
    4.2410   -3.0580    2.5800 H   0  0  0  0  0  0  0  0  0  0  0  0
    3.0070   -4.9730    1.0100 H   0  0  0  0  0  0  0  0  0  0  0  0
    3.0190   -5.2890   -1.5740 H   0  0  0  0  0  0  0  0  0  0  0  0
    3.8700   -3.1790   -2.6960 H   0  0  0  0  0  0  0  0  0  0  0  0
   -0.3330   -1.0350   -1.8840 O   0  0  0  0  0  0  0  0  0  0  0  0
    0.7300   -0.1220   -1.8500 C   0  0  0  0  0  0  0  0  0  0  0  0
    0.8940    0.4700   -0.4470 C   0  0  2  0  0  0  0  0  0  0  0  0
    1.1580   -0.5300    0.5280 N   0  0  0  0  0  0  0  0  0  0  0  0
   -0.3130    1.2720   -0.1830 C   0  0  0  0  0  0  0  0  0  0  0  0
   -0.6080    2.1760   -1.0060 O   0  0  0  0  0  0  0  0  0  0  0  0
   -0.6700   -1.1890   -0.9610 H   0  0  0  0  0  0  0  0  0  0  0  0
    0.4810    0.6650   -2.5840 H   0  0  0  0  0  0  0  0  0  0  0  0
    1.6210   -0.6560   -2.1850 H   0  0  0  0  0  0  0  0  0  0  0  0
    1.7480    1.1720   -0.5210 H   0  0  0  0  0  0  0  0  0  0  0  0
    0.5110   -1.3100    0.7870 H   0  0  0  0  0  0  0  0  0  0  0  0
   -3.3400   -0.1010    2.2120 C   0  0  0  0  0  0  0  0  0  0  0  0
   -3.5270    0.9240    1.1360 C   0  0  0  0  0  0  0  0  0  0  0  0
   -4.8490    1.6110    1.1780 C   0  0  0  0  0  0  0  0  0  0  0  0
   -2.3570    1.9170    1.1540 C   0  0  2  0  0  0  0  0  0  0  0  0
   -1.1730    1.1110    0.9200 N   0  0  0  0  0  0  0  0  0  0  0  0
   -2.2900    2.6350    2.4420 C   0  0  0  0  0  0  0  0  0  0  0  0
   -1.2970    2.5010    3.1690 O   0  0  0  0  0  0  0  0  0  0  0  0
   -3.3310    3.4480    2.8270 O   0  0  0  0  0  0  0  0  0  0  0  0
   -4.2710   -0.5890    2.5220 H   0  0  0  0  0  0  0  0  0  0  0  0
   -2.6380   -0.9190    1.8990 H   0  0  0  0  0  0  0  0  0  0  0  0
   -2.8650    0.3620    3.1160 H   0  0  0  0  0  0  0  0  0  0  0  0
   -3.4320    0.3850    0.1510 H   0  0  0  0  0  0  0  0  0  0  0  0
   -5.2530    1.5250    2.2100 H   0  0  0  0  0  0  0  0  0  0  0  0
   -5.5750    1.0440    0.5330 H   0  0  0  0  0  0  0  0  0  0  0  0
   -4.8370    2.6570    0.8250 H   0  0  0  0  0  0  0  0  0  0  0  0
   -2.5090    2.6760    0.3630 H   0  0  0  0  0  0  0  0  0  0  0  0
   -0.9490    0.3730    1.6080 H   0  0  0  0  0  0  0  0  0  0  0  0
  1 12  1  0  0  0  0
  1 11  1  0  0  0  0
  2  1  1  0  0  0  0
  2 13  1  1  0  0  0
  3  2  1  0  0  0  0
  3 15  1  0  0  0  0
  4  3  1  0  0  0  0
  5  4  2  0  0  0  0
  5 16  1  0  0  0  0
  6  5  1  0  0  0  0
  7  6  1  0  0  0  0
  7  8  2  0  0  0  0
  8  4  1  0  0  0  0
  9  2  1  0  0  0  0
 10  9  2  0  0  0  0
 14  3  1  0  0  0  0
 17  6  1  0  0  0  0
 18  7  1  0  0  0  0
 19 20  1  0  0  0  0
 19 25  1  0  0  0  0
 20 21  1  0  0  0  0
 21 28  1  6  0  0  0
 21 23  1  0  0  0  0
 21 22  1  0  0  0  0
 22 29  1  0  0  0  0
 22  9  1  0  0  0  0
 23 34  1  0  0  0  0
 24 23  2  0  0  0  0
 26 20  1  0  0  0  0
 27 20  1  0  0  0  0
 30 38  1  0  0  0  0
 30 40  1  0  0  0  0
 31 33  1  0  0  0  0
 31 32  1  0  0  0  0
 31 30  1  0  0  0  0
 32 42  1  0  0  0  0
 33 45  1  6  0  0  0
 33 35  1  0  0  0  0
 34 33  1  0  0  0  0
 34 46  1  0  0  0  0
 35 37  2  0  0  0  0
 35 36  1  0  0  0  0
 39 30  1  0  0  0  0
 41 31  1  0  0  0  0
 43 32  1  0  0  0  0
 44 32  1  0  0  0  0
M  END
$$$$
