HSW.pdb
 OpenBabel07022418383D

 54 56  0  0  1  0  0  0  0  0999 V2000
    4.1720   -0.0950   -0.5500 N   0  0  0  0  0  0  0  0  0  0  0  0
    3.7990   -0.7990    0.7080 C   0  0  1  0  0  0  0  0  0  0  0  0
    4.8250   -0.5010    1.7330 C   0  0  0  0  0  0  0  0  0  0  0  0
    4.5640   -1.2460    2.9840 C   0  0  0  0  0  0  0  0  0  0  0  0
    3.6590   -2.2150    3.2600 C   0  0  0  0  0  0  0  0  0  0  0  0
    3.8400   -2.6440    4.5230 N   0  0  0  0  0  0  0  0  0  0  0  0
    4.8600   -1.9340    5.0160 C   0  0  0  0  0  0  0  0  0  0  0  0
    5.3160   -1.0790    4.1000 N   0  0  0  0  0  0  0  0  0  0  0  0
    2.4710   -0.1890    1.0360 C   0  0  0  0  0  0  0  0  0  0  0  0
    1.8900   -0.3680    2.1300 O   0  0  0  0  0  0  0  0  0  0  0  0
    3.6110   -0.4820   -1.3150 H   0  0  0  0  0  0  0  0  0  0  0  0
    4.1530    0.9340   -0.4270 H   0  0  0  0  0  0  0  0  0  0  0  0
    3.7690   -1.8600    0.4700 H   0  0  0  0  0  0  0  0  0  0  0  0
    4.9340    0.5820    1.9520 H   0  0  0  0  0  0  0  0  0  0  0  0
    5.8040   -0.9070    1.3360 H   0  0  0  0  0  0  0  0  0  0  0  0
    2.8910   -2.6640    2.6240 H   0  0  0  0  0  0  0  0  0  0  0  0
    3.3180   -3.3730    5.0460 H   0  0  0  0  0  0  0  0  0  0  0  0
    5.2660   -2.0400    6.0340 H   0  0  0  0  0  0  0  0  0  0  0  0
    0.9280    3.3710   -0.5740 O   0  0  0  0  0  0  0  0  0  0  0  0
    0.5090    2.7290    0.5830 C   0  0  0  0  0  0  0  0  0  0  0  0
    0.4620    1.2390    0.4530 C   0  0  2  0  0  0  0  0  0  0  0  0
    1.7440    0.6530    0.1320 N   0  0  0  0  0  0  0  0  0  0  0  0
   -0.5430    0.7390   -0.4780 C   0  0  0  0  0  0  0  0  0  0  0  0
   -0.2260   -0.0750   -1.3770 O   0  0  0  0  0  0  0  0  0  0  0  0
    0.4390    4.2030   -0.7050 H   0  0  0  0  0  0  0  0  0  0  0  0
    1.1460    2.9900    1.4490 H   0  0  0  0  0  0  0  0  0  0  0  0
   -0.5210    3.0790    0.7990 H   0  0  0  0  0  0  0  0  0  0  0  0
    0.1910    0.8590    1.4810 H   0  0  0  0  0  0  0  0  0  0  0  0
    2.1750    0.8370   -0.7940 H   0  0  0  0  0  0  0  0  0  0  0  0
   -1.9270    1.1350   -0.4300 N   0  0  0  0  0  0  0  0  0  0  0  0
   -2.9150    0.6420   -1.3540 C   0  0  1  0  0  0  0  0  0  0  0  0
   -4.1050    0.0080   -0.7140 C   0  0  0  0  0  0  0  0  0  0  0  0
   -3.7430   -1.1670    0.1270 C   0  0  0  0  0  0  0  0  0  0  0  0
   -3.6750   -1.2620    1.4960 C   0  0  0  0  0  0  0  0  0  0  0  0
   -3.3100   -2.5090    1.8310 N   0  0  0  0  0  0  0  0  0  0  0  0
   -3.1370   -3.2400    0.7240 C   0  0  0  0  0  0  0  0  0  0  0  0
   -2.7640   -4.5700    0.5420 C   0  0  0  0  0  0  0  0  0  0  0  0
   -2.6660   -5.0520   -0.7480 C   0  0  0  0  0  0  0  0  0  0  0  0
   -2.9290   -4.2450   -1.8370 C   0  0  0  0  0  0  0  0  0  0  0  0
   -3.2990   -2.9220   -1.6430 C   0  0  0  0  0  0  0  0  0  0  0  0
   -3.3980   -2.4350   -0.3540 C   0  0  0  0  0  0  0  0  0  0  0  0
   -3.3180    1.8100   -2.2120 C   0  0  0  0  0  0  0  0  0  0  0  0
   -4.1680    1.6880   -3.1120 O   0  0  0  0  0  0  0  0  0  0  0  0
   -2.7620    3.0730   -2.0410 O   0  0  0  0  0  0  0  0  0  0  0  0
   -2.1360    1.8100    0.3370 H   0  0  0  0  0  0  0  0  0  0  0  0
   -2.4880   -0.0890   -2.0790 H   0  0  0  0  0  0  0  0  0  0  0  0
   -4.7440    0.7040   -0.1450 H   0  0  0  0  0  0  0  0  0  0  0  0
   -4.7320   -0.4030   -1.5460 H   0  0  0  0  0  0  0  0  0  0  0  0
   -3.8920   -0.4240    2.1760 H   0  0  0  0  0  0  0  0  0  0  0  0
   -3.1840   -2.8450    2.8170 H   0  0  0  0  0  0  0  0  0  0  0  0
   -2.5670   -5.1690    1.4250 H   0  0  0  0  0  0  0  0  0  0  0  0
   -2.3730   -6.0960   -0.8540 H   0  0  0  0  0  0  0  0  0  0  0  0
   -2.8330   -4.6860   -2.8150 H   0  0  0  0  0  0  0  0  0  0  0  0
   -3.5040   -2.2900   -2.4800 H   0  0  0  0  0  0  0  0  0  0  0  0
  1 12  1  0  0  0  0
  1  2  1  0  0  0  0
  2 13  1  6  0  0  0
  2  9  1  0  0  0  0
  2  3  1  0  0  0  0
  3 14  1  0  0  0  0
  3  4  1  0  0  0  0
  4  5  2  0  0  0  0
  4  8  1  0  0  0  0
  5  6  1  0  0  0  0
  6  7  1  0  0  0  0
  6 17  1  0  0  0  0
  7 18  1  0  0  0  0
  8  7  2  0  0  0  0
  9 10  2  0  0  0  0
 11  1  1  0  0  0  0
 15  3  1  0  0  0  0
 16  5  1  0  0  0  0
 19 20  1  0  0  0  0
 20 27  1  0  0  0  0
 20 26  1  0  0  0  0
 21 20  1  0  0  0  0
 21 28  1  1  0  0  0
 22 21  1  0  0  0  0
 22  9  1  0  0  0  0
 23 30  1  0  0  0  0
 23 21  1  0  0  0  0
 24 23  2  0  0  0  0
 25 19  1  0  0  0  0
 29 22  1  0  0  0  0
 30 45  1  0  0  0  0
 31 46  1  6  0  0  0
 31 32  1  0  0  0  0
 31 30  1  0  0  0  0
 32 47  1  0  0  0  0
 32 33  1  0  0  0  0
 33 34  2  0  0  0  0
 34 35  1  0  0  0  0
 34 49  1  0  0  0  0
 35 50  1  0  0  0  0
 36 35  1  0  0  0  0
 37 36  1  0  0  0  0
 37 51  1  0  0  0  0
 38 37  2  0  0  0  0
 39 40  2  0  0  0  0
 39 38  1  0  0  0  0
 40 41  1  0  0  0  0
 41 33  1  0  0  0  0
 41 36  2  0  0  0  0
 42 44  1  0  0  0  0
 42 31  1  0  0  0  0
 43 42  2  0  0  0  0
 48 32  1  0  0  0  0
 52 38  1  0  0  0  0
 53 39  1  0  0  0  0
 54 40  1  0  0  0  0
M  END
$$$$
