HSY.pdb
 OpenBabel07022418383D

 51 52  0  0  1  0  0  0  0  0999 V2000
    0.8300   -1.8220    2.6350 N   0  0  0  0  0  0  0  0  0  0  0  0
    1.8910   -0.8260    2.4350 C   0  0  1  0  0  0  0  0  0  0  0  0
    3.1700   -1.5280    2.8340 C   0  0  0  0  0  0  0  0  0  0  0  0
    4.3650   -0.6660    2.6950 C   0  0  0  0  0  0  0  0  0  0  0  0
    5.1230   -0.5950    1.5530 C   0  0  0  0  0  0  0  0  0  0  0  0
    6.1180    0.2680    1.7790 N   0  0  0  0  0  0  0  0  0  0  0  0
    6.0190    0.7510    3.0300 C   0  0  0  0  0  0  0  0  0  0  0  0
    4.9380    0.1680    3.5810 N   0  0  0  0  0  0  0  0  0  0  0  0
    1.9460   -0.4050    1.0100 C   0  0  0  0  0  0  0  0  0  0  0  0
    2.7610    0.4660    0.6080 O   0  0  0  0  0  0  0  0  0  0  0  0
    1.1100   -2.6400    2.0380 H   0  0  0  0  0  0  0  0  0  0  0  0
   -0.0720   -1.4700    2.2430 H   0  0  0  0  0  0  0  0  0  0  0  0
    1.6830   -0.0020    3.1290 H   0  0  0  0  0  0  0  0  0  0  0  0
    3.2990   -2.4840    2.2520 H   0  0  0  0  0  0  0  0  0  0  0  0
    3.1370   -1.8570    3.8950 H   0  0  0  0  0  0  0  0  0  0  0  0
    4.9920   -1.1240    0.5960 H   0  0  0  0  0  0  0  0  0  0  0  0
    6.8710    0.5390    1.0930 H   0  0  0  0  0  0  0  0  0  0  0  0
    6.7050    1.4820    3.4880 H   0  0  0  0  0  0  0  0  0  0  0  0
    1.6870   -1.2140   -3.5610 O   0  0  0  0  0  0  0  0  0  0  0  0
    1.6510   -1.6860   -2.2490 C   0  0  0  0  0  0  0  0  0  0  0  0
    1.1490   -0.5380   -1.3630 C   0  0  2  0  0  0  0  0  0  0  0  0
    1.0860   -0.9560    0.0210 N   0  0  0  0  0  0  0  0  0  0  0  0
   -0.1570   -0.0430   -1.8530 C   0  0  0  0  0  0  0  0  0  0  0  0
   -0.2520    0.3570   -3.0400 O   0  0  0  0  0  0  0  0  0  0  0  0
    1.9600   -0.2520   -3.5170 H   0  0  0  0  0  0  0  0  0  0  0  0
    2.7020   -1.8700   -1.9510 H   0  0  0  0  0  0  0  0  0  0  0  0
    1.0040   -2.5780   -2.1580 H   0  0  0  0  0  0  0  0  0  0  0  0
    1.9420    0.2360   -1.4280 H   0  0  0  0  0  0  0  0  0  0  0  0
    0.3840   -1.6810    0.2660 H   0  0  0  0  0  0  0  0  0  0  0  0
   -4.0230   -2.3560    3.9240 O   0  0  0  0  0  0  0  0  0  0  0  0
   -3.9270   -1.9270    2.5990 C   0  0  0  0  0  0  0  0  0  0  0  0
   -4.7500   -0.9450    2.1060 C   0  0  0  0  0  0  0  0  0  0  0  0
   -4.6600   -0.5120    0.7880 C   0  0  0  0  0  0  0  0  0  0  0  0
   -3.7230   -1.0710   -0.0700 C   0  0  0  0  0  0  0  0  0  0  0  0
   -3.5940   -0.6410   -1.4860 C   0  0  0  0  0  0  0  0  0  0  0  0
   -2.6050    0.5020   -1.5650 C   0  0  2  0  0  0  0  0  0  0  0  0
   -1.3250    0.0050   -1.0460 N   0  0  0  0  0  0  0  0  0  0  0  0
   -3.1350    1.6270   -0.7790 C   0  0  0  0  0  0  0  0  0  0  0  0
   -4.2150    2.1390   -1.1580 O   0  0  0  0  0  0  0  0  0  0  0  0
   -2.9010   -2.0600    0.4470 C   0  0  0  0  0  0  0  0  0  0  0  0
   -2.9940   -2.4850    1.7520 C   0  0  0  0  0  0  0  0  0  0  0  0
   -2.4970    2.1380    0.3480 O   0  0  0  0  0  0  0  0  0  0  0  0
   -4.5490   -1.8310    4.6000 H   0  0  0  0  0  0  0  0  0  0  0  0
   -5.4900   -0.5020    2.7760 H   0  0  0  0  0  0  0  0  0  0  0  0
   -5.3270    0.2480    0.4640 H   0  0  0  0  0  0  0  0  0  0  0  0
   -3.1640   -1.4930   -2.0580 H   0  0  0  0  0  0  0  0  0  0  0  0
   -4.5910   -0.3610   -1.8670 H   0  0  0  0  0  0  0  0  0  0  0  0
   -2.4810    0.8540   -2.6130 H   0  0  0  0  0  0  0  0  0  0  0  0
   -1.2330   -0.3260   -0.0630 H   0  0  0  0  0  0  0  0  0  0  0  0
   -2.1660   -2.5130   -0.2020 H   0  0  0  0  0  0  0  0  0  0  0  0
   -2.3490   -3.2620    2.1580 H   0  0  0  0  0  0  0  0  0  0  0  0
  2  1  1  0  0  0  0
  2  3  1  0  0  0  0
  2 13  1  1  0  0  0
  3 15  1  0  0  0  0
  4  3  1  0  0  0  0
  4  8  1  0  0  0  0
  5  6  1  0  0  0  0
  5  4  2  0  0  0  0
  6  7  1  0  0  0  0
  7 18  1  0  0  0  0
  7  8  2  0  0  0  0
  9  2  1  0  0  0  0
 10  9  2  0  0  0  0
 11  1  1  0  0  0  0
 12  1  1  0  0  0  0
 14  3  1  0  0  0  0
 16  5  1  0  0  0  0
 17  6  1  0  0  0  0
 19 25  1  0  0  0  0
 19 20  1  0  0  0  0
 20 27  1  0  0  0  0
 20 26  1  0  0  0  0
 20 21  1  0  0  0  0
 21 28  1  6  0  0  0
 21 22  1  0  0  0  0
 22 29  1  0  0  0  0
 22  9  1  0  0  0  0
 23 21  1  0  0  0  0
 23 37  1  0  0  0  0
 24 23  2  0  0  0  0
 30 43  1  0  0  0  0
 31 30  1  0  0  0  0
 32 31  1  0  0  0  0
 32 44  1  0  0  0  0
 33 32  2  0  0  0  0
 34 40  2  0  0  0  0
 34 33  1  0  0  0  0
 35 34  1  0  0  0  0
 36 48  1  6  0  0  0
 36 35  1  0  0  0  0
 36 37  1  0  0  0  0
 36 38  1  0  0  0  0
 37 49  1  0  0  0  0
 38 42  1  0  0  0  0
 39 38  2  0  0  0  0
 40 41  1  0  0  0  0
 41 51  1  0  0  0  0
 41 31  2  0  0  0  0
 45 33  1  0  0  0  0
 46 35  1  0  0  0  0
 47 35  1  0  0  0  0
 50 40  1  0  0  0  0
M  END
$$$$
