HTA.pdb
 OpenBabel07022418383D

 43 43  0  0  1  0  0  0  0  0999 V2000
   -0.0620   -2.9480    4.4230 N   0  0  0  0  0  0  0  0  0  0  0  0
    0.7040   -2.2870    3.3070 C   0  0  1  0  0  0  0  0  0  0  0  0
    1.0940   -3.4410    2.4380 C   0  0  0  0  0  0  0  0  0  0  0  0
    1.9140   -3.1630    1.2810 C   0  0  0  0  0  0  0  0  0  0  0  0
    2.5200   -2.0250    0.8300 C   0  0  0  0  0  0  0  0  0  0  0  0
    3.2360   -2.2900   -0.3020 N   0  0  0  0  0  0  0  0  0  0  0  0
    3.0810   -3.5900   -0.5620 C   0  0  0  0  0  0  0  0  0  0  0  0
    2.3000   -4.1210    0.3690 N   0  0  0  0  0  0  0  0  0  0  0  0
   -0.3320   -1.4080    2.6660 C   0  0  0  0  0  0  0  0  0  0  0  0
   -1.5580   -1.7910    2.6550 O   0  0  0  0  0  0  0  0  0  0  0  0
    0.6040   -3.6640    4.7810 H   0  0  0  0  0  0  0  0  0  0  0  0
   -0.9030   -3.4030    4.0190 H   0  0  0  0  0  0  0  0  0  0  0  0
    1.4910   -1.7190    3.7680 H   0  0  0  0  0  0  0  0  0  0  0  0
    1.4880   -4.2830    3.0690 H   0  0  0  0  0  0  0  0  0  0  0  0
    0.1100   -3.8710    2.0520 H   0  0  0  0  0  0  0  0  0  0  0  0
    2.5060   -1.0440    1.2430 H   0  0  0  0  0  0  0  0  0  0  0  0
    3.7980   -1.6160   -0.8630 H   0  0  0  0  0  0  0  0  0  0  0  0
    3.5310   -4.0920   -1.3980 H   0  0  0  0  0  0  0  0  0  0  0  0
   -2.6490    2.5710    1.7030 C   0  0  0  0  0  0  0  0  0  0  0  0
   -1.4550    1.8630    2.3090 C   0  0  1  0  0  0  0  0  0  0  0  0
   -1.7880    1.4670    3.6030 O   0  0  0  0  0  0  0  0  0  0  0  0
   -1.2010    0.6130    1.4670 C   0  0  2  0  0  0  0  0  0  0  0  0
   -0.1020   -0.1620    2.0610 N   0  0  0  0  0  0  0  0  0  0  0  0
   -0.9320    1.0030    0.0700 C   0  0  0  0  0  0  0  0  0  0  0  0
   -1.8420    1.6380   -0.5250 O   0  0  0  0  0  0  0  0  0  0  0  0
   -2.3460    3.3530    0.9640 H   0  0  0  0  0  0  0  0  0  0  0  0
   -3.3610    1.9010    1.2150 H   0  0  0  0  0  0  0  0  0  0  0  0
   -3.2320    3.0510    2.5430 H   0  0  0  0  0  0  0  0  0  0  0  0
   -0.5400    2.4850    2.3020 H   0  0  0  0  0  0  0  0  0  0  0  0
   -1.6020    2.2050    4.2160 H   0  0  0  0  0  0  0  0  0  0  0  0
   -2.1310    0.0240    1.5370 H   0  0  0  0  0  0  0  0  0  0  0  0
    0.8470    0.2480    2.0360 H   0  0  0  0  0  0  0  0  0  0  0  0
    1.7560    1.9350   -2.1750 C   0  0  0  0  0  0  0  0  0  0  0  0
    0.5090    1.1010   -1.9950 C   0  0  2  0  0  0  0  0  0  0  0  0
    0.2610    0.7200   -0.6460 N   0  0  0  0  0  0  0  0  0  0  0  0
    0.6750   -0.1110   -2.8380 C   0  0  0  0  0  0  0  0  0  0  0  0
    0.5820   -1.2390   -2.2960 O   0  0  0  0  0  0  0  0  0  0  0  0
    0.9290   -0.0210   -4.2080 O   0  0  0  0  0  0  0  0  0  0  0  0
    1.8240    2.7870   -1.4950 H   0  0  0  0  0  0  0  0  0  0  0  0
    1.6990    2.3610   -3.2160 H   0  0  0  0  0  0  0  0  0  0  0  0
    2.6370    1.2710   -2.1780 H   0  0  0  0  0  0  0  0  0  0  0  0
   -0.3560    1.6640   -2.4520 H   0  0  0  0  0  0  0  0  0  0  0  0
    0.9990    0.1980   -0.1330 H   0  0  0  0  0  0  0  0  0  0  0  0
  1 11  1  0  0  0  0
  2 13  1  1  0  0  0
  2  1  1  0  0  0  0
  3 14  1  0  0  0  0
  3  2  1  0  0  0  0
  4  3  1  0  0  0  0
  5 16  1  0  0  0  0
  5  4  2  0  0  0  0
  6  5  1  0  0  0  0
  7  6  1  0  0  0  0
  7  8  2  0  0  0  0
  8  4  1  0  0  0  0
  9  2  1  0  0  0  0
 10  9  2  0  0  0  0
 12  1  1  0  0  0  0
 15  3  1  0  0  0  0
 17  6  1  0  0  0  0
 18  7  1  0  0  0  0
 19 20  1  0  0  0  0
 19 28  1  0  0  0  0
 20 29  1  1  0  0  0
 20 21  1  0  0  0  0
 21 30  1  0  0  0  0
 22 31  1  1  0  0  0
 22 23  1  0  0  0  0
 22 20  1  0  0  0  0
 23  9  1  0  0  0  0
 24 22  1  0  0  0  0
 25 24  2  0  0  0  0
 26 19  1  0  0  0  0
 27 19  1  0  0  0  0
 32 23  1  0  0  0  0
 33 34  1  0  0  0  0
 33 39  1  0  0  0  0
 34 42  1  6  0  0  0
 34 35  1  0  0  0  0
 35 43  1  0  0  0  0
 35 24  1  0  0  0  0
 36 37  1  0  0  0  0
 36 34  1  0  0  0  0
 38 36  2  0  0  0  0
 40 33  1  0  0  0  0
 41 33  1  0  0  0  0
M  END
$$$$
