HTC.pdb
 OpenBabel07022418383D

 44 44  0  0  1  0  0  0  0  0999 V2000
    1.1510   -0.3150    5.4470 N   0  0  0  0  0  0  0  0  0  0  0  0
    1.6560   -0.7550    4.0870 C   0  0  1  0  0  0  0  0  0  0  0  0
    1.6850   -2.2440    4.2210 C   0  0  0  0  0  0  0  0  0  0  0  0
    2.1850   -2.9940    3.0490 C   0  0  0  0  0  0  0  0  0  0  0  0
    2.7060   -2.5750    1.8480 C   0  0  0  0  0  0  0  0  0  0  0  0
    3.0500   -3.6530    1.1180 N   0  0  0  0  0  0  0  0  0  0  0  0
    2.7510   -4.7170    1.8450 C   0  0  0  0  0  0  0  0  0  0  0  0
    2.2340   -4.3570    3.0010 N   0  0  0  0  0  0  0  0  0  0  0  0
    0.5890   -0.2670    3.1560 C   0  0  0  0  0  0  0  0  0  0  0  0
   -0.6120   -0.3930    3.5730 O   0  0  0  0  0  0  0  0  0  0  0  0
    1.8960   -0.7090    6.0910 H   0  0  0  0  0  0  0  0  0  0  0  0
    0.2390   -0.7850    5.5720 H   0  0  0  0  0  0  0  0  0  0  0  0
    2.6110   -0.3310    3.8750 H   0  0  0  0  0  0  0  0  0  0  0  0
    2.4140   -2.4610    5.0520 H   0  0  0  0  0  0  0  0  0  0  0  0
    0.7030   -2.6470    4.5740 H   0  0  0  0  0  0  0  0  0  0  0  0
    2.8290   -1.5410    1.5540 H   0  0  0  0  0  0  0  0  0  0  0  0
    3.4680   -3.6560    0.1700 H   0  0  0  0  0  0  0  0  0  0  0  0
    2.9120   -5.7400    1.5280 H   0  0  0  0  0  0  0  0  0  0  0  0
    1.0250    2.6950    0.3990 C   0  0  0  0  0  0  0  0  0  0  0  0
   -0.3050    2.2310    0.9510 C   0  0  1  0  0  0  0  0  0  0  0  0
   -1.3800    2.7070    0.2040 O   0  0  0  0  0  0  0  0  0  0  0  0
   -0.3530    0.7260    1.1060 C   0  0  2  0  0  0  0  0  0  0  0  0
    0.7950    0.3090    1.8930 N   0  0  0  0  0  0  0  0  0  0  0  0
   -0.3150    0.0220   -0.1990 C   0  0  0  0  0  0  0  0  0  0  0  0
    0.6200   -0.7820   -0.4630 O   0  0  0  0  0  0  0  0  0  0  0  0
    0.9370    3.6570   -0.1390 H   0  0  0  0  0  0  0  0  0  0  0  0
    1.4610    1.9180   -0.2430 H   0  0  0  0  0  0  0  0  0  0  0  0
    1.7220    2.8530    1.2530 H   0  0  0  0  0  0  0  0  0  0  0  0
   -0.4090    2.6550    1.9710 H   0  0  0  0  0  0  0  0  0  0  0  0
   -2.1870    2.6660    0.8030 H   0  0  0  0  0  0  0  0  0  0  0  0
   -1.2640    0.4980    1.6840 H   0  0  0  0  0  0  0  0  0  0  0  0
    1.7750    0.4510    1.5430 H   0  0  0  0  0  0  0  0  0  0  0  0
   -1.2950    0.1950   -1.2100 N   0  0  0  0  0  0  0  0  0  0  0  0
   -1.2460   -0.5000   -2.4820 C   0  0  1  0  0  0  0  0  0  0  0  0
   -2.4820   -1.4000   -2.5980 C   0  0  0  0  0  0  0  0  0  0  0  0
   -4.0080   -0.4150   -2.5130 S   0  0  0  0  0  0  0  0  0  0  0  0
   -1.2600    0.4480   -3.6230 C   0  0  0  0  0  0  0  0  0  0  0  0
   -1.3080    1.6890   -3.4890 O   0  0  0  0  0  0  0  0  0  0  0  0
   -1.2160   -0.0980   -4.8980 O   0  0  0  0  0  0  0  0  0  0  0  0
   -2.0790    0.8500   -1.0240 H   0  0  0  0  0  0  0  0  0  0  0  0
   -0.3820   -1.1590   -2.5670 H   0  0  0  0  0  0  0  0  0  0  0  0
   -2.4350   -1.9410   -3.5700 H   0  0  0  0  0  0  0  0  0  0  0  0
   -2.4520   -2.1900   -1.8150 H   0  0  0  0  0  0  0  0  0  0  0  0
   -4.0240    0.2910   -1.2970 H   0  0  0  0  0  0  0  0  0  0  0  0
  1 12  1  0  0  0  0
  1 11  1  0  0  0  0
  2 13  1  6  0  0  0
  2  3  1  0  0  0  0
  2  1  1  0  0  0  0
  3 15  1  0  0  0  0
  3 14  1  0  0  0  0
  4  3  1  0  0  0  0
  5  4  2  0  0  0  0
  6  7  1  0  0  0  0
  6  5  1  0  0  0  0
  7  8  2  0  0  0  0
  8  4  1  0  0  0  0
  9 10  2  0  0  0  0
  9  2  1  0  0  0  0
 16  5  1  0  0  0  0
 17  6  1  0  0  0  0
 18  7  1  0  0  0  0
 19 20  1  0  0  0  0
 19 28  1  0  0  0  0
 20 22  1  0  0  0  0
 20 29  1  1  0  0  0
 21 30  1  0  0  0  0
 21 20  1  0  0  0  0
 22 31  1  1  0  0  0
 22 23  1  0  0  0  0
 23  9  1  0  0  0  0
 24 22  1  0  0  0  0
 25 24  2  0  0  0  0
 26 19  1  0  0  0  0
 27 19  1  0  0  0  0
 32 23  1  0  0  0  0
 33 40  1  0  0  0  0
 33 24  1  0  0  0  0
 34 41  1  6  0  0  0
 34 33  1  0  0  0  0
 35 36  1  0  0  0  0
 35 34  1  0  0  0  0
 35 43  1  0  0  0  0
 36 44  1  0  0  0  0
 37 38  1  0  0  0  0
 37 34  1  0  0  0  0
 39 37  2  0  0  0  0
 42 35  1  0  0  0  0
M  END
$$$$
