HTD.pdb
 OpenBabel07022418383D

 46 46  0  0  1  0  0  0  0  0999 V2000
    0.4200   -3.2100   -0.4070 N   0  0  0  0  0  0  0  0  0  0  0  0
    1.6830   -2.5280   -0.1760 C   0  0  1  0  0  0  0  0  0  0  0  0
    2.4630   -2.6570   -1.4910 C   0  0  0  0  0  0  0  0  0  0  0  0
    3.7850   -2.0090   -1.4190 C   0  0  0  0  0  0  0  0  0  0  0  0
    4.1020   -0.7090   -1.7300 C   0  0  0  0  0  0  0  0  0  0  0  0
    5.4290   -0.5110   -1.5280 N   0  0  0  0  0  0  0  0  0  0  0  0
    5.9180   -1.7020   -1.0920 C   0  0  0  0  0  0  0  0  0  0  0  0
    4.9220   -2.6010   -1.0280 N   0  0  0  0  0  0  0  0  0  0  0  0
    1.4290   -1.1080    0.1450 C   0  0  0  0  0  0  0  0  0  0  0  0
    2.4070   -0.3710    0.4180 O   0  0  0  0  0  0  0  0  0  0  0  0
    0.5360   -4.2070   -0.1240 H   0  0  0  0  0  0  0  0  0  0  0  0
    0.1720   -3.2100   -1.4310 H   0  0  0  0  0  0  0  0  0  0  0  0
    2.2170   -3.0640    0.6120 H   0  0  0  0  0  0  0  0  0  0  0  0
    1.8180   -2.2520   -2.3120 H   0  0  0  0  0  0  0  0  0  0  0  0
    2.5990   -3.7580   -1.6480 H   0  0  0  0  0  0  0  0  0  0  0  0
    3.4560    0.0870   -2.0840 H   0  0  0  0  0  0  0  0  0  0  0  0
    5.9600    0.3700   -1.6770 H   0  0  0  0  0  0  0  0  0  0  0  0
    6.9740   -1.8240   -0.8520 H   0  0  0  0  0  0  0  0  0  0  0  0
    0.3890    1.9450   -1.7180 C   0  0  0  0  0  0  0  0  0  0  0  0
   -0.6440    1.6980   -0.6440 C   0  0  1  0  0  0  0  0  0  0  0  0
   -1.8500    1.2430   -1.1390 O   0  0  0  0  0  0  0  0  0  0  0  0
   -0.0940    0.8700    0.4830 C   0  0  2  0  0  0  0  0  0  0  0  0
    0.1600   -0.4990    0.1720 N   0  0  0  0  0  0  0  0  0  0  0  0
   -0.9560    1.0740    1.6720 C   0  0  0  0  0  0  0  0  0  0  0  0
   -1.1960    2.2660    2.0120 O   0  0  0  0  0  0  0  0  0  0  0  0
    1.4230    1.8880   -1.3160 H   0  0  0  0  0  0  0  0  0  0  0  0
    0.2770    1.2300   -2.5810 H   0  0  0  0  0  0  0  0  0  0  0  0
    0.3020    2.9560   -2.1730 H   0  0  0  0  0  0  0  0  0  0  0  0
   -0.8710    2.6970   -0.2010 H   0  0  0  0  0  0  0  0  0  0  0  0
   -1.7820    1.0870   -2.1160 H   0  0  0  0  0  0  0  0  0  0  0  0
    0.8910    1.3310    0.7260 H   0  0  0  0  0  0  0  0  0  0  0  0
   -0.6620   -1.1040   -0.0560 H   0  0  0  0  0  0  0  0  0  0  0  0
   -1.5170    0.0310    2.4340 N   0  0  0  0  0  0  0  0  0  0  0  0
   -2.3690    0.2210    3.6080 C   0  0  1  0  0  0  0  0  0  0  0  0
   -3.7250   -0.3700    3.3930 C   0  0  0  0  0  0  0  0  0  0  0  0
   -4.5880   -0.1260    4.5500 C   0  0  0  0  0  0  0  0  0  0  0  0
   -4.2690    0.5980    5.5140 O   0  0  0  0  0  0  0  0  0  0  0  0
   -1.7110   -0.5290    4.7000 C   0  0  0  0  0  0  0  0  0  0  0  0
   -0.6350   -1.1710    4.4580 O   0  0  0  0  0  0  0  0  0  0  0  0
   -5.8710   -0.7080    4.6580 O   0  0  0  0  0  0  0  0  0  0  0  0
   -2.1470   -0.6140    6.0010 O   0  0  0  0  0  0  0  0  0  0  0  0
   -1.3170   -0.9410    2.1500 H   0  0  0  0  0  0  0  0  0  0  0  0
   -2.4850    1.2760    3.8950 H   0  0  0  0  0  0  0  0  0  0  0  0
   -4.2450    0.0290    2.5000 H   0  0  0  0  0  0  0  0  0  0  0  0
   -3.5800   -1.4810    3.2940 H   0  0  0  0  0  0  0  0  0  0  0  0
   -6.6510   -0.1890    5.0530 H   0  0  0  0  0  0  0  0  0  0  0  0
  1  2  1  0  0  0  0
  1 11  1  0  0  0  0
  2  9  1  0  0  0  0
  2 13  1  1  0  0  0
  3  4  1  0  0  0  0
  3  2  1  0  0  0  0
  4  8  1  0  0  0  0
  5  6  1  0  0  0  0
  5  4  2  0  0  0  0
  6  7  1  0  0  0  0
  7  8  2  0  0  0  0
  7 18  1  0  0  0  0
  9 23  1  0  0  0  0
  9 10  2  0  0  0  0
 12  1  1  0  0  0  0
 14  3  1  0  0  0  0
 15  3  1  0  0  0  0
 16  5  1  0  0  0  0
 17  6  1  0  0  0  0
 19 26  1  0  0  0  0
 19 20  1  0  0  0  0
 20 29  1  1  0  0  0
 20 22  1  0  0  0  0
 21 20  1  0  0  0  0
 22 31  1  1  0  0  0
 22 24  1  0  0  0  0
 23 22  1  0  0  0  0
 24 25  2  0  0  0  0
 24 33  1  0  0  0  0
 27 19  1  0  0  0  0
 28 19  1  0  0  0  0
 30 21  1  0  0  0  0
 32 23  1  0  0  0  0
 33 34  1  0  0  0  0
 34 43  1  1  0  0  0
 34 38  1  0  0  0  0
 35 34  1  0  0  0  0
 35 36  1  0  0  0  0
 36 40  1  0  0  0  0
 36 37  2  0  0  0  0
 38 41  1  0  0  0  0
 39 38  2  0  0  0  0
 40 46  1  0  0  0  0
 42 33  1  0  0  0  0
 44 35  1  0  0  0  0
 45 35  1  0  0  0  0
M  END
$$$$
