HTE.pdb
 OpenBabel07022418383D

 49 49  0  0  1  0  0  0  0  0999 V2000
    3.4580   -1.0970    2.5940 N   0  0  0  0  0  0  0  0  0  0  0  0
    2.4670   -0.3910    1.8110 C   0  0  1  0  0  0  0  0  0  0  0  0
    2.3040   -1.1340    0.4970 C   0  0  0  0  0  0  0  0  0  0  0  0
    3.6350   -1.1360   -0.1820 C   0  0  0  0  0  0  0  0  0  0  0  0
    4.1150   -0.1900   -1.0630 C   0  0  0  0  0  0  0  0  0  0  0  0
    5.3590   -0.6010   -1.4230 N   0  0  0  0  0  0  0  0  0  0  0  0
    5.6360   -1.7670   -0.7820 C   0  0  0  0  0  0  0  0  0  0  0  0
    4.5810   -2.1050   -0.0160 N   0  0  0  0  0  0  0  0  0  0  0  0
    1.2110   -0.3300    2.5780 C   0  0  0  0  0  0  0  0  0  0  0  0
    1.1640   -0.8550    3.7190 O   0  0  0  0  0  0  0  0  0  0  0  0
    3.0730   -2.0010    2.9740 H   0  0  0  0  0  0  0  0  0  0  0  0
    3.7550   -0.5530    3.4450 H   0  0  0  0  0  0  0  0  0  0  0  0
    2.8600    0.6330    1.6140 H   0  0  0  0  0  0  0  0  0  0  0  0
    1.5400   -0.6920   -0.1560 H   0  0  0  0  0  0  0  0  0  0  0  0
    2.0290   -2.1920    0.6810 H   0  0  0  0  0  0  0  0  0  0  0  0
    3.5930    0.7040   -1.3950 H   0  0  0  0  0  0  0  0  0  0  0  0
    6.0110   -0.1330   -2.0710 H   0  0  0  0  0  0  0  0  0  0  0  0
    6.5340   -2.3710   -0.8360 H   0  0  0  0  0  0  0  0  0  0  0  0
   -0.5430    2.5840    3.7620 C   0  0  0  0  0  0  0  0  0  0  0  0
   -1.5920    1.8080    3.0370 C   0  0  1  0  0  0  0  0  0  0  0  0
   -1.8100    2.3320    1.7530 O   0  0  0  0  0  0  0  0  0  0  0  0
   -1.1580    0.3530    2.8240 C   0  0  2  0  0  0  0  0  0  0  0  0
    0.0380    0.3200    2.0410 N   0  0  0  0  0  0  0  0  0  0  0  0
   -2.2760   -0.3040    2.1030 C   0  0  0  0  0  0  0  0  0  0  0  0
   -3.4270   -0.4070    2.5680 O   0  0  0  0  0  0  0  0  0  0  0  0
   -0.8410    2.6980    4.8200 H   0  0  0  0  0  0  0  0  0  0  0  0
   -0.5040    3.6030    3.3330 H   0  0  0  0  0  0  0  0  0  0  0  0
    0.4460    2.0850    3.7650 H   0  0  0  0  0  0  0  0  0  0  0  0
   -2.5370    1.8680    3.5870 H   0  0  0  0  0  0  0  0  0  0  0  0
   -0.9160    2.6720    1.4580 H   0  0  0  0  0  0  0  0  0  0  0  0
   -1.0050   -0.1550    3.7880 H   0  0  0  0  0  0  0  0  0  0  0  0
    0.1340    0.7380    1.0910 H   0  0  0  0  0  0  0  0  0  0  0  0
   -2.0610   -0.8530    0.8180 N   0  0  0  0  0  0  0  0  0  0  0  0
   -3.0240   -1.5120   -0.0000 C   0  0  1  0  0  0  0  0  0  0  0  0
   -3.3620   -0.8730   -1.2820 C   0  0  0  0  0  0  0  0  0  0  0  0
   -2.2250   -0.6770   -2.2520 C   0  0  0  0  0  0  0  0  0  0  0  0
   -1.5560   -1.9010   -2.6810 C   0  0  0  0  0  0  0  0  0  0  0  0
   -0.5960   -2.4240   -2.0630 O   0  0  0  0  0  0  0  0  0  0  0  0
   -2.7510   -2.9680   -0.1030 C   0  0  0  0  0  0  0  0  0  0  0  0
   -3.4610   -3.7360   -0.8000 O   0  0  0  0  0  0  0  0  0  0  0  0
   -1.9680   -2.5750   -3.8460 O   0  0  0  0  0  0  0  0  0  0  0  0
   -1.6870   -3.5480    0.5760 O   0  0  0  0  0  0  0  0  0  0  0  0
   -1.0830   -0.7750    0.4000 H   0  0  0  0  0  0  0  0  0  0  0  0
   -3.9720   -1.4740    0.6410 H   0  0  0  0  0  0  0  0  0  0  0  0
   -4.0780   -1.5660   -1.8290 H   0  0  0  0  0  0  0  0  0  0  0  0
   -3.9540    0.0650   -1.1940 H   0  0  0  0  0  0  0  0  0  0  0  0
   -2.6950   -0.2220   -3.1730 H   0  0  0  0  0  0  0  0  0  0  0  0
   -1.4530    0.0190   -1.8750 H   0  0  0  0  0  0  0  0  0  0  0  0
   -1.4120   -3.3500   -4.2100 H   0  0  0  0  0  0  0  0  0  0  0  0
  1 11  1  0  0  0  0
  1 12  1  0  0  0  0
  2 13  1  6  0  0  0
  2  9  1  0  0  0  0
  2  1  1  0  0  0  0
  3 15  1  0  0  0  0
  3  2  1  0  0  0  0
  4  8  1  0  0  0  0
  4  3  1  0  0  0  0
  5  4  2  0  0  0  0
  6  5  1  0  0  0  0
  6  7  1  0  0  0  0
  7  8  2  0  0  0  0
  9 10  2  0  0  0  0
 14  3  1  0  0  0  0
 16  5  1  0  0  0  0
 17  6  1  0  0  0  0
 18  7  1  0  0  0  0
 19 28  1  0  0  0  0
 19 26  1  0  0  0  0
 20 29  1  1  0  0  0
 20 19  1  0  0  0  0
 21 20  1  0  0  0  0
 22 20  1  0  0  0  0
 22 31  1  1  0  0  0
 23  9  1  0  0  0  0
 23 22  1  0  0  0  0
 24 25  2  0  0  0  0
 24 22  1  0  0  0  0
 27 19  1  0  0  0  0
 30 21  1  0  0  0  0
 32 23  1  0  0  0  0
 33 24  1  0  0  0  0
 34 44  1  1  0  0  0
 34 33  1  0  0  0  0
 35 46  1  0  0  0  0
 35 34  1  0  0  0  0
 36 48  1  0  0  0  0
 36 35  1  0  0  0  0
 37 36  1  0  0  0  0
 37 38  2  0  0  0  0
 39 34  1  0  0  0  0
 39 42  1  0  0  0  0
 40 39  2  0  0  0  0
 41 37  1  0  0  0  0
 43 33  1  0  0  0  0
 45 35  1  0  0  0  0
 47 36  1  0  0  0  0
 49 41  1  0  0  0  0
M  END
$$$$
