HTH.pdb
 OpenBabel07022418383D

 50 51  0  0  1  0  0  0  0  0999 V2000
    1.4360   -2.1570   -1.0040 N   0  0  0  0  0  0  0  0  0  0  0  0
    2.2220   -1.7010    0.1680 C   0  0  1  0  0  0  0  0  0  0  0  0
    3.6410   -1.5960   -0.2480 C   0  0  0  0  0  0  0  0  0  0  0  0
    4.5310   -1.2410    0.8630 C   0  0  0  0  0  0  0  0  0  0  0  0
    4.3170   -1.1330    2.2120 C   0  0  0  0  0  0  0  0  0  0  0  0
    5.4870   -0.8390    2.8480 N   0  0  0  0  0  0  0  0  0  0  0  0
    6.4390   -0.7630    1.9080 C   0  0  0  0  0  0  0  0  0  0  0  0
    5.8780   -1.0010    0.7310 N   0  0  0  0  0  0  0  0  0  0  0  0
    1.6500   -0.3350    0.4620 C   0  0  0  0  0  0  0  0  0  0  0  0
    2.2240    0.4120    1.2510 O   0  0  0  0  0  0  0  0  0  0  0  0
    1.7880   -1.7490   -1.8770 H   0  0  0  0  0  0  0  0  0  0  0  0
    1.6030   -3.1960   -1.0600 H   0  0  0  0  0  0  0  0  0  0  0  0
    2.0050   -2.3420    0.9960 H   0  0  0  0  0  0  0  0  0  0  0  0
    3.9850   -2.6190   -0.5930 H   0  0  0  0  0  0  0  0  0  0  0  0
    3.7960   -0.9590   -1.1460 H   0  0  0  0  0  0  0  0  0  0  0  0
    3.4050   -1.2720    2.7590 H   0  0  0  0  0  0  0  0  0  0  0  0
    5.5990   -0.7020    3.8890 H   0  0  0  0  0  0  0  0  0  0  0  0
    7.4910   -0.5430    2.0970 H   0  0  0  0  0  0  0  0  0  0  0  0
    1.2560    2.6690   -1.4650 C   0  0  0  0  0  0  0  0  0  0  0  0
   -0.1620    2.3290   -1.0630 C   0  0  1  0  0  0  0  0  0  0  0  0
   -0.9250    1.8600   -2.0960 O   0  0  0  0  0  0  0  0  0  0  0  0
   -0.0900    1.4180    0.1250 C   0  0  2  0  0  0  0  0  0  0  0  0
    0.4600    0.1250   -0.1450 N   0  0  0  0  0  0  0  0  0  0  0  0
   -1.4180    1.3270    0.8260 C   0  0  0  0  0  0  0  0  0  0  0  0
   -2.0560    2.3630    1.1470 O   0  0  0  0  0  0  0  0  0  0  0  0
    1.7830    3.2030   -0.6490 H   0  0  0  0  0  0  0  0  0  0  0  0
    1.2830    3.3640   -2.3400 H   0  0  0  0  0  0  0  0  0  0  0  0
    1.8230    1.7650   -1.7860 H   0  0  0  0  0  0  0  0  0  0  0  0
   -0.6290    3.2780   -0.7160 H   0  0  0  0  0  0  0  0  0  0  0  0
   -0.4330    1.9960   -2.9480 H   0  0  0  0  0  0  0  0  0  0  0  0
    0.5830    1.9200    0.8540 H   0  0  0  0  0  0  0  0  0  0  0  0
   -0.0230   -0.5300   -0.8200 H   0  0  0  0  0  0  0  0  0  0  0  0
   -1.9990    0.0750    1.1500 N   0  0  0  0  0  0  0  0  0  0  0  0
   -3.2810    0.0460    1.8250 C   0  0  1  0  0  0  0  0  0  0  0  0
   -4.3160   -0.7080    1.0140 C   0  0  0  0  0  0  0  0  0  0  0  0
   -3.9100   -2.0990    0.7840 C   0  0  0  0  0  0  0  0  0  0  0  0
   -4.1710   -3.2220    1.5680 C   0  0  0  0  0  0  0  0  0  0  0  0
   -3.6140   -4.3010    0.9910 N   0  0  0  0  0  0  0  0  0  0  0  0
   -3.0100   -3.8830   -0.1360 C   0  0  0  0  0  0  0  0  0  0  0  0
   -3.1920   -2.5490   -0.2560 N   0  0  0  0  0  0  0  0  0  0  0  0
   -3.1100   -0.6710    3.1030 C   0  0  0  0  0  0  0  0  0  0  0  0
   -2.0100   -1.1360    3.4530 O   0  0  0  0  0  0  0  0  0  0  0  0
   -4.1930   -0.8470    3.9580 O   0  0  0  0  0  0  0  0  0  0  0  0
   -1.4940   -0.7880    0.8970 H   0  0  0  0  0  0  0  0  0  0  0  0
   -3.6400    1.0830    2.0140 H   0  0  0  0  0  0  0  0  0  0  0  0
   -5.2610   -0.7220    1.5910 H   0  0  0  0  0  0  0  0  0  0  0  0
   -4.5340   -0.1710    0.0530 H   0  0  0  0  0  0  0  0  0  0  0  0
   -4.7320   -3.1920    2.4830 H   0  0  0  0  0  0  0  0  0  0  0  0
   -3.6220   -5.2910    1.3160 H   0  0  0  0  0  0  0  0  0  0  0  0
   -2.4610   -4.4700   -0.8550 H   0  0  0  0  0  0  0  0  0  0  0  0
  1  2  1  0  0  0  0
  2  9  1  0  0  0  0
  2 13  1  1  0  0  0
  3  2  1  0  0  0  0
  3  4  1  0  0  0  0
  4  5  2  0  0  0  0
  5 16  1  0  0  0  0
  5  6  1  0  0  0  0
  6 17  1  0  0  0  0
  7 18  1  0  0  0  0
  7  6  1  0  0  0  0
  8  4  1  0  0  0  0
  8  7  2  0  0  0  0
  9 10  2  0  0  0  0
 11  1  1  0  0  0  0
 12  1  1  0  0  0  0
 14  3  1  0  0  0  0
 15  3  1  0  0  0  0
 19 20  1  0  0  0  0
 19 26  1  0  0  0  0
 20 29  1  1  0  0  0
 20 22  1  0  0  0  0
 21 20  1  0  0  0  0
 22 24  1  0  0  0  0
 22 31  1  1  0  0  0
 23 22  1  0  0  0  0
 23  9  1  0  0  0  0
 24 25  2  0  0  0  0
 24 33  1  0  0  0  0
 27 19  1  0  0  0  0
 28 19  1  0  0  0  0
 30 21  1  0  0  0  0
 32 23  1  0  0  0  0
 33 34  1  0  0  0  0
 34 45  1  1  0  0  0
 34 41  1  0  0  0  0
 35 46  1  0  0  0  0
 35 34  1  0  0  0  0
 36 35  1  0  0  0  0
 36 37  2  0  0  0  0
 37 48  1  0  0  0  0
 38 49  1  0  0  0  0
 38 37  1  0  0  0  0
 39 38  1  0  0  0  0
 40 39  2  0  0  0  0
 40 36  1  0  0  0  0
 41 42  2  0  0  0  0
 41 43  1  0  0  0  0
 44 33  1  0  0  0  0
 47 35  1  0  0  0  0
 50 39  1  0  0  0  0
M  END
$$$$
