HTI.pdb
 OpenBabel07022418383D

 52 52  0  0  1  0  0  0  0  0999 V2000
    1.4930   -3.2250    3.2420 N   0  0  0  0  0  0  0  0  0  0  0  0
    2.1930   -2.2780    2.3450 C   0  0  1  0  0  0  0  0  0  0  0  0
    1.9650   -2.7310    0.9430 C   0  0  0  0  0  0  0  0  0  0  0  0
    2.6890   -1.8730   -0.0220 C   0  0  0  0  0  0  0  0  0  0  0  0
    2.6890   -1.9900   -1.3980 C   0  0  0  0  0  0  0  0  0  0  0  0
    3.4850   -0.9990   -1.9000 N   0  0  0  0  0  0  0  0  0  0  0  0
    3.9630   -0.2910   -0.8730 C   0  0  0  0  0  0  0  0  0  0  0  0
    3.4840   -0.8160    0.2620 N   0  0  0  0  0  0  0  0  0  0  0  0
    1.5480   -0.9820    2.6170 C   0  0  0  0  0  0  0  0  0  0  0  0
    1.5450   -0.4650    3.7800 O   0  0  0  0  0  0  0  0  0  0  0  0
    1.3710   -4.1460    2.7860 H   0  0  0  0  0  0  0  0  0  0  0  0
    2.0360   -3.3710    4.1190 H   0  0  0  0  0  0  0  0  0  0  0  0
    3.2700   -2.2840    2.6260 H   0  0  0  0  0  0  0  0  0  0  0  0
    0.8570   -2.7130    0.7470 H   0  0  0  0  0  0  0  0  0  0  0  0
    2.2540   -3.7940    0.7800 H   0  0  0  0  0  0  0  0  0  0  0  0
    2.1570   -2.7290   -1.9520 H   0  0  0  0  0  0  0  0  0  0  0  0
    3.6400   -0.8860   -2.9260 H   0  0  0  0  0  0  0  0  0  0  0  0
    4.6160    0.5500   -0.9420 H   0  0  0  0  0  0  0  0  0  0  0  0
    2.2390    2.4850    1.3890 C   0  0  0  0  0  0  0  0  0  0  0  0
    0.7810    2.1540    1.0400 C   0  0  1  0  0  0  0  0  0  0  0  0
    0.6290    1.9550   -0.3220 O   0  0  0  0  0  0  0  0  0  0  0  0
    0.2670    1.0410    1.8780 C   0  0  2  0  0  0  0  0  0  0  0  0
    0.8980   -0.2380    1.6340 N   0  0  0  0  0  0  0  0  0  0  0  0
   -1.1860    0.8840    1.6600 C   0  0  0  0  0  0  0  0  0  0  0  0
   -1.9910    1.8590    1.8140 O   0  0  0  0  0  0  0  0  0  0  0  0
    2.8650    1.8840    0.6990 H   0  0  0  0  0  0  0  0  0  0  0  0
    2.4670    3.5520    1.1780 H   0  0  0  0  0  0  0  0  0  0  0  0
    2.4530    2.3110    2.4430 H   0  0  0  0  0  0  0  0  0  0  0  0
    0.2220    3.0840    1.2800 H   0  0  0  0  0  0  0  0  0  0  0  0
    1.5140    2.0030   -0.7650 H   0  0  0  0  0  0  0  0  0  0  0  0
    0.4420    1.2980    2.9540 H   0  0  0  0  0  0  0  0  0  0  0  0
    0.8130   -0.5770    0.6540 H   0  0  0  0  0  0  0  0  0  0  0  0
   -1.4850   -1.9080   -1.3420 C   0  0  0  0  0  0  0  0  0  0  0  0
   -2.9530   -1.9550   -1.0660 C   0  0  0  0  0  0  0  0  0  0  0  0
   -3.5290   -0.7840   -0.3710 C   0  0  2  0  0  0  0  0  0  0  0  0
   -3.2860    0.4450   -1.2240 C   0  0  0  0  0  0  0  0  0  0  0  0
   -3.1580   -0.5570    1.0510 C   0  0  2  0  0  0  0  0  0  0  0  0
   -1.7350   -0.3690    1.2700 N   0  0  0  0  0  0  0  0  0  0  0  0
   -3.6760   -1.5040    2.0180 C   0  0  0  0  0  0  0  0  0  0  0  0
   -2.8820   -2.0010    2.8550 O   0  0  0  0  0  0  0  0  0  0  0  0
   -4.9890   -1.9360    2.1230 O   0  0  0  0  0  0  0  0  0  0  0  0
   -1.0220   -2.7160   -0.7210 H   0  0  0  0  0  0  0  0  0  0  0  0
   -1.0200   -0.9320   -1.2290 H   0  0  0  0  0  0  0  0  0  0  0  0
   -1.2450   -2.2290   -2.4010 H   0  0  0  0  0  0  0  0  0  0  0  0
   -3.4570   -1.9890   -2.0800 H   0  0  0  0  0  0  0  0  0  0  0  0
   -3.2670   -2.9410   -0.6080 H   0  0  0  0  0  0  0  0  0  0  0  0
   -4.6540   -0.9240   -0.4230 H   0  0  0  0  0  0  0  0  0  0  0  0
   -3.6570    0.1770   -2.2550 H   0  0  0  0  0  0  0  0  0  0  0  0
   -2.2340    0.7040   -1.3350 H   0  0  0  0  0  0  0  0  0  0  0  0
   -3.9150    1.2990   -0.9030 H   0  0  0  0  0  0  0  0  0  0  0  0
   -3.6200    0.4460    1.3270 H   0  0  0  0  0  0  0  0  0  0  0  0
   -1.0490   -1.1620    1.1510 H   0  0  0  0  0  0  0  0  0  0  0  0
  1 12  1  0  0  0  0
  2  9  1  0  0  0  0
  2 13  1  1  0  0  0
  2  1  1  0  0  0  0
  3  2  1  0  0  0  0
  4  8  1  0  0  0  0
  4  3  1  0  0  0  0
  5  4  2  0  0  0  0
  6  5  1  0  0  0  0
  6  7  1  0  0  0  0
  7  8  2  0  0  0  0
  9 10  2  0  0  0  0
 11  1  1  0  0  0  0
 14  3  1  0  0  0  0
 15  3  1  0  0  0  0
 16  5  1  0  0  0  0
 17  6  1  0  0  0  0
 18  7  1  0  0  0  0
 19 28  1  0  0  0  0
 20 29  1  1  0  0  0
 20 19  1  0  0  0  0
 20 22  1  0  0  0  0
 21 20  1  0  0  0  0
 22 31  1  1  0  0  0
 23 22  1  0  0  0  0
 23  9  1  0  0  0  0
 24 25  2  0  0  0  0
 24 22  1  0  0  0  0
 26 19  1  0  0  0  0
 27 19  1  0  0  0  0
 30 21  1  0  0  0  0
 32 23  1  0  0  0  0
 33 43  1  0  0  0  0
 33 34  1  0  0  0  0
 33 42  1  0  0  0  0
 34 46  1  0  0  0  0
 34 35  1  0  0  0  0
 35 47  1  6  0  0  0
 35 37  1  0  0  0  0
 36 50  1  0  0  0  0
 36 35  1  0  0  0  0
 37 38  1  0  0  0  0
 37 51  1  1  0  0  0
 37 39  1  0  0  0  0
 38 24  1  0  0  0  0
 39 41  2  0  0  0  0
 39 40  1  0  0  0  0
 44 33  1  0  0  0  0
 45 34  1  0  0  0  0
 48 36  1  0  0  0  0
 49 36  1  0  0  0  0
 52 38  1  0  0  0  0
M  END
$$$$
