HTL.pdb
 OpenBabel07022418383D

 52 52  0  0  1  0  0  0  0  0999 V2000
    3.2130   -1.9870    3.6150 N   0  0  0  0  0  0  0  0  0  0  0  0
    3.1620   -1.3150    2.3260 C   0  0  1  0  0  0  0  0  0  0  0  0
    3.2610   -2.3620    1.2760 C   0  0  0  0  0  0  0  0  0  0  0  0
    3.2330   -1.8910   -0.1100 C   0  0  0  0  0  0  0  0  0  0  0  0
    2.1450   -1.7290   -0.9550 C   0  0  0  0  0  0  0  0  0  0  0  0
    2.5540   -1.2860   -2.1500 N   0  0  0  0  0  0  0  0  0  0  0  0
    3.8880   -1.1710   -2.0580 C   0  0  0  0  0  0  0  0  0  0  0  0
    4.3060   -1.5330   -0.8340 N   0  0  0  0  0  0  0  0  0  0  0  0
    1.9230   -0.5130    2.1910 C   0  0  0  0  0  0  0  0  0  0  0  0
    1.6890    0.1350    1.1500 O   0  0  0  0  0  0  0  0  0  0  0  0
    2.4410   -2.6880    3.6990 H   0  0  0  0  0  0  0  0  0  0  0  0
    3.2940   -1.3420    4.4130 H   0  0  0  0  0  0  0  0  0  0  0  0
    4.0750   -0.6700    2.2880 H   0  0  0  0  0  0  0  0  0  0  0  0
    2.4670   -3.1370    1.3720 H   0  0  0  0  0  0  0  0  0  0  0  0
    4.2170   -2.9400    1.4020 H   0  0  0  0  0  0  0  0  0  0  0  0
    1.1380   -1.9390   -0.6740 H   0  0  0  0  0  0  0  0  0  0  0  0
    2.0070   -1.0580   -3.0140 H   0  0  0  0  0  0  0  0  0  0  0  0
    4.5270   -0.8310   -2.8700 H   0  0  0  0  0  0  0  0  0  0  0  0
    0.7080    2.5190    2.6710 C   0  0  0  0  0  0  0  0  0  0  0  0
   -0.1180    1.7390    3.6350 C   0  0  1  0  0  0  0  0  0  0  0  0
   -1.4400    2.2490    3.6310 O   0  0  0  0  0  0  0  0  0  0  0  0
   -0.2470    0.2630    3.2990 C   0  0  2  0  0  0  0  0  0  0  0  0
    0.9580   -0.4530    3.2540 N   0  0  0  0  0  0  0  0  0  0  0  0
   -1.2760    0.0230    2.2720 C   0  0  0  0  0  0  0  0  0  0  0  0
   -2.3560    0.7150    2.2830 O   0  0  0  0  0  0  0  0  0  0  0  0
    0.2800    2.4130    1.6400 H   0  0  0  0  0  0  0  0  0  0  0  0
    0.5510    3.6220    2.8870 H   0  0  0  0  0  0  0  0  0  0  0  0
    1.7810    2.3460    2.7420 H   0  0  0  0  0  0  0  0  0  0  0  0
    0.2550    1.9030    4.6680 H   0  0  0  0  0  0  0  0  0  0  0  0
   -1.3750    3.2460    3.5400 H   0  0  0  0  0  0  0  0  0  0  0  0
   -0.7830   -0.1430    4.2580 H   0  0  0  0  0  0  0  0  0  0  0  0
    1.2710   -1.0630    4.0930 H   0  0  0  0  0  0  0  0  0  0  0  0
   -2.9370   -1.8880   -2.8390 C   0  0  0  0  0  0  0  0  0  0  0  0
   -2.6750   -0.5330   -2.2270 C   0  0  0  0  0  0  0  0  0  0  0  0
   -3.9870    0.2040   -2.2480 C   0  0  0  0  0  0  0  0  0  0  0  0
   -1.8920   -0.5170   -1.0240 C   0  0  0  0  0  0  0  0  0  0  0  0
   -2.2410   -1.1470    0.2440 C   0  0  2  0  0  0  0  0  0  0  0  0
   -1.1870   -0.9110    1.2660 N   0  0  0  0  0  0  0  0  0  0  0  0
   -2.4930   -2.5870    0.3100 C   0  0  0  0  0  0  0  0  0  0  0  0
   -1.7570   -3.3610    1.0340 O   0  0  0  0  0  0  0  0  0  0  0  0
   -3.4910   -3.2950   -0.3420 O   0  0  0  0  0  0  0  0  0  0  0  0
   -4.0050   -2.2070   -2.7120 H   0  0  0  0  0  0  0  0  0  0  0  0
   -2.2080   -2.6570   -2.5830 H   0  0  0  0  0  0  0  0  0  0  0  0
   -2.8580   -1.8280   -3.9790 H   0  0  0  0  0  0  0  0  0  0  0  0
   -2.0740    0.0190   -3.0300 H   0  0  0  0  0  0  0  0  0  0  0  0
   -4.5580    0.1610   -1.3280 H   0  0  0  0  0  0  0  0  0  0  0  0
   -3.8560    1.2910   -2.4920 H   0  0  0  0  0  0  0  0  0  0  0  0
   -4.6480   -0.1850   -3.0540 H   0  0  0  0  0  0  0  0  0  0  0  0
   -1.6240    0.5670   -0.7530 H   0  0  0  0  0  0  0  0  0  0  0  0
   -0.8550   -0.9090   -1.3000 H   0  0  0  0  0  0  0  0  0  0  0  0
   -3.1010   -0.5610    0.7040 H   0  0  0  0  0  0  0  0  0  0  0  0
   -0.3690   -1.5430    1.1490 H   0  0  0  0  0  0  0  0  0  0  0  0
  1 11  1  0  0  0  0
  1 12  1  0  0  0  0
  2 13  1  6  0  0  0
  2  1  1  0  0  0  0
  3 14  1  0  0  0  0
  3 15  1  0  0  0  0
  3  2  1  0  0  0  0
  4  3  1  0  0  0  0
  5 16  1  0  0  0  0
  5  4  2  0  0  0  0
  6  7  1  0  0  0  0
  6  5  1  0  0  0  0
  7  8  2  0  0  0  0
  8  4  1  0  0  0  0
  9  2  1  0  0  0  0
  9 23  1  0  0  0  0
 10  9  2  0  0  0  0
 17  6  1  0  0  0  0
 18  7  1  0  0  0  0
 19 28  1  0  0  0  0
 19 27  1  0  0  0  0
 19 20  1  0  0  0  0
 20 29  1  1  0  0  0
 21 20  1  0  0  0  0
 22 20  1  0  0  0  0
 22 31  1  1  0  0  0
 23 22  1  0  0  0  0
 23 32  1  0  0  0  0
 24 25  2  0  0  0  0
 24 22  1  0  0  0  0
 26 19  1  0  0  0  0
 30 21  1  0  0  0  0
 33 42  1  0  0  0  0
 33 43  1  0  0  0  0
 33 34  1  0  0  0  0
 34 36  1  0  0  0  0
 35 34  1  0  0  0  0
 35 46  1  0  0  0  0
 36 49  1  0  0  0  0
 36 37  1  0  0  0  0
 37 39  1  0  0  0  0
 37 51  1  1  0  0  0
 37 38  1  0  0  0  0
 38 24  1  0  0  0  0
 39 40  1  0  0  0  0
 41 39  2  0  0  0  0
 44 33  1  0  0  0  0
 45 34  1  0  0  0  0
 47 35  1  0  0  0  0
 48 35  1  0  0  0  0
 50 36  1  0  0  0  0
 52 38  1  0  0  0  0
M  END
$$$$
