HTN.pdb
 OpenBabel07022418383D

 47 47  0  0  1  0  0  0  0  0999 V2000
    0.8350   -3.0690   -0.1610 N   0  0  0  0  0  0  0  0  0  0  0  0
    1.8490   -2.4270    0.6530 C   0  0  1  0  0  0  0  0  0  0  0  0
    3.1770   -2.6410   -0.0650 C   0  0  0  0  0  0  0  0  0  0  0  0
    4.3070   -2.0430    0.6440 C   0  0  0  0  0  0  0  0  0  0  0  0
    4.8020   -0.7460    0.4860 C   0  0  0  0  0  0  0  0  0  0  0  0
    5.8490   -0.5530    1.3070 N   0  0  0  0  0  0  0  0  0  0  0  0
    6.0260   -1.7030    1.9810 C   0  0  0  0  0  0  0  0  0  0  0  0
    5.1030   -2.5960    1.5860 N   0  0  0  0  0  0  0  0  0  0  0  0
    1.5330   -1.0020    0.8100 C   0  0  0  0  0  0  0  0  0  0  0  0
    2.2360   -0.1890    1.4640 O   0  0  0  0  0  0  0  0  0  0  0  0
    0.9110   -2.8700   -1.1620 H   0  0  0  0  0  0  0  0  0  0  0  0
   -0.1040   -3.0530    0.2470 H   0  0  0  0  0  0  0  0  0  0  0  0
    1.8370   -2.9500    1.6350 H   0  0  0  0  0  0  0  0  0  0  0  0
    3.0830   -2.1810   -1.0660 H   0  0  0  0  0  0  0  0  0  0  0  0
    3.3390   -3.7290   -0.1320 H   0  0  0  0  0  0  0  0  0  0  0  0
    4.4310    0.0100   -0.1790 H   0  0  0  0  0  0  0  0  0  0  0  0
    6.4350    0.3000    1.4280 H   0  0  0  0  0  0  0  0  0  0  0  0
    6.7790   -1.9050    2.7270 H   0  0  0  0  0  0  0  0  0  0  0  0
    1.1010    1.9570   -1.6730 C   0  0  0  0  0  0  0  0  0  0  0  0
   -0.2150    1.6670   -0.9390 C   0  0  1  0  0  0  0  0  0  0  0  0
   -1.1870    1.1850   -1.7810 O   0  0  0  0  0  0  0  0  0  0  0  0
   -0.0020    0.8870    0.3020 C   0  0  2  0  0  0  0  0  0  0  0  0
    0.3820   -0.4570    0.2100 N   0  0  0  0  0  0  0  0  0  0  0  0
   -1.2690    0.9580    1.1070 C   0  0  0  0  0  0  0  0  0  0  0  0
   -1.7230    2.1430    1.2620 O   0  0  0  0  0  0  0  0  0  0  0  0
    1.4890    1.0890   -2.2010 H   0  0  0  0  0  0  0  0  0  0  0  0
    1.7960    2.3660   -0.9040 H   0  0  0  0  0  0  0  0  0  0  0  0
    0.9690    2.7660   -2.4220 H   0  0  0  0  0  0  0  0  0  0  0  0
   -0.5810    2.6760   -0.6240 H   0  0  0  0  0  0  0  0  0  0  0  0
   -0.7410    0.9750   -2.6560 H   0  0  0  0  0  0  0  0  0  0  0  0
    0.7550    1.4390    0.9200 H   0  0  0  0  0  0  0  0  0  0  0  0
   -0.2510   -1.1000   -0.3570 H   0  0  0  0  0  0  0  0  0  0  0  0
   -5.6250   -1.0530   -0.2720 N   0  0  0  0  0  0  0  0  0  0  0  0
   -4.5750   -0.3910    0.4170 C   0  0  0  0  0  0  0  0  0  0  0  0
   -3.9530    0.5310   -0.1530 O   0  0  0  0  0  0  0  0  0  0  0  0
   -4.2550   -0.8140    1.7810 C   0  0  0  0  0  0  0  0  0  0  0  0
   -3.1180   -0.0310    2.4070 C   0  0  2  0  0  0  0  0  0  0  0  0
   -1.8990   -0.1690    1.6420 N   0  0  0  0  0  0  0  0  0  0  0  0
   -2.9140   -0.5980    3.7550 C   0  0  0  0  0  0  0  0  0  0  0  0
   -1.8150   -1.0910    4.0630 O   0  0  0  0  0  0  0  0  0  0  0  0
   -3.9410   -0.5800    4.6680 O   0  0  0  0  0  0  0  0  0  0  0  0
   -6.2560   -0.5170   -0.9110 H   0  0  0  0  0  0  0  0  0  0  0  0
   -5.8170   -2.0740   -0.1820 H   0  0  0  0  0  0  0  0  0  0  0  0
   -5.1590   -0.5930    2.4190 H   0  0  0  0  0  0  0  0  0  0  0  0
   -4.0810   -1.8950    1.8880 H   0  0  0  0  0  0  0  0  0  0  0  0
   -3.3990    1.0430    2.4400 H   0  0  0  0  0  0  0  0  0  0  0  0
   -1.5120   -1.1050    1.5010 H   0  0  0  0  0  0  0  0  0  0  0  0
  1 12  1  0  0  0  0
  1  2  1  0  0  0  0
  2  9  1  0  0  0  0
  2 13  1  1  0  0  0
  3  4  1  0  0  0  0
  3  2  1  0  0  0  0
  4  8  1  0  0  0  0
  5  4  2  0  0  0  0
  5  6  1  0  0  0  0
  6 17  1  0  0  0  0
  6  7  1  0  0  0  0
  7 18  1  0  0  0  0
  8  7  2  0  0  0  0
  9 10  2  0  0  0  0
 11  1  1  0  0  0  0
 14  3  1  0  0  0  0
 15  3  1  0  0  0  0
 16  5  1  0  0  0  0
 19 20  1  0  0  0  0
 19 27  1  0  0  0  0
 20 29  1  1  0  0  0
 20 22  1  0  0  0  0
 21 20  1  0  0  0  0
 22 31  1  1  0  0  0
 22 24  1  0  0  0  0
 23 22  1  0  0  0  0
 23  9  1  0  0  0  0
 24 25  2  0  0  0  0
 24 38  1  0  0  0  0
 26 19  1  0  0  0  0
 28 19  1  0  0  0  0
 30 21  1  0  0  0  0
 32 23  1  0  0  0  0
 33 43  1  0  0  0  0
 33 34  1  0  0  0  0
 34 36  1  0  0  0  0
 35 34  2  0  0  0  0
 36 45  1  0  0  0  0
 36 37  1  0  0  0  0
 36 44  1  0  0  0  0
 37 46  1  1  0  0  0
 37 39  1  0  0  0  0
 38 37  1  0  0  0  0
 39 40  2  0  0  0  0
 39 41  1  0  0  0  0
 42 33  1  0  0  0  0
 47 38  1  0  0  0  0
M  END
$$$$
