HTP.pdb
 OpenBabel07022418383D

 47 48  0  0  1  0  0  0  0  0999 V2000
   -0.6140   -2.8540    2.5310 N   0  0  0  0  0  0  0  0  0  0  0  0
    0.7450   -2.3200    2.7950 C   0  0  1  0  0  0  0  0  0  0  0  0
    1.6570   -3.4470    2.4810 C   0  0  0  0  0  0  0  0  0  0  0  0
    3.1030   -3.1890    2.6600 C   0  0  0  0  0  0  0  0  0  0  0  0
    4.0420   -2.7600    1.7510 C   0  0  0  0  0  0  0  0  0  0  0  0
    5.2670   -2.6830    2.3500 N   0  0  0  0  0  0  0  0  0  0  0  0
    5.0840   -3.0560    3.6090 C   0  0  0  0  0  0  0  0  0  0  0  0
    3.8110   -3.3580    3.8130 N   0  0  0  0  0  0  0  0  0  0  0  0
    0.9590   -1.0550    2.1110 C   0  0  0  0  0  0  0  0  0  0  0  0
    1.8870   -0.2960    2.4060 O   0  0  0  0  0  0  0  0  0  0  0  0
   -0.7250   -3.1940    1.5760 H   0  0  0  0  0  0  0  0  0  0  0  0
   -1.3490   -2.2480    2.9090 H   0  0  0  0  0  0  0  0  0  0  0  0
    0.7630   -2.2040    3.9160 H   0  0  0  0  0  0  0  0  0  0  0  0
    1.3880   -4.2570    3.2350 H   0  0  0  0  0  0  0  0  0  0  0  0
    1.4220   -3.9470    1.5040 H   0  0  0  0  0  0  0  0  0  0  0  0
    3.9220   -2.5160    0.7200 H   0  0  0  0  0  0  0  0  0  0  0  0
    6.1690   -2.3940    1.9080 H   0  0  0  0  0  0  0  0  0  0  0  0
    5.9210   -3.0830    4.3270 H   0  0  0  0  0  0  0  0  0  0  0  0
    2.5010    0.1510   -0.6140 C   0  0  0  0  0  0  0  0  0  0  0  0
    1.0890    0.5400   -0.8960 C   0  0  1  0  0  0  0  0  0  0  0  0
    0.4350   -0.1840   -1.8490 O   0  0  0  0  0  0  0  0  0  0  0  0
    0.3280    0.6540    0.4380 C   0  0  2  0  0  0  0  0  0  0  0  0
    0.0770   -0.5990    1.0230 N   0  0  0  0  0  0  0  0  0  0  0  0
   -0.7640    1.6100    0.2530 C   0  0  0  0  0  0  0  0  0  0  0  0
   -0.4260    2.8940    0.3250 O   0  0  0  0  0  0  0  0  0  0  0  0
    3.1370    0.2600   -1.5290 H   0  0  0  0  0  0  0  0  0  0  0  0
    2.9050    0.9060    0.1150 H   0  0  0  0  0  0  0  0  0  0  0  0
    2.5890   -0.8650   -0.2270 H   0  0  0  0  0  0  0  0  0  0  0  0
    1.1200    1.6090   -1.2700 H   0  0  0  0  0  0  0  0  0  0  0  0
    1.1590   -0.5270   -2.4810 H   0  0  0  0  0  0  0  0  0  0  0  0
    1.1090    1.1960    1.0750 H   0  0  0  0  0  0  0  0  0  0  0  0
   -0.6650   -1.2830    0.7790 H   0  0  0  0  0  0  0  0  0  0  0  0
   -2.1120    1.3470    0.0080 N   0  0  0  0  0  0  0  0  0  0  0  0
   -3.1370    2.4210    0.0450 C   0  0  0  0  0  0  0  0  0  0  0  0
   -4.4250    1.7190    0.3250 C   0  0  0  0  0  0  0  0  0  0  0  0
   -4.0930    0.2430    0.4330 C   0  0  0  0  0  0  0  0  0  0  0  0
   -2.8170    0.1970   -0.4270 C   0  0  1  0  0  0  0  0  0  0  0  0
   -3.3440    0.3900   -1.8370 C   0  0  0  0  0  0  0  0  0  0  0  0
   -4.0670   -0.5190   -2.3070 O   0  0  0  0  0  0  0  0  0  0  0  0
   -3.0720    1.4880   -2.6080 O   0  0  0  0  0  0  0  0  0  0  0  0
   -3.1890    2.9520   -0.8930 H   0  0  0  0  0  0  0  0  0  0  0  0
   -2.9130    3.0920    0.9130 H   0  0  0  0  0  0  0  0  0  0  0  0
   -4.9170    2.0230    1.2550 H   0  0  0  0  0  0  0  0  0  0  0  0
   -5.1870    1.8490   -0.4820 H   0  0  0  0  0  0  0  0  0  0  0  0
   -3.8130   -0.0760    1.4310 H   0  0  0  0  0  0  0  0  0  0  0  0
   -4.8240   -0.3940   -0.0980 H   0  0  0  0  0  0  0  0  0  0  0  0
   -2.3410   -0.7730   -0.3790 H   0  0  0  0  0  0  0  0  0  0  0  0
  1  2  1  0  0  0  0
  1 12  1  0  0  0  0
  2 13  1  1  0  0  0
  3  4  1  0  0  0  0
  3  2  1  0  0  0  0
  3 14  1  0  0  0  0
  4  8  1  0  0  0  0
  5  6  1  0  0  0  0
  5  4  2  0  0  0  0
  6  7  1  0  0  0  0
  7  8  2  0  0  0  0
  7 18  1  0  0  0  0
  9 10  2  0  0  0  0
  9  2  1  0  0  0  0
 11  1  1  0  0  0  0
 15  3  1  0  0  0  0
 16  5  1  0  0  0  0
 17  6  1  0  0  0  0
 19 28  1  0  0  0  0
 19 27  1  0  0  0  0
 20 29  1  6  0  0  0
 20 19  1  0  0  0  0
 20 22  1  0  0  0  0
 21 20  1  0  0  0  0
 22 23  1  0  0  0  0
 22 31  1  1  0  0  0
 23  9  1  0  0  0  0
 24 25  2  0  0  0  0
 24 22  1  0  0  0  0
 26 19  1  0  0  0  0
 30 21  1  0  0  0  0
 32 23  1  0  0  0  0
 33 34  1  0  0  0  0
 33 24  1  0  0  0  0
 34 35  1  0  0  0  0
 34 42  1  0  0  0  0
 35 36  1  0  0  0  0
 35 43  1  0  0  0  0
 36 45  1  0  0  0  0
 37 47  1  1  0  0  0
 37 33  1  0  0  0  0
 37 36  1  0  0  0  0
 38 37  1  0  0  0  0
 39 38  1  0  0  0  0
 40 38  2  0  0  0  0
 41 34  1  0  0  0  0
 44 35  1  0  0  0  0
 46 36  1  0  0  0  0
M  END
$$$$
