HTQ.pdb
 OpenBabel07022418383D

 50 50  0  0  1  0  0  0  0  0999 V2000
    4.5520   -1.1840    2.0830 N   0  0  0  0  0  0  0  0  0  0  0  0
    3.5410   -1.6660    1.1550 C   0  0  1  0  0  0  0  0  0  0  0  0
    2.7430   -2.7040    1.9220 C   0  0  0  0  0  0  0  0  0  0  0  0
    2.1200   -2.0800    3.1290 C   0  0  0  0  0  0  0  0  0  0  0  0
    0.8920   -1.4780    3.2450 C   0  0  0  0  0  0  0  0  0  0  0  0
    0.7680   -1.0690    4.5130 N   0  0  0  0  0  0  0  0  0  0  0  0
    1.8690   -1.3930    5.1850 C   0  0  0  0  0  0  0  0  0  0  0  0
    2.7000   -2.0140    4.3380 N   0  0  0  0  0  0  0  0  0  0  0  0
    2.7180   -0.5670    0.6360 C   0  0  0  0  0  0  0  0  0  0  0  0
    2.9090    0.5990    1.0600 O   0  0  0  0  0  0  0  0  0  0  0  0
    4.8300   -1.9440    2.7160 H   0  0  0  0  0  0  0  0  0  0  0  0
    4.3110   -0.2900    2.5290 H   0  0  0  0  0  0  0  0  0  0  0  0
    4.0880   -2.2040    0.3420 H   0  0  0  0  0  0  0  0  0  0  0  0
    2.0070   -3.2250    1.2880 H   0  0  0  0  0  0  0  0  0  0  0  0
    3.4620   -3.4680    2.2780 H   0  0  0  0  0  0  0  0  0  0  0  0
    0.1570   -1.3480    2.4830 H   0  0  0  0  0  0  0  0  0  0  0  0
   -0.0360   -0.5700    4.9650 H   0  0  0  0  0  0  0  0  0  0  0  0
    2.1160   -1.2160    6.2380 H   0  0  0  0  0  0  0  0  0  0  0  0
    2.5460    0.9040   -2.5800 C   0  0  0  0  0  0  0  0  0  0  0  0
    1.1270    0.4370   -2.3660 C   0  0  1  0  0  0  0  0  0  0  0  0
    0.8870   -0.7130   -3.1080 O   0  0  0  0  0  0  0  0  0  0  0  0
    0.8760    0.2130   -0.8830 C   0  0  2  0  0  0  0  0  0  0  0  0
    1.7090   -0.8100   -0.3400 N   0  0  0  0  0  0  0  0  0  0  0  0
   -0.5840   -0.0350   -0.7270 C   0  0  0  0  0  0  0  0  0  0  0  0
   -1.3510    0.8320   -1.1650 O   0  0  0  0  0  0  0  0  0  0  0  0
    2.8360    1.4850   -1.6840 H   0  0  0  0  0  0  0  0  0  0  0  0
    3.2270    0.0170   -2.7300 H   0  0  0  0  0  0  0  0  0  0  0  0
    2.6410    1.5030   -3.5110 H   0  0  0  0  0  0  0  0  0  0  0  0
    0.4420    1.2410   -2.7100 H   0  0  0  0  0  0  0  0  0  0  0  0
    1.3860   -0.6470   -3.9600 H   0  0  0  0  0  0  0  0  0  0  0  0
    1.1120    1.1740   -0.3940 H   0  0  0  0  0  0  0  0  0  0  0  0
    1.5950   -1.8130   -0.6600 H   0  0  0  0  0  0  0  0  0  0  0  0
   -4.0410    2.8080    1.8410 N   0  0  0  0  0  0  0  0  0  0  0  0
   -4.1660    1.7540    0.9180 C   0  0  0  0  0  0  0  0  0  0  0  0
   -5.0230    1.7440    0.0210 O   0  0  0  0  0  0  0  0  0  0  0  0
   -3.2260    0.6070    1.0290 C   0  0  0  0  0  0  0  0  0  0  0  0
   -3.4670   -0.4370   -0.0080 C   0  0  0  0  0  0  0  0  0  0  0  0
   -2.4450   -1.5520    0.1240 C   0  0  2  0  0  0  0  0  0  0  0  0
   -1.0970   -1.1930   -0.1140 N   0  0  0  0  0  0  0  0  0  0  0  0
   -2.9090   -2.8220   -0.4250 C   0  0  0  0  0  0  0  0  0  0  0  0
   -2.1570   -3.6060   -1.0990 O   0  0  0  0  0  0  0  0  0  0  0  0
   -4.2130   -3.2890   -0.2610 O   0  0  0  0  0  0  0  0  0  0  0  0
   -4.4240    2.6760    2.7990 H   0  0  0  0  0  0  0  0  0  0  0  0
   -3.5660    3.6850    1.5260 H   0  0  0  0  0  0  0  0  0  0  0  0
   -3.5360    0.1400    2.0480 H   0  0  0  0  0  0  0  0  0  0  0  0
   -2.1960    0.8890    1.2130 H   0  0  0  0  0  0  0  0  0  0  0  0
   -4.4540   -0.9250    0.2470 H   0  0  0  0  0  0  0  0  0  0  0  0
   -3.5770   -0.0620   -1.0240 H   0  0  0  0  0  0  0  0  0  0  0  0
   -2.4720   -1.6740    1.2900 H   0  0  0  0  0  0  0  0  0  0  0  0
   -0.3330   -1.8790    0.2050 H   0  0  0  0  0  0  0  0  0  0  0  0
  1 12  1  0  0  0  0
  1 11  1  0  0  0  0
  2 13  1  6  0  0  0
  2  3  1  0  0  0  0
  2  1  1  0  0  0  0
  3 15  1  0  0  0  0
  3  4  1  0  0  0  0
  4  5  2  0  0  0  0
  4  8  1  0  0  0  0
  5  6  1  0  0  0  0
  6 17  1  0  0  0  0
  6  7  1  0  0  0  0
  7 18  1  0  0  0  0
  8  7  2  0  0  0  0
  9 10  2  0  0  0  0
  9  2  1  0  0  0  0
 14  3  1  0  0  0  0
 16  5  1  0  0  0  0
 19 20  1  0  0  0  0
 19 26  1  0  0  0  0
 20 29  1  6  0  0  0
 20 22  1  0  0  0  0
 21 20  1  0  0  0  0
 22 24  1  0  0  0  0
 22 31  1  1  0  0  0
 22 23  1  0  0  0  0
 23  9  1  0  0  0  0
 24 39  1  0  0  0  0
 25 24  2  0  0  0  0
 27 19  1  0  0  0  0
 28 19  1  0  0  0  0
 30 21  1  0  0  0  0
 32 23  1  0  0  0  0
 33 43  1  0  0  0  0
 34 36  1  0  0  0  0
 34 33  1  0  0  0  0
 35 34  2  0  0  0  0
 36 46  1  0  0  0  0
 36 45  1  0  0  0  0
 37 38  1  0  0  0  0
 37 47  1  0  0  0  0
 37 36  1  0  0  0  0
 38 49  1  1  0  0  0
 39 38  1  0  0  0  0
 39 50  1  0  0  0  0
 40 42  1  0  0  0  0
 40 38  1  0  0  0  0
 41 40  2  0  0  0  0
 44 33  1  0  0  0  0
 48 37  1  0  0  0  0
M  END
$$$$
