HTS.pdb
 OpenBabel07022418383D

 44 44  0  0  1  0  0  0  0  0999 V2000
    0.1020   -2.0630    4.8460 N   0  0  0  0  0  0  0  0  0  0  0  0
    0.9070   -1.5200    3.7070 C   0  0  1  0  0  0  0  0  0  0  0  0
    1.2450   -2.6970    2.8810 C   0  0  0  0  0  0  0  0  0  0  0  0
    2.0770   -2.4570    1.6950 C   0  0  0  0  0  0  0  0  0  0  0  0
    3.4840   -2.4720    1.7110 C   0  0  0  0  0  0  0  0  0  0  0  0
    3.9490   -2.2180    0.4880 N   0  0  0  0  0  0  0  0  0  0  0  0
    2.9010   -2.0390   -0.3230 C   0  0  0  0  0  0  0  0  0  0  0  0
    1.7860   -2.1860    0.4170 N   0  0  0  0  0  0  0  0  0  0  0  0
    0.0390   -0.5210    3.0850 C   0  0  0  0  0  0  0  0  0  0  0  0
   -1.1360   -0.3480    3.5610 O   0  0  0  0  0  0  0  0  0  0  0  0
    0.5780   -2.9510    5.1320 H   0  0  0  0  0  0  0  0  0  0  0  0
   -0.8460   -2.3340    4.5060 H   0  0  0  0  0  0  0  0  0  0  0  0
    1.7810   -1.0660    4.2260 H   0  0  0  0  0  0  0  0  0  0  0  0
    1.8350   -3.4130    3.5360 H   0  0  0  0  0  0  0  0  0  0  0  0
    0.3310   -3.3020    2.6310 H   0  0  0  0  0  0  0  0  0  0  0  0
    4.0550   -2.6620    2.5950 H   0  0  0  0  0  0  0  0  0  0  0  0
    4.9420   -2.1680    0.2130 H   0  0  0  0  0  0  0  0  0  0  0  0
    2.9250   -1.8220   -1.3570 H   0  0  0  0  0  0  0  0  0  0  0  0
    1.2450    2.7620    0.6080 C   0  0  0  0  0  0  0  0  0  0  0  0
   -0.0010    2.6840    1.4340 C   0  0  1  0  0  0  0  0  0  0  0  0
   -0.9520    3.5560    0.9240 O   0  0  0  0  0  0  0  0  0  0  0  0
   -0.5860    1.2840    1.4760 C   0  0  2  0  0  0  0  0  0  0  0  0
    0.3290    0.3210    1.9890 N   0  0  0  0  0  0  0  0  0  0  0  0
   -1.2850    0.9390    0.2280 C   0  0  0  0  0  0  0  0  0  0  0  0
   -2.0630    1.7880   -0.3360 O   0  0  0  0  0  0  0  0  0  0  0  0
    2.1030    3.1900    1.1950 H   0  0  0  0  0  0  0  0  0  0  0  0
    1.1270    3.4680   -0.2650 H   0  0  0  0  0  0  0  0  0  0  0  0
    1.5920    1.7720    0.2490 H   0  0  0  0  0  0  0  0  0  0  0  0
    0.2190    3.0050    2.4730 H   0  0  0  0  0  0  0  0  0  0  0  0
   -0.5770    4.4680    0.8370 H   0  0  0  0  0  0  0  0  0  0  0  0
   -1.4200    1.3590    2.2530 H   0  0  0  0  0  0  0  0  0  0  0  0
    1.2690    0.2310    1.5490 H   0  0  0  0  0  0  0  0  0  0  0  0
   -0.1590    0.3280   -3.0680 O   0  0  0  0  0  0  0  0  0  0  0  0
   -0.9530   -0.7750   -2.8640 C   0  0  0  0  0  0  0  0  0  0  0  0
   -1.9230   -0.5570   -1.7030 C   0  0  2  0  0  0  0  0  0  0  0  0
   -1.1960   -0.2940   -0.4640 N   0  0  0  0  0  0  0  0  0  0  0  0
   -2.7540   -1.7670   -1.6040 C   0  0  0  0  0  0  0  0  0  0  0  0
   -3.4430   -2.1410   -2.5720 O   0  0  0  0  0  0  0  0  0  0  0  0
   -2.7810   -2.5050   -0.4410 O   0  0  0  0  0  0  0  0  0  0  0  0
    0.8100    0.1460   -2.9810 H   0  0  0  0  0  0  0  0  0  0  0  0
   -0.3660   -1.7100   -2.6690 H   0  0  0  0  0  0  0  0  0  0  0  0
   -1.5990   -0.9430   -3.7580 H   0  0  0  0  0  0  0  0  0  0  0  0
   -2.5140    0.3540   -1.9600 H   0  0  0  0  0  0  0  0  0  0  0  0
   -0.6150   -1.0520   -0.1060 H   0  0  0  0  0  0  0  0  0  0  0  0
  1 11  1  0  0  0  0
  2 13  1  1  0  0  0
  2  1  1  0  0  0  0
  3 14  1  0  0  0  0
  3  2  1  0  0  0  0
  4  5  2  0  0  0  0
  4  3  1  0  0  0  0
  5 16  1  0  0  0  0
  6  5  1  0  0  0  0
  7  8  2  0  0  0  0
  7  6  1  0  0  0  0
  8  4  1  0  0  0  0
  9 10  2  0  0  0  0
  9  2  1  0  0  0  0
 12  1  1  0  0  0  0
 15  3  1  0  0  0  0
 17  6  1  0  0  0  0
 18  7  1  0  0  0  0
 19 26  1  0  0  0  0
 19 20  1  0  0  0  0
 20 22  1  0  0  0  0
 20 29  1  1  0  0  0
 21 20  1  0  0  0  0
 22 23  1  0  0  0  0
 22 31  1  1  0  0  0
 23  9  1  0  0  0  0
 24 22  1  0  0  0  0
 25 24  2  0  0  0  0
 27 19  1  0  0  0  0
 28 19  1  0  0  0  0
 30 21  1  0  0  0  0
 32 23  1  0  0  0  0
 33 40  1  0  0  0  0
 33 34  1  0  0  0  0
 34 41  1  0  0  0  0
 34 35  1  0  0  0  0
 35 43  1  6  0  0  0
 35 37  1  0  0  0  0
 35 36  1  0  0  0  0
 36 44  1  0  0  0  0
 36 24  1  0  0  0  0
 37 39  1  0  0  0  0
 38 37  2  0  0  0  0
 42 34  1  0  0  0  0
M  END
$$$$
