HTW.pdb
 OpenBabel07022418383D

 57 59  0  0  1  0  0  0  0  0999 V2000
    1.0900    1.2510    5.1780 N   0  0  0  0  0  0  0  0  0  0  0  0
    1.4120    2.1870    4.1200 C   0  0  1  0  0  0  0  0  0  0  0  0
    2.8230    2.6930    4.4490 C   0  0  0  0  0  0  0  0  0  0  0  0
    3.3180    3.6730    3.4630 C   0  0  0  0  0  0  0  0  0  0  0  0
    3.1660    5.0360    3.5210 C   0  0  0  0  0  0  0  0  0  0  0  0
    3.7690    5.5750    2.4270 N   0  0  0  0  0  0  0  0  0  0  0  0
    4.2810    4.5810    1.7090 C   0  0  0  0  0  0  0  0  0  0  0  0
    4.0060    3.4140    2.3420 N   0  0  0  0  0  0  0  0  0  0  0  0
    1.4990    1.5400    2.8020 C   0  0  0  0  0  0  0  0  0  0  0  0
    1.6780    2.2700    1.7930 O   0  0  0  0  0  0  0  0  0  0  0  0
    1.6300    0.3900    5.1740 H   0  0  0  0  0  0  0  0  0  0  0  0
    0.1060    1.2210    5.4430 H   0  0  0  0  0  0  0  0  0  0  0  0
    0.7340    3.0330    4.0900 H   0  0  0  0  0  0  0  0  0  0  0  0
    3.4970    1.8140    4.5390 H   0  0  0  0  0  0  0  0  0  0  0  0
    2.7590    3.1140    5.4820 H   0  0  0  0  0  0  0  0  0  0  0  0
    2.6740    5.6550    4.2590 H   0  0  0  0  0  0  0  0  0  0  0  0
    3.8230    6.6000    2.1870 H   0  0  0  0  0  0  0  0  0  0  0  0
    4.8250    4.6710    0.7810 H   0  0  0  0  0  0  0  0  0  0  0  0
    2.7780   -2.3900    2.0130 C   0  0  0  0  0  0  0  0  0  0  0  0
    2.7340   -1.2230    1.0620 C   0  0  1  0  0  0  0  0  0  0  0  0
    2.8150   -1.7170   -0.2330 O   0  0  0  0  0  0  0  0  0  0  0  0
    1.4990   -0.3740    1.2410 C   0  0  2  0  0  0  0  0  0  0  0  0
    1.3980    0.1540    2.5720 N   0  0  0  0  0  0  0  0  0  0  0  0
    0.2550   -1.0890    0.9070 C   0  0  0  0  0  0  0  0  0  0  0  0
   -0.6190   -1.1970    1.8050 O   0  0  0  0  0  0  0  0  0  0  0  0
    1.9160   -2.4280    2.7010 H   0  0  0  0  0  0  0  0  0  0  0  0
    2.7900   -3.3660    1.4590 H   0  0  0  0  0  0  0  0  0  0  0  0
    3.7250   -2.3790    2.5930 H   0  0  0  0  0  0  0  0  0  0  0  0
    3.6260   -0.5880    1.2270 H   0  0  0  0  0  0  0  0  0  0  0  0
    3.0170   -0.9680   -0.8540 H   0  0  0  0  0  0  0  0  0  0  0  0
    1.6080    0.4690    0.5320 H   0  0  0  0  0  0  0  0  0  0  0  0
    1.2490   -0.4830    3.3750 H   0  0  0  0  0  0  0  0  0  0  0  0
    0.0280   -1.6350   -0.3530 N   0  0  0  0  0  0  0  0  0  0  0  0
   -1.2320   -2.3440   -0.6300 C   0  0  1  0  0  0  0  0  0  0  0  0
   -2.1110   -1.4790   -1.4930 C   0  0  0  0  0  0  0  0  0  0  0  0
   -3.3710   -2.1520   -1.8380 C   0  0  0  0  0  0  0  0  0  0  0  0
   -4.5620   -2.1380   -1.1110 C   0  0  0  0  0  0  0  0  0  0  0  0
   -5.4600   -2.9070   -1.7330 N   0  0  0  0  0  0  0  0  0  0  0  0
   -4.9190   -3.4400   -2.8540 C   0  0  0  0  0  0  0  0  0  0  0  0
   -5.4550   -4.2740   -3.8260 C   0  0  0  0  0  0  0  0  0  0  0  0
   -4.6930   -4.6600   -4.9030 C   0  0  0  0  0  0  0  0  0  0  0  0
   -3.4060   -4.1900   -4.9630 C   0  0  0  0  0  0  0  0  0  0  0  0
   -2.8660   -3.3710   -4.0150 C   0  0  0  0  0  0  0  0  0  0  0  0
   -3.6300   -2.9790   -2.9280 C   0  0  0  0  0  0  0  0  0  0  0  0
   -0.9740   -3.6440   -1.1990 C   0  0  0  0  0  0  0  0  0  0  0  0
    0.2250   -3.9290   -1.5560 O   0  0  0  0  0  0  0  0  0  0  0  0
   -1.8860   -4.6580   -1.4100 O   0  0  0  0  0  0  0  0  0  0  0  0
    0.7140   -1.5770   -1.1560 H   0  0  0  0  0  0  0  0  0  0  0  0
   -1.7610   -2.3890    0.3620 H   0  0  0  0  0  0  0  0  0  0  0  0
   -2.3280   -0.5040   -0.9620 H   0  0  0  0  0  0  0  0  0  0  0  0
   -1.5540   -1.1810   -2.4370 H   0  0  0  0  0  0  0  0  0  0  0  0
   -4.6780   -1.5820   -0.2040 H   0  0  0  0  0  0  0  0  0  0  0  0
   -6.4570   -3.1010   -1.4340 H   0  0  0  0  0  0  0  0  0  0  0  0
   -6.4650   -4.6300   -3.7610 H   0  0  0  0  0  0  0  0  0  0  0  0
   -5.1040   -5.3190   -5.6770 H   0  0  0  0  0  0  0  0  0  0  0  0
   -2.7870   -4.4890   -5.8160 H   0  0  0  0  0  0  0  0  0  0  0  0
   -1.8450   -2.9820   -4.0400 H   0  0  0  0  0  0  0  0  0  0  0  0
  1 12  1  0  0  0  0
  2 13  1  6  0  0  0
  2  3  1  0  0  0  0
  2  1  1  0  0  0  0
  3 14  1  0  0  0  0
  3 15  1  0  0  0  0
  4  5  2  0  0  0  0
  4  3  1  0  0  0  0
  5 16  1  0  0  0  0
  6  5  1  0  0  0  0
  7  8  2  0  0  0  0
  7  6  1  0  0  0  0
  8  4  1  0  0  0  0
  9  2  1  0  0  0  0
 10  9  2  0  0  0  0
 11  1  1  0  0  0  0
 17  6  1  0  0  0  0
 18  7  1  0  0  0  0
 19 28  1  0  0  0  0
 19 26  1  0  0  0  0
 20 29  1  1  0  0  0
 20 22  1  0  0  0  0
 20 19  1  0  0  0  0
 21 20  1  0  0  0  0
 22 31  1  6  0  0  0
 22 23  1  0  0  0  0
 23  9  1  0  0  0  0
 23 32  1  0  0  0  0
 24 22  1  0  0  0  0
 24 25  2  0  0  0  0
 27 19  1  0  0  0  0
 30 21  1  0  0  0  0
 33 24  1  0  0  0  0
 34 33  1  0  0  0  0
 34 49  1  1  0  0  0
 35 50  1  0  0  0  0
 35 34  1  0  0  0  0
 36 35  1  0  0  0  0
 36 37  2  0  0  0  0
 37 52  1  0  0  0  0
 38 53  1  0  0  0  0
 38 37  1  0  0  0  0
 39 38  1  0  0  0  0
 40 54  1  0  0  0  0
 40 39  2  0  0  0  0
 41 40  1  0  0  0  0
 42 41  2  0  0  0  0
 42 43  1  0  0  0  0
 43 44  2  0  0  0  0
 44 39  1  0  0  0  0
 44 36  1  0  0  0  0
 45 34  1  0  0  0  0
 46 45  2  0  0  0  0
 47 45  1  0  0  0  0
 48 33  1  0  0  0  0
 51 35  1  0  0  0  0
 55 41  1  0  0  0  0
 56 42  1  0  0  0  0
 57 43  1  0  0  0  0
M  END
$$$$
