HTY.pdb
 OpenBabel07022418383D

 54 55  0  0  1  0  0  0  0  0999 V2000
    2.1250   -1.4650    3.6000 N   0  0  0  0  0  0  0  0  0  0  0  0
    1.5990   -0.1980    4.0020 C   0  0  1  0  0  0  0  0  0  0  0  0
    2.5140    0.4440    4.9940 C   0  0  0  0  0  0  0  0  0  0  0  0
    3.8610    0.6530    4.4540 C   0  0  0  0  0  0  0  0  0  0  0  0
    4.3500    0.3140    3.2170 C   0  0  0  0  0  0  0  0  0  0  0  0
    5.6350    0.6900    3.1860 N   0  0  0  0  0  0  0  0  0  0  0  0
    5.9690    1.2540    4.3640 C   0  0  0  0  0  0  0  0  0  0  0  0
    4.8860    1.2360    5.1480 N   0  0  0  0  0  0  0  0  0  0  0  0
    1.2540    0.7110    2.8830 C   0  0  0  0  0  0  0  0  0  0  0  0
    0.8930    1.8980    3.0620 O   0  0  0  0  0  0  0  0  0  0  0  0
    2.5700   -1.9810    4.3620 H   0  0  0  0  0  0  0  0  0  0  0  0
    1.5640   -1.9980    2.9300 H   0  0  0  0  0  0  0  0  0  0  0  0
    0.6200   -0.4530    4.5540 H   0  0  0  0  0  0  0  0  0  0  0  0
    2.0280    1.3900    5.3180 H   0  0  0  0  0  0  0  0  0  0  0  0
    2.5450   -0.2050    5.9130 H   0  0  0  0  0  0  0  0  0  0  0  0
    3.8600   -0.1650    2.3900 H   0  0  0  0  0  0  0  0  0  0  0  0
    6.2830    0.5630    2.3650 H   0  0  0  0  0  0  0  0  0  0  0  0
    6.9410    1.6490    4.6210 H   0  0  0  0  0  0  0  0  0  0  0  0
    2.4190    0.1880   -1.3530 C   0  0  0  0  0  0  0  0  0  0  0  0
    2.0460    1.4080   -0.5580 C   0  0  1  0  0  0  0  0  0  0  0  0
    1.4870    2.2790   -1.5260 O   0  0  0  0  0  0  0  0  0  0  0  0
    0.9760    1.1550    0.4550 C   0  0  2  0  0  0  0  0  0  0  0  0
    1.3030    0.3050    1.5300 N   0  0  0  0  0  0  0  0  0  0  0  0
   -0.2560    0.7110   -0.2920 C   0  0  0  0  0  0  0  0  0  0  0  0
   -0.6840    1.3600   -1.2810 O   0  0  0  0  0  0  0  0  0  0  0  0
    2.7920   -0.6450   -0.7780 H   0  0  0  0  0  0  0  0  0  0  0  0
    3.2500    0.5120   -2.0450 H   0  0  0  0  0  0  0  0  0  0  0  0
    1.5380   -0.1140   -1.9400 H   0  0  0  0  0  0  0  0  0  0  0  0
    2.9090    1.9730   -0.1690 H   0  0  0  0  0  0  0  0  0  0  0  0
    2.1650    2.5740   -2.1810 H   0  0  0  0  0  0  0  0  0  0  0  0
    0.6930    2.1430    0.8820 H   0  0  0  0  0  0  0  0  0  0  0  0
    1.6000   -0.6890    1.2920 H   0  0  0  0  0  0  0  0  0  0  0  0
   -6.7390   -3.7740   -4.0310 O   0  0  0  0  0  0  0  0  0  0  0  0
   -5.5880   -3.3900   -3.3390 C   0  0  0  0  0  0  0  0  0  0  0  0
   -4.6210   -2.5940   -3.9160 C   0  0  0  0  0  0  0  0  0  0  0  0
   -3.4880   -2.2190   -3.2270 C   0  0  0  0  0  0  0  0  0  0  0  0
   -3.2740   -2.6350   -1.9070 C   0  0  0  0  0  0  0  0  0  0  0  0
   -2.0290   -2.2340   -1.2260 C   0  0  0  0  0  0  0  0  0  0  0  0
   -2.1760   -0.8980   -0.6250 C   0  0  2  0  0  0  0  0  0  0  0  0
   -0.9850   -0.4350    0.0670 N   0  0  0  0  0  0  0  0  0  0  0  0
   -3.3540   -0.8170    0.2530 C   0  0  0  0  0  0  0  0  0  0  0  0
   -3.2280   -0.4660    1.4810 O   0  0  0  0  0  0  0  0  0  0  0  0
   -4.2410   -3.4250   -1.3450 C   0  0  0  0  0  0  0  0  0  0  0  0
   -5.3710   -3.7980   -2.0350 C   0  0  0  0  0  0  0  0  0  0  0  0
   -4.6590   -1.0900   -0.1200 O   0  0  0  0  0  0  0  0  0  0  0  0
   -6.9530   -4.7410   -4.2340 H   0  0  0  0  0  0  0  0  0  0  0  0
   -4.7900   -2.2750   -4.9350 H   0  0  0  0  0  0  0  0  0  0  0  0
   -2.7330   -1.5950   -3.6820 H   0  0  0  0  0  0  0  0  0  0  0  0
   -1.2390   -2.2640   -2.0390 H   0  0  0  0  0  0  0  0  0  0  0  0
   -1.7860   -3.0120   -0.4630 H   0  0  0  0  0  0  0  0  0  0  0  0
   -2.3450   -0.1550   -1.4580 H   0  0  0  0  0  0  0  0  0  0  0  0
   -0.6580   -0.9910    0.8780 H   0  0  0  0  0  0  0  0  0  0  0  0
   -4.0630   -3.7500   -0.3100 H   0  0  0  0  0  0  0  0  0  0  0  0
   -6.1060   -4.4190   -1.5580 H   0  0  0  0  0  0  0  0  0  0  0  0
  1  2  1  0  0  0  0
  1 11  1  0  0  0  0
  2 13  1  1  0  0  0
  2  3  1  0  0  0  0
  3 14  1  0  0  0  0
  3 15  1  0  0  0  0
  4  3  1  0  0  0  0
  4  8  1  0  0  0  0
  5  4  2  0  0  0  0
  6  5  1  0  0  0  0
  6  7  1  0  0  0  0
  7 18  1  0  0  0  0
  7  8  2  0  0  0  0
  9 10  2  0  0  0  0
  9  2  1  0  0  0  0
 12  1  1  0  0  0  0
 16  5  1  0  0  0  0
 17  6  1  0  0  0  0
 19 26  1  0  0  0  0
 19 20  1  0  0  0  0
 20 29  1  1  0  0  0
 20 22  1  0  0  0  0
 21 20  1  0  0  0  0
 22 31  1  1  0  0  0
 22 23  1  0  0  0  0
 23  9  1  0  0  0  0
 24 40  1  0  0  0  0
 24 22  1  0  0  0  0
 25 24  2  0  0  0  0
 27 19  1  0  0  0  0
 28 19  1  0  0  0  0
 30 21  1  0  0  0  0
 32 23  1  0  0  0  0
 33 34  1  0  0  0  0
 34 44  1  0  0  0  0
 35 34  2  0  0  0  0
 35 36  1  0  0  0  0
 36 37  2  0  0  0  0
 37 43  1  0  0  0  0
 37 38  1  0  0  0  0
 38 39  1  0  0  0  0
 38 50  1  0  0  0  0
 39 51  1  6  0  0  0
 39 40  1  0  0  0  0
 39 41  1  0  0  0  0
 40 52  1  0  0  0  0
 41 42  1  0  0  0  0
 43 53  1  0  0  0  0
 44 54  1  0  0  0  0
 44 43  2  0  0  0  0
 45 41  2  0  0  0  0
 46 33  1  0  0  0  0
 47 35  1  0  0  0  0
 48 36  1  0  0  0  0
 49 38  1  0  0  0  0
M  END
$$$$
