HVA.pdb
 OpenBabel07022418393D

 45 45  0  0  1  0  0  0  0  0999 V2000
    1.5240   -3.5220    1.1360 N   0  0  0  0  0  0  0  0  0  0  0  0
    0.8790   -2.5040    1.9370 C   0  0  1  0  0  0  0  0  0  0  0  0
    1.7230   -2.1460    3.1290 C   0  0  0  0  0  0  0  0  0  0  0  0
    3.0510   -1.6270    2.8150 C   0  0  0  0  0  0  0  0  0  0  0  0
    3.4080   -0.3190    2.6310 C   0  0  0  0  0  0  0  0  0  0  0  0
    4.7340   -0.2760    2.3680 N   0  0  0  0  0  0  0  0  0  0  0  0
    5.1820   -1.5430    2.3900 C   0  0  0  0  0  0  0  0  0  0  0  0
    4.1610   -2.3550    2.6610 N   0  0  0  0  0  0  0  0  0  0  0  0
    0.4850   -1.3170    1.1430 C   0  0  0  0  0  0  0  0  0  0  0  0
    0.7010   -1.3670   -0.0910 O   0  0  0  0  0  0  0  0  0  0  0  0
    1.2050   -4.4700    1.4580 H   0  0  0  0  0  0  0  0  0  0  0  0
    1.3290   -3.4380    0.1300 H   0  0  0  0  0  0  0  0  0  0  0  0
   -0.0890   -2.8970    2.3700 H   0  0  0  0  0  0  0  0  0  0  0  0
    1.1570   -1.4070    3.7490 H   0  0  0  0  0  0  0  0  0  0  0  0
    1.8460   -3.0330    3.7850 H   0  0  0  0  0  0  0  0  0  0  0  0
    2.7940    0.5800    2.6740 H   0  0  0  0  0  0  0  0  0  0  0  0
    5.2840    0.5960    2.1840 H   0  0  0  0  0  0  0  0  0  0  0  0
    6.2010   -1.8620    2.2180 H   0  0  0  0  0  0  0  0  0  0  0  0
   -0.0590    3.1470   -0.0440 C   0  0  0  0  0  0  0  0  0  0  0  0
    0.5480    1.9310    0.6560 C   0  0  0  0  0  0  0  0  0  0  0  0
    1.5930    1.4060   -0.2760 C   0  0  0  0  0  0  0  0  0  0  0  0
   -0.5280    0.9960    1.0510 C   0  0  2  0  0  0  0  0  0  0  0  0
   -0.1030   -0.1950    1.7560 N   0  0  0  0  0  0  0  0  0  0  0  0
   -1.5200    0.6870   -0.0000 C   0  0  0  0  0  0  0  0  0  0  0  0
   -1.8600    1.5710   -0.8020 O   0  0  0  0  0  0  0  0  0  0  0  0
   -0.0950    2.9970   -1.1260 H   0  0  0  0  0  0  0  0  0  0  0  0
    0.6250    4.0280    0.1060 H   0  0  0  0  0  0  0  0  0  0  0  0
   -1.0510    3.3690    0.3680 H   0  0  0  0  0  0  0  0  0  0  0  0
    1.0570    2.3150    1.5640 H   0  0  0  0  0  0  0  0  0  0  0  0
    2.3480    0.7620    0.1910 H   0  0  0  0  0  0  0  0  0  0  0  0
    2.1890    2.3260   -0.5920 H   0  0  0  0  0  0  0  0  0  0  0  0
    1.1850    1.0370   -1.2420 H   0  0  0  0  0  0  0  0  0  0  0  0
   -1.1690    1.6010    1.8030 H   0  0  0  0  0  0  0  0  0  0  0  0
   -0.2290   -0.2570    2.8010 H   0  0  0  0  0  0  0  0  0  0  0  0
   -2.5360   -2.0210   -2.0210 C   0  0  0  0  0  0  0  0  0  0  0  0
   -3.0690   -0.8870   -1.1560 C   0  0  2  0  0  0  0  0  0  0  0  0
   -2.0870   -0.5910   -0.1030 N   0  0  0  0  0  0  0  0  0  0  0  0
   -4.3540   -1.3200   -0.5550 C   0  0  0  0  0  0  0  0  0  0  0  0
   -5.3340   -1.6230   -1.2750 O   0  0  0  0  0  0  0  0  0  0  0  0
   -4.4960   -1.3980    0.8200 O   0  0  0  0  0  0  0  0  0  0  0  0
   -1.5780   -2.4120   -1.6410 H   0  0  0  0  0  0  0  0  0  0  0  0
   -2.4460   -1.6490   -3.0490 H   0  0  0  0  0  0  0  0  0  0  0  0
   -3.2390   -2.8800   -2.0450 H   0  0  0  0  0  0  0  0  0  0  0  0
   -3.2240    0.0320   -1.7640 H   0  0  0  0  0  0  0  0  0  0  0  0
   -1.8830   -1.3810    0.5320 H   0  0  0  0  0  0  0  0  0  0  0  0
  1 11  1  0  0  0  0
  1  2  1  0  0  0  0
  2 13  1  1  0  0  0
  2  3  1  0  0  0  0
  3 14  1  0  0  0  0
  3 15  1  0  0  0  0
  4  3  1  0  0  0  0
  5 16  1  0  0  0  0
  5  4  2  0  0  0  0
  6  7  1  0  0  0  0
  6  5  1  0  0  0  0
  7  8  2  0  0  0  0
  8  4  1  0  0  0  0
  9 23  1  0  0  0  0
  9  2  1  0  0  0  0
 10  9  2  0  0  0  0
 12  1  1  0  0  0  0
 17  6  1  0  0  0  0
 18  7  1  0  0  0  0
 19 27  1  0  0  0  0
 19 28  1  0  0  0  0
 19 20  1  0  0  0  0
 20 22  1  0  0  0  0
 20 29  1  0  0  0  0
 21 30  1  0  0  0  0
 21 20  1  0  0  0  0
 22 23  1  0  0  0  0
 22 33  1  1  0  0  0
 23 34  1  0  0  0  0
 24 22  1  0  0  0  0
 25 24  2  0  0  0  0
 26 19  1  0  0  0  0
 31 21  1  0  0  0  0
 32 21  1  0  0  0  0
 35 41  1  0  0  0  0
 35 36  1  0  0  0  0
 36 44  1  6  0  0  0
 36 38  1  0  0  0  0
 36 37  1  0  0  0  0
 37 24  1  0  0  0  0
 37 45  1  0  0  0  0
 38 40  1  0  0  0  0
 39 38  2  0  0  0  0
 42 35  1  0  0  0  0
 43 35  1  0  0  0  0
M  END
$$$$
