HVC.pdb
 OpenBabel07022418393D

 46 46  0  0  1  0  0  0  0  0999 V2000
    0.0120   -3.3560    0.9290 N   0  0  0  0  0  0  0  0  0  0  0  0
    1.0400   -2.7900    1.7630 C   0  0  1  0  0  0  0  0  0  0  0  0
    2.3220   -3.4940    1.5510 C   0  0  0  0  0  0  0  0  0  0  0  0
    2.8640   -3.4760    0.1840 C   0  0  0  0  0  0  0  0  0  0  0  0
    2.3450   -2.9080   -0.9560 C   0  0  0  0  0  0  0  0  0  0  0  0
    3.1690   -3.1390   -1.9940 N   0  0  0  0  0  0  0  0  0  0  0  0
    4.1920   -3.8470   -1.4940 C   0  0  0  0  0  0  0  0  0  0  0  0
    4.0260   -4.0590   -0.1870 N   0  0  0  0  0  0  0  0  0  0  0  0
    1.1600   -1.3110    1.5990 C   0  0  0  0  0  0  0  0  0  0  0  0
    2.0580   -0.6550    2.1910 O   0  0  0  0  0  0  0  0  0  0  0  0
   -0.8300   -3.5780    1.4960 H   0  0  0  0  0  0  0  0  0  0  0  0
    0.3590   -4.1820    0.3840 H   0  0  0  0  0  0  0  0  0  0  0  0
    0.7530   -2.9720    2.8560 H   0  0  0  0  0  0  0  0  0  0  0  0
    3.1270   -3.1180    2.2380 H   0  0  0  0  0  0  0  0  0  0  0  0
    2.2070   -4.5750    1.8420 H   0  0  0  0  0  0  0  0  0  0  0  0
    1.4110   -2.3650   -0.9850 H   0  0  0  0  0  0  0  0  0  0  0  0
    3.0840   -2.8550   -2.9940 H   0  0  0  0  0  0  0  0  0  0  0  0
    5.0420   -4.2020   -2.0740 H   0  0  0  0  0  0  0  0  0  0  0  0
    1.8380    0.8160   -1.4210 C   0  0  0  0  0  0  0  0  0  0  0  0
    0.6040    1.3690   -0.7390 C   0  0  0  0  0  0  0  0  0  0  0  0
    0.8360    2.8710   -0.6450 C   0  0  0  0  0  0  0  0  0  0  0  0
    0.4250    0.8680    0.6470 C   0  0  2  0  0  0  0  0  0  0  0  0
    0.2930   -0.5510    0.7850 N   0  0  0  0  0  0  0  0  0  0  0  0
   -0.7580    1.4980    1.2770 C   0  0  0  0  0  0  0  0  0  0  0  0
   -0.8600    2.7450    1.2920 O   0  0  0  0  0  0  0  0  0  0  0  0
    2.1840   -0.0300   -0.7920 H   0  0  0  0  0  0  0  0  0  0  0  0
    1.5330    0.3960   -2.3920 H   0  0  0  0  0  0  0  0  0  0  0  0
    2.6410    1.5610   -1.5600 H   0  0  0  0  0  0  0  0  0  0  0  0
   -0.3120    1.2640   -1.3610 H   0  0  0  0  0  0  0  0  0  0  0  0
    1.2210    3.1540    0.3530 H   0  0  0  0  0  0  0  0  0  0  0  0
   -0.1200    3.4460   -0.7850 H   0  0  0  0  0  0  0  0  0  0  0  0
    1.5990    3.2090   -1.3930 H   0  0  0  0  0  0  0  0  0  0  0  0
    1.2990    1.1910    1.2490 H   0  0  0  0  0  0  0  0  0  0  0  0
   -0.4730   -1.0130    0.2580 H   0  0  0  0  0  0  0  0  0  0  0  0
   -1.8160    0.7500    1.8850 N   0  0  0  0  0  0  0  0  0  0  0  0
   -2.9540    1.4010    2.4900 C   0  0  1  0  0  0  0  0  0  0  0  0
   -4.2630    0.8810    1.9430 C   0  0  0  0  0  0  0  0  0  0  0  0
   -5.6510    1.7290    2.7360 S   0  0  0  0  0  0  0  0  0  0  0  0
   -2.9170    1.0460    3.9490 C   0  0  0  0  0  0  0  0  0  0  0  0
   -3.8360    1.5210    4.6700 O   0  0  0  0  0  0  0  0  0  0  0  0
   -1.9540    0.2530    4.5100 O   0  0  0  0  0  0  0  0  0  0  0  0
   -1.7620   -0.2900    1.8890 H   0  0  0  0  0  0  0  0  0  0  0  0
   -2.9070    2.4900    2.4290 H   0  0  0  0  0  0  0  0  0  0  0  0
   -4.3710    1.0120    0.8620 H   0  0  0  0  0  0  0  0  0  0  0  0
   -4.3700   -0.2060    2.1980 H   0  0  0  0  0  0  0  0  0  0  0  0
   -6.8230    1.6100    1.9660 H   0  0  0  0  0  0  0  0  0  0  0  0
  1 11  1  0  0  0  0
  1  2  1  0  0  0  0
  2 13  1  1  0  0  0
  3  2  1  0  0  0  0
  3 15  1  0  0  0  0
  3 14  1  0  0  0  0
  4  3  1  0  0  0  0
  5  4  2  0  0  0  0
  6  7  1  0  0  0  0
  6  5  1  0  0  0  0
  7  8  2  0  0  0  0
  8  4  1  0  0  0  0
  9  2  1  0  0  0  0
  9 10  2  0  0  0  0
 12  1  1  0  0  0  0
 16  5  1  0  0  0  0
 17  6  1  0  0  0  0
 18  7  1  0  0  0  0
 19 26  1  0  0  0  0
 19 20  1  0  0  0  0
 20 21  1  0  0  0  0
 20 22  1  0  0  0  0
 21 30  1  0  0  0  0
 22 23  1  0  0  0  0
 22 33  1  1  0  0  0
 22 24  1  0  0  0  0
 23  9  1  0  0  0  0
 24 25  2  0  0  0  0
 24 35  1  0  0  0  0
 27 19  1  0  0  0  0
 28 19  1  0  0  0  0
 29 20  1  0  0  0  0
 31 21  1  0  0  0  0
 32 21  1  0  0  0  0
 34 23  1  0  0  0  0
 35 42  1  0  0  0  0
 35 36  1  0  0  0  0
 36 43  1  6  0  0  0
 36 39  1  0  0  0  0
 37 45  1  0  0  0  0
 37 36  1  0  0  0  0
 37 38  1  0  0  0  0
 39 41  2  0  0  0  0
 39 40  1  0  0  0  0
 44 37  1  0  0  0  0
 46 38  1  0  0  0  0
M  END
$$$$
