HVD.pdb
 OpenBabel07022418393D

 48 48  0  0  1  0  0  0  0  0999 V2000
    1.4410   -2.4820    4.4310 N   0  0  0  0  0  0  0  0  0  0  0  0
    1.8150   -2.1170    2.9930 C   0  0  1  0  0  0  0  0  0  0  0  0
    1.4210   -3.3330    2.2400 C   0  0  0  0  0  0  0  0  0  0  0  0
    1.7550   -3.4190    0.8330 C   0  0  0  0  0  0  0  0  0  0  0  0
    2.5510   -2.6390    0.0410 C   0  0  0  0  0  0  0  0  0  0  0  0
    2.6500   -3.1620   -1.2100 N   0  0  0  0  0  0  0  0  0  0  0  0
    1.9000   -4.2870   -1.1880 C   0  0  0  0  0  0  0  0  0  0  0  0
    1.3660   -4.4460    0.0210 N   0  0  0  0  0  0  0  0  0  0  0  0
    0.9390   -0.9300    2.7910 C   0  0  0  0  0  0  0  0  0  0  0  0
    0.1890   -0.5340    3.7780 O   0  0  0  0  0  0  0  0  0  0  0  0
    1.5410   -3.4950    4.5480 H   0  0  0  0  0  0  0  0  0  0  0  0
    2.1230   -1.9870    5.0340 H   0  0  0  0  0  0  0  0  0  0  0  0
    2.8640   -1.8830    2.9340 H   0  0  0  0  0  0  0  0  0  0  0  0
    1.8750   -4.2270    2.7810 H   0  0  0  0  0  0  0  0  0  0  0  0
    0.3080   -3.4820    2.4160 H   0  0  0  0  0  0  0  0  0  0  0  0
    3.0700   -1.7320    0.3290 H   0  0  0  0  0  0  0  0  0  0  0  0
    3.1850   -2.7790   -2.0070 H   0  0  0  0  0  0  0  0  0  0  0  0
    1.7350   -4.9760   -2.0020 H   0  0  0  0  0  0  0  0  0  0  0  0
    0.0170    3.4620    1.0040 C   0  0  0  0  0  0  0  0  0  0  0  0
    0.7360    2.1580    1.1200 C   0  0  0  0  0  0  0  0  0  0  0  0
    1.9530    2.2720    2.0100 C   0  0  0  0  0  0  0  0  0  0  0  0
   -0.1020    1.0140    1.5950 C   0  0  2  0  0  0  0  0  0  0  0  0
    0.8100   -0.1530    1.6410 N   0  0  0  0  0  0  0  0  0  0  0  0
   -1.2620    0.7270    0.6590 C   0  0  0  0  0  0  0  0  0  0  0  0
   -2.1650    1.5790    0.5420 O   0  0  0  0  0  0  0  0  0  0  0  0
    0.7300    4.3130    1.2090 H   0  0  0  0  0  0  0  0  0  0  0  0
   -0.8090    3.6020    1.7000 H   0  0  0  0  0  0  0  0  0  0  0  0
   -0.3580    3.6480   -0.0430 H   0  0  0  0  0  0  0  0  0  0  0  0
    1.1530    1.9260    0.0910 H   0  0  0  0  0  0  0  0  0  0  0  0
    2.9080    2.3430    1.4180 H   0  0  0  0  0  0  0  0  0  0  0  0
    2.0520    1.3450    2.6210 H   0  0  0  0  0  0  0  0  0  0  0  0
    1.9040    3.1530    2.6810 H   0  0  0  0  0  0  0  0  0  0  0  0
   -0.5100    1.1480    2.5840 H   0  0  0  0  0  0  0  0  0  0  0  0
    1.3260   -0.3360    0.7870 H   0  0  0  0  0  0  0  0  0  0  0  0
   -1.3070   -0.4770   -0.0560 N   0  0  0  0  0  0  0  0  0  0  0  0
   -2.2340   -1.0340   -0.9540 C   0  0  1  0  0  0  0  0  0  0  0  0
   -3.3250   -0.1510   -1.5100 C   0  0  0  0  0  0  0  0  0  0  0  0
   -4.2720    0.2920   -0.4670 C   0  0  0  0  0  0  0  0  0  0  0  0
   -4.3120   -0.3020    0.6690 O   0  0  0  0  0  0  0  0  0  0  0  0
   -1.5950   -1.8320   -1.9990 C   0  0  0  0  0  0  0  0  0  0  0  0
   -2.3280   -2.3980   -2.8760 O   0  0  0  0  0  0  0  0  0  0  0  0
   -5.1620    1.3430   -0.6230 O   0  0  0  0  0  0  0  0  0  0  0  0
   -0.2230   -2.0170   -2.1010 O   0  0  0  0  0  0  0  0  0  0  0  0
   -0.4400   -1.1100    0.1220 H   0  0  0  0  0  0  0  0  0  0  0  0
   -2.8660   -1.7660   -0.2980 H   0  0  0  0  0  0  0  0  0  0  0  0
   -2.9130    0.7110   -2.0920 H   0  0  0  0  0  0  0  0  0  0  0  0
   -3.9060   -0.7390   -2.2500 H   0  0  0  0  0  0  0  0  0  0  0  0
   -5.7450    1.7220    0.1160 H   0  0  0  0  0  0  0  0  0  0  0  0
  1 11  1  0  0  0  0
  1 12  1  0  0  0  0
  2 13  1  6  0  0  0
  2  1  1  0  0  0  0
  3 15  1  0  0  0  0
  3 14  1  0  0  0  0
  3  2  1  0  0  0  0
  4  3  1  0  0  0  0
  5 16  1  0  0  0  0
  5  4  2  0  0  0  0
  6  7  1  0  0  0  0
  6  5  1  0  0  0  0
  7  8  2  0  0  0  0
  8  4  1  0  0  0  0
  9  2  1  0  0  0  0
  9 10  2  0  0  0  0
 17  6  1  0  0  0  0
 18  7  1  0  0  0  0
 19 20  1  0  0  0  0
 19 26  1  0  0  0  0
 19 27  1  0  0  0  0
 20 22  1  0  0  0  0
 20 21  1  0  0  0  0
 21 31  1  0  0  0  0
 21 32  1  0  0  0  0
 22 23  1  0  0  0  0
 22 33  1  1  0  0  0
 23  9  1  0  0  0  0
 24 22  1  0  0  0  0
 25 24  2  0  0  0  0
 28 19  1  0  0  0  0
 29 20  1  0  0  0  0
 30 21  1  0  0  0  0
 34 23  1  0  0  0  0
 35 44  1  0  0  0  0
 35 24  1  0  0  0  0
 36 45  1  1  0  0  0
 36 35  1  0  0  0  0
 37 36  1  0  0  0  0
 37 38  1  0  0  0  0
 38 39  2  0  0  0  0
 40 36  1  0  0  0  0
 41 40  2  0  0  0  0
 42 38  1  0  0  0  0
 42 48  1  0  0  0  0
 43 40  1  0  0  0  0
 46 37  1  0  0  0  0
 47 37  1  0  0  0  0
M  END
$$$$
