HVE.pdb
 OpenBabel07022418393D

 51 51  0  0  1  0  0  0  0  0999 V2000
    0.9720    3.2920    3.3420 N   0  0  0  0  0  0  0  0  0  0  0  0
    0.3130    2.0010    3.3960 C   0  0  1  0  0  0  0  0  0  0  0  0
   -1.1680    2.1450    3.0230 C   0  0  0  0  0  0  0  0  0  0  0  0
   -1.3010    2.6910    1.6460 C   0  0  0  0  0  0  0  0  0  0  0  0
   -1.3780    4.0310    1.3000 C   0  0  0  0  0  0  0  0  0  0  0  0
   -1.4910    4.1000   -0.0480 N   0  0  0  0  0  0  0  0  0  0  0  0
   -1.4890    2.8550   -0.5550 C   0  0  0  0  0  0  0  0  0  0  0  0
   -1.3730    2.0150    0.4850 N   0  0  0  0  0  0  0  0  0  0  0  0
    0.9850    1.0270    2.4890 C   0  0  0  0  0  0  0  0  0  0  0  0
    1.9750    1.3890    1.8200 O   0  0  0  0  0  0  0  0  0  0  0  0
    1.8290    3.2860    3.9400 H   0  0  0  0  0  0  0  0  0  0  0  0
    0.3190    3.9950    3.7910 H   0  0  0  0  0  0  0  0  0  0  0  0
    0.3290    1.6750    4.4540 H   0  0  0  0  0  0  0  0  0  0  0  0
   -1.6980    1.1980    3.1140 H   0  0  0  0  0  0  0  0  0  0  0  0
   -1.6230    2.8640    3.7130 H   0  0  0  0  0  0  0  0  0  0  0  0
   -1.3500    4.8740    2.0020 H   0  0  0  0  0  0  0  0  0  0  0  0
   -1.5680    4.9810   -0.5980 H   0  0  0  0  0  0  0  0  0  0  0  0
   -1.5650    2.5850   -1.5990 H   0  0  0  0  0  0  0  0  0  0  0  0
    0.7450   -3.0460    3.2070 C   0  0  0  0  0  0  0  0  0  0  0  0
    1.7670   -2.3460    2.3700 C   0  0  0  0  0  0  0  0  0  0  0  0
    2.7120   -3.2750    1.6490 C   0  0  0  0  0  0  0  0  0  0  0  0
    1.1830   -1.2800    1.4710 C   0  0  2  0  0  0  0  0  0  0  0  0
    0.5470   -0.3130    2.3460 N   0  0  0  0  0  0  0  0  0  0  0  0
    0.1810   -1.7720    0.5220 C   0  0  0  0  0  0  0  0  0  0  0  0
   -0.9930   -1.3310    0.6100 O   0  0  0  0  0  0  0  0  0  0  0  0
    0.9430   -4.1450    3.1370 H   0  0  0  0  0  0  0  0  0  0  0  0
   -0.2930   -2.7920    2.8830 H   0  0  0  0  0  0  0  0  0  0  0  0
    0.7920   -2.7940    4.2850 H   0  0  0  0  0  0  0  0  0  0  0  0
    2.4140   -1.7710    3.1010 H   0  0  0  0  0  0  0  0  0  0  0  0
    3.5480   -3.6130    2.3190 H   0  0  0  0  0  0  0  0  0  0  0  0
    3.2140   -2.7040    0.8470 H   0  0  0  0  0  0  0  0  0  0  0  0
    2.2330   -4.2150    1.3140 H   0  0  0  0  0  0  0  0  0  0  0  0
    2.0460   -0.8060    0.9470 H   0  0  0  0  0  0  0  0  0  0  0  0
   -0.2810   -0.6180    2.9040 H   0  0  0  0  0  0  0  0  0  0  0  0
    0.4180   -2.7110   -0.5000 N   0  0  0  0  0  0  0  0  0  0  0  0
   -0.6530   -3.1240   -1.3810 C   0  0  1  0  0  0  0  0  0  0  0  0
   -0.2810   -2.9610   -2.8350 C   0  0  0  0  0  0  0  0  0  0  0  0
    0.0450   -1.5660   -3.2250 C   0  0  0  0  0  0  0  0  0  0  0  0
   -1.0440   -0.6030   -3.0250 C   0  0  0  0  0  0  0  0  0  0  0  0
   -0.7950    0.6070   -3.3460 O   0  0  0  0  0  0  0  0  0  0  0  0
   -0.9350   -4.5930   -1.1900 C   0  0  0  0  0  0  0  0  0  0  0  0
   -0.3110   -5.2960   -0.3820 O   0  0  0  0  0  0  0  0  0  0  0  0
   -2.2890   -0.8750   -2.5320 O   0  0  0  0  0  0  0  0  0  0  0  0
   -1.9460   -5.1460   -1.9700 O   0  0  0  0  0  0  0  0  0  0  0  0
    1.3670   -3.1040   -0.6180 H   0  0  0  0  0  0  0  0  0  0  0  0
   -1.6070   -2.6160   -1.1340 H   0  0  0  0  0  0  0  0  0  0  0  0
   -1.0980   -3.3400   -3.4770 H   0  0  0  0  0  0  0  0  0  0  0  0
    0.5940   -3.5990   -3.0210 H   0  0  0  0  0  0  0  0  0  0  0  0
    0.2910   -1.5680   -4.3090 H   0  0  0  0  0  0  0  0  0  0  0  0
    0.9770   -1.2560   -2.7070 H   0  0  0  0  0  0  0  0  0  0  0  0
   -2.7460   -0.1860   -1.9470 H   0  0  0  0  0  0  0  0  0  0  0  0
  1  2  1  0  0  0  0
  1 12  1  0  0  0  0
  1 11  1  0  0  0  0
  2 13  1  1  0  0  0
  3 14  1  0  0  0  0
  3  2  1  0  0  0  0
  3 15  1  0  0  0  0
  4  3  1  0  0  0  0
  5  4  2  0  0  0  0
  5 16  1  0  0  0  0
  6  5  1  0  0  0  0
  7  6  1  0  0  0  0
  7  8  2  0  0  0  0
  8  4  1  0  0  0  0
  9  2  1  0  0  0  0
 10  9  2  0  0  0  0
 17  6  1  0  0  0  0
 18  7  1  0  0  0  0
 19 28  1  0  0  0  0
 20 29  1  0  0  0  0
 20 19  1  0  0  0  0
 21 30  1  0  0  0  0
 21 20  1  0  0  0  0
 22 33  1  6  0  0  0
 22 23  1  0  0  0  0
 22 20  1  0  0  0  0
 23  9  1  0  0  0  0
 23 34  1  0  0  0  0
 24 25  2  0  0  0  0
 24 22  1  0  0  0  0
 26 19  1  0  0  0  0
 27 19  1  0  0  0  0
 31 21  1  0  0  0  0
 32 21  1  0  0  0  0
 35 24  1  0  0  0  0
 36 41  1  0  0  0  0
 36 46  1  1  0  0  0
 36 35  1  0  0  0  0
 37 36  1  0  0  0  0
 38 39  1  0  0  0  0
 38 37  1  0  0  0  0
 38 50  1  0  0  0  0
 39 43  1  0  0  0  0
 40 39  2  0  0  0  0
 41 42  1  0  0  0  0
 43 51  1  0  0  0  0
 44 41  2  0  0  0  0
 45 35  1  0  0  0  0
 47 37  1  0  0  0  0
 48 37  1  0  0  0  0
 49 38  1  0  0  0  0
M  END
$$$$
