HVF.pdb
 OpenBabel07022418393D

 55 56  0  0  1  0  0  0  0  0999 V2000
    2.8150   -2.9760    0.0820 N   0  0  0  0  0  0  0  0  0  0  0  0
    2.9660   -2.2770    1.3290 C   0  0  1  0  0  0  0  0  0  0  0  0
    4.4380   -2.0850    1.5940 C   0  0  0  0  0  0  0  0  0  0  0  0
    4.7560   -1.3840    2.8370 C   0  0  0  0  0  0  0  0  0  0  0  0
    4.9410   -0.0450    3.0970 C   0  0  0  0  0  0  0  0  0  0  0  0
    5.2240    0.0960    4.3930 N   0  0  0  0  0  0  0  0  0  0  0  0
    5.2240   -1.1220    4.9660 C   0  0  0  0  0  0  0  0  0  0  0  0
    4.9400   -2.0280    4.0250 N   0  0  0  0  0  0  0  0  0  0  0  0
    2.2910   -0.9810    1.3780 C   0  0  0  0  0  0  0  0  0  0  0  0
    2.3080   -0.3160    2.4330 O   0  0  0  0  0  0  0  0  0  0  0  0
    2.7420   -3.9950    0.1630 H   0  0  0  0  0  0  0  0  0  0  0  0
    3.4320   -2.6370   -0.6760 H   0  0  0  0  0  0  0  0  0  0  0  0
    2.5580   -2.9230    2.1320 H   0  0  0  0  0  0  0  0  0  0  0  0
    4.9490   -3.0810    1.5590 H   0  0  0  0  0  0  0  0  0  0  0  0
    4.9270   -1.5040    0.7600 H   0  0  0  0  0  0  0  0  0  0  0  0
    4.8650    0.7370    2.3640 H   0  0  0  0  0  0  0  0  0  0  0  0
    5.4190    0.9780    4.9180 H   0  0  0  0  0  0  0  0  0  0  0  0
    5.4240   -1.3240    6.0210 H   0  0  0  0  0  0  0  0  0  0  0  0
    0.5310    3.2110   -0.3450 C   0  0  0  0  0  0  0  0  0  0  0  0
    1.3240    1.9390   -0.5590 C   0  0  0  0  0  0  0  0  0  0  0  0
    0.9600    1.4780   -1.9800 C   0  0  0  0  0  0  0  0  0  0  0  0
    0.9450    0.8820    0.3800 C   0  0  2  0  0  0  0  0  0  0  0  0
    1.5930   -0.3740    0.3170 N   0  0  0  0  0  0  0  0  0  0  0  0
   -0.5300    0.6160    0.2890 C   0  0  0  0  0  0  0  0  0  0  0  0
   -1.3920    1.5490    0.3220 O   0  0  0  0  0  0  0  0  0  0  0  0
   -0.3860    3.2020   -0.9670 H   0  0  0  0  0  0  0  0  0  0  0  0
    0.1780    3.2210    0.7250 H   0  0  0  0  0  0  0  0  0  0  0  0
    1.1490    4.1170   -0.5260 H   0  0  0  0  0  0  0  0  0  0  0  0
    2.3710    2.2190   -0.6310 H   0  0  0  0  0  0  0  0  0  0  0  0
   -0.1280    1.3030   -2.0790 H   0  0  0  0  0  0  0  0  0  0  0  0
    1.3240    2.2890   -2.6600 H   0  0  0  0  0  0  0  0  0  0  0  0
    1.5810    0.5960   -2.1780 H   0  0  0  0  0  0  0  0  0  0  0  0
    1.1000    1.2670    1.4140 H   0  0  0  0  0  0  0  0  0  0  0  0
    1.5470   -0.8880   -0.5920 H   0  0  0  0  0  0  0  0  0  0  0  0
   -1.0580   -0.6890    0.1620 N   0  0  0  0  0  0  0  0  0  0  0  0
   -2.5150   -0.9140    0.0760 C   0  0  1  0  0  0  0  0  0  0  0  0
   -2.8780   -1.5460   -1.2180 C   0  0  0  0  0  0  0  0  0  0  0  0
   -4.3330   -1.7670   -1.2900 C   0  0  0  0  0  0  0  0  0  0  0  0
   -5.1780   -0.7390   -1.7290 C   0  0  0  0  0  0  0  0  0  0  0  0
   -6.5400   -0.9120   -1.8330 C   0  0  0  0  0  0  0  0  0  0  0  0
   -7.1270   -2.1010   -1.5110 C   0  0  0  0  0  0  0  0  0  0  0  0
   -6.3400   -3.1270   -1.0800 C   0  0  0  0  0  0  0  0  0  0  0  0
   -4.9660   -2.9510   -0.9750 C   0  0  0  0  0  0  0  0  0  0  0  0
   -2.9380   -1.7600    1.2040 C   0  0  0  0  0  0  0  0  0  0  0  0
   -4.1380   -2.0720    1.4500 O   0  0  0  0  0  0  0  0  0  0  0  0
   -1.9250   -2.2480    2.0570 O   0  0  0  0  0  0  0  0  0  0  0  0
   -0.3990   -1.4920    0.1300 H   0  0  0  0  0  0  0  0  0  0  0  0
   -3.0370    0.0710    0.1220 H   0  0  0  0  0  0  0  0  0  0  0  0
   -2.3840   -2.5530   -1.2680 H   0  0  0  0  0  0  0  0  0  0  0  0
   -2.5910   -0.9400   -2.1060 H   0  0  0  0  0  0  0  0  0  0  0  0
   -4.6930    0.1970   -1.9800 H   0  0  0  0  0  0  0  0  0  0  0  0
   -7.1570   -0.1050   -2.1730 H   0  0  0  0  0  0  0  0  0  0  0  0
   -8.2040   -2.2220   -1.5990 H   0  0  0  0  0  0  0  0  0  0  0  0
   -6.8110   -4.0800   -0.8220 H   0  0  0  0  0  0  0  0  0  0  0  0
   -4.3650   -3.7920   -0.6350 H   0  0  0  0  0  0  0  0  0  0  0  0
  1 11  1  0  0  0  0
  1  2  1  0  0  0  0
  2  9  1  0  0  0  0
  2  3  1  0  0  0  0
  2 13  1  1  0  0  0
  3  4  1  0  0  0  0
  4  5  2  0  0  0  0
  4  8  1  0  0  0  0
  5  6  1  0  0  0  0
  6 17  1  0  0  0  0
  6  7  1  0  0  0  0
  7 18  1  0  0  0  0
  8  7  2  0  0  0  0
  9 10  2  0  0  0  0
 12  1  1  0  0  0  0
 14  3  1  0  0  0  0
 15  3  1  0  0  0  0
 16  5  1  0  0  0  0
 19 27  1  0  0  0  0
 20 19  1  0  0  0  0
 20 22  1  0  0  0  0
 21 20  1  0  0  0  0
 22 33  1  1  0  0  0
 23 22  1  0  0  0  0
 23  9  1  0  0  0  0
 24 25  2  0  0  0  0
 24 22  1  0  0  0  0
 26 19  1  0  0  0  0
 28 19  1  0  0  0  0
 29 20  1  0  0  0  0
 30 21  1  0  0  0  0
 31 21  1  0  0  0  0
 32 21  1  0  0  0  0
 34 23  1  0  0  0  0
 35 24  1  0  0  0  0
 36 48  1  1  0  0  0
 36 35  1  0  0  0  0
 36 44  1  0  0  0  0
 37 36  1  0  0  0  0
 38 37  1  0  0  0  0
 38 43  1  0  0  0  0
 39 38  2  0  0  0  0
 40 39  1  0  0  0  0
 40 41  2  0  0  0  0
 41 42  1  0  0  0  0
 42 43  2  0  0  0  0
 42 54  1  0  0  0  0
 43 55  1  0  0  0  0
 44 45  2  0  0  0  0
 44 46  1  0  0  0  0
 47 35  1  0  0  0  0
 49 37  1  0  0  0  0
 50 37  1  0  0  0  0
 51 39  1  0  0  0  0
 52 40  1  0  0  0  0
 53 41  1  0  0  0  0
M  END
$$$$
