HVG.pdb
 OpenBabel07022418393D

 42 42  0  0  1  0  0  0  0  0999 V2000
    3.3610   -1.8890    0.5670 N   0  0  0  0  0  0  0  0  0  0  0  0
    2.0650   -2.2020   -0.0180 C   0  0  1  0  0  0  0  0  0  0  0  0
    1.4500   -3.4250    0.5760 C   0  0  0  0  0  0  0  0  0  0  0  0
    1.2040   -3.3900    2.0110 C   0  0  0  0  0  0  0  0  0  0  0  0
    0.6390   -4.4220    2.7300 C   0  0  0  0  0  0  0  0  0  0  0  0
    0.5750   -4.0170    4.0200 N   0  0  0  0  0  0  0  0  0  0  0  0
    1.0770   -2.7770    4.1280 C   0  0  0  0  0  0  0  0  0  0  0  0
    1.4530   -2.4160    2.8930 N   0  0  0  0  0  0  0  0  0  0  0  0
    1.1760   -1.0230   -0.0790 C   0  0  0  0  0  0  0  0  0  0  0  0
    0.0410   -1.1340   -0.5910 O   0  0  0  0  0  0  0  0  0  0  0  0
    3.3920   -1.9980    1.5990 H   0  0  0  0  0  0  0  0  0  0  0  0
    4.0910   -2.4560    0.0830 H   0  0  0  0  0  0  0  0  0  0  0  0
    2.2790   -2.4800   -1.1020 H   0  0  0  0  0  0  0  0  0  0  0  0
    2.1490   -4.2700    0.3720 H   0  0  0  0  0  0  0  0  0  0  0  0
    0.5290   -3.6580   -0.0050 H   0  0  0  0  0  0  0  0  0  0  0  0
    0.2920   -5.3970    2.3770 H   0  0  0  0  0  0  0  0  0  0  0  0
    0.1980   -4.5560    4.8470 H   0  0  0  0  0  0  0  0  0  0  0  0
    1.1530   -2.1950    5.0590 H   0  0  0  0  0  0  0  0  0  0  0  0
    0.2790    1.3900   -2.1390 C   0  0  0  0  0  0  0  0  0  0  0  0
    0.6820    2.1550   -0.9200 C   0  0  0  0  0  0  0  0  0  0  0  0
    2.0620    2.8010   -1.0900 C   0  0  0  0  0  0  0  0  0  0  0  0
    0.6760    1.3890    0.3550 C   0  0  2  0  0  0  0  0  0  0  0  0
    1.5300    0.2600    0.4160 N   0  0  0  0  0  0  0  0  0  0  0  0
   -0.6390    1.2850    1.0190 C   0  0  0  0  0  0  0  0  0  0  0  0
   -1.5140    2.2180    0.8990 O   0  0  0  0  0  0  0  0  0  0  0  0
    1.0000    0.6270   -2.4650 H   0  0  0  0  0  0  0  0  0  0  0  0
   -0.7520    1.0620   -2.0350 H   0  0  0  0  0  0  0  0  0  0  0  0
    0.2690    2.1450   -2.9830 H   0  0  0  0  0  0  0  0  0  0  0  0
   -0.0280    3.0130   -0.8820 H   0  0  0  0  0  0  0  0  0  0  0  0
    2.0840    3.8240   -0.6600 H   0  0  0  0  0  0  0  0  0  0  0  0
    2.8400    2.2280   -0.5240 H   0  0  0  0  0  0  0  0  0  0  0  0
    2.2960    2.8850   -2.1590 H   0  0  0  0  0  0  0  0  0  0  0  0
    1.1910    2.1260    1.0890 H   0  0  0  0  0  0  0  0  0  0  0  0
    2.5190    0.2770    0.8400 H   0  0  0  0  0  0  0  0  0  0  0  0
   -1.0500    0.1960    1.8240 N   0  0  0  0  0  0  0  0  0  0  0  0
   -2.3890    0.1770    2.4460 C   0  0  0  0  0  0  0  0  0  0  0  0
   -3.4320    0.2340    1.3640 C   0  0  0  0  0  0  0  0  0  0  0  0
   -3.1330    0.2860    0.1460 O   0  0  0  0  0  0  0  0  0  0  0  0
   -4.7800    0.2320    1.6810 O   0  0  0  0  0  0  0  0  0  0  0  0
   -0.3940   -0.5710    1.9740 H   0  0  0  0  0  0  0  0  0  0  0  0
   -2.5120    1.0730    3.0770 H   0  0  0  0  0  0  0  0  0  0  0  0
   -2.4890   -0.7570    3.0000 H   0  0  0  0  0  0  0  0  0  0  0  0
  1 11  1  0  0  0  0
  2 13  1  6  0  0  0
  2  1  1  0  0  0  0
  2  3  1  0  0  0  0
  3  4  1  0  0  0  0
  4  5  2  0  0  0  0
  4  8  1  0  0  0  0
  5  6  1  0  0  0  0
  6  7  1  0  0  0  0
  6 17  1  0  0  0  0
  7 18  1  0  0  0  0
  8  7  2  0  0  0  0
  9  2  1  0  0  0  0
  9 23  1  0  0  0  0
 10  9  2  0  0  0  0
 12  1  1  0  0  0  0
 14  3  1  0  0  0  0
 15  3  1  0  0  0  0
 16  5  1  0  0  0  0
 19 27  1  0  0  0  0
 19 20  1  0  0  0  0
 20 29  1  0  0  0  0
 20 22  1  0  0  0  0
 21 20  1  0  0  0  0
 21 30  1  0  0  0  0
 21 31  1  0  0  0  0
 22 23  1  0  0  0  0
 22 24  1  0  0  0  0
 22 33  1  1  0  0  0
 23 34  1  0  0  0  0
 24 35  1  0  0  0  0
 25 24  2  0  0  0  0
 26 19  1  0  0  0  0
 28 19  1  0  0  0  0
 32 21  1  0  0  0  0
 35 40  1  0  0  0  0
 35 36  1  0  0  0  0
 36 42  1  0  0  0  0
 36 41  1  0  0  0  0
 37 39  1  0  0  0  0
 37 36  1  0  0  0  0
 38 37  2  0  0  0  0
M  END
$$$$
