HVI.pdb
 OpenBabel07022418393D

 54 54  0  0  1  0  0  0  0  0999 V2000
    0.8680   -4.1300    2.0930 N   0  0  0  0  0  0  0  0  0  0  0  0
    1.7670   -3.0730    2.5830 C   0  0  1  0  0  0  0  0  0  0  0  0
    3.1540   -3.6680    2.4920 C   0  0  0  0  0  0  0  0  0  0  0  0
    4.2240   -2.7470    2.9420 C   0  0  0  0  0  0  0  0  0  0  0  0
    4.8900   -1.8740    2.1310 C   0  0  0  0  0  0  0  0  0  0  0  0
    5.7780   -1.2140    2.8750 N   0  0  0  0  0  0  0  0  0  0  0  0
    5.6640   -1.6730    4.1310 C   0  0  0  0  0  0  0  0  0  0  0  0
    4.7200   -2.6050    4.1750 N   0  0  0  0  0  0  0  0  0  0  0  0
    1.5620   -1.8970    1.7350 C   0  0  0  0  0  0  0  0  0  0  0  0
    2.1620   -0.8320    2.0070 O   0  0  0  0  0  0  0  0  0  0  0  0
    1.0730   -5.0120    2.6350 H   0  0  0  0  0  0  0  0  0  0  0  0
   -0.1370   -3.8650    2.2760 H   0  0  0  0  0  0  0  0  0  0  0  0
    1.5290   -2.9190    3.6490 H   0  0  0  0  0  0  0  0  0  0  0  0
    3.3310   -4.1160    1.5010 H   0  0  0  0  0  0  0  0  0  0  0  0
    3.1440   -4.5430    3.2100 H   0  0  0  0  0  0  0  0  0  0  0  0
    4.7830   -1.6810    1.0590 H   0  0  0  0  0  0  0  0  0  0  0  0
    6.4470   -0.4660    2.5340 H   0  0  0  0  0  0  0  0  0  0  0  0
    6.2880   -1.2880    4.9350 H   0  0  0  0  0  0  0  0  0  0  0  0
    0.4520   -2.1640   -2.3810 C   0  0  0  0  0  0  0  0  0  0  0  0
    1.0050   -1.0080   -1.6340 C   0  0  0  0  0  0  0  0  0  0  0  0
    1.0640    0.2910   -2.3870 C   0  0  0  0  0  0  0  0  0  0  0  0
    0.4620   -0.7880   -0.2590 C   0  0  2  0  0  0  0  0  0  0  0  0
    0.7140   -1.9190    0.6210 N   0  0  0  0  0  0  0  0  0  0  0  0
   -0.9810   -0.5100   -0.1810 C   0  0  0  0  0  0  0  0  0  0  0  0
   -1.7030   -1.2920    0.5320 O   0  0  0  0  0  0  0  0  0  0  0  0
    0.1230   -1.7840   -3.3920 H   0  0  0  0  0  0  0  0  0  0  0  0
   -0.3830   -2.6760   -1.8600 H   0  0  0  0  0  0  0  0  0  0  0  0
    1.1880   -2.9650   -2.6160 H   0  0  0  0  0  0  0  0  0  0  0  0
    2.1060   -1.2620   -1.4620 H   0  0  0  0  0  0  0  0  0  0  0  0
    0.2650    0.4300   -3.1250 H   0  0  0  0  0  0  0  0  0  0  0  0
    1.2030    1.1310   -1.6740 H   0  0  0  0  0  0  0  0  0  0  0  0
    2.0080    0.3510   -3.0230 H   0  0  0  0  0  0  0  0  0  0  0  0
    1.0050    0.0740    0.1750 H   0  0  0  0  0  0  0  0  0  0  0  0
    0.1950   -2.8040    0.3580 H   0  0  0  0  0  0  0  0  0  0  0  0
   -3.3310    1.2040    2.2720 C   0  0  0  0  0  0  0  0  0  0  0  0
   -2.9220    2.2580    1.3030 C   0  0  0  0  0  0  0  0  0  0  0  0
   -3.4990    2.0610   -0.0910 C   0  0  2  0  0  0  0  0  0  0  0  0
   -5.0060    2.0940    0.0790 C   0  0  0  0  0  0  0  0  0  0  0  0
   -3.1220    0.7300   -0.6740 C   0  0  2  0  0  0  0  0  0  0  0  0
   -1.6920    0.5340   -0.8050 N   0  0  0  0  0  0  0  0  0  0  0  0
   -3.7320    0.6010   -2.0210 C   0  0  0  0  0  0  0  0  0  0  0  0
   -4.9670    0.7170   -2.2240 O   0  0  0  0  0  0  0  0  0  0  0  0
   -2.9310    0.3410   -3.1290 O   0  0  0  0  0  0  0  0  0  0  0  0
   -3.7990    1.6800    3.1550 H   0  0  0  0  0  0  0  0  0  0  0  0
   -4.0920    0.5010    1.8580 H   0  0  0  0  0  0  0  0  0  0  0  0
   -2.4540    0.6370    2.6900 H   0  0  0  0  0  0  0  0  0  0  0  0
   -1.8190    2.3640    1.3030 H   0  0  0  0  0  0  0  0  0  0  0  0
   -3.3030    3.2460    1.6790 H   0  0  0  0  0  0  0  0  0  0  0  0
   -3.2170    2.9190   -0.7120 H   0  0  0  0  0  0  0  0  0  0  0  0
   -5.3240    2.6020    1.0100 H   0  0  0  0  0  0  0  0  0  0  0  0
   -5.3570    1.0430    0.0880 H   0  0  0  0  0  0  0  0  0  0  0  0
   -5.4620    2.5610   -0.8280 H   0  0  0  0  0  0  0  0  0  0  0  0
   -3.5930   -0.0460   -0.0350 H   0  0  0  0  0  0  0  0  0  0  0  0
   -1.1380    1.1930   -1.3830 H   0  0  0  0  0  0  0  0  0  0  0  0
  1 12  1  0  0  0  0
  1  2  1  0  0  0  0
  1 11  1  0  0  0  0
  2 13  1  1  0  0  0
  3  2  1  0  0  0  0
  3  4  1  0  0  0  0
  3 15  1  0  0  0  0
  4  8  1  0  0  0  0
  5  6  1  0  0  0  0
  5  4  2  0  0  0  0
  6  7  1  0  0  0  0
  7  8  2  0  0  0  0
  7 18  1  0  0  0  0
  9 10  2  0  0  0  0
  9  2  1  0  0  0  0
 14  3  1  0  0  0  0
 16  5  1  0  0  0  0
 17  6  1  0  0  0  0
 19 27  1  0  0  0  0
 19 20  1  0  0  0  0
 20 29  1  0  0  0  0
 20 22  1  0  0  0  0
 21 31  1  0  0  0  0
 21 20  1  0  0  0  0
 22 24  1  0  0  0  0
 22 33  1  1  0  0  0
 22 23  1  0  0  0  0
 23  9  1  0  0  0  0
 24 25  2  0  0  0  0
 26 19  1  0  0  0  0
 28 19  1  0  0  0  0
 30 21  1  0  0  0  0
 32 21  1  0  0  0  0
 34 23  1  0  0  0  0
 35 46  1  0  0  0  0
 35 44  1  0  0  0  0
 36 48  1  0  0  0  0
 36 35  1  0  0  0  0
 37 49  1  6  0  0  0
 37 38  1  0  0  0  0
 37 36  1  0  0  0  0
 38 51  1  0  0  0  0
 38 50  1  0  0  0  0
 39 37  1  0  0  0  0
 39 53  1  1  0  0  0
 40 39  1  0  0  0  0
 40 24  1  0  0  0  0
 41 39  1  0  0  0  0
 42 41  1  0  0  0  0
 43 41  2  0  0  0  0
 45 35  1  0  0  0  0
 47 36  1  0  0  0  0
 52 38  1  0  0  0  0
 54 40  1  0  0  0  0
M  END
$$$$
