HVK.pdb
 OpenBabel07022418393D

 56 56  0  0  1  0  0  0  0  0999 V2000
    2.0270    0.9850    5.0640 N   0  0  0  0  0  0  0  0  0  0  0  0
    1.4070   -0.0970    4.3270 C   0  0  1  0  0  0  0  0  0  0  0  0
   -0.1000    0.1810    4.3620 C   0  0  0  0  0  0  0  0  0  0  0  0
   -0.3500    1.4940    3.7210 C   0  0  0  0  0  0  0  0  0  0  0  0
   -1.5410    2.1510    3.5250 C   0  0  0  0  0  0  0  0  0  0  0  0
   -1.2810    3.3130    2.9020 N   0  0  0  0  0  0  0  0  0  0  0  0
    0.0300    3.4180    2.6940 C   0  0  0  0  0  0  0  0  0  0  0  0
    0.5920    2.3240    3.1870 N   0  0  0  0  0  0  0  0  0  0  0  0
    1.9030   -0.1240    2.9360 C   0  0  0  0  0  0  0  0  0  0  0  0
    2.7470    0.7310    2.5660 O   0  0  0  0  0  0  0  0  0  0  0  0
    3.0050    0.7390    5.3470 H   0  0  0  0  0  0  0  0  0  0  0  0
    1.4440    1.3560    5.8210 H   0  0  0  0  0  0  0  0  0  0  0  0
    1.6270   -1.0720    4.7980 H   0  0  0  0  0  0  0  0  0  0  0  0
   -0.6610   -0.6180    3.8660 H   0  0  0  0  0  0  0  0  0  0  0  0
   -0.4200    0.1990    5.4200 H   0  0  0  0  0  0  0  0  0  0  0  0
   -2.5140    1.8000    3.8190 H   0  0  0  0  0  0  0  0  0  0  0  0
   -1.9750    4.0470    2.6080 H   0  0  0  0  0  0  0  0  0  0  0  0
    0.5500    4.2320    2.2180 H   0  0  0  0  0  0  0  0  0  0  0  0
    1.6230   -3.5940    0.4360 C   0  0  0  0  0  0  0  0  0  0  0  0
    2.5710   -2.4200    0.2850 C   0  0  0  0  0  0  0  0  0  0  0  0
    3.1090   -2.4610   -1.1100 C   0  0  0  0  0  0  0  0  0  0  0  0
    1.9560   -1.1160    0.6000 C   0  0  2  0  0  0  0  0  0  0  0  0
    1.4840   -1.0610    1.9860 N   0  0  0  0  0  0  0  0  0  0  0  0
    0.7810   -0.8590   -0.2720 C   0  0  0  0  0  0  0  0  0  0  0  0
   -0.3840   -0.8670    0.2710 O   0  0  0  0  0  0  0  0  0  0  0  0
    1.5950   -4.2370   -0.4690 H   0  0  0  0  0  0  0  0  0  0  0  0
    1.9160   -4.2580    1.2770 H   0  0  0  0  0  0  0  0  0  0  0  0
    0.5840   -3.2810    0.6360 H   0  0  0  0  0  0  0  0  0  0  0  0
    3.5000   -2.6100    0.9300 H   0  0  0  0  0  0  0  0  0  0  0  0
    2.3440   -2.7550   -1.8670 H   0  0  0  0  0  0  0  0  0  0  0  0
    3.7010   -1.5600   -1.4000 H   0  0  0  0  0  0  0  0  0  0  0  0
    3.8490   -3.3330   -1.1630 H   0  0  0  0  0  0  0  0  0  0  0  0
    2.6700   -0.3010    0.4820 H   0  0  0  0  0  0  0  0  0  0  0  0
    0.7870   -1.7900    2.2440 H   0  0  0  0  0  0  0  0  0  0  0  0
    0.7970   -0.5970   -1.6520 N   0  0  0  0  0  0  0  0  0  0  0  0
   -0.3440   -0.3850   -2.4640 C   0  0  1  0  0  0  0  0  0  0  0  0
   -1.6730   -0.8790   -1.9540 C   0  0  0  0  0  0  0  0  0  0  0  0
   -1.7000   -2.3760   -1.7980 C   0  0  0  0  0  0  0  0  0  0  0  0
   -3.0470   -2.8460   -1.2520 C   0  0  0  0  0  0  0  0  0  0  0  0
   -4.1700   -2.4520   -2.1880 C   0  0  0  0  0  0  0  0  0  0  0  0
   -3.9210   -3.0770   -3.4830 N   0  0  0  0  0  0  0  0  0  0  0  0
   -0.3840    0.9720   -2.9990 C   0  0  0  0  0  0  0  0  0  0  0  0
   -1.3240    1.3570   -3.7470 O   0  0  0  0  0  0  0  0  0  0  0  0
    0.5990    1.9460   -2.7340 O   0  0  0  0  0  0  0  0  0  0  0  0
    1.7550   -0.5340   -2.1250 H   0  0  0  0  0  0  0  0  0  0  0  0
   -0.2150   -1.0860   -3.3950 H   0  0  0  0  0  0  0  0  0  0  0  0
   -2.1100   -0.3080   -1.1350 H   0  0  0  0  0  0  0  0  0  0  0  0
   -2.3860   -0.6760   -2.8190 H   0  0  0  0  0  0  0  0  0  0  0  0
   -0.9210   -2.8560   -1.2440 H   0  0  0  0  0  0  0  0  0  0  0  0
   -1.6540   -2.7900   -2.8620 H   0  0  0  0  0  0  0  0  0  0  0  0
   -3.0690   -3.9430   -1.1450 H   0  0  0  0  0  0  0  0  0  0  0  0
   -3.1640   -2.3920   -0.2590 H   0  0  0  0  0  0  0  0  0  0  0  0
   -4.2540   -1.3580   -2.2830 H   0  0  0  0  0  0  0  0  0  0  0  0
   -5.1410   -2.8290   -1.8110 H   0  0  0  0  0  0  0  0  0  0  0  0
   -4.6320   -2.7600   -4.1810 H   0  0  0  0  0  0  0  0  0  0  0  0
   -3.8730   -4.1000   -3.3640 H   0  0  0  0  0  0  0  0  0  0  0  0
  1 11  1  0  0  0  0
  1 12  1  0  0  0  0
  2  3  1  0  0  0  0
  2 13  1  1  0  0  0
  2  1  1  0  0  0  0
  3 15  1  0  0  0  0
  4  3  1  0  0  0  0
  5  4  2  0  0  0  0
  5 16  1  0  0  0  0
  6  5  1  0  0  0  0
  7  6  1  0  0  0  0
  7  8  2  0  0  0  0
  8  4  1  0  0  0  0
  9  2  1  0  0  0  0
 10  9  2  0  0  0  0
 14  3  1  0  0  0  0
 17  6  1  0  0  0  0
 18  7  1  0  0  0  0
 19 28  1  0  0  0  0
 19 27  1  0  0  0  0
 20 19  1  0  0  0  0
 20 22  1  0  0  0  0
 20 29  1  0  0  0  0
 21 20  1  0  0  0  0
 22 33  1  6  0  0  0
 22 23  1  0  0  0  0
 23 34  1  0  0  0  0
 23  9  1  0  0  0  0
 24 25  2  0  0  0  0
 24 22  1  0  0  0  0
 26 19  1  0  0  0  0
 30 21  1  0  0  0  0
 31 21  1  0  0  0  0
 32 21  1  0  0  0  0
 35 24  1  0  0  0  0
 36 46  1  6  0  0  0
 36 37  1  0  0  0  0
 36 35  1  0  0  0  0
 37 38  1  0  0  0  0
 37 47  1  0  0  0  0
 38 39  1  0  0  0  0
 38 49  1  0  0  0  0
 39 51  1  0  0  0  0
 39 52  1  0  0  0  0
 40 54  1  0  0  0  0
 40 39  1  0  0  0  0
 41 56  1  0  0  0  0
 41 40  1  0  0  0  0
 42 44  1  0  0  0  0
 42 36  1  0  0  0  0
 43 42  2  0  0  0  0
 45 35  1  0  0  0  0
 48 37  1  0  0  0  0
 50 38  1  0  0  0  0
 53 40  1  0  0  0  0
 55 41  1  0  0  0  0
M  END
$$$$
