HVL.pdb
 OpenBabel07022418393D

 54 54  0  0  1  0  0  0  0  0999 V2000
    1.9810   -3.2580    4.2660 N   0  0  0  0  0  0  0  0  0  0  0  0
    2.2950   -2.6160    2.9470 C   0  0  1  0  0  0  0  0  0  0  0  0
    1.9590   -3.6340    1.9430 C   0  0  0  0  0  0  0  0  0  0  0  0
    2.1750   -3.3570    0.5300 C   0  0  0  0  0  0  0  0  0  0  0  0
    1.3550   -2.9020   -0.4490 C   0  0  0  0  0  0  0  0  0  0  0  0
    2.0140   -2.8620   -1.6080 N   0  0  0  0  0  0  0  0  0  0  0  0
    3.2500   -3.2930   -1.3590 C   0  0  0  0  0  0  0  0  0  0  0  0
    3.3810   -3.6020   -0.0720 N   0  0  0  0  0  0  0  0  0  0  0  0
    1.6040   -1.3350    2.9920 C   0  0  0  0  0  0  0  0  0  0  0  0
    1.0090   -1.0020    4.0790 O   0  0  0  0  0  0  0  0  0  0  0  0
    2.1580   -4.2840    4.1930 H   0  0  0  0  0  0  0  0  0  0  0  0
    2.5570   -2.8080    4.9870 H   0  0  0  0  0  0  0  0  0  0  0  0
    3.4070   -2.4250    2.9680 H   0  0  0  0  0  0  0  0  0  0  0  0
    2.5730   -4.5560    2.2130 H   0  0  0  0  0  0  0  0  0  0  0  0
    0.8970   -4.0160    2.0960 H   0  0  0  0  0  0  0  0  0  0  0  0
    0.3300   -2.6240   -0.3410 H   0  0  0  0  0  0  0  0  0  0  0  0
    1.6560   -2.5540   -2.5610 H   0  0  0  0  0  0  0  0  0  0  0  0
    4.0440   -3.3810   -2.1070 H   0  0  0  0  0  0  0  0  0  0  0  0
    2.9930    2.1200    2.2400 C   0  0  0  0  0  0  0  0  0  0  0  0
    1.6640    2.0140    1.5570 C   0  0  0  0  0  0  0  0  0  0  0  0
    1.8860    1.8910    0.0870 C   0  0  0  0  0  0  0  0  0  0  0  0
    0.8200    0.8940    2.1200 C   0  0  2  0  0  0  0  0  0  0  0  0
    1.5020   -0.3670    1.9570 N   0  0  0  0  0  0  0  0  0  0  0  0
   -0.5360    0.9410    1.5050 C   0  0  0  0  0  0  0  0  0  0  0  0
   -1.1810    2.0480    1.4730 O   0  0  0  0  0  0  0  0  0  0  0  0
    3.3910    3.1450    2.0320 H   0  0  0  0  0  0  0  0  0  0  0  0
    3.6780    1.3780    1.7820 H   0  0  0  0  0  0  0  0  0  0  0  0
    2.8810    1.9790    3.3280 H   0  0  0  0  0  0  0  0  0  0  0  0
    1.1270    2.9750    1.7360 H   0  0  0  0  0  0  0  0  0  0  0  0
    1.6680    2.8240   -0.4810 H   0  0  0  0  0  0  0  0  0  0  0  0
    2.9570    1.6440   -0.1640 H   0  0  0  0  0  0  0  0  0  0  0  0
    1.2970    1.0510   -0.3700 H   0  0  0  0  0  0  0  0  0  0  0  0
    0.6610    1.1120    3.2210 H   0  0  0  0  0  0  0  0  0  0  0  0
    1.9490   -0.5830    1.0550 H   0  0  0  0  0  0  0  0  0  0  0  0
   -4.3110    1.0510   -1.9170 C   0  0  0  0  0  0  0  0  0  0  0  0
   -3.6460   -0.2810   -1.9200 C   0  0  0  0  0  0  0  0  0  0  0  0
   -3.3840   -0.6980   -3.3730 C   0  0  0  0  0  0  0  0  0  0  0  0
   -2.3910   -0.3490   -1.1110 C   0  0  0  0  0  0  0  0  0  0  0  0
   -2.5470   -0.0400    0.3370 C   0  0  2  0  0  0  0  0  0  0  0  0
   -1.2060   -0.1630    0.9340 N   0  0  0  0  0  0  0  0  0  0  0  0
   -3.4940   -0.9380    1.0340 C   0  0  0  0  0  0  0  0  0  0  0  0
   -3.0720   -1.6720    1.9910 O   0  0  0  0  0  0  0  0  0  0  0  0
   -4.8320   -1.0590    0.7370 O   0  0  0  0  0  0  0  0  0  0  0  0
   -5.0890    1.0390   -2.7290 H   0  0  0  0  0  0  0  0  0  0  0  0
   -4.8820    1.1900   -0.9750 H   0  0  0  0  0  0  0  0  0  0  0  0
   -3.6480    1.8930   -2.1500 H   0  0  0  0  0  0  0  0  0  0  0  0
   -4.3570   -1.0370   -1.5330 H   0  0  0  0  0  0  0  0  0  0  0  0
   -2.3270   -0.4010   -3.6090 H   0  0  0  0  0  0  0  0  0  0  0  0
   -3.5460   -1.7830   -3.5050 H   0  0  0  0  0  0  0  0  0  0  0  0
   -4.0700   -0.1320   -4.0160 H   0  0  0  0  0  0  0  0  0  0  0  0
   -1.8530   -1.3060   -1.2350 H   0  0  0  0  0  0  0  0  0  0  0  0
   -1.6990    0.4390   -1.5310 H   0  0  0  0  0  0  0  0  0  0  0  0
   -2.8720    1.0140    0.4330 H   0  0  0  0  0  0  0  0  0  0  0  0
   -0.7050   -1.0700    0.9680 H   0  0  0  0  0  0  0  0  0  0  0  0
  1 12  1  0  0  0  0
  2 13  1  6  0  0  0
  2  9  1  0  0  0  0
  2  1  1  0  0  0  0
  3 15  1  0  0  0  0
  3 14  1  0  0  0  0
  3  2  1  0  0  0  0
  4  3  1  0  0  0  0
  5 16  1  0  0  0  0
  5  4  2  0  0  0  0
  6  7  1  0  0  0  0
  6  5  1  0  0  0  0
  7  8  2  0  0  0  0
  8  4  1  0  0  0  0
  9 10  2  0  0  0  0
 11  1  1  0  0  0  0
 17  6  1  0  0  0  0
 18  7  1  0  0  0  0
 19 28  1  0  0  0  0
 20 29  1  0  0  0  0
 20 22  1  0  0  0  0
 20 19  1  0  0  0  0
 21 20  1  0  0  0  0
 22 33  1  1  0  0  0
 23 22  1  0  0  0  0
 23  9  1  0  0  0  0
 24 22  1  0  0  0  0
 25 24  2  0  0  0  0
 26 19  1  0  0  0  0
 27 19  1  0  0  0  0
 30 21  1  0  0  0  0
 31 21  1  0  0  0  0
 32 21  1  0  0  0  0
 34 23  1  0  0  0  0
 35 45  1  0  0  0  0
 36 35  1  0  0  0  0
 36 47  1  0  0  0  0
 36 38  1  0  0  0  0
 37 36  1  0  0  0  0
 38 39  1  0  0  0  0
 39 53  1  1  0  0  0
 39 40  1  0  0  0  0
 39 41  1  0  0  0  0
 40 54  1  0  0  0  0
 40 24  1  0  0  0  0
 41 42  1  0  0  0  0
 43 41  2  0  0  0  0
 44 35  1  0  0  0  0
 46 35  1  0  0  0  0
 48 37  1  0  0  0  0
 49 37  1  0  0  0  0
 50 37  1  0  0  0  0
 51 38  1  0  0  0  0
 52 38  1  0  0  0  0
M  END
$$$$
