HVM.pdb
 OpenBabel07022418393D

 52 52  0  0  1  0  0  0  0  0999 V2000
    0.8700   -3.2560    3.6670 N   0  0  0  0  0  0  0  0  0  0  0  0
    1.7730   -2.6360    2.6800 C   0  0  1  0  0  0  0  0  0  0  0  0
    1.6070   -3.2510    1.3490 C   0  0  0  0  0  0  0  0  0  0  0  0
    2.5640   -2.7070    0.3410 C   0  0  0  0  0  0  0  0  0  0  0  0
    2.5730   -3.1200   -0.9980 C   0  0  0  0  0  0  0  0  0  0  0  0
    3.5500   -2.4300   -1.6000 N   0  0  0  0  0  0  0  0  0  0  0  0
    4.1370   -1.6220   -0.7070 C   0  0  0  0  0  0  0  0  0  0  0  0
    3.5370   -1.7900    0.4750 N   0  0  0  0  0  0  0  0  0  0  0  0
    1.4550   -1.1780    2.6520 C   0  0  0  0  0  0  0  0  0  0  0  0
    1.4980   -0.5990    3.7750 O   0  0  0  0  0  0  0  0  0  0  0  0
    1.0920   -4.2700    3.6320 H   0  0  0  0  0  0  0  0  0  0  0  0
    1.1800   -2.9230    4.6200 H   0  0  0  0  0  0  0  0  0  0  0  0
    2.8130   -2.7790    3.0480 H   0  0  0  0  0  0  0  0  0  0  0  0
    1.7500   -4.3490    1.3410 H   0  0  0  0  0  0  0  0  0  0  0  0
    0.5850   -3.0220    0.9780 H   0  0  0  0  0  0  0  0  0  0  0  0
    1.9050   -3.8600   -1.4420 H   0  0  0  0  0  0  0  0  0  0  0  0
    3.7900   -2.5380   -2.6310 H   0  0  0  0  0  0  0  0  0  0  0  0
    4.9510   -0.9590   -0.9300 H   0  0  0  0  0  0  0  0  0  0  0  0
    3.1790    1.7670    1.3790 C   0  0  0  0  0  0  0  0  0  0  0  0
    1.7760    1.8650    0.8230 C   0  0  0  0  0  0  0  0  0  0  0  0
    1.3240    3.3020    0.9840 C   0  0  0  0  0  0  0  0  0  0  0  0
    0.8230    0.9970    1.5590 C   0  0  2  0  0  0  0  0  0  0  0  0
    1.1220   -0.4190    1.5460 N   0  0  0  0  0  0  0  0  0  0  0  0
   -0.5720    1.1680    1.0850 C   0  0  0  0  0  0  0  0  0  0  0  0
   -1.0850    2.3200    0.9980 O   0  0  0  0  0  0  0  0  0  0  0  0
    3.9390    2.1290    0.6280 H   0  0  0  0  0  0  0  0  0  0  0  0
    3.4790    0.7390    1.6410 H   0  0  0  0  0  0  0  0  0  0  0  0
    3.3180    2.4700    2.2480 H   0  0  0  0  0  0  0  0  0  0  0  0
    1.7710    1.6770   -0.2890 H   0  0  0  0  0  0  0  0  0  0  0  0
    0.8670    3.4760    1.9900 H   0  0  0  0  0  0  0  0  0  0  0  0
    0.6570    3.6310    0.1620 H   0  0  0  0  0  0  0  0  0  0  0  0
    2.2320    3.9370    0.9430 H   0  0  0  0  0  0  0  0  0  0  0  0
    0.8880    1.3010    2.6450 H   0  0  0  0  0  0  0  0  0  0  0  0
    1.0400   -0.8590    0.6080 H   0  0  0  0  0  0  0  0  0  0  0  0
   -5.0760   -2.9770   -1.3020 C   0  0  0  0  0  0  0  0  0  0  0  0
   -5.4150   -1.2190   -1.2550 S   0  0  0  0  0  0  0  0  0  0  0  0
   -4.0700   -0.2270   -1.9200 C   0  0  0  0  0  0  0  0  0  0  0  0
   -2.8180   -0.2560   -1.1460 C   0  0  0  0  0  0  0  0  0  0  0  0
   -2.7880    0.2510    0.2380 C   0  0  2  0  0  0  0  0  0  0  0  0
   -1.3930    0.0760    0.7110 N   0  0  0  0  0  0  0  0  0  0  0  0
   -3.6810   -0.3190    1.2270 C   0  0  0  0  0  0  0  0  0  0  0  0
   -3.1500   -0.9420    2.2190 O   0  0  0  0  0  0  0  0  0  0  0  0
   -5.0540   -0.2900    1.2680 O   0  0  0  0  0  0  0  0  0  0  0  0
   -4.5690   -3.2060   -2.2800 H   0  0  0  0  0  0  0  0  0  0  0  0
   -4.4580   -3.3310   -0.4510 H   0  0  0  0  0  0  0  0  0  0  0  0
   -6.0370   -3.5350   -1.2960 H   0  0  0  0  0  0  0  0  0  0  0  0
   -4.4080    0.8060   -2.1930 H   0  0  0  0  0  0  0  0  0  0  0  0
   -3.8460   -0.6810   -2.9370 H   0  0  0  0  0  0  0  0  0  0  0  0
   -2.3790   -1.3080   -1.1620 H   0  0  0  0  0  0  0  0  0  0  0  0
   -2.0140    0.3220   -1.7090 H   0  0  0  0  0  0  0  0  0  0  0  0
   -2.9470    1.3730    0.2630 H   0  0  0  0  0  0  0  0  0  0  0  0
   -1.0580   -0.8940    0.7510 H   0  0  0  0  0  0  0  0  0  0  0  0
  1 12  1  0  0  0  0
  2 13  1  1  0  0  0
  2  1  1  0  0  0  0
  3  2  1  0  0  0  0
  4  8  1  0  0  0  0
  4  3  1  0  0  0  0
  5  4  2  0  0  0  0
  6  5  1  0  0  0  0
  6  7  1  0  0  0  0
  7  8  2  0  0  0  0
  9  2  1  0  0  0  0
  9 10  2  0  0  0  0
 11  1  1  0  0  0  0
 14  3  1  0  0  0  0
 15  3  1  0  0  0  0
 16  5  1  0  0  0  0
 17  6  1  0  0  0  0
 18  7  1  0  0  0  0
 19 27  1  0  0  0  0
 19 28  1  0  0  0  0
 20 21  1  0  0  0  0
 20 19  1  0  0  0  0
 20 22  1  0  0  0  0
 21 30  1  0  0  0  0
 22 33  1  1  0  0  0
 23 22  1  0  0  0  0
 23  9  1  0  0  0  0
 24 22  1  0  0  0  0
 25 24  2  0  0  0  0
 26 19  1  0  0  0  0
 29 20  1  0  0  0  0
 31 21  1  0  0  0  0
 32 21  1  0  0  0  0
 34 23  1  0  0  0  0
 35 46  1  0  0  0  0
 35 36  1  0  0  0  0
 35 45  1  0  0  0  0
 37 36  1  0  0  0  0
 37 38  1  0  0  0  0
 38 39  1  0  0  0  0
 39 51  1  6  0  0  0
 39 40  1  0  0  0  0
 39 41  1  0  0  0  0
 40 52  1  0  0  0  0
 40 24  1  0  0  0  0
 41 43  2  0  0  0  0
 41 42  1  0  0  0  0
 44 35  1  0  0  0  0
 47 37  1  0  0  0  0
 48 37  1  0  0  0  0
 49 38  1  0  0  0  0
 50 38  1  0  0  0  0
M  END
$$$$
