HVP.pdb
 OpenBabel07022418393D

 49 50  0  0  1  0  0  0  0  0999 V2000
    1.7350   -4.0640    2.5670 N   0  0  0  0  0  0  0  0  0  0  0  0
    2.0500   -2.9200    1.6570 C   0  0  1  0  0  0  0  0  0  0  0  0
    2.0180   -3.4440    0.3050 C   0  0  0  0  0  0  0  0  0  0  0  0
    2.3190   -2.6250   -0.8510 C   0  0  0  0  0  0  0  0  0  0  0  0
    1.4970   -1.9690   -1.7120 C   0  0  0  0  0  0  0  0  0  0  0  0
    2.2090   -1.3920   -2.6860 N   0  0  0  0  0  0  0  0  0  0  0  0
    3.5050   -1.6670   -2.4690 C   0  0  0  0  0  0  0  0  0  0  0  0
    3.5760   -2.4130   -1.3600 N   0  0  0  0  0  0  0  0  0  0  0  0
    1.3330   -1.7460    2.1030 C   0  0  0  0  0  0  0  0  0  0  0  0
    0.7760   -1.8210    3.3040 O   0  0  0  0  0  0  0  0  0  0  0  0
    0.8500   -4.5040    2.2390 H   0  0  0  0  0  0  0  0  0  0  0  0
    1.6820   -3.7210    3.5470 H   0  0  0  0  0  0  0  0  0  0  0  0
    3.1560   -2.7260    1.9430 H   0  0  0  0  0  0  0  0  0  0  0  0
    0.9870   -3.9480    0.1790 H   0  0  0  0  0  0  0  0  0  0  0  0
    2.6880   -4.3870    0.3040 H   0  0  0  0  0  0  0  0  0  0  0  0
    0.4340   -1.9250   -1.6260 H   0  0  0  0  0  0  0  0  0  0  0  0
    1.8380   -0.8200   -3.4880 H   0  0  0  0  0  0  0  0  0  0  0  0
    4.3160   -1.3200   -3.1130 H   0  0  0  0  0  0  0  0  0  0  0  0
    1.5960    2.2320    0.4880 C   0  0  0  0  0  0  0  0  0  0  0  0
    1.2950    1.8430    1.8930 C   0  0  0  0  0  0  0  0  0  0  0  0
    0.7890    2.9650    2.7110 C   0  0  0  0  0  0  0  0  0  0  0  0
    0.4580    0.5820    2.0200 C   0  0  2  0  0  0  0  0  0  0  0  0
    1.1530   -0.5180    1.4270 N   0  0  0  0  0  0  0  0  0  0  0  0
   -0.9580    0.7790    1.7880 C   0  0  0  0  0  0  0  0  0  0  0  0
   -1.4760    1.8170    2.4430 O   0  0  0  0  0  0  0  0  0  0  0  0
    0.7350    2.1320   -0.2020 H   0  0  0  0  0  0  0  0  0  0  0  0
    1.8620    3.3190    0.4860 H   0  0  0  0  0  0  0  0  0  0  0  0
    2.4420    1.7020    0.0270 H   0  0  0  0  0  0  0  0  0  0  0  0
    2.2950    1.5480    2.3470 H   0  0  0  0  0  0  0  0  0  0  0  0
    1.5850    3.6740    3.0390 H   0  0  0  0  0  0  0  0  0  0  0  0
    0.3190    2.6180    3.6580 H   0  0  0  0  0  0  0  0  0  0  0  0
    0.0250    3.5510    2.1450 H   0  0  0  0  0  0  0  0  0  0  0  0
    0.5160    0.3570    3.1540 H   0  0  0  0  0  0  0  0  0  0  0  0
    1.5470   -0.4010    0.4890 H   0  0  0  0  0  0  0  0  0  0  0  0
   -1.9110    0.1330    1.0390 N   0  0  0  0  0  0  0  0  0  0  0  0
   -3.3510    0.4720    0.9870 C   0  0  0  0  0  0  0  0  0  0  0  0
   -4.0740   -0.7800    0.5760 C   0  0  0  0  0  0  0  0  0  0  0  0
   -3.0260   -1.8390    0.5220 C   0  0  0  0  0  0  0  0  0  0  0  0
   -1.7970   -0.9930    0.1360 C   0  0  1  0  0  0  0  0  0  0  0  0
   -2.0470   -0.5910   -1.2620 C   0  0  0  0  0  0  0  0  0  0  0  0
   -2.1390   -1.4450   -2.1550 O   0  0  0  0  0  0  0  0  0  0  0  0
   -2.1790    0.7400   -1.5800 O   0  0  0  0  0  0  0  0  0  0  0  0
   -3.7220    0.7900    1.9580 H   0  0  0  0  0  0  0  0  0  0  0  0
   -3.5400    1.2690    0.2430 H   0  0  0  0  0  0  0  0  0  0  0  0
   -4.8050   -1.0840    1.3730 H   0  0  0  0  0  0  0  0  0  0  0  0
   -4.5970   -0.6370   -0.3960 H   0  0  0  0  0  0  0  0  0  0  0  0
   -2.8520   -2.3490    1.4790 H   0  0  0  0  0  0  0  0  0  0  0  0
   -3.2330   -2.5630   -0.2930 H   0  0  0  0  0  0  0  0  0  0  0  0
   -0.9240   -1.6250    0.3050 H   0  0  0  0  0  0  0  0  0  0  0  0
  1 12  1  0  0  0  0
  2 13  1  1  0  0  0
  2  9  1  0  0  0  0
  2  1  1  0  0  0  0
  3  2  1  0  0  0  0
  4  3  1  0  0  0  0
  5 16  1  0  0  0  0
  5  4  2  0  0  0  0
  6  7  1  0  0  0  0
  6  5  1  0  0  0  0
  7  8  2  0  0  0  0
  8  4  1  0  0  0  0
  9 10  2  0  0  0  0
 11  1  1  0  0  0  0
 14  3  1  0  0  0  0
 15  3  1  0  0  0  0
 17  6  1  0  0  0  0
 18  7  1  0  0  0  0
 19 20  1  0  0  0  0
 20 22  1  0  0  0  0
 20 29  1  0  0  0  0
 20 21  1  0  0  0  0
 21 30  1  0  0  0  0
 21 31  1  0  0  0  0
 22 33  1  1  0  0  0
 23 22  1  0  0  0  0
 23  9  1  0  0  0  0
 24 22  1  0  0  0  0
 24 25  2  0  0  0  0
 26 19  1  0  0  0  0
 27 19  1  0  0  0  0
 28 19  1  0  0  0  0
 32 21  1  0  0  0  0
 34 23  1  0  0  0  0
 35 24  1  0  0  0  0
 36 35  1  0  0  0  0
 36 43  1  0  0  0  0
 37 36  1  0  0  0  0
 37 45  1  0  0  0  0
 38 37  1  0  0  0  0
 38 47  1  0  0  0  0
 39 49  1  1  0  0  0
 39 38  1  0  0  0  0
 39 35  1  0  0  0  0
 40 39  1  0  0  0  0
 41 40  2  0  0  0  0
 42 40  1  0  0  0  0
 44 36  1  0  0  0  0
 46 37  1  0  0  0  0
 48 38  1  0  0  0  0
M  END
$$$$
