HVR.pdb
 OpenBabel07022418393D

 58 58  0  0  1  0  0  0  0  0999 V2000
    2.8280    0.1700    4.6950 N   0  0  0  0  0  0  0  0  0  0  0  0
    2.4180    0.2180    3.3080 C   0  0  1  0  0  0  0  0  0  0  0  0
    2.9130   -1.0030    2.5740 C   0  0  0  0  0  0  0  0  0  0  0  0
    4.3910   -1.1080    2.6040 C   0  0  0  0  0  0  0  0  0  0  0  0
    5.0800   -2.1390    2.0010 C   0  0  0  0  0  0  0  0  0  0  0  0
    6.3910   -1.9480    2.2070 N   0  0  0  0  0  0  0  0  0  0  0  0
    6.5260   -0.8200    2.9240 C   0  0  0  0  0  0  0  0  0  0  0  0
    5.3040   -0.3090    3.1650 N   0  0  0  0  0  0  0  0  0  0  0  0
    0.9160    0.1810    3.2370 C   0  0  0  0  0  0  0  0  0  0  0  0
    0.2120    0.1170    4.2760 O   0  0  0  0  0  0  0  0  0  0  0  0
    3.0400   -0.7910    5.0230 H   0  0  0  0  0  0  0  0  0  0  0  0
    2.1030    0.6350    5.2920 H   0  0  0  0  0  0  0  0  0  0  0  0
    2.7290    1.1630    2.8630 H   0  0  0  0  0  0  0  0  0  0  0  0
    2.4610   -1.8870    3.0290 H   0  0  0  0  0  0  0  0  0  0  0  0
    2.6200   -0.8960    1.5090 H   0  0  0  0  0  0  0  0  0  0  0  0
    4.6540   -2.9630    1.4560 H   0  0  0  0  0  0  0  0  0  0  0  0
    7.1380   -2.5790    1.8590 H   0  0  0  0  0  0  0  0  0  0  0  0
    7.4800   -0.4190    3.2370 H   0  0  0  0  0  0  0  0  0  0  0  0
   -1.2160    2.6710    1.9920 C   0  0  0  0  0  0  0  0  0  0  0  0
   -1.6120    1.4710    1.1860 C   0  0  0  0  0  0  0  0  0  0  0  0
   -3.1270    1.5050    1.0280 C   0  0  0  0  0  0  0  0  0  0  0  0
   -1.1870    0.1850    1.8560 C   0  0  2  0  0  0  0  0  0  0  0  0
    0.2460    0.2170    1.9920 N   0  0  0  0  0  0  0  0  0  0  0  0
   -1.6400   -0.9650    1.0270 C   0  0  0  0  0  0  0  0  0  0  0  0
   -2.8650   -1.1450    0.8050 O   0  0  0  0  0  0  0  0  0  0  0  0
   -2.0040    2.9080    2.7160 H   0  0  0  0  0  0  0  0  0  0  0  0
   -0.2320    2.5460    2.4870 H   0  0  0  0  0  0  0  0  0  0  0  0
   -1.0820    3.5280    1.2790 H   0  0  0  0  0  0  0  0  0  0  0  0
   -1.1090    1.5300    0.1950 H   0  0  0  0  0  0  0  0  0  0  0  0
   -3.5110    2.5400    0.9960 H   0  0  0  0  0  0  0  0  0  0  0  0
   -3.5610    0.9740    1.8860 H   0  0  0  0  0  0  0  0  0  0  0  0
   -3.3930    1.0180    0.0750 H   0  0  0  0  0  0  0  0  0  0  0  0
   -1.7070    0.1290    2.8260 H   0  0  0  0  0  0  0  0  0  0  0  0
    0.8400    0.2700    1.1370 H   0  0  0  0  0  0  0  0  0  0  0  0
   -3.6230    1.3190   -4.7330 N   0  0  0  0  0  0  0  0  0  0  0  0
   -3.4270    0.0480   -4.1440 C   0  0  0  0  0  0  0  0  0  0  0  0
   -4.4070   -0.7960   -4.0200 N   0  0  0  0  0  0  0  0  0  0  0  0
   -2.1570   -0.3880   -3.6520 N   0  0  0  0  0  0  0  0  0  0  0  0
   -2.0300   -1.5940   -2.8600 C   0  0  0  0  0  0  0  0  0  0  0  0
   -0.6040   -1.8120   -2.4810 C   0  0  0  0  0  0  0  0  0  0  0  0
   -0.3750   -3.0360   -1.6600 C   0  0  0  0  0  0  0  0  0  0  0  0
   -1.1290   -3.0260   -0.3550 C   0  0  2  0  0  0  0  0  0  0  0  0
   -0.7310   -1.8950    0.4570 N   0  0  0  0  0  0  0  0  0  0  0  0
   -0.7850   -4.2540    0.4330 C   0  0  0  0  0  0  0  0  0  0  0  0
   -0.2550   -4.2070    1.5720 O   0  0  0  0  0  0  0  0  0  0  0  0
   -1.0490   -5.5060   -0.0860 O   0  0  0  0  0  0  0  0  0  0  0  0
   -4.5850    1.7030   -4.7680 H   0  0  0  0  0  0  0  0  0  0  0  0
   -2.8500    1.8740   -5.1270 H   0  0  0  0  0  0  0  0  0  0  0  0
   -4.3160   -1.7250   -3.6020 H   0  0  0  0  0  0  0  0  0  0  0  0
   -1.3210    0.1640   -3.8640 H   0  0  0  0  0  0  0  0  0  0  0  0
   -2.6110   -1.3970   -1.9180 H   0  0  0  0  0  0  0  0  0  0  0  0
   -2.4350   -2.4830   -3.3860 H   0  0  0  0  0  0  0  0  0  0  0  0
   -0.1930   -0.9010   -2.0180 H   0  0  0  0  0  0  0  0  0  0  0  0
   -0.0050   -1.9500   -3.4280 H   0  0  0  0  0  0  0  0  0  0  0  0
    0.7150   -3.0530   -1.3890 H   0  0  0  0  0  0  0  0  0  0  0  0
   -0.5510   -3.9730   -2.2200 H   0  0  0  0  0  0  0  0  0  0  0  0
   -2.2180   -3.0310   -0.4610 H   0  0  0  0  0  0  0  0  0  0  0  0
    0.2990   -1.7250    0.6570 H   0  0  0  0  0  0  0  0  0  0  0  0
  1 11  1  0  0  0  0
  1 12  1  0  0  0  0
  2 13  1  6  0  0  0
  2  1  1  0  0  0  0
  3  4  1  0  0  0  0
  3 14  1  0  0  0  0
  3  2  1  0  0  0  0
  4  8  1  0  0  0  0
  5  6  1  0  0  0  0
  5  4  2  0  0  0  0
  6  7  1  0  0  0  0
  7  8  2  0  0  0  0
  7 18  1  0  0  0  0
  9  2  1  0  0  0  0
  9 10  2  0  0  0  0
 15  3  1  0  0  0  0
 16  5  1  0  0  0  0
 17  6  1  0  0  0  0
 19 27  1  0  0  0  0
 19 26  1  0  0  0  0
 20 22  1  0  0  0  0
 20 19  1  0  0  0  0
 21 20  1  0  0  0  0
 21 31  1  0  0  0  0
 22 23  1  0  0  0  0
 22 33  1  1  0  0  0
 23  9  1  0  0  0  0
 24 22  1  0  0  0  0
 25 24  2  0  0  0  0
 28 19  1  0  0  0  0
 29 20  1  0  0  0  0
 30 21  1  0  0  0  0
 32 21  1  0  0  0  0
 34 23  1  0  0  0  0
 35 36  1  0  0  0  0
 36 37  2  0  0  0  0
 36 38  1  0  0  0  0
 37 49  1  0  0  0  0
 38 39  1  0  0  0  0
 39 40  1  0  0  0  0
 39 51  1  0  0  0  0
 40 53  1  0  0  0  0
 40 41  1  0  0  0  0
 41 55  1  0  0  0  0
 41 42  1  0  0  0  0
 42 57  1  6  0  0  0
 42 44  1  0  0  0  0
 42 43  1  0  0  0  0
 43 58  1  0  0  0  0
 43 24  1  0  0  0  0
 44 45  1  0  0  0  0
 46 44  2  0  0  0  0
 47 35  1  0  0  0  0
 48 35  1  0  0  0  0
 50 38  1  0  0  0  0
 52 39  1  0  0  0  0
 54 40  1  0  0  0  0
 56 41  1  0  0  0  0
M  END
$$$$
