HVS.pdb
 OpenBabel07022418393D

 46 46  0  0  1  0  0  0  0  0999 V2000
    1.0160   -3.4490    3.8140 N   0  0  0  0  0  0  0  0  0  0  0  0
    1.4380   -2.4230    2.9100 C   0  0  1  0  0  0  0  0  0  0  0  0
    1.6570   -2.9650    1.5460 C   0  0  0  0  0  0  0  0  0  0  0  0
    0.4570   -3.5780    0.9390 C   0  0  0  0  0  0  0  0  0  0  0  0
   -0.8100   -3.7330    1.4110 C   0  0  0  0  0  0  0  0  0  0  0  0
   -1.5340   -4.3520    0.4830 N   0  0  0  0  0  0  0  0  0  0  0  0
   -0.7270   -4.5830   -0.5600 C   0  0  0  0  0  0  0  0  0  0  0  0
    0.4820   -4.1160   -0.2910 N   0  0  0  0  0  0  0  0  0  0  0  0
    0.5700   -1.2200    2.9490 C   0  0  0  0  0  0  0  0  0  0  0  0
   -0.4300   -1.1440    3.7170 O   0  0  0  0  0  0  0  0  0  0  0  0
    1.1250   -3.1850    4.8000 H   0  0  0  0  0  0  0  0  0  0  0  0
    1.3840   -4.3720    3.5500 H   0  0  0  0  0  0  0  0  0  0  0  0
    2.4470   -2.0710    3.2810 H   0  0  0  0  0  0  0  0  0  0  0  0
    2.1010   -2.1800    0.8740 H   0  0  0  0  0  0  0  0  0  0  0  0
    2.4320   -3.7580    1.6100 H   0  0  0  0  0  0  0  0  0  0  0  0
   -1.1760   -3.4160    2.3630 H   0  0  0  0  0  0  0  0  0  0  0  0
   -2.5610   -4.6310    0.5180 H   0  0  0  0  0  0  0  0  0  0  0  0
   -1.0060   -5.0770   -1.4950 H   0  0  0  0  0  0  0  0  0  0  0  0
    2.0200    2.5480    1.6660 C   0  0  0  0  0  0  0  0  0  0  0  0
    0.8310    2.2780    2.5530 C   0  0  0  0  0  0  0  0  0  0  0  0
   -0.0310    3.5110    2.5550 C   0  0  0  0  0  0  0  0  0  0  0  0
    0.0450    1.0780    2.1030 C   0  0  2  0  0  0  0  0  0  0  0  0
    0.8470   -0.1070    2.1080 N   0  0  0  0  0  0  0  0  0  0  0  0
   -0.6050    1.3500    0.8060 C   0  0  0  0  0  0  0  0  0  0  0  0
   -1.3250    2.3580    0.6950 O   0  0  0  0  0  0  0  0  0  0  0  0
    2.3840    3.5770    1.9370 H   0  0  0  0  0  0  0  0  0  0  0  0
    1.7220    2.6150    0.6030 H   0  0  0  0  0  0  0  0  0  0  0  0
    2.8610    1.8670    1.8540 H   0  0  0  0  0  0  0  0  0  0  0  0
    1.2150    2.1320    3.5790 H   0  0  0  0  0  0  0  0  0  0  0  0
   -1.0800    3.2870    2.8390 H   0  0  0  0  0  0  0  0  0  0  0  0
    0.0470    4.0750    1.5980 H   0  0  0  0  0  0  0  0  0  0  0  0
    0.3490    4.2130    3.3440 H   0  0  0  0  0  0  0  0  0  0  0  0
   -0.7730    0.9310    2.8470 H   0  0  0  0  0  0  0  0  0  0  0  0
    1.6760   -0.1780    1.4750 H   0  0  0  0  0  0  0  0  0  0  0  0
   -0.6280    1.3060   -3.8310 O   0  0  0  0  0  0  0  0  0  0  0  0
   -0.0210    0.9700   -2.6030 C   0  0  0  0  0  0  0  0  0  0  0  0
   -1.0950    0.8220   -1.5450 C   0  0  2  0  0  0  0  0  0  0  0  0
   -0.4100    0.4740   -0.2940 N   0  0  0  0  0  0  0  0  0  0  0  0
   -1.9370   -0.3470   -1.9640 C   0  0  0  0  0  0  0  0  0  0  0  0
   -2.6140   -0.2710   -3.0130 O   0  0  0  0  0  0  0  0  0  0  0  0
   -1.9870   -1.5200   -1.2160 O   0  0  0  0  0  0  0  0  0  0  0  0
   -0.7980    0.4510   -4.2950 H   0  0  0  0  0  0  0  0  0  0  0  0
    0.7480    1.7150   -2.3220 H   0  0  0  0  0  0  0  0  0  0  0  0
    0.5180    0.0010   -2.7230 H   0  0  0  0  0  0  0  0  0  0  0  0
   -1.6800    1.7370   -1.4570 H   0  0  0  0  0  0  0  0  0  0  0  0
    0.1730   -0.3700   -0.2560 H   0  0  0  0  0  0  0  0  0  0  0  0
  1 11  1  0  0  0  0
  2  9  1  0  0  0  0
  2 13  1  1  0  0  0
  2  1  1  0  0  0  0
  3 15  1  0  0  0  0
  3  2  1  0  0  0  0
  4  5  2  0  0  0  0
  4  3  1  0  0  0  0
  5 16  1  0  0  0  0
  6 17  1  0  0  0  0
  6  5  1  0  0  0  0
  7  8  2  0  0  0  0
  7  6  1  0  0  0  0
  8  4  1  0  0  0  0
  9 10  2  0  0  0  0
 12  1  1  0  0  0  0
 14  3  1  0  0  0  0
 18  7  1  0  0  0  0
 19 28  1  0  0  0  0
 19 26  1  0  0  0  0
 19 20  1  0  0  0  0
 20 21  1  0  0  0  0
 20 29  1  0  0  0  0
 21 30  1  0  0  0  0
 21 32  1  0  0  0  0
 22 23  1  0  0  0  0
 22 20  1  0  0  0  0
 22 33  1  1  0  0  0
 23  9  1  0  0  0  0
 24 22  1  0  0  0  0
 25 24  2  0  0  0  0
 27 19  1  0  0  0  0
 31 21  1  0  0  0  0
 34 23  1  0  0  0  0
 35 36  1  0  0  0  0
 36 43  1  0  0  0  0
 36 37  1  0  0  0  0
 37 45  1  1  0  0  0
 37 38  1  0  0  0  0
 38 46  1  0  0  0  0
 38 24  1  0  0  0  0
 39 37  1  0  0  0  0
 39 41  1  0  0  0  0
 40 39  2  0  0  0  0
 42 35  1  0  0  0  0
 44 36  1  0  0  0  0
M  END
$$$$
