HVT.pdb
 OpenBabel07022418393D

 49 49  0  0  1  0  0  0  0  0999 V2000
    1.1550   -2.6300    2.2760 N   0  0  0  0  0  0  0  0  0  0  0  0
    1.9790   -1.4070    2.2500 C   0  0  1  0  0  0  0  0  0  0  0  0
    3.3970   -1.8930    2.2670 C   0  0  0  0  0  0  0  0  0  0  0  0
    4.4380   -0.8830    2.2160 C   0  0  0  0  0  0  0  0  0  0  0  0
    5.0740   -0.3760    1.1070 C   0  0  0  0  0  0  0  0  0  0  0  0
    5.9960    0.5230    1.4590 N   0  0  0  0  0  0  0  0  0  0  0  0
    5.9460    0.5890    2.7990 C   0  0  0  0  0  0  0  0  0  0  0  0
    4.9990   -0.2630    3.2720 N   0  0  0  0  0  0  0  0  0  0  0  0
    1.6210   -0.5180    1.1370 C   0  0  0  0  0  0  0  0  0  0  0  0
    2.1910    0.5990    0.9640 O   0  0  0  0  0  0  0  0  0  0  0  0
    1.6450   -3.2860    1.5980 H   0  0  0  0  0  0  0  0  0  0  0  0
    1.3040   -3.0530    3.2130 H   0  0  0  0  0  0  0  0  0  0  0  0
    1.7100   -0.9100    3.2390 H   0  0  0  0  0  0  0  0  0  0  0  0
    3.5600   -2.6360    1.4280 H   0  0  0  0  0  0  0  0  0  0  0  0
    3.4710   -2.5490    3.1910 H   0  0  0  0  0  0  0  0  0  0  0  0
    4.8570   -0.6650    0.0970 H   0  0  0  0  0  0  0  0  0  0  0  0
    6.6570    1.0970    0.8840 H   0  0  0  0  0  0  0  0  0  0  0  0
    6.5900    1.2450    3.3840 H   0  0  0  0  0  0  0  0  0  0  0  0
    0.0070   -1.8450   -2.6830 C   0  0  0  0  0  0  0  0  0  0  0  0
    0.5260   -0.5110   -2.2730 C   0  0  0  0  0  0  0  0  0  0  0  0
   -0.0890    0.5010   -3.2320 C   0  0  0  0  0  0  0  0  0  0  0  0
    0.1960   -0.0510   -0.9050 C   0  0  2  0  0  0  0  0  0  0  0  0
    0.6320   -0.8460    0.2030 N   0  0  0  0  0  0  0  0  0  0  0  0
   -1.2390    0.2480   -0.6940 C   0  0  0  0  0  0  0  0  0  0  0  0
   -1.9280    0.9040   -1.5140 O   0  0  0  0  0  0  0  0  0  0  0  0
   -1.0080   -1.8300   -3.1230 H   0  0  0  0  0  0  0  0  0  0  0  0
    0.6780   -2.2270   -3.5060 H   0  0  0  0  0  0  0  0  0  0  0  0
    0.0180   -2.6120   -1.8790 H   0  0  0  0  0  0  0  0  0  0  0  0
    1.6250   -0.4030   -2.4120 H   0  0  0  0  0  0  0  0  0  0  0  0
   -0.0740    1.5210   -2.7830 H   0  0  0  0  0  0  0  0  0  0  0  0
   -1.0800    0.1850   -3.5800 H   0  0  0  0  0  0  0  0  0  0  0  0
    0.5840    0.5620   -4.1170 H   0  0  0  0  0  0  0  0  0  0  0  0
    0.7310    0.9420   -0.7940 H   0  0  0  0  0  0  0  0  0  0  0  0
    0.1170   -1.7740    0.2810 H   0  0  0  0  0  0  0  0  0  0  0  0
   -3.7670   -1.6100    2.4400 C   0  0  0  0  0  0  0  0  0  0  0  0
   -4.1860   -1.0570    1.1010 C   0  0  1  0  0  0  0  0  0  0  0  0
   -5.5100   -0.5750    1.2020 O   0  0  0  0  0  0  0  0  0  0  0  0
   -3.3600    0.1010    0.6560 C   0  0  2  0  0  0  0  0  0  0  0  0
   -1.9590   -0.1950    0.4790 N   0  0  0  0  0  0  0  0  0  0  0  0
   -3.5650    1.2360    1.6020 C   0  0  0  0  0  0  0  0  0  0  0  0
   -2.6140    1.8660    2.1500 O   0  0  0  0  0  0  0  0  0  0  0  0
   -4.8680    1.6160    1.8920 O   0  0  0  0  0  0  0  0  0  0  0  0
   -4.6910   -2.0600    2.8950 H   0  0  0  0  0  0  0  0  0  0  0  0
   -3.4140   -0.8400    3.1410 H   0  0  0  0  0  0  0  0  0  0  0  0
   -3.0610   -2.4440    2.2850 H   0  0  0  0  0  0  0  0  0  0  0  0
   -4.2040   -1.8950    0.3840 H   0  0  0  0  0  0  0  0  0  0  0  0
   -5.9410   -0.8040    2.0320 H   0  0  0  0  0  0  0  0  0  0  0  0
   -3.7460    0.4660   -0.3180 H   0  0  0  0  0  0  0  0  0  0  0  0
   -1.4360   -0.7410    1.1920 H   0  0  0  0  0  0  0  0  0  0  0  0
  1 12  1  0  0  0  0
  2  3  1  0  0  0  0
  2  1  1  0  0  0  0
  2 13  1  1  0  0  0
  3 15  1  0  0  0  0
  4  3  1  0  0  0  0
  4  8  1  0  0  0  0
  5  6  1  0  0  0  0
  5  4  2  0  0  0  0
  6  7  1  0  0  0  0
  7  8  2  0  0  0  0
  7 18  1  0  0  0  0
  9  2  1  0  0  0  0
 10  9  2  0  0  0  0
 11  1  1  0  0  0  0
 14  3  1  0  0  0  0
 16  5  1  0  0  0  0
 17  6  1  0  0  0  0
 19 20  1  0  0  0  0
 19 28  1  0  0  0  0
 20 22  1  0  0  0  0
 21 30  1  0  0  0  0
 21 20  1  0  0  0  0
 22 33  1  1  0  0  0
 22 24  1  0  0  0  0
 22 23  1  0  0  0  0
 23 34  1  0  0  0  0
 23  9  1  0  0  0  0
 24 39  1  0  0  0  0
 25 24  2  0  0  0  0
 26 19  1  0  0  0  0
 27 19  1  0  0  0  0
 29 20  1  0  0  0  0
 31 21  1  0  0  0  0
 32 21  1  0  0  0  0
 35 43  1  0  0  0  0
 35 44  1  0  0  0  0
 36 46  1  6  0  0  0
 36 37  1  0  0  0  0
 36 35  1  0  0  0  0
 37 47  1  0  0  0  0
 38 48  1  6  0  0  0
 38 36  1  0  0  0  0
 38 40  1  0  0  0  0
 39 38  1  0  0  0  0
 39 49  1  0  0  0  0
 40 42  2  0  0  0  0
 40 41  1  0  0  0  0
 45 35  1  0  0  0  0
M  END
$$$$
