HVV.pdb
 OpenBabel07022418393D

 51 51  0  0  1  0  0  0  0  0999 V2000
    0.5160   -3.4460    1.2000 N   0  0  0  0  0  0  0  0  0  0  0  0
    1.4750   -2.6420    1.9740 C   0  0  1  0  0  0  0  0  0  0  0  0
    2.8050   -3.3470    1.8350 C   0  0  0  0  0  0  0  0  0  0  0  0
    3.8940   -2.6560    2.5660 C   0  0  0  0  0  0  0  0  0  0  0  0
    4.7580   -1.6810    2.1270 C   0  0  0  0  0  0  0  0  0  0  0  0
    5.5900   -1.3480    3.1310 N   0  0  0  0  0  0  0  0  0  0  0  0
    5.2630   -2.1010    4.2030 C   0  0  0  0  0  0  0  0  0  0  0  0
    4.2360   -2.8920    3.8570 N   0  0  0  0  0  0  0  0  0  0  0  0
    1.5320   -1.3010    1.3380 C   0  0  0  0  0  0  0  0  0  0  0  0
    2.2720   -0.3750    1.7720 O   0  0  0  0  0  0  0  0  0  0  0  0
    1.0180   -4.0040    0.4760 H   0  0  0  0  0  0  0  0  0  0  0  0
    0.0810   -4.1180    1.8620 H   0  0  0  0  0  0  0  0  0  0  0  0
    1.1390   -2.5870    3.0280 H   0  0  0  0  0  0  0  0  0  0  0  0
    3.0310   -3.4130    0.7450 H   0  0  0  0  0  0  0  0  0  0  0  0
    2.6950   -4.4070    2.1670 H   0  0  0  0  0  0  0  0  0  0  0  0
    4.7910   -1.2420    1.1550 H   0  0  0  0  0  0  0  0  0  0  0  0
    6.3500   -0.6500    3.1210 H   0  0  0  0  0  0  0  0  0  0  0  0
    5.7470   -2.0790    5.1930 H   0  0  0  0  0  0  0  0  0  0  0  0
    0.3360   -0.6610   -2.7710 C   0  0  0  0  0  0  0  0  0  0  0  0
    1.1790    0.2270   -1.9100 C   0  0  0  0  0  0  0  0  0  0  0  0
    1.0480    1.6280   -2.4850 C   0  0  0  0  0  0  0  0  0  0  0  0
    0.7420    0.2790   -0.4800 C   0  0  2  0  0  0  0  0  0  0  0  0
    0.7560   -0.9800    0.2020 N   0  0  0  0  0  0  0  0  0  0  0  0
   -0.5610    0.9270   -0.2860 C   0  0  0  0  0  0  0  0  0  0  0  0
   -0.8870    2.0400   -0.7680 O   0  0  0  0  0  0  0  0  0  0  0  0
   -0.1930   -0.1200   -3.5820 H   0  0  0  0  0  0  0  0  0  0  0  0
    1.0170   -1.3750   -3.2930 H   0  0  0  0  0  0  0  0  0  0  0  0
   -0.4410   -1.2170   -2.2160 H   0  0  0  0  0  0  0  0  0  0  0  0
    2.2600   -0.0140   -1.9680 H   0  0  0  0  0  0  0  0  0  0  0  0
    1.8640    1.8250   -3.2360 H   0  0  0  0  0  0  0  0  0  0  0  0
    1.2240    2.4080   -1.6930 H   0  0  0  0  0  0  0  0  0  0  0  0
    0.0790    1.7840   -2.9950 H   0  0  0  0  0  0  0  0  0  0  0  0
    1.4860    0.9240    0.0610 H   0  0  0  0  0  0  0  0  0  0  0  0
    0.1340   -1.7310   -0.1760 H   0  0  0  0  0  0  0  0  0  0  0  0
   -3.9040   -1.3640    0.6880 C   0  0  0  0  0  0  0  0  0  0  0  0
   -3.9050    0.0050    0.0690 C   0  0  0  0  0  0  0  0  0  0  0  0
   -5.2320    0.6800    0.0360 C   0  0  0  0  0  0  0  0  0  0  0  0
   -2.8750    0.9130    0.7050 C   0  0  2  0  0  0  0  0  0  0  0  0
   -1.5570    0.2820    0.4970 N   0  0  0  0  0  0  0  0  0  0  0  0
   -3.1120    1.1180    2.1560 C   0  0  0  0  0  0  0  0  0  0  0  0
   -2.2620    0.7650    3.0170 O   0  0  0  0  0  0  0  0  0  0  0  0
   -4.2790    1.7030    2.5700 O   0  0  0  0  0  0  0  0  0  0  0  0
   -2.9770   -1.8920    0.3450 H   0  0  0  0  0  0  0  0  0  0  0  0
   -3.8760   -1.3230    1.8010 H   0  0  0  0  0  0  0  0  0  0  0  0
   -4.7690   -1.9490    0.3780 H   0  0  0  0  0  0  0  0  0  0  0  0
   -3.5880   -0.1230   -1.0010 H   0  0  0  0  0  0  0  0  0  0  0  0
   -5.7330    0.7820    1.0090 H   0  0  0  0  0  0  0  0  0  0  0  0
   -5.8980    0.2020   -0.7200 H   0  0  0  0  0  0  0  0  0  0  0  0
   -5.0590    1.7170   -0.3550 H   0  0  0  0  0  0  0  0  0  0  0  0
   -2.9120    1.8810    0.1690 H   0  0  0  0  0  0  0  0  0  0  0  0
   -1.3680   -0.6460    0.9350 H   0  0  0  0  0  0  0  0  0  0  0  0
  1 12  1  0  0  0  0
  1  2  1  0  0  0  0
  2 13  1  1  0  0  0
  3  2  1  0  0  0  0
  3 15  1  0  0  0  0
  3  4  1  0  0  0  0
  4  8  1  0  0  0  0
  5  4  2  0  0  0  0
  5  6  1  0  0  0  0
  6  7  1  0  0  0  0
  7 18  1  0  0  0  0
  8  7  2  0  0  0  0
  9 10  2  0  0  0  0
  9  2  1  0  0  0  0
 11  1  1  0  0  0  0
 14  3  1  0  0  0  0
 16  5  1  0  0  0  0
 17  6  1  0  0  0  0
 19 28  1  0  0  0  0
 19 20  1  0  0  0  0
 20 22  1  0  0  0  0
 21 20  1  0  0  0  0
 21 31  1  0  0  0  0
 22 24  1  0  0  0  0
 22 33  1  1  0  0  0
 22 23  1  0  0  0  0
 23  9  1  0  0  0  0
 24 39  1  0  0  0  0
 25 24  2  0  0  0  0
 26 19  1  0  0  0  0
 27 19  1  0  0  0  0
 29 20  1  0  0  0  0
 30 21  1  0  0  0  0
 32 21  1  0  0  0  0
 34 23  1  0  0  0  0
 35 44  1  0  0  0  0
 36 35  1  0  0  0  0
 36 38  1  0  0  0  0
 37 36  1  0  0  0  0
 37 47  1  0  0  0  0
 38 50  1  6  0  0  0
 38 40  1  0  0  0  0
 39 38  1  0  0  0  0
 39 51  1  0  0  0  0
 40 42  2  0  0  0  0
 40 41  1  0  0  0  0
 43 35  1  0  0  0  0
 45 35  1  0  0  0  0
 46 36  1  0  0  0  0
 48 37  1  0  0  0  0
 49 37  1  0  0  0  0
M  END
$$$$
