HVW.pdb
 OpenBabel07022418393D

 59 61  0  0  1  0  0  0  0  0999 V2000
   -0.7280   -0.6080    4.3500 N   0  0  0  0  0  0  0  0  0  0  0  0
   -0.1830    0.7390    4.4290 C   0  0  1  0  0  0  0  0  0  0  0  0
    1.1150    0.6160    5.2220 C   0  0  0  0  0  0  0  0  0  0  0  0
    1.7240    1.9610    5.3360 C   0  0  0  0  0  0  0  0  0  0  0  0
    1.4780    2.8630    6.3620 C   0  0  0  0  0  0  0  0  0  0  0  0
    2.1800    3.9890    6.1690 N   0  0  0  0  0  0  0  0  0  0  0  0
    2.8650    3.7970    5.0270 C   0  0  0  0  0  0  0  0  0  0  0  0
    2.5960    2.5730    4.5160 N   0  0  0  0  0  0  0  0  0  0  0  0
    0.0870    1.3060    3.0900 C   0  0  0  0  0  0  0  0  0  0  0  0
    0.1030    2.5210    2.8620 O   0  0  0  0  0  0  0  0  0  0  0  0
   -0.0660   -1.3390    4.0970 H   0  0  0  0  0  0  0  0  0  0  0  0
   -1.6310   -0.6100    3.8540 H   0  0  0  0  0  0  0  0  0  0  0  0
   -0.9050    1.3720    4.9470 H   0  0  0  0  0  0  0  0  0  0  0  0
    1.7870   -0.1280    4.7470 H   0  0  0  0  0  0  0  0  0  0  0  0
    0.8890    0.2620    6.2410 H   0  0  0  0  0  0  0  0  0  0  0  0
    0.8090    2.6960    7.2180 H   0  0  0  0  0  0  0  0  0  0  0  0
    2.1990    4.8350    6.7650 H   0  0  0  0  0  0  0  0  0  0  0  0
    3.5410    4.4940    4.5540 H   0  0  0  0  0  0  0  0  0  0  0  0
    2.9360    1.5410    1.2840 C   0  0  0  0  0  0  0  0  0  0  0  0
    2.1190    0.6810    0.3710 C   0  0  0  0  0  0  0  0  0  0  0  0
    2.3840    1.1220   -1.0480 C   0  0  0  0  0  0  0  0  0  0  0  0
    0.6260    0.7990    0.6660 C   0  0  2  0  0  0  0  0  0  0  0  0
    0.3450    0.3930    2.0220 N   0  0  0  0  0  0  0  0  0  0  0  0
   -0.1380    0.0050   -0.3210 C   0  0  0  0  0  0  0  0  0  0  0  0
   -0.0580    0.2970   -1.5410 O   0  0  0  0  0  0  0  0  0  0  0  0
    2.4780    2.5160    1.5170 H   0  0  0  0  0  0  0  0  0  0  0  0
    3.1150    0.9520    2.2340 H   0  0  0  0  0  0  0  0  0  0  0  0
    3.9490    1.7500    0.8790 H   0  0  0  0  0  0  0  0  0  0  0  0
    2.3870   -0.3840    0.4640 H   0  0  0  0  0  0  0  0  0  0  0  0
    3.4530    1.4480   -1.1790 H   0  0  0  0  0  0  0  0  0  0  0  0
    2.2530    0.3120   -1.7960 H   0  0  0  0  0  0  0  0  0  0  0  0
    1.7950    2.0220   -1.3340 H   0  0  0  0  0  0  0  0  0  0  0  0
    0.3810    1.8620    0.5520 H   0  0  0  0  0  0  0  0  0  0  0  0
    0.3270   -0.6130    2.2440 H   0  0  0  0  0  0  0  0  0  0  0  0
   -0.9770   -1.0890    0.0070 N   0  0  0  0  0  0  0  0  0  0  0  0
   -1.7180   -1.8620   -0.9880 C   0  0  1  0  0  0  0  0  0  0  0  0
   -0.9500   -3.1820   -1.1380 C   0  0  0  0  0  0  0  0  0  0  0  0
   -1.5770   -4.0900   -2.1270 C   0  0  0  0  0  0  0  0  0  0  0  0
   -2.3300   -5.2070   -1.8840 C   0  0  0  0  0  0  0  0  0  0  0  0
   -2.7290   -5.7780   -3.0490 N   0  0  0  0  0  0  0  0  0  0  0  0
   -2.2340   -5.0310   -4.0690 C   0  0  0  0  0  0  0  0  0  0  0  0
   -2.3250   -5.1510   -5.4460 C   0  0  0  0  0  0  0  0  0  0  0  0
   -1.6830   -4.1970   -6.2340 C   0  0  0  0  0  0  0  0  0  0  0  0
   -0.9810   -3.1670   -5.6780 C   0  0  0  0  0  0  0  0  0  0  0  0
   -0.8900   -3.0460   -4.3210 C   0  0  0  0  0  0  0  0  0  0  0  0
   -1.5280   -3.9950   -3.5210 C   0  0  0  0  0  0  0  0  0  0  0  0
   -3.1080   -2.0770   -0.6050 C   0  0  0  0  0  0  0  0  0  0  0  0
   -3.5460   -1.6310    0.4770 O   0  0  0  0  0  0  0  0  0  0  0  0
   -3.9690   -2.7850   -1.4440 O   0  0  0  0  0  0  0  0  0  0  0  0
   -1.0800   -1.3630    0.9880 H   0  0  0  0  0  0  0  0  0  0  0  0
   -1.6080   -1.3550   -1.9660 H   0  0  0  0  0  0  0  0  0  0  0  0
   -0.7950   -3.6660   -0.1580 H   0  0  0  0  0  0  0  0  0  0  0  0
    0.0800   -2.9550   -1.5340 H   0  0  0  0  0  0  0  0  0  0  0  0
   -2.5800   -5.5920   -0.9020 H   0  0  0  0  0  0  0  0  0  0  0  0
   -3.3040   -6.6300   -3.1590 H   0  0  0  0  0  0  0  0  0  0  0  0
   -2.8730   -5.9540   -5.9160 H   0  0  0  0  0  0  0  0  0  0  0  0
   -1.7410   -4.2690   -7.3230 H   0  0  0  0  0  0  0  0  0  0  0  0
   -0.4920   -2.4390   -6.3230 H   0  0  0  0  0  0  0  0  0  0  0  0
   -0.3390   -2.2310   -3.8410 H   0  0  0  0  0  0  0  0  0  0  0  0
  1  2  1  0  0  0  0
  2 13  1  1  0  0  0
  2  3  1  0  0  0  0
  3  4  1  0  0  0  0
  3 15  1  0  0  0  0
  4  5  2  0  0  0  0
  5 16  1  0  0  0  0
  6  5  1  0  0  0  0
  6 17  1  0  0  0  0
  7  6  1  0  0  0  0
  8  7  2  0  0  0  0
  8  4  1  0  0  0  0
  9  2  1  0  0  0  0
 10  9  2  0  0  0  0
 11  1  1  0  0  0  0
 12  1  1  0  0  0  0
 14  3  1  0  0  0  0
 18  7  1  0  0  0  0
 19 26  1  0  0  0  0
 19 27  1  0  0  0  0
 20 29  1  0  0  0  0
 20 22  1  0  0  0  0
 20 19  1  0  0  0  0
 21 20  1  0  0  0  0
 22 33  1  6  0  0  0
 22 23  1  0  0  0  0
 23 34  1  0  0  0  0
 23  9  1  0  0  0  0
 24 35  1  0  0  0  0
 24 22  1  0  0  0  0
 25 24  2  0  0  0  0
 28 19  1  0  0  0  0
 30 21  1  0  0  0  0
 31 21  1  0  0  0  0
 32 21  1  0  0  0  0
 35 50  1  0  0  0  0
 36 51  1  6  0  0  0
 36 47  1  0  0  0  0
 36 35  1  0  0  0  0
 37 36  1  0  0  0  0
 37 52  1  0  0  0  0
 38 39  2  0  0  0  0
 38 37  1  0  0  0  0
 39 54  1  0  0  0  0
 40 39  1  0  0  0  0
 41 46  1  0  0  0  0
 41 40  1  0  0  0  0
 42 41  2  0  0  0  0
 43 44  2  0  0  0  0
 43 42  1  0  0  0  0
 44 45  1  0  0  0  0
 45 59  1  0  0  0  0
 45 46  2  0  0  0  0
 46 38  1  0  0  0  0
 47 48  1  0  0  0  0
 49 47  2  0  0  0  0
 53 37  1  0  0  0  0
 55 40  1  0  0  0  0
 56 42  1  0  0  0  0
 57 43  1  0  0  0  0
 58 44  1  0  0  0  0
M  END
$$$$
