HWA.pdb
 OpenBabel07022418383D

 53 55  0  0  1  0  0  0  0  0999 V2000
    0.1410   -1.2660    4.2490 N   0  0  0  0  0  0  0  0  0  0  0  0
    1.0160   -0.3050    3.6890 C   0  0  1  0  0  0  0  0  0  0  0  0
    2.4330   -0.3310    4.0920 C   0  0  0  0  0  0  0  0  0  0  0  0
    3.2140   -1.5210    3.8010 C   0  0  0  0  0  0  0  0  0  0  0  0
    2.9560   -2.7030    3.1620 C   0  0  0  0  0  0  0  0  0  0  0  0
    4.0920   -3.4360    3.1790 N   0  0  0  0  0  0  0  0  0  0  0  0
    5.0540   -2.7550    3.8060 C   0  0  0  0  0  0  0  0  0  0  0  0
    4.5250   -1.6010    4.1810 N   0  0  0  0  0  0  0  0  0  0  0  0
    0.8270   -0.1880    2.2080 C   0  0  0  0  0  0  0  0  0  0  0  0
    1.6120    0.5690    1.6130 O   0  0  0  0  0  0  0  0  0  0  0  0
    0.0260   -1.2400    5.2630 H   0  0  0  0  0  0  0  0  0  0  0  0
    0.1480   -2.1580    3.7750 H   0  0  0  0  0  0  0  0  0  0  0  0
    0.6200    0.7060    4.0650 H   0  0  0  0  0  0  0  0  0  0  0  0
    2.4830   -0.0450    5.1710 H   0  0  0  0  0  0  0  0  0  0  0  0
    2.9390    0.5280    3.5690 H   0  0  0  0  0  0  0  0  0  0  0  0
    2.0110   -2.9690    2.7250 H   0  0  0  0  0  0  0  0  0  0  0  0
    4.1910   -4.3900    2.7610 H   0  0  0  0  0  0  0  0  0  0  0  0
    6.0600   -3.1490    3.9410 H   0  0  0  0  0  0  0  0  0  0  0  0
   -0.1830   -0.8910    1.5150 N   0  0  0  0  0  0  0  0  0  0  0  0
   -0.4370   -0.8190    0.0990 C   0  0  1  0  0  0  0  0  0  0  0  0
   -0.1630    0.5370   -0.5250 C   0  0  0  0  0  0  0  0  0  0  0  0
   -1.0790    1.5240    0.1040 C   0  0  0  0  0  0  0  0  0  0  0  0
   -0.8930    2.4970    1.0460 C   0  0  0  0  0  0  0  0  0  0  0  0
   -2.0580    3.1420    1.2870 N   0  0  0  0  0  0  0  0  0  0  0  0
   -3.0330    2.6250    0.5260 C   0  0  0  0  0  0  0  0  0  0  0  0
   -4.3730    2.9610    0.4280 C   0  0  0  0  0  0  0  0  0  0  0  0
   -5.1840    2.2740   -0.4480 C   0  0  0  0  0  0  0  0  0  0  0  0
   -4.6150    1.2680   -1.1970 C   0  0  0  0  0  0  0  0  0  0  0  0
   -3.2660    0.9400   -1.0890 C   0  0  0  0  0  0  0  0  0  0  0  0
   -2.4490    1.6210   -0.2150 C   0  0  0  0  0  0  0  0  0  0  0  0
    0.0130   -1.9620   -0.6760 C   0  0  0  0  0  0  0  0  0  0  0  0
    0.5950   -2.9170   -0.0630 O   0  0  0  0  0  0  0  0  0  0  0  0
   -0.7900   -1.5160    2.1430 H   0  0  0  0  0  0  0  0  0  0  0  0
   -1.5980   -0.8200    0.0580 H   0  0  0  0  0  0  0  0  0  0  0  0
    0.8670    0.8560   -0.5280 H   0  0  0  0  0  0  0  0  0  0  0  0
   -0.4690    0.4400   -1.5960 H   0  0  0  0  0  0  0  0  0  0  0  0
    0.0660    2.7240    1.5280 H   0  0  0  0  0  0  0  0  0  0  0  0
   -2.1430    3.9190    1.9710 H   0  0  0  0  0  0  0  0  0  0  0  0
   -4.8190    3.7500    1.0150 H   0  0  0  0  0  0  0  0  0  0  0  0
   -6.2490    2.5100   -0.5540 H   0  0  0  0  0  0  0  0  0  0  0  0
   -5.2380    0.7220   -1.8870 H   0  0  0  0  0  0  0  0  0  0  0  0
   -2.8280    0.1530   -1.6880 H   0  0  0  0  0  0  0  0  0  0  0  0
   -0.9190   -3.9870   -3.3190 C   0  0  0  0  0  0  0  0  0  0  0  0
    0.3370   -3.2880   -2.7930 C   0  0  2  0  0  0  0  0  0  0  0  0
   -0.1440   -2.1040   -2.0790 N   0  0  0  0  0  0  0  0  0  0  0  0
    1.1500   -2.9200   -3.9600 C   0  0  0  0  0  0  0  0  0  0  0  0
    1.6380   -3.8200   -4.6810 O   0  0  0  0  0  0  0  0  0  0  0  0
    1.3620   -1.5820   -4.2410 O   0  0  0  0  0  0  0  0  0  0  0  0
   -1.2900   -3.4970   -4.2450 H   0  0  0  0  0  0  0  0  0  0  0  0
   -0.7150   -5.0580   -3.5290 H   0  0  0  0  0  0  0  0  0  0  0  0
   -1.6760   -3.9220   -2.5140 H   0  0  0  0  0  0  0  0  0  0  0  0
    0.8150   -4.0030   -2.1050 H   0  0  0  0  0  0  0  0  0  0  0  0
   -0.6200   -1.3250   -2.5830 H   0  0  0  0  0  0  0  0  0  0  0  0
  1 11  1  0  0  0  0
  2 13  1  1  0  0  0
  2  3  1  0  0  0  0
  2  1  1  0  0  0  0
  3 14  1  0  0  0  0
  4  3  1  0  0  0  0
  4  8  1  0  0  0  0
  5  6  1  0  0  0  0
  5  4  2  0  0  0  0
  6  7  1  0  0  0  0
  7 18  1  0  0  0  0
  7  8  2  0  0  0  0
  9  2  1  0  0  0  0
 10  9  2  0  0  0  0
 12  1  1  0  0  0  0
 15  3  1  0  0  0  0
 16  5  1  0  0  0  0
 17  6  1  0  0  0  0
 19 33  1  0  0  0  0
 19  9  1  0  0  0  0
 20 34  1  6  0  0  0
 20 19  1  0  0  0  0
 21 20  1  0  0  0  0
 21 22  1  0  0  0  0
 22 23  2  0  0  0  0
 23 24  1  0  0  0  0
 23 37  1  0  0  0  0
 24 38  1  0  0  0  0
 25 24  1  0  0  0  0
 26 25  1  0  0  0  0
 26 39  1  0  0  0  0
 27 26  2  0  0  0  0
 28 29  2  0  0  0  0
 28 27  1  0  0  0  0
 29 30  1  0  0  0  0
 30 22  1  0  0  0  0
 30 25  2  0  0  0  0
 31 32  2  0  0  0  0
 31 20  1  0  0  0  0
 35 21  1  0  0  0  0
 36 21  1  0  0  0  0
 40 27  1  0  0  0  0
 41 28  1  0  0  0  0
 42 29  1  0  0  0  0
 43 44  1  0  0  0  0
 43 51  1  0  0  0  0
 44 52  1  1  0  0  0
 44 45  1  0  0  0  0
 45 31  1  0  0  0  0
 46 44  1  0  0  0  0
 47 46  2  0  0  0  0
 48 46  1  0  0  0  0
 49 43  1  0  0  0  0
 50 43  1  0  0  0  0
 53 45  1  0  0  0  0
M  END
$$$$
