HWC.pdb
 OpenBabel07022418383D

 54 56  0  0  1  0  0  0  0  0999 V2000
    2.8960   -1.7480    0.5770 N   0  0  0  0  0  0  0  0  0  0  0  0
    1.9400   -1.6480    1.6670 C   0  0  1  0  0  0  0  0  0  0  0  0
    2.4350   -0.6920    2.7360 C   0  0  0  0  0  0  0  0  0  0  0  0
    1.4780   -0.5690    3.8610 C   0  0  0  0  0  0  0  0  0  0  0  0
    1.4530   -1.3520    5.0100 C   0  0  0  0  0  0  0  0  0  0  0  0
    0.4580   -0.9530    5.7970 N   0  0  0  0  0  0  0  0  0  0  0  0
   -0.1600    0.0780    5.1690 C   0  0  0  0  0  0  0  0  0  0  0  0
    0.4580    0.3070    4.0000 N   0  0  0  0  0  0  0  0  0  0  0  0
    0.6170   -1.2680    1.1190 C   0  0  0  0  0  0  0  0  0  0  0  0
   -0.3440   -1.1580    1.9170 O   0  0  0  0  0  0  0  0  0  0  0  0
    2.5270   -2.4610   -0.0850 H   0  0  0  0  0  0  0  0  0  0  0  0
    3.8170   -2.0580    0.9570 H   0  0  0  0  0  0  0  0  0  0  0  0
    1.8110   -2.6390    2.1650 H   0  0  0  0  0  0  0  0  0  0  0  0
    2.6780    0.3060    2.3400 H   0  0  0  0  0  0  0  0  0  0  0  0
    3.3840   -1.1310    3.1200 H   0  0  0  0  0  0  0  0  0  0  0  0
    2.1390   -2.1500    5.2160 H   0  0  0  0  0  0  0  0  0  0  0  0
    0.1310   -1.2940    6.7270 H   0  0  0  0  0  0  0  0  0  0  0  0
   -1.0180    0.6510    5.5180 H   0  0  0  0  0  0  0  0  0  0  0  0
    0.3680   -1.0220   -0.2410 N   0  0  0  0  0  0  0  0  0  0  0  0
   -0.9620   -0.6480   -0.7300 C   0  0  1  0  0  0  0  0  0  0  0  0
   -0.9090    0.7760   -1.3080 C   0  0  0  0  0  0  0  0  0  0  0  0
   -0.4880    1.7420   -0.2620 C   0  0  0  0  0  0  0  0  0  0  0  0
    0.7130    2.3530   -0.0560 C   0  0  0  0  0  0  0  0  0  0  0  0
    0.5970    3.1380    1.0260 N   0  0  0  0  0  0  0  0  0  0  0  0
   -0.6520    3.0650    1.5450 C   0  0  0  0  0  0  0  0  0  0  0  0
   -1.2370    3.6860    2.6420 C   0  0  0  0  0  0  0  0  0  0  0  0
   -2.5550    3.4150    2.9360 C   0  0  0  0  0  0  0  0  0  0  0  0
   -3.2330    2.5340    2.1200 C   0  0  0  0  0  0  0  0  0  0  0  0
   -2.6760    1.9060    1.0290 C   0  0  0  0  0  0  0  0  0  0  0  0
   -1.3370    2.1850    0.7340 C   0  0  0  0  0  0  0  0  0  0  0  0
   -1.3570   -1.5810   -1.8180 C   0  0  0  0  0  0  0  0  0  0  0  0
   -2.4730   -1.4250   -2.3580 O   0  0  0  0  0  0  0  0  0  0  0  0
    1.1600   -1.1100   -0.9120 H   0  0  0  0  0  0  0  0  0  0  0  0
   -1.6920   -0.6140    0.0990 H   0  0  0  0  0  0  0  0  0  0  0  0
   -1.9080    1.0760   -1.6770 H   0  0  0  0  0  0  0  0  0  0  0  0
   -0.2180    0.7770   -2.1580 H   0  0  0  0  0  0  0  0  0  0  0  0
    1.5860    2.2090   -0.6730 H   0  0  0  0  0  0  0  0  0  0  0  0
    1.3340    3.7560    1.4680 H   0  0  0  0  0  0  0  0  0  0  0  0
   -0.6910    4.3730    3.2700 H   0  0  0  0  0  0  0  0  0  0  0  0
   -3.0570    3.8840    3.7940 H   0  0  0  0  0  0  0  0  0  0  0  0
   -4.2710    2.3390    2.3760 H   0  0  0  0  0  0  0  0  0  0  0  0
   -3.2020    1.2180    0.3880 H   0  0  0  0  0  0  0  0  0  0  0  0
   -0.5420   -2.6400   -2.2830 N   0  0  0  0  0  0  0  0  0  0  0  0
   -0.8930   -3.5540   -3.3270 C   0  0  1  0  0  0  0  0  0  0  0  0
   -0.0170   -3.4230   -4.5510 C   0  0  0  0  0  0  0  0  0  0  0  0
    1.7240   -3.7370   -4.1430 S   0  0  0  0  0  0  0  0  0  0  0  0
   -0.9400   -4.9160   -2.8030 C   0  0  0  0  0  0  0  0  0  0  0  0
   -1.2250   -5.9300   -3.5010 O   0  0  0  0  0  0  0  0  0  0  0  0
   -0.6650   -5.1510   -1.4680 O   0  0  0  0  0  0  0  0  0  0  0  0
    0.3890   -2.7610   -1.8260 H   0  0  0  0  0  0  0  0  0  0  0  0
   -1.9290   -3.2590   -3.6690 H   0  0  0  0  0  0  0  0  0  0  0  0
   -0.1690   -2.4700   -5.0790 H   0  0  0  0  0  0  0  0  0  0  0  0
   -0.3130   -4.2240   -5.2720 H   0  0  0  0  0  0  0  0  0  0  0  0
    1.9360   -5.1320   -4.0270 H   0  0  0  0  0  0  0  0  0  0  0  0
  1 12  1  0  0  0  0
  1  2  1  0  0  0  0
  2 13  1  1  0  0  0
  2  3  1  0  0  0  0
  3 15  1  0  0  0  0
  3  4  1  0  0  0  0
  4  8  1  0  0  0  0
  4  5  2  0  0  0  0
  5 16  1  0  0  0  0
  5  6  1  0  0  0  0
  6 17  1  0  0  0  0
  7 18  1  0  0  0  0
  7  6  1  0  0  0  0
  8  7  2  0  0  0  0
  9  2  1  0  0  0  0
  9 10  2  0  0  0  0
 11  1  1  0  0  0  0
 14  3  1  0  0  0  0
 19  9  1  0  0  0  0
 20 19  1  0  0  0  0
 20 34  1  1  0  0  0
 21 20  1  0  0  0  0
 21 22  1  0  0  0  0
 22 23  2  0  0  0  0
 22 30  1  0  0  0  0
 23 24  1  0  0  0  0
 24 38  1  0  0  0  0
 24 25  1  0  0  0  0
 25 26  1  0  0  0  0
 26 27  2  0  0  0  0
 26 39  1  0  0  0  0
 27 40  1  0  0  0  0
 28 41  1  0  0  0  0
 28 27  1  0  0  0  0
 29 28  2  0  0  0  0
 30 29  1  0  0  0  0
 30 25  2  0  0  0  0
 31 20  1  0  0  0  0
 32 31  2  0  0  0  0
 33 19  1  0  0  0  0
 35 21  1  0  0  0  0
 36 21  1  0  0  0  0
 37 23  1  0  0  0  0
 42 29  1  0  0  0  0
 43 50  1  0  0  0  0
 43 31  1  0  0  0  0
 44 51  1  6  0  0  0
 44 47  1  0  0  0  0
 44 43  1  0  0  0  0
 45 46  1  0  0  0  0
 45 44  1  0  0  0  0
 46 54  1  0  0  0  0
 47 49  1  0  0  0  0
 48 47  2  0  0  0  0
 52 45  1  0  0  0  0
 53 45  1  0  0  0  0
M  END
$$$$
