HWD.pdb
 OpenBabel07022418383D

 56 58  0  0  1  0  0  0  0  0999 V2000
    3.1180   -1.1330    1.7340 N   0  0  0  0  0  0  0  0  0  0  0  0
    2.2710   -1.8220    2.6720 C   0  0  1  0  0  0  0  0  0  0  0  0
    2.6130   -1.4040    4.0700 C   0  0  0  0  0  0  0  0  0  0  0  0
    4.0280   -1.7230    4.3850 C   0  0  0  0  0  0  0  0  0  0  0  0
    5.0750   -0.8360    4.1500 C   0  0  0  0  0  0  0  0  0  0  0  0
    6.2030   -1.4350    4.5440 N   0  0  0  0  0  0  0  0  0  0  0  0
    5.9080   -2.6670    5.0190 C   0  0  0  0  0  0  0  0  0  0  0  0
    4.5800   -2.8170    4.9110 N   0  0  0  0  0  0  0  0  0  0  0  0
    0.8270   -1.5880    2.3960 C   0  0  0  0  0  0  0  0  0  0  0  0
   -0.0650   -2.0440    3.1540 O   0  0  0  0  0  0  0  0  0  0  0  0
    3.0550   -0.0900    1.9120 H   0  0  0  0  0  0  0  0  0  0  0  0
    4.1040   -1.4510    1.9220 H   0  0  0  0  0  0  0  0  0  0  0  0
    2.4400   -2.9180    2.5880 H   0  0  0  0  0  0  0  0  0  0  0  0
    1.9080   -1.9090    4.7630 H   0  0  0  0  0  0  0  0  0  0  0  0
    2.4580   -0.3140    4.1570 H   0  0  0  0  0  0  0  0  0  0  0  0
    4.9780    0.1680    3.7200 H   0  0  0  0  0  0  0  0  0  0  0  0
    7.1890   -1.0520    4.5110 H   0  0  0  0  0  0  0  0  0  0  0  0
    6.6400   -3.3710    5.4060 H   0  0  0  0  0  0  0  0  0  0  0  0
    0.3710   -0.8480    1.2810 N   0  0  0  0  0  0  0  0  0  0  0  0
   -1.0470   -0.6000    0.9890 C   0  0  1  0  0  0  0  0  0  0  0  0
   -1.3560    0.8610    1.1870 C   0  0  0  0  0  0  0  0  0  0  0  0
   -2.7390    1.2470    0.9010 C   0  0  0  0  0  0  0  0  0  0  0  0
   -3.7940    1.2940    1.8100 C   0  0  0  0  0  0  0  0  0  0  0  0
   -4.9130    1.6520    1.1700 N   0  0  0  0  0  0  0  0  0  0  0  0
   -4.6630    1.8540   -0.1510 C   0  0  0  0  0  0  0  0  0  0  0  0
   -5.4640    2.2410   -1.2020 C   0  0  0  0  0  0  0  0  0  0  0  0
   -4.9050    2.3810   -2.4440 C   0  0  0  0  0  0  0  0  0  0  0  0
   -3.5520    2.1310   -2.6080 C   0  0  0  0  0  0  0  0  0  0  0  0
   -2.7370    1.7430   -1.5750 C   0  0  0  0  0  0  0  0  0  0  0  0
   -3.2930    1.5970   -0.3100 C   0  0  0  0  0  0  0  0  0  0  0  0
   -1.4820   -1.2090   -0.2560 C   0  0  0  0  0  0  0  0  0  0  0  0
   -2.6950   -1.1850   -0.5680 O   0  0  0  0  0  0  0  0  0  0  0  0
    1.0470   -0.4400    0.6060 H   0  0  0  0  0  0  0  0  0  0  0  0
   -1.5720   -1.1040    1.8750 H   0  0  0  0  0  0  0  0  0  0  0  0
   -1.1920    1.0690    2.2800 H   0  0  0  0  0  0  0  0  0  0  0  0
   -0.6670    1.5110    0.5910 H   0  0  0  0  0  0  0  0  0  0  0  0
   -3.7120    1.0720    2.8820 H   0  0  0  0  0  0  0  0  0  0  0  0
   -5.8690    1.7760    1.5710 H   0  0  0  0  0  0  0  0  0  0  0  0
   -6.5060    2.4260   -1.0310 H   0  0  0  0  0  0  0  0  0  0  0  0
   -5.4750    2.6860   -3.3220 H   0  0  0  0  0  0  0  0  0  0  0  0
   -3.0780    2.2350   -3.5870 H   0  0  0  0  0  0  0  0  0  0  0  0
   -1.6700    1.5410   -1.6840 H   0  0  0  0  0  0  0  0  0  0  0  0
   -0.5880   -1.8470   -1.1650 N   0  0  0  0  0  0  0  0  0  0  0  0
   -1.0190   -2.4510   -2.3960 C   0  0  1  0  0  0  0  0  0  0  0  0
   -0.4240   -1.8670   -3.6290 C   0  0  0  0  0  0  0  0  0  0  0  0
    1.0280   -1.9410   -3.7160 C   0  0  0  0  0  0  0  0  0  0  0  0
    1.7490   -2.4500   -2.8250 O   0  0  0  0  0  0  0  0  0  0  0  0
   -0.9010   -3.9440   -2.3540 C   0  0  0  0  0  0  0  0  0  0  0  0
   -0.4610   -4.5420   -1.3360 O   0  0  0  0  0  0  0  0  0  0  0  0
    1.6680   -1.4290   -4.8340 O   0  0  0  0  0  0  0  0  0  0  0  0
   -1.2630   -4.7470   -3.4230 O   0  0  0  0  0  0  0  0  0  0  0  0
    0.4230   -1.8480   -0.8760 H   0  0  0  0  0  0  0  0  0  0  0  0
   -2.1330   -2.2750   -2.4760 H   0  0  0  0  0  0  0  0  0  0  0  0
   -0.8380   -2.4530   -4.4900 H   0  0  0  0  0  0  0  0  0  0  0  0
   -0.8410   -0.8290   -3.7550 H   0  0  0  0  0  0  0  0  0  0  0  0
    2.6020   -1.6400   -5.1140 H   0  0  0  0  0  0  0  0  0  0  0  0
  1 11  1  0  0  0  0
  1 12  1  0  0  0  0
  1  2  1  0  0  0  0
  2 13  1  6  0  0  0
  2  3  1  0  0  0  0
  3 15  1  0  0  0  0
  3  4  1  0  0  0  0
  3 14  1  0  0  0  0
  4  8  1  0  0  0  0
  5  4  2  0  0  0  0
  5  6  1  0  0  0  0
  6  7  1  0  0  0  0
  7 18  1  0  0  0  0
  8  7  2  0  0  0  0
  9  2  1  0  0  0  0
  9 10  2  0  0  0  0
 16  5  1  0  0  0  0
 17  6  1  0  0  0  0
 19  9  1  0  0  0  0
 20 21  1  0  0  0  0
 20 19  1  0  0  0  0
 20 34  1  1  0  0  0
 21 35  1  0  0  0  0
 22 21  1  0  0  0  0
 22 23  2  0  0  0  0
 23 37  1  0  0  0  0
 24 38  1  0  0  0  0
 24 23  1  0  0  0  0
 25 24  1  0  0  0  0
 26 39  1  0  0  0  0
 26 25  2  0  0  0  0
 27 26  1  0  0  0  0
 28 27  2  0  0  0  0
 28 29  1  0  0  0  0
 29 30  2  0  0  0  0
 30 25  1  0  0  0  0
 30 22  1  0  0  0  0
 31 20  1  0  0  0  0
 32 31  2  0  0  0  0
 33 19  1  0  0  0  0
 36 21  1  0  0  0  0
 40 27  1  0  0  0  0
 41 28  1  0  0  0  0
 42 29  1  0  0  0  0
 43 52  1  0  0  0  0
 43 31  1  0  0  0  0
 44 53  1  6  0  0  0
 44 48  1  0  0  0  0
 44 43  1  0  0  0  0
 45 44  1  0  0  0  0
 46 45  1  0  0  0  0
 46 47  2  0  0  0  0
 48 49  1  0  0  0  0
 50 46  1  0  0  0  0
 51 48  2  0  0  0  0
 54 45  1  0  0  0  0
 55 45  1  0  0  0  0
 56 50  1  0  0  0  0
M  END
$$$$
