HWE.pdb
 OpenBabel07022418383D

 59 61  0  0  1  0  0  0  0  0999 V2000
    3.2680    0.7990    1.5920 N   0  0  0  0  0  0  0  0  0  0  0  0
    2.7130   -0.4250    2.0910 C   0  0  1  0  0  0  0  0  0  0  0  0
    2.3860   -0.1860    3.5680 C   0  0  0  0  0  0  0  0  0  0  0  0
    3.6430    0.1620    4.2710 C   0  0  0  0  0  0  0  0  0  0  0  0
    4.1960    1.4050    4.4670 C   0  0  0  0  0  0  0  0  0  0  0  0
    5.3370    1.2720    5.1510 N   0  0  0  0  0  0  0  0  0  0  0  0
    5.5240   -0.0340    5.3980 C   0  0  0  0  0  0  0  0  0  0  0  0
    4.5000   -0.7110    4.8660 N   0  0  0  0  0  0  0  0  0  0  0  0
    1.5170   -0.8160    1.3260 C   0  0  0  0  0  0  0  0  0  0  0  0
    0.8840   -1.8850    1.5560 O   0  0  0  0  0  0  0  0  0  0  0  0
    4.2010    1.0000    2.0390 H   0  0  0  0  0  0  0  0  0  0  0  0
    3.4920    0.7470    0.5620 H   0  0  0  0  0  0  0  0  0  0  0  0
    3.4920   -1.2400    2.1120 H   0  0  0  0  0  0  0  0  0  0  0  0
    2.0050   -1.1240    4.0410 H   0  0  0  0  0  0  0  0  0  0  0  0
    1.6640    0.6250    3.6980 H   0  0  0  0  0  0  0  0  0  0  0  0
    3.7900    2.3540    4.1300 H   0  0  0  0  0  0  0  0  0  0  0  0
    6.0110    2.0300    5.4690 H   0  0  0  0  0  0  0  0  0  0  0  0
    6.3460   -0.5040    5.9300 H   0  0  0  0  0  0  0  0  0  0  0  0
    1.0040    0.0030    0.2700 N   0  0  0  0  0  0  0  0  0  0  0  0
   -0.1670   -0.3670   -0.4900 C   0  0  1  0  0  0  0  0  0  0  0  0
   -1.3400    0.5570   -0.1750 C   0  0  0  0  0  0  0  0  0  0  0  0
   -1.6260    0.4300    1.2800 C   0  0  0  0  0  0  0  0  0  0  0  0
   -1.3230    1.2840    2.3190 C   0  0  0  0  0  0  0  0  0  0  0  0
   -1.7800    0.7470    3.4750 N   0  0  0  0  0  0  0  0  0  0  0  0
   -2.3740   -0.4330    3.2350 C   0  0  0  0  0  0  0  0  0  0  0  0
   -2.9770   -1.3230    4.0990 C   0  0  0  0  0  0  0  0  0  0  0  0
   -3.5140   -2.4780    3.5530 C   0  0  0  0  0  0  0  0  0  0  0  0
   -3.4320   -2.6980    2.2030 C   0  0  0  0  0  0  0  0  0  0  0  0
   -2.8220   -1.7900    1.3490 C   0  0  0  0  0  0  0  0  0  0  0  0
   -2.2890   -0.6480    1.8770 C   0  0  0  0  0  0  0  0  0  0  0  0
    0.1010   -0.4270   -1.9430 C   0  0  0  0  0  0  0  0  0  0  0  0
    1.2100   -0.1750   -2.4790 O   0  0  0  0  0  0  0  0  0  0  0  0
    1.5170    0.8900    0.0720 H   0  0  0  0  0  0  0  0  0  0  0  0
   -0.4940   -1.3630   -0.1070 H   0  0  0  0  0  0  0  0  0  0  0  0
   -1.0780    1.6230   -0.3660 H   0  0  0  0  0  0  0  0  0  0  0  0
   -2.2040    0.2200   -0.7770 H   0  0  0  0  0  0  0  0  0  0  0  0
   -0.8060    2.2150    2.1830 H   0  0  0  0  0  0  0  0  0  0  0  0
   -1.6790    1.1920    4.4030 H   0  0  0  0  0  0  0  0  0  0  0  0
   -3.0530   -1.1710    5.1670 H   0  0  0  0  0  0  0  0  0  0  0  0
   -4.0070   -3.2340    4.1640 H   0  0  0  0  0  0  0  0  0  0  0  0
   -3.8390   -3.5940    1.7150 H   0  0  0  0  0  0  0  0  0  0  0  0
   -2.7690   -1.9830    0.2780 H   0  0  0  0  0  0  0  0  0  0  0  0
   -0.9790   -0.8000   -2.8220 N   0  0  0  0  0  0  0  0  0  0  0  0
   -0.7430   -0.8640   -4.2310 C   0  0  1  0  0  0  0  0  0  0  0  0
   -0.5670   -2.2410   -4.7540 C   0  0  0  0  0  0  0  0  0  0  0  0
   -1.6530   -3.2210   -4.5690 C   0  0  0  0  0  0  0  0  0  0  0  0
   -1.9180   -3.6380   -3.1850 C   0  0  0  0  0  0  0  0  0  0  0  0
   -1.1150   -3.4060   -2.2600 O   0  0  0  0  0  0  0  0  0  0  0  0
   -1.8550   -0.1880   -4.9710 C   0  0  0  0  0  0  0  0  0  0  0  0
   -1.8140   -0.1480   -6.2240 O   0  0  0  0  0  0  0  0  0  0  0  0
   -3.0890   -4.3130   -2.8720 O   0  0  0  0  0  0  0  0  0  0  0  0
   -2.9360    0.4010   -4.3250 O   0  0  0  0  0  0  0  0  0  0  0  0
   -1.9380   -0.9860   -2.3940 H   0  0  0  0  0  0  0  0  0  0  0  0
    0.1960   -0.2710   -4.4730 H   0  0  0  0  0  0  0  0  0  0  0  0
   -0.2260   -2.2560   -5.8240 H   0  0  0  0  0  0  0  0  0  0  0  0
    0.3390   -2.6670   -4.2060 H   0  0  0  0  0  0  0  0  0  0  0  0
   -1.3770   -4.1210   -5.2130 H   0  0  0  0  0  0  0  0  0  0  0  0
   -2.6050   -2.8690   -5.0640 H   0  0  0  0  0  0  0  0  0  0  0  0
   -3.1240   -5.0460   -2.1720 H   0  0  0  0  0  0  0  0  0  0  0  0
  1 11  1  0  0  0  0
  1  2  1  0  0  0  0
  2 13  1  6  0  0  0
  2  3  1  0  0  0  0
  3 15  1  0  0  0  0
  3 14  1  0  0  0  0
  3  4  1  0  0  0  0
  4  5  2  0  0  0  0
  4  8  1  0  0  0  0
  5  6  1  0  0  0  0
  6  7  1  0  0  0  0
  6 17  1  0  0  0  0
  7 18  1  0  0  0  0
  8  7  2  0  0  0  0
  9 10  2  0  0  0  0
  9  2  1  0  0  0  0
 12  1  1  0  0  0  0
 16  5  1  0  0  0  0
 19  9  1  0  0  0  0
 20 21  1  0  0  0  0
 20 34  1  1  0  0  0
 20 19  1  0  0  0  0
 21 22  1  0  0  0  0
 22 30  1  0  0  0  0
 22 23  2  0  0  0  0
 23 24  1  0  0  0  0
 24 38  1  0  0  0  0
 25 24  1  0  0  0  0
 25 26  1  0  0  0  0
 26 39  1  0  0  0  0
 27 26  2  0  0  0  0
 27 40  1  0  0  0  0
 28 27  1  0  0  0  0
 29 30  1  0  0  0  0
 29 28  2  0  0  0  0
 30 25  2  0  0  0  0
 31 20  1  0  0  0  0
 32 31  2  0  0  0  0
 33 19  1  0  0  0  0
 35 21  1  0  0  0  0
 36 21  1  0  0  0  0
 37 23  1  0  0  0  0
 41 28  1  0  0  0  0
 42 29  1  0  0  0  0
 43 53  1  0  0  0  0
 43 31  1  0  0  0  0
 44 54  1  6  0  0  0
 44 43  1  0  0  0  0
 45 46  1  0  0  0  0
 45 44  1  0  0  0  0
 45 56  1  0  0  0  0
 46 47  1  0  0  0  0
 47 51  1  0  0  0  0
 47 48  2  0  0  0  0
 49 52  1  0  0  0  0
 49 44  1  0  0  0  0
 50 49  2  0  0  0  0
 51 59  1  0  0  0  0
 55 45  1  0  0  0  0
 57 46  1  0  0  0  0
 58 46  1  0  0  0  0
M  END
$$$$
