HWI.pdb
 OpenBabel07022418393D

 62 64  0  0  1  0  0  0  0  0999 V2000
    3.9750    1.6940    1.9410 N   0  0  0  0  0  0  0  0  0  0  0  0
    3.2780    0.4520    1.8000 C   0  0  1  0  0  0  0  0  0  0  0  0
    2.8490   -0.1300    3.1290 C   0  0  0  0  0  0  0  0  0  0  0  0
    3.9790   -0.3990    4.0180 C   0  0  0  0  0  0  0  0  0  0  0  0
    4.5330    0.4580    4.9390 C   0  0  0  0  0  0  0  0  0  0  0  0
    5.5620   -0.1890    5.5540 N   0  0  0  0  0  0  0  0  0  0  0  0
    5.6320   -1.4110    5.0190 C   0  0  0  0  0  0  0  0  0  0  0  0
    4.6700   -1.5510    4.0800 N   0  0  0  0  0  0  0  0  0  0  0  0
    2.0230    0.6280    0.9650 C   0  0  0  0  0  0  0  0  0  0  0  0
    1.7160    1.7590    0.5280 O   0  0  0  0  0  0  0  0  0  0  0  0
    3.2820    2.4380    2.1460 H   0  0  0  0  0  0  0  0  0  0  0  0
    4.4630    1.8840    1.0270 H   0  0  0  0  0  0  0  0  0  0  0  0
    3.8780   -0.3190    1.2800 H   0  0  0  0  0  0  0  0  0  0  0  0
    2.2210   -1.0170    2.9350 H   0  0  0  0  0  0  0  0  0  0  0  0
    2.1560    0.6280    3.5900 H   0  0  0  0  0  0  0  0  0  0  0  0
    4.2600    1.4740    5.1900 H   0  0  0  0  0  0  0  0  0  0  0  0
    6.1890    0.1610    6.2930 H   0  0  0  0  0  0  0  0  0  0  0  0
    6.3280   -2.1920    5.2670 H   0  0  0  0  0  0  0  0  0  0  0  0
    1.1920   -0.4740    0.6720 N   0  0  0  0  0  0  0  0  0  0  0  0
   -0.0240   -0.4380   -0.0850 C   0  0  1  0  0  0  0  0  0  0  0  0
   -0.8360    0.8380    0.0390 C   0  0  0  0  0  0  0  0  0  0  0  0
   -1.2950    1.0890    1.4220 C   0  0  0  0  0  0  0  0  0  0  0  0
   -0.8820    1.9550    2.3940 C   0  0  0  0  0  0  0  0  0  0  0  0
   -1.6420    1.8000    3.5130 N   0  0  0  0  0  0  0  0  0  0  0  0
   -2.5720    0.8280    3.3000 C   0  0  0  0  0  0  0  0  0  0  0  0
   -3.5610    0.3180    4.1240 C   0  0  0  0  0  0  0  0  0  0  0  0
   -4.3790   -0.6750    3.6430 C   0  0  0  0  0  0  0  0  0  0  0  0
   -4.1980   -1.1400    2.3580 C   0  0  0  0  0  0  0  0  0  0  0  0
   -3.2060   -0.6150    1.5600 C   0  0  0  0  0  0  0  0  0  0  0  0
   -2.3600    0.3880    2.0110 C   0  0  0  0  0  0  0  0  0  0  0  0
    0.0630   -0.9850   -1.4280 C   0  0  0  0  0  0  0  0  0  0  0  0
    1.1880   -1.4280   -1.8200 O   0  0  0  0  0  0  0  0  0  0  0  0
    1.5310   -1.4250    1.0690 H   0  0  0  0  0  0  0  0  0  0  0  0
   -0.7060   -1.1720    0.5140 H   0  0  0  0  0  0  0  0  0  0  0  0
   -1.7840    0.7500   -0.5630 H   0  0  0  0  0  0  0  0  0  0  0  0
   -0.3420    1.7310   -0.3770 H   0  0  0  0  0  0  0  0  0  0  0  0
   -0.0670    2.6680    2.2780 H   0  0  0  0  0  0  0  0  0  0  0  0
   -1.5200    2.3450    4.3860 H   0  0  0  0  0  0  0  0  0  0  0  0
   -3.6670    0.7080    5.1150 H   0  0  0  0  0  0  0  0  0  0  0  0
   -5.1800   -1.1080    4.2670 H   0  0  0  0  0  0  0  0  0  0  0  0
   -4.8300   -1.9230    1.9530 H   0  0  0  0  0  0  0  0  0  0  0  0
   -3.0460   -0.9600    0.5390 H   0  0  0  0  0  0  0  0  0  0  0  0
   -3.5880   -2.6310   -2.4840 C   0  0  0  0  0  0  0  0  0  0  0  0
   -3.0660   -2.7360   -3.8780 C   0  0  0  0  0  0  0  0  0  0  0  0
   -1.5730   -2.8690   -3.9520 C   0  0  2  0  0  0  0  0  0  0  0  0
   -1.1170   -4.0920   -3.2060 C   0  0  0  0  0  0  0  0  0  0  0  0
   -0.8150   -1.6230   -3.6420 C   0  0  2  0  0  0  0  0  0  0  0  0
   -1.0170   -1.0670   -2.3460 N   0  0  0  0  0  0  0  0  0  0  0  0
   -1.1990   -0.5920   -4.6560 C   0  0  0  0  0  0  0  0  0  0  0  0
   -1.6180    0.5450   -4.3050 O   0  0  0  0  0  0  0  0  0  0  0  0
   -1.1040   -0.8550   -6.0140 O   0  0  0  0  0  0  0  0  0  0  0  0
   -4.0630   -1.6400   -2.3410 H   0  0  0  0  0  0  0  0  0  0  0  0
   -2.8190   -2.8630   -1.7260 H   0  0  0  0  0  0  0  0  0  0  0  0
   -4.4230   -3.3650   -2.3310 H   0  0  0  0  0  0  0  0  0  0  0  0
   -3.4370   -1.8940   -4.5320 H   0  0  0  0  0  0  0  0  0  0  0  0
   -3.5360   -3.6450   -4.3590 H   0  0  0  0  0  0  0  0  0  0  0  0
   -1.3620   -3.1040   -5.0530 H   0  0  0  0  0  0  0  0  0  0  0  0
   -0.0800   -4.3390   -3.5540 H   0  0  0  0  0  0  0  0  0  0  0  0
   -1.7470   -4.9380   -3.5510 H   0  0  0  0  0  0  0  0  0  0  0  0
   -1.1860   -4.0170   -2.1200 H   0  0  0  0  0  0  0  0  0  0  0  0
    0.2680   -1.8500   -3.8380 H   0  0  0  0  0  0  0  0  0  0  0  0
   -1.9200   -0.6910   -1.9990 H   0  0  0  0  0  0  0  0  0  0  0  0
  1 11  1  0  0  0  0
  2 13  1  6  0  0  0
  2  1  1  0  0  0  0
  2  3  1  0  0  0  0
  3 15  1  0  0  0  0
  3  4  1  0  0  0  0
  4  8  1  0  0  0  0
  4  5  2  0  0  0  0
  5 16  1  0  0  0  0
  5  6  1  0  0  0  0
  6 17  1  0  0  0  0
  7 18  1  0  0  0  0
  7  6  1  0  0  0  0
  8  7  2  0  0  0  0
  9  2  1  0  0  0  0
 10  9  2  0  0  0  0
 12  1  1  0  0  0  0
 14  3  1  0  0  0  0
 19  9  1  0  0  0  0
 19 33  1  0  0  0  0
 20 21  1  0  0  0  0
 20 34  1  1  0  0  0
 20 19  1  0  0  0  0
 21 22  1  0  0  0  0
 22 30  1  0  0  0  0
 22 23  2  0  0  0  0
 23 24  1  0  0  0  0
 24 38  1  0  0  0  0
 25 24  1  0  0  0  0
 25 26  1  0  0  0  0
 26 39  1  0  0  0  0
 27 26  2  0  0  0  0
 27 40  1  0  0  0  0
 28 27  1  0  0  0  0
 29 30  1  0  0  0  0
 29 28  2  0  0  0  0
 30 25  2  0  0  0  0
 31 20  1  0  0  0  0
 32 31  2  0  0  0  0
 35 21  1  0  0  0  0
 36 21  1  0  0  0  0
 37 23  1  0  0  0  0
 41 28  1  0  0  0  0
 42 29  1  0  0  0  0
 43 52  1  0  0  0  0
 43 54  1  0  0  0  0
 43 53  1  0  0  0  0
 44 43  1  0  0  0  0
 45 57  1  6  0  0  0
 45 44  1  0  0  0  0
 45 47  1  0  0  0  0
 45 46  1  0  0  0  0
 46 60  1  0  0  0  0
 47 61  1  6  0  0  0
 47 48  1  0  0  0  0
 48 62  1  0  0  0  0
 48 31  1  0  0  0  0
 49 50  1  0  0  0  0
 49 47  1  0  0  0  0
 51 49  2  0  0  0  0
 55 44  1  0  0  0  0
 56 44  1  0  0  0  0
 58 46  1  0  0  0  0
 59 46  1  0  0  0  0
M  END
$$$$
