HWL.pdb
 OpenBabel07022418393D

 62 64  0  0  1  0  0  0  0  0999 V2000
    3.4660    0.4060    1.8390 N   0  0  0  0  0  0  0  0  0  0  0  0
    2.6390   -0.6070    2.4030 C   0  0  1  0  0  0  0  0  0  0  0  0
    2.4630   -0.4970    3.9030 C   0  0  0  0  0  0  0  0  0  0  0  0
    3.7430   -0.5870    4.6400 C   0  0  0  0  0  0  0  0  0  0  0  0
    4.5470    0.4750    4.9730 C   0  0  0  0  0  0  0  0  0  0  0  0
    5.6080   -0.0140    5.6360 N   0  0  0  0  0  0  0  0  0  0  0  0
    5.4620   -1.3480    5.7100 C   0  0  0  0  0  0  0  0  0  0  0  0
    4.3240   -1.6930    5.1010 N   0  0  0  0  0  0  0  0  0  0  0  0
    1.3340   -0.7540    1.7340 C   0  0  0  0  0  0  0  0  0  0  0  0
    0.4850   -1.6000    2.1540 O   0  0  0  0  0  0  0  0  0  0  0  0
    4.4770    0.2210    1.8710 H   0  0  0  0  0  0  0  0  0  0  0  0
    3.1690    1.3340    2.1630 H   0  0  0  0  0  0  0  0  0  0  0  0
    3.1760   -1.5890    2.2440 H   0  0  0  0  0  0  0  0  0  0  0  0
    2.0150    0.5210    4.0910 H   0  0  0  0  0  0  0  0  0  0  0  0
    1.7000   -1.2180    4.2580 H   0  0  0  0  0  0  0  0  0  0  0  0
    4.3750    1.5320    4.7510 H   0  0  0  0  0  0  0  0  0  0  0  0
    6.4220    0.5300    6.0360 H   0  0  0  0  0  0  0  0  0  0  0  0
    6.1490   -2.0530    6.1840 H   0  0  0  0  0  0  0  0  0  0  0  0
    0.9050   -0.0030    0.6010 N   0  0  0  0  0  0  0  0  0  0  0  0
   -0.3770   -0.1750   -0.0210 C   0  0  1  0  0  0  0  0  0  0  0  0
   -1.2560    1.0720    0.1700 C   0  0  0  0  0  0  0  0  0  0  0  0
   -1.4620    1.3280    1.6220 C   0  0  0  0  0  0  0  0  0  0  0  0
   -0.8320    2.3210    2.3780 C   0  0  0  0  0  0  0  0  0  0  0  0
   -1.2600    2.2530    3.6460 N   0  0  0  0  0  0  0  0  0  0  0  0
   -2.1550    1.2600    3.7890 C   0  0  0  0  0  0  0  0  0  0  0  0
   -2.8780    0.7820    4.8610 C   0  0  0  0  0  0  0  0  0  0  0  0
   -3.7460   -0.2790    4.7180 C   0  0  0  0  0  0  0  0  0  0  0  0
   -3.8530   -0.8330    3.4570 C   0  0  0  0  0  0  0  0  0  0  0  0
   -3.1410   -0.3730    2.3730 C   0  0  0  0  0  0  0  0  0  0  0  0
   -2.2820    0.6810    2.5220 C   0  0  0  0  0  0  0  0  0  0  0  0
   -0.3240   -0.5900   -1.4200 C   0  0  0  0  0  0  0  0  0  0  0  0
    0.7630   -0.7720   -2.0180 O   0  0  0  0  0  0  0  0  0  0  0  0
    1.5830    0.7010    0.2290 H   0  0  0  0  0  0  0  0  0  0  0  0
   -0.9040   -0.9620    0.5660 H   0  0  0  0  0  0  0  0  0  0  0  0
   -2.2040    0.9820   -0.3490 H   0  0  0  0  0  0  0  0  0  0  0  0
   -0.6710    1.9090   -0.2500 H   0  0  0  0  0  0  0  0  0  0  0  0
   -0.1090    3.0480    2.0450 H   0  0  0  0  0  0  0  0  0  0  0  0
   -0.9580    2.8790    4.4470 H   0  0  0  0  0  0  0  0  0  0  0  0
   -2.7810    1.2270    5.8380 H   0  0  0  0  0  0  0  0  0  0  0  0
   -4.3300   -0.6740    5.5640 H   0  0  0  0  0  0  0  0  0  0  0  0
   -4.5300   -1.6760    3.3020 H   0  0  0  0  0  0  0  0  0  0  0  0
   -3.2280   -0.8100    1.3850 H   0  0  0  0  0  0  0  0  0  0  0  0
   -2.5470   -4.4460   -5.2570 C   0  0  0  0  0  0  0  0  0  0  0  0
   -1.9360   -3.0260   -5.2120 C   0  0  0  0  0  0  0  0  0  0  0  0
   -0.4870   -3.2230   -5.6590 C   0  0  0  0  0  0  0  0  0  0  0  0
   -2.0000   -2.5850   -3.7900 C   0  0  0  0  0  0  0  0  0  0  0  0
   -1.4300   -1.2310   -3.5970 C   0  0  2  0  0  0  0  0  0  0  0  0
   -1.4920   -0.8140   -2.1920 N   0  0  0  0  0  0  0  0  0  0  0  0
   -1.9940   -0.1640   -4.4590 C   0  0  0  0  0  0  0  0  0  0  0  0
   -2.0480   -0.1840   -5.7040 O   0  0  0  0  0  0  0  0  0  0  0  0
   -2.5220    0.9850   -3.8240 O   0  0  0  0  0  0  0  0  0  0  0  0
   -3.6310   -4.4050   -5.1640 H   0  0  0  0  0  0  0  0  0  0  0  0
   -2.1320   -4.9550   -4.3610 H   0  0  0  0  0  0  0  0  0  0  0  0
   -2.1990   -4.9780   -6.1730 H   0  0  0  0  0  0  0  0  0  0  0  0
   -2.4340   -2.3820   -5.9350 H   0  0  0  0  0  0  0  0  0  0  0  0
   -0.4000   -3.9380   -6.4740 H   0  0  0  0  0  0  0  0  0  0  0  0
   -0.0030   -2.2460   -5.8650 H   0  0  0  0  0  0  0  0  0  0  0  0
    0.0340   -3.6560   -4.7560 H   0  0  0  0  0  0  0  0  0  0  0  0
   -3.0550   -2.5690   -3.4490 H   0  0  0  0  0  0  0  0  0  0  0  0
   -1.3800   -3.2960   -3.2050 H   0  0  0  0  0  0  0  0  0  0  0  0
   -0.3440   -1.2900   -3.8510 H   0  0  0  0  0  0  0  0  0  0  0  0
   -2.4570   -0.6960   -1.8120 H   0  0  0  0  0  0  0  0  0  0  0  0
  1 11  1  0  0  0  0
  1 12  1  0  0  0  0
  1  2  1  0  0  0  0
  2 13  1  6  0  0  0
  2  3  1  0  0  0  0
  3 14  1  0  0  0  0
  3 15  1  0  0  0  0
  3  4  1  0  0  0  0
  4  5  2  0  0  0  0
  4  8  1  0  0  0  0
  5  6  1  0  0  0  0
  6  7  1  0  0  0  0
  6 17  1  0  0  0  0
  7 18  1  0  0  0  0
  8  7  2  0  0  0  0
  9 10  2  0  0  0  0
  9  2  1  0  0  0  0
 16  5  1  0  0  0  0
 19  9  1  0  0  0  0
 20 21  1  0  0  0  0
 20 34  1  1  0  0  0
 20 19  1  0  0  0  0
 21 22  1  0  0  0  0
 22 23  2  0  0  0  0
 22 30  1  0  0  0  0
 23 24  1  0  0  0  0
 24 25  1  0  0  0  0
 24 38  1  0  0  0  0
 25 26  1  0  0  0  0
 26 39  1  0  0  0  0
 27 26  2  0  0  0  0
 27 40  1  0  0  0  0
 28 27  1  0  0  0  0
 29 30  1  0  0  0  0
 29 28  2  0  0  0  0
 30 25  2  0  0  0  0
 31 20  1  0  0  0  0
 32 31  2  0  0  0  0
 33 19  1  0  0  0  0
 35 21  1  0  0  0  0
 36 21  1  0  0  0  0
 37 23  1  0  0  0  0
 41 28  1  0  0  0  0
 42 29  1  0  0  0  0
 43 44  1  0  0  0  0
 43 52  1  0  0  0  0
 43 53  1  0  0  0  0
 44 46  1  0  0  0  0
 45 44  1  0  0  0  0
 45 58  1  0  0  0  0
 46 47  1  0  0  0  0
 46 59  1  0  0  0  0
 46 60  1  0  0  0  0
 47 61  1  6  0  0  0
 47 48  1  0  0  0  0
 48 62  1  0  0  0  0
 48 31  1  0  0  0  0
 49 51  1  0  0  0  0
 49 47  1  0  0  0  0
 50 49  2  0  0  0  0
 54 43  1  0  0  0  0
 55 44  1  0  0  0  0
 56 45  1  0  0  0  0
 57 45  1  0  0  0  0
M  END
$$$$
