HWM.pdb
 OpenBabel07022418393D

 60 62  0  0  1  0  0  0  0  0999 V2000
    3.1970    1.4890    0.5490 N   0  0  0  0  0  0  0  0  0  0  0  0
    2.9830    0.4870    1.5480 C   0  0  1  0  0  0  0  0  0  0  0  0
    2.7500    1.2030    2.8870 C   0  0  0  0  0  0  0  0  0  0  0  0
    3.9210    2.0360    3.2670 C   0  0  0  0  0  0  0  0  0  0  0  0
    4.1650    3.3400    2.9670 C   0  0  0  0  0  0  0  0  0  0  0  0
    5.3370    3.6530    3.5230 N   0  0  0  0  0  0  0  0  0  0  0  0
    5.8130    2.5660    4.1560 C   0  0  0  0  0  0  0  0  0  0  0  0
    4.9390    1.5690    3.9970 N   0  0  0  0  0  0  0  0  0  0  0  0
    1.7750   -0.3470    1.3200 C   0  0  0  0  0  0  0  0  0  0  0  0
    1.5520   -1.2520    2.1710 O   0  0  0  0  0  0  0  0  0  0  0  0
    2.7400    2.3860    0.7680 H   0  0  0  0  0  0  0  0  0  0  0  0
    3.0030    1.1580   -0.4230 H   0  0  0  0  0  0  0  0  0  0  0  0
    3.9050   -0.1280    1.6040 H   0  0  0  0  0  0  0  0  0  0  0  0
    2.5760    0.4220    3.6360 H   0  0  0  0  0  0  0  0  0  0  0  0
    1.8380    1.8190    2.7400 H   0  0  0  0  0  0  0  0  0  0  0  0
    3.5100    3.9800    2.3840 H   0  0  0  0  0  0  0  0  0  0  0  0
    5.8060    4.5840    3.4750 H   0  0  0  0  0  0  0  0  0  0  0  0
    6.7660    2.5330    4.7040 H   0  0  0  0  0  0  0  0  0  0  0  0
    0.8760   -0.2090    0.2500 N   0  0  0  0  0  0  0  0  0  0  0  0
   -0.2920   -1.0380    0.0550 C   0  0  1  0  0  0  0  0  0  0  0  0
   -1.5370   -0.1550    0.1730 C   0  0  0  0  0  0  0  0  0  0  0  0
   -1.6140    0.4840    1.5010 C   0  0  0  0  0  0  0  0  0  0  0  0
   -1.3400    1.7890    1.8400 C   0  0  0  0  0  0  0  0  0  0  0  0
   -1.5410    1.9610    3.1760 N   0  0  0  0  0  0  0  0  0  0  0  0
   -1.9440    0.7870    3.7160 C   0  0  0  0  0  0  0  0  0  0  0  0
   -2.2740    0.4270    5.0040 C   0  0  0  0  0  0  0  0  0  0  0  0
   -2.6560   -0.8600    5.2690 C   0  0  0  0  0  0  0  0  0  0  0  0
   -2.7010   -1.7820    4.2240 C   0  0  0  0  0  0  0  0  0  0  0  0
   -2.3740   -1.4250    2.9470 C   0  0  0  0  0  0  0  0  0  0  0  0
   -1.9910   -0.1420    2.6690 C   0  0  0  0  0  0  0  0  0  0  0  0
   -0.2930   -1.7280   -1.2550 C   0  0  0  0  0  0  0  0  0  0  0  0
    0.6430   -1.5810   -2.0960 O   0  0  0  0  0  0  0  0  0  0  0  0
    1.0610    0.5400   -0.4520 H   0  0  0  0  0  0  0  0  0  0  0  0
   -0.3660   -1.7810    0.8640 H   0  0  0  0  0  0  0  0  0  0  0  0
   -2.4030   -0.8400    0.0490 H   0  0  0  0  0  0  0  0  0  0  0  0
   -1.5270    0.6260   -0.6170 H   0  0  0  0  0  0  0  0  0  0  0  0
   -1.0160    2.5820    1.1940 H   0  0  0  0  0  0  0  0  0  0  0  0
   -1.4190    2.8380    3.7430 H   0  0  0  0  0  0  0  0  0  0  0  0
   -2.2390    1.1380    5.8120 H   0  0  0  0  0  0  0  0  0  0  0  0
   -2.9160   -1.1530    6.2720 H   0  0  0  0  0  0  0  0  0  0  0  0
   -3.0070   -2.8040    4.4540 H   0  0  0  0  0  0  0  0  0  0  0  0
   -2.4100   -2.1470    2.1320 H   0  0  0  0  0  0  0  0  0  0  0  0
   -1.5580   -4.3260   -6.3900 C   0  0  0  0  0  0  0  0  0  0  0  0
   -2.4170   -5.4370   -5.2300 S   0  0  0  0  0  0  0  0  0  0  0  0
   -1.6160   -5.6860   -3.6950 C   0  0  0  0  0  0  0  0  0  0  0  0
   -1.7300   -4.7160   -2.6160 C   0  0  0  0  0  0  0  0  0  0  0  0
   -1.4390   -3.3000   -2.8680 C   0  0  2  0  0  0  0  0  0  0  0  0
   -1.3820   -2.5730   -1.5520 N   0  0  0  0  0  0  0  0  0  0  0  0
   -2.6610   -2.6470   -3.4640 C   0  0  0  0  0  0  0  0  0  0  0  0
   -3.2310   -2.9680   -4.4820 O   0  0  0  0  0  0  0  0  0  0  0  0
   -3.2100   -1.5430   -2.7790 O   0  0  0  0  0  0  0  0  0  0  0  0
   -0.9180   -4.9000   -7.0990 H   0  0  0  0  0  0  0  0  0  0  0  0
   -2.2550   -3.7410   -7.0040 H   0  0  0  0  0  0  0  0  0  0  0  0
   -0.9230   -3.6190   -5.8250 H   0  0  0  0  0  0  0  0  0  0  0  0
   -0.4620   -5.7470   -3.9170 H   0  0  0  0  0  0  0  0  0  0  0  0
   -1.8160   -6.7580   -3.2970 H   0  0  0  0  0  0  0  0  0  0  0  0
   -2.8100   -4.8040   -2.1910 H   0  0  0  0  0  0  0  0  0  0  0  0
   -1.1530   -5.1050   -1.7030 H   0  0  0  0  0  0  0  0  0  0  0  0
   -0.5940   -3.0780   -3.4930 H   0  0  0  0  0  0  0  0  0  0  0  0
   -2.1850   -2.7510   -0.9290 H   0  0  0  0  0  0  0  0  0  0  0  0
  1 11  1  0  0  0  0
  1  2  1  0  0  0  0
  2 13  1  1  0  0  0
  2  3  1  0  0  0  0
  3  4  1  0  0  0  0
  3 14  1  0  0  0  0
  4  8  1  0  0  0  0
  5  4  2  0  0  0  0
  5  6  1  0  0  0  0
  6  7  1  0  0  0  0
  7 18  1  0  0  0  0
  8  7  2  0  0  0  0
  9  2  1  0  0  0  0
  9 10  2  0  0  0  0
 12  1  1  0  0  0  0
 15  3  1  0  0  0  0
 16  5  1  0  0  0  0
 17  6  1  0  0  0  0
 19  9  1  0  0  0  0
 20 21  1  0  0  0  0
 20 19  1  0  0  0  0
 20 34  1  1  0  0  0
 21 22  1  0  0  0  0
 22 23  2  0  0  0  0
 22 30  1  0  0  0  0
 23 24  1  0  0  0  0
 24 25  1  0  0  0  0
 24 38  1  0  0  0  0
 25 26  1  0  0  0  0
 26 27  2  0  0  0  0
 26 39  1  0  0  0  0
 27 40  1  0  0  0  0
 28 41  1  0  0  0  0
 28 27  1  0  0  0  0
 29 28  2  0  0  0  0
 30 29  1  0  0  0  0
 30 25  2  0  0  0  0
 31 20  1  0  0  0  0
 32 31  2  0  0  0  0
 33 19  1  0  0  0  0
 35 21  1  0  0  0  0
 36 21  1  0  0  0  0
 37 23  1  0  0  0  0
 42 29  1  0  0  0  0
 43 54  1  0  0  0  0
 43 44  1  0  0  0  0
 44 45  1  0  0  0  0
 45 56  1  0  0  0  0
 45 46  1  0  0  0  0
 46 57  1  0  0  0  0
 46 58  1  0  0  0  0
 47 59  1  6  0  0  0
 47 46  1  0  0  0  0
 47 48  1  0  0  0  0
 48 31  1  0  0  0  0
 48 60  1  0  0  0  0
 49 47  1  0  0  0  0
 49 51  1  0  0  0  0
 50 49  2  0  0  0  0
 52 43  1  0  0  0  0
 53 43  1  0  0  0  0
 55 45  1  0  0  0  0
M  END
$$$$
