HWN.pdb
 OpenBabel07022418383D

 57 59  0  0  1  0  0  0  0  0999 V2000
    3.6110   -0.1960    1.3810 N   0  0  0  0  0  0  0  0  0  0  0  0
    2.7660   -1.1950    1.9830 C   0  0  1  0  0  0  0  0  0  0  0  0
    2.4790   -0.7520    3.4100 C   0  0  0  0  0  0  0  0  0  0  0  0
    3.6780   -0.6060    4.2340 C   0  0  0  0  0  0  0  0  0  0  0  0
    4.4310    0.5290    4.3870 C   0  0  0  0  0  0  0  0  0  0  0  0
    5.4310    0.2320    5.2230 N   0  0  0  0  0  0  0  0  0  0  0  0
    5.2990   -1.0560    5.5790 C   0  0  0  0  0  0  0  0  0  0  0  0
    4.2240   -1.5690    4.9720 N   0  0  0  0  0  0  0  0  0  0  0  0
    1.4450   -1.3000    1.3110 C   0  0  0  0  0  0  0  0  0  0  0  0
    0.6290   -2.1350    1.7760 O   0  0  0  0  0  0  0  0  0  0  0  0
    3.3360    0.7680    1.6770 H   0  0  0  0  0  0  0  0  0  0  0  0
    3.7350   -0.3050    0.3590 H   0  0  0  0  0  0  0  0  0  0  0  0
    3.2870   -2.1870    2.0060 H   0  0  0  0  0  0  0  0  0  0  0  0
    1.7240   -1.4470    3.8510 H   0  0  0  0  0  0  0  0  0  0  0  0
    1.9380    0.2290    3.3120 H   0  0  0  0  0  0  0  0  0  0  0  0
    4.2660    1.5170    3.9190 H   0  0  0  0  0  0  0  0  0  0  0  0
    6.1810    0.8970    5.5390 H   0  0  0  0  0  0  0  0  0  0  0  0
    5.9560   -1.6070    6.2530 H   0  0  0  0  0  0  0  0  0  0  0  0
    1.0450   -0.5320    0.1930 N   0  0  0  0  0  0  0  0  0  0  0  0
   -0.2570   -0.6660   -0.4340 C   0  0  1  0  0  0  0  0  0  0  0  0
   -1.0100    0.6450   -0.2480 C   0  0  0  0  0  0  0  0  0  0  0  0
   -1.1850    0.9580    1.1950 C   0  0  0  0  0  0  0  0  0  0  0  0
   -0.5000    1.8810    1.9640 C   0  0  0  0  0  0  0  0  0  0  0  0
   -0.9740    1.8420    3.2270 N   0  0  0  0  0  0  0  0  0  0  0  0
   -1.9600    0.9150    3.3240 C   0  0  0  0  0  0  0  0  0  0  0  0
   -2.7390    0.5150    4.3910 C   0  0  0  0  0  0  0  0  0  0  0  0
   -3.6890   -0.4700    4.2100 C   0  0  0  0  0  0  0  0  0  0  0  0
   -3.8130   -1.0150    2.9410 C   0  0  0  0  0  0  0  0  0  0  0  0
   -3.0380   -0.6190    1.8710 C   0  0  0  0  0  0  0  0  0  0  0  0
   -2.0840    0.3710    2.0570 C   0  0  0  0  0  0  0  0  0  0  0  0
   -0.1610   -1.0480   -1.8490 C   0  0  0  0  0  0  0  0  0  0  0  0
    0.9960   -1.2060   -2.3680 O   0  0  0  0  0  0  0  0  0  0  0  0
    1.7340    0.1550   -0.1820 H   0  0  0  0  0  0  0  0  0  0  0  0
   -0.8170   -1.4380    0.1300 H   0  0  0  0  0  0  0  0  0  0  0  0
   -0.4620    1.4740   -0.7670 H   0  0  0  0  0  0  0  0  0  0  0  0
   -2.0180    0.5900   -0.7040 H   0  0  0  0  0  0  0  0  0  0  0  0
    0.2850    2.5190    1.5890 H   0  0  0  0  0  0  0  0  0  0  0  0
   -0.6440    2.4300    4.0240 H   0  0  0  0  0  0  0  0  0  0  0  0
   -2.6540    0.9300    5.3850 H   0  0  0  0  0  0  0  0  0  0  0  0
   -4.3310   -0.8260    5.0120 H   0  0  0  0  0  0  0  0  0  0  0  0
   -4.5470   -1.7890    2.7620 H   0  0  0  0  0  0  0  0  0  0  0  0
   -3.1250   -1.0350    0.8810 H   0  0  0  0  0  0  0  0  0  0  0  0
   -2.5440   -4.4680   -6.2310 N   0  0  0  0  0  0  0  0  0  0  0  0
   -1.8040   -3.3460   -5.7340 C   0  0  0  0  0  0  0  0  0  0  0  0
   -1.0740   -2.7600   -6.5500 O   0  0  0  0  0  0  0  0  0  0  0  0
   -1.9070   -2.9170   -4.3420 C   0  0  0  0  0  0  0  0  0  0  0  0
   -1.1880   -1.6370   -4.1010 C   0  0  2  0  0  0  0  0  0  0  0  0
   -1.2620   -1.2540   -2.6830 N   0  0  0  0  0  0  0  0  0  0  0  0
   -1.7900   -0.4910   -4.8650 C   0  0  0  0  0  0  0  0  0  0  0  0
   -1.8850   -0.4520   -6.0960 O   0  0  0  0  0  0  0  0  0  0  0  0
   -2.2960    0.6410   -4.1890 O   0  0  0  0  0  0  0  0  0  0  0  0
   -3.0970   -4.3780   -7.1190 H   0  0  0  0  0  0  0  0  0  0  0  0
   -2.5510   -5.3900   -5.7280 H   0  0  0  0  0  0  0  0  0  0  0  0
   -1.4330   -3.7480   -3.7320 H   0  0  0  0  0  0  0  0  0  0  0  0
   -2.9950   -2.8500   -4.1000 H   0  0  0  0  0  0  0  0  0  0  0  0
   -0.1390   -1.7340   -4.4020 H   0  0  0  0  0  0  0  0  0  0  0  0
   -2.2220   -1.1380   -2.3100 H   0  0  0  0  0  0  0  0  0  0  0  0
  1 11  1  0  0  0  0
  1  2  1  0  0  0  0
  2 13  1  6  0  0  0
  2  3  1  0  0  0  0
  3 14  1  0  0  0  0
  3  4  1  0  0  0  0
  4  5  2  0  0  0  0
  4  8  1  0  0  0  0
  5  6  1  0  0  0  0
  6 17  1  0  0  0  0
  6  7  1  0  0  0  0
  7 18  1  0  0  0  0
  8  7  2  0  0  0  0
  9 10  2  0  0  0  0
  9  2  1  0  0  0  0
 12  1  1  0  0  0  0
 15  3  1  0  0  0  0
 16  5  1  0  0  0  0
 19  9  1  0  0  0  0
 20 21  1  0  0  0  0
 20 34  1  1  0  0  0
 20 19  1  0  0  0  0
 21 22  1  0  0  0  0
 22 23  2  0  0  0  0
 22 30  1  0  0  0  0
 23 24  1  0  0  0  0
 24 25  1  0  0  0  0
 24 38  1  0  0  0  0
 25 26  1  0  0  0  0
 26 39  1  0  0  0  0
 27 26  2  0  0  0  0
 27 40  1  0  0  0  0
 28 27  1  0  0  0  0
 29 30  1  0  0  0  0
 29 28  2  0  0  0  0
 30 25  2  0  0  0  0
 31 20  1  0  0  0  0
 32 31  2  0  0  0  0
 33 19  1  0  0  0  0
 35 21  1  0  0  0  0
 36 21  1  0  0  0  0
 37 23  1  0  0  0  0
 41 28  1  0  0  0  0
 42 29  1  0  0  0  0
 43 44  1  0  0  0  0
 43 53  1  0  0  0  0
 44 46  1  0  0  0  0
 45 44  2  0  0  0  0
 46 47  1  0  0  0  0
 46 55  1  0  0  0  0
 46 54  1  0  0  0  0
 47 56  1  6  0  0  0
 47 48  1  0  0  0  0
 48 57  1  0  0  0  0
 48 31  1  0  0  0  0
 49 51  1  0  0  0  0
 49 47  1  0  0  0  0
 50 49  2  0  0  0  0
 52 43  1  0  0  0  0
M  END
$$$$
