HWP.pdb
 OpenBabel07022418393D

 57 60  0  0  1  0  0  0  0  0999 V2000
    3.1610    0.5550    1.6360 N   0  0  0  0  0  0  0  0  0  0  0  0
    2.3930   -0.4080    2.3930 C   0  0  1  0  0  0  0  0  0  0  0  0
    1.7410    0.3140    3.5500 C   0  0  0  0  0  0  0  0  0  0  0  0
    2.8410    0.8940    4.3650 C   0  0  0  0  0  0  0  0  0  0  0  0
    3.4030    2.1380    4.2130 C   0  0  0  0  0  0  0  0  0  0  0  0
    4.3880    2.3320    5.1380 N   0  0  0  0  0  0  0  0  0  0  0  0
    4.4290    1.2000    5.8600 C   0  0  0  0  0  0  0  0  0  0  0  0
    3.5060    0.3370    5.4020 N   0  0  0  0  0  0  0  0  0  0  0  0
    1.3220   -0.9450    1.4860 C   0  0  0  0  0  0  0  0  0  0  0  0
    0.5050   -1.8070    1.9270 O   0  0  0  0  0  0  0  0  0  0  0  0
    2.4890    1.3040    1.3420 H   0  0  0  0  0  0  0  0  0  0  0  0
    3.6130    0.1710    0.7940 H   0  0  0  0  0  0  0  0  0  0  0  0
    3.0190   -1.2350    2.7860 H   0  0  0  0  0  0  0  0  0  0  0  0
    1.1280    1.1520    3.1770 H   0  0  0  0  0  0  0  0  0  0  0  0
    1.1240   -0.3850    4.1640 H   0  0  0  0  0  0  0  0  0  0  0  0
    3.1260    2.8820    3.4750 H   0  0  0  0  0  0  0  0  0  0  0  0
    4.9860    3.1800    5.2620 H   0  0  0  0  0  0  0  0  0  0  0  0
    5.1010    1.0120    6.6830 H   0  0  0  0  0  0  0  0  0  0  0  0
    1.1890   -0.5200    0.1460 N   0  0  0  0  0  0  0  0  0  0  0  0
    0.1380   -1.0610   -0.7080 C   0  0  1  0  0  0  0  0  0  0  0  0
   -0.7820    0.1350   -1.0390 C   0  0  0  0  0  0  0  0  0  0  0  0
   -1.3490    0.6970    0.2080 C   0  0  0  0  0  0  0  0  0  0  0  0
   -0.9360    1.8590    0.8240 C   0  0  0  0  0  0  0  0  0  0  0  0
   -1.6560    2.0780    1.9330 N   0  0  0  0  0  0  0  0  0  0  0  0
   -2.5530    1.0910    2.0880 C   0  0  0  0  0  0  0  0  0  0  0  0
   -3.5220    0.8320    3.0400 C   0  0  0  0  0  0  0  0  0  0  0  0
   -4.3130   -0.2880    2.9350 C   0  0  0  0  0  0  0  0  0  0  0  0
   -4.1240   -1.1400    1.8700 C   0  0  0  0  0  0  0  0  0  0  0  0
   -3.1620   -0.8960    0.9130 C   0  0  0  0  0  0  0  0  0  0  0  0
   -2.3650    0.2210    1.0080 C   0  0  0  0  0  0  0  0  0  0  0  0
    0.6780   -1.6750   -1.9230 C   0  0  0  0  0  0  0  0  0  0  0  0
    1.9360   -1.4650   -2.1260 O   0  0  0  0  0  0  0  0  0  0  0  0
    1.8360    0.1770   -0.2380 H   0  0  0  0  0  0  0  0  0  0  0  0
   -0.4450   -1.7780   -0.1150 H   0  0  0  0  0  0  0  0  0  0  0  0
   -0.1250    0.9280   -1.5100 H   0  0  0  0  0  0  0  0  0  0  0  0
   -1.5360   -0.1070   -1.7950 H   0  0  0  0  0  0  0  0  0  0  0  0
   -0.1300    2.5020    0.4470 H   0  0  0  0  0  0  0  0  0  0  0  0
   -1.5510    2.8800    2.5800 H   0  0  0  0  0  0  0  0  0  0  0  0
   -3.6800    1.4890    3.8750 H   0  0  0  0  0  0  0  0  0  0  0  0
   -5.0880   -0.5090    3.6840 H   0  0  0  0  0  0  0  0  0  0  0  0
   -4.7340   -2.0440    1.7510 H   0  0  0  0  0  0  0  0  0  0  0  0
   -2.9970   -1.5490    0.0720 H   0  0  0  0  0  0  0  0  0  0  0  0
   -0.0660   -2.4460   -2.8400 N   0  0  0  0  0  0  0  0  0  0  0  0
    0.4490   -3.0110   -4.0670 C   0  0  0  0  0  0  0  0  0  0  0  0
   -0.7670   -3.1680   -4.9450 C   0  0  0  0  0  0  0  0  0  0  0  0
   -1.9230   -2.5460   -4.1560 C   0  0  0  0  0  0  0  0  0  0  0  0
   -1.4360   -2.8460   -2.7340 C   0  0  1  0  0  0  0  0  0  0  0  0
   -1.5600   -4.3460   -2.6170 C   0  0  0  0  0  0  0  0  0  0  0  0
   -2.7160   -4.8360   -2.5420 O   0  0  0  0  0  0  0  0  0  0  0  0
   -0.4900   -5.2040   -2.5870 O   0  0  0  0  0  0  0  0  0  0  0  0
    1.1810   -2.3080   -4.5590 H   0  0  0  0  0  0  0  0  0  0  0  0
    0.9790   -3.9470   -3.8540 H   0  0  0  0  0  0  0  0  0  0  0  0
   -0.5980   -2.6660   -5.8990 H   0  0  0  0  0  0  0  0  0  0  0  0
   -0.9630   -4.2630   -5.0320 H   0  0  0  0  0  0  0  0  0  0  0  0
   -1.9420   -1.4460   -4.2940 H   0  0  0  0  0  0  0  0  0  0  0  0
   -2.8650   -3.0490   -4.3850 H   0  0  0  0  0  0  0  0  0  0  0  0
   -2.0210   -2.3500   -1.9640 H   0  0  0  0  0  0  0  0  0  0  0  0
  1  2  1  0  0  0  0
  2 13  1  1  0  0  0
  2  3  1  0  0  0  0
  3 15  1  0  0  0  0
  3  4  1  0  0  0  0
  4  8  1  0  0  0  0
  5  4  2  0  0  0  0
  5  6  1  0  0  0  0
  6 17  1  0  0  0  0
  6  7  1  0  0  0  0
  7 18  1  0  0  0  0
  8  7  2  0  0  0  0
  9 10  2  0  0  0  0
  9  2  1  0  0  0  0
 11  1  1  0  0  0  0
 12  1  1  0  0  0  0
 14  3  1  0  0  0  0
 16  5  1  0  0  0  0
 19  9  1  0  0  0  0
 20 34  1  1  0  0  0
 20 19  1  0  0  0  0
 21 20  1  0  0  0  0
 21 22  1  0  0  0  0
 22 23  2  0  0  0  0
 22 30  1  0  0  0  0
 23 24  1  0  0  0  0
 24 25  1  0  0  0  0
 24 38  1  0  0  0  0
 25 26  1  0  0  0  0
 26 39  1  0  0  0  0
 27 26  2  0  0  0  0
 27 40  1  0  0  0  0
 28 27  1  0  0  0  0
 29 30  1  0  0  0  0
 29 28  2  0  0  0  0
 30 25  2  0  0  0  0
 31 20  1  0  0  0  0
 32 31  2  0  0  0  0
 33 19  1  0  0  0  0
 35 21  1  0  0  0  0
 36 21  1  0  0  0  0
 37 23  1  0  0  0  0
 41 28  1  0  0  0  0
 42 29  1  0  0  0  0
 43 47  1  0  0  0  0
 43 31  1  0  0  0  0
 44 52  1  0  0  0  0
 44 43  1  0  0  0  0
 45 46  1  0  0  0  0
 45 44  1  0  0  0  0
 46 47  1  0  0  0  0
 47 48  1  0  0  0  0
 47 57  1  1  0  0  0
 48 50  2  0  0  0  0
 48 49  1  0  0  0  0
 51 44  1  0  0  0  0
 53 45  1  0  0  0  0
 54 45  1  0  0  0  0
 55 46  1  0  0  0  0
 56 46  1  0  0  0  0
M  END
$$$$
