HWR.pdb
 OpenBabel07022418383D

 66 68  0  0  1  0  0  0  0  0999 V2000
    0.3600    0.6770    4.9380 N   0  0  0  0  0  0  0  0  0  0  0  0
    1.5240    1.2400    4.2260 C   0  0  1  0  0  0  0  0  0  0  0  0
    2.6750    0.3460    4.5910 C   0  0  0  0  0  0  0  0  0  0  0  0
    3.9820    0.7220    4.0660 C   0  0  0  0  0  0  0  0  0  0  0  0
    4.4500    1.7930    3.3600 C   0  0  0  0  0  0  0  0  0  0  0  0
    5.7770    1.6060    3.1990 N   0  0  0  0  0  0  0  0  0  0  0  0
    6.1600    0.4770    3.7690 C   0  0  0  0  0  0  0  0  0  0  0  0
    5.0750   -0.0800    4.3060 N   0  0  0  0  0  0  0  0  0  0  0  0
    1.1740    1.0320    2.7670 C   0  0  0  0  0  0  0  0  0  0  0  0
    1.8790    1.5020    1.8330 O   0  0  0  0  0  0  0  0  0  0  0  0
    0.3600   -0.3440    4.8290 H   0  0  0  0  0  0  0  0  0  0  0  0
   -0.5210    1.1190    4.6510 H   0  0  0  0  0  0  0  0  0  0  0  0
    1.6330    2.2870    4.4650 H   0  0  0  0  0  0  0  0  0  0  0  0
    2.4160   -0.6660    4.1800 H   0  0  0  0  0  0  0  0  0  0  0  0
    2.7470    0.2000    5.6920 H   0  0  0  0  0  0  0  0  0  0  0  0
    3.8970    2.6270    3.0160 H   0  0  0  0  0  0  0  0  0  0  0  0
    6.4540    2.2480    2.6950 H   0  0  0  0  0  0  0  0  0  0  0  0
    7.1570    0.0410    3.8170 H   0  0  0  0  0  0  0  0  0  0  0  0
    0.0260    0.2930    2.3790 N   0  0  0  0  0  0  0  0  0  0  0  0
   -0.2720    0.1060    0.9660 C   0  0  1  0  0  0  0  0  0  0  0  0
   -0.9460    1.2900    0.3590 C   0  0  0  0  0  0  0  0  0  0  0  0
   -2.2270    1.5040    1.0980 C   0  0  0  0  0  0  0  0  0  0  0  0
   -2.4880    2.4690    2.0450 C   0  0  0  0  0  0  0  0  0  0  0  0
   -3.7720    2.3040    2.4610 N   0  0  0  0  0  0  0  0  0  0  0  0
   -4.3510    1.2710    1.8200 C   0  0  0  0  0  0  0  0  0  0  0  0
   -5.6060    0.7060    1.8770 C   0  0  0  0  0  0  0  0  0  0  0  0
   -5.9000   -0.3790    1.0680 C   0  0  0  0  0  0  0  0  0  0  0  0
   -4.9390   -0.8810    0.2170 C   0  0  0  0  0  0  0  0  0  0  0  0
   -3.6650   -0.3040    0.1610 C   0  0  0  0  0  0  0  0  0  0  0  0
   -3.3800    0.7750    0.9700 C   0  0  0  0  0  0  0  0  0  0  0  0
    0.8650   -0.4330    0.1920 C   0  0  0  0  0  0  0  0  0  0  0  0
    1.9840   -0.7500    0.6600 O   0  0  0  0  0  0  0  0  0  0  0  0
   -0.6150   -0.1240    3.1180 H   0  0  0  0  0  0  0  0  0  0  0  0
   -1.0350   -0.7420    0.9550 H   0  0  0  0  0  0  0  0  0  0  0  0
   -0.3340    2.2140    0.3950 H   0  0  0  0  0  0  0  0  0  0  0  0
   -1.2510    1.0380   -0.6760 H   0  0  0  0  0  0  0  0  0  0  0  0
   -1.7640    3.2030    2.3650 H   0  0  0  0  0  0  0  0  0  0  0  0
   -4.2070    2.9280    3.1890 H   0  0  0  0  0  0  0  0  0  0  0  0
   -6.3720    1.1040    2.5550 H   0  0  0  0  0  0  0  0  0  0  0  0
   -6.9040   -0.8030    1.1380 H   0  0  0  0  0  0  0  0  0  0  0  0
   -5.1870   -1.7320   -0.4110 H   0  0  0  0  0  0  0  0  0  0  0  0
   -2.9210   -0.7140   -0.5180 H   0  0  0  0  0  0  0  0  0  0  0  0
   -2.0400   -6.1990   -4.1200 N   0  0  0  0  0  0  0  0  0  0  0  0
   -1.4850   -5.4800   -3.0190 C   0  0  0  0  0  0  0  0  0  0  0  0
   -0.8960   -6.1100   -2.0900 N   0  0  0  0  0  0  0  0  0  0  0  0
   -1.6010   -4.0660   -2.9830 N   0  0  0  0  0  0  0  0  0  0  0  0
   -0.7140   -3.2290   -2.1540 C   0  0  0  0  0  0  0  0  0  0  0  0
    0.6350   -3.3240   -2.7550 C   0  0  0  0  0  0  0  0  0  0  0  0
    1.7670   -2.6290   -2.1430 C   0  0  0  0  0  0  0  0  0  0  0  0
    1.8140   -1.1590   -2.0240 C   0  0  2  0  0  0  0  0  0  0  0  0
    0.7310   -0.6360   -1.2330 N   0  0  0  0  0  0  0  0  0  0  0  0
    1.9130   -0.4500   -3.3050 C   0  0  0  0  0  0  0  0  0  0  0  0
    2.7940   -0.7610   -4.1310 O   0  0  0  0  0  0  0  0  0  0  0  0
    1.0330    0.5690   -3.6090 O   0  0  0  0  0  0  0  0  0  0  0  0
   -3.0620   -6.3840   -4.1770 H   0  0  0  0  0  0  0  0  0  0  0  0
   -1.4430   -6.5610   -4.8980 H   0  0  0  0  0  0  0  0  0  0  0  0
   -0.4810   -5.6480   -1.2800 H   0  0  0  0  0  0  0  0  0  0  0  0
   -2.3240   -3.5960   -3.5510 H   0  0  0  0  0  0  0  0  0  0  0  0
   -0.7670   -3.6490   -1.1190 H   0  0  0  0  0  0  0  0  0  0  0  0
   -1.1790   -2.2490   -2.1100 H   0  0  0  0  0  0  0  0  0  0  0  0
    0.5780   -3.0620   -3.8580 H   0  0  0  0  0  0  0  0  0  0  0  0
    0.8990   -4.4330   -2.8080 H   0  0  0  0  0  0  0  0  0  0  0  0
    1.8980   -3.0600   -1.0850 H   0  0  0  0  0  0  0  0  0  0  0  0
    2.7420   -2.9550   -2.6240 H   0  0  0  0  0  0  0  0  0  0  0  0
    2.7490   -0.9520   -1.3870 H   0  0  0  0  0  0  0  0  0  0  0  0
   -0.1830   -0.3480   -1.6460 H   0  0  0  0  0  0  0  0  0  0  0  0
  2 13  1  1  0  0  0
  2  3  1  0  0  0  0
  2  1  1  0  0  0  0
  3 15  1  0  0  0  0
  4  8  1  0  0  0  0
  4  3  1  0  0  0  0
  5  4  2  0  0  0  0
  6  5  1  0  0  0  0
  6  7  1  0  0  0  0
  7 18  1  0  0  0  0
  7  8  2  0  0  0  0
  9  2  1  0  0  0  0
 10  9  2  0  0  0  0
 11  1  1  0  0  0  0
 12  1  1  0  0  0  0
 14  3  1  0  0  0  0
 16  5  1  0  0  0  0
 17  6  1  0  0  0  0
 19  9  1  0  0  0  0
 19 33  1  0  0  0  0
 20 34  1  6  0  0  0
 20 19  1  0  0  0  0
 21 35  1  0  0  0  0
 21 20  1  0  0  0  0
 21 22  1  0  0  0  0
 22 23  2  0  0  0  0
 23 37  1  0  0  0  0
 23 24  1  0  0  0  0
 24 38  1  0  0  0  0
 25 26  1  0  0  0  0
 25 24  1  0  0  0  0
 26 39  1  0  0  0  0
 27 40  1  0  0  0  0
 27 26  2  0  0  0  0
 28 27  1  0  0  0  0
 29 28  2  0  0  0  0
 29 30  1  0  0  0  0
 30 22  1  0  0  0  0
 30 25  2  0  0  0  0
 31 32  2  0  0  0  0
 31 20  1  0  0  0  0
 36 21  1  0  0  0  0
 41 28  1  0  0  0  0
 42 29  1  0  0  0  0
 43 44  1  0  0  0  0
 44 46  1  0  0  0  0
 44 45  2  0  0  0  0
 45 57  1  0  0  0  0
 46 47  1  0  0  0  0
 47 60  1  0  0  0  0
 47 59  1  0  0  0  0
 48 47  1  0  0  0  0
 48 49  1  0  0  0  0
 49 50  1  0  0  0  0
 49 63  1  0  0  0  0
 50 65  1  1  0  0  0
 50 51  1  0  0  0  0
 51 31  1  0  0  0  0
 52 50  1  0  0  0  0
 53 52  2  0  0  0  0
 54 52  1  0  0  0  0
 55 43  1  0  0  0  0
 56 43  1  0  0  0  0
 58 46  1  0  0  0  0
 61 48  1  0  0  0  0
 62 48  1  0  0  0  0
 64 49  1  0  0  0  0
 66 51  1  0  0  0  0
M  END
$$$$
