HWS.pdb
 OpenBabel07022418393D

 54 56  0  0  1  0  0  0  0  0999 V2000
   -1.5330   -2.0740    2.5900 N   0  0  0  0  0  0  0  0  0  0  0  0
   -1.0480   -0.7050    2.6640 C   0  0  1  0  0  0  0  0  0  0  0  0
    0.0990   -0.7240    3.6480 C   0  0  0  0  0  0  0  0  0  0  0  0
    0.7240    0.5930    3.8510 C   0  0  0  0  0  0  0  0  0  0  0  0
    0.3650    1.5450    4.7980 C   0  0  0  0  0  0  0  0  0  0  0  0
    1.1860    2.6090    4.6480 N   0  0  0  0  0  0  0  0  0  0  0  0
    2.0520    2.3540    3.6350 C   0  0  0  0  0  0  0  0  0  0  0  0
    1.7500    1.1500    3.1820 N   0  0  0  0  0  0  0  0  0  0  0  0
   -0.5690   -0.3470    1.2790 C   0  0  0  0  0  0  0  0  0  0  0  0
   -0.2490    0.8510    1.0510 O   0  0  0  0  0  0  0  0  0  0  0  0
   -2.5720   -2.0950    2.4170 H   0  0  0  0  0  0  0  0  0  0  0  0
   -1.3510   -2.6060    3.4600 H   0  0  0  0  0  0  0  0  0  0  0  0
   -1.8120   -0.0230    3.0360 H   0  0  0  0  0  0  0  0  0  0  0  0
    0.8960   -1.4450    3.3140 H   0  0  0  0  0  0  0  0  0  0  0  0
   -0.3400   -1.0250    4.6200 H   0  0  0  0  0  0  0  0  0  0  0  0
   -0.4310    1.4430    5.5200 H   0  0  0  0  0  0  0  0  0  0  0  0
    1.1490    3.4770    5.2280 H   0  0  0  0  0  0  0  0  0  0  0  0
    2.8370    3.0370    3.2900 H   0  0  0  0  0  0  0  0  0  0  0  0
   -0.4790   -1.3130    0.2670 N   0  0  0  0  0  0  0  0  0  0  0  0
   -0.0760   -1.1620   -1.0950 C   0  0  1  0  0  0  0  0  0  0  0  0
    0.3260    0.1580   -1.5770 C   0  0  0  0  0  0  0  0  0  0  0  0
   -0.5940    1.2780   -1.5780 C   0  0  0  0  0  0  0  0  0  0  0  0
   -0.1680    2.6260   -1.7760 C   0  0  0  0  0  0  0  0  0  0  0  0
   -1.2230    3.4240   -1.7620 N   0  0  0  0  0  0  0  0  0  0  0  0
   -2.3540    2.7280   -1.5680 C   0  0  0  0  0  0  0  0  0  0  0  0
   -3.6850    3.0690   -1.4730 C   0  0  0  0  0  0  0  0  0  0  0  0
   -4.6700    2.1340   -1.2640 C   0  0  0  0  0  0  0  0  0  0  0  0
   -4.3260    0.8180   -1.1440 C   0  0  0  0  0  0  0  0  0  0  0  0
   -2.9800    0.4720   -1.2400 C   0  0  0  0  0  0  0  0  0  0  0  0
   -1.9630    1.3810   -1.4520 C   0  0  0  0  0  0  0  0  0  0  0  0
    0.9550   -2.2160   -1.4370 C   0  0  0  0  0  0  0  0  0  0  0  0
    1.4630   -2.2340   -2.6030 O   0  0  0  0  0  0  0  0  0  0  0  0
   -0.7640   -2.3010    0.5820 H   0  0  0  0  0  0  0  0  0  0  0  0
   -0.9560   -1.4360   -1.7640 H   0  0  0  0  0  0  0  0  0  0  0  0
    0.8000    0.0040   -2.6000 H   0  0  0  0  0  0  0  0  0  0  0  0
    1.2090    0.4860   -0.9130 H   0  0  0  0  0  0  0  0  0  0  0  0
    0.8880    2.8620   -1.9070 H   0  0  0  0  0  0  0  0  0  0  0  0
   -1.2220    4.4570   -1.8840 H   0  0  0  0  0  0  0  0  0  0  0  0
   -3.9250    4.1320   -1.5720 H   0  0  0  0  0  0  0  0  0  0  0  0
   -5.7310    2.4350   -1.1960 H   0  0  0  0  0  0  0  0  0  0  0  0
   -5.0220    0.0090   -0.9780 H   0  0  0  0  0  0  0  0  0  0  0  0
   -2.7000   -0.5640   -1.1300 H   0  0  0  0  0  0  0  0  0  0  0  0
    2.8610   -4.8010    1.3770 O   0  0  0  0  0  0  0  0  0  0  0  0
    3.4430   -4.3790    0.1770 C   0  0  0  0  0  0  0  0  0  0  0  0
    2.4050   -4.2040   -0.9050 C   0  0  2  0  0  0  0  0  0  0  0  0
    1.4040   -3.2010   -0.5370 N   0  0  0  0  0  0  0  0  0  0  0  0
    1.6760   -5.4980   -0.9770 C   0  0  0  0  0  0  0  0  0  0  0  0
    0.4510   -5.5930   -0.7810 O   0  0  0  0  0  0  0  0  0  0  0  0
    2.3910   -6.6430   -1.2730 O   0  0  0  0  0  0  0  0  0  0  0  0
    3.3960   -4.5030    2.1750 H   0  0  0  0  0  0  0  0  0  0  0  0
    3.9480   -3.4100    0.4310 H   0  0  0  0  0  0  0  0  0  0  0  0
    4.1650   -5.1440   -0.1390 H   0  0  0  0  0  0  0  0  0  0  0  0
    2.8230   -4.0410   -1.9100 H   0  0  0  0  0  0  0  0  0  0  0  0
    1.0060   -3.2070    0.4290 H   0  0  0  0  0  0  0  0  0  0  0  0
  1  2  1  0  0  0  0
  1 12  1  0  0  0  0
  2 13  1  1  0  0  0
  2  3  1  0  0  0  0
  3  4  1  0  0  0  0
  3 15  1  0  0  0  0
  4  5  2  0  0  0  0
  5 16  1  0  0  0  0
  6  5  1  0  0  0  0
  6 17  1  0  0  0  0
  7  6  1  0  0  0  0
  8  7  2  0  0  0  0
  8  4  1  0  0  0  0
  9  2  1  0  0  0  0
 10  9  2  0  0  0  0
 11  1  1  0  0  0  0
 14  3  1  0  0  0  0
 18  7  1  0  0  0  0
 19 33  1  0  0  0  0
 19  9  1  0  0  0  0
 20 34  1  6  0  0  0
 20 19  1  0  0  0  0
 21 20  1  0  0  0  0
 21 36  1  0  0  0  0
 22 21  1  0  0  0  0
 22 30  1  0  0  0  0
 23 24  1  0  0  0  0
 23 22  2  0  0  0  0
 24 25  1  0  0  0  0
 25 26  2  0  0  0  0
 25 30  1  0  0  0  0
 26 27  1  0  0  0  0
 27 40  1  0  0  0  0
 27 28  2  0  0  0  0
 28 41  1  0  0  0  0
 29 28  1  0  0  0  0
 29 42  1  0  0  0  0
 30 29  2  0  0  0  0
 31 20  1  0  0  0  0
 31 46  1  0  0  0  0
 32 31  2  0  0  0  0
 35 21  1  0  0  0  0
 37 23  1  0  0  0  0
 38 24  1  0  0  0  0
 39 26  1  0  0  0  0
 43 50  1  0  0  0  0
 44 51  1  0  0  0  0
 44 43  1  0  0  0  0
 45 53  1  6  0  0  0
 45 46  1  0  0  0  0
 45 44  1  0  0  0  0
 46 54  1  0  0  0  0
 47 45  1  0  0  0  0
 47 48  1  0  0  0  0
 49 47  2  0  0  0  0
 52 44  1  0  0  0  0
M  END
$$$$
