HWT.pdb
 OpenBabel07022418393D

 57 59  0  0  1  0  0  0  0  0999 V2000
    0.4310   -0.4220    3.7870 N   0  0  0  0  0  0  0  0  0  0  0  0
    0.8200   -0.8150    2.4510 C   0  0  1  0  0  0  0  0  0  0  0  0
    0.8250   -2.3270    2.4160 C   0  0  0  0  0  0  0  0  0  0  0  0
    1.8160   -2.7820    3.4450 C   0  0  0  0  0  0  0  0  0  0  0  0
    1.5450   -3.0530    4.7830 C   0  0  0  0  0  0  0  0  0  0  0  0
    2.6720   -3.4370    5.4040 N   0  0  0  0  0  0  0  0  0  0  0  0
    3.6340   -3.4080    4.4700 C   0  0  0  0  0  0  0  0  0  0  0  0
    3.1270   -3.0160    3.2950 N   0  0  0  0  0  0  0  0  0  0  0  0
   -0.1530   -0.2410    1.4960 C   0  0  0  0  0  0  0  0  0  0  0  0
   -1.0990    0.4550    1.9310 O   0  0  0  0  0  0  0  0  0  0  0  0
   -0.3480    0.2690    3.7470 H   0  0  0  0  0  0  0  0  0  0  0  0
    1.2380    0.0850    4.2390 H   0  0  0  0  0  0  0  0  0  0  0  0
    1.8590   -0.4790    2.2060 H   0  0  0  0  0  0  0  0  0  0  0  0
    1.1980   -2.6790    1.4290 H   0  0  0  0  0  0  0  0  0  0  0  0
   -0.1800   -2.7120    2.5960 H   0  0  0  0  0  0  0  0  0  0  0  0
    0.5630   -2.9630    5.2470 H   0  0  0  0  0  0  0  0  0  0  0  0
    2.7780   -3.7030    6.4060 H   0  0  0  0  0  0  0  0  0  0  0  0
    4.6740   -3.6790    4.7010 H   0  0  0  0  0  0  0  0  0  0  0  0
   -0.0790   -0.4360    0.0790 N   0  0  0  0  0  0  0  0  0  0  0  0
   -1.0510    0.1420   -0.8280 C   0  0  1  0  0  0  0  0  0  0  0  0
   -0.3090    1.0780   -1.7570 C   0  0  0  0  0  0  0  0  0  0  0  0
    0.3510    2.1290   -0.9480 C   0  0  0  0  0  0  0  0  0  0  0  0
    1.7000    2.2540   -0.6220 C   0  0  0  0  0  0  0  0  0  0  0  0
    1.8810    3.3470    0.1240 N   0  0  0  0  0  0  0  0  0  0  0  0
    0.7070    3.9680    0.3150 C   0  0  0  0  0  0  0  0  0  0  0  0
    0.3630    5.1150    1.0010 C   0  0  0  0  0  0  0  0  0  0  0  0
   -0.9480    5.5160    1.0260 C   0  0  0  0  0  0  0  0  0  0  0  0
   -1.9000    4.7720    0.3680 C   0  0  0  0  0  0  0  0  0  0  0  0
   -1.5720    3.6260   -0.3210 C   0  0  0  0  0  0  0  0  0  0  0  0
   -0.2610    3.2080   -0.3570 C   0  0  0  0  0  0  0  0  0  0  0  0
   -1.7050   -0.9150   -1.6570 C   0  0  0  0  0  0  0  0  0  0  0  0
   -2.5760   -0.6000   -2.4990 O   0  0  0  0  0  0  0  0  0  0  0  0
    0.7150   -1.0170   -0.2570 H   0  0  0  0  0  0  0  0  0  0  0  0
   -1.8080    0.7490   -0.2940 H   0  0  0  0  0  0  0  0  0  0  0  0
    0.4470    0.4690   -2.3210 H   0  0  0  0  0  0  0  0  0  0  0  0
   -0.9790    1.5000   -2.5320 H   0  0  0  0  0  0  0  0  0  0  0  0
    2.4160    1.5070   -0.9770 H   0  0  0  0  0  0  0  0  0  0  0  0
    2.7860    3.6690    0.4990 H   0  0  0  0  0  0  0  0  0  0  0  0
    1.1130    5.6900    1.5130 H   0  0  0  0  0  0  0  0  0  0  0  0
   -1.2480    6.4250    1.5660 H   0  0  0  0  0  0  0  0  0  0  0  0
   -2.9330    5.0930    0.3910 H   0  0  0  0  0  0  0  0  0  0  0  0
   -2.3040    3.0280   -0.8460 H   0  0  0  0  0  0  0  0  0  0  0  0
    0.2790   -4.4650   -1.9660 C   0  0  0  0  0  0  0  0  0  0  0  0
   -0.7870   -4.0760   -2.9530 C   0  0  1  0  0  0  0  0  0  0  0  0
   -1.2300   -5.1350   -3.7280 O   0  0  0  0  0  0  0  0  0  0  0  0
   -1.9430   -3.3600   -2.2730 C   0  0  2  0  0  0  0  0  0  0  0  0
   -1.3480   -2.2770   -1.5000 N   0  0  0  0  0  0  0  0  0  0  0  0
   -2.6000   -4.3540   -1.3760 C   0  0  0  0  0  0  0  0  0  0  0  0
   -3.1470   -5.3420   -1.9060 O   0  0  0  0  0  0  0  0  0  0  0  0
   -2.6210   -4.2190   -0.0110 O   0  0  0  0  0  0  0  0  0  0  0  0
    0.8180   -5.3900   -2.2710 H   0  0  0  0  0  0  0  0  0  0  0  0
   -0.1680   -4.6770   -0.9630 H   0  0  0  0  0  0  0  0  0  0  0  0
    1.0600   -3.6830   -1.8220 H   0  0  0  0  0  0  0  0  0  0  0  0
   -0.3210   -3.2990   -3.6270 H   0  0  0  0  0  0  0  0  0  0  0  0
   -2.0120   -4.8180   -4.2430 H   0  0  0  0  0  0  0  0  0  0  0  0
   -2.6870   -3.0000   -2.9850 H   0  0  0  0  0  0  0  0  0  0  0  0
   -0.6190   -2.4910   -0.7860 H   0  0  0  0  0  0  0  0  0  0  0  0
  1 12  1  0  0  0  0
  2 13  1  6  0  0  0
  2  1  1  0  0  0  0
  3  2  1  0  0  0  0
  3 15  1  0  0  0  0
  3  4  1  0  0  0  0
  4  5  2  0  0  0  0
  5 16  1  0  0  0  0
  5  6  1  0  0  0  0
  6 17  1  0  0  0  0
  7 18  1  0  0  0  0
  7  6  1  0  0  0  0
  8  4  1  0  0  0  0
  8  7  2  0  0  0  0
  9 10  2  0  0  0  0
  9  2  1  0  0  0  0
 11  1  1  0  0  0  0
 14  3  1  0  0  0  0
 19  9  1  0  0  0  0
 20 34  1  1  0  0  0
 20 19  1  0  0  0  0
 21 22  1  0  0  0  0
 21 20  1  0  0  0  0
 22 23  2  0  0  0  0
 22 30  1  0  0  0  0
 23 24  1  0  0  0  0
 24 25  1  0  0  0  0
 24 38  1  0  0  0  0
 25 26  1  0  0  0  0
 26 27  2  0  0  0  0
 26 39  1  0  0  0  0
 27 40  1  0  0  0  0
 28 41  1  0  0  0  0
 28 27  1  0  0  0  0
 29 28  2  0  0  0  0
 30 29  1  0  0  0  0
 30 25  2  0  0  0  0
 31 47  1  0  0  0  0
 31 20  1  0  0  0  0
 32 31  2  0  0  0  0
 33 19  1  0  0  0  0
 35 21  1  0  0  0  0
 36 21  1  0  0  0  0
 37 23  1  0  0  0  0
 42 29  1  0  0  0  0
 43 53  1  0  0  0  0
 43 52  1  0  0  0  0
 44 54  1  6  0  0  0
 44 46  1  0  0  0  0
 44 43  1  0  0  0  0
 45 44  1  0  0  0  0
 46 56  1  6  0  0  0
 46 47  1  0  0  0  0
 46 48  1  0  0  0  0
 47 57  1  0  0  0  0
 48 50  1  0  0  0  0
 49 48  2  0  0  0  0
 51 43  1  0  0  0  0
 55 45  1  0  0  0  0
M  END
$$$$
