HWV.pdb
 OpenBabel07022418393D

 59 61  0  0  1  0  0  0  0  0999 V2000
   -0.9730   -0.0600    3.8600 N   0  0  0  0  0  0  0  0  0  0  0  0
   -0.0270   -0.2930    2.7860 C   0  0  1  0  0  0  0  0  0  0  0  0
    0.5460   -1.6800    2.9820 C   0  0  0  0  0  0  0  0  0  0  0  0
    1.2070   -1.6670    4.3190 C   0  0  0  0  0  0  0  0  0  0  0  0
    0.6140   -1.9880    5.5220 C   0  0  0  0  0  0  0  0  0  0  0  0
    1.5040   -1.8670    6.5190 N   0  0  0  0  0  0  0  0  0  0  0  0
    2.6540   -1.4740    5.9620 C   0  0  0  0  0  0  0  0  0  0  0  0
    2.4750   -1.3540    4.6370 N   0  0  0  0  0  0  0  0  0  0  0  0
   -0.7500   -0.1470    1.5040 C   0  0  0  0  0  0  0  0  0  0  0  0
   -1.9620    0.1490    1.5050 O   0  0  0  0  0  0  0  0  0  0  0  0
   -1.6090   -0.9140    3.8620 H   0  0  0  0  0  0  0  0  0  0  0  0
   -1.6140    0.7370    3.6050 H   0  0  0  0  0  0  0  0  0  0  0  0
    0.8370    0.4070    2.8410 H   0  0  0  0  0  0  0  0  0  0  0  0
    1.2860   -1.9480    2.2060 H   0  0  0  0  0  0  0  0  0  0  0  0
   -0.2370   -2.4650    2.9930 H   0  0  0  0  0  0  0  0  0  0  0  0
   -0.4140   -2.2970    5.6870 H   0  0  0  0  0  0  0  0  0  0  0  0
    1.3250   -2.0470    7.5310 H   0  0  0  0  0  0  0  0  0  0  0  0
    3.5630   -1.2940    6.5430 H   0  0  0  0  0  0  0  0  0  0  0  0
   -0.1290   -0.3280    0.2360 N   0  0  0  0  0  0  0  0  0  0  0  0
   -0.8840   -0.1710   -1.0130 C   0  0  1  0  0  0  0  0  0  0  0  0
   -0.2390    0.9920   -1.7570 C   0  0  0  0  0  0  0  0  0  0  0  0
   -0.2970    2.2380   -0.9570 C   0  0  0  0  0  0  0  0  0  0  0  0
    0.7460    2.8220   -0.2660 C   0  0  0  0  0  0  0  0  0  0  0  0
    0.3070    3.9390    0.3370 N   0  0  0  0  0  0  0  0  0  0  0  0
   -0.9980    4.1240    0.0720 C   0  0  0  0  0  0  0  0  0  0  0  0
   -1.9180    5.1120    0.4480 C   0  0  0  0  0  0  0  0  0  0  0  0
   -3.2140    4.9970   -0.0100 C   0  0  0  0  0  0  0  0  0  0  0  0
   -3.5660    3.9370   -0.8090 C   0  0  0  0  0  0  0  0  0  0  0  0
   -2.6740    2.9590   -1.1870 C   0  0  0  0  0  0  0  0  0  0  0  0
   -1.3740    3.0660   -0.7330 C   0  0  0  0  0  0  0  0  0  0  0  0
   -0.8040   -1.4170   -1.8180 C   0  0  0  0  0  0  0  0  0  0  0  0
   -1.3880   -1.4640   -2.9280 O   0  0  0  0  0  0  0  0  0  0  0  0
    0.8810   -0.5760    0.2350 H   0  0  0  0  0  0  0  0  0  0  0  0
   -1.9330    0.1140   -0.7990 H   0  0  0  0  0  0  0  0  0  0  0  0
   -0.7460    1.1370   -2.7480 H   0  0  0  0  0  0  0  0  0  0  0  0
    0.8220    0.7600   -2.0110 H   0  0  0  0  0  0  0  0  0  0  0  0
    1.7360    2.3950   -0.2530 H   0  0  0  0  0  0  0  0  0  0  0  0
    0.8750    4.5830    0.9270 H   0  0  0  0  0  0  0  0  0  0  0  0
   -1.5680    5.9080    1.0740 H   0  0  0  0  0  0  0  0  0  0  0  0
   -3.9170    5.7740    0.2930 H   0  0  0  0  0  0  0  0  0  0  0  0
   -4.5800    3.8720   -1.1510 H   0  0  0  0  0  0  0  0  0  0  0  0
   -2.9370    2.1210   -1.8140 H   0  0  0  0  0  0  0  0  0  0  0  0
    2.1720   -4.3500   -1.1590 C   0  0  0  0  0  0  0  0  0  0  0  0
    1.4340   -4.1360   -2.4610 C   0  0  0  0  0  0  0  0  0  0  0  0
    1.6550   -5.2960   -3.3610 C   0  0  0  0  0  0  0  0  0  0  0  0
   -0.0130   -3.8010   -2.1880 C   0  0  2  0  0  0  0  0  0  0  0  0
   -0.0930   -2.5640   -1.3890 N   0  0  0  0  0  0  0  0  0  0  0  0
   -0.6000   -4.8600   -1.3230 C   0  0  0  0  0  0  0  0  0  0  0  0
   -1.0230   -4.6200   -0.1370 O   0  0  0  0  0  0  0  0  0  0  0  0
   -0.7450   -6.1860   -1.7110 O   0  0  0  0  0  0  0  0  0  0  0  0
    3.0310   -5.0180   -1.3640 H   0  0  0  0  0  0  0  0  0  0  0  0
    1.5070   -4.9040   -0.4550 H   0  0  0  0  0  0  0  0  0  0  0  0
    2.4940   -3.3690   -0.7100 H   0  0  0  0  0  0  0  0  0  0  0  0
    1.8650   -3.2100   -2.9250 H   0  0  0  0  0  0  0  0  0  0  0  0
    2.7480   -5.5680   -3.2720 H   0  0  0  0  0  0  0  0  0  0  0  0
    1.1030   -6.1830   -3.0650 H   0  0  0  0  0  0  0  0  0  0  0  0
    1.5130   -5.0570   -4.4390 H   0  0  0  0  0  0  0  0  0  0  0  0
   -0.5860   -3.6150   -3.1080 H   0  0  0  0  0  0  0  0  0  0  0  0
    0.4010   -2.5530   -0.4730 H   0  0  0  0  0  0  0  0  0  0  0  0
  1 11  1  0  0  0  0
  2 13  1  1  0  0  0
  2  3  1  0  0  0  0
  2  1  1  0  0  0  0
  3 15  1  0  0  0  0
  3  4  1  0  0  0  0
  4  8  1  0  0  0  0
  4  5  2  0  0  0  0
  5 16  1  0  0  0  0
  5  6  1  0  0  0  0
  6 17  1  0  0  0  0
  7  6  1  0  0  0  0
  7 18  1  0  0  0  0
  8  7  2  0  0  0  0
  9 10  2  0  0  0  0
  9  2  1  0  0  0  0
 12  1  1  0  0  0  0
 14  3  1  0  0  0  0
 19  9  1  0  0  0  0
 20 34  1  1  0  0  0
 20 19  1  0  0  0  0
 21 20  1  0  0  0  0
 21 22  1  0  0  0  0
 22 30  1  0  0  0  0
 22 23  2  0  0  0  0
 23 37  1  0  0  0  0
 23 24  1  0  0  0  0
 24 38  1  0  0  0  0
 25 24  1  0  0  0  0
 25 26  1  0  0  0  0
 26 39  1  0  0  0  0
 27 40  1  0  0  0  0
 27 26  2  0  0  0  0
 28 27  1  0  0  0  0
 29 28  2  0  0  0  0
 29 30  1  0  0  0  0
 30 25  2  0  0  0  0
 31 47  1  0  0  0  0
 31 20  1  0  0  0  0
 32 31  2  0  0  0  0
 33 19  1  0  0  0  0
 35 21  1  0  0  0  0
 36 21  1  0  0  0  0
 41 28  1  0  0  0  0
 42 29  1  0  0  0  0
 43 53  1  0  0  0  0
 43 52  1  0  0  0  0
 44 46  1  0  0  0  0
 44 43  1  0  0  0  0
 45 55  1  0  0  0  0
 45 56  1  0  0  0  0
 45 44  1  0  0  0  0
 46 58  1  6  0  0  0
 46 47  1  0  0  0  0
 46 48  1  0  0  0  0
 47 59  1  0  0  0  0
 48 49  1  0  0  0  0
 50 48  2  0  0  0  0
 51 43  1  0  0  0  0
 54 44  1  0  0  0  0
 57 45  1  0  0  0  0
M  END
$$$$
