HWW.pdb
 OpenBabel07022418393D

 67 71  0  0  1  0  0  0  0  0999 V2000
    5.1300   -0.5900   -0.9630 N   0  0  0  0  0  0  0  0  0  0  0  0
    4.1200   -1.5450   -1.3230 C   0  0  1  0  0  0  0  0  0  0  0  0
    4.2450   -2.7600   -0.4710 C   0  0  0  0  0  0  0  0  0  0  0  0
    4.1010   -2.5150    0.9790 C   0  0  0  0  0  0  0  0  0  0  0  0
    4.1800   -3.5170    1.9320 C   0  0  0  0  0  0  0  0  0  0  0  0
    4.0010   -2.9130    3.1340 N   0  0  0  0  0  0  0  0  0  0  0  0
    3.8180   -1.6040    2.9600 C   0  0  0  0  0  0  0  0  0  0  0  0
    3.8830   -1.3890    1.6420 N   0  0  0  0  0  0  0  0  0  0  0  0
    2.7850   -0.8890   -1.2740 C   0  0  0  0  0  0  0  0  0  0  0  0
    2.6990    0.3400   -1.0300 O   0  0  0  0  0  0  0  0  0  0  0  0
    4.7370    0.3620   -1.1300 H   0  0  0  0  0  0  0  0  0  0  0  0
    5.4770   -0.7390    0.0070 H   0  0  0  0  0  0  0  0  0  0  0  0
    4.3590   -1.8630   -2.3830 H   0  0  0  0  0  0  0  0  0  0  0  0
    3.5660   -3.5830   -0.7920 H   0  0  0  0  0  0  0  0  0  0  0  0
    5.2840   -3.1830   -0.6000 H   0  0  0  0  0  0  0  0  0  0  0  0
    4.3480   -4.5830    1.8160 H   0  0  0  0  0  0  0  0  0  0  0  0
    4.0140   -3.4510    4.0520 H   0  0  0  0  0  0  0  0  0  0  0  0
    3.6540   -0.8690    3.7080 H   0  0  0  0  0  0  0  0  0  0  0  0
    1.5900   -1.6060   -1.4910 N   0  0  0  0  0  0  0  0  0  0  0  0
    0.2670   -0.9230   -1.4400 C   0  0  1  0  0  0  0  0  0  0  0  0
   -0.4380   -1.1150   -2.7130 C   0  0  0  0  0  0  0  0  0  0  0  0
   -1.7740   -0.5430   -2.8530 C   0  0  0  0  0  0  0  0  0  0  0  0
   -2.0480    0.7920   -3.1680 C   0  0  0  0  0  0  0  0  0  0  0  0
   -3.3770    0.9250   -3.1450 N   0  0  0  0  0  0  0  0  0  0  0  0
   -3.9650   -0.2440   -2.8350 C   0  0  0  0  0  0  0  0  0  0  0  0
   -5.2920   -0.6400   -2.7090 C   0  0  0  0  0  0  0  0  0  0  0  0
   -5.5710   -1.9580   -2.4020 C   0  0  0  0  0  0  0  0  0  0  0  0
   -4.5980   -2.9080   -2.2140 C   0  0  0  0  0  0  0  0  0  0  0  0
   -3.2860   -2.5110   -2.3380 C   0  0  0  0  0  0  0  0  0  0  0  0
   -2.9910   -1.1990   -2.6430 C   0  0  0  0  0  0  0  0  0  0  0  0
   -0.2770   -1.2250   -0.1380 C   0  0  0  0  0  0  0  0  0  0  0  0
    0.4060   -2.0020    0.6630 O   0  0  0  0  0  0  0  0  0  0  0  0
    1.5650   -2.6160   -1.6930 H   0  0  0  0  0  0  0  0  0  0  0  0
    0.5760    0.2020   -1.4510 H   0  0  0  0  0  0  0  0  0  0  0  0
    0.1940   -0.5870   -3.5170 H   0  0  0  0  0  0  0  0  0  0  0  0
   -0.4650   -2.2160   -3.0080 H   0  0  0  0  0  0  0  0  0  0  0  0
   -1.3160    1.5740   -3.3920 H   0  0  0  0  0  0  0  0  0  0  0  0
   -3.9410    1.7970   -3.3360 H   0  0  0  0  0  0  0  0  0  0  0  0
   -6.0590    0.1080   -2.8550 H   0  0  0  0  0  0  0  0  0  0  0  0
   -6.6140   -2.2550   -2.3080 H   0  0  0  0  0  0  0  0  0  0  0  0
   -4.8490   -3.9490   -1.9720 H   0  0  0  0  0  0  0  0  0  0  0  0
   -2.4500   -3.1920   -2.2080 H   0  0  0  0  0  0  0  0  0  0  0  0
   -1.5160   -0.7460    0.4130 N   0  0  0  0  0  0  0  0  0  0  0  0
   -1.8550   -1.0910    1.7690 C   0  0  1  0  0  0  0  0  0  0  0  0
   -2.5120    0.0730    2.4880 C   0  0  0  0  0  0  0  0  0  0  0  0
   -1.6370    1.2650    2.5270 C   0  0  0  0  0  0  0  0  0  0  0  0
   -1.8190    2.3850    1.7200 C   0  0  0  0  0  0  0  0  0  0  0  0
   -0.8380    3.2320    2.0510 N   0  0  0  0  0  0  0  0  0  0  0  0
   -0.0470    2.7130    3.0180 C   0  0  0  0  0  0  0  0  0  0  0  0
    1.0670    3.1570    3.6940 C   0  0  0  0  0  0  0  0  0  0  0  0
    1.6920    2.4000    4.6600 C   0  0  0  0  0  0  0  0  0  0  0  0
    1.2090    1.1330    4.9920 C   0  0  0  0  0  0  0  0  0  0  0  0
    0.0980    0.7000    4.3130 C   0  0  0  0  0  0  0  0  0  0  0  0
   -0.5410    1.4650    3.3310 C   0  0  0  0  0  0  0  0  0  0  0  0
   -2.7720   -2.2400    1.8310 C   0  0  0  0  0  0  0  0  0  0  0  0
   -3.1960   -2.6930    2.9470 O   0  0  0  0  0  0  0  0  0  0  0  0
   -3.2210   -2.8830    0.7160 O   0  0  0  0  0  0  0  0  0  0  0  0
   -2.1030   -0.1570   -0.2040 H   0  0  0  0  0  0  0  0  0  0  0  0
   -0.9250   -1.4410    2.3010 H   0  0  0  0  0  0  0  0  0  0  0  0
   -2.6880   -0.2750    3.5460 H   0  0  0  0  0  0  0  0  0  0  0  0
   -3.4940    0.3390    2.0780 H   0  0  0  0  0  0  0  0  0  0  0  0
   -2.6170    2.5180    0.9690 H   0  0  0  0  0  0  0  0  0  0  0  0
   -0.6910    4.1910    1.6150 H   0  0  0  0  0  0  0  0  0  0  0  0
    1.4870    4.1310    3.4790 H   0  0  0  0  0  0  0  0  0  0  0  0
    2.5660    2.7780    5.1740 H   0  0  0  0  0  0  0  0  0  0  0  0
    1.7160    0.5580    5.7520 H   0  0  0  0  0  0  0  0  0  0  0  0
   -0.3180   -0.2890    4.5420 H   0  0  0  0  0  0  0  0  0  0  0  0
  1 12  1  0  0  0  0
  2 13  1  6  0  0  0
  2  9  1  0  0  0  0
  2  1  1  0  0  0  0
  2  3  1  0  0  0  0
  3  4  1  0  0  0  0
  4  8  1  0  0  0  0
  4  5  2  0  0  0  0
  5  6  1  0  0  0  0
  6 17  1  0  0  0  0
  7  6  1  0  0  0  0
  7 18  1  0  0  0  0
  8  7  2  0  0  0  0
  9 10  2  0  0  0  0
 11  1  1  0  0  0  0
 14  3  1  0  0  0  0
 15  3  1  0  0  0  0
 16  5  1  0  0  0  0
 19 20  1  0  0  0  0
 19  9  1  0  0  0  0
 20 34  1  1  0  0  0
 20 31  1  0  0  0  0
 21 20  1  0  0  0  0
 22 21  1  0  0  0  0
 22 30  1  0  0  0  0
 23 24  1  0  0  0  0
 23 22  2  0  0  0  0
 24 25  1  0  0  0  0
 25 26  2  0  0  0  0
 25 30  1  0  0  0  0
 26 27  1  0  0  0  0
 27 40  1  0  0  0  0
 27 28  2  0  0  0  0
 28 41  1  0  0  0  0
 29 28  1  0  0  0  0
 29 42  1  0  0  0  0
 30 29  2  0  0  0  0
 31 43  1  0  0  0  0
 31 32  2  0  0  0  0
 33 19  1  0  0  0  0
 35 21  1  0  0  0  0
 36 21  1  0  0  0  0
 37 23  1  0  0  0  0
 38 24  1  0  0  0  0
 39 26  1  0  0  0  0
 43 44  1  0  0  0  0
 44 55  1  0  0  0  0
 44 59  1  1  0  0  0
 44 45  1  0  0  0  0
 45 46  1  0  0  0  0
 45 60  1  0  0  0  0
 46 54  1  0  0  0  0
 47 48  1  0  0  0  0
 47 46  2  0  0  0  0
 48 49  1  0  0  0  0
 49 54  2  0  0  0  0
 49 50  1  0  0  0  0
 50 51  2  0  0  0  0
 51 52  1  0  0  0  0
 51 65  1  0  0  0  0
 52 66  1  0  0  0  0
 53 67  1  0  0  0  0
 53 52  2  0  0  0  0
 54 53  1  0  0  0  0
 55 56  1  0  0  0  0
 57 55  2  0  0  0  0
 58 43  1  0  0  0  0
 61 45  1  0  0  0  0
 62 47  1  0  0  0  0
 63 48  1  0  0  0  0
 64 50  1  0  0  0  0
M  END
$$$$
