HWY.pdb
 OpenBabel07022418393D

 64 67  0  0  1  0  0  0  0  0999 V2000
    3.3650    1.9850    3.7160 N   0  0  0  0  0  0  0  0  0  0  0  0
    3.4170    2.1210    2.2800 C   0  0  1  0  0  0  0  0  0  0  0  0
    4.5190    1.2610    1.7680 C   0  0  0  0  0  0  0  0  0  0  0  0
    4.4000   -0.1690    2.0590 C   0  0  0  0  0  0  0  0  0  0  0  0
    4.8800   -0.8600    3.1770 C   0  0  0  0  0  0  0  0  0  0  0  0
    4.5700   -2.1590    3.0770 N   0  0  0  0  0  0  0  0  0  0  0  0
    3.9040   -2.2990    1.9180 C   0  0  0  0  0  0  0  0  0  0  0  0
    3.8000   -1.1030    1.3030 N   0  0  0  0  0  0  0  0  0  0  0  0
    2.0840    1.8470    1.6810 C   0  0  0  0  0  0  0  0  0  0  0  0
    1.9450    1.9340    0.4280 O   0  0  0  0  0  0  0  0  0  0  0  0
    2.7280    2.6470    4.1730 H   0  0  0  0  0  0  0  0  0  0  0  0
    3.1890    0.9800    3.9360 H   0  0  0  0  0  0  0  0  0  0  0  0
    3.7020    3.1810    2.0080 H   0  0  0  0  0  0  0  0  0  0  0  0
    5.4610    1.6190    2.2490 H   0  0  0  0  0  0  0  0  0  0  0  0
    4.7040    1.4180    0.6640 H   0  0  0  0  0  0  0  0  0  0  0  0
    5.4220   -0.4210    4.0040 H   0  0  0  0  0  0  0  0  0  0  0  0
    4.7660   -2.9590    3.7180 H   0  0  0  0  0  0  0  0  0  0  0  0
    3.5060   -3.2470    1.5340 H   0  0  0  0  0  0  0  0  0  0  0  0
    1.0310    1.5010    2.5610 N   0  0  0  0  0  0  0  0  0  0  0  0
   -0.3180    1.2160    2.0670 C   0  0  1  0  0  0  0  0  0  0  0  0
   -0.8270    2.5270    1.5550 C   0  0  0  0  0  0  0  0  0  0  0  0
   -2.1750    2.5120    0.9650 C   0  0  0  0  0  0  0  0  0  0  0  0
   -3.3850    2.8130    1.5830 C   0  0  0  0  0  0  0  0  0  0  0  0
   -4.3680    2.6740    0.6880 N   0  0  0  0  0  0  0  0  0  0  0  0
   -3.8880    2.2940   -0.5070 C   0  0  0  0  0  0  0  0  0  0  0  0
   -4.4670    2.0420   -1.7360 C   0  0  0  0  0  0  0  0  0  0  0  0
   -3.7170    1.6820   -2.8320 C   0  0  0  0  0  0  0  0  0  0  0  0
   -2.3500    1.5830   -2.6490 C   0  0  0  0  0  0  0  0  0  0  0  0
   -1.7570    1.8310   -1.4300 C   0  0  0  0  0  0  0  0  0  0  0  0
   -2.5280    2.1890   -0.3510 C   0  0  0  0  0  0  0  0  0  0  0  0
   -0.2760    0.0930    1.1390 C   0  0  0  0  0  0  0  0  0  0  0  0
    0.8260   -0.3500    0.6570 O   0  0  0  0  0  0  0  0  0  0  0  0
    1.1780    1.4380    3.5920 H   0  0  0  0  0  0  0  0  0  0  0  0
   -0.9180    0.9100    2.9810 H   0  0  0  0  0  0  0  0  0  0  0  0
   -0.1250    2.8290    0.7120 H   0  0  0  0  0  0  0  0  0  0  0  0
   -0.7230    3.3310    2.3300 H   0  0  0  0  0  0  0  0  0  0  0  0
   -3.5310    3.1100    2.6080 H   0  0  0  0  0  0  0  0  0  0  0  0
   -5.4060    2.8280    0.8390 H   0  0  0  0  0  0  0  0  0  0  0  0
   -5.5320    2.1320   -1.8270 H   0  0  0  0  0  0  0  0  0  0  0  0
   -4.1420    1.4780   -3.8090 H   0  0  0  0  0  0  0  0  0  0  0  0
   -1.7220    1.3010   -3.4890 H   0  0  0  0  0  0  0  0  0  0  0  0
   -0.6730    1.7450   -1.3140 H   0  0  0  0  0  0  0  0  0  0  0  0
   -0.4220   -7.3030   -3.0970 O   0  0  0  0  0  0  0  0  0  0  0  0
   -0.6860   -6.2660   -2.2030 C   0  0  0  0  0  0  0  0  0  0  0  0
   -1.9720   -5.9290   -1.8290 C   0  0  0  0  0  0  0  0  0  0  0  0
   -2.1760   -4.8950   -0.9420 C   0  0  0  0  0  0  0  0  0  0  0  0
   -1.0860   -4.1890   -0.4220 C   0  0  0  0  0  0  0  0  0  0  0  0
   -1.2500   -3.0680    0.5250 C   0  0  0  0  0  0  0  0  0  0  0  0
   -1.2540   -1.7610   -0.2490 C   0  0  2  0  0  0  0  0  0  0  0  0
   -1.4150   -0.6420    0.6730 N   0  0  0  0  0  0  0  0  0  0  0  0
   -2.3760   -1.7960   -1.1940 C   0  0  0  0  0  0  0  0  0  0  0  0
   -2.4770   -2.5310   -2.2040 O   0  0  0  0  0  0  0  0  0  0  0  0
    0.2140   -4.5420   -0.8100 C   0  0  0  0  0  0  0  0  0  0  0  0
    0.4070   -5.5760   -1.6960 C   0  0  0  0  0  0  0  0  0  0  0  0
   -3.4800   -0.9400   -0.9890 O   0  0  0  0  0  0  0  0  0  0  0  0
    0.0170   -7.0550   -3.9900 H   0  0  0  0  0  0  0  0  0  0  0  0
   -2.8080   -6.4790   -2.2350 H   0  0  0  0  0  0  0  0  0  0  0  0
   -3.2000   -4.6310   -0.6390 H   0  0  0  0  0  0  0  0  0  0  0  0
   -0.4710   -3.1110    1.2880 H   0  0  0  0  0  0  0  0  0  0  0  0
   -2.2370   -3.1990    1.0220 H   0  0  0  0  0  0  0  0  0  0  0  0
   -0.2920   -1.7490   -0.7870 H   0  0  0  0  0  0  0  0  0  0  0  0
   -2.3470   -0.3500    1.0140 H   0  0  0  0  0  0  0  0  0  0  0  0
    1.0360   -3.9800   -0.3930 H   0  0  0  0  0  0  0  0  0  0  0  0
    1.4270   -5.8220   -1.9740 H   0  0  0  0  0  0  0  0  0  0  0  0
  1 12  1  0  0  0  0
  1 11  1  0  0  0  0
  2 13  1  6  0  0  0
  2  1  1  0  0  0  0
  3  4  1  0  0  0  0
  3 14  1  0  0  0  0
  3  2  1  0  0  0  0
  4  5  2  0  0  0  0
  5 16  1  0  0  0  0
  6  5  1  0  0  0  0
  6 17  1  0  0  0  0
  7  6  1  0  0  0  0
  8  7  2  0  0  0  0
  8  4  1  0  0  0  0
  9  2  1  0  0  0  0
  9 19  1  0  0  0  0
 10  9  2  0  0  0  0
 15  3  1  0  0  0  0
 18  7  1  0  0  0  0
 19 33  1  0  0  0  0
 20 19  1  0  0  0  0
 20 34  1  1  0  0  0
 21 20  1  0  0  0  0
 21 36  1  0  0  0  0
 22 21  1  0  0  0  0
 22 23  2  0  0  0  0
 23 37  1  0  0  0  0
 24 38  1  0  0  0  0
 24 23  1  0  0  0  0
 25 30  1  0  0  0  0
 25 24  1  0  0  0  0
 26 25  2  0  0  0  0
 27 28  2  0  0  0  0
 27 26  1  0  0  0  0
 28 29  1  0  0  0  0
 29 42  1  0  0  0  0
 29 30  2  0  0  0  0
 30 22  1  0  0  0  0
 31 20  1  0  0  0  0
 32 31  2  0  0  0  0
 35 21  1  0  0  0  0
 39 26  1  0  0  0  0
 40 27  1  0  0  0  0
 41 28  1  0  0  0  0
 43 44  1  0  0  0  0
 44 45  2  0  0  0  0
 44 54  1  0  0  0  0
 45 46  1  0  0  0  0
 46 58  1  0  0  0  0
 46 47  2  0  0  0  0
 47 48  1  0  0  0  0
 48 60  1  0  0  0  0
 48 59  1  0  0  0  0
 49 61  1  6  0  0  0
 49 48  1  0  0  0  0
 49 50  1  0  0  0  0
 50 62  1  0  0  0  0
 50 31  1  0  0  0  0
 51 55  1  0  0  0  0
 51 49  1  0  0  0  0
 52 51  2  0  0  0  0
 53 47  1  0  0  0  0
 53 63  1  0  0  0  0
 54 53  2  0  0  0  0
 56 43  1  0  0  0  0
 57 45  1  0  0  0  0
 64 54  1  0  0  0  0
M  END
$$$$
