HYA.pdb
 OpenBabel07022418393D

 50 51  0  0  1  0  0  0  0  0999 V2000
    0.7800   -0.8010    3.5750 N   0  0  0  0  0  0  0  0  0  0  0  0
    1.5530   -0.7190    2.3320 C   0  0  1  0  0  0  0  0  0  0  0  0
    2.3490   -1.9660    2.1130 C   0  0  0  0  0  0  0  0  0  0  0  0
    3.1240   -1.8640    0.8630 C   0  0  0  0  0  0  0  0  0  0  0  0
    4.4080   -1.3410    0.7360 C   0  0  0  0  0  0  0  0  0  0  0  0
    4.8090   -1.4040   -0.5420 N   0  0  0  0  0  0  0  0  0  0  0  0
    3.7990   -1.9570   -1.2190 C   0  0  0  0  0  0  0  0  0  0  0  0
    2.7780   -2.2380   -0.3810 N   0  0  0  0  0  0  0  0  0  0  0  0
    0.6600   -0.4740    1.1800 C   0  0  0  0  0  0  0  0  0  0  0  0
    1.1500   -0.2620    0.0570 O   0  0  0  0  0  0  0  0  0  0  0  0
    1.2600   -1.4200    4.2680 H   0  0  0  0  0  0  0  0  0  0  0  0
    0.6280    0.1450    3.9860 H   0  0  0  0  0  0  0  0  0  0  0  0
    2.2560    0.1430    2.4310 H   0  0  0  0  0  0  0  0  0  0  0  0
    2.9930   -2.1870    2.9940 H   0  0  0  0  0  0  0  0  0  0  0  0
    1.6190   -2.8130    2.0230 H   0  0  0  0  0  0  0  0  0  0  0  0
    4.9550   -0.9530    1.5960 H   0  0  0  0  0  0  0  0  0  0  0  0
    5.7260   -1.0800   -0.8990 H   0  0  0  0  0  0  0  0  0  0  0  0
    3.7860   -2.1570   -2.2880 H   0  0  0  0  0  0  0  0  0  0  0  0
   -2.3990    5.1650    3.4110 O   0  0  0  0  0  0  0  0  0  0  0  0
   -2.1010    4.1700    2.4730 C   0  0  0  0  0  0  0  0  0  0  0  0
   -0.8250    3.6710    2.3240 C   0  0  0  0  0  0  0  0  0  0  0  0
   -0.5570    2.6760    1.3780 C   0  0  0  0  0  0  0  0  0  0  0  0
   -1.5410    2.1620    0.5700 C   0  0  0  0  0  0  0  0  0  0  0  0
   -1.3250    1.1020   -0.4390 C   0  0  0  0  0  0  0  0  0  0  0  0
   -1.6340   -0.2300    0.1870 C   0  0  2  0  0  0  0  0  0  0  0  0
   -0.7630   -0.4710    1.3080 N   0  0  0  0  0  0  0  0  0  0  0  0
   -1.6960   -1.3520   -0.7470 C   0  0  0  0  0  0  0  0  0  0  0  0
   -2.3670   -1.3930   -1.7910 O   0  0  0  0  0  0  0  0  0  0  0  0
   -2.8240    2.6880    0.7440 C   0  0  0  0  0  0  0  0  0  0  0  0
   -3.1020    3.6680    1.6730 C   0  0  0  0  0  0  0  0  0  0  0  0
   -3.3440    5.2650    3.7510 H   0  0  0  0  0  0  0  0  0  0  0  0
   -0.0250    4.0630    2.9540 H   0  0  0  0  0  0  0  0  0  0  0  0
    0.4570    2.3470    1.3140 H   0  0  0  0  0  0  0  0  0  0  0  0
   -2.0930    1.2970   -1.2480 H   0  0  0  0  0  0  0  0  0  0  0  0
   -0.3570    1.1730   -0.9420 H   0  0  0  0  0  0  0  0  0  0  0  0
   -2.6840   -0.0820    0.6130 H   0  0  0  0  0  0  0  0  0  0  0  0
   -1.1960   -0.6550    2.2700 H   0  0  0  0  0  0  0  0  0  0  0  0
   -3.6360    2.3180    0.1330 H   0  0  0  0  0  0  0  0  0  0  0  0
   -4.1070    4.0640    1.7940 H   0  0  0  0  0  0  0  0  0  0  0  0
    0.4300   -3.9610   -1.9260 C   0  0  0  0  0  0  0  0  0  0  0  0
   -0.9250   -3.6760   -1.3190 C   0  0  2  0  0  0  0  0  0  0  0  0
   -0.9210   -2.5220   -0.4510 N   0  0  0  0  0  0  0  0  0  0  0  0
   -1.4960   -4.8720   -0.6490 C   0  0  0  0  0  0  0  0  0  0  0  0
   -1.5750   -5.9590   -1.2560 O   0  0  0  0  0  0  0  0  0  0  0  0
   -1.9300   -4.7190    0.6640 O   0  0  0  0  0  0  0  0  0  0  0  0
    0.7540   -3.0350   -2.4420 H   0  0  0  0  0  0  0  0  0  0  0  0
    1.1530   -4.3630   -1.2140 H   0  0  0  0  0  0  0  0  0  0  0  0
    0.2690   -4.7470   -2.7030 H   0  0  0  0  0  0  0  0  0  0  0  0
   -1.6040   -3.4450   -2.1690 H   0  0  0  0  0  0  0  0  0  0  0  0
   -0.3170   -2.5960    0.4060 H   0  0  0  0  0  0  0  0  0  0  0  0
  1 12  1  0  0  0  0
  1 11  1  0  0  0  0
  2 13  1  1  0  0  0
  2  1  1  0  0  0  0
  3  2  1  0  0  0  0
  3 14  1  0  0  0  0
  4  3  1  0  0  0  0
  5  4  2  0  0  0  0
  5 16  1  0  0  0  0
  6  5  1  0  0  0  0
  7  6  1  0  0  0  0
  7  8  2  0  0  0  0
  8  4  1  0  0  0  0
  9 26  1  0  0  0  0
  9  2  1  0  0  0  0
 10  9  2  0  0  0  0
 15  3  1  0  0  0  0
 17  6  1  0  0  0  0
 18  7  1  0  0  0  0
 19 31  1  0  0  0  0
 20 19  1  0  0  0  0
 21 20  1  0  0  0  0
 21 32  1  0  0  0  0
 22 21  2  0  0  0  0
 23 29  2  0  0  0  0
 23 22  1  0  0  0  0
 24 25  1  0  0  0  0
 24 23  1  0  0  0  0
 25 36  1  1  0  0  0
 25 26  1  0  0  0  0
 26 37  1  0  0  0  0
 27 42  1  0  0  0  0
 27 25  1  0  0  0  0
 28 27  2  0  0  0  0
 29 30  1  0  0  0  0
 30 39  1  0  0  0  0
 30 20  2  0  0  0  0
 33 22  1  0  0  0  0
 34 24  1  0  0  0  0
 35 24  1  0  0  0  0
 38 29  1  0  0  0  0
 40 41  1  0  0  0  0
 40 47  1  0  0  0  0
 41 49  1  6  0  0  0
 41 43  1  0  0  0  0
 41 42  1  0  0  0  0
 42 50  1  0  0  0  0
 43 45  1  0  0  0  0
 44 43  2  0  0  0  0
 46 40  1  0  0  0  0
 48 40  1  0  0  0  0
M  END
$$$$
