HYD.pdb
 OpenBabel07022418393D

 53 54  0  0  1  0  0  0  0  0999 V2000
    1.2740   -0.7170    3.5650 N   0  0  0  0  0  0  0  0  0  0  0  0
    1.4920   -0.3400    2.2000 C   0  0  1  0  0  0  0  0  0  0  0  0
    2.5080   -1.2700    1.5500 C   0  0  0  0  0  0  0  0  0  0  0  0
    3.7690   -1.1550    2.3230 C   0  0  0  0  0  0  0  0  0  0  0  0
    4.1520   -1.9170    3.4200 C   0  0  0  0  0  0  0  0  0  0  0  0
    5.3690   -1.5020    3.8330 N   0  0  0  0  0  0  0  0  0  0  0  0
    5.7410   -0.5050    3.0160 C   0  0  0  0  0  0  0  0  0  0  0  0
    4.7820   -0.3010    2.1160 N   0  0  0  0  0  0  0  0  0  0  0  0
    0.2310   -0.3120    1.4100 C   0  0  0  0  0  0  0  0  0  0  0  0
    0.3080   -0.0180    0.2160 O   0  0  0  0  0  0  0  0  0  0  0  0
    2.1160   -0.4080    4.1370 H   0  0  0  0  0  0  0  0  0  0  0  0
    1.1370   -1.7500    3.6490 H   0  0  0  0  0  0  0  0  0  0  0  0
    1.9290    0.6770    2.1720 H   0  0  0  0  0  0  0  0  0  0  0  0
    2.6990   -1.0040    0.5040 H   0  0  0  0  0  0  0  0  0  0  0  0
    2.1890   -2.3390    1.6310 H   0  0  0  0  0  0  0  0  0  0  0  0
    3.5450   -2.6980    3.8340 H   0  0  0  0  0  0  0  0  0  0  0  0
    5.8590   -1.9290    4.6440 H   0  0  0  0  0  0  0  0  0  0  0  0
    6.6760    0.0250    3.1060 H   0  0  0  0  0  0  0  0  0  0  0  0
    0.2330    4.6580   -1.5660 O   0  0  0  0  0  0  0  0  0  0  0  0
   -0.5230    3.6900   -0.9300 C   0  0  0  0  0  0  0  0  0  0  0  0
   -0.4750    3.5870    0.4490 C   0  0  0  0  0  0  0  0  0  0  0  0
   -1.2170    2.6330    1.1060 C   0  0  0  0  0  0  0  0  0  0  0  0
   -2.0280    1.7580    0.3890 C   0  0  0  0  0  0  0  0  0  0  0  0
   -2.8230    0.7440    1.0660 C   0  0  0  0  0  0  0  0  0  0  0  0
   -2.2350   -0.5970    1.2440 C   0  0  2  0  0  0  0  0  0  0  0  0
   -1.0320   -0.6100    1.9820 N   0  0  0  0  0  0  0  0  0  0  0  0
   -2.2890   -1.4890    0.0510 C   0  0  0  0  0  0  0  0  0  0  0  0
   -3.2380   -1.3670   -0.7290 O   0  0  0  0  0  0  0  0  0  0  0  0
   -2.0760    1.8610   -0.9860 C   0  0  0  0  0  0  0  0  0  0  0  0
   -1.3230    2.8290   -1.6560 C   0  0  0  0  0  0  0  0  0  0  0  0
   -0.0050    4.9100   -2.5160 H   0  0  0  0  0  0  0  0  0  0  0  0
    0.1550    4.2640    1.0260 H   0  0  0  0  0  0  0  0  0  0  0  0
   -1.1520    2.5850    2.1850 H   0  0  0  0  0  0  0  0  0  0  0  0
   -3.8590    0.6680    0.6120 H   0  0  0  0  0  0  0  0  0  0  0  0
   -3.0550    1.1410    2.1040 H   0  0  0  0  0  0  0  0  0  0  0  0
   -2.9930   -1.1420    1.9520 H   0  0  0  0  0  0  0  0  0  0  0  0
   -1.0250   -0.8470    3.0240 H   0  0  0  0  0  0  0  0  0  0  0  0
   -2.6740    1.2300   -1.6250 H   0  0  0  0  0  0  0  0  0  0  0  0
   -1.3350    2.9410   -2.7270 H   0  0  0  0  0  0  0  0  0  0  0  0
   -1.2850   -2.4360   -0.1600 N   0  0  0  0  0  0  0  0  0  0  0  0
   -1.1190   -3.3940   -1.1840 C   0  0  1  0  0  0  0  0  0  0  0  0
   -2.1340   -3.3890   -2.3150 C   0  0  0  0  0  0  0  0  0  0  0  0
   -3.4960   -3.7450   -1.8810 C   0  0  0  0  0  0  0  0  0  0  0  0
   -3.7460   -4.2270   -0.7410 O   0  0  0  0  0  0  0  0  0  0  0  0
    0.1980   -3.6580   -1.6960 C   0  0  0  0  0  0  0  0  0  0  0  0
    1.2780   -3.1150   -1.3350 O   0  0  0  0  0  0  0  0  0  0  0  0
   -4.5790   -3.5620   -2.7240 O   0  0  0  0  0  0  0  0  0  0  0  0
    0.3520   -4.6160   -2.7070 O   0  0  0  0  0  0  0  0  0  0  0  0
   -0.4910   -2.4880    0.5930 H   0  0  0  0  0  0  0  0  0  0  0  0
   -1.4780   -4.3930   -0.6560 H   0  0  0  0  0  0  0  0  0  0  0  0
   -1.8110   -4.0460   -3.1460 H   0  0  0  0  0  0  0  0  0  0  0  0
   -2.2000   -2.3440   -2.7430 H   0  0  0  0  0  0  0  0  0  0  0  0
   -5.5190   -3.4990   -2.3050 H   0  0  0  0  0  0  0  0  0  0  0  0
  1 12  1  0  0  0  0
  1 11  1  0  0  0  0
  2 13  1  6  0  0  0
  2  1  1  0  0  0  0
  3 15  1  0  0  0  0
  3  2  1  0  0  0  0
  3  4  1  0  0  0  0
  4  5  2  0  0  0  0
  5  6  1  0  0  0  0
  5 16  1  0  0  0  0
  6 17  1  0  0  0  0
  7 18  1  0  0  0  0
  7  6  1  0  0  0  0
  8  4  1  0  0  0  0
  8  7  2  0  0  0  0
  9 26  1  0  0  0  0
  9  2  1  0  0  0  0
 10  9  2  0  0  0  0
 14  3  1  0  0  0  0
 19 20  1  0  0  0  0
 20 21  1  0  0  0  0
 21 32  1  0  0  0  0
 21 22  2  0  0  0  0
 22 33  1  0  0  0  0
 23 24  1  0  0  0  0
 23 22  1  0  0  0  0
 24 25  1  0  0  0  0
 24 35  1  0  0  0  0
 25 36  1  1  0  0  0
 25 26  1  0  0  0  0
 26 37  1  0  0  0  0
 27 25  1  0  0  0  0
 28 27  2  0  0  0  0
 29 23  2  0  0  0  0
 30 29  1  0  0  0  0
 30 20  2  0  0  0  0
 31 19  1  0  0  0  0
 34 24  1  0  0  0  0
 38 29  1  0  0  0  0
 39 30  1  0  0  0  0
 40 27  1  0  0  0  0
 40 49  1  0  0  0  0
 41 50  1  1  0  0  0
 41 40  1  0  0  0  0
 42 43  1  0  0  0  0
 42 41  1  0  0  0  0
 43 44  2  0  0  0  0
 45 46  1  0  0  0  0
 45 41  1  0  0  0  0
 47 53  1  0  0  0  0
 47 43  1  0  0  0  0
 48 45  2  0  0  0  0
 51 42  1  0  0  0  0
 52 42  1  0  0  0  0
M  END
$$$$
