HYE.pdb
 OpenBabel07022418393D

 56 57  0  0  1  0  0  0  0  0999 V2000
    1.6700   -0.6130    2.1180 N   0  0  0  0  0  0  0  0  0  0  0  0
    1.8740   -0.1220    0.7750 C   0  0  1  0  0  0  0  0  0  0  0  0
    2.4980   -1.2510   -0.0520 C   0  0  0  0  0  0  0  0  0  0  0  0
    3.7820   -1.6020    0.5960 C   0  0  0  0  0  0  0  0  0  0  0  0
    3.9860   -2.5460    1.5910 C   0  0  0  0  0  0  0  0  0  0  0  0
    5.2900   -2.5720    1.9180 N   0  0  0  0  0  0  0  0  0  0  0  0
    5.8940   -1.6570    1.1410 C   0  0  0  0  0  0  0  0  0  0  0  0
    4.9840   -1.0610    0.3320 N   0  0  0  0  0  0  0  0  0  0  0  0
    0.5280    0.2060    0.2130 C   0  0  0  0  0  0  0  0  0  0  0  0
    0.4790    0.6540   -0.9420 O   0  0  0  0  0  0  0  0  0  0  0  0
    1.2040   -1.5340    2.1060 H   0  0  0  0  0  0  0  0  0  0  0  0
    1.2850    0.0850    2.7610 H   0  0  0  0  0  0  0  0  0  0  0  0
    2.5040    0.7820    0.7420 H   0  0  0  0  0  0  0  0  0  0  0  0
    2.6530   -0.9200   -1.1000 H   0  0  0  0  0  0  0  0  0  0  0  0
    1.8290   -2.1280   -0.0450 H   0  0  0  0  0  0  0  0  0  0  0  0
    3.2000   -3.1440    2.0080 H   0  0  0  0  0  0  0  0  0  0  0  0
    5.7030   -3.1930    2.6370 H   0  0  0  0  0  0  0  0  0  0  0  0
    6.9640   -1.4630    1.1930 H   0  0  0  0  0  0  0  0  0  0  0  0
   -1.1680    5.6030    3.8670 O   0  0  0  0  0  0  0  0  0  0  0  0
   -1.3430    4.6490    2.8680 C   0  0  0  0  0  0  0  0  0  0  0  0
   -0.3310    4.2480    2.0330 C   0  0  0  0  0  0  0  0  0  0  0  0
   -0.5170    3.2870    1.0300 C   0  0  0  0  0  0  0  0  0  0  0  0
   -1.7410    2.7080    0.8490 C   0  0  0  0  0  0  0  0  0  0  0  0
   -2.0840    1.6740   -0.1480 C   0  0  0  0  0  0  0  0  0  0  0  0
   -1.9880    0.3100    0.4850 C   0  0  2  0  0  0  0  0  0  0  0  0
   -0.6810    0.0230    0.9460 N   0  0  0  0  0  0  0  0  0  0  0  0
   -2.6130   -0.7600   -0.3010 C   0  0  0  0  0  0  0  0  0  0  0  0
   -3.7800   -0.6190   -0.7450 O   0  0  0  0  0  0  0  0  0  0  0  0
   -2.7590    3.1380    1.7180 C   0  0  0  0  0  0  0  0  0  0  0  0
   -2.5670    4.0780    2.6960 C   0  0  0  0  0  0  0  0  0  0  0  0
   -0.2420    6.0160    4.0320 H   0  0  0  0  0  0  0  0  0  0  0  0
    0.6470    4.6960    2.1610 H   0  0  0  0  0  0  0  0  0  0  0  0
    0.2930    3.0130    0.3940 H   0  0  0  0  0  0  0  0  0  0  0  0
   -3.1700    1.8490   -0.4170 H   0  0  0  0  0  0  0  0  0  0  0  0
   -1.5460    1.7610   -1.0950 H   0  0  0  0  0  0  0  0  0  0  0  0
   -2.6230    0.4300    1.4320 H   0  0  0  0  0  0  0  0  0  0  0  0
   -0.5190   -0.3720    1.9270 H   0  0  0  0  0  0  0  0  0  0  0  0
   -3.7500    2.7090    1.6170 H   0  0  0  0  0  0  0  0  0  0  0  0
   -3.3990    4.3570    3.3250 H   0  0  0  0  0  0  0  0  0  0  0  0
   -1.9620   -1.9940   -0.6070 N   0  0  0  0  0  0  0  0  0  0  0  0
   -2.5350   -3.0660   -1.3710 C   0  0  1  0  0  0  0  0  0  0  0  0
   -1.8650   -3.3810   -2.6520 C   0  0  0  0  0  0  0  0  0  0  0  0
   -0.4420   -3.7820   -2.6210 C   0  0  0  0  0  0  0  0  0  0  0  0
   -0.1850   -4.9960   -1.8400 C   0  0  0  0  0  0  0  0  0  0  0  0
    0.1530   -4.9380   -0.6430 O   0  0  0  0  0  0  0  0  0  0  0  0
   -2.7140   -4.2690   -0.5260 C   0  0  0  0  0  0  0  0  0  0  0  0
   -3.1510   -5.3600   -0.9940 O   0  0  0  0  0  0  0  0  0  0  0  0
   -0.3090   -6.2560   -2.4090 O   0  0  0  0  0  0  0  0  0  0  0  0
   -2.4130   -4.2790    0.8490 O   0  0  0  0  0  0  0  0  0  0  0  0
   -0.9930   -2.1150   -0.2400 H   0  0  0  0  0  0  0  0  0  0  0  0
   -3.6130   -2.7900   -1.6690 H   0  0  0  0  0  0  0  0  0  0  0  0
   -2.4330   -4.2520   -3.1050 H   0  0  0  0  0  0  0  0  0  0  0  0
   -2.0730   -2.5550   -3.3870 H   0  0  0  0  0  0  0  0  0  0  0  0
   -0.1590   -4.0360   -3.6890 H   0  0  0  0  0  0  0  0  0  0  0  0
    0.2560   -2.9520   -2.3650 H   0  0  0  0  0  0  0  0  0  0  0  0
    0.0470   -7.0990   -1.9900 H   0  0  0  0  0  0  0  0  0  0  0  0
  1 12  1  0  0  0  0
  2 13  1  1  0  0  0
  2  1  1  0  0  0  0
  3 15  1  0  0  0  0
  3  4  1  0  0  0  0
  3  2  1  0  0  0  0
  4  5  2  0  0  0  0
  5  6  1  0  0  0  0
  5 16  1  0  0  0  0
  6 17  1  0  0  0  0
  7 18  1  0  0  0  0
  7  6  1  0  0  0  0
  8  4  1  0  0  0  0
  8  7  2  0  0  0  0
  9  2  1  0  0  0  0
  9 26  1  0  0  0  0
 10  9  2  0  0  0  0
 11  1  1  0  0  0  0
 14  3  1  0  0  0  0
 19 31  1  0  0  0  0
 20 19  1  0  0  0  0
 21 32  1  0  0  0  0
 21 20  2  0  0  0  0
 22 21  1  0  0  0  0
 23 22  2  0  0  0  0
 23 29  1  0  0  0  0
 24 25  1  0  0  0  0
 24 23  1  0  0  0  0
 25 26  1  0  0  0  0
 25 36  1  1  0  0  0
 26 37  1  0  0  0  0
 27 25  1  0  0  0  0
 28 27  2  0  0  0  0
 29 30  2  0  0  0  0
 30 20  1  0  0  0  0
 30 39  1  0  0  0  0
 33 22  1  0  0  0  0
 34 24  1  0  0  0  0
 35 24  1  0  0  0  0
 38 29  1  0  0  0  0
 40 27  1  0  0  0  0
 40 50  1  0  0  0  0
 41 51  1  6  0  0  0
 41 40  1  0  0  0  0
 41 46  1  0  0  0  0
 42 43  1  0  0  0  0
 42 41  1  0  0  0  0
 43 55  1  0  0  0  0
 43 44  1  0  0  0  0
 44 45  2  0  0  0  0
 46 49  1  0  0  0  0
 47 46  2  0  0  0  0
 48 56  1  0  0  0  0
 48 44  1  0  0  0  0
 52 42  1  0  0  0  0
 53 42  1  0  0  0  0
 54 43  1  0  0  0  0
M  END
$$$$
