HYF.pdb
 OpenBabel07022418393D

 60 62  0  0  1  0  0  0  0  0999 V2000
    3.0140   -1.4000   -0.0140 N   0  0  0  0  0  0  0  0  0  0  0  0
    2.5400   -2.2540    1.0370 C   0  0  1  0  0  0  0  0  0  0  0  0
    3.4910   -2.2940    2.2080 C   0  0  0  0  0  0  0  0  0  0  0  0
    3.6840   -0.9470    2.7940 C   0  0  0  0  0  0  0  0  0  0  0  0
    2.9660   -0.3440    3.7980 C   0  0  0  0  0  0  0  0  0  0  0  0
    3.5110    0.8620    3.9800 N   0  0  0  0  0  0  0  0  0  0  0  0
    4.5430    1.0400    3.1290 C   0  0  0  0  0  0  0  0  0  0  0  0
    4.6470   -0.0780    2.3980 N   0  0  0  0  0  0  0  0  0  0  0  0
    1.1820   -1.8760    1.5100 C   0  0  0  0  0  0  0  0  0  0  0  0
    0.6610   -2.5510    2.4340 O   0  0  0  0  0  0  0  0  0  0  0  0
    3.3750   -0.4690    0.3330 H   0  0  0  0  0  0  0  0  0  0  0  0
    3.8290   -1.8650   -0.4750 H   0  0  0  0  0  0  0  0  0  0  0  0
    2.5280   -3.3010    0.6170 H   0  0  0  0  0  0  0  0  0  0  0  0
    3.0390   -2.9440    3.0060 H   0  0  0  0  0  0  0  0  0  0  0  0
    4.4540   -2.7670    1.9550 H   0  0  0  0  0  0  0  0  0  0  0  0
    2.1230   -0.7530    4.3440 H   0  0  0  0  0  0  0  0  0  0  0  0
    3.2200    1.5950    4.6640 H   0  0  0  0  0  0  0  0  0  0  0  0
    5.1950    1.9100    3.0200 H   0  0  0  0  0  0  0  0  0  0  0  0
    0.1280    5.3830   -1.1340 O   0  0  0  0  0  0  0  0  0  0  0  0
   -0.1250    4.2610   -0.3280 C   0  0  0  0  0  0  0  0  0  0  0  0
   -1.4210    3.7540   -0.2410 C   0  0  0  0  0  0  0  0  0  0  0  0
   -1.6770    2.6570    0.5450 C   0  0  0  0  0  0  0  0  0  0  0  0
   -0.6960    2.0270    1.2610 C   0  0  0  0  0  0  0  0  0  0  0  0
   -0.9990    0.8690    2.0740 C   0  0  0  0  0  0  0  0  0  0  0  0
   -0.8580   -0.4710    1.4600 C   0  0  2  0  0  0  0  0  0  0  0  0
    0.4390   -0.8070    0.9860 N   0  0  0  0  0  0  0  0  0  0  0  0
   -1.9210   -0.7370    0.4440 C   0  0  0  0  0  0  0  0  0  0  0  0
   -3.1110   -0.4620    0.7310 O   0  0  0  0  0  0  0  0  0  0  0  0
    0.5900    2.5160    1.1860 C   0  0  0  0  0  0  0  0  0  0  0  0
    0.8740    3.6370    0.3890 C   0  0  0  0  0  0  0  0  0  0  0  0
   -0.5660    6.1020   -1.2900 H   0  0  0  0  0  0  0  0  0  0  0  0
   -2.1760    4.2660   -0.8140 H   0  0  0  0  0  0  0  0  0  0  0  0
   -2.6750    2.2760    0.6110 H   0  0  0  0  0  0  0  0  0  0  0  0
   -2.0860    0.9550    2.3860 H   0  0  0  0  0  0  0  0  0  0  0  0
   -0.4740    0.9130    3.0780 H   0  0  0  0  0  0  0  0  0  0  0  0
   -1.1150   -1.2070    2.2860 H   0  0  0  0  0  0  0  0  0  0  0  0
    0.8590   -0.2430    0.2230 H   0  0  0  0  0  0  0  0  0  0  0  0
    1.4290    2.0870    1.7140 H   0  0  0  0  0  0  0  0  0  0  0  0
    1.8880    4.0270    0.3260 H   0  0  0  0  0  0  0  0  0  0  0  0
   -1.6250   -1.2900   -0.8260 N   0  0  0  0  0  0  0  0  0  0  0  0
   -2.5750   -1.5780   -1.8530 C   0  0  1  0  0  0  0  0  0  0  0  0
   -3.3500   -2.8370   -1.5070 C   0  0  0  0  0  0  0  0  0  0  0  0
   -2.4520   -3.9850   -1.3740 C   0  0  0  0  0  0  0  0  0  0  0  0
   -2.1470   -4.7740   -2.4500 C   0  0  0  0  0  0  0  0  0  0  0  0
   -1.2950   -5.8440   -2.2660 C   0  0  0  0  0  0  0  0  0  0  0  0
   -0.7580   -6.1150   -1.0190 C   0  0  0  0  0  0  0  0  0  0  0  0
   -1.0620   -5.3270    0.0620 C   0  0  0  0  0  0  0  0  0  0  0  0
   -1.9110   -4.2670   -0.1390 C   0  0  0  0  0  0  0  0  0  0  0  0
   -3.4850   -0.4560   -2.1880 C   0  0  0  0  0  0  0  0  0  0  0  0
   -4.3940   -0.5750   -3.0380 O   0  0  0  0  0  0  0  0  0  0  0  0
   -3.3230    0.7490   -1.5480 O   0  0  0  0  0  0  0  0  0  0  0  0
   -0.5910   -1.4920   -0.9800 H   0  0  0  0  0  0  0  0  0  0  0  0
   -1.9890   -1.8340   -2.8020 H   0  0  0  0  0  0  0  0  0  0  0  0
   -4.1210   -3.0680   -2.2600 H   0  0  0  0  0  0  0  0  0  0  0  0
   -3.8960   -2.6200   -0.5540 H   0  0  0  0  0  0  0  0  0  0  0  0
   -2.5420   -4.6010   -3.4440 H   0  0  0  0  0  0  0  0  0  0  0  0
   -1.0280   -6.4980   -3.1080 H   0  0  0  0  0  0  0  0  0  0  0  0
   -0.0950   -6.9730   -0.9480 H   0  0  0  0  0  0  0  0  0  0  0  0
   -0.6300   -5.5600    1.0260 H   0  0  0  0  0  0  0  0  0  0  0  0
   -2.1600   -3.6360    0.7050 H   0  0  0  0  0  0  0  0  0  0  0  0
  1 11  1  0  0  0  0
  1  2  1  0  0  0  0
  2 13  1  6  0  0  0
  2  9  1  0  0  0  0
  2  3  1  0  0  0  0
  3  4  1  0  0  0  0
  3 14  1  0  0  0  0
  4  5  2  0  0  0  0
  5  6  1  0  0  0  0
  5 16  1  0  0  0  0
  6 17  1  0  0  0  0
  7  6  1  0  0  0  0
  8  4  1  0  0  0  0
  8  7  2  0  0  0  0
  9 10  2  0  0  0  0
 12  1  1  0  0  0  0
 15  3  1  0  0  0  0
 18  7  1  0  0  0  0
 19 20  1  0  0  0  0
 20 21  2  0  0  0  0
 20 30  1  0  0  0  0
 21 22  1  0  0  0  0
 22 33  1  0  0  0  0
 22 23  2  0  0  0  0
 23 24  1  0  0  0  0
 24 34  1  0  0  0  0
 24 35  1  0  0  0  0
 25 24  1  0  0  0  0
 25 36  1  1  0  0  0
 26 25  1  0  0  0  0
 26  9  1  0  0  0  0
 27 28  2  0  0  0  0
 27 25  1  0  0  0  0
 29 23  1  0  0  0  0
 29 38  1  0  0  0  0
 30 29  2  0  0  0  0
 31 19  1  0  0  0  0
 32 21  1  0  0  0  0
 37 26  1  0  0  0  0
 39 30  1  0  0  0  0
 40 27  1  0  0  0  0
 41 53  1  6  0  0  0
 41 42  1  0  0  0  0
 41 40  1  0  0  0  0
 42 43  1  0  0  0  0
 42 55  1  0  0  0  0
 43 48  1  0  0  0  0
 44 45  1  0  0  0  0
 44 43  2  0  0  0  0
 45 46  2  0  0  0  0
 46 58  1  0  0  0  0
 46 47  1  0  0  0  0
 47 59  1  0  0  0  0
 48 47  2  0  0  0  0
 48 60  1  0  0  0  0
 49 41  1  0  0  0  0
 49 51  1  0  0  0  0
 50 49  2  0  0  0  0
 52 40  1  0  0  0  0
 54 42  1  0  0  0  0
 56 44  1  0  0  0  0
 57 45  1  0  0  0  0
M  END
$$$$
