HYH.pdb
 OpenBabel07022418393D

 57 59  0  0  1  0  0  0  0  0999 V2000
    1.7100   -2.3810    1.5970 N   0  0  0  0  0  0  0  0  0  0  0  0
    0.5430   -1.8960    2.3000 C   0  0  1  0  0  0  0  0  0  0  0  0
    0.9590   -1.2660    3.6010 C   0  0  0  0  0  0  0  0  0  0  0  0
    1.6470   -2.3150    4.3980 C   0  0  0  0  0  0  0  0  0  0  0  0
    2.9780   -2.6610    4.4420 C   0  0  0  0  0  0  0  0  0  0  0  0
    3.1630   -3.6900    5.3200 N   0  0  0  0  0  0  0  0  0  0  0  0
    1.9480   -3.9760    5.8150 C   0  0  0  0  0  0  0  0  0  0  0  0
    1.0320   -3.1580    5.2690 N   0  0  0  0  0  0  0  0  0  0  0  0
   -0.1980   -0.9520    1.4170 C   0  0  0  0  0  0  0  0  0  0  0  0
    0.2730   -0.7410    0.2750 O   0  0  0  0  0  0  0  0  0  0  0  0
    1.4030   -2.6510    0.6300 H   0  0  0  0  0  0  0  0  0  0  0  0
    2.4540   -1.6460    1.5310 H   0  0  0  0  0  0  0  0  0  0  0  0
   -0.0890   -2.7750    2.5330 H   0  0  0  0  0  0  0  0  0  0  0  0
    0.0490   -0.9570    4.1750 H   0  0  0  0  0  0  0  0  0  0  0  0
    1.5730   -0.3630    3.4720 H   0  0  0  0  0  0  0  0  0  0  0  0
    3.7320   -2.1690    3.8560 H   0  0  0  0  0  0  0  0  0  0  0  0
    4.0930   -4.1440    5.5400 H   0  0  0  0  0  0  0  0  0  0  0  0
    1.7640   -4.7510    6.5400 H   0  0  0  0  0  0  0  0  0  0  0  0
    3.7040    2.7880   -0.8390 O   0  0  0  0  0  0  0  0  0  0  0  0
    2.3930    2.5830   -0.3890 C   0  0  0  0  0  0  0  0  0  0  0  0
    1.3360    2.5580   -1.2650 C   0  0  0  0  0  0  0  0  0  0  0  0
    0.0430    2.3600   -0.8540 C   0  0  0  0  0  0  0  0  0  0  0  0
   -0.2170    2.1780    0.4850 C   0  0  0  0  0  0  0  0  0  0  0  0
   -1.5930    1.9830    0.9440 C   0  0  0  0  0  0  0  0  0  0  0  0
   -2.1130    0.6010    0.9750 C   0  0  2  0  0  0  0  0  0  0  0  0
   -1.3790   -0.3070    1.8110 N   0  0  0  0  0  0  0  0  0  0  0  0
   -2.5280    0.0360   -0.3170 C   0  0  0  0  0  0  0  0  0  0  0  0
   -3.0260    0.8200   -1.1640 O   0  0  0  0  0  0  0  0  0  0  0  0
    0.8300    2.1990    1.3860 C   0  0  0  0  0  0  0  0  0  0  0  0
    2.1160    2.3990    0.9500 C   0  0  0  0  0  0  0  0  0  0  0  0
    3.9290    3.6000   -1.4100 H   0  0  0  0  0  0  0  0  0  0  0  0
    1.5600    2.7050   -2.3290 H   0  0  0  0  0  0  0  0  0  0  0  0
   -0.7800    2.3470   -1.5960 H   0  0  0  0  0  0  0  0  0  0  0  0
   -2.2830    2.6150    0.3290 H   0  0  0  0  0  0  0  0  0  0  0  0
   -1.6770    2.4010    1.9760 H   0  0  0  0  0  0  0  0  0  0  0  0
   -3.1610    0.7300    1.5100 H   0  0  0  0  0  0  0  0  0  0  0  0
   -1.7100   -0.5350    2.8010 H   0  0  0  0  0  0  0  0  0  0  0  0
    0.6390    2.0540    2.4670 H   0  0  0  0  0  0  0  0  0  0  0  0
    2.9180    2.4100    1.6840 H   0  0  0  0  0  0  0  0  0  0  0  0
   -2.4090   -1.3240   -0.6620 N   0  0  0  0  0  0  0  0  0  0  0  0
   -2.8400   -1.8280   -1.9290 C   0  0  1  0  0  0  0  0  0  0  0  0
   -1.8540   -2.6650   -2.6760 C   0  0  0  0  0  0  0  0  0  0  0  0
   -0.6100   -2.0150   -3.0600 C   0  0  0  0  0  0  0  0  0  0  0  0
   -0.1840   -0.7300   -2.9070 C   0  0  0  0  0  0  0  0  0  0  0  0
    1.0560   -0.5970   -3.4610 N   0  0  0  0  0  0  0  0  0  0  0  0
    1.3920   -1.7990   -3.9550 C   0  0  0  0  0  0  0  0  0  0  0  0
    0.3970   -2.6610   -3.7190 N   0  0  0  0  0  0  0  0  0  0  0  0
   -4.1620   -2.5190   -1.8220 C   0  0  0  0  0  0  0  0  0  0  0  0
   -4.6660   -3.0110   -2.8450 O   0  0  0  0  0  0  0  0  0  0  0  0
   -4.8100   -2.6100   -0.6180 O   0  0  0  0  0  0  0  0  0  0  0  0
   -2.0110   -2.0470    0.0050 H   0  0  0  0  0  0  0  0  0  0  0  0
   -3.0730   -0.9270   -2.5780 H   0  0  0  0  0  0  0  0  0  0  0  0
   -1.6750   -3.6530   -2.1790 H   0  0  0  0  0  0  0  0  0  0  0  0
   -2.3720   -2.9420   -3.6500 H   0  0  0  0  0  0  0  0  0  0  0  0
   -0.6850    0.0850   -2.4500 H   0  0  0  0  0  0  0  0  0  0  0  0
    1.6530    0.2440   -3.5120 H   0  0  0  0  0  0  0  0  0  0  0  0
    2.3040   -2.0940   -4.4710 H   0  0  0  0  0  0  0  0  0  0  0  0
  1  2  1  0  0  0  0
  2 13  1  1  0  0  0
  2  3  1  0  0  0  0
  3 14  1  0  0  0  0
  3  4  1  0  0  0  0
  4  5  2  0  0  0  0
  4  8  1  0  0  0  0
  5  6  1  0  0  0  0
  6 17  1  0  0  0  0
  6  7  1  0  0  0  0
  7 18  1  0  0  0  0
  8  7  2  0  0  0  0
  9 26  1  0  0  0  0
  9  2  1  0  0  0  0
 10  9  2  0  0  0  0
 11  1  1  0  0  0  0
 12  1  1  0  0  0  0
 15  3  1  0  0  0  0
 16  5  1  0  0  0  0
 19 20  1  0  0  0  0
 20 30  1  0  0  0  0
 21 22  1  0  0  0  0
 21 20  2  0  0  0  0
 22 23  2  0  0  0  0
 23 24  1  0  0  0  0
 23 29  1  0  0  0  0
 24 25  1  0  0  0  0
 24 35  1  0  0  0  0
 25 36  1  1  0  0  0
 25 26  1  0  0  0  0
 26 37  1  0  0  0  0
 27 25  1  0  0  0  0
 28 27  2  0  0  0  0
 29 38  1  0  0  0  0
 30 29  2  0  0  0  0
 30 39  1  0  0  0  0
 31 19  1  0  0  0  0
 32 21  1  0  0  0  0
 33 22  1  0  0  0  0
 34 24  1  0  0  0  0
 40 27  1  0  0  0  0
 40 51  1  0  0  0  0
 41 52  1  6  0  0  0
 41 48  1  0  0  0  0
 41 40  1  0  0  0  0
 42 53  1  0  0  0  0
 42 41  1  0  0  0  0
 43 44  2  0  0  0  0
 43 42  1  0  0  0  0
 44 55  1  0  0  0  0
 45 44  1  0  0  0  0
 46 47  2  0  0  0  0
 46 45  1  0  0  0  0
 47 43  1  0  0  0  0
 48 50  1  0  0  0  0
 49 48  2  0  0  0  0
 54 42  1  0  0  0  0
 56 45  1  0  0  0  0
 57 46  1  0  0  0  0
M  END
$$$$
