HYK.pdb
 OpenBabel07022418393D

 61 62  0  0  1  0  0  0  0  0999 V2000
    0.8800   -0.3850    3.0670 N   0  0  0  0  0  0  0  0  0  0  0  0
    1.4520   -0.5630    1.7400 C   0  0  1  0  0  0  0  0  0  0  0  0
    1.6750   -2.0480    1.5320 C   0  0  0  0  0  0  0  0  0  0  0  0
    2.6050   -2.5690    2.5630 C   0  0  0  0  0  0  0  0  0  0  0  0
    2.2450   -3.0790    3.8010 C   0  0  0  0  0  0  0  0  0  0  0  0
    3.3630   -3.4520    4.4600 N   0  0  0  0  0  0  0  0  0  0  0  0
    4.3980   -3.1800    3.6490 C   0  0  0  0  0  0  0  0  0  0  0  0
    3.9640   -2.6440    2.4940 N   0  0  0  0  0  0  0  0  0  0  0  0
    0.5220    0.0030    0.7570 C   0  0  0  0  0  0  0  0  0  0  0  0
    0.8220   -0.0350   -0.4560 O   0  0  0  0  0  0  0  0  0  0  0  0
    1.5840   -0.4410    3.8220 H   0  0  0  0  0  0  0  0  0  0  0  0
    0.0770   -1.0180    3.1560 H   0  0  0  0  0  0  0  0  0  0  0  0
    2.4510   -0.0830    1.6450 H   0  0  0  0  0  0  0  0  0  0  0  0
    2.0530   -2.2350    0.5210 H   0  0  0  0  0  0  0  0  0  0  0  0
    0.6990   -2.5630    1.6510 H   0  0  0  0  0  0  0  0  0  0  0  0
    1.2310   -3.1620    4.1720 H   0  0  0  0  0  0  0  0  0  0  0  0
    3.3730   -3.8750    5.4290 H   0  0  0  0  0  0  0  0  0  0  0  0
    5.4350   -3.3700    3.9000 H   0  0  0  0  0  0  0  0  0  0  0  0
    1.1020    6.5870    1.9620 O   0  0  0  0  0  0  0  0  0  0  0  0
    0.5420    5.4940    1.2840 C   0  0  0  0  0  0  0  0  0  0  0  0
    1.3450    4.4430    0.9010 C   0  0  0  0  0  0  0  0  0  0  0  0
    0.8580    3.3270    0.2260 C   0  0  0  0  0  0  0  0  0  0  0  0
   -0.4800    3.2680   -0.0730 C   0  0  0  0  0  0  0  0  0  0  0  0
   -1.1060    2.1350   -0.7700 C   0  0  0  0  0  0  0  0  0  0  0  0
   -1.6630    1.1670    0.2540 C   0  0  2  0  0  0  0  0  0  0  0  0
   -0.7060    0.5910    1.1360 N   0  0  0  0  0  0  0  0  0  0  0  0
   -2.5200    0.1180   -0.3290 C   0  0  0  0  0  0  0  0  0  0  0  0
   -3.4210    0.4560   -1.1350 O   0  0  0  0  0  0  0  0  0  0  0  0
   -1.2870    4.3450    0.3210 C   0  0  0  0  0  0  0  0  0  0  0  0
   -0.8000    5.4290    0.9800 C   0  0  0  0  0  0  0  0  0  0  0  0
    1.7440    6.3510    2.7090 H   0  0  0  0  0  0  0  0  0  0  0  0
    2.4060    4.5190    1.1540 H   0  0  0  0  0  0  0  0  0  0  0  0
    1.5440    2.5400   -0.0550 H   0  0  0  0  0  0  0  0  0  0  0  0
   -1.9800    2.5290   -1.3290 H   0  0  0  0  0  0  0  0  0  0  0  0
   -0.4460    1.6420   -1.4990 H   0  0  0  0  0  0  0  0  0  0  0  0
   -2.3550    1.8290    0.8870 H   0  0  0  0  0  0  0  0  0  0  0  0
   -0.8950    0.5820    2.1820 H   0  0  0  0  0  0  0  0  0  0  0  0
   -2.3430    4.3020    0.0870 H   0  0  0  0  0  0  0  0  0  0  0  0
   -1.4560    6.2440    1.2700 H   0  0  0  0  0  0  0  0  0  0  0  0
   -2.3510   -1.2520   -0.0030 N   0  0  0  0  0  0  0  0  0  0  0  0
   -3.1670   -2.3130   -0.5500 C   0  0  1  0  0  0  0  0  0  0  0  0
   -2.2130   -3.2710   -1.2550 C   0  0  0  0  0  0  0  0  0  0  0  0
   -1.4870   -2.5250   -2.3430 C   0  0  0  0  0  0  0  0  0  0  0  0
   -0.5220   -3.3260   -3.1340 C   0  0  0  0  0  0  0  0  0  0  0  0
    0.6050   -3.9520   -2.4000 C   0  0  0  0  0  0  0  0  0  0  0  0
    0.2650   -4.8840   -1.3780 N   0  0  0  0  0  0  0  0  0  0  0  0
   -3.7720   -3.0660    0.5690 C   0  0  0  0  0  0  0  0  0  0  0  0
   -3.5160   -2.7120    1.7420 O   0  0  0  0  0  0  0  0  0  0  0  0
   -4.6130   -4.1510    0.3960 O   0  0  0  0  0  0  0  0  0  0  0  0
   -1.6010   -1.5310    0.6680 H   0  0  0  0  0  0  0  0  0  0  0  0
   -3.9300   -1.9270   -1.2570 H   0  0  0  0  0  0  0  0  0  0  0  0
   -2.7620   -4.1210   -1.7070 H   0  0  0  0  0  0  0  0  0  0  0  0
   -1.5410   -3.7030   -0.4800 H   0  0  0  0  0  0  0  0  0  0  0  0
   -1.0560   -1.5670   -1.9810 H   0  0  0  0  0  0  0  0  0  0  0  0
   -2.2970   -2.2010   -3.0630 H   0  0  0  0  0  0  0  0  0  0  0  0
   -1.0760   -4.0580   -3.7600 H   0  0  0  0  0  0  0  0  0  0  0  0
   -0.0570   -2.6270   -3.8920 H   0  0  0  0  0  0  0  0  0  0  0  0
    1.2040   -4.5240   -3.1690 H   0  0  0  0  0  0  0  0  0  0  0  0
    1.3330   -3.2110   -1.9960 H   0  0  0  0  0  0  0  0  0  0  0  0
    0.1530   -5.8460   -1.7650 H   0  0  0  0  0  0  0  0  0  0  0  0
    1.0520   -4.9330   -0.6870 H   0  0  0  0  0  0  0  0  0  0  0  0
  1 12  1  0  0  0  0
  1 11  1  0  0  0  0
  2 13  1  6  0  0  0
  2  1  1  0  0  0  0
  3 15  1  0  0  0  0
  3  2  1  0  0  0  0
  3  4  1  0  0  0  0
  4  5  2  0  0  0  0
  5 16  1  0  0  0  0
  5  6  1  0  0  0  0
  6 17  1  0  0  0  0
  7 18  1  0  0  0  0
  7  6  1  0  0  0  0
  8  4  1  0  0  0  0
  8  7  2  0  0  0  0
  9 26  1  0  0  0  0
  9  2  1  0  0  0  0
 10  9  2  0  0  0  0
 14  3  1  0  0  0  0
 19 31  1  0  0  0  0
 20 19  1  0  0  0  0
 21 32  1  0  0  0  0
 21 20  2  0  0  0  0
 22 21  1  0  0  0  0
 23 22  2  0  0  0  0
 23 29  1  0  0  0  0
 24 23  1  0  0  0  0
 24 25  1  0  0  0  0
 25 36  1  1  0  0  0
 25 26  1  0  0  0  0
 26 37  1  0  0  0  0
 27 40  1  0  0  0  0
 27 25  1  0  0  0  0
 28 27  2  0  0  0  0
 29 30  2  0  0  0  0
 30 39  1  0  0  0  0
 30 20  1  0  0  0  0
 33 22  1  0  0  0  0
 34 24  1  0  0  0  0
 35 24  1  0  0  0  0
 38 29  1  0  0  0  0
 40 50  1  0  0  0  0
 41 51  1  6  0  0  0
 41 40  1  0  0  0  0
 41 47  1  0  0  0  0
 42 41  1  0  0  0  0
 42 53  1  0  0  0  0
 43 54  1  0  0  0  0
 43 42  1  0  0  0  0
 44 45  1  0  0  0  0
 44 43  1  0  0  0  0
 45 59  1  0  0  0  0
 45 46  1  0  0  0  0
 46 61  1  0  0  0  0
 47 48  1  0  0  0  0
 49 47  2  0  0  0  0
 52 42  1  0  0  0  0
 55 43  1  0  0  0  0
 56 44  1  0  0  0  0
 57 44  1  0  0  0  0
 58 45  1  0  0  0  0
 60 46  1  0  0  0  0
M  END
$$$$
