HYL.pdb
 OpenBabel07022418393D

 59 60  0  0  1  0  0  0  0  0999 V2000
    2.4190   -2.7320    1.5880 N   0  0  0  0  0  0  0  0  0  0  0  0
    1.1830   -2.5710    2.2850 C   0  0  1  0  0  0  0  0  0  0  0  0
    1.3370   -2.5440    3.7580 C   0  0  0  0  0  0  0  0  0  0  0  0
    2.2280   -1.4570    4.2550 C   0  0  0  0  0  0  0  0  0  0  0  0
    2.5510   -1.1930    5.5790 C   0  0  0  0  0  0  0  0  0  0  0  0
    3.3780   -0.1470    5.6110 N   0  0  0  0  0  0  0  0  0  0  0  0
    3.5810    0.2520    4.3380 C   0  0  0  0  0  0  0  0  0  0  0  0
    2.8750   -0.5550    3.5260 N   0  0  0  0  0  0  0  0  0  0  0  0
    0.3800   -1.5010    1.6810 C   0  0  0  0  0  0  0  0  0  0  0  0
    0.8260   -0.9410    0.6380 O   0  0  0  0  0  0  0  0  0  0  0  0
    2.2840   -3.2400    0.6770 H   0  0  0  0  0  0  0  0  0  0  0  0
    2.7930   -1.7890    1.3230 H   0  0  0  0  0  0  0  0  0  0  0  0
    0.6210   -3.5670    2.0850 H   0  0  0  0  0  0  0  0  0  0  0  0
    1.8460   -3.5010    4.0520 H   0  0  0  0  0  0  0  0  0  0  0  0
    0.3640   -2.5100    4.2880 H   0  0  0  0  0  0  0  0  0  0  0  0
    2.1660   -1.7730    6.4010 H   0  0  0  0  0  0  0  0  0  0  0  0
    3.8180    0.3180    6.4600 H   0  0  0  0  0  0  0  0  0  0  0  0
    4.2170    1.0850    4.0570 H   0  0  0  0  0  0  0  0  0  0  0  0
    3.5670    3.2620   -0.0630 O   0  0  0  0  0  0  0  0  0  0  0  0
    2.3420    2.7790    0.4340 C   0  0  0  0  0  0  0  0  0  0  0  0
    2.2230    2.3090    1.7300 C   0  0  0  0  0  0  0  0  0  0  0  0
    1.0290    1.8370    2.2190 C   0  0  0  0  0  0  0  0  0  0  0  0
   -0.0790    1.8300    1.4010 C   0  0  0  0  0  0  0  0  0  0  0  0
   -1.3640    1.3420    1.8880 C   0  0  0  0  0  0  0  0  0  0  0  0
   -1.7070   -0.0730    1.6730 C   0  0  2  0  0  0  0  0  0  0  0  0
   -0.8750   -1.0800    2.2260 N   0  0  0  0  0  0  0  0  0  0  0  0
   -2.1370   -0.3910    0.2570 C   0  0  0  0  0  0  0  0  0  0  0  0
   -2.7740    0.4880   -0.3570 O   0  0  0  0  0  0  0  0  0  0  0  0
    0.0460    2.2980    0.1130 C   0  0  0  0  0  0  0  0  0  0  0  0
    1.2410    2.7700   -0.3750 C   0  0  0  0  0  0  0  0  0  0  0  0
    3.5990    4.0650   -0.6530 H   0  0  0  0  0  0  0  0  0  0  0  0
    3.1200    2.3290    2.3610 H   0  0  0  0  0  0  0  0  0  0  0  0
    0.9910    1.4830    3.2410 H   0  0  0  0  0  0  0  0  0  0  0  0
   -2.1520    1.9560    1.3640 H   0  0  0  0  0  0  0  0  0  0  0  0
   -1.5200    1.5560    2.9820 H   0  0  0  0  0  0  0  0  0  0  0  0
   -2.7380   -0.1990    2.2070 H   0  0  0  0  0  0  0  0  0  0  0  0
   -1.1360   -1.6100    3.1140 H   0  0  0  0  0  0  0  0  0  0  0  0
   -0.7880    2.3240   -0.5860 H   0  0  0  0  0  0  0  0  0  0  0  0
    1.3200    3.1400   -1.4070 H   0  0  0  0  0  0  0  0  0  0  0  0
   -2.2770   -1.1160   -4.6710 C   0  0  0  0  0  0  0  0  0  0  0  0
   -1.4200   -2.1850   -4.0740 C   0  0  0  0  0  0  0  0  0  0  0  0
   -1.9000   -3.5450   -4.4490 C   0  0  0  0  0  0  0  0  0  0  0  0
   -1.1270   -1.9580   -2.6310 C   0  0  0  0  0  0  0  0  0  0  0  0
   -2.3080   -1.8230   -1.7510 C   0  0  2  0  0  0  0  0  0  0  0  0
   -1.8440   -1.6120   -0.3520 N   0  0  0  0  0  0  0  0  0  0  0  0
   -3.3090   -2.8780   -1.7240 C   0  0  0  0  0  0  0  0  0  0  0  0
   -4.0430   -3.1930   -2.6900 O   0  0  0  0  0  0  0  0  0  0  0  0
   -3.5230   -3.6480   -0.5560 O   0  0  0  0  0  0  0  0  0  0  0  0
   -2.6830   -1.4520   -5.6540 H   0  0  0  0  0  0  0  0  0  0  0  0
   -1.7220   -0.1640   -4.8080 H   0  0  0  0  0  0  0  0  0  0  0  0
   -3.1600   -0.8630   -4.0410 H   0  0  0  0  0  0  0  0  0  0  0  0
   -0.3960   -2.0340   -4.6470 H   0  0  0  0  0  0  0  0  0  0  0  0
   -1.8370   -4.2830   -3.6210 H   0  0  0  0  0  0  0  0  0  0  0  0
   -1.1770   -3.9570   -5.2480 H   0  0  0  0  0  0  0  0  0  0  0  0
   -2.8650   -3.5740   -5.0030 H   0  0  0  0  0  0  0  0  0  0  0  0
   -0.4070   -2.7290   -2.2370 H   0  0  0  0  0  0  0  0  0  0  0  0
   -0.5530   -0.9790   -2.5850 H   0  0  0  0  0  0  0  0  0  0  0  0
   -2.8330   -0.8710   -2.0250 H   0  0  0  0  0  0  0  0  0  0  0  0
   -1.3300   -2.4030    0.1070 H   0  0  0  0  0  0  0  0  0  0  0  0
  1  2  1  0  0  0  0
  2 13  1  6  0  0  0
  2  3  1  0  0  0  0
  3 14  1  0  0  0  0
  3  4  1  0  0  0  0
  3 15  1  0  0  0  0
  4  5  2  0  0  0  0
  5  6  1  0  0  0  0
  5 16  1  0  0  0  0
  6 17  1  0  0  0  0
  7  6  1  0  0  0  0
  8  4  1  0  0  0  0
  8  7  2  0  0  0  0
  9 26  1  0  0  0  0
  9  2  1  0  0  0  0
 10  9  2  0  0  0  0
 11  1  1  0  0  0  0
 12  1  1  0  0  0  0
 18  7  1  0  0  0  0
 19 20  1  0  0  0  0
 20 21  1  0  0  0  0
 21 22  2  0  0  0  0
 21 32  1  0  0  0  0
 22 33  1  0  0  0  0
 23 24  1  0  0  0  0
 23 22  1  0  0  0  0
 24 35  1  0  0  0  0
 25 24  1  0  0  0  0
 25 36  1  1  0  0  0
 25 26  1  0  0  0  0
 26 37  1  0  0  0  0
 27 25  1  0  0  0  0
 28 27  2  0  0  0  0
 29 23  2  0  0  0  0
 30 29  1  0  0  0  0
 30 20  2  0  0  0  0
 31 19  1  0  0  0  0
 34 24  1  0  0  0  0
 38 29  1  0  0  0  0
 39 30  1  0  0  0  0
 40 41  1  0  0  0  0
 40 51  1  0  0  0  0
 41 43  1  0  0  0  0
 42 41  1  0  0  0  0
 42 53  1  0  0  0  0
 43 57  1  0  0  0  0
 43 56  1  0  0  0  0
 43 44  1  0  0  0  0
 44 58  1  6  0  0  0
 44 46  1  0  0  0  0
 44 45  1  0  0  0  0
 45 59  1  0  0  0  0
 45 27  1  0  0  0  0
 46 48  1  0  0  0  0
 47 46  2  0  0  0  0
 49 40  1  0  0  0  0
 50 40  1  0  0  0  0
 52 41  1  0  0  0  0
 54 42  1  0  0  0  0
 55 42  1  0  0  0  0
M  END
$$$$
