HYP.pdb
 OpenBabel07022418393D

 54 56  0  0  1  0  0  0  0  0999 V2000
    4.0070   -0.6890   -0.1380 N   0  0  0  0  0  0  0  0  0  0  0  0
    2.9010   -0.7970    0.8220 C   0  0  1  0  0  0  0  0  0  0  0  0
    2.9980    0.3880    1.7440 C   0  0  0  0  0  0  0  0  0  0  0  0
    4.3130    0.3230    2.4390 C   0  0  0  0  0  0  0  0  0  0  0  0
    5.2980   -0.6190    2.3200 C   0  0  0  0  0  0  0  0  0  0  0  0
    6.3340   -0.2930    3.1440 N   0  0  0  0  0  0  0  0  0  0  0  0
    5.9990    0.8440    3.7730 C   0  0  0  0  0  0  0  0  0  0  0  0
    4.7900    1.2180    3.3550 N   0  0  0  0  0  0  0  0  0  0  0  0
    1.6200   -0.8940    0.0940 C   0  0  0  0  0  0  0  0  0  0  0  0
    1.6170   -0.8650   -1.1600 O   0  0  0  0  0  0  0  0  0  0  0  0
    3.9420   -1.5540   -0.7330 H   0  0  0  0  0  0  0  0  0  0  0  0
    3.7880    0.1460   -0.7220 H   0  0  0  0  0  0  0  0  0  0  0  0
    3.0690   -1.7260    1.4490 H   0  0  0  0  0  0  0  0  0  0  0  0
    2.2180    0.3620    2.5330 H   0  0  0  0  0  0  0  0  0  0  0  0
    2.9470    1.3440    1.1590 H   0  0  0  0  0  0  0  0  0  0  0  0
    5.2740   -1.4880    1.6820 H   0  0  0  0  0  0  0  0  0  0  0  0
    7.2030   -0.8530    3.2340 H   0  0  0  0  0  0  0  0  0  0  0  0
    6.6360    1.3380    4.4920 H   0  0  0  0  0  0  0  0  0  0  0  0
   -1.3650    4.2100    3.4840 O   0  0  0  0  0  0  0  0  0  0  0  0
   -1.3260    3.2190    2.4940 C   0  0  0  0  0  0  0  0  0  0  0  0
   -0.1680    2.9720    1.8010 C   0  0  0  0  0  0  0  0  0  0  0  0
   -0.1360    1.9910    0.8240 C   0  0  0  0  0  0  0  0  0  0  0  0
   -1.2330    1.2440    0.5150 C   0  0  0  0  0  0  0  0  0  0  0  0
   -1.2170    0.1800   -0.5230 C   0  0  0  0  0  0  0  0  0  0  0  0
   -0.9130   -1.1340    0.1730 C   0  0  2  0  0  0  0  0  0  0  0  0
    0.4030   -1.0210    0.8000 N   0  0  0  0  0  0  0  0  0  0  0  0
   -0.9970   -2.3080   -0.7060 C   0  0  0  0  0  0  0  0  0  0  0  0
    0.0660   -2.9270   -1.0130 O   0  0  0  0  0  0  0  0  0  0  0  0
   -2.3970    1.5060    1.2230 C   0  0  0  0  0  0  0  0  0  0  0  0
   -2.4390    2.4740    2.1920 C   0  0  0  0  0  0  0  0  0  0  0  0
   -0.9720    5.1280    3.3610 H   0  0  0  0  0  0  0  0  0  0  0  0
    0.7150    3.5360    2.0140 H   0  0  0  0  0  0  0  0  0  0  0  0
    0.7860    1.8380    0.3040 H   0  0  0  0  0  0  0  0  0  0  0  0
   -2.1510    0.1720   -1.0900 H   0  0  0  0  0  0  0  0  0  0  0  0
   -0.3320    0.3680   -1.1820 H   0  0  0  0  0  0  0  0  0  0  0  0
   -1.6570   -1.2070    0.9930 H   0  0  0  0  0  0  0  0  0  0  0  0
    0.4810   -1.0320    1.8530 H   0  0  0  0  0  0  0  0  0  0  0  0
   -3.2900    0.9120    0.9850 H   0  0  0  0  0  0  0  0  0  0  0  0
   -3.3700    2.6510    2.7270 H   0  0  0  0  0  0  0  0  0  0  0  0
   -2.1890   -2.7930   -1.2310 N   0  0  0  0  0  0  0  0  0  0  0  0
   -2.3810   -3.9030   -2.1770 C   0  0  0  0  0  0  0  0  0  0  0  0
   -3.7560   -3.7500   -2.7310 C   0  0  0  0  0  0  0  0  0  0  0  0
   -4.1110   -2.3060   -2.3420 C   0  0  0  0  0  0  0  0  0  0  0  0
   -3.5270   -2.3430   -0.9200 C   0  0  1  0  0  0  0  0  0  0  0  0
   -4.1880   -3.4570   -0.1560 C   0  0  0  0  0  0  0  0  0  0  0  0
   -5.4020   -3.3360    0.2010 O   0  0  0  0  0  0  0  0  0  0  0  0
   -3.5500   -4.6320    0.1930 O   0  0  0  0  0  0  0  0  0  0  0  0
   -1.6700   -3.8020   -3.0300 H   0  0  0  0  0  0  0  0  0  0  0  0
   -2.2530   -4.8770   -1.6930 H   0  0  0  0  0  0  0  0  0  0  0  0
   -3.8310   -3.9060   -3.8120 H   0  0  0  0  0  0  0  0  0  0  0  0
   -4.4870   -4.3850   -2.1610 H   0  0  0  0  0  0  0  0  0  0  0  0
   -3.5010   -1.6340   -2.9440 H   0  0  0  0  0  0  0  0  0  0  0  0
   -5.1830   -2.1280   -2.3440 H   0  0  0  0  0  0  0  0  0  0  0  0
   -3.6100   -1.4020   -0.3920 H   0  0  0  0  0  0  0  0  0  0  0  0
  1  2  1  0  0  0  0
  2 13  1  1  0  0  0
  2  3  1  0  0  0  0
  3  4  1  0  0  0  0
  3 14  1  0  0  0  0
  4  8  1  0  0  0  0
  5  4  2  0  0  0  0
  5  6  1  0  0  0  0
  6 17  1  0  0  0  0
  6  7  1  0  0  0  0
  7 18  1  0  0  0  0
  8  7  2  0  0  0  0
  9 26  1  0  0  0  0
  9  2  1  0  0  0  0
 10  9  2  0  0  0  0
 11  1  1  0  0  0  0
 12  1  1  0  0  0  0
 15  3  1  0  0  0  0
 16  5  1  0  0  0  0
 20 19  1  0  0  0  0
 21 32  1  0  0  0  0
 21 20  2  0  0  0  0
 22 21  1  0  0  0  0
 23 22  2  0  0  0  0
 23 29  1  0  0  0  0
 24 25  1  0  0  0  0
 24 23  1  0  0  0  0
 25 26  1  0  0  0  0
 25 36  1  1  0  0  0
 26 37  1  0  0  0  0
 27 25  1  0  0  0  0
 28 27  2  0  0  0  0
 29 30  2  0  0  0  0
 30 20  1  0  0  0  0
 30 39  1  0  0  0  0
 31 19  1  0  0  0  0
 33 22  1  0  0  0  0
 34 24  1  0  0  0  0
 35 24  1  0  0  0  0
 38 29  1  0  0  0  0
 40 44  1  0  0  0  0
 40 27  1  0  0  0  0
 41 49  1  0  0  0  0
 41 40  1  0  0  0  0
 42 43  1  0  0  0  0
 42 41  1  0  0  0  0
 42 51  1  0  0  0  0
 43 44  1  0  0  0  0
 44 54  1  1  0  0  0
 44 45  1  0  0  0  0
 45 47  2  0  0  0  0
 45 46  1  0  0  0  0
 48 41  1  0  0  0  0
 50 42  1  0  0  0  0
 52 43  1  0  0  0  0
 53 43  1  0  0  0  0
M  END
$$$$
