HYQ.pdb
 OpenBabel07022418393D

 57 58  0  0  1  0  0  0  0  0999 V2000
   -0.0050   -1.9060    3.4860 N   0  0  0  0  0  0  0  0  0  0  0  0
    0.7350   -1.0880    2.5620 C   0  0  1  0  0  0  0  0  0  0  0  0
    1.7770   -1.9600    1.8600 C   0  0  0  0  0  0  0  0  0  0  0  0
    2.6770   -2.5190    2.9010 C   0  0  0  0  0  0  0  0  0  0  0  0
    2.4890   -3.7190    3.5830 C   0  0  0  0  0  0  0  0  0  0  0  0
    3.4770   -3.9210    4.4470 N   0  0  0  0  0  0  0  0  0  0  0  0
    4.2990   -2.8600    4.3280 C   0  0  0  0  0  0  0  0  0  0  0  0
    3.8170   -2.0100    3.3930 N   0  0  0  0  0  0  0  0  0  0  0  0
   -0.1380   -0.4040    1.5770 C   0  0  0  0  0  0  0  0  0  0  0  0
    0.4050    0.3450    0.7540 O   0  0  0  0  0  0  0  0  0  0  0  0
   -0.4570   -2.7160    3.0440 H   0  0  0  0  0  0  0  0  0  0  0  0
   -0.7310   -1.3460    3.9680 H   0  0  0  0  0  0  0  0  0  0  0  0
    1.3110   -0.3220    3.1080 H   0  0  0  0  0  0  0  0  0  0  0  0
    2.3430   -1.3310    1.1380 H   0  0  0  0  0  0  0  0  0  0  0  0
    1.3060   -2.8050    1.3100 H   0  0  0  0  0  0  0  0  0  0  0  0
    1.6560   -4.3650    3.4130 H   0  0  0  0  0  0  0  0  0  0  0  0
    3.5650   -4.7430    5.0730 H   0  0  0  0  0  0  0  0  0  0  0  0
    5.2110   -2.7390    4.9170 H   0  0  0  0  0  0  0  0  0  0  0  0
    1.2540    5.3170    1.2510 O   0  0  0  0  0  0  0  0  0  0  0  0
    0.2490    4.3610    1.1680 C   0  0  0  0  0  0  0  0  0  0  0  0
   -0.3280    4.0670   -0.0330 C   0  0  0  0  0  0  0  0  0  0  0  0
   -1.3310    3.1180   -0.1440 C   0  0  0  0  0  0  0  0  0  0  0  0
   -1.7850    2.4350    0.9550 C   0  0  0  0  0  0  0  0  0  0  0  0
   -2.8490    1.4330    0.8890 C   0  0  0  0  0  0  0  0  0  0  0  0
   -2.4490    0.0310    0.6420 C   0  0  2  0  0  0  0  0  0  0  0  0
   -1.5670   -0.5850    1.5550 N   0  0  0  0  0  0  0  0  0  0  0  0
   -2.1390   -0.1620   -0.8120 C   0  0  0  0  0  0  0  0  0  0  0  0
   -2.8180    0.5510   -1.5970 O   0  0  0  0  0  0  0  0  0  0  0  0
   -1.2110    2.7210    2.1770 C   0  0  0  0  0  0  0  0  0  0  0  0
   -0.2150    3.6660    2.2700 C   0  0  0  0  0  0  0  0  0  0  0  0
    1.9560    5.2060    1.9730 H   0  0  0  0  0  0  0  0  0  0  0  0
    0.0160    4.5970   -0.9270 H   0  0  0  0  0  0  0  0  0  0  0  0
   -1.7240    2.9630   -1.1400 H   0  0  0  0  0  0  0  0  0  0  0  0
   -3.4160    1.5210    1.8690 H   0  0  0  0  0  0  0  0  0  0  0  0
   -3.6350    1.7820    0.1450 H   0  0  0  0  0  0  0  0  0  0  0  0
   -3.4350   -0.5890    0.7350 H   0  0  0  0  0  0  0  0  0  0  0  0
   -1.8970   -1.2520    2.3210 H   0  0  0  0  0  0  0  0  0  0  0  0
   -1.5290    2.2110    3.0890 H   0  0  0  0  0  0  0  0  0  0  0  0
    0.2300    3.8850    3.2290 H   0  0  0  0  0  0  0  0  0  0  0  0
    1.3480   -5.1150   -1.8150 N   0  0  0  0  0  0  0  0  0  0  0  0
    0.7770   -4.0000   -2.4810 C   0  0  0  0  0  0  0  0  0  0  0  0
    1.5500   -3.1710   -3.0090 O   0  0  0  0  0  0  0  0  0  0  0  0
   -0.6620   -3.8180   -2.5540 C   0  0  0  0  0  0  0  0  0  0  0  0
   -1.1740   -2.5960   -3.2080 C   0  0  0  0  0  0  0  0  0  0  0  0
   -0.8040   -1.2840   -2.6340 C   0  0  2  0  0  0  0  0  0  0  0  0
   -1.1970   -1.0420   -1.3090 N   0  0  0  0  0  0  0  0  0  0  0  0
   -1.0580   -0.2510   -3.6650 C   0  0  0  0  0  0  0  0  0  0  0  0
   -0.8480   -0.5530   -4.9100 O   0  0  0  0  0  0  0  0  0  0  0  0
   -1.4960    1.0320   -3.4860 O   0  0  0  0  0  0  0  0  0  0  0  0
    1.8270   -4.9840   -0.8730 H   0  0  0  0  0  0  0  0  0  0  0  0
    1.3550   -6.0880   -2.1540 H   0  0  0  0  0  0  0  0  0  0  0  0
   -1.0770   -4.7040   -3.1280 H   0  0  0  0  0  0  0  0  0  0  0  0
   -1.1350   -3.9340   -1.5420 H   0  0  0  0  0  0  0  0  0  0  0  0
   -0.8660   -2.6010   -4.2760 H   0  0  0  0  0  0  0  0  0  0  0  0
   -2.2970   -2.6830   -3.2430 H   0  0  0  0  0  0  0  0  0  0  0  0
    0.3650   -1.2370   -2.6000 H   0  0  0  0  0  0  0  0  0  0  0  0
   -0.6950   -1.6530   -0.5600 H   0  0  0  0  0  0  0  0  0  0  0  0
  1 12  1  0  0  0  0
  2 13  1  1  0  0  0
  2  1  1  0  0  0  0
  3  2  1  0  0  0  0
  3  4  1  0  0  0  0
  4  8  1  0  0  0  0
  4  5  2  0  0  0  0
  5  6  1  0  0  0  0
  6 17  1  0  0  0  0
  7  6  1  0  0  0  0
  7 18  1  0  0  0  0
  8  7  2  0  0  0  0
  9  2  1  0  0  0  0
 10  9  2  0  0  0  0
 11  1  1  0  0  0  0
 14  3  1  0  0  0  0
 15  3  1  0  0  0  0
 16  5  1  0  0  0  0
 19 31  1  0  0  0  0
 20 19  1  0  0  0  0
 20 30  1  0  0  0  0
 21 20  2  0  0  0  0
 22 21  1  0  0  0  0
 22 23  2  0  0  0  0
 23 29  1  0  0  0  0
 24 23  1  0  0  0  0
 24 34  1  0  0  0  0
 25 36  1  1  0  0  0
 25 24  1  0  0  0  0
 25 26  1  0  0  0  0
 26  9  1  0  0  0  0
 26 37  1  0  0  0  0
 27 25  1  0  0  0  0
 28 27  2  0  0  0  0
 29 30  2  0  0  0  0
 29 38  1  0  0  0  0
 30 39  1  0  0  0  0
 32 21  1  0  0  0  0
 33 22  1  0  0  0  0
 35 24  1  0  0  0  0
 40 50  1  0  0  0  0
 41 40  1  0  0  0  0
 42 41  2  0  0  0  0
 43 41  1  0  0  0  0
 43 53  1  0  0  0  0
 44 45  1  0  0  0  0
 44 43  1  0  0  0  0
 45 56  1  1  0  0  0
 45 46  1  0  0  0  0
 46 27  1  0  0  0  0
 46 57  1  0  0  0  0
 47 49  1  0  0  0  0
 47 45  1  0  0  0  0
 48 47  2  0  0  0  0
 51 40  1  0  0  0  0
 52 43  1  0  0  0  0
 54 44  1  0  0  0  0
 55 44  1  0  0  0  0
M  END
$$$$
