HYT.pdb
 OpenBabel07022418393D

 54 55  0  0  1  0  0  0  0  0999 V2000
    2.9290   -0.5830   -0.7600 N   0  0  0  0  0  0  0  0  0  0  0  0
    2.0090   -0.7800    0.3240 C   0  0  1  0  0  0  0  0  0  0  0  0
    2.4000    0.0870    1.5000 C   0  0  0  0  0  0  0  0  0  0  0  0
    3.7580   -0.2610    1.9600 C   0  0  0  0  0  0  0  0  0  0  0  0
    4.0400   -1.2130    2.9140 C   0  0  0  0  0  0  0  0  0  0  0  0
    5.3730   -1.2740    3.0920 N   0  0  0  0  0  0  0  0  0  0  0  0
    5.9210   -0.3730    2.2610 C   0  0  0  0  0  0  0  0  0  0  0  0
    4.9510    0.2320    1.5840 N   0  0  0  0  0  0  0  0  0  0  0  0
    0.6180   -0.4180   -0.0970 C   0  0  0  0  0  0  0  0  0  0  0  0
    0.4310   -0.0180   -1.2520 O   0  0  0  0  0  0  0  0  0  0  0  0
    3.9110   -0.5250   -0.4180 H   0  0  0  0  0  0  0  0  0  0  0  0
    2.6930    0.2130   -1.3780 H   0  0  0  0  0  0  0  0  0  0  0  0
    2.0510   -1.8330    0.6770 H   0  0  0  0  0  0  0  0  0  0  0  0
    1.6580   -0.0050    2.3200 H   0  0  0  0  0  0  0  0  0  0  0  0
    2.4270    1.1510    1.1720 H   0  0  0  0  0  0  0  0  0  0  0  0
    3.3540   -1.8340    3.4600 H   0  0  0  0  0  0  0  0  0  0  0  0
    5.8710   -1.9090    3.7550 H   0  0  0  0  0  0  0  0  0  0  0  0
    7.0060   -0.2240    2.2100 H   0  0  0  0  0  0  0  0  0  0  0  0
   -0.3890    5.3920    3.1370 O   0  0  0  0  0  0  0  0  0  0  0  0
   -0.7700    4.3540    2.3110 C   0  0  0  0  0  0  0  0  0  0  0  0
    0.0960    3.8450    1.3680 C   0  0  0  0  0  0  0  0  0  0  0  0
   -0.3270    2.7880    0.5470 C   0  0  0  0  0  0  0  0  0  0  0  0
   -1.5790    2.2300    0.6400 C   0  0  0  0  0  0  0  0  0  0  0  0
   -2.0620    1.1160   -0.1900 C   0  0  0  0  0  0  0  0  0  0  0  0
   -1.8330   -0.2050    0.5160 C   0  0  2  0  0  0  0  0  0  0  0  0
   -0.4780   -0.5250    0.7980 N   0  0  0  0  0  0  0  0  0  0  0  0
   -2.6340   -1.2950   -0.0790 C   0  0  0  0  0  0  0  0  0  0  0  0
   -3.8360   -1.0430   -0.3400 O   0  0  0  0  0  0  0  0  0  0  0  0
   -2.4270    2.7770    1.6100 C   0  0  0  0  0  0  0  0  0  0  0  0
   -2.0250    3.8090    2.4170 C   0  0  0  0  0  0  0  0  0  0  0  0
   -0.5180    6.3320    2.7930 H   0  0  0  0  0  0  0  0  0  0  0  0
    1.0790    4.2740    1.2880 H   0  0  0  0  0  0  0  0  0  0  0  0
    0.3760    2.4390   -0.1690 H   0  0  0  0  0  0  0  0  0  0  0  0
   -3.1550    1.1680   -0.3870 H   0  0  0  0  0  0  0  0  0  0  0  0
   -1.5700    1.1350   -1.1660 H   0  0  0  0  0  0  0  0  0  0  0  0
   -2.3210   -0.0020    1.5420 H   0  0  0  0  0  0  0  0  0  0  0  0
   -0.2010   -0.8900    1.7630 H   0  0  0  0  0  0  0  0  0  0  0  0
   -3.4230    2.3510    1.7000 H   0  0  0  0  0  0  0  0  0  0  0  0
   -2.7000    4.2210    3.1660 H   0  0  0  0  0  0  0  0  0  0  0  0
   -0.9620   -4.6180   -2.1850 C   0  0  0  0  0  0  0  0  0  0  0  0
   -2.3600   -4.1000   -2.2800 C   0  0  1  0  0  0  0  0  0  0  0  0
   -3.1870   -5.1070   -2.7650 O   0  0  0  0  0  0  0  0  0  0  0  0
   -2.9210   -3.6450   -0.9500 C   0  0  2  0  0  0  0  0  0  0  0  0
   -2.1170   -2.5870   -0.3640 N   0  0  0  0  0  0  0  0  0  0  0  0
   -2.9690   -4.7820   -0.0080 C   0  0  0  0  0  0  0  0  0  0  0  0
   -3.6050   -5.8310   -0.2800 O   0  0  0  0  0  0  0  0  0  0  0  0
   -2.3100   -4.7280    1.2110 O   0  0  0  0  0  0  0  0  0  0  0  0
   -0.5120   -4.5480   -3.2080 H   0  0  0  0  0  0  0  0  0  0  0  0
   -0.9530   -5.6770   -1.8460 H   0  0  0  0  0  0  0  0  0  0  0  0
   -0.3160   -4.0500   -1.4880 H   0  0  0  0  0  0  0  0  0  0  0  0
   -2.4360   -3.2470   -2.9960 H   0  0  0  0  0  0  0  0  0  0  0  0
   -3.0610   -5.1130   -3.7550 H   0  0  0  0  0  0  0  0  0  0  0  0
   -3.9610   -3.3190   -1.1390 H   0  0  0  0  0  0  0  0  0  0  0  0
   -1.1150   -2.7500   -0.1310 H   0  0  0  0  0  0  0  0  0  0  0  0
  1 11  1  0  0  0  0
  1  2  1  0  0  0  0
  2 13  1  1  0  0  0
  2  3  1  0  0  0  0
  3  4  1  0  0  0  0
  3 14  1  0  0  0  0
  4  5  2  0  0  0  0
  5  6  1  0  0  0  0
  5 16  1  0  0  0  0
  6 17  1  0  0  0  0
  7  6  1  0  0  0  0
  8  4  1  0  0  0  0
  8  7  2  0  0  0  0
  9  2  1  0  0  0  0
  9 26  1  0  0  0  0
 10  9  2  0  0  0  0
 12  1  1  0  0  0  0
 15  3  1  0  0  0  0
 18  7  1  0  0  0  0
 20 30  1  0  0  0  0
 20 19  1  0  0  0  0
 21 20  2  0  0  0  0
 22 23  2  0  0  0  0
 22 21  1  0  0  0  0
 23 29  1  0  0  0  0
 24 25  1  0  0  0  0
 24 23  1  0  0  0  0
 25 26  1  0  0  0  0
 25 36  1  1  0  0  0
 26 37  1  0  0  0  0
 27 25  1  0  0  0  0
 28 27  2  0  0  0  0
 29 38  1  0  0  0  0
 29 30  2  0  0  0  0
 30 39  1  0  0  0  0
 31 19  1  0  0  0  0
 32 21  1  0  0  0  0
 33 22  1  0  0  0  0
 34 24  1  0  0  0  0
 35 24  1  0  0  0  0
 40 49  1  0  0  0  0
 40 50  1  0  0  0  0
 41 51  1  6  0  0  0
 41 40  1  0  0  0  0
 41 43  1  0  0  0  0
 42 41  1  0  0  0  0
 43 53  1  6  0  0  0
 43 44  1  0  0  0  0
 43 45  1  0  0  0  0
 44 54  1  0  0  0  0
 44 27  1  0  0  0  0
 45 47  1  0  0  0  0
 46 45  2  0  0  0  0
 48 40  1  0  0  0  0
 52 42  1  0  0  0  0
M  END
$$$$
