HYV.pdb
 OpenBabel07022418393D

 56 57  0  0  1  0  0  0  0  0999 V2000
    2.9910   -0.4060   -0.5800 N   0  0  0  0  0  0  0  0  0  0  0  0
    2.0560   -0.7140    0.4580 C   0  0  1  0  0  0  0  0  0  0  0  0
    2.4120    0.1590    1.6630 C   0  0  0  0  0  0  0  0  0  0  0  0
    3.8020   -0.1800    2.0620 C   0  0  0  0  0  0  0  0  0  0  0  0
    4.1850   -1.1500    2.9640 C   0  0  0  0  0  0  0  0  0  0  0  0
    5.5420   -1.1600    3.0640 N   0  0  0  0  0  0  0  0  0  0  0  0
    5.9910   -0.2080    2.2340 C   0  0  0  0  0  0  0  0  0  0  0  0
    4.9530    0.3850    1.6280 N   0  0  0  0  0  0  0  0  0  0  0  0
    0.6770   -0.4220   -0.0110 C   0  0  0  0  0  0  0  0  0  0  0  0
    0.4850    0.0270   -1.1700 O   0  0  0  0  0  0  0  0  0  0  0  0
    2.6600   -0.8130   -1.4760 H   0  0  0  0  0  0  0  0  0  0  0  0
    2.9830    0.6420   -0.7070 H   0  0  0  0  0  0  0  0  0  0  0  0
    2.1560   -1.7690    0.8200 H   0  0  0  0  0  0  0  0  0  0  0  0
    2.3260    1.2290    1.3640 H   0  0  0  0  0  0  0  0  0  0  0  0
    1.7300   -0.0530    2.5170 H   0  0  0  0  0  0  0  0  0  0  0  0
    3.5690   -1.8260    3.5350 H   0  0  0  0  0  0  0  0  0  0  0  0
    6.1060   -1.7980    3.6780 H   0  0  0  0  0  0  0  0  0  0  0  0
    7.0540    0.0040    2.1120 H   0  0  0  0  0  0  0  0  0  0  0  0
   -0.8010    5.1360    3.4840 O   0  0  0  0  0  0  0  0  0  0  0  0
   -1.1080    4.1140    2.5740 C   0  0  0  0  0  0  0  0  0  0  0  0
   -0.1900    3.7040    1.6490 C   0  0  0  0  0  0  0  0  0  0  0  0
   -0.5150    2.6820    0.7480 C   0  0  0  0  0  0  0  0  0  0  0  0
   -1.7330    2.0540    0.7450 C   0  0  0  0  0  0  0  0  0  0  0  0
   -2.0900    0.9660   -0.1880 C   0  0  0  0  0  0  0  0  0  0  0  0
   -1.8190   -0.3790    0.4660 C   0  0  2  0  0  0  0  0  0  0  0  0
   -0.4730   -0.6350    0.8200 N   0  0  0  0  0  0  0  0  0  0  0  0
   -2.5340   -1.4790   -0.2070 C   0  0  0  0  0  0  0  0  0  0  0  0
   -3.7330   -1.3170   -0.5490 O   0  0  0  0  0  0  0  0  0  0  0  0
   -2.6510    2.4880    1.6940 C   0  0  0  0  0  0  0  0  0  0  0  0
   -2.3320    3.4890    2.5760 C   0  0  0  0  0  0  0  0  0  0  0  0
   -0.9070    6.0910    3.1500 H   0  0  0  0  0  0  0  0  0  0  0  0
    0.7860    4.1840    1.6280 H   0  0  0  0  0  0  0  0  0  0  0  0
    0.2530    2.4090    0.0320 H   0  0  0  0  0  0  0  0  0  0  0  0
   -3.1930    0.9630   -0.4090 H   0  0  0  0  0  0  0  0  0  0  0  0
   -1.5880    1.0990   -1.1470 H   0  0  0  0  0  0  0  0  0  0  0  0
   -2.3670   -0.2410    1.4730 H   0  0  0  0  0  0  0  0  0  0  0  0
   -0.2130   -1.0250    1.7780 H   0  0  0  0  0  0  0  0  0  0  0  0
   -3.6160    1.9900    1.6890 H   0  0  0  0  0  0  0  0  0  0  0  0
   -3.0650    3.8160    3.3130 H   0  0  0  0  0  0  0  0  0  0  0  0
   -0.5870   -4.7060   -2.3150 C   0  0  0  0  0  0  0  0  0  0  0  0
   -1.9910   -4.2270   -2.4600 C   0  0  0  0  0  0  0  0  0  0  0  0
   -2.1070   -3.0830   -3.4750 C   0  0  0  0  0  0  0  0  0  0  0  0
   -2.6320   -3.8130   -1.1550 C   0  0  2  0  0  0  0  0  0  0  0  0
   -1.9370   -2.7470   -0.5030 N   0  0  0  0  0  0  0  0  0  0  0  0
   -2.7160   -4.9760   -0.2410 C   0  0  0  0  0  0  0  0  0  0  0  0
   -3.2890   -6.0250   -0.6180 O   0  0  0  0  0  0  0  0  0  0  0  0
   -2.1660   -4.8960    1.0110 O   0  0  0  0  0  0  0  0  0  0  0  0
   -0.0840   -4.5540   -3.3140 H   0  0  0  0  0  0  0  0  0  0  0  0
   -0.5280   -5.8140   -2.1470 H   0  0  0  0  0  0  0  0  0  0  0  0
   -0.0690   -4.1400   -1.5230 H   0  0  0  0  0  0  0  0  0  0  0  0
   -2.6060   -5.0650   -2.8690 H   0  0  0  0  0  0  0  0  0  0  0  0
   -1.6890   -3.3810   -4.4510 H   0  0  0  0  0  0  0  0  0  0  0  0
   -3.1670   -2.8260   -3.5940 H   0  0  0  0  0  0  0  0  0  0  0  0
   -1.5240   -2.2160   -3.1110 H   0  0  0  0  0  0  0  0  0  0  0  0
   -3.6910   -3.5460   -1.4090 H   0  0  0  0  0  0  0  0  0  0  0  0
   -0.9420   -2.8500   -0.2070 H   0  0  0  0  0  0  0  0  0  0  0  0
  1  2  1  0  0  0  0
  2 13  1  1  0  0  0
  2  3  1  0  0  0  0
  3  4  1  0  0  0  0
  3 15  1  0  0  0  0
  4  5  2  0  0  0  0
  5  6  1  0  0  0  0
  5 16  1  0  0  0  0
  6 17  1  0  0  0  0
  7  6  1  0  0  0  0
  8  4  1  0  0  0  0
  8  7  2  0  0  0  0
  9  2  1  0  0  0  0
  9 26  1  0  0  0  0
 10  9  2  0  0  0  0
 11  1  1  0  0  0  0
 12  1  1  0  0  0  0
 14  3  1  0  0  0  0
 18  7  1  0  0  0  0
 20 30  1  0  0  0  0
 20 19  1  0  0  0  0
 21 20  2  0  0  0  0
 22 21  1  0  0  0  0
 23 22  2  0  0  0  0
 23 29  1  0  0  0  0
 24 25  1  0  0  0  0
 24 23  1  0  0  0  0
 25 26  1  0  0  0  0
 25 36  1  1  0  0  0
 26 37  1  0  0  0  0
 27 25  1  0  0  0  0
 28 27  2  0  0  0  0
 29 30  2  0  0  0  0
 30 39  1  0  0  0  0
 31 19  1  0  0  0  0
 32 21  1  0  0  0  0
 33 22  1  0  0  0  0
 34 24  1  0  0  0  0
 35 24  1  0  0  0  0
 38 29  1  0  0  0  0
 40 49  1  0  0  0  0
 40 50  1  0  0  0  0
 41 40  1  0  0  0  0
 41 43  1  0  0  0  0
 42 54  1  0  0  0  0
 42 41  1  0  0  0  0
 43 55  1  6  0  0  0
 43 44  1  0  0  0  0
 43 45  1  0  0  0  0
 44 56  1  0  0  0  0
 44 27  1  0  0  0  0
 45 47  1  0  0  0  0
 46 45  2  0  0  0  0
 48 40  1  0  0  0  0
 51 41  1  0  0  0  0
 52 42  1  0  0  0  0
 53 42  1  0  0  0  0
M  END
$$$$
