HYW.pdb
 OpenBabel07022418393D

 64 67  0  0  1  0  0  0  0  0999 V2000
   -3.6520    0.3820    0.0480 N   0  0  0  0  0  0  0  0  0  0  0  0
   -2.8380    0.4600    1.2600 C   0  0  1  0  0  0  0  0  0  0  0  0
   -3.1330   -0.6340    2.2120 C   0  0  0  0  0  0  0  0  0  0  0  0
   -2.3300   -0.5510    3.4510 C   0  0  0  0  0  0  0  0  0  0  0  0
   -2.7200    0.1530    4.6030 C   0  0  0  0  0  0  0  0  0  0  0  0
   -1.7750    0.0300    5.5440 N   0  0  0  0  0  0  0  0  0  0  0  0
   -0.8060   -0.7290    5.0120 C   0  0  0  0  0  0  0  0  0  0  0  0
   -1.1400   -1.0750    3.7630 N   0  0  0  0  0  0  0  0  0  0  0  0
   -1.3780    0.4850    0.8730 C   0  0  0  0  0  0  0  0  0  0  0  0
   -0.4940    0.4390    1.7480 O   0  0  0  0  0  0  0  0  0  0  0  0
   -4.6250    0.7080    0.2230 H   0  0  0  0  0  0  0  0  0  0  0  0
   -3.6850   -0.6370   -0.2350 H   0  0  0  0  0  0  0  0  0  0  0  0
   -3.0370    1.4270    1.7590 H   0  0  0  0  0  0  0  0  0  0  0  0
   -4.2320   -0.6680    2.4630 H   0  0  0  0  0  0  0  0  0  0  0  0
   -2.9560   -1.6050    1.6880 H   0  0  0  0  0  0  0  0  0  0  0  0
   -3.6550    0.6900    4.6570 H   0  0  0  0  0  0  0  0  0  0  0  0
   -1.8160    0.4520    6.4890 H   0  0  0  0  0  0  0  0  0  0  0  0
    0.1000   -1.0090    5.5370 H   0  0  0  0  0  0  0  0  0  0  0  0
    0.0190    7.0100   -0.2060 O   0  0  0  0  0  0  0  0  0  0  0  0
    0.2870    5.6470   -0.1150 C   0  0  0  0  0  0  0  0  0  0  0  0
    0.9870    5.0800   -1.1740 C   0  0  0  0  0  0  0  0  0  0  0  0
    1.2890    3.7490   -1.1620 C   0  0  0  0  0  0  0  0  0  0  0  0
    0.9230    2.9080   -0.1140 C   0  0  0  0  0  0  0  0  0  0  0  0
    1.3000    1.4740   -0.1460 C   0  0  0  0  0  0  0  0  0  0  0  0
    0.3210    0.6430   -0.9520 C   0  0  2  0  0  0  0  0  0  0  0  0
   -1.0160    0.5700   -0.4890 N   0  0  0  0  0  0  0  0  0  0  0  0
    0.8950   -0.4880   -1.6550 C   0  0  0  0  0  0  0  0  0  0  0  0
    2.0980   -0.3760   -2.0600 O   0  0  0  0  0  0  0  0  0  0  0  0
    0.2380    3.4900    0.9110 C   0  0  0  0  0  0  0  0  0  0  0  0
   -0.0920    4.8590    0.9330 C   0  0  0  0  0  0  0  0  0  0  0  0
   -0.5770    7.4950    0.4420 H   0  0  0  0  0  0  0  0  0  0  0  0
    1.2890    5.7200   -2.0190 H   0  0  0  0  0  0  0  0  0  0  0  0
    1.8390    3.2730   -1.9790 H   0  0  0  0  0  0  0  0  0  0  0  0
    1.4990    1.1210    0.8560 H   0  0  0  0  0  0  0  0  0  0  0  0
    2.2560    1.4420   -0.7600 H   0  0  0  0  0  0  0  0  0  0  0  0
    0.1770    1.4580   -1.8570 H   0  0  0  0  0  0  0  0  0  0  0  0
   -1.8520    0.5740   -1.1760 H   0  0  0  0  0  0  0  0  0  0  0  0
   -0.0890    2.9460    1.7840 H   0  0  0  0  0  0  0  0  0  0  0  0
   -0.6290    5.2810    1.7580 H   0  0  0  0  0  0  0  0  0  0  0  0
    0.2860   -1.7480   -1.9780 N   0  0  0  0  0  0  0  0  0  0  0  0
    0.9880   -2.7440   -2.7140 C   0  0  1  0  0  0  0  0  0  0  0  0
    0.9650   -4.1150   -2.1870 C   0  0  0  0  0  0  0  0  0  0  0  0
    1.5110   -4.3670   -0.8540 C   0  0  0  0  0  0  0  0  0  0  0  0
    2.8010   -4.7940   -0.5550 C   0  0  0  0  0  0  0  0  0  0  0  0
    2.9110   -4.8910    0.7760 N   0  0  0  0  0  0  0  0  0  0  0  0
    1.7590   -4.5510    1.3860 C   0  0  0  0  0  0  0  0  0  0  0  0
    1.4080   -4.5240    2.7180 C   0  0  0  0  0  0  0  0  0  0  0  0
    0.1270   -4.1550    3.0440 C   0  0  0  0  0  0  0  0  0  0  0  0
   -0.7960   -3.8160    2.0600 C   0  0  0  0  0  0  0  0  0  0  0  0
   -0.4030   -3.8550    0.7440 C   0  0  0  0  0  0  0  0  0  0  0  0
    0.8810   -4.2220    0.3660 C   0  0  0  0  0  0  0  0  0  0  0  0
    0.5070   -2.8200   -4.1400 C   0  0  0  0  0  0  0  0  0  0  0  0
    1.0740   -3.6700   -4.8720 O   0  0  0  0  0  0  0  0  0  0  0  0
   -0.4810   -2.0430   -4.6710 O   0  0  0  0  0  0  0  0  0  0  0  0
   -0.6870   -1.8670   -1.6380 H   0  0  0  0  0  0  0  0  0  0  0  0
    2.0890   -2.4620   -2.8410 H   0  0  0  0  0  0  0  0  0  0  0  0
   -0.1220   -4.4550   -2.1820 H   0  0  0  0  0  0  0  0  0  0  0  0
    1.4830   -4.7720   -2.9560 H   0  0  0  0  0  0  0  0  0  0  0  0
    3.5490   -4.9970   -1.3310 H   0  0  0  0  0  0  0  0  0  0  0  0
    3.7790   -5.1880    1.2600 H   0  0  0  0  0  0  0  0  0  0  0  0
    2.1460   -4.7920    3.4540 H   0  0  0  0  0  0  0  0  0  0  0  0
   -0.1860   -4.1240    4.0730 H   0  0  0  0  0  0  0  0  0  0  0  0
   -1.7870   -3.5420    2.3980 H   0  0  0  0  0  0  0  0  0  0  0  0
   -1.0930   -3.5970   -0.0340 H   0  0  0  0  0  0  0  0  0  0  0  0
  1 11  1  0  0  0  0
  1  2  1  0  0  0  0
  2 13  1  1  0  0  0
  2  3  1  0  0  0  0
  3 14  1  0  0  0  0
  3  4  1  0  0  0  0
  4  8  1  0  0  0  0
  4  5  2  0  0  0  0
  5 16  1  0  0  0  0
  5  6  1  0  0  0  0
  6 17  1  0  0  0  0
  7 18  1  0  0  0  0
  7  6  1  0  0  0  0
  8  7  2  0  0  0  0
  9  2  1  0  0  0  0
  9 10  2  0  0  0  0
 12  1  1  0  0  0  0
 15  3  1  0  0  0  0
 19 20  1  0  0  0  0
 19 31  1  0  0  0  0
 20 30  1  0  0  0  0
 21 22  1  0  0  0  0
 21 20  2  0  0  0  0
 22 23  2  0  0  0  0
 23 29  1  0  0  0  0
 24 23  1  0  0  0  0
 24 34  1  0  0  0  0
 25 36  1  6  0  0  0
 25 26  1  0  0  0  0
 25 24  1  0  0  0  0
 26  9  1  0  0  0  0
 27 25  1  0  0  0  0
 28 27  2  0  0  0  0
 29 30  2  0  0  0  0
 29 38  1  0  0  0  0
 30 39  1  0  0  0  0
 32 21  1  0  0  0  0
 33 22  1  0  0  0  0
 35 24  1  0  0  0  0
 37 26  1  0  0  0  0
 40 27  1  0  0  0  0
 40 55  1  0  0  0  0
 41 56  1  6  0  0  0
 41 42  1  0  0  0  0
 41 40  1  0  0  0  0
 42 57  1  0  0  0  0
 42 43  1  0  0  0  0
 43 44  2  0  0  0  0
 43 51  1  0  0  0  0
 44 45  1  0  0  0  0
 45 60  1  0  0  0  0
 45 46  1  0  0  0  0
 46 47  1  0  0  0  0
 47 48  2  0  0  0  0
 47 61  1  0  0  0  0
 48 62  1  0  0  0  0
 49 63  1  0  0  0  0
 49 48  1  0  0  0  0
 50 49  2  0  0  0  0
 51 50  1  0  0  0  0
 51 46  2  0  0  0  0
 52 41  1  0  0  0  0
 53 52  2  0  0  0  0
 54 52  1  0  0  0  0
 58 42  1  0  0  0  0
 59 44  1  0  0  0  0
 64 50  1  0  0  0  0
M  END
$$$$
