IAA.pdb
 OpenBabel07022418393D

 41 40  0  0  1  0  0  0  0  0999 V2000
    3.8150    4.3040   -0.7420 C   0  0  0  0  0  0  0  0  0  0  0  0
    3.7550    2.8020   -0.7090 C   0  0  0  0  0  0  0  0  0  0  0  0
    2.5270    2.3330    0.0440 C   0  0  2  0  0  0  0  0  0  0  0  0
    2.5180    2.8170    1.4660 C   0  0  0  0  0  0  0  0  0  0  0  0
    2.4520    0.8350   -0.0770 C   0  0  2  0  0  0  0  0  0  0  0  0
    2.3550    0.4970   -1.4630 N   0  0  0  0  0  0  0  0  0  0  0  0
    1.3430    0.2750    0.7320 C   0  0  0  0  0  0  0  0  0  0  0  0
    1.3310    0.5120    1.9680 O   0  0  0  0  0  0  0  0  0  0  0  0
    3.7970    4.6060   -1.8270 H   0  0  0  0  0  0  0  0  0  0  0  0
    4.7260    4.7090   -0.2570 H   0  0  0  0  0  0  0  0  0  0  0  0
    2.9290    4.7880   -0.2890 H   0  0  0  0  0  0  0  0  0  0  0  0
    3.6630    2.3560   -1.7400 H   0  0  0  0  0  0  0  0  0  0  0  0
    4.6610    2.3800   -0.2160 H   0  0  0  0  0  0  0  0  0  0  0  0
    1.6390    2.7660   -0.4660 H   0  0  0  0  0  0  0  0  0  0  0  0
    1.5130    2.9720    1.8740 H   0  0  0  0  0  0  0  0  0  0  0  0
    3.1230    2.1110    2.1060 H   0  0  0  0  0  0  0  0  0  0  0  0
    3.1190    3.7730    1.4920 H   0  0  0  0  0  0  0  0  0  0  0  0
    3.3940    0.3950    0.3150 H   0  0  0  0  0  0  0  0  0  0  0  0
    2.2310   -0.5270   -1.6330 H   0  0  0  0  0  0  0  0  0  0  0  0
    1.5750    0.9870   -1.9590 H   0  0  0  0  0  0  0  0  0  0  0  0
   -2.0930   -0.4560    0.6310 C   0  0  0  0  0  0  0  0  0  0  0  0
   -0.7590   -1.0320    1.0290 C   0  0  2  0  0  0  0  0  0  0  0  0
    0.3020   -0.5080    0.1940 N   0  0  0  0  0  0  0  0  0  0  0  0
   -0.7700   -2.5260    1.0150 C   0  0  0  0  0  0  0  0  0  0  0  0
    0.0640   -3.1830    0.3420 O   0  0  0  0  0  0  0  0  0  0  0  0
   -1.9890    0.1050   -0.3280 H   0  0  0  0  0  0  0  0  0  0  0  0
   -2.8730   -1.2380    0.5570 H   0  0  0  0  0  0  0  0  0  0  0  0
   -2.4780    0.2890    1.3650 H   0  0  0  0  0  0  0  0  0  0  0  0
   -0.5740   -0.7020    2.0860 H   0  0  0  0  0  0  0  0  0  0  0  0
    0.3060   -0.7080   -0.8280 H   0  0  0  0  0  0  0  0  0  0  0  0
   -1.5560   -5.1350    3.2510 C   0  0  0  0  0  0  0  0  0  0  0  0
   -1.8530   -4.6490    1.8430 C   0  0  2  0  0  0  0  0  0  0  0  0
   -1.7230   -3.2300    1.7620 N   0  0  0  0  0  0  0  0  0  0  0  0
   -3.1340   -5.1630    1.3550 C   0  0  0  0  0  0  0  0  0  0  0  0
   -3.9860   -4.3490    0.9200 O   0  0  0  0  0  0  0  0  0  0  0  0
   -3.4660   -6.5060    1.3440 O   0  0  0  0  0  0  0  0  0  0  0  0
   -1.8820   -6.2010    3.3430 H   0  0  0  0  0  0  0  0  0  0  0  0
   -2.1410   -4.5310    3.9870 H   0  0  0  0  0  0  0  0  0  0  0  0
   -0.4810   -5.0970    3.4290 H   0  0  0  0  0  0  0  0  0  0  0  0
   -1.0420   -5.0890    1.1930 H   0  0  0  0  0  0  0  0  0  0  0  0
   -2.4150   -2.6540    2.3200 H   0  0  0  0  0  0  0  0  0  0  0  0
  1  2  1  0  0  0  0
  1 11  1  0  0  0  0
  1 10  1  0  0  0  0
  2 13  1  0  0  0  0
  2  3  1  0  0  0  0
  3 14  1  6  0  0  0
  3  4  1  0  0  0  0
  4 17  1  0  0  0  0
  4 15  1  0  0  0  0
  4 16  1  0  0  0  0
  5  3  1  0  0  0  0
  5 18  1  1  0  0  0
  5  7  1  0  0  0  0
  6  5  1  0  0  0  0
  7  8  2  0  0  0  0
  9  1  1  0  0  0  0
 12  2  1  0  0  0  0
 19  6  1  0  0  0  0
 20  6  1  0  0  0  0
 21 22  1  0  0  0  0
 21 28  1  0  0  0  0
 22 29  1  1  0  0  0
 23  7  1  0  0  0  0
 23 22  1  0  0  0  0
 24 22  1  0  0  0  0
 24 33  1  0  0  0  0
 25 24  2  0  0  0  0
 26 21  1  0  0  0  0
 27 21  1  0  0  0  0
 30 23  1  0  0  0  0
 31 37  1  0  0  0  0
 31 39  1  0  0  0  0
 31 38  1  0  0  0  0
 32 40  1  6  0  0  0
 32 31  1  0  0  0  0
 33 32  1  0  0  0  0
 33 41  1  0  0  0  0
 34 32  1  0  0  0  0
 35 34  2  0  0  0  0
 36 34  1  0  0  0  0
M  END
$$$$
