IAC.pdb
 OpenBabel07022418393D

 42 41  0  0  1  0  0  0  0  0999 V2000
    0.3740   -5.1380   -0.8660 C   0  0  0  0  0  0  0  0  0  0  0  0
    1.1850   -4.1620   -1.6620 C   0  0  0  0  0  0  0  0  0  0  0  0
    0.2720   -3.1480   -2.2720 C   0  0  2  0  0  0  0  0  0  0  0  0
    1.0140   -2.1170   -3.1000 C   0  0  0  0  0  0  0  0  0  0  0  0
   -0.5550   -2.4060   -1.2640 C   0  0  2  0  0  0  0  0  0  0  0  0
   -1.4000   -1.4540   -1.9550 N   0  0  0  0  0  0  0  0  0  0  0  0
    0.2420   -1.7230   -0.2300 C   0  0  0  0  0  0  0  0  0  0  0  0
    1.0470   -2.3640    0.4940 O   0  0  0  0  0  0  0  0  0  0  0  0
    0.5100   -5.0480    0.2300 H   0  0  0  0  0  0  0  0  0  0  0  0
   -0.7150   -5.0660   -1.0740 H   0  0  0  0  0  0  0  0  0  0  0  0
    0.6420   -6.2040   -1.1060 H   0  0  0  0  0  0  0  0  0  0  0  0
    2.0440   -3.7350   -1.1160 H   0  0  0  0  0  0  0  0  0  0  0  0
    1.6380   -4.7430   -2.5140 H   0  0  0  0  0  0  0  0  0  0  0  0
   -0.4300   -3.6850   -2.9430 H   0  0  0  0  0  0  0  0  0  0  0  0
    1.2910   -1.2240   -2.4990 H   0  0  0  0  0  0  0  0  0  0  0  0
    0.3500   -1.7970   -3.9090 H   0  0  0  0  0  0  0  0  0  0  0  0
    1.9060   -2.6060   -3.5410 H   0  0  0  0  0  0  0  0  0  0  0  0
   -1.2310   -3.1190   -0.7510 H   0  0  0  0  0  0  0  0  0  0  0  0
   -2.2140   -1.2350   -1.3450 H   0  0  0  0  0  0  0  0  0  0  0  0
   -1.7760   -1.9060   -2.8160 H   0  0  0  0  0  0  0  0  0  0  0  0
    1.9180    1.3020    0.4100 C   0  0  0  0  0  0  0  0  0  0  0  0
    0.9600    0.3290    1.0450 C   0  0  2  0  0  0  0  0  0  0  0  0
    0.1630   -0.3140    0.0220 N   0  0  0  0  0  0  0  0  0  0  0  0
    0.0430    0.9810    2.0070 C   0  0  0  0  0  0  0  0  0  0  0  0
   -1.1910    0.8920    1.8160 O   0  0  0  0  0  0  0  0  0  0  0  0
    1.4060    1.7640   -0.4730 H   0  0  0  0  0  0  0  0  0  0  0  0
    2.3390    2.0280    1.1030 H   0  0  0  0  0  0  0  0  0  0  0  0
    2.7660    0.7140   -0.0080 H   0  0  0  0  0  0  0  0  0  0  0  0
    1.5760   -0.4630    1.5270 H   0  0  0  0  0  0  0  0  0  0  0  0
   -0.5110    0.2250   -0.5840 H   0  0  0  0  0  0  0  0  0  0  0  0
    0.4820    1.7100    3.1470 N   0  0  0  0  0  0  0  0  0  0  0  0
   -0.3770    2.3520    4.0960 C   0  0  1  0  0  0  0  0  0  0  0  0
   -0.1320    1.6620    5.4450 C   0  0  0  0  0  0  0  0  0  0  0  0
    1.6050    1.8440    5.9310 S   0  0  0  0  0  0  0  0  0  0  0  0
   -0.0740    3.7780    4.2970 C   0  0  0  0  0  0  0  0  0  0  0  0
    0.8670    4.2980    3.6540 O   0  0  0  0  0  0  0  0  0  0  0  0
   -0.7840    4.5810    5.1690 O   0  0  0  0  0  0  0  0  0  0  0  0
    1.5170    1.7660    3.2780 H   0  0  0  0  0  0  0  0  0  0  0  0
   -1.4420    2.2510    3.8950 H   0  0  0  0  0  0  0  0  0  0  0  0
   -0.4460    0.6080    5.4280 H   0  0  0  0  0  0  0  0  0  0  0  0
   -0.7470    2.1900    6.2290 H   0  0  0  0  0  0  0  0  0  0  0  0
    2.2390    0.5980    6.0780 H   0  0  0  0  0  0  0  0  0  0  0  0
  1  9  1  0  0  0  0
  2 12  1  0  0  0  0
  2  1  1  0  0  0  0
  3 14  1  6  0  0  0
  3  2  1  0  0  0  0
  3  5  1  0  0  0  0
  4 15  1  0  0  0  0
  4  3  1  0  0  0  0
  5 18  1  1  0  0  0
  5  7  1  0  0  0  0
  6 19  1  0  0  0  0
  6  5  1  0  0  0  0
  7 23  1  0  0  0  0
  7  8  2  0  0  0  0
 10  1  1  0  0  0  0
 11  1  1  0  0  0  0
 13  2  1  0  0  0  0
 16  4  1  0  0  0  0
 17  4  1  0  0  0  0
 20  6  1  0  0  0  0
 21 22  1  0  0  0  0
 21 27  1  0  0  0  0
 22 29  1  1  0  0  0
 22 24  1  0  0  0  0
 23 22  1  0  0  0  0
 24 31  1  0  0  0  0
 25 24  2  0  0  0  0
 26 21  1  0  0  0  0
 28 21  1  0  0  0  0
 30 23  1  0  0  0  0
 31 38  1  0  0  0  0
 31 32  1  0  0  0  0
 32 39  1  6  0  0  0
 32 35  1  0  0  0  0
 32 33  1  0  0  0  0
 33 34  1  0  0  0  0
 33 41  1  0  0  0  0
 34 42  1  0  0  0  0
 35 37  1  0  0  0  0
 36 35  2  0  0  0  0
 40 33  1  0  0  0  0
M  END
$$$$
