IAD.pdb
 OpenBabel07022418393D

 44 43  0  0  1  0  0  0  0  0999 V2000
    3.5230   -3.7850    1.9480 C   0  0  0  0  0  0  0  0  0  0  0  0
    2.5850   -4.2750    0.8750 C   0  0  0  0  0  0  0  0  0  0  0  0
    1.1390   -3.9640    1.1770 C   0  0  2  0  0  0  0  0  0  0  0  0
    0.2260   -4.4840    0.0790 C   0  0  0  0  0  0  0  0  0  0  0  0
    0.8790   -2.5190    1.4780 C   0  0  2  0  0  0  0  0  0  0  0  0
   -0.5660   -2.4030    1.7520 N   0  0  0  0  0  0  0  0  0  0  0  0
    1.2880   -1.5590    0.4700 C   0  0  0  0  0  0  0  0  0  0  0  0
    2.4920   -1.5270    0.1080 O   0  0  0  0  0  0  0  0  0  0  0  0
    3.4500   -4.5300    2.7970 H   0  0  0  0  0  0  0  0  0  0  0  0
    3.2960   -2.8130    2.3710 H   0  0  0  0  0  0  0  0  0  0  0  0
    4.5930   -3.8720    1.6190 H   0  0  0  0  0  0  0  0  0  0  0  0
    2.9250   -3.8120   -0.0790 H   0  0  0  0  0  0  0  0  0  0  0  0
    2.7120   -5.3820    0.8020 H   0  0  0  0  0  0  0  0  0  0  0  0
    0.8760   -4.5340    2.0920 H   0  0  0  0  0  0  0  0  0  0  0  0
   -0.6690   -3.8420   -0.0470 H   0  0  0  0  0  0  0  0  0  0  0  0
   -0.1580   -5.5030    0.3170 H   0  0  0  0  0  0  0  0  0  0  0  0
    0.8090   -4.5960   -0.8630 H   0  0  0  0  0  0  0  0  0  0  0  0
    1.3610   -2.2790    2.4410 H   0  0  0  0  0  0  0  0  0  0  0  0
   -0.8780   -3.1910    2.3590 H   0  0  0  0  0  0  0  0  0  0  0  0
   -0.6850   -1.4870    2.2350 H   0  0  0  0  0  0  0  0  0  0  0  0
    0.1190   -0.0330   -2.4820 C   0  0  0  0  0  0  0  0  0  0  0  0
    0.7510    0.3190   -1.1300 C   0  0  2  0  0  0  0  0  0  0  0  0
    0.3480   -0.6410   -0.1260 N   0  0  0  0  0  0  0  0  0  0  0  0
    0.4190    1.6970   -0.7650 C   0  0  0  0  0  0  0  0  0  0  0  0
    0.6580    2.7100   -1.4610 O   0  0  0  0  0  0  0  0  0  0  0  0
    0.5540   -0.9730   -2.8720 H   0  0  0  0  0  0  0  0  0  0  0  0
   -0.9700   -0.1490   -2.3220 H   0  0  0  0  0  0  0  0  0  0  0  0
    0.3630    0.7670   -3.1910 H   0  0  0  0  0  0  0  0  0  0  0  0
    1.8540    0.1740   -1.2920 H   0  0  0  0  0  0  0  0  0  0  0  0
   -0.6270   -0.7350    0.2310 H   0  0  0  0  0  0  0  0  0  0  0  0
   -0.2370    1.9300    0.4960 N   0  0  0  0  0  0  0  0  0  0  0  0
   -0.5990    3.2420    0.9350 C   0  0  1  0  0  0  0  0  0  0  0  0
   -2.0970    3.3680    0.9580 C   0  0  0  0  0  0  0  0  0  0  0  0
   -2.7660    2.4280    1.8630 C   0  0  0  0  0  0  0  0  0  0  0  0
   -2.1030    1.6390    2.5660 O   0  0  0  0  0  0  0  0  0  0  0  0
   -0.0850    3.5950    2.2550 C   0  0  0  0  0  0  0  0  0  0  0  0
    0.6040    2.7840    2.9050 O   0  0  0  0  0  0  0  0  0  0  0  0
   -4.1390    2.4150    1.9380 O   0  0  0  0  0  0  0  0  0  0  0  0
   -0.3490    4.8270    2.8120 O   0  0  0  0  0  0  0  0  0  0  0  0
   -0.4440    1.1190    1.0920 H   0  0  0  0  0  0  0  0  0  0  0  0
   -0.2340    3.9550    0.1320 H   0  0  0  0  0  0  0  0  0  0  0  0
   -2.4130    4.4150    1.1650 H   0  0  0  0  0  0  0  0  0  0  0  0
   -2.4510    3.1200   -0.0750 H   0  0  0  0  0  0  0  0  0  0  0  0
   -4.6580    1.8040    2.5380 H   0  0  0  0  0  0  0  0  0  0  0  0
  1 10  1  0  0  0  0
  1  9  1  0  0  0  0
  2  3  1  0  0  0  0
  2  1  1  0  0  0  0
  3  5  1  0  0  0  0
  3 14  1  1  0  0  0
  4 16  1  0  0  0  0
  4  3  1  0  0  0  0
  5  6  1  0  0  0  0
  5 18  1  1  0  0  0
  6 20  1  0  0  0  0
  6 19  1  0  0  0  0
  7  5  1  0  0  0  0
  8  7  2  0  0  0  0
 11  1  1  0  0  0  0
 12  2  1  0  0  0  0
 13  2  1  0  0  0  0
 15  4  1  0  0  0  0
 17  4  1  0  0  0  0
 21 27  1  0  0  0  0
 21 22  1  0  0  0  0
 22 29  1  6  0  0  0
 22 24  1  0  0  0  0
 22 23  1  0  0  0  0
 23 30  1  0  0  0  0
 23  7  1  0  0  0  0
 24 31  1  0  0  0  0
 25 24  2  0  0  0  0
 26 21  1  0  0  0  0
 28 21  1  0  0  0  0
 31 32  1  0  0  0  0
 31 40  1  0  0  0  0
 32 41  1  6  0  0  0
 32 33  1  0  0  0  0
 32 36  1  0  0  0  0
 33 42  1  0  0  0  0
 33 34  1  0  0  0  0
 34 38  1  0  0  0  0
 34 35  2  0  0  0  0
 36 39  2  0  0  0  0
 36 37  1  0  0  0  0
 38 44  1  0  0  0  0
 43 33  1  0  0  0  0
M  END
$$$$
