IAF.pdb
 OpenBabel07022418393D

 51 51  0  0  1  0  0  0  0  0999 V2000
    2.3190   -2.5860   -1.7150 C   0  0  0  0  0  0  0  0  0  0  0  0
    2.5130   -1.9900   -0.3330 C   0  0  0  0  0  0  0  0  0  0  0  0
    3.4900   -2.7590    0.4880 C   0  0  2  0  0  0  0  0  0  0  0  0
    3.0910   -4.1750    0.7220 C   0  0  0  0  0  0  0  0  0  0  0  0
    3.8650   -1.9950    1.7410 C   0  0  2  0  0  0  0  0  0  0  0  0
    4.8310   -2.8230    2.4980 N   0  0  0  0  0  0  0  0  0  0  0  0
    2.7470   -1.6260    2.6050 C   0  0  0  0  0  0  0  0  0  0  0  0
    2.5990   -2.2670    3.6950 O   0  0  0  0  0  0  0  0  0  0  0  0
    1.9700   -1.7660   -2.3750 H   0  0  0  0  0  0  0  0  0  0  0  0
    3.2460   -2.9880   -2.1430 H   0  0  0  0  0  0  0  0  0  0  0  0
    1.5170   -3.3490   -1.7290 H   0  0  0  0  0  0  0  0  0  0  0  0
    2.8320   -0.9400   -0.4700 H   0  0  0  0  0  0  0  0  0  0  0  0
    1.5360   -2.0450    0.2220 H   0  0  0  0  0  0  0  0  0  0  0  0
    4.4440   -2.8010   -0.1330 H   0  0  0  0  0  0  0  0  0  0  0  0
    3.4960   -4.5630    1.6850 H   0  0  0  0  0  0  0  0  0  0  0  0
    1.9940   -4.3390    0.7650 H   0  0  0  0  0  0  0  0  0  0  0  0
    3.5040   -4.8280   -0.0740 H   0  0  0  0  0  0  0  0  0  0  0  0
    4.4180   -1.0820    1.4540 H   0  0  0  0  0  0  0  0  0  0  0  0
    5.5690   -2.1770    2.8280 H   0  0  0  0  0  0  0  0  0  0  0  0
    5.2590   -3.4860    1.8200 H   0  0  0  0  0  0  0  0  0  0  0  0
    1.1200    0.8760    4.1420 C   0  0  0  0  0  0  0  0  0  0  0  0
    0.7610   -0.3670    3.3180 C   0  0  2  0  0  0  0  0  0  0  0  0
    1.7950   -0.6030    2.3520 N   0  0  0  0  0  0  0  0  0  0  0  0
   -0.5380   -0.2320    2.6760 C   0  0  0  0  0  0  0  0  0  0  0  0
   -1.6260   -0.0990    3.3470 O   0  0  0  0  0  0  0  0  0  0  0  0
    0.2540    1.1030    4.7670 H   0  0  0  0  0  0  0  0  0  0  0  0
    1.9600    0.5630    4.7950 H   0  0  0  0  0  0  0  0  0  0  0  0
    1.4810    1.6850    3.5080 H   0  0  0  0  0  0  0  0  0  0  0  0
    0.7090   -1.1780    4.0890 H   0  0  0  0  0  0  0  0  0  0  0  0
    1.8410   -0.0330    1.4950 H   0  0  0  0  0  0  0  0  0  0  0  0
   -0.7600   -0.2270    1.2890 N   0  0  0  0  0  0  0  0  0  0  0  0
   -2.0550   -0.0940    0.6530 C   0  0  1  0  0  0  0  0  0  0  0  0
   -2.0390    1.2570   -0.0340 C   0  0  0  0  0  0  0  0  0  0  0  0
   -3.2910    1.5810   -0.7500 C   0  0  0  0  0  0  0  0  0  0  0  0
   -4.3180    2.2280   -0.1110 C   0  0  0  0  0  0  0  0  0  0  0  0
   -5.4700    2.5230   -0.7930 C   0  0  0  0  0  0  0  0  0  0  0  0
   -5.6700    2.2020   -2.1230 C   0  0  0  0  0  0  0  0  0  0  0  0
   -4.6350    1.5540   -2.7550 C   0  0  0  0  0  0  0  0  0  0  0  0
   -3.4780    1.2550   -2.0760 C   0  0  0  0  0  0  0  0  0  0  0  0
   -2.4390   -1.1950   -0.1890 C   0  0  0  0  0  0  0  0  0  0  0  0
   -1.6980   -2.1830   -0.3600 O   0  0  0  0  0  0  0  0  0  0  0  0
   -3.6490   -1.2050   -0.8460 O   0  0  0  0  0  0  0  0  0  0  0  0
    0.0350   -0.3140    0.6260 H   0  0  0  0  0  0  0  0  0  0  0  0
   -2.7930    0.0090    1.4840 H   0  0  0  0  0  0  0  0  0  0  0  0
   -1.2250    1.2930   -0.8200 H   0  0  0  0  0  0  0  0  0  0  0  0
   -1.7790    2.0690    0.6720 H   0  0  0  0  0  0  0  0  0  0  0  0
   -4.1830    2.4940    0.9470 H   0  0  0  0  0  0  0  0  0  0  0  0
   -6.2620    3.0380   -0.2470 H   0  0  0  0  0  0  0  0  0  0  0  0
   -6.6050    2.4590   -2.6220 H   0  0  0  0  0  0  0  0  0  0  0  0
   -4.7590    1.2900   -3.7890 H   0  0  0  0  0  0  0  0  0  0  0  0
   -2.6780    0.7460   -2.5900 H   0  0  0  0  0  0  0  0  0  0  0  0
  1  2  1  0  0  0  0
  2 13  1  0  0  0  0
  2  3  1  0  0  0  0
  3 14  1  6  0  0  0
  3  4  1  0  0  0  0
  3  5  1  0  0  0  0
  4 16  1  0  0  0  0
  4 15  1  0  0  0  0
  5 18  1  6  0  0  0
  5  6  1  0  0  0  0
  5  7  1  0  0  0  0
  6 19  1  0  0  0  0
  7  8  2  0  0  0  0
  9  1  1  0  0  0  0
 10  1  1  0  0  0  0
 11  1  1  0  0  0  0
 12  2  1  0  0  0  0
 17  4  1  0  0  0  0
 20  6  1  0  0  0  0
 21 26  1  0  0  0  0
 21 27  1  0  0  0  0
 22 29  1  1  0  0  0
 22 21  1  0  0  0  0
 23  7  1  0  0  0  0
 23 22  1  0  0  0  0
 24 22  1  0  0  0  0
 24 25  2  0  0  0  0
 28 21  1  0  0  0  0
 30 23  1  0  0  0  0
 31 24  1  0  0  0  0
 32 31  1  0  0  0  0
 32 44  1  1  0  0  0
 33 32  1  0  0  0  0
 33 46  1  0  0  0  0
 34 35  1  0  0  0  0
 34 33  1  0  0  0  0
 35 47  1  0  0  0  0
 36 48  1  0  0  0  0
 36 35  2  0  0  0  0
 37 36  1  0  0  0  0
 38 37  2  0  0  0  0
 38 39  1  0  0  0  0
 39 34  2  0  0  0  0
 40 32  1  0  0  0  0
 41 40  1  0  0  0  0
 42 40  2  0  0  0  0
 43 31  1  0  0  0  0
 45 33  1  0  0  0  0
 49 37  1  0  0  0  0
 50 38  1  0  0  0  0
 51 39  1  0  0  0  0
M  END
$$$$
