IAG.pdb
 OpenBabel07022418393D

 38 37  0  0  1  0  0  0  0  0999 V2000
   -1.9430   -3.1130    1.9870 C   0  0  0  0  0  0  0  0  0  0  0  0
   -0.4890   -2.8700    1.6390 C   0  0  0  0  0  0  0  0  0  0  0  0
   -0.3370   -2.9110    0.1350 C   0  0  2  0  0  0  0  0  0  0  0  0
   -0.7690   -4.2670   -0.3680 C   0  0  0  0  0  0  0  0  0  0  0  0
    1.0720   -2.6790   -0.3030 C   0  0  2  0  0  0  0  0  0  0  0  0
    1.9300   -3.6780    0.2420 N   0  0  0  0  0  0  0  0  0  0  0  0
    1.5580   -1.3090    0.0340 C   0  0  0  0  0  0  0  0  0  0  0  0
    2.6040   -1.1630    0.7190 O   0  0  0  0  0  0  0  0  0  0  0  0
   -2.0460   -3.7180    2.8920 H   0  0  0  0  0  0  0  0  0  0  0  0
   -2.4470   -2.1210    2.1210 H   0  0  0  0  0  0  0  0  0  0  0  0
   -2.4340   -3.6560    1.1550 H   0  0  0  0  0  0  0  0  0  0  0  0
   -0.1180   -1.9380    2.0770 H   0  0  0  0  0  0  0  0  0  0  0  0
    0.0910   -3.6990    2.0980 H   0  0  0  0  0  0  0  0  0  0  0  0
   -1.0020   -2.1010   -0.2800 H   0  0  0  0  0  0  0  0  0  0  0  0
   -1.0310   -4.9660    0.4650 H   0  0  0  0  0  0  0  0  0  0  0  0
    0.0650   -4.7910   -0.9190 H   0  0  0  0  0  0  0  0  0  0  0  0
   -1.6560   -4.2020   -1.0170 H   0  0  0  0  0  0  0  0  0  0  0  0
    1.1040   -2.7570   -1.4050 H   0  0  0  0  0  0  0  0  0  0  0  0
    1.4570   -4.4430    0.7450 H   0  0  0  0  0  0  0  0  0  0  0  0
    2.7970   -3.3310    0.6770 H   0  0  0  0  0  0  0  0  0  0  0  0
    1.6420    1.9140   -1.3310 C   0  0  0  0  0  0  0  0  0  0  0  0
    1.4020    1.1650   -0.0320 C   0  0  2  0  0  0  0  0  0  0  0  0
    0.8800   -0.1430   -0.3920 N   0  0  0  0  0  0  0  0  0  0  0  0
    0.3810    1.9530    0.7300 C   0  0  0  0  0  0  0  0  0  0  0  0
   -0.7430    1.4350    0.9630 O   0  0  0  0  0  0  0  0  0  0  0  0
    1.0180    1.5140   -2.1590 H   0  0  0  0  0  0  0  0  0  0  0  0
    2.7180    1.8420   -1.6330 H   0  0  0  0  0  0  0  0  0  0  0  0
    1.3850    2.9870   -1.2210 H   0  0  0  0  0  0  0  0  0  0  0  0
    2.3160    1.1030    0.5630 H   0  0  0  0  0  0  0  0  0  0  0  0
    0.0090   -0.2210   -0.9610 H   0  0  0  0  0  0  0  0  0  0  0  0
    0.7230    3.2630    1.1650 N   0  0  0  0  0  0  0  0  0  0  0  0
   -0.2310    4.0650    1.9060 C   0  0  0  0  0  0  0  0  0  0  0  0
   -0.6190    3.3850    3.1740 C   0  0  0  0  0  0  0  0  0  0  0  0
   -1.4310    3.9080    3.9600 O   0  0  0  0  0  0  0  0  0  0  0  0
   -0.0780    2.1520    3.4980 O   0  0  0  0  0  0  0  0  0  0  0  0
    1.6690    3.6270    0.9380 H   0  0  0  0  0  0  0  0  0  0  0  0
   -1.1470    4.2200    1.3000 H   0  0  0  0  0  0  0  0  0  0  0  0
    0.2260    5.0500    2.1220 H   0  0  0  0  0  0  0  0  0  0  0  0
  1 10  1  0  0  0  0
  1  9  1  0  0  0  0
  2  1  1  0  0  0  0
  2 12  1  0  0  0  0
  2 13  1  0  0  0  0
  3 14  1  6  0  0  0
  3  2  1  0  0  0  0
  4  3  1  0  0  0  0
  4 15  1  0  0  0  0
  5 18  1  6  0  0  0
  5  7  1  0  0  0  0
  5  3  1  0  0  0  0
  5  6  1  0  0  0  0
  6 20  1  0  0  0  0
  6 19  1  0  0  0  0
  7  8  2  0  0  0  0
 11  1  1  0  0  0  0
 16  4  1  0  0  0  0
 17  4  1  0  0  0  0
 21 28  1  0  0  0  0
 21 22  1  0  0  0  0
 22 29  1  1  0  0  0
 22 24  1  0  0  0  0
 23 22  1  0  0  0  0
 23  7  1  0  0  0  0
 24 25  2  0  0  0  0
 24 31  1  0  0  0  0
 26 21  1  0  0  0  0
 27 21  1  0  0  0  0
 30 23  1  0  0  0  0
 31 32  1  0  0  0  0
 32 38  1  0  0  0  0
 32 33  1  0  0  0  0
 33 35  2  0  0  0  0
 33 34  1  0  0  0  0
 36 31  1  0  0  0  0
 37 32  1  0  0  0  0
M  END
$$$$
