IAI.pdb
 OpenBabel07022418393D

 50 49  0  0  1  0  0  0  0  0999 V2000
    2.0270   -5.1670    2.0380 C   0  0  0  0  0  0  0  0  0  0  0  0
    2.8180   -4.8180    0.8260 C   0  0  0  0  0  0  0  0  0  0  0  0
    2.1490   -3.8670   -0.1290 C   0  0  2  0  0  0  0  0  0  0  0  0
    3.1020   -3.6620   -1.3000 C   0  0  0  0  0  0  0  0  0  0  0  0
    1.8950   -2.4900    0.4680 C   0  0  2  0  0  0  0  0  0  0  0  0
    1.0580   -2.5300    1.6280 N   0  0  0  0  0  0  0  0  0  0  0  0
    1.3920   -1.5870   -0.6050 C   0  0  0  0  0  0  0  0  0  0  0  0
    2.1360   -1.2690   -1.5920 O   0  0  0  0  0  0  0  0  0  0  0  0
    0.9540   -4.8730    2.0030 H   0  0  0  0  0  0  0  0  0  0  0  0
    2.5520   -4.8160    2.9560 H   0  0  0  0  0  0  0  0  0  0  0  0
    1.9730   -6.2960    2.1840 H   0  0  0  0  0  0  0  0  0  0  0  0
    2.9630   -5.7710    0.2360 H   0  0  0  0  0  0  0  0  0  0  0  0
    3.8450   -4.4390    1.0770 H   0  0  0  0  0  0  0  0  0  0  0  0
    1.2280   -4.3130   -0.4940 H   0  0  0  0  0  0  0  0  0  0  0  0
    3.7870   -2.8220   -1.0920 H   0  0  0  0  0  0  0  0  0  0  0  0
    2.5630   -3.4520   -2.2410 H   0  0  0  0  0  0  0  0  0  0  0  0
    3.7430   -4.5590   -1.4380 H   0  0  0  0  0  0  0  0  0  0  0  0
    2.8850   -2.0860    0.7780 H   0  0  0  0  0  0  0  0  0  0  0  0
    0.5870   -1.5940    1.7390 H   0  0  0  0  0  0  0  0  0  0  0  0
    1.6650   -2.6790    2.4980 H   0  0  0  0  0  0  0  0  0  0  0  0
   -1.6290   -0.7390   -2.2500 C   0  0  0  0  0  0  0  0  0  0  0  0
   -0.4050   -0.1860   -1.5940 C   0  0  2  0  0  0  0  0  0  0  0  0
    0.0810   -1.0730   -0.5410 N   0  0  0  0  0  0  0  0  0  0  0  0
   -0.7480    1.1360   -1.0070 C   0  0  0  0  0  0  0  0  0  0  0  0
   -1.1890    2.0420   -1.7470 O   0  0  0  0  0  0  0  0  0  0  0  0
   -2.1090    0.1080   -2.8130 H   0  0  0  0  0  0  0  0  0  0  0  0
   -2.4070   -1.0540   -1.5100 H   0  0  0  0  0  0  0  0  0  0  0  0
   -1.4270   -1.5180   -2.9990 H   0  0  0  0  0  0  0  0  0  0  0  0
    0.3680   -0.0280   -2.3720 H   0  0  0  0  0  0  0  0  0  0  0  0
   -0.5870   -1.2890    0.2130 H   0  0  0  0  0  0  0  0  0  0  0  0
   -2.0160    0.2730    2.7920 C   0  0  0  0  0  0  0  0  0  0  0  0
   -2.0560    1.7380    3.0810 C   0  0  0  0  0  0  0  0  0  0  0  0
   -2.0840    2.6420    1.9090 C   0  0  2  0  0  0  0  0  0  0  0  0
   -3.3160    2.3330    1.0740 C   0  0  0  0  0  0  0  0  0  0  0  0
   -0.8970    2.6430    1.0120 C   0  0  2  0  0  0  0  0  0  0  0  0
   -0.5810    1.3850    0.3960 N   0  0  0  0  0  0  0  0  0  0  0  0
    0.2840    3.3070    1.5960 C   0  0  0  0  0  0  0  0  0  0  0  0
    1.3970    2.7670    1.5170 O   0  0  0  0  0  0  0  0  0  0  0  0
    0.1470    4.5180    2.2220 O   0  0  0  0  0  0  0  0  0  0  0  0
   -2.7340   -0.3030    3.4580 H   0  0  0  0  0  0  0  0  0  0  0  0
   -2.3460    0.0130    1.7720 H   0  0  0  0  0  0  0  0  0  0  0  0
   -1.0300   -0.1980    3.0180 H   0  0  0  0  0  0  0  0  0  0  0  0
   -3.0190    1.9230    3.6440 H   0  0  0  0  0  0  0  0  0  0  0  0
   -1.2670    2.0380    3.8350 H   0  0  0  0  0  0  0  0  0  0  0  0
   -2.1890    3.6870    2.3020 H   0  0  0  0  0  0  0  0  0  0  0  0
   -4.1400    1.9710    1.7380 H   0  0  0  0  0  0  0  0  0  0  0  0
   -3.6470    3.2500    0.5740 H   0  0  0  0  0  0  0  0  0  0  0  0
   -3.0730    1.5840    0.2810 H   0  0  0  0  0  0  0  0  0  0  0  0
   -1.1950    3.3200    0.1450 H   0  0  0  0  0  0  0  0  0  0  0  0
   -0.2000    0.5760    0.9320 H   0  0  0  0  0  0  0  0  0  0  0  0
  1 11  1  0  0  0  0
  1 10  1  0  0  0  0
  2 13  1  0  0  0  0
  2  1  1  0  0  0  0
  3 14  1  6  0  0  0
  3  5  1  0  0  0  0
  3  2  1  0  0  0  0
  4 15  1  0  0  0  0
  4  3  1  0  0  0  0
  5 18  1  1  0  0  0
  5  6  1  0  0  0  0
  6 19  1  0  0  0  0
  6 20  1  0  0  0  0
  7 23  1  0  0  0  0
  7  5  1  0  0  0  0
  8  7  2  0  0  0  0
  9  1  1  0  0  0  0
 12  2  1  0  0  0  0
 16  4  1  0  0  0  0
 17  4  1  0  0  0  0
 21 22  1  0  0  0  0
 21 27  1  0  0  0  0
 22 29  1  6  0  0  0
 22 24  1  0  0  0  0
 22 23  1  0  0  0  0
 23 30  1  0  0  0  0
 24 36  1  0  0  0  0
 25 24  2  0  0  0  0
 26 21  1  0  0  0  0
 28 21  1  0  0  0  0
 31 42  1  0  0  0  0
 31 32  1  0  0  0  0
 31 40  1  0  0  0  0
 32 43  1  0  0  0  0
 32 44  1  0  0  0  0
 33 45  1  1  0  0  0
 33 32  1  0  0  0  0
 34 46  1  0  0  0  0
 34 33  1  0  0  0  0
 35 49  1  6  0  0  0
 35 37  1  0  0  0  0
 35 33  1  0  0  0  0
 36 50  1  0  0  0  0
 36 35  1  0  0  0  0
 37 39  1  0  0  0  0
 38 37  2  0  0  0  0
 41 31  1  0  0  0  0
 47 34  1  0  0  0  0
 48 34  1  0  0  0  0
M  END
$$$$
