IAM.pdb
 OpenBabel07022418393D

 48 47  0  0  1  0  0  0  0  0999 V2000
   -0.6880   -4.2520   -1.5920 C   0  0  0  0  0  0  0  0  0  0  0  0
   -0.6380   -2.8780   -1.0080 C   0  0  0  0  0  0  0  0  0  0  0  0
    0.5740   -2.0880   -1.4380 C   0  0  2  0  0  0  0  0  0  0  0  0
    0.6630   -1.8890   -2.9170 C   0  0  0  0  0  0  0  0  0  0  0  0
    1.8510   -2.7000   -0.8820 C   0  0  2  0  0  0  0  0  0  0  0  0
    2.0280   -4.0610   -1.3430 N   0  0  0  0  0  0  0  0  0  0  0  0
    1.8080   -2.6340    0.5860 C   0  0  0  0  0  0  0  0  0  0  0  0
    1.9110   -3.6380    1.3410 O   0  0  0  0  0  0  0  0  0  0  0  0
   -0.4190   -4.2810   -2.6710 H   0  0  0  0  0  0  0  0  0  0  0  0
   -0.1300   -5.0120   -1.0180 H   0  0  0  0  0  0  0  0  0  0  0  0
   -1.7660   -4.5860   -1.5520 H   0  0  0  0  0  0  0  0  0  0  0  0
   -0.6140   -2.9590    0.0910 H   0  0  0  0  0  0  0  0  0  0  0  0
   -1.5340   -2.3250   -1.3540 H   0  0  0  0  0  0  0  0  0  0  0  0
    0.4830   -1.0830   -0.9690 H   0  0  0  0  0  0  0  0  0  0  0  0
    1.5100   -2.4900   -3.3590 H   0  0  0  0  0  0  0  0  0  0  0  0
    0.9260   -0.8250   -3.1920 H   0  0  0  0  0  0  0  0  0  0  0  0
   -0.2580   -2.1220   -3.4640 H   0  0  0  0  0  0  0  0  0  0  0  0
    2.6880   -2.1000   -1.2580 H   0  0  0  0  0  0  0  0  0  0  0  0
    2.8410   -4.4480   -0.7840 H   0  0  0  0  0  0  0  0  0  0  0  0
    2.3330   -4.0920   -2.3390 H   0  0  0  0  0  0  0  0  0  0  0  0
    2.8920   -0.4970    3.0460 C   0  0  0  0  0  0  0  0  0  0  0  0
    1.5880   -1.2190    2.6700 C   0  0  2  0  0  0  0  0  0  0  0  0
    1.6430   -1.3930    1.2430 N   0  0  0  0  0  0  0  0  0  0  0  0
    0.4320   -0.5060    3.1670 C   0  0  0  0  0  0  0  0  0  0  0  0
    0.3020   -0.3120    4.3960 O   0  0  0  0  0  0  0  0  0  0  0  0
    2.9030   -0.4410    4.1530 H   0  0  0  0  0  0  0  0  0  0  0  0
    2.9200    0.5190    2.6070 H   0  0  0  0  0  0  0  0  0  0  0  0
    3.7090   -1.1480    2.6630 H   0  0  0  0  0  0  0  0  0  0  0  0
    1.6970   -2.2420    3.1140 H   0  0  0  0  0  0  0  0  0  0  0  0
    1.5500   -0.5070    0.6710 H   0  0  0  0  0  0  0  0  0  0  0  0
   -0.2680    4.8170    0.7670 C   0  0  0  0  0  0  0  0  0  0  0  0
   -1.8280    3.9830    0.3890 S   0  0  0  0  0  0  0  0  0  0  0  0
   -1.8100    2.2550    0.9390 C   0  0  0  0  0  0  0  0  0  0  0  0
   -1.7420    2.1670    2.4570 C   0  0  0  0  0  0  0  0  0  0  0  0
   -1.7300    0.7100    2.8760 C   0  0  2  0  0  0  0  0  0  0  0  0
   -0.5920    0.0030    2.3280 N   0  0  0  0  0  0  0  0  0  0  0  0
   -3.0030    0.0350    2.5980 C   0  0  0  0  0  0  0  0  0  0  0  0
   -3.0050   -1.0360    1.9450 O   0  0  0  0  0  0  0  0  0  0  0  0
   -4.2230    0.5290    3.0250 O   0  0  0  0  0  0  0  0  0  0  0  0
    0.2470    5.1940   -0.1410 H   0  0  0  0  0  0  0  0  0  0  0  0
    0.4320    4.1400    1.3360 H   0  0  0  0  0  0  0  0  0  0  0  0
   -0.4860    5.6780    1.4120 H   0  0  0  0  0  0  0  0  0  0  0  0
   -2.7740    1.8000    0.6320 H   0  0  0  0  0  0  0  0  0  0  0  0
   -1.0070    1.6790    0.4430 H   0  0  0  0  0  0  0  0  0  0  0  0
   -2.6570    2.6710    2.8290 H   0  0  0  0  0  0  0  0  0  0  0  0
   -0.8870    2.7260    2.8760 H   0  0  0  0  0  0  0  0  0  0  0  0
   -1.6060    0.7270    3.9820 H   0  0  0  0  0  0  0  0  0  0  0  0
   -0.5540   -0.1230    1.2700 H   0  0  0  0  0  0  0  0  0  0  0  0
  1 11  1  0  0  0  0
  1 10  1  0  0  0  0
  1  2  1  0  0  0  0
  2 12  1  0  0  0  0
  3  2  1  0  0  0  0
  3 14  1  1  0  0  0
  3  5  1  0  0  0  0
  4  3  1  0  0  0  0
  5 18  1  6  0  0  0
  5  7  1  0  0  0  0
  6  5  1  0  0  0  0
  6 19  1  0  0  0  0
  7 23  1  0  0  0  0
  7  8  2  0  0  0  0
  9  1  1  0  0  0  0
 13  2  1  0  0  0  0
 15  4  1  0  0  0  0
 16  4  1  0  0  0  0
 17  4  1  0  0  0  0
 20  6  1  0  0  0  0
 21 26  1  0  0  0  0
 22 21  1  0  0  0  0
 22 29  1  1  0  0  0
 22 24  1  0  0  0  0
 23 22  1  0  0  0  0
 24 25  2  0  0  0  0
 27 21  1  0  0  0  0
 28 21  1  0  0  0  0
 30 23  1  0  0  0  0
 31 41  1  0  0  0  0
 31 42  1  0  0  0  0
 32 31  1  0  0  0  0
 32 33  1  0  0  0  0
 33 34  1  0  0  0  0
 34 45  1  0  0  0  0
 34 35  1  0  0  0  0
 34 46  1  0  0  0  0
 35 47  1  1  0  0  0
 36 35  1  0  0  0  0
 36 24  1  0  0  0  0
 37 35  1  0  0  0  0
 37 39  1  0  0  0  0
 38 37  2  0  0  0  0
 40 31  1  0  0  0  0
 43 33  1  0  0  0  0
 44 33  1  0  0  0  0
 48 36  1  0  0  0  0
M  END
$$$$
