IAN.pdb
 OpenBabel07022418393D

 45 44  0  0  1  0  0  0  0  0999 V2000
   -4.2190   -3.4110   -2.0150 C   0  0  0  0  0  0  0  0  0  0  0  0
   -2.8740   -2.7520   -1.8660 C   0  0  0  0  0  0  0  0  0  0  0  0
   -2.0990   -3.1360   -0.6570 C   0  0  2  0  0  0  0  0  0  0  0  0
   -2.8040   -2.8090    0.6100 C   0  0  0  0  0  0  0  0  0  0  0  0
   -0.6760   -2.6270   -0.7400 C   0  0  2  0  0  0  0  0  0  0  0  0
   -0.0270   -3.0570    0.5120 N   0  0  0  0  0  0  0  0  0  0  0  0
   -0.5690   -1.1770   -0.8880 C   0  0  0  0  0  0  0  0  0  0  0  0
   -0.9310   -0.6410   -1.9710 O   0  0  0  0  0  0  0  0  0  0  0  0
   -4.1040   -4.4640   -2.3420 H   0  0  0  0  0  0  0  0  0  0  0  0
   -4.9110   -3.2630   -1.1920 H   0  0  0  0  0  0  0  0  0  0  0  0
   -4.6970   -2.8870   -2.9040 H   0  0  0  0  0  0  0  0  0  0  0  0
   -2.3240   -2.9490   -2.8130 H   0  0  0  0  0  0  0  0  0  0  0  0
   -3.0260   -1.6300   -1.8720 H   0  0  0  0  0  0  0  0  0  0  0  0
   -1.9920   -4.2660   -0.6860 H   0  0  0  0  0  0  0  0  0  0  0  0
   -2.3700   -1.9720    1.1900 H   0  0  0  0  0  0  0  0  0  0  0  0
   -2.9770   -3.7050    1.2460 H   0  0  0  0  0  0  0  0  0  0  0  0
   -3.8370   -2.4420    0.3370 H   0  0  0  0  0  0  0  0  0  0  0  0
   -0.1780   -3.2010   -1.5470 H   0  0  0  0  0  0  0  0  0  0  0  0
   -0.4630   -2.6610    1.3430 H   0  0  0  0  0  0  0  0  0  0  0  0
    0.9950   -2.9400    0.4240 H   0  0  0  0  0  0  0  0  0  0  0  0
   -1.1910    1.7390    0.6970 C   0  0  0  0  0  0  0  0  0  0  0  0
    0.0470    1.1050    0.0180 C   0  0  2  0  0  0  0  0  0  0  0  0
   -0.0780   -0.3300    0.1240 N   0  0  0  0  0  0  0  0  0  0  0  0
    1.2630    1.6660    0.5940 C   0  0  0  0  0  0  0  0  0  0  0  0
    1.3940    2.9350    0.4740 O   0  0  0  0  0  0  0  0  0  0  0  0
   -0.8300    2.6140    1.2520 H   0  0  0  0  0  0  0  0  0  0  0  0
   -1.6720    0.9860    1.3570 H   0  0  0  0  0  0  0  0  0  0  0  0
   -1.8670    2.0620   -0.1030 H   0  0  0  0  0  0  0  0  0  0  0  0
   -0.0230    1.4010   -1.0380 H   0  0  0  0  0  0  0  0  0  0  0  0
    0.2250   -0.7670    1.0250 H   0  0  0  0  0  0  0  0  0  0  0  0
    2.3020    1.3370    5.3860 N   0  0  0  0  0  0  0  0  0  0  0  0
    2.4190    1.6660    4.0190 C   0  0  0  0  0  0  0  0  0  0  0  0
    1.5090    2.3260    3.4810 O   0  0  0  0  0  0  0  0  0  0  0  0
    3.6170    1.2090    3.2840 C   0  0  0  0  0  0  0  0  0  0  0  0
    3.4540    1.5890    1.8240 C   0  0  2  0  0  0  0  0  0  0  0  0
    2.2710    0.9660    1.2540 N   0  0  0  0  0  0  0  0  0  0  0  0
    4.6330    0.9860    1.1160 C   0  0  0  0  0  0  0  0  0  0  0  0
    4.5070    0.1170    0.2440 O   0  0  0  0  0  0  0  0  0  0  0  0
    5.8860    1.4640    1.5020 O   0  0  0  0  0  0  0  0  0  0  0  0
    1.5470    0.7180    5.7450 H   0  0  0  0  0  0  0  0  0  0  0  0
    2.9740    1.7020    6.1040 H   0  0  0  0  0  0  0  0  0  0  0  0
    3.8040    0.1260    3.4040 H   0  0  0  0  0  0  0  0  0  0  0  0
    4.4940    1.7220    3.7340 H   0  0  0  0  0  0  0  0  0  0  0  0
    3.3680    2.6720    1.6630 H   0  0  0  0  0  0  0  0  0  0  0  0
    2.1960   -0.0680    1.3570 H   0  0  0  0  0  0  0  0  0  0  0  0
  1  2  1  0  0  0  0
  1 10  1  0  0  0  0
  2  3  1  0  0  0  0
  3 14  1  6  0  0  0
  3  4  1  0  0  0  0
  4 15  1  0  0  0  0
  4 16  1  0  0  0  0
  5 18  1  6  0  0  0
  5  3  1  0  0  0  0
  5  6  1  0  0  0  0
  6 19  1  0  0  0  0
  7  5  1  0  0  0  0
  7 23  1  0  0  0  0
  8  7  2  0  0  0  0
  9  1  1  0  0  0  0
 11  1  1  0  0  0  0
 12  2  1  0  0  0  0
 13  2  1  0  0  0  0
 17  4  1  0  0  0  0
 20  6  1  0  0  0  0
 21 26  1  0  0  0  0
 21 27  1  0  0  0  0
 22 29  1  6  0  0  0
 22 23  1  0  0  0  0
 22 24  1  0  0  0  0
 22 21  1  0  0  0  0
 23 30  1  0  0  0  0
 24 36  1  0  0  0  0
 25 24  2  0  0  0  0
 28 21  1  0  0  0  0
 31 40  1  0  0  0  0
 31 41  1  0  0  0  0
 32 31  1  0  0  0  0
 33 32  2  0  0  0  0
 34 42  1  0  0  0  0
 34 43  1  0  0  0  0
 34 32  1  0  0  0  0
 35 44  1  6  0  0  0
 35 34  1  0  0  0  0
 36 45  1  0  0  0  0
 36 35  1  0  0  0  0
 37 39  1  0  0  0  0
 37 35  1  0  0  0  0
 38 37  2  0  0  0  0
M  END
$$$$
