IAQ.pdb
 OpenBabel07022418393D

 48 47  0  0  1  0  0  0  0  0999 V2000
    4.0730   -4.0720   -0.8420 C   0  0  0  0  0  0  0  0  0  0  0  0
    4.3500   -2.7520   -0.2020 C   0  0  0  0  0  0  0  0  0  0  0  0
    3.4550   -2.4270    0.9460 C   0  0  2  0  0  0  0  0  0  0  0  0
    3.5890   -3.4540    2.0240 C   0  0  0  0  0  0  0  0  0  0  0  0
    2.0220   -2.2370    0.4980 C   0  0  2  0  0  0  0  0  0  0  0  0
    1.9950   -1.1500   -0.4490 N   0  0  0  0  0  0  0  0  0  0  0  0
    1.1660   -1.9590    1.6850 C   0  0  0  0  0  0  0  0  0  0  0  0
    1.0550   -2.7840    2.6260 O   0  0  0  0  0  0  0  0  0  0  0  0
    4.7490   -4.8790   -0.4620 H   0  0  0  0  0  0  0  0  0  0  0  0
    3.0410   -4.4360   -0.7240 H   0  0  0  0  0  0  0  0  0  0  0  0
    4.2580   -3.9980   -1.9350 H   0  0  0  0  0  0  0  0  0  0  0  0
    4.3570   -1.9610   -0.9750 H   0  0  0  0  0  0  0  0  0  0  0  0
    5.4010   -2.8040    0.2070 H   0  0  0  0  0  0  0  0  0  0  0  0
    3.7940   -1.4530    1.3700 H   0  0  0  0  0  0  0  0  0  0  0  0
    2.8230   -4.2390    1.9190 H   0  0  0  0  0  0  0  0  0  0  0  0
    4.6180   -3.8780    1.9980 H   0  0  0  0  0  0  0  0  0  0  0  0
    3.4090   -2.9610    3.0120 H   0  0  0  0  0  0  0  0  0  0  0  0
    1.6430   -3.1630    0.0440 H   0  0  0  0  0  0  0  0  0  0  0  0
    2.0670   -1.4340   -1.4300 H   0  0  0  0  0  0  0  0  0  0  0  0
    2.6320   -0.4100   -0.1360 H   0  0  0  0  0  0  0  0  0  0  0  0
    0.1530    0.9770    3.3590 C   0  0  0  0  0  0  0  0  0  0  0  0
   -0.3910   -0.3450    2.8300 C   0  0  2  0  0  0  0  0  0  0  0  0
    0.4720   -0.7290    1.7290 N   0  0  0  0  0  0  0  0  0  0  0  0
   -1.7970   -0.1130    2.3360 C   0  0  0  0  0  0  0  0  0  0  0  0
   -2.7110    0.2290    3.1280 O   0  0  0  0  0  0  0  0  0  0  0  0
    0.2370    1.6390    2.4490 H   0  0  0  0  0  0  0  0  0  0  0  0
    1.1790    0.7630    3.7270 H   0  0  0  0  0  0  0  0  0  0  0  0
   -0.5120    1.4050    4.1230 H   0  0  0  0  0  0  0  0  0  0  0  0
   -0.4250   -1.1220    3.6000 H   0  0  0  0  0  0  0  0  0  0  0  0
    0.5800   -0.0600    0.9350 H   0  0  0  0  0  0  0  0  0  0  0  0
   -2.3810    4.6910   -0.2470 N   0  0  0  0  0  0  0  0  0  0  0  0
   -2.8350    3.4550   -0.7800 C   0  0  0  0  0  0  0  0  0  0  0  0
   -3.1580    3.3920   -1.9900 O   0  0  0  0  0  0  0  0  0  0  0  0
   -2.9150    2.2810    0.0970 C   0  0  0  0  0  0  0  0  0  0  0  0
   -3.4110    1.0500   -0.6100 C   0  0  0  0  0  0  0  0  0  0  0  0
   -3.4380   -0.0730    0.4270 C   0  0  2  0  0  0  0  0  0  0  0  0
   -2.1000   -0.2840    0.9490 N   0  0  0  0  0  0  0  0  0  0  0  0
   -3.9390   -1.3170   -0.2420 C   0  0  0  0  0  0  0  0  0  0  0  0
   -3.2030   -2.3160   -0.2690 O   0  0  0  0  0  0  0  0  0  0  0  0
   -5.1940   -1.3750   -0.8230 O   0  0  0  0  0  0  0  0  0  0  0  0
   -1.6950    4.7050    0.5530 H   0  0  0  0  0  0  0  0  0  0  0  0
   -2.7150    5.6060   -0.6350 H   0  0  0  0  0  0  0  0  0  0  0  0
   -1.8740    2.0550    0.4470 H   0  0  0  0  0  0  0  0  0  0  0  0
   -3.5450    2.4510    0.9880 H   0  0  0  0  0  0  0  0  0  0  0  0
   -2.7720    0.7840   -1.4750 H   0  0  0  0  0  0  0  0  0  0  0  0
   -4.4470    1.1900   -0.9720 H   0  0  0  0  0  0  0  0  0  0  0  0
   -4.1300    0.2190    1.2210 H   0  0  0  0  0  0  0  0  0  0  0  0
   -1.3030   -0.5690    0.3400 H   0  0  0  0  0  0  0  0  0  0  0  0
  1 10  1  0  0  0  0
  1  9  1  0  0  0  0
  1  2  1  0  0  0  0
  2 13  1  0  0  0  0
  2  3  1  0  0  0  0
  3 14  1  1  0  0  0
  3  4  1  0  0  0  0
  4 17  1  0  0  0  0
  5 18  1  6  0  0  0
  5  3  1  0  0  0  0
  5  7  1  0  0  0  0
  6 20  1  0  0  0  0
  6  5  1  0  0  0  0
  7 23  1  0  0  0  0
  7  8  2  0  0  0  0
 11  1  1  0  0  0  0
 12  2  1  0  0  0  0
 15  4  1  0  0  0  0
 16  4  1  0  0  0  0
 19  6  1  0  0  0  0
 21 27  1  0  0  0  0
 21 28  1  0  0  0  0
 22 21  1  0  0  0  0
 22 29  1  1  0  0  0
 23 22  1  0  0  0  0
 24 22  1  0  0  0  0
 24 25  2  0  0  0  0
 26 21  1  0  0  0  0
 30 23  1  0  0  0  0
 31 41  1  0  0  0  0
 32 31  1  0  0  0  0
 32 34  1  0  0  0  0
 33 32  2  0  0  0  0
 34 43  1  0  0  0  0
 34 44  1  0  0  0  0
 35 34  1  0  0  0  0
 35 36  1  0  0  0  0
 36 37  1  0  0  0  0
 36 47  1  1  0  0  0
 37 24  1  0  0  0  0
 38 36  1  0  0  0  0
 39 38  1  0  0  0  0
 40 38  2  0  0  0  0
 42 31  1  0  0  0  0
 45 35  1  0  0  0  0
 46 35  1  0  0  0  0
 48 37  1  0  0  0  0
M  END
$$$$
