IAR.pdb
 OpenBabel07022418393D

 54 53  0  0  1  0  0  0  0  0999 V2000
    3.7270   -5.2380    1.4460 C   0  0  0  0  0  0  0  0  0  0  0  0
    4.3010   -4.0330    0.7290 C   0  0  0  0  0  0  0  0  0  0  0  0
    3.3420   -2.8490    0.7800 C   0  0  2  0  0  0  0  0  0  0  0  0
    2.0850   -3.3190    0.1000 C   0  0  0  0  0  0  0  0  0  0  0  0
    4.0260   -1.7000    0.1300 C   0  0  2  0  0  0  0  0  0  0  0  0
    5.2560   -1.4670    0.9130 N   0  0  0  0  0  0  0  0  0  0  0  0
    3.3000   -0.4400    0.0730 C   0  0  0  0  0  0  0  0  0  0  0  0
    3.7540    0.5380    0.7680 O   0  0  0  0  0  0  0  0  0  0  0  0
    3.1460   -4.9700    2.3430 H   0  0  0  0  0  0  0  0  0  0  0  0
    3.1350   -5.8950    0.7840 H   0  0  0  0  0  0  0  0  0  0  0  0
    4.5840   -5.8760    1.8130 H   0  0  0  0  0  0  0  0  0  0  0  0
    5.2590   -3.8110    1.2140 H   0  0  0  0  0  0  0  0  0  0  0  0
    4.4960   -4.3250   -0.3140 H   0  0  0  0  0  0  0  0  0  0  0  0
    3.1290   -2.6060    1.8240 H   0  0  0  0  0  0  0  0  0  0  0  0
    1.8450   -4.3780    0.3580 H   0  0  0  0  0  0  0  0  0  0  0  0
    2.1840   -3.2810   -0.9810 H   0  0  0  0  0  0  0  0  0  0  0  0
    1.2780   -2.6290    0.4090 H   0  0  0  0  0  0  0  0  0  0  0  0
    4.3970   -1.9540   -0.8880 H   0  0  0  0  0  0  0  0  0  0  0  0
    5.0170   -1.6780    1.8950 H   0  0  0  0  0  0  0  0  0  0  0  0
    6.0370   -2.0460    0.5830 H   0  0  0  0  0  0  0  0  0  0  0  0
    1.7090    1.8730   -1.9800 C   0  0  0  0  0  0  0  0  0  0  0  0
    1.4930    1.1290   -0.6680 C   0  0  2  0  0  0  0  0  0  0  0  0
    2.1160   -0.1690   -0.6900 N   0  0  0  0  0  0  0  0  0  0  0  0
    0.0860    1.1520   -0.2500 C   0  0  0  0  0  0  0  0  0  0  0  0
   -0.4980    2.2890   -0.2030 O   0  0  0  0  0  0  0  0  0  0  0  0
    1.2060    2.8560   -1.8690 H   0  0  0  0  0  0  0  0  0  0  0  0
    2.7970    2.0900   -2.0320 H   0  0  0  0  0  0  0  0  0  0  0  0
    1.3480    1.3220   -2.8500 H   0  0  0  0  0  0  0  0  0  0  0  0
    2.0540    1.7510    0.0710 H   0  0  0  0  0  0  0  0  0  0  0  0
    1.7480   -0.9660   -1.2520 H   0  0  0  0  0  0  0  0  0  0  0  0
   -4.1940    3.0620    2.3940 N   0  0  0  0  0  0  0  0  0  0  0  0
   -4.9650    2.0790    1.7390 C   0  0  0  0  0  0  0  0  0  0  0  0
   -5.8450    1.4140    2.3830 N   0  0  0  0  0  0  0  0  0  0  0  0
   -4.7560    1.8340    0.3620 N   0  0  0  0  0  0  0  0  0  0  0  0
   -5.1380    0.6630   -0.3200 C   0  0  0  0  0  0  0  0  0  0  0  0
   -4.4440   -0.6150   -0.0540 C   0  0  0  0  0  0  0  0  0  0  0  0
   -2.9970   -0.6960   -0.3230 C   0  0  0  0  0  0  0  0  0  0  0  0
   -2.1260    0.1860    0.5190 C   0  0  2  0  0  0  0  0  0  0  0  0
   -0.7170    0.0560    0.1130 N   0  0  0  0  0  0  0  0  0  0  0  0
   -2.1610   -0.3050    1.9480 C   0  0  0  0  0  0  0  0  0  0  0  0
   -1.0870   -0.6550    2.5020 O   0  0  0  0  0  0  0  0  0  0  0  0
   -3.2970   -0.4040    2.7150 O   0  0  0  0  0  0  0  0  0  0  0  0
   -3.2750    2.8410    2.8800 H   0  0  0  0  0  0  0  0  0  0  0  0
   -4.4730    4.0720    2.4440 H   0  0  0  0  0  0  0  0  0  0  0  0
   -6.0690    1.5210    3.3900 H   0  0  0  0  0  0  0  0  0  0  0  0
   -4.2760    2.6120   -0.1690 H   0  0  0  0  0  0  0  0  0  0  0  0
   -6.2540    0.5020   -0.1260 H   0  0  0  0  0  0  0  0  0  0  0  0
   -5.1520    0.8950   -1.4380 H   0  0  0  0  0  0  0  0  0  0  0  0
   -4.9390   -1.3900   -0.7270 H   0  0  0  0  0  0  0  0  0  0  0  0
   -4.6740   -0.9850    0.9680 H   0  0  0  0  0  0  0  0  0  0  0  0
   -2.7250   -0.4850   -1.3860 H   0  0  0  0  0  0  0  0  0  0  0  0
   -2.6810   -1.7560   -0.0590 H   0  0  0  0  0  0  0  0  0  0  0  0
   -2.4960    1.1960    0.5090 H   0  0  0  0  0  0  0  0  0  0  0  0
   -0.2840   -0.8870    0.0880 H   0  0  0  0  0  0  0  0  0  0  0  0
  1 11  1  0  0  0  0
  1  9  1  0  0  0  0
  2  3  1  0  0  0  0
  2 12  1  0  0  0  0
  2  1  1  0  0  0  0
  3 14  1  1  0  0  0
  4 15  1  0  0  0  0
  4 17  1  0  0  0  0
  4  3  1  0  0  0  0
  5 18  1  6  0  0  0
  5  3  1  0  0  0  0
  5  6  1  0  0  0  0
  6 19  1  0  0  0  0
  7  5  1  0  0  0  0
  7  8  2  0  0  0  0
 10  1  1  0  0  0  0
 13  2  1  0  0  0  0
 16  4  1  0  0  0  0
 20  6  1  0  0  0  0
 21 26  1  0  0  0  0
 21 22  1  0  0  0  0
 22 24  1  0  0  0  0
 22 29  1  1  0  0  0
 23 22  1  0  0  0  0
 23  7  1  0  0  0  0
 24 25  2  0  0  0  0
 24 39  1  0  0  0  0
 27 21  1  0  0  0  0
 28 21  1  0  0  0  0
 30 23  1  0  0  0  0
 31 44  1  0  0  0  0
 31 43  1  0  0  0  0
 32 33  2  0  0  0  0
 32 31  1  0  0  0  0
 33 45  1  0  0  0  0
 34 32  1  0  0  0  0
 35 47  1  0  0  0  0
 35 36  1  0  0  0  0
 35 34  1  0  0  0  0
 36 50  1  0  0  0  0
 37 52  1  0  0  0  0
 37 36  1  0  0  0  0
 37 38  1  0  0  0  0
 38 53  1  6  0  0  0
 38 40  1  0  0  0  0
 39 38  1  0  0  0  0
 40 41  2  0  0  0  0
 40 42  1  0  0  0  0
 46 34  1  0  0  0  0
 48 35  1  0  0  0  0
 49 36  1  0  0  0  0
 51 37  1  0  0  0  0
 54 39  1  0  0  0  0
M  END
$$$$
