IAS.pdb
 OpenBabel07022418393D

 42 41  0  0  1  0  0  0  0  0999 V2000
   -0.8370   -2.8410    1.6430 C   0  0  0  0  0  0  0  0  0  0  0  0
   -0.0920   -3.5650    0.5650 C   0  0  0  0  0  0  0  0  0  0  0  0
   -0.6580   -3.3180   -0.8140 C   0  0  2  0  0  0  0  0  0  0  0  0
    0.0970   -4.0560   -1.8620 C   0  0  0  0  0  0  0  0  0  0  0  0
   -0.8470   -1.8460   -1.1080 C   0  0  2  0  0  0  0  0  0  0  0  0
   -1.3820   -1.7330   -2.4690 N   0  0  0  0  0  0  0  0  0  0  0  0
    0.3700   -1.0440   -1.0240 C   0  0  0  0  0  0  0  0  0  0  0  0
    1.4460   -1.5070   -1.4770 O   0  0  0  0  0  0  0  0  0  0  0  0
   -0.4180   -1.8400    1.8700 H   0  0  0  0  0  0  0  0  0  0  0  0
   -1.9310   -2.7490    1.4320 H   0  0  0  0  0  0  0  0  0  0  0  0
   -0.7830   -3.4100    2.6020 H   0  0  0  0  0  0  0  0  0  0  0  0
   -0.1420   -4.6570    0.7550 H   0  0  0  0  0  0  0  0  0  0  0  0
    0.9680   -3.2360    0.6000 H   0  0  0  0  0  0  0  0  0  0  0  0
   -1.7060   -3.7530   -0.7670 H   0  0  0  0  0  0  0  0  0  0  0  0
    0.6810   -3.4100   -2.5480 H   0  0  0  0  0  0  0  0  0  0  0  0
    0.8030   -4.7580   -1.3640 H   0  0  0  0  0  0  0  0  0  0  0  0
   -0.5940   -4.7170   -2.4490 H   0  0  0  0  0  0  0  0  0  0  0  0
   -1.6470   -1.5010   -0.4190 H   0  0  0  0  0  0  0  0  0  0  0  0
   -1.5420   -2.6790   -2.8910 H   0  0  0  0  0  0  0  0  0  0  0  0
   -2.2450   -1.1450   -2.4810 H   0  0  0  0  0  0  0  0  0  0  0  0
    1.4750    2.2950   -1.2330 C   0  0  0  0  0  0  0  0  0  0  0  0
    1.5360    1.0790   -0.3340 C   0  0  2  0  0  0  0  0  0  0  0  0
    0.3550    0.2650   -0.4330 N   0  0  0  0  0  0  0  0  0  0  0  0
    1.8360    1.4820    1.0610 C   0  0  0  0  0  0  0  0  0  0  0  0
    2.8340    2.1940    1.3220 O   0  0  0  0  0  0  0  0  0  0  0  0
    2.1390    2.2250   -2.1090 H   0  0  0  0  0  0  0  0  0  0  0  0
    0.4340    2.3440   -1.6350 H   0  0  0  0  0  0  0  0  0  0  0  0
    1.6400    3.1840   -0.6270 H   0  0  0  0  0  0  0  0  0  0  0  0
    2.3970    0.4840   -0.7010 H   0  0  0  0  0  0  0  0  0  0  0  0
   -0.5730    0.5860   -0.0830 H   0  0  0  0  0  0  0  0  0  0  0  0
   -0.0170    3.4530    3.3740 O   0  0  0  0  0  0  0  0  0  0  0  0
    0.2350    2.3020    4.1210 C   0  0  0  0  0  0  0  0  0  0  0  0
    1.3390    1.4950    3.4720 C   0  0  2  0  0  0  0  0  0  0  0  0
    1.0180    1.0850    2.1430 N   0  0  0  0  0  0  0  0  0  0  0  0
    1.6310    0.3460    4.3720 C   0  0  0  0  0  0  0  0  0  0  0  0
    1.5890   -0.8250    3.9260 O   0  0  0  0  0  0  0  0  0  0  0  0
    1.9520    0.5300    5.7030 O   0  0  0  0  0  0  0  0  0  0  0  0
    0.7000    4.1110    3.5400 H   0  0  0  0  0  0  0  0  0  0  0  0
    0.5590    2.6250    5.1290 H   0  0  0  0  0  0  0  0  0  0  0  0
   -0.6930    1.6810    4.2470 H   0  0  0  0  0  0  0  0  0  0  0  0
    2.2470    2.1230    3.4440 H   0  0  0  0  0  0  0  0  0  0  0  0
    0.1560    0.4830    2.0090 H   0  0  0  0  0  0  0  0  0  0  0  0
  1  9  1  0  0  0  0
  1 11  1  0  0  0  0
  2 13  1  0  0  0  0
  2 12  1  0  0  0  0
  2  1  1  0  0  0  0
  3 14  1  1  0  0  0
  3  2  1  0  0  0  0
  4 16  1  0  0  0  0
  4  3  1  0  0  0  0
  5  7  1  0  0  0  0
  5  3  1  0  0  0  0
  5 18  1  1  0  0  0
  6  5  1  0  0  0  0
  7 23  1  0  0  0  0
  8  7  2  0  0  0  0
 10  1  1  0  0  0  0
 15  4  1  0  0  0  0
 17  4  1  0  0  0  0
 19  6  1  0  0  0  0
 20  6  1  0  0  0  0
 21 28  1  0  0  0  0
 21 22  1  0  0  0  0
 22 29  1  6  0  0  0
 22 24  1  0  0  0  0
 23 22  1  0  0  0  0
 23 30  1  0  0  0  0
 24 25  2  0  0  0  0
 24 34  1  0  0  0  0
 26 21  1  0  0  0  0
 27 21  1  0  0  0  0
 31 38  1  0  0  0  0
 31 32  1  0  0  0  0
 32 40  1  0  0  0  0
 32 39  1  0  0  0  0
 33 41  1  6  0  0  0
 33 32  1  0  0  0  0
 33 35  1  0  0  0  0
 34 33  1  0  0  0  0
 35 37  1  0  0  0  0
 36 35  2  0  0  0  0
 42 34  1  0  0  0  0
M  END
$$$$
