IAT.pdb
 OpenBabel07022418393D

 45 44  0  0  1  0  0  0  0  0999 V2000
    1.0050   -6.4970    1.7410 C   0  0  0  0  0  0  0  0  0  0  0  0
    0.4110   -5.1020    1.6750 C   0  0  0  0  0  0  0  0  0  0  0  0
    0.0850   -4.7420    0.2450 C   0  0  2  0  0  0  0  0  0  0  0  0
    1.3100   -4.7640   -0.6100 C   0  0  0  0  0  0  0  0  0  0  0  0
   -0.7170   -3.4720    0.1630 C   0  0  2  0  0  0  0  0  0  0  0  0
   -1.0210   -3.1490   -1.2440 N   0  0  0  0  0  0  0  0  0  0  0  0
   -0.0400   -2.2840    0.7110 C   0  0  0  0  0  0  0  0  0  0  0  0
    0.2980   -2.2630    1.9230 O   0  0  0  0  0  0  0  0  0  0  0  0
    0.2120   -7.2470    1.9700 H   0  0  0  0  0  0  0  0  0  0  0  0
    1.5350   -6.7400    0.7900 H   0  0  0  0  0  0  0  0  0  0  0  0
    1.7540   -6.5870    2.5510 H   0  0  0  0  0  0  0  0  0  0  0  0
    1.1850   -4.3900    2.0860 H   0  0  0  0  0  0  0  0  0  0  0  0
   -0.4980   -5.0900    2.2990 H   0  0  0  0  0  0  0  0  0  0  0  0
   -0.5730   -5.5740   -0.1230 H   0  0  0  0  0  0  0  0  0  0  0  0
    1.2500   -5.4770   -1.4640 H   0  0  0  0  0  0  0  0  0  0  0  0
    2.2000   -4.9640    0.0290 H   0  0  0  0  0  0  0  0  0  0  0  0
    1.4530   -3.7660   -1.0460 H   0  0  0  0  0  0  0  0  0  0  0  0
   -1.7030   -3.6590    0.6360 H   0  0  0  0  0  0  0  0  0  0  0  0
   -2.0140   -2.8520   -1.3540 H   0  0  0  0  0  0  0  0  0  0  0  0
   -0.7890   -3.9530   -1.8510 H   0  0  0  0  0  0  0  0  0  0  0  0
    2.2890    0.2480   -0.0690 C   0  0  0  0  0  0  0  0  0  0  0  0
    0.9290   -0.0080    0.5450 C   0  0  2  0  0  0  0  0  0  0  0  0
    0.2640   -1.1330   -0.0600 N   0  0  0  0  0  0  0  0  0  0  0  0
    0.0830    1.2140    0.5210 C   0  0  0  0  0  0  0  0  0  0  0  0
   -1.0590    1.1220    0.0020 O   0  0  0  0  0  0  0  0  0  0  0  0
    2.8840    0.8060    0.6780 H   0  0  0  0  0  0  0  0  0  0  0  0
    2.1220    0.8670   -0.9680 H   0  0  0  0  0  0  0  0  0  0  0  0
    2.7270   -0.7390   -0.3060 H   0  0  0  0  0  0  0  0  0  0  0  0
    1.1070   -0.2460    1.6100 H   0  0  0  0  0  0  0  0  0  0  0  0
    0.0080   -1.0950   -1.0700 H   0  0  0  0  0  0  0  0  0  0  0  0
   -1.5990    5.2740    2.4160 C   0  0  0  0  0  0  0  0  0  0  0  0
   -0.7250    4.0580    2.4040 C   0  0  1  0  0  0  0  0  0  0  0  0
   -1.4070    3.0460    3.0780 O   0  0  0  0  0  0  0  0  0  0  0  0
   -0.3600    3.6230    1.0010 C   0  0  2  0  0  0  0  0  0  0  0  0
    0.4910    2.4510    1.0420 N   0  0  0  0  0  0  0  0  0  0  0  0
    0.3070    4.7100    0.2470 C   0  0  0  0  0  0  0  0  0  0  0  0
   -0.2700    5.8160    0.0960 O   0  0  0  0  0  0  0  0  0  0  0  0
    1.5680    4.5450   -0.3090 O   0  0  0  0  0  0  0  0  0  0  0  0
   -2.4300    5.2080    1.6550 H   0  0  0  0  0  0  0  0  0  0  0  0
   -1.0850    6.2200    2.2480 H   0  0  0  0  0  0  0  0  0  0  0  0
   -2.1370    5.3540    3.3950 H   0  0  0  0  0  0  0  0  0  0  0  0
    0.1930    4.2820    2.9560 H   0  0  0  0  0  0  0  0  0  0  0  0
   -2.3680    3.0170    2.7750 H   0  0  0  0  0  0  0  0  0  0  0  0
   -1.3180    3.3230    0.5090 H   0  0  0  0  0  0  0  0  0  0  0  0
    1.4570    2.5220    1.4790 H   0  0  0  0  0  0  0  0  0  0  0  0
  1  9  1  0  0  0  0
  1 11  1  0  0  0  0
  2  1  1  0  0  0  0
  2 12  1  0  0  0  0
  2 13  1  0  0  0  0
  3 14  1  6  0  0  0
  3  2  1  0  0  0  0
  4 16  1  0  0  0  0
  4  3  1  0  0  0  0
  5  3  1  0  0  0  0
  5 18  1  1  0  0  0
  5  7  1  0  0  0  0
  6  5  1  0  0  0  0
  7  8  2  0  0  0  0
 10  1  1  0  0  0  0
 15  4  1  0  0  0  0
 17  4  1  0  0  0  0
 19  6  1  0  0  0  0
 20  6  1  0  0  0  0
 21 22  1  0  0  0  0
 21 26  1  0  0  0  0
 22 29  1  1  0  0  0
 23 22  1  0  0  0  0
 23  7  1  0  0  0  0
 24 22  1  0  0  0  0
 24 35  1  0  0  0  0
 25 24  2  0  0  0  0
 27 21  1  0  0  0  0
 28 21  1  0  0  0  0
 30 23  1  0  0  0  0
 31 41  1  0  0  0  0
 32 31  1  0  0  0  0
 32 42  1  1  0  0  0
 32 33  1  0  0  0  0
 34 44  1  6  0  0  0
 34 35  1  0  0  0  0
 34 32  1  0  0  0  0
 35 45  1  0  0  0  0
 36 34  1  0  0  0  0
 37 36  1  0  0  0  0
 38 36  2  0  0  0  0
 39 31  1  0  0  0  0
 40 31  1  0  0  0  0
 43 33  1  0  0  0  0
M  END
$$$$
