IAV.pdb
 OpenBabel07022418393D

 47 46  0  0  1  0  0  0  0  0999 V2000
   -0.3640   -5.2150    4.5600 C   0  0  0  0  0  0  0  0  0  0  0  0
   -0.4580   -3.7830    4.0180 C   0  0  0  0  0  0  0  0  0  0  0  0
    0.7710   -2.9920    4.4210 C   0  0  2  0  0  0  0  0  0  0  0  0
    0.8060   -2.9870    5.9420 C   0  0  0  0  0  0  0  0  0  0  0  0
    0.7250   -1.5810    3.9040 C   0  0  2  0  0  0  0  0  0  0  0  0
   -0.4340   -0.9190    4.4380 N   0  0  0  0  0  0  0  0  0  0  0  0
    0.7260   -1.5170    2.4260 C   0  0  0  0  0  0  0  0  0  0  0  0
    1.6260   -2.0590    1.7340 O   0  0  0  0  0  0  0  0  0  0  0  0
    0.6810   -5.4520    4.8590 H   0  0  0  0  0  0  0  0  0  0  0  0
   -0.7630   -5.9370    3.8280 H   0  0  0  0  0  0  0  0  0  0  0  0
   -0.9800   -5.3210    5.4820 H   0  0  0  0  0  0  0  0  0  0  0  0
   -1.3960   -3.3740    4.4450 H   0  0  0  0  0  0  0  0  0  0  0  0
   -0.5950   -3.8660    2.9390 H   0  0  0  0  0  0  0  0  0  0  0  0
    1.6700   -3.5480    4.0930 H   0  0  0  0  0  0  0  0  0  0  0  0
    1.6340   -2.3570    6.2970 H   0  0  0  0  0  0  0  0  0  0  0  0
   -0.1750   -2.5410    6.2830 H   0  0  0  0  0  0  0  0  0  0  0  0
    0.8200   -4.0130    6.3260 H   0  0  0  0  0  0  0  0  0  0  0  0
    1.6170   -1.0330    4.3300 H   0  0  0  0  0  0  0  0  0  0  0  0
   -0.3710    0.0890    4.2230 H   0  0  0  0  0  0  0  0  0  0  0  0
   -1.3050   -1.3770    4.0600 H   0  0  0  0  0  0  0  0  0  0  0  0
   -1.5490   -1.3770   -0.2920 C   0  0  0  0  0  0  0  0  0  0  0  0
   -0.3160   -0.7600    0.3120 C   0  0  2  0  0  0  0  0  0  0  0  0
   -0.3180   -0.8230    1.7580 N   0  0  0  0  0  0  0  0  0  0  0  0
   -0.1020    0.6370   -0.1670 C   0  0  0  0  0  0  0  0  0  0  0  0
    0.0630    1.6040    0.6420 O   0  0  0  0  0  0  0  0  0  0  0  0
   -2.3720   -1.4950    0.4370 H   0  0  0  0  0  0  0  0  0  0  0  0
   -1.8780   -0.7300   -1.1460 H   0  0  0  0  0  0  0  0  0  0  0  0
   -1.3260   -2.3740   -0.7420 H   0  0  0  0  0  0  0  0  0  0  0  0
    0.5550   -1.3340   -0.0570 H   0  0  0  0  0  0  0  0  0  0  0  0
   -1.0970   -0.3500    2.3170 H   0  0  0  0  0  0  0  0  0  0  0  0
    1.4010    3.6930   -3.6380 C   0  0  0  0  0  0  0  0  0  0  0  0
    1.2300    2.2820   -3.1200 C   0  0  0  0  0  0  0  0  0  0  0  0
    0.8760    1.4020   -4.3170 C   0  0  0  0  0  0  0  0  0  0  0  0
    0.1220    2.2450   -2.0890 C   0  0  2  0  0  0  0  0  0  0  0  0
   -0.0810    0.9120   -1.5610 N   0  0  0  0  0  0  0  0  0  0  0  0
   -1.1240    2.6610   -2.7980 C   0  0  0  0  0  0  0  0  0  0  0  0
   -1.2340    3.7840   -3.3570 O   0  0  0  0  0  0  0  0  0  0  0  0
   -2.2260    1.8220   -2.8730 O   0  0  0  0  0  0  0  0  0  0  0  0
    0.9970    4.4450   -2.9270 H   0  0  0  0  0  0  0  0  0  0  0  0
    0.9790    3.7920   -4.6490 H   0  0  0  0  0  0  0  0  0  0  0  0
    2.4990    3.8690   -3.7480 H   0  0  0  0  0  0  0  0  0  0  0  0
    2.1840    1.8960   -2.7180 H   0  0  0  0  0  0  0  0  0  0  0  0
   -0.2420    1.2990   -4.3670 H   0  0  0  0  0  0  0  0  0  0  0  0
    1.2900    0.4000   -4.1390 H   0  0  0  0  0  0  0  0  0  0  0  0
    1.2860    1.7990   -5.2660 H   0  0  0  0  0  0  0  0  0  0  0  0
    0.2830    3.0060   -1.3020 H   0  0  0  0  0  0  0  0  0  0  0  0
   -0.2120    0.1570   -2.2810 H   0  0  0  0  0  0  0  0  0  0  0  0
  1  9  1  0  0  0  0
  1 11  1  0  0  0  0
  2  3  1  0  0  0  0
  2 12  1  0  0  0  0
  2  1  1  0  0  0  0
  3 14  1  6  0  0  0
  3  4  1  0  0  0  0
  4 16  1  0  0  0  0
  4 15  1  0  0  0  0
  4 17  1  0  0  0  0
  5 18  1  1  0  0  0
  5  3  1  0  0  0  0
  5  6  1  0  0  0  0
  7  5  1  0  0  0  0
  8  7  2  0  0  0  0
 10  1  1  0  0  0  0
 13  2  1  0  0  0  0
 19  6  1  0  0  0  0
 20  6  1  0  0  0  0
 21 22  1  0  0  0  0
 21 26  1  0  0  0  0
 22 29  1  6  0  0  0
 22 23  1  0  0  0  0
 23 30  1  0  0  0  0
 23  7  1  0  0  0  0
 24 22  1  0  0  0  0
 24 25  2  0  0  0  0
 27 21  1  0  0  0  0
 28 21  1  0  0  0  0
 31 32  1  0  0  0  0
 31 39  1  0  0  0  0
 32 42  1  0  0  0  0
 32 34  1  0  0  0  0
 33 44  1  0  0  0  0
 33 32  1  0  0  0  0
 34 35  1  0  0  0  0
 34 46  1  1  0  0  0
 35 24  1  0  0  0  0
 36 34  1  0  0  0  0
 37 36  2  0  0  0  0
 38 36  1  0  0  0  0
 40 31  1  0  0  0  0
 41 31  1  0  0  0  0
 43 33  1  0  0  0  0
 45 33  1  0  0  0  0
 47 35  1  0  0  0  0
M  END
$$$$
