IAW.pdb
 OpenBabel07022418393D

 55 56  0  0  1  0  0  0  0  0999 V2000
    1.3530    3.3180   -0.2470 C   0  0  0  0  0  0  0  0  0  0  0  0
    2.3540    2.2400   -0.5140 C   0  0  0  0  0  0  0  0  0  0  0  0
    3.6030    2.3440    0.3130 C   0  0  2  0  0  0  0  0  0  0  0  0
    4.5380    1.2000   -0.0760 C   0  0  0  0  0  0  0  0  0  0  0  0
    3.4010    2.3850    1.7950 C   0  0  2  0  0  0  0  0  0  0  0  0
    4.7820    2.5220    2.3370 N   0  0  0  0  0  0  0  0  0  0  0  0
    2.7810    1.1910    2.3720 C   0  0  0  0  0  0  0  0  0  0  0  0
    3.5410    0.3980    3.0300 O   0  0  0  0  0  0  0  0  0  0  0  0
    1.5820    3.8520    0.6840 H   0  0  0  0  0  0  0  0  0  0  0  0
    0.3070    2.9100   -0.2310 H   0  0  0  0  0  0  0  0  0  0  0  0
    1.3990    4.0850   -1.0730 H   0  0  0  0  0  0  0  0  0  0  0  0
    2.6520    2.3260   -1.6070 H   0  0  0  0  0  0  0  0  0  0  0  0
    1.9070    1.2210   -0.4520 H   0  0  0  0  0  0  0  0  0  0  0  0
    4.1310    3.2730    0.0150 H   0  0  0  0  0  0  0  0  0  0  0  0
    4.9180    1.4010   -1.1220 H   0  0  0  0  0  0  0  0  0  0  0  0
    3.9840    0.2440   -0.1500 H   0  0  0  0  0  0  0  0  0  0  0  0
    5.4410    1.1510    0.5630 H   0  0  0  0  0  0  0  0  0  0  0  0
    2.8650    3.2770    2.1320 H   0  0  0  0  0  0  0  0  0  0  0  0
    4.7490    3.0880    3.2320 H   0  0  0  0  0  0  0  0  0  0  0  0
    5.0760    1.5710    2.6160 H   0  0  0  0  0  0  0  0  0  0  0  0
    0.1490   -0.0380    4.1760 C   0  0  0  0  0  0  0  0  0  0  0  0
    0.9620   -0.3940    2.9220 C   0  0  2  0  0  0  0  0  0  0  0  0
    1.4260    0.8210    2.2820 N   0  0  0  0  0  0  0  0  0  0  0  0
    0.1620   -1.2580    2.0390 C   0  0  0  0  0  0  0  0  0  0  0  0
   -0.2410   -2.3800    2.5030 O   0  0  0  0  0  0  0  0  0  0  0  0
   -0.8660    0.2570    3.8750 H   0  0  0  0  0  0  0  0  0  0  0  0
    0.0840   -0.9690    4.7640 H   0  0  0  0  0  0  0  0  0  0  0  0
    0.7100    0.7400    4.6940 H   0  0  0  0  0  0  0  0  0  0  0  0
    1.8490   -0.9260    3.3170 H   0  0  0  0  0  0  0  0  0  0  0  0
    0.7480    1.4350    1.7510 H   0  0  0  0  0  0  0  0  0  0  0  0
   -0.2120   -0.9680    0.7110 N   0  0  0  0  0  0  0  0  0  0  0  0
   -1.0060   -1.8950   -0.0700 C   0  0  1  0  0  0  0  0  0  0  0  0
   -2.3210   -1.2770   -0.4960 C   0  0  0  0  0  0  0  0  0  0  0  0
   -3.1250   -2.2410   -1.2900 C   0  0  0  0  0  0  0  0  0  0  0  0
   -3.3050   -2.2300   -2.6530 C   0  0  0  0  0  0  0  0  0  0  0  0
   -4.0990   -3.2660   -2.9680 N   0  0  0  0  0  0  0  0  0  0  0  0
   -4.4280   -3.9340   -1.8350 C   0  0  0  0  0  0  0  0  0  0  0  0
   -5.2070   -5.0470   -1.6080 C   0  0  0  0  0  0  0  0  0  0  0  0
   -5.3680   -5.5100   -0.3210 C   0  0  0  0  0  0  0  0  0  0  0  0
   -4.7660   -4.8840    0.7550 C   0  0  0  0  0  0  0  0  0  0  0  0
   -3.9800   -3.7610    0.5340 C   0  0  0  0  0  0  0  0  0  0  0  0
   -3.8370   -3.3220   -0.7620 C   0  0  0  0  0  0  0  0  0  0  0  0
   -0.2360   -2.4300   -1.2250 C   0  0  0  0  0  0  0  0  0  0  0  0
    0.9660   -2.1010   -1.4730 O   0  0  0  0  0  0  0  0  0  0  0  0
   -0.8440   -3.3290   -2.0800 O   0  0  0  0  0  0  0  0  0  0  0  0
    0.0910   -0.0630    0.2990 H   0  0  0  0  0  0  0  0  0  0  0  0
   -1.2420   -2.7610    0.5780 H   0  0  0  0  0  0  0  0  0  0  0  0
   -2.1930   -0.3280   -1.0480 H   0  0  0  0  0  0  0  0  0  0  0  0
   -2.8910   -1.0790    0.4540 H   0  0  0  0  0  0  0  0  0  0  0  0
   -2.9070   -1.5460   -3.3790 H   0  0  0  0  0  0  0  0  0  0  0  0
   -4.4460   -3.5680   -3.8990 H   0  0  0  0  0  0  0  0  0  0  0  0
   -5.6850   -5.5490   -2.4470 H   0  0  0  0  0  0  0  0  0  0  0  0
   -5.9950   -6.4010   -0.1730 H   0  0  0  0  0  0  0  0  0  0  0  0
   -4.9280   -5.2900    1.7350 H   0  0  0  0  0  0  0  0  0  0  0  0
   -3.4950   -3.2460    1.3410 H   0  0  0  0  0  0  0  0  0  0  0  0
  1 10  1  0  0  0  0
  1  9  1  0  0  0  0
  2 13  1  0  0  0  0
  2  1  1  0  0  0  0
  2  3  1  0  0  0  0
  3 14  1  6  0  0  0
  3  5  1  0  0  0  0
  4  3  1  0  0  0  0
  4 17  1  0  0  0  0
  5 18  1  1  0  0  0
  5  6  1  0  0  0  0
  5  7  1  0  0  0  0
  6 20  1  0  0  0  0
  6 19  1  0  0  0  0
  7  8  2  0  0  0  0
 11  1  1  0  0  0  0
 12  2  1  0  0  0  0
 15  4  1  0  0  0  0
 16  4  1  0  0  0  0
 21 28  1  0  0  0  0
 21 27  1  0  0  0  0
 22 29  1  1  0  0  0
 22 21  1  0  0  0  0
 23  7  1  0  0  0  0
 23 22  1  0  0  0  0
 24 25  2  0  0  0  0
 24 22  1  0  0  0  0
 26 21  1  0  0  0  0
 30 23  1  0  0  0  0
 31 24  1  0  0  0  0
 32 47  1  1  0  0  0
 32 31  1  0  0  0  0
 33 32  1  0  0  0  0
 33 49  1  0  0  0  0
 34 42  1  0  0  0  0
 34 33  1  0  0  0  0
 35 34  2  0  0  0  0
 36 35  1  0  0  0  0
 36 37  1  0  0  0  0
 37 38  2  0  0  0  0
 37 42  1  0  0  0  0
 38 39  1  0  0  0  0
 39 53  1  0  0  0  0
 39 40  2  0  0  0  0
 40 54  1  0  0  0  0
 41 40  1  0  0  0  0
 41 55  1  0  0  0  0
 42 41  2  0  0  0  0
 43 32  1  0  0  0  0
 44 43  1  0  0  0  0
 45 43  2  0  0  0  0
 46 31  1  0  0  0  0
 48 33  1  0  0  0  0
 50 35  1  0  0  0  0
 51 36  1  0  0  0  0
 52 38  1  0  0  0  0
M  END
$$$$
