IAY.pdb
 OpenBabel07022418393D

 52 52  0  0  1  0  0  0  0  0999 V2000
    4.4570   -5.2430    1.1820 C   0  0  0  0  0  0  0  0  0  0  0  0
    4.9430   -3.8180    1.3550 C   0  0  0  0  0  0  0  0  0  0  0  0
    3.7310   -2.9160    1.1910 C   0  0  2  0  0  0  0  0  0  0  0  0
    3.2080   -3.1790   -0.1950 C   0  0  0  0  0  0  0  0  0  0  0  0
    4.1150   -1.4550    1.3110 C   0  0  2  0  0  0  0  0  0  0  0  0
    4.7170   -1.2080    2.6230 N   0  0  0  0  0  0  0  0  0  0  0  0
    2.8570   -0.6650    1.3010 C   0  0  0  0  0  0  0  0  0  0  0  0
    2.4170   -0.1630    2.3990 O   0  0  0  0  0  0  0  0  0  0  0  0
    4.8790   -5.9170    1.9600 H   0  0  0  0  0  0  0  0  0  0  0  0
    4.7120   -5.6760    0.2100 H   0  0  0  0  0  0  0  0  0  0  0  0
    3.3380   -5.3130    1.3190 H   0  0  0  0  0  0  0  0  0  0  0  0
    5.4120   -3.7440    2.3350 H   0  0  0  0  0  0  0  0  0  0  0  0
    5.6520   -3.6140    0.5080 H   0  0  0  0  0  0  0  0  0  0  0  0
    2.9710   -3.1360    1.9350 H   0  0  0  0  0  0  0  0  0  0  0  0
    3.7790   -2.6470   -0.9910 H   0  0  0  0  0  0  0  0  0  0  0  0
    2.1110   -3.0650   -0.2880 H   0  0  0  0  0  0  0  0  0  0  0  0
    3.3740   -4.2800   -0.4400 H   0  0  0  0  0  0  0  0  0  0  0  0
    4.8510   -1.1350    0.5540 H   0  0  0  0  0  0  0  0  0  0  0  0
    4.6900   -0.1910    2.8590 H   0  0  0  0  0  0  0  0  0  0  0  0
    4.2100   -1.7000    3.3830 H   0  0  0  0  0  0  0  0  0  0  0  0
    1.0780    1.6890   -0.5020 C   0  0  0  0  0  0  0  0  0  0  0  0
    0.8330    0.3990    0.2760 C   0  0  2  0  0  0  0  0  0  0  0  0
    2.0660   -0.3970    0.1640 N   0  0  0  0  0  0  0  0  0  0  0  0
   -0.3000   -0.3660   -0.3000 C   0  0  0  0  0  0  0  0  0  0  0  0
   -0.1060   -1.5290   -0.7910 O   0  0  0  0  0  0  0  0  0  0  0  0
    0.1170    2.1220   -0.8600 H   0  0  0  0  0  0  0  0  0  0  0  0
    1.5840    2.4470    0.1270 H   0  0  0  0  0  0  0  0  0  0  0  0
    1.6890    1.4890   -1.4080 H   0  0  0  0  0  0  0  0  0  0  0  0
    0.6680    0.7060    1.3280 H   0  0  0  0  0  0  0  0  0  0  0  0
    2.3760   -0.7660   -0.7540 H   0  0  0  0  0  0  0  0  0  0  0  0
   -5.6840    3.7970    2.5680 O   0  0  0  0  0  0  0  0  0  0  0  0
   -5.2210    2.6330    1.9700 C   0  0  0  0  0  0  0  0  0  0  0  0
   -5.8700    2.0670    0.8900 C   0  0  0  0  0  0  0  0  0  0  0  0
   -5.3760    0.9130    0.3280 C   0  0  0  0  0  0  0  0  0  0  0  0
   -4.2460    0.3080    0.8200 C   0  0  0  0  0  0  0  0  0  0  0  0
   -3.7240   -0.9340    0.2060 C   0  0  0  0  0  0  0  0  0  0  0  0
   -2.7270   -0.6370   -0.9120 C   0  0  2  0  0  0  0  0  0  0  0  0
   -1.6210    0.1100   -0.3490 N   0  0  0  0  0  0  0  0  0  0  0  0
   -3.3620    0.0660   -2.0330 C   0  0  0  0  0  0  0  0  0  0  0  0
   -2.9270    1.1880   -2.3960 O   0  0  0  0  0  0  0  0  0  0  0  0
   -3.6030    0.8760    1.8950 C   0  0  0  0  0  0  0  0  0  0  0  0
   -4.0820    2.0320    2.4730 C   0  0  0  0  0  0  0  0  0  0  0  0
   -4.4370   -0.5000   -2.6930 O   0  0  0  0  0  0  0  0  0  0  0  0
   -6.0130    3.8200    3.5340 H   0  0  0  0  0  0  0  0  0  0  0  0
   -6.7540    2.5730    0.5350 H   0  0  0  0  0  0  0  0  0  0  0  0
   -5.9320    0.5130   -0.5220 H   0  0  0  0  0  0  0  0  0  0  0  0
   -4.5890   -1.5000   -0.1700 H   0  0  0  0  0  0  0  0  0  0  0  0
   -3.2340   -1.5720    0.9690 H   0  0  0  0  0  0  0  0  0  0  0  0
   -2.3610   -1.6090   -1.2810 H   0  0  0  0  0  0  0  0  0  0  0  0
   -1.7960    1.0710    0.0530 H   0  0  0  0  0  0  0  0  0  0  0  0
   -2.7020    0.4370    2.3240 H   0  0  0  0  0  0  0  0  0  0  0  0
   -3.5620    2.4790    3.3310 H   0  0  0  0  0  0  0  0  0  0  0  0
  1 11  1  0  0  0  0
  1  2  1  0  0  0  0
  1  9  1  0  0  0  0
  2 12  1  0  0  0  0
  3  5  1  0  0  0  0
  3  2  1  0  0  0  0
  3 14  1  1  0  0  0
  4  3  1  0  0  0  0
  5 18  1  6  0  0  0
  5  6  1  0  0  0  0
  6 19  1  0  0  0  0
  6 20  1  0  0  0  0
  7  5  1  0  0  0  0
  7  8  2  0  0  0  0
 10  1  1  0  0  0  0
 13  2  1  0  0  0  0
 15  4  1  0  0  0  0
 16  4  1  0  0  0  0
 17  4  1  0  0  0  0
 21 27  1  0  0  0  0
 21 22  1  0  0  0  0
 22 29  1  1  0  0  0
 23 22  1  0  0  0  0
 23  7  1  0  0  0  0
 24 22  1  0  0  0  0
 25 24  2  0  0  0  0
 26 21  1  0  0  0  0
 28 21  1  0  0  0  0
 30 23  1  0  0  0  0
 31 44  1  0  0  0  0
 32 42  1  0  0  0  0
 32 31  1  0  0  0  0
 33 32  2  0  0  0  0
 34 35  2  0  0  0  0
 34 33  1  0  0  0  0
 35 41  1  0  0  0  0
 36 35  1  0  0  0  0
 36 48  1  0  0  0  0
 37 49  1  6  0  0  0
 37 38  1  0  0  0  0
 37 36  1  0  0  0  0
 38 24  1  0  0  0  0
 38 50  1  0  0  0  0
 39 37  1  0  0  0  0
 40 39  1  0  0  0  0
 41 51  1  0  0  0  0
 41 42  2  0  0  0  0
 42 52  1  0  0  0  0
 43 39  2  0  0  0  0
 45 33  1  0  0  0  0
 46 34  1  0  0  0  0
 47 36  1  0  0  0  0
M  END
$$$$
