ICA.pdb
 OpenBabel07022418403D

 42 41  0  0  1  0  0  0  0  0999 V2000
   -3.4110   -2.0350   -1.6980 C   0  0  0  0  0  0  0  0  0  0  0  0
   -2.9840   -2.6880   -0.4250 C   0  0  0  0  0  0  0  0  0  0  0  0
   -1.6690   -2.1460    0.1100 C   0  0  2  0  0  0  0  0  0  0  0  0
   -1.8650   -0.6700    0.3600 C   0  0  0  0  0  0  0  0  0  0  0  0
   -0.5590   -2.3240   -0.9030 C   0  0  2  0  0  0  0  0  0  0  0  0
   -0.5110   -3.7910   -1.1320 N   0  0  0  0  0  0  0  0  0  0  0  0
    0.7680   -1.9510   -0.4220 C   0  0  0  0  0  0  0  0  0  0  0  0
    1.6350   -2.8690   -0.1820 O   0  0  0  0  0  0  0  0  0  0  0  0
   -2.7570   -1.2070   -2.0300 H   0  0  0  0  0  0  0  0  0  0  0  0
   -4.4280   -1.5820   -1.5090 H   0  0  0  0  0  0  0  0  0  0  0  0
   -3.5690   -2.7890   -2.4820 H   0  0  0  0  0  0  0  0  0  0  0  0
   -2.8470   -3.7740   -0.5870 H   0  0  0  0  0  0  0  0  0  0  0  0
   -3.7270   -2.5620    0.3970 H   0  0  0  0  0  0  0  0  0  0  0  0
   -1.4710   -2.6360    1.0770 H   0  0  0  0  0  0  0  0  0  0  0  0
   -1.7750   -0.1460   -0.5910 H   0  0  0  0  0  0  0  0  0  0  0  0
   -1.2230   -0.3110    1.1630 H   0  0  0  0  0  0  0  0  0  0  0  0
   -2.9360   -0.5090    0.6990 H   0  0  0  0  0  0  0  0  0  0  0  0
   -0.8370   -1.8800   -1.8740 H   0  0  0  0  0  0  0  0  0  0  0  0
    0.2950   -4.0340   -1.7430 H   0  0  0  0  0  0  0  0  0  0  0  0
   -0.3690   -4.2850   -0.2180 H   0  0  0  0  0  0  0  0  0  0  0  0
    1.2390   -0.6200   -0.1790 N   0  0  0  0  0  0  0  0  0  0  0  0
    2.5690   -0.3690    0.2840 C   0  0  1  0  0  0  0  0  0  0  0  0
    3.4000    0.2410   -0.8410 C   0  0  0  0  0  0  0  0  0  0  0  0
    5.0720    0.5220   -0.1520 S   0  0  0  0  0  0  0  0  0  0  0  0
    2.6860    0.4060    1.5250 C   0  0  0  0  0  0  0  0  0  0  0  0
    3.8680    0.6210    1.9740 O   0  0  0  0  0  0  0  0  0  0  0  0
    0.5640    0.1540   -0.3590 H   0  0  0  0  0  0  0  0  0  0  0  0
    3.0670   -1.3640    0.4680 H   0  0  0  0  0  0  0  0  0  0  0  0
    2.9680    1.1640   -1.2350 H   0  0  0  0  0  0  0  0  0  0  0  0
    3.5170   -0.5600   -1.6030 H   0  0  0  0  0  0  0  0  0  0  0  0
    5.7930   -0.6650   -0.0830 H   0  0  0  0  0  0  0  0  0  0  0  0
    1.2540    3.0880    3.4330 C   0  0  0  0  0  0  0  0  0  0  0  0
    1.8420    1.7070    3.5120 C   0  0  2  0  0  0  0  0  0  0  0  0
    1.6510    0.9530    2.2960 N   0  0  0  0  0  0  0  0  0  0  0  0
    1.2110    0.9770    4.6700 C   0  0  0  0  0  0  0  0  0  0  0  0
    0.6310   -0.1260    4.4670 O   0  0  0  0  0  0  0  0  0  0  0  0
    1.2420    1.4670    5.9480 O   0  0  0  0  0  0  0  0  0  0  0  0
    0.5840    3.2380    2.5740 H   0  0  0  0  0  0  0  0  0  0  0  0
    2.0670    3.8570    3.3210 H   0  0  0  0  0  0  0  0  0  0  0  0
    0.7630    3.3280    4.4060 H   0  0  0  0  0  0  0  0  0  0  0  0
    2.9120    1.8140    3.7830 H   0  0  0  0  0  0  0  0  0  0  0  0
    0.6770    0.8070    1.9670 H   0  0  0  0  0  0  0  0  0  0  0  0
  1 10  1  0  0  0  0
  1  2  1  0  0  0  0
  2  3  1  0  0  0  0
  2 13  1  0  0  0  0
  3  4  1  0  0  0  0
  3 14  1  1  0  0  0
  4 17  1  0  0  0  0
  4 16  1  0  0  0  0
  5 18  1  6  0  0  0
  5  7  1  0  0  0  0
  5  3  1  0  0  0  0
  6  5  1  0  0  0  0
  6 20  1  0  0  0  0
  7  8  2  0  0  0  0
  7 21  1  0  0  0  0
  9  1  1  0  0  0  0
 11  1  1  0  0  0  0
 12  2  1  0  0  0  0
 15  4  1  0  0  0  0
 19  6  1  0  0  0  0
 21 22  1  0  0  0  0
 22 28  1  1  0  0  0
 22 25  1  0  0  0  0
 23 24  1  0  0  0  0
 23 22  1  0  0  0  0
 24 31  1  0  0  0  0
 25 26  2  0  0  0  0
 25 34  1  0  0  0  0
 27 21  1  0  0  0  0
 29 23  1  0  0  0  0
 30 23  1  0  0  0  0
 32 33  1  0  0  0  0
 32 40  1  0  0  0  0
 33 41  1  1  0  0  0
 33 35  1  0  0  0  0
 34 33  1  0  0  0  0
 35 37  1  0  0  0  0
 36 35  2  0  0  0  0
 38 32  1  0  0  0  0
 39 32  1  0  0  0  0
 42 34  1  0  0  0  0
M  END
$$$$
