ICD.pdb
 OpenBabel07022418403D

 45 44  0  0  1  0  0  0  0  0999 V2000
   -1.6750   -3.6850    1.0530 C   0  0  0  0  0  0  0  0  0  0  0  0
   -0.4050   -2.8430    0.8510 C   0  0  0  0  0  0  0  0  0  0  0  0
    0.6960   -3.3450    1.7310 C   0  0  2  0  0  0  0  0  0  0  0  0
    0.3570   -3.2790    3.1950 C   0  0  0  0  0  0  0  0  0  0  0  0
    2.0580   -2.8540    1.4420 C   0  0  2  0  0  0  0  0  0  0  0  0
    2.9700   -3.4790    2.4280 N   0  0  0  0  0  0  0  0  0  0  0  0
    2.3240   -1.4410    1.3910 C   0  0  0  0  0  0  0  0  0  0  0  0
    3.1350   -0.9440    2.2500 O   0  0  0  0  0  0  0  0  0  0  0  0
   -2.2490   -3.3250    1.9260 H   0  0  0  0  0  0  0  0  0  0  0  0
   -1.3790   -4.7330    1.0940 H   0  0  0  0  0  0  0  0  0  0  0  0
   -2.3110   -3.5400    0.1570 H   0  0  0  0  0  0  0  0  0  0  0  0
   -0.1650   -2.9320   -0.2240 H   0  0  0  0  0  0  0  0  0  0  0  0
   -0.6440   -1.7730    1.0310 H   0  0  0  0  0  0  0  0  0  0  0  0
    0.7350   -4.4660    1.5090 H   0  0  0  0  0  0  0  0  0  0  0  0
    0.2740   -4.2730    3.6750 H   0  0  0  0  0  0  0  0  0  0  0  0
   -0.5950   -2.7560    3.3990 H   0  0  0  0  0  0  0  0  0  0  0  0
    1.1740   -2.7390    3.7540 H   0  0  0  0  0  0  0  0  0  0  0  0
    2.4080   -3.3010    0.4630 H   0  0  0  0  0  0  0  0  0  0  0  0
    3.8790   -3.7130    2.0080 H   0  0  0  0  0  0  0  0  0  0  0  0
    3.1360   -2.7770    3.1950 H   0  0  0  0  0  0  0  0  0  0  0  0
    1.7980   -0.4700    0.4810 N   0  0  0  0  0  0  0  0  0  0  0  0
    2.1700    0.9210    0.5490 C   0  0  1  0  0  0  0  0  0  0  0  0
    3.0830    1.2760   -0.6470 C   0  0  0  0  0  0  0  0  0  0  0  0
    3.4800    3.0390   -0.4500 S   0  0  0  0  0  0  0  0  0  0  0  0
    1.0530    1.8790    0.4680 C   0  0  0  0  0  0  0  0  0  0  0  0
    1.2310    3.1270    0.5620 O   0  0  0  0  0  0  0  0  0  0  0  0
    1.1450   -0.7910   -0.2290 H   0  0  0  0  0  0  0  0  0  0  0  0
    2.8150    1.1410    1.4280 H   0  0  0  0  0  0  0  0  0  0  0  0
    2.5400    1.1630   -1.5920 H   0  0  0  0  0  0  0  0  0  0  0  0
    3.9980    0.6810   -0.6060 H   0  0  0  0  0  0  0  0  0  0  0  0
    2.7970    3.8150   -1.4190 H   0  0  0  0  0  0  0  0  0  0  0  0
   -0.2740    1.4130    0.2780 N   0  0  0  0  0  0  0  0  0  0  0  0
   -1.3920    2.3630    0.1980 C   0  0  1  0  0  0  0  0  0  0  0  0
   -2.0020    2.2900   -1.1640 C   0  0  0  0  0  0  0  0  0  0  0  0
   -2.5370    0.9590   -1.5100 C   0  0  0  0  0  0  0  0  0  0  0  0
   -3.0270    0.8170   -2.6630 O   0  0  0  0  0  0  0  0  0  0  0  0
   -2.3740    2.0880    1.2680 C   0  0  0  0  0  0  0  0  0  0  0  0
   -3.4140    2.7760    1.3940 O   0  0  0  0  0  0  0  0  0  0  0  0
   -2.5300   -0.1110   -0.6590 O   0  0  0  0  0  0  0  0  0  0  0  0
   -2.1660    1.0550    2.1620 O   0  0  0  0  0  0  0  0  0  0  0  0
   -0.4370    0.3910    0.1920 H   0  0  0  0  0  0  0  0  0  0  0  0
   -0.9540    3.3740    0.3230 H   0  0  0  0  0  0  0  0  0  0  0  0
   -2.8480    3.0320   -1.2340 H   0  0  0  0  0  0  0  0  0  0  0  0
   -1.2590    2.6070   -1.9270 H   0  0  0  0  0  0  0  0  0  0  0  0
   -3.2480   -0.8270   -0.7670 H   0  0  0  0  0  0  0  0  0  0  0  0
  1 10  1  0  0  0  0
  1  9  1  0  0  0  0
  2 13  1  0  0  0  0
  2  1  1  0  0  0  0
  2  3  1  0  0  0  0
  3 14  1  6  0  0  0
  3  4  1  0  0  0  0
  4 16  1  0  0  0  0
  4 15  1  0  0  0  0
  4 17  1  0  0  0  0
  5 18  1  6  0  0  0
  5  3  1  0  0  0  0
  5  6  1  0  0  0  0
  6 20  1  0  0  0  0
  7  5  1  0  0  0  0
  7  8  2  0  0  0  0
 11  1  1  0  0  0  0
 12  2  1  0  0  0  0
 19  6  1  0  0  0  0
 21 22  1  0  0  0  0
 21  7  1  0  0  0  0
 22 28  1  1  0  0  0
 23 30  1  0  0  0  0
 23 24  1  0  0  0  0
 23 22  1  0  0  0  0
 25 22  1  0  0  0  0
 25 26  2  0  0  0  0
 27 21  1  0  0  0  0
 29 23  1  0  0  0  0
 31 24  1  0  0  0  0
 32 25  1  0  0  0  0
 33 32  1  0  0  0  0
 33 42  1  1  0  0  0
 33 37  1  0  0  0  0
 34 33  1  0  0  0  0
 35 34  1  0  0  0  0
 35 39  1  0  0  0  0
 36 35  2  0  0  0  0
 37 38  2  0  0  0  0
 37 40  1  0  0  0  0
 41 32  1  0  0  0  0
 43 34  1  0  0  0  0
 44 34  1  0  0  0  0
 45 39  1  0  0  0  0
M  END
$$$$
