ICE.pdb
 OpenBabel07022418403D

 48 47  0  0  1  0  0  0  0  0999 V2000
   -0.3710   -4.5570    0.7980 C   0  0  0  0  0  0  0  0  0  0  0  0
   -0.3560   -3.0890    0.5680 C   0  0  0  0  0  0  0  0  0  0  0  0
    0.4150   -2.5980   -0.6010 C   0  0  2  0  0  0  0  0  0  0  0  0
   -0.0580   -3.1530   -1.9180 C   0  0  0  0  0  0  0  0  0  0  0  0
    1.9110   -2.5990   -0.4410 C   0  0  2  0  0  0  0  0  0  0  0  0
    2.4010   -3.9270   -0.1960 N   0  0  0  0  0  0  0  0  0  0  0  0
    2.3500   -1.6430    0.6220 C   0  0  0  0  0  0  0  0  0  0  0  0
    3.0570   -2.0270    1.6030 O   0  0  0  0  0  0  0  0  0  0  0  0
   -1.2570   -4.8700    1.4330 H   0  0  0  0  0  0  0  0  0  0  0  0
   -0.4720   -5.1690   -0.1150 H   0  0  0  0  0  0  0  0  0  0  0  0
    0.5020   -4.9410    1.3570 H   0  0  0  0  0  0  0  0  0  0  0  0
    0.0450   -2.5920    1.5020 H   0  0  0  0  0  0  0  0  0  0  0  0
   -1.4280   -2.7430    0.5520 H   0  0  0  0  0  0  0  0  0  0  0  0
    0.1520   -1.4850   -0.6740 H   0  0  0  0  0  0  0  0  0  0  0  0
   -1.1330   -2.9740   -1.9950 H   0  0  0  0  0  0  0  0  0  0  0  0
    0.2530   -4.1960   -2.0860 H   0  0  0  0  0  0  0  0  0  0  0  0
    0.4350   -2.5470   -2.7170 H   0  0  0  0  0  0  0  0  0  0  0  0
    2.3310   -2.2050   -1.4160 H   0  0  0  0  0  0  0  0  0  0  0  0
    2.6570   -4.1220    0.7840 H   0  0  0  0  0  0  0  0  0  0  0  0
    1.7720   -4.6120   -0.6480 H   0  0  0  0  0  0  0  0  0  0  0  0
    1.9950   -0.2800    0.5790 N   0  0  0  0  0  0  0  0  0  0  0  0
    2.3860    0.6910    1.5720 C   0  0  1  0  0  0  0  0  0  0  0  0
    3.1810    1.8250    0.9490 C   0  0  0  0  0  0  0  0  0  0  0  0
    4.6950    1.1820    0.1590 S   0  0  0  0  0  0  0  0  0  0  0  0
    1.1840    1.3290    2.2030 C   0  0  0  0  0  0  0  0  0  0  0  0
    1.3350    2.2030    3.0940 O   0  0  0  0  0  0  0  0  0  0  0  0
    1.4090    0.0530   -0.2300 H   0  0  0  0  0  0  0  0  0  0  0  0
    2.9940    0.2310    2.3670 H   0  0  0  0  0  0  0  0  0  0  0  0
    2.5780    2.4280    0.2550 H   0  0  0  0  0  0  0  0  0  0  0  0
    3.5240    2.5100    1.7510 H   0  0  0  0  0  0  0  0  0  0  0  0
    5.1920    0.0910    0.8670 H   0  0  0  0  0  0  0  0  0  0  0  0
   -0.1450    0.9920    1.8390 N   0  0  0  0  0  0  0  0  0  0  0  0
   -1.3070    1.6030    2.4430 C   0  0  1  0  0  0  0  0  0  0  0  0
   -2.1780    2.2990    1.4310 C   0  0  0  0  0  0  0  0  0  0  0  0
   -2.6720    1.3200    0.3910 C   0  0  0  0  0  0  0  0  0  0  0  0
   -3.5260    2.0300   -0.5910 C   0  0  0  0  0  0  0  0  0  0  0  0
   -3.7470    3.2630   -0.4890 O   0  0  0  0  0  0  0  0  0  0  0  0
   -2.1480    0.6030    3.1490 C   0  0  0  0  0  0  0  0  0  0  0  0
   -3.1940    0.8950    3.7400 O   0  0  0  0  0  0  0  0  0  0  0  0
   -4.1090    1.3600   -1.6560 O   0  0  0  0  0  0  0  0  0  0  0  0
   -1.7330   -0.7170    3.1370 O   0  0  0  0  0  0  0  0  0  0  0  0
   -0.2840    0.2730    1.1060 H   0  0  0  0  0  0  0  0  0  0  0  0
   -1.0060    2.3540    3.2110 H   0  0  0  0  0  0  0  0  0  0  0  0
   -1.7020    3.1870    0.9830 H   0  0  0  0  0  0  0  0  0  0  0  0
   -3.0810    2.6590    1.9760 H   0  0  0  0  0  0  0  0  0  0  0  0
   -3.2730    0.5460    0.9440 H   0  0  0  0  0  0  0  0  0  0  0  0
   -1.8440    0.8040   -0.1330 H   0  0  0  0  0  0  0  0  0  0  0  0
   -5.0370    1.6340   -1.9660 H   0  0  0  0  0  0  0  0  0  0  0  0
  1 11  1  0  0  0  0
  1  9  1  0  0  0  0
  2  1  1  0  0  0  0
  2 12  1  0  0  0  0
  3 14  1  6  0  0  0
  3  5  1  0  0  0  0
  3  2  1  0  0  0  0
  4  3  1  0  0  0  0
  5 18  1  6  0  0  0
  5  6  1  0  0  0  0
  5  7  1  0  0  0  0
  6 19  1  0  0  0  0
  7  8  2  0  0  0  0
 10  1  1  0  0  0  0
 13  2  1  0  0  0  0
 15  4  1  0  0  0  0
 16  4  1  0  0  0  0
 17  4  1  0  0  0  0
 20  6  1  0  0  0  0
 21  7  1  0  0  0  0
 21 22  1  0  0  0  0
 22 25  1  0  0  0  0
 22 28  1  1  0  0  0
 23 22  1  0  0  0  0
 23 30  1  0  0  0  0
 24 31  1  0  0  0  0
 24 23  1  0  0  0  0
 25 26  2  0  0  0  0
 27 21  1  0  0  0  0
 29 23  1  0  0  0  0
 32 25  1  0  0  0  0
 32 33  1  0  0  0  0
 33 38  1  0  0  0  0
 33 43  1  1  0  0  0
 34 45  1  0  0  0  0
 34 33  1  0  0  0  0
 35 46  1  0  0  0  0
 35 34  1  0  0  0  0
 36 37  2  0  0  0  0
 36 35  1  0  0  0  0
 38 39  1  0  0  0  0
 40 36  1  0  0  0  0
 41 38  2  0  0  0  0
 42 32  1  0  0  0  0
 44 34  1  0  0  0  0
 47 35  1  0  0  0  0
 48 40  1  0  0  0  0
M  END
$$$$
