ICF.pdb
 OpenBabel07022418413D

 52 52  0  0  1  0  0  0  0  0999 V2000
    1.0570   -2.6110    5.4020 C   0  0  0  0  0  0  0  0  0  0  0  0
    1.4300   -1.5290    4.4170 C   0  0  0  0  0  0  0  0  0  0  0  0
    0.8310   -1.8140    3.0560 C   0  0  2  0  0  0  0  0  0  0  0  0
    1.3110   -3.1140    2.5030 C   0  0  0  0  0  0  0  0  0  0  0  0
    1.0050   -0.6490    2.1130 C   0  0  2  0  0  0  0  0  0  0  0  0
    0.3300    0.4880    2.7150 N   0  0  0  0  0  0  0  0  0  0  0  0
    0.2630   -0.9880    0.8620 C   0  0  0  0  0  0  0  0  0  0  0  0
    0.6130   -1.9420    0.1130 O   0  0  0  0  0  0  0  0  0  0  0  0
    1.6890   -3.5080    5.3280 H   0  0  0  0  0  0  0  0  0  0  0  0
    0.9690   -2.2280    6.4380 H   0  0  0  0  0  0  0  0  0  0  0  0
    0.0150   -2.9360    5.1180 H   0  0  0  0  0  0  0  0  0  0  0  0
    1.1630   -0.5450    4.8040 H   0  0  0  0  0  0  0  0  0  0  0  0
    2.5440   -1.5470    4.3250 H   0  0  0  0  0  0  0  0  0  0  0  0
   -0.2820   -1.9110    3.2190 H   0  0  0  0  0  0  0  0  0  0  0  0
    0.4620   -3.6980    2.0520 H   0  0  0  0  0  0  0  0  0  0  0  0
    2.0820   -3.0000    1.7170 H   0  0  0  0  0  0  0  0  0  0  0  0
    1.7370   -3.7790    3.2880 H   0  0  0  0  0  0  0  0  0  0  0  0
    2.0610   -0.4190    1.9090 H   0  0  0  0  0  0  0  0  0  0  0  0
    0.9710    1.1140    3.2350 H   0  0  0  0  0  0  0  0  0  0  0  0
   -0.5250    0.2300    3.2190 H   0  0  0  0  0  0  0  0  0  0  0  0
   -0.8920   -0.2470    0.4410 N   0  0  0  0  0  0  0  0  0  0  0  0
   -1.5890   -0.5950   -0.7680 C   0  0  1  0  0  0  0  0  0  0  0  0
   -3.0360   -0.9300   -0.4780 C   0  0  0  0  0  0  0  0  0  0  0  0
   -3.8790    0.4820    0.2720 S   0  0  0  0  0  0  0  0  0  0  0  0
   -1.5400    0.5300   -1.7090 C   0  0  0  0  0  0  0  0  0  0  0  0
   -0.9500    1.5770   -1.3870 O   0  0  0  0  0  0  0  0  0  0  0  0
   -1.1970    0.5450    1.0480 H   0  0  0  0  0  0  0  0  0  0  0  0
   -1.1140   -1.4660   -1.2760 H   0  0  0  0  0  0  0  0  0  0  0  0
   -3.5490   -1.1710   -1.4290 H   0  0  0  0  0  0  0  0  0  0  0  0
   -3.1450   -1.8080    0.1830 H   0  0  0  0  0  0  0  0  0  0  0  0
   -3.2200    1.6530   -0.2080 H   0  0  0  0  0  0  0  0  0  0  0  0
   -2.1360    0.5120   -3.0020 N   0  0  0  0  0  0  0  0  0  0  0  0
   -2.1010    1.5940   -3.9340 C   0  0  1  0  0  0  0  0  0  0  0  0
   -1.4680    1.2820   -5.2430 C   0  0  0  0  0  0  0  0  0  0  0  0
   -0.0390    0.8590   -5.0440 C   0  0  0  0  0  0  0  0  0  0  0  0
    0.3000   -0.4610   -4.8560 C   0  0  0  0  0  0  0  0  0  0  0  0
    1.6230   -0.7750   -4.6770 C   0  0  0  0  0  0  0  0  0  0  0  0
    2.6130    0.2010   -4.6820 C   0  0  0  0  0  0  0  0  0  0  0  0
    2.2400    1.5160   -4.8730 C   0  0  0  0  0  0  0  0  0  0  0  0
    0.9150    1.8420   -5.0530 C   0  0  0  0  0  0  0  0  0  0  0  0
   -3.4790    2.1080   -4.1470 C   0  0  0  0  0  0  0  0  0  0  0  0
   -4.4410    1.5960   -3.5500 O   0  0  0  0  0  0  0  0  0  0  0  0
   -3.7420    3.1680   -5.0110 O   0  0  0  0  0  0  0  0  0  0  0  0
   -2.6320   -0.3710   -3.2720 H   0  0  0  0  0  0  0  0  0  0  0  0
   -1.5300    2.4630   -3.4960 H   0  0  0  0  0  0  0  0  0  0  0  0
   -2.0130    0.5270   -5.8400 H   0  0  0  0  0  0  0  0  0  0  0  0
   -1.4350    2.2020   -5.8550 H   0  0  0  0  0  0  0  0  0  0  0  0
   -0.4670   -1.2270   -4.8510 H   0  0  0  0  0  0  0  0  0  0  0  0
    1.9630   -1.8100   -4.5220 H   0  0  0  0  0  0  0  0  0  0  0  0
    3.6490   -0.0570   -4.5410 H   0  0  0  0  0  0  0  0  0  0  0  0
    2.9920    2.3160   -4.8840 H   0  0  0  0  0  0  0  0  0  0  0  0
    0.6130    2.8960   -5.2070 H   0  0  0  0  0  0  0  0  0  0  0  0
  1 10  1  0  0  0  0
  2 12  1  0  0  0  0
  2  1  1  0  0  0  0
  3 14  1  1  0  0  0
  3  2  1  0  0  0  0
  4  3  1  0  0  0  0
  4 17  1  0  0  0  0
  5 18  1  6  0  0  0
  5  6  1  0  0  0  0
  5  3  1  0  0  0  0
  6 20  1  0  0  0  0
  6 19  1  0  0  0  0
  7  5  1  0  0  0  0
  8  7  2  0  0  0  0
  9  1  1  0  0  0  0
 11  1  1  0  0  0  0
 13  2  1  0  0  0  0
 15  4  1  0  0  0  0
 16  4  1  0  0  0  0
 21  7  1  0  0  0  0
 21 27  1  0  0  0  0
 22 28  1  6  0  0  0
 22 23  1  0  0  0  0
 22 21  1  0  0  0  0
 23 30  1  0  0  0  0
 23 24  1  0  0  0  0
 25 26  2  0  0  0  0
 25 22  1  0  0  0  0
 29 23  1  0  0  0  0
 31 24  1  0  0  0  0
 32 25  1  0  0  0  0
 33 45  1  1  0  0  0
 33 32  1  0  0  0  0
 34 35  1  0  0  0  0
 34 33  1  0  0  0  0
 35 36  1  0  0  0  0
 36 48  1  0  0  0  0
 36 37  2  0  0  0  0
 37 49  1  0  0  0  0
 38 37  1  0  0  0  0
 38 50  1  0  0  0  0
 39 38  2  0  0  0  0
 40 35  2  0  0  0  0
 40 39  1  0  0  0  0
 41 33  1  0  0  0  0
 41 42  1  0  0  0  0
 43 41  2  0  0  0  0
 44 32  1  0  0  0  0
 46 34  1  0  0  0  0
 47 34  1  0  0  0  0
 51 39  1  0  0  0  0
 52 40  1  0  0  0  0
M  END
$$$$
