ICG.pdb
 OpenBabel07022418413D

 39 38  0  0  1  0  0  0  0  0999 V2000
   -1.4920   -2.7090   -1.8840 C   0  0  0  0  0  0  0  0  0  0  0  0
   -0.0440   -3.0060   -1.6610 C   0  0  0  0  0  0  0  0  0  0  0  0
    0.3420   -3.2980   -0.2540 C   0  0  2  0  0  0  0  0  0  0  0  0
   -0.4310   -4.5110    0.2180 C   0  0  0  0  0  0  0  0  0  0  0  0
    0.1810   -2.2020    0.7230 C   0  0  2  0  0  0  0  0  0  0  0  0
   -1.1610   -1.7130    0.8680 N   0  0  0  0  0  0  0  0  0  0  0  0
    1.1560   -1.0780    0.5290 C   0  0  0  0  0  0  0  0  0  0  0  0
    2.3860   -1.3120    0.3920 O   0  0  0  0  0  0  0  0  0  0  0  0
   -1.8860   -3.2300   -2.8080 H   0  0  0  0  0  0  0  0  0  0  0  0
   -1.6650   -1.6160   -2.1150 H   0  0  0  0  0  0  0  0  0  0  0  0
   -2.1410   -3.0540   -1.0650 H   0  0  0  0  0  0  0  0  0  0  0  0
    0.6240   -2.2280   -2.1330 H   0  0  0  0  0  0  0  0  0  0  0  0
    0.1800   -3.9380   -2.2490 H   0  0  0  0  0  0  0  0  0  0  0  0
    1.4110   -3.5970   -0.2620 H   0  0  0  0  0  0  0  0  0  0  0  0
   -1.2500   -4.7930   -0.4930 H   0  0  0  0  0  0  0  0  0  0  0  0
   -0.9020   -4.3650    1.2090 H   0  0  0  0  0  0  0  0  0  0  0  0
    0.2060   -5.4170    0.2910 H   0  0  0  0  0  0  0  0  0  0  0  0
    0.4460   -2.6390    1.7250 H   0  0  0  0  0  0  0  0  0  0  0  0
   -1.7540   -2.5160    1.2390 H   0  0  0  0  0  0  0  0  0  0  0  0
   -1.2570   -0.9730    1.5750 H   0  0  0  0  0  0  0  0  0  0  0  0
    0.7690    0.2870    0.4870 N   0  0  0  0  0  0  0  0  0  0  0  0
    1.6610    1.3880    0.3040 C   0  0  1  0  0  0  0  0  0  0  0  0
    1.3180    2.2430   -0.8950 C   0  0  0  0  0  0  0  0  0  0  0  0
    1.3480    1.3600   -2.4420 S   0  0  0  0  0  0  0  0  0  0  0  0
    1.6350    2.3240    1.4860 C   0  0  0  0  0  0  0  0  0  0  0  0
    2.3560    3.3540    1.5110 O   0  0  0  0  0  0  0  0  0  0  0  0
   -0.2460    0.4970    0.5980 H   0  0  0  0  0  0  0  0  0  0  0  0
    2.7220    1.0830    0.1920 H   0  0  0  0  0  0  0  0  0  0  0  0
    1.9770    3.1350   -0.8920 H   0  0  0  0  0  0  0  0  0  0  0  0
    0.2760    2.6580   -0.7580 H   0  0  0  0  0  0  0  0  0  0  0  0
    2.4490    0.4510   -2.4230 H   0  0  0  0  0  0  0  0  0  0  0  0
    0.8090    2.0940    2.6150 N   0  0  0  0  0  0  0  0  0  0  0  0
    0.7930    2.9920    3.7350 C   0  0  0  0  0  0  0  0  0  0  0  0
   -0.1590    2.5030    4.7630 C   0  0  0  0  0  0  0  0  0  0  0  0
   -0.3350    3.1370    5.8330 O   0  0  0  0  0  0  0  0  0  0  0  0
   -0.8800    1.3330    4.5690 O   0  0  0  0  0  0  0  0  0  0  0  0
    0.2100    1.2550    2.6160 H   0  0  0  0  0  0  0  0  0  0  0  0
    0.5350    4.0260    3.3980 H   0  0  0  0  0  0  0  0  0  0  0  0
    1.8270    3.0390    4.1790 H   0  0  0  0  0  0  0  0  0  0  0  0
  1  2  1  0  0  0  0
  1 11  1  0  0  0  0
  2  3  1  0  0  0  0
  3 14  1  6  0  0  0
  3  4  1  0  0  0  0
  3  5  1  0  0  0  0
  4 17  1  0  0  0  0
  4 16  1  0  0  0  0
  5  6  1  0  0  0  0
  5 18  1  1  0  0  0
  6 19  1  0  0  0  0
  6 20  1  0  0  0  0
  7  5  1  0  0  0  0
  8  7  2  0  0  0  0
  9  1  1  0  0  0  0
 10  1  1  0  0  0  0
 12  2  1  0  0  0  0
 13  2  1  0  0  0  0
 15  4  1  0  0  0  0
 21  7  1  0  0  0  0
 21 27  1  0  0  0  0
 22 28  1  6  0  0  0
 22 21  1  0  0  0  0
 22 25  1  0  0  0  0
 23 29  1  0  0  0  0
 23 30  1  0  0  0  0
 23 22  1  0  0  0  0
 24 31  1  0  0  0  0
 24 23  1  0  0  0  0
 25 26  2  0  0  0  0
 25 32  1  0  0  0  0
 32 37  1  0  0  0  0
 32 33  1  0  0  0  0
 33 39  1  0  0  0  0
 33 34  1  0  0  0  0
 34 35  1  0  0  0  0
 36 34  2  0  0  0  0
 38 33  1  0  0  0  0
M  END
$$$$
