ICH.pdb
 OpenBabel07022418413D

 49 49  0  0  1  0  0  0  0  0999 V2000
    5.4290   -3.0400    0.0110 C   0  0  0  0  0  0  0  0  0  0  0  0
    4.5830   -1.9510   -0.5480 C   0  0  0  0  0  0  0  0  0  0  0  0
    3.1970   -1.8480    0.0970 C   0  0  2  0  0  0  0  0  0  0  0  0
    2.5210   -0.7030   -0.6270 C   0  0  0  0  0  0  0  0  0  0  0  0
    3.3450   -1.6110    1.5590 C   0  0  2  0  0  0  0  0  0  0  0  0
    4.0920   -2.7120    2.1950 N   0  0  0  0  0  0  0  0  0  0  0  0
    2.1400   -1.4250    2.3450 C   0  0  0  0  0  0  0  0  0  0  0  0
    1.8890   -2.2660    3.2750 O   0  0  0  0  0  0  0  0  0  0  0  0
    6.2100   -3.3850   -0.7260 H   0  0  0  0  0  0  0  0  0  0  0  0
    6.0200   -2.6500    0.8630 H   0  0  0  0  0  0  0  0  0  0  0  0
    4.8760   -3.9300    0.3660 H   0  0  0  0  0  0  0  0  0  0  0  0
    5.0950   -0.9560   -0.4240 H   0  0  0  0  0  0  0  0  0  0  0  0
    4.4960   -2.0810   -1.6450 H   0  0  0  0  0  0  0  0  0  0  0  0
    2.6660   -2.7980   -0.0710 H   0  0  0  0  0  0  0  0  0  0  0  0
    1.4350   -0.8550   -0.6160 H   0  0  0  0  0  0  0  0  0  0  0  0
    2.7870   -0.7580   -1.7320 H   0  0  0  0  0  0  0  0  0  0  0  0
    2.8990    0.2600   -0.3040 H   0  0  0  0  0  0  0  0  0  0  0  0
    3.9990   -0.7040    1.7070 H   0  0  0  0  0  0  0  0  0  0  0  0
    3.4560   -3.5120    2.4080 H   0  0  0  0  0  0  0  0  0  0  0  0
    4.5700   -2.3690    3.0620 H   0  0  0  0  0  0  0  0  0  0  0  0
    1.1860   -0.3860    2.1960 N   0  0  0  0  0  0  0  0  0  0  0  0
    0.0370   -0.3250    3.0650 C   0  0  1  0  0  0  0  0  0  0  0  0
    0.1730    0.8330    4.0560 C   0  0  0  0  0  0  0  0  0  0  0  0
    0.3100    2.4240    3.2350 S   0  0  0  0  0  0  0  0  0  0  0  0
   -1.2620   -0.2710    2.3710 C   0  0  0  0  0  0  0  0  0  0  0  0
   -2.3610   -0.2460    3.0370 O   0  0  0  0  0  0  0  0  0  0  0  0
    1.3200    0.3550    1.4420 H   0  0  0  0  0  0  0  0  0  0  0  0
    0.0350   -1.2340    3.6970 H   0  0  0  0  0  0  0  0  0  0  0  0
    1.0640    0.6950    4.7010 H   0  0  0  0  0  0  0  0  0  0  0  0
   -0.7050    0.8550    4.7320 H   0  0  0  0  0  0  0  0  0  0  0  0
    1.5950    2.6680    2.7220 H   0  0  0  0  0  0  0  0  0  0  0  0
   -1.4540   -0.2400    0.9670 N   0  0  0  0  0  0  0  0  0  0  0  0
   -2.7730   -0.1850    0.3410 C   0  0  1  0  0  0  0  0  0  0  0  0
   -2.9610    1.1040   -0.4090 C   0  0  0  0  0  0  0  0  0  0  0  0
   -4.2770    1.2080   -1.0570 C   0  0  0  0  0  0  0  0  0  0  0  0
   -4.6470    0.8440   -2.3230 C   0  0  0  0  0  0  0  0  0  0  0  0
   -5.9550    1.1540   -2.4490 N   0  0  0  0  0  0  0  0  0  0  0  0
   -6.4090    1.6950   -1.3110 C   0  0  0  0  0  0  0  0  0  0  0  0
   -5.3800    1.7280   -0.4580 N   0  0  0  0  0  0  0  0  0  0  0  0
   -3.0370   -1.3830   -0.4720 C   0  0  0  0  0  0  0  0  0  0  0  0
   -4.1440   -1.4990   -1.0460 O   0  0  0  0  0  0  0  0  0  0  0  0
   -2.1250   -2.4170   -0.6530 O   0  0  0  0  0  0  0  0  0  0  0  0
   -0.6090   -0.2540    0.3610 H   0  0  0  0  0  0  0  0  0  0  0  0
   -3.5120   -0.1880    1.1680 H   0  0  0  0  0  0  0  0  0  0  0  0
   -2.1700    1.1560   -1.1890 H   0  0  0  0  0  0  0  0  0  0  0  0
   -2.8710    1.9700    0.3010 H   0  0  0  0  0  0  0  0  0  0  0  0
   -3.9820    0.3990   -3.0450 H   0  0  0  0  0  0  0  0  0  0  0  0
   -6.5030    0.9870   -3.3130 H   0  0  0  0  0  0  0  0  0  0  0  0
   -7.4030    2.0390   -1.1110 H   0  0  0  0  0  0  0  0  0  0  0  0
  1 11  1  0  0  0  0
  1 10  1  0  0  0  0
  2 12  1  0  0  0  0
  2  1  1  0  0  0  0
  2  3  1  0  0  0  0
  3 14  1  6  0  0  0
  3  5  1  0  0  0  0
  4 15  1  0  0  0  0
  4 17  1  0  0  0  0
  4  3  1  0  0  0  0
  5 18  1  1  0  0  0
  5  6  1  0  0  0  0
  5  7  1  0  0  0  0
  6 19  1  0  0  0  0
  6 20  1  0  0  0  0
  7  8  2  0  0  0  0
  9  1  1  0  0  0  0
 13  2  1  0  0  0  0
 16  4  1  0  0  0  0
 21  7  1  0  0  0  0
 21 22  1  0  0  0  0
 22 28  1  1  0  0  0
 22 23  1  0  0  0  0
 23 29  1  0  0  0  0
 23 30  1  0  0  0  0
 24 23  1  0  0  0  0
 25 26  2  0  0  0  0
 25 22  1  0  0  0  0
 27 21  1  0  0  0  0
 31 24  1  0  0  0  0
 32 25  1  0  0  0  0
 33 32  1  0  0  0  0
 33 44  1  1  0  0  0
 34 46  1  0  0  0  0
 34 33  1  0  0  0  0
 35 39  1  0  0  0  0
 35 34  1  0  0  0  0
 36 35  2  0  0  0  0
 37 36  1  0  0  0  0
 37 38  1  0  0  0  0
 38 49  1  0  0  0  0
 38 39  2  0  0  0  0
 40 33  1  0  0  0  0
 41 40  2  0  0  0  0
 42 40  1  0  0  0  0
 43 32  1  0  0  0  0
 45 34  1  0  0  0  0
 47 36  1  0  0  0  0
 48 37  1  0  0  0  0
M  END
$$$$
