ICI.pdb
 OpenBabel07022418413D

 51 50  0  0  1  0  0  0  0  0999 V2000
    3.0880   -0.5740   -4.5530 C   0  0  0  0  0  0  0  0  0  0  0  0
    2.3680   -1.8370   -4.1730 C   0  0  0  0  0  0  0  0  0  0  0  0
    1.5270   -1.6090   -2.9080 C   0  0  2  0  0  0  0  0  0  0  0  0
    2.5260   -1.2020   -1.8450 C   0  0  0  0  0  0  0  0  0  0  0  0
    0.8550   -2.9250   -2.5650 C   0  0  2  0  0  0  0  0  0  0  0  0
    0.0370   -3.2490   -3.7370 N   0  0  0  0  0  0  0  0  0  0  0  0
   -0.0670   -2.8130   -1.4090 C   0  0  0  0  0  0  0  0  0  0  0  0
   -1.3170   -2.9240   -1.5660 O   0  0  0  0  0  0  0  0  0  0  0  0
    2.6690    0.3250   -4.0410 H   0  0  0  0  0  0  0  0  0  0  0  0
    2.9770   -0.3950   -5.6540 H   0  0  0  0  0  0  0  0  0  0  0  0
    4.1800   -0.6140   -4.3540 H   0  0  0  0  0  0  0  0  0  0  0  0
    1.7350   -2.1640   -5.0130 H   0  0  0  0  0  0  0  0  0  0  0  0
    3.1370   -2.5840   -3.8790 H   0  0  0  0  0  0  0  0  0  0  0  0
    0.8310   -0.7870   -3.0690 H   0  0  0  0  0  0  0  0  0  0  0  0
    3.3360   -0.5530   -2.2940 H   0  0  0  0  0  0  0  0  0  0  0  0
    3.0830   -2.0740   -1.4410 H   0  0  0  0  0  0  0  0  0  0  0  0
    2.0720   -0.5610   -1.0690 H   0  0  0  0  0  0  0  0  0  0  0  0
    1.6430   -3.6770   -2.4340 H   0  0  0  0  0  0  0  0  0  0  0  0
    0.5620   -3.7760   -4.4490 H   0  0  0  0  0  0  0  0  0  0  0  0
   -0.3770   -2.3630   -4.1050 H   0  0  0  0  0  0  0  0  0  0  0  0
    0.3620   -2.5810   -0.0830 N   0  0  0  0  0  0  0  0  0  0  0  0
   -0.6060   -2.4790    1.0210 C   0  0  1  0  0  0  0  0  0  0  0  0
   -0.3540   -3.6530    1.9740 C   0  0  0  0  0  0  0  0  0  0  0  0
   -1.5110   -3.5930    3.3390 S   0  0  0  0  0  0  0  0  0  0  0  0
   -0.3650   -1.1730    1.6730 C   0  0  0  0  0  0  0  0  0  0  0  0
    0.6080   -0.4560    1.2560 O   0  0  0  0  0  0  0  0  0  0  0  0
    1.3600   -2.4790    0.1580 H   0  0  0  0  0  0  0  0  0  0  0  0
   -1.6180   -2.6080    0.6350 H   0  0  0  0  0  0  0  0  0  0  0  0
    0.7050   -3.6750    2.3140 H   0  0  0  0  0  0  0  0  0  0  0  0
   -0.5400   -4.5680    1.3580 H   0  0  0  0  0  0  0  0  0  0  0  0
   -2.5950   -4.4770    3.1710 H   0  0  0  0  0  0  0  0  0  0  0  0
   -0.6520    3.6490    3.0710 C   0  0  0  0  0  0  0  0  0  0  0  0
   -1.8520    2.9530    3.6210 C   0  0  0  0  0  0  0  0  0  0  0  0
   -1.9940    1.5570    3.0860 C   0  0  2  0  0  0  0  0  0  0  0  0
   -3.2220    0.8760    3.6570 C   0  0  0  0  0  0  0  0  0  0  0  0
   -0.7890    0.6880    3.3140 C   0  0  2  0  0  0  0  0  0  0  0  0
   -1.1090   -0.6180    2.7300 N   0  0  0  0  0  0  0  0  0  0  0  0
   -0.4300    0.5550    4.7470 C   0  0  0  0  0  0  0  0  0  0  0  0
   -0.4140   -0.5600    5.3490 O   0  0  0  0  0  0  0  0  0  0  0  0
   -0.0890    1.6620    5.5090 O   0  0  0  0  0  0  0  0  0  0  0  0
   -0.0610    3.0860    2.3500 H   0  0  0  0  0  0  0  0  0  0  0  0
   -0.9010    4.6200    2.5830 H   0  0  0  0  0  0  0  0  0  0  0  0
    0.0330    3.9030    3.9310 H   0  0  0  0  0  0  0  0  0  0  0  0
   -2.7530    3.5170    3.2790 H   0  0  0  0  0  0  0  0  0  0  0  0
   -1.8980    2.9800    4.7360 H   0  0  0  0  0  0  0  0  0  0  0  0
   -2.1450    1.6250    1.9890 H   0  0  0  0  0  0  0  0  0  0  0  0
   -3.0390    0.3710    4.6060 H   0  0  0  0  0  0  0  0  0  0  0  0
   -4.0480    1.6010    3.8080 H   0  0  0  0  0  0  0  0  0  0  0  0
   -3.5940    0.1020    2.9320 H   0  0  0  0  0  0  0  0  0  0  0  0
    0.0900    1.1070    2.7870 H   0  0  0  0  0  0  0  0  0  0  0  0
   -1.9170   -1.1480    3.1050 H   0  0  0  0  0  0  0  0  0  0  0  0
  1 11  1  0  0  0  0
  1  2  1  0  0  0  0
  1  9  1  0  0  0  0
  2 13  1  0  0  0  0
  2  3  1  0  0  0  0
  3 14  1  6  0  0  0
  3  5  1  0  0  0  0
  3  4  1  0  0  0  0
  4 16  1  0  0  0  0
  4 17  1  0  0  0  0
  5 18  1  1  0  0  0
  5  7  1  0  0  0  0
  6  5  1  0  0  0  0
  7 21  1  0  0  0  0
  8  7  2  0  0  0  0
 10  1  1  0  0  0  0
 12  2  1  0  0  0  0
 15  4  1  0  0  0  0
 19  6  1  0  0  0  0
 20  6  1  0  0  0  0
 21 27  1  0  0  0  0
 21 22  1  0  0  0  0
 22 28  1  6  0  0  0
 22 25  1  0  0  0  0
 22 23  1  0  0  0  0
 23 29  1  0  0  0  0
 23 24  1  0  0  0  0
 25 37  1  0  0  0  0
 26 25  2  0  0  0  0
 30 23  1  0  0  0  0
 31 24  1  0  0  0  0
 32 33  1  0  0  0  0
 32 43  1  0  0  0  0
 33 45  1  0  0  0  0
 34 46  1  6  0  0  0
 34 36  1  0  0  0  0
 34 33  1  0  0  0  0
 34 35  1  0  0  0  0
 35 48  1  0  0  0  0
 35 47  1  0  0  0  0
 36 50  1  6  0  0  0
 36 38  1  0  0  0  0
 37 51  1  0  0  0  0
 37 36  1  0  0  0  0
 38 39  2  0  0  0  0
 38 40  1  0  0  0  0
 41 32  1  0  0  0  0
 42 32  1  0  0  0  0
 44 33  1  0  0  0  0
 49 35  1  0  0  0  0
M  END
$$$$
