ICK.pdb
 OpenBabel07022418413D

 53 52  0  0  1  0  0  0  0  0999 V2000
    1.9160   -4.5920    3.8130 C   0  0  0  0  0  0  0  0  0  0  0  0
    0.5200   -4.8170    3.3470 C   0  0  0  0  0  0  0  0  0  0  0  0
    0.3600   -5.2290    1.9290 C   0  0  2  0  0  0  0  0  0  0  0  0
    1.0430   -6.5090    1.5760 C   0  0  0  0  0  0  0  0  0  0  0  0
    0.7720   -4.1390    0.9660 C   0  0  2  0  0  0  0  0  0  0  0  0
    2.1630   -3.7650    1.1380 N   0  0  0  0  0  0  0  0  0  0  0  0
   -0.0580   -2.9310    1.1790 C   0  0  0  0  0  0  0  0  0  0  0  0
   -1.3270   -2.9990    1.0830 O   0  0  0  0  0  0  0  0  0  0  0  0
    2.1430   -3.4950    3.6950 H   0  0  0  0  0  0  0  0  0  0  0  0
    2.0460   -4.7810    4.9070 H   0  0  0  0  0  0  0  0  0  0  0  0
    2.6990   -5.1110    3.2330 H   0  0  0  0  0  0  0  0  0  0  0  0
   -0.0620   -3.8710    3.5070 H   0  0  0  0  0  0  0  0  0  0  0  0
    0.0530   -5.5510    4.0470 H   0  0  0  0  0  0  0  0  0  0  0  0
   -0.7440   -5.3820    1.7490 H   0  0  0  0  0  0  0  0  0  0  0  0
    2.1300   -6.3870    1.7620 H   0  0  0  0  0  0  0  0  0  0  0  0
    0.9580   -6.7520    0.4960 H   0  0  0  0  0  0  0  0  0  0  0  0
    0.7250   -7.3620    2.2160 H   0  0  0  0  0  0  0  0  0  0  0  0
    0.6000   -4.4880   -0.0890 H   0  0  0  0  0  0  0  0  0  0  0  0
    2.7200   -4.6270    0.8890 H   0  0  0  0  0  0  0  0  0  0  0  0
    2.3700   -3.1040    0.3300 H   0  0  0  0  0  0  0  0  0  0  0  0
    0.5440   -1.6950    1.4880 N   0  0  0  0  0  0  0  0  0  0  0  0
   -0.2140   -0.4740    1.7070 C   0  0  1  0  0  0  0  0  0  0  0  0
    0.1030    0.1180    3.0480 C   0  0  0  0  0  0  0  0  0  0  0  0
   -0.2950   -1.0200    4.3960 S   0  0  0  0  0  0  0  0  0  0  0  0
    0.0550    0.5150    0.6070 C   0  0  0  0  0  0  0  0  0  0  0  0
    0.8540    0.1700   -0.3030 O   0  0  0  0  0  0  0  0  0  0  0  0
    1.6010   -1.6790    1.5600 H   0  0  0  0  0  0  0  0  0  0  0  0
   -1.2820   -0.7460    1.5910 H   0  0  0  0  0  0  0  0  0  0  0  0
   -0.5210    1.0270    3.2010 H   0  0  0  0  0  0  0  0  0  0  0  0
    1.1760    0.3610    3.0850 H   0  0  0  0  0  0  0  0  0  0  0  0
   -0.9710   -0.3500    5.4410 H   0  0  0  0  0  0  0  0  0  0  0  0
   -0.5710    1.7750    0.6100 N   0  0  0  0  0  0  0  0  0  0  0  0
   -0.3220    2.7370   -0.4440 C   0  0  1  0  0  0  0  0  0  0  0  0
   -1.5800    3.1820   -1.1180 C   0  0  0  0  0  0  0  0  0  0  0  0
   -2.3250    2.0560   -1.7540 C   0  0  0  0  0  0  0  0  0  0  0  0
   -1.5770    1.3210   -2.8150 C   0  0  0  0  0  0  0  0  0  0  0  0
   -1.1700    2.2080   -3.9650 C   0  0  0  0  0  0  0  0  0  0  0  0
   -2.3110    2.8000   -4.6020 N   0  0  0  0  0  0  0  0  0  0  0  0
    0.4110    3.9270    0.0800 C   0  0  0  0  0  0  0  0  0  0  0  0
    0.7040    3.9480    1.2970 O   0  0  0  0  0  0  0  0  0  0  0  0
    0.7770    4.9990   -0.7090 O   0  0  0  0  0  0  0  0  0  0  0  0
   -1.2370    2.0240    1.3980 H   0  0  0  0  0  0  0  0  0  0  0  0
    0.3440    2.2780   -1.1830 H   0  0  0  0  0  0  0  0  0  0  0  0
   -1.3610    3.9300   -1.8930 H   0  0  0  0  0  0  0  0  0  0  0  0
   -2.2500    3.5980   -0.3180 H   0  0  0  0  0  0  0  0  0  0  0  0
   -2.6200    1.3240   -0.9710 H   0  0  0  0  0  0  0  0  0  0  0  0
   -3.2600    2.4410   -2.1900 H   0  0  0  0  0  0  0  0  0  0  0  0
   -2.2910    0.5660   -3.2510 H   0  0  0  0  0  0  0  0  0  0  0  0
   -0.7100    0.7400   -2.4740 H   0  0  0  0  0  0  0  0  0  0  0  0
   -0.6920    1.5310   -4.7300 H   0  0  0  0  0  0  0  0  0  0  0  0
   -0.4170    2.9550   -3.7100 H   0  0  0  0  0  0  0  0  0  0  0  0
   -2.1710    3.8300   -4.6500 H   0  0  0  0  0  0  0  0  0  0  0  0
   -3.2200    2.5000   -4.2340 H   0  0  0  0  0  0  0  0  0  0  0  0
  1 10  1  0  0  0  0
  2 12  1  0  0  0  0
  2  1  1  0  0  0  0
  2 13  1  0  0  0  0
  3 14  1  6  0  0  0
  3  2  1  0  0  0  0
  4 15  1  0  0  0  0
  4  3  1  0  0  0  0
  4 17  1  0  0  0  0
  5 18  1  6  0  0  0
  5  6  1  0  0  0  0
  5  7  1  0  0  0  0
  5  3  1  0  0  0  0
  7 21  1  0  0  0  0
  8  7  2  0  0  0  0
  9  1  1  0  0  0  0
 11  1  1  0  0  0  0
 16  4  1  0  0  0  0
 19  6  1  0  0  0  0
 20  6  1  0  0  0  0
 21 27  1  0  0  0  0
 21 22  1  0  0  0  0
 22 28  1  6  0  0  0
 22 23  1  0  0  0  0
 23 30  1  0  0  0  0
 23 29  1  0  0  0  0
 23 24  1  0  0  0  0
 24 31  1  0  0  0  0
 25 32  1  0  0  0  0
 25 22  1  0  0  0  0
 26 25  2  0  0  0  0
 32 42  1  0  0  0  0
 33 43  1  6  0  0  0
 33 39  1  0  0  0  0
 33 32  1  0  0  0  0
 34 33  1  0  0  0  0
 34 45  1  0  0  0  0
 35 34  1  0  0  0  0
 35 46  1  0  0  0  0
 36 49  1  0  0  0  0
 36 35  1  0  0  0  0
 37 51  1  0  0  0  0
 37 36  1  0  0  0  0
 38 53  1  0  0  0  0
 38 37  1  0  0  0  0
 39 40  1  0  0  0  0
 41 39  2  0  0  0  0
 44 34  1  0  0  0  0
 47 35  1  0  0  0  0
 48 36  1  0  0  0  0
 50 37  1  0  0  0  0
 52 38  1  0  0  0  0
M  END
$$$$
