ICM.pdb
 OpenBabel07022418413D

 49 48  0  0  1  0  0  0  0  0999 V2000
    5.5700   -2.4410   -1.7570 C   0  0  0  0  0  0  0  0  0  0  0  0
    4.1300   -2.0570   -1.9390 C   0  0  0  0  0  0  0  0  0  0  0  0
    3.2870   -2.4470   -0.7470 C   0  0  2  0  0  0  0  0  0  0  0  0
    3.3520   -3.9450   -0.5430 C   0  0  0  0  0  0  0  0  0  0  0  0
    1.8630   -1.9710   -0.8890 C   0  0  2  0  0  0  0  0  0  0  0  0
    1.9030   -0.5280   -1.0010 N   0  0  0  0  0  0  0  0  0  0  0  0
    1.0850   -2.3450    0.3150 C   0  0  0  0  0  0  0  0  0  0  0  0
    0.9220   -3.5410    0.6380 O   0  0  0  0  0  0  0  0  0  0  0  0
    5.9330   -2.2290   -0.7340 H   0  0  0  0  0  0  0  0  0  0  0  0
    5.7300   -3.4980   -2.0540 H   0  0  0  0  0  0  0  0  0  0  0  0
    6.1630   -1.8340   -2.4760 H   0  0  0  0  0  0  0  0  0  0  0  0
    4.0780   -0.9750   -2.1260 H   0  0  0  0  0  0  0  0  0  0  0  0
    3.7760   -2.5620   -2.8720 H   0  0  0  0  0  0  0  0  0  0  0  0
    3.7390   -1.9710    0.1470 H   0  0  0  0  0  0  0  0  0  0  0  0
    4.3650   -4.3070   -0.7710 H   0  0  0  0  0  0  0  0  0  0  0  0
    2.5630   -4.4510   -1.1350 H   0  0  0  0  0  0  0  0  0  0  0  0
    3.1830   -4.1180    0.5550 H   0  0  0  0  0  0  0  0  0  0  0  0
    1.3830   -2.3390   -1.8130 H   0  0  0  0  0  0  0  0  0  0  0  0
    2.3850   -0.1840   -0.1390 H   0  0  0  0  0  0  0  0  0  0  0  0
    0.9500   -0.1360   -1.1180 H   0  0  0  0  0  0  0  0  0  0  0  0
    0.4980   -1.3580    1.1440 N   0  0  0  0  0  0  0  0  0  0  0  0
   -0.2650   -1.6390    2.3210 C   0  0  1  0  0  0  0  0  0  0  0  0
    0.4910   -1.1070    3.5250 C   0  0  0  0  0  0  0  0  0  0  0  0
   -0.4940   -1.4750    5.0050 S   0  0  0  0  0  0  0  0  0  0  0  0
   -1.6170   -1.1080    2.3340 C   0  0  0  0  0  0  0  0  0  0  0  0
   -2.3300   -1.3330    3.3410 O   0  0  0  0  0  0  0  0  0  0  0  0
    0.6240   -0.3550    0.8840 H   0  0  0  0  0  0  0  0  0  0  0  0
   -0.3100   -2.7400    2.4510 H   0  0  0  0  0  0  0  0  0  0  0  0
    0.6780   -0.0320    3.4620 H   0  0  0  0  0  0  0  0  0  0  0  0
    1.4470   -1.6620    3.6100 H   0  0  0  0  0  0  0  0  0  0  0  0
   -0.6400   -0.2940    5.7890 H   0  0  0  0  0  0  0  0  0  0  0  0
   -1.9850    4.8470    1.4770 C   0  0  0  0  0  0  0  0  0  0  0  0
   -3.0050    4.0660    0.2600 S   0  0  0  0  0  0  0  0  0  0  0  0
   -2.9910    2.2830    0.2440 C   0  0  0  0  0  0  0  0  0  0  0  0
   -3.5850    1.6500    1.4710 C   0  0  0  0  0  0  0  0  0  0  0  0
   -3.5420    0.1300    1.3980 C   0  0  2  0  0  0  0  0  0  0  0  0
   -2.1840   -0.3490    1.2770 N   0  0  0  0  0  0  0  0  0  0  0  0
   -4.4150   -0.3920    0.3190 C   0  0  0  0  0  0  0  0  0  0  0  0
   -5.6290   -0.0710    0.2720 O   0  0  0  0  0  0  0  0  0  0  0  0
   -3.9510   -1.2430   -0.6740 O   0  0  0  0  0  0  0  0  0  0  0  0
   -1.7980    4.2770    2.3990 H   0  0  0  0  0  0  0  0  0  0  0  0
   -0.9800    5.0640    1.0440 H   0  0  0  0  0  0  0  0  0  0  0  0
   -2.4340    5.8120    1.7890 H   0  0  0  0  0  0  0  0  0  0  0  0
   -1.9540    1.9350    0.0520 H   0  0  0  0  0  0  0  0  0  0  0  0
   -3.5930    1.9450   -0.6250 H   0  0  0  0  0  0  0  0  0  0  0  0
   -3.0220    1.9480    2.3500 H   0  0  0  0  0  0  0  0  0  0  0  0
   -4.6250    2.0150    1.5850 H   0  0  0  0  0  0  0  0  0  0  0  0
   -3.9480   -0.2300    2.3590 H   0  0  0  0  0  0  0  0  0  0  0  0
   -1.6080   -0.1350    0.3980 H   0  0  0  0  0  0  0  0  0  0  0  0
  1  9  1  0  0  0  0
  2  1  1  0  0  0  0
  2  3  1  0  0  0  0
  3  4  1  0  0  0  0
  3 14  1  1  0  0  0
  4 17  1  0  0  0  0
  5 18  1  6  0  0  0
  5  3  1  0  0  0  0
  5  7  1  0  0  0  0
  6  5  1  0  0  0  0
  6 19  1  0  0  0  0
  7  8  2  0  0  0  0
  7 21  1  0  0  0  0
 10  1  1  0  0  0  0
 11  1  1  0  0  0  0
 12  2  1  0  0  0  0
 13  2  1  0  0  0  0
 15  4  1  0  0  0  0
 16  4  1  0  0  0  0
 20  6  1  0  0  0  0
 21 22  1  0  0  0  0
 22 25  1  0  0  0  0
 22 28  1  1  0  0  0
 22 23  1  0  0  0  0
 23 30  1  0  0  0  0
 23 24  1  0  0  0  0
 24 31  1  0  0  0  0
 25 26  2  0  0  0  0
 27 21  1  0  0  0  0
 29 23  1  0  0  0  0
 32 43  1  0  0  0  0
 32 41  1  0  0  0  0
 33 32  1  0  0  0  0
 34 33  1  0  0  0  0
 34 35  1  0  0  0  0
 35 47  1  0  0  0  0
 35 46  1  0  0  0  0
 36 35  1  0  0  0  0
 36 48  1  1  0  0  0
 37 36  1  0  0  0  0
 37 25  1  0  0  0  0
 38 36  1  0  0  0  0
 39 38  1  0  0  0  0
 40 38  2  0  0  0  0
 42 32  1  0  0  0  0
 44 34  1  0  0  0  0
 45 34  1  0  0  0  0
 49 37  1  0  0  0  0
M  END
$$$$
