ICN.pdb
 OpenBabel07022418403D

 46 45  0  0  1  0  0  0  0  0999 V2000
    3.9090   -2.6260   -2.7920 C   0  0  0  0  0  0  0  0  0  0  0  0
    3.9700   -2.4060   -1.3250 C   0  0  0  0  0  0  0  0  0  0  0  0
    2.7230   -1.7920   -0.7820 C   0  0  2  0  0  0  0  0  0  0  0  0
    2.9410   -1.6120    0.7130 C   0  0  0  0  0  0  0  0  0  0  0  0
    1.5270   -2.7080   -1.0110 C   0  0  2  0  0  0  0  0  0  0  0  0
    1.3730   -2.9190   -2.4380 N   0  0  0  0  0  0  0  0  0  0  0  0
    0.2610   -2.0610   -0.5430 C   0  0  0  0  0  0  0  0  0  0  0  0
   -0.5770   -1.6650   -1.4020 O   0  0  0  0  0  0  0  0  0  0  0  0
    4.9580   -2.5490   -3.2090 H   0  0  0  0  0  0  0  0  0  0  0  0
    3.5120   -3.6340   -3.0250 H   0  0  0  0  0  0  0  0  0  0  0  0
    3.2700   -1.8610   -3.2820 H   0  0  0  0  0  0  0  0  0  0  0  0
    4.1760   -3.3720   -0.8160 H   0  0  0  0  0  0  0  0  0  0  0  0
    4.8710   -1.7650   -1.0970 H   0  0  0  0  0  0  0  0  0  0  0  0
    2.4930   -0.8250   -1.2420 H   0  0  0  0  0  0  0  0  0  0  0  0
    2.8570   -2.5560    1.2790 H   0  0  0  0  0  0  0  0  0  0  0  0
    2.4020   -0.7530    1.1380 H   0  0  0  0  0  0  0  0  0  0  0  0
    4.0340   -1.3280    0.8290 H   0  0  0  0  0  0  0  0  0  0  0  0
    1.6240   -3.6840   -0.5310 H   0  0  0  0  0  0  0  0  0  0  0  0
    0.7160   -2.2400   -2.8810 H   0  0  0  0  0  0  0  0  0  0  0  0
    1.1380   -3.9130   -2.6530 H   0  0  0  0  0  0  0  0  0  0  0  0
   -0.0780   -1.8550    0.7980 N   0  0  0  0  0  0  0  0  0  0  0  0
   -1.3460   -1.2090    1.1680 C   0  0  1  0  0  0  0  0  0  0  0  0
   -2.1910   -2.2580    1.8850 C   0  0  0  0  0  0  0  0  0  0  0  0
   -3.7610   -1.5270    2.3500 S   0  0  0  0  0  0  0  0  0  0  0  0
   -1.0400   -0.0360    2.0240 C   0  0  0  0  0  0  0  0  0  0  0  0
    0.1610    0.1980    2.4070 O   0  0  0  0  0  0  0  0  0  0  0  0
    0.5400   -2.1540    1.5610 H   0  0  0  0  0  0  0  0  0  0  0  0
   -1.8650   -0.9650    0.2300 H   0  0  0  0  0  0  0  0  0  0  0  0
   -2.3800   -3.0570    1.1490 H   0  0  0  0  0  0  0  0  0  0  0  0
   -1.6310   -2.6550    2.7740 H   0  0  0  0  0  0  0  0  0  0  0  0
   -4.4020   -1.0830    1.1850 H   0  0  0  0  0  0  0  0  0  0  0  0
   -0.7200    2.6820    0.7150 N   0  0  0  0  0  0  0  0  0  0  0  0
   -1.6290    3.5560    1.3460 C   0  0  0  0  0  0  0  0  0  0  0  0
   -2.0110    4.5800    0.7420 O   0  0  0  0  0  0  0  0  0  0  0  0
   -2.1380    3.2910    2.7010 C   0  0  0  0  0  0  0  0  0  0  0  0
   -1.6110    2.0350    3.3310 C   0  0  2  0  0  0  0  0  0  0  0  0
   -1.9940    0.9010    2.4840 N   0  0  0  0  0  0  0  0  0  0  0  0
   -2.2840    1.9170    4.6680 C   0  0  0  0  0  0  0  0  0  0  0  0
   -3.0500    0.9610    4.9520 O   0  0  0  0  0  0  0  0  0  0  0  0
   -2.0350    2.9070    5.5990 O   0  0  0  0  0  0  0  0  0  0  0  0
    0.2750    2.6800    1.0460 H   0  0  0  0  0  0  0  0  0  0  0  0
   -1.0300    2.0460   -0.0680 H   0  0  0  0  0  0  0  0  0  0  0  0
   -1.9790    4.1870    3.3660 H   0  0  0  0  0  0  0  0  0  0  0  0
   -3.2640    3.2590    2.5990 H   0  0  0  0  0  0  0  0  0  0  0  0
   -0.5410    2.1090    3.4980 H   0  0  0  0  0  0  0  0  0  0  0  0
   -2.9960    0.8120    2.2220 H   0  0  0  0  0  0  0  0  0  0  0  0
  1  2  1  0  0  0  0
  2 13  1  0  0  0  0
  2 12  1  0  0  0  0
  2  3  1  0  0  0  0
  3 14  1  6  0  0  0
  3  4  1  0  0  0  0
  4 17  1  0  0  0  0
  4 16  1  0  0  0  0
  4 15  1  0  0  0  0
  5  3  1  0  0  0  0
  5  7  1  0  0  0  0
  5 18  1  1  0  0  0
  6  5  1  0  0  0  0
  7 21  1  0  0  0  0
  8  7  2  0  0  0  0
  9  1  1  0  0  0  0
 10  1  1  0  0  0  0
 11  1  1  0  0  0  0
 19  6  1  0  0  0  0
 20  6  1  0  0  0  0
 21 22  1  0  0  0  0
 21 27  1  0  0  0  0
 22 28  1  6  0  0  0
 22 23  1  0  0  0  0
 22 25  1  0  0  0  0
 23 24  1  0  0  0  0
 23 30  1  0  0  0  0
 25 26  2  0  0  0  0
 25 37  1  0  0  0  0
 29 23  1  0  0  0  0
 31 24  1  0  0  0  0
 32 41  1  0  0  0  0
 32 33  1  0  0  0  0
 33 35  1  0  0  0  0
 34 33  2  0  0  0  0
 35 36  1  0  0  0  0
 35 43  1  0  0  0  0
 36 45  1  1  0  0  0
 36 38  1  0  0  0  0
 37 36  1  0  0  0  0
 38 39  2  0  0  0  0
 38 40  1  0  0  0  0
 42 32  1  0  0  0  0
 44 35  1  0  0  0  0
 46 37  1  0  0  0  0
M  END
$$$$
