ICP.pdb
 OpenBabel07022418413D

 46 46  0  0  1  0  0  0  0  0999 V2000
    1.9920   -5.2850    0.1360 C   0  0  0  0  0  0  0  0  0  0  0  0
    1.8310   -4.7340    1.5280 C   0  0  0  0  0  0  0  0  0  0  0  0
    2.7920   -3.6100    1.8110 C   0  0  2  0  0  0  0  0  0  0  0  0
    2.5640   -3.1200    3.2190 C   0  0  0  0  0  0  0  0  0  0  0  0
    2.6570   -2.4610    0.8650 C   0  0  2  0  0  0  0  0  0  0  0  0
    3.6370   -1.4560    1.2500 N   0  0  0  0  0  0  0  0  0  0  0  0
    1.3130   -1.8780    0.8150 C   0  0  0  0  0  0  0  0  0  0  0  0
    0.3350   -2.5940    0.5010 O   0  0  0  0  0  0  0  0  0  0  0  0
    1.0820   -5.0610   -0.4740 H   0  0  0  0  0  0  0  0  0  0  0  0
    2.9190   -4.9130   -0.3630 H   0  0  0  0  0  0  0  0  0  0  0  0
    2.0830   -6.4000    0.1310 H   0  0  0  0  0  0  0  0  0  0  0  0
    0.7830   -4.4940    1.7890 H   0  0  0  0  0  0  0  0  0  0  0  0
    2.1200   -5.5720    2.2280 H   0  0  0  0  0  0  0  0  0  0  0  0
    3.8140   -4.0040    1.7500 H   0  0  0  0  0  0  0  0  0  0  0  0
    3.5260   -3.0200    3.7630 H   0  0  0  0  0  0  0  0  0  0  0  0
    2.0800   -2.1230    3.2290 H   0  0  0  0  0  0  0  0  0  0  0  0
    1.9480   -3.8400    3.7960 H   0  0  0  0  0  0  0  0  0  0  0  0
    2.8870   -2.8440   -0.1680 H   0  0  0  0  0  0  0  0  0  0  0  0
    4.1280   -1.7070    2.1290 H   0  0  0  0  0  0  0  0  0  0  0  0
    4.2720   -1.1940    0.4670 H   0  0  0  0  0  0  0  0  0  0  0  0
    1.0840   -0.5160    1.1150 N   0  0  0  0  0  0  0  0  0  0  0  0
   -0.3050   -0.0340    1.0350 C   0  0  1  0  0  0  0  0  0  0  0  0
   -0.6410    0.3600    2.4820 C   0  0  0  0  0  0  0  0  0  0  0  0
    0.5100    1.6550    3.0090 S   0  0  0  0  0  0  0  0  0  0  0  0
   -0.4320    1.0840    0.1070 C   0  0  0  0  0  0  0  0  0  0  0  0
    0.6440    1.5080   -0.4420 O   0  0  0  0  0  0  0  0  0  0  0  0
    1.8460    0.1500    1.3870 H   0  0  0  0  0  0  0  0  0  0  0  0
   -0.9840   -0.8530    0.7380 H   0  0  0  0  0  0  0  0  0  0  0  0
   -0.4380   -0.5500    3.1130 H   0  0  0  0  0  0  0  0  0  0  0  0
   -1.6590    0.7240    2.5980 H   0  0  0  0  0  0  0  0  0  0  0  0
    0.4150    1.8820    4.3770 H   0  0  0  0  0  0  0  0  0  0  0  0
   -1.6260    1.7350   -0.2410 N   0  0  0  0  0  0  0  0  0  0  0  0
   -2.9410    1.4060    0.2690 C   0  0  0  0  0  0  0  0  0  0  0  0
   -3.9030    1.8400   -0.7830 C   0  0  0  0  0  0  0  0  0  0  0  0
   -3.0940    2.4880   -1.8480 C   0  0  0  0  0  0  0  0  0  0  0  0
   -1.7930    2.8490   -1.1830 C   0  0  1  0  0  0  0  0  0  0  0  0
   -1.9610    4.1290   -0.4590 C   0  0  0  0  0  0  0  0  0  0  0  0
   -2.1140    5.1760   -1.1350 O   0  0  0  0  0  0  0  0  0  0  0  0
   -1.9590    4.2460    0.9220 O   0  0  0  0  0  0  0  0  0  0  0  0
   -3.0350    0.3180    0.4490 H   0  0  0  0  0  0  0  0  0  0  0  0
   -3.1390    1.9370    1.2350 H   0  0  0  0  0  0  0  0  0  0  0  0
   -4.6080    2.6210   -0.3600 H   0  0  0  0  0  0  0  0  0  0  0  0
   -4.5060    0.9720   -1.1660 H   0  0  0  0  0  0  0  0  0  0  0  0
   -2.9300    1.8150   -2.7330 H   0  0  0  0  0  0  0  0  0  0  0  0
   -3.6390    3.3920   -2.2150 H   0  0  0  0  0  0  0  0  0  0  0  0
   -1.0060    2.8680   -1.9520 H   0  0  0  0  0  0  0  0  0  0  0  0
  1  2  1  0  0  0  0
  2 12  1  0  0  0  0
  2  3  1  0  0  0  0
  2 13  1  0  0  0  0
  3 14  1  6  0  0  0
  3  4  1  0  0  0  0
  4 16  1  0  0  0  0
  4 15  1  0  0  0  0
  4 17  1  0  0  0  0
  5 18  1  6  0  0  0
  5  6  1  0  0  0  0
  5  3  1  0  0  0  0
  6 19  1  0  0  0  0
  7  5  1  0  0  0  0
  7 21  1  0  0  0  0
  8  7  2  0  0  0  0
  9  1  1  0  0  0  0
 10  1  1  0  0  0  0
 11  1  1  0  0  0  0
 20  6  1  0  0  0  0
 21 27  1  0  0  0  0
 22 28  1  6  0  0  0
 22 21  1  0  0  0  0
 22 23  1  0  0  0  0
 23 30  1  0  0  0  0
 23 24  1  0  0  0  0
 23 29  1  0  0  0  0
 24 31  1  0  0  0  0
 25 22  1  0  0  0  0
 26 25  2  0  0  0  0
 32 25  1  0  0  0  0
 32 33  1  0  0  0  0
 33 40  1  0  0  0  0
 33 41  1  0  0  0  0
 34 42  1  0  0  0  0
 34 33  1  0  0  0  0
 35 36  1  0  0  0  0
 35 34  1  0  0  0  0
 36 46  1  6  0  0  0
 36 37  1  0  0  0  0
 36 32  1  0  0  0  0
 37 39  1  0  0  0  0
 38 37  2  0  0  0  0
 43 34  1  0  0  0  0
 44 35  1  0  0  0  0
 45 35  1  0  0  0  0
M  END
$$$$
