ICT.pdb
 OpenBabel07022418413D

 46 45  0  0  1  0  0  0  0  0999 V2000
    0.9470   -5.0530   -1.6330 C   0  0  0  0  0  0  0  0  0  0  0  0
    2.0370   -3.9870   -1.8070 C   0  0  0  0  0  0  0  0  0  0  0  0
    2.1610   -3.2000   -0.5420 C   0  0  2  0  0  0  0  0  0  0  0  0
    2.5350   -4.1130    0.6150 C   0  0  0  0  0  0  0  0  0  0  0  0
    0.9070   -2.4040   -0.2380 C   0  0  2  0  0  0  0  0  0  0  0  0
    0.6890   -1.4950   -1.3420 N   0  0  0  0  0  0  0  0  0  0  0  0
    1.0580   -1.6970    1.0500 C   0  0  0  0  0  0  0  0  0  0  0  0
    1.2510   -2.3680    2.0840 O   0  0  0  0  0  0  0  0  0  0  0  0
    0.9280   -5.6430   -2.5920 H   0  0  0  0  0  0  0  0  0  0  0  0
    1.2090   -5.7380   -0.8260 H   0  0  0  0  0  0  0  0  0  0  0  0
   -0.0340   -4.5790   -1.5340 H   0  0  0  0  0  0  0  0  0  0  0  0
    3.0050   -4.4710   -2.0070 H   0  0  0  0  0  0  0  0  0  0  0  0
    1.7990   -3.3180   -2.6450 H   0  0  0  0  0  0  0  0  0  0  0  0
    2.9920   -2.4660   -0.6610 H   0  0  0  0  0  0  0  0  0  0  0  0
    1.6190   -4.4800    1.1530 H   0  0  0  0  0  0  0  0  0  0  0  0
    3.1380   -3.5490    1.3690 H   0  0  0  0  0  0  0  0  0  0  0  0
    3.1130   -4.9940    0.2660 H   0  0  0  0  0  0  0  0  0  0  0  0
    0.0320   -3.0760   -0.1570 H   0  0  0  0  0  0  0  0  0  0  0  0
    1.4220   -0.7680   -1.4010 H   0  0  0  0  0  0  0  0  0  0  0  0
   -0.2870   -1.1090   -1.2830 H   0  0  0  0  0  0  0  0  0  0  0  0
    0.9970   -0.2910    1.1880 N   0  0  0  0  0  0  0  0  0  0  0  0
    1.1460    0.3590    2.4400 C   0  0  1  0  0  0  0  0  0  0  0  0
    2.2880    1.3290    2.5210 C   0  0  0  0  0  0  0  0  0  0  0  0
    2.1340    2.6700    1.3080 S   0  0  0  0  0  0  0  0  0  0  0  0
   -0.0930    1.1210    2.8360 C   0  0  0  0  0  0  0  0  0  0  0  0
   -0.1520    1.7530    3.9080 O   0  0  0  0  0  0  0  0  0  0  0  0
    0.8370    0.2810    0.3300 H   0  0  0  0  0  0  0  0  0  0  0  0
    1.3120   -0.4110    3.2220 H   0  0  0  0  0  0  0  0  0  0  0  0
    3.2820    0.8480    2.4950 H   0  0  0  0  0  0  0  0  0  0  0  0
    2.2150    1.8210    3.5260 H   0  0  0  0  0  0  0  0  0  0  0  0
    3.4000    2.7980    0.6780 H   0  0  0  0  0  0  0  0  0  0  0  0
   -2.1360    4.0860    1.2540 C   0  0  0  0  0  0  0  0  0  0  0  0
   -2.9530    2.8030    1.2940 C   0  0  1  0  0  0  0  0  0  0  0  0
   -3.1910    2.3000    0.0260 O   0  0  0  0  0  0  0  0  0  0  0  0
   -2.4560    1.8270    2.2710 C   0  0  2  0  0  0  0  0  0  0  0  0
   -1.2450    1.1600    2.0210 N   0  0  0  0  0  0  0  0  0  0  0  0
   -3.5270    0.7900    2.4840 C   0  0  0  0  0  0  0  0  0  0  0  0
   -4.7200    1.1220    2.7290 O   0  0  0  0  0  0  0  0  0  0  0  0
   -3.2560   -0.5700    2.4220 O   0  0  0  0  0  0  0  0  0  0  0  0
   -1.0510    3.8610    1.0580 H   0  0  0  0  0  0  0  0  0  0  0  0
   -2.2780    4.6840    2.1780 H   0  0  0  0  0  0  0  0  0  0  0  0
   -2.4480    4.7420    0.4150 H   0  0  0  0  0  0  0  0  0  0  0  0
   -3.9750    3.1260    1.6580 H   0  0  0  0  0  0  0  0  0  0  0  0
   -2.5040    2.6350   -0.5910 H   0  0  0  0  0  0  0  0  0  0  0  0
   -2.3750    2.3490    3.2660 H   0  0  0  0  0  0  0  0  0  0  0  0
   -1.1860    0.6180    1.1070 H   0  0  0  0  0  0  0  0  0  0  0  0
  1 11  1  0  0  0  0
  1 10  1  0  0  0  0
  2  1  1  0  0  0  0
  2  3  1  0  0  0  0
  3 14  1  6  0  0  0
  3  5  1  0  0  0  0
  3  4  1  0  0  0  0
  4 15  1  0  0  0  0
  4 16  1  0  0  0  0
  5 18  1  1  0  0  0
  5  7  1  0  0  0  0
  6 20  1  0  0  0  0
  6  5  1  0  0  0  0
  7 21  1  0  0  0  0
  7  8  2  0  0  0  0
  9  1  1  0  0  0  0
 12  2  1  0  0  0  0
 13  2  1  0  0  0  0
 17  4  1  0  0  0  0
 19  6  1  0  0  0  0
 21 22  1  0  0  0  0
 22 23  1  0  0  0  0
 22 25  1  0  0  0  0
 22 28  1  1  0  0  0
 23 30  1  0  0  0  0
 24 23  1  0  0  0  0
 25 26  2  0  0  0  0
 27 21  1  0  0  0  0
 29 23  1  0  0  0  0
 31 24  1  0  0  0  0
 32 33  1  0  0  0  0
 32 41  1  0  0  0  0
 33 43  1  1  0  0  0
 33 35  1  0  0  0  0
 34 33  1  0  0  0  0
 35 37  1  0  0  0  0
 35 45  1  1  0  0  0
 36 35  1  0  0  0  0
 36 25  1  0  0  0  0
 37 38  1  0  0  0  0
 39 37  2  0  0  0  0
 40 32  1  0  0  0  0
 42 32  1  0  0  0  0
 44 34  1  0  0  0  0
 46 36  1  0  0  0  0
M  END
$$$$
