ICV.pdb
 OpenBabel07022418413D

 48 47  0  0  1  0  0  0  0  0999 V2000
    3.2850   -5.2930   -0.9200 C   0  0  0  0  0  0  0  0  0  0  0  0
    4.1190   -4.0590   -0.9380 C   0  0  0  0  0  0  0  0  0  0  0  0
    3.3530   -2.7730   -1.1250 C   0  0  2  0  0  0  0  0  0  0  0  0
    4.3720   -1.6490   -1.1180 C   0  0  0  0  0  0  0  0  0  0  0  0
    2.3480   -2.6400   -0.0320 C   0  0  2  0  0  0  0  0  0  0  0  0
    1.4380   -3.7630   -0.1010 N   0  0  0  0  0  0  0  0  0  0  0  0
    1.6300   -1.3490   -0.0470 C   0  0  0  0  0  0  0  0  0  0  0  0
    2.2070   -0.2350   -0.0290 O   0  0  0  0  0  0  0  0  0  0  0  0
    3.9760   -6.1520   -1.1870 H   0  0  0  0  0  0  0  0  0  0  0  0
    2.9250   -5.5840    0.1050 H   0  0  0  0  0  0  0  0  0  0  0  0
    2.4410   -5.2730   -1.6430 H   0  0  0  0  0  0  0  0  0  0  0  0
    4.6370   -3.9800    0.0650 H   0  0  0  0  0  0  0  0  0  0  0  0
    4.9260   -4.1790   -1.6910 H   0  0  0  0  0  0  0  0  0  0  0  0
    2.9170   -2.8000   -2.1360 H   0  0  0  0  0  0  0  0  0  0  0  0
    3.8910   -0.7620   -1.5620 H   0  0  0  0  0  0  0  0  0  0  0  0
    4.7390   -1.5020   -0.0920 H   0  0  0  0  0  0  0  0  0  0  0  0
    5.1890   -1.9550   -1.8190 H   0  0  0  0  0  0  0  0  0  0  0  0
    2.9100   -2.7670    0.9450 H   0  0  0  0  0  0  0  0  0  0  0  0
    0.8530   -3.6380   -0.9570 H   0  0  0  0  0  0  0  0  0  0  0  0
    0.8100   -3.7180    0.7270 H   0  0  0  0  0  0  0  0  0  0  0  0
    0.2180   -1.3390   -0.0840 N   0  0  0  0  0  0  0  0  0  0  0  0
   -0.5160   -0.0640   -0.1000 C   0  0  1  0  0  0  0  0  0  0  0  0
   -1.2980    0.0790   -1.3880 C   0  0  0  0  0  0  0  0  0  0  0  0
   -0.1360    0.0340   -2.7750 S   0  0  0  0  0  0  0  0  0  0  0  0
   -1.4100    0.0220    1.0890 C   0  0  0  0  0  0  0  0  0  0  0  0
   -1.4560   -0.9260    1.9350 O   0  0  0  0  0  0  0  0  0  0  0  0
   -0.3230   -2.2390   -0.0990 H   0  0  0  0  0  0  0  0  0  0  0  0
    0.2310    0.7550   -0.0780 H   0  0  0  0  0  0  0  0  0  0  0  0
   -1.7360    1.1040   -1.3700 H   0  0  0  0  0  0  0  0  0  0  0  0
   -2.1200   -0.6380   -1.4820 H   0  0  0  0  0  0  0  0  0  0  0  0
    0.4520    1.3140   -2.8850 H   0  0  0  0  0  0  0  0  0  0  0  0
   -1.1850    2.1630    3.7830 C   0  0  0  0  0  0  0  0  0  0  0  0
   -2.5890    2.4080    3.3030 C   0  0  0  0  0  0  0  0  0  0  0  0
   -3.4610    2.6390    4.5270 C   0  0  0  0  0  0  0  0  0  0  0  0
   -3.1120    1.2650    2.4640 C   0  0  2  0  0  0  0  0  0  0  0  0
   -2.2260    1.1380    1.3190 N   0  0  0  0  0  0  0  0  0  0  0  0
   -4.4990    1.4950    2.0120 C   0  0  0  0  0  0  0  0  0  0  0  0
   -5.4080    1.6300    2.8590 O   0  0  0  0  0  0  0  0  0  0  0  0
   -4.8270    1.5660    0.6740 O   0  0  0  0  0  0  0  0  0  0  0  0
   -0.4090    2.5200    3.0890 H   0  0  0  0  0  0  0  0  0  0  0  0
   -1.0310    1.0830    4.0650 H   0  0  0  0  0  0  0  0  0  0  0  0
   -1.0510    2.7240    4.7330 H   0  0  0  0  0  0  0  0  0  0  0  0
   -2.5770    3.3630    2.7390 H   0  0  0  0  0  0  0  0  0  0  0  0
   -4.2810    3.3150    4.2410 H   0  0  0  0  0  0  0  0  0  0  0  0
   -2.8190    3.1550    5.2760 H   0  0  0  0  0  0  0  0  0  0  0  0
   -3.8150    1.6610    4.9150 H   0  0  0  0  0  0  0  0  0  0  0  0
   -3.0190    0.3360    3.0960 H   0  0  0  0  0  0  0  0  0  0  0  0
   -2.2150    1.9350    0.6460 H   0  0  0  0  0  0  0  0  0  0  0  0
  1 10  1  0  0  0  0
  2  1  1  0  0  0  0
  2 12  1  0  0  0  0
  3 14  1  6  0  0  0
  3  4  1  0  0  0  0
  3  2  1  0  0  0  0
  3  5  1  0  0  0  0
  4 16  1  0  0  0  0
  5 18  1  1  0  0  0
  6  5  1  0  0  0  0
  6 20  1  0  0  0  0
  7  5  1  0  0  0  0
  7  8  2  0  0  0  0
  9  1  1  0  0  0  0
 11  1  1  0  0  0  0
 13  2  1  0  0  0  0
 15  4  1  0  0  0  0
 17  4  1  0  0  0  0
 19  6  1  0  0  0  0
 21  7  1  0  0  0  0
 22 21  1  0  0  0  0
 22 28  1  1  0  0  0
 22 25  1  0  0  0  0
 23 29  1  0  0  0  0
 23 22  1  0  0  0  0
 24 23  1  0  0  0  0
 25 36  1  0  0  0  0
 25 26  2  0  0  0  0
 27 21  1  0  0  0  0
 30 23  1  0  0  0  0
 31 24  1  0  0  0  0
 32 41  1  0  0  0  0
 32 42  1  0  0  0  0
 33 32  1  0  0  0  0
 33 34  1  0  0  0  0
 34 46  1  0  0  0  0
 34 45  1  0  0  0  0
 35 47  1  1  0  0  0
 35 33  1  0  0  0  0
 36 35  1  0  0  0  0
 37 35  1  0  0  0  0
 37 38  1  0  0  0  0
 39 37  2  0  0  0  0
 40 32  1  0  0  0  0
 43 33  1  0  0  0  0
 44 34  1  0  0  0  0
 48 36  1  0  0  0  0
M  END
$$$$
