ICW.pdb
 OpenBabel07022418413D

 56 57  0  0  1  0  0  0  0  0999 V2000
   -0.4760    0.2880    5.6070 C   0  0  0  0  0  0  0  0  0  0  0  0
    0.6370    0.9610    4.8700 C   0  0  0  0  0  0  0  0  0  0  0  0
    0.6380    0.4570    3.4350 C   0  0  2  0  0  0  0  0  0  0  0  0
    0.8460   -1.0210    3.5020 C   0  0  0  0  0  0  0  0  0  0  0  0
    1.7190    1.1820    2.6260 C   0  0  2  0  0  0  0  0  0  0  0  0
    1.3280    2.6030    2.7280 N   0  0  0  0  0  0  0  0  0  0  0  0
    1.5640    0.7980    1.2070 C   0  0  0  0  0  0  0  0  0  0  0  0
    1.0930    1.6300    0.3810 O   0  0  0  0  0  0  0  0  0  0  0  0
   -0.9470    0.9970    6.3380 H   0  0  0  0  0  0  0  0  0  0  0  0
   -1.3230   -0.0040    4.9300 H   0  0  0  0  0  0  0  0  0  0  0  0
   -0.1460   -0.5720    6.2340 H   0  0  0  0  0  0  0  0  0  0  0  0
    1.6110    0.7290    5.3600 H   0  0  0  0  0  0  0  0  0  0  0  0
    0.4610    2.0440    4.8350 H   0  0  0  0  0  0  0  0  0  0  0  0
   -0.3260    0.7220    2.9770 H   0  0  0  0  0  0  0  0  0  0  0  0
    0.3820   -1.5790    2.6940 H   0  0  0  0  0  0  0  0  0  0  0  0
    0.3550   -1.3900    4.4420 H   0  0  0  0  0  0  0  0  0  0  0  0
    1.9270   -1.2290    3.6480 H   0  0  0  0  0  0  0  0  0  0  0  0
    2.7160    1.0000    3.0310 H   0  0  0  0  0  0  0  0  0  0  0  0
    1.3150    3.0480    1.7880 H   0  0  0  0  0  0  0  0  0  0  0  0
    1.9810    3.1110    3.3610 H   0  0  0  0  0  0  0  0  0  0  0  0
    1.9070   -0.4660    0.6530 N   0  0  0  0  0  0  0  0  0  0  0  0
    1.7150   -0.7310   -0.7800 C   0  0  1  0  0  0  0  0  0  0  0  0
    3.0670   -0.9550   -1.4340 C   0  0  0  0  0  0  0  0  0  0  0  0
    2.9430   -1.2770   -3.2030 S   0  0  0  0  0  0  0  0  0  0  0  0
    0.8130   -1.8980   -0.8830 C   0  0  0  0  0  0  0  0  0  0  0  0
    0.4410   -2.5430    0.1630 O   0  0  0  0  0  0  0  0  0  0  0  0
    2.2950   -1.1870    1.2870 H   0  0  0  0  0  0  0  0  0  0  0  0
    1.2520    0.1270   -1.2950 H   0  0  0  0  0  0  0  0  0  0  0  0
    3.4940   -1.8940   -0.9730 H   0  0  0  0  0  0  0  0  0  0  0  0
    3.7480   -0.1190   -1.2660 H   0  0  0  0  0  0  0  0  0  0  0  0
    2.5630   -0.0790   -3.8650 H   0  0  0  0  0  0  0  0  0  0  0  0
    0.2800   -2.4080   -2.1050 N   0  0  0  0  0  0  0  0  0  0  0  0
   -0.5880   -3.5430   -2.1540 C   0  0  1  0  0  0  0  0  0  0  0  0
   -1.9890   -3.2040   -2.5630 C   0  0  0  0  0  0  0  0  0  0  0  0
   -2.5620   -2.2510   -1.5920 C   0  0  0  0  0  0  0  0  0  0  0  0
   -3.3790   -2.6210   -0.5350 C   0  0  0  0  0  0  0  0  0  0  0  0
   -3.7020   -1.5470    0.1720 N   0  0  0  0  0  0  0  0  0  0  0  0
   -3.1170   -0.4610   -0.3890 C   0  0  0  0  0  0  0  0  0  0  0  0
   -3.1360    0.8730   -0.0560 C   0  0  0  0  0  0  0  0  0  0  0  0
   -2.4520    1.8090   -0.8050 C   0  0  0  0  0  0  0  0  0  0  0  0
   -1.7550    1.3700   -1.8880 C   0  0  0  0  0  0  0  0  0  0  0  0
   -1.7230    0.0290   -2.2410 C   0  0  0  0  0  0  0  0  0  0  0  0
   -2.4050   -0.8870   -1.4890 C   0  0  0  0  0  0  0  0  0  0  0  0
   -0.0110   -4.6710   -2.9350 C   0  0  0  0  0  0  0  0  0  0  0  0
   -0.6490   -5.7450   -3.0770 O   0  0  0  0  0  0  0  0  0  0  0  0
    1.2360   -4.6120   -3.5410 O   0  0  0  0  0  0  0  0  0  0  0  0
    0.5660   -1.8900   -2.9800 H   0  0  0  0  0  0  0  0  0  0  0  0
   -0.6790   -3.9380   -1.0950 H   0  0  0  0  0  0  0  0  0  0  0  0
   -2.6000   -4.1220   -2.6140 H   0  0  0  0  0  0  0  0  0  0  0  0
   -2.0440   -2.7280   -3.5670 H   0  0  0  0  0  0  0  0  0  0  0  0
   -3.6990   -3.6200   -0.3260 H   0  0  0  0  0  0  0  0  0  0  0  0
   -4.3100   -1.4840    1.0390 H   0  0  0  0  0  0  0  0  0  0  0  0
   -3.6960    1.1920    0.8070 H   0  0  0  0  0  0  0  0  0  0  0  0
   -2.5070    2.8510   -0.4880 H   0  0  0  0  0  0  0  0  0  0  0  0
   -1.2080    2.0820   -2.4960 H   0  0  0  0  0  0  0  0  0  0  0  0
   -1.1820   -0.3000   -3.1010 H   0  0  0  0  0  0  0  0  0  0  0  0
  1 11  1  0  0  0  0
  1  9  1  0  0  0  0
  2 12  1  0  0  0  0
  2  1  1  0  0  0  0
  3 14  1  6  0  0  0
  3  4  1  0  0  0  0
  3  2  1  0  0  0  0
  4 17  1  0  0  0  0
  4 16  1  0  0  0  0
  5  6  1  0  0  0  0
  5 18  1  1  0  0  0
  5  3  1  0  0  0  0
  6 20  1  0  0  0  0
  7  5  1  0  0  0  0
  8  7  2  0  0  0  0
 10  1  1  0  0  0  0
 13  2  1  0  0  0  0
 15  4  1  0  0  0  0
 19  6  1  0  0  0  0
 21  7  1  0  0  0  0
 21 27  1  0  0  0  0
 22 28  1  6  0  0  0
 22 21  1  0  0  0  0
 23 30  1  0  0  0  0
 23 29  1  0  0  0  0
 23 22  1  0  0  0  0
 24 23  1  0  0  0  0
 25 22  1  0  0  0  0
 25 26  2  0  0  0  0
 31 24  1  0  0  0  0
 32 25  1  0  0  0  0
 33 32  1  0  0  0  0
 33 48  1  1  0  0  0
 34 33  1  0  0  0  0
 34 35  1  0  0  0  0
 35 43  1  0  0  0  0
 35 36  2  0  0  0  0
 36 51  1  0  0  0  0
 36 37  1  0  0  0  0
 37 52  1  0  0  0  0
 38 39  1  0  0  0  0
 38 37  1  0  0  0  0
 39 53  1  0  0  0  0
 40 54  1  0  0  0  0
 40 39  2  0  0  0  0
 41 40  1  0  0  0  0
 42 41  2  0  0  0  0
 42 43  1  0  0  0  0
 43 38  2  0  0  0  0
 44 33  1  0  0  0  0
 45 44  1  0  0  0  0
 46 44  2  0  0  0  0
 47 32  1  0  0  0  0
 49 34  1  0  0  0  0
 50 34  1  0  0  0  0
 55 41  1  0  0  0  0
 56 42  1  0  0  0  0
M  END
$$$$
