IDC.pdb
 OpenBabel07022418403D

 45 44  0  0  1  0  0  0  0  0999 V2000
    4.4720    0.2160   -3.0910 C   0  0  0  0  0  0  0  0  0  0  0  0
    3.2910    1.0790   -2.7040 C   0  0  0  0  0  0  0  0  0  0  0  0
    2.7990    0.7920   -1.3140 C   0  0  2  0  0  0  0  0  0  0  0  0
    3.8830    1.0400   -0.3210 C   0  0  0  0  0  0  0  0  0  0  0  0
    2.1970   -0.5750   -1.2850 C   0  0  2  0  0  0  0  0  0  0  0  0
    1.1040   -0.5930   -2.2170 N   0  0  0  0  0  0  0  0  0  0  0  0
    1.6720   -0.9260    0.0860 C   0  0  0  0  0  0  0  0  0  0  0  0
    2.5590   -0.9870    0.9610 O   0  0  0  0  0  0  0  0  0  0  0  0
    5.4300    0.8040   -3.0270 H   0  0  0  0  0  0  0  0  0  0  0  0
    4.5460   -0.7090   -2.5060 H   0  0  0  0  0  0  0  0  0  0  0  0
    4.3420   -0.0810   -4.1490 H   0  0  0  0  0  0  0  0  0  0  0  0
    2.4390    0.8670   -3.4040 H   0  0  0  0  0  0  0  0  0  0  0  0
    3.6020    2.1380   -2.8340 H   0  0  0  0  0  0  0  0  0  0  0  0
    1.9740    1.5080   -1.1030 H   0  0  0  0  0  0  0  0  0  0  0  0
    3.5340    1.0970    0.7280 H   0  0  0  0  0  0  0  0  0  0  0  0
    4.7430    0.3730   -0.3890 H   0  0  0  0  0  0  0  0  0  0  0  0
    4.2760    2.0750   -0.5370 H   0  0  0  0  0  0  0  0  0  0  0  0
    2.9080   -1.3990   -1.5210 H   0  0  0  0  0  0  0  0  0  0  0  0
    0.6560    0.3150   -2.3990 H   0  0  0  0  0  0  0  0  0  0  0  0
    1.2580   -1.1950   -3.0450 H   0  0  0  0  0  0  0  0  0  0  0  0
    0.3100   -1.1530    0.3030 N   0  0  0  0  0  0  0  0  0  0  0  0
   -0.3860   -1.5140    1.4940 C   0  0  1  0  0  0  0  0  0  0  0  0
    0.4490   -1.5920    2.7560 C   0  0  0  0  0  0  0  0  0  0  0  0
    1.4310   -2.7010    2.6080 C   0  0  0  0  0  0  0  0  0  0  0  0
    1.3450   -3.5450    1.6480 O   0  0  0  0  0  0  0  0  0  0  0  0
   -1.6500   -0.7930    1.6290 C   0  0  0  0  0  0  0  0  0  0  0  0
   -2.0570    0.0640    0.7670 O   0  0  0  0  0  0  0  0  0  0  0  0
    2.4910   -2.8950    3.4870 O   0  0  0  0  0  0  0  0  0  0  0  0
   -0.2970   -1.0320   -0.5820 H   0  0  0  0  0  0  0  0  0  0  0  0
   -0.6190   -2.6370    1.3540 H   0  0  0  0  0  0  0  0  0  0  0  0
   -0.1790   -1.8110    3.6180 H   0  0  0  0  0  0  0  0  0  0  0  0
    1.0240   -0.6740    2.9420 H   0  0  0  0  0  0  0  0  0  0  0  0
    2.8970   -3.8070    3.5780 H   0  0  0  0  0  0  0  0  0  0  0  0
   -2.5520   -0.9710    2.7280 N   0  0  0  0  0  0  0  0  0  0  0  0
   -3.8050   -0.2430    2.8520 C   0  0  1  0  0  0  0  0  0  0  0  0
   -4.9020   -1.3010    2.7420 C   0  0  0  0  0  0  0  0  0  0  0  0
   -6.5460   -0.5850    2.8760 S   0  0  0  0  0  0  0  0  0  0  0  0
   -3.8800    0.5270    4.0970 C   0  0  0  0  0  0  0  0  0  0  0  0
   -2.9200    0.4940    4.8970 O   0  0  0  0  0  0  0  0  0  0  0  0
   -4.9790    1.2940    4.4220 O   0  0  0  0  0  0  0  0  0  0  0  0
   -2.2840   -1.6570    3.4660 H   0  0  0  0  0  0  0  0  0  0  0  0
   -3.9690    0.4510    2.0080 H   0  0  0  0  0  0  0  0  0  0  0  0
   -4.7220   -2.0720    3.5480 H   0  0  0  0  0  0  0  0  0  0  0  0
   -4.7310   -1.8500    1.7930 H   0  0  0  0  0  0  0  0  0  0  0  0
   -7.1070   -0.5450    1.5830 H   0  0  0  0  0  0  0  0  0  0  0  0
  1  9  1  0  0  0  0
  1  2  1  0  0  0  0
  1 10  1  0  0  0  0
  2  3  1  0  0  0  0
  3  5  1  0  0  0  0
  3 14  1  1  0  0  0
  3  4  1  0  0  0  0
  4 15  1  0  0  0  0
  5 18  1  6  0  0  0
  5  7  1  0  0  0  0
  6  5  1  0  0  0  0
  7 21  1  0  0  0  0
  7  8  2  0  0  0  0
 11  1  1  0  0  0  0
 12  2  1  0  0  0  0
 13  2  1  0  0  0  0
 16  4  1  0  0  0  0
 17  4  1  0  0  0  0
 19  6  1  0  0  0  0
 20  6  1  0  0  0  0
 21 22  1  0  0  0  0
 22 30  1  6  0  0  0
 22 26  1  0  0  0  0
 22 23  1  0  0  0  0
 23 32  1  0  0  0  0
 23 31  1  0  0  0  0
 24 23  1  0  0  0  0
 24 28  1  0  0  0  0
 25 24  2  0  0  0  0
 26 34  1  0  0  0  0
 27 26  2  0  0  0  0
 28 33  1  0  0  0  0
 29 21  1  0  0  0  0
 34 35  1  0  0  0  0
 34 41  1  0  0  0  0
 35 42  1  6  0  0  0
 35 38  1  0  0  0  0
 36 35  1  0  0  0  0
 36 37  1  0  0  0  0
 36 43  1  0  0  0  0
 38 40  2  0  0  0  0
 38 39  1  0  0  0  0
 44 36  1  0  0  0  0
 45 37  1  0  0  0  0
M  END
$$$$
