IDD.pdb
 OpenBabel07022418403D

 47 46  0  0  1  0  0  0  0  0999 V2000
    2.1650   -3.3160    4.3970 C   0  0  0  0  0  0  0  0  0  0  0  0
    1.6470   -3.6080    3.0120 C   0  0  0  0  0  0  0  0  0  0  0  0
    1.1080   -2.3260    2.3370 C   0  0  2  0  0  0  0  0  0  0  0  0
    0.6260   -2.8220    0.9600 C   0  0  0  0  0  0  0  0  0  0  0  0
    2.1630   -1.2970    2.2220 C   0  0  2  0  0  0  0  0  0  0  0  0
    2.6960   -0.9710    3.5840 N   0  0  0  0  0  0  0  0  0  0  0  0
    1.8590   -0.0280    1.5770 C   0  0  0  0  0  0  0  0  0  0  0  0
    2.0720    1.0710    2.2340 O   0  0  0  0  0  0  0  0  0  0  0  0
    2.0350   -4.2260    5.0650 H   0  0  0  0  0  0  0  0  0  0  0  0
    3.2530   -3.1100    4.3490 H   0  0  0  0  0  0  0  0  0  0  0  0
    1.5710   -2.5410    4.9170 H   0  0  0  0  0  0  0  0  0  0  0  0
    0.7800   -4.3090    3.1420 H   0  0  0  0  0  0  0  0  0  0  0  0
    2.3740   -4.1090    2.3720 H   0  0  0  0  0  0  0  0  0  0  0  0
    0.2020   -2.0670    2.8930 H   0  0  0  0  0  0  0  0  0  0  0  0
    0.2040   -3.8560    1.0780 H   0  0  0  0  0  0  0  0  0  0  0  0
   -0.2080   -2.1730    0.6740 H   0  0  0  0  0  0  0  0  0  0  0  0
    1.4050   -2.7830    0.2010 H   0  0  0  0  0  0  0  0  0  0  0  0
    3.0380   -1.7450    1.7060 H   0  0  0  0  0  0  0  0  0  0  0  0
    3.6420   -0.5560    3.4660 H   0  0  0  0  0  0  0  0  0  0  0  0
    2.0540   -0.3250    4.0680 H   0  0  0  0  0  0  0  0  0  0  0  0
    1.3550    0.2610    0.3090 N   0  0  0  0  0  0  0  0  0  0  0  0
    1.1180    1.5600   -0.2150 C   0  0  1  0  0  0  0  0  0  0  0  0
    1.7820    1.9030   -1.4930 C   0  0  0  0  0  0  0  0  0  0  0  0
    1.3950    1.0360   -2.6340 C   0  0  0  0  0  0  0  0  0  0  0  0
    0.1910    0.8990   -2.9990 O   0  0  0  0  0  0  0  0  0  0  0  0
   -0.3360    1.8000   -0.3350 C   0  0  0  0  0  0  0  0  0  0  0  0
   -0.7740    2.9140   -0.8100 O   0  0  0  0  0  0  0  0  0  0  0  0
    2.3190    0.3160   -3.3810 O   0  0  0  0  0  0  0  0  0  0  0  0
    1.1350   -0.5360   -0.3240 H   0  0  0  0  0  0  0  0  0  0  0  0
    1.4730    2.3100    0.5530 H   0  0  0  0  0  0  0  0  0  0  0  0
    1.4010    2.9440   -1.7630 H   0  0  0  0  0  0  0  0  0  0  0  0
    2.8720    2.0290   -1.4570 H   0  0  0  0  0  0  0  0  0  0  0  0
    2.0510   -0.3560   -4.0950 H   0  0  0  0  0  0  0  0  0  0  0  0
   -1.3680    0.9000    0.0310 N   0  0  0  0  0  0  0  0  0  0  0  0
   -2.7820    1.2240   -0.1270 C   0  0  1  0  0  0  0  0  0  0  0  0
   -3.4150    0.3080   -1.1490 C   0  0  0  0  0  0  0  0  0  0  0  0
   -3.3550   -1.1160   -0.8080 C   0  0  0  0  0  0  0  0  0  0  0  0
   -2.8450   -1.5100    0.2480 O   0  0  0  0  0  0  0  0  0  0  0  0
   -3.5270    1.1110    1.1330 C   0  0  0  0  0  0  0  0  0  0  0  0
   -3.0220    0.7740    2.2350 O   0  0  0  0  0  0  0  0  0  0  0  0
   -3.9000   -2.0440   -1.7220 O   0  0  0  0  0  0  0  0  0  0  0  0
   -4.8860    1.3940    1.1080 O   0  0  0  0  0  0  0  0  0  0  0  0
   -1.0810   -0.0140    0.4260 H   0  0  0  0  0  0  0  0  0  0  0  0
   -2.9070    2.2560   -0.5340 H   0  0  0  0  0  0  0  0  0  0  0  0
   -2.8660    0.4360   -2.1260 H   0  0  0  0  0  0  0  0  0  0  0  0
   -4.4590    0.5790   -1.3730 H   0  0  0  0  0  0  0  0  0  0  0  0
   -4.0820   -3.0150   -1.4230 H   0  0  0  0  0  0  0  0  0  0  0  0
  1 11  1  0  0  0  0
  1  9  1  0  0  0  0
  2 12  1  0  0  0  0
  2  1  1  0  0  0  0
  3 14  1  1  0  0  0
  3  2  1  0  0  0  0
  4 15  1  0  0  0  0
  4  3  1  0  0  0  0
  5 18  1  6  0  0  0
  5  3  1  0  0  0  0
  5  6  1  0  0  0  0
  6 20  1  0  0  0  0
  7  5  1  0  0  0  0
  7  8  2  0  0  0  0
 10  1  1  0  0  0  0
 13  2  1  0  0  0  0
 16  4  1  0  0  0  0
 17  4  1  0  0  0  0
 19  6  1  0  0  0  0
 21  7  1  0  0  0  0
 22 21  1  0  0  0  0
 22 30  1  1  0  0  0
 23 32  1  0  0  0  0
 23 22  1  0  0  0  0
 24 23  1  0  0  0  0
 25 24  2  0  0  0  0
 26 22  1  0  0  0  0
 26 34  1  0  0  0  0
 27 26  2  0  0  0  0
 28 24  1  0  0  0  0
 29 21  1  0  0  0  0
 31 23  1  0  0  0  0
 33 28  1  0  0  0  0
 34 43  1  0  0  0  0
 35 44  1  6  0  0  0
 35 34  1  0  0  0  0
 35 39  1  0  0  0  0
 36 37  1  0  0  0  0
 36 35  1  0  0  0  0
 37 38  2  0  0  0  0
 39 40  1  0  0  0  0
 41 47  1  0  0  0  0
 41 37  1  0  0  0  0
 42 39  2  0  0  0  0
 45 36  1  0  0  0  0
 46 36  1  0  0  0  0
M  END
$$$$
