IDH.pdb
 OpenBabel07022418403D

 51 51  0  0  1  0  0  0  0  0999 V2000
    0.8550   -2.3450    4.1010 C   0  0  0  0  0  0  0  0  0  0  0  0
    1.6650   -2.9010    3.0150 C   0  0  0  0  0  0  0  0  0  0  0  0
    2.6790   -2.0950    2.3200 C   0  0  2  0  0  0  0  0  0  0  0  0
    3.7670   -1.5470    3.2130 C   0  0  0  0  0  0  0  0  0  0  0  0
    2.2260   -1.1540    1.2510 C   0  0  2  0  0  0  0  0  0  0  0  0
    3.4560   -0.5200    0.7170 N   0  0  0  0  0  0  0  0  0  0  0  0
    1.3080   -0.1140    1.7260 C   0  0  0  0  0  0  0  0  0  0  0  0
    1.1370    0.2180    2.9240 O   0  0  0  0  0  0  0  0  0  0  0  0
    0.5580   -3.2370    4.7580 H   0  0  0  0  0  0  0  0  0  0  0  0
    1.3410   -1.6780    4.8260 H   0  0  0  0  0  0  0  0  0  0  0  0
   -0.1620   -1.9530    3.8110 H   0  0  0  0  0  0  0  0  0  0  0  0
    2.1330   -3.8700    3.3330 H   0  0  0  0  0  0  0  0  0  0  0  0
    0.9330   -3.2430    2.2130 H   0  0  0  0  0  0  0  0  0  0  0  0
    3.2730   -2.8860    1.7060 H   0  0  0  0  0  0  0  0  0  0  0  0
    3.3920   -1.1200    4.1530 H   0  0  0  0  0  0  0  0  0  0  0  0
    4.5130   -2.3240    3.4890 H   0  0  0  0  0  0  0  0  0  0  0  0
    4.3230   -0.7880    2.6240 H   0  0  0  0  0  0  0  0  0  0  0  0
    1.7890   -1.7670    0.4250 H   0  0  0  0  0  0  0  0  0  0  0  0
    3.2510    0.4820    0.5150 H   0  0  0  0  0  0  0  0  0  0  0  0
    3.8170   -1.0250   -0.0940 H   0  0  0  0  0  0  0  0  0  0  0  0
    0.5070    0.6160    0.7680 N   0  0  0  0  0  0  0  0  0  0  0  0
   -0.4020    1.6430    1.2600 C   0  0  1  0  0  0  0  0  0  0  0  0
   -0.0810    2.9860    0.6070 C   0  0  0  0  0  0  0  0  0  0  0  0
   -0.2480    2.8930   -0.8670 C   0  0  0  0  0  0  0  0  0  0  0  0
   -1.3710    2.4720   -1.3080 O   0  0  0  0  0  0  0  0  0  0  0  0
   -1.7830    1.2320    0.9520 C   0  0  0  0  0  0  0  0  0  0  0  0
   -2.7480    1.9320    1.3090 O   0  0  0  0  0  0  0  0  0  0  0  0
    0.7590    3.2420   -1.7660 O   0  0  0  0  0  0  0  0  0  0  0  0
    0.5820    0.4140   -0.2380 H   0  0  0  0  0  0  0  0  0  0  0  0
   -0.3170    1.7750    2.3380 H   0  0  0  0  0  0  0  0  0  0  0  0
    0.9690    3.2070    0.8270 H   0  0  0  0  0  0  0  0  0  0  0  0
   -0.7560    3.7230    1.0560 H   0  0  0  0  0  0  0  0  0  0  0  0
    0.7690    2.6940   -2.6350 H   0  0  0  0  0  0  0  0  0  0  0  0
   -2.0090    0.0330    0.2420 N   0  0  0  0  0  0  0  0  0  0  0  0
   -3.3130   -0.4720   -0.1170 C   0  0  1  0  0  0  0  0  0  0  0  0
   -3.3860   -0.5190   -1.6300 C   0  0  0  0  0  0  0  0  0  0  0  0
   -2.3090   -1.4150   -2.1350 C   0  0  0  0  0  0  0  0  0  0  0  0
   -1.0390   -1.0200   -2.4730 C   0  0  0  0  0  0  0  0  0  0  0  0
   -0.3890   -2.1220   -2.8810 N   0  0  0  0  0  0  0  0  0  0  0  0
   -1.2030   -3.1890   -2.8120 C   0  0  0  0  0  0  0  0  0  0  0  0
   -2.3890   -2.7480   -2.3500 N   0  0  0  0  0  0  0  0  0  0  0  0
   -3.4810   -1.8500    0.4060 C   0  0  0  0  0  0  0  0  0  0  0  0
   -4.5120   -2.5450    0.2660 O   0  0  0  0  0  0  0  0  0  0  0  0
   -2.4240   -2.4420    1.1140 O   0  0  0  0  0  0  0  0  0  0  0  0
   -1.1770   -0.5530   -0.0610 H   0  0  0  0  0  0  0  0  0  0  0  0
   -4.1280    0.1860    0.2950 H   0  0  0  0  0  0  0  0  0  0  0  0
   -3.2880    0.5170   -2.0240 H   0  0  0  0  0  0  0  0  0  0  0  0
   -4.3700   -0.9720   -1.9000 H   0  0  0  0  0  0  0  0  0  0  0  0
   -0.6120   -0.0120   -2.4260 H   0  0  0  0  0  0  0  0  0  0  0  0
    0.6210   -2.1310   -3.2080 H   0  0  0  0  0  0  0  0  0  0  0  0
   -0.9350   -4.2120   -3.0830 H   0  0  0  0  0  0  0  0  0  0  0  0
  1  9  1  0  0  0  0
  1 10  1  0  0  0  0
  2 12  1  0  0  0  0
  2  1  1  0  0  0  0
  3 14  1  6  0  0  0
  3  2  1  0  0  0  0
  3  4  1  0  0  0  0
  4 16  1  0  0  0  0
  4 15  1  0  0  0  0
  5 18  1  6  0  0  0
  5  7  1  0  0  0  0
  5  3  1  0  0  0  0
  6  5  1  0  0  0  0
  7  8  2  0  0  0  0
 11  1  1  0  0  0  0
 13  2  1  0  0  0  0
 17  4  1  0  0  0  0
 19  6  1  0  0  0  0
 20  6  1  0  0  0  0
 21 22  1  0  0  0  0
 21  7  1  0  0  0  0
 22 30  1  1  0  0  0
 23 31  1  0  0  0  0
 23 32  1  0  0  0  0
 23 22  1  0  0  0  0
 24 23  1  0  0  0  0
 25 24  2  0  0  0  0
 26 22  1  0  0  0  0
 26 27  2  0  0  0  0
 28 24  1  0  0  0  0
 29 21  1  0  0  0  0
 33 28  1  0  0  0  0
 34 26  1  0  0  0  0
 35 34  1  0  0  0  0
 35 46  1  1  0  0  0
 35 42  1  0  0  0  0
 36 35  1  0  0  0  0
 37 36  1  0  0  0  0
 38 49  1  0  0  0  0
 38 37  2  0  0  0  0
 39 40  1  0  0  0  0
 39 38  1  0  0  0  0
 40 41  2  0  0  0  0
 41 37  1  0  0  0  0
 42 44  1  0  0  0  0
 43 42  2  0  0  0  0
 45 34  1  0  0  0  0
 47 36  1  0  0  0  0
 48 36  1  0  0  0  0
 50 39  1  0  0  0  0
 51 40  1  0  0  0  0
M  END
$$$$
