IDI.pdb
 OpenBabel07022418403D

 53 52  0  0  1  0  0  0  0  0999 V2000
    4.1380   -4.2690    3.4420 C   0  0  0  0  0  0  0  0  0  0  0  0
    3.7230   -4.0850    2.0200 C   0  0  0  0  0  0  0  0  0  0  0  0
    2.6120   -3.1050    1.8280 C   0  0  2  0  0  0  0  0  0  0  0  0
    2.2640   -3.0120    0.3510 C   0  0  0  0  0  0  0  0  0  0  0  0
    2.8590   -1.7690    2.4540 C   0  0  2  0  0  0  0  0  0  0  0  0
    3.0200   -2.0320    3.8980 N   0  0  0  0  0  0  0  0  0  0  0  0
    1.6850   -0.8950    2.2690 C   0  0  0  0  0  0  0  0  0  0  0  0
    0.8950   -0.6920    3.2470 O   0  0  0  0  0  0  0  0  0  0  0  0
    4.6320   -5.2820    3.5200 H   0  0  0  0  0  0  0  0  0  0  0  0
    4.8480   -3.4840    3.7990 H   0  0  0  0  0  0  0  0  0  0  0  0
    3.2980   -4.3290    4.1550 H   0  0  0  0  0  0  0  0  0  0  0  0
    4.6120   -3.7820    1.4090 H   0  0  0  0  0  0  0  0  0  0  0  0
    3.3770   -5.0600    1.5790 H   0  0  0  0  0  0  0  0  0  0  0  0
    1.7070   -3.5330    2.3360 H   0  0  0  0  0  0  0  0  0  0  0  0
    2.2310   -4.0910   -0.0010 H   0  0  0  0  0  0  0  0  0  0  0  0
    1.2400   -2.6480    0.1730 H   0  0  0  0  0  0  0  0  0  0  0  0
    3.0120   -2.5110   -0.2590 H   0  0  0  0  0  0  0  0  0  0  0  0
    3.7960   -1.2930    2.1210 H   0  0  0  0  0  0  0  0  0  0  0  0
    3.4420   -1.1700    4.3420 H   0  0  0  0  0  0  0  0  0  0  0  0
    2.0610   -2.1270    4.2920 H   0  0  0  0  0  0  0  0  0  0  0  0
    1.3980   -0.2680    1.0460 N   0  0  0  0  0  0  0  0  0  0  0  0
    0.2470    0.5910    0.8640 C   0  0  1  0  0  0  0  0  0  0  0  0
    0.7740    2.0080    0.6300 C   0  0  0  0  0  0  0  0  0  0  0  0
    1.6320    2.1000   -0.5510 C   0  0  0  0  0  0  0  0  0  0  0  0
    1.1680    2.0660   -1.7190 O   0  0  0  0  0  0  0  0  0  0  0  0
   -0.6620    0.1650   -0.2050 C   0  0  0  0  0  0  0  0  0  0  0  0
   -0.5270   -0.8610   -0.9200 O   0  0  0  0  0  0  0  0  0  0  0  0
    3.0030    2.2300   -0.4070 O   0  0  0  0  0  0  0  0  0  0  0  0
    2.0360   -0.4130    0.2360 H   0  0  0  0  0  0  0  0  0  0  0  0
   -0.3210    0.6280    1.8250 H   0  0  0  0  0  0  0  0  0  0  0  0
    1.3300    2.3480    1.5270 H   0  0  0  0  0  0  0  0  0  0  0  0
   -0.0990    2.7190    0.5510 H   0  0  0  0  0  0  0  0  0  0  0  0
    3.5600    2.6790   -1.1300 H   0  0  0  0  0  0  0  0  0  0  0  0
   -3.4220   -0.7260    1.1660 C   0  0  0  0  0  0  0  0  0  0  0  0
   -4.2250   -0.8320   -0.0800 C   0  0  0  0  0  0  0  0  0  0  0  0
   -4.1630    0.3550   -1.0020 C   0  0  2  0  0  0  0  0  0  0  0  0
   -5.0740    0.0060   -2.1790 C   0  0  0  0  0  0  0  0  0  0  0  0
   -2.7680    0.6560   -1.4960 C   0  0  2  0  0  0  0  0  0  0  0  0
   -1.8170    0.9610   -0.4910 N   0  0  0  0  0  0  0  0  0  0  0  0
   -2.7850    1.6350   -2.6130 C   0  0  0  0  0  0  0  0  0  0  0  0
   -2.0100    2.6200   -2.5920 O   0  0  0  0  0  0  0  0  0  0  0  0
   -3.6260    1.5280   -3.7080 O   0  0  0  0  0  0  0  0  0  0  0  0
   -2.5750   -1.4730    1.1840 H   0  0  0  0  0  0  0  0  0  0  0  0
   -3.0560    0.2700    1.4160 H   0  0  0  0  0  0  0  0  0  0  0  0
   -4.1010   -1.0260    2.0250 H   0  0  0  0  0  0  0  0  0  0  0  0
   -3.8400   -1.7000   -0.7000 H   0  0  0  0  0  0  0  0  0  0  0  0
   -5.2980   -1.0660    0.1080 H   0  0  0  0  0  0  0  0  0  0  0  0
   -4.5440    1.2960   -0.5490 H   0  0  0  0  0  0  0  0  0  0  0  0
   -4.5160   -0.5900   -2.9110 H   0  0  0  0  0  0  0  0  0  0  0  0
   -5.5710    0.9030   -2.5880 H   0  0  0  0  0  0  0  0  0  0  0  0
   -5.9170   -0.6410   -1.7970 H   0  0  0  0  0  0  0  0  0  0  0  0
   -2.4170   -0.3090   -1.9780 H   0  0  0  0  0  0  0  0  0  0  0  0
   -1.9560    1.8460    0.0860 H   0  0  0  0  0  0  0  0  0  0  0  0
  1  9  1  0  0  0  0
  1 10  1  0  0  0  0
  1 11  1  0  0  0  0
  2  1  1  0  0  0  0
  3  2  1  0  0  0  0
  3 14  1  1  0  0  0
  3  5  1  0  0  0  0
  4  3  1  0  0  0  0
  5 18  1  6  0  0  0
  5  6  1  0  0  0  0
  6 20  1  0  0  0  0
  6 19  1  0  0  0  0
  7  5  1  0  0  0  0
  7  8  2  0  0  0  0
 12  2  1  0  0  0  0
 13  2  1  0  0  0  0
 15  4  1  0  0  0  0
 16  4  1  0  0  0  0
 17  4  1  0  0  0  0
 21  7  1  0  0  0  0
 22 21  1  0  0  0  0
 22 30  1  1  0  0  0
 23 22  1  0  0  0  0
 23 31  1  0  0  0  0
 24 28  1  0  0  0  0
 24 23  1  0  0  0  0
 25 24  2  0  0  0  0
 26 22  1  0  0  0  0
 27 26  2  0  0  0  0
 29 21  1  0  0  0  0
 32 23  1  0  0  0  0
 33 28  1  0  0  0  0
 34 43  1  0  0  0  0
 34 44  1  0  0  0  0
 34 45  1  0  0  0  0
 35 47  1  0  0  0  0
 35 34  1  0  0  0  0
 36 48  1  1  0  0  0
 36 35  1  0  0  0  0
 37 51  1  0  0  0  0
 37 36  1  0  0  0  0
 38 52  1  6  0  0  0
 38 36  1  0  0  0  0
 38 39  1  0  0  0  0
 39 26  1  0  0  0  0
 39 53  1  0  0  0  0
 40 41  1  0  0  0  0
 40 38  1  0  0  0  0
 42 40  2  0  0  0  0
 46 35  1  0  0  0  0
 49 37  1  0  0  0  0
 50 37  1  0  0  0  0
M  END
$$$$
