IDK.pdb
 OpenBabel07022418403D

 55 54  0  0  1  0  0  0  0  0999 V2000
    3.8040   -1.8290    1.1100 C   0  0  0  0  0  0  0  0  0  0  0  0
    2.3440   -2.0790    1.2800 C   0  0  0  0  0  0  0  0  0  0  0  0
    1.7350   -3.0320    0.2950 C   0  0  2  0  0  0  0  0  0  0  0  0
    2.3300   -4.4110    0.3260 C   0  0  0  0  0  0  0  0  0  0  0  0
    1.8200   -2.4720   -1.1240 C   0  0  2  0  0  0  0  0  0  0  0  0
    3.2390   -2.2910   -1.3760 N   0  0  0  0  0  0  0  0  0  0  0  0
    1.1430   -1.1540   -1.2170 C   0  0  0  0  0  0  0  0  0  0  0  0
    1.7990   -0.1120   -1.2600 O   0  0  0  0  0  0  0  0  0  0  0  0
    3.9000   -0.9120    0.4680 H   0  0  0  0  0  0  0  0  0  0  0  0
    4.2720   -1.6160    2.1080 H   0  0  0  0  0  0  0  0  0  0  0  0
    4.3950   -2.6180    0.6620 H   0  0  0  0  0  0  0  0  0  0  0  0
    1.7440   -1.1260    1.1810 H   0  0  0  0  0  0  0  0  0  0  0  0
    2.1160   -2.4420    2.3130 H   0  0  0  0  0  0  0  0  0  0  0  0
    0.6380   -3.0750    0.5460 H   0  0  0  0  0  0  0  0  0  0  0  0
    1.7620   -4.9970    1.0870 H   0  0  0  0  0  0  0  0  0  0  0  0
    2.2460   -4.9230   -0.6650 H   0  0  0  0  0  0  0  0  0  0  0  0
    3.4060   -4.3660    0.5580 H   0  0  0  0  0  0  0  0  0  0  0  0
    1.4130   -3.1850   -1.8640 H   0  0  0  0  0  0  0  0  0  0  0  0
    3.7150   -3.1610   -1.6770 H   0  0  0  0  0  0  0  0  0  0  0  0
    3.2890   -1.5960   -2.1800 H   0  0  0  0  0  0  0  0  0  0  0  0
   -0.2860   -1.0500   -1.2630 N   0  0  0  0  0  0  0  0  0  0  0  0
   -0.9920    0.1810   -1.3530 C   0  0  1  0  0  0  0  0  0  0  0  0
   -1.5450    0.4660   -2.7370 C   0  0  0  0  0  0  0  0  0  0  0  0
   -0.4720    0.5340   -3.7540 C   0  0  0  0  0  0  0  0  0  0  0  0
    0.0440   -0.4890   -4.2830 O   0  0  0  0  0  0  0  0  0  0  0  0
   -2.0300    0.3990   -0.3110 C   0  0  0  0  0  0  0  0  0  0  0  0
   -2.7280    1.4620   -0.2930 O   0  0  0  0  0  0  0  0  0  0  0  0
   -0.0210    1.7920   -4.1350 O   0  0  0  0  0  0  0  0  0  0  0  0
   -0.7840   -1.9910   -1.2250 H   0  0  0  0  0  0  0  0  0  0  0  0
   -0.2480    0.9980   -1.2120 H   0  0  0  0  0  0  0  0  0  0  0  0
   -2.2620   -0.2930   -3.0790 H   0  0  0  0  0  0  0  0  0  0  0  0
   -2.0700    1.4300   -2.7080 H   0  0  0  0  0  0  0  0  0  0  0  0
    0.9360    1.9480   -4.4160 H   0  0  0  0  0  0  0  0  0  0  0  0
   -2.2550   -0.6020    0.6890 N   0  0  0  0  0  0  0  0  0  0  0  0
   -3.2180   -0.5150    1.7130 C   0  0  1  0  0  0  0  0  0  0  0  0
   -2.9870    0.3270    2.8930 C   0  0  0  0  0  0  0  0  0  0  0  0
   -1.8130    0.0300    3.7480 C   0  0  0  0  0  0  0  0  0  0  0  0
   -0.4700    0.1740    3.0810 C   0  0  0  0  0  0  0  0  0  0  0  0
   -0.2530    1.5990    2.6060 C   0  0  0  0  0  0  0  0  0  0  0  0
    1.0400    1.6630    1.9760 N   0  0  0  0  0  0  0  0  0  0  0  0
   -4.5610   -0.2380    1.0860 C   0  0  0  0  0  0  0  0  0  0  0  0
   -5.5740   -0.0600    1.8090 O   0  0  0  0  0  0  0  0  0  0  0  0
   -4.7190   -0.1740   -0.2840 O   0  0  0  0  0  0  0  0  0  0  0  0
   -1.6460   -1.4670    0.6250 H   0  0  0  0  0  0  0  0  0  0  0  0
   -3.3820   -1.5840    2.0990 H   0  0  0  0  0  0  0  0  0  0  0  0
   -3.9030    0.2090    3.5550 H   0  0  0  0  0  0  0  0  0  0  0  0
   -2.9760    1.4220    2.6890 H   0  0  0  0  0  0  0  0  0  0  0  0
   -1.8730   -1.0010    4.1830 H   0  0  0  0  0  0  0  0  0  0  0  0
   -1.7760    0.7080    4.6410 H   0  0  0  0  0  0  0  0  0  0  0  0
   -0.2790   -0.4960    2.2510 H   0  0  0  0  0  0  0  0  0  0  0  0
    0.2930   -0.0350    3.8680 H   0  0  0  0  0  0  0  0  0  0  0  0
   -0.2180    2.2320    3.5270 H   0  0  0  0  0  0  0  0  0  0  0  0
   -1.0510    1.9270    1.9170 H   0  0  0  0  0  0  0  0  0  0  0  0
    1.7190    0.9790    2.3370 H   0  0  0  0  0  0  0  0  0  0  0  0
    1.4490    2.6130    2.0580 H   0  0  0  0  0  0  0  0  0  0  0  0
  1  2  1  0  0  0  0
  1 10  1  0  0  0  0
  2 13  1  0  0  0  0
  3  4  1  0  0  0  0
  3 14  1  1  0  0  0
  3  2  1  0  0  0  0
  4 17  1  0  0  0  0
  4 15  1  0  0  0  0
  5 18  1  6  0  0  0
  5  3  1  0  0  0  0
  6  5  1  0  0  0  0
  7  5  1  0  0  0  0
  8  7  2  0  0  0  0
  9  1  1  0  0  0  0
 11  1  1  0  0  0  0
 12  2  1  0  0  0  0
 16  4  1  0  0  0  0
 19  6  1  0  0  0  0
 20  6  1  0  0  0  0
 21 29  1  0  0  0  0
 21  7  1  0  0  0  0
 22 21  1  0  0  0  0
 22 30  1  1  0  0  0
 22 26  1  0  0  0  0
 23 32  1  0  0  0  0
 23 22  1  0  0  0  0
 24 23  1  0  0  0  0
 25 24  2  0  0  0  0
 26 27  2  0  0  0  0
 26 34  1  0  0  0  0
 28 24  1  0  0  0  0
 31 23  1  0  0  0  0
 33 28  1  0  0  0  0
 34 35  1  0  0  0  0
 35 45  1  1  0  0  0
 35 36  1  0  0  0  0
 36 46  1  0  0  0  0
 36 37  1  0  0  0  0
 37 48  1  0  0  0  0
 37 49  1  0  0  0  0
 38 37  1  0  0  0  0
 38 51  1  0  0  0  0
 39 38  1  0  0  0  0
 39 52  1  0  0  0  0
 40 55  1  0  0  0  0
 40 54  1  0  0  0  0
 40 39  1  0  0  0  0
 41 35  1  0  0  0  0
 41 42  1  0  0  0  0
 43 41  2  0  0  0  0
 44 34  1  0  0  0  0
 47 36  1  0  0  0  0
 50 38  1  0  0  0  0
 53 39  1  0  0  0  0
M  END
$$$$
