IDL.pdb
 OpenBabel07022418403D

 53 52  0  0  1  0  0  0  0  0999 V2000
    3.4660   -4.1900   -1.7660 C   0  0  0  0  0  0  0  0  0  0  0  0
    3.9900   -3.0800   -0.8840 C   0  0  0  0  0  0  0  0  0  0  0  0
    2.8610   -2.5830    0.0410 C   0  0  2  0  0  0  0  0  0  0  0  0
    1.7880   -2.0950   -0.8760 C   0  0  0  0  0  0  0  0  0  0  0  0
    3.5020   -1.5160    0.8970 C   0  0  2  0  0  0  0  0  0  0  0  0
    4.6030   -2.2310    1.5960 N   0  0  0  0  0  0  0  0  0  0  0  0
    2.6360   -0.9400    1.9270 C   0  0  0  0  0  0  0  0  0  0  0  0
    2.8500   -1.2210    3.1650 O   0  0  0  0  0  0  0  0  0  0  0  0
    3.2280   -3.7800   -2.7600 H   0  0  0  0  0  0  0  0  0  0  0  0
    4.3070   -4.9360   -1.8490 H   0  0  0  0  0  0  0  0  0  0  0  0
    2.5790   -4.6760   -1.2880 H   0  0  0  0  0  0  0  0  0  0  0  0
    4.8630   -3.4020   -0.2790 H   0  0  0  0  0  0  0  0  0  0  0  0
    4.3400   -2.2630   -1.5350 H   0  0  0  0  0  0  0  0  0  0  0  0
    2.5180   -3.4140    0.6840 H   0  0  0  0  0  0  0  0  0  0  0  0
    1.9710   -1.0790   -1.2700 H   0  0  0  0  0  0  0  0  0  0  0  0
    1.7520   -2.7640   -1.7890 H   0  0  0  0  0  0  0  0  0  0  0  0
    0.7830   -2.1340   -0.4630 H   0  0  0  0  0  0  0  0  0  0  0  0
    3.9610   -0.7730    0.2390 H   0  0  0  0  0  0  0  0  0  0  0  0
    5.0900   -1.5640    2.2430 H   0  0  0  0  0  0  0  0  0  0  0  0
    4.1450   -2.9490    2.2070 H   0  0  0  0  0  0  0  0  0  0  0  0
    1.5500   -0.0660    1.6200 N   0  0  0  0  0  0  0  0  0  0  0  0
    0.7480    0.4680    2.6690 C   0  0  1  0  0  0  0  0  0  0  0  0
    1.0690    1.9610    2.8980 C   0  0  0  0  0  0  0  0  0  0  0  0
    0.8100    2.7530    1.6920 C   0  0  0  0  0  0  0  0  0  0  0  0
    0.3800    2.2990    0.6210 O   0  0  0  0  0  0  0  0  0  0  0  0
   -0.7090    0.3170    2.4750 C   0  0  0  0  0  0  0  0  0  0  0  0
   -1.5190    0.7280    3.3540 O   0  0  0  0  0  0  0  0  0  0  0  0
    1.0710    4.1190    1.7630 O   0  0  0  0  0  0  0  0  0  0  0  0
    1.3390    0.1850    0.6360 H   0  0  0  0  0  0  0  0  0  0  0  0
    1.0800    0.0010    3.6430 H   0  0  0  0  0  0  0  0  0  0  0  0
    0.4820    2.2900    3.7740 H   0  0  0  0  0  0  0  0  0  0  0  0
    2.1490    1.9810    3.1580 H   0  0  0  0  0  0  0  0  0  0  0  0
    1.0870    4.6590    0.9110 H   0  0  0  0  0  0  0  0  0  0  0  0
   -4.8980    1.3680   -1.4780 C   0  0  0  0  0  0  0  0  0  0  0  0
   -4.6620    0.3370   -0.2960 C   0  0  0  0  0  0  0  0  0  0  0  0
   -5.1410   -0.9500   -0.9500 C   0  0  0  0  0  0  0  0  0  0  0  0
   -3.2140    0.3780    0.0360 C   0  0  0  0  0  0  0  0  0  0  0  0
   -2.7570   -0.4170    1.1610 C   0  0  2  0  0  0  0  0  0  0  0  0
   -1.2920   -0.2710    1.3430 N   0  0  0  0  0  0  0  0  0  0  0  0
   -3.0170   -1.8310    1.1680 C   0  0  0  0  0  0  0  0  0  0  0  0
   -4.1450   -2.3260    1.3160 O   0  0  0  0  0  0  0  0  0  0  0  0
   -1.9740   -2.7470    1.0020 O   0  0  0  0  0  0  0  0  0  0  0  0
   -4.8040    2.3840   -1.0960 H   0  0  0  0  0  0  0  0  0  0  0  0
   -4.0790    1.1580   -2.1860 H   0  0  0  0  0  0  0  0  0  0  0  0
   -5.8490    1.1340   -1.9680 H   0  0  0  0  0  0  0  0  0  0  0  0
   -5.3550    0.6790    0.4820 H   0  0  0  0  0  0  0  0  0  0  0  0
   -5.7260   -0.6870   -1.8990 H   0  0  0  0  0  0  0  0  0  0  0  0
   -4.3730   -1.6710   -1.1780 H   0  0  0  0  0  0  0  0  0  0  0  0
   -5.9160   -1.3860   -0.2970 H   0  0  0  0  0  0  0  0  0  0  0  0
   -2.9850    1.4850    0.2000 H   0  0  0  0  0  0  0  0  0  0  0  0
   -2.6380    0.0450   -0.8790 H   0  0  0  0  0  0  0  0  0  0  0  0
   -3.2010    0.0390    2.1080 H   0  0  0  0  0  0  0  0  0  0  0  0
   -0.7090   -0.6280    0.5770 H   0  0  0  0  0  0  0  0  0  0  0  0
  1 11  1  0  0  0  0
  1  2  1  0  0  0  0
  2 12  1  0  0  0  0
  2  3  1  0  0  0  0
  3 14  1  1  0  0  0
  3  5  1  0  0  0  0
  4 17  1  0  0  0  0
  4  3  1  0  0  0  0
  5 18  1  6  0  0  0
  5  6  1  0  0  0  0
  5  7  1  0  0  0  0
  6 20  1  0  0  0  0
  6 19  1  0  0  0  0
  7  8  2  0  0  0  0
  9  1  1  0  0  0  0
 10  1  1  0  0  0  0
 13  2  1  0  0  0  0
 15  4  1  0  0  0  0
 16  4  1  0  0  0  0
 21  7  1  0  0  0  0
 21 22  1  0  0  0  0
 22 23  1  0  0  0  0
 22 30  1  1  0  0  0
 23 32  1  0  0  0  0
 23 31  1  0  0  0  0
 24 28  1  0  0  0  0
 24 23  1  0  0  0  0
 25 24  2  0  0  0  0
 26 22  1  0  0  0  0
 26 27  2  0  0  0  0
 29 21  1  0  0  0  0
 33 28  1  0  0  0  0
 34 43  1  0  0  0  0
 34 35  1  0  0  0  0
 35 37  1  0  0  0  0
 35 46  1  0  0  0  0
 36 49  1  0  0  0  0
 36 35  1  0  0  0  0
 37 50  1  0  0  0  0
 37 38  1  0  0  0  0
 38 40  1  0  0  0  0
 38 39  1  0  0  0  0
 38 52  1  1  0  0  0
 39 26  1  0  0  0  0
 40 41  1  0  0  0  0
 42 40  2  0  0  0  0
 44 34  1  0  0  0  0
 45 34  1  0  0  0  0
 47 36  1  0  0  0  0
 48 36  1  0  0  0  0
 51 37  1  0  0  0  0
 53 39  1  0  0  0  0
M  END
$$$$
