IDN.pdb
 OpenBabel07022418403D

 48 47  0  0  1  0  0  0  0  0999 V2000
    2.5280   -5.1930   -0.2320 C   0  0  0  0  0  0  0  0  0  0  0  0
    1.3380   -4.3730   -0.6480 C   0  0  0  0  0  0  0  0  0  0  0  0
    1.0230   -3.3290    0.3860 C   0  0  2  0  0  0  0  0  0  0  0  0
   -0.2220   -2.5740   -0.1240 C   0  0  0  0  0  0  0  0  0  0  0  0
    2.1740   -2.3820    0.5590 C   0  0  2  0  0  0  0  0  0  0  0  0
    3.3170   -3.2070    1.0050 N   0  0  0  0  0  0  0  0  0  0  0  0
    1.9760   -1.2680    1.4670 C   0  0  0  0  0  0  0  0  0  0  0  0
    2.5270   -1.3210    2.6090 O   0  0  0  0  0  0  0  0  0  0  0  0
    2.4560   -6.2380   -0.6980 H   0  0  0  0  0  0  0  0  0  0  0  0
    3.4930   -4.8220   -0.6290 H   0  0  0  0  0  0  0  0  0  0  0  0
    2.6030   -5.3860    0.8390 H   0  0  0  0  0  0  0  0  0  0  0  0
    0.4300   -5.0420   -0.7000 H   0  0  0  0  0  0  0  0  0  0  0  0
    1.4740   -3.9360   -1.6610 H   0  0  0  0  0  0  0  0  0  0  0  0
    0.7140   -3.8350    1.3000 H   0  0  0  0  0  0  0  0  0  0  0  0
   -1.0010   -3.3000   -0.4340 H   0  0  0  0  0  0  0  0  0  0  0  0
   -0.5670   -2.0100    0.7560 H   0  0  0  0  0  0  0  0  0  0  0  0
    0.1110   -1.9180   -0.9160 H   0  0  0  0  0  0  0  0  0  0  0  0
    2.4460   -1.9910   -0.4420 H   0  0  0  0  0  0  0  0  0  0  0  0
    4.2150   -2.6940    0.8440 H   0  0  0  0  0  0  0  0  0  0  0  0
    3.2180   -3.2820    2.0420 H   0  0  0  0  0  0  0  0  0  0  0  0
    1.2240   -0.1120    1.1990 N   0  0  0  0  0  0  0  0  0  0  0  0
    1.0920    0.9510    2.1720 C   0  0  1  0  0  0  0  0  0  0  0  0
    2.0120    2.1190    1.8310 C   0  0  0  0  0  0  0  0  0  0  0  0
    1.7410    2.7150    0.5330 C   0  0  0  0  0  0  0  0  0  0  0  0
    0.8270    2.2790   -0.1950 O   0  0  0  0  0  0  0  0  0  0  0  0
   -0.3050    1.3850    2.2940 C   0  0  0  0  0  0  0  0  0  0  0  0
   -0.6110    2.2660    3.1790 O   0  0  0  0  0  0  0  0  0  0  0  0
    2.4890    3.7780    0.0740 O   0  0  0  0  0  0  0  0  0  0  0  0
    0.7490    0.0050    0.2850 H   0  0  0  0  0  0  0  0  0  0  0  0
    1.4940    0.5600    3.1340 H   0  0  0  0  0  0  0  0  0  0  0  0
    1.9070    2.8390    2.6690 H   0  0  0  0  0  0  0  0  0  0  0  0
    3.0560    1.7100    1.9310 H   0  0  0  0  0  0  0  0  0  0  0  0
    2.1210    4.4960   -0.5280 H   0  0  0  0  0  0  0  0  0  0  0  0
   -3.8420    1.0780   -1.9310 N   0  0  0  0  0  0  0  0  0  0  0  0
   -3.3670    0.7760   -0.6050 C   0  0  0  0  0  0  0  0  0  0  0  0
   -3.0300   -0.4100   -0.4050 O   0  0  0  0  0  0  0  0  0  0  0  0
   -3.3120    1.8600    0.4010 C   0  0  0  0  0  0  0  0  0  0  0  0
   -2.7510    1.4050    1.7020 C   0  0  2  0  0  0  0  0  0  0  0  0
   -1.3770    0.9250    1.5180 N   0  0  0  0  0  0  0  0  0  0  0  0
   -3.5380    0.2180    2.1730 C   0  0  0  0  0  0  0  0  0  0  0  0
   -4.7670    0.3420    2.4120 O   0  0  0  0  0  0  0  0  0  0  0  0
   -2.9690   -1.0260    2.3600 O   0  0  0  0  0  0  0  0  0  0  0  0
   -3.4610    1.9060   -2.4260 H   0  0  0  0  0  0  0  0  0  0  0  0
   -4.5660    0.4740   -2.4030 H   0  0  0  0  0  0  0  0  0  0  0  0
   -2.6580    2.6990    0.0360 H   0  0  0  0  0  0  0  0  0  0  0  0
   -4.3570    2.2130    0.5510 H   0  0  0  0  0  0  0  0  0  0  0  0
   -2.8090    2.1480    2.5030 H   0  0  0  0  0  0  0  0  0  0  0  0
   -1.1960    0.2310    0.7890 H   0  0  0  0  0  0  0  0  0  0  0  0
  1 11  1  0  0  0  0
  2  1  1  0  0  0  0
  2  3  1  0  0  0  0
  3  5  1  0  0  0  0
  3 14  1  1  0  0  0
  4  3  1  0  0  0  0
  4 16  1  0  0  0  0
  5 18  1  6  0  0  0
  5  6  1  0  0  0  0
  5  7  1  0  0  0  0
  6 20  1  0  0  0  0
  7  8  2  0  0  0  0
  9  1  1  0  0  0  0
 10  1  1  0  0  0  0
 12  2  1  0  0  0  0
 13  2  1  0  0  0  0
 15  4  1  0  0  0  0
 17  4  1  0  0  0  0
 19  6  1  0  0  0  0
 21  7  1  0  0  0  0
 21 22  1  0  0  0  0
 22 26  1  0  0  0  0
 22 30  1  1  0  0  0
 23 32  1  0  0  0  0
 23 22  1  0  0  0  0
 23 31  1  0  0  0  0
 24 23  1  0  0  0  0
 25 24  2  0  0  0  0
 26 27  2  0  0  0  0
 28 24  1  0  0  0  0
 29 21  1  0  0  0  0
 33 28  1  0  0  0  0
 34 35  1  0  0  0  0
 35 36  2  0  0  0  0
 35 37  1  0  0  0  0
 37 46  1  0  0  0  0
 37 38  1  0  0  0  0
 38 40  1  0  0  0  0
 38 47  1  1  0  0  0
 39 38  1  0  0  0  0
 39 26  1  0  0  0  0
 40 42  2  0  0  0  0
 40 41  1  0  0  0  0
 43 34  1  0  0  0  0
 44 34  1  0  0  0  0
 45 37  1  0  0  0  0
 48 39  1  0  0  0  0
M  END
$$$$
