IDP.pdb
 OpenBabel07022418403D

 48 48  0  0  1  0  0  0  0  0999 V2000
   -0.3510   -4.4510    3.9110 C   0  0  0  0  0  0  0  0  0  0  0  0
    0.8670   -3.7110    3.4560 C   0  0  0  0  0  0  0  0  0  0  0  0
    0.4460   -2.3980    2.7220 C   0  0  2  0  0  0  0  0  0  0  0  0
   -0.3980   -2.8000    1.5410 C   0  0  0  0  0  0  0  0  0  0  0  0
    1.7320   -1.7610    2.3320 C   0  0  2  0  0  0  0  0  0  0  0  0
    2.4710   -1.5840    3.6310 N   0  0  0  0  0  0  0  0  0  0  0  0
    1.7110   -0.4420    1.7170 C   0  0  0  0  0  0  0  0  0  0  0  0
    2.0520    0.5560    2.4630 O   0  0  0  0  0  0  0  0  0  0  0  0
   -1.2110   -3.7910    4.1460 H   0  0  0  0  0  0  0  0  0  0  0  0
   -0.0930   -4.9740    4.8680 H   0  0  0  0  0  0  0  0  0  0  0  0
   -0.6360   -5.2790    3.2040 H   0  0  0  0  0  0  0  0  0  0  0  0
    1.4300   -4.3640    2.7600 H   0  0  0  0  0  0  0  0  0  0  0  0
    1.4980   -3.4670    4.3220 H   0  0  0  0  0  0  0  0  0  0  0  0
   -0.1010   -1.7860    3.4510 H   0  0  0  0  0  0  0  0  0  0  0  0
    0.1290   -2.7050    0.5890 H   0  0  0  0  0  0  0  0  0  0  0  0
   -1.3520   -2.2530    1.6310 H   0  0  0  0  0  0  0  0  0  0  0  0
   -0.6800   -3.8890    1.6000 H   0  0  0  0  0  0  0  0  0  0  0  0
    2.3100   -2.4720    1.7080 H   0  0  0  0  0  0  0  0  0  0  0  0
    1.8000   -1.4550    4.4040 H   0  0  0  0  0  0  0  0  0  0  0  0
    3.1110   -2.3820    3.7200 H   0  0  0  0  0  0  0  0  0  0  0  0
    1.3810   -0.0510    0.3980 N   0  0  0  0  0  0  0  0  0  0  0  0
    1.4300    1.2730   -0.0970 C   0  0  1  0  0  0  0  0  0  0  0  0
    2.5540    1.4960   -1.1000 C   0  0  0  0  0  0  0  0  0  0  0  0
    2.4490    0.6460   -2.2980 C   0  0  0  0  0  0  0  0  0  0  0  0
    1.4840   -0.1370   -2.4170 O   0  0  0  0  0  0  0  0  0  0  0  0
    0.2310    1.9110   -0.6140 C   0  0  0  0  0  0  0  0  0  0  0  0
    0.4370    3.0970   -1.1300 O   0  0  0  0  0  0  0  0  0  0  0  0
    3.3810    0.6690   -3.3180 O   0  0  0  0  0  0  0  0  0  0  0  0
    1.0950   -0.8060   -0.2550 H   0  0  0  0  0  0  0  0  0  0  0  0
    1.7390    1.9130    0.8020 H   0  0  0  0  0  0  0  0  0  0  0  0
    2.4410    2.5590   -1.4530 H   0  0  0  0  0  0  0  0  0  0  0  0
    3.5520    1.4550   -0.6150 H   0  0  0  0  0  0  0  0  0  0  0  0
    3.5000   -0.1880   -3.8550 H   0  0  0  0  0  0  0  0  0  0  0  0
   -1.0950    1.4810   -0.6580 N   0  0  0  0  0  0  0  0  0  0  0  0
   -2.1990    2.1990   -1.2450 C   0  0  0  0  0  0  0  0  0  0  0  0
   -3.3200    1.9520   -0.2850 C   0  0  0  0  0  0  0  0  0  0  0  0
   -2.9370    0.7400    0.5260 C   0  0  0  0  0  0  0  0  0  0  0  0
   -1.6280    0.2630   -0.1210 C   0  0  1  0  0  0  0  0  0  0  0  0
   -2.0130   -0.7060   -1.1690 C   0  0  0  0  0  0  0  0  0  0  0  0
   -1.8670   -0.4850   -2.3970 O   0  0  0  0  0  0  0  0  0  0  0  0
   -2.5610   -1.9200   -0.7980 O   0  0  0  0  0  0  0  0  0  0  0  0
   -2.0040    3.2890   -1.3220 H   0  0  0  0  0  0  0  0  0  0  0  0
   -2.4270    1.8570   -2.2770 H   0  0  0  0  0  0  0  0  0  0  0  0
   -3.3780    2.8230    0.4300 H   0  0  0  0  0  0  0  0  0  0  0  0
   -4.2690    1.8070   -0.8320 H   0  0  0  0  0  0  0  0  0  0  0  0
   -3.6980   -0.0400    0.4150 H   0  0  0  0  0  0  0  0  0  0  0  0
   -2.7480    0.9920    1.5940 H   0  0  0  0  0  0  0  0  0  0  0  0
   -0.9660   -0.1640    0.6680 H   0  0  0  0  0  0  0  0  0  0  0  0
  1  9  1  0  0  0  0
  1 10  1  0  0  0  0
  2  1  1  0  0  0  0
  2 13  1  0  0  0  0
  3 14  1  1  0  0  0
  3  2  1  0  0  0  0
  4 17  1  0  0  0  0
  4 16  1  0  0  0  0
  4  3  1  0  0  0  0
  5 18  1  6  0  0  0
  5  3  1  0  0  0  0
  5  6  1  0  0  0  0
  6 20  1  0  0  0  0
  6 19  1  0  0  0  0
  7  5  1  0  0  0  0
  7  8  2  0  0  0  0
 11  1  1  0  0  0  0
 12  2  1  0  0  0  0
 15  4  1  0  0  0  0
 21  7  1  0  0  0  0
 22 21  1  0  0  0  0
 22 30  1  1  0  0  0
 23 32  1  0  0  0  0
 23 22  1  0  0  0  0
 24 23  1  0  0  0  0
 25 24  2  0  0  0  0
 26 22  1  0  0  0  0
 27 26  2  0  0  0  0
 28 24  1  0  0  0  0
 29 21  1  0  0  0  0
 31 23  1  0  0  0  0
 33 28  1  0  0  0  0
 34 26  1  0  0  0  0
 34 38  1  0  0  0  0
 35 34  1  0  0  0  0
 35 36  1  0  0  0  0
 36 44  1  0  0  0  0
 36 37  1  0  0  0  0
 37 47  1  0  0  0  0
 38 37  1  0  0  0  0
 38 48  1  1  0  0  0
 39 41  1  0  0  0  0
 39 38  1  0  0  0  0
 40 39  2  0  0  0  0
 42 35  1  0  0  0  0
 43 35  1  0  0  0  0
 45 36  1  0  0  0  0
 46 37  1  0  0  0  0
M  END
$$$$
