IDR.pdb
 OpenBabel07022418403D

 57 56  0  0  1  0  0  0  0  0999 V2000
    0.5820   -1.2690    4.8800 C   0  0  0  0  0  0  0  0  0  0  0  0
    1.6900   -1.7180    3.9870 C   0  0  0  0  0  0  0  0  0  0  0  0
    2.8240   -0.7450    3.8550 C   0  0  2  0  0  0  0  0  0  0  0  0
    3.4730   -0.4570    5.1690 C   0  0  0  0  0  0  0  0  0  0  0  0
    2.4220    0.5390    3.1790 C   0  0  2  0  0  0  0  0  0  0  0  0
    1.3910    1.2460    3.8790 N   0  0  0  0  0  0  0  0  0  0  0  0
    2.0150    0.2940    1.7470 C   0  0  0  0  0  0  0  0  0  0  0  0
    2.8050   -0.2820    0.9620 O   0  0  0  0  0  0  0  0  0  0  0  0
   -0.0100   -2.1950    5.1570 H   0  0  0  0  0  0  0  0  0  0  0  0
    0.9040   -0.8500    5.8450 H   0  0  0  0  0  0  0  0  0  0  0  0
   -0.1600   -0.6190    4.3480 H   0  0  0  0  0  0  0  0  0  0  0  0
    2.1340   -2.6500    4.4520 H   0  0  0  0  0  0  0  0  0  0  0  0
    1.2600   -2.0200    3.0280 H   0  0  0  0  0  0  0  0  0  0  0  0
    3.5840   -1.2210    3.1940 H   0  0  0  0  0  0  0  0  0  0  0  0
    3.6060    0.6440    5.2780 H   0  0  0  0  0  0  0  0  0  0  0  0
    4.5110   -0.8920    5.2320 H   0  0  0  0  0  0  0  0  0  0  0  0
    2.9250   -0.8880    6.0350 H   0  0  0  0  0  0  0  0  0  0  0  0
    3.3190    1.1880    3.1390 H   0  0  0  0  0  0  0  0  0  0  0  0
    1.7510    1.4800    4.8320 H   0  0  0  0  0  0  0  0  0  0  0  0
    1.2830    2.1830    3.3950 H   0  0  0  0  0  0  0  0  0  0  0  0
    0.7480    0.7100    1.2860 N   0  0  0  0  0  0  0  0  0  0  0  0
    0.2690    0.5200   -0.0570 C   0  0  1  0  0  0  0  0  0  0  0  0
    0.8350    1.5180   -1.0500 C   0  0  0  0  0  0  0  0  0  0  0  0
    0.4570    2.8720   -0.6090 C   0  0  0  0  0  0  0  0  0  0  0  0
    0.7320    3.2740    0.5500 O   0  0  0  0  0  0  0  0  0  0  0  0
    0.4080   -0.8930   -0.5300 C   0  0  0  0  0  0  0  0  0  0  0  0
    0.8450   -1.7730    0.2390 O   0  0  0  0  0  0  0  0  0  0  0  0
   -0.2170    3.7210   -1.4930 O   0  0  0  0  0  0  0  0  0  0  0  0
    0.1370    1.1890    2.0030 H   0  0  0  0  0  0  0  0  0  0  0  0
   -0.8560    0.7490   -0.0460 H   0  0  0  0  0  0  0  0  0  0  0  0
    0.3860    1.3220   -2.0280 H   0  0  0  0  0  0  0  0  0  0  0  0
    1.9360    1.4090   -1.1710 H   0  0  0  0  0  0  0  0  0  0  0  0
   -0.6030    4.5720   -1.1150 H   0  0  0  0  0  0  0  0  0  0  0  0
   -5.9280   -1.1340   -0.1930 N   0  0  0  0  0  0  0  0  0  0  0  0
   -4.8800   -0.9080   -1.1430 C   0  0  0  0  0  0  0  0  0  0  0  0
   -4.6270    0.2690   -1.5410 N   0  0  0  0  0  0  0  0  0  0  0  0
   -4.1440   -2.0130   -1.6210 N   0  0  0  0  0  0  0  0  0  0  0  0
   -2.7910   -1.7920   -2.1600 C   0  0  0  0  0  0  0  0  0  0  0  0
   -2.2620   -3.1180   -2.5750 C   0  0  0  0  0  0  0  0  0  0  0  0
   -0.9100   -3.1240   -3.1940 C   0  0  0  0  0  0  0  0  0  0  0  0
    0.1820   -2.6430   -2.3230 C   0  0  2  0  0  0  0  0  0  0  0  0
    0.0470   -1.2800   -1.8700 N   0  0  0  0  0  0  0  0  0  0  0  0
    1.4930   -2.7940   -3.0730 C   0  0  0  0  0  0  0  0  0  0  0  0
    1.8000   -3.8990   -3.5330 O   0  0  0  0  0  0  0  0  0  0  0  0
    2.3020   -1.7040   -3.2220 O   0  0  0  0  0  0  0  0  0  0  0  0
   -5.6660   -1.2370    0.7920 H   0  0  0  0  0  0  0  0  0  0  0  0
   -6.9080   -1.1930   -0.4800 H   0  0  0  0  0  0  0  0  0  0  0  0
   -3.8890    0.4860   -2.2190 H   0  0  0  0  0  0  0  0  0  0  0  0
   -4.5700   -2.9580   -1.5830 H   0  0  0  0  0  0  0  0  0  0  0  0
   -2.8020   -1.0520   -2.9890 H   0  0  0  0  0  0  0  0  0  0  0  0
   -2.2190   -1.3790   -1.3330 H   0  0  0  0  0  0  0  0  0  0  0  0
   -2.1700   -3.7260   -1.6130 H   0  0  0  0  0  0  0  0  0  0  0  0
   -3.0170   -3.6470   -3.2370 H   0  0  0  0  0  0  0  0  0  0  0  0
   -0.7320   -4.1720   -3.5660 H   0  0  0  0  0  0  0  0  0  0  0  0
   -0.9720   -2.5340   -4.1570 H   0  0  0  0  0  0  0  0  0  0  0  0
    0.3240   -3.3250   -1.4290 H   0  0  0  0  0  0  0  0  0  0  0  0
   -0.3120   -0.5120   -2.4780 H   0  0  0  0  0  0  0  0  0  0  0  0
  1  9  1  0  0  0  0
  1 10  1  0  0  0  0
  2 12  1  0  0  0  0
  2  1  1  0  0  0  0
  3 14  1  6  0  0  0
  3  2  1  0  0  0  0
  3  4  1  0  0  0  0
  4 16  1  0  0  0  0
  4 15  1  0  0  0  0
  4 17  1  0  0  0  0
  5 18  1  6  0  0  0
  5  3  1  0  0  0  0
  5  6  1  0  0  0  0
  6 19  1  0  0  0  0
  7  5  1  0  0  0  0
  8  7  2  0  0  0  0
 11  1  1  0  0  0  0
 13  2  1  0  0  0  0
 20  6  1  0  0  0  0
 21  7  1  0  0  0  0
 21 29  1  0  0  0  0
 22 30  1  1  0  0  0
 22 21  1  0  0  0  0
 23 24  1  0  0  0  0
 23 22  1  0  0  0  0
 24 25  2  0  0  0  0
 26 22  1  0  0  0  0
 26 27  2  0  0  0  0
 28 33  1  0  0  0  0
 28 24  1  0  0  0  0
 31 23  1  0  0  0  0
 32 23  1  0  0  0  0
 34 46  1  0  0  0  0
 35 34  1  0  0  0  0
 36 35  2  0  0  0  0
 37 49  1  0  0  0  0
 37 35  1  0  0  0  0
 38 37  1  0  0  0  0
 38 51  1  0  0  0  0
 39 38  1  0  0  0  0
 39 52  1  0  0  0  0
 40 39  1  0  0  0  0
 40 41  1  0  0  0  0
 41 42  1  0  0  0  0
 41 56  1  1  0  0  0
 42 26  1  0  0  0  0
 43 41  1  0  0  0  0
 44 43  2  0  0  0  0
 45 43  1  0  0  0  0
 47 34  1  0  0  0  0
 48 36  1  0  0  0  0
 50 38  1  0  0  0  0
 53 39  1  0  0  0  0
 54 40  1  0  0  0  0
 55 40  1  0  0  0  0
 57 42  1  0  0  0  0
M  END
$$$$
