IDS.pdb
 OpenBabel07022418403D

 45 44  0  0  1  0  0  0  0  0999 V2000
    0.1750   -3.2110    2.5090 C   0  0  0  0  0  0  0  0  0  0  0  0
    1.3910   -2.6220    1.8230 C   0  0  0  0  0  0  0  0  0  0  0  0
    1.1730   -2.7380    0.3480 C   0  0  2  0  0  0  0  0  0  0  0  0
    1.0110   -4.1920   -0.0070 C   0  0  0  0  0  0  0  0  0  0  0  0
    2.2270   -2.0570   -0.4740 C   0  0  2  0  0  0  0  0  0  0  0  0
    3.5440   -2.5550   -0.2650 N   0  0  0  0  0  0  0  0  0  0  0  0
    2.1880   -0.5900   -0.2740 C   0  0  0  0  0  0  0  0  0  0  0  0
    3.2370    0.0290    0.0460 O   0  0  0  0  0  0  0  0  0  0  0  0
    0.2120   -3.0860    3.6080 H   0  0  0  0  0  0  0  0  0  0  0  0
   -0.7600   -2.7510    2.0770 H   0  0  0  0  0  0  0  0  0  0  0  0
    0.1530   -4.2920    2.2970 H   0  0  0  0  0  0  0  0  0  0  0  0
    2.2610   -3.2370    2.1710 H   0  0  0  0  0  0  0  0  0  0  0  0
    1.5020   -1.5620    2.1430 H   0  0  0  0  0  0  0  0  0  0  0  0
    0.2040   -2.2200    0.1210 H   0  0  0  0  0  0  0  0  0  0  0  0
   -0.0570   -4.4430   -0.1460 H   0  0  0  0  0  0  0  0  0  0  0  0
    1.5200   -4.3420   -0.9870 H   0  0  0  0  0  0  0  0  0  0  0  0
    1.4720   -4.8110    0.7940 H   0  0  0  0  0  0  0  0  0  0  0  0
    1.9530   -2.2300   -1.5490 H   0  0  0  0  0  0  0  0  0  0  0  0
    3.6030   -3.4100    0.3260 H   0  0  0  0  0  0  0  0  0  0  0  0
    4.1710   -1.8040    0.1340 H   0  0  0  0  0  0  0  0  0  0  0  0
    0.9930    0.1750   -0.4290 N   0  0  0  0  0  0  0  0  0  0  0  0
    0.9590    1.6030   -0.2340 C   0  0  1  0  0  0  0  0  0  0  0  0
    0.6780    2.3650   -1.5060 C   0  0  0  0  0  0  0  0  0  0  0  0
   -0.6220    2.0190   -2.1180 C   0  0  0  0  0  0  0  0  0  0  0  0
   -1.3660    1.1810   -1.5830 O   0  0  0  0  0  0  0  0  0  0  0  0
    0.0300    1.9530    0.8500 C   0  0  0  0  0  0  0  0  0  0  0  0
   -0.1840    3.1450    1.2200 O   0  0  0  0  0  0  0  0  0  0  0  0
   -1.0190    2.6280   -3.2920 O   0  0  0  0  0  0  0  0  0  0  0  0
    0.1430   -0.3510   -0.6910 H   0  0  0  0  0  0  0  0  0  0  0  0
    2.0040    1.9140    0.0630 H   0  0  0  0  0  0  0  0  0  0  0  0
    0.7710    3.4370   -1.2900 H   0  0  0  0  0  0  0  0  0  0  0  0
    1.5170    2.1040   -2.2120 H   0  0  0  0  0  0  0  0  0  0  0  0
   -1.9930    2.6280   -3.6180 H   0  0  0  0  0  0  0  0  0  0  0  0
   -3.3670    1.3720    0.9780 O   0  0  0  0  0  0  0  0  0  0  0  0
   -2.9670    0.7370    2.1500 C   0  0  0  0  0  0  0  0  0  0  0  0
   -1.6070    1.2290    2.6130 C   0  0  2  0  0  0  0  0  0  0  0  0
   -0.6740    0.9230    1.5310 N   0  0  0  0  0  0  0  0  0  0  0  0
   -1.2610    0.5310    3.8570 C   0  0  0  0  0  0  0  0  0  0  0  0
   -1.9450    0.6650    4.9010 O   0  0  0  0  0  0  0  0  0  0  0  0
   -0.1610   -0.3100    3.9350 O   0  0  0  0  0  0  0  0  0  0  0  0
   -3.8080    0.7780    0.3420 H   0  0  0  0  0  0  0  0  0  0  0  0
   -3.7340    0.8010    2.9450 H   0  0  0  0  0  0  0  0  0  0  0  0
   -2.8460   -0.3420    1.9070 H   0  0  0  0  0  0  0  0  0  0  0  0
   -1.6790    2.3030    2.8040 H   0  0  0  0  0  0  0  0  0  0  0  0
   -0.5190   -0.0690    1.2500 H   0  0  0  0  0  0  0  0  0  0  0  0
  1  9  1  0  0  0  0
  2 13  1  0  0  0  0
  2 12  1  0  0  0  0
  2  1  1  0  0  0  0
  3 14  1  6  0  0  0
  3  2  1  0  0  0  0
  4  3  1  0  0  0  0
  4 17  1  0  0  0  0
  5 18  1  6  0  0  0
  5  7  1  0  0  0  0
  5  6  1  0  0  0  0
  5  3  1  0  0  0  0
  6 20  1  0  0  0  0
  6 19  1  0  0  0  0
  7  8  2  0  0  0  0
 10  1  1  0  0  0  0
 11  1  1  0  0  0  0
 15  4  1  0  0  0  0
 16  4  1  0  0  0  0
 21  7  1  0  0  0  0
 21 22  1  0  0  0  0
 22 30  1  1  0  0  0
 22 26  1  0  0  0  0
 23 31  1  0  0  0  0
 23 22  1  0  0  0  0
 24 25  2  0  0  0  0
 24 23  1  0  0  0  0
 26 27  2  0  0  0  0
 26 37  1  0  0  0  0
 28 24  1  0  0  0  0
 29 21  1  0  0  0  0
 32 23  1  0  0  0  0
 33 28  1  0  0  0  0
 34 35  1  0  0  0  0
 35 36  1  0  0  0  0
 35 42  1  0  0  0  0
 36 44  1  1  0  0  0
 36 38  1  0  0  0  0
 37 36  1  0  0  0  0
 38 40  2  0  0  0  0
 38 39  1  0  0  0  0
 41 34  1  0  0  0  0
 43 35  1  0  0  0  0
 45 37  1  0  0  0  0
M  END
$$$$
