IDT.pdb
 OpenBabel07022418403D

 48 47  0  0  1  0  0  0  0  0999 V2000
    1.5720   -3.6490    6.4390 C   0  0  0  0  0  0  0  0  0  0  0  0
    1.7140   -3.4860    4.9590 C   0  0  0  0  0  0  0  0  0  0  0  0
    1.1790   -2.1540    4.4440 C   0  0  2  0  0  0  0  0  0  0  0  0
   -0.2900   -2.0210    4.8010 C   0  0  0  0  0  0  0  0  0  0  0  0
    1.3550   -2.1890    2.9460 C   0  0  2  0  0  0  0  0  0  0  0  0
    2.7330   -2.3580    2.6010 N   0  0  0  0  0  0  0  0  0  0  0  0
    0.7080   -1.0840    2.2250 C   0  0  0  0  0  0  0  0  0  0  0  0
   -0.2630   -0.4520    2.6710 O   0  0  0  0  0  0  0  0  0  0  0  0
    2.5730   -3.8430    6.8790 H   0  0  0  0  0  0  0  0  0  0  0  0
    1.1980   -2.7370    6.9510 H   0  0  0  0  0  0  0  0  0  0  0  0
    0.9790   -4.5650    6.7020 H   0  0  0  0  0  0  0  0  0  0  0  0
    1.2620   -4.3620    4.4590 H   0  0  0  0  0  0  0  0  0  0  0  0
    2.8220   -3.5280    4.7220 H   0  0  0  0  0  0  0  0  0  0  0  0
    1.7870   -1.3420    4.8510 H   0  0  0  0  0  0  0  0  0  0  0  0
   -0.5150   -0.9650    5.0130 H   0  0  0  0  0  0  0  0  0  0  0  0
   -0.8600   -2.3170    3.8910 H   0  0  0  0  0  0  0  0  0  0  0  0
   -0.5730   -2.7310    5.6080 H   0  0  0  0  0  0  0  0  0  0  0  0
    0.8580   -3.1640    2.6260 H   0  0  0  0  0  0  0  0  0  0  0  0
    3.0000   -3.3130    2.2890 H   0  0  0  0  0  0  0  0  0  0  0  0
    3.3890   -2.1140    3.3860 H   0  0  0  0  0  0  0  0  0  0  0  0
    1.2080   -0.6900    0.9180 N   0  0  0  0  0  0  0  0  0  0  0  0
    0.5910    0.3800    0.2010 C   0  0  1  0  0  0  0  0  0  0  0  0
    1.4940    1.4300   -0.3260 C   0  0  0  0  0  0  0  0  0  0  0  0
    2.5030    0.9410   -1.2630 C   0  0  0  0  0  0  0  0  0  0  0  0
    2.6210   -0.2570   -1.6110 O   0  0  0  0  0  0  0  0  0  0  0  0
   -0.3920   -0.1420   -0.8210 C   0  0  0  0  0  0  0  0  0  0  0  0
   -0.5470   -1.3920   -0.8260 O   0  0  0  0  0  0  0  0  0  0  0  0
    3.4070    1.8490   -1.8180 O   0  0  0  0  0  0  0  0  0  0  0  0
    2.0210   -1.2240    0.5420 H   0  0  0  0  0  0  0  0  0  0  0  0
   -0.1050    0.9000    0.9410 H   0  0  0  0  0  0  0  0  0  0  0  0
    0.8470    2.2220   -0.7940 H   0  0  0  0  0  0  0  0  0  0  0  0
    1.9560    1.9410    0.5540 H   0  0  0  0  0  0  0  0  0  0  0  0
    4.1110    1.5160   -2.4910 H   0  0  0  0  0  0  0  0  0  0  0  0
   -3.5450    2.1570   -2.4870 C   0  0  0  0  0  0  0  0  0  0  0  0
   -3.4240    0.6680   -2.3980 C   0  0  1  0  0  0  0  0  0  0  0  0
   -4.2380    0.0930   -3.3620 O   0  0  0  0  0  0  0  0  0  0  0  0
   -2.0140    0.1890   -2.6400 C   0  0  2  0  0  0  0  0  0  0  0  0
   -1.0790    0.7320   -1.6950 N   0  0  0  0  0  0  0  0  0  0  0  0
   -1.6570    0.5180   -4.0460 C   0  0  0  0  0  0  0  0  0  0  0  0
   -0.6340    1.2060   -4.2530 O   0  0  0  0  0  0  0  0  0  0  0  0
   -2.4150    0.0910   -5.0990 O   0  0  0  0  0  0  0  0  0  0  0  0
   -4.1150    2.4960   -1.5760 H   0  0  0  0  0  0  0  0  0  0  0  0
   -4.1230    2.5340   -3.3540 H   0  0  0  0  0  0  0  0  0  0  0  0
   -2.5610    2.6670   -2.5250 H   0  0  0  0  0  0  0  0  0  0  0  0
   -3.7820    0.2640   -1.4090 H   0  0  0  0  0  0  0  0  0  0  0  0
   -5.1700    0.4220   -3.3350 H   0  0  0  0  0  0  0  0  0  0  0  0
   -2.0230   -0.8990   -2.5490 H   0  0  0  0  0  0  0  0  0  0  0  0
   -0.9290    1.7620   -1.6870 H   0  0  0  0  0  0  0  0  0  0  0  0
  1 11  1  0  0  0  0
  1  9  1  0  0  0  0
  1 10  1  0  0  0  0
  2  1  1  0  0  0  0
  3  4  1  0  0  0  0
  3 14  1  1  0  0  0
  3  2  1  0  0  0  0
  4 15  1  0  0  0  0
  4 17  1  0  0  0  0
  5 18  1  6  0  0  0
  5  3  1  0  0  0  0
  6  5  1  0  0  0  0
  6 20  1  0  0  0  0
  7  8  2  0  0  0  0
  7  5  1  0  0  0  0
 12  2  1  0  0  0  0
 13  2  1  0  0  0  0
 16  4  1  0  0  0  0
 19  6  1  0  0  0  0
 21  7  1  0  0  0  0
 22 21  1  0  0  0  0
 22 30  1  1  0  0  0
 23 22  1  0  0  0  0
 23 32  1  0  0  0  0
 24 23  1  0  0  0  0
 25 24  2  0  0  0  0
 26 22  1  0  0  0  0
 27 26  2  0  0  0  0
 28 24  1  0  0  0  0
 29 21  1  0  0  0  0
 31 23  1  0  0  0  0
 33 28  1  0  0  0  0
 34 35  1  0  0  0  0
 34 42  1  0  0  0  0
 35 45  1  1  0  0  0
 36 46  1  0  0  0  0
 36 35  1  0  0  0  0
 37 47  1  1  0  0  0
 37 35  1  0  0  0  0
 37 38  1  0  0  0  0
 38 48  1  0  0  0  0
 38 26  1  0  0  0  0
 39 37  1  0  0  0  0
 40 39  1  0  0  0  0
 41 39  2  0  0  0  0
 43 34  1  0  0  0  0
 44 34  1  0  0  0  0
M  END
$$$$
