IDV.pdb
 OpenBabel07022418403D

 50 49  0  0  1  0  0  0  0  0999 V2000
    2.5220   -2.5750   -2.6720 C   0  0  0  0  0  0  0  0  0  0  0  0
    3.5340   -2.2260   -1.6160 C   0  0  0  0  0  0  0  0  0  0  0  0
    3.2390   -2.7880   -0.2810 C   0  0  2  0  0  0  0  0  0  0  0  0
    3.1880   -4.2950   -0.3350 C   0  0  0  0  0  0  0  0  0  0  0  0
    1.9640   -2.3010    0.3490 C   0  0  2  0  0  0  0  0  0  0  0  0
    0.7800   -2.5780   -0.3970 N   0  0  0  0  0  0  0  0  0  0  0  0
    2.0120   -0.8720    0.7230 C   0  0  0  0  0  0  0  0  0  0  0  0
    2.9840   -0.4070    1.3930 O   0  0  0  0  0  0  0  0  0  0  0  0
    3.0200   -2.3460   -3.6610 H   0  0  0  0  0  0  0  0  0  0  0  0
    2.2600   -3.6410   -2.7280 H   0  0  0  0  0  0  0  0  0  0  0  0
    1.6340   -1.9120   -2.6490 H   0  0  0  0  0  0  0  0  0  0  0  0
    3.7010   -1.1470   -1.6530 H   0  0  0  0  0  0  0  0  0  0  0  0
    4.5060   -2.6910   -1.9570 H   0  0  0  0  0  0  0  0  0  0  0  0
    4.0530   -2.5250    0.4470 H   0  0  0  0  0  0  0  0  0  0  0  0
    2.1870   -4.7120   -0.1010 H   0  0  0  0  0  0  0  0  0  0  0  0
    3.4210   -4.6080   -1.3680 H   0  0  0  0  0  0  0  0  0  0  0  0
    3.9580   -4.7670    0.3410 H   0  0  0  0  0  0  0  0  0  0  0  0
    1.8660   -2.9010    1.3060 H   0  0  0  0  0  0  0  0  0  0  0  0
    0.7540   -3.4970   -0.8680 H   0  0  0  0  0  0  0  0  0  0  0  0
   -0.0320   -2.5390    0.2740 H   0  0  0  0  0  0  0  0  0  0  0  0
    0.9460   -0.0290    0.3160 N   0  0  0  0  0  0  0  0  0  0  0  0
    0.9180    1.3590    0.6370 C   0  0  1  0  0  0  0  0  0  0  0  0
    0.9090    2.2730   -0.5490 C   0  0  0  0  0  0  0  0  0  0  0  0
   -0.2320    2.0960   -1.4410 C   0  0  0  0  0  0  0  0  0  0  0  0
   -1.1500    1.2680   -1.2700 O   0  0  0  0  0  0  0  0  0  0  0  0
   -0.2030    1.6160    1.5710 C   0  0  0  0  0  0  0  0  0  0  0  0
   -0.3780    2.7970    1.9610 O   0  0  0  0  0  0  0  0  0  0  0  0
   -0.3220    2.9020   -2.5720 O   0  0  0  0  0  0  0  0  0  0  0  0
    0.1230   -0.3990   -0.2470 H   0  0  0  0  0  0  0  0  0  0  0  0
    1.8510    1.5910    1.2300 H   0  0  0  0  0  0  0  0  0  0  0  0
    0.8890    3.3140   -0.1660 H   0  0  0  0  0  0  0  0  0  0  0  0
    1.8520    2.1550   -1.1020 H   0  0  0  0  0  0  0  0  0  0  0  0
   -1.0170    2.7950   -3.2890 H   0  0  0  0  0  0  0  0  0  0  0  0
   -3.5760   -1.0100    1.9010 C   0  0  0  0  0  0  0  0  0  0  0  0
   -3.4590    0.4240    2.3050 C   0  0  0  0  0  0  0  0  0  0  0  0
   -4.5800    0.7600    3.2650 C   0  0  0  0  0  0  0  0  0  0  0  0
   -2.1140    0.7820    2.8900 C   0  0  2  0  0  0  0  0  0  0  0  0
   -1.0290    0.5580    1.9920 N   0  0  0  0  0  0  0  0  0  0  0  0
   -1.9300    0.0510    4.1720 C   0  0  0  0  0  0  0  0  0  0  0  0
   -2.8110    0.1550    5.0620 O   0  0  0  0  0  0  0  0  0  0  0  0
   -0.8310   -0.7480    4.4440 O   0  0  0  0  0  0  0  0  0  0  0  0
   -2.6960   -1.3180    1.3020 H   0  0  0  0  0  0  0  0  0  0  0  0
   -3.7660   -1.6510    2.7690 H   0  0  0  0  0  0  0  0  0  0  0  0
   -4.4590   -1.1060    1.2300 H   0  0  0  0  0  0  0  0  0  0  0  0
   -3.6290    1.0490    1.3910 H   0  0  0  0  0  0  0  0  0  0  0  0
   -4.8700   -0.1530    3.8290 H   0  0  0  0  0  0  0  0  0  0  0  0
   -4.3400    1.6180    3.9060 H   0  0  0  0  0  0  0  0  0  0  0  0
   -5.4940    1.0340    2.6670 H   0  0  0  0  0  0  0  0  0  0  0  0
   -2.1520    1.8570    3.1500 H   0  0  0  0  0  0  0  0  0  0  0  0
   -0.8360   -0.3940    1.6360 H   0  0  0  0  0  0  0  0  0  0  0  0
  1 11  1  0  0  0  0
  1  2  1  0  0  0  0
  2  3  1  0  0  0  0
  3  5  1  0  0  0  0
  3 14  1  1  0  0  0
  4  3  1  0  0  0  0
  4 15  1  0  0  0  0
  4 17  1  0  0  0  0
  5  7  1  0  0  0  0
  5 18  1  1  0  0  0
  6 20  1  0  0  0  0
  6  5  1  0  0  0  0
  7  8  2  0  0  0  0
  9  1  1  0  0  0  0
 10  1  1  0  0  0  0
 12  2  1  0  0  0  0
 13  2  1  0  0  0  0
 16  4  1  0  0  0  0
 19  6  1  0  0  0  0
 21 22  1  0  0  0  0
 21  7  1  0  0  0  0
 22 30  1  1  0  0  0
 22 26  1  0  0  0  0
 23 31  1  0  0  0  0
 23 22  1  0  0  0  0
 24 25  2  0  0  0  0
 24 23  1  0  0  0  0
 26 27  2  0  0  0  0
 26 38  1  0  0  0  0
 28 24  1  0  0  0  0
 29 21  1  0  0  0  0
 32 23  1  0  0  0  0
 33 28  1  0  0  0  0
 34 35  1  0  0  0  0
 34 43  1  0  0  0  0
 35 37  1  0  0  0  0
 35 36  1  0  0  0  0
 36 46  1  0  0  0  0
 36 47  1  0  0  0  0
 37 49  1  1  0  0  0
 37 39  1  0  0  0  0
 38 37  1  0  0  0  0
 39 41  2  0  0  0  0
 39 40  1  0  0  0  0
 42 34  1  0  0  0  0
 44 34  1  0  0  0  0
 45 35  1  0  0  0  0
 48 36  1  0  0  0  0
 50 38  1  0  0  0  0
M  END
$$$$
