IDW.pdb
 OpenBabel07022418403D

 58 59  0  0  1  0  0  0  0  0999 V2000
    1.2890   -1.6090    2.5000 C   0  0  0  0  0  0  0  0  0  0  0  0
    2.7580   -1.3680    2.6080 C   0  0  0  0  0  0  0  0  0  0  0  0
    3.1760   -0.3430    3.6060 C   0  0  2  0  0  0  0  0  0  0  0  0
    2.7070   -0.6680    5.0100 C   0  0  0  0  0  0  0  0  0  0  0  0
    3.1360    1.0770    3.2200 C   0  0  2  0  0  0  0  0  0  0  0  0
    3.5760    1.8650    4.3930 N   0  0  0  0  0  0  0  0  0  0  0  0
    1.9250    1.6330    2.6390 C   0  0  0  0  0  0  0  0  0  0  0  0
    1.1400    2.2840    3.4120 O   0  0  0  0  0  0  0  0  0  0  0  0
    0.9330   -2.3680    3.2460 H   0  0  0  0  0  0  0  0  0  0  0  0
    0.6510   -0.7350    2.5210 H   0  0  0  0  0  0  0  0  0  0  0  0
    1.1170   -2.1280    1.5120 H   0  0  0  0  0  0  0  0  0  0  0  0
    3.2310   -2.3750    2.8170 H   0  0  0  0  0  0  0  0  0  0  0  0
    3.1340   -1.1070    1.5860 H   0  0  0  0  0  0  0  0  0  0  0  0
    4.3270   -0.5640    3.7120 H   0  0  0  0  0  0  0  0  0  0  0  0
    2.8680   -1.7210    5.2300 H   0  0  0  0  0  0  0  0  0  0  0  0
    3.2650   -0.0610    5.7490 H   0  0  0  0  0  0  0  0  0  0  0  0
    1.6390   -0.4380    5.1230 H   0  0  0  0  0  0  0  0  0  0  0  0
    3.9610    1.2630    2.4680 H   0  0  0  0  0  0  0  0  0  0  0  0
    2.8040    1.9430    5.0800 H   0  0  0  0  0  0  0  0  0  0  0  0
    4.4410    1.4400    4.7920 H   0  0  0  0  0  0  0  0  0  0  0  0
    1.5290    1.5280    1.2770 N   0  0  0  0  0  0  0  0  0  0  0  0
    0.2650    2.1580    0.8310 C   0  0  1  0  0  0  0  0  0  0  0  0
    0.7000    3.2760   -0.0950 C   0  0  0  0  0  0  0  0  0  0  0  0
   -0.3460    4.1000   -0.6570 C   0  0  0  0  0  0  0  0  0  0  0  0
   -1.5430    3.9830   -0.3200 O   0  0  0  0  0  0  0  0  0  0  0  0
   -0.5330    1.2010    0.0390 C   0  0  0  0  0  0  0  0  0  0  0  0
   -1.6900    1.4840   -0.3490 O   0  0  0  0  0  0  0  0  0  0  0  0
   -0.1100    5.0970   -1.6260 O   0  0  0  0  0  0  0  0  0  0  0  0
    2.1450    1.0170    0.6250 H   0  0  0  0  0  0  0  0  0  0  0  0
   -0.3050    2.5390    1.6750 H   0  0  0  0  0  0  0  0  0  0  0  0
    1.5030    3.8960    0.3780 H   0  0  0  0  0  0  0  0  0  0  0  0
    1.2000    2.7410   -0.9590 H   0  0  0  0  0  0  0  0  0  0  0  0
   -0.8260    5.2750   -2.3470 H   0  0  0  0  0  0  0  0  0  0  0  0
   -0.0780   -0.1020   -0.3530 N   0  0  0  0  0  0  0  0  0  0  0  0
   -0.8580   -1.0320   -1.1290 C   0  0  1  0  0  0  0  0  0  0  0  0
   -1.9820   -1.6430   -0.3630 C   0  0  0  0  0  0  0  0  0  0  0  0
   -2.7950   -2.6060   -1.1380 C   0  0  0  0  0  0  0  0  0  0  0  0
   -4.0520   -2.4840   -1.6930 C   0  0  0  0  0  0  0  0  0  0  0  0
   -4.3870   -3.6320   -2.3040 N   0  0  0  0  0  0  0  0  0  0  0  0
   -3.3950   -4.5340   -2.1810 C   0  0  0  0  0  0  0  0  0  0  0  0
   -3.2170   -5.8530   -2.6120 C   0  0  0  0  0  0  0  0  0  0  0  0
   -2.0640   -6.5580   -2.3340 C   0  0  0  0  0  0  0  0  0  0  0  0
   -1.0790   -5.9200   -1.6120 C   0  0  0  0  0  0  0  0  0  0  0  0
   -1.2510   -4.6180   -1.1850 C   0  0  0  0  0  0  0  0  0  0  0  0
   -2.4000   -3.9100   -1.4600 C   0  0  0  0  0  0  0  0  0  0  0  0
   -1.4040   -0.4460   -2.3900 C   0  0  0  0  0  0  0  0  0  0  0  0
   -2.1340   -1.1590   -3.1170 O   0  0  0  0  0  0  0  0  0  0  0  0
   -1.1190    0.8510   -2.7640 O   0  0  0  0  0  0  0  0  0  0  0  0
    0.8860   -0.3490   -0.0410 H   0  0  0  0  0  0  0  0  0  0  0  0
   -0.1170   -1.8000   -1.5230 H   0  0  0  0  0  0  0  0  0  0  0  0
   -2.6880   -0.7920   -0.1250 H   0  0  0  0  0  0  0  0  0  0  0  0
   -1.6710   -2.0600    0.6190 H   0  0  0  0  0  0  0  0  0  0  0  0
   -4.6300   -1.5550   -1.6060 H   0  0  0  0  0  0  0  0  0  0  0  0
   -5.2790   -3.8320   -2.8090 H   0  0  0  0  0  0  0  0  0  0  0  0
   -4.0190   -6.3030   -3.1730 H   0  0  0  0  0  0  0  0  0  0  0  0
   -1.9230   -7.5920   -2.6720 H   0  0  0  0  0  0  0  0  0  0  0  0
   -0.1670   -6.4360   -1.3760 H   0  0  0  0  0  0  0  0  0  0  0  0
   -0.4850   -4.0920   -0.6120 H   0  0  0  0  0  0  0  0  0  0  0  0
  1 10  1  0  0  0  0
  1  2  1  0  0  0  0
  1  9  1  0  0  0  0
  2 12  1  0  0  0  0
  2  3  1  0  0  0  0
  3 14  1  1  0  0  0
  3  4  1  0  0  0  0
  4 17  1  0  0  0  0
  4 15  1  0  0  0  0
  4 16  1  0  0  0  0
  5 18  1  6  0  0  0
  5  3  1  0  0  0  0
  5  6  1  0  0  0  0
  6 20  1  0  0  0  0
  6 19  1  0  0  0  0
  7  5  1  0  0  0  0
  7  8  2  0  0  0  0
 11  1  1  0  0  0  0
 13  2  1  0  0  0  0
 21  7  1  0  0  0  0
 22 21  1  0  0  0  0
 22 30  1  1  0  0  0
 23 31  1  0  0  0  0
 23 22  1  0  0  0  0
 24 25  2  0  0  0  0
 24 23  1  0  0  0  0
 26 22  1  0  0  0  0
 27 26  2  0  0  0  0
 28 24  1  0  0  0  0
 29 21  1  0  0  0  0
 32 23  1  0  0  0  0
 33 28  1  0  0  0  0
 34 49  1  0  0  0  0
 34 26  1  0  0  0  0
 35 50  1  6  0  0  0
 35 36  1  0  0  0  0
 35 34  1  0  0  0  0
 36 51  1  0  0  0  0
 36 52  1  0  0  0  0
 37 36  1  0  0  0  0
 38 53  1  0  0  0  0
 38 37  2  0  0  0  0
 39 40  1  0  0  0  0
 39 38  1  0  0  0  0
 40 45  1  0  0  0  0
 41 42  1  0  0  0  0
 41 40  2  0  0  0  0
 42 43  2  0  0  0  0
 43 57  1  0  0  0  0
 43 44  1  0  0  0  0
 44 58  1  0  0  0  0
 45 44  2  0  0  0  0
 45 37  1  0  0  0  0
 46 35  1  0  0  0  0
 47 46  2  0  0  0  0
 48 46  1  0  0  0  0
 54 39  1  0  0  0  0
 55 41  1  0  0  0  0
 56 42  1  0  0  0  0
M  END
$$$$
