IDY.pdb
 OpenBabel07022418403D

 55 55  0  0  1  0  0  0  0  0999 V2000
   -0.4030    0.1280    2.8430 C   0  0  0  0  0  0  0  0  0  0  0  0
    0.5610   -0.9290    3.2920 C   0  0  0  0  0  0  0  0  0  0  0  0
    1.9020   -0.4110    3.6510 C   0  0  2  0  0  0  0  0  0  0  0  0
    1.9190    0.6180    4.7460 C   0  0  0  0  0  0  0  0  0  0  0  0
    2.7980   -0.1010    2.4850 C   0  0  2  0  0  0  0  0  0  0  0  0
    4.0660    0.4220    3.0090 N   0  0  0  0  0  0  0  0  0  0  0  0
    2.1810    0.8460    1.5380 C   0  0  0  0  0  0  0  0  0  0  0  0
    2.4290    2.0660    1.7100 O   0  0  0  0  0  0  0  0  0  0  0  0
   -1.1860    0.2280    3.6620 H   0  0  0  0  0  0  0  0  0  0  0  0
   -0.9770   -0.0980    1.9460 H   0  0  0  0  0  0  0  0  0  0  0  0
    0.0310    1.1480    2.7810 H   0  0  0  0  0  0  0  0  0  0  0  0
    0.6750   -1.6370    2.4190 H   0  0  0  0  0  0  0  0  0  0  0  0
    0.0900   -1.5530    4.0750 H   0  0  0  0  0  0  0  0  0  0  0  0
    2.4380   -1.3160    4.1470 H   0  0  0  0  0  0  0  0  0  0  0  0
    1.3750    0.2030    5.6040 H   0  0  0  0  0  0  0  0  0  0  0  0
    2.9880    0.7250    5.0810 H   0  0  0  0  0  0  0  0  0  0  0  0
    1.5730    1.6170    4.4270 H   0  0  0  0  0  0  0  0  0  0  0  0
    3.0470   -1.0840    1.9910 H   0  0  0  0  0  0  0  0  0  0  0  0
    4.7740    0.3210    2.2360 H   0  0  0  0  0  0  0  0  0  0  0  0
    4.3700   -0.2570    3.7420 H   0  0  0  0  0  0  0  0  0  0  0  0
    1.3300    0.4460    0.4420 N   0  0  0  0  0  0  0  0  0  0  0  0
    0.8150    1.4920   -0.3850 C   0  0  1  0  0  0  0  0  0  0  0  0
    1.7160    1.6420   -1.6530 C   0  0  0  0  0  0  0  0  0  0  0  0
    1.7420    0.3990   -2.4290 C   0  0  0  0  0  0  0  0  0  0  0  0
    0.8060    0.1170   -3.2120 O   0  0  0  0  0  0  0  0  0  0  0  0
   -0.5180    1.3000   -0.9390 C   0  0  0  0  0  0  0  0  0  0  0  0
   -0.9940    2.3000   -1.5870 O   0  0  0  0  0  0  0  0  0  0  0  0
    2.7970   -0.4870   -2.3150 O   0  0  0  0  0  0  0  0  0  0  0  0
    1.1630   -0.5550    0.3460 H   0  0  0  0  0  0  0  0  0  0  0  0
    0.8810    2.5040    0.0540 H   0  0  0  0  0  0  0  0  0  0  0  0
    1.2530    2.4910   -2.1980 H   0  0  0  0  0  0  0  0  0  0  0  0
    2.7210    1.9550   -1.3590 H   0  0  0  0  0  0  0  0  0  0  0  0
    2.9590   -1.2420   -3.0040 H   0  0  0  0  0  0  0  0  0  0  0  0
   -1.4080   -6.0770   -0.0250 O   0  0  0  0  0  0  0  0  0  0  0  0
   -1.7120   -4.8520   -0.6160 C   0  0  0  0  0  0  0  0  0  0  0  0
   -3.0170   -4.4150   -0.6920 C   0  0  0  0  0  0  0  0  0  0  0  0
   -3.3190   -3.1860   -1.2850 C   0  0  0  0  0  0  0  0  0  0  0  0
   -2.3460   -2.3670   -1.8110 C   0  0  0  0  0  0  0  0  0  0  0  0
   -2.6790   -1.0620   -2.4360 C   0  0  0  0  0  0  0  0  0  0  0  0
   -2.6370    0.0470   -1.4190 C   0  0  2  0  0  0  0  0  0  0  0  0
   -1.3110    0.1400   -0.8320 N   0  0  0  0  0  0  0  0  0  0  0  0
   -3.6970   -0.1590   -0.4080 C   0  0  0  0  0  0  0  0  0  0  0  0
   -3.4850   -0.2600    0.8270 O   0  0  0  0  0  0  0  0  0  0  0  0
   -1.0300   -2.8200   -1.7280 C   0  0  0  0  0  0  0  0  0  0  0  0
   -0.7350   -4.0330   -1.1430 C   0  0  0  0  0  0  0  0  0  0  0  0
   -5.0090   -0.2470   -0.8430 O   0  0  0  0  0  0  0  0  0  0  0  0
   -0.9060   -6.0890    0.8610 H   0  0  0  0  0  0  0  0  0  0  0  0
   -3.8170   -5.0350   -0.2850 H   0  0  0  0  0  0  0  0  0  0  0  0
   -4.3570   -2.8590   -1.3370 H   0  0  0  0  0  0  0  0  0  0  0  0
   -2.0490   -0.8480   -3.3170 H   0  0  0  0  0  0  0  0  0  0  0  0
   -3.7270   -1.1430   -2.8180 H   0  0  0  0  0  0  0  0  0  0  0  0
   -2.8690    0.9960   -1.9360 H   0  0  0  0  0  0  0  0  0  0  0  0
   -0.9060   -0.6610   -0.3200 H   0  0  0  0  0  0  0  0  0  0  0  0
   -0.2770   -2.1710   -2.1420 H   0  0  0  0  0  0  0  0  0  0  0  0
    0.3080   -4.3720   -1.0870 H   0  0  0  0  0  0  0  0  0  0  0  0
  1  2  1  0  0  0  0
  1  9  1  0  0  0  0
  2  3  1  0  0  0  0
  2 13  1  0  0  0  0
  3 14  1  1  0  0  0
  3  4  1  0  0  0  0
  4 16  1  0  0  0  0
  4 15  1  0  0  0  0
  5 18  1  6  0  0  0
  5  6  1  0  0  0  0
  5  3  1  0  0  0  0
  6 20  1  0  0  0  0
  7  8  2  0  0  0  0
  7  5  1  0  0  0  0
 10  1  1  0  0  0  0
 11  1  1  0  0  0  0
 12  2  1  0  0  0  0
 17  4  1  0  0  0  0
 19  6  1  0  0  0  0
 21  7  1  0  0  0  0
 22 30  1  1  0  0  0
 22 21  1  0  0  0  0
 23 32  1  0  0  0  0
 23 22  1  0  0  0  0
 24 28  1  0  0  0  0
 24 23  1  0  0  0  0
 25 24  2  0  0  0  0
 26 41  1  0  0  0  0
 26 22  1  0  0  0  0
 27 26  2  0  0  0  0
 29 21  1  0  0  0  0
 31 23  1  0  0  0  0
 33 28  1  0  0  0  0
 34 47  1  0  0  0  0
 35 34  1  0  0  0  0
 36 35  1  0  0  0  0
 36 48  1  0  0  0  0
 37 36  2  0  0  0  0
 38 44  2  0  0  0  0
 38 37  1  0  0  0  0
 39 38  1  0  0  0  0
 39 40  1  0  0  0  0
 40 52  1  6  0  0  0
 40 41  1  0  0  0  0
 40 42  1  0  0  0  0
 41 53  1  0  0  0  0
 42 43  1  0  0  0  0
 44 45  1  0  0  0  0
 45 55  1  0  0  0  0
 45 35  2  0  0  0  0
 46 42  2  0  0  0  0
 49 37  1  0  0  0  0
 50 39  1  0  0  0  0
 51 39  1  0  0  0  0
 54 44  1  0  0  0  0
M  END
$$$$
