IEA.pdb
 OpenBabel07022418403D

 47 46  0  0  1  0  0  0  0  0999 V2000
    2.9980   -5.5060    2.8010 C   0  0  0  0  0  0  0  0  0  0  0  0
    2.5240   -5.0130    1.4570 C   0  0  0  0  0  0  0  0  0  0  0  0
    1.4930   -3.9350    1.6930 C   0  0  2  0  0  0  0  0  0  0  0  0
    0.3570   -4.5140    2.4660 C   0  0  0  0  0  0  0  0  0  0  0  0
    1.0500   -3.2920    0.3940 C   0  0  2  0  0  0  0  0  0  0  0  0
    2.1570   -2.6910   -0.2820 N   0  0  0  0  0  0  0  0  0  0  0  0
    0.0240   -2.2480    0.7430 C   0  0  0  0  0  0  0  0  0  0  0  0
   -1.0370   -2.5480    1.3410 O   0  0  0  0  0  0  0  0  0  0  0  0
    4.0910   -5.6990    2.8160 H   0  0  0  0  0  0  0  0  0  0  0  0
    2.7860   -4.7150    3.5460 H   0  0  0  0  0  0  0  0  0  0  0  0
    2.4220   -6.4070    3.1060 H   0  0  0  0  0  0  0  0  0  0  0  0
    2.0800   -5.8650    0.8780 H   0  0  0  0  0  0  0  0  0  0  0  0
    3.4130   -4.6030    0.9210 H   0  0  0  0  0  0  0  0  0  0  0  0
    2.0290   -3.1200    2.2600 H   0  0  0  0  0  0  0  0  0  0  0  0
    0.6350   -5.4460    2.9970 H   0  0  0  0  0  0  0  0  0  0  0  0
   -0.5210   -4.7730    1.8350 H   0  0  0  0  0  0  0  0  0  0  0  0
    0.0100   -3.8120    3.2770 H   0  0  0  0  0  0  0  0  0  0  0  0
    0.5170   -4.0600   -0.1980 H   0  0  0  0  0  0  0  0  0  0  0  0
    2.9400   -2.5830    0.4010 H   0  0  0  0  0  0  0  0  0  0  0  0
    2.4520   -3.3380   -1.0580 H   0  0  0  0  0  0  0  0  0  0  0  0
    0.2110   -0.8800    0.4100 N   0  0  0  0  0  0  0  0  0  0  0  0
   -0.7690    0.1360    0.7400 C   0  0  1  0  0  0  0  0  0  0  0  0
   -0.2100    1.1550    1.7140 C   0  0  0  0  0  0  0  0  0  0  0  0
    0.9960    1.8630    1.1440 C   0  0  0  0  0  0  0  0  0  0  0  0
    1.4620    2.8320    2.1720 C   0  0  0  0  0  0  0  0  0  0  0  0
    2.4620    3.5560    1.9450 O   0  0  0  0  0  0  0  0  0  0  0  0
   -1.2130    0.8570   -0.4800 C   0  0  0  0  0  0  0  0  0  0  0  0
   -0.7300    0.5390   -1.6030 O   0  0  0  0  0  0  0  0  0  0  0  0
    0.8310    2.9830    3.4050 O   0  0  0  0  0  0  0  0  0  0  0  0
    1.0780   -0.6030   -0.0850 H   0  0  0  0  0  0  0  0  0  0  0  0
   -1.6030   -0.3790    1.2590 H   0  0  0  0  0  0  0  0  0  0  0  0
   -0.9920    1.9250    1.8770 H   0  0  0  0  0  0  0  0  0  0  0  0
    0.0440    0.7250    2.6910 H   0  0  0  0  0  0  0  0  0  0  0  0
    0.7190    2.4540    0.2500 H   0  0  0  0  0  0  0  0  0  0  0  0
    1.8160    1.1410    0.9280 H   0  0  0  0  0  0  0  0  0  0  0  0
    1.2030    3.5420    4.1580 H   0  0  0  0  0  0  0  0  0  0  0  0
   -4.0990    2.2760   -1.8030 C   0  0  0  0  0  0  0  0  0  0  0  0
   -2.6110    2.6180   -1.6420 C   0  0  2  0  0  0  0  0  0  0  0  0
   -2.1640    1.9010   -0.4620 N   0  0  0  0  0  0  0  0  0  0  0  0
   -2.4450    4.0740   -1.4930 C   0  0  0  0  0  0  0  0  0  0  0  0
   -1.9730    4.6230   -0.4690 O   0  0  0  0  0  0  0  0  0  0  0  0
   -2.8350    4.8810   -2.5530 O   0  0  0  0  0  0  0  0  0  0  0  0
   -4.5920    2.5820   -0.8620 H   0  0  0  0  0  0  0  0  0  0  0  0
   -4.2080    1.1750   -1.8880 H   0  0  0  0  0  0  0  0  0  0  0  0
   -4.5210    2.7350   -2.7030 H   0  0  0  0  0  0  0  0  0  0  0  0
   -2.0920    2.2180   -2.5500 H   0  0  0  0  0  0  0  0  0  0  0  0
   -2.5780    2.1820    0.4530 H   0  0  0  0  0  0  0  0  0  0  0  0
  1  9  1  0  0  0  0
  1 11  1  0  0  0  0
  1 10  1  0  0  0  0
  2  3  1  0  0  0  0
  2  1  1  0  0  0  0
  3 14  1  1  0  0  0
  3  4  1  0  0  0  0
  4 15  1  0  0  0  0
  4 17  1  0  0  0  0
  5 18  1  6  0  0  0
  5  7  1  0  0  0  0
  5  3  1  0  0  0  0
  6  5  1  0  0  0  0
  6 19  1  0  0  0  0
  7  8  2  0  0  0  0
 12  2  1  0  0  0  0
 13  2  1  0  0  0  0
 16  4  1  0  0  0  0
 20  6  1  0  0  0  0
 21 22  1  0  0  0  0
 21  7  1  0  0  0  0
 22 31  1  1  0  0  0
 22 23  1  0  0  0  0
 23 32  1  0  0  0  0
 23 33  1  0  0  0  0
 24 23  1  0  0  0  0
 24 25  1  0  0  0  0
 25 29  1  0  0  0  0
 26 25  2  0  0  0  0
 27 39  1  0  0  0  0
 27 22  1  0  0  0  0
 28 27  2  0  0  0  0
 29 36  1  0  0  0  0
 30 21  1  0  0  0  0
 34 24  1  0  0  0  0
 35 24  1  0  0  0  0
 37 38  1  0  0  0  0
 37 43  1  0  0  0  0
 38 46  1  6  0  0  0
 38 40  1  0  0  0  0
 38 39  1  0  0  0  0
 39 47  1  0  0  0  0
 40 41  1  0  0  0  0
 42 40  2  0  0  0  0
 44 37  1  0  0  0  0
 45 37  1  0  0  0  0
M  END
$$$$
