IED.pdb
 OpenBabel07022418403D

 50 49  0  0  1  0  0  0  0  0999 V2000
    2.5240   -4.4510    3.0950 C   0  0  0  0  0  0  0  0  0  0  0  0
    2.5640   -3.0240    2.5320 C   0  0  0  0  0  0  0  0  0  0  0  0
    1.4750   -2.2770    3.2620 C   0  0  2  0  0  0  0  0  0  0  0  0
    0.1570   -2.9080    3.0070 C   0  0  0  0  0  0  0  0  0  0  0  0
    1.5850   -0.8190    3.0110 C   0  0  2  0  0  0  0  0  0  0  0  0
    0.5700   -0.0410    3.6880 N   0  0  0  0  0  0  0  0  0  0  0  0
    1.5430   -0.4500    1.5480 C   0  0  0  0  0  0  0  0  0  0  0  0
    2.3870   -0.9320    0.7540 O   0  0  0  0  0  0  0  0  0  0  0  0
    2.9400   -5.1110    2.3120 H   0  0  0  0  0  0  0  0  0  0  0  0
    3.2540   -4.5350    3.9480 H   0  0  0  0  0  0  0  0  0  0  0  0
    1.5020   -4.6780    3.4000 H   0  0  0  0  0  0  0  0  0  0  0  0
    3.5760   -2.6310    2.7320 H   0  0  0  0  0  0  0  0  0  0  0  0
    2.3250   -3.1380    1.4560 H   0  0  0  0  0  0  0  0  0  0  0  0
    1.7220   -2.4220    4.3610 H   0  0  0  0  0  0  0  0  0  0  0  0
    0.2640   -3.6430    2.1690 H   0  0  0  0  0  0  0  0  0  0  0  0
   -0.6800   -2.2180    2.7860 H   0  0  0  0  0  0  0  0  0  0  0  0
   -0.1680   -3.5090    3.8800 H   0  0  0  0  0  0  0  0  0  0  0  0
    2.5630   -0.4740    3.4040 H   0  0  0  0  0  0  0  0  0  0  0  0
    0.9100    0.5040    4.4820 H   0  0  0  0  0  0  0  0  0  0  0  0
   -0.3500   -0.4680    3.7620 H   0  0  0  0  0  0  0  0  0  0  0  0
    0.5670    0.4360    1.0500 N   0  0  0  0  0  0  0  0  0  0  0  0
    0.4060    0.8960   -0.2730 C   0  0  1  0  0  0  0  0  0  0  0  0
    1.6370    0.8310   -1.1610 C   0  0  0  0  0  0  0  0  0  0  0  0
    2.7210    1.7050   -0.6390 C   0  0  0  0  0  0  0  0  0  0  0  0
    2.2190    3.1250   -0.6170 C   0  0  0  0  0  0  0  0  0  0  0  0
    2.0720    3.7930   -1.6650 O   0  0  0  0  0  0  0  0  0  0  0  0
   -0.8030    0.4180   -0.9560 C   0  0  0  0  0  0  0  0  0  0  0  0
   -1.0260    0.8070   -2.1320 O   0  0  0  0  0  0  0  0  0  0  0  0
    1.9090    3.7190    0.5910 O   0  0  0  0  0  0  0  0  0  0  0  0
   -0.1280    0.7910    1.7770 H   0  0  0  0  0  0  0  0  0  0  0  0
    0.2890    2.0500   -0.1860 H   0  0  0  0  0  0  0  0  0  0  0  0
    1.3030    1.2910   -2.1390 H   0  0  0  0  0  0  0  0  0  0  0  0
    1.9620   -0.1770   -1.4100 H   0  0  0  0  0  0  0  0  0  0  0  0
    3.5980    1.7030   -1.3410 H   0  0  0  0  0  0  0  0  0  0  0  0
    3.1110    1.5030    0.3420 H   0  0  0  0  0  0  0  0  0  0  0  0
    1.3420    4.5670    0.5690 H   0  0  0  0  0  0  0  0  0  0  0  0
   -1.6540   -0.4590   -0.2500 N   0  0  0  0  0  0  0  0  0  0  0  0
   -2.8730   -1.0260   -0.6890 C   0  0  1  0  0  0  0  0  0  0  0  0
   -3.3320   -0.5330   -2.0700 C   0  0  0  0  0  0  0  0  0  0  0  0
   -3.6210    0.9110   -1.9760 C   0  0  0  0  0  0  0  0  0  0  0  0
   -3.6160    1.4720   -0.8550 O   0  0  0  0  0  0  0  0  0  0  0  0
   -3.0760   -2.4460   -0.4710 C   0  0  0  0  0  0  0  0  0  0  0  0
   -2.2450   -3.2200    0.0840 O   0  0  0  0  0  0  0  0  0  0  0  0
   -3.9060    1.7090   -3.0650 O   0  0  0  0  0  0  0  0  0  0  0  0
   -4.2610   -3.0330   -0.8900 O   0  0  0  0  0  0  0  0  0  0  0  0
   -1.3440   -0.7370    0.7500 H   0  0  0  0  0  0  0  0  0  0  0  0
   -3.6970   -0.4780   -0.0470 H   0  0  0  0  0  0  0  0  0  0  0  0
   -2.5830   -0.7800   -2.8450 H   0  0  0  0  0  0  0  0  0  0  0  0
   -4.2950   -1.0700   -2.2650 H   0  0  0  0  0  0  0  0  0  0  0  0
   -4.7020    2.3520   -3.0780 H   0  0  0  0  0  0  0  0  0  0  0  0
  1 11  1  0  0  0  0
  1 10  1  0  0  0  0
  2 12  1  0  0  0  0
  2  1  1  0  0  0  0
  2  3  1  0  0  0  0
  3 14  1  1  0  0  0
  4  3  1  0  0  0  0
  4 17  1  0  0  0  0
  5  3  1  0  0  0  0
  5 18  1  1  0  0  0
  5  6  1  0  0  0  0
  6 20  1  0  0  0  0
  6 19  1  0  0  0  0
  7  5  1  0  0  0  0
  8  7  2  0  0  0  0
  9  1  1  0  0  0  0
 13  2  1  0  0  0  0
 15  4  1  0  0  0  0
 16  4  1  0  0  0  0
 21  7  1  0  0  0  0
 21 30  1  0  0  0  0
 22 31  1  1  0  0  0
 22 21  1  0  0  0  0
 23 24  1  0  0  0  0
 23 22  1  0  0  0  0
 24 25  1  0  0  0  0
 24 35  1  0  0  0  0
 25 29  1  0  0  0  0
 26 25  2  0  0  0  0
 27 22  1  0  0  0  0
 27 37  1  0  0  0  0
 28 27  2  0  0  0  0
 32 23  1  0  0  0  0
 33 23  1  0  0  0  0
 34 24  1  0  0  0  0
 36 29  1  0  0  0  0
 37 46  1  0  0  0  0
 38 42  1  0  0  0  0
 38 37  1  0  0  0  0
 38 47  1  1  0  0  0
 39 40  1  0  0  0  0
 39 38  1  0  0  0  0
 40 41  2  0  0  0  0
 42 43  1  0  0  0  0
 44 40  1  0  0  0  0
 45 42  2  0  0  0  0
 48 39  1  0  0  0  0
 49 39  1  0  0  0  0
 50 44  1  0  0  0  0
M  END
$$$$
