IEE.pdb
 OpenBabel07022418403D

 53 52  0  0  1  0  0  0  0  0999 V2000
    0.9470    1.5580    5.1160 C   0  0  0  0  0  0  0  0  0  0  0  0
    1.6210    0.7170    4.0290 C   0  0  0  0  0  0  0  0  0  0  0  0
    0.6510   -0.2890    3.5370 C   0  0  2  0  0  0  0  0  0  0  0  0
    0.2170   -1.1780    4.7110 C   0  0  0  0  0  0  0  0  0  0  0  0
    1.0410   -1.1170    2.3810 C   0  0  2  0  0  0  0  0  0  0  0  0
    2.2610   -1.8820    2.5960 N   0  0  0  0  0  0  0  0  0  0  0  0
    0.8770   -0.6090    1.0220 C   0  0  0  0  0  0  0  0  0  0  0  0
    1.7760   -0.8690    0.1320 O   0  0  0  0  0  0  0  0  0  0  0  0
    1.3200    2.5990    5.1000 H   0  0  0  0  0  0  0  0  0  0  0  0
    1.0780    1.0480    6.0950 H   0  0  0  0  0  0  0  0  0  0  0  0
   -0.1430    1.6010    4.9470 H   0  0  0  0  0  0  0  0  0  0  0  0
    2.0360    1.4200    3.3230 H   0  0  0  0  0  0  0  0  0  0  0  0
    2.4340    0.1380    4.5730 H   0  0  0  0  0  0  0  0  0  0  0  0
   -0.2860    0.2700    3.2320 H   0  0  0  0  0  0  0  0  0  0  0  0
    1.0370   -1.3320    5.4320 H   0  0  0  0  0  0  0  0  0  0  0  0
   -0.6980   -0.7660    5.1640 H   0  0  0  0  0  0  0  0  0  0  0  0
   -0.0390   -2.1760    4.2910 H   0  0  0  0  0  0  0  0  0  0  0  0
    0.2430   -1.9820    2.4110 H   0  0  0  0  0  0  0  0  0  0  0  0
    2.9910   -1.3300    3.1010 H   0  0  0  0  0  0  0  0  0  0  0  0
    2.1230   -2.7440    3.1660 H   0  0  0  0  0  0  0  0  0  0  0  0
   -0.1980    0.1670    0.5150 N   0  0  0  0  0  0  0  0  0  0  0  0
   -0.3000    0.5810   -0.8510 C   0  0  1  0  0  0  0  0  0  0  0  0
    0.7420    1.4610   -1.4130 C   0  0  0  0  0  0  0  0  0  0  0  0
    0.8910    2.8020   -0.7680 C   0  0  0  0  0  0  0  0  0  0  0  0
    1.2520    2.6890    0.6500 C   0  0  0  0  0  0  0  0  0  0  0  0
    2.4770    2.3930    0.9090 O   0  0  0  0  0  0  0  0  0  0  0  0
   -0.5530   -0.6090   -1.7640 C   0  0  0  0  0  0  0  0  0  0  0  0
   -0.5470   -0.3480   -2.9870 O   0  0  0  0  0  0  0  0  0  0  0  0
    0.4100    2.8690    1.7190 O   0  0  0  0  0  0  0  0  0  0  0  0
   -0.9330    0.4330    1.1990 H   0  0  0  0  0  0  0  0  0  0  0  0
   -1.2770    1.1860   -0.9070 H   0  0  0  0  0  0  0  0  0  0  0  0
    1.7450    0.9560   -1.3540 H   0  0  0  0  0  0  0  0  0  0  0  0
    0.5890    1.6260   -2.5280 H   0  0  0  0  0  0  0  0  0  0  0  0
    1.6690    3.3790   -1.3190 H   0  0  0  0  0  0  0  0  0  0  0  0
   -0.0790    3.3730   -0.8090 H   0  0  0  0  0  0  0  0  0  0  0  0
    0.7230    3.3090    2.5760 H   0  0  0  0  0  0  0  0  0  0  0  0
   -0.7730   -1.8900   -1.2190 N   0  0  0  0  0  0  0  0  0  0  0  0
   -1.0330   -3.0950   -1.9560 C   0  0  1  0  0  0  0  0  0  0  0  0
   -1.5910   -2.8670   -3.3190 C   0  0  0  0  0  0  0  0  0  0  0  0
   -2.9300   -2.2010   -3.3230 C   0  0  0  0  0  0  0  0  0  0  0  0
   -4.0130   -2.9730   -2.6830 C   0  0  0  0  0  0  0  0  0  0  0  0
   -5.1450   -2.4010   -2.5920 O   0  0  0  0  0  0  0  0  0  0  0  0
    0.0470   -4.0760   -1.8900 C   0  0  0  0  0  0  0  0  0  0  0  0
   -0.0440   -5.1960   -2.4980 O   0  0  0  0  0  0  0  0  0  0  0  0
   -3.8940   -4.2490   -2.1850 O   0  0  0  0  0  0  0  0  0  0  0  0
    1.2170   -3.8630   -1.1800 O   0  0  0  0  0  0  0  0  0  0  0  0
   -0.7440   -1.9190   -0.1460 H   0  0  0  0  0  0  0  0  0  0  0  0
   -1.9410   -3.5540   -1.3840 H   0  0  0  0  0  0  0  0  0  0  0  0
   -0.8900   -2.3650   -4.0210 H   0  0  0  0  0  0  0  0  0  0  0  0
   -1.7530   -3.9110   -3.7560 H   0  0  0  0  0  0  0  0  0  0  0  0
   -2.9280   -1.2150   -2.7790 H   0  0  0  0  0  0  0  0  0  0  0  0
   -3.2300   -1.9160   -4.3840 H   0  0  0  0  0  0  0  0  0  0  0  0
   -4.4600   -4.6030   -1.3940 H   0  0  0  0  0  0  0  0  0  0  0  0
  1 10  1  0  0  0  0
  2 13  1  0  0  0  0
  2  1  1  0  0  0  0
  3 14  1  6  0  0  0
  3  2  1  0  0  0  0
  3  4  1  0  0  0  0
  4 16  1  0  0  0  0
  4 15  1  0  0  0  0
  5 18  1  1  0  0  0
  5  6  1  0  0  0  0
  5  3  1  0  0  0  0
  6 19  1  0  0  0  0
  6 20  1  0  0  0  0
  7  5  1  0  0  0  0
  8  7  2  0  0  0  0
  9  1  1  0  0  0  0
 11  1  1  0  0  0  0
 12  2  1  0  0  0  0
 17  4  1  0  0  0  0
 21  7  1  0  0  0  0
 21 30  1  0  0  0  0
 22 31  1  6  0  0  0
 22 21  1  0  0  0  0
 23 32  1  0  0  0  0
 23 22  1  0  0  0  0
 23 24  1  0  0  0  0
 24 25  1  0  0  0  0
 25 26  2  0  0  0  0
 25 29  1  0  0  0  0
 27 37  1  0  0  0  0
 27 22  1  0  0  0  0
 28 27  2  0  0  0  0
 29 36  1  0  0  0  0
 33 23  1  0  0  0  0
 34 24  1  0  0  0  0
 35 24  1  0  0  0  0
 37 47  1  0  0  0  0
 38 43  1  0  0  0  0
 38 48  1  1  0  0  0
 38 37  1  0  0  0  0
 39 38  1  0  0  0  0
 40 39  1  0  0  0  0
 40 51  1  0  0  0  0
 40 41  1  0  0  0  0
 41 42  2  0  0  0  0
 41 45  1  0  0  0  0
 43 46  1  0  0  0  0
 44 43  2  0  0  0  0
 45 53  1  0  0  0  0
 49 39  1  0  0  0  0
 50 39  1  0  0  0  0
 52 40  1  0  0  0  0
M  END
$$$$
