IEF.pdb
 OpenBabel07022418403D

 57 57  0  0  1  0  0  0  0  0999 V2000
    2.6630   -3.1590    1.6590 C   0  0  0  0  0  0  0  0  0  0  0  0
    2.3670   -1.7830    1.0370 C   0  0  0  0  0  0  0  0  0  0  0  0
    2.9790   -0.7000    1.8610 C   0  0  2  0  0  0  0  0  0  0  0  0
    2.4270   -0.7010    3.2730 C   0  0  0  0  0  0  0  0  0  0  0  0
    3.0280    0.6510    1.2910 C   0  0  2  0  0  0  0  0  0  0  0  0
    3.6700    1.5270    2.2790 N   0  0  0  0  0  0  0  0  0  0  0  0
    1.8190    1.2900    0.8210 C   0  0  0  0  0  0  0  0  0  0  0  0
    1.5140    2.4170    1.3580 O   0  0  0  0  0  0  0  0  0  0  0  0
    3.7340   -3.1350    1.9440 H   0  0  0  0  0  0  0  0  0  0  0  0
    2.0950   -3.2880    2.6040 H   0  0  0  0  0  0  0  0  0  0  0  0
    2.4700   -3.9640    0.9180 H   0  0  0  0  0  0  0  0  0  0  0  0
    2.7100   -1.8320    0.0110 H   0  0  0  0  0  0  0  0  0  0  0  0
    1.2630   -1.6930    1.1680 H   0  0  0  0  0  0  0  0  0  0  0  0
    4.0600   -1.0230    2.0010 H   0  0  0  0  0  0  0  0  0  0  0  0
    2.5670    0.2980    3.7010 H   0  0  0  0  0  0  0  0  0  0  0  0
    3.0000   -1.4040    3.9470 H   0  0  0  0  0  0  0  0  0  0  0  0
    1.3630   -1.0180    3.2350 H   0  0  0  0  0  0  0  0  0  0  0  0
    3.7600    0.6800    0.4210 H   0  0  0  0  0  0  0  0  0  0  0  0
    2.9390    2.0620    2.7540 H   0  0  0  0  0  0  0  0  0  0  0  0
    4.2980    0.9560    2.8460 H   0  0  0  0  0  0  0  0  0  0  0  0
    0.9340    0.7930   -0.1780 N   0  0  0  0  0  0  0  0  0  0  0  0
   -0.2480    1.5390   -0.5640 C   0  0  1  0  0  0  0  0  0  0  0  0
   -0.0140    2.0260   -1.9760 C   0  0  0  0  0  0  0  0  0  0  0  0
   -1.1280    2.8200   -2.5710 C   0  0  0  0  0  0  0  0  0  0  0  0
   -1.4670    4.0590   -1.8600 C   0  0  0  0  0  0  0  0  0  0  0  0
   -0.8410    4.4490   -0.8540 O   0  0  0  0  0  0  0  0  0  0  0  0
   -1.5070    0.8430   -0.3560 C   0  0  0  0  0  0  0  0  0  0  0  0
   -2.5810    1.4730   -0.6360 O   0  0  0  0  0  0  0  0  0  0  0  0
   -2.5220    4.8570   -2.2940 O   0  0  0  0  0  0  0  0  0  0  0  0
    1.1500   -0.1130   -0.6280 H   0  0  0  0  0  0  0  0  0  0  0  0
   -0.2850    2.4580    0.0790 H   0  0  0  0  0  0  0  0  0  0  0  0
    0.8880    2.7000   -1.9790 H   0  0  0  0  0  0  0  0  0  0  0  0
    0.2190    1.1880   -2.6700 H   0  0  0  0  0  0  0  0  0  0  0  0
   -2.0350    2.1900   -2.7440 H   0  0  0  0  0  0  0  0  0  0  0  0
   -0.7860    3.1560   -3.6090 H   0  0  0  0  0  0  0  0  0  0  0  0
   -2.9660    5.4470   -1.6070 H   0  0  0  0  0  0  0  0  0  0  0  0
   -1.7090   -0.4670    0.1240 N   0  0  0  0  0  0  0  0  0  0  0  0
   -2.9910   -1.0870    0.3020 C   0  0  1  0  0  0  0  0  0  0  0  0
   -3.1770   -2.3230   -0.5350 C   0  0  0  0  0  0  0  0  0  0  0  0
   -2.2050   -3.3790   -0.2560 C   0  0  0  0  0  0  0  0  0  0  0  0
   -1.0210   -3.4040   -0.9620 C   0  0  0  0  0  0  0  0  0  0  0  0
   -0.0550   -4.3650   -0.7610 C   0  0  0  0  0  0  0  0  0  0  0  0
   -0.2700   -5.3430    0.1770 C   0  0  0  0  0  0  0  0  0  0  0  0
   -1.4270   -5.3550    0.8970 C   0  0  0  0  0  0  0  0  0  0  0  0
   -2.3890   -4.3760    0.6800 C   0  0  0  0  0  0  0  0  0  0  0  0
   -3.2380   -1.4060    1.7210 C   0  0  0  0  0  0  0  0  0  0  0  0
   -4.3250   -1.9580    2.0560 O   0  0  0  0  0  0  0  0  0  0  0  0
   -2.3410   -1.1400    2.7510 O   0  0  0  0  0  0  0  0  0  0  0  0
   -0.8630   -1.0220    0.3640 H   0  0  0  0  0  0  0  0  0  0  0  0
   -3.7680   -0.3520   -0.0050 H   0  0  0  0  0  0  0  0  0  0  0  0
   -4.2290   -2.6540   -0.4020 H   0  0  0  0  0  0  0  0  0  0  0  0
   -3.0930   -2.0740   -1.6290 H   0  0  0  0  0  0  0  0  0  0  0  0
   -0.8470   -2.6330   -1.7050 H   0  0  0  0  0  0  0  0  0  0  0  0
    0.8680   -4.3490   -1.3410 H   0  0  0  0  0  0  0  0  0  0  0  0
    0.5040   -6.0970    0.3260 H   0  0  0  0  0  0  0  0  0  0  0  0
   -1.5700   -6.1450    1.6370 H   0  0  0  0  0  0  0  0  0  0  0  0
   -3.3020   -4.3730    1.2360 H   0  0  0  0  0  0  0  0  0  0  0  0
  1  9  1  0  0  0  0
  1 10  1  0  0  0  0
  2 13  1  0  0  0  0
  2  1  1  0  0  0  0
  2  3  1  0  0  0  0
  3 14  1  1  0  0  0
  3  4  1  0  0  0  0
  4 15  1  0  0  0  0
  4 16  1  0  0  0  0
  5 18  1  6  0  0  0
  5  3  1  0  0  0  0
  5  6  1  0  0  0  0
  6 19  1  0  0  0  0
  6 20  1  0  0  0  0
  7  5  1  0  0  0  0
  7  8  2  0  0  0  0
 11  1  1  0  0  0  0
 12  2  1  0  0  0  0
 17  4  1  0  0  0  0
 21  7  1  0  0  0  0
 22 27  1  0  0  0  0
 22 21  1  0  0  0  0
 22 31  1  1  0  0  0
 23 22  1  0  0  0  0
 24 23  1  0  0  0  0
 24 25  1  0  0  0  0
 25 26  2  0  0  0  0
 27 37  1  0  0  0  0
 28 27  2  0  0  0  0
 29 25  1  0  0  0  0
 29 36  1  0  0  0  0
 30 21  1  0  0  0  0
 32 23  1  0  0  0  0
 33 23  1  0  0  0  0
 34 24  1  0  0  0  0
 35 24  1  0  0  0  0
 37 38  1  0  0  0  0
 37 49  1  0  0  0  0
 38 50  1  6  0  0  0
 38 46  1  0  0  0  0
 39 51  1  0  0  0  0
 39 40  1  0  0  0  0
 39 38  1  0  0  0  0
 40 45  1  0  0  0  0
 41 42  1  0  0  0  0
 41 40  2  0  0  0  0
 42 43  2  0  0  0  0
 43 55  1  0  0  0  0
 43 44  1  0  0  0  0
 44 56  1  0  0  0  0
 45 44  2  0  0  0  0
 45 57  1  0  0  0  0
 46 47  2  0  0  0  0
 46 48  1  0  0  0  0
 52 39  1  0  0  0  0
 53 41  1  0  0  0  0
 54 42  1  0  0  0  0
M  END
$$$$
