IEG.pdb
 OpenBabel07022418403D

 44 43  0  0  1  0  0  0  0  0999 V2000
    1.1180   -4.6370    2.0660 C   0  0  0  0  0  0  0  0  0  0  0  0
    2.0590   -3.9170    1.1580 C   0  0  0  0  0  0  0  0  0  0  0  0
    1.4590   -3.4960   -0.1480 C   0  0  2  0  0  0  0  0  0  0  0  0
    2.5440   -2.7820   -0.9430 C   0  0  0  0  0  0  0  0  0  0  0  0
    0.2330   -2.6520   -0.0320 C   0  0  2  0  0  0  0  0  0  0  0  0
   -0.2200   -2.3320   -1.3730 N   0  0  0  0  0  0  0  0  0  0  0  0
    0.4300   -1.4400    0.7920 C   0  0  0  0  0  0  0  0  0  0  0  0
    0.8180   -1.6200    1.9810 O   0  0  0  0  0  0  0  0  0  0  0  0
    0.0840   -4.7010    1.7140 H   0  0  0  0  0  0  0  0  0  0  0  0
    1.4380   -5.6930    2.2780 H   0  0  0  0  0  0  0  0  0  0  0  0
    1.1880   -4.1300    3.0720 H   0  0  0  0  0  0  0  0  0  0  0  0
    2.6100   -3.0790    1.6560 H   0  0  0  0  0  0  0  0  0  0  0  0
    2.8790   -4.6500    0.8970 H   0  0  0  0  0  0  0  0  0  0  0  0
    1.2120   -4.4190   -0.7150 H   0  0  0  0  0  0  0  0  0  0  0  0
    2.8050   -1.8460   -0.4400 H   0  0  0  0  0  0  0  0  0  0  0  0
    2.2330   -2.5590   -1.9760 H   0  0  0  0  0  0  0  0  0  0  0  0
    3.4220   -3.4750   -0.9840 H   0  0  0  0  0  0  0  0  0  0  0  0
   -0.5720   -3.2550    0.4350 H   0  0  0  0  0  0  0  0  0  0  0  0
   -0.2950   -3.2620   -1.8750 H   0  0  0  0  0  0  0  0  0  0  0  0
   -1.2000   -1.9670   -1.3460 H   0  0  0  0  0  0  0  0  0  0  0  0
    0.2040   -0.1300    0.3040 N   0  0  0  0  0  0  0  0  0  0  0  0
    0.4310    1.0000    1.2050 C   0  0  1  0  0  0  0  0  0  0  0  0
    1.4160    1.9640    0.6030 C   0  0  0  0  0  0  0  0  0  0  0  0
    1.7220    3.1560    1.4440 C   0  0  0  0  0  0  0  0  0  0  0  0
    2.3130    2.8480    2.7630 C   0  0  0  0  0  0  0  0  0  0  0  0
    2.5610    1.6730    3.1000 O   0  0  0  0  0  0  0  0  0  0  0  0
   -0.8830    1.6770    1.3800 C   0  0  0  0  0  0  0  0  0  0  0  0
   -1.0170    2.6900    2.1320 O   0  0  0  0  0  0  0  0  0  0  0  0
    2.6210    3.8370    3.6860 O   0  0  0  0  0  0  0  0  0  0  0  0
   -0.1100    0.0360   -0.6630 H   0  0  0  0  0  0  0  0  0  0  0  0
    0.7800    0.5900    2.1620 H   0  0  0  0  0  0  0  0  0  0  0  0
    2.3810    1.3930    0.5050 H   0  0  0  0  0  0  0  0  0  0  0  0
    1.1310    2.3000   -0.4040 H   0  0  0  0  0  0  0  0  0  0  0  0
    0.8690    3.8650    1.5760 H   0  0  0  0  0  0  0  0  0  0  0  0
    2.5210    3.7410    0.9010 H   0  0  0  0  0  0  0  0  0  0  0  0
    2.5090    3.5850    4.6720 H   0  0  0  0  0  0  0  0  0  0  0  0
   -2.0270    1.1930    0.6960 N   0  0  0  0  0  0  0  0  0  0  0  0
   -3.3340    1.8390    0.8480 C   0  0  0  0  0  0  0  0  0  0  0  0
   -4.3550    1.1400    0.0300 C   0  0  0  0  0  0  0  0  0  0  0  0
   -5.5490    1.5270    0.0110 O   0  0  0  0  0  0  0  0  0  0  0  0
   -4.0410    0.0350   -0.7460 O   0  0  0  0  0  0  0  0  0  0  0  0
   -1.9680    0.3770    0.0780 H   0  0  0  0  0  0  0  0  0  0  0  0
   -3.6330    1.9060    1.9080 H   0  0  0  0  0  0  0  0  0  0  0  0
   -3.2120    2.8740    0.4660 H   0  0  0  0  0  0  0  0  0  0  0  0
  1 10  1  0  0  0  0
  1 11  1  0  0  0  0
  2 12  1  0  0  0  0
  2  1  1  0  0  0  0
  3 14  1  6  0  0  0
  3  5  1  0  0  0  0
  3  2  1  0  0  0  0
  4 15  1  0  0  0  0
  4  3  1  0  0  0  0
  5 18  1  1  0  0  0
  5  7  1  0  0  0  0
  6 20  1  0  0  0  0
  6  5  1  0  0  0  0
  7  8  2  0  0  0  0
  9  1  1  0  0  0  0
 13  2  1  0  0  0  0
 16  4  1  0  0  0  0
 17  4  1  0  0  0  0
 19  6  1  0  0  0  0
 21  7  1  0  0  0  0
 21 22  1  0  0  0  0
 22 27  1  0  0  0  0
 22 31  1  1  0  0  0
 23 22  1  0  0  0  0
 23 24  1  0  0  0  0
 24 34  1  0  0  0  0
 24 25  1  0  0  0  0
 25 26  2  0  0  0  0
 25 29  1  0  0  0  0
 27 28  2  0  0  0  0
 29 36  1  0  0  0  0
 30 21  1  0  0  0  0
 32 23  1  0  0  0  0
 33 23  1  0  0  0  0
 35 24  1  0  0  0  0
 37 38  1  0  0  0  0
 37 27  1  0  0  0  0
 38 43  1  0  0  0  0
 39 38  1  0  0  0  0
 40 39  1  0  0  0  0
 41 39  2  0  0  0  0
 42 37  1  0  0  0  0
 44 38  1  0  0  0  0
M  END
$$$$
