IEI.pdb
 OpenBabel07022418403D

 56 55  0  0  1  0  0  0  0  0999 V2000
   -0.3950   -1.8280    5.3890 C   0  0  0  0  0  0  0  0  0  0  0  0
    0.3400   -1.4930    4.0690 C   0  0  0  0  0  0  0  0  0  0  0  0
    1.6390   -0.8180    4.4050 C   0  0  2  0  0  0  0  0  0  0  0  0
    1.4090    0.4500    5.1750 C   0  0  0  0  0  0  0  0  0  0  0  0
    2.6330   -0.7080    3.3280 C   0  0  2  0  0  0  0  0  0  0  0  0
    3.8060   -0.0100    3.8920 N   0  0  0  0  0  0  0  0  0  0  0  0
    2.2310   -0.1090    2.0530 C   0  0  0  0  0  0  0  0  0  0  0  0
    2.8260    0.9760    1.7470 O   0  0  0  0  0  0  0  0  0  0  0  0
   -0.8920   -2.8120    5.3580 H   0  0  0  0  0  0  0  0  0  0  0  0
    0.3350   -1.8680    6.2330 H   0  0  0  0  0  0  0  0  0  0  0  0
   -1.1410   -1.0690    5.6600 H   0  0  0  0  0  0  0  0  0  0  0  0
    0.4520   -2.4720    3.5740 H   0  0  0  0  0  0  0  0  0  0  0  0
   -0.3700   -0.8920    3.4970 H   0  0  0  0  0  0  0  0  0  0  0  0
    2.1220   -1.5200    5.1720 H   0  0  0  0  0  0  0  0  0  0  0  0
    0.4870    0.9440    4.7650 H   0  0  0  0  0  0  0  0  0  0  0  0
    2.2680    1.1220    5.2030 H   0  0  0  0  0  0  0  0  0  0  0  0
    1.1280    0.2400    6.2450 H   0  0  0  0  0  0  0  0  0  0  0  0
    3.0320   -1.7300    3.1000 H   0  0  0  0  0  0  0  0  0  0  0  0
    4.0100   -0.3220    4.8290 H   0  0  0  0  0  0  0  0  0  0  0  0
    3.7240    1.0250    3.7610 H   0  0  0  0  0  0  0  0  0  0  0  0
    1.3020   -0.5680    1.1480 N   0  0  0  0  0  0  0  0  0  0  0  0
    0.7590   -0.1900   -0.0640 C   0  0  1  0  0  0  0  0  0  0  0  0
    1.3090    0.7400   -1.0440 C   0  0  0  0  0  0  0  0  0  0  0  0
    1.4310    2.1650   -0.6210 C   0  0  0  0  0  0  0  0  0  0  0  0
    0.0980    2.7160   -0.1920 C   0  0  0  0  0  0  0  0  0  0  0  0
   -0.2330    2.6450    1.0170 O   0  0  0  0  0  0  0  0  0  0  0  0
    0.2400   -1.4040   -0.7560 C   0  0  0  0  0  0  0  0  0  0  0  0
    0.4520   -2.5240   -0.1900 O   0  0  0  0  0  0  0  0  0  0  0  0
   -0.8070    3.3120   -1.0650 O   0  0  0  0  0  0  0  0  0  0  0  0
    0.8480   -1.5330    1.5200 H   0  0  0  0  0  0  0  0  0  0  0  0
   -0.2020    0.4290    0.2830 H   0  0  0  0  0  0  0  0  0  0  0  0
    0.5970    0.7610   -1.9240 H   0  0  0  0  0  0  0  0  0  0  0  0
    2.2510    0.3760   -1.5530 H   0  0  0  0  0  0  0  0  0  0  0  0
    1.6100    2.8060   -1.6010 H   0  0  0  0  0  0  0  0  0  0  0  0
    2.2680    2.4870   -0.0250 H   0  0  0  0  0  0  0  0  0  0  0  0
   -1.7120    3.6560   -0.7800 H   0  0  0  0  0  0  0  0  0  0  0  0
   -4.3350   -1.6100   -3.7080 C   0  0  0  0  0  0  0  0  0  0  0  0
   -2.8280   -1.5180   -3.5920 C   0  0  0  0  0  0  0  0  0  0  0  0
   -2.4010   -2.6560   -2.6660 C   0  0  2  0  0  0  0  0  0  0  0  0
   -3.1040   -2.3850   -1.3490 C   0  0  0  0  0  0  0  0  0  0  0  0
   -0.9070   -2.7090   -2.5400 C   0  0  2  0  0  0  0  0  0  0  0  0
   -0.4600   -1.4290   -1.9720 N   0  0  0  0  0  0  0  0  0  0  0  0
   -0.2360   -2.9460   -3.8430 C   0  0  0  0  0  0  0  0  0  0  0  0
   -0.5290   -4.0270   -4.4440 O   0  0  0  0  0  0  0  0  0  0  0  0
    0.6700   -2.0780   -4.4360 O   0  0  0  0  0  0  0  0  0  0  0  0
   -4.6540   -2.6610   -3.5550 H   0  0  0  0  0  0  0  0  0  0  0  0
   -4.8490   -1.0020   -2.9390 H   0  0  0  0  0  0  0  0  0  0  0  0
   -4.6530   -1.1970   -4.6790 H   0  0  0  0  0  0  0  0  0  0  0  0
   -2.3230   -1.6100   -4.5840 H   0  0  0  0  0  0  0  0  0  0  0  0
   -2.5080   -0.5590   -3.1510 H   0  0  0  0  0  0  0  0  0  0  0  0
   -2.7850   -3.6170   -3.0470 H   0  0  0  0  0  0  0  0  0  0  0  0
   -4.1310   -2.8180   -1.3650 H   0  0  0  0  0  0  0  0  0  0  0  0
   -2.6090   -2.8280   -0.4740 H   0  0  0  0  0  0  0  0  0  0  0  0
   -3.2710   -1.2750   -1.2210 H   0  0  0  0  0  0  0  0  0  0  0  0
   -0.6330   -3.5500   -1.8710 H   0  0  0  0  0  0  0  0  0  0  0  0
   -0.6570   -0.5260   -2.4430 H   0  0  0  0  0  0  0  0  0  0  0  0
  1 11  1  0  0  0  0
  1 10  1  0  0  0  0
  2  3  1  0  0  0  0
  2  1  1  0  0  0  0
  3 14  1  1  0  0  0
  3  4  1  0  0  0  0
  4 16  1  0  0  0  0
  4 17  1  0  0  0  0
  5 18  1  6  0  0  0
  5  6  1  0  0  0  0
  5  3  1  0  0  0  0
  6 19  1  0  0  0  0
  7  5  1  0  0  0  0
  8  7  2  0  0  0  0
  9  1  1  0  0  0  0
 12  2  1  0  0  0  0
 13  2  1  0  0  0  0
 15  4  1  0  0  0  0
 20  6  1  0  0  0  0
 21 30  1  0  0  0  0
 21  7  1  0  0  0  0
 22 31  1  1  0  0  0
 22 21  1  0  0  0  0
 23 24  1  0  0  0  0
 23 22  1  0  0  0  0
 24 25  1  0  0  0  0
 24 35  1  0  0  0  0
 25 26  2  0  0  0  0
 27 28  2  0  0  0  0
 27 22  1  0  0  0  0
 29 36  1  0  0  0  0
 29 25  1  0  0  0  0
 32 23  1  0  0  0  0
 33 23  1  0  0  0  0
 34 24  1  0  0  0  0
 37 38  1  0  0  0  0
 37 46  1  0  0  0  0
 37 47  1  0  0  0  0
 38 50  1  0  0  0  0
 38 39  1  0  0  0  0
 39 51  1  6  0  0  0
 39 41  1  0  0  0  0
 39 40  1  0  0  0  0
 40 54  1  0  0  0  0
 40 53  1  0  0  0  0
 41 42  1  0  0  0  0
 41 55  1  1  0  0  0
 42 27  1  0  0  0  0
 43 41  1  0  0  0  0
 44 43  2  0  0  0  0
 45 43  1  0  0  0  0
 48 37  1  0  0  0  0
 49 38  1  0  0  0  0
 52 40  1  0  0  0  0
 56 42  1  0  0  0  0
M  END
$$$$
