IEK.pdb
 OpenBabel07022418403D

 58 57  0  0  1  0  0  0  0  0999 V2000
    4.1520   -0.8090    2.1540 C   0  0  0  0  0  0  0  0  0  0  0  0
    3.2570   -0.3940    3.2880 C   0  0  0  0  0  0  0  0  0  0  0  0
    2.2830   -1.4810    3.6840 C   0  0  2  0  0  0  0  0  0  0  0  0
    2.9670   -2.7440    4.1330 C   0  0  0  0  0  0  0  0  0  0  0  0
    1.2710   -1.7350    2.5820 C   0  0  2  0  0  0  0  0  0  0  0  0
    1.9200   -2.1520    1.3550 N   0  0  0  0  0  0  0  0  0  0  0  0
    0.4840   -0.4990    2.3860 C   0  0  0  0  0  0  0  0  0  0  0  0
   -0.1520   -0.0020    3.3650 O   0  0  0  0  0  0  0  0  0  0  0  0
    5.1330   -0.2890    2.1830 H   0  0  0  0  0  0  0  0  0  0  0  0
    4.3510   -1.8880    2.1250 H   0  0  0  0  0  0  0  0  0  0  0  0
    3.6820   -0.5030    1.1830 H   0  0  0  0  0  0  0  0  0  0  0  0
    2.6460    0.5020    3.0430 H   0  0  0  0  0  0  0  0  0  0  0  0
    3.8990   -0.1510    4.1560 H   0  0  0  0  0  0  0  0  0  0  0  0
    1.7280   -1.0890    4.5710 H   0  0  0  0  0  0  0  0  0  0  0  0
    3.5830   -2.4880    5.0180 H   0  0  0  0  0  0  0  0  0  0  0  0
    3.4990   -3.2790    3.3480 H   0  0  0  0  0  0  0  0  0  0  0  0
    2.1440   -3.4280    4.4810 H   0  0  0  0  0  0  0  0  0  0  0  0
    0.6510   -2.5930    2.9180 H   0  0  0  0  0  0  0  0  0  0  0  0
    1.2210   -2.2090    0.6050 H   0  0  0  0  0  0  0  0  0  0  0  0
    2.2430   -3.1470    1.5250 H   0  0  0  0  0  0  0  0  0  0  0  0
    0.3800    0.1970    1.1570 N   0  0  0  0  0  0  0  0  0  0  0  0
   -0.4160    1.4260    1.0050 C   0  0  1  0  0  0  0  0  0  0  0  0
    0.4420    2.5500    0.5470 C   0  0  0  0  0  0  0  0  0  0  0  0
   -0.3250    3.8200    0.3810 C   0  0  0  0  0  0  0  0  0  0  0  0
   -0.9720    4.3350    1.6000 C   0  0  0  0  0  0  0  0  0  0  0  0
   -0.8610    3.8140    2.7330 O   0  0  0  0  0  0  0  0  0  0  0  0
   -1.5490    1.0970    0.1210 C   0  0  0  0  0  0  0  0  0  0  0  0
   -2.4140    1.9980   -0.1030 O   0  0  0  0  0  0  0  0  0  0  0  0
   -1.7860    5.4860    1.5650 O   0  0  0  0  0  0  0  0  0  0  0  0
    0.8860   -0.1710    0.3270 H   0  0  0  0  0  0  0  0  0  0  0  0
   -0.8690    1.6970    1.9890 H   0  0  0  0  0  0  0  0  0  0  0  0
    1.0180    2.2980   -0.3890 H   0  0  0  0  0  0  0  0  0  0  0  0
    1.2460    2.6960    1.3070 H   0  0  0  0  0  0  0  0  0  0  0  0
    0.4140    4.6600    0.0920 H   0  0  0  0  0  0  0  0  0  0  0  0
   -1.1000    3.7750   -0.4210 H   0  0  0  0  0  0  0  0  0  0  0  0
   -1.8650    6.0730    2.4050 H   0  0  0  0  0  0  0  0  0  0  0  0
   -1.6580   -0.1900   -0.4560 N   0  0  0  0  0  0  0  0  0  0  0  0
   -2.7320   -0.5670   -1.3190 C   0  0  1  0  0  0  0  0  0  0  0  0
   -2.3010   -0.8670   -2.7060 C   0  0  0  0  0  0  0  0  0  0  0  0
   -1.3220   -1.9550   -2.9060 C   0  0  0  0  0  0  0  0  0  0  0  0
   -1.7160   -3.3170   -2.4580 C   0  0  0  0  0  0  0  0  0  0  0  0
   -0.5290   -4.2380   -2.7950 C   0  0  0  0  0  0  0  0  0  0  0  0
   -0.7940   -5.5910   -2.4040 N   0  0  0  0  0  0  0  0  0  0  0  0
   -3.6030   -1.6270   -0.8060 C   0  0  0  0  0  0  0  0  0  0  0  0
   -4.5370   -2.0270   -1.5460 O   0  0  0  0  0  0  0  0  0  0  0  0
   -3.4890   -2.2330    0.4350 O   0  0  0  0  0  0  0  0  0  0  0  0
   -0.9210   -0.8840   -0.2350 H   0  0  0  0  0  0  0  0  0  0  0  0
   -3.4060    0.3510   -1.4020 H   0  0  0  0  0  0  0  0  0  0  0  0
   -1.9020    0.0390   -3.2450 H   0  0  0  0  0  0  0  0  0  0  0  0
   -3.2190   -1.1440   -3.3070 H   0  0  0  0  0  0  0  0  0  0  0  0
   -1.1490   -2.0280   -4.0220 H   0  0  0  0  0  0  0  0  0  0  0  0
   -0.3090   -1.7410   -2.5020 H   0  0  0  0  0  0  0  0  0  0  0  0
   -1.9070   -3.4430   -1.3950 H   0  0  0  0  0  0  0  0  0  0  0  0
   -2.5890   -3.6690   -3.0760 H   0  0  0  0  0  0  0  0  0  0  0  0
    0.3620   -3.8780   -2.2680 H   0  0  0  0  0  0  0  0  0  0  0  0
   -0.3050   -4.1730   -3.8920 H   0  0  0  0  0  0  0  0  0  0  0  0
   -0.3020   -5.7950   -1.5100 H   0  0  0  0  0  0  0  0  0  0  0  0
   -0.4180   -6.2260   -3.1420 H   0  0  0  0  0  0  0  0  0  0  0  0
  1  9  1  0  0  0  0
  1  2  1  0  0  0  0
  2  3  1  0  0  0  0
  2 13  1  0  0  0  0
  3  4  1  0  0  0  0
  3 14  1  1  0  0  0
  4 17  1  0  0  0  0
  4 15  1  0  0  0  0
  5 18  1  1  0  0  0
  5  3  1  0  0  0  0
  6 20  1  0  0  0  0
  6  5  1  0  0  0  0
  7  5  1  0  0  0  0
  7  8  2  0  0  0  0
 10  1  1  0  0  0  0
 11  1  1  0  0  0  0
 12  2  1  0  0  0  0
 16  4  1  0  0  0  0
 19  6  1  0  0  0  0
 21  7  1  0  0  0  0
 22 21  1  0  0  0  0
 22 31  1  1  0  0  0
 23 22  1  0  0  0  0
 23 33  1  0  0  0  0
 24 23  1  0  0  0  0
 24 25  1  0  0  0  0
 25 26  2  0  0  0  0
 27 22  1  0  0  0  0
 28 27  2  0  0  0  0
 29 25  1  0  0  0  0
 29 36  1  0  0  0  0
 30 21  1  0  0  0  0
 32 23  1  0  0  0  0
 34 24  1  0  0  0  0
 35 24  1  0  0  0  0
 37 47  1  0  0  0  0
 37 27  1  0  0  0  0
 38 48  1  6  0  0  0
 38 44  1  0  0  0  0
 38 37  1  0  0  0  0
 39 38  1  0  0  0  0
 40 39  1  0  0  0  0
 40 52  1  0  0  0  0
 40 41  1  0  0  0  0
 41 53  1  0  0  0  0
 42 41  1  0  0  0  0
 42 43  1  0  0  0  0
 42 55  1  0  0  0  0
 43 57  1  0  0  0  0
 44 46  1  0  0  0  0
 45 44  2  0  0  0  0
 49 39  1  0  0  0  0
 50 39  1  0  0  0  0
 51 40  1  0  0  0  0
 54 41  1  0  0  0  0
 56 42  1  0  0  0  0
 58 43  1  0  0  0  0
M  END
$$$$
