IEM.pdb
 OpenBabel07022418403D

 54 53  0  0  1  0  0  0  0  0999 V2000
    0.2300   -3.0610    2.5440 C   0  0  0  0  0  0  0  0  0  0  0  0
   -0.4990   -1.9020    3.1680 C   0  0  0  0  0  0  0  0  0  0  0  0
    0.3220   -1.0650    4.0940 C   0  0  2  0  0  0  0  0  0  0  0  0
   -0.4990    0.0780    4.6850 C   0  0  0  0  0  0  0  0  0  0  0  0
    1.6380   -0.5940    3.5850 C   0  0  2  0  0  0  0  0  0  0  0  0
    2.2030    0.1900    4.7300 N   0  0  0  0  0  0  0  0  0  0  0  0
    1.6390    0.2350    2.3850 C   0  0  0  0  0  0  0  0  0  0  0  0
    1.7380    1.5050    2.5760 O   0  0  0  0  0  0  0  0  0  0  0  0
   -0.1600   -3.2350    1.5010 H   0  0  0  0  0  0  0  0  0  0  0  0
    1.3030   -2.8690    2.4680 H   0  0  0  0  0  0  0  0  0  0  0  0
    0.0240   -3.9980    3.1430 H   0  0  0  0  0  0  0  0  0  0  0  0
   -0.8870   -1.2620    2.3290 H   0  0  0  0  0  0  0  0  0  0  0  0
   -1.3790   -2.3680    3.7100 H   0  0  0  0  0  0  0  0  0  0  0  0
    0.5630   -1.7330    4.9760 H   0  0  0  0  0  0  0  0  0  0  0  0
   -1.5250    0.1090    4.2630 H   0  0  0  0  0  0  0  0  0  0  0  0
   -0.6150   -0.0010    5.7850 H   0  0  0  0  0  0  0  0  0  0  0  0
    0.0540    1.0450    4.5130 H   0  0  0  0  0  0  0  0  0  0  0  0
    2.3170   -1.4410    3.4630 H   0  0  0  0  0  0  0  0  0  0  0  0
    3.2610    0.0840    4.6820 H   0  0  0  0  0  0  0  0  0  0  0  0
    1.9360   -0.2980    5.6150 H   0  0  0  0  0  0  0  0  0  0  0  0
    1.5520   -0.1640    1.0460 N   0  0  0  0  0  0  0  0  0  0  0  0
    1.5730    0.7790   -0.0750 C   0  0  1  0  0  0  0  0  0  0  0  0
    2.8700    0.6430   -0.8300 C   0  0  0  0  0  0  0  0  0  0  0  0
    2.9410    1.5800   -1.9810 C   0  0  0  0  0  0  0  0  0  0  0  0
    2.8940    2.9820   -1.5420 C   0  0  0  0  0  0  0  0  0  0  0  0
    2.9190    3.2840   -0.3390 O   0  0  0  0  0  0  0  0  0  0  0  0
    0.3990    0.5620   -0.9060 C   0  0  0  0  0  0  0  0  0  0  0  0
    0.1250    1.3580   -1.8760 O   0  0  0  0  0  0  0  0  0  0  0  0
    2.8180    4.0490   -2.4460 O   0  0  0  0  0  0  0  0  0  0  0  0
    1.4830   -1.1600    0.8120 H   0  0  0  0  0  0  0  0  0  0  0  0
    1.5080    1.7750    0.3990 H   0  0  0  0  0  0  0  0  0  0  0  0
    2.8740   -0.3930   -1.2440 H   0  0  0  0  0  0  0  0  0  0  0  0
    3.7520    0.8310   -0.1860 H   0  0  0  0  0  0  0  0  0  0  0  0
    2.1890    1.3760   -2.7830 H   0  0  0  0  0  0  0  0  0  0  0  0
    3.9700    1.4840   -2.4820 H   0  0  0  0  0  0  0  0  0  0  0  0
    2.2890    4.9000   -2.2260 H   0  0  0  0  0  0  0  0  0  0  0  0
   -4.4160   -4.0570   -1.3700 C   0  0  0  0  0  0  0  0  0  0  0  0
   -4.2540   -2.7150   -2.5600 S   0  0  0  0  0  0  0  0  0  0  0  0
   -2.5970   -2.4900   -3.1560 C   0  0  0  0  0  0  0  0  0  0  0  0
   -1.5650   -2.0400   -2.2140 C   0  0  0  0  0  0  0  0  0  0  0  0
   -1.6710   -0.6970   -1.5770 C   0  0  2  0  0  0  0  0  0  0  0  0
   -0.4740   -0.5280   -0.6790 N   0  0  0  0  0  0  0  0  0  0  0  0
   -2.8570   -0.5210   -0.7560 C   0  0  0  0  0  0  0  0  0  0  0  0
   -2.7570   -0.4570    0.4970 O   0  0  0  0  0  0  0  0  0  0  0  0
   -4.1220   -0.4100   -1.2750 O   0  0  0  0  0  0  0  0  0  0  0  0
   -3.5150   -4.1750   -0.7280 H   0  0  0  0  0  0  0  0  0  0  0  0
   -4.4970   -5.0060   -1.9430 H   0  0  0  0  0  0  0  0  0  0  0  0
   -5.3510   -3.9470   -0.8000 H   0  0  0  0  0  0  0  0  0  0  0  0
   -2.2990   -3.4550   -3.6690 H   0  0  0  0  0  0  0  0  0  0  0  0
   -2.6360   -1.7620   -4.0150 H   0  0  0  0  0  0  0  0  0  0  0  0
   -0.5770   -2.0530   -2.7910 H   0  0  0  0  0  0  0  0  0  0  0  0
   -1.3570   -2.7870   -1.3950 H   0  0  0  0  0  0  0  0  0  0  0  0
   -1.6570    0.1350   -2.3280 H   0  0  0  0  0  0  0  0  0  0  0  0
   -0.3520   -1.2340    0.0600 H   0  0  0  0  0  0  0  0  0  0  0  0
  1 11  1  0  0  0  0
  1  2  1  0  0  0  0
  2 13  1  0  0  0  0
  2  3  1  0  0  0  0
  3  4  1  0  0  0  0
  3 14  1  1  0  0  0
  4 16  1  0  0  0  0
  5 18  1  6  0  0  0
  5  3  1  0  0  0  0
  5  6  1  0  0  0  0
  6 20  1  0  0  0  0
  7  8  2  0  0  0  0
  7  5  1  0  0  0  0
  9  1  1  0  0  0  0
 10  1  1  0  0  0  0
 12  2  1  0  0  0  0
 15  4  1  0  0  0  0
 17  4  1  0  0  0  0
 19  6  1  0  0  0  0
 21  7  1  0  0  0  0
 22 31  1  1  0  0  0
 22 21  1  0  0  0  0
 23 33  1  0  0  0  0
 23 22  1  0  0  0  0
 24 25  1  0  0  0  0
 24 23  1  0  0  0  0
 25 26  2  0  0  0  0
 27 42  1  0  0  0  0
 27 22  1  0  0  0  0
 28 27  2  0  0  0  0
 29 36  1  0  0  0  0
 29 25  1  0  0  0  0
 30 21  1  0  0  0  0
 32 23  1  0  0  0  0
 34 24  1  0  0  0  0
 35 24  1  0  0  0  0
 37 48  1  0  0  0  0
 37 46  1  0  0  0  0
 38 37  1  0  0  0  0
 39 38  1  0  0  0  0
 39 40  1  0  0  0  0
 40 41  1  0  0  0  0
 40 52  1  0  0  0  0
 41 53  1  6  0  0  0
 41 43  1  0  0  0  0
 41 42  1  0  0  0  0
 42 54  1  0  0  0  0
 43 44  1  0  0  0  0
 45 43  2  0  0  0  0
 47 37  1  0  0  0  0
 49 39  1  0  0  0  0
 50 39  1  0  0  0  0
 51 40  1  0  0  0  0
M  END
$$$$
