IEN.pdb
 OpenBabel07022418403D

 51 50  0  0  1  0  0  0  0  0999 V2000
    3.5680   -2.6900    4.0590 C   0  0  0  0  0  0  0  0  0  0  0  0
    3.7780   -2.4620    2.5930 C   0  0  0  0  0  0  0  0  0  0  0  0
    2.5390   -1.7930    1.9910 C   0  0  2  0  0  0  0  0  0  0  0  0
    2.8450   -1.6310    0.4840 C   0  0  0  0  0  0  0  0  0  0  0  0
    2.3740   -0.4020    2.5530 C   0  0  2  0  0  0  0  0  0  0  0  0
    2.2950   -0.5320    4.0390 N   0  0  0  0  0  0  0  0  0  0  0  0
    1.1410    0.2770    2.1110 C   0  0  0  0  0  0  0  0  0  0  0  0
    0.2730    0.5510    3.0320 O   0  0  0  0  0  0  0  0  0  0  0  0
    4.0520   -3.6690    4.3830 H   0  0  0  0  0  0  0  0  0  0  0  0
    4.0370   -1.9330    4.6910 H   0  0  0  0  0  0  0  0  0  0  0  0
    2.4890   -2.8340    4.3140 H   0  0  0  0  0  0  0  0  0  0  0  0
    4.6800   -1.8410    2.4150 H   0  0  0  0  0  0  0  0  0  0  0  0
    3.9200   -3.4300    2.0530 H   0  0  0  0  0  0  0  0  0  0  0  0
    1.6960   -2.4350    2.1270 H   0  0  0  0  0  0  0  0  0  0  0  0
    1.9510   -1.7310   -0.1100 H   0  0  0  0  0  0  0  0  0  0  0  0
    3.3550   -0.6820    0.3670 H   0  0  0  0  0  0  0  0  0  0  0  0
    3.5920   -2.4280    0.1990 H   0  0  0  0  0  0  0  0  0  0  0  0
    3.2950    0.1630    2.3570 H   0  0  0  0  0  0  0  0  0  0  0  0
    2.6990    0.3000    4.5080 H   0  0  0  0  0  0  0  0  0  0  0  0
    1.3080   -0.7310    4.3150 H   0  0  0  0  0  0  0  0  0  0  0  0
    0.8010    0.6600    0.8330 N   0  0  0  0  0  0  0  0  0  0  0  0
   -0.4570    1.3580    0.4960 C   0  0  1  0  0  0  0  0  0  0  0  0
   -0.2290    2.4530   -0.4520 C   0  0  0  0  0  0  0  0  0  0  0  0
   -1.4500    3.2120   -0.8480 C   0  0  0  0  0  0  0  0  0  0  0  0
   -2.0730    3.8550    0.3180 C   0  0  0  0  0  0  0  0  0  0  0  0
   -1.5440    3.8090    1.4380 O   0  0  0  0  0  0  0  0  0  0  0  0
   -1.4930    0.4040    0.0280 C   0  0  0  0  0  0  0  0  0  0  0  0
   -2.6470    0.8600   -0.2480 O   0  0  0  0  0  0  0  0  0  0  0  0
   -3.2900    4.5500    0.2190 O   0  0  0  0  0  0  0  0  0  0  0  0
    1.4110    0.5000    0.0240 H   0  0  0  0  0  0  0  0  0  0  0  0
   -0.8310    1.7170    1.4790 H   0  0  0  0  0  0  0  0  0  0  0  0
    0.5100    3.2170   -0.0970 H   0  0  0  0  0  0  0  0  0  0  0  0
    0.1620    1.9950   -1.4220 H   0  0  0  0  0  0  0  0  0  0  0  0
   -2.1670    2.6460   -1.4890 H   0  0  0  0  0  0  0  0  0  0  0  0
   -1.1400    4.0940   -1.5300 H   0  0  0  0  0  0  0  0  0  0  0  0
   -3.6850    5.0020    1.0590 H   0  0  0  0  0  0  0  0  0  0  0  0
   -2.6540   -3.6750   -3.9230 N   0  0  0  0  0  0  0  0  0  0  0  0
   -2.9730   -3.1550   -2.6460 C   0  0  0  0  0  0  0  0  0  0  0  0
   -4.0660   -3.4380   -2.1320 O   0  0  0  0  0  0  0  0  0  0  0  0
   -2.0060   -2.2990   -1.9670 C   0  0  0  0  0  0  0  0  0  0  0  0
   -2.3740   -1.8310   -0.5940 C   0  0  2  0  0  0  0  0  0  0  0  0
   -1.2680   -0.9730   -0.1250 N   0  0  0  0  0  0  0  0  0  0  0  0
   -2.5940   -2.9060    0.3870 C   0  0  0  0  0  0  0  0  0  0  0  0
   -1.8330   -2.9450    1.4040 O   0  0  0  0  0  0  0  0  0  0  0  0
   -3.5500   -3.8920    0.3260 O   0  0  0  0  0  0  0  0  0  0  0  0
   -2.6780   -3.0120   -4.7540 H   0  0  0  0  0  0  0  0  0  0  0  0
   -2.3980   -4.6490   -4.1220 H   0  0  0  0  0  0  0  0  0  0  0  0
   -1.0240   -2.8440   -1.8650 H   0  0  0  0  0  0  0  0  0  0  0  0
   -1.8600   -1.3950   -2.6250 H   0  0  0  0  0  0  0  0  0  0  0  0
   -3.2600   -1.1910   -0.6850 H   0  0  0  0  0  0  0  0  0  0  0  0
   -0.3420   -1.3900    0.0920 H   0  0  0  0  0  0  0  0  0  0  0  0
  1 11  1  0  0  0  0
  1  9  1  0  0  0  0
  1 10  1  0  0  0  0
  2  1  1  0  0  0  0
  3 14  1  1  0  0  0
  3  5  1  0  0  0  0
  3  2  1  0  0  0  0
  4  3  1  0  0  0  0
  5 18  1  6  0  0  0
  5  6  1  0  0  0  0
  6 20  1  0  0  0  0
  6 19  1  0  0  0  0
  7  5  1  0  0  0  0
  7  8  2  0  0  0  0
 12  2  1  0  0  0  0
 13  2  1  0  0  0  0
 15  4  1  0  0  0  0
 16  4  1  0  0  0  0
 17  4  1  0  0  0  0
 21  7  1  0  0  0  0
 22 21  1  0  0  0  0
 22 31  1  1  0  0  0
 23 32  1  0  0  0  0
 23 22  1  0  0  0  0
 24 23  1  0  0  0  0
 24 25  1  0  0  0  0
 25 26  2  0  0  0  0
 27 22  1  0  0  0  0
 28 27  2  0  0  0  0
 29 25  1  0  0  0  0
 29 36  1  0  0  0  0
 30 21  1  0  0  0  0
 33 23  1  0  0  0  0
 34 24  1  0  0  0  0
 35 24  1  0  0  0  0
 37 38  1  0  0  0  0
 38 39  2  0  0  0  0
 38 40  1  0  0  0  0
 40 48  1  0  0  0  0
 40 41  1  0  0  0  0
 41 50  1  6  0  0  0
 41 42  1  0  0  0  0
 41 43  1  0  0  0  0
 42 27  1  0  0  0  0
 42 51  1  0  0  0  0
 43 44  1  0  0  0  0
 45 43  2  0  0  0  0
 46 37  1  0  0  0  0
 47 37  1  0  0  0  0
 49 40  1  0  0  0  0
M  END
$$$$
