IEP.pdb
 OpenBabel07022418403D

 51 51  0  0  1  0  0  0  0  0999 V2000
    4.6600   -4.6070    1.6000 C   0  0  0  0  0  0  0  0  0  0  0  0
    4.0200   -4.1230    0.3320 C   0  0  0  0  0  0  0  0  0  0  0  0
    2.7140   -3.4150    0.6080 C   0  0  2  0  0  0  0  0  0  0  0  0
    2.1160   -2.9600   -0.7100 C   0  0  0  0  0  0  0  0  0  0  0  0
    2.9290   -2.1940    1.4970 C   0  0  2  0  0  0  0  0  0  0  0  0
    3.5200   -2.6680    2.7700 N   0  0  0  0  0  0  0  0  0  0  0  0
    1.6530   -1.5120    1.7670 C   0  0  0  0  0  0  0  0  0  0  0  0
    1.0560   -1.6280    2.8910 O   0  0  0  0  0  0  0  0  0  0  0  0
    5.2730   -5.5040    1.3220 H   0  0  0  0  0  0  0  0  0  0  0  0
    5.3900   -3.8810    2.0000 H   0  0  0  0  0  0  0  0  0  0  0  0
    3.9250   -4.9500    2.3490 H   0  0  0  0  0  0  0  0  0  0  0  0
    4.6900   -3.5440   -0.3060 H   0  0  0  0  0  0  0  0  0  0  0  0
    3.7390   -5.0410   -0.2630 H   0  0  0  0  0  0  0  0  0  0  0  0
    2.0250   -4.1300    1.0670 H   0  0  0  0  0  0  0  0  0  0  0  0
    2.1830   -3.8560   -1.4110 H   0  0  0  0  0  0  0  0  0  0  0  0
    1.0270   -2.7730   -0.6470 H   0  0  0  0  0  0  0  0  0  0  0  0
    2.6910   -2.1830   -1.2140 H   0  0  0  0  0  0  0  0  0  0  0  0
    3.6950   -1.5700    1.0100 H   0  0  0  0  0  0  0  0  0  0  0  0
    2.7090   -3.0650    3.3320 H   0  0  0  0  0  0  0  0  0  0  0  0
    3.8880   -1.8420    3.2930 H   0  0  0  0  0  0  0  0  0  0  0  0
    1.0510   -0.7010    0.7830 N   0  0  0  0  0  0  0  0  0  0  0  0
   -0.2520   -0.0340    1.1160 C   0  0  1  0  0  0  0  0  0  0  0  0
    0.1390    1.4440    1.0090 C   0  0  0  0  0  0  0  0  0  0  0  0
   -0.9220    2.4280    1.2690 C   0  0  0  0  0  0  0  0  0  0  0  0
   -0.3100    3.7870    1.1180 C   0  0  0  0  0  0  0  0  0  0  0  0
    0.8880    3.9880    0.8230 O   0  0  0  0  0  0  0  0  0  0  0  0
   -1.2260   -0.3550    0.0480 C   0  0  0  0  0  0  0  0  0  0  0  0
   -0.7890   -0.7600   -1.0870 O   0  0  0  0  0  0  0  0  0  0  0  0
   -1.1360    4.8750    1.3200 O   0  0  0  0  0  0  0  0  0  0  0  0
    1.4220   -0.5000   -0.1660 H   0  0  0  0  0  0  0  0  0  0  0  0
   -0.5510   -0.3050    2.1240 H   0  0  0  0  0  0  0  0  0  0  0  0
    0.6100    1.6170    0.0040 H   0  0  0  0  0  0  0  0  0  0  0  0
    0.9800    1.6540    1.7310 H   0  0  0  0  0  0  0  0  0  0  0  0
   -1.8050    2.3410    0.5830 H   0  0  0  0  0  0  0  0  0  0  0  0
   -1.2600    2.3970    2.3350 H   0  0  0  0  0  0  0  0  0  0  0  0
   -0.7930    5.8340    1.2510 H   0  0  0  0  0  0  0  0  0  0  0  0
   -2.6320   -0.2560    0.1800 N   0  0  0  0  0  0  0  0  0  0  0  0
   -3.3200    0.0590    1.3950 C   0  0  0  0  0  0  0  0  0  0  0  0
   -4.4940    0.8880    0.8460 C   0  0  0  0  0  0  0  0  0  0  0  0
   -4.8970    0.0300   -0.3710 C   0  0  0  0  0  0  0  0  0  0  0  0
   -3.5710   -0.4470   -0.8770 C   0  0  1  0  0  0  0  0  0  0  0  0
   -3.1990    0.2700   -2.1350 C   0  0  0  0  0  0  0  0  0  0  0  0
   -3.9160    0.0500   -3.1440 O   0  0  0  0  0  0  0  0  0  0  0  0
   -2.1380    1.1230   -2.1920 O   0  0  0  0  0  0  0  0  0  0  0  0
   -2.7640    0.5500    2.1790 H   0  0  0  0  0  0  0  0  0  0  0  0
   -3.8270   -0.8810    1.7840 H   0  0  0  0  0  0  0  0  0  0  0  0
   -4.1610    1.8910    0.5330 H   0  0  0  0  0  0  0  0  0  0  0  0
   -5.3300    0.9420    1.5370 H   0  0  0  0  0  0  0  0  0  0  0  0
   -5.4940   -0.8390   -0.0380 H   0  0  0  0  0  0  0  0  0  0  0  0
   -5.4680    0.6250   -1.0940 H   0  0  0  0  0  0  0  0  0  0  0  0
   -3.6360   -1.5420   -1.0650 H   0  0  0  0  0  0  0  0  0  0  0  0
  1 10  1  0  0  0  0
  1 11  1  0  0  0  0
  2  3  1  0  0  0  0
  2  1  1  0  0  0  0
  3 14  1  1  0  0  0
  3  5  1  0  0  0  0
  4 16  1  0  0  0  0
  4  3  1  0  0  0  0
  5 18  1  6  0  0  0
  5  7  1  0  0  0  0
  5  6  1  0  0  0  0
  6 20  1  0  0  0  0
  6 19  1  0  0  0  0
  7  8  2  0  0  0  0
  9  1  1  0  0  0  0
 12  2  1  0  0  0  0
 13  2  1  0  0  0  0
 15  4  1  0  0  0  0
 17  4  1  0  0  0  0
 21 22  1  0  0  0  0
 21  7  1  0  0  0  0
 22 31  1  1  0  0  0
 23 22  1  0  0  0  0
 23 24  1  0  0  0  0
 23 33  1  0  0  0  0
 24 35  1  0  0  0  0
 25 24  1  0  0  0  0
 25 29  1  0  0  0  0
 26 25  2  0  0  0  0
 27 37  1  0  0  0  0
 27 22  1  0  0  0  0
 28 27  2  0  0  0  0
 30 21  1  0  0  0  0
 32 23  1  0  0  0  0
 34 24  1  0  0  0  0
 36 29  1  0  0  0  0
 37 38  1  0  0  0  0
 38 46  1  0  0  0  0
 38 45  1  0  0  0  0
 39 38  1  0  0  0  0
 39 48  1  0  0  0  0
 40 49  1  0  0  0  0
 40 39  1  0  0  0  0
 41 51  1  6  0  0  0
 41 40  1  0  0  0  0
 41 37  1  0  0  0  0
 42 41  1  0  0  0  0
 43 42  2  0  0  0  0
 44 42  1  0  0  0  0
 47 39  1  0  0  0  0
 50 40  1  0  0  0  0
M  END
$$$$
