IER.pdb
 OpenBabel07022418403D

 60 59  0  0  1  0  0  0  0  0999 V2000
    0.9760    1.7170    7.1080 C   0  0  0  0  0  0  0  0  0  0  0  0
    0.8170    0.7750    5.9150 C   0  0  0  0  0  0  0  0  0  0  0  0
    2.0590    0.7860    5.0650 C   0  0  2  0  0  0  0  0  0  0  0  0
    2.3730    2.1390    4.5090 C   0  0  0  0  0  0  0  0  0  0  0  0
    2.0230   -0.3060    4.0390 C   0  0  2  0  0  0  0  0  0  0  0  0
    3.2540   -0.2200    3.2730 N   0  0  0  0  0  0  0  0  0  0  0  0
    0.8330   -0.3250    3.1820 C   0  0  0  0  0  0  0  0  0  0  0  0
   -0.3150   -0.4240    3.6380 O   0  0  0  0  0  0  0  0  0  0  0  0
    1.3170    1.1310    7.9780 H   0  0  0  0  0  0  0  0  0  0  0  0
    0.0160    2.2130    7.3020 H   0  0  0  0  0  0  0  0  0  0  0  0
    1.7270    2.4970    6.9250 H   0  0  0  0  0  0  0  0  0  0  0  0
    0.6780   -0.2470    6.3090 H   0  0  0  0  0  0  0  0  0  0  0  0
   -0.1040    1.0710    5.3680 H   0  0  0  0  0  0  0  0  0  0  0  0
    2.8990    0.5300    5.7760 H   0  0  0  0  0  0  0  0  0  0  0  0
    2.2440    2.2090    3.4090 H   0  0  0  0  0  0  0  0  0  0  0  0
    3.3990    2.4550    4.7740 H   0  0  0  0  0  0  0  0  0  0  0  0
    1.6790    2.9200    4.9310 H   0  0  0  0  0  0  0  0  0  0  0  0
    2.0940   -1.2860    4.5930 H   0  0  0  0  0  0  0  0  0  0  0  0
    3.6890   -1.1220    3.0740 H   0  0  0  0  0  0  0  0  0  0  0  0
    3.8890    0.5300    3.6050 H   0  0  0  0  0  0  0  0  0  0  0  0
    0.9890   -0.2270    1.7630 N   0  0  0  0  0  0  0  0  0  0  0  0
   -0.1050   -0.2350    0.8240 C   0  0  1  0  0  0  0  0  0  0  0  0
    0.0140    0.9300   -0.1460 C   0  0  0  0  0  0  0  0  0  0  0  0
    0.0040    2.2680    0.5080 C   0  0  0  0  0  0  0  0  0  0  0  0
   -1.2400    2.4970    1.2250 C   0  0  0  0  0  0  0  0  0  0  0  0
   -1.3660    3.5480    1.9250 O   0  0  0  0  0  0  0  0  0  0  0  0
    0.0250   -1.4900   -0.0120 C   0  0  0  0  0  0  0  0  0  0  0  0
    0.9780   -2.2410    0.2450 O   0  0  0  0  0  0  0  0  0  0  0  0
   -2.2980    1.6210    1.1780 O   0  0  0  0  0  0  0  0  0  0  0  0
    1.9640   -0.1460    1.4080 H   0  0  0  0  0  0  0  0  0  0  0  0
   -1.0850   -0.3140    1.2950 H   0  0  0  0  0  0  0  0  0  0  0  0
    0.9360    0.8000   -0.7810 H   0  0  0  0  0  0  0  0  0  0  0  0
   -0.8250    0.9160   -0.8830 H   0  0  0  0  0  0  0  0  0  0  0  0
    0.1900    3.0770   -0.2570 H   0  0  0  0  0  0  0  0  0  0  0  0
    0.8610    2.3960    1.2220 H   0  0  0  0  0  0  0  0  0  0  0  0
   -3.1410    1.8380    1.7010 H   0  0  0  0  0  0  0  0  0  0  0  0
   -1.7880   -5.2090   -5.7130 N   0  0  0  0  0  0  0  0  0  0  0  0
   -2.5540   -4.2330   -4.9960 C   0  0  0  0  0  0  0  0  0  0  0  0
   -3.2400   -4.5880   -3.9670 N   0  0  0  0  0  0  0  0  0  0  0  0
   -2.5700   -2.9010   -5.4130 N   0  0  0  0  0  0  0  0  0  0  0  0
   -2.3150   -1.7940   -4.5560 C   0  0  0  0  0  0  0  0  0  0  0  0
   -0.9140   -1.6490   -4.0920 C   0  0  0  0  0  0  0  0  0  0  0  0
   -0.3340   -2.7070   -3.2410 C   0  0  0  0  0  0  0  0  0  0  0  0
   -0.9430   -2.9140   -1.9040 C   0  0  2  0  0  0  0  0  0  0  0  0
   -0.8930   -1.7900   -1.0350 N   0  0  0  0  0  0  0  0  0  0  0  0
   -0.4700   -4.2110   -1.3520 C   0  0  0  0  0  0  0  0  0  0  0  0
   -0.3380   -5.2240   -2.1060 O   0  0  0  0  0  0  0  0  0  0  0  0
   -0.1700   -4.3570   -0.0270 O   0  0  0  0  0  0  0  0  0  0  0  0
   -1.0730   -5.7850   -5.2350 H   0  0  0  0  0  0  0  0  0  0  0  0
   -1.9670   -5.3340   -6.7400 H   0  0  0  0  0  0  0  0  0  0  0  0
   -3.8130   -3.9710   -3.3960 H   0  0  0  0  0  0  0  0  0  0  0  0
   -2.7740   -2.7220   -6.4400 H   0  0  0  0  0  0  0  0  0  0  0  0
   -3.0580   -1.8070   -3.7230 H   0  0  0  0  0  0  0  0  0  0  0  0
   -2.5600   -0.8470   -5.1250 H   0  0  0  0  0  0  0  0  0  0  0  0
   -0.7460   -0.6140   -3.6700 H   0  0  0  0  0  0  0  0  0  0  0  0
   -0.2760   -1.6200   -5.0320 H   0  0  0  0  0  0  0  0  0  0  0  0
   -0.4520   -3.6800   -3.8010 H   0  0  0  0  0  0  0  0  0  0  0  0
    0.7690   -2.5620   -3.2090 H   0  0  0  0  0  0  0  0  0  0  0  0
   -2.0580   -3.1260   -2.0360 H   0  0  0  0  0  0  0  0  0  0  0  0
   -1.6550   -1.0290   -1.1430 H   0  0  0  0  0  0  0  0  0  0  0  0
  1 10  1  0  0  0  0
  1  9  1  0  0  0  0
  2 12  1  0  0  0  0
  2  1  1  0  0  0  0
  3 14  1  1  0  0  0
  3  2  1  0  0  0  0
  4 16  1  0  0  0  0
  4 17  1  0  0  0  0
  4  3  1  0  0  0  0
  5 18  1  1  0  0  0
  5  3  1  0  0  0  0
  6 20  1  0  0  0  0
  6  5  1  0  0  0  0
  7  8  2  0  0  0  0
  7  5  1  0  0  0  0
 11  1  1  0  0  0  0
 13  2  1  0  0  0  0
 15  4  1  0  0  0  0
 19  6  1  0  0  0  0
 21  7  1  0  0  0  0
 22 31  1  1  0  0  0
 22 21  1  0  0  0  0
 23 24  1  0  0  0  0
 23 22  1  0  0  0  0
 24 35  1  0  0  0  0
 24 25  1  0  0  0  0
 25 26  2  0  0  0  0
 27 28  2  0  0  0  0
 27 22  1  0  0  0  0
 29 25  1  0  0  0  0
 29 36  1  0  0  0  0
 30 21  1  0  0  0  0
 32 23  1  0  0  0  0
 33 23  1  0  0  0  0
 34 24  1  0  0  0  0
 37 49  1  0  0  0  0
 37 38  1  0  0  0  0
 38 39  2  0  0  0  0
 39 51  1  0  0  0  0
 40 38  1  0  0  0  0
 40 41  1  0  0  0  0
 41 42  1  0  0  0  0
 41 53  1  0  0  0  0
 42 55  1  0  0  0  0
 42 43  1  0  0  0  0
 43 58  1  0  0  0  0
 43 44  1  0  0  0  0
 44 59  1  6  0  0  0
 44 46  1  0  0  0  0
 44 45  1  0  0  0  0
 45 27  1  0  0  0  0
 46 48  1  0  0  0  0
 47 46  2  0  0  0  0
 50 37  1  0  0  0  0
 52 40  1  0  0  0  0
 54 41  1  0  0  0  0
 56 42  1  0  0  0  0
 57 43  1  0  0  0  0
 60 45  1  0  0  0  0
M  END
$$$$
