IEV.pdb
 OpenBabel07022418403D

 53 52  0  0  1  0  0  0  0  0999 V2000
    3.5350   -0.8000    4.1620 C   0  0  0  0  0  0  0  0  0  0  0  0
    3.9160   -0.6050    2.7080 C   0  0  0  0  0  0  0  0  0  0  0  0
    3.8700   -1.8880    1.9580 C   0  0  2  0  0  0  0  0  0  0  0  0
    4.2880   -1.6710    0.5020 C   0  0  0  0  0  0  0  0  0  0  0  0
    2.5260   -2.5800    1.9250 C   0  0  2  0  0  0  0  0  0  0  0  0
    2.7800   -3.8110    1.1680 N   0  0  0  0  0  0  0  0  0  0  0  0
    1.4670   -1.7920    1.2420 C   0  0  0  0  0  0  0  0  0  0  0  0
    1.1000   -2.1650    0.0910 O   0  0  0  0  0  0  0  0  0  0  0  0
    2.6450   -1.4200    4.3150 H   0  0  0  0  0  0  0  0  0  0  0  0
    4.3640   -1.2590    4.7450 H   0  0  0  0  0  0  0  0  0  0  0  0
    3.4170    0.2320    4.5890 H   0  0  0  0  0  0  0  0  0  0  0  0
    3.4180    0.2450    2.2310 H   0  0  0  0  0  0  0  0  0  0  0  0
    5.0070   -0.3080    2.7430 H   0  0  0  0  0  0  0  0  0  0  0  0
    4.5930   -2.5930    2.3950 H   0  0  0  0  0  0  0  0  0  0  0  0
    4.8700   -0.7310    0.4500 H   0  0  0  0  0  0  0  0  0  0  0  0
    4.8990   -2.5180    0.1250 H   0  0  0  0  0  0  0  0  0  0  0  0
    3.3850   -1.6330   -0.1260 H   0  0  0  0  0  0  0  0  0  0  0  0
    2.2120   -2.8360    2.9210 H   0  0  0  0  0  0  0  0  0  0  0  0
    2.2640   -4.6200    1.5670 H   0  0  0  0  0  0  0  0  0  0  0  0
    2.6170   -3.6760    0.1500 H   0  0  0  0  0  0  0  0  0  0  0  0
    0.8390   -0.6530    1.7910 N   0  0  0  0  0  0  0  0  0  0  0  0
   -0.1920    0.1360    1.1750 C   0  0  1  0  0  0  0  0  0  0  0  0
    0.2700    1.1720    0.2320 C   0  0  0  0  0  0  0  0  0  0  0  0
    1.0450    0.7320   -0.9430 C   0  0  0  0  0  0  0  0  0  0  0  0
    1.4300    1.8850   -1.7990 C   0  0  0  0  0  0  0  0  0  0  0  0
    1.0650    3.0340   -1.4420 O   0  0  0  0  0  0  0  0  0  0  0  0
   -1.2800   -0.7410    0.7060 C   0  0  0  0  0  0  0  0  0  0  0  0
   -1.2550   -1.9590    0.9470 O   0  0  0  0  0  0  0  0  0  0  0  0
    2.1740    1.7230   -2.9650 O   0  0  0  0  0  0  0  0  0  0  0  0
    1.1670   -0.3750    2.7420 H   0  0  0  0  0  0  0  0  0  0  0  0
   -0.6610    0.7340    2.0480 H   0  0  0  0  0  0  0  0  0  0  0  0
    0.9330    1.8750    0.8220 H   0  0  0  0  0  0  0  0  0  0  0  0
   -0.5600    1.8230   -0.1150 H   0  0  0  0  0  0  0  0  0  0  0  0
    0.5740   -0.0100   -1.5850 H   0  0  0  0  0  0  0  0  0  0  0  0
    2.0430    0.2940   -0.6320 H   0  0  0  0  0  0  0  0  0  0  0  0
    2.7490    2.5120   -3.2320 H   0  0  0  0  0  0  0  0  0  0  0  0
   -5.9030   -1.6350   -0.3150 C   0  0  0  0  0  0  0  0  0  0  0  0
   -4.7790   -0.7500    0.1680 C   0  0  0  0  0  0  0  0  0  0  0  0
   -5.1730    0.6770    0.0020 C   0  0  0  0  0  0  0  0  0  0  0  0
   -3.4680   -1.1060   -0.4980 C   0  0  2  0  0  0  0  0  0  0  0  0
   -2.3900   -0.2530   -0.0300 N   0  0  0  0  0  0  0  0  0  0  0  0
   -3.5500   -1.1210   -1.9770 C   0  0  0  0  0  0  0  0  0  0  0  0
   -2.7270   -0.4220   -2.6130 O   0  0  0  0  0  0  0  0  0  0  0  0
   -4.4740   -1.8550   -2.6660 O   0  0  0  0  0  0  0  0  0  0  0  0
   -6.2720   -1.2840   -1.3030 H   0  0  0  0  0  0  0  0  0  0  0  0
   -6.7070   -1.6080    0.4560 H   0  0  0  0  0  0  0  0  0  0  0  0
   -5.4930   -2.6510   -0.4510 H   0  0  0  0  0  0  0  0  0  0  0  0
   -4.6410   -0.9680    1.2540 H   0  0  0  0  0  0  0  0  0  0  0  0
   -5.0650    0.9980   -1.0710 H   0  0  0  0  0  0  0  0  0  0  0  0
   -6.2560    0.7760    0.2230 H   0  0  0  0  0  0  0  0  0  0  0  0
   -4.6330    1.3670    0.6850 H   0  0  0  0  0  0  0  0  0  0  0  0
   -3.2320   -2.1460   -0.1790 H   0  0  0  0  0  0  0  0  0  0  0  0
   -2.4180    0.7740   -0.2370 H   0  0  0  0  0  0  0  0  0  0  0  0
  1  9  1  0  0  0  0
  1 11  1  0  0  0  0
  1 10  1  0  0  0  0
  2 13  1  0  0  0  0
  2  1  1  0  0  0  0
  3 14  1  1  0  0  0
  3  2  1  0  0  0  0
  4  3  1  0  0  0  0
  5  3  1  0  0  0  0
  5 18  1  1  0  0  0
  6 19  1  0  0  0  0
  6  5  1  0  0  0  0
  7 21  1  0  0  0  0
  7  5  1  0  0  0  0
  8  7  2  0  0  0  0
 12  2  1  0  0  0  0
 15  4  1  0  0  0  0
 16  4  1  0  0  0  0
 17  4  1  0  0  0  0
 20  6  1  0  0  0  0
 21 30  1  0  0  0  0
 22 21  1  0  0  0  0
 22 31  1  1  0  0  0
 23 32  1  0  0  0  0
 23 22  1  0  0  0  0
 24 35  1  0  0  0  0
 24 23  1  0  0  0  0
 25 26  2  0  0  0  0
 25 24  1  0  0  0  0
 27 28  2  0  0  0  0
 27 22  1  0  0  0  0
 29 25  1  0  0  0  0
 33 23  1  0  0  0  0
 34 24  1  0  0  0  0
 36 29  1  0  0  0  0
 37 38  1  0  0  0  0
 37 46  1  0  0  0  0
 38 48  1  0  0  0  0
 39 38  1  0  0  0  0
 39 50  1  0  0  0  0
 39 51  1  0  0  0  0
 40 52  1  1  0  0  0
 40 41  1  0  0  0  0
 40 38  1  0  0  0  0
 41 27  1  0  0  0  0
 42 40  1  0  0  0  0
 43 42  1  0  0  0  0
 44 42  2  0  0  0  0
 45 37  1  0  0  0  0
 47 37  1  0  0  0  0
 49 39  1  0  0  0  0
 53 41  1  0  0  0  0
M  END
$$$$
