IEW.pdb
 OpenBabel07022418403D

 61 62  0  0  1  0  0  0  0  0999 V2000
    6.3560   -1.8220    0.6710 C   0  0  0  0  0  0  0  0  0  0  0  0
    4.9960   -1.9240    1.3130 C   0  0  0  0  0  0  0  0  0  0  0  0
    4.2010   -0.6530    1.1720 C   0  0  2  0  0  0  0  0  0  0  0  0
    4.8460    0.5370    1.7930 C   0  0  0  0  0  0  0  0  0  0  0  0
    2.8010   -0.8410    1.7450 C   0  0  2  0  0  0  0  0  0  0  0  0
    2.1580   -1.9030    1.0020 N   0  0  0  0  0  0  0  0  0  0  0  0
    2.0610    0.4160    1.4970 C   0  0  0  0  0  0  0  0  0  0  0  0
    2.4030    1.4570    2.1580 O   0  0  0  0  0  0  0  0  0  0  0  0
    6.2920   -1.3700   -0.3470 H   0  0  0  0  0  0  0  0  0  0  0  0
    6.7180   -2.8660    0.5090 H   0  0  0  0  0  0  0  0  0  0  0  0
    7.1100   -1.3360    1.3180 H   0  0  0  0  0  0  0  0  0  0  0  0
    5.1860   -2.0640    2.4180 H   0  0  0  0  0  0  0  0  0  0  0  0
    4.4350   -2.8090    0.9860 H   0  0  0  0  0  0  0  0  0  0  0  0
    4.0230   -0.4780    0.0690 H   0  0  0  0  0  0  0  0  0  0  0  0
    5.9600    0.4890    1.7850 H   0  0  0  0  0  0  0  0  0  0  0  0
    4.5710    0.6010    2.8680 H   0  0  0  0  0  0  0  0  0  0  0  0
    4.5360    1.4290    1.2030 H   0  0  0  0  0  0  0  0  0  0  0  0
    2.8470   -1.0930    2.8290 H   0  0  0  0  0  0  0  0  0  0  0  0
    1.1460   -1.9720    1.2470 H   0  0  0  0  0  0  0  0  0  0  0  0
    2.2870   -1.7340   -0.0130 H   0  0  0  0  0  0  0  0  0  0  0  0
    1.0160    0.4220    0.5520 N   0  0  0  0  0  0  0  0  0  0  0  0
    0.2860    1.6900    0.3260 C   0  0  1  0  0  0  0  0  0  0  0  0
    0.5780    2.1680   -1.0410 C   0  0  0  0  0  0  0  0  0  0  0  0
   -0.0900    3.4170   -1.4770 C   0  0  0  0  0  0  0  0  0  0  0  0
   -1.5510    3.3710   -1.6360 C   0  0  0  0  0  0  0  0  0  0  0  0
   -2.2480    4.3930   -1.4330 O   0  0  0  0  0  0  0  0  0  0  0  0
   -1.0840    1.4530    0.7440 C   0  0  0  0  0  0  0  0  0  0  0  0
   -1.8160    2.5030    0.9100 O   0  0  0  0  0  0  0  0  0  0  0  0
   -2.1920    2.2040   -2.0160 O   0  0  0  0  0  0  0  0  0  0  0  0
    0.7300   -0.4200   -0.0050 H   0  0  0  0  0  0  0  0  0  0  0  0
    0.7520    2.4230    1.0600 H   0  0  0  0  0  0  0  0  0  0  0  0
    1.6960    2.4040   -1.0480 H   0  0  0  0  0  0  0  0  0  0  0  0
    0.5150    1.3550   -1.8150 H   0  0  0  0  0  0  0  0  0  0  0  0
    0.2150    4.2990   -0.8230 H   0  0  0  0  0  0  0  0  0  0  0  0
    0.3910    3.6980   -2.4710 H   0  0  0  0  0  0  0  0  0  0  0  0
   -3.0500    2.1860   -2.5450 H   0  0  0  0  0  0  0  0  0  0  0  0
   -1.6590    0.1720    0.9740 N   0  0  0  0  0  0  0  0  0  0  0  0
   -3.0530    0.0230    1.3940 C   0  0  1  0  0  0  0  0  0  0  0  0
   -3.9130   -0.4460    0.2700 C   0  0  0  0  0  0  0  0  0  0  0  0
   -3.5750   -1.7040   -0.3660 C   0  0  0  0  0  0  0  0  0  0  0  0
   -2.8440   -1.8290   -1.5600 C   0  0  0  0  0  0  0  0  0  0  0  0
   -2.6960   -3.1240   -1.8370 N   0  0  0  0  0  0  0  0  0  0  0  0
   -3.2960   -3.8580   -0.8840 C   0  0  0  0  0  0  0  0  0  0  0  0
   -3.4220   -5.2520   -0.7320 C   0  0  0  0  0  0  0  0  0  0  0  0
   -4.0970   -5.7970    0.3340 C   0  0  0  0  0  0  0  0  0  0  0  0
   -4.6440   -4.9240    1.2460 C   0  0  0  0  0  0  0  0  0  0  0  0
   -4.5180   -3.5490    1.0930 C   0  0  0  0  0  0  0  0  0  0  0  0
   -3.8380   -2.9780    0.0230 C   0  0  0  0  0  0  0  0  0  0  0  0
   -3.2160   -0.6310    2.6880 C   0  0  0  0  0  0  0  0  0  0  0  0
   -4.3400   -0.7260    3.2120 O   0  0  0  0  0  0  0  0  0  0  0  0
   -2.1300   -1.1540    3.3530 O   0  0  0  0  0  0  0  0  0  0  0  0
   -1.0650   -0.6640    0.8390 H   0  0  0  0  0  0  0  0  0  0  0  0
   -3.4300    1.0970    1.5740 H   0  0  0  0  0  0  0  0  0  0  0  0
   -4.9610   -0.4930    0.6740 H   0  0  0  0  0  0  0  0  0  0  0  0
   -3.9560    0.3560   -0.4990 H   0  0  0  0  0  0  0  0  0  0  0  0
   -2.4670   -1.0050   -2.1480 H   0  0  0  0  0  0  0  0  0  0  0  0
   -2.1940   -3.5510   -2.6640 H   0  0  0  0  0  0  0  0  0  0  0  0
   -2.9770   -5.8890   -1.4710 H   0  0  0  0  0  0  0  0  0  0  0  0
   -4.2050   -6.8700    0.4680 H   0  0  0  0  0  0  0  0  0  0  0  0
   -5.1860   -5.3230    2.1040 H   0  0  0  0  0  0  0  0  0  0  0  0
   -4.9500   -2.8590    1.7930 H   0  0  0  0  0  0  0  0  0  0  0  0
  1  2  1  0  0  0  0
  1 11  1  0  0  0  0
  2 12  1  0  0  0  0
  3 14  1  6  0  0  0
  3  2  1  0  0  0  0
  3  5  1  0  0  0  0
  3  4  1  0  0  0  0
  4 16  1  0  0  0  0
  5 18  1  1  0  0  0
  6 19  1  0  0  0  0
  6  5  1  0  0  0  0
  7  5  1  0  0  0  0
  7  8  2  0  0  0  0
  9  1  1  0  0  0  0
 10  1  1  0  0  0  0
 13  2  1  0  0  0  0
 15  4  1  0  0  0  0
 17  4  1  0  0  0  0
 20  6  1  0  0  0  0
 21  7  1  0  0  0  0
 22 21  1  0  0  0  0
 22 27  1  0  0  0  0
 22 31  1  1  0  0  0
 23 22  1  0  0  0  0
 24 23  1  0  0  0  0
 24 34  1  0  0  0  0
 25 24  1  0  0  0  0
 25 26  2  0  0  0  0
 27 28  2  0  0  0  0
 27 37  1  0  0  0  0
 29 25  1  0  0  0  0
 30 21  1  0  0  0  0
 32 23  1  0  0  0  0
 33 23  1  0  0  0  0
 35 24  1  0  0  0  0
 36 29  1  0  0  0  0
 37 38  1  0  0  0  0
 38 53  1  1  0  0  0
 38 49  1  0  0  0  0
 39 54  1  0  0  0  0
 39 38  1  0  0  0  0
 40 48  1  0  0  0  0
 40 39  1  0  0  0  0
 41 40  2  0  0  0  0
 42 41  1  0  0  0  0
 42 43  1  0  0  0  0
 43 44  2  0  0  0  0
 43 48  1  0  0  0  0
 44 45  1  0  0  0  0
 45 59  1  0  0  0  0
 45 46  2  0  0  0  0
 46 60  1  0  0  0  0
 47 46  1  0  0  0  0
 47 61  1  0  0  0  0
 48 47  2  0  0  0  0
 49 50  2  0  0  0  0
 49 51  1  0  0  0  0
 52 37  1  0  0  0  0
 55 39  1  0  0  0  0
 56 41  1  0  0  0  0
 57 42  1  0  0  0  0
 58 44  1  0  0  0  0
M  END
$$$$
