IEY.pdb
 OpenBabel07022418403D

 58 58  0  0  1  0  0  0  0  0999 V2000
    4.0870    2.0090    3.5670 C   0  0  0  0  0  0  0  0  0  0  0  0
    3.9440    0.5300    3.2040 C   0  0  0  0  0  0  0  0  0  0  0  0
    2.9430   -0.0520    4.1400 C   0  0  2  0  0  0  0  0  0  0  0  0
    2.7560   -1.5330    3.8320 C   0  0  0  0  0  0  0  0  0  0  0  0
    1.6590    0.6690    4.3070 C   0  0  2  0  0  0  0  0  0  0  0  0
    0.9050   -0.1140    5.3360 N   0  0  0  0  0  0  0  0  0  0  0  0
    0.7550    0.7920    3.1820 C   0  0  0  0  0  0  0  0  0  0  0  0
   -0.4740    0.3880    3.3480 O   0  0  0  0  0  0  0  0  0  0  0  0
    4.9150    2.4530    2.9900 H   0  0  0  0  0  0  0  0  0  0  0  0
    3.1360    2.5480    3.5150 H   0  0  0  0  0  0  0  0  0  0  0  0
    4.4050    2.0440    4.6500 H   0  0  0  0  0  0  0  0  0  0  0  0
    4.9450    0.0720    3.5010 H   0  0  0  0  0  0  0  0  0  0  0  0
    3.7370    0.3310    2.1660 H   0  0  0  0  0  0  0  0  0  0  0  0
    3.4350   -0.0560    5.1620 H   0  0  0  0  0  0  0  0  0  0  0  0
    2.0770   -2.0020    4.5570 H   0  0  0  0  0  0  0  0  0  0  0  0
    2.4970   -1.7360    2.7880 H   0  0  0  0  0  0  0  0  0  0  0  0
    3.7760   -2.0050    4.0030 H   0  0  0  0  0  0  0  0  0  0  0  0
    1.8800    1.6250    4.8380 H   0  0  0  0  0  0  0  0  0  0  0  0
    1.5690   -0.5370    6.0150 H   0  0  0  0  0  0  0  0  0  0  0  0
    0.3060   -0.7910    4.8340 H   0  0  0  0  0  0  0  0  0  0  0  0
    1.0280    1.3040    1.9000 N   0  0  0  0  0  0  0  0  0  0  0  0
   -0.0240    1.3760    0.8290 C   0  0  1  0  0  0  0  0  0  0  0  0
    0.1660    2.5910    0.0580 C   0  0  0  0  0  0  0  0  0  0  0  0
   -0.7700    2.9030   -1.0560 C   0  0  0  0  0  0  0  0  0  0  0  0
   -2.1770    3.0200   -0.6440 C   0  0  0  0  0  0  0  0  0  0  0  0
   -2.5280    2.8550    0.5510 O   0  0  0  0  0  0  0  0  0  0  0  0
   -0.1330    0.0640    0.1930 C   0  0  0  0  0  0  0  0  0  0  0  0
    0.6560   -0.8520    0.6310 O   0  0  0  0  0  0  0  0  0  0  0  0
   -3.2040    3.3160   -1.5360 O   0  0  0  0  0  0  0  0  0  0  0  0
    1.9700    1.6530    1.6790 H   0  0  0  0  0  0  0  0  0  0  0  0
   -0.9710    1.4460    1.4640 H   0  0  0  0  0  0  0  0  0  0  0  0
    0.0840    3.4660    0.7990 H   0  0  0  0  0  0  0  0  0  0  0  0
    1.2390    2.7310   -0.2970 H   0  0  0  0  0  0  0  0  0  0  0  0
   -0.4820    3.9570   -1.4760 H   0  0  0  0  0  0  0  0  0  0  0  0
   -0.6950    2.2850   -1.9530 H   0  0  0  0  0  0  0  0  0  0  0  0
   -4.1290    3.4820   -1.1830 H   0  0  0  0  0  0  0  0  0  0  0  0
   -3.0020   -7.6090   -3.2410 O   0  0  0  0  0  0  0  0  0  0  0  0
   -2.8310   -6.2810   -2.9110 C   0  0  0  0  0  0  0  0  0  0  0  0
   -2.9990   -5.8290   -1.6210 C   0  0  0  0  0  0  0  0  0  0  0  0
   -2.8400   -4.5230   -1.2510 C   0  0  0  0  0  0  0  0  0  0  0  0
   -2.4820   -3.5460   -2.2100 C   0  0  0  0  0  0  0  0  0  0  0  0
   -2.3470   -2.1360   -1.7790 C   0  0  0  0  0  0  0  0  0  0  0  0
   -0.9920   -1.7510   -1.2860 C   0  0  2  0  0  0  0  0  0  0  0  0
   -1.0010   -0.3490   -0.8360 N   0  0  0  0  0  0  0  0  0  0  0  0
    0.0220   -1.8530   -2.3720 C   0  0  0  0  0  0  0  0  0  0  0  0
    0.6310   -0.8360   -2.7740 O   0  0  0  0  0  0  0  0  0  0  0  0
   -2.3120   -3.9980   -3.4940 C   0  0  0  0  0  0  0  0  0  0  0  0
   -2.4800   -5.3220   -3.8460 C   0  0  0  0  0  0  0  0  0  0  0  0
    0.3610   -3.0490   -3.0020 O   0  0  0  0  0  0  0  0  0  0  0  0
   -3.0680   -7.8190   -4.2260 H   0  0  0  0  0  0  0  0  0  0  0  0
   -3.2730   -6.6000   -0.8740 H   0  0  0  0  0  0  0  0  0  0  0  0
   -2.9790   -4.1650   -0.2380 H   0  0  0  0  0  0  0  0  0  0  0  0
   -3.1820   -1.8150   -1.1190 H   0  0  0  0  0  0  0  0  0  0  0  0
   -2.5350   -1.5170   -2.7260 H   0  0  0  0  0  0  0  0  0  0  0  0
   -0.6430   -2.4420   -0.4950 H   0  0  0  0  0  0  0  0  0  0  0  0
   -1.6440    0.3270   -1.2550 H   0  0  0  0  0  0  0  0  0  0  0  0
   -2.0360   -3.2640   -4.2680 H   0  0  0  0  0  0  0  0  0  0  0  0
   -2.3390   -5.6520   -4.8690 H   0  0  0  0  0  0  0  0  0  0  0  0
  1 11  1  0  0  0  0
  2 12  1  0  0  0  0
  2  1  1  0  0  0  0
  2  3  1  0  0  0  0
  3  5  1  0  0  0  0
  3 14  1  1  0  0  0
  4 17  1  0  0  0  0
  4  3  1  0  0  0  0
  4 15  1  0  0  0  0
  5 18  1  1  0  0  0
  5  6  1  0  0  0  0
  6 19  1  0  0  0  0
  7  8  2  0  0  0  0
  7  5  1  0  0  0  0
  9  1  1  0  0  0  0
 10  1  1  0  0  0  0
 13  2  1  0  0  0  0
 16  4  1  0  0  0  0
 20  6  1  0  0  0  0
 21  7  1  0  0  0  0
 22 31  1  1  0  0  0
 22 21  1  0  0  0  0
 23 32  1  0  0  0  0
 23 22  1  0  0  0  0
 24 25  1  0  0  0  0
 24 23  1  0  0  0  0
 25 26  2  0  0  0  0
 27 28  2  0  0  0  0
 27 22  1  0  0  0  0
 29 36  1  0  0  0  0
 29 25  1  0  0  0  0
 30 21  1  0  0  0  0
 33 23  1  0  0  0  0
 34 24  1  0  0  0  0
 35 24  1  0  0  0  0
 37 38  1  0  0  0  0
 38 39  1  0  0  0  0
 39 40  2  0  0  0  0
 39 51  1  0  0  0  0
 40 52  1  0  0  0  0
 41 42  1  0  0  0  0
 41 40  1  0  0  0  0
 42 43  1  0  0  0  0
 42 53  1  0  0  0  0
 43 44  1  0  0  0  0
 43 55  1  1  0  0  0
 44 27  1  0  0  0  0
 45 43  1  0  0  0  0
 46 45  1  0  0  0  0
 47 41  2  0  0  0  0
 48 47  1  0  0  0  0
 48 38  2  0  0  0  0
 49 45  2  0  0  0  0
 50 37  1  0  0  0  0
 54 42  1  0  0  0  0
 56 44  1  0  0  0  0
 57 47  1  0  0  0  0
 58 48  1  0  0  0  0
M  END
$$$$
