IFA.pdb
 OpenBabel07022418423D

 51 51  0  0  1  0  0  0  0  0999 V2000
    4.7780   -4.7980    1.2750 C   0  0  0  0  0  0  0  0  0  0  0  0
    4.3850   -3.9360    0.0990 C   0  0  0  0  0  0  0  0  0  0  0  0
    2.9960   -3.3220    0.2610 C   0  0  2  0  0  0  0  0  0  0  0  0
    2.7890   -2.5100   -1.0070 C   0  0  0  0  0  0  0  0  0  0  0  0
    2.9490   -2.4380    1.4970 C   0  0  2  0  0  0  0  0  0  0  0  0
    3.2730   -3.2740    2.6640 N   0  0  0  0  0  0  0  0  0  0  0  0
    1.5970   -1.8700    1.6550 C   0  0  0  0  0  0  0  0  0  0  0  0
    0.7950   -2.3050    2.5580 O   0  0  0  0  0  0  0  0  0  0  0  0
    5.4400   -5.6260    0.8860 H   0  0  0  0  0  0  0  0  0  0  0  0
    5.3450   -4.2170    2.0330 H   0  0  0  0  0  0  0  0  0  0  0  0
    3.9000   -5.3350    1.6890 H   0  0  0  0  0  0  0  0  0  0  0  0
    5.1540   -3.1480   -0.0380 H   0  0  0  0  0  0  0  0  0  0  0  0
    4.4270   -4.5680   -0.8110 H   0  0  0  0  0  0  0  0  0  0  0  0
    2.2850   -4.1650    0.3270 H   0  0  0  0  0  0  0  0  0  0  0  0
    3.1840   -3.0970   -1.8980 H   0  0  0  0  0  0  0  0  0  0  0  0
    1.7280   -2.3580   -1.2470 H   0  0  0  0  0  0  0  0  0  0  0  0
    3.4080   -1.5950   -1.0100 H   0  0  0  0  0  0  0  0  0  0  0  0
    3.7340   -1.6780    1.3960 H   0  0  0  0  0  0  0  0  0  0  0  0
    2.3450   -3.6630    2.9790 H   0  0  0  0  0  0  0  0  0  0  0  0
    3.5910   -2.6410    3.4300 H   0  0  0  0  0  0  0  0  0  0  0  0
    1.1370   -0.8250    0.8250 N   0  0  0  0  0  0  0  0  0  0  0  0
   -0.2420   -0.2880    1.0340 C   0  0  1  0  0  0  0  0  0  0  0  0
    0.0160    1.0910    1.5890 C   0  0  0  0  0  0  0  0  0  0  0  0
   -1.1320    1.9020    1.9230 C   0  0  0  0  0  0  0  0  0  0  0  0
   -1.6570    2.8060    1.0330 C   0  0  0  0  0  0  0  0  0  0  0  0
   -2.7580    3.5980    1.3570 C   0  0  0  0  0  0  0  0  0  0  0  0
   -3.3250    3.4620    2.6020 C   0  0  0  0  0  0  0  0  0  0  0  0
   -2.7950    2.5470    3.5040 C   0  0  0  0  0  0  0  0  0  0  0  0
   -1.7190    1.7880    3.1590 C   0  0  0  0  0  0  0  0  0  0  0  0
   -0.9690   -0.3120   -0.2340 C   0  0  0  0  0  0  0  0  0  0  0  0
   -0.3860   -0.6370   -1.3350 O   0  0  0  0  0  0  0  0  0  0  0  0
    1.7010   -0.3860    0.0660 H   0  0  0  0  0  0  0  0  0  0  0  0
   -0.6920   -0.8750    1.8330 H   0  0  0  0  0  0  0  0  0  0  0  0
    0.7650    1.6380    0.9460 H   0  0  0  0  0  0  0  0  0  0  0  0
    0.5850    0.9030    2.5560 H   0  0  0  0  0  0  0  0  0  0  0  0
   -1.2510    2.9590    0.0290 H   0  0  0  0  0  0  0  0  0  0  0  0
   -3.1620    4.3160    0.6280 H   0  0  0  0  0  0  0  0  0  0  0  0
   -4.1920    4.0830    2.8640 H   0  0  0  0  0  0  0  0  0  0  0  0
   -3.2660    2.4600    4.4880 H   0  0  0  0  0  0  0  0  0  0  0  0
   -1.3090    1.0800    3.8550 H   0  0  0  0  0  0  0  0  0  0  0  0
   -4.0770   -1.1320   -1.4250 C   0  0  0  0  0  0  0  0  0  0  0  0
   -2.9990   -0.0430   -1.5680 C   0  0  2  0  0  0  0  0  0  0  0  0
   -2.3410    0.0180   -0.2830 N   0  0  0  0  0  0  0  0  0  0  0  0
   -3.6810    1.1800   -1.9840 C   0  0  0  0  0  0  0  0  0  0  0  0
   -3.7640    2.2550   -1.3690 O   0  0  0  0  0  0  0  0  0  0  0  0
   -4.3260    1.1470   -3.2340 O   0  0  0  0  0  0  0  0  0  0  0  0
   -4.9510   -0.6090   -0.9750 H   0  0  0  0  0  0  0  0  0  0  0  0
   -3.7130   -1.8920   -0.7120 H   0  0  0  0  0  0  0  0  0  0  0  0
   -4.2890   -1.5150   -2.4310 H   0  0  0  0  0  0  0  0  0  0  0  0
   -2.2930   -0.3430   -2.3910 H   0  0  0  0  0  0  0  0  0  0  0  0
   -2.9180    0.2940    0.5350 H   0  0  0  0  0  0  0  0  0  0  0  0
  1 11  1  0  0  0  0
  1 10  1  0  0  0  0
  2  3  1  0  0  0  0
  2  1  1  0  0  0  0
  3 14  1  1  0  0  0
  3  5  1  0  0  0  0
  4  3  1  0  0  0  0
  5 18  1  6  0  0  0
  5  7  1  0  0  0  0
  5  6  1  0  0  0  0
  6 19  1  0  0  0  0
  6 20  1  0  0  0  0
  7  8  2  0  0  0  0
  9  1  1  0  0  0  0
 12  2  1  0  0  0  0
 13  2  1  0  0  0  0
 15  4  1  0  0  0  0
 16  4  1  0  0  0  0
 17  4  1  0  0  0  0
 21 22  1  0  0  0  0
 21  7  1  0  0  0  0
 22 23  1  0  0  0  0
 22 33  1  1  0  0  0
 23 24  1  0  0  0  0
 23 35  1  0  0  0  0
 24 29  1  0  0  0  0
 25 26  1  0  0  0  0
 25 24  2  0  0  0  0
 26 27  2  0  0  0  0
 27 38  1  0  0  0  0
 27 28  1  0  0  0  0
 28 39  1  0  0  0  0
 29 28  2  0  0  0  0
 29 40  1  0  0  0  0
 30 22  1  0  0  0  0
 31 30  2  0  0  0  0
 32 21  1  0  0  0  0
 34 23  1  0  0  0  0
 36 25  1  0  0  0  0
 37 26  1  0  0  0  0
 41 47  1  0  0  0  0
 41 48  1  0  0  0  0
 42 50  1  6  0  0  0
 42 41  1  0  0  0  0
 42 43  1  0  0  0  0
 43 30  1  0  0  0  0
 43 51  1  0  0  0  0
 44 42  1  0  0  0  0
 44 45  1  0  0  0  0
 46 44  2  0  0  0  0
 49 41  1  0  0  0  0
M  END
$$$$
