IFD.pdb
 OpenBabel07022418423D

 54 54  0  0  1  0  0  0  0  0999 V2000
   -0.3380   -2.5120    5.1080 C   0  0  0  0  0  0  0  0  0  0  0  0
    0.5140   -2.5720    3.8900 C   0  0  0  0  0  0  0  0  0  0  0  0
    1.3790   -1.3890    3.6590 C   0  0  2  0  0  0  0  0  0  0  0  0
    2.3350   -1.1890    4.8190 C   0  0  0  0  0  0  0  0  0  0  0  0
    0.6590   -0.1080    3.4300 C   0  0  2  0  0  0  0  0  0  0  0  0
   -0.1730    0.2730    4.5280 N   0  0  0  0  0  0  0  0  0  0  0  0
   -0.0990   -0.0540    2.1550 C   0  0  0  0  0  0  0  0  0  0  0  0
   -1.3070    0.3050    2.1740 O   0  0  0  0  0  0  0  0  0  0  0  0
   -1.3700   -2.1410    4.9110 H   0  0  0  0  0  0  0  0  0  0  0  0
    0.0800   -1.9600    5.9550 H   0  0  0  0  0  0  0  0  0  0  0  0
   -0.4860   -3.5660    5.4740 H   0  0  0  0  0  0  0  0  0  0  0  0
    1.1840   -3.4650    3.9730 H   0  0  0  0  0  0  0  0  0  0  0  0
   -0.1210   -2.7650    2.9990 H   0  0  0  0  0  0  0  0  0  0  0  0
    2.0280   -1.6080    2.7720 H   0  0  0  0  0  0  0  0  0  0  0  0
    3.0640   -0.3710    4.5880 H   0  0  0  0  0  0  0  0  0  0  0  0
    2.9340   -2.1050    5.0210 H   0  0  0  0  0  0  0  0  0  0  0  0
    1.8210   -0.9230    5.7620 H   0  0  0  0  0  0  0  0  0  0  0  0
    1.4490    0.6950    3.3350 H   0  0  0  0  0  0  0  0  0  0  0  0
    0.3150    0.7330    5.3040 H   0  0  0  0  0  0  0  0  0  0  0  0
   -1.0180    0.7640    4.1860 H   0  0  0  0  0  0  0  0  0  0  0  0
    0.4720   -0.3880    0.9040 N   0  0  0  0  0  0  0  0  0  0  0  0
   -0.2980   -0.3250   -0.3420 C   0  0  1  0  0  0  0  0  0  0  0  0
    0.3240    0.7170   -1.2690 C   0  0  0  0  0  0  0  0  0  0  0  0
    0.3250    2.0570   -0.6490 C   0  0  0  0  0  0  0  0  0  0  0  0
    1.3760    2.5140    0.1300 C   0  0  0  0  0  0  0  0  0  0  0  0
    1.3720    3.7750    0.7110 C   0  0  0  0  0  0  0  0  0  0  0  0
    0.2950    4.6190    0.5200 C   0  0  0  0  0  0  0  0  0  0  0  0
   -0.7550    4.1670   -0.2560 C   0  0  0  0  0  0  0  0  0  0  0  0
   -0.7360    2.9050   -0.8290 C   0  0  0  0  0  0  0  0  0  0  0  0
   -0.2490   -1.6760   -0.9580 C   0  0  0  0  0  0  0  0  0  0  0  0
    0.3870   -2.6380   -0.4030 O   0  0  0  0  0  0  0  0  0  0  0  0
    1.4710   -0.6820    0.9100 H   0  0  0  0  0  0  0  0  0  0  0  0
   -1.3340    0.0170   -0.1420 H   0  0  0  0  0  0  0  0  0  0  0  0
   -0.0910    0.6750   -2.2740 H   0  0  0  0  0  0  0  0  0  0  0  0
    1.4060    0.4060   -1.3630 H   0  0  0  0  0  0  0  0  0  0  0  0
    2.2310    1.8780    0.2970 H   0  0  0  0  0  0  0  0  0  0  0  0
    2.1830    4.1370    1.3160 H   0  0  0  0  0  0  0  0  0  0  0  0
    0.2510    5.6130    0.9550 H   0  0  0  0  0  0  0  0  0  0  0  0
   -1.6340    4.7890   -0.4440 H   0  0  0  0  0  0  0  0  0  0  0  0
   -1.5750    2.5980   -1.4240 H   0  0  0  0  0  0  0  0  0  0  0  0
   -0.8890   -1.9920   -2.1800 N   0  0  0  0  0  0  0  0  0  0  0  0
   -0.8260   -3.3160   -2.7600 C   0  0  1  0  0  0  0  0  0  0  0  0
   -2.1680   -3.9650   -2.8500 C   0  0  0  0  0  0  0  0  0  0  0  0
   -3.1390   -3.2220   -3.6750 C   0  0  0  0  0  0  0  0  0  0  0  0
   -4.3090   -3.6670   -3.8180 O   0  0  0  0  0  0  0  0  0  0  0  0
   -0.0990   -3.3140   -4.0550 C   0  0  0  0  0  0  0  0  0  0  0  0
    0.0840   -4.3470   -4.7380 O   0  0  0  0  0  0  0  0  0  0  0  0
   -2.8510   -2.0340   -4.3250 O   0  0  0  0  0  0  0  0  0  0  0  0
    0.3970   -2.1060   -4.5180 O   0  0  0  0  0  0  0  0  0  0  0  0
   -1.4130   -1.2510   -2.6660 H   0  0  0  0  0  0  0  0  0  0  0  0
   -0.2120   -3.9410   -2.0740 H   0  0  0  0  0  0  0  0  0  0  0  0
   -2.5310   -4.1430   -1.8120 H   0  0  0  0  0  0  0  0  0  0  0  0
   -2.0360   -4.9620   -3.3140 H   0  0  0  0  0  0  0  0  0  0  0  0
   -3.3360   -1.8750   -5.2170 H   0  0  0  0  0  0  0  0  0  0  0  0
  1 11  1  0  0  0  0
  1 10  1  0  0  0  0
  2 12  1  0  0  0  0
  2  1  1  0  0  0  0
  3 14  1  6  0  0  0
  3  2  1  0  0  0  0
  3  4  1  0  0  0  0
  4 16  1  0  0  0  0
  4 17  1  0  0  0  0
  5 18  1  6  0  0  0
  5  3  1  0  0  0  0
  5  6  1  0  0  0  0
  6 19  1  0  0  0  0
  7  8  2  0  0  0  0
  7  5  1  0  0  0  0
  9  1  1  0  0  0  0
 13  2  1  0  0  0  0
 15  4  1  0  0  0  0
 20  6  1  0  0  0  0
 21 32  1  0  0  0  0
 21  7  1  0  0  0  0
 22 33  1  1  0  0  0
 22 21  1  0  0  0  0
 23 24  1  0  0  0  0
 23 22  1  0  0  0  0
 24 25  1  0  0  0  0
 25 36  1  0  0  0  0
 25 26  2  0  0  0  0
 26 37  1  0  0  0  0
 27 26  1  0  0  0  0
 27 38  1  0  0  0  0
 28 27  2  0  0  0  0
 29 24  2  0  0  0  0
 29 28  1  0  0  0  0
 30 31  2  0  0  0  0
 30 22  1  0  0  0  0
 34 23  1  0  0  0  0
 35 23  1  0  0  0  0
 39 28  1  0  0  0  0
 40 29  1  0  0  0  0
 41 30  1  0  0  0  0
 42 41  1  0  0  0  0
 42 51  1  1  0  0  0
 43 42  1  0  0  0  0
 43 52  1  0  0  0  0
 44 43  1  0  0  0  0
 45 44  2  0  0  0  0
 46 42  1  0  0  0  0
 47 46  2  0  0  0  0
 48 44  1  0  0  0  0
 49 46  1  0  0  0  0
 50 41  1  0  0  0  0
 53 43  1  0  0  0  0
 54 48  1  0  0  0  0
M  END
$$$$
