IFF.pdb
 OpenBabel07022418423D

 61 62  0  0  1  0  0  0  0  0999 V2000
    4.7130   -1.5730    2.3010 C   0  0  0  0  0  0  0  0  0  0  0  0
    4.0060   -0.2500    2.3270 C   0  0  0  0  0  0  0  0  0  0  0  0
    2.7090   -0.3980    1.5290 C   0  0  2  0  0  0  0  0  0  0  0  0
    3.0790   -0.7860    0.1360 C   0  0  0  0  0  0  0  0  0  0  0  0
    1.9250    0.9080    1.5720 C   0  0  2  0  0  0  0  0  0  0  0  0
    1.5960    1.2570    2.9360 N   0  0  0  0  0  0  0  0  0  0  0  0
    0.7670    0.8800    0.6710 C   0  0  0  0  0  0  0  0  0  0  0  0
    0.9430    0.5920   -0.5190 O   0  0  0  0  0  0  0  0  0  0  0  0
    5.5050   -1.5840    1.5230 H   0  0  0  0  0  0  0  0  0  0  0  0
    4.0520   -2.4320    2.1110 H   0  0  0  0  0  0  0  0  0  0  0  0
    5.1670   -1.7280    3.3170 H   0  0  0  0  0  0  0  0  0  0  0  0
    3.7580    0.0970    3.3590 H   0  0  0  0  0  0  0  0  0  0  0  0
    4.6640    0.5010    1.8880 H   0  0  0  0  0  0  0  0  0  0  0  0
    2.0680   -1.1800    1.9720 H   0  0  0  0  0  0  0  0  0  0  0  0
    3.2250    0.0760   -0.5400 H   0  0  0  0  0  0  0  0  0  0  0  0
    4.0180   -1.4010    0.1350 H   0  0  0  0  0  0  0  0  0  0  0  0
    2.2790   -1.4040   -0.2870 H   0  0  0  0  0  0  0  0  0  0  0  0
    2.6330    1.7010    1.2110 H   0  0  0  0  0  0  0  0  0  0  0  0
    0.9440    0.5620    3.3690 H   0  0  0  0  0  0  0  0  0  0  0  0
    1.1020    2.1700    2.9260 H   0  0  0  0  0  0  0  0  0  0  0  0
   -0.5650    1.1630    1.0780 N   0  0  0  0  0  0  0  0  0  0  0  0
   -1.7140    1.1600    0.2650 C   0  0  1  0  0  0  0  0  0  0  0  0
   -1.6410    1.8520   -1.0560 C   0  0  0  0  0  0  0  0  0  0  0  0
   -1.3510    3.3050   -0.9770 C   0  0  0  0  0  0  0  0  0  0  0  0
   -0.0860    3.8330   -1.0220 C   0  0  0  0  0  0  0  0  0  0  0  0
    0.1230    5.1960   -0.9390 C   0  0  0  0  0  0  0  0  0  0  0  0
   -0.9120    6.0980   -0.8070 C   0  0  0  0  0  0  0  0  0  0  0  0
   -2.1830    5.5680   -0.7620 C   0  0  0  0  0  0  0  0  0  0  0  0
   -2.4060    4.2180   -0.8440 C   0  0  0  0  0  0  0  0  0  0  0  0
   -2.2020   -0.2220    0.0850 C   0  0  0  0  0  0  0  0  0  0  0  0
   -3.2300   -0.5040   -0.6090 O   0  0  0  0  0  0  0  0  0  0  0  0
   -0.6710    1.3950    2.1060 H   0  0  0  0  0  0  0  0  0  0  0  0
   -2.5350    1.7040    0.8410 H   0  0  0  0  0  0  0  0  0  0  0  0
   -2.6380    1.7540   -1.5360 H   0  0  0  0  0  0  0  0  0  0  0  0
   -0.9340    1.3090   -1.7210 H   0  0  0  0  0  0  0  0  0  0  0  0
    0.7840    3.2030   -1.1270 H   0  0  0  0  0  0  0  0  0  0  0  0
    1.1270    5.6300   -0.9730 H   0  0  0  0  0  0  0  0  0  0  0  0
   -0.7580    7.1660   -0.7410 H   0  0  0  0  0  0  0  0  0  0  0  0
   -3.0560    6.2310   -0.6580 H   0  0  0  0  0  0  0  0  0  0  0  0
   -3.3980    3.7750   -0.8110 H   0  0  0  0  0  0  0  0  0  0  0  0
   -1.5510   -1.3600    0.6810 N   0  0  0  0  0  0  0  0  0  0  0  0
   -2.0150   -2.7000    0.5130 C   0  0  1  0  0  0  0  0  0  0  0  0
   -1.0240   -3.5810   -0.2060 C   0  0  0  0  0  0  0  0  0  0  0  0
   -1.4570   -4.9620   -0.3980 C   0  0  0  0  0  0  0  0  0  0  0  0
   -1.1440   -5.9090    0.5540 C   0  0  0  0  0  0  0  0  0  0  0  0
   -1.5130   -7.2380    0.4590 C   0  0  0  0  0  0  0  0  0  0  0  0
   -2.2330   -7.6390   -0.6460 C   0  0  0  0  0  0  0  0  0  0  0  0
   -2.5450   -6.6940   -1.5930 C   0  0  0  0  0  0  0  0  0  0  0  0
   -2.1770   -5.3710   -1.4990 C   0  0  0  0  0  0  0  0  0  0  0  0
   -2.4570   -3.2360    1.8170 C   0  0  0  0  0  0  0  0  0  0  0  0
   -2.9290   -4.3840    1.9990 O   0  0  0  0  0  0  0  0  0  0  0  0
   -2.3520   -2.4310    2.9400 O   0  0  0  0  0  0  0  0  0  0  0  0
   -0.7010   -1.1500    1.2580 H   0  0  0  0  0  0  0  0  0  0  0  0
   -2.9300   -2.6680   -0.1390 H   0  0  0  0  0  0  0  0  0  0  0  0
   -0.8400   -3.1240   -1.1910 H   0  0  0  0  0  0  0  0  0  0  0  0
   -0.0680   -3.6020    0.3790 H   0  0  0  0  0  0  0  0  0  0  0  0
   -0.5690   -5.6630    1.4610 H   0  0  0  0  0  0  0  0  0  0  0  0
   -1.2430   -7.9610    1.2400 H   0  0  0  0  0  0  0  0  0  0  0  0
   -2.5390   -8.6820   -0.7470 H   0  0  0  0  0  0  0  0  0  0  0  0
   -3.1170   -7.0500   -2.4560 H   0  0  0  0  0  0  0  0  0  0  0  0
   -2.4440   -4.6610   -2.2690 H   0  0  0  0  0  0  0  0  0  0  0  0
  1  2  1  0  0  0  0
  1 11  1  0  0  0  0
  2 12  1  0  0  0  0
  3  5  1  0  0  0  0
  3 14  1  1  0  0  0
  3  2  1  0  0  0  0
  4  3  1  0  0  0  0
  5 18  1  6  0  0  0
  5  6  1  0  0  0  0
  6 19  1  0  0  0  0
  7 21  1  0  0  0  0
  7  5  1  0  0  0  0
  8  7  2  0  0  0  0
  9  1  1  0  0  0  0
 10  1  1  0  0  0  0
 13  2  1  0  0  0  0
 15  4  1  0  0  0  0
 16  4  1  0  0  0  0
 17  4  1  0  0  0  0
 20  6  1  0  0  0  0
 21 32  1  0  0  0  0
 22 33  1  1  0  0  0
 22 21  1  0  0  0  0
 23 24  1  0  0  0  0
 23 22  1  0  0  0  0
 24 29  1  0  0  0  0
 25 24  2  0  0  0  0
 25 26  1  0  0  0  0
 26 27  2  0  0  0  0
 27 28  1  0  0  0  0
 27 38  1  0  0  0  0
 28 39  1  0  0  0  0
 29 40  1  0  0  0  0
 29 28  2  0  0  0  0
 30 22  1  0  0  0  0
 30 41  1  0  0  0  0
 31 30  2  0  0  0  0
 34 23  1  0  0  0  0
 35 23  1  0  0  0  0
 36 25  1  0  0  0  0
 37 26  1  0  0  0  0
 41 53  1  0  0  0  0
 42 54  1  6  0  0  0
 42 41  1  0  0  0  0
 42 50  1  0  0  0  0
 43 56  1  0  0  0  0
 43 42  1  0  0  0  0
 44 43  1  0  0  0  0
 44 45  1  0  0  0  0
 45 57  1  0  0  0  0
 46 45  2  0  0  0  0
 46 58  1  0  0  0  0
 47 46  1  0  0  0  0
 48 49  1  0  0  0  0
 48 47  2  0  0  0  0
 49 44  2  0  0  0  0
 50 51  2  0  0  0  0
 50 52  1  0  0  0  0
 55 43  1  0  0  0  0
 59 47  1  0  0  0  0
 60 48  1  0  0  0  0
 61 49  1  0  0  0  0
M  END
$$$$
