IFI.pdb
 OpenBabel07022418423D

 60 60  0  0  1  0  0  0  0  0999 V2000
    1.3260   -2.3560    3.6310 C   0  0  0  0  0  0  0  0  0  0  0  0
    2.4640   -1.4440    3.9280 C   0  0  0  0  0  0  0  0  0  0  0  0
    2.4000   -0.0850    3.3350 C   0  0  2  0  0  0  0  0  0  0  0  0
    3.6480    0.6640    3.7650 C   0  0  0  0  0  0  0  0  0  0  0  0
    1.1530    0.6890    3.5730 C   0  0  2  0  0  0  0  0  0  0  0  0
    0.8750    0.9070    4.9750 N   0  0  0  0  0  0  0  0  0  0  0  0
    0.0430    0.1470    2.7990 C   0  0  0  0  0  0  0  0  0  0  0  0
   -1.0720   -0.1980    3.2890 O   0  0  0  0  0  0  0  0  0  0  0  0
    0.5190   -2.1490    4.3620 H   0  0  0  0  0  0  0  0  0  0  0  0
    1.6600   -3.4140    3.8630 H   0  0  0  0  0  0  0  0  0  0  0  0
    1.0240   -2.3820    2.5860 H   0  0  0  0  0  0  0  0  0  0  0  0
    3.3870   -1.9350    3.4970 H   0  0  0  0  0  0  0  0  0  0  0  0
    2.6340   -1.4450    5.0270 H   0  0  0  0  0  0  0  0  0  0  0  0
    2.5100   -0.2030    2.2200 H   0  0  0  0  0  0  0  0  0  0  0  0
    3.8510    0.5010    4.8430 H   0  0  0  0  0  0  0  0  0  0  0  0
    3.5290    1.7610    3.6230 H   0  0  0  0  0  0  0  0  0  0  0  0
    4.5310    0.2950    3.2180 H   0  0  0  0  0  0  0  0  0  0  0  0
    1.3480    1.7250    3.1500 H   0  0  0  0  0  0  0  0  0  0  0  0
    0.3440    1.8000    5.0730 H   0  0  0  0  0  0  0  0  0  0  0  0
    1.7940    1.0510    5.4500 H   0  0  0  0  0  0  0  0  0  0  0  0
    0.1790   -0.0190    1.3920 N   0  0  0  0  0  0  0  0  0  0  0  0
   -0.9190   -0.5570    0.6030 C   0  0  1  0  0  0  0  0  0  0  0  0
   -1.4100    0.4880   -0.4020 C   0  0  0  0  0  0  0  0  0  0  0  0
   -1.8900    1.7120    0.2870 C   0  0  0  0  0  0  0  0  0  0  0  0
   -1.0390    2.7590    0.5660 C   0  0  0  0  0  0  0  0  0  0  0  0
   -1.5080    3.8910    1.2090 C   0  0  0  0  0  0  0  0  0  0  0  0
   -2.8380    3.9780    1.5770 C   0  0  0  0  0  0  0  0  0  0  0  0
   -3.6890    2.9420    1.3040 C   0  0  0  0  0  0  0  0  0  0  0  0
   -3.2180    1.8110    0.6610 C   0  0  0  0  0  0  0  0  0  0  0  0
   -0.3840   -1.6940   -0.2060 C   0  0  0  0  0  0  0  0  0  0  0  0
    0.8290   -2.0210   -0.1270 O   0  0  0  0  0  0  0  0  0  0  0  0
    1.0610    0.2360    0.8730 H   0  0  0  0  0  0  0  0  0  0  0  0
   -1.7870   -0.8170    1.2070 H   0  0  0  0  0  0  0  0  0  0  0  0
   -2.2440    0.0740   -0.9790 H   0  0  0  0  0  0  0  0  0  0  0  0
   -0.5790    0.7020   -1.0980 H   0  0  0  0  0  0  0  0  0  0  0  0
   -0.0090    2.6430    0.2580 H   0  0  0  0  0  0  0  0  0  0  0  0
   -0.7930    4.6750    1.3990 H   0  0  0  0  0  0  0  0  0  0  0  0
   -3.1600    4.8810    2.0780 H   0  0  0  0  0  0  0  0  0  0  0  0
   -4.7200    3.0430    1.6050 H   0  0  0  0  0  0  0  0  0  0  0  0
   -3.8990    1.0010    0.4500 H   0  0  0  0  0  0  0  0  0  0  0  0
   -0.4750   -2.0710   -5.3420 C   0  0  0  0  0  0  0  0  0  0  0  0
   -1.1440   -2.3530   -4.0180 C   0  0  0  0  0  0  0  0  0  0  0  0
   -0.2220   -3.1970   -3.1860 C   0  0  2  0  0  0  0  0  0  0  0  0
    0.0440   -4.4860   -3.9240 C   0  0  0  0  0  0  0  0  0  0  0  0
   -0.8890   -3.5210   -1.8960 C   0  0  2  0  0  0  0  0  0  0  0  0
   -1.2580   -2.4170   -1.0790 N   0  0  0  0  0  0  0  0  0  0  0  0
   -0.1770   -4.5510   -1.0900 C   0  0  0  0  0  0  0  0  0  0  0  0
    0.3230   -5.5880   -1.5810 O   0  0  0  0  0  0  0  0  0  0  0  0
   -0.0590   -4.3660    0.2690 O   0  0  0  0  0  0  0  0  0  0  0  0
    0.6010   -2.2850   -5.2380 H   0  0  0  0  0  0  0  0  0  0  0  0
   -0.6470   -1.0250   -5.6810 H   0  0  0  0  0  0  0  0  0  0  0  0
   -0.8750   -2.8030   -6.0940 H   0  0  0  0  0  0  0  0  0  0  0  0
   -2.0660   -2.9780   -4.1950 H   0  0  0  0  0  0  0  0  0  0  0  0
   -1.4330   -1.4140   -3.4940 H   0  0  0  0  0  0  0  0  0  0  0  0
    0.7600   -2.6960   -3.0670 H   0  0  0  0  0  0  0  0  0  0  0  0
    1.0470   -4.9000   -3.6920 H   0  0  0  0  0  0  0  0  0  0  0  0
   -0.7620   -5.2390   -3.7600 H   0  0  0  0  0  0  0  0  0  0  0  0
    0.0420   -4.2580   -5.0090 H   0  0  0  0  0  0  0  0  0  0  0  0
   -1.8660   -4.0570   -2.1630 H   0  0  0  0  0  0  0  0  0  0  0  0
   -2.2480   -2.0760   -1.0930 H   0  0  0  0  0  0  0  0  0  0  0  0
  1 10  1  0  0  0  0
  1  2  1  0  0  0  0
  1  9  1  0  0  0  0
  2 13  1  0  0  0  0
  3 14  1  6  0  0  0
  3  5  1  0  0  0  0
  3  4  1  0  0  0  0
  3  2  1  0  0  0  0
  4 15  1  0  0  0  0
  5 18  1  6  0  0  0
  5  6  1  0  0  0  0
  6 19  1  0  0  0  0
  6 20  1  0  0  0  0
  7  8  2  0  0  0  0
  7  5  1  0  0  0  0
 11  1  1  0  0  0  0
 12  2  1  0  0  0  0
 16  4  1  0  0  0  0
 17  4  1  0  0  0  0
 21  7  1  0  0  0  0
 22 33  1  1  0  0  0
 22 21  1  0  0  0  0
 23 24  1  0  0  0  0
 23 22  1  0  0  0  0
 24 25  2  0  0  0  0
 24 29  1  0  0  0  0
 25 26  1  0  0  0  0
 26 37  1  0  0  0  0
 26 27  2  0  0  0  0
 27 38  1  0  0  0  0
 28 27  1  0  0  0  0
 28 39  1  0  0  0  0
 29 28  2  0  0  0  0
 30 31  2  0  0  0  0
 30 22  1  0  0  0  0
 32 21  1  0  0  0  0
 34 23  1  0  0  0  0
 35 23  1  0  0  0  0
 36 25  1  0  0  0  0
 40 29  1  0  0  0  0
 41 50  1  0  0  0  0
 41 42  1  0  0  0  0
 42 54  1  0  0  0  0
 42 43  1  0  0  0  0
 43 55  1  1  0  0  0
 43 45  1  0  0  0  0
 44 57  1  0  0  0  0
 44 56  1  0  0  0  0
 44 43  1  0  0  0  0
 45 59  1  6  0  0  0
 45 47  1  0  0  0  0
 45 46  1  0  0  0  0
 46 30  1  0  0  0  0
 47 49  1  0  0  0  0
 48 47  2  0  0  0  0
 51 41  1  0  0  0  0
 52 41  1  0  0  0  0
 53 42  1  0  0  0  0
 58 44  1  0  0  0  0
 60 46  1  0  0  0  0
M  END
$$$$
