IFK.pdb
 OpenBabel07022418423D

 62 62  0  0  1  0  0  0  0  0999 V2000
    2.3930    1.0500    6.1880 C   0  0  0  0  0  0  0  0  0  0  0  0
    1.2920    0.7010    5.1620 C   0  0  0  0  0  0  0  0  0  0  0  0
    1.6320   -0.5930    4.4650 C   0  0  2  0  0  0  0  0  0  0  0  0
    2.9400   -0.4200    3.7420 C   0  0  0  0  0  0  0  0  0  0  0  0
    0.4940   -1.0250    3.5760 C   0  0  2  0  0  0  0  0  0  0  0  0
    0.8220   -2.2850    2.9060 N   0  0  0  0  0  0  0  0  0  0  0  0
    0.2190    0.0350    2.5950 C   0  0  0  0  0  0  0  0  0  0  0  0
   -0.2040    1.1800    2.8820 O   0  0  0  0  0  0  0  0  0  0  0  0
    2.6370    0.1220    6.7010 H   0  0  0  0  0  0  0  0  0  0  0  0
    1.9180    1.7510    6.9030 H   0  0  0  0  0  0  0  0  0  0  0  0
    3.2460    1.5410    5.6760 H   0  0  0  0  0  0  0  0  0  0  0  0
    0.3500    0.6460    5.7410 H   0  0  0  0  0  0  0  0  0  0  0  0
    1.3230    1.5900    4.4740 H   0  0  0  0  0  0  0  0  0  0  0  0
    1.7560   -1.3430    5.3140 H   0  0  0  0  0  0  0  0  0  0  0  0
    2.7600   -0.5480    2.6460 H   0  0  0  0  0  0  0  0  0  0  0  0
    3.6380   -1.1990    4.1040 H   0  0  0  0  0  0  0  0  0  0  0  0
    3.3770    0.5960    3.8790 H   0  0  0  0  0  0  0  0  0  0  0  0
   -0.3610   -1.2570    4.2390 H   0  0  0  0  0  0  0  0  0  0  0  0
    1.6750   -2.2440    2.3430 H   0  0  0  0  0  0  0  0  0  0  0  0
    0.9380   -3.0130    3.6430 H   0  0  0  0  0  0  0  0  0  0  0  0
    0.4220   -0.1710    1.1770 N   0  0  0  0  0  0  0  0  0  0  0  0
    0.1650    0.8420    0.1880 C   0  0  1  0  0  0  0  0  0  0  0  0
    1.4010    1.2090   -0.5890 C   0  0  0  0  0  0  0  0  0  0  0  0
    1.1390    2.2480   -1.6140 C   0  0  0  0  0  0  0  0  0  0  0  0
    0.8060    1.9440   -2.9170 C   0  0  0  0  0  0  0  0  0  0  0  0
    0.5590    2.9310   -3.8590 C   0  0  0  0  0  0  0  0  0  0  0  0
    0.6350    4.2700   -3.5370 C   0  0  0  0  0  0  0  0  0  0  0  0
    0.9680    4.5790   -2.2360 C   0  0  0  0  0  0  0  0  0  0  0  0
    1.2160    3.5850   -1.2890 C   0  0  0  0  0  0  0  0  0  0  0  0
   -0.9680    0.4000   -0.6520 C   0  0  0  0  0  0  0  0  0  0  0  0
   -1.4510    1.0890   -1.5890 O   0  0  0  0  0  0  0  0  0  0  0  0
    0.7720   -1.1140    0.9050 H   0  0  0  0  0  0  0  0  0  0  0  0
   -0.1930    1.8010    0.6690 H   0  0  0  0  0  0  0  0  0  0  0  0
    2.1410    1.6350    0.1210 H   0  0  0  0  0  0  0  0  0  0  0  0
    1.8960    0.3080   -1.0240 H   0  0  0  0  0  0  0  0  0  0  0  0
    0.7470    0.8840   -3.1860 H   0  0  0  0  0  0  0  0  0  0  0  0
    0.2990    2.6550   -4.8760 H   0  0  0  0  0  0  0  0  0  0  0  0
    0.4420    5.0460   -4.2750 H   0  0  0  0  0  0  0  0  0  0  0  0
    1.0300    5.6320   -1.9790 H   0  0  0  0  0  0  0  0  0  0  0  0
    1.4730    3.8630   -0.2840 H   0  0  0  0  0  0  0  0  0  0  0  0
   -1.5600   -0.8700   -0.4070 N   0  0  0  0  0  0  0  0  0  0  0  0
   -2.6740   -1.3730   -1.1860 C   0  0  1  0  0  0  0  0  0  0  0  0
   -2.1610   -2.6050   -1.9430 C   0  0  0  0  0  0  0  0  0  0  0  0
   -1.6720   -3.6790   -1.0170 C   0  0  0  0  0  0  0  0  0  0  0  0
   -1.1950   -4.8380   -1.8300 C   0  0  0  0  0  0  0  0  0  0  0  0
   -2.2750   -5.4270   -2.6950 C   0  0  0  0  0  0  0  0  0  0  0  0
   -3.3910   -5.9050   -1.8970 N   0  0  0  0  0  0  0  0  0  0  0  0
   -3.8030   -1.7680   -0.3210 C   0  0  0  0  0  0  0  0  0  0  0  0
   -3.6960   -1.6370    0.9160 O   0  0  0  0  0  0  0  0  0  0  0  0
   -4.9700   -2.2780   -0.8450 O   0  0  0  0  0  0  0  0  0  0  0  0
   -1.1780   -1.4580    0.3650 H   0  0  0  0  0  0  0  0  0  0  0  0
   -3.0060   -0.6050   -1.9410 H   0  0  0  0  0  0  0  0  0  0  0  0
   -2.9910   -2.9630   -2.5870 H   0  0  0  0  0  0  0  0  0  0  0  0
   -1.3170   -2.3180   -2.6010 H   0  0  0  0  0  0  0  0  0  0  0  0
   -0.8210   -3.2860   -0.4200 H   0  0  0  0  0  0  0  0  0  0  0  0
   -2.4890   -4.0590   -0.3530 H   0  0  0  0  0  0  0  0  0  0  0  0
   -0.3840   -4.4930   -2.5190 H   0  0  0  0  0  0  0  0  0  0  0  0
   -0.8320   -5.6290   -1.1420 H   0  0  0  0  0  0  0  0  0  0  0  0
   -1.8300   -6.3540   -3.1550 H   0  0  0  0  0  0  0  0  0  0  0  0
   -2.5890   -4.7370   -3.4870 H   0  0  0  0  0  0  0  0  0  0  0  0
   -3.0970   -5.9800   -0.9010 H   0  0  0  0  0  0  0  0  0  0  0  0
   -4.2310   -5.3080   -1.9860 H   0  0  0  0  0  0  0  0  0  0  0  0
  1  9  1  0  0  0  0
  1 10  1  0  0  0  0
  2 12  1  0  0  0  0
  2  1  1  0  0  0  0
  3  2  1  0  0  0  0
  3 14  1  1  0  0  0
  4 17  1  0  0  0  0
  4 16  1  0  0  0  0
  4  3  1  0  0  0  0
  5 18  1  1  0  0  0
  5  3  1  0  0  0  0
  6  5  1  0  0  0  0
  6 20  1  0  0  0  0
  7  8  2  0  0  0  0
  7  5  1  0  0  0  0
 11  1  1  0  0  0  0
 13  2  1  0  0  0  0
 15  4  1  0  0  0  0
 19  6  1  0  0  0  0
 21  7  1  0  0  0  0
 22 33  1  1  0  0  0
 22 21  1  0  0  0  0
 23 34  1  0  0  0  0
 23 22  1  0  0  0  0
 24 29  1  0  0  0  0
 24 23  1  0  0  0  0
 25 24  2  0  0  0  0
 26 27  2  0  0  0  0
 26 25  1  0  0  0  0
 27 28  1  0  0  0  0
 28 39  1  0  0  0  0
 28 29  2  0  0  0  0
 29 40  1  0  0  0  0
 30 41  1  0  0  0  0
 30 22  1  0  0  0  0
 31 30  2  0  0  0  0
 32 21  1  0  0  0  0
 35 23  1  0  0  0  0
 36 25  1  0  0  0  0
 37 26  1  0  0  0  0
 38 27  1  0  0  0  0
 41 51  1  0  0  0  0
 42 52  1  6  0  0  0
 42 41  1  0  0  0  0
 42 48  1  0  0  0  0
 43 42  1  0  0  0  0
 43 44  1  0  0  0  0
 44 55  1  0  0  0  0
 44 56  1  0  0  0  0
 45 58  1  0  0  0  0
 45 44  1  0  0  0  0
 46 47  1  0  0  0  0
 46 45  1  0  0  0  0
 47 61  1  0  0  0  0
 48 49  1  0  0  0  0
 50 48  2  0  0  0  0
 53 43  1  0  0  0  0
 54 43  1  0  0  0  0
 57 45  1  0  0  0  0
 59 46  1  0  0  0  0
 60 46  1  0  0  0  0
 62 47  1  0  0  0  0
M  END
$$$$
