IFL.pdb
 OpenBabel07022418423D

 60 60  0  0  1  0  0  0  0  0999 V2000
   -0.1310   -1.4760    5.0560 C   0  0  0  0  0  0  0  0  0  0  0  0
    0.7630   -1.7950    3.9040 C   0  0  0  0  0  0  0  0  0  0  0  0
    1.8390   -0.7900    3.6660 C   0  0  2  0  0  0  0  0  0  0  0  0
    2.7450   -0.6490    4.8550 C   0  0  0  0  0  0  0  0  0  0  0  0
    1.2660    0.5380    3.2310 C   0  0  2  0  0  0  0  0  0  0  0  0
    0.3970    1.0120    4.2740 N   0  0  0  0  0  0  0  0  0  0  0  0
    0.5090    0.3660    1.9760 C   0  0  0  0  0  0  0  0  0  0  0  0
   -0.7390    0.6360    1.9520 O   0  0  0  0  0  0  0  0  0  0  0  0
    0.3340   -0.9260    5.8730 H   0  0  0  0  0  0  0  0  0  0  0  0
   -0.4810   -2.4530    5.4910 H   0  0  0  0  0  0  0  0  0  0  0  0
   -1.0650   -0.9410    4.7410 H   0  0  0  0  0  0  0  0  0  0  0  0
    1.2550   -2.7790    4.0910 H   0  0  0  0  0  0  0  0  0  0  0  0
    0.1480   -1.9270    2.9980 H   0  0  0  0  0  0  0  0  0  0  0  0
    2.4640   -1.1580    2.8210 H   0  0  0  0  0  0  0  0  0  0  0  0
    2.3380    0.0750    5.6090 H   0  0  0  0  0  0  0  0  0  0  0  0
    3.7430   -0.2540    4.5740 H   0  0  0  0  0  0  0  0  0  0  0  0
    2.8170   -1.6240    5.3820 H   0  0  0  0  0  0  0  0  0  0  0  0
    2.0890    1.2820    3.1320 H   0  0  0  0  0  0  0  0  0  0  0  0
    0.9260    1.5010    5.0290 H   0  0  0  0  0  0  0  0  0  0  0  0
   -0.3590    1.6030    3.8670 H   0  0  0  0  0  0  0  0  0  0  0  0
    1.0720   -0.0860    0.7680 N   0  0  0  0  0  0  0  0  0  0  0  0
    0.3200   -0.2520   -0.4610 C   0  0  1  0  0  0  0  0  0  0  0  0
    0.8020    0.7070   -1.5150 C   0  0  0  0  0  0  0  0  0  0  0  0
    0.6440    2.1100   -1.0650 C   0  0  0  0  0  0  0  0  0  0  0  0
    1.6270    2.8120   -0.3700 C   0  0  0  0  0  0  0  0  0  0  0  0
    1.4490    4.1090    0.0310 C   0  0  0  0  0  0  0  0  0  0  0  0
    0.2840    4.7740   -0.2400 C   0  0  0  0  0  0  0  0  0  0  0  0
   -0.7070    4.1100   -0.9250 C   0  0  0  0  0  0  0  0  0  0  0  0
   -0.5130    2.8140   -1.3180 C   0  0  0  0  0  0  0  0  0  0  0  0
    0.2760   -1.6440   -0.8960 C   0  0  0  0  0  0  0  0  0  0  0  0
    0.8730   -2.5050   -0.1800 O   0  0  0  0  0  0  0  0  0  0  0  0
    2.1060   -0.3140    0.7720 H   0  0  0  0  0  0  0  0  0  0  0  0
   -0.7370    0.0520   -0.2120 H   0  0  0  0  0  0  0  0  0  0  0  0
    0.4070    0.5110   -2.5090 H   0  0  0  0  0  0  0  0  0  0  0  0
    1.9190    0.5420   -1.5910 H   0  0  0  0  0  0  0  0  0  0  0  0
    2.5430    2.2560   -0.1690 H   0  0  0  0  0  0  0  0  0  0  0  0
    2.2300    4.6090    0.5620 H   0  0  0  0  0  0  0  0  0  0  0  0
    0.1370    5.8100    0.0780 H   0  0  0  0  0  0  0  0  0  0  0  0
   -1.6190    4.6420   -1.1330 H   0  0  0  0  0  0  0  0  0  0  0  0
   -1.3130    2.3190   -1.8560 H   0  0  0  0  0  0  0  0  0  0  0  0
   -2.8150   -2.7130   -0.6480 C   0  0  0  0  0  0  0  0  0  0  0  0
   -2.5990   -4.0280   -1.3060 C   0  0  0  0  0  0  0  0  0  0  0  0
   -3.9310   -4.7290   -1.5280 C   0  0  0  0  0  0  0  0  0  0  0  0
   -1.8350   -4.0130   -2.5810 C   0  0  0  0  0  0  0  0  0  0  0  0
   -0.4320   -3.4750   -2.4910 C   0  0  2  0  0  0  0  0  0  0  0  0
   -0.3750   -2.1250   -2.0470 N   0  0  0  0  0  0  0  0  0  0  0  0
    0.2160   -3.6610   -3.8290 C   0  0  0  0  0  0  0  0  0  0  0  0
    0.2790   -4.7690   -4.4080 O   0  0  0  0  0  0  0  0  0  0  0  0
    0.7710   -2.5630   -4.4610 O   0  0  0  0  0  0  0  0  0  0  0  0
   -2.1770   -2.5880    0.2680 H   0  0  0  0  0  0  0  0  0  0  0  0
   -3.8640   -2.7260   -0.2140 H   0  0  0  0  0  0  0  0  0  0  0  0
   -2.7840   -1.8400   -1.3180 H   0  0  0  0  0  0  0  0  0  0  0  0
   -1.9930   -4.6550   -0.5830 H   0  0  0  0  0  0  0  0  0  0  0  0
   -4.1000   -4.8630   -2.6210 H   0  0  0  0  0  0  0  0  0  0  0  0
   -3.8900   -5.7390   -1.0820 H   0  0  0  0  0  0  0  0  0  0  0  0
   -4.7580   -4.1330   -1.1070 H   0  0  0  0  0  0  0  0  0  0  0  0
   -1.8420   -5.0410   -3.0400 H   0  0  0  0  0  0  0  0  0  0  0  0
   -2.3960   -3.3990   -3.3490 H   0  0  0  0  0  0  0  0  0  0  0  0
    0.1130   -4.1830   -1.8160 H   0  0  0  0  0  0  0  0  0  0  0  0
   -0.8650   -1.3950   -2.6390 H   0  0  0  0  0  0  0  0  0  0  0  0
  1 10  1  0  0  0  0
  1  9  1  0  0  0  0
  2 12  1  0  0  0  0
  2  1  1  0  0  0  0
  3 14  1  6  0  0  0
  3  2  1  0  0  0  0
  3  4  1  0  0  0  0
  4 17  1  0  0  0  0
  4 15  1  0  0  0  0
  5 18  1  6  0  0  0
  5  3  1  0  0  0  0
  5  6  1  0  0  0  0
  6 19  1  0  0  0  0
  7  5  1  0  0  0  0
  8  7  2  0  0  0  0
 11  1  1  0  0  0  0
 13  2  1  0  0  0  0
 16  4  1  0  0  0  0
 20  6  1  0  0  0  0
 21 32  1  0  0  0  0
 21  7  1  0  0  0  0
 22 33  1  1  0  0  0
 22 21  1  0  0  0  0
 23 24  1  0  0  0  0
 23 22  1  0  0  0  0
 24 25  1  0  0  0  0
 25 36  1  0  0  0  0
 25 26  2  0  0  0  0
 26 37  1  0  0  0  0
 27 26  1  0  0  0  0
 27 38  1  0  0  0  0
 28 27  2  0  0  0  0
 29 24  2  0  0  0  0
 29 28  1  0  0  0  0
 30 22  1  0  0  0  0
 30 31  2  0  0  0  0
 34 23  1  0  0  0  0
 35 23  1  0  0  0  0
 39 28  1  0  0  0  0
 40 29  1  0  0  0  0
 41 51  1  0  0  0  0
 41 50  1  0  0  0  0
 42 41  1  0  0  0  0
 42 53  1  0  0  0  0
 43 42  1  0  0  0  0
 43 56  1  0  0  0  0
 43 55  1  0  0  0  0
 44 45  1  0  0  0  0
 44 42  1  0  0  0  0
 45 46  1  0  0  0  0
 45 59  1  1  0  0  0
 46 30  1  0  0  0  0
 47 45  1  0  0  0  0
 48 47  1  0  0  0  0
 49 47  2  0  0  0  0
 52 41  1  0  0  0  0
 54 43  1  0  0  0  0
 57 44  1  0  0  0  0
 58 44  1  0  0  0  0
 60 46  1  0  0  0  0
M  END
$$$$
