IFN.pdb
 OpenBabel07022418423D

 55 55  0  0  1  0  0  0  0  0999 V2000
    2.4490   -3.2250    3.8480 C   0  0  0  0  0  0  0  0  0  0  0  0
    2.4510   -2.6010    2.4750 C   0  0  0  0  0  0  0  0  0  0  0  0
    2.5970   -1.1200    2.4870 C   0  0  2  0  0  0  0  0  0  0  0  0
    3.8950   -0.7450    3.1460 C   0  0  0  0  0  0  0  0  0  0  0  0
    1.4380   -0.3780    3.0490 C   0  0  2  0  0  0  0  0  0  0  0  0
    1.1820   -0.7410    4.4070 N   0  0  0  0  0  0  0  0  0  0  0  0
    0.2200   -0.5640    2.2380 C   0  0  0  0  0  0  0  0  0  0  0  0
   -0.8520   -0.9880    2.7560 O   0  0  0  0  0  0  0  0  0  0  0  0
    3.3590   -2.9490    4.4180 H   0  0  0  0  0  0  0  0  0  0  0  0
    2.5490   -4.3380    3.6760 H   0  0  0  0  0  0  0  0  0  0  0  0
    1.5180   -3.0960    4.4010 H   0  0  0  0  0  0  0  0  0  0  0  0
    3.3550   -3.0170    1.9490 H   0  0  0  0  0  0  0  0  0  0  0  0
    1.5870   -2.9250    1.8750 H   0  0  0  0  0  0  0  0  0  0  0  0
    2.6980   -0.8030    1.4070 H   0  0  0  0  0  0  0  0  0  0  0  0
    3.9410   -1.0050    4.2130 H   0  0  0  0  0  0  0  0  0  0  0  0
    4.1140    0.3400    2.9820 H   0  0  0  0  0  0  0  0  0  0  0  0
    4.7050   -1.2970    2.6250 H   0  0  0  0  0  0  0  0  0  0  0  0
    1.6900    0.7160    3.0010 H   0  0  0  0  0  0  0  0  0  0  0  0
    1.9900   -0.6860    5.0330 H   0  0  0  0  0  0  0  0  0  0  0  0
    0.2820   -0.4410    4.7910 H   0  0  0  0  0  0  0  0  0  0  0  0
    0.1760   -0.2820    0.8350 N   0  0  0  0  0  0  0  0  0  0  0  0
   -1.0370   -0.4780    0.0820 C   0  0  1  0  0  0  0  0  0  0  0  0
   -1.5130    0.8070   -0.5680 C   0  0  0  0  0  0  0  0  0  0  0  0
   -1.7860    1.8470    0.4560 C   0  0  0  0  0  0  0  0  0  0  0  0
   -0.8080    2.7300    0.8790 C   0  0  0  0  0  0  0  0  0  0  0  0
   -1.0510    3.6980    1.8280 C   0  0  0  0  0  0  0  0  0  0  0  0
   -2.3140    3.8050    2.3870 C   0  0  0  0  0  0  0  0  0  0  0  0
   -3.2900    2.9240    1.9650 C   0  0  0  0  0  0  0  0  0  0  0  0
   -3.0420    1.9540    1.0130 C   0  0  0  0  0  0  0  0  0  0  0  0
   -0.7840   -1.5190   -0.9750 C   0  0  0  0  0  0  0  0  0  0  0  0
    0.3530   -2.0420   -1.0630 O   0  0  0  0  0  0  0  0  0  0  0  0
    1.0550    0.0680    0.3970 H   0  0  0  0  0  0  0  0  0  0  0  0
   -1.8680   -0.8540    0.7080 H   0  0  0  0  0  0  0  0  0  0  0  0
   -2.4770    0.6020   -1.0760 H   0  0  0  0  0  0  0  0  0  0  0  0
   -0.7580    1.1930   -1.2970 H   0  0  0  0  0  0  0  0  0  0  0  0
    0.1770    2.6400    0.4370 H   0  0  0  0  0  0  0  0  0  0  0  0
   -0.2680    4.3660    2.1320 H   0  0  0  0  0  0  0  0  0  0  0  0
   -2.5130    4.5730    3.1420 H   0  0  0  0  0  0  0  0  0  0  0  0
   -4.2880    2.9900    2.3910 H   0  0  0  0  0  0  0  0  0  0  0  0
   -3.8510    1.2840    0.7170 H   0  0  0  0  0  0  0  0  0  0  0  0
   -1.0600   -0.6220   -5.8550 N   0  0  0  0  0  0  0  0  0  0  0  0
   -1.6170   -1.2490   -4.6890 C   0  0  0  0  0  0  0  0  0  0  0  0
   -2.6910   -0.8280   -4.1940 O   0  0  0  0  0  0  0  0  0  0  0  0
   -0.8990   -2.3970   -4.0860 C   0  0  0  0  0  0  0  0  0  0  0  0
   -1.6670   -2.8850   -2.8840 C   0  0  2  0  0  0  0  0  0  0  0  0
   -1.8300   -1.9040   -1.8660 N   0  0  0  0  0  0  0  0  0  0  0  0
   -1.0760   -4.1720   -2.3800 C   0  0  0  0  0  0  0  0  0  0  0  0
   -0.8190   -5.1070   -3.1630 O   0  0  0  0  0  0  0  0  0  0  0  0
   -0.8160   -4.3230   -1.0360 O   0  0  0  0  0  0  0  0  0  0  0  0
   -0.8710   -1.1400   -6.7350 H   0  0  0  0  0  0  0  0  0  0  0  0
   -0.8280    0.3980   -5.8430 H   0  0  0  0  0  0  0  0  0  0  0  0
   -0.8760   -3.1970   -4.8490 H   0  0  0  0  0  0  0  0  0  0  0  0
    0.1420   -2.1480   -3.8410 H   0  0  0  0  0  0  0  0  0  0  0  0
   -2.7110   -3.1700   -3.2420 H   0  0  0  0  0  0  0  0  0  0  0  0
   -2.7710   -1.4140   -1.7390 H   0  0  0  0  0  0  0  0  0  0  0  0
  1 11  1  0  0  0  0
  1  9  1  0  0  0  0
  2  3  1  0  0  0  0
  2  1  1  0  0  0  0
  3 14  1  6  0  0  0
  3  5  1  0  0  0  0
  3  4  1  0  0  0  0
  4 15  1  0  0  0  0
  5 18  1  6  0  0  0
  5  6  1  0  0  0  0
  6 20  1  0  0  0  0
  6 19  1  0  0  0  0
  7  8  2  0  0  0  0
  7  5  1  0  0  0  0
 10  1  1  0  0  0  0
 12  2  1  0  0  0  0
 13  2  1  0  0  0  0
 16  4  1  0  0  0  0
 17  4  1  0  0  0  0
 21  7  1  0  0  0  0
 22 33  1  1  0  0  0
 22 21  1  0  0  0  0
 23 22  1  0  0  0  0
 23 24  1  0  0  0  0
 24 25  2  0  0  0  0
 24 29  1  0  0  0  0
 25 26  1  0  0  0  0
 26 37  1  0  0  0  0
 26 27  2  0  0  0  0
 27 38  1  0  0  0  0
 28 27  1  0  0  0  0
 28 39  1  0  0  0  0
 29 28  2  0  0  0  0
 30 22  1  0  0  0  0
 31 30  2  0  0  0  0
 32 21  1  0  0  0  0
 34 23  1  0  0  0  0
 35 23  1  0  0  0  0
 36 25  1  0  0  0  0
 40 29  1  0  0  0  0
 41 51  1  0  0  0  0
 41 42  1  0  0  0  0
 42 43  2  0  0  0  0
 42 44  1  0  0  0  0
 44 53  1  0  0  0  0
 44 45  1  0  0  0  0
 45 54  1  6  0  0  0
 45 47  1  0  0  0  0
 45 46  1  0  0  0  0
 46 55  1  0  0  0  0
 46 30  1  0  0  0  0
 47 49  1  0  0  0  0
 48 47  2  0  0  0  0
 50 41  1  0  0  0  0
 52 44  1  0  0  0  0
M  END
$$$$
