IFP.pdb
 OpenBabel07022418423D

 55 56  0  0  1  0  0  0  0  0999 V2000
   -1.4150   -2.0310    3.5950 C   0  0  0  0  0  0  0  0  0  0  0  0
   -0.1500   -2.5370    4.2190 C   0  0  0  0  0  0  0  0  0  0  0  0
    1.1100   -2.0670    3.5900 C   0  0  2  0  0  0  0  0  0  0  0  0
    2.2860   -2.6540    4.3300 C   0  0  0  0  0  0  0  0  0  0  0  0
    1.2320   -0.5950    3.3610 C   0  0  2  0  0  0  0  0  0  0  0  0
    1.1360    0.2020    4.5310 N   0  0  0  0  0  0  0  0  0  0  0  0
    0.4010   -0.1280    2.2210 C   0  0  0  0  0  0  0  0  0  0  0  0
   -0.4340    0.8070    2.3300 O   0  0  0  0  0  0  0  0  0  0  0  0
   -1.7210   -1.0200    3.9840 H   0  0  0  0  0  0  0  0  0  0  0  0
   -2.2970   -2.6900    3.8510 H   0  0  0  0  0  0  0  0  0  0  0  0
   -1.3690   -2.0500    2.4940 H   0  0  0  0  0  0  0  0  0  0  0  0
   -0.1690   -3.6610    4.0830 H   0  0  0  0  0  0  0  0  0  0  0  0
   -0.1560   -2.4150    5.3360 H   0  0  0  0  0  0  0  0  0  0  0  0
    1.1420   -2.5520    2.5670 H   0  0  0  0  0  0  0  0  0  0  0  0
    2.2450   -2.3780    5.4010 H   0  0  0  0  0  0  0  0  0  0  0  0
    2.3710   -3.7350    4.2250 H   0  0  0  0  0  0  0  0  0  0  0  0
    3.2060   -2.1980    3.8650 H   0  0  0  0  0  0  0  0  0  0  0  0
    2.2950   -0.4460    2.9860 H   0  0  0  0  0  0  0  0  0  0  0  0
    0.2540    0.7380    4.6390 H   0  0  0  0  0  0  0  0  0  0  0  0
    1.9850    0.7210    4.7940 H   0  0  0  0  0  0  0  0  0  0  0  0
    0.4960   -0.7070    0.9240 N   0  0  0  0  0  0  0  0  0  0  0  0
   -0.3060   -0.2600   -0.1980 C   0  0  1  0  0  0  0  0  0  0  0  0
    0.5360    0.2000   -1.3530 C   0  0  0  0  0  0  0  0  0  0  0  0
    1.4310    1.3300   -1.0130 C   0  0  0  0  0  0  0  0  0  0  0  0
    2.6930    1.0270   -0.5410 C   0  0  0  0  0  0  0  0  0  0  0  0
    3.5980    2.0270   -0.1980 C   0  0  0  0  0  0  0  0  0  0  0  0
    3.2400    3.3360   -0.3280 C   0  0  0  0  0  0  0  0  0  0  0  0
    1.9880    3.6660   -0.7950 C   0  0  0  0  0  0  0  0  0  0  0  0
    1.1080    2.6490   -1.1290 C   0  0  0  0  0  0  0  0  0  0  0  0
   -1.0810   -1.4330   -0.6760 C   0  0  0  0  0  0  0  0  0  0  0  0
   -0.8630   -2.5740   -0.1320 O   0  0  0  0  0  0  0  0  0  0  0  0
    1.1610   -1.4870    0.7400 H   0  0  0  0  0  0  0  0  0  0  0  0
   -1.0080    0.4880    0.1710 H   0  0  0  0  0  0  0  0  0  0  0  0
   -0.1450    0.5910   -2.1320 H   0  0  0  0  0  0  0  0  0  0  0  0
    1.0660   -0.6540   -1.7680 H   0  0  0  0  0  0  0  0  0  0  0  0
    3.0370    0.0110   -0.4160 H   0  0  0  0  0  0  0  0  0  0  0  0
    4.5930    1.8050    0.1740 H   0  0  0  0  0  0  0  0  0  0  0  0
    3.9080    4.1580   -0.0740 H   0  0  0  0  0  0  0  0  0  0  0  0
    1.7040    4.6910   -0.8980 H   0  0  0  0  0  0  0  0  0  0  0  0
    0.1490    2.9190   -1.4870 H   0  0  0  0  0  0  0  0  0  0  0  0
   -2.0540   -1.3890   -1.6950 N   0  0  0  0  0  0  0  0  0  0  0  0
   -2.4780   -0.2310   -2.4420 C   0  0  0  0  0  0  0  0  0  0  0  0
   -3.9400   -0.5740   -2.8070 C   0  0  0  0  0  0  0  0  0  0  0  0
   -3.7730   -2.0340   -3.1900 C   0  0  0  0  0  0  0  0  0  0  0  0
   -2.8080   -2.5300   -2.1660 C   0  0  1  0  0  0  0  0  0  0  0  0
   -1.9280   -3.6060   -2.6600 C   0  0  0  0  0  0  0  0  0  0  0  0
   -2.4150   -4.6570   -3.0980 O   0  0  0  0  0  0  0  0  0  0  0  0
   -0.5560   -3.3970   -2.6160 O   0  0  0  0  0  0  0  0  0  0  0  0
   -2.5090    0.7040   -1.8860 H   0  0  0  0  0  0  0  0  0  0  0  0
   -1.9840   -0.1260   -3.4320 H   0  0  0  0  0  0  0  0  0  0  0  0
   -4.3080    0.0490   -3.6220 H   0  0  0  0  0  0  0  0  0  0  0  0
   -4.5030   -0.4780   -1.8590 H   0  0  0  0  0  0  0  0  0  0  0  0
   -4.7130   -2.6060   -3.1150 H   0  0  0  0  0  0  0  0  0  0  0  0
   -3.3600   -2.0360   -4.2210 H   0  0  0  0  0  0  0  0  0  0  0  0
   -3.4150   -2.9270   -1.3000 H   0  0  0  0  0  0  0  0  0  0  0  0
  1 10  1  0  0  0  0
  1  9  1  0  0  0  0
  1  2  1  0  0  0  0
  2 13  1  0  0  0  0
  3 14  1  6  0  0  0
  3  2  1  0  0  0  0
  3  4  1  0  0  0  0
  4 15  1  0  0  0  0
  5 18  1  6  0  0  0
  5  3  1  0  0  0  0
  5  6  1  0  0  0  0
  6 19  1  0  0  0  0
  6 20  1  0  0  0  0
  7  8  2  0  0  0  0
  7  5  1  0  0  0  0
 11  1  1  0  0  0  0
 12  2  1  0  0  0  0
 16  4  1  0  0  0  0
 17  4  1  0  0  0  0
 21  7  1  0  0  0  0
 22 33  1  1  0  0  0
 22 21  1  0  0  0  0
 23 24  1  0  0  0  0
 23 22  1  0  0  0  0
 24 25  1  0  0  0  0
 25 36  1  0  0  0  0
 25 26  2  0  0  0  0
 26 37  1  0  0  0  0
 27 26  1  0  0  0  0
 27 38  1  0  0  0  0
 28 27  2  0  0  0  0
 29 24  2  0  0  0  0
 29 28  1  0  0  0  0
 30 22  1  0  0  0  0
 30 31  2  0  0  0  0
 32 21  1  0  0  0  0
 34 23  1  0  0  0  0
 35 23  1  0  0  0  0
 39 28  1  0  0  0  0
 40 29  1  0  0  0  0
 41 30  1  0  0  0  0
 42 49  1  0  0  0  0
 42 41  1  0  0  0  0
 43 42  1  0  0  0  0
 43 52  1  0  0  0  0
 44 53  1  0  0  0  0
 44 43  1  0  0  0  0
 44 45  1  0  0  0  0
 45 41  1  0  0  0  0
 45 55  1  1  0  0  0
 46 48  1  0  0  0  0
 46 45  1  0  0  0  0
 47 46  2  0  0  0  0
 50 42  1  0  0  0  0
 51 43  1  0  0  0  0
 54 44  1  0  0  0  0
M  END
$$$$
