IFQ.pdb
 OpenBabel07022418423D

 58 58  0  0  1  0  0  0  0  0999 V2000
    1.6070   -0.8880    5.2450 C   0  0  0  0  0  0  0  0  0  0  0  0
    1.8090    0.3680    4.4420 C   0  0  0  0  0  0  0  0  0  0  0  0
    2.5740    0.1620    3.1820 C   0  0  2  0  0  0  0  0  0  0  0  0
    2.6970    1.5060    2.4940 C   0  0  0  0  0  0  0  0  0  0  0  0
    1.9950   -0.8890    2.3010 C   0  0  2  0  0  0  0  0  0  0  0  0
    2.8080   -1.0260    1.0950 N   0  0  0  0  0  0  0  0  0  0  0  0
    0.5930   -0.6890    1.9260 C   0  0  0  0  0  0  0  0  0  0  0  0
   -0.2830   -0.5310    2.7950 O   0  0  0  0  0  0  0  0  0  0  0  0
    1.2910   -1.7500    4.6660 H   0  0  0  0  0  0  0  0  0  0  0  0
    0.8170   -0.6780    5.9960 H   0  0  0  0  0  0  0  0  0  0  0  0
    2.5390   -1.0950    5.8390 H   0  0  0  0  0  0  0  0  0  0  0  0
    0.8170    0.8760    4.2760 H   0  0  0  0  0  0  0  0  0  0  0  0
    2.4250    1.0530    5.0970 H   0  0  0  0  0  0  0  0  0  0  0  0
    3.6080   -0.1520    3.4470 H   0  0  0  0  0  0  0  0  0  0  0  0
    3.5330    1.5440    1.7820 H   0  0  0  0  0  0  0  0  0  0  0  0
    1.7580    1.8500    2.0580 H   0  0  0  0  0  0  0  0  0  0  0  0
    2.9570    2.2410    3.3060 H   0  0  0  0  0  0  0  0  0  0  0  0
    2.1280   -1.8800    2.8270 H   0  0  0  0  0  0  0  0  0  0  0  0
    3.7270   -1.4480    1.2960 H   0  0  0  0  0  0  0  0  0  0  0  0
    2.8460   -0.1480    0.5480 H   0  0  0  0  0  0  0  0  0  0  0  0
    0.1400   -0.6620    0.5610 N   0  0  0  0  0  0  0  0  0  0  0  0
   -1.2510   -0.4630    0.2580 C   0  0  1  0  0  0  0  0  0  0  0  0
   -1.5080    0.6470   -0.7270 C   0  0  0  0  0  0  0  0  0  0  0  0
   -1.0010    1.9440   -0.2110 C   0  0  0  0  0  0  0  0  0  0  0  0
   -1.8260    2.7500    0.5560 C   0  0  0  0  0  0  0  0  0  0  0  0
   -1.3960    3.9670    1.0510 C   0  0  0  0  0  0  0  0  0  0  0  0
   -0.1200    4.4240    0.7970 C   0  0  0  0  0  0  0  0  0  0  0  0
    0.7260    3.6340    0.0300 C   0  0  0  0  0  0  0  0  0  0  0  0
    0.2700    2.4180   -0.4540 C   0  0  0  0  0  0  0  0  0  0  0  0
   -1.7820   -1.7510   -0.3220 C   0  0  0  0  0  0  0  0  0  0  0  0
   -2.9850   -1.8650   -0.6770 O   0  0  0  0  0  0  0  0  0  0  0  0
    0.8730   -0.7940   -0.1670 H   0  0  0  0  0  0  0  0  0  0  0  0
   -1.8680   -0.3090    1.1660 H   0  0  0  0  0  0  0  0  0  0  0  0
   -2.5930    0.7820   -0.8990 H   0  0  0  0  0  0  0  0  0  0  0  0
   -1.0440    0.4670   -1.7060 H   0  0  0  0  0  0  0  0  0  0  0  0
   -2.8260    2.3840    0.7510 H   0  0  0  0  0  0  0  0  0  0  0  0
   -2.0500    4.5870    1.6480 H   0  0  0  0  0  0  0  0  0  0  0  0
    0.2440    5.3810    1.1760 H   0  0  0  0  0  0  0  0  0  0  0  0
    1.7360    3.9910   -0.1740 H   0  0  0  0  0  0  0  0  0  0  0  0
    0.9220    1.8010   -1.0490 H   0  0  0  0  0  0  0  0  0  0  0  0
   -2.4060   -2.3620   -4.7970 N   0  0  0  0  0  0  0  0  0  0  0  0
   -2.1050   -3.3970   -3.8420 C   0  0  0  0  0  0  0  0  0  0  0  0
   -3.0420   -4.1220   -3.4440 O   0  0  0  0  0  0  0  0  0  0  0  0
   -0.7240   -3.5610   -3.3790 C   0  0  0  0  0  0  0  0  0  0  0  0
   -0.6510   -4.5440   -2.2590 C   0  0  0  0  0  0  0  0  0  0  0  0
   -1.4110   -4.1450   -1.0420 C   0  0  2  0  0  0  0  0  0  0  0  0
   -0.9330   -2.8800   -0.4850 N   0  0  0  0  0  0  0  0  0  0  0  0
   -1.3350   -5.2280   -0.0330 C   0  0  0  0  0  0  0  0  0  0  0  0
   -1.7020   -6.3730   -0.3310 O   0  0  0  0  0  0  0  0  0  0  0  0
   -0.8560   -4.9390    1.2220 O   0  0  0  0  0  0  0  0  0  0  0  0
   -3.1080   -1.6320   -4.5720 H   0  0  0  0  0  0  0  0  0  0  0  0
   -1.9320   -2.3370   -5.7070 H   0  0  0  0  0  0  0  0  0  0  0  0
   -0.3360   -2.5910   -2.9970 H   0  0  0  0  0  0  0  0  0  0  0  0
   -0.0760   -3.8880   -4.2370 H   0  0  0  0  0  0  0  0  0  0  0  0
    0.3870   -4.8760   -2.0350 H   0  0  0  0  0  0  0  0  0  0  0  0
   -1.1500   -5.4840   -2.6440 H   0  0  0  0  0  0  0  0  0  0  0  0
   -2.4640   -4.0030   -1.2700 H   0  0  0  0  0  0  0  0  0  0  0  0
    0.0620   -2.7590   -0.1830 H   0  0  0  0  0  0  0  0  0  0  0  0
  1 11  1  0  0  0  0
  1 10  1  0  0  0  0
  2 13  1  0  0  0  0
  2  1  1  0  0  0  0
  3 14  1  1  0  0  0
  3  2  1  0  0  0  0
  4  3  1  0  0  0  0
  4 17  1  0  0  0  0
  5 18  1  1  0  0  0
  5  3  1  0  0  0  0
  6 19  1  0  0  0  0
  6  5  1  0  0  0  0
  7  5  1  0  0  0  0
  7  8  2  0  0  0  0
  9  1  1  0  0  0  0
 12  2  1  0  0  0  0
 15  4  1  0  0  0  0
 16  4  1  0  0  0  0
 20  6  1  0  0  0  0
 21  7  1  0  0  0  0
 22 21  1  0  0  0  0
 22 33  1  1  0  0  0
 23 24  1  0  0  0  0
 23 22  1  0  0  0  0
 24 25  1  0  0  0  0
 25 36  1  0  0  0  0
 25 26  2  0  0  0  0
 26 37  1  0  0  0  0
 27 26  1  0  0  0  0
 27 38  1  0  0  0  0
 28 27  2  0  0  0  0
 29 24  2  0  0  0  0
 29 28  1  0  0  0  0
 30 22  1  0  0  0  0
 31 30  2  0  0  0  0
 32 21  1  0  0  0  0
 34 23  1  0  0  0  0
 35 23  1  0  0  0  0
 39 28  1  0  0  0  0
 40 29  1  0  0  0  0
 41 51  1  0  0  0  0
 41 42  1  0  0  0  0
 42 43  2  0  0  0  0
 42 44  1  0  0  0  0
 44 53  1  0  0  0  0
 44 45  1  0  0  0  0
 45 55  1  0  0  0  0
 45 46  1  0  0  0  0
 46 57  1  6  0  0  0
 46 47  1  0  0  0  0
 46 48  1  0  0  0  0
 47 30  1  0  0  0  0
 47 58  1  0  0  0  0
 48 50  1  0  0  0  0
 49 48  2  0  0  0  0
 52 41  1  0  0  0  0
 54 44  1  0  0  0  0
 56 45  1  0  0  0  0
M  END
$$$$
