IFR.pdb
 OpenBabel07022418423D

 64 64  0  0  1  0  0  0  0  0999 V2000
    0.2850   -1.1040    3.7610 C   0  0  0  0  0  0  0  0  0  0  0  0
    1.7590   -1.3220    3.7570 C   0  0  0  0  0  0  0  0  0  0  0  0
    2.6140   -0.1160    3.7940 C   0  0  2  0  0  0  0  0  0  0  0  0
    2.3670    0.7780    4.9970 C   0  0  0  0  0  0  0  0  0  0  0  0
    2.8510    0.5880    2.5150 C   0  0  2  0  0  0  0  0  0  0  0  0
    3.7220    1.7740    2.7710 N   0  0  0  0  0  0  0  0  0  0  0  0
    1.7260    1.0830    1.7520 C   0  0  0  0  0  0  0  0  0  0  0  0
    1.3800    2.3030    1.8670 O   0  0  0  0  0  0  0  0  0  0  0  0
   -0.1740   -2.0200    3.3130 H   0  0  0  0  0  0  0  0  0  0  0  0
   -0.1130   -1.0930    4.8140 H   0  0  0  0  0  0  0  0  0  0  0  0
   -0.0900   -0.1970    3.3030 H   0  0  0  0  0  0  0  0  0  0  0  0
    1.9720   -2.0210    4.6220 H   0  0  0  0  0  0  0  0  0  0  0  0
    2.0320   -1.9440    2.8600 H   0  0  0  0  0  0  0  0  0  0  0  0
    3.6790   -0.5450    4.0580 H   0  0  0  0  0  0  0  0  0  0  0  0
    3.1870    1.5410    4.9770 H   0  0  0  0  0  0  0  0  0  0  0  0
    2.5040    0.1700    5.8960 H   0  0  0  0  0  0  0  0  0  0  0  0
    1.3770    1.2500    4.9800 H   0  0  0  0  0  0  0  0  0  0  0  0
    3.4970   -0.0610    1.8760 H   0  0  0  0  0  0  0  0  0  0  0  0
    4.6220    1.4210    3.2060 H   0  0  0  0  0  0  0  0  0  0  0  0
    3.9350    2.2000    1.8200 H   0  0  0  0  0  0  0  0  0  0  0  0
    0.9380    0.2960    0.8330 N   0  0  0  0  0  0  0  0  0  0  0  0
   -0.1280    0.9350    0.1430 C   0  0  1  0  0  0  0  0  0  0  0  0
    0.2720    1.2720   -1.3060 C   0  0  0  0  0  0  0  0  0  0  0  0
    1.4550    2.1910   -1.2710 C   0  0  0  0  0  0  0  0  0  0  0  0
    2.7480    1.6870   -1.2790 C   0  0  0  0  0  0  0  0  0  0  0  0
    3.7870    2.5670   -1.2430 C   0  0  0  0  0  0  0  0  0  0  0  0
    3.6110    3.9310   -1.1990 C   0  0  0  0  0  0  0  0  0  0  0  0
    2.3030    4.4080   -1.1920 C   0  0  0  0  0  0  0  0  0  0  0  0
    1.2460    3.5380   -1.2280 C   0  0  0  0  0  0  0  0  0  0  0  0
   -1.3700    0.1410    0.0630 C   0  0  0  0  0  0  0  0  0  0  0  0
   -2.4060    0.6370   -0.5130 O   0  0  0  0  0  0  0  0  0  0  0  0
    1.1560   -0.6900    0.6970 H   0  0  0  0  0  0  0  0  0  0  0  0
   -0.3750    1.9460    0.5680 H   0  0  0  0  0  0  0  0  0  0  0  0
   -0.5570    1.8370   -1.7760 H   0  0  0  0  0  0  0  0  0  0  0  0
    0.4910    0.3810   -1.8980 H   0  0  0  0  0  0  0  0  0  0  0  0
    2.8730    0.6040   -1.3140 H   0  0  0  0  0  0  0  0  0  0  0  0
    4.8060    2.1750   -1.2500 H   0  0  0  0  0  0  0  0  0  0  0  0
    4.4350    4.6230   -1.1700 H   0  0  0  0  0  0  0  0  0  0  0  0
    2.1250    5.4700   -1.1600 H   0  0  0  0  0  0  0  0  0  0  0  0
    0.2400    3.9820   -1.2200 H   0  0  0  0  0  0  0  0  0  0  0  0
   -5.4530   -4.6140   -4.1220 N   0  0  0  0  0  0  0  0  0  0  0  0
   -4.2730   -4.5070   -3.3430 C   0  0  0  0  0  0  0  0  0  0  0  0
   -3.5420   -5.5010   -3.0630 N   0  0  0  0  0  0  0  0  0  0  0  0
   -3.8950   -3.2320   -2.8590 N   0  0  0  0  0  0  0  0  0  0  0  0
   -2.5760   -2.8450   -2.5050 C   0  0  0  0  0  0  0  0  0  0  0  0
   -1.9580   -3.4550   -1.3310 C   0  0  0  0  0  0  0  0  0  0  0  0
   -2.6130   -3.2740   -0.0190 C   0  0  0  0  0  0  0  0  0  0  0  0
   -2.7680   -1.8660    0.4520 C   0  0  2  0  0  0  0  0  0  0  0  0
   -1.5050   -1.1750    0.5900 N   0  0  0  0  0  0  0  0  0  0  0  0
   -3.3870   -1.9400    1.8120 C   0  0  0  0  0  0  0  0  0  0  0  0
   -2.7940   -1.4400    2.7780 O   0  0  0  0  0  0  0  0  0  0  0  0
   -4.6090   -2.5540    2.0270 O   0  0  0  0  0  0  0  0  0  0  0  0
   -6.4050   -4.4530   -3.7290 H   0  0  0  0  0  0  0  0  0  0  0  0
   -5.4230   -4.8650   -5.1500 H   0  0  0  0  0  0  0  0  0  0  0  0
   -3.8020   -6.4480   -3.4120 H   0  0  0  0  0  0  0  0  0  0  0  0
   -4.6620   -2.5260   -2.7590 H   0  0  0  0  0  0  0  0  0  0  0  0
   -1.9170   -3.0860   -3.3950 H   0  0  0  0  0  0  0  0  0  0  0  0
   -2.4950   -1.7310   -2.4360 H   0  0  0  0  0  0  0  0  0  0  0  0
   -0.9140   -3.0210   -1.2470 H   0  0  0  0  0  0  0  0  0  0  0  0
   -1.7620   -4.5410   -1.5310 H   0  0  0  0  0  0  0  0  0  0  0  0
   -2.0750   -3.8280    0.7800 H   0  0  0  0  0  0  0  0  0  0  0  0
   -3.6250   -3.7310   -0.0600 H   0  0  0  0  0  0  0  0  0  0  0  0
   -3.4370   -1.2490   -0.1400 H   0  0  0  0  0  0  0  0  0  0  0  0
   -0.6730   -1.6010    1.0580 H   0  0  0  0  0  0  0  0  0  0  0  0
  1 10  1  0  0  0  0
  2  1  1  0  0  0  0
  2  3  1  0  0  0  0
  2 12  1  0  0  0  0
  3 14  1  1  0  0  0
  3  4  1  0  0  0  0
  4 16  1  0  0  0  0
  5 18  1  6  0  0  0
  5  6  1  0  0  0  0
  5  3  1  0  0  0  0
  6 19  1  0  0  0  0
  7  8  2  0  0  0  0
  7  5  1  0  0  0  0
  9  1  1  0  0  0  0
 11  1  1  0  0  0  0
 13  2  1  0  0  0  0
 15  4  1  0  0  0  0
 17  4  1  0  0  0  0
 20  6  1  0  0  0  0
 21  7  1  0  0  0  0
 22 33  1  1  0  0  0
 22 21  1  0  0  0  0
 23 24  1  0  0  0  0
 23 22  1  0  0  0  0
 24 29  1  0  0  0  0
 25 24  2  0  0  0  0
 25 26  1  0  0  0  0
 26 27  2  0  0  0  0
 27 28  1  0  0  0  0
 27 38  1  0  0  0  0
 28 39  1  0  0  0  0
 29 40  1  0  0  0  0
 29 28  2  0  0  0  0
 30 22  1  0  0  0  0
 30 49  1  0  0  0  0
 31 30  2  0  0  0  0
 32 21  1  0  0  0  0
 34 23  1  0  0  0  0
 35 23  1  0  0  0  0
 36 25  1  0  0  0  0
 37 26  1  0  0  0  0
 41 53  1  0  0  0  0
 41 42  1  0  0  0  0
 42 43  2  0  0  0  0
 42 44  1  0  0  0  0
 44 56  1  0  0  0  0
 44 45  1  0  0  0  0
 45 58  1  0  0  0  0
 45 46  1  0  0  0  0
 46 59  1  0  0  0  0
 46 47  1  0  0  0  0
 47 48  1  0  0  0  0
 47 61  1  0  0  0  0
 48 63  1  6  0  0  0
 48 49  1  0  0  0  0
 48 50  1  0  0  0  0
 49 64  1  0  0  0  0
 50 52  2  0  0  0  0
 50 51  1  0  0  0  0
 54 41  1  0  0  0  0
 55 43  1  0  0  0  0
 57 45  1  0  0  0  0
 60 46  1  0  0  0  0
 62 47  1  0  0  0  0
M  END
$$$$
