IFS.pdb
 OpenBabel07022418423D

 52 52  0  0  1  0  0  0  0  0999 V2000
    1.9330    1.7740    4.1060 C   0  0  0  0  0  0  0  0  0  0  0  0
    2.0290    2.2590    2.6680 C   0  0  0  0  0  0  0  0  0  0  0  0
    3.2720    1.8110    1.9930 C   0  0  2  0  0  0  0  0  0  0  0  0
    3.3170    2.3220    0.5660 C   0  0  0  0  0  0  0  0  0  0  0  0
    3.4850    0.3190    1.9380 C   0  0  2  0  0  0  0  0  0  0  0  0
    4.7730    0.0880    1.2380 N   0  0  0  0  0  0  0  0  0  0  0  0
    2.4700   -0.4050    1.1430 C   0  0  0  0  0  0  0  0  0  0  0  0
    2.7790   -0.8950   -0.0020 O   0  0  0  0  0  0  0  0  0  0  0  0
    2.1970    0.7140    4.1660 H   0  0  0  0  0  0  0  0  0  0  0  0
    0.8780    1.8830    4.4830 H   0  0  0  0  0  0  0  0  0  0  0  0
    2.5560    2.3640    4.7840 H   0  0  0  0  0  0  0  0  0  0  0  0
    1.1180    2.0380    2.0820 H   0  0  0  0  0  0  0  0  0  0  0  0
    2.0910    3.3870    2.7340 H   0  0  0  0  0  0  0  0  0  0  0  0
    4.1430    2.2470    2.5170 H   0  0  0  0  0  0  0  0  0  0  0  0
    2.6550    1.6820   -0.0410 H   0  0  0  0  0  0  0  0  0  0  0  0
    4.3390    2.3420    0.1850 H   0  0  0  0  0  0  0  0  0  0  0  0
    2.9050    3.3560    0.5620 H   0  0  0  0  0  0  0  0  0  0  0  0
    3.6360   -0.0520    2.9490 H   0  0  0  0  0  0  0  0  0  0  0  0
    5.4290    0.8720    1.4400 H   0  0  0  0  0  0  0  0  0  0  0  0
    4.5950   -0.0110    0.2100 H   0  0  0  0  0  0  0  0  0  0  0  0
    1.1380   -0.6240    1.5320 N   0  0  0  0  0  0  0  0  0  0  0  0
    0.1550   -1.3560    0.6950 C   0  0  1  0  0  0  0  0  0  0  0  0
   -0.1910   -2.6150    1.3950 C   0  0  0  0  0  0  0  0  0  0  0  0
   -1.1590   -3.5060    0.7410 C   0  0  0  0  0  0  0  0  0  0  0  0
   -0.7030   -4.4180   -0.2100 C   0  0  0  0  0  0  0  0  0  0  0  0
   -1.5280   -5.3150   -0.8520 C   0  0  0  0  0  0  0  0  0  0  0  0
   -2.8740   -5.2910   -0.5190 C   0  0  0  0  0  0  0  0  0  0  0  0
   -3.3510   -4.4030    0.4150 C   0  0  0  0  0  0  0  0  0  0  0  0
   -2.5020   -3.5280    1.0300 C   0  0  0  0  0  0  0  0  0  0  0  0
   -0.9160   -0.4750    0.2670 C   0  0  0  0  0  0  0  0  0  0  0  0
   -0.9130    0.7030    0.7690 O   0  0  0  0  0  0  0  0  0  0  0  0
    0.8040   -0.2760    2.4420 H   0  0  0  0  0  0  0  0  0  0  0  0
    0.7320   -1.6410   -0.2220 H   0  0  0  0  0  0  0  0  0  0  0  0
   -0.4350   -2.4530    2.4780 H   0  0  0  0  0  0  0  0  0  0  0  0
    0.7760   -3.2090    1.4510 H   0  0  0  0  0  0  0  0  0  0  0  0
    0.3370   -4.4330   -0.4650 H   0  0  0  0  0  0  0  0  0  0  0  0
   -1.1610   -6.0160   -1.5870 H   0  0  0  0  0  0  0  0  0  0  0  0
   -3.5440   -5.9870   -1.0100 H   0  0  0  0  0  0  0  0  0  0  0  0
   -4.3930   -4.3890    0.6690 H   0  0  0  0  0  0  0  0  0  0  0  0
   -2.8870   -2.8250    1.7710 H   0  0  0  0  0  0  0  0  0  0  0  0
   -2.9090   -0.3070   -3.2790 O   0  0  0  0  0  0  0  0  0  0  0  0
   -2.7430    0.7470   -2.4030 C   0  0  0  0  0  0  0  0  0  0  0  0
   -2.9490    0.2910   -0.9480 C   0  0  2  0  0  0  0  0  0  0  0  0
   -1.9650   -0.7480   -0.6410 N   0  0  0  0  0  0  0  0  0  0  0  0
   -4.3080   -0.2210   -0.7980 C   0  0  0  0  0  0  0  0  0  0  0  0
   -5.2760    0.5340   -1.0110 O   0  0  0  0  0  0  0  0  0  0  0  0
   -4.5390   -1.5140   -0.4270 O   0  0  0  0  0  0  0  0  0  0  0  0
   -2.3220   -0.1300   -4.0590 H   0  0  0  0  0  0  0  0  0  0  0  0
   -1.7170    1.1480   -2.4730 H   0  0  0  0  0  0  0  0  0  0  0  0
   -3.4830    1.5410   -2.6240 H   0  0  0  0  0  0  0  0  0  0  0  0
   -2.7310    1.1840   -0.3460 H   0  0  0  0  0  0  0  0  0  0  0  0
   -1.9880   -1.6830   -1.0640 H   0  0  0  0  0  0  0  0  0  0  0  0
  1  9  1  0  0  0  0
  1 10  1  0  0  0  0
  1 11  1  0  0  0  0
  2 13  1  0  0  0  0
  2  1  1  0  0  0  0
  3 14  1  1  0  0  0
  3  2  1  0  0  0  0
  4  3  1  0  0  0  0
  5  3  1  0  0  0  0
  5 18  1  1  0  0  0
  6 19  1  0  0  0  0
  6  5  1  0  0  0  0
  7 21  1  0  0  0  0
  7  5  1  0  0  0  0
  8  7  2  0  0  0  0
 12  2  1  0  0  0  0
 15  4  1  0  0  0  0
 16  4  1  0  0  0  0
 17  4  1  0  0  0  0
 20  6  1  0  0  0  0
 21 32  1  0  0  0  0
 22 33  1  6  0  0  0
 22 23  1  0  0  0  0
 22 21  1  0  0  0  0
 23 35  1  0  0  0  0
 23 34  1  0  0  0  0
 24 29  1  0  0  0  0
 24 23  1  0  0  0  0
 25 24  2  0  0  0  0
 26 27  2  0  0  0  0
 26 25  1  0  0  0  0
 27 28  1  0  0  0  0
 28 39  1  0  0  0  0
 28 29  2  0  0  0  0
 29 40  1  0  0  0  0
 30 22  1  0  0  0  0
 30 31  2  0  0  0  0
 36 25  1  0  0  0  0
 37 26  1  0  0  0  0
 38 27  1  0  0  0  0
 41 42  1  0  0  0  0
 42 43  1  0  0  0  0
 43 45  1  0  0  0  0
 43 44  1  0  0  0  0
 43 51  1  1  0  0  0
 44 30  1  0  0  0  0
 45 47  1  0  0  0  0
 46 45  2  0  0  0  0
 48 41  1  0  0  0  0
 49 42  1  0  0  0  0
 50 42  1  0  0  0  0
 52 44  1  0  0  0  0
M  END
$$$$
