IFT.pdb
 OpenBabel07022418423D

 55 55  0  0  1  0  0  0  0  0999 V2000
    1.3270   -3.2770    3.0270 C   0  0  0  0  0  0  0  0  0  0  0  0
    0.9300   -1.8170    2.9760 C   0  0  0  0  0  0  0  0  0  0  0  0
    2.0000   -1.0020    2.2710 C   0  0  2  0  0  0  0  0  0  0  0  0
    3.3250   -1.1040    2.9860 C   0  0  0  0  0  0  0  0  0  0  0  0
    1.5450    0.4350    2.1320 C   0  0  2  0  0  0  0  0  0  0  0  0
    1.3140    0.9560    3.4780 N   0  0  0  0  0  0  0  0  0  0  0  0
    0.2480    0.4550    1.4240 C   0  0  0  0  0  0  0  0  0  0  0  0
   -0.8240    0.8460    1.9820 O   0  0  0  0  0  0  0  0  0  0  0  0
    1.6530   -3.5750    2.0230 H   0  0  0  0  0  0  0  0  0  0  0  0
    2.1220   -3.4370    3.7970 H   0  0  0  0  0  0  0  0  0  0  0  0
    0.4130   -3.8400    3.3110 H   0  0  0  0  0  0  0  0  0  0  0  0
   -0.0430   -1.7470    2.4520 H   0  0  0  0  0  0  0  0  0  0  0  0
    0.7710   -1.4880    4.0120 H   0  0  0  0  0  0  0  0  0  0  0  0
    2.1220   -1.4150    1.2500 H   0  0  0  0  0  0  0  0  0  0  0  0
    3.7350   -2.1240    2.7240 H   0  0  0  0  0  0  0  0  0  0  0  0
    3.2340   -1.0840    4.0720 H   0  0  0  0  0  0  0  0  0  0  0  0
    4.0310   -0.3870    2.5580 H   0  0  0  0  0  0  0  0  0  0  0  0
    2.3250    1.0230    1.6120 H   0  0  0  0  0  0  0  0  0  0  0  0
    1.9310    0.4770    4.1810 H   0  0  0  0  0  0  0  0  0  0  0  0
    1.4230    1.9950    3.4910 H   0  0  0  0  0  0  0  0  0  0  0  0
    0.1060    0.0350    0.0550 N   0  0  0  0  0  0  0  0  0  0  0  0
   -1.1630    0.0690   -0.5980 C   0  0  1  0  0  0  0  0  0  0  0  0
   -1.1790    0.9830   -1.8080 C   0  0  0  0  0  0  0  0  0  0  0  0
   -0.8530    2.3830   -1.4300 C   0  0  0  0  0  0  0  0  0  0  0  0
    0.4390    2.8680   -1.4200 C   0  0  0  0  0  0  0  0  0  0  0  0
    0.7390    4.1680   -1.0680 C   0  0  0  0  0  0  0  0  0  0  0  0
   -0.2600    5.0480   -0.7070 C   0  0  0  0  0  0  0  0  0  0  0  0
   -1.5530    4.5680   -0.7150 C   0  0  0  0  0  0  0  0  0  0  0  0
   -1.8500    3.2670   -1.0670 C   0  0  0  0  0  0  0  0  0  0  0  0
   -1.5550   -1.3100   -1.0660 C   0  0  0  0  0  0  0  0  0  0  0  0
   -2.6400   -1.4910   -1.6680 O   0  0  0  0  0  0  0  0  0  0  0  0
    0.9570   -0.2970   -0.4480 H   0  0  0  0  0  0  0  0  0  0  0  0
   -1.9870    0.4110    0.0560 H   0  0  0  0  0  0  0  0  0  0  0  0
   -0.4820    0.6190   -2.5650 H   0  0  0  0  0  0  0  0  0  0  0  0
   -2.2030    0.9420   -2.2520 H   0  0  0  0  0  0  0  0  0  0  0  0
    1.2410    2.1900   -1.7020 H   0  0  0  0  0  0  0  0  0  0  0  0
    1.7480    4.5580   -1.0580 H   0  0  0  0  0  0  0  0  0  0  0  0
   -0.0300    6.0760   -0.4280 H   0  0  0  0  0  0  0  0  0  0  0  0
   -2.3350    5.2750   -0.4270 H   0  0  0  0  0  0  0  0  0  0  0  0
   -2.8770    2.8960   -1.0700 H   0  0  0  0  0  0  0  0  0  0  0  0
   -1.4080   -4.4290    1.1300 C   0  0  0  0  0  0  0  0  0  0  0  0
   -1.9550   -4.3910   -0.2740 C   0  0  1  0  0  0  0  0  0  0  0  0
   -3.1210   -3.6460   -0.2760 O   0  0  0  0  0  0  0  0  0  0  0  0
   -0.9850   -3.7670   -1.2430 C   0  0  2  0  0  0  0  0  0  0  0  0
   -0.7120   -2.4210   -0.8360 N   0  0  0  0  0  0  0  0  0  0  0  0
   -1.4570   -3.9150   -2.6370 C   0  0  0  0  0  0  0  0  0  0  0  0
   -1.7830   -5.0530   -3.0590 O   0  0  0  0  0  0  0  0  0  0  0  0
   -1.5620   -2.8640   -3.5230 O   0  0  0  0  0  0  0  0  0  0  0  0
   -1.8730   -5.2240    1.7450 H   0  0  0  0  0  0  0  0  0  0  0  0
   -1.5400   -3.4250    1.5800 H   0  0  0  0  0  0  0  0  0  0  0  0
   -0.3250   -4.6590    1.0940 H   0  0  0  0  0  0  0  0  0  0  0  0
   -2.1800   -5.4330   -0.6170 H   0  0  0  0  0  0  0  0  0  0  0  0
   -3.2180   -3.1410    0.5870 H   0  0  0  0  0  0  0  0  0  0  0  0
   -0.0210   -4.3460   -1.1110 H   0  0  0  0  0  0  0  0  0  0  0  0
    0.1940   -2.2250   -0.3150 H   0  0  0  0  0  0  0  0  0  0  0  0
  1 11  1  0  0  0  0
  1 10  1  0  0  0  0
  2  1  1  0  0  0  0
  2 13  1  0  0  0  0
  3 14  1  6  0  0  0
  3  2  1  0  0  0  0
  3  4  1  0  0  0  0
  4 16  1  0  0  0  0
  5 18  1  6  0  0  0
  5  3  1  0  0  0  0
  5  6  1  0  0  0  0
  6 20  1  0  0  0  0
  6 19  1  0  0  0  0
  7  8  2  0  0  0  0
  7  5  1  0  0  0  0
  9  1  1  0  0  0  0
 12  2  1  0  0  0  0
 15  4  1  0  0  0  0
 17  4  1  0  0  0  0
 21  7  1  0  0  0  0
 22 21  1  0  0  0  0
 22 33  1  1  0  0  0
 23 24  1  0  0  0  0
 23 22  1  0  0  0  0
 24 25  2  0  0  0  0
 24 29  1  0  0  0  0
 25 26  1  0  0  0  0
 26 37  1  0  0  0  0
 26 27  2  0  0  0  0
 27 38  1  0  0  0  0
 28 27  1  0  0  0  0
 28 39  1  0  0  0  0
 29 28  2  0  0  0  0
 30 45  1  0  0  0  0
 30 22  1  0  0  0  0
 31 30  2  0  0  0  0
 32 21  1  0  0  0  0
 34 23  1  0  0  0  0
 35 23  1  0  0  0  0
 36 25  1  0  0  0  0
 40 29  1  0  0  0  0
 41 50  1  0  0  0  0
 41 49  1  0  0  0  0
 42 52  1  6  0  0  0
 42 41  1  0  0  0  0
 43 42  1  0  0  0  0
 43 53  1  0  0  0  0
 44 54  1  1  0  0  0
 44 45  1  0  0  0  0
 44 42  1  0  0  0  0
 45 55  1  0  0  0  0
 46 44  1  0  0  0  0
 47 46  1  0  0  0  0
 48 46  2  0  0  0  0
 51 41  1  0  0  0  0
M  END
$$$$
