IFV.pdb
 OpenBabel07022418423D

 57 57  0  0  1  0  0  0  0  0999 V2000
    0.5220   -2.9400    3.0070 C   0  0  0  0  0  0  0  0  0  0  0  0
    1.7420   -2.5870    3.8030 C   0  0  0  0  0  0  0  0  0  0  0  0
    2.3510   -1.2670    3.5270 C   0  0  2  0  0  0  0  0  0  0  0  0
    3.5780   -1.0110    4.3840 C   0  0  0  0  0  0  0  0  0  0  0  0
    1.4310   -0.0840    3.5350 C   0  0  2  0  0  0  0  0  0  0  0  0
    0.7650    0.0430    4.8300 N   0  0  0  0  0  0  0  0  0  0  0  0
    0.4140   -0.0630    2.4730 C   0  0  0  0  0  0  0  0  0  0  0  0
   -0.8460   -0.0440    2.6870 O   0  0  0  0  0  0  0  0  0  0  0  0
    0.5640   -2.6580    1.9630 H   0  0  0  0  0  0  0  0  0  0  0  0
   -0.3810   -2.5790    3.5620 H   0  0  0  0  0  0  0  0  0  0  0  0
    0.3820   -4.0670    2.9980 H   0  0  0  0  0  0  0  0  0  0  0  0
    2.5190   -3.3580    3.5070 H   0  0  0  0  0  0  0  0  0  0  0  0
    1.5990   -2.7930    4.8950 H   0  0  0  0  0  0  0  0  0  0  0  0
    2.7570   -1.3180    2.4700 H   0  0  0  0  0  0  0  0  0  0  0  0
    3.3790   -1.0900    5.4540 H   0  0  0  0  0  0  0  0  0  0  0  0
    4.4020   -1.6470    4.0160 H   0  0  0  0  0  0  0  0  0  0  0  0
    3.8670    0.0550    4.1860 H   0  0  0  0  0  0  0  0  0  0  0  0
    2.0780    0.8510    3.4880 H   0  0  0  0  0  0  0  0  0  0  0  0
    0.3640    1.0090    4.8700 H   0  0  0  0  0  0  0  0  0  0  0  0
   -0.0340   -0.6140    4.9050 H   0  0  0  0  0  0  0  0  0  0  0  0
    0.7570   -0.0600    1.0720 N   0  0  0  0  0  0  0  0  0  0  0  0
   -0.2400   -0.0370    0.0240 C   0  0  1  0  0  0  0  0  0  0  0  0
   -0.1940    1.2850   -0.7400 C   0  0  0  0  0  0  0  0  0  0  0  0
   -0.4490    2.4280    0.1400 C   0  0  0  0  0  0  0  0  0  0  0  0
    0.5650    3.0790    0.7920 C   0  0  0  0  0  0  0  0  0  0  0  0
    0.2950    4.1710    1.6300 C   0  0  0  0  0  0  0  0  0  0  0  0
   -1.0100    4.6070    1.8080 C   0  0  0  0  0  0  0  0  0  0  0  0
   -2.0210    3.9530    1.1530 C   0  0  0  0  0  0  0  0  0  0  0  0
   -1.7290    2.8830    0.3360 C   0  0  0  0  0  0  0  0  0  0  0  0
   -0.0200   -1.1800   -0.8860 C   0  0  0  0  0  0  0  0  0  0  0  0
    0.9320   -1.9610   -0.6610 O   0  0  0  0  0  0  0  0  0  0  0  0
    1.7750   -0.0760    0.8560 H   0  0  0  0  0  0  0  0  0  0  0  0
   -1.2790   -0.0610    0.4550 H   0  0  0  0  0  0  0  0  0  0  0  0
   -0.8890    1.2690   -1.6020 H   0  0  0  0  0  0  0  0  0  0  0  0
    0.8330    1.3240   -1.1940 H   0  0  0  0  0  0  0  0  0  0  0  0
    1.6040    2.8000    0.7060 H   0  0  0  0  0  0  0  0  0  0  0  0
    1.0950    4.6880    2.1480 H   0  0  0  0  0  0  0  0  0  0  0  0
   -1.2060    5.4680    2.4700 H   0  0  0  0  0  0  0  0  0  0  0  0
   -3.0310    4.2910    1.2910 H   0  0  0  0  0  0  0  0  0  0  0  0
   -2.5380    2.3560   -0.1910 H   0  0  0  0  0  0  0  0  0  0  0  0
   -3.1070   -2.8310   -3.0900 C   0  0  0  0  0  0  0  0  0  0  0  0
   -1.8020   -3.4960   -2.7460 C   0  0  0  0  0  0  0  0  0  0  0  0
   -1.5800   -4.7870   -3.4740 C   0  0  0  0  0  0  0  0  0  0  0  0
   -0.6180   -2.5700   -2.9070 C   0  0  2  0  0  0  0  0  0  0  0  0
   -0.8330   -1.4480   -2.0130 N   0  0  0  0  0  0  0  0  0  0  0  0
   -0.4120   -2.1410   -4.2990 C   0  0  0  0  0  0  0  0  0  0  0  0
   -0.4340   -0.9370   -4.6050 O   0  0  0  0  0  0  0  0  0  0  0  0
   -0.1940   -3.1090   -5.2670 O   0  0  0  0  0  0  0  0  0  0  0  0
   -3.7420   -3.4410   -3.7460 H   0  0  0  0  0  0  0  0  0  0  0  0
   -2.9470   -1.8140   -3.5380 H   0  0  0  0  0  0  0  0  0  0  0  0
   -3.7280   -2.6280   -2.1720 H   0  0  0  0  0  0  0  0  0  0  0  0
   -1.8410   -3.7450   -1.6450 H   0  0  0  0  0  0  0  0  0  0  0  0
   -2.2320   -5.5910   -3.0500 H   0  0  0  0  0  0  0  0  0  0  0  0
   -0.5410   -5.1110   -3.2740 H   0  0  0  0  0  0  0  0  0  0  0  0
   -1.8070   -4.6380   -4.5410 H   0  0  0  0  0  0  0  0  0  0  0  0
    0.2690   -3.1250   -2.5250 H   0  0  0  0  0  0  0  0  0  0  0  0
   -1.6190   -0.8060   -2.2020 H   0  0  0  0  0  0  0  0  0  0  0  0
  1 10  1  0  0  0  0
  1  2  1  0  0  0  0
  2 13  1  0  0  0  0
  3 14  1  6  0  0  0
  3  5  1  0  0  0  0
  3  2  1  0  0  0  0
  3  4  1  0  0  0  0
  4 15  1  0  0  0  0
  5 18  1  6  0  0  0
  5  6  1  0  0  0  0
  6 19  1  0  0  0  0
  6 20  1  0  0  0  0
  7  8  2  0  0  0  0
  7  5  1  0  0  0  0
  9  1  1  0  0  0  0
 11  1  1  0  0  0  0
 12  2  1  0  0  0  0
 16  4  1  0  0  0  0
 17  4  1  0  0  0  0
 21  7  1  0  0  0  0
 22 33  1  1  0  0  0
 22 21  1  0  0  0  0
 23 22  1  0  0  0  0
 23 24  1  0  0  0  0
 24 29  2  0  0  0  0
 24 25  1  0  0  0  0
 25 26  2  0  0  0  0
 26 27  1  0  0  0  0
 26 37  1  0  0  0  0
 27 38  1  0  0  0  0
 28 39  1  0  0  0  0
 28 27  2  0  0  0  0
 29 28  1  0  0  0  0
 30 31  2  0  0  0  0
 30 22  1  0  0  0  0
 32 21  1  0  0  0  0
 34 23  1  0  0  0  0
 35 23  1  0  0  0  0
 36 25  1  0  0  0  0
 40 29  1  0  0  0  0
 41 42  1  0  0  0  0
 41 51  1  0  0  0  0
 42 52  1  0  0  0  0
 43 54  1  0  0  0  0
 43 53  1  0  0  0  0
 43 42  1  0  0  0  0
 44 42  1  0  0  0  0
 44 56  1  1  0  0  0
 44 45  1  0  0  0  0
 45 30  1  0  0  0  0
 46 44  1  0  0  0  0
 47 46  1  0  0  0  0
 48 46  2  0  0  0  0
 49 41  1  0  0  0  0
 50 41  1  0  0  0  0
 55 43  1  0  0  0  0
 57 45  1  0  0  0  0
M  END
$$$$
