IFY.pdb
 OpenBabel07022418423D

 62 63  0  0  1  0  0  0  0  0999 V2000
    2.4870   -3.7280    2.0550 C   0  0  0  0  0  0  0  0  0  0  0  0
    2.2360   -2.2920    2.5020 C   0  0  0  0  0  0  0  0  0  0  0  0
    2.8140   -1.3720    1.4470 C   0  0  2  0  0  0  0  0  0  0  0  0
    4.2970   -1.5860    1.2710 C   0  0  0  0  0  0  0  0  0  0  0  0
    2.5970    0.0730    1.8510 C   0  0  2  0  0  0  0  0  0  0  0  0
    3.2580    0.3020    3.1110 N   0  0  0  0  0  0  0  0  0  0  0  0
    1.1400    0.3570    2.0440 C   0  0  0  0  0  0  0  0  0  0  0  0
    0.6800    0.7290    3.1590 O   0  0  0  0  0  0  0  0  0  0  0  0
    1.5710   -4.1870    1.6390 H   0  0  0  0  0  0  0  0  0  0  0  0
    2.8790   -4.3420    2.9060 H   0  0  0  0  0  0  0  0  0  0  0  0
    3.2640   -3.7430    1.2730 H   0  0  0  0  0  0  0  0  0  0  0  0
    1.1360   -2.1620    2.5300 H   0  0  0  0  0  0  0  0  0  0  0  0
    2.7050   -2.1190    3.4770 H   0  0  0  0  0  0  0  0  0  0  0  0
    2.3070   -1.5200    0.4730 H   0  0  0  0  0  0  0  0  0  0  0  0
    4.7320   -1.9610    2.2400 H   0  0  0  0  0  0  0  0  0  0  0  0
    4.5230   -2.3270    0.4790 H   0  0  0  0  0  0  0  0  0  0  0  0
    4.7750   -0.6090    1.0500 H   0  0  0  0  0  0  0  0  0  0  0  0
    2.9410    0.7740    1.0710 H   0  0  0  0  0  0  0  0  0  0  0  0
    2.6230   -0.1170    3.8540 H   0  0  0  0  0  0  0  0  0  0  0  0
    3.1800    1.3480    3.2920 H   0  0  0  0  0  0  0  0  0  0  0  0
    0.2040    0.2220    0.9850 N   0  0  0  0  0  0  0  0  0  0  0  0
   -1.1980    0.4920    1.1580 C   0  0  1  0  0  0  0  0  0  0  0  0
   -1.6200    1.6510    0.2840 C   0  0  0  0  0  0  0  0  0  0  0  0
   -0.8450    2.8650    0.6540 C   0  0  0  0  0  0  0  0  0  0  0  0
    0.3610    3.1860    0.0650 C   0  0  0  0  0  0  0  0  0  0  0  0
    1.0660    4.3320    0.4320 C   0  0  0  0  0  0  0  0  0  0  0  0
    0.5760    5.1820    1.4010 C   0  0  0  0  0  0  0  0  0  0  0  0
   -0.6270    4.8670    1.9940 C   0  0  0  0  0  0  0  0  0  0  0  0
   -1.3260    3.7210    1.6210 C   0  0  0  0  0  0  0  0  0  0  0  0
   -2.0420   -0.7090    0.9460 C   0  0  0  0  0  0  0  0  0  0  0  0
   -3.2940   -0.6470    1.0570 O   0  0  0  0  0  0  0  0  0  0  0  0
    0.5580   -0.0850    0.0470 H   0  0  0  0  0  0  0  0  0  0  0  0
   -1.3490    0.8030    2.2130 H   0  0  0  0  0  0  0  0  0  0  0  0
   -2.6960    1.8290    0.3020 H   0  0  0  0  0  0  0  0  0  0  0  0
   -1.3450    1.4210   -0.7840 H   0  0  0  0  0  0  0  0  0  0  0  0
    0.7300    2.5210   -0.6840 H   0  0  0  0  0  0  0  0  0  0  0  0
    2.0110    4.5690   -0.0400 H   0  0  0  0  0  0  0  0  0  0  0  0
    1.1540    6.0600    1.6570 H   0  0  0  0  0  0  0  0  0  0  0  0
   -1.0020    5.5410    2.7510 H   0  0  0  0  0  0  0  0  0  0  0  0
   -2.2770    3.4700    2.0880 H   0  0  0  0  0  0  0  0  0  0  0  0
   -3.0750   -0.3660   -5.3020 O   0  0  0  0  0  0  0  0  0  0  0  0
   -2.8620   -1.2290   -4.2180 C   0  0  0  0  0  0  0  0  0  0  0  0
   -1.6170   -1.3050   -3.6300 C   0  0  0  0  0  0  0  0  0  0  0  0
   -1.3590   -2.1390   -2.5630 C   0  0  0  0  0  0  0  0  0  0  0  0
   -2.3820   -2.9140   -2.0790 C   0  0  0  0  0  0  0  0  0  0  0  0
   -2.0920   -3.8030   -0.9370 C   0  0  0  0  0  0  0  0  0  0  0  0
   -2.3230   -3.1570    0.4030 C   0  0  2  0  0  0  0  0  0  0  0  0
   -1.5030   -1.9830    0.6100 N   0  0  0  0  0  0  0  0  0  0  0  0
   -1.9700   -4.1550    1.4400 C   0  0  0  0  0  0  0  0  0  0  0  0
   -1.0930   -3.9090    2.2980 O   0  0  0  0  0  0  0  0  0  0  0  0
   -3.6270   -2.8610   -2.6400 C   0  0  0  0  0  0  0  0  0  0  0  0
   -3.8710   -2.0260   -3.7040 C   0  0  0  0  0  0  0  0  0  0  0  0
   -2.6020   -5.3850    1.4840 O   0  0  0  0  0  0  0  0  0  0  0  0
   -4.0140   -0.2360   -5.6420 H   0  0  0  0  0  0  0  0  0  0  0  0
   -0.8140   -0.6910   -4.0170 H   0  0  0  0  0  0  0  0  0  0  0  0
   -0.3480   -2.1760   -2.1140 H   0  0  0  0  0  0  0  0  0  0  0  0
   -1.0520   -4.1780   -1.0150 H   0  0  0  0  0  0  0  0  0  0  0  0
   -2.7510   -4.6950   -0.9830 H   0  0  0  0  0  0  0  0  0  0  0  0
   -3.4020   -2.9450    0.5290 H   0  0  0  0  0  0  0  0  0  0  0  0
   -0.4660   -2.0420    0.5160 H   0  0  0  0  0  0  0  0  0  0  0  0
   -4.4610   -3.4770   -2.2640 H   0  0  0  0  0  0  0  0  0  0  0  0
   -4.8710   -1.9740   -4.1650 H   0  0  0  0  0  0  0  0  0  0  0  0
  1  2  1  0  0  0  0
  1 10  1  0  0  0  0
  2 12  1  0  0  0  0
  2 13  1  0  0  0  0
  3 14  1  6  0  0  0
  3  5  1  0  0  0  0
  3  2  1  0  0  0  0
  4  3  1  0  0  0  0
  4 15  1  0  0  0  0
  5 18  1  6  0  0  0
  5  7  1  0  0  0  0
  5  6  1  0  0  0  0
  6 20  1  0  0  0  0
  6 19  1  0  0  0  0
  7  8  2  0  0  0  0
  9  1  1  0  0  0  0
 11  1  1  0  0  0  0
 16  4  1  0  0  0  0
 17  4  1  0  0  0  0
 21 22  1  0  0  0  0
 21  7  1  0  0  0  0
 22 33  1  1  0  0  0
 23 34  1  0  0  0  0
 23 24  1  0  0  0  0
 23 22  1  0  0  0  0
 24 29  1  0  0  0  0
 25 26  1  0  0  0  0
 25 24  2  0  0  0  0
 26 27  2  0  0  0  0
 27 38  1  0  0  0  0
 27 28  1  0  0  0  0
 28 39  1  0  0  0  0
 29 28  2  0  0  0  0
 29 40  1  0  0  0  0
 30 31  2  0  0  0  0
 30 22  1  0  0  0  0
 32 21  1  0  0  0  0
 35 23  1  0  0  0  0
 36 25  1  0  0  0  0
 37 26  1  0  0  0  0
 41 42  1  0  0  0  0
 42 52  2  0  0  0  0
 42 43  1  0  0  0  0
 43 44  2  0  0  0  0
 44 56  1  0  0  0  0
 44 45  1  0  0  0  0
 45 46  1  0  0  0  0
 46 47  1  0  0  0  0
 47 59  1  1  0  0  0
 47 48  1  0  0  0  0
 47 49  1  0  0  0  0
 48 30  1  0  0  0  0
 49 53  2  0  0  0  0
 49 50  1  0  0  0  0
 51 61  1  0  0  0  0
 51 45  2  0  0  0  0
 52 51  1  0  0  0  0
 54 41  1  0  0  0  0
 55 43  1  0  0  0  0
 57 46  1  0  0  0  0
 58 46  1  0  0  0  0
 60 48  1  0  0  0  0
 62 52  1  0  0  0  0
M  END
$$$$
