IGC.pdb
 OpenBabel07022418403D

 39 38  0  0  1  0  0  0  0  0999 V2000
   -1.3060    1.4290    3.4330 C   0  0  0  0  0  0  0  0  0  0  0  0
   -1.4850    0.1530    2.6200 C   0  0  0  0  0  0  0  0  0  0  0  0
   -0.5840   -0.9400    3.0950 C   0  0  2  0  0  0  0  0  0  0  0  0
    0.8820   -0.5550    2.9840 C   0  0  0  0  0  0  0  0  0  0  0  0
   -0.8120   -2.2220    2.3400 C   0  0  2  0  0  0  0  0  0  0  0  0
    0.0870   -3.2520    2.8320 N   0  0  0  0  0  0  0  0  0  0  0  0
   -0.7910   -2.1070    0.8830 C   0  0  0  0  0  0  0  0  0  0  0  0
   -1.5490   -1.3570    0.2170 O   0  0  0  0  0  0  0  0  0  0  0  0
   -2.2260    2.0470    3.4380 H   0  0  0  0  0  0  0  0  0  0  0  0
   -0.5040    2.0740    2.9720 H   0  0  0  0  0  0  0  0  0  0  0  0
   -1.0540    1.2050    4.4830 H   0  0  0  0  0  0  0  0  0  0  0  0
   -2.5240   -0.1530    2.7170 H   0  0  0  0  0  0  0  0  0  0  0  0
   -1.1770    0.4290    1.5820 H   0  0  0  0  0  0  0  0  0  0  0  0
   -0.7600   -1.0890    4.1950 H   0  0  0  0  0  0  0  0  0  0  0  0
    1.3020   -0.9210    2.0270 H   0  0  0  0  0  0  0  0  0  0  0  0
    1.4470   -1.0480    3.8030 H   0  0  0  0  0  0  0  0  0  0  0  0
    0.9870    0.5430    3.0230 H   0  0  0  0  0  0  0  0  0  0  0  0
   -1.8470   -2.5730    2.6230 H   0  0  0  0  0  0  0  0  0  0  0  0
    1.0890   -2.9800    2.8050 H   0  0  0  0  0  0  0  0  0  0  0  0
   -0.1060   -4.1660    2.4060 H   0  0  0  0  0  0  0  0  0  0  0  0
    0.1370   -2.8830    0.1230 N   0  0  0  0  0  0  0  0  0  0  0  0
    0.2820   -2.8840   -1.2850 C   0  0  0  0  0  0  0  0  0  0  0  0
    0.6770   -1.6360   -1.9290 C   0  0  0  0  0  0  0  0  0  0  0  0
    0.7950   -1.5880   -3.2020 O   0  0  0  0  0  0  0  0  0  0  0  0
    0.7780   -3.5180    0.6920 H   0  0  0  0  0  0  0  0  0  0  0  0
   -0.6930   -3.2200   -1.7700 H   0  0  0  0  0  0  0  0  0  0  0  0
    0.9730   -3.7380   -1.5650 H   0  0  0  0  0  0  0  0  0  0  0  0
    0.9640   -0.4060   -1.2910 N   0  0  0  0  0  0  0  0  0  0  0  0
    1.3480    0.7940   -1.9820 C   0  0  1  0  0  0  0  0  0  0  0  0
    0.4220    1.9480   -1.8320 C   0  0  0  0  0  0  0  0  0  0  0  0
    0.2240    2.4690   -0.1060 S   0  0  0  0  0  0  0  0  0  0  0  0
    2.7250    1.2200   -1.6370 C   0  0  0  0  0  0  0  0  0  0  0  0
    3.2000    2.2470   -2.1650 O   0  0  0  0  0  0  0  0  0  0  0  0
    3.5060    0.5090   -0.7400 O   0  0  0  0  0  0  0  0  0  0  0  0
    0.9020   -0.3670   -0.2570 H   0  0  0  0  0  0  0  0  0  0  0  0
    1.3760    0.5410   -3.0730 H   0  0  0  0  0  0  0  0  0  0  0  0
    0.8940    2.8140   -2.3600 H   0  0  0  0  0  0  0  0  0  0  0  0
   -0.5560    1.8040   -2.3380 H   0  0  0  0  0  0  0  0  0  0  0  0
   -1.1380    2.5890    0.2350 H   0  0  0  0  0  0  0  0  0  0  0  0
  1  9  1  0  0  0  0
  1 11  1  0  0  0  0
  2 12  1  0  0  0  0
  2  3  1  0  0  0  0
  2  1  1  0  0  0  0
  3 14  1  1  0  0  0
  4 17  1  0  0  0  0
  4  3  1  0  0  0  0
  4 16  1  0  0  0  0
  5 18  1  1  0  0  0
  5  6  1  0  0  0  0
  5  3  1  0  0  0  0
  7  5  1  0  0  0  0
  8  7  2  0  0  0  0
 10  1  1  0  0  0  0
 13  2  1  0  0  0  0
 15  4  1  0  0  0  0
 19  6  1  0  0  0  0
 20  6  1  0  0  0  0
 21 25  1  0  0  0  0
 21  7  1  0  0  0  0
 22 21  1  0  0  0  0
 23 28  1  0  0  0  0
 23 22  1  0  0  0  0
 24 23  2  0  0  0  0
 26 22  1  0  0  0  0
 27 22  1  0  0  0  0
 28 35  1  0  0  0  0
 29 36  1  6  0  0  0
 29 30  1  0  0  0  0
 29 32  1  0  0  0  0
 29 28  1  0  0  0  0
 30 31  1  0  0  0  0
 31 39  1  0  0  0  0
 32 34  1  0  0  0  0
 33 32  2  0  0  0  0
 37 30  1  0  0  0  0
 38 30  1  0  0  0  0
M  END
$$$$
