IGH.pdb
 OpenBabel07022418403D

 45 45  0  0  1  0  0  0  0  0999 V2000
    1.4660    0.3460   -2.1430 C   0  0  0  0  0  0  0  0  0  0  0  0
    1.0560   -0.8930   -1.4020 C   0  0  0  0  0  0  0  0  0  0  0  0
    2.1850   -1.5170   -0.6420 C   0  0  2  0  0  0  0  0  0  0  0  0
    3.2990   -1.8970   -1.6250 C   0  0  0  0  0  0  0  0  0  0  0  0
    1.7860   -2.7840    0.0410 C   0  0  2  0  0  0  0  0  0  0  0  0
    1.3280   -3.6950   -0.9830 N   0  0  0  0  0  0  0  0  0  0  0  0
    0.8670   -2.6350    1.1790 C   0  0  0  0  0  0  0  0  0  0  0  0
    1.2330   -1.9190    2.1430 O   0  0  0  0  0  0  0  0  0  0  0  0
    2.4040    0.7850   -1.7110 H   0  0  0  0  0  0  0  0  0  0  0  0
    1.5980    0.1250   -3.2200 H   0  0  0  0  0  0  0  0  0  0  0  0
    0.6410    1.1100   -2.0550 H   0  0  0  0  0  0  0  0  0  0  0  0
    0.6860   -1.6350   -2.1630 H   0  0  0  0  0  0  0  0  0  0  0  0
    0.1880   -0.7130   -0.7440 H   0  0  0  0  0  0  0  0  0  0  0  0
    2.6440   -0.7770    0.0490 H   0  0  0  0  0  0  0  0  0  0  0  0
    3.8570   -0.9810   -1.9400 H   0  0  0  0  0  0  0  0  0  0  0  0
    2.8840   -2.3890   -2.5280 H   0  0  0  0  0  0  0  0  0  0  0  0
    4.0200   -2.5750   -1.1670 H   0  0  0  0  0  0  0  0  0  0  0  0
    2.7520   -3.2500    0.4140 H   0  0  0  0  0  0  0  0  0  0  0  0
    0.3880   -3.4830   -1.3390 H   0  0  0  0  0  0  0  0  0  0  0  0
    1.5290   -4.6800   -0.8040 H   0  0  0  0  0  0  0  0  0  0  0  0
   -0.4060   -3.2550    1.2500 N   0  0  0  0  0  0  0  0  0  0  0  0
   -1.3440   -3.1790    2.3000 C   0  0  0  0  0  0  0  0  0  0  0  0
   -1.8940   -1.8880    2.6730 C   0  0  0  0  0  0  0  0  0  0  0  0
   -2.7350   -1.9160    3.6420 O   0  0  0  0  0  0  0  0  0  0  0  0
   -0.6410   -3.8370    0.3890 H   0  0  0  0  0  0  0  0  0  0  0  0
   -2.2100   -3.8460    2.0630 H   0  0  0  0  0  0  0  0  0  0  0  0
   -0.9460   -3.6330    3.2670 H   0  0  0  0  0  0  0  0  0  0  0  0
   -1.6300   -0.6190    2.1150 N   0  0  0  0  0  0  0  0  0  0  0  0
   -2.2830    0.5790    2.6230 C   0  0  1  0  0  0  0  0  0  0  0  0
   -1.3490    1.5180    3.3210 C   0  0  0  0  0  0  0  0  0  0  0  0
   -0.2530    2.0220    2.4700 C   0  0  0  0  0  0  0  0  0  0  0  0
    0.7360    2.9110    2.9080 C   0  0  0  0  0  0  0  0  0  0  0  0
    1.5500    3.1450    1.8790 N   0  0  0  0  0  0  0  0  0  0  0  0
    1.1420    2.4560    0.7950 C   0  0  0  0  0  0  0  0  0  0  0  0
    0.0460    1.7840    1.1830 N   0  0  0  0  0  0  0  0  0  0  0  0
   -3.0600    1.2750    1.5980 C   0  0  0  0  0  0  0  0  0  0  0  0
   -3.6780    2.3230    1.8910 O   0  0  0  0  0  0  0  0  0  0  0  0
   -3.1370    0.8070    0.2990 O   0  0  0  0  0  0  0  0  0  0  0  0
   -0.9530   -0.5650    1.3190 H   0  0  0  0  0  0  0  0  0  0  0  0
   -3.0060    0.2330    3.4100 H   0  0  0  0  0  0  0  0  0  0  0  0
   -0.9670    1.0080    4.2390 H   0  0  0  0  0  0  0  0  0  0  0  0
   -1.9310    2.3790    3.6650 H   0  0  0  0  0  0  0  0  0  0  0  0
    0.7900    3.3120    3.9200 H   0  0  0  0  0  0  0  0  0  0  0  0
    2.3990    3.7750    1.8830 H   0  0  0  0  0  0  0  0  0  0  0  0
    1.6310    2.4680   -0.1870 H   0  0  0  0  0  0  0  0  0  0  0  0
  1 11  1  0  0  0  0
  1  9  1  0  0  0  0
  1  2  1  0  0  0  0
  2 13  1  0  0  0  0
  2  3  1  0  0  0  0
  3  5  1  0  0  0  0
  3 14  1  1  0  0  0
  4 17  1  0  0  0  0
  4  3  1  0  0  0  0
  5 18  1  1  0  0  0
  5  7  1  0  0  0  0
  6 20  1  0  0  0  0
  6  5  1  0  0  0  0
  7 21  1  0  0  0  0
  7  8  2  0  0  0  0
 10  1  1  0  0  0  0
 12  2  1  0  0  0  0
 15  4  1  0  0  0  0
 16  4  1  0  0  0  0
 19  6  1  0  0  0  0
 21 22  1  0  0  0  0
 22 23  1  0  0  0  0
 22 27  1  0  0  0  0
 23 24  2  0  0  0  0
 25 21  1  0  0  0  0
 26 22  1  0  0  0  0
 28 29  1  0  0  0  0
 28 23  1  0  0  0  0
 29 30  1  0  0  0  0
 29 40  1  1  0  0  0
 30 42  1  0  0  0  0
 30 41  1  0  0  0  0
 31 32  2  0  0  0  0
 31 30  1  0  0  0  0
 32 43  1  0  0  0  0
 33 44  1  0  0  0  0
 33 32  1  0  0  0  0
 34 35  2  0  0  0  0
 34 33  1  0  0  0  0
 35 31  1  0  0  0  0
 36 37  1  0  0  0  0
 36 29  1  0  0  0  0
 38 36  2  0  0  0  0
 39 28  1  0  0  0  0
 45 34  1  0  0  0  0
M  END
$$$$
