IGI.pdb
 OpenBabel07022418403D

 47 46  0  0  1  0  0  0  0  0999 V2000
    1.9020   -4.1090   -0.7110 C   0  0  0  0  0  0  0  0  0  0  0  0
    3.0330   -3.6950    0.1840 C   0  0  0  0  0  0  0  0  0  0  0  0
    3.1920   -2.2230    0.3640 C   0  0  2  0  0  0  0  0  0  0  0  0
    4.3890   -2.0210    1.2970 C   0  0  0  0  0  0  0  0  0  0  0  0
    2.0340   -1.5320    1.0060 C   0  0  2  0  0  0  0  0  0  0  0  0
    1.7780   -2.0640    2.3270 N   0  0  0  0  0  0  0  0  0  0  0  0
    0.8200   -1.4610    0.1870 C   0  0  0  0  0  0  0  0  0  0  0  0
   -0.2940   -1.8500    0.6610 O   0  0  0  0  0  0  0  0  0  0  0  0
    0.9230   -4.1500   -0.2040 H   0  0  0  0  0  0  0  0  0  0  0  0
    2.1040   -5.1760   -1.0210 H   0  0  0  0  0  0  0  0  0  0  0  0
    1.8620   -3.5180   -1.6490 H   0  0  0  0  0  0  0  0  0  0  0  0
    2.8950   -4.1800    1.1750 H   0  0  0  0  0  0  0  0  0  0  0  0
    3.9780   -4.0840   -0.2500 H   0  0  0  0  0  0  0  0  0  0  0  0
    3.3840   -1.7380   -0.6140 H   0  0  0  0  0  0  0  0  0  0  0  0
    5.3080   -2.0510    0.6700 H   0  0  0  0  0  0  0  0  0  0  0  0
    4.3170   -1.0800    1.8460 H   0  0  0  0  0  0  0  0  0  0  0  0
    4.3950   -2.8490    2.0370 H   0  0  0  0  0  0  0  0  0  0  0  0
    2.3750   -0.4680    1.1860 H   0  0  0  0  0  0  0  0  0  0  0  0
    2.5340   -1.7020    2.9760 H   0  0  0  0  0  0  0  0  0  0  0  0
    0.8760   -1.6380    2.6610 H   0  0  0  0  0  0  0  0  0  0  0  0
    0.8660   -0.9600   -1.1400 N   0  0  0  0  0  0  0  0  0  0  0  0
   -0.2620   -0.8440   -2.0050 C   0  0  0  0  0  0  0  0  0  0  0  0
   -1.2630    0.1060   -1.4800 C   0  0  0  0  0  0  0  0  0  0  0  0
   -2.3270    0.2390   -2.1490 O   0  0  0  0  0  0  0  0  0  0  0  0
    1.8230   -0.6600   -1.4800 H   0  0  0  0  0  0  0  0  0  0  0  0
    0.0740   -0.5080   -3.0080 H   0  0  0  0  0  0  0  0  0  0  0  0
   -0.8100   -1.8310   -2.0960 H   0  0  0  0  0  0  0  0  0  0  0  0
   -2.5580    0.8420    3.8930 C   0  0  0  0  0  0  0  0  0  0  0  0
   -1.8190    1.2270    2.6270 C   0  0  0  0  0  0  0  0  0  0  0  0
   -2.7510    1.3630    1.4690 C   0  0  2  0  0  0  0  0  0  0  0  0
   -3.4590    0.0440    1.2250 C   0  0  0  0  0  0  0  0  0  0  0  0
   -2.1480    1.7980    0.1810 C   0  0  2  0  0  0  0  0  0  0  0  0
   -1.1140    0.8690   -0.3010 N   0  0  0  0  0  0  0  0  0  0  0  0
   -1.6750    3.1900    0.1360 C   0  0  0  0  0  0  0  0  0  0  0  0
   -0.5380    3.5610   -0.2580 O   0  0  0  0  0  0  0  0  0  0  0  0
   -2.4950    4.2360    0.5460 O   0  0  0  0  0  0  0  0  0  0  0  0
   -2.7370   -0.2500    3.9550 H   0  0  0  0  0  0  0  0  0  0  0  0
   -3.4830    1.4330    4.0280 H   0  0  0  0  0  0  0  0  0  0  0  0
   -1.8900    1.0920    4.7430 H   0  0  0  0  0  0  0  0  0  0  0  0
   -1.0180    0.4870    2.4940 H   0  0  0  0  0  0  0  0  0  0  0  0
   -1.3080    2.1870    2.8610 H   0  0  0  0  0  0  0  0  0  0  0  0
   -3.5540    2.0590    1.7960 H   0  0  0  0  0  0  0  0  0  0  0  0
   -4.3810   -0.0450    1.8560 H   0  0  0  0  0  0  0  0  0  0  0  0
   -2.8300   -0.8230    1.5000 H   0  0  0  0  0  0  0  0  0  0  0  0
   -3.8150   -0.0390    0.1690 H   0  0  0  0  0  0  0  0  0  0  0  0
   -2.9620    1.7070   -0.5740 H   0  0  0  0  0  0  0  0  0  0  0  0
   -0.2150    0.7590    0.2170 H   0  0  0  0  0  0  0  0  0  0  0  0
  1  9  1  0  0  0  0
  1  2  1  0  0  0  0
  2  3  1  0  0  0  0
  2 12  1  0  0  0  0
  3 14  1  6  0  0  0
  3  5  1  0  0  0  0
  3  4  1  0  0  0  0
  4 16  1  0  0  0  0
  4 17  1  0  0  0  0
  5 18  1  1  0  0  0
  5  6  1  0  0  0  0
  6 20  1  0  0  0  0
  6 19  1  0  0  0  0
  7  8  2  0  0  0  0
  7  5  1  0  0  0  0
 10  1  1  0  0  0  0
 11  1  1  0  0  0  0
 13  2  1  0  0  0  0
 15  4  1  0  0  0  0
 21  7  1  0  0  0  0
 22 23  1  0  0  0  0
 22 21  1  0  0  0  0
 23 33  1  0  0  0  0
 24 23  2  0  0  0  0
 25 21  1  0  0  0  0
 26 22  1  0  0  0  0
 27 22  1  0  0  0  0
 28 37  1  0  0  0  0
 28 38  1  0  0  0  0
 28 39  1  0  0  0  0
 29 41  1  0  0  0  0
 29 28  1  0  0  0  0
 30 42  1  1  0  0  0
 30 29  1  0  0  0  0
 31 30  1  0  0  0  0
 31 44  1  0  0  0  0
 31 43  1  0  0  0  0
 32 46  1  6  0  0  0
 32 30  1  0  0  0  0
 33 32  1  0  0  0  0
 33 47  1  0  0  0  0
 34 32  1  0  0  0  0
 34 36  1  0  0  0  0
 35 34  2  0  0  0  0
 40 29  1  0  0  0  0
 45 31  1  0  0  0  0
M  END
$$$$
