IGM.pdb
 OpenBabel07022418403D

 45 44  0  0  1  0  0  0  0  0999 V2000
   -3.3480   -2.5780    0.2660 C   0  0  0  0  0  0  0  0  0  0  0  0
   -1.8540   -2.9110    0.2440 C   0  0  0  0  0  0  0  0  0  0  0  0
   -1.3370   -2.9010    1.6560 C   0  0  2  0  0  0  0  0  0  0  0  0
   -1.5380   -1.5410    2.2780 C   0  0  0  0  0  0  0  0  0  0  0  0
    0.0640   -3.4030    1.7990 C   0  0  2  0  0  0  0  0  0  0  0  0
    0.4090   -3.3320    3.1980 N   0  0  0  0  0  0  0  0  0  0  0  0
    1.0450   -2.7030    0.9340 C   0  0  0  0  0  0  0  0  0  0  0  0
    0.8540   -2.7060   -0.3070 O   0  0  0  0  0  0  0  0  0  0  0  0
   -3.4790   -1.4780    0.2590 H   0  0  0  0  0  0  0  0  0  0  0  0
   -3.8820   -3.0660   -0.5730 H   0  0  0  0  0  0  0  0  0  0  0  0
   -3.7350   -2.9310    1.2470 H   0  0  0  0  0  0  0  0  0  0  0  0
   -1.6680   -3.8890   -0.2110 H   0  0  0  0  0  0  0  0  0  0  0  0
   -1.3910   -2.0830   -0.3390 H   0  0  0  0  0  0  0  0  0  0  0  0
   -1.9850   -3.6140    2.2450 H   0  0  0  0  0  0  0  0  0  0  0  0
   -2.4760   -1.5070    2.8680 H   0  0  0  0  0  0  0  0  0  0  0  0
   -0.7090   -1.2600    2.9600 H   0  0  0  0  0  0  0  0  0  0  0  0
   -1.6620   -0.8110    1.4430 H   0  0  0  0  0  0  0  0  0  0  0  0
    0.0860   -4.4740    1.5090 H   0  0  0  0  0  0  0  0  0  0  0  0
   -0.3750   -3.1010    3.8230 H   0  0  0  0  0  0  0  0  0  0  0  0
    1.0170   -4.1070    3.5190 H   0  0  0  0  0  0  0  0  0  0  0  0
    2.1660   -2.0490    1.4980 N   0  0  0  0  0  0  0  0  0  0  0  0
    3.1330   -1.3520    0.7160 C   0  0  0  0  0  0  0  0  0  0  0  0
    2.5790   -0.1650   -0.0160 C   0  0  0  0  0  0  0  0  0  0  0  0
    3.3580    0.4980   -0.7890 O   0  0  0  0  0  0  0  0  0  0  0  0
    2.2670   -2.0930    2.5310 H   0  0  0  0  0  0  0  0  0  0  0  0
    3.8930   -0.9050    1.4150 H   0  0  0  0  0  0  0  0  0  0  0  0
    3.6890   -2.0140    0.0130 H   0  0  0  0  0  0  0  0  0  0  0  0
    0.1400    2.7450    2.3950 C   0  0  0  0  0  0  0  0  0  0  0  0
    1.1200    3.9250    1.4540 S   0  0  0  0  0  0  0  0  0  0  0  0
    2.2520    3.1710    0.2710 C   0  0  0  0  0  0  0  0  0  0  0  0
    1.5920    2.5320   -0.9150 C   0  0  0  0  0  0  0  0  0  0  0  0
    0.6630    1.4180   -0.5830 C   0  0  2  0  0  0  0  0  0  0  0  0
    1.2500    0.2830    0.0840 N   0  0  0  0  0  0  0  0  0  0  0  0
   -0.1380    0.9570   -1.7380 C   0  0  0  0  0  0  0  0  0  0  0  0
   -0.2560   -0.2630   -2.0540 O   0  0  0  0  0  0  0  0  0  0  0  0
   -0.8170    1.8550   -2.5550 O   0  0  0  0  0  0  0  0  0  0  0  0
    0.2060    3.0830    3.4690 H   0  0  0  0  0  0  0  0  0  0  0  0
    0.5350    1.7150    2.3920 H   0  0  0  0  0  0  0  0  0  0  0  0
   -0.9480    2.7990    2.1420 H   0  0  0  0  0  0  0  0  0  0  0  0
    2.9790    3.9620   -0.0440 H   0  0  0  0  0  0  0  0  0  0  0  0
    2.8440    2.4280    0.8880 H   0  0  0  0  0  0  0  0  0  0  0  0
    2.3230    2.3150   -1.7240 H   0  0  0  0  0  0  0  0  0  0  0  0
    0.9320    3.3490   -1.3620 H   0  0  0  0  0  0  0  0  0  0  0  0
   -0.0910    1.9210    0.1290 H   0  0  0  0  0  0  0  0  0  0  0  0
    0.6380   -0.2930    0.7530 H   0  0  0  0  0  0  0  0  0  0  0  0
  1 11  1  0  0  0  0
  2  1  1  0  0  0  0
  2  3  1  0  0  0  0
  3  5  1  0  0  0  0
  3 14  1  1  0  0  0
  3  4  1  0  0  0  0
  4 15  1  0  0  0  0
  4 16  1  0  0  0  0
  5 18  1  6  0  0  0
  5  6  1  0  0  0  0
  6 20  1  0  0  0  0
  6 19  1  0  0  0  0
  7 21  1  0  0  0  0
  7  5  1  0  0  0  0
  8  7  2  0  0  0  0
  9  1  1  0  0  0  0
 10  1  1  0  0  0  0
 12  2  1  0  0  0  0
 13  2  1  0  0  0  0
 17  4  1  0  0  0  0
 21 25  1  0  0  0  0
 22 26  1  0  0  0  0
 22 21  1  0  0  0  0
 23 33  1  0  0  0  0
 23 22  1  0  0  0  0
 24 23  2  0  0  0  0
 27 22  1  0  0  0  0
 28 37  1  0  0  0  0
 29 28  1  0  0  0  0
 30 41  1  0  0  0  0
 30 29  1  0  0  0  0
 31 32  1  0  0  0  0
 31 30  1  0  0  0  0
 32 33  1  0  0  0  0
 32 44  1  1  0  0  0
 33 45  1  0  0  0  0
 34 32  1  0  0  0  0
 35 34  1  0  0  0  0
 36 34  2  0  0  0  0
 38 28  1  0  0  0  0
 39 28  1  0  0  0  0
 40 30  1  0  0  0  0
 42 31  1  0  0  0  0
 43 31  1  0  0  0  0
M  END
$$$$
