IGN.pdb
 OpenBabel07022418403D

 42 41  0  0  1  0  0  0  0  0999 V2000
   -0.9680   -6.1330    0.6620 C   0  0  0  0  0  0  0  0  0  0  0  0
   -1.3730   -4.8010    1.1950 C   0  0  0  0  0  0  0  0  0  0  0  0
   -0.1950   -3.9030    1.5020 C   0  0  2  0  0  0  0  0  0  0  0  0
   -0.7560   -2.5900    2.0490 C   0  0  0  0  0  0  0  0  0  0  0  0
    0.5450   -3.5500    0.2040 C   0  0  2  0  0  0  0  0  0  0  0  0
    0.9960   -4.8130   -0.3890 N   0  0  0  0  0  0  0  0  0  0  0  0
    1.6740   -2.6570    0.4570 C   0  0  0  0  0  0  0  0  0  0  0  0
    2.8820   -3.0910    0.5390 O   0  0  0  0  0  0  0  0  0  0  0  0
   -1.7170   -6.9280    0.9620 H   0  0  0  0  0  0  0  0  0  0  0  0
   -0.9330   -6.1530   -0.4400 H   0  0  0  0  0  0  0  0  0  0  0  0
    0.0350   -6.4150    1.0430 H   0  0  0  0  0  0  0  0  0  0  0  0
   -1.9250   -4.9180    2.1690 H   0  0  0  0  0  0  0  0  0  0  0  0
   -2.0990   -4.2840    0.5160 H   0  0  0  0  0  0  0  0  0  0  0  0
    0.4530   -4.3930    2.2290 H   0  0  0  0  0  0  0  0  0  0  0  0
   -1.3140   -2.1100    1.2510 H   0  0  0  0  0  0  0  0  0  0  0  0
    0.0080   -1.9700    2.5430 H   0  0  0  0  0  0  0  0  0  0  0  0
   -1.5450   -2.8490    2.8310 H   0  0  0  0  0  0  0  0  0  0  0  0
   -0.1640   -3.0860   -0.4760 H   0  0  0  0  0  0  0  0  0  0  0  0
    1.9850   -5.0150   -0.1320 H   0  0  0  0  0  0  0  0  0  0  0  0
    0.8390   -4.8180   -1.4210 H   0  0  0  0  0  0  0  0  0  0  0  0
    1.5280   -1.2460    0.6290 N   0  0  0  0  0  0  0  0  0  0  0  0
    2.6450   -0.3920    0.8810 C   0  0  0  0  0  0  0  0  0  0  0  0
    2.3270    1.0370    1.0350 C   0  0  0  0  0  0  0  0  0  0  0  0
    3.3120    1.8300    1.2640 O   0  0  0  0  0  0  0  0  0  0  0  0
    0.5530   -0.8960    0.5380 H   0  0  0  0  0  0  0  0  0  0  0  0
    3.3520   -0.5040    0.0040 H   0  0  0  0  0  0  0  0  0  0  0  0
    3.2660   -0.7720    1.7460 H   0  0  0  0  0  0  0  0  0  0  0  0
   -0.4960    5.8030   -1.0690 N   0  0  0  0  0  0  0  0  0  0  0  0
    0.1880    5.1040   -0.0320 C   0  0  0  0  0  0  0  0  0  0  0  0
    0.6500    5.7480    0.9190 O   0  0  0  0  0  0  0  0  0  0  0  0
    0.3200    3.6550   -0.1300 C   0  0  0  0  0  0  0  0  0  0  0  0
    0.8860    3.0690    1.1290 C   0  0  2  0  0  0  0  0  0  0  0  0
    1.0540    1.6070    0.9530 N   0  0  0  0  0  0  0  0  0  0  0  0
    0.0460    3.2830    2.3370 C   0  0  0  0  0  0  0  0  0  0  0  0
   -0.4060    2.2850    3.0010 O   0  0  0  0  0  0  0  0  0  0  0  0
   -0.3040    4.5090    2.8260 O   0  0  0  0  0  0  0  0  0  0  0  0
   -0.5750    5.4100   -2.0470 H   0  0  0  0  0  0  0  0  0  0  0  0
   -0.9540    6.7320   -0.9220 H   0  0  0  0  0  0  0  0  0  0  0  0
    1.1060    3.4590   -0.9230 H   0  0  0  0  0  0  0  0  0  0  0  0
   -0.6360    3.1540   -0.4300 H   0  0  0  0  0  0  0  0  0  0  0  0
    1.8750    3.4820    1.3110 H   0  0  0  0  0  0  0  0  0  0  0  0
    0.2210    1.0170    0.7700 H   0  0  0  0  0  0  0  0  0  0  0  0
  1  9  1  0  0  0  0
  1 11  1  0  0  0  0
  1  2  1  0  0  0  0
  2  3  1  0  0  0  0
  2 12  1  0  0  0  0
  3  4  1  0  0  0  0
  3 14  1  1  0  0  0
  4 16  1  0  0  0  0
  4 17  1  0  0  0  0
  5 18  1  6  0  0  0
  5  7  1  0  0  0  0
  5  3  1  0  0  0  0
  6 19  1  0  0  0  0
  6  5  1  0  0  0  0
  7  8  2  0  0  0  0
  7 21  1  0  0  0  0
 10  1  1  0  0  0  0
 13  2  1  0  0  0  0
 15  4  1  0  0  0  0
 20  6  1  0  0  0  0
 21 22  1  0  0  0  0
 22 23  1  0  0  0  0
 22 27  1  0  0  0  0
 23 24  2  0  0  0  0
 25 21  1  0  0  0  0
 26 22  1  0  0  0  0
 28 38  1  0  0  0  0
 28 29  1  0  0  0  0
 29 30  2  0  0  0  0
 31 29  1  0  0  0  0
 31 32  1  0  0  0  0
 32 41  1  1  0  0  0
 32 34  1  0  0  0  0
 33 23  1  0  0  0  0
 33 32  1  0  0  0  0
 34 36  2  0  0  0  0
 34 35  1  0  0  0  0
 37 28  1  0  0  0  0
 39 31  1  0  0  0  0
 40 31  1  0  0  0  0
 42 33  1  0  0  0  0
M  END
$$$$
