IGP.pdb
 OpenBabel07022418403D

 42 42  0  0  1  0  0  0  0  0999 V2000
    6.1720   -2.3510    2.3330 C   0  0  0  0  0  0  0  0  0  0  0  0
    4.9010   -2.7890    1.6840 C   0  0  0  0  0  0  0  0  0  0  0  0
    3.7100   -1.9260    2.1090 C   0  0  2  0  0  0  0  0  0  0  0  0
    3.5810   -2.0550    3.5940 C   0  0  0  0  0  0  0  0  0  0  0  0
    2.5140   -2.4570    1.3550 C   0  0  2  0  0  0  0  0  0  0  0  0
    2.7800   -2.3370   -0.0440 N   0  0  0  0  0  0  0  0  0  0  0  0
    1.2510   -1.8410    1.7750 C   0  0  0  0  0  0  0  0  0  0  0  0
    0.8020   -1.8130    2.9250 O   0  0  0  0  0  0  0  0  0  0  0  0
    6.1590   -1.3210    2.7220 H   0  0  0  0  0  0  0  0  0  0  0  0
    6.4240   -3.0900    3.1340 H   0  0  0  0  0  0  0  0  0  0  0  0
    7.0150   -2.4090    1.5870 H   0  0  0  0  0  0  0  0  0  0  0  0
    5.0110   -2.8020    0.5790 H   0  0  0  0  0  0  0  0  0  0  0  0
    4.6250   -3.8490    1.9610 H   0  0  0  0  0  0  0  0  0  0  0  0
    3.8820   -0.8740    1.7890 H   0  0  0  0  0  0  0  0  0  0  0  0
    4.5150   -2.4460    4.0770 H   0  0  0  0  0  0  0  0  0  0  0  0
    2.7710   -2.7590    3.9100 H   0  0  0  0  0  0  0  0  0  0  0  0
    3.4390   -1.0380    4.0410 H   0  0  0  0  0  0  0  0  0  0  0  0
    2.4590   -3.5510    1.5900 H   0  0  0  0  0  0  0  0  0  0  0  0
    2.0690   -2.8400   -0.6360 H   0  0  0  0  0  0  0  0  0  0  0  0
    2.9850   -1.3860   -0.3700 H   0  0  0  0  0  0  0  0  0  0  0  0
    0.4540   -1.2070    0.7530 N   0  0  0  0  0  0  0  0  0  0  0  0
   -0.8060   -0.5740    1.0760 C   0  0  0  0  0  0  0  0  0  0  0  0
   -1.3700   -0.0230   -0.1860 C   0  0  0  0  0  0  0  0  0  0  0  0
   -0.7390   -0.1610   -1.2880 O   0  0  0  0  0  0  0  0  0  0  0  0
    0.8000   -1.2100   -0.2310 H   0  0  0  0  0  0  0  0  0  0  0  0
   -1.4670   -1.3520    1.5150 H   0  0  0  0  0  0  0  0  0  0  0  0
   -0.5970    0.2040    1.8290 H   0  0  0  0  0  0  0  0  0  0  0  0
   -2.6030    0.6660   -0.2360 N   0  0  0  0  0  0  0  0  0  0  0  0
   -3.4420    0.9090    0.9150 C   0  0  0  0  0  0  0  0  0  0  0  0
   -4.5770    1.7870    0.4340 C   0  0  0  0  0  0  0  0  0  0  0  0
   -4.6900    1.4310   -1.0180 C   0  0  0  0  0  0  0  0  0  0  0  0
   -3.2210    1.2290   -1.4060 C   0  0  1  0  0  0  0  0  0  0  0  0
   -2.6080    2.5330   -1.7830 C   0  0  0  0  0  0  0  0  0  0  0  0
   -3.0390    3.1550   -2.7880 O   0  0  0  0  0  0  0  0  0  0  0  0
   -1.5660    3.1140   -1.0760 O   0  0  0  0  0  0  0  0  0  0  0  0
   -3.8990   -0.0330    1.2860 H   0  0  0  0  0  0  0  0  0  0  0  0
   -2.8940    1.4070    1.7490 H   0  0  0  0  0  0  0  0  0  0  0  0
   -4.3610    2.8560    0.5360 H   0  0  0  0  0  0  0  0  0  0  0  0
   -5.5190    1.5050    0.9610 H   0  0  0  0  0  0  0  0  0  0  0  0
   -5.1660    2.2040   -1.6390 H   0  0  0  0  0  0  0  0  0  0  0  0
   -5.1760    0.4360   -1.1650 H   0  0  0  0  0  0  0  0  0  0  0  0
   -3.2160    0.5780   -2.2840 H   0  0  0  0  0  0  0  0  0  0  0  0
  1  9  1  0  0  0  0
  1 10  1  0  0  0  0
  2 13  1  0  0  0  0
  2  3  1  0  0  0  0
  2  1  1  0  0  0  0
  3 14  1  6  0  0  0
  3  4  1  0  0  0  0
  4 16  1  0  0  0  0
  4 17  1  0  0  0  0
  4 15  1  0  0  0  0
  5 18  1  1  0  0  0
  5  7  1  0  0  0  0
  5  3  1  0  0  0  0
  6  5  1  0  0  0  0
  7  8  2  0  0  0  0
 11  1  1  0  0  0  0
 12  2  1  0  0  0  0
 19  6  1  0  0  0  0
 20  6  1  0  0  0  0
 21 22  1  0  0  0  0
 21  7  1  0  0  0  0
 22 26  1  0  0  0  0
 22 27  1  0  0  0  0
 23 22  1  0  0  0  0
 24 23  2  0  0  0  0
 25 21  1  0  0  0  0
 28 23  1  0  0  0  0
 28 29  1  0  0  0  0
 29 36  1  0  0  0  0
 29 37  1  0  0  0  0
 30 38  1  0  0  0  0
 30 29  1  0  0  0  0
 30 39  1  0  0  0  0
 31 30  1  0  0  0  0
 32 42  1  6  0  0  0
 32 31  1  0  0  0  0
 32 28  1  0  0  0  0
 33 32  1  0  0  0  0
 33 35  1  0  0  0  0
 34 33  2  0  0  0  0
 40 31  1  0  0  0  0
 41 31  1  0  0  0  0
M  END
$$$$
