IGQ.pdb
 OpenBabel07022418403D

 45 44  0  0  1  0  0  0  0  0999 V2000
    2.0550   -4.5350    1.5000 C   0  0  0  0  0  0  0  0  0  0  0  0
    1.7050   -4.5920    0.0310 C   0  0  0  0  0  0  0  0  0  0  0  0
    0.2870   -4.1350   -0.2130 C   0  0  2  0  0  0  0  0  0  0  0  0
   -0.0590   -4.2250   -1.6940 C   0  0  0  0  0  0  0  0  0  0  0  0
   -0.0330   -2.7660    0.3280 C   0  0  2  0  0  0  0  0  0  0  0  0
   -1.4830   -2.5990   -0.0010 N   0  0  0  0  0  0  0  0  0  0  0  0
    0.6250   -1.6370   -0.3050 C   0  0  0  0  0  0  0  0  0  0  0  0
   -0.1040   -0.8290   -1.0000 O   0  0  0  0  0  0  0  0  0  0  0  0
    2.9880   -5.1170    1.6390 H   0  0  0  0  0  0  0  0  0  0  0  0
    1.2040   -4.9740    2.0680 H   0  0  0  0  0  0  0  0  0  0  0  0
    2.1610   -3.4780    1.7940 H   0  0  0  0  0  0  0  0  0  0  0  0
    2.4710   -4.0320   -0.5140 H   0  0  0  0  0  0  0  0  0  0  0  0
    1.7490   -5.6980   -0.2320 H   0  0  0  0  0  0  0  0  0  0  0  0
   -0.3760   -4.8530    0.3000 H   0  0  0  0  0  0  0  0  0  0  0  0
    0.0700   -3.2160   -2.1250 H   0  0  0  0  0  0  0  0  0  0  0  0
   -1.1440   -4.4760   -1.8090 H   0  0  0  0  0  0  0  0  0  0  0  0
    0.5020   -5.0180   -2.2150 H   0  0  0  0  0  0  0  0  0  0  0  0
   -0.0200   -2.7990    1.4220 H   0  0  0  0  0  0  0  0  0  0  0  0
   -1.5170   -2.5510   -1.0360 H   0  0  0  0  0  0  0  0  0  0  0  0
   -1.9160   -3.5060    0.2800 H   0  0  0  0  0  0  0  0  0  0  0  0
    1.9870   -1.2650   -0.2810 N   0  0  0  0  0  0  0  0  0  0  0  0
    2.4870   -0.0780   -0.9620 C   0  0  0  0  0  0  0  0  0  0  0  0
    1.8860    1.1140   -0.3240 C   0  0  0  0  0  0  0  0  0  0  0  0
    2.1240    2.2790   -0.8040 O   0  0  0  0  0  0  0  0  0  0  0  0
    2.6540   -1.8310    0.2310 H   0  0  0  0  0  0  0  0  0  0  0  0
    2.2960   -0.1210   -2.0540 H   0  0  0  0  0  0  0  0  0  0  0  0
    3.5930   -0.0020   -0.8690 H   0  0  0  0  0  0  0  0  0  0  0  0
   -3.8600    4.3460    2.7160 N   0  0  0  0  0  0  0  0  0  0  0  0
   -3.1180    3.3050    2.1250 C   0  0  0  0  0  0  0  0  0  0  0  0
   -3.6990    2.3080    1.6580 O   0  0  0  0  0  0  0  0  0  0  0  0
   -1.6450    3.3980    2.0580 C   0  0  0  0  0  0  0  0  0  0  0  0
   -1.0180    2.1670    1.4690 C   0  0  0  0  0  0  0  0  0  0  0  0
    0.4770    2.3240    1.3960 C   0  0  2  0  0  0  0  0  0  0  0  0
    1.0470    1.0870    0.8100 N   0  0  0  0  0  0  0  0  0  0  0  0
    1.0950    2.4360    2.7330 C   0  0  0  0  0  0  0  0  0  0  0  0
    0.9320    3.4080    3.5260 O   0  0  0  0  0  0  0  0  0  0  0  0
    1.9360    1.4280    3.2360 O   0  0  0  0  0  0  0  0  0  0  0  0
   -4.7080    4.2060    3.3000 H   0  0  0  0  0  0  0  0  0  0  0  0
   -3.5540    5.3380    2.5730 H   0  0  0  0  0  0  0  0  0  0  0  0
   -1.4170    4.3050    1.4390 H   0  0  0  0  0  0  0  0  0  0  0  0
   -1.2270    3.5740    3.0800 H   0  0  0  0  0  0  0  0  0  0  0  0
   -1.4490    1.9740    0.4430 H   0  0  0  0  0  0  0  0  0  0  0  0
   -1.2860    1.2960    2.1150 H   0  0  0  0  0  0  0  0  0  0  0  0
    0.7760    3.1990    0.7900 H   0  0  0  0  0  0  0  0  0  0  0  0
    0.8310    0.1810    1.2720 H   0  0  0  0  0  0  0  0  0  0  0  0
  1  9  1  0  0  0  0
  1 11  1  0  0  0  0
  1 10  1  0  0  0  0
  2  1  1  0  0  0  0
  3  2  1  0  0  0  0
  3 14  1  1  0  0  0
  3  5  1  0  0  0  0
  4  3  1  0  0  0  0
  5 18  1  1  0  0  0
  6 20  1  0  0  0  0
  6  5  1  0  0  0  0
  7 21  1  0  0  0  0
  7  5  1  0  0  0  0
  8  7  2  0  0  0  0
 12  2  1  0  0  0  0
 13  2  1  0  0  0  0
 15  4  1  0  0  0  0
 16  4  1  0  0  0  0
 17  4  1  0  0  0  0
 19  6  1  0  0  0  0
 21 25  1  0  0  0  0
 22 27  1  0  0  0  0
 22 23  1  0  0  0  0
 22 21  1  0  0  0  0
 23 34  1  0  0  0  0
 24 23  2  0  0  0  0
 26 22  1  0  0  0  0
 28 38  1  0  0  0  0
 29 28  1  0  0  0  0
 30 29  2  0  0  0  0
 31 29  1  0  0  0  0
 31 41  1  0  0  0  0
 32 31  1  0  0  0  0
 32 43  1  0  0  0  0
 33 44  1  6  0  0  0
 33 32  1  0  0  0  0
 33 35  1  0  0  0  0
 34 45  1  0  0  0  0
 34 33  1  0  0  0  0
 35 37  2  0  0  0  0
 35 36  1  0  0  0  0
 39 28  1  0  0  0  0
 40 31  1  0  0  0  0
 42 32  1  0  0  0  0
M  END
$$$$
