IGS.pdb
 OpenBabel07022418403D

 39 38  0  0  1  0  0  0  0  0999 V2000
   -0.1820   -3.2970    2.6680 C   0  0  0  0  0  0  0  0  0  0  0  0
   -0.1560   -2.7480    1.2530 C   0  0  0  0  0  0  0  0  0  0  0  0
    1.2190   -2.5440    0.7390 C   0  0  2  0  0  0  0  0  0  0  0  0
    2.0400   -1.5850    1.5470 C   0  0  0  0  0  0  0  0  0  0  0  0
    1.2850   -2.2470   -0.7470 C   0  0  2  0  0  0  0  0  0  0  0  0
    2.7020   -2.0690   -1.1270 N   0  0  0  0  0  0  0  0  0  0  0  0
    0.4880   -1.0960   -1.1740 C   0  0  0  0  0  0  0  0  0  0  0  0
    1.1390   -0.0440   -1.5130 O   0  0  0  0  0  0  0  0  0  0  0  0
   -1.2200   -3.5750    2.9440 H   0  0  0  0  0  0  0  0  0  0  0  0
    0.4160   -4.2500    2.7240 H   0  0  0  0  0  0  0  0  0  0  0  0
    0.1850   -2.6020    3.4200 H   0  0  0  0  0  0  0  0  0  0  0  0
   -0.7740   -1.8290    1.2840 H   0  0  0  0  0  0  0  0  0  0  0  0
   -0.7210   -3.4950    0.6500 H   0  0  0  0  0  0  0  0  0  0  0  0
    1.7540   -3.5390    0.8370 H   0  0  0  0  0  0  0  0  0  0  0  0
    1.9220   -1.8920    2.6210 H   0  0  0  0  0  0  0  0  0  0  0  0
    1.8690   -0.5290    1.3610 H   0  0  0  0  0  0  0  0  0  0  0  0
    3.1080   -1.7900    1.3160 H   0  0  0  0  0  0  0  0  0  0  0  0
    0.9450   -3.1550   -1.2780 H   0  0  0  0  0  0  0  0  0  0  0  0
    2.7810   -2.2890   -2.1240 H   0  0  0  0  0  0  0  0  0  0  0  0
    3.3090   -2.7330   -0.5990 H   0  0  0  0  0  0  0  0  0  0  0  0
   -0.9290   -1.1250   -1.2200 N   0  0  0  0  0  0  0  0  0  0  0  0
   -1.6280    0.0560   -1.6450 C   0  0  0  0  0  0  0  0  0  0  0  0
   -1.4490    1.2380   -0.8060 C   0  0  0  0  0  0  0  0  0  0  0  0
   -2.0120    2.3430   -1.1340 O   0  0  0  0  0  0  0  0  0  0  0  0
   -1.4850   -1.9710   -0.9680 H   0  0  0  0  0  0  0  0  0  0  0  0
   -1.3330    0.2300   -2.7140 H   0  0  0  0  0  0  0  0  0  0  0  0
   -2.7410   -0.1250   -1.7150 H   0  0  0  0  0  0  0  0  0  0  0  0
   -0.2620    1.1780    3.1360 O   0  0  0  0  0  0  0  0  0  0  0  0
   -1.0350    2.1980    2.5850 C   0  0  0  0  0  0  0  0  0  0  0  0
   -0.5560    2.5300    1.1720 C   0  0  2  0  0  0  0  0  0  0  0  0
   -0.6910    1.3160    0.3920 N   0  0  0  0  0  0  0  0  0  0  0  0
    0.8930    2.9190    1.2890 C   0  0  0  0  0  0  0  0  0  0  0  0
    1.2520    3.9360    1.9190 O   0  0  0  0  0  0  0  0  0  0  0  0
    1.8710    2.1430    0.6880 O   0  0  0  0  0  0  0  0  0  0  0  0
   -0.1840    1.2650    4.1290 H   0  0  0  0  0  0  0  0  0  0  0  0
   -1.0100    3.0940    3.2470 H   0  0  0  0  0  0  0  0  0  0  0  0
   -2.0860    1.8450    2.5760 H   0  0  0  0  0  0  0  0  0  0  0  0
   -1.0860    3.3900    0.7690 H   0  0  0  0  0  0  0  0  0  0  0  0
   -0.2100    0.4720    0.7490 H   0  0  0  0  0  0  0  0  0  0  0  0
  1 10  1  0  0  0  0
  1  9  1  0  0  0  0
  1 11  1  0  0  0  0
  2 12  1  0  0  0  0
  2  1  1  0  0  0  0
  3 14  1  1  0  0  0
  3  2  1  0  0  0  0
  3  4  1  0  0  0  0
  4 15  1  0  0  0  0
  5 18  1  6  0  0  0
  5  3  1  0  0  0  0
  6  5  1  0  0  0  0
  6 20  1  0  0  0  0
  7  5  1  0  0  0  0
  8  7  2  0  0  0  0
 13  2  1  0  0  0  0
 16  4  1  0  0  0  0
 17  4  1  0  0  0  0
 19  6  1  0  0  0  0
 21  7  1  0  0  0  0
 21 25  1  0  0  0  0
 22 21  1  0  0  0  0
 22 23  1  0  0  0  0
 23 31  1  0  0  0  0
 24 23  2  0  0  0  0
 26 22  1  0  0  0  0
 27 22  1  0  0  0  0
 28 35  1  0  0  0  0
 29 28  1  0  0  0  0
 29 36  1  0  0  0  0
 30 38  1  6  0  0  0
 30 32  1  0  0  0  0
 30 29  1  0  0  0  0
 31 39  1  0  0  0  0
 31 30  1  0  0  0  0
 32 33  1  0  0  0  0
 34 32  2  0  0  0  0
 37 29  1  0  0  0  0
M  END
$$$$
