IGT.pdb
 OpenBabel07022418403D

 42 41  0  0  1  0  0  0  0  0999 V2000
   -2.1630   -3.0360    1.2900 C   0  0  0  0  0  0  0  0  0  0  0  0
   -0.9020   -2.7650    0.4870 C   0  0  0  0  0  0  0  0  0  0  0  0
    0.3350   -3.0310    1.2870 C   0  0  2  0  0  0  0  0  0  0  0  0
    0.4430   -2.1910    2.5160 C   0  0  0  0  0  0  0  0  0  0  0  0
    1.5870   -3.0830    0.4500 C   0  0  2  0  0  0  0  0  0  0  0  0
    2.6780   -3.3540    1.4230 N   0  0  0  0  0  0  0  0  0  0  0  0
    1.8830   -1.8620   -0.3050 C   0  0  0  0  0  0  0  0  0  0  0  0
    2.8290   -1.1290    0.0750 O   0  0  0  0  0  0  0  0  0  0  0  0
   -2.2070   -2.4310    2.2230 H   0  0  0  0  0  0  0  0  0  0  0  0
   -2.2190   -4.1030    1.5430 H   0  0  0  0  0  0  0  0  0  0  0  0
   -3.0180   -2.7870    0.6360 H   0  0  0  0  0  0  0  0  0  0  0  0
   -0.8950   -1.7170    0.1450 H   0  0  0  0  0  0  0  0  0  0  0  0
   -0.9800   -3.4110   -0.4090 H   0  0  0  0  0  0  0  0  0  0  0  0
    0.2140   -4.0980    1.6660 H   0  0  0  0  0  0  0  0  0  0  0  0
    1.4860   -2.2570    2.8800 H   0  0  0  0  0  0  0  0  0  0  0  0
    0.1530   -1.1480    2.4140 H   0  0  0  0  0  0  0  0  0  0  0  0
   -0.1950   -2.6390    3.3100 H   0  0  0  0  0  0  0  0  0  0  0  0
    1.5390   -3.9680   -0.1990 H   0  0  0  0  0  0  0  0  0  0  0  0
    3.3770   -3.9810    0.9550 H   0  0  0  0  0  0  0  0  0  0  0  0
    3.1000   -2.4180    1.6440 H   0  0  0  0  0  0  0  0  0  0  0  0
    1.1530   -1.4660   -1.4500 N   0  0  0  0  0  0  0  0  0  0  0  0
    1.4600   -0.2550   -2.1700 C   0  0  0  0  0  0  0  0  0  0  0  0
    1.2820    0.9860   -1.3780 C   0  0  0  0  0  0  0  0  0  0  0  0
    1.5610    2.1260   -1.8970 O   0  0  0  0  0  0  0  0  0  0  0  0
    0.3510   -2.0580   -1.8300 H   0  0  0  0  0  0  0  0  0  0  0  0
    0.8830   -0.1880   -3.1180 H   0  0  0  0  0  0  0  0  0  0  0  0
    2.5340   -0.3090   -2.4500 H   0  0  0  0  0  0  0  0  0  0  0  0
   -1.2670    1.3430    1.9310 C   0  0  0  0  0  0  0  0  0  0  0  0
   -0.8030    2.4750    1.0430 C   0  0  1  0  0  0  0  0  0  0  0  0
   -0.9700    3.6640    1.7200 O   0  0  0  0  0  0  0  0  0  0  0  0
    0.6680    2.2770    0.6540 C   0  0  2  0  0  0  0  0  0  0  0  0
    0.8090    1.0390   -0.0450 N   0  0  0  0  0  0  0  0  0  0  0  0
    1.4700    2.3790    1.8680 C   0  0  0  0  0  0  0  0  0  0  0  0
    2.2020    1.4350    2.2230 O   0  0  0  0  0  0  0  0  0  0  0  0
    1.4250    3.5230    2.6340 O   0  0  0  0  0  0  0  0  0  0  0  0
   -0.5240    1.1340    2.7450 H   0  0  0  0  0  0  0  0  0  0  0  0
   -2.2080    1.6110    2.4530 H   0  0  0  0  0  0  0  0  0  0  0  0
   -1.3530    0.3900    1.3540 H   0  0  0  0  0  0  0  0  0  0  0  0
   -1.3900    2.4740    0.1150 H   0  0  0  0  0  0  0  0  0  0  0  0
   -1.6430    3.5780    2.4420 H   0  0  0  0  0  0  0  0  0  0  0  0
    0.9870    3.1000   -0.0220 H   0  0  0  0  0  0  0  0  0  0  0  0
    0.5380    0.1720    0.4590 H   0  0  0  0  0  0  0  0  0  0  0  0
  1 10  1  0  0  0  0
  1  9  1  0  0  0  0
  2  3  1  0  0  0  0
  2  1  1  0  0  0  0
  3 14  1  1  0  0  0
  3  4  1  0  0  0  0
  4 15  1  0  0  0  0
  4 17  1  0  0  0  0
  5 18  1  6  0  0  0
  5  3  1  0  0  0  0
  5  6  1  0  0  0  0
  6 20  1  0  0  0  0
  7  8  2  0  0  0  0
  7  5  1  0  0  0  0
 11  1  1  0  0  0  0
 12  2  1  0  0  0  0
 13  2  1  0  0  0  0
 16  4  1  0  0  0  0
 19  6  1  0  0  0  0
 21  7  1  0  0  0  0
 22 21  1  0  0  0  0
 22 23  1  0  0  0  0
 23 32  1  0  0  0  0
 24 23  2  0  0  0  0
 25 21  1  0  0  0  0
 26 22  1  0  0  0  0
 27 22  1  0  0  0  0
 28 37  1  0  0  0  0
 28 36  1  0  0  0  0
 29 39  1  6  0  0  0
 29 30  1  0  0  0  0
 29 28  1  0  0  0  0
 30 40  1  0  0  0  0
 31 41  1  6  0  0  0
 31 29  1  0  0  0  0
 31 33  1  0  0  0  0
 32 42  1  0  0  0  0
 32 31  1  0  0  0  0
 33 34  2  0  0  0  0
 33 35  1  0  0  0  0
 38 28  1  0  0  0  0
M  END
$$$$
