IGV.pdb
 OpenBabel07022418403D

 44 43  0  0  1  0  0  0  0  0999 V2000
   -3.5480   -2.4960    3.0780 C   0  0  0  0  0  0  0  0  0  0  0  0
   -3.6120   -2.6840    1.6190 C   0  0  0  0  0  0  0  0  0  0  0  0
   -3.0520   -1.5900    0.7670 C   0  0  2  0  0  0  0  0  0  0  0  0
   -3.2590   -2.0630   -0.6640 C   0  0  0  0  0  0  0  0  0  0  0  0
   -1.6200   -1.3360    1.1120 C   0  0  2  0  0  0  0  0  0  0  0  0
   -1.6480   -0.9520    2.5370 N   0  0  0  0  0  0  0  0  0  0  0  0
   -0.9640   -0.2590    0.3970 C   0  0  0  0  0  0  0  0  0  0  0  0
   -0.5530    0.7880    0.9910 O   0  0  0  0  0  0  0  0  0  0  0  0
   -2.6060   -2.9060    3.5460 H   0  0  0  0  0  0  0  0  0  0  0  0
   -4.3530   -3.1550    3.5250 H   0  0  0  0  0  0  0  0  0  0  0  0
   -3.7830   -1.4840    3.4430 H   0  0  0  0  0  0  0  0  0  0  0  0
   -3.0880   -3.6310    1.3530 H   0  0  0  0  0  0  0  0  0  0  0  0
   -4.6860   -2.8140    1.3210 H   0  0  0  0  0  0  0  0  0  0  0  0
   -3.6560   -0.6680    0.8860 H   0  0  0  0  0  0  0  0  0  0  0  0
   -3.3920   -1.2320   -1.3730 H   0  0  0  0  0  0  0  0  0  0  0  0
   -4.2390   -2.6300   -0.7160 H   0  0  0  0  0  0  0  0  0  0  0  0
   -2.5070   -2.8150   -0.9720 H   0  0  0  0  0  0  0  0  0  0  0  0
   -1.0830   -2.3070    1.0920 H   0  0  0  0  0  0  0  0  0  0  0  0
   -0.6820   -0.8950    2.9260 H   0  0  0  0  0  0  0  0  0  0  0  0
   -2.1160    0.0020    2.5460 H   0  0  0  0  0  0  0  0  0  0  0  0
   -0.7050   -0.2350   -1.0030 N   0  0  0  0  0  0  0  0  0  0  0  0
   -0.0380    0.8490   -1.6760 C   0  0  0  0  0  0  0  0  0  0  0  0
    1.3610    1.0150   -1.2150 C   0  0  0  0  0  0  0  0  0  0  0  0
    2.0780    1.9730   -1.6790 O   0  0  0  0  0  0  0  0  0  0  0  0
   -1.0130   -1.0420   -1.5680 H   0  0  0  0  0  0  0  0  0  0  0  0
    0.0200    0.6390   -2.7790 H   0  0  0  0  0  0  0  0  0  0  0  0
   -0.6140    1.7970   -1.5970 H   0  0  0  0  0  0  0  0  0  0  0  0
    4.7760    0.9760    2.1680 C   0  0  0  0  0  0  0  0  0  0  0  0
    3.4280    0.7100    1.5990 C   0  0  0  0  0  0  0  0  0  0  0  0
    2.5420    1.8970    1.9110 C   0  0  0  0  0  0  0  0  0  0  0  0
    3.4060    0.4240    0.1340 C   0  0  2  0  0  0  0  0  0  0  0  0
    2.0200    0.1850   -0.2730 N   0  0  0  0  0  0  0  0  0  0  0  0
    4.2210   -0.7010   -0.2940 C   0  0  0  0  0  0  0  0  0  0  0  0
    5.4600   -0.8150   -0.1030 O   0  0  0  0  0  0  0  0  0  0  0  0
    3.6230   -1.7540   -0.9700 O   0  0  0  0  0  0  0  0  0  0  0  0
    5.3180    1.7950    1.6490 H   0  0  0  0  0  0  0  0  0  0  0  0
    4.6400    1.3260    3.2170 H   0  0  0  0  0  0  0  0  0  0  0  0
    5.4090    0.0550    2.2510 H   0  0  0  0  0  0  0  0  0  0  0  0
    3.0050   -0.1770    2.1310 H   0  0  0  0  0  0  0  0  0  0  0  0
    1.6240    1.5730    2.4750 H   0  0  0  0  0  0  0  0  0  0  0  0
    3.0490    2.6140    2.6040 H   0  0  0  0  0  0  0  0  0  0  0  0
    2.2820    2.4610    1.0160 H   0  0  0  0  0  0  0  0  0  0  0  0
    3.7460    1.3210   -0.4100 H   0  0  0  0  0  0  0  0  0  0  0  0
    1.4890   -0.6370    0.1260 H   0  0  0  0  0  0  0  0  0  0  0  0
  1 11  1  0  0  0  0
  1 10  1  0  0  0  0
  1  9  1  0  0  0  0
  2  1  1  0  0  0  0
  3 14  1  1  0  0  0
  3  5  1  0  0  0  0
  3  2  1  0  0  0  0
  4  3  1  0  0  0  0
  5 18  1  6  0  0  0
  5  6  1  0  0  0  0
  6 20  1  0  0  0  0
  6 19  1  0  0  0  0
  7  8  2  0  0  0  0
  7  5  1  0  0  0  0
 12  2  1  0  0  0  0
 13  2  1  0  0  0  0
 15  4  1  0  0  0  0
 16  4  1  0  0  0  0
 17  4  1  0  0  0  0
 21  7  1  0  0  0  0
 22 27  1  0  0  0  0
 22 23  1  0  0  0  0
 22 21  1  0  0  0  0
 23 32  1  0  0  0  0
 24 23  2  0  0  0  0
 25 21  1  0  0  0  0
 26 22  1  0  0  0  0
 28 38  1  0  0  0  0
 28 37  1  0  0  0  0
 29 30  1  0  0  0  0
 29 39  1  0  0  0  0
 29 28  1  0  0  0  0
 30 40  1  0  0  0  0
 30 41  1  0  0  0  0
 31 43  1  6  0  0  0
 31 29  1  0  0  0  0
 32 44  1  0  0  0  0
 32 31  1  0  0  0  0
 33 34  1  0  0  0  0
 33 31  1  0  0  0  0
 35 33  2  0  0  0  0
 36 28  1  0  0  0  0
 42 30  1  0  0  0  0
M  END
$$$$
