IHD.pdb
 OpenBabel07022418413D

 51 51  0  0  1  0  0  0  0  0999 V2000
    1.2040   -3.1690    2.3210 C   0  0  0  0  0  0  0  0  0  0  0  0
    2.0680   -2.3520    1.4130 C   0  0  0  0  0  0  0  0  0  0  0  0
    2.6670   -1.1360    2.0780 C   0  0  2  0  0  0  0  0  0  0  0  0
    3.5360   -1.5210    3.2550 C   0  0  0  0  0  0  0  0  0  0  0  0
    1.6360   -0.1260    2.4660 C   0  0  2  0  0  0  0  0  0  0  0  0
    0.6630   -0.6200    3.3840 N   0  0  0  0  0  0  0  0  0  0  0  0
    0.9280    0.3610    1.2340 C   0  0  0  0  0  0  0  0  0  0  0  0
    1.6020    0.8250    0.2930 O   0  0  0  0  0  0  0  0  0  0  0  0
    1.7020   -3.3980    3.2850 H   0  0  0  0  0  0  0  0  0  0  0  0
    0.1840   -2.7720    2.4520 H   0  0  0  0  0  0  0  0  0  0  0  0
    1.0690   -4.1730    1.8230 H   0  0  0  0  0  0  0  0  0  0  0  0
    2.9040   -3.0130    1.0750 H   0  0  0  0  0  0  0  0  0  0  0  0
    1.5090   -2.0530    0.5250 H   0  0  0  0  0  0  0  0  0  0  0  0
    3.3430   -0.6690    1.3190 H   0  0  0  0  0  0  0  0  0  0  0  0
    4.0660   -0.5910    3.5820 H   0  0  0  0  0  0  0  0  0  0  0  0
    4.3520   -2.1760    2.8350 H   0  0  0  0  0  0  0  0  0  0  0  0
    2.9950   -2.0200    4.0560 H   0  0  0  0  0  0  0  0  0  0  0  0
    2.1660    0.7240    2.9590 H   0  0  0  0  0  0  0  0  0  0  0  0
    0.1000    0.1680    3.7670 H   0  0  0  0  0  0  0  0  0  0  0  0
    1.1430   -1.1690    4.1390 H   0  0  0  0  0  0  0  0  0  0  0  0
   -0.4760    0.2920    1.1470 N   0  0  0  0  0  0  0  0  0  0  0  0
   -1.2850    0.7320    0.0470 C   0  0  1  0  0  0  0  0  0  0  0  0
   -0.7040    1.9170   -0.7090 C   0  0  0  0  0  0  0  0  0  0  0  0
   -0.6070    3.0610    0.2290 C   0  0  0  0  0  0  0  0  0  0  0  0
   -1.6210    4.0090    0.4480 C   0  0  0  0  0  0  0  0  0  0  0  0
   -1.2330    4.9160    1.3530 N   0  0  0  0  0  0  0  0  0  0  0  0
    0.0070    4.5660    1.7140 C   0  0  0  0  0  0  0  0  0  0  0  0
    0.3700    3.4660    1.0440 N   0  0  0  0  0  0  0  0  0  0  0  0
   -1.8040   -0.3300   -0.8110 C   0  0  0  0  0  0  0  0  0  0  0  0
   -2.5250   -0.1290   -1.8190 O   0  0  0  0  0  0  0  0  0  0  0  0
   -0.9770   -0.1380    2.0060 H   0  0  0  0  0  0  0  0  0  0  0  0
   -2.2150    1.2340    0.5440 H   0  0  0  0  0  0  0  0  0  0  0  0
   -1.4760    2.1830   -1.4830 H   0  0  0  0  0  0  0  0  0  0  0  0
    0.2110    1.6760   -1.2390 H   0  0  0  0  0  0  0  0  0  0  0  0
   -2.5740    3.9750   -0.0660 H   0  0  0  0  0  0  0  0  0  0  0  0
   -1.8080    5.7360    1.6960 H   0  0  0  0  0  0  0  0  0  0  0  0
    0.6130    5.0830    2.4270 H   0  0  0  0  0  0  0  0  0  0  0  0
   -1.4920   -1.6830   -0.5120 N   0  0  0  0  0  0  0  0  0  0  0  0
   -1.9300   -2.8170   -1.2620 C   0  0  1  0  0  0  0  0  0  0  0  0
   -0.8200   -3.5600   -1.9520 C   0  0  0  0  0  0  0  0  0  0  0  0
   -0.1630   -2.6390   -2.8780 C   0  0  0  0  0  0  0  0  0  0  0  0
    0.6880   -1.7740   -2.5300 O   0  0  0  0  0  0  0  0  0  0  0  0
   -2.8230   -3.6840   -0.4660 C   0  0  0  0  0  0  0  0  0  0  0  0
   -3.0870   -3.3550    0.7120 O   0  0  0  0  0  0  0  0  0  0  0  0
   -0.4720   -2.6950   -4.2270 O   0  0  0  0  0  0  0  0  0  0  0  0
   -3.3780   -4.8440   -0.9700 O   0  0  0  0  0  0  0  0  0  0  0  0
   -0.8870   -1.8690    0.3330 H   0  0  0  0  0  0  0  0  0  0  0  0
   -2.5670   -2.4070   -2.1030 H   0  0  0  0  0  0  0  0  0  0  0  0
   -1.2900   -4.3780   -2.5340 H   0  0  0  0  0  0  0  0  0  0  0  0
   -0.1250   -4.0530   -1.2420 H   0  0  0  0  0  0  0  0  0  0  0  0
   -0.4580   -1.8520   -4.8110 H   0  0  0  0  0  0  0  0  0  0  0  0
  1 10  1  0  0  0  0
  1  9  1  0  0  0  0
  2  3  1  0  0  0  0
  2  1  1  0  0  0  0
  3 14  1  6  0  0  0
  3  5  1  0  0  0  0
  3  4  1  0  0  0  0
  4 15  1  0  0  0  0
  4 17  1  0  0  0  0
  5 18  1  1  0  0  0
  5  6  1  0  0  0  0
  6 19  1  0  0  0  0
  6 20  1  0  0  0  0
  7  5  1  0  0  0  0
  8  7  2  0  0  0  0
 11  1  1  0  0  0  0
 12  2  1  0  0  0  0
 13  2  1  0  0  0  0
 16  4  1  0  0  0  0
 21  7  1  0  0  0  0
 21 31  1  0  0  0  0
 22 32  1  1  0  0  0
 22 21  1  0  0  0  0
 23 22  1  0  0  0  0
 23 24  1  0  0  0  0
 24 25  2  0  0  0  0
 24 28  1  0  0  0  0
 25 26  1  0  0  0  0
 26 36  1  0  0  0  0
 26 27  1  0  0  0  0
 27 37  1  0  0  0  0
 28 27  2  0  0  0  0
 29 38  1  0  0  0  0
 29 22  1  0  0  0  0
 30 29  2  0  0  0  0
 33 23  1  0  0  0  0
 34 23  1  0  0  0  0
 35 25  1  0  0  0  0
 38 47  1  0  0  0  0
 39 48  1  6  0  0  0
 39 38  1  0  0  0  0
 39 43  1  0  0  0  0
 40 39  1  0  0  0  0
 40 50  1  0  0  0  0
 41 42  2  0  0  0  0
 41 40  1  0  0  0  0
 43 44  1  0  0  0  0
 45 41  1  0  0  0  0
 46 43  2  0  0  0  0
 49 40  1  0  0  0  0
 51 45  1  0  0  0  0
M  END
$$$$
