IHE.pdb
 OpenBabel07022418413D

 54 54  0  0  1  0  0  0  0  0999 V2000
    3.8130    0.8880    3.4680 C   0  0  0  0  0  0  0  0  0  0  0  0
    3.1840    2.0480    2.7760 C   0  0  0  0  0  0  0  0  0  0  0  0
    3.3800    2.1180    1.3040 C   0  0  2  0  0  0  0  0  0  0  0  0
    2.6730    3.3540    0.7900 C   0  0  0  0  0  0  0  0  0  0  0  0
    3.0150    0.8860    0.5480 C   0  0  2  0  0  0  0  0  0  0  0  0
    3.2500    1.0930   -0.8670 N   0  0  0  0  0  0  0  0  0  0  0  0
    1.6760    0.3600    0.8040 C   0  0  0  0  0  0  0  0  0  0  0  0
    1.3210    0.1140    1.9970 O   0  0  0  0  0  0  0  0  0  0  0  0
    4.7180    1.1670    4.0580 H   0  0  0  0  0  0  0  0  0  0  0  0
    4.0910    0.0400    2.8480 H   0  0  0  0  0  0  0  0  0  0  0  0
    3.0950    0.4850    4.2410 H   0  0  0  0  0  0  0  0  0  0  0  0
    3.6570    2.9790    3.2070 H   0  0  0  0  0  0  0  0  0  0  0  0
    2.1090    2.1350    3.0680 H   0  0  0  0  0  0  0  0  0  0  0  0
    4.4860    2.2750    1.1340 H   0  0  0  0  0  0  0  0  0  0  0  0
    3.4150    4.1340    0.4490 H   0  0  0  0  0  0  0  0  0  0  0  0
    2.0860    3.8570    1.5860 H   0  0  0  0  0  0  0  0  0  0  0  0
    2.0780    3.1140   -0.1050 H   0  0  0  0  0  0  0  0  0  0  0  0
    3.7640    0.0920    0.8430 H   0  0  0  0  0  0  0  0  0  0  0  0
    3.0900    0.1500   -1.3280 H   0  0  0  0  0  0  0  0  0  0  0  0
    4.3000    1.2350   -0.9600 H   0  0  0  0  0  0  0  0  0  0  0  0
    0.7230    0.0980   -0.2230 N   0  0  0  0  0  0  0  0  0  0  0  0
   -0.5780   -0.4210    0.0760 C   0  0  1  0  0  0  0  0  0  0  0  0
   -1.6490    0.5970   -0.2880 C   0  0  0  0  0  0  0  0  0  0  0  0
   -1.4340    1.8530    0.4940 C   0  0  0  0  0  0  0  0  0  0  0  0
   -1.9760    2.1330    1.7400 C   0  0  0  0  0  0  0  0  0  0  0  0
   -1.5610    3.3440    2.1150 N   0  0  0  0  0  0  0  0  0  0  0  0
   -0.7770    3.8150    1.1330 C   0  0  0  0  0  0  0  0  0  0  0  0
   -0.7000    2.9190    0.1580 N   0  0  0  0  0  0  0  0  0  0  0  0
   -0.7910   -1.7030   -0.6230 C   0  0  0  0  0  0  0  0  0  0  0  0
    0.1260   -2.1720   -1.3470 O   0  0  0  0  0  0  0  0  0  0  0  0
    1.0330    0.3090   -1.1990 H   0  0  0  0  0  0  0  0  0  0  0  0
   -0.6540   -0.5670    1.1890 H   0  0  0  0  0  0  0  0  0  0  0  0
   -2.6530    0.2320   -0.0030 H   0  0  0  0  0  0  0  0  0  0  0  0
   -1.6170    0.8730   -1.3470 H   0  0  0  0  0  0  0  0  0  0  0  0
   -2.6140    1.4660    2.2740 H   0  0  0  0  0  0  0  0  0  0  0  0
   -1.8080    3.8260    3.0150 H   0  0  0  0  0  0  0  0  0  0  0  0
   -0.3050    4.7970    1.1930 H   0  0  0  0  0  0  0  0  0  0  0  0
   -2.0060   -2.4240   -0.5020 N   0  0  0  0  0  0  0  0  0  0  0  0
   -2.1670   -3.6960   -1.2200 C   0  0  1  0  0  0  0  0  0  0  0  0
   -2.3810   -4.7340   -0.1530 C   0  0  0  0  0  0  0  0  0  0  0  0
   -2.5680   -6.1270   -0.6520 C   0  0  0  0  0  0  0  0  0  0  0  0
   -2.7650   -7.0280    0.5280 C   0  0  0  0  0  0  0  0  0  0  0  0
   -2.7610   -6.6200    1.7090 O   0  0  0  0  0  0  0  0  0  0  0  0
   -3.2850   -3.5670   -2.1630 C   0  0  0  0  0  0  0  0  0  0  0  0
   -3.5950   -4.5340   -2.8940 O   0  0  0  0  0  0  0  0  0  0  0  0
   -2.9600   -8.3800    0.3010 O   0  0  0  0  0  0  0  0  0  0  0  0
   -4.0290   -2.4060   -2.2830 O   0  0  0  0  0  0  0  0  0  0  0  0
   -2.7630   -2.0320    0.0980 H   0  0  0  0  0  0  0  0  0  0  0  0
   -1.2310   -3.8820   -1.7570 H   0  0  0  0  0  0  0  0  0  0  0  0
   -3.2300   -4.4460    0.5170 H   0  0  0  0  0  0  0  0  0  0  0  0
   -1.4850   -4.7260    0.5010 H   0  0  0  0  0  0  0  0  0  0  0  0
   -1.6250   -6.5110   -1.1400 H   0  0  0  0  0  0  0  0  0  0  0  0
   -3.3610   -6.2760   -1.3850 H   0  0  0  0  0  0  0  0  0  0  0  0
   -2.8280   -9.1000    1.0010 H   0  0  0  0  0  0  0  0  0  0  0  0
  1  9  1  0  0  0  0
  1 11  1  0  0  0  0
  2 13  1  0  0  0  0
  2 12  1  0  0  0  0
  2  1  1  0  0  0  0
  3 14  1  6  0  0  0
  3  2  1  0  0  0  0
  4  3  1  0  0  0  0
  4 16  1  0  0  0  0
  5  7  1  0  0  0  0
  5 18  1  1  0  0  0
  5  3  1  0  0  0  0
  6  5  1  0  0  0  0
  7  8  2  0  0  0  0
 10  1  1  0  0  0  0
 15  4  1  0  0  0  0
 17  4  1  0  0  0  0
 19  6  1  0  0  0  0
 20  6  1  0  0  0  0
 21 22  1  0  0  0  0
 21  7  1  0  0  0  0
 22 32  1  1  0  0  0
 23 33  1  0  0  0  0
 23 22  1  0  0  0  0
 23 24  1  0  0  0  0
 24 25  2  0  0  0  0
 25 26  1  0  0  0  0
 25 35  1  0  0  0  0
 26 36  1  0  0  0  0
 27 37  1  0  0  0  0
 27 26  1  0  0  0  0
 28 24  1  0  0  0  0
 28 27  2  0  0  0  0
 29 38  1  0  0  0  0
 29 22  1  0  0  0  0
 30 29  2  0  0  0  0
 31 21  1  0  0  0  0
 34 23  1  0  0  0  0
 38 48  1  0  0  0  0
 39 49  1  6  0  0  0
 39 38  1  0  0  0  0
 39 40  1  0  0  0  0
 40 51  1  0  0  0  0
 40 50  1  0  0  0  0
 41 40  1  0  0  0  0
 41 42  1  0  0  0  0
 42 43  2  0  0  0  0
 44 39  1  0  0  0  0
 45 44  2  0  0  0  0
 46 42  1  0  0  0  0
 46 54  1  0  0  0  0
 47 44  1  0  0  0  0
 52 41  1  0  0  0  0
 53 41  1  0  0  0  0
M  END
$$$$
