IHF.pdb
 OpenBabel07022418413D

 58 59  0  0  1  0  0  0  0  0999 V2000
    0.8770    0.6690    3.9960 C   0  0  0  0  0  0  0  0  0  0  0  0
    1.9310   -0.3490    4.2550 C   0  0  0  0  0  0  0  0  0  0  0  0
    2.6220   -0.9020    3.0570 C   0  0  2  0  0  0  0  0  0  0  0  0
    3.6840   -1.9290    3.4360 C   0  0  0  0  0  0  0  0  0  0  0  0
    3.1610    0.1010    2.0920 C   0  0  2  0  0  0  0  0  0  0  0  0
    4.1090    1.0040    2.6890 N   0  0  0  0  0  0  0  0  0  0  0  0
    2.0750    0.7370    1.3470 C   0  0  0  0  0  0  0  0  0  0  0  0
    1.8590    1.9860    1.3970 O   0  0  0  0  0  0  0  0  0  0  0  0
    1.2740    1.7240    4.0500 H   0  0  0  0  0  0  0  0  0  0  0  0
    0.3060    0.4900    3.0680 H   0  0  0  0  0  0  0  0  0  0  0  0
    0.0890    0.6710    4.8150 H   0  0  0  0  0  0  0  0  0  0  0  0
    1.4070   -1.2270    4.7410 H   0  0  0  0  0  0  0  0  0  0  0  0
    2.6570   -0.0160    5.0430 H   0  0  0  0  0  0  0  0  0  0  0  0
    1.8540   -1.5000    2.4770 H   0  0  0  0  0  0  0  0  0  0  0  0
    3.9490   -2.4470    2.4770 H   0  0  0  0  0  0  0  0  0  0  0  0
    3.2550   -2.6400    4.1670 H   0  0  0  0  0  0  0  0  0  0  0  0
    4.5360   -1.3890    3.8670 H   0  0  0  0  0  0  0  0  0  0  0  0
    3.7800   -0.5080    1.3540 H   0  0  0  0  0  0  0  0  0  0  0  0
    4.9770    0.4600    2.8860 H   0  0  0  0  0  0  0  0  0  0  0  0
    4.3770    1.7090    1.9590 H   0  0  0  0  0  0  0  0  0  0  0  0
    1.1820   -0.0120    0.5050 N   0  0  0  0  0  0  0  0  0  0  0  0
    0.1030    0.6890   -0.2230 C   0  0  1  0  0  0  0  0  0  0  0  0
    0.4290    0.6570   -1.7010 C   0  0  0  0  0  0  0  0  0  0  0  0
   -0.6020    1.3880   -2.4630 C   0  0  0  0  0  0  0  0  0  0  0  0
   -0.6230    1.5390   -3.8660 C   0  0  0  0  0  0  0  0  0  0  0  0
   -1.6830    2.2500   -4.2420 N   0  0  0  0  0  0  0  0  0  0  0  0
   -2.3590    2.5700   -3.1330 C   0  0  0  0  0  0  0  0  0  0  0  0
   -1.7060    2.0510   -2.0800 N   0  0  0  0  0  0  0  0  0  0  0  0
   -1.1540   -0.0030    0.1220 C   0  0  0  0  0  0  0  0  0  0  0  0
   -2.2990    0.3240   -0.3030 O   0  0  0  0  0  0  0  0  0  0  0  0
    1.3480   -1.0300    0.4380 H   0  0  0  0  0  0  0  0  0  0  0  0
    0.0340    1.7320    0.0610 H   0  0  0  0  0  0  0  0  0  0  0  0
    1.4380    1.0600   -1.8330 H   0  0  0  0  0  0  0  0  0  0  0  0
    0.4100   -0.3990   -2.0710 H   0  0  0  0  0  0  0  0  0  0  0  0
    0.1290    1.1270   -4.5220 H   0  0  0  0  0  0  0  0  0  0  0  0
   -1.9850    2.5370   -5.2030 H   0  0  0  0  0  0  0  0  0  0  0  0
   -3.2840    3.1530   -3.0850 H   0  0  0  0  0  0  0  0  0  0  0  0
   -1.1680   -1.1380    0.9940 N   0  0  0  0  0  0  0  0  0  0  0  0
   -2.3960   -1.8250    1.3260 C   0  0  1  0  0  0  0  0  0  0  0  0
   -2.2280   -3.2390    0.7400 C   0  0  0  0  0  0  0  0  0  0  0  0
   -2.0280   -3.2180   -0.7100 C   0  0  0  0  0  0  0  0  0  0  0  0
   -3.0570   -3.2770   -1.6300 C   0  0  0  0  0  0  0  0  0  0  0  0
   -2.7980   -3.2540   -2.9760 C   0  0  0  0  0  0  0  0  0  0  0  0
   -1.5140   -3.1710   -3.4750 C   0  0  0  0  0  0  0  0  0  0  0  0
   -0.4860   -3.1120   -2.5630 C   0  0  0  0  0  0  0  0  0  0  0  0
   -0.7460   -3.1360   -1.2100 C   0  0  0  0  0  0  0  0  0  0  0  0
   -2.4590   -2.0150    2.7820 C   0  0  0  0  0  0  0  0  0  0  0  0
   -3.4160   -2.5710    3.3790 O   0  0  0  0  0  0  0  0  0  0  0  0
   -1.4180   -1.5660    3.5640 O   0  0  0  0  0  0  0  0  0  0  0  0
   -0.2950   -1.4920    1.4130 H   0  0  0  0  0  0  0  0  0  0  0  0
   -3.2850   -1.3340    0.8820 H   0  0  0  0  0  0  0  0  0  0  0  0
   -3.0960   -3.8720    1.0560 H   0  0  0  0  0  0  0  0  0  0  0  0
   -1.3180   -3.6620    1.2120 H   0  0  0  0  0  0  0  0  0  0  0  0
   -4.0570   -3.3420   -1.2620 H   0  0  0  0  0  0  0  0  0  0  0  0
   -3.6330   -3.3020   -3.6660 H   0  0  0  0  0  0  0  0  0  0  0  0
   -1.2750   -3.1500   -4.5250 H   0  0  0  0  0  0  0  0  0  0  0  0
    0.5260   -3.0470   -2.9350 H   0  0  0  0  0  0  0  0  0  0  0  0
    0.1010   -3.0870   -0.5310 H   0  0  0  0  0  0  0  0  0  0  0  0
  1  9  1  0  0  0  0
  1  2  1  0  0  0  0
  1 11  1  0  0  0  0
  2 12  1  0  0  0  0
  2 13  1  0  0  0  0
  3 14  1  6  0  0  0
  3  4  1  0  0  0  0
  3  2  1  0  0  0  0
  4 17  1  0  0  0  0
  4 16  1  0  0  0  0
  5 18  1  6  0  0  0
  5  6  1  0  0  0  0
  5  3  1  0  0  0  0
  6 19  1  0  0  0  0
  7  8  2  0  0  0  0
  7  5  1  0  0  0  0
 10  1  1  0  0  0  0
 15  4  1  0  0  0  0
 20  6  1  0  0  0  0
 21  7  1  0  0  0  0
 22 32  1  1  0  0  0
 22 29  1  0  0  0  0
 22 21  1  0  0  0  0
 23 22  1  0  0  0  0
 24 28  1  0  0  0  0
 24 23  1  0  0  0  0
 25 24  2  0  0  0  0
 26 25  1  0  0  0  0
 26 27  1  0  0  0  0
 27 37  1  0  0  0  0
 27 28  2  0  0  0  0
 29 38  1  0  0  0  0
 30 29  2  0  0  0  0
 31 21  1  0  0  0  0
 33 23  1  0  0  0  0
 34 23  1  0  0  0  0
 35 25  1  0  0  0  0
 36 26  1  0  0  0  0
 38 39  1  0  0  0  0
 38 50  1  0  0  0  0
 39 51  1  6  0  0  0
 39 47  1  0  0  0  0
 40 52  1  0  0  0  0
 40 53  1  0  0  0  0
 40 39  1  0  0  0  0
 41 40  1  0  0  0  0
 42 54  1  0  0  0  0
 42 41  2  0  0  0  0
 43 42  1  0  0  0  0
 44 43  2  0  0  0  0
 44 45  1  0  0  0  0
 45 46  2  0  0  0  0
 46 41  1  0  0  0  0
 46 58  1  0  0  0  0
 47 48  2  0  0  0  0
 47 49  1  0  0  0  0
 55 43  1  0  0  0  0
 56 44  1  0  0  0  0
 57 45  1  0  0  0  0
M  END
$$$$
