IHG.pdb
 OpenBabel07022418413D

 45 45  0  0  1  0  0  0  0  0999 V2000
    0.3060   -5.1840    0.7390 C   0  0  0  0  0  0  0  0  0  0  0  0
    0.4660   -4.6120    2.1200 C   0  0  0  0  0  0  0  0  0  0  0  0
    0.2480   -3.1170    2.1570 C   0  0  2  0  0  0  0  0  0  0  0  0
   -1.0930   -2.6930    1.7110 C   0  0  0  0  0  0  0  0  0  0  0  0
    1.3360   -2.3880    1.3740 C   0  0  2  0  0  0  0  0  0  0  0  0
    2.6350   -2.7050    1.9790 N   0  0  0  0  0  0  0  0  0  0  0  0
    1.1320   -0.9410    1.5830 C   0  0  0  0  0  0  0  0  0  0  0  0
    1.7290   -0.3990    2.5640 O   0  0  0  0  0  0  0  0  0  0  0  0
    0.7010   -6.2410    0.7900 H   0  0  0  0  0  0  0  0  0  0  0  0
   -0.7550   -5.2660    0.4640 H   0  0  0  0  0  0  0  0  0  0  0  0
    0.9310   -4.6660    0.0090 H   0  0  0  0  0  0  0  0  0  0  0  0
    1.4930   -4.8600    2.4570 H   0  0  0  0  0  0  0  0  0  0  0  0
   -0.2180   -5.1360    2.8170 H   0  0  0  0  0  0  0  0  0  0  0  0
    0.3780   -2.8100    3.2260 H   0  0  0  0  0  0  0  0  0  0  0  0
   -1.4550   -1.7600    2.2350 H   0  0  0  0  0  0  0  0  0  0  0  0
   -1.1900   -2.4910    0.6280 H   0  0  0  0  0  0  0  0  0  0  0  0
   -1.9000   -3.4330    1.9350 H   0  0  0  0  0  0  0  0  0  0  0  0
    1.3660   -2.6980    0.3330 H   0  0  0  0  0  0  0  0  0  0  0  0
    3.2720   -3.1670    1.3250 H   0  0  0  0  0  0  0  0  0  0  0  0
    2.5360   -3.1430    2.9020 H   0  0  0  0  0  0  0  0  0  0  0  0
    0.3380   -0.0820    0.7970 N   0  0  0  0  0  0  0  0  0  0  0  0
    0.1930    1.3360    1.0680 C   0  0  1  0  0  0  0  0  0  0  0  0
    0.7380    2.1720   -0.0750 C   0  0  0  0  0  0  0  0  0  0  0  0
    2.1650    1.9500   -0.3490 C   0  0  0  0  0  0  0  0  0  0  0  0
    2.8160    2.6420   -1.3690 C   0  0  0  0  0  0  0  0  0  0  0  0
    4.0790    2.2190   -1.3560 N   0  0  0  0  0  0  0  0  0  0  0  0
    4.2390    1.3060   -0.3840 C   0  0  0  0  0  0  0  0  0  0  0  0
    3.0660    1.1530    0.2180 N   0  0  0  0  0  0  0  0  0  0  0  0
   -1.2580    1.6440    1.1250 C   0  0  0  0  0  0  0  0  0  0  0  0
   -1.5730    2.8300    1.4430 O   0  0  0  0  0  0  0  0  0  0  0  0
   -0.1610   -0.4820   -0.0210 H   0  0  0  0  0  0  0  0  0  0  0  0
    0.6970    1.6740    1.9710 H   0  0  0  0  0  0  0  0  0  0  0  0
    0.1510    1.9790   -1.0090 H   0  0  0  0  0  0  0  0  0  0  0  0
    0.6020    3.2370    0.2180 H   0  0  0  0  0  0  0  0  0  0  0  0
    2.4080    3.3780   -2.0500 H   0  0  0  0  0  0  0  0  0  0  0  0
    4.8380    2.5480   -2.0060 H   0  0  0  0  0  0  0  0  0  0  0  0
    5.1930    0.7940   -0.1570 H   0  0  0  0  0  0  0  0  0  0  0  0
   -2.3010    0.7480    0.8590 N   0  0  0  0  0  0  0  0  0  0  0  0
   -3.6970    1.1480    0.9460 C   0  0  0  0  0  0  0  0  0  0  0  0
   -3.9760    2.2490    0.0010 C   0  0  0  0  0  0  0  0  0  0  0  0
   -5.1090    2.7750   -0.1170 O   0  0  0  0  0  0  0  0  0  0  0  0
   -2.9540    2.7380   -0.7990 O   0  0  0  0  0  0  0  0  0  0  0  0
   -2.0800   -0.2110    0.5880 H   0  0  0  0  0  0  0  0  0  0  0  0
   -3.9380    1.4860    1.9850 H   0  0  0  0  0  0  0  0  0  0  0  0
   -4.3580    0.3050    0.7260 H   0  0  0  0  0  0  0  0  0  0  0  0
  1  9  1  0  0  0  0
  1  2  1  0  0  0  0
  2  3  1  0  0  0  0
  2 12  1  0  0  0  0
  2 13  1  0  0  0  0
  3 14  1  1  0  0  0
  4 17  1  0  0  0  0
  4  3  1  0  0  0  0
  4 15  1  0  0  0  0
  5 18  1  6  0  0  0
  5  7  1  0  0  0  0
  5  6  1  0  0  0  0
  5  3  1  0  0  0  0
  6 20  1  0  0  0  0
  7  8  2  0  0  0  0
 10  1  1  0  0  0  0
 11  1  1  0  0  0  0
 16  4  1  0  0  0  0
 19  6  1  0  0  0  0
 21 22  1  0  0  0  0
 21  7  1  0  0  0  0
 22 29  1  0  0  0  0
 22 32  1  1  0  0  0
 23 34  1  0  0  0  0
 23 22  1  0  0  0  0
 24 23  1  0  0  0  0
 24 28  1  0  0  0  0
 25 26  1  0  0  0  0
 25 24  2  0  0  0  0
 26 27  1  0  0  0  0
 27 37  1  0  0  0  0
 27 28  2  0  0  0  0
 29 30  2  0  0  0  0
 31 21  1  0  0  0  0
 33 23  1  0  0  0  0
 35 25  1  0  0  0  0
 36 26  1  0  0  0  0
 38 39  1  0  0  0  0
 38 29  1  0  0  0  0
 39 44  1  0  0  0  0
 40 39  1  0  0  0  0
 41 40  1  0  0  0  0
 42 40  2  0  0  0  0
 43 38  1  0  0  0  0
 45 39  1  0  0  0  0
M  END
$$$$
