IHH.pdb
 OpenBabel07022418413D

 55 56  0  0  1  0  0  0  0  0999 V2000
    2.3030   -1.0810    6.0010 C   0  0  0  0  0  0  0  0  0  0  0  0
    1.5860   -1.5100    4.7030 C   0  0  0  0  0  0  0  0  0  0  0  0
    2.5890   -1.6460    3.5850 C   0  0  2  0  0  0  0  0  0  0  0  0
    3.2560   -0.3000    3.3610 C   0  0  0  0  0  0  0  0  0  0  0  0
    1.9440   -2.1940    2.3370 C   0  0  2  0  0  0  0  0  0  0  0  0
    2.9460   -2.3200    1.2680 N   0  0  0  0  0  0  0  0  0  0  0  0
    0.8600   -1.2930    1.9290 C   0  0  0  0  0  0  0  0  0  0  0  0
   -0.1850   -1.1200    2.6010 O   0  0  0  0  0  0  0  0  0  0  0  0
    3.3150   -1.5080    5.9770 H   0  0  0  0  0  0  0  0  0  0  0  0
    2.4110    0.0240    6.0290 H   0  0  0  0  0  0  0  0  0  0  0  0
    1.7000   -1.3760    6.8730 H   0  0  0  0  0  0  0  0  0  0  0  0
    1.0890   -2.4710    4.9370 H   0  0  0  0  0  0  0  0  0  0  0  0
    0.8600   -0.6700    4.5420 H   0  0  0  0  0  0  0  0  0  0  0  0
    3.3780   -2.3520    3.9690 H   0  0  0  0  0  0  0  0  0  0  0  0
    3.9150   -0.0920    4.2140 H   0  0  0  0  0  0  0  0  0  0  0  0
    3.7680   -0.2940    2.3860 H   0  0  0  0  0  0  0  0  0  0  0  0
    2.4710    0.5070    3.3140 H   0  0  0  0  0  0  0  0  0  0  0  0
    1.6170   -3.2190    2.5610 H   0  0  0  0  0  0  0  0  0  0  0  0
    2.4850   -2.8750    0.5130 H   0  0  0  0  0  0  0  0  0  0  0  0
    3.7300   -2.8920    1.6550 H   0  0  0  0  0  0  0  0  0  0  0  0
    0.9170   -0.5250    0.7050 N   0  0  0  0  0  0  0  0  0  0  0  0
   -0.1510    0.3610    0.3050 C   0  0  1  0  0  0  0  0  0  0  0  0
    0.3050    1.7910    0.1900 C   0  0  0  0  0  0  0  0  0  0  0  0
   -0.7650    2.7240   -0.2160 C   0  0  0  0  0  0  0  0  0  0  0  0
   -1.1110    3.1080   -1.4930 C   0  0  0  0  0  0  0  0  0  0  0  0
   -2.1370    3.9870   -1.4510 N   0  0  0  0  0  0  0  0  0  0  0  0
   -2.4400    4.1600   -0.1540 C   0  0  0  0  0  0  0  0  0  0  0  0
   -1.6160    3.4010    0.5900 N   0  0  0  0  0  0  0  0  0  0  0  0
   -0.7710   -0.1700   -0.9310 C   0  0  0  0  0  0  0  0  0  0  0  0
   -1.7360    0.4570   -1.4160 O   0  0  0  0  0  0  0  0  0  0  0  0
    1.7830   -0.6620    0.1420 H   0  0  0  0  0  0  0  0  0  0  0  0
   -0.9810    0.3620    1.0710 H   0  0  0  0  0  0  0  0  0  0  0  0
    1.1040    1.7920   -0.6070 H   0  0  0  0  0  0  0  0  0  0  0  0
    0.7790    2.1790    1.0860 H   0  0  0  0  0  0  0  0  0  0  0  0
   -0.6710    2.7930   -2.4240 H   0  0  0  0  0  0  0  0  0  0  0  0
   -2.6150    4.4520   -2.2580 H   0  0  0  0  0  0  0  0  0  0  0  0
   -3.2310    4.8170    0.1770 H   0  0  0  0  0  0  0  0  0  0  0  0
   -0.2770   -1.3460   -1.5260 N   0  0  0  0  0  0  0  0  0  0  0  0
   -0.7590   -2.0090   -2.6990 C   0  0  1  0  0  0  0  0  0  0  0  0
   -2.2260   -1.7770   -3.0320 C   0  0  0  0  0  0  0  0  0  0  0  0
   -3.1470   -2.2780   -1.9820 C   0  0  0  0  0  0  0  0  0  0  0  0
   -3.6500   -3.5960   -1.9920 C   0  0  0  0  0  0  0  0  0  0  0  0
   -4.4480   -3.7660   -0.9320 N   0  0  0  0  0  0  0  0  0  0  0  0
   -4.4770   -2.6110   -0.2440 C   0  0  0  0  0  0  0  0  0  0  0  0
   -3.6880   -1.7380   -0.8960 N   0  0  0  0  0  0  0  0  0  0  0  0
    0.1220   -1.9430   -3.8700 C   0  0  0  0  0  0  0  0  0  0  0  0
   -0.1610   -2.4750   -4.9690 O   0  0  0  0  0  0  0  0  0  0  0  0
    1.3430   -1.2650   -3.7940 O   0  0  0  0  0  0  0  0  0  0  0  0
    0.5720   -1.8020   -1.0290 H   0  0  0  0  0  0  0  0  0  0  0  0
   -0.7870   -3.1340   -2.3940 H   0  0  0  0  0  0  0  0  0  0  0  0
   -2.4330   -0.7150   -3.2070 H   0  0  0  0  0  0  0  0  0  0  0  0
   -2.4740   -2.2830   -3.9980 H   0  0  0  0  0  0  0  0  0  0  0  0
   -3.4250   -4.3380   -2.7330 H   0  0  0  0  0  0  0  0  0  0  0  0
   -4.9620   -4.6380   -0.6770 H   0  0  0  0  0  0  0  0  0  0  0  0
   -5.0460   -2.4710    0.6570 H   0  0  0  0  0  0  0  0  0  0  0  0
  1 10  1  0  0  0  0
  1 11  1  0  0  0  0
  2 12  1  0  0  0  0
  2  1  1  0  0  0  0
  3 14  1  1  0  0  0
  3  2  1  0  0  0  0
  4  3  1  0  0  0  0
  4 15  1  0  0  0  0
  5 18  1  1  0  0  0
  5  3  1  0  0  0  0
  6 20  1  0  0  0  0
  6  5  1  0  0  0  0
  7  5  1  0  0  0  0
  7  8  2  0  0  0  0
  9  1  1  0  0  0  0
 13  2  1  0  0  0  0
 16  4  1  0  0  0  0
 17  4  1  0  0  0  0
 19  6  1  0  0  0  0
 21  7  1  0  0  0  0
 22 21  1  0  0  0  0
 22 32  1  1  0  0  0
 23 22  1  0  0  0  0
 23 34  1  0  0  0  0
 24 23  1  0  0  0  0
 24 28  1  0  0  0  0
 25 26  1  0  0  0  0
 25 24  2  0  0  0  0
 26 27  1  0  0  0  0
 27 37  1  0  0  0  0
 27 28  2  0  0  0  0
 29 22  1  0  0  0  0
 30 29  2  0  0  0  0
 31 21  1  0  0  0  0
 33 23  1  0  0  0  0
 35 25  1  0  0  0  0
 36 26  1  0  0  0  0
 38 49  1  0  0  0  0
 38 29  1  0  0  0  0
 39 50  1  1  0  0  0
 39 38  1  0  0  0  0
 40 39  1  0  0  0  0
 40 41  1  0  0  0  0
 41 45  1  0  0  0  0
 42 41  2  0  0  0  0
 42 43  1  0  0  0  0
 43 54  1  0  0  0  0
 43 44  1  0  0  0  0
 44 55  1  0  0  0  0
 45 44  2  0  0  0  0
 46 48  1  0  0  0  0
 46 39  1  0  0  0  0
 47 46  2  0  0  0  0
 51 40  1  0  0  0  0
 52 40  1  0  0  0  0
 53 42  1  0  0  0  0
M  END
$$$$
