IHI.pdb
 OpenBabel07022418413D

 57 57  0  0  1  0  0  0  0  0999 V2000
   -3.6390   -0.8060    1.6940 C   0  0  0  0  0  0  0  0  0  0  0  0
   -2.5760    0.2480    1.7580 C   0  0  0  0  0  0  0  0  0  0  0  0
   -1.5050   -0.0810    2.7640 C   0  0  2  0  0  0  0  0  0  0  0  0
   -2.1580   -0.1990    4.1220 C   0  0  0  0  0  0  0  0  0  0  0  0
   -0.4920    1.0510    2.8420 C   0  0  2  0  0  0  0  0  0  0  0  0
   -1.1990    2.2370    3.2420 N   0  0  0  0  0  0  0  0  0  0  0  0
    0.1720    1.2910    1.5370 C   0  0  0  0  0  0  0  0  0  0  0  0
    0.0490    2.4040    0.9670 O   0  0  0  0  0  0  0  0  0  0  0  0
   -4.2510   -0.8430    2.6110 H   0  0  0  0  0  0  0  0  0  0  0  0
   -4.3000   -0.5600    0.8180 H   0  0  0  0  0  0  0  0  0  0  0  0
   -3.1600   -1.7760    1.4410 H   0  0  0  0  0  0  0  0  0  0  0  0
   -2.0890    0.3620    0.7800 H   0  0  0  0  0  0  0  0  0  0  0  0
   -3.0350    1.2430    1.9880 H   0  0  0  0  0  0  0  0  0  0  0  0
   -1.0110   -1.0360    2.4870 H   0  0  0  0  0  0  0  0  0  0  0  0
   -1.5120    0.2500    4.9050 H   0  0  0  0  0  0  0  0  0  0  0  0
   -3.1380    0.3050    4.0950 H   0  0  0  0  0  0  0  0  0  0  0  0
   -2.3480   -1.2660    4.3710 H   0  0  0  0  0  0  0  0  0  0  0  0
    0.3130    0.7690    3.5550 H   0  0  0  0  0  0  0  0  0  0  0  0
   -1.0710    2.4150    4.2650 H   0  0  0  0  0  0  0  0  0  0  0  0
   -1.0050    3.0740    2.6790 H   0  0  0  0  0  0  0  0  0  0  0  0
    0.9590    0.3180    0.8740 N   0  0  0  0  0  0  0  0  0  0  0  0
    1.5700    0.6090   -0.3750 C   0  0  1  0  0  0  0  0  0  0  0  0
    3.0860    0.6120   -0.3290 C   0  0  0  0  0  0  0  0  0  0  0  0
    3.5880    1.6270    0.6290 C   0  0  0  0  0  0  0  0  0  0  0  0
    3.9040    2.9540    0.3890 C   0  0  0  0  0  0  0  0  0  0  0  0
    4.3270    3.4950    1.5720 N   0  0  0  0  0  0  0  0  0  0  0  0
    4.2800    2.5590    2.5100 C   0  0  0  0  0  0  0  0  0  0  0  0
    3.8400    1.4520    1.9400 N   0  0  0  0  0  0  0  0  0  0  0  0
    1.0660   -0.2700   -1.4650 C   0  0  0  0  0  0  0  0  0  0  0  0
    1.4890   -0.1880   -2.6460 O   0  0  0  0  0  0  0  0  0  0  0  0
    1.0830   -0.6190    1.3200 H   0  0  0  0  0  0  0  0  0  0  0  0
    1.2950    1.6500   -0.6880 H   0  0  0  0  0  0  0  0  0  0  0  0
    3.4130    0.9260   -1.3630 H   0  0  0  0  0  0  0  0  0  0  0  0
    3.5240   -0.3820   -0.1680 H   0  0  0  0  0  0  0  0  0  0  0  0
    3.8300    3.4610   -0.5520 H   0  0  0  0  0  0  0  0  0  0  0  0
    4.6340    4.4810    1.7120 H   0  0  0  0  0  0  0  0  0  0  0  0
    4.5550    2.6960    3.5390 H   0  0  0  0  0  0  0  0  0  0  0  0
    0.0210   -5.9250   -2.2470 C   0  0  0  0  0  0  0  0  0  0  0  0
   -0.5730   -4.6120   -2.7130 C   0  0  0  0  0  0  0  0  0  0  0  0
   -0.0820   -3.5330   -1.7730 C   0  0  2  0  0  0  0  0  0  0  0  0
   -0.5330   -3.8460   -0.3800 C   0  0  0  0  0  0  0  0  0  0  0  0
   -0.4680   -2.1410   -2.2130 C   0  0  2  0  0  0  0  0  0  0  0  0
    0.0820   -1.2350   -1.2000 N   0  0  0  0  0  0  0  0  0  0  0  0
   -1.9300   -1.9670   -2.3360 C   0  0  0  0  0  0  0  0  0  0  0  0
   -2.6080   -2.6340   -3.1390 O   0  0  0  0  0  0  0  0  0  0  0  0
   -2.5600   -1.0360   -1.5380 O   0  0  0  0  0  0  0  0  0  0  0  0
    0.9480   -5.7220   -1.6580 H   0  0  0  0  0  0  0  0  0  0  0  0
   -0.7120   -6.4330   -1.6190 H   0  0  0  0  0  0  0  0  0  0  0  0
    0.2490   -6.5950   -3.1100 H   0  0  0  0  0  0  0  0  0  0  0  0
   -0.2290   -4.3880   -3.7500 H   0  0  0  0  0  0  0  0  0  0  0  0
   -1.6620   -4.7090   -2.6990 H   0  0  0  0  0  0  0  0  0  0  0  0
    1.0390   -3.5770   -1.7740 H   0  0  0  0  0  0  0  0  0  0  0  0
   -0.9670   -4.8610   -0.3440 H   0  0  0  0  0  0  0  0  0  0  0  0
    0.3260   -3.8600    0.3370 H   0  0  0  0  0  0  0  0  0  0  0  0
   -1.2810   -3.1160    0.0130 H   0  0  0  0  0  0  0  0  0  0  0  0
    0.0690   -1.9130   -3.1480 H   0  0  0  0  0  0  0  0  0  0  0  0
   -0.3020   -1.3430   -0.2400 H   0  0  0  0  0  0  0  0  0  0  0  0
  1  2  1  0  0  0  0
  1  9  1  0  0  0  0
  2 13  1  0  0  0  0
  2  3  1  0  0  0  0
  3 14  1  6  0  0  0
  3  5  1  0  0  0  0
  3  4  1  0  0  0  0
  4 17  1  0  0  0  0
  4 15  1  0  0  0  0
  5  6  1  0  0  0  0
  5 18  1  1  0  0  0
  6 19  1  0  0  0  0
  7  5  1  0  0  0  0
  8  7  2  0  0  0  0
 10  1  1  0  0  0  0
 11  1  1  0  0  0  0
 12  2  1  0  0  0  0
 16  4  1  0  0  0  0
 20  6  1  0  0  0  0
 21 31  1  0  0  0  0
 21  7  1  0  0  0  0
 22 32  1  6  0  0  0
 22 23  1  0  0  0  0
 22 21  1  0  0  0  0
 23 34  1  0  0  0  0
 23 24  1  0  0  0  0
 24 28  1  0  0  0  0
 25 24  2  0  0  0  0
 25 26  1  0  0  0  0
 26 36  1  0  0  0  0
 26 27  1  0  0  0  0
 27 37  1  0  0  0  0
 28 27  2  0  0  0  0
 29 43  1  0  0  0  0
 29 22  1  0  0  0  0
 30 29  2  0  0  0  0
 33 23  1  0  0  0  0
 35 25  1  0  0  0  0
 38 47  1  0  0  0  0
 38 48  1  0  0  0  0
 39 51  1  0  0  0  0
 39 38  1  0  0  0  0
 39 40  1  0  0  0  0
 40 52  1  6  0  0  0
 40 41  1  0  0  0  0
 41 53  1  0  0  0  0
 41 55  1  0  0  0  0
 41 54  1  0  0  0  0
 42 56  1  6  0  0  0
 42 40  1  0  0  0  0
 42 43  1  0  0  0  0
 43 57  1  0  0  0  0
 44 42  1  0  0  0  0
 44 46  1  0  0  0  0
 45 44  2  0  0  0  0
 49 38  1  0  0  0  0
 50 39  1  0  0  0  0
M  END
$$$$
