IHN.pdb
 OpenBabel07022418413D

 52 52  0  0  1  0  0  0  0  0999 V2000
    1.9790   -2.0960    4.7300 C   0  0  0  0  0  0  0  0  0  0  0  0
    0.5440   -1.8640    4.4590 C   0  0  0  0  0  0  0  0  0  0  0  0
    0.1190   -0.4310    4.3970 C   0  0  2  0  0  0  0  0  0  0  0  0
   -1.3770   -0.3830    4.1130 C   0  0  0  0  0  0  0  0  0  0  0  0
    0.8860    0.4150    3.4530 C   0  0  2  0  0  0  0  0  0  0  0  0
    0.3190    1.7720    3.5430 N   0  0  0  0  0  0  0  0  0  0  0  0
    0.8230    0.0060    2.0500 C   0  0  0  0  0  0  0  0  0  0  0  0
    1.2530   -1.1240    1.7260 O   0  0  0  0  0  0  0  0  0  0  0  0
    2.4940   -1.2730    5.2600 H   0  0  0  0  0  0  0  0  0  0  0  0
    2.5170   -2.4020    3.8030 H   0  0  0  0  0  0  0  0  0  0  0  0
    2.0870   -2.9890    5.4150 H   0  0  0  0  0  0  0  0  0  0  0  0
   -0.0750   -2.4180    5.1960 H   0  0  0  0  0  0  0  0  0  0  0  0
    0.2950   -2.3480    3.4690 H   0  0  0  0  0  0  0  0  0  0  0  0
    0.2410   -0.0050    5.4180 H   0  0  0  0  0  0  0  0  0  0  0  0
   -1.8800    0.3810    4.7540 H   0  0  0  0  0  0  0  0  0  0  0  0
   -1.8240   -1.3610    4.4130 H   0  0  0  0  0  0  0  0  0  0  0  0
   -1.5920   -0.2500    3.0470 H   0  0  0  0  0  0  0  0  0  0  0  0
    1.9220    0.5180    3.8390 H   0  0  0  0  0  0  0  0  0  0  0  0
   -0.7080    1.7170    3.4990 H   0  0  0  0  0  0  0  0  0  0  0  0
    0.7150    2.2890    4.3340 H   0  0  0  0  0  0  0  0  0  0  0  0
    0.2900    0.8420    1.0320 N   0  0  0  0  0  0  0  0  0  0  0  0
    0.2150    0.4550   -0.3570 C   0  0  1  0  0  0  0  0  0  0  0  0
    1.5320    0.3890   -1.0510 C   0  0  0  0  0  0  0  0  0  0  0  0
    2.1540    1.7300   -0.9910 C   0  0  0  0  0  0  0  0  0  0  0  0
    2.0380    2.7720   -1.8880 C   0  0  0  0  0  0  0  0  0  0  0  0
    2.7590    3.8220   -1.4720 N   0  0  0  0  0  0  0  0  0  0  0  0
    3.3400    3.4710   -0.3170 C   0  0  0  0  0  0  0  0  0  0  0  0
    2.9660    2.1890   -0.0270 N   0  0  0  0  0  0  0  0  0  0  0  0
   -0.5740   -0.8100   -0.4580 C   0  0  0  0  0  0  0  0  0  0  0  0
   -1.0620   -1.3310    0.5700 O   0  0  0  0  0  0  0  0  0  0  0  0
   -0.0670    1.8030    1.3370 H   0  0  0  0  0  0  0  0  0  0  0  0
   -0.3810    1.2630   -0.8910 H   0  0  0  0  0  0  0  0  0  0  0  0
    1.3470    0.1470   -2.1110 H   0  0  0  0  0  0  0  0  0  0  0  0
    2.2250   -0.3630   -0.6340 H   0  0  0  0  0  0  0  0  0  0  0  0
    1.4500    2.7640   -2.8090 H   0  0  0  0  0  0  0  0  0  0  0  0
    2.8460    4.7280   -1.9570 H   0  0  0  0  0  0  0  0  0  0  0  0
    3.9970    4.0840    0.2970 H   0  0  0  0  0  0  0  0  0  0  0  0
   -4.8280   -3.7330   -2.1170 N   0  0  0  0  0  0  0  0  0  0  0  0
   -3.6870   -3.4590   -2.9020 C   0  0  0  0  0  0  0  0  0  0  0  0
   -3.3990   -4.2100   -3.8930 O   0  0  0  0  0  0  0  0  0  0  0  0
   -2.7750   -2.3330   -2.6530 C   0  0  0  0  0  0  0  0  0  0  0  0
   -1.5660   -2.7010   -1.8210 C   0  0  2  0  0  0  0  0  0  0  0  0
   -0.8040   -1.4690   -1.6910 N   0  0  0  0  0  0  0  0  0  0  0  0
   -0.7630   -3.7760   -2.4340 C   0  0  0  0  0  0  0  0  0  0  0  0
    0.4400   -3.5740   -2.7970 O   0  0  0  0  0  0  0  0  0  0  0  0
   -1.2550   -5.0510   -2.6510 O   0  0  0  0  0  0  0  0  0  0  0  0
   -4.9810   -3.2010   -1.2480 H   0  0  0  0  0  0  0  0  0  0  0  0
   -5.4930   -4.4650   -2.4310 H   0  0  0  0  0  0  0  0  0  0  0  0
   -3.3540   -1.5690   -2.0760 H   0  0  0  0  0  0  0  0  0  0  0  0
   -2.4570   -1.8250   -3.5930 H   0  0  0  0  0  0  0  0  0  0  0  0
   -1.9430   -3.0640   -0.8550 H   0  0  0  0  0  0  0  0  0  0  0  0
   -0.4000   -1.0410   -2.5500 H   0  0  0  0  0  0  0  0  0  0  0  0
  1  9  1  0  0  0  0
  1 11  1  0  0  0  0
  2  1  1  0  0  0  0
  2 12  1  0  0  0  0
  3  2  1  0  0  0  0
  3 14  1  1  0  0  0
  4  3  1  0  0  0  0
  4 16  1  0  0  0  0
  4 15  1  0  0  0  0
  5  6  1  0  0  0  0
  5 18  1  1  0  0  0
  5  3  1  0  0  0  0
  6 20  1  0  0  0  0
  7  5  1  0  0  0  0
  8  7  2  0  0  0  0
 10  1  1  0  0  0  0
 13  2  1  0  0  0  0
 17  4  1  0  0  0  0
 19  6  1  0  0  0  0
 21 31  1  0  0  0  0
 21  7  1  0  0  0  0
 22 32  1  6  0  0  0
 22 21  1  0  0  0  0
 23 24  1  0  0  0  0
 23 34  1  0  0  0  0
 23 22  1  0  0  0  0
 24 28  1  0  0  0  0
 25 26  1  0  0  0  0
 25 24  2  0  0  0  0
 26 27  1  0  0  0  0
 27 28  2  0  0  0  0
 27 37  1  0  0  0  0
 29 22  1  0  0  0  0
 29 30  2  0  0  0  0
 33 23  1  0  0  0  0
 35 25  1  0  0  0  0
 36 26  1  0  0  0  0
 38 47  1  0  0  0  0
 39 41  1  0  0  0  0
 39 38  1  0  0  0  0
 40 39  2  0  0  0  0
 41 49  1  0  0  0  0
 41 42  1  0  0  0  0
 42 43  1  0  0  0  0
 42 51  1  1  0  0  0
 43 29  1  0  0  0  0
 44 42  1  0  0  0  0
 45 44  2  0  0  0  0
 46 44  1  0  0  0  0
 48 38  1  0  0  0  0
 50 41  1  0  0  0  0
 52 43  1  0  0  0  0
M  END
$$$$
