IHP.pdb
 OpenBabel07022418413D

 52 53  0  0  1  0  0  0  0  0999 V2000
   -2.5120    3.0870    0.7400 C   0  0  0  0  0  0  0  0  0  0  0  0
   -1.4300    2.0210    1.0540 C   0  0  0  0  0  0  0  0  0  0  0  0
   -0.2600    2.3670    0.1950 C   0  0  2  0  0  0  0  0  0  0  0  0
   -0.6820    2.2960   -1.2620 C   0  0  0  0  0  0  0  0  0  0  0  0
    1.0450    1.7790    0.5110 C   0  0  2  0  0  0  0  0  0  0  0  0
    1.9860    2.3610   -0.5140 N   0  0  0  0  0  0  0  0  0  0  0  0
    1.2180    0.3570    0.5690 C   0  0  0  0  0  0  0  0  0  0  0  0
    2.1930   -0.1260   -0.1220 O   0  0  0  0  0  0  0  0  0  0  0  0
   -3.1160    2.7310   -0.1170 H   0  0  0  0  0  0  0  0  0  0  0  0
   -2.0310    4.0570    0.4940 H   0  0  0  0  0  0  0  0  0  0  0  0
   -3.1630    3.2440    1.6150 H   0  0  0  0  0  0  0  0  0  0  0  0
   -1.2270    2.0520    2.1290 H   0  0  0  0  0  0  0  0  0  0  0  0
   -1.8670    1.0730    0.7420 H   0  0  0  0  0  0  0  0  0  0  0  0
   -0.1830    3.5360    0.3420 H   0  0  0  0  0  0  0  0  0  0  0  0
   -1.0750    1.3390   -1.5840 H   0  0  0  0  0  0  0  0  0  0  0  0
   -1.5260    3.0330   -1.3790 H   0  0  0  0  0  0  0  0  0  0  0  0
    0.1250    2.6960   -1.9340 H   0  0  0  0  0  0  0  0  0  0  0  0
    1.4410    2.2970    1.4540 H   0  0  0  0  0  0  0  0  0  0  0  0
    1.9700    3.4140   -0.3770 H   0  0  0  0  0  0  0  0  0  0  0  0
    2.9590    2.0250   -0.2570 H   0  0  0  0  0  0  0  0  0  0  0  0
    0.4940   -0.6500    1.2820 N   0  0  0  0  0  0  0  0  0  0  0  0
    0.9090   -1.9920    1.2250 C   0  0  1  0  0  0  0  0  0  0  0  0
    1.2550   -2.5480    2.6180 C   0  0  0  0  0  0  0  0  0  0  0  0
    2.3460   -1.7810    3.2430 C   0  0  0  0  0  0  0  0  0  0  0  0
    3.6880   -1.9940    3.1540 C   0  0  0  0  0  0  0  0  0  0  0  0
    4.2940   -1.0500    3.8800 N   0  0  0  0  0  0  0  0  0  0  0  0
    3.3410   -0.2500    4.4210 C   0  0  0  0  0  0  0  0  0  0  0  0
    2.1530   -0.7130    4.0200 N   0  0  0  0  0  0  0  0  0  0  0  0
    0.0570   -2.9640    0.5780 C   0  0  0  0  0  0  0  0  0  0  0  0
    0.5610   -4.1960    0.6000 O   0  0  0  0  0  0  0  0  0  0  0  0
   -0.3170   -0.2970    1.8350 H   0  0  0  0  0  0  0  0  0  0  0  0
    1.9150   -2.0970    0.6870 H   0  0  0  0  0  0  0  0  0  0  0  0
    0.3390   -2.5880    3.2010 H   0  0  0  0  0  0  0  0  0  0  0  0
    1.6120   -3.5810    2.4440 H   0  0  0  0  0  0  0  0  0  0  0  0
    4.1970   -2.7660    2.6110 H   0  0  0  0  0  0  0  0  0  0  0  0
    5.3140   -0.8820    4.0550 H   0  0  0  0  0  0  0  0  0  0  0  0
    3.4690    0.6180    5.0650 H   0  0  0  0  0  0  0  0  0  0  0  0
   -1.2020   -2.8110   -0.0630 N   0  0  0  0  0  0  0  0  0  0  0  0
   -1.9100   -1.5980   -0.1220 C   0  0  0  0  0  0  0  0  0  0  0  0
   -3.1830   -1.8920   -0.8640 C   0  0  0  0  0  0  0  0  0  0  0  0
   -2.9920   -3.2270   -1.5110 C   0  0  0  0  0  0  0  0  0  0  0  0
   -1.8830   -3.8620   -0.7300 C   0  0  1  0  0  0  0  0  0  0  0  0
   -0.9580   -4.5960   -1.6570 C   0  0  0  0  0  0  0  0  0  0  0  0
    0.1900   -4.1880   -1.9060 O   0  0  0  0  0  0  0  0  0  0  0  0
   -1.4020   -5.7560   -2.2450 O   0  0  0  0  0  0  0  0  0  0  0  0
   -2.2290   -1.2490    0.9260 H   0  0  0  0  0  0  0  0  0  0  0  0
   -1.3330   -0.7670   -0.5940 H   0  0  0  0  0  0  0  0  0  0  0  0
   -3.2860   -1.0840   -1.6510 H   0  0  0  0  0  0  0  0  0  0  0  0
   -4.0780   -1.8700   -0.1900 H   0  0  0  0  0  0  0  0  0  0  0  0
   -3.9190   -3.8380   -1.5350 H   0  0  0  0  0  0  0  0  0  0  0  0
   -2.5900   -3.0690   -2.5490 H   0  0  0  0  0  0  0  0  0  0  0  0
   -2.3690   -4.5860   -0.0260 H   0  0  0  0  0  0  0  0  0  0  0  0
  1  2  1  0  0  0  0
  1 11  1  0  0  0  0
  2 12  1  0  0  0  0
  3 14  1  1  0  0  0
  3  5  1  0  0  0  0
  3  2  1  0  0  0  0
  4  3  1  0  0  0  0
  5  7  1  0  0  0  0
  5 18  1  1  0  0  0
  6 19  1  0  0  0  0
  6 20  1  0  0  0  0
  6  5  1  0  0  0  0
  7 21  1  0  0  0  0
  8  7  2  0  0  0  0
  9  1  1  0  0  0  0
 10  1  1  0  0  0  0
 13  2  1  0  0  0  0
 15  4  1  0  0  0  0
 16  4  1  0  0  0  0
 17  4  1  0  0  0  0
 21 31  1  0  0  0  0
 22 32  1  6  0  0  0
 22 21  1  0  0  0  0
 22 23  1  0  0  0  0
 23 33  1  0  0  0  0
 23 24  1  0  0  0  0
 24 28  1  0  0  0  0
 25 24  2  0  0  0  0
 25 26  1  0  0  0  0
 26 36  1  0  0  0  0
 26 27  1  0  0  0  0
 27 37  1  0  0  0  0
 28 27  2  0  0  0  0
 29 30  2  0  0  0  0
 29 22  1  0  0  0  0
 34 23  1  0  0  0  0
 35 25  1  0  0  0  0
 38 29  1  0  0  0  0
 39 38  1  0  0  0  0
 39 46  1  0  0  0  0
 40 49  1  0  0  0  0
 40 39  1  0  0  0  0
 41 40  1  0  0  0  0
 41 42  1  0  0  0  0
 42 38  1  0  0  0  0
 42 52  1  1  0  0  0
 43 42  1  0  0  0  0
 44 43  1  0  0  0  0
 45 43  2  0  0  0  0
 47 39  1  0  0  0  0
 48 40  1  0  0  0  0
 50 41  1  0  0  0  0
 51 41  1  0  0  0  0
M  END
$$$$
