IHV.pdb
 OpenBabel07022418413D

 54 54  0  0  1  0  0  0  0  0999 V2000
    1.4610   -3.9200    4.5540 C   0  0  0  0  0  0  0  0  0  0  0  0
    1.6660   -2.8730    3.4700 C   0  0  0  0  0  0  0  0  0  0  0  0
    1.4480   -1.5090    4.0650 C   0  0  2  0  0  0  0  0  0  0  0  0
    0.0660   -1.3400    4.6130 C   0  0  0  0  0  0  0  0  0  0  0  0
    1.9300   -0.4440    3.1500 C   0  0  2  0  0  0  0  0  0  0  0  0
    1.7340    0.8920    3.6970 N   0  0  0  0  0  0  0  0  0  0  0  0
    1.4160   -0.5180    1.7580 C   0  0  0  0  0  0  0  0  0  0  0  0
    1.5660   -1.5580    1.0710 O   0  0  0  0  0  0  0  0  0  0  0  0
    1.6550   -4.9120    4.1210 H   0  0  0  0  0  0  0  0  0  0  0  0
    2.1540   -3.6940    5.3730 H   0  0  0  0  0  0  0  0  0  0  0  0
    0.4080   -3.8700    4.9010 H   0  0  0  0  0  0  0  0  0  0  0  0
    2.6840   -2.9880    3.0580 H   0  0  0  0  0  0  0  0  0  0  0  0
    0.8730   -3.0160    2.6780 H   0  0  0  0  0  0  0  0  0  0  0  0
    2.1370   -1.4880    4.9750 H   0  0  0  0  0  0  0  0  0  0  0  0
   -0.6400   -1.8630    3.9240 H   0  0  0  0  0  0  0  0  0  0  0  0
   -0.0140   -1.8970    5.5890 H   0  0  0  0  0  0  0  0  0  0  0  0
   -0.2190   -0.3140    4.8220 H   0  0  0  0  0  0  0  0  0  0  0  0
    3.0540   -0.5610    3.0830 H   0  0  0  0  0  0  0  0  0  0  0  0
    2.3460    0.9800    4.5120 H   0  0  0  0  0  0  0  0  0  0  0  0
    0.7570    1.1620    3.8160 H   0  0  0  0  0  0  0  0  0  0  0  0
    0.7430    0.5920    1.1740 N   0  0  0  0  0  0  0  0  0  0  0  0
    0.2000    0.6250   -0.1600 C   0  0  1  0  0  0  0  0  0  0  0  0
    1.2140    0.8190   -1.2350 C   0  0  0  0  0  0  0  0  0  0  0  0
    1.9190    2.1140   -1.0170 C   0  0  0  0  0  0  0  0  0  0  0  0
    1.5200    3.3250   -1.5350 C   0  0  0  0  0  0  0  0  0  0  0  0
    2.3710    4.2940   -1.1520 N   0  0  0  0  0  0  0  0  0  0  0  0
    3.2870    3.6600   -0.3990 C   0  0  0  0  0  0  0  0  0  0  0  0
    3.0300    2.3490   -0.3080 N   0  0  0  0  0  0  0  0  0  0  0  0
   -0.6880   -0.5680   -0.4220 C   0  0  0  0  0  0  0  0  0  0  0  0
   -0.9220   -1.4210    0.4680 O   0  0  0  0  0  0  0  0  0  0  0  0
    0.6580    1.4320    1.8000 H   0  0  0  0  0  0  0  0  0  0  0  0
   -0.4770    1.5440   -0.2020 H   0  0  0  0  0  0  0  0  0  0  0  0
    1.9540    0.0160   -1.3190 H   0  0  0  0  0  0  0  0  0  0  0  0
    0.6880    0.8850   -2.2030 H   0  0  0  0  0  0  0  0  0  0  0  0
    0.6600    3.5180   -2.1600 H   0  0  0  0  0  0  0  0  0  0  0  0
    2.3630    5.3150   -1.3650 H   0  0  0  0  0  0  0  0  0  0  0  0
    4.1230    4.1910    0.0630 H   0  0  0  0  0  0  0  0  0  0  0  0
   -4.3710   -2.7470   -2.5190 C   0  0  0  0  0  0  0  0  0  0  0  0
   -3.5260   -1.5090   -2.3010 C   0  0  0  0  0  0  0  0  0  0  0  0
   -4.2070   -0.6620   -1.2760 C   0  0  0  0  0  0  0  0  0  0  0  0
   -2.1390   -1.9190   -1.9140 C   0  0  2  0  0  0  0  0  0  0  0  0
   -1.2870   -0.7570   -1.6930 N   0  0  0  0  0  0  0  0  0  0  0  0
   -1.5710   -2.7700   -2.9980 C   0  0  0  0  0  0  0  0  0  0  0  0
   -2.1360   -3.8310   -3.3630 O   0  0  0  0  0  0  0  0  0  0  0  0
   -0.3880   -2.4090   -3.6410 O   0  0  0  0  0  0  0  0  0  0  0  0
   -4.3450   -3.0960   -3.5710 H   0  0  0  0  0  0  0  0  0  0  0  0
   -3.9320   -3.5580   -1.8900 H   0  0  0  0  0  0  0  0  0  0  0  0
   -5.4070   -2.5620   -2.1750 H   0  0  0  0  0  0  0  0  0  0  0  0
   -3.4640   -0.9950   -3.2910 H   0  0  0  0  0  0  0  0  0  0  0  0
   -3.5050   -0.1000   -0.6290 H   0  0  0  0  0  0  0  0  0  0  0  0
   -4.8300   -1.2750   -0.5640 H   0  0  0  0  0  0  0  0  0  0  0  0
   -4.9070    0.0190   -1.7810 H   0  0  0  0  0  0  0  0  0  0  0  0
   -2.2100   -2.5400   -0.9990 H   0  0  0  0  0  0  0  0  0  0  0  0
   -1.0970   -0.0530   -2.4320 H   0  0  0  0  0  0  0  0  0  0  0  0
  1 11  1  0  0  0  0
  1 10  1  0  0  0  0
  2  3  1  0  0  0  0
  2  1  1  0  0  0  0
  3  4  1  0  0  0  0
  3 14  1  1  0  0  0
  4 17  1  0  0  0  0
  4 16  1  0  0  0  0
  5 18  1  6  0  0  0
  5  6  1  0  0  0  0
  5  3  1  0  0  0  0
  6 20  1  0  0  0  0
  6 19  1  0  0  0  0
  7  5  1  0  0  0  0
  8  7  2  0  0  0  0
  9  1  1  0  0  0  0
 12  2  1  0  0  0  0
 13  2  1  0  0  0  0
 15  4  1  0  0  0  0
 21  7  1  0  0  0  0
 21 31  1  0  0  0  0
 22 32  1  6  0  0  0
 22 21  1  0  0  0  0
 23 24  1  0  0  0  0
 23 22  1  0  0  0  0
 24 28  1  0  0  0  0
 25 26  1  0  0  0  0
 25 24  2  0  0  0  0
 26 27  1  0  0  0  0
 27 28  2  0  0  0  0
 27 37  1  0  0  0  0
 29 22  1  0  0  0  0
 29 30  2  0  0  0  0
 33 23  1  0  0  0  0
 34 23  1  0  0  0  0
 35 25  1  0  0  0  0
 36 26  1  0  0  0  0
 38 39  1  0  0  0  0
 38 48  1  0  0  0  0
 38 47  1  0  0  0  0
 39 41  1  0  0  0  0
 39 40  1  0  0  0  0
 40 50  1  0  0  0  0
 40 51  1  0  0  0  0
 41 42  1  0  0  0  0
 41 53  1  1  0  0  0
 42 29  1  0  0  0  0
 43 41  1  0  0  0  0
 44 43  1  0  0  0  0
 45 43  2  0  0  0  0
 46 38  1  0  0  0  0
 49 39  1  0  0  0  0
 52 40  1  0  0  0  0
 54 42  1  0  0  0  0
M  END
$$$$
