IHY.pdb
 OpenBabel07022418413D

 59 60  0  0  1  0  0  0  0  0999 V2000
    4.8990   -0.8230    2.6360 C   0  0  0  0  0  0  0  0  0  0  0  0
    3.7870    0.0530    2.0920 C   0  0  0  0  0  0  0  0  0  0  0  0
    3.3500    1.0940    3.0540 C   0  0  2  0  0  0  0  0  0  0  0  0
    2.8180    0.5300    4.3490 C   0  0  0  0  0  0  0  0  0  0  0  0
    2.4680    2.1740    2.4670 C   0  0  2  0  0  0  0  0  0  0  0  0
    2.1140    3.1360    3.5220 N   0  0  0  0  0  0  0  0  0  0  0  0
    1.2380    1.6750    1.8330 C   0  0  0  0  0  0  0  0  0  0  0  0
    0.1050    1.9260    2.3790 O   0  0  0  0  0  0  0  0  0  0  0  0
    4.4430   -1.7210    3.1240 H   0  0  0  0  0  0  0  0  0  0  0  0
    5.5420   -1.2180    1.8190 H   0  0  0  0  0  0  0  0  0  0  0  0
    5.5500   -0.3030    3.3440 H   0  0  0  0  0  0  0  0  0  0  0  0
    2.9180   -0.6060    1.8850 H   0  0  0  0  0  0  0  0  0  0  0  0
    4.1570    0.4520    1.1320 H   0  0  0  0  0  0  0  0  0  0  0  0
    4.2930    1.6470    3.3610 H   0  0  0  0  0  0  0  0  0  0  0  0
    2.6590    1.3950    5.0310 H   0  0  0  0  0  0  0  0  0  0  0  0
    3.6350   -0.0730    4.7950 H   0  0  0  0  0  0  0  0  0  0  0  0
    1.8780   -0.0080    4.2550 H   0  0  0  0  0  0  0  0  0  0  0  0
    3.0790    2.7340    1.7360 H   0  0  0  0  0  0  0  0  0  0  0  0
    2.9710    3.6430    3.7880 H   0  0  0  0  0  0  0  0  0  0  0  0
    1.3170    3.7250    3.2670 H   0  0  0  0  0  0  0  0  0  0  0  0
    1.1540    0.9220    0.6380 N   0  0  0  0  0  0  0  0  0  0  0  0
   -0.1450    0.4790    0.1040 C   0  0  1  0  0  0  0  0  0  0  0  0
   -0.4290    1.1820   -1.2120 C   0  0  0  0  0  0  0  0  0  0  0  0
    0.5760    0.9330   -2.2480 C   0  0  0  0  0  0  0  0  0  0  0  0
    0.5630   -0.0810   -3.1750 C   0  0  0  0  0  0  0  0  0  0  0  0
    1.6740    0.0590   -3.9390 N   0  0  0  0  0  0  0  0  0  0  0  0
    2.3690    1.1170   -3.5200 C   0  0  0  0  0  0  0  0  0  0  0  0
    1.6860    1.6560   -2.4720 N   0  0  0  0  0  0  0  0  0  0  0  0
   -0.0780   -0.9910   -0.0200 C   0  0  0  0  0  0  0  0  0  0  0  0
    0.9770   -1.6500    0.2590 O   0  0  0  0  0  0  0  0  0  0  0  0
    2.0270    0.6850    0.1240 H   0  0  0  0  0  0  0  0  0  0  0  0
   -0.9650    0.8210    0.7930 H   0  0  0  0  0  0  0  0  0  0  0  0
   -0.5640    2.2670   -1.0290 H   0  0  0  0  0  0  0  0  0  0  0  0
   -1.4530    0.8170   -1.5190 H   0  0  0  0  0  0  0  0  0  0  0  0
   -0.1830   -0.8480   -3.2840 H   0  0  0  0  0  0  0  0  0  0  0  0
    1.8850   -0.6060   -4.7230 H   0  0  0  0  0  0  0  0  0  0  0  0
    3.2860    1.4950   -3.9070 H   0  0  0  0  0  0  0  0  0  0  0  0
   -7.3980   -2.5110    0.1490 O   0  0  0  0  0  0  0  0  0  0  0  0
   -6.0450   -2.8510    0.2370 C   0  0  0  0  0  0  0  0  0  0  0  0
   -5.1920   -2.0700    1.0000 C   0  0  0  0  0  0  0  0  0  0  0  0
   -3.8480   -2.3550    1.1250 C   0  0  0  0  0  0  0  0  0  0  0  0
   -3.3820   -3.4640    0.4490 C   0  0  0  0  0  0  0  0  0  0  0  0
   -1.9600   -3.8390    0.5280 C   0  0  0  0  0  0  0  0  0  0  0  0
   -1.1360   -3.1790   -0.5730 C   0  0  2  0  0  0  0  0  0  0  0  0
   -1.2220   -1.7500   -0.4640 N   0  0  0  0  0  0  0  0  0  0  0  0
   -1.4980   -3.7090   -1.9020 C   0  0  0  0  0  0  0  0  0  0  0  0
   -1.4440   -4.9540   -2.1210 O   0  0  0  0  0  0  0  0  0  0  0  0
   -4.2310   -4.2430   -0.3120 C   0  0  0  0  0  0  0  0  0  0  0  0
   -5.5760   -3.9600   -0.4380 C   0  0  0  0  0  0  0  0  0  0  0  0
   -1.9100   -2.9350   -2.9770 O   0  0  0  0  0  0  0  0  0  0  0  0
   -7.7490   -2.2410   -0.7610 H   0  0  0  0  0  0  0  0  0  0  0  0
   -5.5690   -1.1860    1.5370 H   0  0  0  0  0  0  0  0  0  0  0  0
   -3.2000   -1.7250    1.7300 H   0  0  0  0  0  0  0  0  0  0  0  0
   -1.5360   -3.4980    1.4880 H   0  0  0  0  0  0  0  0  0  0  0  0
   -1.8690   -4.9380    0.3990 H   0  0  0  0  0  0  0  0  0  0  0  0
   -0.0910   -3.4790   -0.3560 H   0  0  0  0  0  0  0  0  0  0  0  0
   -2.0640   -1.1870   -0.6850 H   0  0  0  0  0  0  0  0  0  0  0  0
   -3.8820   -5.1230   -0.8530 H   0  0  0  0  0  0  0  0  0  0  0  0
   -6.2450   -4.5670   -1.0320 H   0  0  0  0  0  0  0  0  0  0  0  0
  1  9  1  0  0  0  0
  1 11  1  0  0  0  0
  2  1  1  0  0  0  0
  2  3  1  0  0  0  0
  3 14  1  1  0  0  0
  3  4  1  0  0  0  0
  4 16  1  0  0  0  0
  4 15  1  0  0  0  0
  5 18  1  6  0  0  0
  5  3  1  0  0  0  0
  5  6  1  0  0  0  0
  6 19  1  0  0  0  0
  7  8  2  0  0  0  0
  7  5  1  0  0  0  0
 10  1  1  0  0  0  0
 12  2  1  0  0  0  0
 13  2  1  0  0  0  0
 17  4  1  0  0  0  0
 20  6  1  0  0  0  0
 21  7  1  0  0  0  0
 22 21  1  0  0  0  0
 22 32  1  1  0  0  0
 23 33  1  0  0  0  0
 23 22  1  0  0  0  0
 24 23  1  0  0  0  0
 25 24  2  0  0  0  0
 26 27  1  0  0  0  0
 26 25  1  0  0  0  0
 27 28  2  0  0  0  0
 28 24  1  0  0  0  0
 29 22  1  0  0  0  0
 29 30  2  0  0  0  0
 31 21  1  0  0  0  0
 34 23  1  0  0  0  0
 35 25  1  0  0  0  0
 36 26  1  0  0  0  0
 37 27  1  0  0  0  0
 38 39  1  0  0  0  0
 39 40  1  0  0  0  0
 40 41  2  0  0  0  0
 40 52  1  0  0  0  0
 41 53  1  0  0  0  0
 42 43  1  0  0  0  0
 42 41  1  0  0  0  0
 43 54  1  0  0  0  0
 44 45  1  0  0  0  0
 44 56  1  1  0  0  0
 44 43  1  0  0  0  0
 45 29  1  0  0  0  0
 46 44  1  0  0  0  0
 47 46  1  0  0  0  0
 48 42  2  0  0  0  0
 49 48  1  0  0  0  0
 49 39  2  0  0  0  0
 50 46  2  0  0  0  0
 51 38  1  0  0  0  0
 55 43  1  0  0  0  0
 57 45  1  0  0  0  0
 58 48  1  0  0  0  0
 59 49  1  0  0  0  0
M  END
$$$$
