IID.pdb
 OpenBabel07022418413D

 53 52  0  0  1  0  0  0  0  0999 V2000
    3.2140   -4.3030    0.9660 C   0  0  0  0  0  0  0  0  0  0  0  0
    2.5050   -3.3780    0.0500 C   0  0  0  0  0  0  0  0  0  0  0  0
    3.2000   -2.0590   -0.1650 C   0  0  2  0  0  0  0  0  0  0  0  0
    4.5740   -2.2780   -0.7580 C   0  0  0  0  0  0  0  0  0  0  0  0
    3.2280   -1.1960    1.0620 C   0  0  2  0  0  0  0  0  0  0  0  0
    3.9060   -1.8080    2.1780 N   0  0  0  0  0  0  0  0  0  0  0  0
    1.8590   -0.8310    1.4360 C   0  0  0  0  0  0  0  0  0  0  0  0
    1.4270   -1.0740    2.5940 O   0  0  0  0  0  0  0  0  0  0  0  0
    3.0040   -5.3570    0.6200 H   0  0  0  0  0  0  0  0  0  0  0  0
    4.2980   -4.2090    1.0040 H   0  0  0  0  0  0  0  0  0  0  0  0
    2.7740   -4.2750    2.0050 H   0  0  0  0  0  0  0  0  0  0  0  0
    2.4000   -3.8470   -0.9640 H   0  0  0  0  0  0  0  0  0  0  0  0
    1.4690   -3.2260    0.4110 H   0  0  0  0  0  0  0  0  0  0  0  0
    2.6140   -1.5120   -0.9340 H   0  0  0  0  0  0  0  0  0  0  0  0
    5.2680   -2.7930   -0.0970 H   0  0  0  0  0  0  0  0  0  0  0  0
    4.9400   -1.2960   -1.1200 H   0  0  0  0  0  0  0  0  0  0  0  0
    4.4210   -2.9430   -1.6490 H   0  0  0  0  0  0  0  0  0  0  0  0
    3.7790   -0.2700    0.8020 H   0  0  0  0  0  0  0  0  0  0  0  0
    4.9390   -1.6770    2.1500 H   0  0  0  0  0  0  0  0  0  0  0  0
    3.5080   -1.3850    3.0690 H   0  0  0  0  0  0  0  0  0  0  0  0
    0.2760    2.3190    2.9590 C   0  0  0  0  0  0  0  0  0  0  0  0
    0.6310    2.3740    1.5000 C   0  0  0  0  0  0  0  0  0  0  0  0
   -0.3800    1.6780    0.6080 C   0  0  2  0  0  0  0  0  0  0  0  0
   -1.7290    2.2980    0.7470 C   0  0  0  0  0  0  0  0  0  0  0  0
   -0.3500    0.1800    0.8130 C   0  0  2  0  0  0  0  0  0  0  0  0
    1.0340   -0.2000    0.4660 N   0  0  0  0  0  0  0  0  0  0  0  0
   -1.2300   -0.5000   -0.1590 C   0  0  0  0  0  0  0  0  0  0  0  0
   -0.7340   -1.1910   -1.0960 O   0  0  0  0  0  0  0  0  0  0  0  0
   -0.3920    3.1830    3.1730 H   0  0  0  0  0  0  0  0  0  0  0  0
    1.2270    2.4410    3.5280 H   0  0  0  0  0  0  0  0  0  0  0  0
   -0.1960    1.3510    3.2150 H   0  0  0  0  0  0  0  0  0  0  0  0
    1.6200    1.8720    1.3480 H   0  0  0  0  0  0  0  0  0  0  0  0
    0.7570    3.4290    1.1970 H   0  0  0  0  0  0  0  0  0  0  0  0
   -0.0410    1.8470   -0.4480 H   0  0  0  0  0  0  0  0  0  0  0  0
   -1.5570    3.4030    0.8510 H   0  0  0  0  0  0  0  0  0  0  0  0
   -2.2550    2.0140    1.6820 H   0  0  0  0  0  0  0  0  0  0  0  0
   -2.3050    2.1810   -0.1730 H   0  0  0  0  0  0  0  0  0  0  0  0
   -0.5710   -0.1030    1.8530 H   0  0  0  0  0  0  0  0  0  0  0  0
    1.3450    0.0160   -0.4840 H   0  0  0  0  0  0  0  0  0  0  0  0
   -2.6510   -0.4520   -0.1420 N   0  0  0  0  0  0  0  0  0  0  0  0
   -3.4840   -1.1320   -1.1150 C   0  0  1  0  0  0  0  0  0  0  0  0
   -4.2460   -2.2230   -0.4380 C   0  0  0  0  0  0  0  0  0  0  0  0
   -5.1380   -1.7760    0.6440 C   0  0  0  0  0  0  0  0  0  0  0  0
   -5.7880   -2.6820    1.2460 O   0  0  0  0  0  0  0  0  0  0  0  0
   -4.3320   -0.2160   -1.8760 C   0  0  0  0  0  0  0  0  0  0  0  0
   -4.2980    1.0160   -1.6650 O   0  0  0  0  0  0  0  0  0  0  0  0
   -5.3350   -0.4860    1.0620 O   0  0  0  0  0  0  0  0  0  0  0  0
   -5.1870   -0.7010   -2.8450 O   0  0  0  0  0  0  0  0  0  0  0  0
   -3.1260    0.0860    0.5990 H   0  0  0  0  0  0  0  0  0  0  0  0
   -2.7670   -1.6510   -1.8180 H   0  0  0  0  0  0  0  0  0  0  0  0
   -3.5120   -2.9360   -0.0110 H   0  0  0  0  0  0  0  0  0  0  0  0
   -4.7920   -2.7920   -1.2270 H   0  0  0  0  0  0  0  0  0  0  0  0
   -5.8880   -0.2280    1.8790 H   0  0  0  0  0  0  0  0  0  0  0  0
  1 10  1  0  0  0  0
  1 11  1  0  0  0  0
  2 13  1  0  0  0  0
  2  1  1  0  0  0  0
  3 14  1  6  0  0  0
  3  2  1  0  0  0  0
  3  5  1  0  0  0  0
  4  3  1  0  0  0  0
  4 15  1  0  0  0  0
  5 18  1  6  0  0  0
  5  7  1  0  0  0  0
  5  6  1  0  0  0  0
  6 20  1  0  0  0  0
  7  8  2  0  0  0  0
  9  1  1  0  0  0  0
 12  2  1  0  0  0  0
 16  4  1  0  0  0  0
 17  4  1  0  0  0  0
 19  6  1  0  0  0  0
 21 29  1  0  0  0  0
 21 31  1  0  0  0  0
 21 30  1  0  0  0  0
 22 21  1  0  0  0  0
 23 34  1  6  0  0  0
 23 24  1  0  0  0  0
 23 25  1  0  0  0  0
 23 22  1  0  0  0  0
 24 35  1  0  0  0  0
 24 36  1  0  0  0  0
 25 38  1  1  0  0  0
 26 25  1  0  0  0  0
 26  7  1  0  0  0  0
 27 40  1  0  0  0  0
 27 25  1  0  0  0  0
 28 27  2  0  0  0  0
 32 22  1  0  0  0  0
 33 22  1  0  0  0  0
 37 24  1  0  0  0  0
 39 26  1  0  0  0  0
 40 49  1  0  0  0  0
 41 50  1  6  0  0  0
 41 42  1  0  0  0  0
 41 40  1  0  0  0  0
 42 51  1  0  0  0  0
 42 43  1  0  0  0  0
 43 47  1  0  0  0  0
 43 44  2  0  0  0  0
 45 46  1  0  0  0  0
 45 41  1  0  0  0  0
 47 53  1  0  0  0  0
 48 45  2  0  0  0  0
 52 42  1  0  0  0  0
M  END
$$$$
