IIE.pdb
 OpenBabel07022418413D

 56 55  0  0  1  0  0  0  0  0999 V2000
    2.1790    0.1690    5.6520 C   0  0  0  0  0  0  0  0  0  0  0  0
    1.3810    0.6420    4.4340 C   0  0  0  0  0  0  0  0  0  0  0  0
    0.3650   -0.4070    4.1370 C   0  0  2  0  0  0  0  0  0  0  0  0
    0.9280   -1.7590    3.8230 C   0  0  0  0  0  0  0  0  0  0  0  0
   -0.5630    0.0910    3.0410 C   0  0  2  0  0  0  0  0  0  0  0  0
   -1.5500   -0.9810    2.7790 N   0  0  0  0  0  0  0  0  0  0  0  0
    0.1650    0.4360    1.8110 C   0  0  0  0  0  0  0  0  0  0  0  0
    0.8800    1.4560    1.7590 O   0  0  0  0  0  0  0  0  0  0  0  0
    2.1730   -0.9420    5.6150 H   0  0  0  0  0  0  0  0  0  0  0  0
    1.6350    0.5230    6.5480 H   0  0  0  0  0  0  0  0  0  0  0  0
    3.2140    0.5740    5.6180 H   0  0  0  0  0  0  0  0  0  0  0  0
    0.8560    1.5920    4.6500 H   0  0  0  0  0  0  0  0  0  0  0  0
    2.0850    0.8350    3.5890 H   0  0  0  0  0  0  0  0  0  0  0  0
   -0.2500   -0.5300    5.0680 H   0  0  0  0  0  0  0  0  0  0  0  0
    0.9150   -2.4510    4.6790 H   0  0  0  0  0  0  0  0  0  0  0  0
    0.3730   -2.2580    2.9820 H   0  0  0  0  0  0  0  0  0  0  0  0
    2.0060   -1.6000    3.5490 H   0  0  0  0  0  0  0  0  0  0  0  0
   -1.1310    0.9300    3.4470 H   0  0  0  0  0  0  0  0  0  0  0  0
   -1.7710   -1.3630    3.7490 H   0  0  0  0  0  0  0  0  0  0  0  0
   -2.4420   -0.4950    2.4980 H   0  0  0  0  0  0  0  0  0  0  0  0
    2.8670   -2.9310   -1.9670 C   0  0  0  0  0  0  0  0  0  0  0  0
    1.7460   -2.2430   -1.2440 C   0  0  0  0  0  0  0  0  0  0  0  0
    2.0260   -0.7780   -0.9820 C   0  0  2  0  0  0  0  0  0  0  0  0
    3.2490   -0.5440   -0.1480 C   0  0  0  0  0  0  0  0  0  0  0  0
    0.8480    0.0280   -0.5760 C   0  0  2  0  0  0  0  0  0  0  0  0
    0.1470   -0.3070    0.6020 N   0  0  0  0  0  0  0  0  0  0  0  0
   -0.0340    0.1890   -1.7460 C   0  0  0  0  0  0  0  0  0  0  0  0
    0.4670    0.5120   -2.8430 O   0  0  0  0  0  0  0  0  0  0  0  0
    3.8700   -2.6540   -1.6240 H   0  0  0  0  0  0  0  0  0  0  0  0
    2.7530   -4.0290   -1.7620 H   0  0  0  0  0  0  0  0  0  0  0  0
    2.7610   -2.8260   -3.0560 H   0  0  0  0  0  0  0  0  0  0  0  0
    0.8630   -2.3620   -1.9370 H   0  0  0  0  0  0  0  0  0  0  0  0
    1.3930   -2.7780   -0.3350 H   0  0  0  0  0  0  0  0  0  0  0  0
    2.3030   -0.3790   -1.9890 H   0  0  0  0  0  0  0  0  0  0  0  0
    2.9860   -0.0850    0.8510 H   0  0  0  0  0  0  0  0  0  0  0  0
    3.9480    0.2360   -0.5850 H   0  0  0  0  0  0  0  0  0  0  0  0
    3.8800   -1.4300   -0.0010 H   0  0  0  0  0  0  0  0  0  0  0  0
    1.2850    1.0590   -0.3960 H   0  0  0  0  0  0  0  0  0  0  0  0
   -0.4360   -1.1700    0.5960 H   0  0  0  0  0  0  0  0  0  0  0  0
   -1.4320   -0.0110   -1.6760 N   0  0  0  0  0  0  0  0  0  0  0  0
   -2.3200    0.1340   -2.7950 C   0  0  1  0  0  0  0  0  0  0  0  0
   -2.8790   -1.1280   -3.3500 C   0  0  0  0  0  0  0  0  0  0  0  0
   -3.6930   -1.9110   -2.3840 C   0  0  0  0  0  0  0  0  0  0  0  0
   -2.9910   -2.3900   -1.1940 C   0  0  0  0  0  0  0  0  0  0  0  0
   -3.5490   -2.3070   -0.0720 O   0  0  0  0  0  0  0  0  0  0  0  0
   -3.4160    1.0730   -2.5560 C   0  0  0  0  0  0  0  0  0  0  0  0
   -3.5190    1.6640   -1.4650 O   0  0  0  0  0  0  0  0  0  0  0  0
   -1.7150   -2.9440   -1.2260 O   0  0  0  0  0  0  0  0  0  0  0  0
   -4.3480    1.3130   -3.5410 O   0  0  0  0  0  0  0  0  0  0  0  0
   -1.8820   -0.2690   -0.7500 H   0  0  0  0  0  0  0  0  0  0  0  0
   -1.6750    0.5780   -3.6200 H   0  0  0  0  0  0  0  0  0  0  0  0
   -3.5470   -0.9250   -4.2380 H   0  0  0  0  0  0  0  0  0  0  0  0
   -2.0610   -1.7680   -3.8020 H   0  0  0  0  0  0  0  0  0  0  0  0
   -4.5510   -1.2320   -2.0740 H   0  0  0  0  0  0  0  0  0  0  0  0
   -4.1880   -2.7900   -2.8910 H   0  0  0  0  0  0  0  0  0  0  0  0
   -1.4280   -3.5260   -0.4630 H   0  0  0  0  0  0  0  0  0  0  0  0
  1 10  1  0  0  0  0
  2 12  1  0  0  0  0
  2  1  1  0  0  0  0
  3  2  1  0  0  0  0
  3 14  1  1  0  0  0
  4  3  1  0  0  0  0
  4 15  1  0  0  0  0
  5 18  1  1  0  0  0
  5  3  1  0  0  0  0
  6  5  1  0  0  0  0
  6 19  1  0  0  0  0
  7  5  1  0  0  0  0
  8  7  2  0  0  0  0
  9  1  1  0  0  0  0
 11  1  1  0  0  0  0
 13  2  1  0  0  0  0
 16  4  1  0  0  0  0
 17  4  1  0  0  0  0
 20  6  1  0  0  0  0
 21 30  1  0  0  0  0
 21 29  1  0  0  0  0
 21 22  1  0  0  0  0
 22 23  1  0  0  0  0
 22 33  1  0  0  0  0
 23 34  1  6  0  0  0
 23 25  1  0  0  0  0
 23 24  1  0  0  0  0
 24 37  1  0  0  0  0
 24 35  1  0  0  0  0
 25 38  1  1  0  0  0
 25 26  1  0  0  0  0
 26  7  1  0  0  0  0
 27 40  1  0  0  0  0
 27 25  1  0  0  0  0
 28 27  2  0  0  0  0
 31 21  1  0  0  0  0
 32 22  1  0  0  0  0
 36 24  1  0  0  0  0
 39 26  1  0  0  0  0
 40 50  1  0  0  0  0
 41 51  1  6  0  0  0
 41 46  1  0  0  0  0
 41 40  1  0  0  0  0
 42 41  1  0  0  0  0
 42 43  1  0  0  0  0
 43 54  1  0  0  0  0
 43 44  1  0  0  0  0
 44 45  2  0  0  0  0
 46 47  1  0  0  0  0
 48 44  1  0  0  0  0
 48 56  1  0  0  0  0
 49 46  2  0  0  0  0
 52 42  1  0  0  0  0
 53 42  1  0  0  0  0
 55 43  1  0  0  0  0
M  END
$$$$
