IIG.pdb
 OpenBabel07022418413D

 47 46  0  0  1  0  0  0  0  0999 V2000
   -1.5060   -2.7020   -0.9120 C   0  0  0  0  0  0  0  0  0  0  0  0
   -0.5250   -3.8060   -1.1080 C   0  0  0  0  0  0  0  0  0  0  0  0
    0.8440   -3.5750   -0.5870 C   0  0  2  0  0  0  0  0  0  0  0  0
    1.6550   -4.8400   -0.9090 C   0  0  0  0  0  0  0  0  0  0  0  0
    0.9560   -3.3740    0.8890 C   0  0  2  0  0  0  0  0  0  0  0  0
    0.4800   -4.4870    1.6440 N   0  0  0  0  0  0  0  0  0  0  0  0
    0.3950   -2.1330    1.4180 C   0  0  0  0  0  0  0  0  0  0  0  0
   -0.3940   -2.2130    2.3960 O   0  0  0  0  0  0  0  0  0  0  0  0
   -1.8610   -2.5480    0.1040 H   0  0  0  0  0  0  0  0  0  0  0  0
   -2.4230   -2.9730   -1.5150 H   0  0  0  0  0  0  0  0  0  0  0  0
   -1.1040   -1.8030   -1.4170 H   0  0  0  0  0  0  0  0  0  0  0  0
   -0.9960   -4.7450   -0.7520 H   0  0  0  0  0  0  0  0  0  0  0  0
   -0.4210   -3.9520   -2.2240 H   0  0  0  0  0  0  0  0  0  0  0  0
    1.3200   -2.7630   -1.1330 H   0  0  0  0  0  0  0  0  0  0  0  0
    2.5030   -4.8890   -0.1950 H   0  0  0  0  0  0  0  0  0  0  0  0
    1.0050   -5.7050   -0.7000 H   0  0  0  0  0  0  0  0  0  0  0  0
    2.0080   -4.8120   -1.9620 H   0  0  0  0  0  0  0  0  0  0  0  0
    2.0700   -3.3270    1.1050 H   0  0  0  0  0  0  0  0  0  0  0  0
    0.0980   -5.2700    1.0880 H   0  0  0  0  0  0  0  0  0  0  0  0
   -0.0760   -4.2340    2.4790 H   0  0  0  0  0  0  0  0  0  0  0  0
    1.9010    2.8590    3.7380 C   0  0  0  0  0  0  0  0  0  0  0  0
    0.7030    2.3710    2.9030 C   0  0  0  0  0  0  0  0  0  0  0  0
    1.1450    1.1250    2.2080 C   0  0  2  0  0  0  0  0  0  0  0  0
    2.3080    1.4090    1.3180 C   0  0  0  0  0  0  0  0  0  0  0  0
    0.0290    0.3410    1.5520 C   0  0  2  0  0  0  0  0  0  0  0  0
    0.6620   -0.8420    0.9240 N   0  0  0  0  0  0  0  0  0  0  0  0
   -0.7450    1.0890    0.5600 C   0  0  0  0  0  0  0  0  0  0  0  0
   -0.6970    0.8090   -0.6930 O   0  0  0  0  0  0  0  0  0  0  0  0
    1.9150    3.9620    3.6800 H   0  0  0  0  0  0  0  0  0  0  0  0
    1.7760    2.5760    4.8050 H   0  0  0  0  0  0  0  0  0  0  0  0
    2.8420    2.4170    3.4000 H   0  0  0  0  0  0  0  0  0  0  0  0
   -0.1150    2.2350    3.6240 H   0  0  0  0  0  0  0  0  0  0  0  0
    0.4840    3.1600    2.1290 H   0  0  0  0  0  0  0  0  0  0  0  0
    1.5200    0.4390    3.0300 H   0  0  0  0  0  0  0  0  0  0  0  0
    2.5730    2.5020    1.3800 H   0  0  0  0  0  0  0  0  0  0  0  0
    3.2260    0.8770    1.6420 H   0  0  0  0  0  0  0  0  0  0  0  0
    2.1420    1.1140    0.2620 H   0  0  0  0  0  0  0  0  0  0  0  0
   -0.6210   -0.0420    2.3510 H   0  0  0  0  0  0  0  0  0  0  0  0
    1.3110   -0.7420    0.1140 H   0  0  0  0  0  0  0  0  0  0  0  0
   -1.5970    2.1630    0.9260 N   0  0  0  0  0  0  0  0  0  0  0  0
   -2.3470    2.8820   -0.0980 C   0  0  0  0  0  0  0  0  0  0  0  0
   -3.2590    1.9450   -0.8110 C   0  0  0  0  0  0  0  0  0  0  0  0
   -3.3140    0.7280   -0.5000 O   0  0  0  0  0  0  0  0  0  0  0  0
   -4.0770    2.3890   -1.8400 O   0  0  0  0  0  0  0  0  0  0  0  0
   -1.7310    2.4680    1.9130 H   0  0  0  0  0  0  0  0  0  0  0  0
   -1.6550    3.2950   -0.8610 H   0  0  0  0  0  0  0  0  0  0  0  0
   -2.9170    3.7110    0.3640 H   0  0  0  0  0  0  0  0  0  0  0  0
  1  9  1  0  0  0  0
  2  1  1  0  0  0  0
  2 12  1  0  0  0  0
  2  3  1  0  0  0  0
  3 14  1  6  0  0  0
  3  5  1  0  0  0  0
  4 16  1  0  0  0  0
  4  3  1  0  0  0  0
  4 15  1  0  0  0  0
  5 18  1  1  0  0  0
  5  7  1  0  0  0  0
  5  6  1  0  0  0  0
  6 20  1  0  0  0  0
  7  8  2  0  0  0  0
 10  1  1  0  0  0  0
 11  1  1  0  0  0  0
 13  2  1  0  0  0  0
 17  4  1  0  0  0  0
 19  6  1  0  0  0  0
 21 30  1  0  0  0  0
 22 32  1  0  0  0  0
 22 21  1  0  0  0  0
 23 22  1  0  0  0  0
 23 34  1  1  0  0  0
 24 35  1  0  0  0  0
 24 36  1  0  0  0  0
 24 23  1  0  0  0  0
 25 23  1  0  0  0  0
 25 38  1  1  0  0  0
 26  7  1  0  0  0  0
 26 25  1  0  0  0  0
 27 40  1  0  0  0  0
 27 25  1  0  0  0  0
 28 27  2  0  0  0  0
 29 21  1  0  0  0  0
 31 21  1  0  0  0  0
 33 22  1  0  0  0  0
 37 24  1  0  0  0  0
 39 26  1  0  0  0  0
 40 45  1  0  0  0  0
 41 47  1  0  0  0  0
 41 40  1  0  0  0  0
 42 43  1  0  0  0  0
 42 41  1  0  0  0  0
 44 42  2  0  0  0  0
 46 41  1  0  0  0  0
M  END
$$$$
