III.pdb
 OpenBabel07022418413D

 59 58  0  0  1  0  0  0  0  0999 V2000
    3.4890   -2.0820    4.3640 C   0  0  0  0  0  0  0  0  0  0  0  0
    4.0480   -1.2080    3.2910 C   0  0  0  0  0  0  0  0  0  0  0  0
    3.8870   -1.7830    1.9300 C   0  0  2  0  0  0  0  0  0  0  0  0
    4.4990   -0.8200    0.9490 C   0  0  0  0  0  0  0  0  0  0  0  0
    2.4670   -2.1220    1.6290 C   0  0  2  0  0  0  0  0  0  0  0  0
    2.3220   -2.7080    0.2960 N   0  0  0  0  0  0  0  0  0  0  0  0
    1.5130   -0.9820    1.7740 C   0  0  0  0  0  0  0  0  0  0  0  0
    1.3750   -0.2800    2.7990 O   0  0  0  0  0  0  0  0  0  0  0  0
    2.4320   -2.3130    4.2260 H   0  0  0  0  0  0  0  0  0  0  0  0
    4.0350   -3.0490    4.4420 H   0  0  0  0  0  0  0  0  0  0  0  0
    3.5870   -1.5490    5.3540 H   0  0  0  0  0  0  0  0  0  0  0  0
    3.5970   -0.1940    3.3330 H   0  0  0  0  0  0  0  0  0  0  0  0
    5.1720   -1.1280    3.4620 H   0  0  0  0  0  0  0  0  0  0  0  0
    4.4570   -2.7380    1.8870 H   0  0  0  0  0  0  0  0  0  0  0  0
    4.6170    0.1800    1.4130 H   0  0  0  0  0  0  0  0  0  0  0  0
    5.5370   -1.1580    0.7040 H   0  0  0  0  0  0  0  0  0  0  0  0
    3.9690   -0.6970    0.0140 H   0  0  0  0  0  0  0  0  0  0  0  0
    2.1510   -2.9150    2.3290 H   0  0  0  0  0  0  0  0  0  0  0  0
    2.6810   -3.6740    0.2670 H   0  0  0  0  0  0  0  0  0  0  0  0
    2.5820   -2.0970   -0.4740 H   0  0  0  0  0  0  0  0  0  0  0  0
    1.5920    2.8180    0.9840 C   0  0  0  0  0  0  0  0  0  0  0  0
    1.4650    1.9620   -0.2520 C   0  0  0  0  0  0  0  0  0  0  0  0
    0.0520    1.4290   -0.4020 C   0  0  2  0  0  0  0  0  0  0  0  0
   -0.9340    2.5420   -0.5140 C   0  0  0  0  0  0  0  0  0  0  0  0
   -0.2870    0.4650    0.7290 C   0  0  2  0  0  0  0  0  0  0  0  0
    0.6560   -0.6220    0.6630 N   0  0  0  0  0  0  0  0  0  0  0  0
   -1.6880   -0.0020    0.4570 C   0  0  0  0  0  0  0  0  0  0  0  0
   -2.6080    0.8220    0.4780 O   0  0  0  0  0  0  0  0  0  0  0  0
    1.9420    3.8410    0.7570 H   0  0  0  0  0  0  0  0  0  0  0  0
    2.2910    2.3550    1.7070 H   0  0  0  0  0  0  0  0  0  0  0  0
    0.6080    2.9170    1.5050 H   0  0  0  0  0  0  0  0  0  0  0  0
    2.1750    1.1190   -0.2410 H   0  0  0  0  0  0  0  0  0  0  0  0
    1.6650    2.5990   -1.1280 H   0  0  0  0  0  0  0  0  0  0  0  0
    0.0360    0.8320   -1.3420 H   0  0  0  0  0  0  0  0  0  0  0  0
   -0.4130    3.4180   -0.9850 H   0  0  0  0  0  0  0  0  0  0  0  0
   -1.3220    2.9100    0.4550 H   0  0  0  0  0  0  0  0  0  0  0  0
   -1.7580    2.2890   -1.2350 H   0  0  0  0  0  0  0  0  0  0  0  0
   -0.2540    0.9570    1.7110 H   0  0  0  0  0  0  0  0  0  0  0  0
    0.7720   -1.2080   -0.1900 H   0  0  0  0  0  0  0  0  0  0  0  0
   -3.9050   -0.3650   -2.6830 C   0  0  0  0  0  0  0  0  0  0  0  0
   -2.9000   -1.4550   -2.4700 C   0  0  0  0  0  0  0  0  0  0  0  0
   -3.2910   -2.4880   -1.4660 C   0  0  2  0  0  0  0  0  0  0  0  0
   -4.5680   -3.1990   -1.8350 C   0  0  0  0  0  0  0  0  0  0  0  0
   -3.3210   -1.8630   -0.0950 C   0  0  2  0  0  0  0  0  0  0  0  0
   -1.9750   -1.3630    0.1770 N   0  0  0  0  0  0  0  0  0  0  0  0
   -3.7510   -2.8250    0.9480 C   0  0  0  0  0  0  0  0  0  0  0  0
   -3.0150   -3.1330    1.9150 O   0  0  0  0  0  0  0  0  0  0  0  0
   -5.0010   -3.4100    0.8680 O   0  0  0  0  0  0  0  0  0  0  0  0
   -4.0760    0.1660   -1.7330 H   0  0  0  0  0  0  0  0  0  0  0  0
   -4.8450   -0.7250   -3.1470 H   0  0  0  0  0  0  0  0  0  0  0  0
   -3.4320    0.3750   -3.3760 H   0  0  0  0  0  0  0  0  0  0  0  0
   -2.5930   -1.9530   -3.4100 H   0  0  0  0  0  0  0  0  0  0  0  0
   -1.9720   -0.9520   -2.0670 H   0  0  0  0  0  0  0  0  0  0  0  0
   -2.4930   -3.2760   -1.4760 H   0  0  0  0  0  0  0  0  0  0  0  0
   -5.4700   -2.6200   -1.5610 H   0  0  0  0  0  0  0  0  0  0  0  0
   -4.5970   -4.1670   -1.3050 H   0  0  0  0  0  0  0  0  0  0  0  0
   -4.5120   -3.4220   -2.9180 H   0  0  0  0  0  0  0  0  0  0  0  0
   -4.0620   -1.0490   -0.1070 H   0  0  0  0  0  0  0  0  0  0  0  0
   -1.1470   -2.0060    0.1770 H   0  0  0  0  0  0  0  0  0  0  0  0
  1 10  1  0  0  0  0
  1 11  1  0  0  0  0
  2 12  1  0  0  0  0
  2 13  1  0  0  0  0
  2  1  1  0  0  0  0
  3 14  1  6  0  0  0
  3  2  1  0  0  0  0
  4 15  1  0  0  0  0
  4  3  1  0  0  0  0
  5  7  1  0  0  0  0
  5  3  1  0  0  0  0
  5 18  1  1  0  0  0
  6  5  1  0  0  0  0
  7  8  2  0  0  0  0
  9  1  1  0  0  0  0
 16  4  1  0  0  0  0
 17  4  1  0  0  0  0
 19  6  1  0  0  0  0
 20  6  1  0  0  0  0
 21 31  1  0  0  0  0
 21 30  1  0  0  0  0
 22 32  1  0  0  0  0
 22 21  1  0  0  0  0
 23 34  1  6  0  0  0
 23 22  1  0  0  0  0
 23 25  1  0  0  0  0
 24 23  1  0  0  0  0
 24 36  1  0  0  0  0
 25 38  1  1  0  0  0
 26 25  1  0  0  0  0
 26  7  1  0  0  0  0
 27 28  2  0  0  0  0
 27 25  1  0  0  0  0
 29 21  1  0  0  0  0
 33 22  1  0  0  0  0
 35 24  1  0  0  0  0
 37 24  1  0  0  0  0
 39 26  1  0  0  0  0
 40 41  1  0  0  0  0
 40 49  1  0  0  0  0
 41 53  1  0  0  0  0
 41 42  1  0  0  0  0
 42 54  1  1  0  0  0
 42 44  1  0  0  0  0
 43 55  1  0  0  0  0
 43 42  1  0  0  0  0
 43 56  1  0  0  0  0
 44 58  1  6  0  0  0
 44 45  1  0  0  0  0
 44 46  1  0  0  0  0
 45 59  1  0  0  0  0
 45 27  1  0  0  0  0
 46 47  1  0  0  0  0
 48 46  2  0  0  0  0
 50 40  1  0  0  0  0
 51 40  1  0  0  0  0
 52 41  1  0  0  0  0
 57 43  1  0  0  0  0
M  END
$$$$
