IIK.pdb
 OpenBabel07022418413D

 61 60  0  0  1  0  0  0  0  0999 V2000
    2.9760   -1.8950    4.7930 C   0  0  0  0  0  0  0  0  0  0  0  0
    3.1230   -2.1390    3.3240 C   0  0  0  0  0  0  0  0  0  0  0  0
    1.9450   -1.4820    2.5700 C   0  0  2  0  0  0  0  0  0  0  0  0
    2.1770   -1.8190    1.0880 C   0  0  0  0  0  0  0  0  0  0  0  0
    2.0110   -0.0050    2.7090 C   0  0  2  0  0  0  0  0  0  0  0  0
    2.0060    0.2650    4.1710 N   0  0  0  0  0  0  0  0  0  0  0  0
    0.8550    0.7280    2.1720 C   0  0  0  0  0  0  0  0  0  0  0  0
    0.1540    1.4050    3.0210 O   0  0  0  0  0  0  0  0  0  0  0  0
    3.3980   -2.8120    5.3220 H   0  0  0  0  0  0  0  0  0  0  0  0
    3.6140   -1.0610    5.1580 H   0  0  0  0  0  0  0  0  0  0  0  0
    1.9250   -1.8210    5.1470 H   0  0  0  0  0  0  0  0  0  0  0  0
    3.0850   -3.2100    3.0590 H   0  0  0  0  0  0  0  0  0  0  0  0
    4.0590   -1.6820    2.9340 H   0  0  0  0  0  0  0  0  0  0  0  0
    1.0210   -1.9330    2.9030 H   0  0  0  0  0  0  0  0  0  0  0  0
    1.2570   -2.0380    0.5610 H   0  0  0  0  0  0  0  0  0  0  0  0
    2.7840   -1.0600    0.6130 H   0  0  0  0  0  0  0  0  0  0  0  0
    2.8120   -2.7640    1.0330 H   0  0  0  0  0  0  0  0  0  0  0  0
    2.9320    0.4350    2.3330 H   0  0  0  0  0  0  0  0  0  0  0  0
    2.4770    1.1800    4.3570 H   0  0  0  0  0  0  0  0  0  0  0  0
    1.0130    0.3700    4.4750 H   0  0  0  0  0  0  0  0  0  0  0  0
    2.0450    2.7680   -0.4250 C   0  0  0  0  0  0  0  0  0  0  0  0
    0.6840    3.3380   -0.6760 C   0  0  0  0  0  0  0  0  0  0  0  0
   -0.4480    2.3740   -0.7630 C   0  0  2  0  0  0  0  0  0  0  0  0
   -1.7510    3.1630   -1.0620 C   0  0  0  0  0  0  0  0  0  0  0  0
   -0.6970    1.5610    0.4680 C   0  0  2  0  0  0  0  0  0  0  0  0
    0.4720    0.7450    0.8170 N   0  0  0  0  0  0  0  0  0  0  0  0
   -1.8780    0.6530    0.2720 C   0  0  0  0  0  0  0  0  0  0  0  0
   -2.9860    1.1670   -0.0730 O   0  0  0  0  0  0  0  0  0  0  0  0
    2.2400    1.8340   -0.9950 H   0  0  0  0  0  0  0  0  0  0  0  0
    2.2860    2.5870    0.6310 H   0  0  0  0  0  0  0  0  0  0  0  0
    2.8300    3.4890   -0.8600 H   0  0  0  0  0  0  0  0  0  0  0  0
    0.4860    4.1450    0.0930 H   0  0  0  0  0  0  0  0  0  0  0  0
    0.7660    3.9230   -1.6310 H   0  0  0  0  0  0  0  0  0  0  0  0
   -0.2790    1.7320   -1.6510 H   0  0  0  0  0  0  0  0  0  0  0  0
   -2.3560    2.5820   -1.7600 H   0  0  0  0  0  0  0  0  0  0  0  0
   -1.4680    4.1260   -1.5520 H   0  0  0  0  0  0  0  0  0  0  0  0
   -2.2760    3.3460   -0.1150 H   0  0  0  0  0  0  0  0  0  0  0  0
   -0.9560    2.2450    1.3120 H   0  0  0  0  0  0  0  0  0  0  0  0
    0.9670    0.2180    0.0800 H   0  0  0  0  0  0  0  0  0  0  0  0
   -1.7610   -0.7500    0.4700 N   0  0  0  0  0  0  0  0  0  0  0  0
   -2.9060   -1.5890    0.2710 C   0  0  1  0  0  0  0  0  0  0  0  0
   -2.7140   -2.6390   -0.7880 C   0  0  0  0  0  0  0  0  0  0  0  0
   -2.4110   -2.1050   -2.1350 C   0  0  0  0  0  0  0  0  0  0  0  0
   -2.2220   -3.0900   -3.2270 C   0  0  0  0  0  0  0  0  0  0  0  0
   -1.1330   -4.0790   -3.0840 C   0  0  0  0  0  0  0  0  0  0  0  0
   -1.2230   -4.9560   -1.9460 N   0  0  0  0  0  0  0  0  0  0  0  0
   -3.3270   -2.2980    1.5150 C   0  0  0  0  0  0  0  0  0  0  0  0
   -2.7530   -2.1780    2.6060 O   0  0  0  0  0  0  0  0  0  0  0  0
   -4.4220   -3.1300    1.4270 O   0  0  0  0  0  0  0  0  0  0  0  0
   -0.8250   -1.0920    0.7610 H   0  0  0  0  0  0  0  0  0  0  0  0
   -3.7630   -0.9550   -0.0250 H   0  0  0  0  0  0  0  0  0  0  0  0
   -1.8480   -3.2760   -0.4520 H   0  0  0  0  0  0  0  0  0  0  0  0
   -3.6010   -3.2990   -0.7690 H   0  0  0  0  0  0  0  0  0  0  0  0
   -3.3110   -1.4850   -2.4380 H   0  0  0  0  0  0  0  0  0  0  0  0
   -1.5870   -1.3390   -2.1310 H   0  0  0  0  0  0  0  0  0  0  0  0
   -3.1740   -3.6500   -3.4710 H   0  0  0  0  0  0  0  0  0  0  0  0
   -2.0400   -2.4990   -4.1740 H   0  0  0  0  0  0  0  0  0  0  0  0
   -0.1130   -3.6440   -3.0790 H   0  0  0  0  0  0  0  0  0  0  0  0
   -1.1410   -4.7560   -3.9880 H   0  0  0  0  0  0  0  0  0  0  0  0
   -0.2610   -5.2910   -1.6580 H   0  0  0  0  0  0  0  0  0  0  0  0
   -1.7790   -5.8190   -2.1410 H   0  0  0  0  0  0  0  0  0  0  0  0
  1 11  1  0  0  0  0
  1 10  1  0  0  0  0
  1  9  1  0  0  0  0
  2  1  1  0  0  0  0
  3  5  1  0  0  0  0
  3 14  1  1  0  0  0
  3  2  1  0  0  0  0
  4  3  1  0  0  0  0
  5 18  1  6  0  0  0
  5  6  1  0  0  0  0
  6 19  1  0  0  0  0
  6 20  1  0  0  0  0
  7  5  1  0  0  0  0
  7  8  2  0  0  0  0
 12  2  1  0  0  0  0
 13  2  1  0  0  0  0
 15  4  1  0  0  0  0
 16  4  1  0  0  0  0
 17  4  1  0  0  0  0
 21 30  1  0  0  0  0
 22 21  1  0  0  0  0
 22 32  1  0  0  0  0
 23 34  1  6  0  0  0
 23 22  1  0  0  0  0
 23 25  1  0  0  0  0
 24 23  1  0  0  0  0
 24 37  1  0  0  0  0
 25 26  1  0  0  0  0
 25 38  1  1  0  0  0
 26  7  1  0  0  0  0
 27 25  1  0  0  0  0
 27 40  1  0  0  0  0
 28 27  2  0  0  0  0
 29 21  1  0  0  0  0
 31 21  1  0  0  0  0
 33 22  1  0  0  0  0
 35 24  1  0  0  0  0
 36 24  1  0  0  0  0
 39 26  1  0  0  0  0
 40 50  1  0  0  0  0
 41 51  1  6  0  0  0
 41 40  1  0  0  0  0
 41 47  1  0  0  0  0
 42 53  1  0  0  0  0
 42 52  1  0  0  0  0
 42 41  1  0  0  0  0
 43 55  1  0  0  0  0
 43 42  1  0  0  0  0
 44 45  1  0  0  0  0
 44 43  1  0  0  0  0
 45 58  1  0  0  0  0
 45 46  1  0  0  0  0
 46 60  1  0  0  0  0
 47 48  1  0  0  0  0
 49 47  2  0  0  0  0
 54 43  1  0  0  0  0
 56 44  1  0  0  0  0
 57 44  1  0  0  0  0
 59 45  1  0  0  0  0
 61 46  1  0  0  0  0
M  END
$$$$
