IIP.pdb
 OpenBabel07022418413D

 54 54  0  0  1  0  0  0  0  0999 V2000
   -4.1450   -1.3910    4.8520 C   0  0  0  0  0  0  0  0  0  0  0  0
   -3.0560   -1.7420    3.8560 C   0  0  0  0  0  0  0  0  0  0  0  0
   -1.7020   -1.2870    4.3130 C   0  0  2  0  0  0  0  0  0  0  0  0
   -1.6120    0.1890    4.5170 C   0  0  0  0  0  0  0  0  0  0  0  0
   -0.6070   -1.8660    3.4750 C   0  0  2  0  0  0  0  0  0  0  0  0
    0.7010   -1.4130    3.9310 N   0  0  0  0  0  0  0  0  0  0  0  0
   -0.7000   -1.6310    2.0410 C   0  0  0  0  0  0  0  0  0  0  0  0
   -1.7230   -1.9670    1.4060 O   0  0  0  0  0  0  0  0  0  0  0  0
   -3.8330   -1.5640    5.9050 H   0  0  0  0  0  0  0  0  0  0  0  0
   -4.5300   -0.3600    4.6980 H   0  0  0  0  0  0  0  0  0  0  0  0
   -4.9980   -2.0700    4.6560 H   0  0  0  0  0  0  0  0  0  0  0  0
   -3.1110   -2.8340    3.6860 H   0  0  0  0  0  0  0  0  0  0  0  0
   -3.3660   -1.2580    2.8940 H   0  0  0  0  0  0  0  0  0  0  0  0
   -1.5650   -1.7440    5.3400 H   0  0  0  0  0  0  0  0  0  0  0  0
   -1.5340    0.7770    3.6070 H   0  0  0  0  0  0  0  0  0  0  0  0
   -0.8120    0.4440    5.2700 H   0  0  0  0  0  0  0  0  0  0  0  0
   -2.5680    0.5050    5.0220 H   0  0  0  0  0  0  0  0  0  0  0  0
   -0.6040   -2.9780    3.6880 H   0  0  0  0  0  0  0  0  0  0  0  0
    1.4740   -1.9020    3.4710 H   0  0  0  0  0  0  0  0  0  0  0  0
    0.7680   -0.3830    3.9840 H   0  0  0  0  0  0  0  0  0  0  0  0
    1.3170    2.9100    0.1670 C   0  0  0  0  0  0  0  0  0  0  0  0
    1.3390    1.4120    0.4100 C   0  0  0  0  0  0  0  0  0  0  0  0
    0.1270    0.7440   -0.2210 C   0  0  2  0  0  0  0  0  0  0  0  0
   -1.1720    1.2360    0.3120 C   0  0  0  0  0  0  0  0  0  0  0  0
    0.2460   -0.7870   -0.1460 C   0  0  2  0  0  0  0  0  0  0  0  0
    0.3400   -1.0230    1.3000 N   0  0  0  0  0  0  0  0  0  0  0  0
    1.4070   -1.2590   -0.8710 C   0  0  0  0  0  0  0  0  0  0  0  0
    2.3580   -1.6900   -0.0840 O   0  0  0  0  0  0  0  0  0  0  0  0
    2.3670    3.2550    0.2810 H   0  0  0  0  0  0  0  0  0  0  0  0
    0.6910    3.4560    0.8970 H   0  0  0  0  0  0  0  0  0  0  0  0
    0.9960    3.0700   -0.8740 H   0  0  0  0  0  0  0  0  0  0  0  0
    2.2720    1.0210   -0.0330 H   0  0  0  0  0  0  0  0  0  0  0  0
    1.3800    1.2950    1.5110 H   0  0  0  0  0  0  0  0  0  0  0  0
    0.1800    1.0140   -1.2950 H   0  0  0  0  0  0  0  0  0  0  0  0
   -1.1140    1.5470    1.3800 H   0  0  0  0  0  0  0  0  0  0  0  0
   -1.9580    0.4730    0.1640 H   0  0  0  0  0  0  0  0  0  0  0  0
   -1.4850    2.1400   -0.2790 H   0  0  0  0  0  0  0  0  0  0  0  0
   -0.7360   -1.1850   -0.4200 H   0  0  0  0  0  0  0  0  0  0  0  0
    1.2410   -0.7060    1.7320 H   0  0  0  0  0  0  0  0  0  0  0  0
    1.7030   -1.3390   -2.2310 N   0  0  0  0  0  0  0  0  0  0  0  0
    3.0790   -1.8240   -2.6410 C   0  0  0  0  0  0  0  0  0  0  0  0
    2.6760   -2.9350   -3.5740 C   0  0  0  0  0  0  0  0  0  0  0  0
    1.3470   -2.5270   -4.1540 C   0  0  0  0  0  0  0  0  0  0  0  0
    1.1450   -1.1190   -3.5010 C   0  0  1  0  0  0  0  0  0  0  0  0
   -0.1830   -0.6590   -3.7290 C   0  0  0  0  0  0  0  0  0  0  0  0
   -1.1030   -0.6030   -2.9220 O   0  0  0  0  0  0  0  0  0  0  0  0
   -0.5010   -0.2070   -5.0360 O   0  0  0  0  0  0  0  0  0  0  0  0
    3.5810   -0.9810   -3.1160 H   0  0  0  0  0  0  0  0  0  0  0  0
    3.6480   -2.1670   -1.7870 H   0  0  0  0  0  0  0  0  0  0  0  0
    2.5660   -3.8860   -3.0010 H   0  0  0  0  0  0  0  0  0  0  0  0
    3.4380   -3.1250   -4.3570 H   0  0  0  0  0  0  0  0  0  0  0  0
    1.3360   -2.4470   -5.2400 H   0  0  0  0  0  0  0  0  0  0  0  0
    0.5090   -3.1250   -3.7460 H   0  0  0  0  0  0  0  0  0  0  0  0
    1.8640   -0.4710   -4.1130 H   0  0  0  0  0  0  0  0  0  0  0  0
  1  9  1  0  0  0  0
  2  3  1  0  0  0  0
  2  1  1  0  0  0  0
  3  4  1  0  0  0  0
  3 14  1  1  0  0  0
  4 17  1  0  0  0  0
  4 16  1  0  0  0  0
  5 18  1  1  0  0  0
  5  6  1  0  0  0  0
  5  3  1  0  0  0  0
  6 20  1  0  0  0  0
  7  5  1  0  0  0  0
  8  7  2  0  0  0  0
 10  1  1  0  0  0  0
 11  1  1  0  0  0  0
 12  2  1  0  0  0  0
 13  2  1  0  0  0  0
 15  4  1  0  0  0  0
 19  6  1  0  0  0  0
 21 29  1  0  0  0  0
 21 22  1  0  0  0  0
 21 30  1  0  0  0  0
 22 33  1  0  0  0  0
 23 34  1  6  0  0  0
 23 25  1  0  0  0  0
 23 24  1  0  0  0  0
 23 22  1  0  0  0  0
 24 35  1  0  0  0  0
 25 38  1  6  0  0  0
 25 26  1  0  0  0  0
 26 39  1  0  0  0  0
 26  7  1  0  0  0  0
 27 25  1  0  0  0  0
 27 28  2  0  0  0  0
 31 21  1  0  0  0  0
 32 22  1  0  0  0  0
 36 24  1  0  0  0  0
 37 24  1  0  0  0  0
 40 27  1  0  0  0  0
 41 40  1  0  0  0  0
 41 49  1  0  0  0  0
 42 50  1  0  0  0  0
 42 41  1  0  0  0  0
 43 53  1  0  0  0  0
 43 42  1  0  0  0  0
 43 44  1  0  0  0  0
 44 54  1  6  0  0  0
 44 40  1  0  0  0  0
 45 44  1  0  0  0  0
 45 46  1  0  0  0  0
 47 45  2  0  0  0  0
 48 41  1  0  0  0  0
 51 42  1  0  0  0  0
 52 43  1  0  0  0  0
M  END
$$$$
