IIQ.pdb
 OpenBabel07022418413D

 57 56  0  0  1  0  0  0  0  0999 V2000
    2.3540   -3.3390    3.3290 C   0  0  0  0  0  0  0  0  0  0  0  0
    1.7510   -2.9470    2.0040 C   0  0  0  0  0  0  0  0  0  0  0  0
    2.6000   -1.9330    1.2500 C   0  0  2  0  0  0  0  0  0  0  0  0
    3.9700   -2.4980    0.9730 C   0  0  0  0  0  0  0  0  0  0  0  0
    2.6880   -0.6400    2.0610 C   0  0  2  0  0  0  0  0  0  0  0  0
    3.2880   -0.8730    3.3480 N   0  0  0  0  0  0  0  0  0  0  0  0
    1.3280   -0.0850    2.2780 C   0  0  0  0  0  0  0  0  0  0  0  0
    0.9010    0.0970    3.4540 O   0  0  0  0  0  0  0  0  0  0  0  0
    2.0270   -4.3690    3.5840 H   0  0  0  0  0  0  0  0  0  0  0  0
    3.4630   -3.2410    3.3500 H   0  0  0  0  0  0  0  0  0  0  0  0
    1.9450   -2.6740    4.1110 H   0  0  0  0  0  0  0  0  0  0  0  0
    1.6230   -3.8760    1.4220 H   0  0  0  0  0  0  0  0  0  0  0  0
    0.7400   -2.5520    2.2120 H   0  0  0  0  0  0  0  0  0  0  0  0
    2.1190   -1.7370    0.2710 H   0  0  0  0  0  0  0  0  0  0  0  0
    4.1100   -3.4990    1.4320 H   0  0  0  0  0  0  0  0  0  0  0  0
    4.7160   -1.7610    1.3930 H   0  0  0  0  0  0  0  0  0  0  0  0
    4.1530   -2.4950   -0.1110 H   0  0  0  0  0  0  0  0  0  0  0  0
    3.3090    0.0710    1.4610 H   0  0  0  0  0  0  0  0  0  0  0  0
    4.3310   -0.8520    3.3200 H   0  0  0  0  0  0  0  0  0  0  0  0
    2.8940   -0.2540    4.0900 H   0  0  0  0  0  0  0  0  0  0  0  0
    0.7470    2.3740   -1.0620 C   0  0  0  0  0  0  0  0  0  0  0  0
   -0.7250    2.3600   -0.7280 C   0  0  0  0  0  0  0  0  0  0  0  0
   -1.0020    2.1350    0.7170 C   0  0  2  0  0  0  0  0  0  0  0  0
   -0.3740    3.2020    1.5970 C   0  0  0  0  0  0  0  0  0  0  0  0
   -0.7830    0.7680    1.2430 C   0  0  2  0  0  0  0  0  0  0  0  0
    0.5330    0.2310    1.1400 N   0  0  0  0  0  0  0  0  0  0  0  0
   -1.8020   -0.1850    0.6710 C   0  0  0  0  0  0  0  0  0  0  0  0
   -3.0090    0.1220    0.6770 O   0  0  0  0  0  0  0  0  0  0  0  0
    1.3940    2.3550   -0.1460 H   0  0  0  0  0  0  0  0  0  0  0  0
    1.0090    1.4870   -1.6760 H   0  0  0  0  0  0  0  0  0  0  0  0
    1.0090    3.2540   -1.6940 H   0  0  0  0  0  0  0  0  0  0  0  0
   -1.1380    3.3500   -1.0850 H   0  0  0  0  0  0  0  0  0  0  0  0
   -1.2130    1.6190   -1.3930 H   0  0  0  0  0  0  0  0  0  0  0  0
   -2.1230    2.3410    0.8280 H   0  0  0  0  0  0  0  0  0  0  0  0
    0.5980    2.8670    2.0140 H   0  0  0  0  0  0  0  0  0  0  0  0
   -1.0320    3.4320    2.4720 H   0  0  0  0  0  0  0  0  0  0  0  0
   -0.1980    4.1460    1.0740 H   0  0  0  0  0  0  0  0  0  0  0  0
   -1.0280    0.7890    2.3520 H   0  0  0  0  0  0  0  0  0  0  0  0
    0.9460    0.0490    0.2100 H   0  0  0  0  0  0  0  0  0  0  0  0
   -3.4190    0.5220   -3.5930 N   0  0  0  0  0  0  0  0  0  0  0  0
   -3.3310   -0.7010   -2.8360 C   0  0  0  0  0  0  0  0  0  0  0  0
   -4.3960   -1.0270   -2.2500 O   0  0  0  0  0  0  0  0  0  0  0  0
   -2.0950   -1.4880   -2.7680 C   0  0  0  0  0  0  0  0  0  0  0  0
   -2.1750   -2.6810   -1.8570 C   0  0  0  0  0  0  0  0  0  0  0  0
   -2.4670   -2.3100   -0.4200 C   0  0  2  0  0  0  0  0  0  0  0  0
   -1.4310   -1.4370    0.1170 N   0  0  0  0  0  0  0  0  0  0  0  0
   -2.5210   -3.5270    0.4400 C   0  0  0  0  0  0  0  0  0  0  0  0
   -1.7520   -3.6490    1.4250 O   0  0  0  0  0  0  0  0  0  0  0  0
   -3.4070   -4.5640    0.2000 O   0  0  0  0  0  0  0  0  0  0  0  0
   -3.3460    0.5510   -4.6200 H   0  0  0  0  0  0  0  0  0  0  0  0
   -3.5630    1.4270   -3.0890 H   0  0  0  0  0  0  0  0  0  0  0  0
   -1.8670   -1.8120   -3.8160 H   0  0  0  0  0  0  0  0  0  0  0  0
   -1.2030   -0.8470   -2.4970 H   0  0  0  0  0  0  0  0  0  0  0  0
   -1.2990   -3.3450   -1.9430 H   0  0  0  0  0  0  0  0  0  0  0  0
   -3.0510   -3.3030   -2.1920 H   0  0  0  0  0  0  0  0  0  0  0  0
   -3.4640   -1.8420   -0.3100 H   0  0  0  0  0  0  0  0  0  0  0  0
   -0.4260   -1.7000    0.1080 H   0  0  0  0  0  0  0  0  0  0  0  0
  1 10  1  0  0  0  0
  1  9  1  0  0  0  0
  1 11  1  0  0  0  0
  2 13  1  0  0  0  0
  2  1  1  0  0  0  0
  3 14  1  6  0  0  0
  3  2  1  0  0  0  0
  3  5  1  0  0  0  0
  4  3  1  0  0  0  0
  4 16  1  0  0  0  0
  4 15  1  0  0  0  0
  5 18  1  6  0  0  0
  5  7  1  0  0  0  0
  5  6  1  0  0  0  0
  6 20  1  0  0  0  0
  7  8  2  0  0  0  0
 12  2  1  0  0  0  0
 17  4  1  0  0  0  0
 19  6  1  0  0  0  0
 21 22  1  0  0  0  0
 21 29  1  0  0  0  0
 22 23  1  0  0  0  0
 23 34  1  1  0  0  0
 23 25  1  0  0  0  0
 23 24  1  0  0  0  0
 24 35  1  0  0  0  0
 24 36  1  0  0  0  0
 25 38  1  1  0  0  0
 26 25  1  0  0  0  0
 26  7  1  0  0  0  0
 27 28  2  0  0  0  0
 27 25  1  0  0  0  0
 30 21  1  0  0  0  0
 31 21  1  0  0  0  0
 32 22  1  0  0  0  0
 33 22  1  0  0  0  0
 37 24  1  0  0  0  0
 39 26  1  0  0  0  0
 40 51  1  0  0  0  0
 40 41  1  0  0  0  0
 41 43  1  0  0  0  0
 41 42  2  0  0  0  0
 43 53  1  0  0  0  0
 43 44  1  0  0  0  0
 44 45  1  0  0  0  0
 45 56  1  1  0  0  0
 45 46  1  0  0  0  0
 45 47  1  0  0  0  0
 46 27  1  0  0  0  0
 47 48  1  0  0  0  0
 49 47  2  0  0  0  0
 50 40  1  0  0  0  0
 52 43  1  0  0  0  0
 54 44  1  0  0  0  0
 55 44  1  0  0  0  0
 57 46  1  0  0  0  0
M  END
$$$$
