IIR.pdb
 OpenBabel07022418413D

 63 62  0  0  1  0  0  0  0  0999 V2000
    3.1210    0.8270    5.9780 C   0  0  0  0  0  0  0  0  0  0  0  0
    3.7320   -0.1730    5.0260 C   0  0  0  0  0  0  0  0  0  0  0  0
    2.9570   -0.2960    3.7440 C   0  0  2  0  0  0  0  0  0  0  0  0
    3.6580   -1.3180    2.8760 C   0  0  0  0  0  0  0  0  0  0  0  0
    2.8940    0.9940    2.9730 C   0  0  2  0  0  0  0  0  0  0  0  0
    2.2700    2.0590    3.7030 N   0  0  0  0  0  0  0  0  0  0  0  0
    2.0760    0.7360    1.7310 C   0  0  0  0  0  0  0  0  0  0  0  0
    2.4650   -0.1710    0.9560 O   0  0  0  0  0  0  0  0  0  0  0  0
    3.5400    1.8300    5.7430 H   0  0  0  0  0  0  0  0  0  0  0  0
    3.4710    0.5840    7.0120 H   0  0  0  0  0  0  0  0  0  0  0  0
    2.0330    0.7980    5.9860 H   0  0  0  0  0  0  0  0  0  0  0  0
    4.7950    0.0760    4.8360 H   0  0  0  0  0  0  0  0  0  0  0  0
    3.7300   -1.1760    5.5080 H   0  0  0  0  0  0  0  0  0  0  0  0
    1.9460   -0.6840    3.9650 H   0  0  0  0  0  0  0  0  0  0  0  0
    4.2370   -1.9850    3.5460 H   0  0  0  0  0  0  0  0  0  0  0  0
    4.3840   -0.8460    2.1880 H   0  0  0  0  0  0  0  0  0  0  0  0
    2.9320   -1.9790    2.3540 H   0  0  0  0  0  0  0  0  0  0  0  0
    3.8890    1.3270    2.6400 H   0  0  0  0  0  0  0  0  0  0  0  0
    2.3250    2.9680    3.2050 H   0  0  0  0  0  0  0  0  0  0  0  0
    1.2820    1.8590    3.9700 H   0  0  0  0  0  0  0  0  0  0  0  0
    2.3110    3.3040   -2.0190 C   0  0  0  0  0  0  0  0  0  0  0  0
    1.4510    2.9300   -0.8510 C   0  0  0  0  0  0  0  0  0  0  0  0
    1.0010    1.4570   -0.9880 C   0  0  2  0  0  0  0  0  0  0  0  0
    0.2290    1.3430   -2.2640 C   0  0  0  0  0  0  0  0  0  0  0  0
    0.1240    1.2150    0.2150 C   0  0  2  0  0  0  0  0  0  0  0  0
    0.9230    1.4650    1.4300 N   0  0  0  0  0  0  0  0  0  0  0  0
   -0.4220   -0.1410    0.3320 C   0  0  0  0  0  0  0  0  0  0  0  0
   -0.0410   -0.8420    1.3380 O   0  0  0  0  0  0  0  0  0  0  0  0
    1.6320    3.7800   -2.7800 H   0  0  0  0  0  0  0  0  0  0  0  0
    3.0930    4.0260   -1.7060 H   0  0  0  0  0  0  0  0  0  0  0  0
    2.7230    2.3880   -2.4740 H   0  0  0  0  0  0  0  0  0  0  0  0
    1.9670    3.0070    0.1280 H   0  0  0  0  0  0  0  0  0  0  0  0
    0.5590    3.5840   -0.7840 H   0  0  0  0  0  0  0  0  0  0  0  0
    1.8880    0.8180   -1.0390 H   0  0  0  0  0  0  0  0  0  0  0  0
    0.7200    1.9750   -3.0730 H   0  0  0  0  0  0  0  0  0  0  0  0
    0.1880    0.2880   -2.6030 H   0  0  0  0  0  0  0  0  0  0  0  0
   -0.8120    1.7050   -2.1500 H   0  0  0  0  0  0  0  0  0  0  0  0
   -0.7020    1.9340    0.1580 H   0  0  0  0  0  0  0  0  0  0  0  0
    0.6050    2.2190    2.0820 H   0  0  0  0  0  0  0  0  0  0  0  0
   -5.6890   -4.0500   -4.2370 N   0  0  0  0  0  0  0  0  0  0  0  0
   -5.0030   -4.5830   -3.1010 C   0  0  0  0  0  0  0  0  0  0  0  0
   -4.6210   -5.8080   -3.0990 N   0  0  0  0  0  0  0  0  0  0  0  0
   -4.7580   -3.7340   -1.9860 N   0  0  0  0  0  0  0  0  0  0  0  0
   -4.3220   -4.2750   -0.7040 C   0  0  0  0  0  0  0  0  0  0  0  0
   -4.1510   -3.1670    0.2560 C   0  0  0  0  0  0  0  0  0  0  0  0
   -3.2580   -2.0780   -0.0630 C   0  0  0  0  0  0  0  0  0  0  0  0
   -1.7960   -2.1930   -0.2760 C   0  0  2  0  0  0  0  0  0  0  0  0
   -1.3180   -0.7720   -0.5250 N   0  0  0  0  0  0  0  0  0  0  0  0
   -1.3070   -2.9910   -1.4060 C   0  0  0  0  0  0  0  0  0  0  0  0
   -1.2930   -4.2230   -1.5350 O   0  0  0  0  0  0  0  0  0  0  0  0
   -0.7650   -2.3040   -2.5310 O   0  0  0  0  0  0  0  0  0  0  0  0
   -6.5470   -4.5000   -4.5670 H   0  0  0  0  0  0  0  0  0  0  0  0
   -5.2700   -3.2070   -4.6840 H   0  0  0  0  0  0  0  0  0  0  0  0
   -4.1200   -6.2510   -2.3060 H   0  0  0  0  0  0  0  0  0  0  0  0
   -4.9060   -2.7060   -2.1360 H   0  0  0  0  0  0  0  0  0  0  0  0
   -5.2250   -4.9250   -0.3410 H   0  0  0  0  0  0  0  0  0  0  0  0
   -3.5080   -4.9650   -0.8500 H   0  0  0  0  0  0  0  0  0  0  0  0
   -3.9860   -3.5730    1.3140 H   0  0  0  0  0  0  0  0  0  0  0  0
   -5.2110   -2.7260    0.3900 H   0  0  0  0  0  0  0  0  0  0  0  0
   -3.7350   -1.5220   -0.9660 H   0  0  0  0  0  0  0  0  0  0  0  0
   -3.4560   -1.2570    0.7410 H   0  0  0  0  0  0  0  0  0  0  0  0
   -1.3200   -2.5710    0.6480 H   0  0  0  0  0  0  0  0  0  0  0  0
   -1.7010   -0.3110   -1.3500 H   0  0  0  0  0  0  0  0  0  0  0  0
  1 11  1  0  0  0  0
  1 10  1  0  0  0  0
  2 13  1  0  0  0  0
  2  1  1  0  0  0  0
  3 14  1  1  0  0  0
  3  2  1  0  0  0  0
  4 15  1  0  0  0  0
  4  3  1  0  0  0  0
  5 18  1  6  0  0  0
  5  6  1  0  0  0  0
  5  3  1  0  0  0  0
  6 20  1  0  0  0  0
  7  5  1  0  0  0  0
  8  7  2  0  0  0  0
  9  1  1  0  0  0  0
 12  2  1  0  0  0  0
 16  4  1  0  0  0  0
 17  4  1  0  0  0  0
 19  6  1  0  0  0  0
 21 30  1  0  0  0  0
 21 22  1  0  0  0  0
 22 33  1  0  0  0  0
 22 32  1  0  0  0  0
 23 34  1  6  0  0  0
 23 22  1  0  0  0  0
 23 25  1  0  0  0  0
 24 37  1  0  0  0  0
 24 23  1  0  0  0  0
 25 38  1  6  0  0  0
 25 27  1  0  0  0  0
 25 26  1  0  0  0  0
 26  7  1  0  0  0  0
 26 39  1  0  0  0  0
 27 28  2  0  0  0  0
 29 21  1  0  0  0  0
 31 21  1  0  0  0  0
 35 24  1  0  0  0  0
 36 24  1  0  0  0  0
 40 41  1  0  0  0  0
 41 42  2  0  0  0  0
 41 43  1  0  0  0  0
 42 54  1  0  0  0  0
 43 44  1  0  0  0  0
 44 56  1  0  0  0  0
 44 45  1  0  0  0  0
 45 59  1  0  0  0  0
 45 58  1  0  0  0  0
 46 45  1  0  0  0  0
 46 61  1  0  0  0  0
 47 46  1  0  0  0  0
 47 62  1  1  0  0  0
 48 47  1  0  0  0  0
 48 27  1  0  0  0  0
 49 47  1  0  0  0  0
 50 49  1  0  0  0  0
 51 49  2  0  0  0  0
 52 40  1  0  0  0  0
 53 40  1  0  0  0  0
 55 43  1  0  0  0  0
 57 44  1  0  0  0  0
 60 46  1  0  0  0  0
 63 48  1  0  0  0  0
M  END
$$$$
