IIT.pdb
 OpenBabel07022418413D

 54 53  0  0  1  0  0  0  0  0999 V2000
   -4.5050    0.8940    1.3530 C   0  0  0  0  0  0  0  0  0  0  0  0
   -3.8100    0.4300    2.5940 C   0  0  0  0  0  0  0  0  0  0  0  0
   -2.2830    0.5520    2.4370 C   0  0  2  0  0  0  0  0  0  0  0  0
   -2.0360    2.0160    2.1880 C   0  0  0  0  0  0  0  0  0  0  0  0
   -1.9040   -0.3730    1.3490 C   0  0  2  0  0  0  0  0  0  0  0  0
   -2.3360   -1.7140    1.7780 N   0  0  0  0  0  0  0  0  0  0  0  0
   -0.4930   -0.4490    0.9870 C   0  0  0  0  0  0  0  0  0  0  0  0
    0.0870   -1.5770    1.1430 O   0  0  0  0  0  0  0  0  0  0  0  0
   -5.3240    1.6360    1.5910 H   0  0  0  0  0  0  0  0  0  0  0  0
   -3.8490    1.3300    0.5820 H   0  0  0  0  0  0  0  0  0  0  0  0
   -5.0540    0.0570    0.8330 H   0  0  0  0  0  0  0  0  0  0  0  0
   -3.9880   -0.6710    2.6830 H   0  0  0  0  0  0  0  0  0  0  0  0
   -4.1540    0.9740    3.4950 H   0  0  0  0  0  0  0  0  0  0  0  0
   -1.8180    0.2040    3.3780 H   0  0  0  0  0  0  0  0  0  0  0  0
   -2.6470    2.6520    2.9020 H   0  0  0  0  0  0  0  0  0  0  0  0
   -0.9890    2.2440    2.4680 H   0  0  0  0  0  0  0  0  0  0  0  0
   -2.2040    2.3490    1.1700 H   0  0  0  0  0  0  0  0  0  0  0  0
   -2.4670   -0.1420    0.4060 H   0  0  0  0  0  0  0  0  0  0  0  0
   -1.5460   -2.0420    2.4120 H   0  0  0  0  0  0  0  0  0  0  0  0
   -2.2780   -2.3230    0.9290 H   0  0  0  0  0  0  0  0  0  0  0  0
    1.5840    0.1510    3.3900 C   0  0  0  0  0  0  0  0  0  0  0  0
    2.6830   -0.1820    2.4300 C   0  0  0  0  0  0  0  0  0  0  0  0
    2.7110    0.5790    1.1690 C   0  0  2  0  0  0  0  0  0  0  0  0
    2.8460    2.0640    1.4810 C   0  0  0  0  0  0  0  0  0  0  0  0
    1.6840    0.3660    0.1520 C   0  0  2  0  0  0  0  0  0  0  0  0
    0.3190    0.5960    0.4760 N   0  0  0  0  0  0  0  0  0  0  0  0
    1.9110   -0.8170   -0.7610 C   0  0  0  0  0  0  0  0  0  0  0  0
    3.0660   -1.2850   -0.9330 O   0  0  0  0  0  0  0  0  0  0  0  0
    0.9210   -0.7340    3.6170 H   0  0  0  0  0  0  0  0  0  0  0  0
    0.9470    0.9760    3.0570 H   0  0  0  0  0  0  0  0  0  0  0  0
    1.9880    0.4330    4.4060 H   0  0  0  0  0  0  0  0  0  0  0  0
    2.6850   -1.2840    2.3120 H   0  0  0  0  0  0  0  0  0  0  0  0
    3.6600    0.0360    2.9580 H   0  0  0  0  0  0  0  0  0  0  0  0
    3.7070    0.3280    0.6760 H   0  0  0  0  0  0  0  0  0  0  0  0
    3.6390    2.1790    2.2640 H   0  0  0  0  0  0  0  0  0  0  0  0
    3.1980    2.6430    0.6010 H   0  0  0  0  0  0  0  0  0  0  0  0
    1.9130    2.4810    1.9250 H   0  0  0  0  0  0  0  0  0  0  0  0
    1.8990    1.2120   -0.6360 H   0  0  0  0  0  0  0  0  0  0  0  0
   -0.1470    1.5460    0.3490 H   0  0  0  0  0  0  0  0  0  0  0  0
    0.4380   -5.0410   -2.5600 C   0  0  0  0  0  0  0  0  0  0  0  0
    0.3770   -3.7830   -1.7690 C   0  0  1  0  0  0  0  0  0  0  0  0
    0.8550   -4.0910   -0.4800 O   0  0  0  0  0  0  0  0  0  0  0  0
    1.0890   -2.6060   -2.3500 C   0  0  2  0  0  0  0  0  0  0  0  0
    0.8670   -1.4500   -1.4650 N   0  0  0  0  0  0  0  0  0  0  0  0
    0.7650   -2.2850   -3.7370 C   0  0  0  0  0  0  0  0  0  0  0  0
    0.8970   -3.1030   -4.6760 O   0  0  0  0  0  0  0  0  0  0  0  0
    0.2770   -1.0130   -4.0970 O   0  0  0  0  0  0  0  0  0  0  0  0
    1.4100   -5.5910   -2.4450 H   0  0  0  0  0  0  0  0  0  0  0  0
   -0.3080   -5.7450   -2.0750 H   0  0  0  0  0  0  0  0  0  0  0  0
    0.0980   -4.9760   -3.6040 H   0  0  0  0  0  0  0  0  0  0  0  0
   -0.7040   -3.5320   -1.6170 H   0  0  0  0  0  0  0  0  0  0  0  0
    0.1190   -4.3690    0.1200 H   0  0  0  0  0  0  0  0  0  0  0  0
    2.1900   -2.8090   -2.2960 H   0  0  0  0  0  0  0  0  0  0  0  0
   -0.1130   -1.1150   -1.4110 H   0  0  0  0  0  0  0  0  0  0  0  0
  1  9  1  0  0  0  0
  1  2  1  0  0  0  0
  2 12  1  0  0  0  0
  2 13  1  0  0  0  0
  3  2  1  0  0  0  0
  3 14  1  1  0  0  0
  4  3  1  0  0  0  0
  4 16  1  0  0  0  0
  4 15  1  0  0  0  0
  5 18  1  6  0  0  0
  5  6  1  0  0  0  0
  5  3  1  0  0  0  0
  6 19  1  0  0  0  0
  7  8  2  0  0  0  0
  7  5  1  0  0  0  0
 10  1  1  0  0  0  0
 11  1  1  0  0  0  0
 17  4  1  0  0  0  0
 20  6  1  0  0  0  0
 21 29  1  0  0  0  0
 21 31  1  0  0  0  0
 22 33  1  0  0  0  0
 22 21  1  0  0  0  0
 23 34  1  6  0  0  0
 23 24  1  0  0  0  0
 23 22  1  0  0  0  0
 24 37  1  0  0  0  0
 24 35  1  0  0  0  0
 25 38  1  6  0  0  0
 25 26  1  0  0  0  0
 25 23  1  0  0  0  0
 26  7  1  0  0  0  0
 27 25  1  0  0  0  0
 28 27  2  0  0  0  0
 30 21  1  0  0  0  0
 32 22  1  0  0  0  0
 36 24  1  0  0  0  0
 39 26  1  0  0  0  0
 40 48  1  0  0  0  0
 40 49  1  0  0  0  0
 40 41  1  0  0  0  0
 41 51  1  1  0  0  0
 41 42  1  0  0  0  0
 42 52  1  0  0  0  0
 43 53  1  1  0  0  0
 43 41  1  0  0  0  0
 43 44  1  0  0  0  0
 44 54  1  0  0  0  0
 44 27  1  0  0  0  0
 45 43  1  0  0  0  0
 46 45  2  0  0  0  0
 47 45  1  0  0  0  0
 50 40  1  0  0  0  0
M  END
$$$$
