IKC.pdb
 OpenBabel07022418423D

 53 52  0  0  1  0  0  0  0  0999 V2000
   -3.7560   -0.9010    4.0160 C   0  0  0  0  0  0  0  0  0  0  0  0
   -2.3160   -0.6160    4.3760 C   0  0  0  0  0  0  0  0  0  0  0  0
   -1.5460   -0.0180    3.2170 C   0  0  2  0  0  0  0  0  0  0  0  0
   -2.1840    1.2840    2.7920 C   0  0  0  0  0  0  0  0  0  0  0  0
   -1.5830   -0.9760    2.0520 C   0  0  2  0  0  0  0  0  0  0  0  0
   -0.9860   -2.2510    2.3990 N   0  0  0  0  0  0  0  0  0  0  0  0
   -0.8410   -0.3480    0.8980 C   0  0  0  0  0  0  0  0  0  0  0  0
   -1.2290    0.7640    0.4550 O   0  0  0  0  0  0  0  0  0  0  0  0
   -4.3210   -1.0060    4.9710 H   0  0  0  0  0  0  0  0  0  0  0  0
   -4.1660   -0.0820    3.3970 H   0  0  0  0  0  0  0  0  0  0  0  0
   -3.8040   -1.8880    3.5110 H   0  0  0  0  0  0  0  0  0  0  0  0
   -1.8430   -1.5440    4.7520 H   0  0  0  0  0  0  0  0  0  0  0  0
   -2.3500    0.0960    5.2380 H   0  0  0  0  0  0  0  0  0  0  0  0
   -0.5230    0.1790    3.5570 H   0  0  0  0  0  0  0  0  0  0  0  0
   -2.6720    1.8010    3.6590 H   0  0  0  0  0  0  0  0  0  0  0  0
   -2.9290    1.1800    2.0040 H   0  0  0  0  0  0  0  0  0  0  0  0
   -1.4010    1.9860    2.4390 H   0  0  0  0  0  0  0  0  0  0  0  0
   -2.6200   -1.1380    1.7630 H   0  0  0  0  0  0  0  0  0  0  0  0
   -1.5720   -2.7180    3.1130 H   0  0  0  0  0  0  0  0  0  0  0  0
   -0.9270   -2.8880    1.5950 H   0  0  0  0  0  0  0  0  0  0  0  0
    0.2700   -0.9620    0.3000 N   0  0  0  0  0  0  0  0  0  0  0  0
    1.0050   -0.3990   -0.7990 C   0  0  1  0  0  0  0  0  0  0  0  0
    2.4750   -0.2770   -0.4800 C   0  0  0  0  0  0  0  0  0  0  0  0
    2.7320    0.6000    0.7030 C   0  0  0  0  0  0  0  0  0  0  0  0
    2.2350    1.9950    0.4840 C   0  0  0  0  0  0  0  0  0  0  0  0
    2.5250    2.8440    1.7260 C   0  0  0  0  0  0  0  0  0  0  0  0
    2.0420    4.1980    1.5130 N   0  0  0  0  0  0  0  0  0  0  0  0
    0.9220   -1.2480   -2.0220 C   0  0  0  0  0  0  0  0  0  0  0  0
    1.5390   -0.8290   -3.0350 O   0  0  0  0  0  0  0  0  0  0  0  0
    0.5850   -1.8840    0.6740 H   0  0  0  0  0  0  0  0  0  0  0  0
    0.6430    0.6000   -1.1020 H   0  0  0  0  0  0  0  0  0  0  0  0
    2.8660   -1.3000   -0.3660 H   0  0  0  0  0  0  0  0  0  0  0  0
    2.9380    0.2160   -1.3860 H   0  0  0  0  0  0  0  0  0  0  0  0
    2.2090    0.1460    1.5880 H   0  0  0  0  0  0  0  0  0  0  0  0
    3.8130    0.5760    0.9120 H   0  0  0  0  0  0  0  0  0  0  0  0
    2.7920    2.4810   -0.3460 H   0  0  0  0  0  0  0  0  0  0  0  0
    1.1710    2.0520    0.2200 H   0  0  0  0  0  0  0  0  0  0  0  0
    3.6180    2.9180    1.8790 H   0  0  0  0  0  0  0  0  0  0  0  0
    2.0940    2.3980    2.6270 H   0  0  0  0  0  0  0  0  0  0  0  0
    1.0100    4.1880    1.7180 H   0  0  0  0  0  0  0  0  0  0  0  0
    2.2510    4.5210    0.5540 H   0  0  0  0  0  0  0  0  0  0  0  0
    0.1950   -2.4670   -2.0680 N   0  0  0  0  0  0  0  0  0  0  0  0
    0.1450   -3.2480   -3.2650 C   0  0  1  0  0  0  0  0  0  0  0  0
    0.8330   -4.6000   -3.0930 C   0  0  0  0  0  0  0  0  0  0  0  0
    0.0720   -5.5850   -1.7980 S   0  0  0  0  0  0  0  0  0  0  0  0
   -1.2380   -3.5170   -3.7240 C   0  0  0  0  0  0  0  0  0  0  0  0
   -2.2230   -3.0780   -3.0860 O   0  0  0  0  0  0  0  0  0  0  0  0
   -1.4810   -4.2570   -4.8650 O   0  0  0  0  0  0  0  0  0  0  0  0
   -0.3020   -2.7580   -1.1720 H   0  0  0  0  0  0  0  0  0  0  0  0
    0.7410   -2.7250   -4.0450 H   0  0  0  0  0  0  0  0  0  0  0  0
    1.9200   -4.4890   -2.9750 H   0  0  0  0  0  0  0  0  0  0  0  0
    0.6750   -5.1380   -4.0620 H   0  0  0  0  0  0  0  0  0  0  0  0
    0.7240   -5.2860   -0.5830 H   0  0  0  0  0  0  0  0  0  0  0  0
  1  2  1  0  0  0  0
  1  9  1  0  0  0  0
  2 12  1  0  0  0  0
  2 13  1  0  0  0  0
  3 14  1  1  0  0  0
  3  2  1  0  0  0  0
  4  3  1  0  0  0  0
  4 15  1  0  0  0  0
  5 18  1  6  0  0  0
  5  6  1  0  0  0  0
  5  3  1  0  0  0  0
  6 19  1  0  0  0  0
  7  5  1  0  0  0  0
  8  7  2  0  0  0  0
 10  1  1  0  0  0  0
 11  1  1  0  0  0  0
 16  4  1  0  0  0  0
 17  4  1  0  0  0  0
 20  6  1  0  0  0  0
 21 30  1  0  0  0  0
 21  7  1  0  0  0  0
 22 31  1  6  0  0  0
 22 23  1  0  0  0  0
 22 21  1  0  0  0  0
 23 32  1  0  0  0  0
 23 24  1  0  0  0  0
 24 35  1  0  0  0  0
 24 34  1  0  0  0  0
 25 24  1  0  0  0  0
 25 26  1  0  0  0  0
 26 38  1  0  0  0  0
 26 39  1  0  0  0  0
 27 40  1  0  0  0  0
 27 26  1  0  0  0  0
 28 22  1  0  0  0  0
 29 28  2  0  0  0  0
 33 23  1  0  0  0  0
 36 25  1  0  0  0  0
 37 25  1  0  0  0  0
 41 27  1  0  0  0  0
 42 28  1  0  0  0  0
 42 49  1  0  0  0  0
 43 50  1  6  0  0  0
 43 44  1  0  0  0  0
 43 42  1  0  0  0  0
 44 51  1  0  0  0  0
 44 45  1  0  0  0  0
 45 53  1  0  0  0  0
 46 43  1  0  0  0  0
 46 47  1  0  0  0  0
 48 46  2  0  0  0  0
 52 44  1  0  0  0  0
M  END
$$$$
