IKD.pdb
 OpenBabel07022418423D

 55 54  0  0  1  0  0  0  0  0999 V2000
    3.2720   -2.6250    1.1420 C   0  0  0  0  0  0  0  0  0  0  0  0
    3.4590   -1.9460    2.4530 C   0  0  0  0  0  0  0  0  0  0  0  0
    2.2440   -1.4340    3.1290 C   0  0  2  0  0  0  0  0  0  0  0  0
    1.2160   -2.5420    3.3980 C   0  0  0  0  0  0  0  0  0  0  0  0
    1.6550   -0.1610    2.6650 C   0  0  2  0  0  0  0  0  0  0  0  0
    0.4670    0.1050    3.4870 N   0  0  0  0  0  0  0  0  0  0  0  0
    1.3360   -0.0350    1.2360 C   0  0  0  0  0  0  0  0  0  0  0  0
    2.2420   -0.0190    0.3540 O   0  0  0  0  0  0  0  0  0  0  0  0
    3.9140   -2.1320    0.3850 H   0  0  0  0  0  0  0  0  0  0  0  0
    3.6160   -3.6970    1.1770 H   0  0  0  0  0  0  0  0  0  0  0  0
    2.2510   -2.6770    0.7560 H   0  0  0  0  0  0  0  0  0  0  0  0
    4.0330   -2.6580    3.1210 H   0  0  0  0  0  0  0  0  0  0  0  0
    4.1720   -1.0770    2.3590 H   0  0  0  0  0  0  0  0  0  0  0  0
    2.6050   -1.2210    4.2210 H   0  0  0  0  0  0  0  0  0  0  0  0
    1.7660   -3.4610    3.6640 H   0  0  0  0  0  0  0  0  0  0  0  0
    0.6140   -2.6920    2.4830 H   0  0  0  0  0  0  0  0  0  0  0  0
    0.5920   -2.2930    4.2920 H   0  0  0  0  0  0  0  0  0  0  0  0
    2.3470    0.6960    2.9120 H   0  0  0  0  0  0  0  0  0  0  0  0
    0.0610    1.0350    3.2420 H   0  0  0  0  0  0  0  0  0  0  0  0
   -0.2110   -0.6740    3.3490 H   0  0  0  0  0  0  0  0  0  0  0  0
    0.0120    0.0770    0.7410 N   0  0  0  0  0  0  0  0  0  0  0  0
   -0.4560    0.2230   -0.5760 C   0  0  1  0  0  0  0  0  0  0  0  0
    0.4010    0.7300   -1.6440 C   0  0  0  0  0  0  0  0  0  0  0  0
    0.9150    2.1080   -1.5060 C   0  0  0  0  0  0  0  0  0  0  0  0
   -0.0010    3.2610   -1.5230 C   0  0  0  0  0  0  0  0  0  0  0  0
   -1.0670    3.4450   -0.5430 C   0  0  0  0  0  0  0  0  0  0  0  0
   -0.6730    3.4660    0.8480 N   0  0  0  0  0  0  0  0  0  0  0  0
   -1.1590   -1.0210   -1.0560 C   0  0  0  0  0  0  0  0  0  0  0  0
   -1.6380   -1.0620   -2.2220 O   0  0  0  0  0  0  0  0  0  0  0  0
   -0.7290    0.0390    1.5090 H   0  0  0  0  0  0  0  0  0  0  0  0
   -1.3000    0.9950   -0.4950 H   0  0  0  0  0  0  0  0  0  0  0  0
    1.1860    0.0050   -1.9950 H   0  0  0  0  0  0  0  0  0  0  0  0
   -0.2640    0.7690   -2.5810 H   0  0  0  0  0  0  0  0  0  0  0  0
    1.6380    2.2590   -0.6500 H   0  0  0  0  0  0  0  0  0  0  0  0
    1.6140    2.2870   -2.4190 H   0  0  0  0  0  0  0  0  0  0  0  0
    0.5880    4.2430   -1.6330 H   0  0  0  0  0  0  0  0  0  0  0  0
   -0.5100    3.2330   -2.5550 H   0  0  0  0  0  0  0  0  0  0  0  0
   -2.0450    2.9790   -0.6930 H   0  0  0  0  0  0  0  0  0  0  0  0
   -1.3810    4.5790   -0.6910 H   0  0  0  0  0  0  0  0  0  0  0  0
   -1.2120    2.8300    1.4460 H   0  0  0  0  0  0  0  0  0  0  0  0
    0.3490    3.4670    0.9930 H   0  0  0  0  0  0  0  0  0  0  0  0
   -1.3050   -2.1570   -0.2410 N   0  0  0  0  0  0  0  0  0  0  0  0
   -1.9720   -3.3690   -0.6640 C   0  0  1  0  0  0  0  0  0  0  0  0
   -3.4420   -3.0480   -0.8550 C   0  0  0  0  0  0  0  0  0  0  0  0
   -4.0650   -2.5660    0.3830 C   0  0  0  0  0  0  0  0  0  0  0  0
   -3.4680   -2.4280    1.4800 O   0  0  0  0  0  0  0  0  0  0  0  0
   -1.4190   -3.9180   -1.9090 C   0  0  0  0  0  0  0  0  0  0  0  0
   -0.4620   -3.3820   -2.5160 O   0  0  0  0  0  0  0  0  0  0  0  0
   -5.4120   -2.2350    0.3480 O   0  0  0  0  0  0  0  0  0  0  0  0
   -1.9660   -5.0710   -2.4450 O   0  0  0  0  0  0  0  0  0  0  0  0
   -0.9010   -2.1010    0.7240 H   0  0  0  0  0  0  0  0  0  0  0  0
   -1.9100   -4.1140    0.1800 H   0  0  0  0  0  0  0  0  0  0  0  0
   -3.9520   -3.9740   -1.1910 H   0  0  0  0  0  0  0  0  0  0  0  0
   -3.5260   -2.3010   -1.6650 H   0  0  0  0  0  0  0  0  0  0  0  0
   -5.9260   -2.0580    1.2130 H   0  0  0  0  0  0  0  0  0  0  0  0
  1 10  1  0  0  0  0
  1  2  1  0  0  0  0
  2 12  1  0  0  0  0
  2  3  1  0  0  0  0
  3  4  1  0  0  0  0
  3 14  1  1  0  0  0
  4 15  1  0  0  0  0
  4 17  1  0  0  0  0
  5 18  1  1  0  0  0
  5  3  1  0  0  0  0
  5  6  1  0  0  0  0
  7  5  1  0  0  0  0
  8  7  2  0  0  0  0
  9  1  1  0  0  0  0
 11  1  1  0  0  0  0
 13  2  1  0  0  0  0
 16  4  1  0  0  0  0
 19  6  1  0  0  0  0
 20  6  1  0  0  0  0
 21  7  1  0  0  0  0
 21 30  1  0  0  0  0
 22 31  1  1  0  0  0
 22 21  1  0  0  0  0
 23 24  1  0  0  0  0
 23 22  1  0  0  0  0
 24 34  1  0  0  0  0
 25 24  1  0  0  0  0
 25 26  1  0  0  0  0
 26 27  1  0  0  0  0
 27 41  1  0  0  0  0
 27 40  1  0  0  0  0
 28 22  1  0  0  0  0
 28 42  1  0  0  0  0
 29 28  2  0  0  0  0
 32 23  1  0  0  0  0
 33 23  1  0  0  0  0
 35 24  1  0  0  0  0
 36 25  1  0  0  0  0
 37 25  1  0  0  0  0
 38 26  1  0  0  0  0
 39 26  1  0  0  0  0
 42 51  1  0  0  0  0
 43 42  1  0  0  0  0
 43 52  1  1  0  0  0
 44 43  1  0  0  0  0
 44 45  1  0  0  0  0
 45 46  2  0  0  0  0
 47 43  1  0  0  0  0
 48 47  2  0  0  0  0
 49 45  1  0  0  0  0
 49 55  1  0  0  0  0
 50 47  1  0  0  0  0
 53 44  1  0  0  0  0
 54 44  1  0  0  0  0
M  END
$$$$
