IKF.pdb
 OpenBabel07022418423D

 62 62  0  0  1  0  0  0  0  0999 V2000
    0.3480    0.3220    5.2610 C   0  0  0  0  0  0  0  0  0  0  0  0
    0.3100    1.5460    4.3710 C   0  0  0  0  0  0  0  0  0  0  0  0
    1.5800    1.6880    3.5700 C   0  0  2  0  0  0  0  0  0  0  0  0
    1.5810    2.8820    2.6800 C   0  0  0  0  0  0  0  0  0  0  0  0
    1.9310    0.4670    2.7760 C   0  0  2  0  0  0  0  0  0  0  0  0
    3.1630    0.7500    2.0650 N   0  0  0  0  0  0  0  0  0  0  0  0
    0.9010    0.0680    1.8040 C   0  0  0  0  0  0  0  0  0  0  0  0
   -0.2760   -0.2340    2.1910 O   0  0  0  0  0  0  0  0  0  0  0  0
    1.3930   -0.1040    5.2890 H   0  0  0  0  0  0  0  0  0  0  0  0
   -0.3090   -0.4860    4.9290 H   0  0  0  0  0  0  0  0  0  0  0  0
    0.0610    0.5610    6.3090 H   0  0  0  0  0  0  0  0  0  0  0  0
   -0.5990    1.4750    3.7500 H   0  0  0  0  0  0  0  0  0  0  0  0
    0.2770    2.4280    5.0620 H   0  0  0  0  0  0  0  0  0  0  0  0
    2.4030    1.8300    4.3180 H   0  0  0  0  0  0  0  0  0  0  0  0
    2.2340    2.7450    1.7910 H   0  0  0  0  0  0  0  0  0  0  0  0
    1.9730    3.8060    3.1880 H   0  0  0  0  0  0  0  0  0  0  0  0
    0.5820    3.1520    2.2910 H   0  0  0  0  0  0  0  0  0  0  0  0
    2.1460   -0.4260    3.4180 H   0  0  0  0  0  0  0  0  0  0  0  0
    3.6380   -0.0950    1.7130 H   0  0  0  0  0  0  0  0  0  0  0  0
    3.7610    1.4050    2.5850 H   0  0  0  0  0  0  0  0  0  0  0  0
    1.1840    0.0070    0.4100 N   0  0  0  0  0  0  0  0  0  0  0  0
    0.2290   -0.3740   -0.6010 C   0  0  1  0  0  0  0  0  0  0  0  0
    0.0200    0.6810   -1.6400 C   0  0  0  0  0  0  0  0  0  0  0  0
   -0.4910    1.9830   -1.0810 C   0  0  0  0  0  0  0  0  0  0  0  0
   -1.8150    1.8550   -0.3870 C   0  0  0  0  0  0  0  0  0  0  0  0
   -2.2580    3.1940    0.1430 C   0  0  0  0  0  0  0  0  0  0  0  0
   -3.5260    3.1210    0.8170 N   0  0  0  0  0  0  0  0  0  0  0  0
    0.6000   -1.6770   -1.2380 C   0  0  0  0  0  0  0  0  0  0  0  0
    1.6320   -2.3010   -0.8810 O   0  0  0  0  0  0  0  0  0  0  0  0
    2.1810    0.2690    0.1450 H   0  0  0  0  0  0  0  0  0  0  0  0
   -0.7330   -0.5740   -0.0870 H   0  0  0  0  0  0  0  0  0  0  0  0
    0.9260    0.8800   -2.2310 H   0  0  0  0  0  0  0  0  0  0  0  0
   -0.7850    0.3050   -2.3310 H   0  0  0  0  0  0  0  0  0  0  0  0
    0.2380    2.4130   -0.3510 H   0  0  0  0  0  0  0  0  0  0  0  0
   -0.5300    2.7040   -1.9200 H   0  0  0  0  0  0  0  0  0  0  0  0
   -1.8520    1.0650    0.3610 H   0  0  0  0  0  0  0  0  0  0  0  0
   -2.5650    1.5640   -1.1810 H   0  0  0  0  0  0  0  0  0  0  0  0
   -2.3590    3.9090   -0.6980 H   0  0  0  0  0  0  0  0  0  0  0  0
   -1.4460    3.5780    0.8100 H   0  0  0  0  0  0  0  0  0  0  0  0
   -3.5890    3.8560    1.5690 H   0  0  0  0  0  0  0  0  0  0  0  0
   -3.5800    2.2000    1.3270 H   0  0  0  0  0  0  0  0  0  0  0  0
   -0.1930   -2.2540   -2.2630 N   0  0  0  0  0  0  0  0  0  0  0  0
    0.1510   -3.5220   -2.8960 C   0  0  1  0  0  0  0  0  0  0  0  0
   -1.0240   -4.4560   -2.6930 C   0  0  0  0  0  0  0  0  0  0  0  0
   -1.3100   -4.6850   -1.2630 C   0  0  0  0  0  0  0  0  0  0  0  0
   -0.7490   -5.6940   -0.5260 C   0  0  0  0  0  0  0  0  0  0  0  0
   -1.0630   -5.8460    0.8040 C   0  0  0  0  0  0  0  0  0  0  0  0
   -1.9590   -4.9770    1.4340 C   0  0  0  0  0  0  0  0  0  0  0  0
   -2.5240   -3.9660    0.7060 C   0  0  0  0  0  0  0  0  0  0  0  0
   -2.1960   -3.8310   -0.6270 C   0  0  0  0  0  0  0  0  0  0  0  0
    0.3710   -3.3630   -4.3460 C   0  0  0  0  0  0  0  0  0  0  0  0
    0.2520   -2.2350   -4.8620 O   0  0  0  0  0  0  0  0  0  0  0  0
    0.7060   -4.4430   -5.1280 O   0  0  0  0  0  0  0  0  0  0  0  0
   -1.0480   -1.7750   -2.5840 H   0  0  0  0  0  0  0  0  0  0  0  0
    1.0800   -3.9240   -2.4630 H   0  0  0  0  0  0  0  0  0  0  0  0
   -1.9370   -4.0350   -3.1590 H   0  0  0  0  0  0  0  0  0  0  0  0
   -0.8340   -5.4450   -3.1720 H   0  0  0  0  0  0  0  0  0  0  0  0
   -0.0650   -6.3700   -0.9730 H   0  0  0  0  0  0  0  0  0  0  0  0
   -0.6100   -6.6480    1.3680 H   0  0  0  0  0  0  0  0  0  0  0  0
   -2.1540   -5.1580    2.4690 H   0  0  0  0  0  0  0  0  0  0  0  0
   -3.2220   -3.2920    1.2010 H   0  0  0  0  0  0  0  0  0  0  0  0
   -2.6590   -3.0210   -1.1790 H   0  0  0  0  0  0  0  0  0  0  0  0
  1  9  1  0  0  0  0
  1 11  1  0  0  0  0
  2 13  1  0  0  0  0
  2  1  1  0  0  0  0
  3 14  1  1  0  0  0
  3  2  1  0  0  0  0
  4 16  1  0  0  0  0
  4  3  1  0  0  0  0
  5 18  1  1  0  0  0
  5  3  1  0  0  0  0
  6 20  1  0  0  0  0
  6  5  1  0  0  0  0
  7  8  2  0  0  0  0
  7  5  1  0  0  0  0
 10  1  1  0  0  0  0
 12  2  1  0  0  0  0
 15  4  1  0  0  0  0
 17  4  1  0  0  0  0
 19  6  1  0  0  0  0
 21  7  1  0  0  0  0
 22 31  1  1  0  0  0
 22 21  1  0  0  0  0
 23 24  1  0  0  0  0
 23 22  1  0  0  0  0
 24 25  1  0  0  0  0
 24 34  1  0  0  0  0
 25 26  1  0  0  0  0
 25 36  1  0  0  0  0
 26 39  1  0  0  0  0
 26 27  1  0  0  0  0
 27 41  1  0  0  0  0
 27 40  1  0  0  0  0
 28 29  2  0  0  0  0
 28 22  1  0  0  0  0
 30 21  1  0  0  0  0
 32 23  1  0  0  0  0
 33 23  1  0  0  0  0
 35 24  1  0  0  0  0
 37 25  1  0  0  0  0
 38 26  1  0  0  0  0
 42 28  1  0  0  0  0
 43 44  1  0  0  0  0
 43 55  1  1  0  0  0
 43 42  1  0  0  0  0
 44 45  1  0  0  0  0
 45 50  2  0  0  0  0
 45 46  1  0  0  0  0
 46 47  2  0  0  0  0
 47 59  1  0  0  0  0
 47 48  1  0  0  0  0
 48 60  1  0  0  0  0
 49 61  1  0  0  0  0
 49 48  2  0  0  0  0
 50 49  1  0  0  0  0
 51 43  1  0  0  0  0
 52 51  1  0  0  0  0
 53 51  2  0  0  0  0
 54 42  1  0  0  0  0
 56 44  1  0  0  0  0
 57 44  1  0  0  0  0
 58 46  1  0  0  0  0
 62 50  1  0  0  0  0
M  END
$$$$
