IKH.pdb
 OpenBabel07022418423D

 59 59  0  0  1  0  0  0  0  0999 V2000
    2.5160   -2.3770    3.7880 C   0  0  0  0  0  0  0  0  0  0  0  0
    2.7360   -1.8980    2.4030 C   0  0  0  0  0  0  0  0  0  0  0  0
    2.8970   -0.4180    2.2590 C   0  0  2  0  0  0  0  0  0  0  0  0
    4.0840    0.0770    3.0560 C   0  0  0  0  0  0  0  0  0  0  0  0
    1.6680    0.3660    2.6230 C   0  0  2  0  0  0  0  0  0  0  0  0
    1.2700    0.1490    3.9870 N   0  0  0  0  0  0  0  0  0  0  0  0
    0.5520    0.1750    1.6950 C   0  0  0  0  0  0  0  0  0  0  0  0
   -0.5800   -0.1430    2.1810 O   0  0  0  0  0  0  0  0  0  0  0  0
    2.6940   -1.6620    4.5860 H   0  0  0  0  0  0  0  0  0  0  0  0
    3.1020   -3.3110    4.0350 H   0  0  0  0  0  0  0  0  0  0  0  0
    1.4410   -2.7100    3.8780 H   0  0  0  0  0  0  0  0  0  0  0  0
    1.9280   -2.2490    1.7190 H   0  0  0  0  0  0  0  0  0  0  0  0
    3.6700   -2.3690    2.0170 H   0  0  0  0  0  0  0  0  0  0  0  0
    3.1260   -0.2110    1.1880 H   0  0  0  0  0  0  0  0  0  0  0  0
    4.1440    1.1960    2.9180 H   0  0  0  0  0  0  0  0  0  0  0  0
    5.0350   -0.3030    2.6050 H   0  0  0  0  0  0  0  0  0  0  0  0
    4.0270   -0.1880    4.1270 H   0  0  0  0  0  0  0  0  0  0  0  0
    1.9630    1.4540    2.5570 H   0  0  0  0  0  0  0  0  0  0  0  0
    1.8760    0.6390    4.6770 H   0  0  0  0  0  0  0  0  0  0  0  0
    0.2560    0.2860    4.1600 H   0  0  0  0  0  0  0  0  0  0  0  0
    0.6170    0.3140    0.3010 N   0  0  0  0  0  0  0  0  0  0  0  0
   -0.5540    0.1020   -0.5360 C   0  0  1  0  0  0  0  0  0  0  0  0
   -0.7240    1.1100   -1.6160 C   0  0  0  0  0  0  0  0  0  0  0  0
   -0.8700    2.5310   -1.3150 C   0  0  0  0  0  0  0  0  0  0  0  0
   -2.0150    3.0500   -0.5300 C   0  0  0  0  0  0  0  0  0  0  0  0
   -2.1720    2.6330    0.8770 C   0  0  0  0  0  0  0  0  0  0  0  0
   -1.0380    2.9910    1.7120 N   0  0  0  0  0  0  0  0  0  0  0  0
   -0.2620   -1.2620   -1.1950 C   0  0  0  0  0  0  0  0  0  0  0  0
    0.7860   -1.8930   -0.9480 O   0  0  0  0  0  0  0  0  0  0  0  0
    1.5380    0.5760   -0.1290 H   0  0  0  0  0  0  0  0  0  0  0  0
   -1.4890   -0.0130    0.0310 H   0  0  0  0  0  0  0  0  0  0  0  0
   -1.6110    0.7990   -2.2730 H   0  0  0  0  0  0  0  0  0  0  0  0
    0.1480    0.9650   -2.3500 H   0  0  0  0  0  0  0  0  0  0  0  0
   -0.7840    3.1030   -2.3080 H   0  0  0  0  0  0  0  0  0  0  0  0
    0.0540    2.9510   -0.7770 H   0  0  0  0  0  0  0  0  0  0  0  0
   -1.8620    4.1870   -0.4970 H   0  0  0  0  0  0  0  0  0  0  0  0
   -2.9830    2.9760   -1.1080 H   0  0  0  0  0  0  0  0  0  0  0  0
   -2.5060    1.6390    1.1110 H   0  0  0  0  0  0  0  0  0  0  0  0
   -3.0310    3.2980    1.2840 H   0  0  0  0  0  0  0  0  0  0  0  0
   -1.2710    2.7310    2.7050 H   0  0  0  0  0  0  0  0  0  0  0  0
   -0.8720    4.0190    1.7200 H   0  0  0  0  0  0  0  0  0  0  0  0
   -1.1930   -1.8230   -2.1010 N   0  0  0  0  0  0  0  0  0  0  0  0
   -0.9710   -3.1060   -2.7540 C   0  0  1  0  0  0  0  0  0  0  0  0
   -2.0780   -4.0310   -2.2790 C   0  0  0  0  0  0  0  0  0  0  0  0
   -2.0000   -4.1610   -0.8090 C   0  0  0  0  0  0  0  0  0  0  0  0
   -2.5970   -3.4150    0.1800 C   0  0  0  0  0  0  0  0  0  0  0  0
   -2.2310   -3.9100    1.3770 N   0  0  0  0  0  0  0  0  0  0  0  0
   -1.4180   -4.9510    1.1290 C   0  0  0  0  0  0  0  0  0  0  0  0
   -1.2720   -5.1110   -0.1840 N   0  0  0  0  0  0  0  0  0  0  0  0
   -0.9520   -2.9790   -4.2230 C   0  0  0  0  0  0  0  0  0  0  0  0
   -1.1170   -1.8580   -4.7440 O   0  0  0  0  0  0  0  0  0  0  0  0
   -0.7560   -4.0740   -5.0320 O   0  0  0  0  0  0  0  0  0  0  0  0
   -2.0650   -1.2900   -2.3030 H   0  0  0  0  0  0  0  0  0  0  0  0
   -0.0110   -3.5580   -2.4500 H   0  0  0  0  0  0  0  0  0  0  0  0
   -3.0820   -3.6200   -2.5160 H   0  0  0  0  0  0  0  0  0  0  0  0
   -1.9010   -5.0050   -2.7810 H   0  0  0  0  0  0  0  0  0  0  0  0
   -3.2530   -2.5660   -0.0300 H   0  0  0  0  0  0  0  0  0  0  0  0
   -2.5530   -3.5150    2.2770 H   0  0  0  0  0  0  0  0  0  0  0  0
   -0.9600   -5.5560    1.8810 H   0  0  0  0  0  0  0  0  0  0  0  0
  1 11  1  0  0  0  0
  1 10  1  0  0  0  0
  1  9  1  0  0  0  0
  2  1  1  0  0  0  0
  3 14  1  6  0  0  0
  3  2  1  0  0  0  0
  3  5  1  0  0  0  0
  3  4  1  0  0  0  0
  4 17  1  0  0  0  0
  5 18  1  6  0  0  0
  5  6  1  0  0  0  0
  6 20  1  0  0  0  0
  6 19  1  0  0  0  0
  7  8  2  0  0  0  0
  7  5  1  0  0  0  0
 12  2  1  0  0  0  0
 13  2  1  0  0  0  0
 15  4  1  0  0  0  0
 16  4  1  0  0  0  0
 21  7  1  0  0  0  0
 22 31  1  1  0  0  0
 22 21  1  0  0  0  0
 23 24  1  0  0  0  0
 23 22  1  0  0  0  0
 24 35  1  0  0  0  0
 24 25  1  0  0  0  0
 25 36  1  0  0  0  0
 25 26  1  0  0  0  0
 26 38  1  0  0  0  0
 26 39  1  0  0  0  0
 26 27  1  0  0  0  0
 27 41  1  0  0  0  0
 27 40  1  0  0  0  0
 28 29  2  0  0  0  0
 28 22  1  0  0  0  0
 30 21  1  0  0  0  0
 32 23  1  0  0  0  0
 33 23  1  0  0  0  0
 34 24  1  0  0  0  0
 37 25  1  0  0  0  0
 42 28  1  0  0  0  0
 43 54  1  1  0  0  0
 43 44  1  0  0  0  0
 43 42  1  0  0  0  0
 44 45  1  0  0  0  0
 45 49  1  0  0  0  0
 45 46  2  0  0  0  0
 46 47  1  0  0  0  0
 47 58  1  0  0  0  0
 48 47  1  0  0  0  0
 48 59  1  0  0  0  0
 49 48  2  0  0  0  0
 50 43  1  0  0  0  0
 51 50  1  0  0  0  0
 52 50  2  0  0  0  0
 53 42  1  0  0  0  0
 55 44  1  0  0  0  0
 56 44  1  0  0  0  0
 57 46  1  0  0  0  0
M  END
$$$$
