IKK.pdb
 OpenBabel07022418423D

 63 62  0  0  1  0  0  0  0  0999 V2000
    1.8680    1.2510    3.4010 C   0  0  0  0  0  0  0  0  0  0  0  0
    1.9620    0.0650    4.2900 C   0  0  0  0  0  0  0  0  0  0  0  0
    1.7370   -1.2600    3.6580 C   0  0  2  0  0  0  0  0  0  0  0  0
    1.8790   -2.3200    4.7470 C   0  0  0  0  0  0  0  0  0  0  0  0
    2.6030   -1.6150    2.5120 C   0  0  2  0  0  0  0  0  0  0  0  0
    4.0000   -1.6450    2.7900 N   0  0  0  0  0  0  0  0  0  0  0  0
    2.2690   -0.8020    1.2920 C   0  0  0  0  0  0  0  0  0  0  0  0
    3.1700   -0.1930    0.6680 O   0  0  0  0  0  0  0  0  0  0  0  0
    2.8150    1.4470    2.8400 H   0  0  0  0  0  0  0  0  0  0  0  0
    0.9680    1.2780    2.7840 H   0  0  0  0  0  0  0  0  0  0  0  0
    1.7800    2.1520    4.0800 H   0  0  0  0  0  0  0  0  0  0  0  0
    2.9150    0.1200    4.8680 H   0  0  0  0  0  0  0  0  0  0  0  0
    1.1600    0.1810    5.0780 H   0  0  0  0  0  0  0  0  0  0  0  0
    0.6700   -1.3040    3.3470 H   0  0  0  0  0  0  0  0  0  0  0  0
    1.4740   -1.8930    5.6800 H   0  0  0  0  0  0  0  0  0  0  0  0
    1.2360   -3.1920    4.4880 H   0  0  0  0  0  0  0  0  0  0  0  0
    2.9340   -2.5880    4.8710 H   0  0  0  0  0  0  0  0  0  0  0  0
    2.3230   -2.6690    2.2100 H   0  0  0  0  0  0  0  0  0  0  0  0
    4.2020   -1.1990    3.7200 H   0  0  0  0  0  0  0  0  0  0  0  0
    4.3980   -2.6240    2.8740 H   0  0  0  0  0  0  0  0  0  0  0  0
    0.9570   -0.7000    0.8150 N   0  0  0  0  0  0  0  0  0  0  0  0
    0.4150   -0.0070   -0.2620 C   0  0  1  0  0  0  0  0  0  0  0  0
    1.1220    1.0340   -1.0090 C   0  0  0  0  0  0  0  0  0  0  0  0
    1.4870    2.2700   -0.2580 C   0  0  0  0  0  0  0  0  0  0  0  0
    0.2610    3.0240    0.2800 C   0  0  0  0  0  0  0  0  0  0  0  0
   -0.6850    3.4400   -0.7940 C   0  0  0  0  0  0  0  0  0  0  0  0
   -0.0770    4.3200   -1.7720 N   0  0  0  0  0  0  0  0  0  0  0  0
   -0.3270   -0.8980   -1.2300 C   0  0  0  0  0  0  0  0  0  0  0  0
   -0.8570   -0.3730   -2.2400 O   0  0  0  0  0  0  0  0  0  0  0  0
    0.2440   -1.2690    1.3880 H   0  0  0  0  0  0  0  0  0  0  0  0
   -0.4610    0.6130    0.2300 H   0  0  0  0  0  0  0  0  0  0  0  0
    0.3890    1.4020   -1.8060 H   0  0  0  0  0  0  0  0  0  0  0  0
    1.9590    0.6640   -1.6520 H   0  0  0  0  0  0  0  0  0  0  0  0
    2.0790    2.9810   -0.8980 H   0  0  0  0  0  0  0  0  0  0  0  0
    2.0740    2.0470    0.6410 H   0  0  0  0  0  0  0  0  0  0  0  0
   -0.2550    2.3830    1.0040 H   0  0  0  0  0  0  0  0  0  0  0  0
    0.6070    3.9070    0.8800 H   0  0  0  0  0  0  0  0  0  0  0  0
   -1.4770    4.0520   -0.2950 H   0  0  0  0  0  0  0  0  0  0  0  0
   -1.1720    2.5830   -1.2600 H   0  0  0  0  0  0  0  0  0  0  0  0
    0.7350    3.8270   -2.1860 H   0  0  0  0  0  0  0  0  0  0  0  0
    0.1890    5.2150   -1.2970 H   0  0  0  0  0  0  0  0  0  0  0  0
   -0.4300   -2.2770   -1.0170 N   0  0  0  0  0  0  0  0  0  0  0  0
   -1.1060   -3.2290   -1.8240 C   0  0  1  0  0  0  0  0  0  0  0  0
   -2.2000   -2.6900   -2.7190 C   0  0  0  0  0  0  0  0  0  0  0  0
   -3.3540   -2.0660   -2.0420 C   0  0  0  0  0  0  0  0  0  0  0  0
   -4.1030   -3.0180   -1.1220 C   0  0  0  0  0  0  0  0  0  0  0  0
   -5.2790   -2.2520   -0.4950 C   0  0  0  0  0  0  0  0  0  0  0  0
   -4.7920   -1.1160    0.2680 N   0  0  0  0  0  0  0  0  0  0  0  0
   -0.2560   -4.1390   -2.6000 C   0  0  0  0  0  0  0  0  0  0  0  0
   -0.7590   -5.0160   -3.3440 O   0  0  0  0  0  0  0  0  0  0  0  0
    1.1270   -4.0630   -2.5400 O   0  0  0  0  0  0  0  0  0  0  0  0
    0.0720   -2.6260   -0.1320 H   0  0  0  0  0  0  0  0  0  0  0  0
   -1.7100   -3.8700   -1.0750 H   0  0  0  0  0  0  0  0  0  0  0  0
   -1.8340   -2.0360   -3.5260 H   0  0  0  0  0  0  0  0  0  0  0  0
   -2.5890   -3.6030   -3.2660 H   0  0  0  0  0  0  0  0  0  0  0  0
   -3.1950   -1.1320   -1.4940 H   0  0  0  0  0  0  0  0  0  0  0  0
   -4.1010   -1.8060   -2.8550 H   0  0  0  0  0  0  0  0  0  0  0  0
   -3.4450   -3.2790   -0.2710 H   0  0  0  0  0  0  0  0  0  0  0  0
   -4.5270   -3.8840   -1.6260 H   0  0  0  0  0  0  0  0  0  0  0  0
   -5.9650   -1.8690   -1.2620 H   0  0  0  0  0  0  0  0  0  0  0  0
   -5.7890   -2.9250    0.2270 H   0  0  0  0  0  0  0  0  0  0  0  0
   -4.3470   -1.4250    1.1550 H   0  0  0  0  0  0  0  0  0  0  0  0
   -5.5140   -0.3930    0.3780 H   0  0  0  0  0  0  0  0  0  0  0  0
  1 11  1  0  0  0  0
  1  2  1  0  0  0  0
  2 12  1  0  0  0  0
  2 13  1  0  0  0  0
  3 14  1  6  0  0  0
  3  2  1  0  0  0  0
  3  4  1  0  0  0  0
  4 17  1  0  0  0  0
  4 15  1  0  0  0  0
  5 18  1  6  0  0  0
  5  6  1  0  0  0  0
  5  3  1  0  0  0  0
  6 20  1  0  0  0  0
  6 19  1  0  0  0  0
  7  5  1  0  0  0  0
  8  7  2  0  0  0  0
  9  1  1  0  0  0  0
 10  1  1  0  0  0  0
 16  4  1  0  0  0  0
 21  7  1  0  0  0  0
 21 30  1  0  0  0  0
 22 31  1  1  0  0  0
 22 21  1  0  0  0  0
 23 22  1  0  0  0  0
 23 24  1  0  0  0  0
 24 25  1  0  0  0  0
 24 35  1  0  0  0  0
 25 37  1  0  0  0  0
 25 36  1  0  0  0  0
 26 38  1  0  0  0  0
 26 25  1  0  0  0  0
 27 41  1  0  0  0  0
 27 26  1  0  0  0  0
 28 42  1  0  0  0  0
 28 22  1  0  0  0  0
 29 28  2  0  0  0  0
 32 23  1  0  0  0  0
 33 23  1  0  0  0  0
 34 24  1  0  0  0  0
 39 26  1  0  0  0  0
 40 27  1  0  0  0  0
 42 52  1  0  0  0  0
 43 53  1  1  0  0  0
 43 42  1  0  0  0  0
 44 45  1  0  0  0  0
 44 43  1  0  0  0  0
 45 56  1  0  0  0  0
 45 46  1  0  0  0  0
 46 47  1  0  0  0  0
 46 58  1  0  0  0  0
 47 61  1  0  0  0  0
 47 48  1  0  0  0  0
 48 63  1  0  0  0  0
 48 62  1  0  0  0  0
 49 51  1  0  0  0  0
 49 43  1  0  0  0  0
 50 49  2  0  0  0  0
 54 44  1  0  0  0  0
 55 44  1  0  0  0  0
 57 45  1  0  0  0  0
 59 46  1  0  0  0  0
 60 47  1  0  0  0  0
M  END
$$$$
