IKL.pdb
 OpenBabel07022418423D

 61 60  0  0  1  0  0  0  0  0999 V2000
    2.2860   -4.6420    4.1830 C   0  0  0  0  0  0  0  0  0  0  0  0
    2.9700   -3.4280    3.6450 C   0  0  0  0  0  0  0  0  0  0  0  0
    1.9150   -2.4590    3.0160 C   0  0  2  0  0  0  0  0  0  0  0  0
    1.2190   -3.1880    1.9090 C   0  0  0  0  0  0  0  0  0  0  0  0
    2.7300   -1.2640    2.5760 C   0  0  2  0  0  0  0  0  0  0  0  0
    3.4000   -0.7770    3.8430 N   0  0  0  0  0  0  0  0  0  0  0  0
    1.9780   -0.1080    2.0890 C   0  0  0  0  0  0  0  0  0  0  0  0
    1.7640    0.8980    2.8550 O   0  0  0  0  0  0  0  0  0  0  0  0
    2.2960   -5.4310    3.4090 H   0  0  0  0  0  0  0  0  0  0  0  0
    2.8650   -5.0580    5.0560 H   0  0  0  0  0  0  0  0  0  0  0  0
    1.2520   -4.4200    4.5170 H   0  0  0  0  0  0  0  0  0  0  0  0
    3.7400   -3.6510    2.8810 H   0  0  0  0  0  0  0  0  0  0  0  0
    3.4390   -2.8550    4.4580 H   0  0  0  0  0  0  0  0  0  0  0  0
    1.2450   -2.2030    3.8560 H   0  0  0  0  0  0  0  0  0  0  0  0
    0.1230   -3.1200    1.9990 H   0  0  0  0  0  0  0  0  0  0  0  0
    1.4460   -4.2980    1.9400 H   0  0  0  0  0  0  0  0  0  0  0  0
    1.5150   -2.8880    0.8880 H   0  0  0  0  0  0  0  0  0  0  0  0
    3.5650   -1.5460    1.9120 H   0  0  0  0  0  0  0  0  0  0  0  0
    4.0500   -0.0290    3.4610 H   0  0  0  0  0  0  0  0  0  0  0  0
    2.6290   -0.2730    4.3410 H   0  0  0  0  0  0  0  0  0  0  0  0
    1.4590   -0.0030    0.7880 N   0  0  0  0  0  0  0  0  0  0  0  0
    0.7330    1.2850    0.4240 C   0  0  1  0  0  0  0  0  0  0  0  0
    1.4540    1.7090   -0.8080 C   0  0  0  0  0  0  0  0  0  0  0  0
    1.3100    2.9790   -1.4740 C   0  0  0  0  0  0  0  0  0  0  0  0
    0.0740    3.6630   -1.8290 C   0  0  0  0  0  0  0  0  0  0  0  0
   -0.6070    4.2700   -0.6150 C   0  0  0  0  0  0  0  0  0  0  0  0
   -1.8650    4.9050   -0.9300 N   0  0  0  0  0  0  0  0  0  0  0  0
   -0.6150    0.7320    0.0040 C   0  0  0  0  0  0  0  0  0  0  0  0
   -1.5490    1.4130   -0.4730 O   0  0  0  0  0  0  0  0  0  0  0  0
    1.5290   -0.6880    0.0450 H   0  0  0  0  0  0  0  0  0  0  0  0
    0.7010    1.9580    1.2500 H   0  0  0  0  0  0  0  0  0  0  0  0
    2.5860    1.5240   -0.6190 H   0  0  0  0  0  0  0  0  0  0  0  0
    1.2900    0.8810   -1.6130 H   0  0  0  0  0  0  0  0  0  0  0  0
    1.8890    2.8690   -2.4890 H   0  0  0  0  0  0  0  0  0  0  0  0
    2.0390    3.7690   -0.9960 H   0  0  0  0  0  0  0  0  0  0  0  0
    0.2440    4.5530   -2.5210 H   0  0  0  0  0  0  0  0  0  0  0  0
   -0.6460    3.0440   -2.4370 H   0  0  0  0  0  0  0  0  0  0  0  0
    0.0510    5.1770   -0.3000 H   0  0  0  0  0  0  0  0  0  0  0  0
   -0.6450    3.6480    0.2540 H   0  0  0  0  0  0  0  0  0  0  0  0
   -2.6700    4.4720   -0.3950 H   0  0  0  0  0  0  0  0  0  0  0  0
   -2.0360    4.7880   -1.9580 H   0  0  0  0  0  0  0  0  0  0  0  0
   -3.9990   -3.7970   -1.1520 C   0  0  0  0  0  0  0  0  0  0  0  0
   -3.0240   -3.0030   -1.9400 C   0  0  0  0  0  0  0  0  0  0  0  0
   -3.8420   -2.1440   -2.9060 C   0  0  0  0  0  0  0  0  0  0  0  0
   -1.9760   -2.2480   -1.2520 C   0  0  0  0  0  0  0  0  0  0  0  0
   -2.2860   -1.1590   -0.3060 C   0  0  2  0  0  0  0  0  0  0  0  0
   -0.9370   -0.6650    0.1270 N   0  0  0  0  0  0  0  0  0  0  0  0
   -2.9110   -1.6030    0.9540 C   0  0  0  0  0  0  0  0  0  0  0  0
   -4.1260   -1.9480    1.0560 O   0  0  0  0  0  0  0  0  0  0  0  0
   -2.2050   -1.6810    2.1650 O   0  0  0  0  0  0  0  0  0  0  0  0
   -3.5660   -4.1890   -0.2340 H   0  0  0  0  0  0  0  0  0  0  0  0
   -4.2700   -4.7230   -1.7810 H   0  0  0  0  0  0  0  0  0  0  0  0
   -5.0030   -3.3020   -1.0260 H   0  0  0  0  0  0  0  0  0  0  0  0
   -2.5010   -3.7400   -2.6370 H   0  0  0  0  0  0  0  0  0  0  0  0
   -4.6050   -1.5550   -2.3910 H   0  0  0  0  0  0  0  0  0  0  0  0
   -4.3560   -2.8660   -3.5770 H   0  0  0  0  0  0  0  0  0  0  0  0
   -3.1550   -1.5430   -3.5360 H   0  0  0  0  0  0  0  0  0  0  0  0
   -1.3400   -3.0150   -0.6810 H   0  0  0  0  0  0  0  0  0  0  0  0
   -1.2060   -1.8690   -2.0080 H   0  0  0  0  0  0  0  0  0  0  0  0
   -2.8730   -0.3300   -0.7130 H   0  0  0  0  0  0  0  0  0  0  0  0
   -0.2520   -1.3100    0.5080 H   0  0  0  0  0  0  0  0  0  0  0  0
  1 11  1  0  0  0  0
  1 10  1  0  0  0  0
  2  1  1  0  0  0  0
  2 13  1  0  0  0  0
  3  2  1  0  0  0  0
  3 14  1  1  0  0  0
  4 16  1  0  0  0  0
  4 15  1  0  0  0  0
  4  3  1  0  0  0  0
  5 18  1  6  0  0  0
  5  3  1  0  0  0  0
  5  6  1  0  0  0  0
  6 20  1  0  0  0  0
  7  5  1  0  0  0  0
  7  8  2  0  0  0  0
  9  1  1  0  0  0  0
 12  2  1  0  0  0  0
 17  4  1  0  0  0  0
 19  6  1  0  0  0  0
 21  7  1  0  0  0  0
 22 21  1  0  0  0  0
 22 31  1  1  0  0  0
 23 32  1  0  0  0  0
 23 22  1  0  0  0  0
 24 35  1  0  0  0  0
 24 23  1  0  0  0  0
 25 24  1  0  0  0  0
 25 26  1  0  0  0  0
 26 38  1  0  0  0  0
 26 39  1  0  0  0  0
 27 26  1  0  0  0  0
 27 40  1  0  0  0  0
 28 47  1  0  0  0  0
 28 22  1  0  0  0  0
 29 28  2  0  0  0  0
 30 21  1  0  0  0  0
 33 23  1  0  0  0  0
 34 24  1  0  0  0  0
 36 25  1  0  0  0  0
 37 25  1  0  0  0  0
 41 27  1  0  0  0  0
 42 53  1  0  0  0  0
 42 51  1  0  0  0  0
 43 45  1  0  0  0  0
 43 42  1  0  0  0  0
 44 55  1  0  0  0  0
 44 43  1  0  0  0  0
 45 58  1  0  0  0  0
 45 46  1  0  0  0  0
 46 60  1  6  0  0  0
 46 47  1  0  0  0  0
 46 48  1  0  0  0  0
 47 61  1  0  0  0  0
 48 49  2  0  0  0  0
 48 50  1  0  0  0  0
 52 42  1  0  0  0  0
 54 43  1  0  0  0  0
 56 44  1  0  0  0  0
 57 44  1  0  0  0  0
 59 45  1  0  0  0  0
M  END
$$$$
