IKM.pdb
 OpenBabel07022418423D

 59 58  0  0  1  0  0  0  0  0999 V2000
   -0.4760    3.3820    3.1600 C   0  0  0  0  0  0  0  0  0  0  0  0
    0.6490    3.0770    2.1970 C   0  0  0  0  0  0  0  0  0  0  0  0
    1.7210    2.2430    2.8400 C   0  0  2  0  0  0  0  0  0  0  0  0
    2.2770    3.0130    4.0170 C   0  0  0  0  0  0  0  0  0  0  0  0
    2.8390    1.8480    1.9510 C   0  0  2  0  0  0  0  0  0  0  0  0
    3.5310    2.9820    1.4070 N   0  0  0  0  0  0  0  0  0  0  0  0
    2.4890    0.9030    0.8850 C   0  0  0  0  0  0  0  0  0  0  0  0
    2.8430    1.1810   -0.2860 O   0  0  0  0  0  0  0  0  0  0  0  0
   -1.4360    3.1150    2.6800 H   0  0  0  0  0  0  0  0  0  0  0  0
   -0.4040    2.7390    4.0770 H   0  0  0  0  0  0  0  0  0  0  0  0
   -0.5360    4.4570    3.4260 H   0  0  0  0  0  0  0  0  0  0  0  0
    1.0230    4.0510    1.8280 H   0  0  0  0  0  0  0  0  0  0  0  0
    0.2100    2.5650    1.3180 H   0  0  0  0  0  0  0  0  0  0  0  0
    1.2290    1.3280    3.2630 H   0  0  0  0  0  0  0  0  0  0  0  0
    1.4680    3.5110    4.5920 H   0  0  0  0  0  0  0  0  0  0  0  0
    2.9340    3.8450    3.6360 H   0  0  0  0  0  0  0  0  0  0  0  0
    2.9150    2.3900    4.6670 H   0  0  0  0  0  0  0  0  0  0  0  0
    3.6130    1.3140    2.5890 H   0  0  0  0  0  0  0  0  0  0  0  0
    3.1530    3.3080    0.4870 H   0  0  0  0  0  0  0  0  0  0  0  0
    4.5620    2.9170    1.4480 H   0  0  0  0  0  0  0  0  0  0  0  0
    1.7780   -0.3140    1.0510 N   0  0  0  0  0  0  0  0  0  0  0  0
    1.4520   -1.2240   -0.0200 C   0  0  1  0  0  0  0  0  0  0  0  0
    2.0600   -2.5640    0.1000 C   0  0  0  0  0  0  0  0  0  0  0  0
    1.7640   -3.3750    1.2920 C   0  0  0  0  0  0  0  0  0  0  0  0
    0.3110   -3.7150    1.5180 C   0  0  0  0  0  0  0  0  0  0  0  0
    0.1380   -4.5320    2.7970 C   0  0  0  0  0  0  0  0  0  0  0  0
   -1.2470   -4.8650    3.0200 N   0  0  0  0  0  0  0  0  0  0  0  0
    0.0680   -1.1430   -0.4930 C   0  0  0  0  0  0  0  0  0  0  0  0
   -0.8260   -0.4230    0.0380 O   0  0  0  0  0  0  0  0  0  0  0  0
    1.4970   -0.5070    2.0640 H   0  0  0  0  0  0  0  0  0  0  0  0
    2.0200   -0.7780   -0.9110 H   0  0  0  0  0  0  0  0  0  0  0  0
    3.1740   -2.4790    0.0060 H   0  0  0  0  0  0  0  0  0  0  0  0
    1.7560   -3.1510   -0.8060 H   0  0  0  0  0  0  0  0  0  0  0  0
    2.2250   -3.0120    2.2340 H   0  0  0  0  0  0  0  0  0  0  0  0
    2.2790   -4.3720    1.1240 H   0  0  0  0  0  0  0  0  0  0  0  0
   -0.0700   -4.4150    0.7140 H   0  0  0  0  0  0  0  0  0  0  0  0
   -0.3650   -2.8420    1.4800 H   0  0  0  0  0  0  0  0  0  0  0  0
    0.7170   -5.4660    2.7570 H   0  0  0  0  0  0  0  0  0  0  0  0
    0.5310   -3.9630    3.6900 H   0  0  0  0  0  0  0  0  0  0  0  0
   -1.8220   -4.1450    2.5410 H   0  0  0  0  0  0  0  0  0  0  0  0
   -1.4080   -4.9000    4.0490 H   0  0  0  0  0  0  0  0  0  0  0  0
   -5.4460   -1.8150   -2.7240 C   0  0  0  0  0  0  0  0  0  0  0  0
   -4.3940   -1.8990   -4.2100 S   0  0  0  0  0  0  0  0  0  0  0  0
   -2.9850   -0.8710   -4.1890 C   0  0  0  0  0  0  0  0  0  0  0  0
   -1.7730   -1.2880   -3.4890 C   0  0  0  0  0  0  0  0  0  0  0  0
   -1.8030   -1.7690   -2.0930 C   0  0  2  0  0  0  0  0  0  0  0  0
   -0.3760   -1.8850   -1.6170 N   0  0  0  0  0  0  0  0  0  0  0  0
   -2.1960   -3.2300   -2.0630 C   0  0  0  0  0  0  0  0  0  0  0  0
   -1.3210   -4.0900   -1.6510 O   0  0  0  0  0  0  0  0  0  0  0  0
   -3.3740   -3.7960   -2.4190 O   0  0  0  0  0  0  0  0  0  0  0  0
   -5.9190   -2.7840   -2.4800 H   0  0  0  0  0  0  0  0  0  0  0  0
   -6.2920   -1.1260   -2.9900 H   0  0  0  0  0  0  0  0  0  0  0  0
   -4.9230   -1.3430   -1.8730 H   0  0  0  0  0  0  0  0  0  0  0  0
   -2.7290   -0.6350   -5.3040 H   0  0  0  0  0  0  0  0  0  0  0  0
   -3.3030    0.1840   -3.8010 H   0  0  0  0  0  0  0  0  0  0  0  0
   -0.9440   -0.4930   -3.6010 H   0  0  0  0  0  0  0  0  0  0  0  0
   -1.2990   -2.1370   -4.1280 H   0  0  0  0  0  0  0  0  0  0  0  0
   -2.3930   -1.2180   -1.4150 H   0  0  0  0  0  0  0  0  0  0  0  0
    0.2740   -2.5100   -2.1170 H   0  0  0  0  0  0  0  0  0  0  0  0
  1 11  1  0  0  0  0
  1 10  1  0  0  0  0
  2  3  1  0  0  0  0
  2  1  1  0  0  0  0
  3 14  1  1  0  0  0
  3  4  1  0  0  0  0
  4 15  1  0  0  0  0
  4 17  1  0  0  0  0
  5 18  1  1  0  0  0
  5  3  1  0  0  0  0
  6 20  1  0  0  0  0
  6  5  1  0  0  0  0
  7 21  1  0  0  0  0
  7  5  1  0  0  0  0
  8  7  2  0  0  0  0
  9  1  1  0  0  0  0
 12  2  1  0  0  0  0
 13  2  1  0  0  0  0
 16  4  1  0  0  0  0
 19  6  1  0  0  0  0
 21 30  1  0  0  0  0
 22 31  1  6  0  0  0
 22 23  1  0  0  0  0
 22 21  1  0  0  0  0
 23 24  1  0  0  0  0
 24 25  1  0  0  0  0
 24 34  1  0  0  0  0
 25 26  1  0  0  0  0
 26 27  1  0  0  0  0
 26 39  1  0  0  0  0
 27 41  1  0  0  0  0
 28 22  1  0  0  0  0
 28 29  2  0  0  0  0
 32 23  1  0  0  0  0
 33 23  1  0  0  0  0
 35 24  1  0  0  0  0
 36 25  1  0  0  0  0
 37 25  1  0  0  0  0
 38 26  1  0  0  0  0
 40 27  1  0  0  0  0
 42 51  1  0  0  0  0
 42 53  1  0  0  0  0
 43 44  1  0  0  0  0
 43 42  1  0  0  0  0
 44 55  1  0  0  0  0
 44 45  1  0  0  0  0
 45 46  1  0  0  0  0
 46 48  1  0  0  0  0
 46 47  1  0  0  0  0
 46 58  1  1  0  0  0
 47 28  1  0  0  0  0
 48 49  1  0  0  0  0
 50 48  2  0  0  0  0
 52 42  1  0  0  0  0
 54 44  1  0  0  0  0
 56 45  1  0  0  0  0
 57 45  1  0  0  0  0
 59 47  1  0  0  0  0
M  END
$$$$
