IKN.pdb
 OpenBabel07022418423D

 56 55  0  0  1  0  0  0  0  0999 V2000
    4.2790   -3.5850    1.4940 C   0  0  0  0  0  0  0  0  0  0  0  0
    3.7920   -2.2260    1.9170 C   0  0  0  0  0  0  0  0  0  0  0  0
    2.7040   -1.7060    1.0060 C   0  0  2  0  0  0  0  0  0  0  0  0
    3.1760   -1.5750   -0.4220 C   0  0  0  0  0  0  0  0  0  0  0  0
    2.1160   -0.4090    1.5380 C   0  0  2  0  0  0  0  0  0  0  0  0
    1.5680   -0.7080    2.8410 N   0  0  0  0  0  0  0  0  0  0  0  0
    1.0560    0.1090    0.6500 C   0  0  0  0  0  0  0  0  0  0  0  0
    1.2900    0.4880   -0.5330 O   0  0  0  0  0  0  0  0  0  0  0  0
    3.5070   -4.1860    0.9700 H   0  0  0  0  0  0  0  0  0  0  0  0
    4.5510   -4.1490    2.4200 H   0  0  0  0  0  0  0  0  0  0  0  0
    5.2360   -3.5300    0.9050 H   0  0  0  0  0  0  0  0  0  0  0  0
    3.4160   -2.2950    2.9560 H   0  0  0  0  0  0  0  0  0  0  0  0
    4.6860   -1.5560    1.9030 H   0  0  0  0  0  0  0  0  0  0  0  0
    1.8690   -2.4480    1.0440 H   0  0  0  0  0  0  0  0  0  0  0  0
    3.6860   -0.6050   -0.5860 H   0  0  0  0  0  0  0  0  0  0  0  0
    3.8290   -2.4440   -0.6420 H   0  0  0  0  0  0  0  0  0  0  0  0
    2.2530   -1.6020   -1.0590 H   0  0  0  0  0  0  0  0  0  0  0  0
    2.9300    0.3450    1.6930 H   0  0  0  0  0  0  0  0  0  0  0  0
    0.8990   -1.4820    2.8150 H   0  0  0  0  0  0  0  0  0  0  0  0
    1.1530    0.0950    3.3280 H   0  0  0  0  0  0  0  0  0  0  0  0
   -0.2690    0.1920    1.1170 N   0  0  0  0  0  0  0  0  0  0  0  0
   -1.4070    0.6800    0.3910 C   0  0  1  0  0  0  0  0  0  0  0  0
   -1.1600    1.7580   -0.5790 C   0  0  0  0  0  0  0  0  0  0  0  0
   -0.6000    3.0310   -0.1200 C   0  0  0  0  0  0  0  0  0  0  0  0
   -1.3140    3.9220    0.8100 C   0  0  0  0  0  0  0  0  0  0  0  0
   -1.6540    3.4980    2.1820 C   0  0  0  0  0  0  0  0  0  0  0  0
   -2.2830    4.6990    2.8420 N   0  0  0  0  0  0  0  0  0  0  0  0
   -2.0740   -0.4830   -0.3220 C   0  0  0  0  0  0  0  0  0  0  0  0
   -3.0960   -0.3240   -1.0280 O   0  0  0  0  0  0  0  0  0  0  0  0
   -0.4530   -0.1420    2.1110 H   0  0  0  0  0  0  0  0  0  0  0  0
   -2.1640    1.0250    1.0980 H   0  0  0  0  0  0  0  0  0  0  0  0
   -2.2050    2.0110   -0.9970 H   0  0  0  0  0  0  0  0  0  0  0  0
   -0.6630    1.3850   -1.5280 H   0  0  0  0  0  0  0  0  0  0  0  0
    0.4920    2.8930    0.2560 H   0  0  0  0  0  0  0  0  0  0  0  0
   -0.4280    3.6870   -1.0650 H   0  0  0  0  0  0  0  0  0  0  0  0
   -0.8640    4.9710    0.8050 H   0  0  0  0  0  0  0  0  0  0  0  0
   -2.3200    4.1500    0.2850 H   0  0  0  0  0  0  0  0  0  0  0  0
   -2.4350    2.7170    2.2530 H   0  0  0  0  0  0  0  0  0  0  0  0
   -0.7660    3.2700    2.7890 H   0  0  0  0  0  0  0  0  0  0  0  0
   -1.5300    5.3820    2.9990 H   0  0  0  0  0  0  0  0  0  0  0  0
   -2.6620    4.3620    3.7440 H   0  0  0  0  0  0  0  0  0  0  0  0
   -2.7530   -4.4720   -3.6710 N   0  0  0  0  0  0  0  0  0  0  0  0
   -1.8810   -4.6610   -2.5810 C   0  0  0  0  0  0  0  0  0  0  0  0
   -1.6380   -5.8080   -2.1540 O   0  0  0  0  0  0  0  0  0  0  0  0
   -1.2480   -3.5030   -1.9370 C   0  0  0  0  0  0  0  0  0  0  0  0
   -2.1550   -2.9570   -0.8750 C   0  0  2  0  0  0  0  0  0  0  0  0
   -1.5540   -1.7980   -0.2100 N   0  0  0  0  0  0  0  0  0  0  0  0
   -2.6480   -3.9390    0.0860 C   0  0  0  0  0  0  0  0  0  0  0  0
   -2.5090   -3.7580    1.3450 O   0  0  0  0  0  0  0  0  0  0  0  0
   -3.2880   -5.1110   -0.2710 O   0  0  0  0  0  0  0  0  0  0  0  0
   -3.5420   -3.7940   -3.6450 H   0  0  0  0  0  0  0  0  0  0  0  0
   -2.6210   -5.0210   -4.5450 H   0  0  0  0  0  0  0  0  0  0  0  0
   -1.1810   -2.6890   -2.7220 H   0  0  0  0  0  0  0  0  0  0  0  0
   -0.2330   -3.7340   -1.5400 H   0  0  0  0  0  0  0  0  0  0  0  0
   -3.0460   -2.5390   -1.4330 H   0  0  0  0  0  0  0  0  0  0  0  0
   -0.7000   -1.9500    0.3760 H   0  0  0  0  0  0  0  0  0  0  0  0
  1  2  1  0  0  0  0
  1 10  1  0  0  0  0
  2 12  1  0  0  0  0
  3 14  1  1  0  0  0
  3  5  1  0  0  0  0
  3  2  1  0  0  0  0
  4  3  1  0  0  0  0
  5 18  1  1  0  0  0
  5  6  1  0  0  0  0
  6 20  1  0  0  0  0
  7 21  1  0  0  0  0
  7  5  1  0  0  0  0
  8  7  2  0  0  0  0
  9  1  1  0  0  0  0
 11  1  1  0  0  0  0
 13  2  1  0  0  0  0
 15  4  1  0  0  0  0
 16  4  1  0  0  0  0
 17  4  1  0  0  0  0
 19  6  1  0  0  0  0
 21 30  1  0  0  0  0
 22 31  1  1  0  0  0
 22 21  1  0  0  0  0
 23 24  1  0  0  0  0
 23 22  1  0  0  0  0
 24 34  1  0  0  0  0
 24 25  1  0  0  0  0
 25 26  1  0  0  0  0
 26 38  1  0  0  0  0
 26 39  1  0  0  0  0
 26 27  1  0  0  0  0
 27 40  1  0  0  0  0
 27 41  1  0  0  0  0
 28 47  1  0  0  0  0
 28 22  1  0  0  0  0
 29 28  2  0  0  0  0
 32 23  1  0  0  0  0
 33 23  1  0  0  0  0
 35 24  1  0  0  0  0
 36 25  1  0  0  0  0
 37 25  1  0  0  0  0
 42 51  1  0  0  0  0
 42 43  1  0  0  0  0
 43 44  2  0  0  0  0
 43 45  1  0  0  0  0
 45 54  1  0  0  0  0
 45 46  1  0  0  0  0
 46 55  1  6  0  0  0
 46 47  1  0  0  0  0
 46 48  1  0  0  0  0
 47 56  1  0  0  0  0
 48 49  1  0  0  0  0
 50 48  2  0  0  0  0
 52 42  1  0  0  0  0
 53 45  1  0  0  0  0
M  END
$$$$
