IKP.pdb
 OpenBabel07022418423D

 56 56  0  0  1  0  0  0  0  0999 V2000
    3.5570   -5.3920    1.9690 C   0  0  0  0  0  0  0  0  0  0  0  0
    2.3480   -4.6970    2.5210 C   0  0  0  0  0  0  0  0  0  0  0  0
    1.8820   -3.5980    1.5460 C   0  0  2  0  0  0  0  0  0  0  0  0
    2.9950   -2.5980    1.3630 C   0  0  0  0  0  0  0  0  0  0  0  0
    0.6190   -3.0120    2.0980 C   0  0  2  0  0  0  0  0  0  0  0  0
   -0.3140   -4.1580    2.1740 N   0  0  0  0  0  0  0  0  0  0  0  0
   -0.0360   -2.0100    1.2360 C   0  0  0  0  0  0  0  0  0  0  0  0
   -1.1360   -2.3230    0.6770 O   0  0  0  0  0  0  0  0  0  0  0  0
    4.4580   -5.1470    2.5880 H   0  0  0  0  0  0  0  0  0  0  0  0
    3.7500   -5.1510    0.9020 H   0  0  0  0  0  0  0  0  0  0  0  0
    3.4350   -6.4960    2.0230 H   0  0  0  0  0  0  0  0  0  0  0  0
    1.5580   -5.4340    2.6860 H   0  0  0  0  0  0  0  0  0  0  0  0
    2.6050   -4.2050    3.4850 H   0  0  0  0  0  0  0  0  0  0  0  0
    1.6520   -4.1350    0.6070 H   0  0  0  0  0  0  0  0  0  0  0  0
    3.0800   -1.8930    2.2040 H   0  0  0  0  0  0  0  0  0  0  0  0
    3.9730   -3.1440    1.2000 H   0  0  0  0  0  0  0  0  0  0  0  0
    2.8400   -2.0390    0.4250 H   0  0  0  0  0  0  0  0  0  0  0  0
    0.7370   -2.6520    3.1490 H   0  0  0  0  0  0  0  0  0  0  0  0
   -0.9570   -4.1510    1.3450 H   0  0  0  0  0  0  0  0  0  0  0  0
   -0.8560   -4.1230    3.0570 H   0  0  0  0  0  0  0  0  0  0  0  0
    0.4580   -0.7070    0.9730 N   0  0  0  0  0  0  0  0  0  0  0  0
   -0.2360    0.2630    0.1100 C   0  0  1  0  0  0  0  0  0  0  0  0
   -0.4450    1.5410    0.9110 C   0  0  0  0  0  0  0  0  0  0  0  0
   -1.2830    1.3000    2.1510 C   0  0  0  0  0  0  0  0  0  0  0  0
   -2.6610    0.7890    1.8010 C   0  0  0  0  0  0  0  0  0  0  0  0
   -3.4060    0.5830    3.1270 C   0  0  0  0  0  0  0  0  0  0  0  0
   -2.7270   -0.3700    3.9650 N   0  0  0  0  0  0  0  0  0  0  0  0
    0.6320    0.4720   -1.0520 C   0  0  0  0  0  0  0  0  0  0  0  0
    1.8400    0.0580   -1.0040 O   0  0  0  0  0  0  0  0  0  0  0  0
    1.3550   -0.4590    1.4310 H   0  0  0  0  0  0  0  0  0  0  0  0
   -1.2160   -0.0810   -0.2320 H   0  0  0  0  0  0  0  0  0  0  0  0
    0.5330    2.0100    1.1710 H   0  0  0  0  0  0  0  0  0  0  0  0
   -0.9910    2.2720    0.3110 H   0  0  0  0  0  0  0  0  0  0  0  0
   -0.7960    0.4680    2.7410 H   0  0  0  0  0  0  0  0  0  0  0  0
   -1.4060    2.1970    2.7560 H   0  0  0  0  0  0  0  0  0  0  0  0
   -3.2580    1.5740    1.2720 H   0  0  0  0  0  0  0  0  0  0  0  0
   -2.6770   -0.1660    1.2740 H   0  0  0  0  0  0  0  0  0  0  0  0
   -4.4330    0.2110    2.9600 H   0  0  0  0  0  0  0  0  0  0  0  0
   -3.4970    1.5390    3.6840 H   0  0  0  0  0  0  0  0  0  0  0  0
   -3.0710   -1.3310    3.8770 H   0  0  0  0  0  0  0  0  0  0  0  0
   -2.6280   -0.0430    4.9620 H   0  0  0  0  0  0  0  0  0  0  0  0
    0.2140    1.1090   -2.2430 N   0  0  0  0  0  0  0  0  0  0  0  0
    1.1090    1.3610   -3.4050 C   0  0  0  0  0  0  0  0  0  0  0  0
    0.1290    1.5120   -4.5520 C   0  0  0  0  0  0  0  0  0  0  0  0
   -0.9690    2.3010   -3.8780 C   0  0  0  0  0  0  0  0  0  0  0  0
   -1.1050    1.5590   -2.5460 C   0  0  1  0  0  0  0  0  0  0  0  0
   -2.0360    0.4220   -2.8340 C   0  0  0  0  0  0  0  0  0  0  0  0
   -1.7070   -0.7760   -2.8350 O   0  0  0  0  0  0  0  0  0  0  0  0
   -3.3600    0.7910   -3.1180 O   0  0  0  0  0  0  0  0  0  0  0  0
    1.8250    0.5520   -3.5400 H   0  0  0  0  0  0  0  0  0  0  0  0
    1.6290    2.3300   -3.2920 H   0  0  0  0  0  0  0  0  0  0  0  0
    0.5670    2.0470   -5.4070 H   0  0  0  0  0  0  0  0  0  0  0  0
   -0.2830    0.5360   -4.8370 H   0  0  0  0  0  0  0  0  0  0  0  0
   -1.9340    2.2440   -4.3950 H   0  0  0  0  0  0  0  0  0  0  0  0
   -0.6580    3.3550   -3.6860 H   0  0  0  0  0  0  0  0  0  0  0  0
   -1.5590    2.2730   -1.8650 H   0  0  0  0  0  0  0  0  0  0  0  0
  1 11  1  0  0  0  0
  1  2  1  0  0  0  0
  1  9  1  0  0  0  0
  2 12  1  0  0  0  0
  2 13  1  0  0  0  0
  3 14  1  6  0  0  0
  3  5  1  0  0  0  0
  3  2  1  0  0  0  0
  4  3  1  0  0  0  0
  4 15  1  0  0  0  0
  5  6  1  0  0  0  0
  5 18  1  1  0  0  0
  6 20  1  0  0  0  0
  7  5  1  0  0  0  0
  8  7  2  0  0  0  0
 10  1  1  0  0  0  0
 16  4  1  0  0  0  0
 17  4  1  0  0  0  0
 19  6  1  0  0  0  0
 21  7  1  0  0  0  0
 21 30  1  0  0  0  0
 22 31  1  6  0  0  0
 22 23  1  0  0  0  0
 22 21  1  0  0  0  0
 23 32  1  0  0  0  0
 23 24  1  0  0  0  0
 24 34  1  0  0  0  0
 24 35  1  0  0  0  0
 25 24  1  0  0  0  0
 25 26  1  0  0  0  0
 26 39  1  0  0  0  0
 26 27  1  0  0  0  0
 27 41  1  0  0  0  0
 28 29  2  0  0  0  0
 28 22  1  0  0  0  0
 33 23  1  0  0  0  0
 36 25  1  0  0  0  0
 37 25  1  0  0  0  0
 38 26  1  0  0  0  0
 40 27  1  0  0  0  0
 42 28  1  0  0  0  0
 43 51  1  0  0  0  0
 43 42  1  0  0  0  0
 44 45  1  0  0  0  0
 44 43  1  0  0  0  0
 45 55  1  0  0  0  0
 45 46  1  0  0  0  0
 46 42  1  0  0  0  0
 46 56  1  1  0  0  0
 47 46  1  0  0  0  0
 48 47  1  0  0  0  0
 49 47  2  0  0  0  0
 50 43  1  0  0  0  0
 52 44  1  0  0  0  0
 53 44  1  0  0  0  0
 54 45  1  0  0  0  0
M  END
$$$$
