IKR.pdb
 OpenBabel07022418423D

 65 64  0  0  1  0  0  0  0  0999 V2000
    3.7890   -1.4190    3.0110 C   0  0  0  0  0  0  0  0  0  0  0  0
    2.7830   -1.4950    1.9060 C   0  0  0  0  0  0  0  0  0  0  0  0
    3.1400   -0.6840    0.6980 C   0  0  2  0  0  0  0  0  0  0  0  0
    4.4370   -1.0840    0.0590 C   0  0  0  0  0  0  0  0  0  0  0  0
    3.1540    0.8020    0.9840 C   0  0  2  0  0  0  0  0  0  0  0  0
    4.1100    1.1160    2.0100 N   0  0  0  0  0  0  0  0  0  0  0  0
    1.8210    1.3340    1.3610 C   0  0  0  0  0  0  0  0  0  0  0  0
    1.7300    1.9110    2.4920 O   0  0  0  0  0  0  0  0  0  0  0  0
    3.7590   -2.3830    3.5590 H   0  0  0  0  0  0  0  0  0  0  0  0
    4.8200   -1.2700    2.6700 H   0  0  0  0  0  0  0  0  0  0  0  0
    3.5210   -0.6400    3.7780 H   0  0  0  0  0  0  0  0  0  0  0  0
    2.6040   -2.5380    1.6450 H   0  0  0  0  0  0  0  0  0  0  0  0
    1.8370   -1.0720    2.3150 H   0  0  0  0  0  0  0  0  0  0  0  0
    2.3490   -0.8550   -0.0640 H   0  0  0  0  0  0  0  0  0  0  0  0
    5.2800   -0.5950    0.6230 H   0  0  0  0  0  0  0  0  0  0  0  0
    4.5800   -2.1600   -0.0340 H   0  0  0  0  0  0  0  0  0  0  0  0
    4.4910   -0.6550   -0.9630 H   0  0  0  0  0  0  0  0  0  0  0  0
    3.4880    1.3300    0.0620 H   0  0  0  0  0  0  0  0  0  0  0  0
    5.0660    1.2700    1.6510 H   0  0  0  0  0  0  0  0  0  0  0  0
    3.7580    1.8410    2.6590 H   0  0  0  0  0  0  0  0  0  0  0  0
    0.6860    1.2310    0.5410 N   0  0  0  0  0  0  0  0  0  0  0  0
   -0.5900    1.8360    1.0890 C   0  0  1  0  0  0  0  0  0  0  0  0
   -1.0490    2.8660    0.1430 C   0  0  0  0  0  0  0  0  0  0  0  0
   -2.0950    3.7890    0.5130 C   0  0  0  0  0  0  0  0  0  0  0  0
   -3.3830    3.5450    1.1380 C   0  0  0  0  0  0  0  0  0  0  0  0
   -3.3630    3.1920    2.6140 C   0  0  0  0  0  0  0  0  0  0  0  0
   -4.7270    2.9370    3.0380 N   0  0  0  0  0  0  0  0  0  0  0  0
   -1.4850    0.6020    1.0440 C   0  0  0  0  0  0  0  0  0  0  0  0
   -2.6890    0.6700    1.1850 O   0  0  0  0  0  0  0  0  0  0  0  0
    0.7140    0.7780   -0.3680 H   0  0  0  0  0  0  0  0  0  0  0  0
   -0.3840    2.1980    2.0640 H   0  0  0  0  0  0  0  0  0  0  0  0
   -1.2540    2.3900   -0.8920 H   0  0  0  0  0  0  0  0  0  0  0  0
   -0.1120    3.5080   -0.0800 H   0  0  0  0  0  0  0  0  0  0  0  0
   -1.5620    4.5950    1.2040 H   0  0  0  0  0  0  0  0  0  0  0  0
   -2.3020    4.4710   -0.4350 H   0  0  0  0  0  0  0  0  0  0  0  0
   -4.0690    2.8620    0.5800 H   0  0  0  0  0  0  0  0  0  0  0  0
   -3.9870    4.5270    1.1100 H   0  0  0  0  0  0  0  0  0  0  0  0
   -3.1320    4.2040    3.1370 H   0  0  0  0  0  0  0  0  0  0  0  0
   -2.6180    2.4890    2.9280 H   0  0  0  0  0  0  0  0  0  0  0  0
   -5.2310    2.4700    2.2750 H   0  0  0  0  0  0  0  0  0  0  0  0
   -4.7860    2.3420    3.8840 H   0  0  0  0  0  0  0  0  0  0  0  0
    1.0440   -4.9660   -4.0300 N   0  0  0  0  0  0  0  0  0  0  0  0
   -0.3110   -5.1170   -3.6680 C   0  0  0  0  0  0  0  0  0  0  0  0
   -1.1110   -5.7350   -4.4610 N   0  0  0  0  0  0  0  0  0  0  0  0
   -0.7660   -4.5860   -2.4400 N   0  0  0  0  0  0  0  0  0  0  0  0
   -2.1470   -4.2360   -2.2300 C   0  0  0  0  0  0  0  0  0  0  0  0
   -2.3890   -3.6880   -0.8380 C   0  0  0  0  0  0  0  0  0  0  0  0
   -1.5890   -2.4590   -0.5650 C   0  0  0  0  0  0  0  0  0  0  0  0
   -1.7810   -1.8570    0.7930 C   0  0  2  0  0  0  0  0  0  0  0  0
   -0.9070   -0.6690    0.8330 N   0  0  0  0  0  0  0  0  0  0  0  0
   -1.4490   -2.7560    1.9160 C   0  0  0  0  0  0  0  0  0  0  0  0
   -0.5110   -2.4420    2.7120 O   0  0  0  0  0  0  0  0  0  0  0  0
   -2.1000   -3.9450    2.1730 O   0  0  0  0  0  0  0  0  0  0  0  0
    1.6850   -5.7760   -3.9930 H   0  0  0  0  0  0  0  0  0  0  0  0
    1.3850   -4.0380   -4.3310 H   0  0  0  0  0  0  0  0  0  0  0  0
   -0.7780   -6.1250   -5.3650 H   0  0  0  0  0  0  0  0  0  0  0  0
   -0.0880   -4.4470   -1.6750 H   0  0  0  0  0  0  0  0  0  0  0  0
   -2.7890   -5.1430   -2.3490 H   0  0  0  0  0  0  0  0  0  0  0  0
   -2.5000   -3.5140   -2.9950 H   0  0  0  0  0  0  0  0  0  0  0  0
   -3.4730   -3.3950   -0.8130 H   0  0  0  0  0  0  0  0  0  0  0  0
   -2.2690   -4.4710   -0.0660 H   0  0  0  0  0  0  0  0  0  0  0  0
   -1.8190   -1.6490   -1.2990 H   0  0  0  0  0  0  0  0  0  0  0  0
   -0.5160   -2.7090   -0.7030 H   0  0  0  0  0  0  0  0  0  0  0  0
   -2.8140   -1.5060    0.9410 H   0  0  0  0  0  0  0  0  0  0  0  0
    0.0850   -0.8340    0.7060 H   0  0  0  0  0  0  0  0  0  0  0  0
  1  9  1  0  0  0  0
  1 11  1  0  0  0  0
  2 13  1  0  0  0  0
  2  1  1  0  0  0  0
  3 14  1  6  0  0  0
  3  5  1  0  0  0  0
  3  2  1  0  0  0  0
  4 15  1  0  0  0  0
  4  3  1  0  0  0  0
  5 18  1  6  0  0  0
  5  7  1  0  0  0  0
  5  6  1  0  0  0  0
  6 20  1  0  0  0  0
  7  8  2  0  0  0  0
 10  1  1  0  0  0  0
 12  2  1  0  0  0  0
 16  4  1  0  0  0  0
 17  4  1  0  0  0  0
 19  6  1  0  0  0  0
 21 22  1  0  0  0  0
 21  7  1  0  0  0  0
 22 31  1  1  0  0  0
 23 24  1  0  0  0  0
 23 22  1  0  0  0  0
 24 25  1  0  0  0  0
 24 34  1  0  0  0  0
 25 26  1  0  0  0  0
 26 39  1  0  0  0  0
 26 27  1  0  0  0  0
 26 38  1  0  0  0  0
 27 41  1  0  0  0  0
 28 22  1  0  0  0  0
 28 29  2  0  0  0  0
 30 21  1  0  0  0  0
 32 23  1  0  0  0  0
 33 23  1  0  0  0  0
 35 24  1  0  0  0  0
 36 25  1  0  0  0  0
 37 25  1  0  0  0  0
 40 27  1  0  0  0  0
 42 54  1  0  0  0  0
 42 43  1  0  0  0  0
 43 45  1  0  0  0  0
 44 43  2  0  0  0  0
 45 46  1  0  0  0  0
 45 57  1  0  0  0  0
 46 47  1  0  0  0  0
 47 60  1  0  0  0  0
 47 48  1  0  0  0  0
 47 61  1  0  0  0  0
 48 49  1  0  0  0  0
 49 50  1  0  0  0  0
 49 64  1  1  0  0  0
 49 51  1  0  0  0  0
 50 28  1  0  0  0  0
 51 53  2  0  0  0  0
 51 52  1  0  0  0  0
 55 42  1  0  0  0  0
 56 44  1  0  0  0  0
 58 46  1  0  0  0  0
 59 46  1  0  0  0  0
 62 48  1  0  0  0  0
 63 48  1  0  0  0  0
 65 50  1  0  0  0  0
M  END
$$$$
