IKT.pdb
 OpenBabel07022418423D

 56 55  0  0  1  0  0  0  0  0999 V2000
    3.2490   -3.3590    3.2290 C   0  0  0  0  0  0  0  0  0  0  0  0
    3.8620   -2.2230    2.4840 C   0  0  0  0  0  0  0  0  0  0  0  0
    3.6510   -2.3720    0.9940 C   0  0  2  0  0  0  0  0  0  0  0  0
    4.2780   -1.2200    0.2380 C   0  0  0  0  0  0  0  0  0  0  0  0
    2.2000   -2.5600    0.6280 C   0  0  2  0  0  0  0  0  0  0  0  0
    2.1230   -2.6930   -0.8210 N   0  0  0  0  0  0  0  0  0  0  0  0
    1.3700   -1.3910    1.0320 C   0  0  0  0  0  0  0  0  0  0  0  0
    1.2800   -1.0480    2.2530 O   0  0  0  0  0  0  0  0  0  0  0  0
    2.9960   -4.2170    2.5710 H   0  0  0  0  0  0  0  0  0  0  0  0
    3.9810   -3.7870    3.9730 H   0  0  0  0  0  0  0  0  0  0  0  0
    2.3880   -3.0180    3.8040 H   0  0  0  0  0  0  0  0  0  0  0  0
    3.5530   -1.2240    2.8510 H   0  0  0  0  0  0  0  0  0  0  0  0
    4.9730   -2.2610    2.6460 H   0  0  0  0  0  0  0  0  0  0  0  0
    4.1910   -3.2890    0.6820 H   0  0  0  0  0  0  0  0  0  0  0  0
    3.4970   -0.4240    0.1270 H   0  0  0  0  0  0  0  0  0  0  0  0
    5.1960   -0.8700    0.7110 H   0  0  0  0  0  0  0  0  0  0  0  0
    4.5360   -1.5260   -0.8040 H   0  0  0  0  0  0  0  0  0  0  0  0
    1.8380   -3.5150    1.0540 H   0  0  0  0  0  0  0  0  0  0  0  0
    1.1540   -2.8980   -1.1430 H   0  0  0  0  0  0  0  0  0  0  0  0
    2.4400   -1.8260   -1.2760 H   0  0  0  0  0  0  0  0  0  0  0  0
    0.6650   -0.6350    0.1070 N   0  0  0  0  0  0  0  0  0  0  0  0
   -0.1810    0.5480    0.4810 C   0  0  1  0  0  0  0  0  0  0  0  0
    0.2110    1.7040   -0.3250 C   0  0  0  0  0  0  0  0  0  0  0  0
   -0.2390    3.0510   -0.0440 C   0  0  0  0  0  0  0  0  0  0  0  0
   -1.5870    3.5190    0.2500 C   0  0  0  0  0  0  0  0  0  0  0  0
   -2.1110    3.1660    1.6450 C   0  0  0  0  0  0  0  0  0  0  0  0
   -3.4560    3.6100    1.8460 N   0  0  0  0  0  0  0  0  0  0  0  0
   -1.5340    0.0320    0.0650 C   0  0  0  0  0  0  0  0  0  0  0  0
   -2.5260    0.7330   -0.0200 O   0  0  0  0  0  0  0  0  0  0  0  0
    0.6810   -0.8430   -0.8990 H   0  0  0  0  0  0  0  0  0  0  0  0
   -0.1250    0.6770    1.5300 H   0  0  0  0  0  0  0  0  0  0  0  0
    1.3760    1.7740   -0.3350 H   0  0  0  0  0  0  0  0  0  0  0  0
   -0.0270    1.4570   -1.4510 H   0  0  0  0  0  0  0  0  0  0  0  0
    0.4910    3.4510    0.7780 H   0  0  0  0  0  0  0  0  0  0  0  0
    0.1920    3.6960   -0.9320 H   0  0  0  0  0  0  0  0  0  0  0  0
   -1.5250    4.6650    0.2910 H   0  0  0  0  0  0  0  0  0  0  0  0
   -2.3390    3.3550   -0.5390 H   0  0  0  0  0  0  0  0  0  0  0  0
   -1.5010    3.7990    2.3990 H   0  0  0  0  0  0  0  0  0  0  0  0
   -1.9600    2.1650    1.9800 H   0  0  0  0  0  0  0  0  0  0  0  0
   -3.9760    3.8330    0.9910 H   0  0  0  0  0  0  0  0  0  0  0  0
   -3.9960    2.9950    2.4910 H   0  0  0  0  0  0  0  0  0  0  0  0
   -2.0230   -3.4430   -2.3310 C   0  0  0  0  0  0  0  0  0  0  0  0
   -3.0330   -2.3750   -2.0780 C   0  0  1  0  0  0  0  0  0  0  0  0
   -4.3160   -2.8310   -2.3590 O   0  0  0  0  0  0  0  0  0  0  0  0
   -3.0390   -1.8590   -0.6600 C   0  0  2  0  0  0  0  0  0  0  0  0
   -1.7340   -1.3540   -0.2600 N   0  0  0  0  0  0  0  0  0  0  0  0
   -3.4520   -2.8730    0.3150 C   0  0  0  0  0  0  0  0  0  0  0  0
   -4.5580   -3.4830    0.2140 O   0  0  0  0  0  0  0  0  0  0  0  0
   -2.6640   -3.2240    1.3970 O   0  0  0  0  0  0  0  0  0  0  0  0
   -1.1740   -3.0000   -2.9290 H   0  0  0  0  0  0  0  0  0  0  0  0
   -1.5640   -3.8700   -1.4240 H   0  0  0  0  0  0  0  0  0  0  0  0
   -2.4440   -4.2560   -2.9820 H   0  0  0  0  0  0  0  0  0  0  0  0
   -2.8600   -1.5020   -2.7490 H   0  0  0  0  0  0  0  0  0  0  0  0
   -5.0170   -2.2860   -1.9270 H   0  0  0  0  0  0  0  0  0  0  0  0
   -3.7430   -1.0010   -0.6390 H   0  0  0  0  0  0  0  0  0  0  0  0
   -0.9420   -2.0120   -0.2100 H   0  0  0  0  0  0  0  0  0  0  0  0
  1 11  1  0  0  0  0
  1 10  1  0  0  0  0
  2 13  1  0  0  0  0
  2 12  1  0  0  0  0
  2  1  1  0  0  0  0
  3 14  1  6  0  0  0
  3  2  1  0  0  0  0
  4 16  1  0  0  0  0
  4  3  1  0  0  0  0
  5  3  1  0  0  0  0
  5  7  1  0  0  0  0
  5 18  1  1  0  0  0
  6  5  1  0  0  0  0
  7  8  2  0  0  0  0
  9  1  1  0  0  0  0
 15  4  1  0  0  0  0
 17  4  1  0  0  0  0
 19  6  1  0  0  0  0
 20  6  1  0  0  0  0
 21 22  1  0  0  0  0
 21  7  1  0  0  0  0
 22 31  1  1  0  0  0
 23 24  1  0  0  0  0
 23 22  1  0  0  0  0
 24 25  1  0  0  0  0
 24 34  1  0  0  0  0
 25 36  1  0  0  0  0
 25 26  1  0  0  0  0
 26 27  1  0  0  0  0
 26 39  1  0  0  0  0
 26 38  1  0  0  0  0
 27 41  1  0  0  0  0
 28 22  1  0  0  0  0
 29 28  2  0  0  0  0
 30 21  1  0  0  0  0
 32 23  1  0  0  0  0
 33 23  1  0  0  0  0
 35 24  1  0  0  0  0
 37 25  1  0  0  0  0
 40 27  1  0  0  0  0
 42 43  1  0  0  0  0
 42 51  1  0  0  0  0
 43 53  1  6  0  0  0
 43 45  1  0  0  0  0
 44 43  1  0  0  0  0
 44 54  1  0  0  0  0
 45 55  1  1  0  0  0
 45 46  1  0  0  0  0
 45 47  1  0  0  0  0
 46 56  1  0  0  0  0
 46 28  1  0  0  0  0
 47 49  1  0  0  0  0
 48 47  2  0  0  0  0
 50 42  1  0  0  0  0
 52 42  1  0  0  0  0
M  END
$$$$
