IKV.pdb
 OpenBabel07022418423D

 58 57  0  0  1  0  0  0  0  0999 V2000
    3.3350   -2.5520    4.7750 C   0  0  0  0  0  0  0  0  0  0  0  0
    4.0900   -1.8040    3.7240 C   0  0  0  0  0  0  0  0  0  0  0  0
    4.1350   -2.4700    2.3810 C   0  0  2  0  0  0  0  0  0  0  0  0
    4.9350   -1.5730    1.4620 C   0  0  0  0  0  0  0  0  0  0  0  0
    2.8010   -2.8280    1.8270 C   0  0  2  0  0  0  0  0  0  0  0  0
    2.9210   -3.4790    0.5140 N   0  0  0  0  0  0  0  0  0  0  0  0
    1.8940   -1.6460    1.7180 C   0  0  0  0  0  0  0  0  0  0  0  0
    1.6480   -0.9850    2.7340 O   0  0  0  0  0  0  0  0  0  0  0  0
    2.9470   -3.5100    4.4060 H   0  0  0  0  0  0  0  0  0  0  0  0
    3.9730   -2.7500    5.6860 H   0  0  0  0  0  0  0  0  0  0  0  0
    2.5280   -1.8760    5.1710 H   0  0  0  0  0  0  0  0  0  0  0  0
    3.7700   -0.7380    3.6320 H   0  0  0  0  0  0  0  0  0  0  0  0
    5.1590   -1.7200    4.0890 H   0  0  0  0  0  0  0  0  0  0  0  0
    4.7460   -3.3980    2.5060 H   0  0  0  0  0  0  0  0  0  0  0  0
    6.0240   -1.7860    1.5320 H   0  0  0  0  0  0  0  0  0  0  0  0
    4.6660   -1.7270    0.3940 H   0  0  0  0  0  0  0  0  0  0  0  0
    4.7970   -0.5330    1.7920 H   0  0  0  0  0  0  0  0  0  0  0  0
    2.3150   -3.5760    2.4800 H   0  0  0  0  0  0  0  0  0  0  0  0
    1.9680   -3.6640    0.1540 H   0  0  0  0  0  0  0  0  0  0  0  0
    3.3650   -4.4130    0.6710 H   0  0  0  0  0  0  0  0  0  0  0  0
    1.3100   -1.2570    0.5150 N   0  0  0  0  0  0  0  0  0  0  0  0
    0.3930   -0.0410    0.4710 C   0  0  1  0  0  0  0  0  0  0  0  0
    0.9970    0.8420   -0.5340 C   0  0  0  0  0  0  0  0  0  0  0  0
    0.6820    2.1710   -0.9650 C   0  0  0  0  0  0  0  0  0  0  0  0
   -0.6480    2.6310   -1.3900 C   0  0  0  0  0  0  0  0  0  0  0  0
   -1.4990    2.7680   -0.1250 C   0  0  0  0  0  0  0  0  0  0  0  0
   -2.8570    3.0910   -0.3750 N   0  0  0  0  0  0  0  0  0  0  0  0
   -0.8650   -0.7390    0.0600 C   0  0  0  0  0  0  0  0  0  0  0  0
   -0.7320   -1.7160   -0.7560 O   0  0  0  0  0  0  0  0  0  0  0  0
    1.4450   -1.7250   -0.3690 H   0  0  0  0  0  0  0  0  0  0  0  0
    0.3460    0.3410    1.4540 H   0  0  0  0  0  0  0  0  0  0  0  0
    2.1500    0.9050   -0.2750 H   0  0  0  0  0  0  0  0  0  0  0  0
    1.0290    0.1950   -1.5120 H   0  0  0  0  0  0  0  0  0  0  0  0
    1.1120    2.9260   -0.1870 H   0  0  0  0  0  0  0  0  0  0  0  0
    1.4180    2.4140   -1.8330 H   0  0  0  0  0  0  0  0  0  0  0  0
   -0.5620    3.6790   -1.8040 H   0  0  0  0  0  0  0  0  0  0  0  0
   -1.1330    2.0560   -2.1720 H   0  0  0  0  0  0  0  0  0  0  0  0
   -1.0720    3.7580    0.3850 H   0  0  0  0  0  0  0  0  0  0  0  0
   -1.2570    2.0570    0.6390 H   0  0  0  0  0  0  0  0  0  0  0  0
   -3.2190    2.5550   -1.2120 H   0  0  0  0  0  0  0  0  0  0  0  0
   -3.4290    2.9370    0.4690 H   0  0  0  0  0  0  0  0  0  0  0  0
   -5.1920   -1.4890   -1.5590 C   0  0  0  0  0  0  0  0  0  0  0  0
   -3.9620   -0.6860   -1.2210 C   0  0  0  0  0  0  0  0  0  0  0  0
   -3.0360   -0.7860   -2.4130 C   0  0  0  0  0  0  0  0  0  0  0  0
   -3.3600   -1.1690    0.0400 C   0  0  2  0  0  0  0  0  0  0  0  0
   -2.1670   -0.4580    0.4690 N   0  0  0  0  0  0  0  0  0  0  0  0
   -3.2040   -2.6580    0.1130 C   0  0  0  0  0  0  0  0  0  0  0  0
   -4.1290   -3.3980   -0.3120 O   0  0  0  0  0  0  0  0  0  0  0  0
   -2.0980   -3.3070    0.6250 O   0  0  0  0  0  0  0  0  0  0  0  0
   -4.9900   -2.3620   -2.2060 H   0  0  0  0  0  0  0  0  0  0  0  0
   -5.7320   -1.7440   -0.6240 H   0  0  0  0  0  0  0  0  0  0  0  0
   -5.9200   -0.8690   -2.1620 H   0  0  0  0  0  0  0  0  0  0  0  0
   -4.2490    0.3720   -1.1260 H   0  0  0  0  0  0  0  0  0  0  0  0
   -2.7360   -1.8200   -2.6310 H   0  0  0  0  0  0  0  0  0  0  0  0
   -2.2300   -0.0590   -2.3480 H   0  0  0  0  0  0  0  0  0  0  0  0
   -3.6620   -0.4710   -3.2990 H   0  0  0  0  0  0  0  0  0  0  0  0
   -4.1260   -0.9830    0.8710 H   0  0  0  0  0  0  0  0  0  0  0  0
   -2.2980    0.3200    1.1870 H   0  0  0  0  0  0  0  0  0  0  0  0
  1 11  1  0  0  0  0
  1 10  1  0  0  0  0
  2 13  1  0  0  0  0
  2  1  1  0  0  0  0
  3 14  1  1  0  0  0
  3  2  1  0  0  0  0
  4 15  1  0  0  0  0
  4 17  1  0  0  0  0
  4  3  1  0  0  0  0
  5  3  1  0  0  0  0
  5 18  1  1  0  0  0
  6 20  1  0  0  0  0
  6  5  1  0  0  0  0
  7  5  1  0  0  0  0
  7  8  2  0  0  0  0
  9  1  1  0  0  0  0
 12  2  1  0  0  0  0
 16  4  1  0  0  0  0
 19  6  1  0  0  0  0
 21  7  1  0  0  0  0
 22 21  1  0  0  0  0
 22 31  1  1  0  0  0
 23 32  1  0  0  0  0
 23 22  1  0  0  0  0
 24 23  1  0  0  0  0
 24 34  1  0  0  0  0
 25 24  1  0  0  0  0
 25 26  1  0  0  0  0
 26 38  1  0  0  0  0
 26 39  1  0  0  0  0
 27 26  1  0  0  0  0
 27 41  1  0  0  0  0
 28 46  1  0  0  0  0
 28 22  1  0  0  0  0
 29 28  2  0  0  0  0
 30 21  1  0  0  0  0
 33 23  1  0  0  0  0
 35 24  1  0  0  0  0
 36 25  1  0  0  0  0
 37 25  1  0  0  0  0
 40 27  1  0  0  0  0
 42 43  1  0  0  0  0
 42 51  1  0  0  0  0
 43 53  1  0  0  0  0
 43 45  1  0  0  0  0
 44 55  1  0  0  0  0
 44 43  1  0  0  0  0
 45 47  1  0  0  0  0
 45 46  1  0  0  0  0
 45 57  1  1  0  0  0
 46 58  1  0  0  0  0
 47 49  1  0  0  0  0
 48 47  2  0  0  0  0
 50 42  1  0  0  0  0
 52 42  1  0  0  0  0
 54 44  1  0  0  0  0
 56 44  1  0  0  0  0
M  END
$$$$
