ILA.pdb
 OpenBabel07022418413D

 50 49  0  0  1  0  0  0  0  0999 V2000
    0.2090   -4.9330    3.9880 C   0  0  0  0  0  0  0  0  0  0  0  0
    0.7690   -5.0400    2.5770 C   0  0  0  0  0  0  0  0  0  0  0  0
    1.1880   -3.6530    2.1440 C   0  0  2  0  0  0  0  0  0  0  0  0
    2.2380   -3.0640    3.0430 C   0  0  0  0  0  0  0  0  0  0  0  0
   -0.0080   -2.7410    1.9610 C   0  0  2  0  0  0  0  0  0  0  0  0
   -0.8460   -3.3290    0.9480 N   0  0  0  0  0  0  0  0  0  0  0  0
    0.4820   -1.4090    1.6000 C   0  0  0  0  0  0  0  0  0  0  0  0
    1.2170   -0.7830    2.3840 O   0  0  0  0  0  0  0  0  0  0  0  0
    0.5540   -5.8330    4.5750 H   0  0  0  0  0  0  0  0  0  0  0  0
    0.6330   -4.0460    4.5170 H   0  0  0  0  0  0  0  0  0  0  0  0
   -0.8840   -4.8800    3.9500 H   0  0  0  0  0  0  0  0  0  0  0  0
    1.6400   -5.7080    2.5140 H   0  0  0  0  0  0  0  0  0  0  0  0
   -0.0500   -5.3660    1.9070 H   0  0  0  0  0  0  0  0  0  0  0  0
    1.6300   -3.7780    1.1130 H   0  0  0  0  0  0  0  0  0  0  0  0
    2.8370   -3.9090    3.4740 H   0  0  0  0  0  0  0  0  0  0  0  0
    2.9240   -2.3750    2.5150 H   0  0  0  0  0  0  0  0  0  0  0  0
    1.7810   -2.4810    3.8880 H   0  0  0  0  0  0  0  0  0  0  0  0
   -0.5780   -2.6670    2.9290 H   0  0  0  0  0  0  0  0  0  0  0  0
   -0.2530   -3.5740    0.1360 H   0  0  0  0  0  0  0  0  0  0  0  0
   -1.6110   -2.7160    0.6350 H   0  0  0  0  0  0  0  0  0  0  0  0
    2.5380    1.6390   -3.1190 C   0  0  0  0  0  0  0  0  0  0  0  0
    1.8290    1.8820   -1.7720 C   0  0  0  0  0  0  0  0  0  0  0  0
    2.7870    2.6020   -0.9170 C   0  0  0  0  0  0  0  0  0  0  0  0
    1.3410    0.5650   -1.3200 C   0  0  0  0  0  0  0  0  0  0  0  0
    0.6100    0.5200   -0.0180 C   0  0  2  0  0  0  0  0  0  0  0  0
    0.1610   -0.7710    0.3790 N   0  0  0  0  0  0  0  0  0  0  0  0
   -0.5780    1.4110   -0.0370 C   0  0  0  0  0  0  0  0  0  0  0  0
   -0.5390    2.6320   -0.3310 O   0  0  0  0  0  0  0  0  0  0  0  0
    3.1060    2.5800   -3.3180 H   0  0  0  0  0  0  0  0  0  0  0  0
    1.8260    1.3900   -3.9110 H   0  0  0  0  0  0  0  0  0  0  0  0
    3.2950    0.8380   -2.9920 H   0  0  0  0  0  0  0  0  0  0  0  0
    1.0000    2.5870   -2.0560 H   0  0  0  0  0  0  0  0  0  0  0  0
    2.4250    3.0100    0.0150 H   0  0  0  0  0  0  0  0  0  0  0  0
    3.2600    3.4140   -1.4980 H   0  0  0  0  0  0  0  0  0  0  0  0
    3.6330    1.9000   -0.6540 H   0  0  0  0  0  0  0  0  0  0  0  0
    0.5870    0.2400   -2.1060 H   0  0  0  0  0  0  0  0  0  0  0  0
    2.1250   -0.2160   -1.4040 H   0  0  0  0  0  0  0  0  0  0  0  0
    1.2560    0.9110    0.8220 H   0  0  0  0  0  0  0  0  0  0  0  0
   -0.4620   -1.3020   -0.2840 H   0  0  0  0  0  0  0  0  0  0  0  0
   -3.9490    1.1880   -0.8430 C   0  0  0  0  0  0  0  0  0  0  0  0
   -3.0630    1.6900    0.2990 C   0  0  2  0  0  0  0  0  0  0  0  0
   -1.8630    0.9010    0.2910 N   0  0  0  0  0  0  0  0  0  0  0  0
   -3.8010    1.6190    1.5630 C   0  0  0  0  0  0  0  0  0  0  0  0
   -4.8680    2.2680    1.6890 O   0  0  0  0  0  0  0  0  0  0  0  0
   -3.3650    0.8570    2.6340 O   0  0  0  0  0  0  0  0  0  0  0  0
   -4.3250    0.1680   -0.6210 H   0  0  0  0  0  0  0  0  0  0  0  0
   -3.3280    1.1760   -1.7540 H   0  0  0  0  0  0  0  0  0  0  0  0
   -4.8140    1.8780   -0.9330 H   0  0  0  0  0  0  0  0  0  0  0  0
   -2.7810    2.7330    0.0070 H   0  0  0  0  0  0  0  0  0  0  0  0
   -1.9430   -0.1050    0.5420 H   0  0  0  0  0  0  0  0  0  0  0  0
  1 10  1  0  0  0  0
  1  9  1  0  0  0  0
  2  1  1  0  0  0  0
  3 14  1  6  0  0  0
  3  2  1  0  0  0  0
  3  4  1  0  0  0  0
  4 15  1  0  0  0  0
  4 17  1  0  0  0  0
  5  3  1  0  0  0  0
  5 18  1  1  0  0  0
  6  5  1  0  0  0  0
  7  5  1  0  0  0  0
  7  8  2  0  0  0  0
 11  1  1  0  0  0  0
 12  2  1  0  0  0  0
 13  2  1  0  0  0  0
 16  4  1  0  0  0  0
 19  6  1  0  0  0  0
 20  6  1  0  0  0  0
 21 31  1  0  0  0  0
 21 22  1  0  0  0  0
 22 24  1  0  0  0  0
 22 23  1  0  0  0  0
 23 35  1  0  0  0  0
 23 33  1  0  0  0  0
 24 25  1  0  0  0  0
 25 26  1  0  0  0  0
 25 38  1  1  0  0  0
 26  7  1  0  0  0  0
 27 25  1  0  0  0  0
 27 42  1  0  0  0  0
 28 27  2  0  0  0  0
 29 21  1  0  0  0  0
 30 21  1  0  0  0  0
 32 22  1  0  0  0  0
 34 23  1  0  0  0  0
 36 24  1  0  0  0  0
 37 24  1  0  0  0  0
 39 26  1  0  0  0  0
 40 46  1  0  0  0  0
 40 41  1  0  0  0  0
 41 49  1  6  0  0  0
 41 43  1  0  0  0  0
 42 41  1  0  0  0  0
 42 50  1  0  0  0  0
 43 44  2  0  0  0  0
 43 45  1  0  0  0  0
 47 40  1  0  0  0  0
 48 40  1  0  0  0  0
M  END
$$$$
