ILC.pdb
 OpenBabel07022418413D

 51 50  0  0  1  0  0  0  0  0999 V2000
    0.9030   -4.9390    1.7380 C   0  0  0  0  0  0  0  0  0  0  0  0
    1.3360   -3.5120    1.4000 C   0  0  0  0  0  0  0  0  0  0  0  0
    1.0290   -2.6440    2.5870 C   0  0  2  0  0  0  0  0  0  0  0  0
   -0.4610   -2.7140    2.8160 C   0  0  0  0  0  0  0  0  0  0  0  0
    1.5830   -1.2620    2.5120 C   0  0  2  0  0  0  0  0  0  0  0  0
    1.2070   -0.5480    3.7240 N   0  0  0  0  0  0  0  0  0  0  0  0
    1.1860   -0.5530    1.2950 C   0  0  0  0  0  0  0  0  0  0  0  0
    1.4980   -1.0450    0.1890 O   0  0  0  0  0  0  0  0  0  0  0  0
    1.5240   -5.6790    1.2000 H   0  0  0  0  0  0  0  0  0  0  0  0
    0.9530   -5.0510    2.8360 H   0  0  0  0  0  0  0  0  0  0  0  0
   -0.1520   -5.1110    1.4000 H   0  0  0  0  0  0  0  0  0  0  0  0
    0.7850   -3.1780    0.4810 H   0  0  0  0  0  0  0  0  0  0  0  0
    2.4270   -3.5320    1.2170 H   0  0  0  0  0  0  0  0  0  0  0  0
    1.4760   -3.1940    3.4740 H   0  0  0  0  0  0  0  0  0  0  0  0
   -1.0380   -2.5270    1.8840 H   0  0  0  0  0  0  0  0  0  0  0  0
   -0.7990   -2.0950    3.6590 H   0  0  0  0  0  0  0  0  0  0  0  0
   -0.7520   -3.7720    3.0950 H   0  0  0  0  0  0  0  0  0  0  0  0
    2.7060   -1.2830    2.5260 H   0  0  0  0  0  0  0  0  0  0  0  0
    0.2030   -0.3440    3.7250 H   0  0  0  0  0  0  0  0  0  0  0  0
    1.3870   -1.2300    4.5140 H   0  0  0  0  0  0  0  0  0  0  0  0
    3.2080    1.6460    0.4330 C   0  0  0  0  0  0  0  0  0  0  0  0
    2.3570    2.1610   -0.6580 C   0  0  0  0  0  0  0  0  0  0  0  0
    3.2350    2.2330   -1.9200 C   0  0  0  0  0  0  0  0  0  0  0  0
    1.0940    1.4770   -0.9780 C   0  0  0  0  0  0  0  0  0  0  0  0
    0.0720    1.3950    0.1380 C   0  0  2  0  0  0  0  0  0  0  0  0
    0.4610    0.6740    1.2900 N   0  0  0  0  0  0  0  0  0  0  0  0
   -1.2160    1.0250   -0.4710 C   0  0  0  0  0  0  0  0  0  0  0  0
   -1.5420    1.6790   -1.5150 O   0  0  0  0  0  0  0  0  0  0  0  0
    4.1360    2.3100    0.4430 H   0  0  0  0  0  0  0  0  0  0  0  0
    3.6210    0.6380    0.2750 H   0  0  0  0  0  0  0  0  0  0  0  0
    2.7840    1.8180    1.4510 H   0  0  0  0  0  0  0  0  0  0  0  0
    2.1720    3.2590   -0.4210 H   0  0  0  0  0  0  0  0  0  0  0  0
    2.9370    3.0720   -2.5620 H   0  0  0  0  0  0  0  0  0  0  0  0
    4.2990    2.3560   -1.6550 H   0  0  0  0  0  0  0  0  0  0  0  0
    3.1440    1.2820   -2.5030 H   0  0  0  0  0  0  0  0  0  0  0  0
    1.2790    0.5270   -1.4930 H   0  0  0  0  0  0  0  0  0  0  0  0
    0.5730    2.1130   -1.7620 H   0  0  0  0  0  0  0  0  0  0  0  0
    0.0090    2.5060    0.4580 H   0  0  0  0  0  0  0  0  0  0  0  0
    0.2120    1.0430    2.2560 H   0  0  0  0  0  0  0  0  0  0  0  0
   -2.0730    0.0180    0.0300 N   0  0  0  0  0  0  0  0  0  0  0  0
   -3.3220   -0.2710   -0.6440 C   0  0  1  0  0  0  0  0  0  0  0  0
   -3.2870   -1.6930   -1.2130 C   0  0  0  0  0  0  0  0  0  0  0  0
   -4.8710   -2.0010   -2.0450 S   0  0  0  0  0  0  0  0  0  0  0  0
   -4.4590   -0.1930    0.2760 C   0  0  0  0  0  0  0  0  0  0  0  0
   -4.3620    0.0890    1.4970 O   0  0  0  0  0  0  0  0  0  0  0  0
   -5.7300   -0.4440   -0.2210 O   0  0  0  0  0  0  0  0  0  0  0  0
   -1.7530   -0.4790    0.8850 H   0  0  0  0  0  0  0  0  0  0  0  0
   -3.4290    0.3940   -1.5230 H   0  0  0  0  0  0  0  0  0  0  0  0
   -3.2140   -2.3950   -0.3790 H   0  0  0  0  0  0  0  0  0  0  0  0
   -2.4250   -1.8280   -1.8840 H   0  0  0  0  0  0  0  0  0  0  0  0
   -5.0640   -3.3770   -2.2760 H   0  0  0  0  0  0  0  0  0  0  0  0
  1 10  1  0  0  0  0
  2  1  1  0  0  0  0
  2  3  1  0  0  0  0
  3  4  1  0  0  0  0
  3 14  1  1  0  0  0
  4 17  1  0  0  0  0
  4 16  1  0  0  0  0
  5 18  1  6  0  0  0
  5  3  1  0  0  0  0
  5  6  1  0  0  0  0
  6 19  1  0  0  0  0
  6 20  1  0  0  0  0
  7  5  1  0  0  0  0
  8  7  2  0  0  0  0
  9  1  1  0  0  0  0
 11  1  1  0  0  0  0
 12  2  1  0  0  0  0
 13  2  1  0  0  0  0
 15  4  1  0  0  0  0
 21 29  1  0  0  0  0
 21 31  1  0  0  0  0
 22 32  1  0  0  0  0
 22 21  1  0  0  0  0
 23 34  1  0  0  0  0
 23 22  1  0  0  0  0
 24 22  1  0  0  0  0
 24 25  1  0  0  0  0
 25 38  1  1  0  0  0
 25 26  1  0  0  0  0
 26  7  1  0  0  0  0
 26 39  1  0  0  0  0
 27 40  1  0  0  0  0
 27 25  1  0  0  0  0
 28 27  2  0  0  0  0
 30 21  1  0  0  0  0
 33 23  1  0  0  0  0
 35 23  1  0  0  0  0
 36 24  1  0  0  0  0
 37 24  1  0  0  0  0
 40 47  1  0  0  0  0
 41 48  1  6  0  0  0
 41 40  1  0  0  0  0
 41 44  1  0  0  0  0
 42 41  1  0  0  0  0
 42 49  1  0  0  0  0
 43 42  1  0  0  0  0
 44 45  1  0  0  0  0
 46 44  2  0  0  0  0
 50 42  1  0  0  0  0
 51 43  1  0  0  0  0
M  END
$$$$
