ILE.pdb
 OpenBabel07022418413D

 56 55  0  0  1  0  0  0  0  0999 V2000
    1.7230   -2.7560    4.7110 C   0  0  0  0  0  0  0  0  0  0  0  0
    2.1440   -2.0360    3.4310 C   0  0  0  0  0  0  0  0  0  0  0  0
    2.0260   -0.5430    3.6090 C   0  0  2  0  0  0  0  0  0  0  0  0
    0.6110   -0.1190    3.9150 C   0  0  0  0  0  0  0  0  0  0  0  0
    2.5810    0.1580    2.4080 C   0  0  2  0  0  0  0  0  0  0  0  0
    2.4580    1.6030    2.6190 N   0  0  0  0  0  0  0  0  0  0  0  0
    1.8090   -0.2400    1.1970 C   0  0  0  0  0  0  0  0  0  0  0  0
    1.8410   -1.3850    0.6950 O   0  0  0  0  0  0  0  0  0  0  0  0
    2.0330   -3.8020    4.7110 H   0  0  0  0  0  0  0  0  0  0  0  0
    2.2110   -2.2270    5.5510 H   0  0  0  0  0  0  0  0  0  0  0  0
    0.6180   -2.6820    4.7960 H   0  0  0  0  0  0  0  0  0  0  0  0
    3.1750   -2.3500    3.1950 H   0  0  0  0  0  0  0  0  0  0  0  0
    1.4750   -2.4420    2.6440 H   0  0  0  0  0  0  0  0  0  0  0  0
    2.6660   -0.2660    4.4980 H   0  0  0  0  0  0  0  0  0  0  0  0
   -0.1270   -0.8360    3.5020 H   0  0  0  0  0  0  0  0  0  0  0  0
    0.4120    0.9260    3.6280 H   0  0  0  0  0  0  0  0  0  0  0  0
    0.4770   -0.1620    5.0280 H   0  0  0  0  0  0  0  0  0  0  0  0
    3.6610   -0.0750    2.3360 H   0  0  0  0  0  0  0  0  0  0  0  0
    3.2520    2.0790    2.1340 H   0  0  0  0  0  0  0  0  0  0  0  0
    2.6390    1.7440    3.6490 H   0  0  0  0  0  0  0  0  0  0  0  0
    3.1110    1.2490   -1.3330 C   0  0  0  0  0  0  0  0  0  0  0  0
    2.0400    0.8600   -2.3150 C   0  0  0  0  0  0  0  0  0  0  0  0
    2.7570    0.2440   -3.5250 C   0  0  0  0  0  0  0  0  0  0  0  0
    0.9950   -0.0620   -1.7990 C   0  0  0  0  0  0  0  0  0  0  0  0
    0.1850    0.4330   -0.6430 C   0  0  2  0  0  0  0  0  0  0  0  0
    0.9610    0.7170    0.5270 N   0  0  0  0  0  0  0  0  0  0  0  0
   -0.9860   -0.4270   -0.3580 C   0  0  0  0  0  0  0  0  0  0  0  0
   -1.1660   -0.8000    0.8280 O   0  0  0  0  0  0  0  0  0  0  0  0
    2.7740    1.8740   -0.5050 H   0  0  0  0  0  0  0  0  0  0  0  0
    3.9440    1.7680   -1.9110 H   0  0  0  0  0  0  0  0  0  0  0  0
    3.6050    0.3280   -0.9550 H   0  0  0  0  0  0  0  0  0  0  0  0
    1.5900    1.8410   -2.6610 H   0  0  0  0  0  0  0  0  0  0  0  0
    3.7280    0.7120   -3.7030 H   0  0  0  0  0  0  0  0  0  0  0  0
    2.0890    0.2420   -4.4020 H   0  0  0  0  0  0  0  0  0  0  0  0
    2.9320   -0.8200   -3.2620 H   0  0  0  0  0  0  0  0  0  0  0  0
    1.5120   -1.0350   -1.5430 H   0  0  0  0  0  0  0  0  0  0  0  0
    0.3490   -0.3390   -2.6720 H   0  0  0  0  0  0  0  0  0  0  0  0
   -0.1960    1.4550   -0.9890 H   0  0  0  0  0  0  0  0  0  0  0  0
    0.9590    1.6760    0.9970 H   0  0  0  0  0  0  0  0  0  0  0  0
   -1.9050   -0.8480   -1.3430 N   0  0  0  0  0  0  0  0  0  0  0  0
   -3.0590   -1.6990   -1.0500 C   0  0  1  0  0  0  0  0  0  0  0  0
   -4.3370   -1.0050   -1.4260 C   0  0  0  0  0  0  0  0  0  0  0  0
   -5.5820   -1.7940   -1.1610 C   0  0  0  0  0  0  0  0  0  0  0  0
   -5.7930   -2.1680    0.2440 C   0  0  0  0  0  0  0  0  0  0  0  0
   -5.0130   -1.8440    1.1720 O   0  0  0  0  0  0  0  0  0  0  0  0
   -2.8700   -2.9750   -1.7550 C   0  0  0  0  0  0  0  0  0  0  0  0
   -3.7050   -3.8930   -1.6430 O   0  0  0  0  0  0  0  0  0  0  0  0
   -6.9030   -2.9180    0.6050 O   0  0  0  0  0  0  0  0  0  0  0  0
   -1.7630   -3.1680   -2.5500 O   0  0  0  0  0  0  0  0  0  0  0  0
   -1.7530   -0.5380   -2.3230 H   0  0  0  0  0  0  0  0  0  0  0  0
   -2.9970   -1.8870    0.0500 H   0  0  0  0  0  0  0  0  0  0  0  0
   -4.3940    0.0280   -1.0270 H   0  0  0  0  0  0  0  0  0  0  0  0
   -4.3060   -0.8540   -2.5470 H   0  0  0  0  0  0  0  0  0  0  0  0
   -6.4740   -1.1810   -1.4920 H   0  0  0  0  0  0  0  0  0  0  0  0
   -5.6590   -2.7100   -1.7810 H   0  0  0  0  0  0  0  0  0  0  0  0
   -6.8810   -3.4550    1.4720 H   0  0  0  0  0  0  0  0  0  0  0  0
  1  9  1  0  0  0  0
  1 11  1  0  0  0  0
  1 10  1  0  0  0  0
  2  3  1  0  0  0  0
  2  1  1  0  0  0  0
  3  4  1  0  0  0  0
  3 14  1  1  0  0  0
  4 17  1  0  0  0  0
  5 18  1  6  0  0  0
  5  6  1  0  0  0  0
  5  3  1  0  0  0  0
  6 20  1  0  0  0  0
  7  5  1  0  0  0  0
  8  7  2  0  0  0  0
 12  2  1  0  0  0  0
 13  2  1  0  0  0  0
 15  4  1  0  0  0  0
 16  4  1  0  0  0  0
 19  6  1  0  0  0  0
 21 31  1  0  0  0  0
 21 29  1  0  0  0  0
 22 24  1  0  0  0  0
 22 21  1  0  0  0  0
 23 35  1  0  0  0  0
 23 22  1  0  0  0  0
 24 36  1  0  0  0  0
 24 25  1  0  0  0  0
 25 38  1  6  0  0  0
 25 27  1  0  0  0  0
 25 26  1  0  0  0  0
 26 39  1  0  0  0  0
 26  7  1  0  0  0  0
 27 28  2  0  0  0  0
 30 21  1  0  0  0  0
 32 22  1  0  0  0  0
 33 23  1  0  0  0  0
 34 23  1  0  0  0  0
 37 24  1  0  0  0  0
 40 41  1  0  0  0  0
 40 27  1  0  0  0  0
 41 51  1  1  0  0  0
 42 43  1  0  0  0  0
 42 41  1  0  0  0  0
 42 52  1  0  0  0  0
 43 44  1  0  0  0  0
 44 48  1  0  0  0  0
 44 45  2  0  0  0  0
 46 47  1  0  0  0  0
 46 41  1  0  0  0  0
 48 56  1  0  0  0  0
 49 46  2  0  0  0  0
 50 40  1  0  0  0  0
 53 42  1  0  0  0  0
 54 43  1  0  0  0  0
 55 43  1  0  0  0  0
M  END
$$$$
