ILG.pdb
 OpenBabel07022418413D

 47 46  0  0  1  0  0  0  0  0999 V2000
    1.9700   -5.2360    2.9800 C   0  0  0  0  0  0  0  0  0  0  0  0
    1.1180   -4.2110    2.2680 C   0  0  0  0  0  0  0  0  0  0  0  0
    1.7180   -3.7080    1.0080 C   0  0  2  0  0  0  0  0  0  0  0  0
    3.0460   -3.0280    1.1660 C   0  0  0  0  0  0  0  0  0  0  0  0
    0.7400   -2.9790    0.1620 C   0  0  2  0  0  0  0  0  0  0  0  0
    1.3960   -2.5050   -1.0780 N   0  0  0  0  0  0  0  0  0  0  0  0
   -0.0000   -1.8770    0.8030 C   0  0  0  0  0  0  0  0  0  0  0  0
   -0.6660   -2.1530    1.8330 O   0  0  0  0  0  0  0  0  0  0  0  0
    1.6970   -5.2160    4.0570 H   0  0  0  0  0  0  0  0  0  0  0  0
    1.7380   -6.2820    2.6370 H   0  0  0  0  0  0  0  0  0  0  0  0
    3.0370   -5.0610    2.8990 H   0  0  0  0  0  0  0  0  0  0  0  0
    0.8570   -3.4050    3.0050 H   0  0  0  0  0  0  0  0  0  0  0  0
    0.1610   -4.7120    2.0250 H   0  0  0  0  0  0  0  0  0  0  0  0
    1.9640   -4.6480    0.4110 H   0  0  0  0  0  0  0  0  0  0  0  0
    3.2450   -2.4200    0.2550 H   0  0  0  0  0  0  0  0  0  0  0  0
    3.1120   -2.3660    2.0380 H   0  0  0  0  0  0  0  0  0  0  0  0
    3.8950   -3.7440    1.2410 H   0  0  0  0  0  0  0  0  0  0  0  0
   -0.0190   -3.7150   -0.1910 H   0  0  0  0  0  0  0  0  0  0  0  0
    2.1720   -3.1510   -1.3320 H   0  0  0  0  0  0  0  0  0  0  0  0
    0.7210   -2.5190   -1.8780 H   0  0  0  0  0  0  0  0  0  0  0  0
    2.0220    1.7300    0.1160 C   0  0  0  0  0  0  0  0  0  0  0  0
    0.9330    2.3720    0.8810 C   0  0  0  0  0  0  0  0  0  0  0  0
    0.1600    3.3170   -0.0480 C   0  0  0  0  0  0  0  0  0  0  0  0
    0.0390    1.5320    1.6850 C   0  0  0  0  0  0  0  0  0  0  0  0
   -0.7720    0.4750    1.0420 C   0  0  2  0  0  0  0  0  0  0  0  0
   -0.0220   -0.5450    0.3570 N   0  0  0  0  0  0  0  0  0  0  0  0
   -1.8890    1.0020    0.2080 C   0  0  0  0  0  0  0  0  0  0  0  0
   -2.1230    0.5870   -0.9600 O   0  0  0  0  0  0  0  0  0  0  0  0
    1.8370    1.6260   -0.9690 H   0  0  0  0  0  0  0  0  0  0  0  0
    2.9290    2.4050    0.1590 H   0  0  0  0  0  0  0  0  0  0  0  0
    2.3950    0.7690    0.5410 H   0  0  0  0  0  0  0  0  0  0  0  0
    1.4240    3.0790    1.6180 H   0  0  0  0  0  0  0  0  0  0  0  0
   -0.6500    3.8380    0.5090 H   0  0  0  0  0  0  0  0  0  0  0  0
    0.8350    4.1360   -0.4130 H   0  0  0  0  0  0  0  0  0  0  0  0
   -0.1950    2.7920   -0.9500 H   0  0  0  0  0  0  0  0  0  0  0  0
    0.6240    1.0380    2.5170 H   0  0  0  0  0  0  0  0  0  0  0  0
   -0.6630    2.2070    2.2350 H   0  0  0  0  0  0  0  0  0  0  0  0
   -1.2920   -0.0480    1.8970 H   0  0  0  0  0  0  0  0  0  0  0  0
    0.5080   -0.2890   -0.4820 H   0  0  0  0  0  0  0  0  0  0  0  0
   -2.7670    2.0130    0.6880 N   0  0  0  0  0  0  0  0  0  0  0  0
   -3.8620    2.5300   -0.1270 C   0  0  0  0  0  0  0  0  0  0  0  0
   -4.8060    1.4220   -0.4870 C   0  0  0  0  0  0  0  0  0  0  0  0
   -5.8040    1.6940   -1.1860 O   0  0  0  0  0  0  0  0  0  0  0  0
   -4.6140    0.1160   -0.0750 O   0  0  0  0  0  0  0  0  0  0  0  0
   -2.6050    2.3820    1.6560 H   0  0  0  0  0  0  0  0  0  0  0  0
   -4.4330    3.2480    0.4750 H   0  0  0  0  0  0  0  0  0  0  0  0
   -3.4820    3.0070   -1.0470 H   0  0  0  0  0  0  0  0  0  0  0  0
  1  9  1  0  0  0  0
  2  1  1  0  0  0  0
  2 12  1  0  0  0  0
  3 14  1  6  0  0  0
  3  4  1  0  0  0  0
  3  2  1  0  0  0  0
  4 17  1  0  0  0  0
  4 16  1  0  0  0  0
  5 18  1  6  0  0  0
  5  7  1  0  0  0  0
  5  3  1  0  0  0  0
  6  5  1  0  0  0  0
  7  8  2  0  0  0  0
 10  1  1  0  0  0  0
 11  1  1  0  0  0  0
 13  2  1  0  0  0  0
 15  4  1  0  0  0  0
 19  6  1  0  0  0  0
 20  6  1  0  0  0  0
 21 30  1  0  0  0  0
 21 31  1  0  0  0  0
 21 22  1  0  0  0  0
 22 32  1  0  0  0  0
 22 24  1  0  0  0  0
 23 33  1  0  0  0  0
 23 22  1  0  0  0  0
 24 37  1  0  0  0  0
 24 36  1  0  0  0  0
 25 24  1  0  0  0  0
 25 38  1  1  0  0  0
 26  7  1  0  0  0  0
 26 25  1  0  0  0  0
 27 40  1  0  0  0  0
 27 25  1  0  0  0  0
 28 27  2  0  0  0  0
 29 21  1  0  0  0  0
 34 23  1  0  0  0  0
 35 23  1  0  0  0  0
 39 26  1  0  0  0  0
 40 45  1  0  0  0  0
 41 46  1  0  0  0  0
 41 40  1  0  0  0  0
 42 41  1  0  0  0  0
 42 44  1  0  0  0  0
 43 42  2  0  0  0  0
 47 41  1  0  0  0  0
M  END
$$$$
