ILH.pdb
 OpenBabel07022418413D

 57 57  0  0  1  0  0  0  0  0999 V2000
    2.7900    1.4000    2.7290 C   0  0  0  0  0  0  0  0  0  0  0  0
    2.6830    0.5120    3.9190 C   0  0  0  0  0  0  0  0  0  0  0  0
    1.3080    0.1560    4.3430 C   0  0  2  0  0  0  0  0  0  0  0  0
    1.4010   -0.7460    5.5590 C   0  0  0  0  0  0  0  0  0  0  0  0
    0.4670   -0.5350    3.3270 C   0  0  2  0  0  0  0  0  0  0  0  0
    1.0280   -1.7930    2.8790 N   0  0  0  0  0  0  0  0  0  0  0  0
    0.0390    0.3250    2.1990 C   0  0  0  0  0  0  0  0  0  0  0  0
   -0.4610    1.4460    2.4570 O   0  0  0  0  0  0  0  0  0  0  0  0
    3.8330    1.8220    2.6930 H   0  0  0  0  0  0  0  0  0  0  0  0
    2.6110    0.9330    1.7680 H   0  0  0  0  0  0  0  0  0  0  0  0
    2.1300    2.2910    2.8120 H   0  0  0  0  0  0  0  0  0  0  0  0
    3.2740   -0.4120    3.7320 H   0  0  0  0  0  0  0  0  0  0  0  0
    3.1840    1.0200    4.7700 H   0  0  0  0  0  0  0  0  0  0  0  0
    0.7430    1.0640    4.6760 H   0  0  0  0  0  0  0  0  0  0  0  0
    2.4530   -1.0990    5.7060 H   0  0  0  0  0  0  0  0  0  0  0  0
    1.1460   -0.2020    6.4960 H   0  0  0  0  0  0  0  0  0  0  0  0
    0.7360   -1.6420    5.4590 H   0  0  0  0  0  0  0  0  0  0  0  0
   -0.4900   -0.8230    3.8590 H   0  0  0  0  0  0  0  0  0  0  0  0
    1.5520   -2.2620    3.6380 H   0  0  0  0  0  0  0  0  0  0  0  0
    1.7310   -1.6560    2.1000 H   0  0  0  0  0  0  0  0  0  0  0  0
    2.3240    1.9290   -2.8270 C   0  0  0  0  0  0  0  0  0  0  0  0
    0.8430    1.9820   -2.2870 C   0  0  0  0  0  0  0  0  0  0  0  0
    0.0560    1.4640   -3.4700 C   0  0  0  0  0  0  0  0  0  0  0  0
    0.8830    1.1020   -1.1000 C   0  0  0  0  0  0  0  0  0  0  0  0
   -0.3150    0.9220   -0.2390 C   0  0  2  0  0  0  0  0  0  0  0  0
    0.1520   -0.0270    0.8290 N   0  0  0  0  0  0  0  0  0  0  0  0
   -1.4480    0.3280   -0.9270 C   0  0  0  0  0  0  0  0  0  0  0  0
   -2.1550    0.9700   -1.7290 O   0  0  0  0  0  0  0  0  0  0  0  0
    2.4080    2.5720   -3.7070 H   0  0  0  0  0  0  0  0  0  0  0  0
    2.9310    2.2130   -1.9670 H   0  0  0  0  0  0  0  0  0  0  0  0
    2.4700    0.8530   -3.0540 H   0  0  0  0  0  0  0  0  0  0  0  0
    0.6010    3.0390   -2.0530 H   0  0  0  0  0  0  0  0  0  0  0  0
    0.7350    1.5260   -4.3760 H   0  0  0  0  0  0  0  0  0  0  0  0
   -0.8540    2.0620   -3.6900 H   0  0  0  0  0  0  0  0  0  0  0  0
   -0.1590    0.4070   -3.3470 H   0  0  0  0  0  0  0  0  0  0  0  0
    1.7830    1.3750   -0.4390 H   0  0  0  0  0  0  0  0  0  0  0  0
    1.2420    0.0830   -1.4950 H   0  0  0  0  0  0  0  0  0  0  0  0
   -0.5830    1.8720    0.2940 H   0  0  0  0  0  0  0  0  0  0  0  0
    0.5720   -0.9430    0.5810 H   0  0  0  0  0  0  0  0  0  0  0  0
   -1.7980   -1.0550   -0.6950 N   0  0  0  0  0  0  0  0  0  0  0  0
   -2.9310   -1.6490   -1.3850 C   0  0  1  0  0  0  0  0  0  0  0  0
   -2.5930   -2.8070   -2.2360 C   0  0  0  0  0  0  0  0  0  0  0  0
   -2.0130   -3.9740   -1.5770 C   0  0  0  0  0  0  0  0  0  0  0  0
   -1.7250   -4.2920   -0.2870 C   0  0  0  0  0  0  0  0  0  0  0  0
   -1.2050   -5.5390   -0.2300 N   0  0  0  0  0  0  0  0  0  0  0  0
   -1.1680   -5.9980   -1.4760 C   0  0  0  0  0  0  0  0  0  0  0  0
   -1.6480   -5.0740   -2.2980 N   0  0  0  0  0  0  0  0  0  0  0  0
   -3.9950   -1.9390   -0.3860 C   0  0  0  0  0  0  0  0  0  0  0  0
   -5.0570   -2.4600   -0.8110 O   0  0  0  0  0  0  0  0  0  0  0  0
   -3.8930   -1.6790    0.9520 O   0  0  0  0  0  0  0  0  0  0  0  0
   -1.1980   -1.5600   -0.0250 H   0  0  0  0  0  0  0  0  0  0  0  0
   -3.3590   -0.8570   -2.0450 H   0  0  0  0  0  0  0  0  0  0  0  0
   -3.5350   -3.1430   -2.7360 H   0  0  0  0  0  0  0  0  0  0  0  0
   -1.9010   -2.4590   -3.0350 H   0  0  0  0  0  0  0  0  0  0  0  0
   -1.8760   -3.6950    0.5710 H   0  0  0  0  0  0  0  0  0  0  0  0
   -0.8900   -6.0540    0.6240 H   0  0  0  0  0  0  0  0  0  0  0  0
   -0.8020   -6.9720   -1.7600 H   0  0  0  0  0  0  0  0  0  0  0  0
  1 11  1  0  0  0  0
  1  2  1  0  0  0  0
  2  3  1  0  0  0  0
  2 13  1  0  0  0  0
  3 14  1  1  0  0  0
  3  4  1  0  0  0  0
  4 15  1  0  0  0  0
  4 16  1  0  0  0  0
  5 18  1  1  0  0  0
  5  3  1  0  0  0  0
  6  5  1  0  0  0  0
  6 19  1  0  0  0  0
  7  8  2  0  0  0  0
  7  5  1  0  0  0  0
  9  1  1  0  0  0  0
 10  1  1  0  0  0  0
 12  2  1  0  0  0  0
 17  4  1  0  0  0  0
 20  6  1  0  0  0  0
 21 22  1  0  0  0  0
 21 30  1  0  0  0  0
 22 32  1  0  0  0  0
 22 24  1  0  0  0  0
 23 35  1  0  0  0  0
 23 22  1  0  0  0  0
 24 36  1  0  0  0  0
 24 25  1  0  0  0  0
 25 38  1  1  0  0  0
 25 26  1  0  0  0  0
 26  7  1  0  0  0  0
 27 40  1  0  0  0  0
 27 25  1  0  0  0  0
 28 27  2  0  0  0  0
 29 21  1  0  0  0  0
 31 21  1  0  0  0  0
 33 23  1  0  0  0  0
 34 23  1  0  0  0  0
 37 24  1  0  0  0  0
 39 26  1  0  0  0  0
 40 51  1  0  0  0  0
 41 52  1  6  0  0  0
 41 40  1  0  0  0  0
 41 48  1  0  0  0  0
 42 43  1  0  0  0  0
 42 41  1  0  0  0  0
 43 44  2  0  0  0  0
 44 45  1  0  0  0  0
 44 55  1  0  0  0  0
 45 56  1  0  0  0  0
 46 45  1  0  0  0  0
 47 43  1  0  0  0  0
 47 46  2  0  0  0  0
 48 50  1  0  0  0  0
 49 48  2  0  0  0  0
 53 42  1  0  0  0  0
 54 42  1  0  0  0  0
 57 46  1  0  0  0  0
M  END
$$$$
