ILK.pdb
 OpenBabel07022418413D

 61 60  0  0  1  0  0  0  0  0999 V2000
    2.2150    1.4500    5.2420 C   0  0  0  0  0  0  0  0  0  0  0  0
    2.0350    1.1950    3.7310 C   0  0  0  0  0  0  0  0  0  0  0  0
    1.4480    2.4330    3.1490 C   0  0  2  0  0  0  0  0  0  0  0  0
    0.1100    2.6890    3.8040 C   0  0  0  0  0  0  0  0  0  0  0  0
    1.4710    2.5880    1.6760 C   0  0  2  0  0  0  0  0  0  0  0  0
    0.8540    3.8690    1.3450 N   0  0  0  0  0  0  0  0  0  0  0  0
    0.8210    1.5020    0.9390 C   0  0  0  0  0  0  0  0  0  0  0  0
   -0.1870    1.7870    0.2190 O   0  0  0  0  0  0  0  0  0  0  0  0
    2.5150    2.4950    5.4230 H   0  0  0  0  0  0  0  0  0  0  0  0
    1.2960    1.1520    5.7710 H   0  0  0  0  0  0  0  0  0  0  0  0
    3.0260    0.7990    5.6440 H   0  0  0  0  0  0  0  0  0  0  0  0
    3.0350    0.9280    3.3330 H   0  0  0  0  0  0  0  0  0  0  0  0
    1.3290    0.3320    3.7050 H   0  0  0  0  0  0  0  0  0  0  0  0
    2.1220    3.2800    3.5450 H   0  0  0  0  0  0  0  0  0  0  0  0
   -0.5510    1.7960    3.8190 H   0  0  0  0  0  0  0  0  0  0  0  0
    0.3250    2.8860    4.9030 H   0  0  0  0  0  0  0  0  0  0  0  0
   -0.3880    3.6030    3.4540 H   0  0  0  0  0  0  0  0  0  0  0  0
    2.5490    2.6880    1.3740 H   0  0  0  0  0  0  0  0  0  0  0  0
   -0.1520    3.6990    1.0980 H   0  0  0  0  0  0  0  0  0  0  0  0
    1.3740    4.2880    0.5320 H   0  0  0  0  0  0  0  0  0  0  0  0
    3.3140   -0.5120   -0.9440 C   0  0  0  0  0  0  0  0  0  0  0  0
    2.2890   -1.4010   -1.5440 C   0  0  0  0  0  0  0  0  0  0  0  0
    1.6030   -0.7720   -2.7400 C   0  0  0  0  0  0  0  0  0  0  0  0
    1.2850   -1.8790   -0.5260 C   0  0  0  0  0  0  0  0  0  0  0  0
    0.4820   -0.8550    0.1460 C   0  0  2  0  0  0  0  0  0  0  0  0
    1.1880    0.1410    0.9290 N   0  0  0  0  0  0  0  0  0  0  0  0
   -0.7820   -1.2690    0.7840 C   0  0  0  0  0  0  0  0  0  0  0  0
   -1.2660   -0.6320    1.7820 O   0  0  0  0  0  0  0  0  0  0  0  0
    3.8550   -0.9990   -0.1120 H   0  0  0  0  0  0  0  0  0  0  0  0
    4.1040   -0.2490   -1.7180 H   0  0  0  0  0  0  0  0  0  0  0  0
    2.8650    0.4580   -0.6650 H   0  0  0  0  0  0  0  0  0  0  0  0
    2.8080   -2.3220   -1.9220 H   0  0  0  0  0  0  0  0  0  0  0  0
    1.3600    0.2800   -2.5110 H   0  0  0  0  0  0  0  0  0  0  0  0
    2.3340   -0.7700   -3.5710 H   0  0  0  0  0  0  0  0  0  0  0  0
    0.7190   -1.3780   -2.9580 H   0  0  0  0  0  0  0  0  0  0  0  0
    1.8860   -2.5220    0.1650 H   0  0  0  0  0  0  0  0  0  0  0  0
    0.6330   -2.5890   -1.0850 H   0  0  0  0  0  0  0  0  0  0  0  0
    0.0720   -0.2000   -0.7260 H   0  0  0  0  0  0  0  0  0  0  0  0
    2.0180   -0.1530    1.5130 H   0  0  0  0  0  0  0  0  0  0  0  0
   -1.5230   -2.3750    0.3360 N   0  0  0  0  0  0  0  0  0  0  0  0
   -2.7810   -2.7660    0.9350 C   0  0  1  0  0  0  0  0  0  0  0  0
   -3.7160   -3.3360   -0.0660 C   0  0  0  0  0  0  0  0  0  0  0  0
   -4.1110   -2.5140   -1.2180 C   0  0  0  0  0  0  0  0  0  0  0  0
   -3.1110   -2.1210   -2.2210 C   0  0  0  0  0  0  0  0  0  0  0  0
   -2.4910   -3.2850   -2.9600 C   0  0  0  0  0  0  0  0  0  0  0  0
   -1.5170   -2.7500   -3.8870 N   0  0  0  0  0  0  0  0  0  0  0  0
   -2.5390   -3.8150    1.9990 C   0  0  0  0  0  0  0  0  0  0  0  0
   -1.3670   -4.1360    2.2380 O   0  0  0  0  0  0  0  0  0  0  0  0
   -3.5730   -4.3920    2.6810 O   0  0  0  0  0  0  0  0  0  0  0  0
   -1.1690   -2.9480   -0.4380 H   0  0  0  0  0  0  0  0  0  0  0  0
   -3.2590   -1.8850    1.4410 H   0  0  0  0  0  0  0  0  0  0  0  0
   -4.6530   -3.6360    0.5310 H   0  0  0  0  0  0  0  0  0  0  0  0
   -3.3040   -4.3480   -0.3420 H   0  0  0  0  0  0  0  0  0  0  0  0
   -4.9980   -3.0190   -1.7200 H   0  0  0  0  0  0  0  0  0  0  0  0
   -4.5870   -1.5600   -0.8350 H   0  0  0  0  0  0  0  0  0  0  0  0
   -3.6500   -1.5380   -3.0290 H   0  0  0  0  0  0  0  0  0  0  0  0
   -2.3070   -1.4500   -1.8890 H   0  0  0  0  0  0  0  0  0  0  0  0
   -1.9790   -4.0190   -2.3300 H   0  0  0  0  0  0  0  0  0  0  0  0
   -3.3060   -3.7820   -3.5570 H   0  0  0  0  0  0  0  0  0  0  0  0
   -0.5740   -3.1750   -3.7650 H   0  0  0  0  0  0  0  0  0  0  0  0
   -1.8170   -3.0290   -4.8570 H   0  0  0  0  0  0  0  0  0  0  0  0
  1  9  1  0  0  0  0
  1 11  1  0  0  0  0
  1 10  1  0  0  0  0
  2  1  1  0  0  0  0
  3 14  1  1  0  0  0
  3  2  1  0  0  0  0
  3  4  1  0  0  0  0
  4 15  1  0  0  0  0
  4 16  1  0  0  0  0
  5 18  1  6  0  0  0
  5  3  1  0  0  0  0
  6  5  1  0  0  0  0
  7  5  1  0  0  0  0
  8  7  2  0  0  0  0
 12  2  1  0  0  0  0
 13  2  1  0  0  0  0
 17  4  1  0  0  0  0
 19  6  1  0  0  0  0
 20  6  1  0  0  0  0
 21 31  1  0  0  0  0
 21 29  1  0  0  0  0
 22 21  1  0  0  0  0
 22 24  1  0  0  0  0
 23 33  1  0  0  0  0
 23 22  1  0  0  0  0
 24 25  1  0  0  0  0
 24 36  1  0  0  0  0
 25 38  1  6  0  0  0
 25 27  1  0  0  0  0
 25 26  1  0  0  0  0
 26  7  1  0  0  0  0
 26 39  1  0  0  0  0
 27 28  2  0  0  0  0
 30 21  1  0  0  0  0
 32 22  1  0  0  0  0
 34 23  1  0  0  0  0
 35 23  1  0  0  0  0
 37 24  1  0  0  0  0
 40 27  1  0  0  0  0
 40 41  1  0  0  0  0
 41 51  1  1  0  0  0
 41 47  1  0  0  0  0
 42 52  1  0  0  0  0
 42 41  1  0  0  0  0
 43 55  1  0  0  0  0
 43 42  1  0  0  0  0
 44 57  1  0  0  0  0
 44 43  1  0  0  0  0
 45 58  1  0  0  0  0
 45 44  1  0  0  0  0
 46 60  1  0  0  0  0
 46 45  1  0  0  0  0
 47 48  2  0  0  0  0
 47 49  1  0  0  0  0
 50 40  1  0  0  0  0
 53 42  1  0  0  0  0
 54 43  1  0  0  0  0
 56 44  1  0  0  0  0
 59 45  1  0  0  0  0
 61 46  1  0  0  0  0
M  END
$$$$
