ILL.pdb
 OpenBabel07022418413D

 59 58  0  0  1  0  0  0  0  0999 V2000
    1.1650   -4.0080    3.6210 C   0  0  0  0  0  0  0  0  0  0  0  0
    0.7620   -3.4140    2.3340 C   0  0  0  0  0  0  0  0  0  0  0  0
    1.8350   -2.7800    1.5170 C   0  0  2  0  0  0  0  0  0  0  0  0
    2.9210   -3.7640    1.1420 C   0  0  0  0  0  0  0  0  0  0  0  0
    2.4090   -1.5170    2.0710 C   0  0  2  0  0  0  0  0  0  0  0  0
    3.0170   -1.6400    3.3570 N   0  0  0  0  0  0  0  0  0  0  0  0
    1.4250   -0.4090    2.0240 C   0  0  0  0  0  0  0  0  0  0  0  0
    1.2460    0.2560    3.0810 O   0  0  0  0  0  0  0  0  0  0  0  0
    2.1990   -4.4330    3.6060 H   0  0  0  0  0  0  0  0  0  0  0  0
    1.1200   -3.3450    4.5000 H   0  0  0  0  0  0  0  0  0  0  0  0
    0.5130   -4.8930    3.8900 H   0  0  0  0  0  0  0  0  0  0  0  0
   -0.0820   -2.7140    2.5070 H   0  0  0  0  0  0  0  0  0  0  0  0
    0.3190   -4.2330    1.6950 H   0  0  0  0  0  0  0  0  0  0  0  0
    1.3680   -2.4940    0.5360 H   0  0  0  0  0  0  0  0  0  0  0  0
    3.6020   -3.2730    0.4190 H   0  0  0  0  0  0  0  0  0  0  0  0
    3.4170   -4.2300    1.9840 H   0  0  0  0  0  0  0  0  0  0  0  0
    2.4070   -4.5810    0.5620 H   0  0  0  0  0  0  0  0  0  0  0  0
    3.2330   -1.2150    1.3630 H   0  0  0  0  0  0  0  0  0  0  0  0
    2.7130   -0.8900    3.9900 H   0  0  0  0  0  0  0  0  0  0  0  0
    4.0140   -1.8580    3.3630 H   0  0  0  0  0  0  0  0  0  0  0  0
    1.5000    3.2570    1.4300 C   0  0  0  0  0  0  0  0  0  0  0  0
    1.5530    2.5370    0.1100 C   0  0  0  0  0  0  0  0  0  0  0  0
    2.0430    3.4920   -0.9460 C   0  0  0  0  0  0  0  0  0  0  0  0
    0.1670    1.9900   -0.2520 C   0  0  0  0  0  0  0  0  0  0  0  0
   -0.2820    1.0260    0.8230 C   0  0  2  0  0  0  0  0  0  0  0  0
    0.6890   -0.0610    0.8860 N   0  0  0  0  0  0  0  0  0  0  0  0
   -1.5940    0.4590    0.4240 C   0  0  0  0  0  0  0  0  0  0  0  0
   -2.5970    1.2240    0.2940 O   0  0  0  0  0  0  0  0  0  0  0  0
    0.4300    3.4370    1.6960 H   0  0  0  0  0  0  0  0  0  0  0  0
    2.0600    2.7360    2.2250 H   0  0  0  0  0  0  0  0  0  0  0  0
    1.9790    4.2670    1.3410 H   0  0  0  0  0  0  0  0  0  0  0  0
    2.2780    1.7140    0.2140 H   0  0  0  0  0  0  0  0  0  0  0  0
    3.1450    3.5800   -0.8550 H   0  0  0  0  0  0  0  0  0  0  0  0
    1.6300    4.5000   -0.7230 H   0  0  0  0  0  0  0  0  0  0  0  0
    1.7260    3.1860   -1.9680 H   0  0  0  0  0  0  0  0  0  0  0  0
    0.3650    1.3540   -1.1630 H   0  0  0  0  0  0  0  0  0  0  0  0
   -0.5410    2.7980   -0.4380 H   0  0  0  0  0  0  0  0  0  0  0  0
   -0.3440    1.5560    1.8000 H   0  0  0  0  0  0  0  0  0  0  0  0
    0.8290   -0.5990    0.0110 H   0  0  0  0  0  0  0  0  0  0  0  0
   -1.2510   -0.8230   -2.6920 C   0  0  0  0  0  0  0  0  0  0  0  0
   -2.5740   -1.5090   -2.7000 C   0  0  0  0  0  0  0  0  0  0  0  0
   -3.6230   -0.4840   -3.0770 C   0  0  0  0  0  0  0  0  0  0  0  0
   -2.9210   -2.2870   -1.4890 C   0  0  0  0  0  0  0  0  0  0  0  0
   -2.9920   -1.5470   -0.2040 C   0  0  2  0  0  0  0  0  0  0  0  0
   -1.7520   -0.9140    0.1850 N   0  0  0  0  0  0  0  0  0  0  0  0
   -3.4870   -2.4520    0.8820 C   0  0  0  0  0  0  0  0  0  0  0  0
   -2.8290   -2.5650    1.9440 O   0  0  0  0  0  0  0  0  0  0  0  0
   -4.6570   -3.1790    0.7620 O   0  0  0  0  0  0  0  0  0  0  0  0
   -0.5160   -1.2860   -2.0300 H   0  0  0  0  0  0  0  0  0  0  0  0
   -1.3360    0.2720   -2.4460 H   0  0  0  0  0  0  0  0  0  0  0  0
   -0.7700   -0.8160   -3.7120 H   0  0  0  0  0  0  0  0  0  0  0  0
   -2.5510   -2.2310   -3.5660 H   0  0  0  0  0  0  0  0  0  0  0  0
   -4.6540   -0.8920   -3.0100 H   0  0  0  0  0  0  0  0  0  0  0  0
   -3.4570   -0.2420   -4.1500 H   0  0  0  0  0  0  0  0  0  0  0  0
   -3.4960    0.4610   -2.5190 H   0  0  0  0  0  0  0  0  0  0  0  0
   -2.1300   -3.0880   -1.3800 H   0  0  0  0  0  0  0  0  0  0  0  0
   -3.8670   -2.8700   -1.6060 H   0  0  0  0  0  0  0  0  0  0  0  0
   -3.7480   -0.7310   -0.2560 H   0  0  0  0  0  0  0  0  0  0  0  0
   -0.9300   -1.5790    0.2900 H   0  0  0  0  0  0  0  0  0  0  0  0
  1 11  1  0  0  0  0
  1 10  1  0  0  0  0
  2 12  1  0  0  0  0
  2  1  1  0  0  0  0
  3 14  1  6  0  0  0
  3  5  1  0  0  0  0
  3  2  1  0  0  0  0
  4  3  1  0  0  0  0
  4 16  1  0  0  0  0
  5 18  1  6  0  0  0
  5  6  1  0  0  0  0
  6 20  1  0  0  0  0
  6 19  1  0  0  0  0
  7  5  1  0  0  0  0
  7  8  2  0  0  0  0
  9  1  1  0  0  0  0
 13  2  1  0  0  0  0
 15  4  1  0  0  0  0
 17  4  1  0  0  0  0
 21 29  1  0  0  0  0
 21 30  1  0  0  0  0
 22 32  1  0  0  0  0
 22 21  1  0  0  0  0
 23 33  1  0  0  0  0
 23 34  1  0  0  0  0
 23 22  1  0  0  0  0
 24 22  1  0  0  0  0
 24 25  1  0  0  0  0
 25 26  1  0  0  0  0
 25 38  1  1  0  0  0
 26  7  1  0  0  0  0
 27 25  1  0  0  0  0
 28 27  2  0  0  0  0
 31 21  1  0  0  0  0
 35 23  1  0  0  0  0
 36 24  1  0  0  0  0
 37 24  1  0  0  0  0
 39 26  1  0  0  0  0
 40 50  1  0  0  0  0
 40 49  1  0  0  0  0
 41 40  1  0  0  0  0
 41 43  1  0  0  0  0
 42 53  1  0  0  0  0
 42 41  1  0  0  0  0
 42 55  1  0  0  0  0
 43 56  1  0  0  0  0
 43 44  1  0  0  0  0
 44 58  1  6  0  0  0
 44 45  1  0  0  0  0
 44 46  1  0  0  0  0
 45 59  1  0  0  0  0
 45 27  1  0  0  0  0
 46 47  1  0  0  0  0
 48 46  2  0  0  0  0
 51 40  1  0  0  0  0
 52 41  1  0  0  0  0
 54 42  1  0  0  0  0
 57 43  1  0  0  0  0
M  END
$$$$
