ILM.pdb
 OpenBabel07022418413D

 57 56  0  0  1  0  0  0  0  0999 V2000
    5.6300   -1.0670    1.1500 C   0  0  0  0  0  0  0  0  0  0  0  0
    4.7290   -0.7470    0.0130 C   0  0  0  0  0  0  0  0  0  0  0  0
    3.2660   -1.0920    0.2360 C   0  0  2  0  0  0  0  0  0  0  0  0
    2.5890   -0.6720   -1.0810 C   0  0  0  0  0  0  0  0  0  0  0  0
    2.7450   -0.2480    1.3760 C   0  0  2  0  0  0  0  0  0  0  0  0
    3.6190   -0.6080    2.5270 N   0  0  0  0  0  0  0  0  0  0  0  0
    1.3430   -0.5060    1.7460 C   0  0  0  0  0  0  0  0  0  0  0  0
    1.1390   -1.0650    2.8840 O   0  0  0  0  0  0  0  0  0  0  0  0
    5.3640   -1.9520    1.7360 H   0  0  0  0  0  0  0  0  0  0  0  0
    6.6670   -1.3010    0.7480 H   0  0  0  0  0  0  0  0  0  0  0  0
    5.7860   -0.1370    1.7530 H   0  0  0  0  0  0  0  0  0  0  0  0
    4.7740    0.2970   -0.3060 H   0  0  0  0  0  0  0  0  0  0  0  0
    5.0440   -1.3600   -0.8820 H   0  0  0  0  0  0  0  0  0  0  0  0
    3.0920   -2.1460    0.4790 H   0  0  0  0  0  0  0  0  0  0  0  0
    1.7520   -1.3330   -1.3060 H   0  0  0  0  0  0  0  0  0  0  0  0
    3.3170   -0.8470   -1.9350 H   0  0  0  0  0  0  0  0  0  0  0  0
    2.4000    0.3970   -1.0490 H   0  0  0  0  0  0  0  0  0  0  0  0
    2.9430    0.8360    1.2130 H   0  0  0  0  0  0  0  0  0  0  0  0
    3.2490   -1.5000    2.9560 H   0  0  0  0  0  0  0  0  0  0  0  0
    3.6460    0.1770    3.2150 H   0  0  0  0  0  0  0  0  0  0  0  0
   -1.1420    1.0910    3.9680 C   0  0  0  0  0  0  0  0  0  0  0  0
   -1.2280    1.7170    2.6150 C   0  0  0  0  0  0  0  0  0  0  0  0
   -1.9140    3.0680    2.7630 C   0  0  0  0  0  0  0  0  0  0  0  0
   -1.9110    0.8540    1.6030 C   0  0  0  0  0  0  0  0  0  0  0  0
   -1.1470   -0.4660    1.4280 C   0  0  2  0  0  0  0  0  0  0  0  0
    0.2000   -0.1960    0.9770 N   0  0  0  0  0  0  0  0  0  0  0  0
   -1.9050   -1.3990    0.5790 C   0  0  0  0  0  0  0  0  0  0  0  0
   -3.1030   -1.7380    0.8990 O   0  0  0  0  0  0  0  0  0  0  0  0
   -1.6790    0.1340    4.0170 H   0  0  0  0  0  0  0  0  0  0  0  0
   -0.0960    0.9150    4.3050 H   0  0  0  0  0  0  0  0  0  0  0  0
   -1.5760    1.7730    4.7610 H   0  0  0  0  0  0  0  0  0  0  0  0
   -0.2150    1.9620    2.1910 H   0  0  0  0  0  0  0  0  0  0  0  0
   -2.2740    3.4140    1.7890 H   0  0  0  0  0  0  0  0  0  0  0  0
   -2.7000    3.0270    3.5470 H   0  0  0  0  0  0  0  0  0  0  0  0
   -1.1410    3.7880    3.1160 H   0  0  0  0  0  0  0  0  0  0  0  0
   -2.9380    0.6450    1.9890 H   0  0  0  0  0  0  0  0  0  0  0  0
   -2.0440    1.3620    0.6430 H   0  0  0  0  0  0  0  0  0  0  0  0
   -1.0580   -0.9430    2.4330 H   0  0  0  0  0  0  0  0  0  0  0  0
    0.3190    0.2460    0.0470 H   0  0  0  0  0  0  0  0  0  0  0  0
   -4.5670   -0.4300   -1.6630 C   0  0  0  0  0  0  0  0  0  0  0  0
   -4.1880   -0.9460   -3.3390 S   0  0  0  0  0  0  0  0  0  0  0  0
   -2.4970   -1.5040   -3.5050 C   0  0  0  0  0  0  0  0  0  0  0  0
   -2.1530   -2.7780   -2.8480 C   0  0  0  0  0  0  0  0  0  0  0  0
   -2.2660   -2.9000   -1.3800 C   0  0  2  0  0  0  0  0  0  0  0  0
   -1.4420   -1.9970   -0.6140 N   0  0  0  0  0  0  0  0  0  0  0  0
   -1.6950   -4.2800   -1.0460 C   0  0  0  0  0  0  0  0  0  0  0  0
   -2.2040   -5.2800   -1.5670 O   0  0  0  0  0  0  0  0  0  0  0  0
   -0.6290   -4.4420   -0.1830 O   0  0  0  0  0  0  0  0  0  0  0  0
   -4.9910   -1.2570   -1.0930 H   0  0  0  0  0  0  0  0  0  0  0  0
   -3.6800   -0.0130   -1.1640 H   0  0  0  0  0  0  0  0  0  0  0  0
   -5.3380    0.3920   -1.6430 H   0  0  0  0  0  0  0  0  0  0  0  0
   -2.3280   -1.6600   -4.6190 H   0  0  0  0  0  0  0  0  0  0  0  0
   -1.7610   -0.6800   -3.2500 H   0  0  0  0  0  0  0  0  0  0  0  0
   -2.8360   -3.5670   -3.3080 H   0  0  0  0  0  0  0  0  0  0  0  0
   -1.1080   -3.0500   -3.1640 H   0  0  0  0  0  0  0  0  0  0  0  0
   -3.3330   -2.9140   -1.0500 H   0  0  0  0  0  0  0  0  0  0  0  0
   -0.4920   -1.7930   -0.9650 H   0  0  0  0  0  0  0  0  0  0  0  0
  1  9  1  0  0  0  0
  1 11  1  0  0  0  0
  2  3  1  0  0  0  0
  2  1  1  0  0  0  0
  3 14  1  1  0  0  0
  3  5  1  0  0  0  0
  4 17  1  0  0  0  0
  4  3  1  0  0  0  0
  5 18  1  6  0  0  0
  5  7  1  0  0  0  0
  5  6  1  0  0  0  0
  6 19  1  0  0  0  0
  6 20  1  0  0  0  0
  7  8  2  0  0  0  0
 10  1  1  0  0  0  0
 12  2  1  0  0  0  0
 13  2  1  0  0  0  0
 15  4  1  0  0  0  0
 16  4  1  0  0  0  0
 21 29  1  0  0  0  0
 21 30  1  0  0  0  0
 21 31  1  0  0  0  0
 22 23  1  0  0  0  0
 22 21  1  0  0  0  0
 23 35  1  0  0  0  0
 23 34  1  0  0  0  0
 24 36  1  0  0  0  0
 24 22  1  0  0  0  0
 25 24  1  0  0  0  0
 25 38  1  1  0  0  0
 26 25  1  0  0  0  0
 26  7  1  0  0  0  0
 27 28  2  0  0  0  0
 27 25  1  0  0  0  0
 32 22  1  0  0  0  0
 33 23  1  0  0  0  0
 37 24  1  0  0  0  0
 39 26  1  0  0  0  0
 40 51  1  0  0  0  0
 40 50  1  0  0  0  0
 40 49  1  0  0  0  0
 41 40  1  0  0  0  0
 42 41  1  0  0  0  0
 42 53  1  0  0  0  0
 42 43  1  0  0  0  0
 43 44  1  0  0  0  0
 44 56  1  1  0  0  0
 44 46  1  0  0  0  0
 44 45  1  0  0  0  0
 45 27  1  0  0  0  0
 46 48  1  0  0  0  0
 47 46  2  0  0  0  0
 52 42  1  0  0  0  0
 54 43  1  0  0  0  0
 55 43  1  0  0  0  0
 57 45  1  0  0  0  0
M  END
$$$$
