ILQ.pdb
 OpenBabel07022418413D

 57 56  0  0  1  0  0  0  0  0999 V2000
    4.9200   -3.8890    3.1880 C   0  0  0  0  0  0  0  0  0  0  0  0
    4.7320   -3.4300    1.7730 C   0  0  0  0  0  0  0  0  0  0  0  0
    3.3890   -2.7870    1.5390 C   0  0  2  0  0  0  0  0  0  0  0  0
    3.2590   -2.3630    0.0830 C   0  0  0  0  0  0  0  0  0  0  0  0
    3.1830   -1.5530    2.4210 C   0  0  2  0  0  0  0  0  0  0  0  0
    3.2810   -2.0620    3.8000 N   0  0  0  0  0  0  0  0  0  0  0  0
    1.7730   -1.1060    2.2330 C   0  0  0  0  0  0  0  0  0  0  0  0
    0.8920   -1.4320    3.1050 O   0  0  0  0  0  0  0  0  0  0  0  0
    5.6480   -4.7470    3.2440 H   0  0  0  0  0  0  0  0  0  0  0  0
    5.3510   -3.1270    3.8680 H   0  0  0  0  0  0  0  0  0  0  0  0
    3.9920   -4.2730    3.6440 H   0  0  0  0  0  0  0  0  0  0  0  0
    4.7730   -4.3530    1.1300 H   0  0  0  0  0  0  0  0  0  0  0  0
    5.5560   -2.7360    1.4680 H   0  0  0  0  0  0  0  0  0  0  0  0
    2.6110   -3.5480    1.7390 H   0  0  0  0  0  0  0  0  0  0  0  0
    2.2120   -2.2990   -0.2620 H   0  0  0  0  0  0  0  0  0  0  0  0
    3.7100   -3.1830   -0.5360 H   0  0  0  0  0  0  0  0  0  0  0  0
    3.8230   -1.4340   -0.1100 H   0  0  0  0  0  0  0  0  0  0  0  0
    3.9280   -0.7810    2.2130 H   0  0  0  0  0  0  0  0  0  0  0  0
    3.4460   -1.2920    4.4790 H   0  0  0  0  0  0  0  0  0  0  0  0
    2.3520   -2.4810    4.0270 H   0  0  0  0  0  0  0  0  0  0  0  0
    1.7750    2.5110    0.3950 C   0  0  0  0  0  0  0  0  0  0  0  0
    0.2900    2.4910    0.4220 C   0  0  0  0  0  0  0  0  0  0  0  0
   -0.1820    3.8680    0.9250 C   0  0  0  0  0  0  0  0  0  0  0  0
   -0.3600    1.4980    1.3090 C   0  0  0  0  0  0  0  0  0  0  0  0
   -0.0920    0.0570    1.0570 C   0  0  2  0  0  0  0  0  0  0  0  0
    1.2980   -0.3330    1.1600 N   0  0  0  0  0  0  0  0  0  0  0  0
   -0.7050   -0.3980   -0.2090 C   0  0  0  0  0  0  0  0  0  0  0  0
   -0.0530   -1.0090   -1.1040 O   0  0  0  0  0  0  0  0  0  0  0  0
    2.1900    2.1340    1.3300 H   0  0  0  0  0  0  0  0  0  0  0  0
    2.1020    3.5980    0.3550 H   0  0  0  0  0  0  0  0  0  0  0  0
    2.2120    2.0840   -0.5320 H   0  0  0  0  0  0  0  0  0  0  0  0
   -0.1100    2.4590   -0.6350 H   0  0  0  0  0  0  0  0  0  0  0  0
    0.5180    4.1120    1.7640 H   0  0  0  0  0  0  0  0  0  0  0  0
   -0.0400    4.6430    0.1640 H   0  0  0  0  0  0  0  0  0  0  0  0
   -1.2150    3.7950    1.3040 H   0  0  0  0  0  0  0  0  0  0  0  0
   -0.1060    1.7610    2.3670 H   0  0  0  0  0  0  0  0  0  0  0  0
   -1.4590    1.6670    1.2460 H   0  0  0  0  0  0  0  0  0  0  0  0
   -0.6390   -0.4890    1.8820 H   0  0  0  0  0  0  0  0  0  0  0  0
    1.9880   -0.0510    0.4390 H   0  0  0  0  0  0  0  0  0  0  0  0
   -6.8500   -3.4080   -2.5030 N   0  0  0  0  0  0  0  0  0  0  0  0
   -5.8660   -2.7710   -1.6960 C   0  0  0  0  0  0  0  0  0  0  0  0
   -5.8940   -2.9230   -0.4260 O   0  0  0  0  0  0  0  0  0  0  0  0
   -4.7940   -1.9250   -2.2790 C   0  0  0  0  0  0  0  0  0  0  0  0
   -3.9260   -1.4010   -1.1860 C   0  0  0  0  0  0  0  0  0  0  0  0
   -2.7980   -0.5310   -1.6280 C   0  0  2  0  0  0  0  0  0  0  0  0
   -2.0810   -0.1310   -0.4120 N   0  0  0  0  0  0  0  0  0  0  0  0
   -3.2520    0.7280   -2.2720 C   0  0  0  0  0  0  0  0  0  0  0  0
   -3.8990    0.7160   -3.3490 O   0  0  0  0  0  0  0  0  0  0  0  0
   -2.9940    1.9950   -1.7350 O   0  0  0  0  0  0  0  0  0  0  0  0
   -7.1400   -4.3690   -2.2440 H   0  0  0  0  0  0  0  0  0  0  0  0
   -7.2350   -2.8930   -3.3110 H   0  0  0  0  0  0  0  0  0  0  0  0
   -4.1550   -2.5130   -2.9670 H   0  0  0  0  0  0  0  0  0  0  0  0
   -5.2580   -1.1220   -2.8910 H   0  0  0  0  0  0  0  0  0  0  0  0
   -3.4760   -2.2830   -0.6670 H   0  0  0  0  0  0  0  0  0  0  0  0
   -4.5070   -0.8210   -0.4180 H   0  0  0  0  0  0  0  0  0  0  0  0
   -2.0660   -1.0400   -2.2760 H   0  0  0  0  0  0  0  0  0  0  0  0
   -2.6400    0.3630    0.3060 H   0  0  0  0  0  0  0  0  0  0  0  0
  1  9  1  0  0  0  0
  1 11  1  0  0  0  0
  1 10  1  0  0  0  0
  2  1  1  0  0  0  0
  3 14  1  1  0  0  0
  3  2  1  0  0  0  0
  3  5  1  0  0  0  0
  4  3  1  0  0  0  0
  5 18  1  6  0  0  0
  5  6  1  0  0  0  0
  6 20  1  0  0  0  0
  6 19  1  0  0  0  0
  7  5  1  0  0  0  0
  7  8  2  0  0  0  0
 12  2  1  0  0  0  0
 13  2  1  0  0  0  0
 15  4  1  0  0  0  0
 16  4  1  0  0  0  0
 17  4  1  0  0  0  0
 21 22  1  0  0  0  0
 21 29  1  0  0  0  0
 22 23  1  0  0  0  0
 22 24  1  0  0  0  0
 23 35  1  0  0  0  0
 23 33  1  0  0  0  0
 24 36  1  0  0  0  0
 25 26  1  0  0  0  0
 25 24  1  0  0  0  0
 25 38  1  1  0  0  0
 26  7  1  0  0  0  0
 27 25  1  0  0  0  0
 28 27  2  0  0  0  0
 30 21  1  0  0  0  0
 31 21  1  0  0  0  0
 32 22  1  0  0  0  0
 34 23  1  0  0  0  0
 37 24  1  0  0  0  0
 39 26  1  0  0  0  0
 40 50  1  0  0  0  0
 40 41  1  0  0  0  0
 41 42  2  0  0  0  0
 43 41  1  0  0  0  0
 43 44  1  0  0  0  0
 44 54  1  0  0  0  0
 44 55  1  0  0  0  0
 45 56  1  6  0  0  0
 45 44  1  0  0  0  0
 45 46  1  0  0  0  0
 46 27  1  0  0  0  0
 46 57  1  0  0  0  0
 47 49  1  0  0  0  0
 47 45  1  0  0  0  0
 48 47  2  0  0  0  0
 51 40  1  0  0  0  0
 52 43  1  0  0  0  0
 53 43  1  0  0  0  0
M  END
$$$$
