ILS.pdb
 OpenBabel07022418423D

 51 50  0  0  1  0  0  0  0  0999 V2000
    1.2110   -5.8270    0.6790 C   0  0  0  0  0  0  0  0  0  0  0  0
    2.0560   -4.7010    1.2290 C   0  0  0  0  0  0  0  0  0  0  0  0
    1.1360   -3.5310    1.5430 C   0  0  2  0  0  0  0  0  0  0  0  0
    0.4870   -3.1620    0.2270 C   0  0  0  0  0  0  0  0  0  0  0  0
    1.9680   -2.3180    1.9840 C   0  0  2  0  0  0  0  0  0  0  0  0
    2.7010   -2.7820    3.1750 N   0  0  0  0  0  0  0  0  0  0  0  0
    1.0490   -1.2220    2.3570 C   0  0  0  0  0  0  0  0  0  0  0  0
    0.7250   -1.0650    3.5740 O   0  0  0  0  0  0  0  0  0  0  0  0
    1.5610   -6.7950    1.1100 H   0  0  0  0  0  0  0  0  0  0  0  0
    0.1370   -5.7180    0.9760 H   0  0  0  0  0  0  0  0  0  0  0  0
    1.3050   -5.9310   -0.4270 H   0  0  0  0  0  0  0  0  0  0  0  0
    2.7600   -4.3810    0.4490 H   0  0  0  0  0  0  0  0  0  0  0  0
    2.5270   -5.0210    2.1610 H   0  0  0  0  0  0  0  0  0  0  0  0
    0.3830   -3.7700    2.3040 H   0  0  0  0  0  0  0  0  0  0  0  0
    0.2960   -4.0840   -0.3810 H   0  0  0  0  0  0  0  0  0  0  0  0
   -0.4580   -2.6780    0.4810 H   0  0  0  0  0  0  0  0  0  0  0  0
    1.2130   -2.5510   -0.3370 H   0  0  0  0  0  0  0  0  0  0  0  0
    2.6620   -2.0170    1.2090 H   0  0  0  0  0  0  0  0  0  0  0  0
    3.1090   -1.9050    3.5940 H   0  0  0  0  0  0  0  0  0  0  0  0
    3.5110   -3.3320    2.7890 H   0  0  0  0  0  0  0  0  0  0  0  0
    1.9370    3.7160    1.0110 C   0  0  0  0  0  0  0  0  0  0  0  0
    1.1250    2.4420    0.7530 C   0  0  0  0  0  0  0  0  0  0  0  0
    0.1840    2.7380   -0.3620 C   0  0  0  0  0  0  0  0  0  0  0  0
    0.4150    2.0010    1.9940 C   0  0  0  0  0  0  0  0  0  0  0  0
   -0.4040    0.7600    1.8590 C   0  0  2  0  0  0  0  0  0  0  0  0
    0.4900   -0.3030    1.4370 N   0  0  0  0  0  0  0  0  0  0  0  0
   -1.6130    0.8510    1.0690 C   0  0  0  0  0  0  0  0  0  0  0  0
   -2.5730    1.6440    1.3280 O   0  0  0  0  0  0  0  0  0  0  0  0
    2.6400    3.9000    0.1730 H   0  0  0  0  0  0  0  0  0  0  0  0
    2.5740    3.5830    1.9180 H   0  0  0  0  0  0  0  0  0  0  0  0
    1.2670    4.5600    1.1770 H   0  0  0  0  0  0  0  0  0  0  0  0
    1.8680    1.6990    0.4030 H   0  0  0  0  0  0  0  0  0  0  0  0
   -0.7880    3.1390   -0.0560 H   0  0  0  0  0  0  0  0  0  0  0  0
    0.6980    3.4890   -1.0400 H   0  0  0  0  0  0  0  0  0  0  0  0
    0.0610    1.8380   -0.9950 H   0  0  0  0  0  0  0  0  0  0  0  0
   -0.2600    2.7940    2.3960 H   0  0  0  0  0  0  0  0  0  0  0  0
    1.2080    1.8860    2.7880 H   0  0  0  0  0  0  0  0  0  0  0  0
   -0.6970    0.5030    2.9350 H   0  0  0  0  0  0  0  0  0  0  0  0
    0.7230   -0.3830    0.4420 H   0  0  0  0  0  0  0  0  0  0  0  0
   -2.2910    1.8090   -2.3850 O   0  0  0  0  0  0  0  0  0  0  0  0
   -2.8620    0.5430   -2.2920 C   0  0  0  0  0  0  0  0  0  0  0  0
   -3.0510    0.1250   -0.8730 C   0  0  2  0  0  0  0  0  0  0  0  0
   -1.8480    0.0480   -0.0890 N   0  0  0  0  0  0  0  0  0  0  0  0
   -3.8360   -1.1180   -0.8640 C   0  0  0  0  0  0  0  0  0  0  0  0
   -4.9040   -1.1380   -1.5240 O   0  0  0  0  0  0  0  0  0  0  0  0
   -3.4940   -2.2750   -0.1830 O   0  0  0  0  0  0  0  0  0  0  0  0
   -2.9280    2.5100   -2.6380 H   0  0  0  0  0  0  0  0  0  0  0  0
   -2.3100   -0.2070   -2.9020 H   0  0  0  0  0  0  0  0  0  0  0  0
   -3.8900    0.6450   -2.7320 H   0  0  0  0  0  0  0  0  0  0  0  0
   -3.7090    0.9050   -0.3980 H   0  0  0  0  0  0  0  0  0  0  0  0
   -1.1270   -0.6310   -0.4130 H   0  0  0  0  0  0  0  0  0  0  0  0
  1 10  1  0  0  0  0
  1  9  1  0  0  0  0
  1  2  1  0  0  0  0
  2  3  1  0  0  0  0
  2 13  1  0  0  0  0
  3  5  1  0  0  0  0
  3 14  1  1  0  0  0
  4 16  1  0  0  0  0
  4  3  1  0  0  0  0
  5 18  1  6  0  0  0
  5  7  1  0  0  0  0
  5  6  1  0  0  0  0
  6 19  1  0  0  0  0
  7  8  2  0  0  0  0
 11  1  1  0  0  0  0
 12  2  1  0  0  0  0
 15  4  1  0  0  0  0
 17  4  1  0  0  0  0
 20  6  1  0  0  0  0
 21 31  1  0  0  0  0
 21 30  1  0  0  0  0
 22 21  1  0  0  0  0
 22 24  1  0  0  0  0
 23 33  1  0  0  0  0
 23 22  1  0  0  0  0
 24 36  1  0  0  0  0
 24 37  1  0  0  0  0
 25 24  1  0  0  0  0
 25 38  1  1  0  0  0
 26 25  1  0  0  0  0
 26  7  1  0  0  0  0
 27 28  2  0  0  0  0
 27 25  1  0  0  0  0
 29 21  1  0  0  0  0
 32 22  1  0  0  0  0
 34 23  1  0  0  0  0
 35 23  1  0  0  0  0
 39 26  1  0  0  0  0
 40 41  1  0  0  0  0
 41 42  1  0  0  0  0
 42 44  1  0  0  0  0
 42 50  1  1  0  0  0
 42 43  1  0  0  0  0
 43 27  1  0  0  0  0
 44 46  1  0  0  0  0
 45 44  2  0  0  0  0
 47 40  1  0  0  0  0
 48 41  1  0  0  0  0
 49 41  1  0  0  0  0
 51 43  1  0  0  0  0
M  END
$$$$
