ILT.pdb
 OpenBabel07022418423D

 54 53  0  0  1  0  0  0  0  0999 V2000
   -4.3290   -0.2450    2.8770 C   0  0  0  0  0  0  0  0  0  0  0  0
   -3.1830   -0.5230    3.7790 C   0  0  0  0  0  0  0  0  0  0  0  0
   -1.8730   -0.0120    3.1570 C   0  0  2  0  0  0  0  0  0  0  0  0
   -2.0560    1.4580    2.9780 C   0  0  0  0  0  0  0  0  0  0  0  0
   -1.7250   -0.7980    1.8780 C   0  0  2  0  0  0  0  0  0  0  0  0
   -1.6970   -2.2190    2.2190 N   0  0  0  0  0  0  0  0  0  0  0  0
   -0.5180   -0.5170    1.1040 C   0  0  0  0  0  0  0  0  0  0  0  0
    0.2640   -1.5020    0.8450 O   0  0  0  0  0  0  0  0  0  0  0  0
   -5.2780   -0.0500    3.4600 H   0  0  0  0  0  0  0  0  0  0  0  0
   -4.2250    0.5620    2.1570 H   0  0  0  0  0  0  0  0  0  0  0  0
   -4.5840   -1.1600    2.2600 H   0  0  0  0  0  0  0  0  0  0  0  0
   -3.0950   -1.5920    4.0410 H   0  0  0  0  0  0  0  0  0  0  0  0
   -3.3070    0.0660    4.7110 H   0  0  0  0  0  0  0  0  0  0  0  0
   -1.0650   -0.2060    3.8830 H   0  0  0  0  0  0  0  0  0  0  0  0
   -2.6360    1.7710    2.0980 H   0  0  0  0  0  0  0  0  0  0  0  0
   -2.6610    1.8540    3.8580 H   0  0  0  0  0  0  0  0  0  0  0  0
   -1.0970    2.0290    3.0810 H   0  0  0  0  0  0  0  0  0  0  0  0
   -2.6230   -0.6270    1.2640 H   0  0  0  0  0  0  0  0  0  0  0  0
   -2.6680   -2.6130    2.3290 H   0  0  0  0  0  0  0  0  0  0  0  0
   -1.3010   -2.7000    1.3610 H   0  0  0  0  0  0  0  0  0  0  0  0
    1.9420    0.4030    2.8420 C   0  0  0  0  0  0  0  0  0  0  0  0
    2.8510    0.5120    1.6590 C   0  0  0  0  0  0  0  0  0  0  0  0
    4.1750    1.1400    2.1150 C   0  0  0  0  0  0  0  0  0  0  0  0
    2.3350    1.3200    0.5110 C   0  0  0  0  0  0  0  0  0  0  0  0
    1.1020    0.8530   -0.1580 C   0  0  2  0  0  0  0  0  0  0  0  0
   -0.0910    0.7280    0.5960 N   0  0  0  0  0  0  0  0  0  0  0  0
    1.3060   -0.1340   -1.2490 C   0  0  0  0  0  0  0  0  0  0  0  0
    2.4600   -0.3000   -1.7750 O   0  0  0  0  0  0  0  0  0  0  0  0
    1.5870   -0.6340    3.0580 H   0  0  0  0  0  0  0  0  0  0  0  0
    1.0820    1.0770    2.8410 H   0  0  0  0  0  0  0  0  0  0  0  0
    2.5170    0.6900    3.7850 H   0  0  0  0  0  0  0  0  0  0  0  0
    3.0870   -0.5420    1.3440 H   0  0  0  0  0  0  0  0  0  0  0  0
    5.0110    0.7140    1.4980 H   0  0  0  0  0  0  0  0  0  0  0  0
    4.1650    2.2370    2.0150 H   0  0  0  0  0  0  0  0  0  0  0  0
    4.4040    0.8960    3.1640 H   0  0  0  0  0  0  0  0  0  0  0  0
    3.1760    1.5040   -0.2290 H   0  0  0  0  0  0  0  0  0  0  0  0
    2.1920    2.3690    0.9390 H   0  0  0  0  0  0  0  0  0  0  0  0
    0.8290    1.7960   -0.8490 H   0  0  0  0  0  0  0  0  0  0  0  0
   -0.7040    1.5620    0.8030 H   0  0  0  0  0  0  0  0  0  0  0  0
    0.4370   -4.3130   -3.4840 C   0  0  0  0  0  0  0  0  0  0  0  0
    0.0630   -3.2750   -2.4740 C   0  0  1  0  0  0  0  0  0  0  0  0
    0.8120   -3.6100   -1.3110 O   0  0  0  0  0  0  0  0  0  0  0  0
    0.5210   -1.8970   -2.8660 C   0  0  2  0  0  0  0  0  0  0  0  0
    0.2850   -0.9370   -1.7860 N   0  0  0  0  0  0  0  0  0  0  0  0
   -0.2350   -1.4810   -4.0760 C   0  0  0  0  0  0  0  0  0  0  0  0
   -1.0120   -0.4950   -4.0650 O   0  0  0  0  0  0  0  0  0  0  0  0
   -0.1030   -2.1690   -5.2580 O   0  0  0  0  0  0  0  0  0  0  0  0
    0.1370   -5.3330   -3.0680 H   0  0  0  0  0  0  0  0  0  0  0  0
    1.5300   -4.3540   -3.6340 H   0  0  0  0  0  0  0  0  0  0  0  0
   -0.0950   -4.2690   -4.4470 H   0  0  0  0  0  0  0  0  0  0  0  0
   -1.0200   -3.2530   -2.2600 H   0  0  0  0  0  0  0  0  0  0  0  0
    0.2280   -4.1680   -0.7130 H   0  0  0  0  0  0  0  0  0  0  0  0
    1.6060   -1.9170   -3.0510 H   0  0  0  0  0  0  0  0  0  0  0  0
   -0.6970   -0.8790   -1.4710 H   0  0  0  0  0  0  0  0  0  0  0  0
  1  9  1  0  0  0  0
  1  2  1  0  0  0  0
  2 12  1  0  0  0  0
  2 13  1  0  0  0  0
  3  2  1  0  0  0  0
  3 14  1  1  0  0  0
  4 17  1  0  0  0  0
  4  3  1  0  0  0  0
  4 16  1  0  0  0  0
  5 18  1  6  0  0  0
  5  6  1  0  0  0  0
  5  3  1  0  0  0  0
  6 19  1  0  0  0  0
  7  5  1  0  0  0  0
  8  7  2  0  0  0  0
 10  1  1  0  0  0  0
 11  1  1  0  0  0  0
 15  4  1  0  0  0  0
 20  6  1  0  0  0  0
 21 29  1  0  0  0  0
 21 31  1  0  0  0  0
 22 23  1  0  0  0  0
 22 21  1  0  0  0  0
 23 35  1  0  0  0  0
 24 37  1  0  0  0  0
 24 22  1  0  0  0  0
 25 38  1  6  0  0  0
 25 24  1  0  0  0  0
 25 26  1  0  0  0  0
 26 39  1  0  0  0  0
 26  7  1  0  0  0  0
 27 25  1  0  0  0  0
 28 27  2  0  0  0  0
 30 21  1  0  0  0  0
 32 22  1  0  0  0  0
 33 23  1  0  0  0  0
 34 23  1  0  0  0  0
 36 24  1  0  0  0  0
 40 48  1  0  0  0  0
 40 41  1  0  0  0  0
 41 51  1  1  0  0  0
 41 42  1  0  0  0  0
 42 52  1  0  0  0  0
 43 53  1  6  0  0  0
 43 41  1  0  0  0  0
 43 44  1  0  0  0  0
 44 54  1  0  0  0  0
 44 27  1  0  0  0  0
 45 46  1  0  0  0  0
 45 43  1  0  0  0  0
 47 45  2  0  0  0  0
 49 40  1  0  0  0  0
 50 40  1  0  0  0  0
M  END
$$$$
