ILV.pdb
 OpenBabel07022418423D

 56 55  0  0  1  0  0  0  0  0999 V2000
    1.4970   -5.4000    2.3660 C   0  0  0  0  0  0  0  0  0  0  0  0
    2.1750   -4.0560    2.5560 C   0  0  0  0  0  0  0  0  0  0  0  0
    1.1650   -2.9800    2.1870 C   0  0  2  0  0  0  0  0  0  0  0  0
    0.7950   -3.2180    0.7510 C   0  0  0  0  0  0  0  0  0  0  0  0
    1.7500   -1.5960    2.4330 C   0  0  2  0  0  0  0  0  0  0  0  0
    2.0660   -1.5790    3.8840 N   0  0  0  0  0  0  0  0  0  0  0  0
    0.6940   -0.6020    2.1580 C   0  0  0  0  0  0  0  0  0  0  0  0
   -0.0110   -0.2130    3.1550 O   0  0  0  0  0  0  0  0  0  0  0  0
    0.3900   -5.3130    2.4380 H   0  0  0  0  0  0  0  0  0  0  0  0
    1.7890   -5.9020    1.4220 H   0  0  0  0  0  0  0  0  0  0  0  0
    1.8050   -6.0720    3.2060 H   0  0  0  0  0  0  0  0  0  0  0  0
    2.4590   -3.9290    3.5990 H   0  0  0  0  0  0  0  0  0  0  0  0
    3.0140   -3.9520    1.8310 H   0  0  0  0  0  0  0  0  0  0  0  0
    0.2620   -3.0470    2.8500 H   0  0  0  0  0  0  0  0  0  0  0  0
    1.0330   -4.2770    0.4560 H   0  0  0  0  0  0  0  0  0  0  0  0
   -0.2900   -3.0430    0.5760 H   0  0  0  0  0  0  0  0  0  0  0  0
    1.4040   -2.5950    0.0990 H   0  0  0  0  0  0  0  0  0  0  0  0
    2.6730   -1.4770    1.8710 H   0  0  0  0  0  0  0  0  0  0  0  0
    2.1030   -0.5770    4.2010 H   0  0  0  0  0  0  0  0  0  0  0  0
    3.0620   -1.9340    3.9700 H   0  0  0  0  0  0  0  0  0  0  0  0
    0.1960    2.9900    2.7670 C   0  0  0  0  0  0  0  0  0  0  0  0
    0.8270    2.7830    1.4310 C   0  0  0  0  0  0  0  0  0  0  0  0
    1.4980    4.1060    1.0310 C   0  0  0  0  0  0  0  0  0  0  0  0
   -0.0950    2.3070    0.3650 C   0  0  0  0  0  0  0  0  0  0  0  0
   -0.6880    0.9600    0.7550 C   0  0  2  0  0  0  0  0  0  0  0  0
    0.3680   -0.0220    0.9280 N   0  0  0  0  0  0  0  0  0  0  0  0
   -1.7160    0.5440   -0.2370 C   0  0  0  0  0  0  0  0  0  0  0  0
   -2.7190    1.2840   -0.4480 O   0  0  0  0  0  0  0  0  0  0  0  0
   -0.8740    2.7510    2.8310 H   0  0  0  0  0  0  0  0  0  0  0  0
    0.2970    4.0640    3.1140 H   0  0  0  0  0  0  0  0  0  0  0  0
    0.7030    2.3900    3.5800 H   0  0  0  0  0  0  0  0  0  0  0  0
    1.6880    2.0820    1.5880 H   0  0  0  0  0  0  0  0  0  0  0  0
    2.0590    4.4320    1.9260 H   0  0  0  0  0  0  0  0  0  0  0  0
    2.1490    3.9330    0.1710 H   0  0  0  0  0  0  0  0  0  0  0  0
    0.6570    4.8080    0.8380 H   0  0  0  0  0  0  0  0  0  0  0  0
    0.3760    2.2950   -0.6160 H   0  0  0  0  0  0  0  0  0  0  0  0
   -0.9560    3.0120    0.3020 H   0  0  0  0  0  0  0  0  0  0  0  0
   -1.2030    1.1090    1.7220 H   0  0  0  0  0  0  0  0  0  0  0  0
    0.9070   -0.2980    0.0870 H   0  0  0  0  0  0  0  0  0  0  0  0
   -1.1190   -2.2760   -3.4430 C   0  0  0  0  0  0  0  0  0  0  0  0
   -2.1520   -1.2090   -3.3480 C   0  0  0  0  0  0  0  0  0  0  0  0
   -1.6720    0.1060   -3.9220 C   0  0  0  0  0  0  0  0  0  0  0  0
   -2.6960   -1.0160   -1.9540 C   0  0  2  0  0  0  0  0  0  0  0  0
   -1.6740   -0.6490   -0.9990 N   0  0  0  0  0  0  0  0  0  0  0  0
   -3.3720   -2.2390   -1.4540 C   0  0  0  0  0  0  0  0  0  0  0  0
   -3.0060   -2.7470   -0.3680 O   0  0  0  0  0  0  0  0  0  0  0  0
   -4.4070   -2.8500   -2.1530 O   0  0  0  0  0  0  0  0  0  0  0  0
   -1.5460   -3.2240   -3.8790 H   0  0  0  0  0  0  0  0  0  0  0  0
   -0.6510   -2.5610   -2.4900 H   0  0  0  0  0  0  0  0  0  0  0  0
   -0.3570   -1.9480   -4.1890 H   0  0  0  0  0  0  0  0  0  0  0  0
   -3.0190   -1.5190   -3.9800 H   0  0  0  0  0  0  0  0  0  0  0  0
   -2.4590    0.8670   -3.7640 H   0  0  0  0  0  0  0  0  0  0  0  0
   -0.6960    0.4050   -3.5110 H   0  0  0  0  0  0  0  0  0  0  0  0
   -1.6140   -0.0440   -5.0290 H   0  0  0  0  0  0  0  0  0  0  0  0
   -3.4830   -0.2090   -2.0300 H   0  0  0  0  0  0  0  0  0  0  0  0
   -0.8710   -1.2880   -0.8720 H   0  0  0  0  0  0  0  0  0  0  0  0
  1  9  1  0  0  0  0
  1  2  1  0  0  0  0
  1 11  1  0  0  0  0
  2 12  1  0  0  0  0
  3  5  1  0  0  0  0
  3  2  1  0  0  0  0
  3 14  1  1  0  0  0
  4  3  1  0  0  0  0
  5 18  1  6  0  0  0
  5  6  1  0  0  0  0
  6 20  1  0  0  0  0
  6 19  1  0  0  0  0
  7  5  1  0  0  0  0
  7  8  2  0  0  0  0
 10  1  1  0  0  0  0
 13  2  1  0  0  0  0
 15  4  1  0  0  0  0
 16  4  1  0  0  0  0
 17  4  1  0  0  0  0
 21 29  1  0  0  0  0
 21 30  1  0  0  0  0
 21 31  1  0  0  0  0
 22 32  1  0  0  0  0
 22 21  1  0  0  0  0
 23 22  1  0  0  0  0
 23 33  1  0  0  0  0
 24 25  1  0  0  0  0
 24 22  1  0  0  0  0
 25 26  1  0  0  0  0
 25 38  1  1  0  0  0
 26  7  1  0  0  0  0
 27 25  1  0  0  0  0
 28 27  2  0  0  0  0
 34 23  1  0  0  0  0
 35 23  1  0  0  0  0
 36 24  1  0  0  0  0
 37 24  1  0  0  0  0
 39 26  1  0  0  0  0
 40 41  1  0  0  0  0
 40 49  1  0  0  0  0
 41 43  1  0  0  0  0
 42 52  1  0  0  0  0
 42 53  1  0  0  0  0
 42 41  1  0  0  0  0
 43 55  1  6  0  0  0
 43 45  1  0  0  0  0
 43 44  1  0  0  0  0
 44 56  1  0  0  0  0
 44 27  1  0  0  0  0
 45 46  1  0  0  0  0
 47 45  2  0  0  0  0
 48 40  1  0  0  0  0
 50 40  1  0  0  0  0
 51 41  1  0  0  0  0
 54 42  1  0  0  0  0
M  END
$$$$
