ILW.pdb
 OpenBabel07022418423D

 64 65  0  0  1  0  0  0  0  0999 V2000
    2.4790   -2.3240    0.4880 C   0  0  0  0  0  0  0  0  0  0  0  0
    3.6430   -2.0990   -0.4120 C   0  0  0  0  0  0  0  0  0  0  0  0
    4.5710   -1.0090   -0.0360 C   0  0  2  0  0  0  0  0  0  0  0  0
    5.1810   -1.1710    1.3440 C   0  0  0  0  0  0  0  0  0  0  0  0
    4.1780    0.3710   -0.3960 C   0  0  2  0  0  0  0  0  0  0  0  0
    5.2600    1.2910    0.0940 N   0  0  0  0  0  0  0  0  0  0  0  0
    2.8850    0.8780    0.0420 C   0  0  0  0  0  0  0  0  0  0  0  0
    2.8750    1.6460    1.0630 O   0  0  0  0  0  0  0  0  0  0  0  0
    1.6770   -2.8130   -0.1000 H   0  0  0  0  0  0  0  0  0  0  0  0
    2.1720   -1.4920    1.1190 H   0  0  0  0  0  0  0  0  0  0  0  0
    2.8010   -3.1300    1.2270 H   0  0  0  0  0  0  0  0  0  0  0  0
    3.2130   -1.8710   -1.4330 H   0  0  0  0  0  0  0  0  0  0  0  0
    4.1610   -3.0820   -0.5590 H   0  0  0  0  0  0  0  0  0  0  0  0
    5.5020   -1.2100   -0.7250 H   0  0  0  0  0  0  0  0  0  0  0  0
    6.1320   -0.6040    1.3500 H   0  0  0  0  0  0  0  0  0  0  0  0
    5.4180   -2.2420    1.4830 H   0  0  0  0  0  0  0  0  0  0  0  0
    4.5380   -0.7630    2.1410 H   0  0  0  0  0  0  0  0  0  0  0  0
    4.2300    0.4630   -1.5210 H   0  0  0  0  0  0  0  0  0  0  0  0
    5.1830    1.3170    1.1310 H   0  0  0  0  0  0  0  0  0  0  0  0
    6.1500    0.8040   -0.1600 H   0  0  0  0  0  0  0  0  0  0  0  0
   -0.0860    4.3600   -2.1330 C   0  0  0  0  0  0  0  0  0  0  0  0
    0.7290    3.4300   -1.1910 C   0  0  0  0  0  0  0  0  0  0  0  0
    1.9650    3.0880   -1.9890 C   0  0  0  0  0  0  0  0  0  0  0  0
   -0.1360    2.2600   -0.9390 C   0  0  0  0  0  0  0  0  0  0  0  0
    0.3970    1.2060   -0.0260 C   0  0  2  0  0  0  0  0  0  0  0  0
    1.6190    0.6280   -0.5370 N   0  0  0  0  0  0  0  0  0  0  0  0
   -0.6000    0.1370    0.1490 C   0  0  0  0  0  0  0  0  0  0  0  0
   -0.3610   -1.0250   -0.1660 O   0  0  0  0  0  0  0  0  0  0  0  0
    0.5780    5.1520   -2.5460 H   0  0  0  0  0  0  0  0  0  0  0  0
   -0.9740    4.7380   -1.6270 H   0  0  0  0  0  0  0  0  0  0  0  0
   -0.4230    3.7700   -3.0180 H   0  0  0  0  0  0  0  0  0  0  0  0
    0.9520    4.0410   -0.3060 H   0  0  0  0  0  0  0  0  0  0  0  0
    2.9030    3.3080   -1.4320 H   0  0  0  0  0  0  0  0  0  0  0  0
    1.9300    2.0670   -2.4050 H   0  0  0  0  0  0  0  0  0  0  0  0
    2.0690    3.7490   -2.9120 H   0  0  0  0  0  0  0  0  0  0  0  0
   -0.3520    1.7330   -1.9180 H   0  0  0  0  0  0  0  0  0  0  0  0
   -1.1480    2.5470   -0.5330 H   0  0  0  0  0  0  0  0  0  0  0  0
    0.6800    1.6960    0.9410 H   0  0  0  0  0  0  0  0  0  0  0  0
    1.6020   -0.0130   -1.3630 H   0  0  0  0  0  0  0  0  0  0  0  0
   -1.9120    0.3880    0.7000 N   0  0  0  0  0  0  0  0  0  0  0  0
   -2.8900   -0.6660    0.8700 C   0  0  1  0  0  0  0  0  0  0  0  0
   -3.1660   -0.9420    2.3360 C   0  0  0  0  0  0  0  0  0  0  0  0
   -4.1680   -2.0230    2.4350 C   0  0  0  0  0  0  0  0  0  0  0  0
   -5.4980   -1.8540    2.7560 C   0  0  0  0  0  0  0  0  0  0  0  0
   -6.0510   -3.0680    2.7400 N   0  0  0  0  0  0  0  0  0  0  0  0
   -5.1590   -4.0150    2.4270 C   0  0  0  0  0  0  0  0  0  0  0  0
   -5.2540   -5.3820    2.2890 C   0  0  0  0  0  0  0  0  0  0  0  0
   -4.1550   -6.1430    1.9500 C   0  0  0  0  0  0  0  0  0  0  0  0
   -2.9600   -5.4800    1.7570 C   0  0  0  0  0  0  0  0  0  0  0  0
   -2.8410   -4.1190    1.8890 C   0  0  0  0  0  0  0  0  0  0  0  0
   -3.9650   -3.3710    2.2320 C   0  0  0  0  0  0  0  0  0  0  0  0
   -4.0940   -0.4820    0.0590 C   0  0  0  0  0  0  0  0  0  0  0  0
   -5.0280   -1.3250    0.1000 O   0  0  0  0  0  0  0  0  0  0  0  0
   -4.3160    0.5920   -0.7970 O   0  0  0  0  0  0  0  0  0  0  0  0
   -2.0820    1.3870    0.9590 H   0  0  0  0  0  0  0  0  0  0  0  0
   -2.3950   -1.6110    0.4920 H   0  0  0  0  0  0  0  0  0  0  0  0
   -3.4440   -0.0380    2.8850 H   0  0  0  0  0  0  0  0  0  0  0  0
   -2.2030   -1.3840    2.7310 H   0  0  0  0  0  0  0  0  0  0  0  0
   -5.9400   -0.8900    2.9690 H   0  0  0  0  0  0  0  0  0  0  0  0
   -7.0670   -3.2430    2.9490 H   0  0  0  0  0  0  0  0  0  0  0  0
   -6.2040   -5.8750    2.4460 H   0  0  0  0  0  0  0  0  0  0  0  0
   -4.2450   -7.2060    1.8460 H   0  0  0  0  0  0  0  0  0  0  0  0
   -2.0920   -6.0910    1.4890 H   0  0  0  0  0  0  0  0  0  0  0  0
   -1.8990   -3.6090    1.7350 H   0  0  0  0  0  0  0  0  0  0  0  0
  1 10  1  0  0  0  0
  1 11  1  0  0  0  0
  2  3  1  0  0  0  0
  2  1  1  0  0  0  0
  3 14  1  6  0  0  0
  3  4  1  0  0  0  0
  4 15  1  0  0  0  0
  4 16  1  0  0  0  0
  4 17  1  0  0  0  0
  5 18  1  6  0  0  0
  5  3  1  0  0  0  0
  5  7  1  0  0  0  0
  5  6  1  0  0  0  0
  6 19  1  0  0  0  0
  7  8  2  0  0  0  0
  9  1  1  0  0  0  0
 12  2  1  0  0  0  0
 13  2  1  0  0  0  0
 20  6  1  0  0  0  0
 21 30  1  0  0  0  0
 21 22  1  0  0  0  0
 22 24  1  0  0  0  0
 22 32  1  0  0  0  0
 23 33  1  0  0  0  0
 23 22  1  0  0  0  0
 24 37  1  0  0  0  0
 24 25  1  0  0  0  0
 25 27  1  0  0  0  0
 25 38  1  1  0  0  0
 26 25  1  0  0  0  0
 26  7  1  0  0  0  0
 27 40  1  0  0  0  0
 28 27  2  0  0  0  0
 29 21  1  0  0  0  0
 31 21  1  0  0  0  0
 34 23  1  0  0  0  0
 35 23  1  0  0  0  0
 36 24  1  0  0  0  0
 39 26  1  0  0  0  0
 40 41  1  0  0  0  0
 40 55  1  0  0  0  0
 41 56  1  6  0  0  0
 41 42  1  0  0  0  0
 42 43  1  0  0  0  0
 42 58  1  0  0  0  0
 42 57  1  0  0  0  0
 43 44  2  0  0  0  0
 44 59  1  0  0  0  0
 45 44  1  0  0  0  0
 45 60  1  0  0  0  0
 46 45  1  0  0  0  0
 47 46  1  0  0  0  0
 47 61  1  0  0  0  0
 48 47  2  0  0  0  0
 49 50  2  0  0  0  0
 49 48  1  0  0  0  0
 50 51  1  0  0  0  0
 51 46  2  0  0  0  0
 51 43  1  0  0  0  0
 52 53  1  0  0  0  0
 52 41  1  0  0  0  0
 54 52  2  0  0  0  0
 62 48  1  0  0  0  0
 63 49  1  0  0  0  0
 64 50  1  0  0  0  0
M  END
$$$$
