ILY.pdb
 OpenBabel07022418423D

 61 61  0  0  1  0  0  0  0  0999 V2000
   -0.0910    1.9790    3.3700 C   0  0  0  0  0  0  0  0  0  0  0  0
    0.8030    1.2970    4.3480 C   0  0  0  0  0  0  0  0  0  0  0  0
    1.7630    0.3310    3.7400 C   0  0  2  0  0  0  0  0  0  0  0  0
    2.6260   -0.3030    4.8220 C   0  0  0  0  0  0  0  0  0  0  0  0
    2.6090    0.8770    2.6330 C   0  0  2  0  0  0  0  0  0  0  0  0
    3.4050    2.0110    3.0660 N   0  0  0  0  0  0  0  0  0  0  0  0
    1.8940    1.1240    1.3640 C   0  0  0  0  0  0  0  0  0  0  0  0
    1.8630    2.2650    0.7930 O   0  0  0  0  0  0  0  0  0  0  0  0
   -1.0440    2.3270    3.8440 H   0  0  0  0  0  0  0  0  0  0  0  0
   -0.4110    1.3000    2.5620 H   0  0  0  0  0  0  0  0  0  0  0  0
    0.3790    2.9310    2.9890 H   0  0  0  0  0  0  0  0  0  0  0  0
    0.1340    0.7300    5.0630 H   0  0  0  0  0  0  0  0  0  0  0  0
    1.3200    2.0360    5.0090 H   0  0  0  0  0  0  0  0  0  0  0  0
    1.1340   -0.5290    3.3550 H   0  0  0  0  0  0  0  0  0  0  0  0
    2.8310    0.4560    5.6020 H   0  0  0  0  0  0  0  0  0  0  0  0
    2.1240   -1.1870    5.2710 H   0  0  0  0  0  0  0  0  0  0  0  0
    3.6030   -0.6020    4.3940 H   0  0  0  0  0  0  0  0  0  0  0  0
    3.3960    0.0760    2.4090 H   0  0  0  0  0  0  0  0  0  0  0  0
    4.1580    1.6570    3.6930 H   0  0  0  0  0  0  0  0  0  0  0  0
    2.8080    2.7390    3.5470 H   0  0  0  0  0  0  0  0  0  0  0  0
    0.7280    1.0320   -3.5740 C   0  0  0  0  0  0  0  0  0  0  0  0
    0.8700   -0.3690   -2.9980 C   0  0  0  0  0  0  0  0  0  0  0  0
   -0.2560   -1.2150   -3.4240 C   0  0  0  0  0  0  0  0  0  0  0  0
    1.2970   -0.3890   -1.5880 C   0  0  0  0  0  0  0  0  0  0  0  0
    0.4770    0.2940   -0.5620 C   0  0  2  0  0  0  0  0  0  0  0  0
    1.1980    0.0660    0.7160 N   0  0  0  0  0  0  0  0  0  0  0  0
   -0.9240   -0.0700   -0.4440 C   0  0  0  0  0  0  0  0  0  0  0  0
   -1.7230    0.1350   -1.3950 O   0  0  0  0  0  0  0  0  0  0  0  0
    1.6660    1.5950   -3.5040 H   0  0  0  0  0  0  0  0  0  0  0  0
   -0.1470    1.5490   -3.1550 H   0  0  0  0  0  0  0  0  0  0  0  0
    0.5170    0.9020   -4.6690 H   0  0  0  0  0  0  0  0  0  0  0  0
    1.7920   -0.7670   -3.5760 H   0  0  0  0  0  0  0  0  0  0  0  0
   -0.5220   -1.9410   -2.6250 H   0  0  0  0  0  0  0  0  0  0  0  0
   -1.1270   -0.6990   -3.8770 H   0  0  0  0  0  0  0  0  0  0  0  0
    0.0920   -1.8950   -4.2680 H   0  0  0  0  0  0  0  0  0  0  0  0
    1.5580   -1.4490   -1.3030 H   0  0  0  0  0  0  0  0  0  0  0  0
    2.3150    0.1150   -1.5580 H   0  0  0  0  0  0  0  0  0  0  0  0
    0.5460    1.3980   -0.7770 H   0  0  0  0  0  0  0  0  0  0  0  0
    1.2140   -0.8700    1.1710 H   0  0  0  0  0  0  0  0  0  0  0  0
   -0.7770   -5.4000   -3.3000 O   0  0  0  0  0  0  0  0  0  0  0  0
   -1.4090   -4.6840   -2.2890 C   0  0  0  0  0  0  0  0  0  0  0  0
   -2.7150   -4.2460   -2.4040 C   0  0  0  0  0  0  0  0  0  0  0  0
   -3.2970   -3.5330   -1.3600 C   0  0  0  0  0  0  0  0  0  0  0  0
   -2.5490   -3.2740   -0.2170 C   0  0  0  0  0  0  0  0  0  0  0  0
   -3.1070   -2.5230    0.9330 C   0  0  0  0  0  0  0  0  0  0  0  0
   -2.8800   -1.0300    0.8100 C   0  0  2  0  0  0  0  0  0  0  0  0
   -1.4960   -0.6820    0.7420 N   0  0  0  0  0  0  0  0  0  0  0  0
   -3.6520   -0.3190    1.8530 C   0  0  0  0  0  0  0  0  0  0  0  0
   -4.8750   -0.5320    2.0200 O   0  0  0  0  0  0  0  0  0  0  0  0
   -1.2510   -3.7230   -0.1330 C   0  0  0  0  0  0  0  0  0  0  0  0
   -0.6450   -4.4340   -1.1540 C   0  0  0  0  0  0  0  0  0  0  0  0
   -3.0450    0.6060    2.6780 O   0  0  0  0  0  0  0  0  0  0  0  0
   -0.3250   -6.2650   -3.0650 H   0  0  0  0  0  0  0  0  0  0  0  0
   -3.2370   -4.4730   -3.3000 H   0  0  0  0  0  0  0  0  0  0  0  0
   -4.3020   -3.1830   -1.4200 H   0  0  0  0  0  0  0  0  0  0  0  0
   -2.7940   -2.9270    1.9060 H   0  0  0  0  0  0  0  0  0  0  0  0
   -4.2250   -2.6610    0.8900 H   0  0  0  0  0  0  0  0  0  0  0  0
   -3.3440   -0.7510   -0.1830 H   0  0  0  0  0  0  0  0  0  0  0  0
   -0.8110   -0.8360    1.5140 H   0  0  0  0  0  0  0  0  0  0  0  0
   -0.6960   -3.5060    0.7670 H   0  0  0  0  0  0  0  0  0  0  0  0
    0.3600   -4.7770   -1.0770 H   0  0  0  0  0  0  0  0  0  0  0  0
  1  9  1  0  0  0  0
  1  2  1  0  0  0  0
  2 13  1  0  0  0  0
  2 12  1  0  0  0  0
  3 14  1  6  0  0  0
  3  2  1  0  0  0  0
  3  4  1  0  0  0  0
  4 16  1  0  0  0  0
  4 15  1  0  0  0  0
  5 18  1  6  0  0  0
  5  6  1  0  0  0  0
  5  3  1  0  0  0  0
  6 20  1  0  0  0  0
  6 19  1  0  0  0  0
  7  5  1  0  0  0  0
  8  7  2  0  0  0  0
 10  1  1  0  0  0  0
 11  1  1  0  0  0  0
 17  4  1  0  0  0  0
 21 29  1  0  0  0  0
 21 30  1  0  0  0  0
 21 22  1  0  0  0  0
 22 24  1  0  0  0  0
 23 22  1  0  0  0  0
 23 33  1  0  0  0  0
 24 37  1  0  0  0  0
 24 36  1  0  0  0  0
 24 25  1  0  0  0  0
 25 38  1  6  0  0  0
 25 27  1  0  0  0  0
 25 26  1  0  0  0  0
 26 39  1  0  0  0  0
 26  7  1  0  0  0  0
 27 47  1  0  0  0  0
 28 27  2  0  0  0  0
 31 21  1  0  0  0  0
 32 22  1  0  0  0  0
 34 23  1  0  0  0  0
 35 23  1  0  0  0  0
 40 53  1  0  0  0  0
 40 41  1  0  0  0  0
 41 51  1  0  0  0  0
 42 41  2  0  0  0  0
 42 43  1  0  0  0  0
 43 44  2  0  0  0  0
 44 50  1  0  0  0  0
 44 45  1  0  0  0  0
 45 56  1  0  0  0  0
 46 58  1  6  0  0  0
 46 45  1  0  0  0  0
 46 48  1  0  0  0  0
 47 46  1  0  0  0  0
 47 59  1  0  0  0  0
 48 49  2  0  0  0  0
 48 52  1  0  0  0  0
 50 60  1  0  0  0  0
 51 61  1  0  0  0  0
 51 50  2  0  0  0  0
 54 42  1  0  0  0  0
 55 43  1  0  0  0  0
 57 45  1  0  0  0  0
M  END
$$$$
