IMD.pdb
 OpenBabel07022418423D

 51 50  0  0  1  0  0  0  0  0999 V2000
    3.7670   -3.8530   -0.4970 C   0  0  0  0  0  0  0  0  0  0  0  0
    3.2170   -2.5900    0.1720 C   0  0  0  0  0  0  0  0  0  0  0  0
    3.5120   -2.7140    1.6270 C   0  0  2  0  0  0  0  0  0  0  0  0
    2.8690   -3.9270    2.2610 C   0  0  0  0  0  0  0  0  0  0  0  0
    3.3220   -1.4610    2.4370 C   0  0  2  0  0  0  0  0  0  0  0  0
    3.6640   -1.7920    3.8390 N   0  0  0  0  0  0  0  0  0  0  0  0
    1.9530   -0.9300    2.4490 C   0  0  0  0  0  0  0  0  0  0  0  0
    1.2490   -0.9600    3.5170 O   0  0  0  0  0  0  0  0  0  0  0  0
    2.9610   -4.5530   -0.8000 H   0  0  0  0  0  0  0  0  0  0  0  0
    4.3130   -3.5830   -1.4440 H   0  0  0  0  0  0  0  0  0  0  0  0
    4.4300   -4.4240    0.1850 H   0  0  0  0  0  0  0  0  0  0  0  0
    2.1380   -2.5910   -0.0760 H   0  0  0  0  0  0  0  0  0  0  0  0
    3.6630   -1.6860   -0.2420 H   0  0  0  0  0  0  0  0  0  0  0  0
    4.6250   -2.9250    1.6890 H   0  0  0  0  0  0  0  0  0  0  0  0
    2.7180   -4.7400    1.5230 H   0  0  0  0  0  0  0  0  0  0  0  0
    1.8930   -3.6430    2.7510 H   0  0  0  0  0  0  0  0  0  0  0  0
    3.4920   -4.3520    3.0750 H   0  0  0  0  0  0  0  0  0  0  0  0
    4.0780   -0.7070    2.1390 H   0  0  0  0  0  0  0  0  0  0  0  0
    4.6740   -1.9950    3.9400 H   0  0  0  0  0  0  0  0  0  0  0  0
    3.0620   -2.6140    4.0690 H   0  0  0  0  0  0  0  0  0  0  0  0
   -1.4280    4.3250   -0.4400 C   0  0  0  0  0  0  0  0  0  0  0  0
    0.3270    3.8610   -0.3710 S   0  0  0  0  0  0  0  0  0  0  0  0
    0.4780    2.0430   -0.2420 C   0  0  0  0  0  0  0  0  0  0  0  0
   -0.0880    1.6490    1.0830 C   0  0  0  0  0  0  0  0  0  0  0  0
   -0.0340    0.1610    1.3430 C   0  0  2  0  0  0  0  0  0  0  0  0
    1.3060   -0.3550    1.3250 N   0  0  0  0  0  0  0  0  0  0  0  0
   -0.8430   -0.5440    0.3370 C   0  0  0  0  0  0  0  0  0  0  0  0
   -0.3360   -1.4330   -0.3670 O   0  0  0  0  0  0  0  0  0  0  0  0
   -1.4850    5.4160   -0.6320 H   0  0  0  0  0  0  0  0  0  0  0  0
   -1.8400    4.1250    0.5910 H   0  0  0  0  0  0  0  0  0  0  0  0
   -1.9830    3.7360   -1.1750 H   0  0  0  0  0  0  0  0  0  0  0  0
    1.5210    1.7460   -0.3890 H   0  0  0  0  0  0  0  0  0  0  0  0
   -0.1350    1.6360   -1.0860 H   0  0  0  0  0  0  0  0  0  0  0  0
    0.4150    2.2320    1.8790 H   0  0  0  0  0  0  0  0  0  0  0  0
   -1.1560    1.9490    1.1120 H   0  0  0  0  0  0  0  0  0  0  0  0
   -0.4430    0.0210    2.3760 H   0  0  0  0  0  0  0  0  0  0  0  0
    1.8380   -0.2990    0.4350 H   0  0  0  0  0  0  0  0  0  0  0  0
   -2.2030   -0.2100    0.1700 N   0  0  0  0  0  0  0  0  0  0  0  0
   -3.0370   -0.8790   -0.8090 C   0  0  1  0  0  0  0  0  0  0  0  0
   -4.2540   -1.5280   -0.2320 C   0  0  0  0  0  0  0  0  0  0  0  0
   -5.1580   -0.5810    0.4460 C   0  0  0  0  0  0  0  0  0  0  0  0
   -4.9010    0.6280    0.5020 O   0  0  0  0  0  0  0  0  0  0  0  0
   -3.4960    0.1210   -1.8170 C   0  0  0  0  0  0  0  0  0  0  0  0
   -3.1720    1.3280   -1.7620 O   0  0  0  0  0  0  0  0  0  0  0  0
   -6.3210   -1.1240    1.0220 O   0  0  0  0  0  0  0  0  0  0  0  0
   -4.3090   -0.2760   -2.8600 O   0  0  0  0  0  0  0  0  0  0  0  0
   -2.5930    0.5410    0.7780 H   0  0  0  0  0  0  0  0  0  0  0  0
   -2.4570   -1.6400   -1.3640 H   0  0  0  0  0  0  0  0  0  0  0  0
   -4.8270   -1.9460   -1.1000 H   0  0  0  0  0  0  0  0  0  0  0  0
   -4.0180   -2.4090    0.4050 H   0  0  0  0  0  0  0  0  0  0  0  0
   -6.8240   -0.5440    1.6850 H   0  0  0  0  0  0  0  0  0  0  0  0
  1  2  1  0  0  0  0
  1 11  1  0  0  0  0
  2  3  1  0  0  0  0
  3 14  1  1  0  0  0
  3  4  1  0  0  0  0
  3  5  1  0  0  0  0
  4 16  1  0  0  0  0
  4 17  1  0  0  0  0
  5 18  1  6  0  0  0
  5  7  1  0  0  0  0
  5  6  1  0  0  0  0
  6 19  1  0  0  0  0
  6 20  1  0  0  0  0
  7  8  2  0  0  0  0
  9  1  1  0  0  0  0
 10  1  1  0  0  0  0
 12  2  1  0  0  0  0
 13  2  1  0  0  0  0
 15  4  1  0  0  0  0
 21 22  1  0  0  0  0
 21 30  1  0  0  0  0
 22 23  1  0  0  0  0
 23 24  1  0  0  0  0
 24 35  1  0  0  0  0
 24 25  1  0  0  0  0
 24 34  1  0  0  0  0
 25 36  1  1  0  0  0
 26 25  1  0  0  0  0
 26  7  1  0  0  0  0
 27 25  1  0  0  0  0
 28 27  2  0  0  0  0
 29 21  1  0  0  0  0
 31 21  1  0  0  0  0
 32 23  1  0  0  0  0
 33 23  1  0  0  0  0
 37 26  1  0  0  0  0
 38 27  1  0  0  0  0
 38 47  1  0  0  0  0
 39 48  1  6  0  0  0
 39 40  1  0  0  0  0
 39 38  1  0  0  0  0
 40 50  1  0  0  0  0
 40 41  1  0  0  0  0
 41 42  2  0  0  0  0
 41 45  1  0  0  0  0
 43 44  1  0  0  0  0
 43 39  1  0  0  0  0
 45 51  1  0  0  0  0
 46 43  2  0  0  0  0
 49 40  1  0  0  0  0
M  END
$$$$
