IMF.pdb
 OpenBabel07022418423D

 58 58  0  0  1  0  0  0  0  0999 V2000
    0.7770   -1.2320    3.3310 C   0  0  0  0  0  0  0  0  0  0  0  0
    2.1750   -1.4520    2.8570 C   0  0  0  0  0  0  0  0  0  0  0  0
    2.5840   -0.6630    1.6600 C   0  0  2  0  0  0  0  0  0  0  0  0
    4.0170   -1.0130    1.3320 C   0  0  0  0  0  0  0  0  0  0  0  0
    2.4490    0.8160    1.7990 C   0  0  2  0  0  0  0  0  0  0  0  0
    3.2370    1.3560    2.8830 N   0  0  0  0  0  0  0  0  0  0  0  0
    1.0760    1.3270    1.8450 C   0  0  0  0  0  0  0  0  0  0  0  0
    0.6910    2.0730    2.7770 O   0  0  0  0  0  0  0  0  0  0  0  0
    0.6990   -0.3720    4.0290 H   0  0  0  0  0  0  0  0  0  0  0  0
    0.5060   -2.1310    3.9600 H   0  0  0  0  0  0  0  0  0  0  0  0
    0.0670   -1.2230    2.5080 H   0  0  0  0  0  0  0  0  0  0  0  0
    2.9040   -1.3480    3.6920 H   0  0  0  0  0  0  0  0  0  0  0  0
    2.2490   -2.5400    2.5600 H   0  0  0  0  0  0  0  0  0  0  0  0
    1.9600   -0.9710    0.7780 H   0  0  0  0  0  0  0  0  0  0  0  0
    4.6370   -0.0920    1.1740 H   0  0  0  0  0  0  0  0  0  0  0  0
    4.0850   -1.6580    0.4280 H   0  0  0  0  0  0  0  0  0  0  0  0
    4.5180   -1.5590    2.1610 H   0  0  0  0  0  0  0  0  0  0  0  0
    2.9090    1.2580    0.8630 H   0  0  0  0  0  0  0  0  0  0  0  0
    3.6270    0.5890    3.4940 H   0  0  0  0  0  0  0  0  0  0  0  0
    2.6900    2.0560    3.4590 H   0  0  0  0  0  0  0  0  0  0  0  0
    0.6910    1.6460   -2.2990 C   0  0  0  0  0  0  0  0  0  0  0  0
    0.0870    3.2720   -1.8850 S   0  0  0  0  0  0  0  0  0  0  0  0
   -1.4650    3.2450   -1.0160 C   0  0  0  0  0  0  0  0  0  0  0  0
   -1.5500    2.8340    0.3690 C   0  0  0  0  0  0  0  0  0  0  0  0
   -1.2140    1.5290    0.9280 C   0  0  2  0  0  0  0  0  0  0  0  0
    0.0970    1.0060    0.8330 N   0  0  0  0  0  0  0  0  0  0  0  0
   -2.2660    0.4790    0.6580 C   0  0  0  0  0  0  0  0  0  0  0  0
   -3.4880    0.7840    0.6780 O   0  0  0  0  0  0  0  0  0  0  0  0
   -0.0990    0.8860   -2.1330 H   0  0  0  0  0  0  0  0  0  0  0  0
    1.5990    1.3670   -1.7120 H   0  0  0  0  0  0  0  0  0  0  0  0
    0.9360    1.5420   -3.3960 H   0  0  0  0  0  0  0  0  0  0  0  0
   -1.8300    4.3420   -1.0390 H   0  0  0  0  0  0  0  0  0  0  0  0
   -2.2810    2.7800   -1.6720 H   0  0  0  0  0  0  0  0  0  0  0  0
   -0.9710    3.6110    0.9800 H   0  0  0  0  0  0  0  0  0  0  0  0
   -2.6130    3.0610    0.7220 H   0  0  0  0  0  0  0  0  0  0  0  0
   -1.3560    1.7060    2.0760 H   0  0  0  0  0  0  0  0  0  0  0  0
    0.4680    0.3570    0.1060 H   0  0  0  0  0  0  0  0  0  0  0  0
   -1.9440   -0.8740    0.3750 N   0  0  0  0  0  0  0  0  0  0  0  0
   -2.9710   -1.8730    0.1170 C   0  0  1  0  0  0  0  0  0  0  0  0
   -2.8240   -2.5140   -1.2350 C   0  0  0  0  0  0  0  0  0  0  0  0
   -1.4850   -3.1910   -1.3330 C   0  0  0  0  0  0  0  0  0  0  0  0
   -0.3970   -2.4900   -1.7670 C   0  0  0  0  0  0  0  0  0  0  0  0
    0.8310   -3.0910   -1.8700 C   0  0  0  0  0  0  0  0  0  0  0  0
    1.0240   -4.4300   -1.5400 C   0  0  0  0  0  0  0  0  0  0  0  0
   -0.0800   -5.1230   -1.1050 C   0  0  0  0  0  0  0  0  0  0  0  0
   -1.3260   -4.5180   -0.9990 C   0  0  0  0  0  0  0  0  0  0  0  0
   -2.9470   -2.9560    1.1420 C   0  0  0  0  0  0  0  0  0  0  0  0
   -2.0560   -2.8880    2.0280 O   0  0  0  0  0  0  0  0  0  0  0  0
   -3.8330   -3.9970    1.1610 O   0  0  0  0  0  0  0  0  0  0  0  0
   -0.9540   -1.1840    0.3440 H   0  0  0  0  0  0  0  0  0  0  0  0
   -3.9910   -1.3780    0.1130 H   0  0  0  0  0  0  0  0  0  0  0  0
   -3.5710   -3.3130   -1.3260 H   0  0  0  0  0  0  0  0  0  0  0  0
   -2.9270   -1.8060   -2.0720 H   0  0  0  0  0  0  0  0  0  0  0  0
   -0.5090   -1.4570   -2.0300 H   0  0  0  0  0  0  0  0  0  0  0  0
    1.6990   -2.5280   -2.2180 H   0  0  0  0  0  0  0  0  0  0  0  0
    1.9940   -4.9020   -1.6230 H   0  0  0  0  0  0  0  0  0  0  0  0
    0.0520   -6.1590   -0.8460 H   0  0  0  0  0  0  0  0  0  0  0  0
   -2.1630   -5.1260   -0.6510 H   0  0  0  0  0  0  0  0  0  0  0  0
  1 10  1  0  0  0  0
  1  9  1  0  0  0  0
  2  1  1  0  0  0  0
  2 12  1  0  0  0  0
  3 14  1  6  0  0  0
  3  5  1  0  0  0  0
  3  2  1  0  0  0  0
  4  3  1  0  0  0  0
  4 17  1  0  0  0  0
  5 18  1  6  0  0  0
  5  7  1  0  0  0  0
  5  6  1  0  0  0  0
  6 20  1  0  0  0  0
  6 19  1  0  0  0  0
  7  8  2  0  0  0  0
 11  1  1  0  0  0  0
 13  2  1  0  0  0  0
 15  4  1  0  0  0  0
 16  4  1  0  0  0  0
 21 29  1  0  0  0  0
 21 22  1  0  0  0  0
 21 30  1  0  0  0  0
 22 23  1  0  0  0  0
 23 24  1  0  0  0  0
 24 35  1  0  0  0  0
 24 25  1  0  0  0  0
 24 34  1  0  0  0  0
 25 36  1  1  0  0  0
 26 25  1  0  0  0  0
 26  7  1  0  0  0  0
 27 28  2  0  0  0  0
 27 25  1  0  0  0  0
 31 21  1  0  0  0  0
 32 23  1  0  0  0  0
 33 23  1  0  0  0  0
 37 26  1  0  0  0  0
 38 27  1  0  0  0  0
 39 51  1  1  0  0  0
 39 38  1  0  0  0  0
 39 47  1  0  0  0  0
 40 39  1  0  0  0  0
 41 40  1  0  0  0  0
 41 46  1  0  0  0  0
 42 41  2  0  0  0  0
 43 42  1  0  0  0  0
 43 44  2  0  0  0  0
 44 45  1  0  0  0  0
 45 46  2  0  0  0  0
 45 57  1  0  0  0  0
 46 58  1  0  0  0  0
 47 49  2  0  0  0  0
 47 48  1  0  0  0  0
 50 38  1  0  0  0  0
 52 40  1  0  0  0  0
 53 40  1  0  0  0  0
 54 42  1  0  0  0  0
 55 43  1  0  0  0  0
 56 44  1  0  0  0  0
M  END
$$$$
