IMH.pdb
 OpenBabel07022418423D

 55 55  0  0  1  0  0  0  0  0999 V2000
    1.4340   -0.8010    3.3280 C   0  0  0  0  0  0  0  0  0  0  0  0
    2.5210   -1.4370    2.5510 C   0  0  0  0  0  0  0  0  0  0  0  0
    2.6500   -1.0740    1.1110 C   0  0  2  0  0  0  0  0  0  0  0  0
    3.8250   -1.8410    0.5000 C   0  0  0  0  0  0  0  0  0  0  0  0
    2.8250    0.4020    0.8410 C   0  0  2  0  0  0  0  0  0  0  0  0
    3.9980    0.8820    1.5370 N   0  0  0  0  0  0  0  0  0  0  0  0
    1.5900    1.1410    1.1520 C   0  0  0  0  0  0  0  0  0  0  0  0
    1.6100    2.0080    2.0580 O   0  0  0  0  0  0  0  0  0  0  0  0
    1.8200    0.0660    3.9450 H   0  0  0  0  0  0  0  0  0  0  0  0
    0.5500   -0.4690    2.7870 H   0  0  0  0  0  0  0  0  0  0  0  0
    1.0340   -1.5030    4.1350 H   0  0  0  0  0  0  0  0  0  0  0  0
    2.3920   -2.5600    2.6700 H   0  0  0  0  0  0  0  0  0  0  0  0
    3.4970   -1.1750    3.0570 H   0  0  0  0  0  0  0  0  0  0  0  0
    1.7460   -1.4120    0.5140 H   0  0  0  0  0  0  0  0  0  0  0  0
    4.6830   -1.1530    0.4580 H   0  0  0  0  0  0  0  0  0  0  0  0
    3.5700   -2.2080   -0.5030 H   0  0  0  0  0  0  0  0  0  0  0  0
    4.0720   -2.7270    1.1560 H   0  0  0  0  0  0  0  0  0  0  0  0
    3.0400    0.5420   -0.2690 H   0  0  0  0  0  0  0  0  0  0  0  0
    4.5630    1.4550    0.8840 H   0  0  0  0  0  0  0  0  0  0  0  0
    3.6500    1.5380    2.2890 H   0  0  0  0  0  0  0  0  0  0  0  0
   -0.6620    0.7500   -4.0910 C   0  0  0  0  0  0  0  0  0  0  0  0
   -0.1210    1.3120   -2.4480 S   0  0  0  0  0  0  0  0  0  0  0  0
   -1.4890    2.1280   -1.6440 C   0  0  0  0  0  0  0  0  0  0  0  0
   -1.2410    2.6550   -0.2860 C   0  0  0  0  0  0  0  0  0  0  0  0
   -0.8520    1.6480    0.7660 C   0  0  2  0  0  0  0  0  0  0  0  0
    0.3600    0.9230    0.4690 N   0  0  0  0  0  0  0  0  0  0  0  0
   -1.9870    0.7510    1.1060 C   0  0  0  0  0  0  0  0  0  0  0  0
   -3.1240    1.1910    1.4160 O   0  0  0  0  0  0  0  0  0  0  0  0
   -0.0940   -0.1360   -4.4320 H   0  0  0  0  0  0  0  0  0  0  0  0
   -0.6050    1.5840   -4.8360 H   0  0  0  0  0  0  0  0  0  0  0  0
   -1.7400    0.4450   -4.0850 H   0  0  0  0  0  0  0  0  0  0  0  0
   -2.3770    1.4670   -1.7280 H   0  0  0  0  0  0  0  0  0  0  0  0
   -1.7580    3.0230   -2.2830 H   0  0  0  0  0  0  0  0  0  0  0  0
   -0.5060    3.4870   -0.3580 H   0  0  0  0  0  0  0  0  0  0  0  0
   -2.1840    3.1390    0.0600 H   0  0  0  0  0  0  0  0  0  0  0  0
   -0.6880    2.2960    1.6900 H   0  0  0  0  0  0  0  0  0  0  0  0
    0.3530    0.1940   -0.2710 H   0  0  0  0  0  0  0  0  0  0  0  0
   -1.8800   -0.6840    1.1070 N   0  0  0  0  0  0  0  0  0  0  0  0
   -3.0140   -1.5210    1.4460 C   0  0  1  0  0  0  0  0  0  0  0  0
   -3.4590   -2.2850    0.2280 C   0  0  0  0  0  0  0  0  0  0  0  0
   -2.4150   -3.1630   -0.3260 C   0  0  0  0  0  0  0  0  0  0  0  0
   -2.4980   -3.9860   -1.4400 C   0  0  0  0  0  0  0  0  0  0  0  0
   -1.3370   -4.6170   -1.6160 N   0  0  0  0  0  0  0  0  0  0  0  0
   -0.4970   -4.2170   -0.6330 C   0  0  0  0  0  0  0  0  0  0  0  0
   -1.1630   -3.3480    0.1260 N   0  0  0  0  0  0  0  0  0  0  0  0
   -2.6660   -2.4030    2.5830 C   0  0  0  0  0  0  0  0  0  0  0  0
   -3.5110   -3.2150    3.0470 O   0  0  0  0  0  0  0  0  0  0  0  0
   -1.3960   -2.3650    3.1740 O   0  0  0  0  0  0  0  0  0  0  0  0
   -0.9870   -1.1160    0.8660 H   0  0  0  0  0  0  0  0  0  0  0  0
   -3.8770   -0.8890    1.7680 H   0  0  0  0  0  0  0  0  0  0  0  0
   -3.7340   -1.5130   -0.5390 H   0  0  0  0  0  0  0  0  0  0  0  0
   -4.3830   -2.8610    0.5090 H   0  0  0  0  0  0  0  0  0  0  0  0
   -3.4030   -4.0720   -2.0500 H   0  0  0  0  0  0  0  0  0  0  0  0
   -1.0810   -5.3090   -2.3710 H   0  0  0  0  0  0  0  0  0  0  0  0
    0.5220   -4.5550   -0.5070 H   0  0  0  0  0  0  0  0  0  0  0  0
  1  9  1  0  0  0  0
  1 11  1  0  0  0  0
  2 12  1  0  0  0  0
  2 13  1  0  0  0  0
  2  1  1  0  0  0  0
  3 14  1  6  0  0  0
  3  2  1  0  0  0  0
  4  3  1  0  0  0  0
  4 17  1  0  0  0  0
  5 18  1  6  0  0  0
  5  3  1  0  0  0  0
  5  7  1  0  0  0  0
  5  6  1  0  0  0  0
  6 20  1  0  0  0  0
  7  8  2  0  0  0  0
 10  1  1  0  0  0  0
 15  4  1  0  0  0  0
 16  4  1  0  0  0  0
 19  6  1  0  0  0  0
 21 31  1  0  0  0  0
 21 22  1  0  0  0  0
 22 23  1  0  0  0  0
 23 24  1  0  0  0  0
 24 35  1  0  0  0  0
 24 25  1  0  0  0  0
 25 27  1  0  0  0  0
 25 36  1  1  0  0  0
 26 25  1  0  0  0  0
 26  7  1  0  0  0  0
 27 38  1  0  0  0  0
 27 28  2  0  0  0  0
 29 21  1  0  0  0  0
 30 21  1  0  0  0  0
 32 23  1  0  0  0  0
 33 23  1  0  0  0  0
 34 24  1  0  0  0  0
 37 26  1  0  0  0  0
 38 39  1  0  0  0  0
 39 50  1  1  0  0  0
 39 46  1  0  0  0  0
 40 52  1  0  0  0  0
 40 39  1  0  0  0  0
 41 45  1  0  0  0  0
 41 40  1  0  0  0  0
 42 41  2  0  0  0  0
 43 42  1  0  0  0  0
 43 44  1  0  0  0  0
 44 55  1  0  0  0  0
 44 45  2  0  0  0  0
 46 47  2  0  0  0  0
 46 48  1  0  0  0  0
 49 38  1  0  0  0  0
 51 40  1  0  0  0  0
 53 42  1  0  0  0  0
 54 43  1  0  0  0  0
M  END
$$$$
