IMK.pdb
 OpenBabel07022418423D

 59 58  0  0  1  0  0  0  0  0999 V2000
    2.4250   -2.7120    5.4570 C   0  0  0  0  0  0  0  0  0  0  0  0
    2.8180   -2.7980    4.0110 C   0  0  0  0  0  0  0  0  0  0  0  0
    1.8360   -2.0630    3.1110 C   0  0  2  0  0  0  0  0  0  0  0  0
    2.3940   -2.2780    1.6970 C   0  0  0  0  0  0  0  0  0  0  0  0
    1.7930   -0.5750    3.4600 C   0  0  2  0  0  0  0  0  0  0  0  0
    1.3930   -0.4310    4.8640 N   0  0  0  0  0  0  0  0  0  0  0  0
    0.7380    0.1000    2.6730 C   0  0  0  0  0  0  0  0  0  0  0  0
   -0.3420    0.4540    3.2820 O   0  0  0  0  0  0  0  0  0  0  0  0
    2.7400   -3.6290    6.0170 H   0  0  0  0  0  0  0  0  0  0  0  0
    2.8780   -1.8470    5.9890 H   0  0  0  0  0  0  0  0  0  0  0  0
    1.3360   -2.6570    5.5910 H   0  0  0  0  0  0  0  0  0  0  0  0
    3.8430   -2.4000    3.8960 H   0  0  0  0  0  0  0  0  0  0  0  0
    2.8710   -3.8730    3.7480 H   0  0  0  0  0  0  0  0  0  0  0  0
    0.8240   -2.4620    3.2390 H   0  0  0  0  0  0  0  0  0  0  0  0
    3.1490   -1.5230    1.4920 H   0  0  0  0  0  0  0  0  0  0  0  0
    1.5520   -2.2060    0.9960 H   0  0  0  0  0  0  0  0  0  0  0  0
    2.7850   -3.3200    1.6020 H   0  0  0  0  0  0  0  0  0  0  0  0
    2.7930   -0.1480    3.3650 H   0  0  0  0  0  0  0  0  0  0  0  0
    1.6380    0.4790    5.2620 H   0  0  0  0  0  0  0  0  0  0  0  0
    0.3530   -0.5260    4.8820 H   0  0  0  0  0  0  0  0  0  0  0  0
    2.7990    2.6230    1.8110 C   0  0  0  0  0  0  0  0  0  0  0  0
    2.4190    3.0600    0.1320 S   0  0  0  0  0  0  0  0  0  0  0  0
    0.7140    3.2190   -0.3100 C   0  0  0  0  0  0  0  0  0  0  0  0
   -0.0790    1.9970   -0.4250 C   0  0  0  0  0  0  0  0  0  0  0  0
   -0.3180    1.0670    0.6720 C   0  0  2  0  0  0  0  0  0  0  0  0
    0.7850    0.4090    1.2880 N   0  0  0  0  0  0  0  0  0  0  0  0
   -1.2200   -0.0260    0.0930 C   0  0  0  0  0  0  0  0  0  0  0  0
   -0.8390   -1.1940    0.2200 O   0  0  0  0  0  0  0  0  0  0  0  0
    1.9160    2.6660    2.4800 H   0  0  0  0  0  0  0  0  0  0  0  0
    3.5960    3.3070    2.2340 H   0  0  0  0  0  0  0  0  0  0  0  0
    3.2140    1.6000    1.8340 H   0  0  0  0  0  0  0  0  0  0  0  0
    0.7050    3.7000   -1.3540 H   0  0  0  0  0  0  0  0  0  0  0  0
    0.1870    4.0330    0.2850 H   0  0  0  0  0  0  0  0  0  0  0  0
   -1.0960    2.3220   -0.8440 H   0  0  0  0  0  0  0  0  0  0  0  0
    0.3350    1.4480   -1.3560 H   0  0  0  0  0  0  0  0  0  0  0  0
   -0.9390    1.5570    1.4930 H   0  0  0  0  0  0  0  0  0  0  0  0
    1.6620    0.1360    0.7740 H   0  0  0  0  0  0  0  0  0  0  0  0
   -2.4250    0.2420   -0.5550 N   0  0  0  0  0  0  0  0  0  0  0  0
   -3.2240   -0.8440   -1.0730 C   0  0  1  0  0  0  0  0  0  0  0  0
   -2.4970   -1.6830   -2.1060 C   0  0  0  0  0  0  0  0  0  0  0  0
   -2.0740   -0.8890   -3.2900 C   0  0  0  0  0  0  0  0  0  0  0  0
   -1.3400   -1.6130   -4.3550 C   0  0  0  0  0  0  0  0  0  0  0  0
   -2.0400   -2.7460   -5.0110 C   0  0  0  0  0  0  0  0  0  0  0  0
   -2.4070   -3.8210   -4.1160 N   0  0  0  0  0  0  0  0  0  0  0  0
   -3.5540   -1.7710    0.0670 C   0  0  0  0  0  0  0  0  0  0  0  0
   -3.1920   -1.5620    1.2500 O   0  0  0  0  0  0  0  0  0  0  0  0
   -4.2960   -2.9290   -0.1590 O   0  0  0  0  0  0  0  0  0  0  0  0
   -2.7570    1.2190   -0.6660 H   0  0  0  0  0  0  0  0  0  0  0  0
   -4.2140   -0.4810   -1.4380 H   0  0  0  0  0  0  0  0  0  0  0  0
   -1.6870   -2.2650   -1.6760 H   0  0  0  0  0  0  0  0  0  0  0  0
   -3.2770   -2.4240   -2.4530 H   0  0  0  0  0  0  0  0  0  0  0  0
   -2.9670   -0.3710   -3.7490 H   0  0  0  0  0  0  0  0  0  0  0  0
   -1.4410   -0.0460   -2.9210 H   0  0  0  0  0  0  0  0  0  0  0  0
   -1.0670   -0.8400   -5.1340 H   0  0  0  0  0  0  0  0  0  0  0  0
   -0.3400   -1.9960   -4.0220 H   0  0  0  0  0  0  0  0  0  0  0  0
   -1.3310   -3.2020   -5.7550 H   0  0  0  0  0  0  0  0  0  0  0  0
   -2.9160   -2.4290   -5.6270 H   0  0  0  0  0  0  0  0  0  0  0  0
   -1.7140   -3.9880   -3.3760 H   0  0  0  0  0  0  0  0  0  0  0  0
   -2.7390   -4.6560   -4.6070 H   0  0  0  0  0  0  0  0  0  0  0  0
  1 11  1  0  0  0  0
  1 10  1  0  0  0  0
  1  9  1  0  0  0  0
  2  1  1  0  0  0  0
  3 14  1  1  0  0  0
  3  5  1  0  0  0  0
  3  2  1  0  0  0  0
  4  3  1  0  0  0  0
  5 18  1  6  0  0  0
  5  6  1  0  0  0  0
  6 20  1  0  0  0  0
  6 19  1  0  0  0  0
  7  8  2  0  0  0  0
  7  5  1  0  0  0  0
 12  2  1  0  0  0  0
 13  2  1  0  0  0  0
 15  4  1  0  0  0  0
 16  4  1  0  0  0  0
 17  4  1  0  0  0  0
 21 31  1  0  0  0  0
 21 30  1  0  0  0  0
 21 29  1  0  0  0  0
 22 21  1  0  0  0  0
 23 22  1  0  0  0  0
 23 33  1  0  0  0  0
 24 23  1  0  0  0  0
 24 25  1  0  0  0  0
 25 26  1  0  0  0  0
 25 36  1  1  0  0  0
 26  7  1  0  0  0  0
 27 28  2  0  0  0  0
 27 25  1  0  0  0  0
 32 23  1  0  0  0  0
 34 24  1  0  0  0  0
 35 24  1  0  0  0  0
 37 26  1  0  0  0  0
 38 27  1  0  0  0  0
 39 49  1  6  0  0  0
 39 38  1  0  0  0  0
 39 45  1  0  0  0  0
 40 50  1  0  0  0  0
 40 39  1  0  0  0  0
 41 53  1  0  0  0  0
 41 40  1  0  0  0  0
 42 55  1  0  0  0  0
 42 41  1  0  0  0  0
 43 42  1  0  0  0  0
 43 44  1  0  0  0  0
 44 58  1  0  0  0  0
 45 46  1  0  0  0  0
 47 45  2  0  0  0  0
 48 38  1  0  0  0  0
 51 40  1  0  0  0  0
 52 41  1  0  0  0  0
 54 42  1  0  0  0  0
 56 43  1  0  0  0  0
 57 43  1  0  0  0  0
 59 44  1  0  0  0  0
M  END
$$$$
