IML.pdb
 OpenBabel07022418423D

 57 56  0  0  1  0  0  0  0  0999 V2000
    3.0470   -2.6600    4.4830 C   0  0  0  0  0  0  0  0  0  0  0  0
    2.2950   -1.3910    4.7100 C   0  0  0  0  0  0  0  0  0  0  0  0
    1.9430   -0.6650    3.4140 C   0  0  2  0  0  0  0  0  0  0  0  0
    1.2000    0.5820    3.8020 C   0  0  0  0  0  0  0  0  0  0  0  0
    1.0400   -1.5260    2.5470 C   0  0  2  0  0  0  0  0  0  0  0  0
    1.7740   -2.7650    2.2540 N   0  0  0  0  0  0  0  0  0  0  0  0
    0.7810   -0.8450    1.2590 C   0  0  0  0  0  0  0  0  0  0  0  0
    1.4950   -1.1910    0.2700 O   0  0  0  0  0  0  0  0  0  0  0  0
    2.4060   -3.5630    4.4180 H   0  0  0  0  0  0  0  0  0  0  0  0
    3.7230   -2.5490    3.5860 H   0  0  0  0  0  0  0  0  0  0  0  0
    3.7770   -2.8750    5.3180 H   0  0  0  0  0  0  0  0  0  0  0  0
    2.9470   -0.6740    5.2780 H   0  0  0  0  0  0  0  0  0  0  0  0
    1.3850   -1.5640    5.3260 H   0  0  0  0  0  0  0  0  0  0  0  0
    2.8600   -0.4960    2.8480 H   0  0  0  0  0  0  0  0  0  0  0  0
    1.7210    1.0530    4.7020 H   0  0  0  0  0  0  0  0  0  0  0  0
    0.1830    0.2850    4.1270 H   0  0  0  0  0  0  0  0  0  0  0  0
    1.1090    1.3180    2.9940 H   0  0  0  0  0  0  0  0  0  0  0  0
    0.1110   -1.7550    3.0670 H   0  0  0  0  0  0  0  0  0  0  0  0
    2.1700   -2.7340    1.2840 H   0  0  0  0  0  0  0  0  0  0  0  0
    1.1430   -3.5940    2.3850 H   0  0  0  0  0  0  0  0  0  0  0  0
    2.5280    4.3270    0.3770 C   0  0  0  0  0  0  0  0  0  0  0  0
    2.7270    3.2010   -1.0460 S   0  0  0  0  0  0  0  0  0  0  0  0
    1.9020    1.6180   -0.5900 C   0  0  0  0  0  0  0  0  0  0  0  0
    0.4580    1.9170   -0.4800 C   0  0  0  0  0  0  0  0  0  0  0  0
   -0.4620    0.8110   -0.1300 C   0  0  2  0  0  0  0  0  0  0  0  0
   -0.2300    0.1610    1.1200 N   0  0  0  0  0  0  0  0  0  0  0  0
   -0.8050   -0.1290   -1.1990 C   0  0  0  0  0  0  0  0  0  0  0  0
   -0.8350    0.2750   -2.3850 O   0  0  0  0  0  0  0  0  0  0  0  0
    3.0250    5.2710    0.1270 H   0  0  0  0  0  0  0  0  0  0  0  0
    3.0160    3.9290    1.2880 H   0  0  0  0  0  0  0  0  0  0  0  0
    1.4430    4.5690    0.5480 H   0  0  0  0  0  0  0  0  0  0  0  0
    2.3680    1.3700    0.4070 H   0  0  0  0  0  0  0  0  0  0  0  0
    2.2120    0.9030   -1.3440 H   0  0  0  0  0  0  0  0  0  0  0  0
    0.3490    2.7110    0.3200 H   0  0  0  0  0  0  0  0  0  0  0  0
    0.1290    2.4530   -1.4090 H   0  0  0  0  0  0  0  0  0  0  0  0
   -1.4840    1.3580    0.0400 H   0  0  0  0  0  0  0  0  0  0  0  0
   -0.7850    0.3710    1.9860 H   0  0  0  0  0  0  0  0  0  0  0  0
   -3.9210   -0.6970   -1.2510 C   0  0  0  0  0  0  0  0  0  0  0  0
   -3.8310   -1.7490   -2.2910 C   0  0  0  0  0  0  0  0  0  0  0  0
   -4.4220   -3.0310   -1.7190 C   0  0  0  0  0  0  0  0  0  0  0  0
   -2.5120   -1.9990   -2.9140 C   0  0  0  0  0  0  0  0  0  0  0  0
   -1.4460   -2.4210   -1.9590 C   0  0  2  0  0  0  0  0  0  0  0  0
   -1.1090   -1.4770   -0.9310 N   0  0  0  0  0  0  0  0  0  0  0  0
   -0.2690   -2.9930   -2.6580 C   0  0  0  0  0  0  0  0  0  0  0  0
    0.9280   -2.6810   -2.3800 O   0  0  0  0  0  0  0  0  0  0  0  0
   -0.4400   -3.9190   -3.6740 O   0  0  0  0  0  0  0  0  0  0  0  0
   -5.0160   -0.6230   -0.9770 H   0  0  0  0  0  0  0  0  0  0  0  0
   -3.5770    0.2790   -1.6390 H   0  0  0  0  0  0  0  0  0  0  0  0
   -3.3660   -1.0190   -0.3490 H   0  0  0  0  0  0  0  0  0  0  0  0
   -4.5330   -1.4530   -3.1170 H   0  0  0  0  0  0  0  0  0  0  0  0
   -4.0320   -3.1260   -0.6720 H   0  0  0  0  0  0  0  0  0  0  0  0
   -4.1450   -3.9050   -2.3180 H   0  0  0  0  0  0  0  0  0  0  0  0
   -5.5220   -2.8980   -1.6430 H   0  0  0  0  0  0  0  0  0  0  0  0
   -2.6550   -2.8810   -3.6110 H   0  0  0  0  0  0  0  0  0  0  0  0
   -2.2340   -1.1420   -3.5640 H   0  0  0  0  0  0  0  0  0  0  0  0
   -1.9210   -3.3150   -1.4170 H   0  0  0  0  0  0  0  0  0  0  0  0
   -1.1020   -1.7970    0.0840 H   0  0  0  0  0  0  0  0  0  0  0  0
  1  2  1  0  0  0  0
  1 11  1  0  0  0  0
  2 12  1  0  0  0  0
  2 13  1  0  0  0  0
  3 14  1  6  0  0  0
  3  4  1  0  0  0  0
  3  2  1  0  0  0  0
  4 16  1  0  0  0  0
  4 15  1  0  0  0  0
  5 18  1  1  0  0  0
  5  3  1  0  0  0  0
  6 20  1  0  0  0  0
  6  5  1  0  0  0  0
  7  5  1  0  0  0  0
  8  7  2  0  0  0  0
  9  1  1  0  0  0  0
 10  1  1  0  0  0  0
 17  4  1  0  0  0  0
 19  6  1  0  0  0  0
 21 31  1  0  0  0  0
 21 30  1  0  0  0  0
 22 23  1  0  0  0  0
 22 21  1  0  0  0  0
 23 24  1  0  0  0  0
 23 32  1  0  0  0  0
 24 25  1  0  0  0  0
 24 34  1  0  0  0  0
 25 36  1  1  0  0  0
 25 26  1  0  0  0  0
 26  7  1  0  0  0  0
 26 37  1  0  0  0  0
 27 43  1  0  0  0  0
 27 25  1  0  0  0  0
 28 27  2  0  0  0  0
 29 21  1  0  0  0  0
 33 23  1  0  0  0  0
 35 24  1  0  0  0  0
 38 47  1  0  0  0  0
 38 49  1  0  0  0  0
 39 40  1  0  0  0  0
 39 38  1  0  0  0  0
 40 53  1  0  0  0  0
 40 51  1  0  0  0  0
 41 39  1  0  0  0  0
 41 42  1  0  0  0  0
 42 56  1  1  0  0  0
 42 43  1  0  0  0  0
 43 57  1  0  0  0  0
 44 45  1  0  0  0  0
 44 42  1  0  0  0  0
 46 44  2  0  0  0  0
 48 38  1  0  0  0  0
 50 39  1  0  0  0  0
 52 40  1  0  0  0  0
 54 41  1  0  0  0  0
 55 41  1  0  0  0  0
M  END
$$$$
