IMM.pdb
 OpenBabel07022418423D

 55 54  0  0  1  0  0  0  0  0999 V2000
    2.1410   -4.6770    2.3550 C   0  0  0  0  0  0  0  0  0  0  0  0
    2.1730   -3.1620    2.2080 C   0  0  0  0  0  0  0  0  0  0  0  0
    2.1280   -2.4890    3.5370 C   0  0  2  0  0  0  0  0  0  0  0  0
    0.8490   -2.8670    4.2410 C   0  0  0  0  0  0  0  0  0  0  0  0
    2.3510   -0.9970    3.4430 C   0  0  2  0  0  0  0  0  0  0  0  0
    2.2830   -0.4200    4.7990 N   0  0  0  0  0  0  0  0  0  0  0  0
    1.3810   -0.3320    2.5730 C   0  0  0  0  0  0  0  0  0  0  0  0
    0.4780    0.3620    3.1240 O   0  0  0  0  0  0  0  0  0  0  0  0
    1.1370   -5.0640    2.0910 H   0  0  0  0  0  0  0  0  0  0  0  0
    2.8730   -5.1570    1.6660 H   0  0  0  0  0  0  0  0  0  0  0  0
    2.4050   -4.9870    3.3850 H   0  0  0  0  0  0  0  0  0  0  0  0
    1.2380   -2.8670    1.6690 H   0  0  0  0  0  0  0  0  0  0  0  0
    3.0320   -2.9060    1.5820 H   0  0  0  0  0  0  0  0  0  0  0  0
    2.9610   -2.9200    4.1810 H   0  0  0  0  0  0  0  0  0  0  0  0
   -0.0030   -2.9100    3.5350 H   0  0  0  0  0  0  0  0  0  0  0  0
    0.6140   -2.1620    5.0730 H   0  0  0  0  0  0  0  0  0  0  0  0
    0.9840   -3.9080    4.6240 H   0  0  0  0  0  0  0  0  0  0  0  0
    3.4110   -0.8600    3.1250 H   0  0  0  0  0  0  0  0  0  0  0  0
    2.8710    0.4550    4.8470 H   0  0  0  0  0  0  0  0  0  0  0  0
    2.6440   -1.1340    5.4860 H   0  0  0  0  0  0  0  0  0  0  0  0
    3.3540    3.5180   -1.4610 C   0  0  0  0  0  0  0  0  0  0  0  0
    2.3510    2.3910   -2.4550 S   0  0  0  0  0  0  0  0  0  0  0  0
    1.7960    0.9600   -1.4860 C   0  0  0  0  0  0  0  0  0  0  0  0
    0.8470    1.4400   -0.4240 C   0  0  0  0  0  0  0  0  0  0  0  0
    0.3200    0.3370    0.4510 C   0  0  2  0  0  0  0  0  0  0  0  0
    1.3410   -0.3770    1.1610 N   0  0  0  0  0  0  0  0  0  0  0  0
   -0.3870   -0.6150   -0.4400 C   0  0  0  0  0  0  0  0  0  0  0  0
   -0.0350   -1.8430   -0.5040 O   0  0  0  0  0  0  0  0  0  0  0  0
    4.0850    4.0260   -2.1220 H   0  0  0  0  0  0  0  0  0  0  0  0
    3.9240    2.9920   -0.6820 H   0  0  0  0  0  0  0  0  0  0  0  0
    2.6980    4.3240   -1.0340 H   0  0  0  0  0  0  0  0  0  0  0  0
    2.6650    0.4160   -1.0840 H   0  0  0  0  0  0  0  0  0  0  0  0
    1.2900    0.2770   -2.1990 H   0  0  0  0  0  0  0  0  0  0  0  0
    1.3030    2.2270    0.2080 H   0  0  0  0  0  0  0  0  0  0  0  0
   -0.0230    1.9050   -0.9320 H   0  0  0  0  0  0  0  0  0  0  0  0
   -0.4110    0.8310    1.1420 H   0  0  0  0  0  0  0  0  0  0  0  0
    2.0610   -0.9200    0.6590 H   0  0  0  0  0  0  0  0  0  0  0  0
   -6.2760   -0.4960    0.2650 C   0  0  0  0  0  0  0  0  0  0  0  0
   -6.0790   -0.1220   -1.4970 S   0  0  0  0  0  0  0  0  0  0  0  0
   -4.3230    0.0470   -1.9100 C   0  0  0  0  0  0  0  0  0  0  0  0
   -3.6080   -1.2640   -1.7520 C   0  0  0  0  0  0  0  0  0  0  0  0
   -2.1350   -1.1340   -2.0950 C   0  0  2  0  0  0  0  0  0  0  0  0
   -1.4750   -0.1750   -1.2420 N   0  0  0  0  0  0  0  0  0  0  0  0
   -1.9720   -0.7050   -3.4990 C   0  0  0  0  0  0  0  0  0  0  0  0
   -1.3440    0.3380   -3.7700 O   0  0  0  0  0  0  0  0  0  0  0  0
   -2.5290   -1.4820   -4.4980 O   0  0  0  0  0  0  0  0  0  0  0  0
   -6.4380   -1.5990    0.4060 H   0  0  0  0  0  0  0  0  0  0  0  0
   -7.1870    0.0290    0.6500 H   0  0  0  0  0  0  0  0  0  0  0  0
   -5.4020   -0.1840    0.8510 H   0  0  0  0  0  0  0  0  0  0  0  0
   -4.2740    0.3940   -2.9570 H   0  0  0  0  0  0  0  0  0  0  0  0
   -3.8610    0.8570   -1.2950 H   0  0  0  0  0  0  0  0  0  0  0  0
   -4.0510   -1.9770   -2.4740 H   0  0  0  0  0  0  0  0  0  0  0  0
   -3.7310   -1.6790   -0.7390 H   0  0  0  0  0  0  0  0  0  0  0  0
   -1.6260   -2.1280   -2.0040 H   0  0  0  0  0  0  0  0  0  0  0  0
   -1.7530    0.8160   -1.1850 H   0  0  0  0  0  0  0  0  0  0  0  0
  1 11  1  0  0  0  0
  2  1  1  0  0  0  0
  2  3  1  0  0  0  0
  3 14  1  1  0  0  0
  3  4  1  0  0  0  0
  4 17  1  0  0  0  0
  4 16  1  0  0  0  0
  5 18  1  6  0  0  0
  5  3  1  0  0  0  0
  5  6  1  0  0  0  0
  6 19  1  0  0  0  0
  6 20  1  0  0  0  0
  7  8  2  0  0  0  0
  7  5  1  0  0  0  0
  9  1  1  0  0  0  0
 10  1  1  0  0  0  0
 12  2  1  0  0  0  0
 13  2  1  0  0  0  0
 15  4  1  0  0  0  0
 21 31  1  0  0  0  0
 21 30  1  0  0  0  0
 22 23  1  0  0  0  0
 22 21  1  0  0  0  0
 23 32  1  0  0  0  0
 23 24  1  0  0  0  0
 24 34  1  0  0  0  0
 24 25  1  0  0  0  0
 25 36  1  1  0  0  0
 25 26  1  0  0  0  0
 26  7  1  0  0  0  0
 27 25  1  0  0  0  0
 28 27  2  0  0  0  0
 29 21  1  0  0  0  0
 33 23  1  0  0  0  0
 35 24  1  0  0  0  0
 37 26  1  0  0  0  0
 38 47  1  0  0  0  0
 38 48  1  0  0  0  0
 38 49  1  0  0  0  0
 39 38  1  0  0  0  0
 40 41  1  0  0  0  0
 40 39  1  0  0  0  0
 40 51  1  0  0  0  0
 41 53  1  0  0  0  0
 42 54  1  1  0  0  0
 42 41  1  0  0  0  0
 42 43  1  0  0  0  0
 43 55  1  0  0  0  0
 43 27  1  0  0  0  0
 44 42  1  0  0  0  0
 45 44  1  0  0  0  0
 46 44  2  0  0  0  0
 50 40  1  0  0  0  0
 52 41  1  0  0  0  0
M  END
$$$$
