IMN.pdb
 OpenBabel07022418423D

 52 51  0  0  1  0  0  0  0  0999 V2000
    0.9320   -4.8990    1.9330 C   0  0  0  0  0  0  0  0  0  0  0  0
    0.7260   -3.6990    1.0890 C   0  0  0  0  0  0  0  0  0  0  0  0
    1.9610   -2.9560    0.6980 C   0  0  2  0  0  0  0  0  0  0  0  0
    2.8850   -3.8500   -0.0870 C   0  0  0  0  0  0  0  0  0  0  0  0
    2.6330   -2.2390    1.8270 C   0  0  2  0  0  0  0  0  0  0  0  0
    3.0670   -3.0730    2.9030 N   0  0  0  0  0  0  0  0  0  0  0  0
    1.7090   -1.1830    2.3140 C   0  0  0  0  0  0  0  0  0  0  0  0
    1.3450   -1.1010    3.5270 O   0  0  0  0  0  0  0  0  0  0  0  0
    0.3190   -4.8560    2.8800 H   0  0  0  0  0  0  0  0  0  0  0  0
    0.5940   -5.8310    1.4280 H   0  0  0  0  0  0  0  0  0  0  0  0
    1.9650   -5.0820    2.2650 H   0  0  0  0  0  0  0  0  0  0  0  0
    0.2390   -4.0300    0.1240 H   0  0  0  0  0  0  0  0  0  0  0  0
   -0.0380   -3.0550    1.5730 H   0  0  0  0  0  0  0  0  0  0  0  0
    1.6300   -2.1710   -0.0160 H   0  0  0  0  0  0  0  0  0  0  0  0
    3.4930   -4.5200    0.5400 H   0  0  0  0  0  0  0  0  0  0  0  0
    3.5920   -3.2900   -0.7340 H   0  0  0  0  0  0  0  0  0  0  0  0
    2.2620   -4.4730   -0.7610 H   0  0  0  0  0  0  0  0  0  0  0  0
    3.5280   -1.7160    1.4310 H   0  0  0  0  0  0  0  0  0  0  0  0
    4.0040   -3.4720    2.8160 H   0  0  0  0  0  0  0  0  0  0  0  0
    2.8020   -2.7430    3.8510 H   0  0  0  0  0  0  0  0  0  0  0  0
    0.4990    5.4290    0.3180 C   0  0  0  0  0  0  0  0  0  0  0  0
    1.6960    4.1580   -0.0880 S   0  0  0  0  0  0  0  0  0  0  0  0
    1.0600    2.4930    0.1810 C   0  0  0  0  0  0  0  0  0  0  0  0
    0.8050    2.2120    1.6440 C   0  0  0  0  0  0  0  0  0  0  0  0
    0.2780    0.8380    1.8860 C   0  0  2  0  0  0  0  0  0  0  0  0
    1.1810   -0.2020    1.4350 N   0  0  0  0  0  0  0  0  0  0  0  0
   -1.0740    0.7040    1.2590 C   0  0  0  0  0  0  0  0  0  0  0  0
   -1.9270    1.5600    1.5840 O   0  0  0  0  0  0  0  0  0  0  0  0
    0.6980    6.3090   -0.3260 H   0  0  0  0  0  0  0  0  0  0  0  0
    0.5930    5.7880    1.3670 H   0  0  0  0  0  0  0  0  0  0  0  0
   -0.5420    5.0980    0.0860 H   0  0  0  0  0  0  0  0  0  0  0  0
    0.0720    2.4350   -0.3330 H   0  0  0  0  0  0  0  0  0  0  0  0
    1.7810    1.7400   -0.1820 H   0  0  0  0  0  0  0  0  0  0  0  0
    1.7500    2.3490    2.2150 H   0  0  0  0  0  0  0  0  0  0  0  0
    0.0850    2.9440    2.0500 H   0  0  0  0  0  0  0  0  0  0  0  0
    0.1280    0.6870    2.9740 H   0  0  0  0  0  0  0  0  0  0  0  0
    1.4410   -0.2110    0.4300 H   0  0  0  0  0  0  0  0  0  0  0  0
   -4.8390    0.7080   -2.4130 N   0  0  0  0  0  0  0  0  0  0  0  0
   -4.0390   -0.4630   -2.3060 C   0  0  0  0  0  0  0  0  0  0  0  0
   -4.5330   -1.5450   -2.7030 O   0  0  0  0  0  0  0  0  0  0  0  0
   -2.6840   -0.3330   -1.7380 C   0  0  0  0  0  0  0  0  0  0  0  0
   -2.7350   -0.4340   -0.2560 C   0  0  2  0  0  0  0  0  0  0  0  0
   -1.4170   -0.3070    0.3520 N   0  0  0  0  0  0  0  0  0  0  0  0
   -3.3980   -1.6770    0.1570 C   0  0  0  0  0  0  0  0  0  0  0  0
   -4.5490   -2.0320   -0.1770 O   0  0  0  0  0  0  0  0  0  0  0  0
   -2.7250   -2.5860    1.0030 O   0  0  0  0  0  0  0  0  0  0  0  0
   -5.6890    0.8830   -1.8290 H   0  0  0  0  0  0  0  0  0  0  0  0
   -4.5330    1.4110   -3.1240 H   0  0  0  0  0  0  0  0  0  0  0  0
   -2.0950   -1.1980   -2.1560 H   0  0  0  0  0  0  0  0  0  0  0  0
   -2.2780    0.6330   -2.1070 H   0  0  0  0  0  0  0  0  0  0  0  0
   -3.3380    0.4090    0.1440 H   0  0  0  0  0  0  0  0  0  0  0  0
   -0.7080   -1.0230    0.0810 H   0  0  0  0  0  0  0  0  0  0  0  0
  1 11  1  0  0  0  0
  1  9  1  0  0  0  0
  2 13  1  0  0  0  0
  2  1  1  0  0  0  0
  3 14  1  6  0  0  0
  3  2  1  0  0  0  0
  3  5  1  0  0  0  0
  4 15  1  0  0  0  0
  4  3  1  0  0  0  0
  5 18  1  6  0  0  0
  5  7  1  0  0  0  0
  5  6  1  0  0  0  0
  6 20  1  0  0  0  0
  7  8  2  0  0  0  0
 10  1  1  0  0  0  0
 12  2  1  0  0  0  0
 16  4  1  0  0  0  0
 17  4  1  0  0  0  0
 19  6  1  0  0  0  0
 21 30  1  0  0  0  0
 22 23  1  0  0  0  0
 22 21  1  0  0  0  0
 23 24  1  0  0  0  0
 24 25  1  0  0  0  0
 24 35  1  0  0  0  0
 24 34  1  0  0  0  0
 25 36  1  1  0  0  0
 26 25  1  0  0  0  0
 26  7  1  0  0  0  0
 27 28  2  0  0  0  0
 27 25  1  0  0  0  0
 29 21  1  0  0  0  0
 31 21  1  0  0  0  0
 32 23  1  0  0  0  0
 33 23  1  0  0  0  0
 37 26  1  0  0  0  0
 38 39  1  0  0  0  0
 38 47  1  0  0  0  0
 39 41  1  0  0  0  0
 40 39  2  0  0  0  0
 41 42  1  0  0  0  0
 42 51  1  1  0  0  0
 42 44  1  0  0  0  0
 42 43  1  0  0  0  0
 43 27  1  0  0  0  0
 44 46  1  0  0  0  0
 45 44  2  0  0  0  0
 48 38  1  0  0  0  0
 49 41  1  0  0  0  0
 50 41  1  0  0  0  0
 52 43  1  0  0  0  0
M  END
$$$$
