IMR.pdb
 OpenBabel07022418423D

 61 60  0  0  1  0  0  0  0  0999 V2000
    0.5850   -0.9960    4.4970 C   0  0  0  0  0  0  0  0  0  0  0  0
    2.0430   -1.3450    4.4090 C   0  0  0  0  0  0  0  0  0  0  0  0
    2.7720   -0.7610    3.2550 C   0  0  2  0  0  0  0  0  0  0  0  0
    4.2240   -1.2000    3.3030 C   0  0  0  0  0  0  0  0  0  0  0  0
    2.6240    0.7030    3.0420 C   0  0  2  0  0  0  0  0  0  0  0  0
    3.0560    1.4990    4.1630 N   0  0  0  0  0  0  0  0  0  0  0  0
    1.2990    1.1150    2.5360 C   0  0  0  0  0  0  0  0  0  0  0  0
    0.6240    1.9960    3.1700 O   0  0  0  0  0  0  0  0  0  0  0  0
    0.3940   -0.0300    4.9930 H   0  0  0  0  0  0  0  0  0  0  0  0
    0.0190   -1.7470    5.1180 H   0  0  0  0  0  0  0  0  0  0  0  0
    0.1660   -1.0840    3.4860 H   0  0  0  0  0  0  0  0  0  0  0  0
    2.5710   -1.2000    5.3850 H   0  0  0  0  0  0  0  0  0  0  0  0
    2.0720   -2.4680    4.2670 H   0  0  0  0  0  0  0  0  0  0  0  0
    2.3510   -1.2570    2.3280 H   0  0  0  0  0  0  0  0  0  0  0  0
    4.8820   -0.3510    3.0420 H   0  0  0  0  0  0  0  0  0  0  0  0
    4.4510   -2.0080    2.5780 H   0  0  0  0  0  0  0  0  0  0  0  0
    4.4750   -1.6210    4.3160 H   0  0  0  0  0  0  0  0  0  0  0  0
    3.3620    0.9650    2.2130 H   0  0  0  0  0  0  0  0  0  0  0  0
    2.5640    1.2980    5.0470 H   0  0  0  0  0  0  0  0  0  0  0  0
    4.0700    1.6160    4.2330 H   0  0  0  0  0  0  0  0  0  0  0  0
   -0.1250    2.4340   -3.6530 C   0  0  0  0  0  0  0  0  0  0  0  0
   -0.9390    3.4850   -2.4010 S   0  0  0  0  0  0  0  0  0  0  0  0
   -1.5020    2.4410   -1.0050 C   0  0  0  0  0  0  0  0  0  0  0  0
   -0.2860    1.9020   -0.3380 C   0  0  0  0  0  0  0  0  0  0  0  0
   -0.6170    1.0190    0.8710 C   0  0  2  0  0  0  0  0  0  0  0  0
    0.6890    0.6070    1.3720 N   0  0  0  0  0  0  0  0  0  0  0  0
   -1.5020   -0.0880    0.5860 C   0  0  0  0  0  0  0  0  0  0  0  0
   -2.6710    0.1160    0.1930 O   0  0  0  0  0  0  0  0  0  0  0  0
   -0.3950    1.3530   -3.5000 H   0  0  0  0  0  0  0  0  0  0  0  0
    0.9750    2.5510   -3.6070 H   0  0  0  0  0  0  0  0  0  0  0  0
   -0.5510    2.7200   -4.6320 H   0  0  0  0  0  0  0  0  0  0  0  0
   -2.0590    3.1040   -0.3150 H   0  0  0  0  0  0  0  0  0  0  0  0
   -2.2140    1.6740   -1.3720 H   0  0  0  0  0  0  0  0  0  0  0  0
    0.3940    1.3610   -1.0340 H   0  0  0  0  0  0  0  0  0  0  0  0
    0.3030    2.7730    0.0280 H   0  0  0  0  0  0  0  0  0  0  0  0
   -1.0830    1.7150    1.5940 H   0  0  0  0  0  0  0  0  0  0  0  0
    1.1900   -0.1110    0.8170 H   0  0  0  0  0  0  0  0  0  0  0  0
   -3.0400   -0.2880   -4.0960 N   0  0  0  0  0  0  0  0  0  0  0  0
   -2.8580   -1.6310   -3.7510 C   0  0  0  0  0  0  0  0  0  0  0  0
   -3.4700   -2.5650   -4.3770 N   0  0  0  0  0  0  0  0  0  0  0  0
   -1.9740   -2.0270   -2.6750 N   0  0  0  0  0  0  0  0  0  0  0  0
   -1.3900   -3.3270   -2.6730 C   0  0  0  0  0  0  0  0  0  0  0  0
   -0.6030   -3.6570   -1.4590 C   0  0  0  0  0  0  0  0  0  0  0  0
   -1.2830   -3.7370   -0.1610 C   0  0  0  0  0  0  0  0  0  0  0  0
   -1.9490   -2.5770    0.4490 C   0  0  2  0  0  0  0  0  0  0  0  0
   -1.0990   -1.4390    0.7330 N   0  0  0  0  0  0  0  0  0  0  0  0
   -2.4820   -3.0930    1.7910 C   0  0  0  0  0  0  0  0  0  0  0  0
   -3.2450   -4.0830    1.8420 O   0  0  0  0  0  0  0  0  0  0  0  0
   -2.1190   -2.4630    2.9520 O   0  0  0  0  0  0  0  0  0  0  0  0
   -2.6290    0.4720   -3.5180 H   0  0  0  0  0  0  0  0  0  0  0  0
   -3.5860   -0.0300   -4.9310 H   0  0  0  0  0  0  0  0  0  0  0  0
   -4.1110   -2.3110   -5.1530 H   0  0  0  0  0  0  0  0  0  0  0  0
   -1.7680   -1.3400   -1.9370 H   0  0  0  0  0  0  0  0  0  0  0  0
   -0.6970   -3.4470   -3.5630 H   0  0  0  0  0  0  0  0  0  0  0  0
   -2.1800   -4.1330   -2.8040 H   0  0  0  0  0  0  0  0  0  0  0  0
   -0.1510   -4.6900   -1.6580 H   0  0  0  0  0  0  0  0  0  0  0  0
    0.2970   -2.9750   -1.4360 H   0  0  0  0  0  0  0  0  0  0  0  0
   -2.1020   -4.5350   -0.2670 H   0  0  0  0  0  0  0  0  0  0  0  0
   -0.5650   -4.1780    0.6160 H   0  0  0  0  0  0  0  0  0  0  0  0
   -2.8500   -2.2440   -0.1160 H   0  0  0  0  0  0  0  0  0  0  0  0
   -0.1230   -1.6990    1.0690 H   0  0  0  0  0  0  0  0  0  0  0  0
  1  9  1  0  0  0  0
  1 10  1  0  0  0  0
  2  1  1  0  0  0  0
  2 12  1  0  0  0  0
  3 14  1  6  0  0  0
  3  4  1  0  0  0  0
  3  2  1  0  0  0  0
  4 17  1  0  0  0  0
  5 18  1  6  0  0  0
  5  3  1  0  0  0  0
  5  6  1  0  0  0  0
  6 20  1  0  0  0  0
  6 19  1  0  0  0  0
  7  5  1  0  0  0  0
  7  8  2  0  0  0  0
 11  1  1  0  0  0  0
 13  2  1  0  0  0  0
 15  4  1  0  0  0  0
 16  4  1  0  0  0  0
 21 30  1  0  0  0  0
 21 29  1  0  0  0  0
 21 22  1  0  0  0  0
 22 23  1  0  0  0  0
 23 24  1  0  0  0  0
 23 32  1  0  0  0  0
 24 35  1  0  0  0  0
 24 25  1  0  0  0  0
 25 26  1  0  0  0  0
 25 36  1  1  0  0  0
 26  7  1  0  0  0  0
 27 46  1  0  0  0  0
 27 25  1  0  0  0  0
 28 27  2  0  0  0  0
 31 21  1  0  0  0  0
 33 23  1  0  0  0  0
 34 24  1  0  0  0  0
 37 26  1  0  0  0  0
 38 39  1  0  0  0  0
 38 50  1  0  0  0  0
 39 41  1  0  0  0  0
 40 39  2  0  0  0  0
 41 42  1  0  0  0  0
 41 53  1  0  0  0  0
 42 43  1  0  0  0  0
 43 57  1  0  0  0  0
 43 44  1  0  0  0  0
 44 45  1  0  0  0  0
 44 59  1  0  0  0  0
 45 60  1  6  0  0  0
 45 46  1  0  0  0  0
 45 47  1  0  0  0  0
 46 61  1  0  0  0  0
 47 48  2  0  0  0  0
 47 49  1  0  0  0  0
 51 38  1  0  0  0  0
 52 40  1  0  0  0  0
 54 42  1  0  0  0  0
 55 42  1  0  0  0  0
 56 43  1  0  0  0  0
 58 44  1  0  0  0  0
M  END
$$$$
