IMV.pdb
 OpenBabel07022418423D

 54 53  0  0  1  0  0  0  0  0999 V2000
   -0.9460    0.2050    5.8230 C   0  0  0  0  0  0  0  0  0  0  0  0
    0.4540    0.6790    5.5400 C   0  0  0  0  0  0  0  0  0  0  0  0
    0.6060    0.8940    4.0250 C   0  0  2  0  0  0  0  0  0  0  0  0
   -0.4160    1.9310    3.6700 C   0  0  0  0  0  0  0  0  0  0  0  0
    0.4630   -0.4270    3.3880 C   0  0  2  0  0  0  0  0  0  0  0  0
    1.5030   -1.3210    3.9340 N   0  0  0  0  0  0  0  0  0  0  0  0
    0.5230   -0.5090    1.9320 C   0  0  0  0  0  0  0  0  0  0  0  0
    1.3440   -1.3510    1.4230 O   0  0  0  0  0  0  0  0  0  0  0  0
   -1.1660    0.3090    6.9270 H   0  0  0  0  0  0  0  0  0  0  0  0
   -1.7210    0.8290    5.3390 H   0  0  0  0  0  0  0  0  0  0  0  0
   -1.1070   -0.8730    5.6100 H   0  0  0  0  0  0  0  0  0  0  0  0
    0.5770    1.6700    6.0300 H   0  0  0  0  0  0  0  0  0  0  0  0
    1.2210   -0.0430    5.8190 H   0  0  0  0  0  0  0  0  0  0  0  0
    1.6360    1.2840    3.9140 H   0  0  0  0  0  0  0  0  0  0  0  0
   -1.4310    1.5650    3.5080 H   0  0  0  0  0  0  0  0  0  0  0  0
   -0.5250    2.6880    4.5130 H   0  0  0  0  0  0  0  0  0  0  0  0
   -0.0230    2.5650    2.8320 H   0  0  0  0  0  0  0  0  0  0  0  0
   -0.5050   -0.9230    3.6900 H   0  0  0  0  0  0  0  0  0  0  0  0
    2.3110   -0.7270    4.2320 H   0  0  0  0  0  0  0  0  0  0  0  0
    1.1470   -1.8350    4.7650 H   0  0  0  0  0  0  0  0  0  0  0  0
    3.5490    1.0100    1.4720 C   0  0  0  0  0  0  0  0  0  0  0  0
    2.1590    2.0340    0.8540 S   0  0  0  0  0  0  0  0  0  0  0  0
    1.8030    1.5950   -0.8440 C   0  0  0  0  0  0  0  0  0  0  0  0
    1.2260    0.2500   -1.0590 C   0  0  0  0  0  0  0  0  0  0  0  0
   -0.0960    0.0640   -0.4320 C   0  0  2  0  0  0  0  0  0  0  0  0
   -0.2090    0.2180    0.9800 N   0  0  0  0  0  0  0  0  0  0  0  0
   -0.6790   -1.2850   -0.7860 C   0  0  0  0  0  0  0  0  0  0  0  0
   -1.1320   -1.9940    0.1380 O   0  0  0  0  0  0  0  0  0  0  0  0
    3.7360    0.1840    0.7330 H   0  0  0  0  0  0  0  0  0  0  0  0
    3.2650    0.4970    2.4050 H   0  0  0  0  0  0  0  0  0  0  0  0
    4.4790    1.6010    1.5600 H   0  0  0  0  0  0  0  0  0  0  0  0
    1.1690    2.4140   -1.2930 H   0  0  0  0  0  0  0  0  0  0  0  0
    2.7700    1.6770   -1.4250 H   0  0  0  0  0  0  0  0  0  0  0  0
    1.9720   -0.5320   -0.8160 H   0  0  0  0  0  0  0  0  0  0  0  0
    1.0700    0.1370   -2.1720 H   0  0  0  0  0  0  0  0  0  0  0  0
   -0.8030    0.7790   -0.9490 H   0  0  0  0  0  0  0  0  0  0  0  0
   -0.8870    0.9220    1.3400 H   0  0  0  0  0  0  0  0  0  0  0  0
   -3.5640   -2.1150   -2.8460 C   0  0  0  0  0  0  0  0  0  0  0  0
   -2.4400   -2.9140   -3.4690 C   0  0  0  0  0  0  0  0  0  0  0  0
   -2.0380   -2.2500   -4.7440 C   0  0  0  0  0  0  0  0  0  0  0  0
   -1.2750   -3.0550   -2.4900 C   0  0  2  0  0  0  0  0  0  0  0  0
   -0.7340   -1.7790   -2.1010 N   0  0  0  0  0  0  0  0  0  0  0  0
   -0.1780   -3.8560   -3.0920 C   0  0  0  0  0  0  0  0  0  0  0  0
    0.9880   -3.3920   -3.1910 O   0  0  0  0  0  0  0  0  0  0  0  0
   -0.3590   -5.1500   -3.5780 O   0  0  0  0  0  0  0  0  0  0  0  0
   -4.0260   -2.7490   -2.0440 H   0  0  0  0  0  0  0  0  0  0  0  0
   -4.3290   -1.8240   -3.5620 H   0  0  0  0  0  0  0  0  0  0  0  0
   -3.0840   -1.2480   -2.3340 H   0  0  0  0  0  0  0  0  0  0  0  0
   -2.8210   -3.9460   -3.6330 H   0  0  0  0  0  0  0  0  0  0  0  0
   -1.1000   -1.6710   -4.6790 H   0  0  0  0  0  0  0  0  0  0  0  0
   -1.9900   -3.0300   -5.5410 H   0  0  0  0  0  0  0  0  0  0  0  0
   -2.8200   -1.5210   -5.1050 H   0  0  0  0  0  0  0  0  0  0  0  0
   -1.6630   -3.6430   -1.6410 H   0  0  0  0  0  0  0  0  0  0  0  0
   -0.3460   -1.1590   -2.8540 H   0  0  0  0  0  0  0  0  0  0  0  0
  1  9  1  0  0  0  0
  2 13  1  0  0  0  0
  2  1  1  0  0  0  0
  2 12  1  0  0  0  0
  3 14  1  6  0  0  0
  3  2  1  0  0  0  0
  4  3  1  0  0  0  0
  4 16  1  0  0  0  0
  5 18  1  1  0  0  0
  5  6  1  0  0  0  0
  5  3  1  0  0  0  0
  6 19  1  0  0  0  0
  6 20  1  0  0  0  0
  7  5  1  0  0  0  0
  8  7  2  0  0  0  0
 10  1  1  0  0  0  0
 11  1  1  0  0  0  0
 15  4  1  0  0  0  0
 17  4  1  0  0  0  0
 21 31  1  0  0  0  0
 21 30  1  0  0  0  0
 22 21  1  0  0  0  0
 23 22  1  0  0  0  0
 24 23  1  0  0  0  0
 24 34  1  0  0  0  0
 24 25  1  0  0  0  0
 25 36  1  6  0  0  0
 25 26  1  0  0  0  0
 26 37  1  0  0  0  0
 26  7  1  0  0  0  0
 27 25  1  0  0  0  0
 27 28  2  0  0  0  0
 29 21  1  0  0  0  0
 32 23  1  0  0  0  0
 33 23  1  0  0  0  0
 35 24  1  0  0  0  0
 38 48  1  0  0  0  0
 38 46  1  0  0  0  0
 39 38  1  0  0  0  0
 39 41  1  0  0  0  0
 40 50  1  0  0  0  0
 40 39  1  0  0  0  0
 41 42  1  0  0  0  0
 41 53  1  1  0  0  0
 42 27  1  0  0  0  0
 43 41  1  0  0  0  0
 44 43  1  0  0  0  0
 45 43  2  0  0  0  0
 47 38  1  0  0  0  0
 49 39  1  0  0  0  0
 51 40  1  0  0  0  0
 52 40  1  0  0  0  0
 54 42  1  0  0  0  0
M  END
$$$$
