IMW.pdb
 OpenBabel07022418423D

 62 63  0  0  1  0  0  0  0  0999 V2000
    1.6940   -2.2580    1.7830 C   0  0  0  0  0  0  0  0  0  0  0  0
    3.1480   -1.8930    1.8850 C   0  0  0  0  0  0  0  0  0  0  0  0
    3.3420   -0.5820    2.5350 C   0  0  2  0  0  0  0  0  0  0  0  0
    2.7470   -0.5100    3.9300 C   0  0  0  0  0  0  0  0  0  0  0  0
    3.1860    0.6330    1.7110 C   0  0  2  0  0  0  0  0  0  0  0  0
    3.4380    1.7670    2.6410 N   0  0  0  0  0  0  0  0  0  0  0  0
    1.9390    0.8760    1.0100 C   0  0  0  0  0  0  0  0  0  0  0  0
    1.1120    1.6790    1.5180 O   0  0  0  0  0  0  0  0  0  0  0  0
    1.0010   -1.4240    1.8350 H   0  0  0  0  0  0  0  0  0  0  0  0
    1.4030   -2.9650    2.6310 H   0  0  0  0  0  0  0  0  0  0  0  0
    1.6060   -2.9060    0.8880 H   0  0  0  0  0  0  0  0  0  0  0  0
    3.5980   -1.8620    0.8510 H   0  0  0  0  0  0  0  0  0  0  0  0
    3.6760   -2.7230    2.4160 H   0  0  0  0  0  0  0  0  0  0  0  0
    4.4900   -0.5810    2.7870 H   0  0  0  0  0  0  0  0  0  0  0  0
    1.7670    0.0120    3.8720 H   0  0  0  0  0  0  0  0  0  0  0  0
    2.5360   -1.5200    4.3220 H   0  0  0  0  0  0  0  0  0  0  0  0
    3.3920    0.0180    4.6500 H   0  0  0  0  0  0  0  0  0  0  0  0
    4.0540    0.6600    0.9810 H   0  0  0  0  0  0  0  0  0  0  0  0
    4.4600    1.7830    2.8410 H   0  0  0  0  0  0  0  0  0  0  0  0
    2.9290    1.6510    3.5240 H   0  0  0  0  0  0  0  0  0  0  0  0
   -0.9410    4.4940   -1.6670 C   0  0  0  0  0  0  0  0  0  0  0  0
    0.5690    3.8330   -0.9390 S   0  0  0  0  0  0  0  0  0  0  0  0
    1.3510    2.6020   -1.9790 C   0  0  0  0  0  0  0  0  0  0  0  0
    0.5700    1.3420   -2.1600 C   0  0  0  0  0  0  0  0  0  0  0  0
    0.3230    0.6240   -0.8350 C   0  0  2  0  0  0  0  0  0  0  0  0
    1.5850    0.2760   -0.2250 N   0  0  0  0  0  0  0  0  0  0  0  0
   -0.4670   -0.5850   -1.1170 C   0  0  0  0  0  0  0  0  0  0  0  0
   -0.0320   -1.7230   -0.8870 O   0  0  0  0  0  0  0  0  0  0  0  0
   -1.1090    5.5570   -1.3730 H   0  0  0  0  0  0  0  0  0  0  0  0
   -1.8270    3.9350   -1.3270 H   0  0  0  0  0  0  0  0  0  0  0  0
   -0.8430    4.5000   -2.7760 H   0  0  0  0  0  0  0  0  0  0  0  0
    2.3410    2.3620   -1.5360 H   0  0  0  0  0  0  0  0  0  0  0  0
    1.5790    3.0090   -2.9940 H   0  0  0  0  0  0  0  0  0  0  0  0
   -0.3840    1.5430   -2.6690 H   0  0  0  0  0  0  0  0  0  0  0  0
    1.1610    0.6810   -2.8270 H   0  0  0  0  0  0  0  0  0  0  0  0
   -0.2530    1.3460   -0.2120 H   0  0  0  0  0  0  0  0  0  0  0  0
    2.1970   -0.4070   -0.7140 H   0  0  0  0  0  0  0  0  0  0  0  0
   -1.7830   -0.5010   -1.6750 N   0  0  0  0  0  0  0  0  0  0  0  0
   -2.5740   -1.6810   -1.9570 C   0  0  1  0  0  0  0  0  0  0  0  0
   -3.8030   -1.7160   -1.0470 C   0  0  0  0  0  0  0  0  0  0  0  0
   -3.3720   -1.7480    0.3820 C   0  0  0  0  0  0  0  0  0  0  0  0
   -3.3680   -0.7460    1.3270 C   0  0  0  0  0  0  0  0  0  0  0  0
   -2.8860   -1.2400    2.4880 N   0  0  0  0  0  0  0  0  0  0  0  0
   -2.5660   -2.5470    2.3460 C   0  0  0  0  0  0  0  0  0  0  0  0
   -2.0460   -3.4900    3.2160 C   0  0  0  0  0  0  0  0  0  0  0  0
   -1.8260   -4.7800    2.7550 C   0  0  0  0  0  0  0  0  0  0  0  0
   -2.1190   -5.1140    1.4590 C   0  0  0  0  0  0  0  0  0  0  0  0
   -2.6410   -4.1570    0.5980 C   0  0  0  0  0  0  0  0  0  0  0  0
   -2.8730   -2.8660    1.0200 C   0  0  0  0  0  0  0  0  0  0  0  0
   -2.9730   -1.7620   -3.3840 C   0  0  0  0  0  0  0  0  0  0  0  0
   -2.6440   -0.8820   -4.2300 O   0  0  0  0  0  0  0  0  0  0  0  0
   -3.7320   -2.8180   -3.8580 O   0  0  0  0  0  0  0  0  0  0  0  0
   -2.1440    0.4550   -1.8680 H   0  0  0  0  0  0  0  0  0  0  0  0
   -2.0240   -2.6120   -1.7180 H   0  0  0  0  0  0  0  0  0  0  0  0
   -4.4310   -0.8140   -1.1860 H   0  0  0  0  0  0  0  0  0  0  0  0
   -4.3730   -2.6330   -1.2240 H   0  0  0  0  0  0  0  0  0  0  0  0
   -3.6970    0.2660    1.1630 H   0  0  0  0  0  0  0  0  0  0  0  0
   -2.7640   -0.7070    3.3930 H   0  0  0  0  0  0  0  0  0  0  0  0
   -1.8060   -3.2580    4.2340 H   0  0  0  0  0  0  0  0  0  0  0  0
   -1.4170   -5.5400    3.4220 H   0  0  0  0  0  0  0  0  0  0  0  0
   -1.9540   -6.1120    1.0820 H   0  0  0  0  0  0  0  0  0  0  0  0
   -2.8620   -4.4450   -0.4140 H   0  0  0  0  0  0  0  0  0  0  0  0
  1  9  1  0  0  0  0
  1  2  1  0  0  0  0
  1 10  1  0  0  0  0
  2 13  1  0  0  0  0
  2  3  1  0  0  0  0
  3 14  1  1  0  0  0
  3  4  1  0  0  0  0
  4 16  1  0  0  0  0
  4 17  1  0  0  0  0
  5 18  1  6  0  0  0
  5  3  1  0  0  0  0
  5  6  1  0  0  0  0
  6 19  1  0  0  0  0
  6 20  1  0  0  0  0
  7  8  2  0  0  0  0
  7  5  1  0  0  0  0
 11  1  1  0  0  0  0
 12  2  1  0  0  0  0
 15  4  1  0  0  0  0
 21 29  1  0  0  0  0
 21 30  1  0  0  0  0
 21 22  1  0  0  0  0
 23 32  1  0  0  0  0
 23 22  1  0  0  0  0
 24 23  1  0  0  0  0
 24 25  1  0  0  0  0
 25 26  1  0  0  0  0
 25 36  1  1  0  0  0
 26  7  1  0  0  0  0
 27 28  2  0  0  0  0
 27 25  1  0  0  0  0
 31 21  1  0  0  0  0
 33 23  1  0  0  0  0
 34 24  1  0  0  0  0
 35 24  1  0  0  0  0
 37 26  1  0  0  0  0
 38 27  1  0  0  0  0
 39 54  1  1  0  0  0
 39 38  1  0  0  0  0
 39 40  1  0  0  0  0
 40 41  1  0  0  0  0
 41 49  1  0  0  0  0
 41 42  2  0  0  0  0
 42 43  1  0  0  0  0
 43 58  1  0  0  0  0
 44 43  1  0  0  0  0
 44 45  1  0  0  0  0
 45 59  1  0  0  0  0
 46 45  2  0  0  0  0
 46 60  1  0  0  0  0
 47 46  1  0  0  0  0
 48 49  1  0  0  0  0
 48 47  2  0  0  0  0
 49 44  2  0  0  0  0
 50 39  1  0  0  0  0
 51 50  2  0  0  0  0
 52 50  1  0  0  0  0
 53 38  1  0  0  0  0
 55 40  1  0  0  0  0
 56 40  1  0  0  0  0
 57 42  1  0  0  0  0
 61 47  1  0  0  0  0
 62 48  1  0  0  0  0
M  END
$$$$
