INC.pdb
 OpenBabel07022418403D

 46 45  0  0  1  0  0  0  0  0999 V2000
   -0.1450   -4.8530    2.7840 C   0  0  0  0  0  0  0  0  0  0  0  0
    1.0450   -4.1130    2.2690 C   0  0  0  0  0  0  0  0  0  0  0  0
    0.7050   -2.6270    2.0150 C   0  0  2  0  0  0  0  0  0  0  0  0
   -0.4190   -2.6600    0.9750 C   0  0  0  0  0  0  0  0  0  0  0  0
    1.9370   -2.0570    1.3540 C   0  0  2  0  0  0  0  0  0  0  0  0
    3.0680   -2.2840    2.2930 N   0  0  0  0  0  0  0  0  0  0  0  0
    1.8850   -0.6270    1.0300 C   0  0  0  0  0  0  0  0  0  0  0  0
    2.6840    0.1940    1.6380 O   0  0  0  0  0  0  0  0  0  0  0  0
    0.1420   -5.5610    3.5890 H   0  0  0  0  0  0  0  0  0  0  0  0
   -0.9210   -4.1790    3.2410 H   0  0  0  0  0  0  0  0  0  0  0  0
   -0.6240   -5.4920    1.9900 H   0  0  0  0  0  0  0  0  0  0  0  0
    1.3990   -4.5880    1.3460 H   0  0  0  0  0  0  0  0  0  0  0  0
    1.8460   -4.1910    3.0300 H   0  0  0  0  0  0  0  0  0  0  0  0
    0.4360   -2.1320    2.9360 H   0  0  0  0  0  0  0  0  0  0  0  0
   -1.1340   -3.4980    1.2360 H   0  0  0  0  0  0  0  0  0  0  0  0
   -0.0550   -2.8380   -0.0390 H   0  0  0  0  0  0  0  0  0  0  0  0
   -1.0140   -1.7450    1.0810 H   0  0  0  0  0  0  0  0  0  0  0  0
    2.1560   -2.6540    0.4610 H   0  0  0  0  0  0  0  0  0  0  0  0
    3.4040   -3.2520    2.1150 H   0  0  0  0  0  0  0  0  0  0  0  0
    3.8220   -1.6340    2.0120 H   0  0  0  0  0  0  0  0  0  0  0  0
    3.6290    0.5130   -1.3380 N   0  0  0  0  0  0  0  0  0  0  0  0
    2.6570    1.1950   -2.1070 C   0  0  0  0  0  0  0  0  0  0  0  0
    2.9510    1.4150   -3.3160 O   0  0  0  0  0  0  0  0  0  0  0  0
    1.3590    1.6650   -1.6460 C   0  0  0  0  0  0  0  0  0  0  0  0
    1.0360    1.3910   -0.2040 C   0  0  2  0  0  0  0  0  0  0  0  0
    1.0390   -0.0280    0.0970 N   0  0  0  0  0  0  0  0  0  0  0  0
   -0.1960    2.1030    0.1310 C   0  0  0  0  0  0  0  0  0  0  0  0
   -0.2290    3.3530   -0.1350 O   0  0  0  0  0  0  0  0  0  0  0  0
    4.3110    1.0990   -0.7970 H   0  0  0  0  0  0  0  0  0  0  0  0
    3.6710   -0.5390   -1.3090 H   0  0  0  0  0  0  0  0  0  0  0  0
    1.3320    2.7760   -1.7720 H   0  0  0  0  0  0  0  0  0  0  0  0
    0.5040    1.2920   -2.2740 H   0  0  0  0  0  0  0  0  0  0  0  0
    1.8880    1.8260    0.4030 H   0  0  0  0  0  0  0  0  0  0  0  0
    0.3560   -0.5850   -0.4500 H   0  0  0  0  0  0  0  0  0  0  0  0
   -1.3380    1.5610    0.7120 N   0  0  0  0  0  0  0  0  0  0  0  0
   -2.5440    2.3320    1.0230 C   0  0  1  0  0  0  0  0  0  0  0  0
   -3.6370    1.7190    0.1340 C   0  0  0  0  0  0  0  0  0  0  0  0
   -3.7590   -0.0260    0.6150 S   0  0  0  0  0  0  0  0  0  0  0  0
   -2.9510    2.1230    2.4270 C   0  0  0  0  0  0  0  0  0  0  0  0
   -2.2910    1.3680    3.1780 O   0  0  0  0  0  0  0  0  0  0  0  0
   -4.0670    2.7540    2.9430 O   0  0  0  0  0  0  0  0  0  0  0  0
   -1.3800    0.5540    0.9560 H   0  0  0  0  0  0  0  0  0  0  0  0
   -2.4370    3.3930    0.7430 H   0  0  0  0  0  0  0  0  0  0  0  0
   -3.3430    1.7990   -0.9420 H   0  0  0  0  0  0  0  0  0  0  0  0
   -4.5990    2.2330    0.2590 H   0  0  0  0  0  0  0  0  0  0  0  0
   -2.9930   -0.8420   -0.2660 H   0  0  0  0  0  0  0  0  0  0  0  0
  1 10  1  0  0  0  0
  1  9  1  0  0  0  0
  2  1  1  0  0  0  0
  2 13  1  0  0  0  0
  3  2  1  0  0  0  0
  3 14  1  1  0  0  0
  4 17  1  0  0  0  0
  4 15  1  0  0  0  0
  4  3  1  0  0  0  0
  5 18  1  6  0  0  0
  5  3  1  0  0  0  0
  5  6  1  0  0  0  0
  7  5  1  0  0  0  0
  7  8  2  0  0  0  0
 11  1  1  0  0  0  0
 12  2  1  0  0  0  0
 16  4  1  0  0  0  0
 19  6  1  0  0  0  0
 20  6  1  0  0  0  0
 21 30  1  0  0  0  0
 21 29  1  0  0  0  0
 22 24  1  0  0  0  0
 22 21  1  0  0  0  0
 23 22  2  0  0  0  0
 24 25  1  0  0  0  0
 25 26  1  0  0  0  0
 25 27  1  0  0  0  0
 25 33  1  1  0  0  0
 26  7  1  0  0  0  0
 27 35  1  0  0  0  0
 28 27  2  0  0  0  0
 31 24  1  0  0  0  0
 32 24  1  0  0  0  0
 34 26  1  0  0  0  0
 35 42  1  0  0  0  0
 35 36  1  0  0  0  0
 36 43  1  6  0  0  0
 36 39  1  0  0  0  0
 37 45  1  0  0  0  0
 37 38  1  0  0  0  0
 37 36  1  0  0  0  0
 39 41  2  0  0  0  0
 39 40  1  0  0  0  0
 44 37  1  0  0  0  0
 46 38  1  0  0  0  0
M  END
$$$$
