INE.pdb
 OpenBabel07022418403D

 51 50  0  0  1  0  0  0  0  0999 V2000
    3.1630   -1.1020    3.5710 C   0  0  0  0  0  0  0  0  0  0  0  0
    2.5390    0.1860    3.0820 C   0  0  0  0  0  0  0  0  0  0  0  0
    3.3310    0.7380    1.9140 C   0  0  2  0  0  0  0  0  0  0  0  0
    4.7280    0.9920    2.3970 C   0  0  0  0  0  0  0  0  0  0  0  0
    2.7010    1.9940    1.3650 C   0  0  2  0  0  0  0  0  0  0  0  0
    2.6650    2.9800    2.4230 N   0  0  0  0  0  0  0  0  0  0  0  0
    1.3230    1.6660    0.9070 C   0  0  0  0  0  0  0  0  0  0  0  0
    0.3540    2.2550    1.4620 O   0  0  0  0  0  0  0  0  0  0  0  0
    3.8130   -0.9390    4.4570 H   0  0  0  0  0  0  0  0  0  0  0  0
    3.6960   -1.6400    2.7560 H   0  0  0  0  0  0  0  0  0  0  0  0
    2.3440   -1.7760    3.9050 H   0  0  0  0  0  0  0  0  0  0  0  0
    1.5130   -0.0490    2.7160 H   0  0  0  0  0  0  0  0  0  0  0  0
    2.5350    0.8870    3.9250 H   0  0  0  0  0  0  0  0  0  0  0  0
    3.3790    0.0140    1.0800 H   0  0  0  0  0  0  0  0  0  0  0  0
    5.0760    1.9330    1.8930 H   0  0  0  0  0  0  0  0  0  0  0  0
    5.3870    0.1840    2.0820 H   0  0  0  0  0  0  0  0  0  0  0  0
    4.7750    1.1980    3.4860 H   0  0  0  0  0  0  0  0  0  0  0  0
    3.3430    2.3250    0.5110 H   0  0  0  0  0  0  0  0  0  0  0  0
    1.7830    2.8400    2.9850 H   0  0  0  0  0  0  0  0  0  0  0  0
    2.6440    3.9530    2.0800 H   0  0  0  0  0  0  0  0  0  0  0  0
   -0.0590    2.3720   -3.7730 N   0  0  0  0  0  0  0  0  0  0  0  0
   -0.0500    1.9860   -2.4100 C   0  0  0  0  0  0  0  0  0  0  0  0
    0.1830    2.8560   -1.5480 O   0  0  0  0  0  0  0  0  0  0  0  0
   -0.3170    0.5780   -2.0720 C   0  0  0  0  0  0  0  0  0  0  0  0
   -0.2610    0.3810   -0.5970 C   0  0  2  0  0  0  0  0  0  0  0  0
    1.0440    0.7390   -0.1080 N   0  0  0  0  0  0  0  0  0  0  0  0
   -0.6070   -1.0100   -0.1940 C   0  0  0  0  0  0  0  0  0  0  0  0
    0.2330   -1.6500    0.4770 O   0  0  0  0  0  0  0  0  0  0  0  0
   -0.7210    1.9190   -4.4590 H   0  0  0  0  0  0  0  0  0  0  0  0
    0.5660    3.1020   -4.1700 H   0  0  0  0  0  0  0  0  0  0  0  0
    0.4710   -0.0730   -2.5420 H   0  0  0  0  0  0  0  0  0  0  0  0
   -1.3180    0.3340   -2.5080 H   0  0  0  0  0  0  0  0  0  0  0  0
   -1.0160    1.0270   -0.1120 H   0  0  0  0  0  0  0  0  0  0  0  0
    1.8730    0.2580   -0.5560 H   0  0  0  0  0  0  0  0  0  0  0  0
   -1.8260   -1.5990   -0.5440 N   0  0  0  0  0  0  0  0  0  0  0  0
   -2.1640   -2.9730   -0.1440 C   0  0  1  0  0  0  0  0  0  0  0  0
   -3.3960   -2.9940    0.6870 C   0  0  0  0  0  0  0  0  0  0  0  0
   -3.7570   -4.3650    1.1120 C   0  0  0  0  0  0  0  0  0  0  0  0
   -4.9800   -4.3800    1.9830 C   0  0  0  0  0  0  0  0  0  0  0  0
   -5.3580   -5.5020    2.3870 O   0  0  0  0  0  0  0  0  0  0  0  0
   -2.2220   -3.8340   -1.3430 C   0  0  0  0  0  0  0  0  0  0  0  0
   -2.0710   -3.2530   -2.4780 O   0  0  0  0  0  0  0  0  0  0  0  0
   -5.6690   -3.2500    2.3370 O   0  0  0  0  0  0  0  0  0  0  0  0
   -2.4170   -5.1900   -1.3680 O   0  0  0  0  0  0  0  0  0  0  0  0
   -2.5220   -1.0850   -1.0930 H   0  0  0  0  0  0  0  0  0  0  0  0
   -1.2710   -3.3430    0.4400 H   0  0  0  0  0  0  0  0  0  0  0  0
   -3.3680   -2.2770    1.5340 H   0  0  0  0  0  0  0  0  0  0  0  0
   -4.2270   -2.6020    0.0220 H   0  0  0  0  0  0  0  0  0  0  0  0
   -3.9620   -4.9920    0.1990 H   0  0  0  0  0  0  0  0  0  0  0  0
   -2.9050   -4.8440    1.6290 H   0  0  0  0  0  0  0  0  0  0  0  0
   -6.6950   -3.2820    2.3510 H   0  0  0  0  0  0  0  0  0  0  0  0
  1 11  1  0  0  0  0
  1  9  1  0  0  0  0
  2  1  1  0  0  0  0
  2 13  1  0  0  0  0
  3 14  1  6  0  0  0
  3  4  1  0  0  0  0
  3  2  1  0  0  0  0
  4 17  1  0  0  0  0
  5 18  1  6  0  0  0
  5  3  1  0  0  0  0
  5  6  1  0  0  0  0
  6 19  1  0  0  0  0
  7  5  1  0  0  0  0
  7  8  2  0  0  0  0
 10  1  1  0  0  0  0
 12  2  1  0  0  0  0
 15  4  1  0  0  0  0
 16  4  1  0  0  0  0
 20  6  1  0  0  0  0
 21 22  1  0  0  0  0
 22 24  1  0  0  0  0
 22 23  2  0  0  0  0
 24 25  1  0  0  0  0
 25 27  1  0  0  0  0
 25 33  1  1  0  0  0
 25 26  1  0  0  0  0
 26  7  1  0  0  0  0
 27 28  2  0  0  0  0
 29 21  1  0  0  0  0
 30 21  1  0  0  0  0
 31 24  1  0  0  0  0
 32 24  1  0  0  0  0
 34 26  1  0  0  0  0
 35 27  1  0  0  0  0
 35 36  1  0  0  0  0
 36 46  1  1  0  0  0
 36 37  1  0  0  0  0
 37 38  1  0  0  0  0
 37 47  1  0  0  0  0
 38 50  1  0  0  0  0
 38 39  1  0  0  0  0
 39 43  1  0  0  0  0
 39 40  2  0  0  0  0
 41 36  1  0  0  0  0
 42 41  2  0  0  0  0
 43 51  1  0  0  0  0
 44 41  1  0  0  0  0
 45 35  1  0  0  0  0
 48 37  1  0  0  0  0
 49 38  1  0  0  0  0
M  END
$$$$
