INF.pdb
 OpenBabel07022418403D

 55 55  0  0  1  0  0  0  0  0999 V2000
    1.2830   -1.8720    4.8790 C   0  0  0  0  0  0  0  0  0  0  0  0
    1.1010   -1.6670    3.4130 C   0  0  0  0  0  0  0  0  0  0  0  0
    2.2700   -1.0500    2.7120 C   0  0  2  0  0  0  0  0  0  0  0  0
    3.4970   -1.9190    2.8620 C   0  0  0  0  0  0  0  0  0  0  0  0
    2.5300    0.3780    3.1010 C   0  0  2  0  0  0  0  0  0  0  0  0
    2.8060    0.5370    4.5110 N   0  0  0  0  0  0  0  0  0  0  0  0
    1.4130    1.2220    2.6800 C   0  0  0  0  0  0  0  0  0  0  0  0
    0.7620    1.9770    3.4690 O   0  0  0  0  0  0  0  0  0  0  0  0
    0.5860   -2.7060    5.1740 H   0  0  0  0  0  0  0  0  0  0  0  0
    2.2900   -2.2250    5.1670 H   0  0  0  0  0  0  0  0  0  0  0  0
    0.9470   -1.0010    5.4920 H   0  0  0  0  0  0  0  0  0  0  0  0
    0.9330   -2.6670    2.9470 H   0  0  0  0  0  0  0  0  0  0  0  0
    0.1590   -1.1030    3.2540 H   0  0  0  0  0  0  0  0  0  0  0  0
    2.0290   -1.0410    1.6270 H   0  0  0  0  0  0  0  0  0  0  0  0
    3.2010   -2.9310    2.4770 H   0  0  0  0  0  0  0  0  0  0  0  0
    4.3300   -1.5830    2.2250 H   0  0  0  0  0  0  0  0  0  0  0  0
    3.8790   -1.9530    3.8990 H   0  0  0  0  0  0  0  0  0  0  0  0
    3.4360    0.7070    2.5510 H   0  0  0  0  0  0  0  0  0  0  0  0
    3.5870   -0.0510    4.8330 H   0  0  0  0  0  0  0  0  0  0  0  0
    3.1120    1.5330    4.6490 H   0  0  0  0  0  0  0  0  0  0  0  0
    2.4980    2.1830   -1.4130 N   0  0  0  0  0  0  0  0  0  0  0  0
    1.0830    2.3790   -1.2700 C   0  0  0  0  0  0  0  0  0  0  0  0
    0.3620    1.9360   -2.1990 O   0  0  0  0  0  0  0  0  0  0  0  0
    0.4930    3.0580   -0.1100 C   0  0  0  0  0  0  0  0  0  0  0  0
   -0.1030    2.0580    0.8910 C   0  0  2  0  0  0  0  0  0  0  0  0
    1.0060    1.2190    1.3040 N   0  0  0  0  0  0  0  0  0  0  0  0
   -1.1150    1.2300    0.1700 C   0  0  0  0  0  0  0  0  0  0  0  0
   -2.1710    1.7630   -0.2780 O   0  0  0  0  0  0  0  0  0  0  0  0
    3.1980    2.9350   -1.2510 H   0  0  0  0  0  0  0  0  0  0  0  0
    2.8580    1.2450   -1.6920 H   0  0  0  0  0  0  0  0  0  0  0  0
    1.2420    3.6330    0.4640 H   0  0  0  0  0  0  0  0  0  0  0  0
   -0.3290    3.7070   -0.4390 H   0  0  0  0  0  0  0  0  0  0  0  0
   -0.5190    2.6070    1.7360 H   0  0  0  0  0  0  0  0  0  0  0  0
    1.4890    0.6280    0.5910 H   0  0  0  0  0  0  0  0  0  0  0  0
   -0.9640   -0.1570   -0.0510 N   0  0  0  0  0  0  0  0  0  0  0  0
   -1.9840   -0.9430   -0.7680 C   0  0  1  0  0  0  0  0  0  0  0  0
   -1.3950   -1.5370   -2.0140 C   0  0  0  0  0  0  0  0  0  0  0  0
   -2.4020   -2.3280   -2.7410 C   0  0  0  0  0  0  0  0  0  0  0  0
   -3.2600   -1.7010   -3.6520 C   0  0  0  0  0  0  0  0  0  0  0  0
   -4.2020   -2.3840   -4.3740 C   0  0  0  0  0  0  0  0  0  0  0  0
   -4.3390   -3.7420   -4.2250 C   0  0  0  0  0  0  0  0  0  0  0  0
   -3.5110   -4.3930   -3.3370 C   0  0  0  0  0  0  0  0  0  0  0  0
   -2.5710   -3.6950   -2.6200 C   0  0  0  0  0  0  0  0  0  0  0  0
   -2.5300   -1.9960    0.0920 C   0  0  0  0  0  0  0  0  0  0  0  0
   -2.0130   -2.1200    1.2610 O   0  0  0  0  0  0  0  0  0  0  0  0
   -3.5430   -2.8660   -0.2270 O   0  0  0  0  0  0  0  0  0  0  0  0
   -0.1030   -0.6190    0.3090 H   0  0  0  0  0  0  0  0  0  0  0  0
   -2.7960   -0.2440   -1.0370 H   0  0  0  0  0  0  0  0  0  0  0  0
   -0.5650   -2.2630   -1.7680 H   0  0  0  0  0  0  0  0  0  0  0  0
   -0.9350   -0.7490   -2.6620 H   0  0  0  0  0  0  0  0  0  0  0  0
   -3.1630   -0.6360   -3.7780 H   0  0  0  0  0  0  0  0  0  0  0  0
   -4.8710   -1.9050   -5.0820 H   0  0  0  0  0  0  0  0  0  0  0  0
   -5.0900   -4.2810   -4.8020 H   0  0  0  0  0  0  0  0  0  0  0  0
   -3.6410   -5.4580   -3.2420 H   0  0  0  0  0  0  0  0  0  0  0  0
   -1.9390   -4.2480   -1.9380 H   0  0  0  0  0  0  0  0  0  0  0  0
  1 10  1  0  0  0  0
  1  9  1  0  0  0  0
  1 11  1  0  0  0  0
  2  1  1  0  0  0  0
  3 14  1  6  0  0  0
  3  4  1  0  0  0  0
  3  5  1  0  0  0  0
  3  2  1  0  0  0  0
  4 17  1  0  0  0  0
  5 18  1  6  0  0  0
  5  6  1  0  0  0  0
  6 20  1  0  0  0  0
  6 19  1  0  0  0  0
  7  5  1  0  0  0  0
  7  8  2  0  0  0  0
 12  2  1  0  0  0  0
 13  2  1  0  0  0  0
 15  4  1  0  0  0  0
 16  4  1  0  0  0  0
 21 22  1  0  0  0  0
 21 29  1  0  0  0  0
 22 24  1  0  0  0  0
 23 22  2  0  0  0  0
 24 31  1  0  0  0  0
 24 25  1  0  0  0  0
 25 26  1  0  0  0  0
 25 33  1  1  0  0  0
 26  7  1  0  0  0  0
 27 25  1  0  0  0  0
 28 27  2  0  0  0  0
 30 21  1  0  0  0  0
 32 24  1  0  0  0  0
 34 26  1  0  0  0  0
 35 27  1  0  0  0  0
 35 47  1  0  0  0  0
 36 48  1  6  0  0  0
 36 35  1  0  0  0  0
 36 44  1  0  0  0  0
 37 49  1  0  0  0  0
 37 36  1  0  0  0  0
 38 43  1  0  0  0  0
 38 37  1  0  0  0  0
 39 38  2  0  0  0  0
 40 41  2  0  0  0  0
 40 39  1  0  0  0  0
 41 42  1  0  0  0  0
 42 54  1  0  0  0  0
 42 43  2  0  0  0  0
 43 55  1  0  0  0  0
 44 45  1  0  0  0  0
 46 44  2  0  0  0  0
 50 37  1  0  0  0  0
 51 39  1  0  0  0  0
 52 40  1  0  0  0  0
 53 41  1  0  0  0  0
M  END
$$$$
