ING.pdb
 OpenBabel07022418403D

 42 41  0  0  1  0  0  0  0  0999 V2000
   -1.2830   -2.3790   -2.4940 C   0  0  0  0  0  0  0  0  0  0  0  0
   -0.5090   -2.8870   -1.2940 C   0  0  0  0  0  0  0  0  0  0  0  0
    0.9210   -2.4320   -1.4630 C   0  0  2  0  0  0  0  0  0  0  0  0
    1.4740   -3.0090   -2.7390 C   0  0  0  0  0  0  0  0  0  0  0  0
    1.7790   -2.8620   -0.2780 C   0  0  2  0  0  0  0  0  0  0  0  0
    1.7320   -4.2870   -0.2110 N   0  0  0  0  0  0  0  0  0  0  0  0
    1.3360   -2.2460    0.9780 C   0  0  0  0  0  0  0  0  0  0  0  0
    0.9740   -2.9190    1.9780 O   0  0  0  0  0  0  0  0  0  0  0  0
   -2.1620   -3.0190   -2.6830 H   0  0  0  0  0  0  0  0  0  0  0  0
   -0.6480   -2.3650   -3.4050 H   0  0  0  0  0  0  0  0  0  0  0  0
   -1.6320   -1.3470   -2.3020 H   0  0  0  0  0  0  0  0  0  0  0  0
   -0.5130   -3.9850   -1.2060 H   0  0  0  0  0  0  0  0  0  0  0  0
   -0.9140   -2.4220   -0.3630 H   0  0  0  0  0  0  0  0  0  0  0  0
    0.9130   -1.3270   -1.5500 H   0  0  0  0  0  0  0  0  0  0  0  0
    2.5130   -3.4020   -2.5420 H   0  0  0  0  0  0  0  0  0  0  0  0
    1.5630   -2.2290   -3.5090 H   0  0  0  0  0  0  0  0  0  0  0  0
    0.8050   -3.8000   -3.1110 H   0  0  0  0  0  0  0  0  0  0  0  0
    2.8030   -2.4720   -0.5050 H   0  0  0  0  0  0  0  0  0  0  0  0
    1.0530   -4.6740    0.4500 H   0  0  0  0  0  0  0  0  0  0  0  0
    1.8030   -4.7700   -1.1140 H   0  0  0  0  0  0  0  0  0  0  0  0
    3.3660    2.6560    2.2060 N   0  0  0  0  0  0  0  0  0  0  0  0
    2.2910    1.7410    1.9670 C   0  0  0  0  0  0  0  0  0  0  0  0
    1.6290    1.8970    0.9220 O   0  0  0  0  0  0  0  0  0  0  0  0
    1.9630    0.6530    2.9060 C   0  0  0  0  0  0  0  0  0  0  0  0
    0.8680   -0.2030    2.3390 C   0  0  2  0  0  0  0  0  0  0  0  0
    1.3020   -0.8030    1.1060 N   0  0  0  0  0  0  0  0  0  0  0  0
   -0.3120    0.6950    2.0960 C   0  0  0  0  0  0  0  0  0  0  0  0
   -0.7670    0.8130    0.9250 O   0  0  0  0  0  0  0  0  0  0  0  0
    3.3150    3.6390    1.8490 H   0  0  0  0  0  0  0  0  0  0  0  0
    4.1800    2.2980    2.7380 H   0  0  0  0  0  0  0  0  0  0  0  0
    2.8790    0.0400    3.0680 H   0  0  0  0  0  0  0  0  0  0  0  0
    1.6420    1.1430    3.8630 H   0  0  0  0  0  0  0  0  0  0  0  0
    0.5780   -0.9890    3.0830 H   0  0  0  0  0  0  0  0  0  0  0  0
    1.5960   -0.2440    0.2870 H   0  0  0  0  0  0  0  0  0  0  0  0
   -0.9380    1.4160    3.1190 N   0  0  0  0  0  0  0  0  0  0  0  0
   -2.0660    2.2670    2.8510 C   0  0  0  0  0  0  0  0  0  0  0  0
   -2.5390    2.9180    4.1130 C   0  0  0  0  0  0  0  0  0  0  0  0
   -1.9760    2.6990    5.2050 O   0  0  0  0  0  0  0  0  0  0  0  0
   -3.6120    3.7730    4.0740 O   0  0  0  0  0  0  0  0  0  0  0  0
   -0.5420    1.3040    4.0930 H   0  0  0  0  0  0  0  0  0  0  0  0
   -2.9430    1.6950    2.4530 H   0  0  0  0  0  0  0  0  0  0  0  0
   -1.7920    3.0120    2.0820 H   0  0  0  0  0  0  0  0  0  0  0  0
  1 11  1  0  0  0  0
  1  2  1  0  0  0  0
  2 12  1  0  0  0  0
  2 13  1  0  0  0  0
  3 14  1  6  0  0  0
  3  2  1  0  0  0  0
  3  5  1  0  0  0  0
  4 15  1  0  0  0  0
  4  3  1  0  0  0  0
  5 18  1  6  0  0  0
  5  6  1  0  0  0  0
  5  7  1  0  0  0  0
  6 19  1  0  0  0  0
  7 26  1  0  0  0  0
  7  8  2  0  0  0  0
  9  1  1  0  0  0  0
 10  1  1  0  0  0  0
 16  4  1  0  0  0  0
 17  4  1  0  0  0  0
 20  6  1  0  0  0  0
 21 30  1  0  0  0  0
 22 21  1  0  0  0  0
 22 24  1  0  0  0  0
 23 22  2  0  0  0  0
 24 31  1  0  0  0  0
 24 32  1  0  0  0  0
 25 24  1  0  0  0  0
 25 33  1  1  0  0  0
 26 25  1  0  0  0  0
 27 25  1  0  0  0  0
 27 35  1  0  0  0  0
 28 27  2  0  0  0  0
 29 21  1  0  0  0  0
 34 26  1  0  0  0  0
 35 40  1  0  0  0  0
 36 35  1  0  0  0  0
 36 37  1  0  0  0  0
 37 38  1  0  0  0  0
 39 37  2  0  0  0  0
 41 36  1  0  0  0  0
 42 36  1  0  0  0  0
M  END
$$$$
