INI.pdb
 OpenBabel07022418403D

 54 53  0  0  1  0  0  0  0  0999 V2000
    0.0340   -4.8120    1.0210 C   0  0  0  0  0  0  0  0  0  0  0  0
    0.7590   -3.4630    1.0000 C   0  0  0  0  0  0  0  0  0  0  0  0
    1.4770   -3.3710    2.3250 C   0  0  2  0  0  0  0  0  0  0  0  0
    0.5200   -3.4270    3.4930 C   0  0  0  0  0  0  0  0  0  0  0  0
    2.5370   -2.3670    2.4340 C   0  0  2  0  0  0  0  0  0  0  0  0
    3.0910   -2.4730    3.8010 N   0  0  0  0  0  0  0  0  0  0  0  0
    2.3200   -0.9870    2.1220 C   0  0  0  0  0  0  0  0  0  0  0  0
    2.5620   -0.1240    3.0460 O   0  0  0  0  0  0  0  0  0  0  0  0
   -0.8500   -4.7920    0.3310 H   0  0  0  0  0  0  0  0  0  0  0  0
    0.7130   -5.6260    0.7180 H   0  0  0  0  0  0  0  0  0  0  0  0
   -0.2810   -5.0290    2.0670 H   0  0  0  0  0  0  0  0  0  0  0  0
    0.0380   -2.6480    0.8440 H   0  0  0  0  0  0  0  0  0  0  0  0
    1.5170   -3.5100    0.2080 H   0  0  0  0  0  0  0  0  0  0  0  0
    2.0130   -4.3790    2.3760 H   0  0  0  0  0  0  0  0  0  0  0  0
   -0.5000   -3.1870    3.0770 H   0  0  0  0  0  0  0  0  0  0  0  0
    0.8030   -2.7500    4.3160 H   0  0  0  0  0  0  0  0  0  0  0  0
    0.4130   -4.4380    3.9390 H   0  0  0  0  0  0  0  0  0  0  0  0
    3.4020   -2.7200    1.7890 H   0  0  0  0  0  0  0  0  0  0  0  0
    4.0950   -2.1800    3.8040 H   0  0  0  0  0  0  0  0  0  0  0  0
    3.0110   -3.4680    4.1090 H   0  0  0  0  0  0  0  0  0  0  0  0
    3.2620    3.9100    0.5340 N   0  0  0  0  0  0  0  0  0  0  0  0
    2.6210    3.0290   -0.3790 C   0  0  0  0  0  0  0  0  0  0  0  0
    1.9590    3.5520   -1.3060 O   0  0  0  0  0  0  0  0  0  0  0  0
    2.7580    1.5740   -0.2020 C   0  0  0  0  0  0  0  0  0  0  0  0
    1.7120    1.0300    0.7500 C   0  0  2  0  0  0  0  0  0  0  0  0
    1.8670   -0.3990    0.9090 N   0  0  0  0  0  0  0  0  0  0  0  0
    0.3610    1.4230    0.3160 C   0  0  0  0  0  0  0  0  0  0  0  0
    0.0510    2.6620    0.1830 O   0  0  0  0  0  0  0  0  0  0  0  0
    3.6480    4.8390    0.2210 H   0  0  0  0  0  0  0  0  0  0  0  0
    3.3860    3.6940    1.5510 H   0  0  0  0  0  0  0  0  0  0  0  0
    2.5910    1.1170   -1.2180 H   0  0  0  0  0  0  0  0  0  0  0  0
    3.7870    1.3850    0.1670 H   0  0  0  0  0  0  0  0  0  0  0  0
    1.9220    1.5480    1.7300 H   0  0  0  0  0  0  0  0  0  0  0  0
    1.6520   -1.0280    0.1400 H   0  0  0  0  0  0  0  0  0  0  0  0
   -4.8300   -0.0740   -1.9050 C   0  0  0  0  0  0  0  0  0  0  0  0
   -3.6240    0.6500   -2.3950 C   0  0  0  0  0  0  0  0  0  0  0  0
   -2.3370    0.3570   -1.7320 C   0  0  2  0  0  0  0  0  0  0  0  0
   -2.0240   -1.1240   -1.8320 C   0  0  0  0  0  0  0  0  0  0  0  0
   -2.0300    0.9790   -0.4190 C   0  0  2  0  0  0  0  0  0  0  0  0
   -0.6820    0.5120    0.0170 N   0  0  0  0  0  0  0  0  0  0  0  0
   -2.9600    0.5790    0.6280 C   0  0  0  0  0  0  0  0  0  0  0  0
   -2.5820   -0.1620    1.5660 O   0  0  0  0  0  0  0  0  0  0  0  0
   -4.2770    0.9790    0.6630 O   0  0  0  0  0  0  0  0  0  0  0  0
   -5.6620    0.5990   -1.5800 H   0  0  0  0  0  0  0  0  0  0  0  0
   -5.2980   -0.6160   -2.8000 H   0  0  0  0  0  0  0  0  0  0  0  0
   -4.6260   -0.8950   -1.1930 H   0  0  0  0  0  0  0  0  0  0  0  0
   -3.8800    1.7530   -2.3380 H   0  0  0  0  0  0  0  0  0  0  0  0
   -3.5450    0.4850   -3.5120 H   0  0  0  0  0  0  0  0  0  0  0  0
   -1.5400    0.7970   -2.4800 H   0  0  0  0  0  0  0  0  0  0  0  0
   -2.3150   -1.4210   -2.8710 H   0  0  0  0  0  0  0  0  0  0  0  0
   -2.6920   -1.7160   -1.1490 H   0  0  0  0  0  0  0  0  0  0  0  0
   -0.9640   -1.3460   -1.7090 H   0  0  0  0  0  0  0  0  0  0  0  0
   -1.9640    2.0950   -0.4720 H   0  0  0  0  0  0  0  0  0  0  0  0
   -0.5150   -0.5080    0.0960 H   0  0  0  0  0  0  0  0  0  0  0  0
  1 11  1  0  0  0  0
  2  1  1  0  0  0  0
  2  3  1  0  0  0  0
  3 14  1  1  0  0  0
  3  5  1  0  0  0  0
  3  4  1  0  0  0  0
  4 17  1  0  0  0  0
  4 16  1  0  0  0  0
  5 18  1  6  0  0  0
  5  6  1  0  0  0  0
  6 19  1  0  0  0  0
  6 20  1  0  0  0  0
  7  5  1  0  0  0  0
  7  8  2  0  0  0  0
  9  1  1  0  0  0  0
 10  1  1  0  0  0  0
 12  2  1  0  0  0  0
 13  2  1  0  0  0  0
 15  4  1  0  0  0  0
 21 30  1  0  0  0  0
 22 24  1  0  0  0  0
 22 21  1  0  0  0  0
 23 22  2  0  0  0  0
 24 32  1  0  0  0  0
 24 25  1  0  0  0  0
 25 26  1  0  0  0  0
 25 33  1  1  0  0  0
 26  7  1  0  0  0  0
 27 25  1  0  0  0  0
 28 27  2  0  0  0  0
 29 21  1  0  0  0  0
 31 24  1  0  0  0  0
 34 26  1  0  0  0  0
 35 44  1  0  0  0  0
 35 46  1  0  0  0  0
 36 47  1  0  0  0  0
 36 35  1  0  0  0  0
 36 37  1  0  0  0  0
 37 49  1  6  0  0  0
 37 39  1  0  0  0  0
 38 37  1  0  0  0  0
 38 52  1  0  0  0  0
 38 51  1  0  0  0  0
 39 53  1  6  0  0  0
 39 40  1  0  0  0  0
 39 41  1  0  0  0  0
 40 54  1  0  0  0  0
 40 27  1  0  0  0  0
 41 43  2  0  0  0  0
 41 42  1  0  0  0  0
 45 35  1  0  0  0  0
 48 36  1  0  0  0  0
 50 38  1  0  0  0  0
M  END
$$$$
