INL.pdb
 OpenBabel07022418403D

 54 53  0  0  1  0  0  0  0  0999 V2000
    0.2310   -4.4940    1.1550 C   0  0  0  0  0  0  0  0  0  0  0  0
    0.9820   -3.1670    0.9990 C   0  0  0  0  0  0  0  0  0  0  0  0
    1.8790   -2.9230    2.1920 C   0  0  2  0  0  0  0  0  0  0  0  0
    1.0780   -2.8370    3.4740 C   0  0  0  0  0  0  0  0  0  0  0  0
    2.9010   -1.8650    2.0190 C   0  0  2  0  0  0  0  0  0  0  0  0
    3.6590   -1.8310    3.2900 N   0  0  0  0  0  0  0  0  0  0  0  0
    2.4550   -0.5030    1.7690 C   0  0  0  0  0  0  0  0  0  0  0  0
    2.6910    0.4080    2.6560 O   0  0  0  0  0  0  0  0  0  0  0  0
   -0.8440   -4.3800    0.9630 H   0  0  0  0  0  0  0  0  0  0  0  0
    0.6640   -5.2420    0.4420 H   0  0  0  0  0  0  0  0  0  0  0  0
    0.4760   -4.8740    2.1670 H   0  0  0  0  0  0  0  0  0  0  0  0
    0.1620   -2.4130    0.9550 H   0  0  0  0  0  0  0  0  0  0  0  0
    1.5690   -3.2150    0.0760 H   0  0  0  0  0  0  0  0  0  0  0  0
    2.4580   -3.8960    2.2950 H   0  0  0  0  0  0  0  0  0  0  0  0
    1.0040   -1.7970    3.8700 H   0  0  0  0  0  0  0  0  0  0  0  0
    1.4790   -3.4680    4.2880 H   0  0  0  0  0  0  0  0  0  0  0  0
    0.0490   -3.2370    3.2470 H   0  0  0  0  0  0  0  0  0  0  0  0
    3.6520   -2.2250    1.2720 H   0  0  0  0  0  0  0  0  0  0  0  0
    4.3920   -2.5510    3.2650 H   0  0  0  0  0  0  0  0  0  0  0  0
    2.9860   -2.0980    4.0330 H   0  0  0  0  0  0  0  0  0  0  0  0
    1.9500    4.3760    0.2320 N   0  0  0  0  0  0  0  0  0  0  0  0
    1.7200    3.3700   -0.7740 C   0  0  0  0  0  0  0  0  0  0  0  0
    1.0600    3.7710   -1.7830 O   0  0  0  0  0  0  0  0  0  0  0  0
    2.2120    1.9820   -0.6400 C   0  0  0  0  0  0  0  0  0  0  0  0
    1.3700    1.2750    0.3990 C   0  0  2  0  0  0  0  0  0  0  0  0
    1.7690   -0.0800    0.6000 N   0  0  0  0  0  0  0  0  0  0  0  0
   -0.0360    1.4600    0.1050 C   0  0  0  0  0  0  0  0  0  0  0  0
   -0.4340    2.6780   -0.0220 O   0  0  0  0  0  0  0  0  0  0  0  0
    2.4260    5.2770    0.0140 H   0  0  0  0  0  0  0  0  0  0  0  0
    1.6430    4.2300    1.2240 H   0  0  0  0  0  0  0  0  0  0  0  0
    2.1710    1.5100   -1.6210 H   0  0  0  0  0  0  0  0  0  0  0  0
    3.2810    2.0390   -0.3510 H   0  0  0  0  0  0  0  0  0  0  0  0
    1.6140    1.8260    1.3630 H   0  0  0  0  0  0  0  0  0  0  0  0
    1.5580   -0.7840   -0.1200 H   0  0  0  0  0  0  0  0  0  0  0  0
   -3.8540   -1.8520   -0.7720 C   0  0  0  0  0  0  0  0  0  0  0  0
   -3.0150   -1.1330   -1.8020 C   0  0  0  0  0  0  0  0  0  0  0  0
   -1.7020   -1.8280   -1.9950 C   0  0  0  0  0  0  0  0  0  0  0  0
   -2.9490    0.3350   -1.6240 C   0  0  0  0  0  0  0  0  0  0  0  0
   -2.3880    0.8570   -0.3530 C   0  0  2  0  0  0  0  0  0  0  0  0
   -1.0340    0.4910   -0.0630 N   0  0  0  0  0  0  0  0  0  0  0  0
   -3.2720    0.6010    0.8200 C   0  0  0  0  0  0  0  0  0  0  0  0
   -2.7720    0.1500    1.8610 O   0  0  0  0  0  0  0  0  0  0  0  0
   -4.6100    0.8730    0.7170 O   0  0  0  0  0  0  0  0  0  0  0  0
   -3.3900   -1.9330    0.2090 H   0  0  0  0  0  0  0  0  0  0  0  0
   -4.8740   -1.4130   -0.7780 H   0  0  0  0  0  0  0  0  0  0  0  0
   -3.9550   -2.9060   -1.1640 H   0  0  0  0  0  0  0  0  0  0  0  0
   -3.5790   -1.2960   -2.7770 H   0  0  0  0  0  0  0  0  0  0  0  0
   -1.7450   -2.5910   -2.8250 H   0  0  0  0  0  0  0  0  0  0  0  0
   -1.5140   -2.4600   -1.0840 H   0  0  0  0  0  0  0  0  0  0  0  0
   -0.8630   -1.1760   -2.2570 H   0  0  0  0  0  0  0  0  0  0  0  0
   -4.0040    0.7230   -1.6860 H   0  0  0  0  0  0  0  0  0  0  0  0
   -2.4170    0.7970   -2.4750 H   0  0  0  0  0  0  0  0  0  0  0  0
   -2.4250    1.9890   -0.4620 H   0  0  0  0  0  0  0  0  0  0  0  0
   -0.7440   -0.5010    0.0330 H   0  0  0  0  0  0  0  0  0  0  0  0
  1 11  1  0  0  0  0
  2  1  1  0  0  0  0
  2  3  1  0  0  0  0
  3 14  1  1  0  0  0
  3  4  1  0  0  0  0
  4 15  1  0  0  0  0
  4 16  1  0  0  0  0
  5 18  1  6  0  0  0
  5  3  1  0  0  0  0
  5  6  1  0  0  0  0
  6 20  1  0  0  0  0
  7  5  1  0  0  0  0
  7  8  2  0  0  0  0
  9  1  1  0  0  0  0
 10  1  1  0  0  0  0
 12  2  1  0  0  0  0
 13  2  1  0  0  0  0
 17  4  1  0  0  0  0
 19  6  1  0  0  0  0
 21 30  1  0  0  0  0
 22 24  1  0  0  0  0
 22 21  1  0  0  0  0
 23 22  2  0  0  0  0
 24 32  1  0  0  0  0
 24 25  1  0  0  0  0
 25 26  1  0  0  0  0
 25 33  1  1  0  0  0
 26  7  1  0  0  0  0
 27 25  1  0  0  0  0
 28 27  2  0  0  0  0
 29 21  1  0  0  0  0
 31 24  1  0  0  0  0
 34 26  1  0  0  0  0
 35 44  1  0  0  0  0
 36 38  1  0  0  0  0
 36 35  1  0  0  0  0
 37 36  1  0  0  0  0
 37 49  1  0  0  0  0
 38 39  1  0  0  0  0
 39 53  1  6  0  0  0
 39 40  1  0  0  0  0
 39 41  1  0  0  0  0
 40 54  1  0  0  0  0
 40 27  1  0  0  0  0
 41 42  1  0  0  0  0
 43 41  2  0  0  0  0
 45 35  1  0  0  0  0
 46 35  1  0  0  0  0
 47 36  1  0  0  0  0
 48 37  1  0  0  0  0
 50 37  1  0  0  0  0
 51 38  1  0  0  0  0
 52 38  1  0  0  0  0
M  END
$$$$
