INS.pdb
 OpenBabel07022418403D

 46 45  0  0  1  0  0  0  0  0999 V2000
   -1.2800   -4.7450    2.9370 C   0  0  0  0  0  0  0  0  0  0  0  0
    0.1280   -4.4450    2.4760 C   0  0  0  0  0  0  0  0  0  0  0  0
    0.2980   -2.9640    2.4450 C   0  0  2  0  0  0  0  0  0  0  0  0
   -0.7020   -2.3820    1.4900 C   0  0  0  0  0  0  0  0  0  0  0  0
    1.7060   -2.5200    2.1590 C   0  0  2  0  0  0  0  0  0  0  0  0
    2.6120   -3.0350    3.1920 N   0  0  0  0  0  0  0  0  0  0  0  0
    1.7520   -1.0430    2.1240 C   0  0  0  0  0  0  0  0  0  0  0  0
    2.1880   -0.4120    3.1540 O   0  0  0  0  0  0  0  0  0  0  0  0
   -1.3380   -5.6930    3.5110 H   0  0  0  0  0  0  0  0  0  0  0  0
   -1.6370   -3.8770    3.5260 H   0  0  0  0  0  0  0  0  0  0  0  0
   -1.9250   -4.7850    2.0200 H   0  0  0  0  0  0  0  0  0  0  0  0
    0.3140   -4.9270    1.4860 H   0  0  0  0  0  0  0  0  0  0  0  0
    0.8250   -4.9090    3.2190 H   0  0  0  0  0  0  0  0  0  0  0  0
    0.0000   -2.5940    3.4690 H   0  0  0  0  0  0  0  0  0  0  0  0
   -1.7360   -2.7780    1.7330 H   0  0  0  0  0  0  0  0  0  0  0  0
   -0.7280   -1.2950    1.6860 H   0  0  0  0  0  0  0  0  0  0  0  0
   -0.4660   -2.5570    0.4300 H   0  0  0  0  0  0  0  0  0  0  0  0
    2.0290   -2.9600    1.2040 H   0  0  0  0  0  0  0  0  0  0  0  0
    2.7260   -4.0500    2.9780 H   0  0  0  0  0  0  0  0  0  0  0  0
    2.2900   -2.8370    4.1430 H   0  0  0  0  0  0  0  0  0  0  0  0
    3.7200    1.4030   -2.0450 N   0  0  0  0  0  0  0  0  0  0  0  0
    2.6350    1.1500   -1.1640 C   0  0  0  0  0  0  0  0  0  0  0  0
    1.6530    0.5290   -1.6290 O   0  0  0  0  0  0  0  0  0  0  0  0
    2.6580    1.5960    0.2380 C   0  0  0  0  0  0  0  0  0  0  0  0
    1.4060    1.1750    1.0210 C   0  0  2  0  0  0  0  0  0  0  0  0
    1.3450   -0.2590    1.0090 N   0  0  0  0  0  0  0  0  0  0  0  0
    0.2350    1.8760    0.5140 C   0  0  0  0  0  0  0  0  0  0  0  0
    0.2910    3.1570    0.5770 O   0  0  0  0  0  0  0  0  0  0  0  0
    3.8490    0.8640   -2.9290 H   0  0  0  0  0  0  0  0  0  0  0  0
    4.4400    2.1430   -1.8470 H   0  0  0  0  0  0  0  0  0  0  0  0
    2.6960    2.7030    0.3290 H   0  0  0  0  0  0  0  0  0  0  0  0
    3.5620    1.2280    0.7930 H   0  0  0  0  0  0  0  0  0  0  0  0
    1.6390    1.5140    2.0740 H   0  0  0  0  0  0  0  0  0  0  0  0
    0.9960   -0.7360    0.1560 H   0  0  0  0  0  0  0  0  0  0  0  0
   -3.3820    2.7660   -2.2870 O   0  0  0  0  0  0  0  0  0  0  0  0
   -2.3350    1.9090   -1.9470 C   0  0  0  0  0  0  0  0  0  0  0  0
   -2.0200    2.1300   -0.4940 C   0  0  2  0  0  0  0  0  0  0  0  0
   -0.9370    1.2820   -0.0330 N   0  0  0  0  0  0  0  0  0  0  0  0
   -3.2720    1.8600    0.2810 C   0  0  0  0  0  0  0  0  0  0  0  0
   -4.2930    2.5300   -0.0190 O   0  0  0  0  0  0  0  0  0  0  0  0
   -3.2600    0.9030    1.2780 O   0  0  0  0  0  0  0  0  0  0  0  0
   -3.2030    3.7080   -2.0120 H   0  0  0  0  0  0  0  0  0  0  0  0
   -2.7380    0.8680   -2.1150 H   0  0  0  0  0  0  0  0  0  0  0  0
   -1.4950    2.1240   -2.6200 H   0  0  0  0  0  0  0  0  0  0  0  0
   -1.7630    3.1800   -0.3430 H   0  0  0  0  0  0  0  0  0  0  0  0
   -0.9740    0.2490   -0.0880 H   0  0  0  0  0  0  0  0  0  0  0  0
  1  9  1  0  0  0  0
  1 10  1  0  0  0  0
  2  1  1  0  0  0  0
  2 13  1  0  0  0  0
  3  2  1  0  0  0  0
  3 14  1  1  0  0  0
  4 16  1  0  0  0  0
  4 15  1  0  0  0  0
  4  3  1  0  0  0  0
  5 18  1  6  0  0  0
  5  3  1  0  0  0  0
  5  6  1  0  0  0  0
  6 20  1  0  0  0  0
  7  5  1  0  0  0  0
  7  8  2  0  0  0  0
 11  1  1  0  0  0  0
 12  2  1  0  0  0  0
 17  4  1  0  0  0  0
 19  6  1  0  0  0  0
 21 30  1  0  0  0  0
 21 22  1  0  0  0  0
 22 24  1  0  0  0  0
 23 22  2  0  0  0  0
 24 31  1  0  0  0  0
 24 32  1  0  0  0  0
 24 25  1  0  0  0  0
 25 33  1  1  0  0  0
 26 25  1  0  0  0  0
 26  7  1  0  0  0  0
 27 28  2  0  0  0  0
 27 25  1  0  0  0  0
 29 21  1  0  0  0  0
 34 26  1  0  0  0  0
 35 42  1  0  0  0  0
 35 36  1  0  0  0  0
 36 37  1  0  0  0  0
 37 45  1  1  0  0  0
 37 38  1  0  0  0  0
 37 39  1  0  0  0  0
 38 27  1  0  0  0  0
 39 41  1  0  0  0  0
 40 39  2  0  0  0  0
 43 36  1  0  0  0  0
 44 36  1  0  0  0  0
 46 38  1  0  0  0  0
M  END
$$$$
