INT.pdb
 OpenBabel07022418403D

 49 48  0  0  1  0  0  0  0  0999 V2000
    0.7770   -4.4720   -0.7560 C   0  0  0  0  0  0  0  0  0  0  0  0
    1.3480   -3.9260    0.5310 C   0  0  0  0  0  0  0  0  0  0  0  0
    2.6390   -3.1740    0.3020 C   0  0  2  0  0  0  0  0  0  0  0  0
    3.7080   -4.0120   -0.3020 C   0  0  0  0  0  0  0  0  0  0  0  0
    3.0440   -2.5250    1.6090 C   0  0  2  0  0  0  0  0  0  0  0  0
    3.2250   -3.5680    2.5870 N   0  0  0  0  0  0  0  0  0  0  0  0
    1.9260   -1.6440    2.0410 C   0  0  0  0  0  0  0  0  0  0  0  0
    1.3060   -1.8680    3.1120 O   0  0  0  0  0  0  0  0  0  0  0  0
   -0.3210   -4.5730   -0.6240 H   0  0  0  0  0  0  0  0  0  0  0  0
    1.0420   -3.7870   -1.5860 H   0  0  0  0  0  0  0  0  0  0  0  0
    1.1680   -5.5010   -0.9100 H   0  0  0  0  0  0  0  0  0  0  0  0
    1.4800   -4.7410    1.2720 H   0  0  0  0  0  0  0  0  0  0  0  0
    0.5880   -3.2340    0.9480 H   0  0  0  0  0  0  0  0  0  0  0  0
    2.3800   -2.3160   -0.3870 H   0  0  0  0  0  0  0  0  0  0  0  0
    3.5890   -5.0980   -0.1490 H   0  0  0  0  0  0  0  0  0  0  0  0
    3.6950   -3.8530   -1.4150 H   0  0  0  0  0  0  0  0  0  0  0  0
    4.7390   -3.6920    0.0130 H   0  0  0  0  0  0  0  0  0  0  0  0
    3.9880   -1.9360    1.4770 H   0  0  0  0  0  0  0  0  0  0  0  0
    3.3640   -4.5050    2.1530 H   0  0  0  0  0  0  0  0  0  0  0  0
    4.0010   -3.3770    3.2570 H   0  0  0  0  0  0  0  0  0  0  0  0
    1.9500    3.6720    0.5650 N   0  0  0  0  0  0  0  0  0  0  0  0
    1.4430    2.3250    0.5710 C   0  0  0  0  0  0  0  0  0  0  0  0
    1.5000    1.6980   -0.5190 O   0  0  0  0  0  0  0  0  0  0  0  0
    0.8990    1.7720    1.8230 C   0  0  0  0  0  0  0  0  0  0  0  0
    0.4270    0.3470    1.6720 C   0  0  2  0  0  0  0  0  0  0  0  0
    1.5120   -0.5220    1.2700 N   0  0  0  0  0  0  0  0  0  0  0  0
   -0.6050    0.3140    0.6110 C   0  0  0  0  0  0  0  0  0  0  0  0
   -0.4240   -0.3920   -0.3980 O   0  0  0  0  0  0  0  0  0  0  0  0
    1.3290    4.4560    0.8250 H   0  0  0  0  0  0  0  0  0  0  0  0
    2.9350    3.8620    0.3020 H   0  0  0  0  0  0  0  0  0  0  0  0
    1.7220    1.7770    2.5960 H   0  0  0  0  0  0  0  0  0  0  0  0
    0.0880    2.4100    2.2260 H   0  0  0  0  0  0  0  0  0  0  0  0
    0.0450   -0.0580    2.6350 H   0  0  0  0  0  0  0  0  0  0  0  0
    2.0370   -0.3600    0.3950 H   0  0  0  0  0  0  0  0  0  0  0  0
   -4.6200    1.1240    1.4090 C   0  0  0  0  0  0  0  0  0  0  0  0
   -4.0870    0.3840    0.2090 C   0  0  1  0  0  0  0  0  0  0  0  0
   -5.0570    0.3780   -0.8150 O   0  0  0  0  0  0  0  0  0  0  0  0
   -2.8230    1.0350   -0.3370 C   0  0  2  0  0  0  0  0  0  0  0  0
   -1.8150    1.0580    0.6810 N   0  0  0  0  0  0  0  0  0  0  0  0
   -3.1050    2.3530   -0.9170 C   0  0  0  0  0  0  0  0  0  0  0  0
   -3.9610    2.4920   -1.8190 O   0  0  0  0  0  0  0  0  0  0  0  0
   -2.4250    3.4700   -0.4740 O   0  0  0  0  0  0  0  0  0  0  0  0
   -4.0070    0.8770    2.2880 H   0  0  0  0  0  0  0  0  0  0  0  0
   -4.6190    2.2270    1.2750 H   0  0  0  0  0  0  0  0  0  0  0  0
   -5.6520    0.7910    1.5730 H   0  0  0  0  0  0  0  0  0  0  0  0
   -3.8470   -0.6480    0.5170 H   0  0  0  0  0  0  0  0  0  0  0  0
   -4.7080   -0.0390   -1.6210 H   0  0  0  0  0  0  0  0  0  0  0  0
   -2.4610    0.3400   -1.1500 H   0  0  0  0  0  0  0  0  0  0  0  0
   -1.9720    1.6480    1.5200 H   0  0  0  0  0  0  0  0  0  0  0  0
  1  9  1  0  0  0  0
  1  2  1  0  0  0  0
  2 13  1  0  0  0  0
  2 12  1  0  0  0  0
  3 14  1  6  0  0  0
  3  2  1  0  0  0  0
  3  5  1  0  0  0  0
  4 15  1  0  0  0  0
  4 17  1  0  0  0  0
  4  3  1  0  0  0  0
  5 18  1  6  0  0  0
  5  7  1  0  0  0  0
  5  6  1  0  0  0  0
  6 20  1  0  0  0  0
  7  8  2  0  0  0  0
 10  1  1  0  0  0  0
 11  1  1  0  0  0  0
 16  4  1  0  0  0  0
 19  6  1  0  0  0  0
 21 22  1  0  0  0  0
 21 29  1  0  0  0  0
 22 24  1  0  0  0  0
 23 22  2  0  0  0  0
 24 32  1  0  0  0  0
 24 31  1  0  0  0  0
 25 24  1  0  0  0  0
 25 33  1  1  0  0  0
 26 25  1  0  0  0  0
 26  7  1  0  0  0  0
 27 39  1  0  0  0  0
 27 25  1  0  0  0  0
 28 27  2  0  0  0  0
 30 21  1  0  0  0  0
 34 26  1  0  0  0  0
 35 45  1  0  0  0  0
 35 43  1  0  0  0  0
 36 46  1  1  0  0  0
 36 35  1  0  0  0  0
 37 36  1  0  0  0  0
 38 48  1  6  0  0  0
 38 36  1  0  0  0  0
 38 39  1  0  0  0  0
 39 49  1  0  0  0  0
 40 42  1  0  0  0  0
 40 38  1  0  0  0  0
 41 40  2  0  0  0  0
 44 35  1  0  0  0  0
 47 37  1  0  0  0  0
M  END
$$$$
