INW.pdb
 OpenBabel07022418403D

 59 60  0  0  1  0  0  0  0  0999 V2000
    1.5970   -2.0650    4.6710 C   0  0  0  0  0  0  0  0  0  0  0  0
    1.7670   -1.1610    3.4510 C   0  0  0  0  0  0  0  0  0  0  0  0
    2.4870    0.0840    3.8370 C   0  0  2  0  0  0  0  0  0  0  0  0
    1.7950    0.9080    4.8820 C   0  0  0  0  0  0  0  0  0  0  0  0
    3.0250    0.9230    2.7380 C   0  0  2  0  0  0  0  0  0  0  0  0
    3.6670    2.0720    3.3980 N   0  0  0  0  0  0  0  0  0  0  0  0
    2.1240    1.4030    1.7250 C   0  0  0  0  0  0  0  0  0  0  0  0
    1.8770    2.6390    1.6870 O   0  0  0  0  0  0  0  0  0  0  0  0
    0.6010   -1.9280    5.1350 H   0  0  0  0  0  0  0  0  0  0  0  0
    1.7170   -3.1210    4.4070 H   0  0  0  0  0  0  0  0  0  0  0  0
    2.4240   -1.8060    5.3690 H   0  0  0  0  0  0  0  0  0  0  0  0
    0.7730   -0.9670    2.9700 H   0  0  0  0  0  0  0  0  0  0  0  0
    2.3170   -1.7740    2.7100 H   0  0  0  0  0  0  0  0  0  0  0  0
    3.4150   -0.3080    4.3710 H   0  0  0  0  0  0  0  0  0  0  0  0
    1.1650    1.7160    4.4660 H   0  0  0  0  0  0  0  0  0  0  0  0
    2.5840    1.4540    5.4860 H   0  0  0  0  0  0  0  0  0  0  0  0
    1.2280    0.3170    5.6130 H   0  0  0  0  0  0  0  0  0  0  0  0
    3.8630    0.3650    2.2550 H   0  0  0  0  0  0  0  0  0  0  0  0
    2.9080    2.6970    3.7440 H   0  0  0  0  0  0  0  0  0  0  0  0
    4.2620    1.7410    4.2080 H   0  0  0  0  0  0  0  0  0  0  0  0
    0.0070    2.9920   -2.7750 N   0  0  0  0  0  0  0  0  0  0  0  0
    0.3200    1.6030   -2.6630 C   0  0  0  0  0  0  0  0  0  0  0  0
   -0.2130    0.8480   -3.5460 O   0  0  0  0  0  0  0  0  0  0  0  0
    1.1890    1.0620   -1.6160 C   0  0  0  0  0  0  0  0  0  0  0  0
    0.5610    1.1460   -0.2730 C   0  0  2  0  0  0  0  0  0  0  0  0
    1.4760    0.6200    0.7480 N   0  0  0  0  0  0  0  0  0  0  0  0
   -0.6380    0.2940   -0.1930 C   0  0  0  0  0  0  0  0  0  0  0  0
   -0.5650   -0.7050    0.5840 O   0  0  0  0  0  0  0  0  0  0  0  0
    0.6550    3.7720   -2.5850 H   0  0  0  0  0  0  0  0  0  0  0  0
   -0.9620    3.2350   -3.0740 H   0  0  0  0  0  0  0  0  0  0  0  0
    1.3630   -0.0210   -1.8620 H   0  0  0  0  0  0  0  0  0  0  0  0
    2.1460    1.6330   -1.6890 H   0  0  0  0  0  0  0  0  0  0  0  0
    0.3260    2.2010   -0.0720 H   0  0  0  0  0  0  0  0  0  0  0  0
    1.6450   -0.3900    0.7350 H   0  0  0  0  0  0  0  0  0  0  0  0
   -1.8590    0.4780   -0.8870 N   0  0  0  0  0  0  0  0  0  0  0  0
   -3.0270   -0.3390   -0.7850 C   0  0  1  0  0  0  0  0  0  0  0  0
   -3.3760   -1.2040   -1.9210 C   0  0  0  0  0  0  0  0  0  0  0  0
   -2.3970   -2.1940   -2.3950 C   0  0  0  0  0  0  0  0  0  0  0  0
   -1.6520   -2.0660   -3.5680 C   0  0  0  0  0  0  0  0  0  0  0  0
   -0.8860   -3.1340   -3.6810 N   0  0  0  0  0  0  0  0  0  0  0  0
   -1.0840   -3.9770   -2.6340 C   0  0  0  0  0  0  0  0  0  0  0  0
   -0.5100   -5.2100   -2.3350 C   0  0  0  0  0  0  0  0  0  0  0  0
   -0.9100   -5.8640   -1.1850 C   0  0  0  0  0  0  0  0  0  0  0  0
   -1.8600   -5.2750   -0.3760 C   0  0  0  0  0  0  0  0  0  0  0  0
   -2.4330   -4.0570   -0.6630 C   0  0  0  0  0  0  0  0  0  0  0  0
   -2.0320   -3.3870   -1.8280 C   0  0  0  0  0  0  0  0  0  0  0  0
   -3.4060   -0.8000    0.5640 C   0  0  0  0  0  0  0  0  0  0  0  0
   -4.4790   -1.4880    0.7160 O   0  0  0  0  0  0  0  0  0  0  0  0
   -2.7360   -0.5800    1.7450 O   0  0  0  0  0  0  0  0  0  0  0  0
   -1.8340    1.3450   -1.5190 H   0  0  0  0  0  0  0  0  0  0  0  0
   -3.8690    0.5160   -0.8840 H   0  0  0  0  0  0  0  0  0  0  0  0
   -3.6680   -0.5750   -2.7960 H   0  0  0  0  0  0  0  0  0  0  0  0
   -4.3390   -1.7350   -1.6440 H   0  0  0  0  0  0  0  0  0  0  0  0
   -1.7130   -1.2500   -4.2420 H   0  0  0  0  0  0  0  0  0  0  0  0
   -0.1860   -3.3810   -4.4490 H   0  0  0  0  0  0  0  0  0  0  0  0
    0.2440   -5.6480   -3.0010 H   0  0  0  0  0  0  0  0  0  0  0  0
   -0.4840   -6.8170   -0.9270 H   0  0  0  0  0  0  0  0  0  0  0  0
   -2.1410   -5.8190    0.5090 H   0  0  0  0  0  0  0  0  0  0  0  0
   -3.1720   -3.6020   -0.0440 H   0  0  0  0  0  0  0  0  0  0  0  0
  1  9  1  0  0  0  0
  1 11  1  0  0  0  0
  2  3  1  0  0  0  0
  2  1  1  0  0  0  0
  3 14  1  1  0  0  0
  3  4  1  0  0  0  0
  4 16  1  0  0  0  0
  4 17  1  0  0  0  0
  5 18  1  6  0  0  0
  5  6  1  0  0  0  0
  5  3  1  0  0  0  0
  6 19  1  0  0  0  0
  6 20  1  0  0  0  0
  7  5  1  0  0  0  0
  8  7  2  0  0  0  0
 10  1  1  0  0  0  0
 12  2  1  0  0  0  0
 13  2  1  0  0  0  0
 15  4  1  0  0  0  0
 21 22  1  0  0  0  0
 21 29  1  0  0  0  0
 22 24  1  0  0  0  0
 23 22  2  0  0  0  0
 24 25  1  0  0  0  0
 25 27  1  0  0  0  0
 25 33  1  1  0  0  0
 25 26  1  0  0  0  0
 26  7  1  0  0  0  0
 27 28  2  0  0  0  0
 30 21  1  0  0  0  0
 31 24  1  0  0  0  0
 32 24  1  0  0  0  0
 34 26  1  0  0  0  0
 35 36  1  0  0  0  0
 35 27  1  0  0  0  0
 36 51  1  6  0  0  0
 36 47  1  0  0  0  0
 37 53  1  0  0  0  0
 37 36  1  0  0  0  0
 38 37  1  0  0  0  0
 38 46  1  0  0  0  0
 39 38  2  0  0  0  0
 40 39  1  0  0  0  0
 40 41  1  0  0  0  0
 41 42  2  0  0  0  0
 41 46  1  0  0  0  0
 42 43  1  0  0  0  0
 43 57  1  0  0  0  0
 43 44  2  0  0  0  0
 44 58  1  0  0  0  0
 45 44  1  0  0  0  0
 45 59  1  0  0  0  0
 46 45  2  0  0  0  0
 47 48  2  0  0  0  0
 47 49  1  0  0  0  0
 50 35  1  0  0  0  0
 52 37  1  0  0  0  0
 54 39  1  0  0  0  0
 55 40  1  0  0  0  0
 56 42  1  0  0  0  0
M  END
$$$$
