IPA.pdb
 OpenBabel07022418423D

 45 45  0  0  1  0  0  0  0  0999 V2000
    0.7830   -5.5440    0.6330 C   0  0  0  0  0  0  0  0  0  0  0  0
    0.2400   -4.2590    0.1000 C   0  0  0  0  0  0  0  0  0  0  0  0
    1.2560   -3.1640    0.0220 C   0  0  2  0  0  0  0  0  0  0  0  0
    1.8340   -2.8370    1.3490 C   0  0  0  0  0  0  0  0  0  0  0  0
    0.6020   -1.9660   -0.6900 C   0  0  2  0  0  0  0  0  0  0  0  0
    0.2270   -2.4900   -2.0340 N   0  0  0  0  0  0  0  0  0  0  0  0
    1.5530   -0.8510   -0.8850 C   0  0  0  0  0  0  0  0  0  0  0  0
    2.2560   -0.9440   -1.9600 O   0  0  0  0  0  0  0  0  0  0  0  0
    0.8650   -5.5510    1.7420 H   0  0  0  0  0  0  0  0  0  0  0  0
    0.0160   -6.3400    0.4020 H   0  0  0  0  0  0  0  0  0  0  0  0
    1.7420   -5.8300    0.1380 H   0  0  0  0  0  0  0  0  0  0  0  0
   -0.6300   -3.9740    0.7230 H   0  0  0  0  0  0  0  0  0  0  0  0
   -0.1890   -4.4430   -0.9270 H   0  0  0  0  0  0  0  0  0  0  0  0
    2.0990   -3.5240   -0.6370 H   0  0  0  0  0  0  0  0  0  0  0  0
    2.3930   -3.7150    1.7280 H   0  0  0  0  0  0  0  0  0  0  0  0
    1.0370   -2.6460    2.1150 H   0  0  0  0  0  0  0  0  0  0  0  0
    2.5430   -1.9830    1.3280 H   0  0  0  0  0  0  0  0  0  0  0  0
   -0.3210   -1.6930   -0.1920 H   0  0  0  0  0  0  0  0  0  0  0  0
    1.1190   -2.6240   -2.5960 H   0  0  0  0  0  0  0  0  0  0  0  0
   -0.2900   -1.7120   -2.5130 H   0  0  0  0  0  0  0  0  0  0  0  0
    1.7190    0.2470   -0.0080 N   0  0  0  0  0  0  0  0  0  0  0  0
    2.7250    1.2930   -0.2650 C   0  0  0  0  0  0  0  0  0  0  0  0
    3.0320    1.9000    1.0670 C   0  0  0  0  0  0  0  0  0  0  0  0
    1.7160    1.8140    1.7700 C   0  0  0  0  0  0  0  0  0  0  0  0
    1.0250    0.6020    1.1740 C   0  0  1  0  0  0  0  0  0  0  0  0
   -0.3880    1.0000    0.8310 C   0  0  0  0  0  0  0  0  0  0  0  0
   -0.8140    1.0020   -0.3530 O   0  0  0  0  0  0  0  0  0  0  0  0
    2.3870    2.0010   -1.0230 H   0  0  0  0  0  0  0  0  0  0  0  0
    3.6730    0.8380   -0.6460 H   0  0  0  0  0  0  0  0  0  0  0  0
    3.8360    1.3290    1.5790 H   0  0  0  0  0  0  0  0  0  0  0  0
    3.3690    2.9480    0.9620 H   0  0  0  0  0  0  0  0  0  0  0  0
    1.8810    1.7030    2.8640 H   0  0  0  0  0  0  0  0  0  0  0  0
    1.0990    2.7290    1.6020 H   0  0  0  0  0  0  0  0  0  0  0  0
    1.0390   -0.2090    1.9090 H   0  0  0  0  0  0  0  0  0  0  0  0
   -3.5680    0.7650    2.2320 C   0  0  0  0  0  0  0  0  0  0  0  0
   -2.6650    1.7740    1.5090 C   0  0  2  0  0  0  0  0  0  0  0  0
   -1.3060    1.3920    1.8410 N   0  0  0  0  0  0  0  0  0  0  0  0
   -2.9840    3.1440    1.9550 C   0  0  0  0  0  0  0  0  0  0  0  0
   -2.1110    3.8140    2.5430 O   0  0  0  0  0  0  0  0  0  0  0  0
   -4.2240    3.6940    1.7350 O   0  0  0  0  0  0  0  0  0  0  0  0
   -4.5330    0.6540    1.7120 H   0  0  0  0  0  0  0  0  0  0  0  0
   -3.0190   -0.2100    2.3060 H   0  0  0  0  0  0  0  0  0  0  0  0
   -3.6920    1.1360    3.2770 H   0  0  0  0  0  0  0  0  0  0  0  0
   -2.8690    1.7190    0.4310 H   0  0  0  0  0  0  0  0  0  0  0  0
   -1.0190    1.4130    2.8440 H   0  0  0  0  0  0  0  0  0  0  0  0
  1  9  1  0  0  0  0
  2  1  1  0  0  0  0
  2 12  1  0  0  0  0
  3 14  1  6  0  0  0
  3  2  1  0  0  0  0
  3  4  1  0  0  0  0
  4 15  1  0  0  0  0
  4 16  1  0  0  0  0
  5 18  1  1  0  0  0
  5  3  1  0  0  0  0
  6  5  1  0  0  0  0
  7  5  1  0  0  0  0
  7 21  1  0  0  0  0
  8  7  2  0  0  0  0
 10  1  1  0  0  0  0
 11  1  1  0  0  0  0
 13  2  1  0  0  0  0
 17  4  1  0  0  0  0
 19  6  1  0  0  0  0
 20  6  1  0  0  0  0
 21 25  1  0  0  0  0
 22 21  1  0  0  0  0
 22 23  1  0  0  0  0
 23 30  1  0  0  0  0
 23 24  1  0  0  0  0
 24 32  1  0  0  0  0
 25 24  1  0  0  0  0
 25 34  1  1  0  0  0
 26 25  1  0  0  0  0
 26 37  1  0  0  0  0
 27 26  2  0  0  0  0
 28 22  1  0  0  0  0
 29 22  1  0  0  0  0
 31 23  1  0  0  0  0
 33 24  1  0  0  0  0
 35 42  1  0  0  0  0
 35 43  1  0  0  0  0
 36 44  1  6  0  0  0
 36 37  1  0  0  0  0
 36 38  1  0  0  0  0
 36 35  1  0  0  0  0
 37 45  1  0  0  0  0
 38 39  1  0  0  0  0
 40 38  2  0  0  0  0
 41 35  1  0  0  0  0
M  END
$$$$
