IPC.pdb
 OpenBabel07022418423D

 46 46  0  0  1  0  0  0  0  0999 V2000
    1.3520   -4.8910   -0.5640 C   0  0  0  0  0  0  0  0  0  0  0  0
    1.4050   -3.3870   -0.3200 C   0  0  0  0  0  0  0  0  0  0  0  0
    0.3120   -3.0630    0.6490 C   0  0  2  0  0  0  0  0  0  0  0  0
   -1.0160   -3.4680    0.0440 C   0  0  0  0  0  0  0  0  0  0  0  0
    0.2240   -1.5780    0.9560 C   0  0  2  0  0  0  0  0  0  0  0  0
   -0.0310   -0.8450   -0.2370 N   0  0  0  0  0  0  0  0  0  0  0  0
    1.3660   -1.0950    1.7280 C   0  0  0  0  0  0  0  0  0  0  0  0
    2.0010   -1.9530    2.4460 O   0  0  0  0  0  0  0  0  0  0  0  0
    0.3630   -5.3170   -0.2930 H   0  0  0  0  0  0  0  0  0  0  0  0
    2.1080   -5.4200    0.0520 H   0  0  0  0  0  0  0  0  0  0  0  0
    1.5460   -5.1520   -1.6180 H   0  0  0  0  0  0  0  0  0  0  0  0
    1.2390   -2.9170   -1.3160 H   0  0  0  0  0  0  0  0  0  0  0  0
    2.4060   -3.1290    0.0760 H   0  0  0  0  0  0  0  0  0  0  0  0
    0.4960   -3.6190    1.5790 H   0  0  0  0  0  0  0  0  0  0  0  0
   -1.3890   -4.4080    0.5270 H   0  0  0  0  0  0  0  0  0  0  0  0
   -1.8020   -2.7100    0.2160 H   0  0  0  0  0  0  0  0  0  0  0  0
   -0.9440   -3.5830   -1.0690 H   0  0  0  0  0  0  0  0  0  0  0  0
   -0.6860   -1.4960    1.6200 H   0  0  0  0  0  0  0  0  0  0  0  0
   -0.7380   -1.2440   -0.8560 H   0  0  0  0  0  0  0  0  0  0  0  0
    0.8220   -0.4930   -0.7200 H   0  0  0  0  0  0  0  0  0  0  0  0
    1.8070    0.2140    1.7290 N   0  0  0  0  0  0  0  0  0  0  0  0
    3.1100    0.5750    2.4160 C   0  0  0  0  0  0  0  0  0  0  0  0
    3.7800    1.4400    1.3390 C   0  0  0  0  0  0  0  0  0  0  0  0
    2.6090    1.8540    0.4100 C   0  0  0  0  0  0  0  0  0  0  0  0
    1.4290    1.5050    1.2680 C   0  0  1  0  0  0  0  0  0  0  0  0
    0.1150    1.8410    0.8470 C   0  0  0  0  0  0  0  0  0  0  0  0
   -0.0420    2.6260   -0.1570 O   0  0  0  0  0  0  0  0  0  0  0  0
    2.8400    1.1780    3.2950 H   0  0  0  0  0  0  0  0  0  0  0  0
    3.6820   -0.3250    2.6040 H   0  0  0  0  0  0  0  0  0  0  0  0
    4.1900    2.3470    1.7840 H   0  0  0  0  0  0  0  0  0  0  0  0
    4.5180    0.8290    0.7970 H   0  0  0  0  0  0  0  0  0  0  0  0
    2.6600    2.9420    0.2220 H   0  0  0  0  0  0  0  0  0  0  0  0
    2.7120    1.2380   -0.4820 H   0  0  0  0  0  0  0  0  0  0  0  0
    1.6440    2.1760    2.2240 H   0  0  0  0  0  0  0  0  0  0  0  0
   -1.1040    1.3990    1.4360 N   0  0  0  0  0  0  0  0  0  0  0  0
   -2.3900    1.8130    0.9270 C   0  0  1  0  0  0  0  0  0  0  0  0
   -3.2030    0.6320    0.4660 C   0  0  0  0  0  0  0  0  0  0  0  0
   -3.5270   -0.5540    1.7720 S   0  0  0  0  0  0  0  0  0  0  0  0
   -3.1530    2.6030    1.9300 C   0  0  0  0  0  0  0  0  0  0  0  0
   -2.6810    2.8500    3.0710 O   0  0  0  0  0  0  0  0  0  0  0  0
   -4.4180    3.1080    1.6670 O   0  0  0  0  0  0  0  0  0  0  0  0
   -1.0710    0.7490    2.2790 H   0  0  0  0  0  0  0  0  0  0  0  0
   -2.2340    2.4760    0.0520 H   0  0  0  0  0  0  0  0  0  0  0  0
   -2.6510    0.1130   -0.3440 H   0  0  0  0  0  0  0  0  0  0  0  0
   -4.1660    0.9530   -0.0080 H   0  0  0  0  0  0  0  0  0  0  0  0
   -3.7690   -1.8410    1.2840 H   0  0  0  0  0  0  0  0  0  0  0  0
  1  2  1  0  0  0  0
  1  9  1  0  0  0  0
  1 10  1  0  0  0  0
  2 13  1  0  0  0  0
  2  3  1  0  0  0  0
  3  5  1  0  0  0  0
  3 14  1  1  0  0  0
  4 16  1  0  0  0  0
  4 15  1  0  0  0  0
  4  3  1  0  0  0  0
  5 18  1  1  0  0  0
  5  7  1  0  0  0  0
  6  5  1  0  0  0  0
  7 21  1  0  0  0  0
  7  8  2  0  0  0  0
 11  1  1  0  0  0  0
 12  2  1  0  0  0  0
 17  4  1  0  0  0  0
 19  6  1  0  0  0  0
 20  6  1  0  0  0  0
 21 22  1  0  0  0  0
 22 29  1  0  0  0  0
 22 28  1  0  0  0  0
 23 30  1  0  0  0  0
 23 22  1  0  0  0  0
 24 25  1  0  0  0  0
 24 23  1  0  0  0  0
 25 21  1  0  0  0  0
 25 34  1  1  0  0  0
 26 25  1  0  0  0  0
 26 35  1  0  0  0  0
 27 26  2  0  0  0  0
 31 23  1  0  0  0  0
 32 24  1  0  0  0  0
 33 24  1  0  0  0  0
 35 42  1  0  0  0  0
 36 43  1  6  0  0  0
 36 35  1  0  0  0  0
 36 39  1  0  0  0  0
 37 36  1  0  0  0  0
 37 38  1  0  0  0  0
 39 40  1  0  0  0  0
 41 39  2  0  0  0  0
 44 37  1  0  0  0  0
 45 37  1  0  0  0  0
 46 38  1  0  0  0  0
M  END
$$$$
