IPD.pdb
 OpenBabel07022418423D

 48 48  0  0  1  0  0  0  0  0999 V2000
    2.0610   -3.1150    4.0680 C   0  0  0  0  0  0  0  0  0  0  0  0
    3.0750   -2.2490    3.3770 C   0  0  0  0  0  0  0  0  0  0  0  0
    3.1010   -2.4110    1.8990 C   0  0  2  0  0  0  0  0  0  0  0  0
    4.1520   -1.5270    1.2400 C   0  0  0  0  0  0  0  0  0  0  0  0
    1.7630   -2.2480    1.2120 C   0  0  2  0  0  0  0  0  0  0  0  0
    2.0480   -2.4440   -0.1890 N   0  0  0  0  0  0  0  0  0  0  0  0
    0.9960   -1.0910    1.5840 C   0  0  0  0  0  0  0  0  0  0  0  0
    0.5810   -1.0020    2.8110 O   0  0  0  0  0  0  0  0  0  0  0  0
    2.6410   -3.8860    4.6340 H   0  0  0  0  0  0  0  0  0  0  0  0
    1.5480   -2.5280    4.8660 H   0  0  0  0  0  0  0  0  0  0  0  0
    1.3100   -3.5740    3.4280 H   0  0  0  0  0  0  0  0  0  0  0  0
    4.0830   -2.3490    3.8420 H   0  0  0  0  0  0  0  0  0  0  0  0
    2.7760   -1.1760    3.5760 H   0  0  0  0  0  0  0  0  0  0  0  0
    3.4300   -3.4480    1.6830 H   0  0  0  0  0  0  0  0  0  0  0  0
    5.1680   -1.8240    1.4850 H   0  0  0  0  0  0  0  0  0  0  0  0
    3.9860   -0.4940    1.6060 H   0  0  0  0  0  0  0  0  0  0  0  0
    3.9830   -1.5600    0.1370 H   0  0  0  0  0  0  0  0  0  0  0  0
    1.1770   -3.1650    1.4970 H   0  0  0  0  0  0  0  0  0  0  0  0
    2.5030   -3.3960   -0.2620 H   0  0  0  0  0  0  0  0  0  0  0  0
    1.1160   -2.5770   -0.6850 H   0  0  0  0  0  0  0  0  0  0  0  0
    0.5780    0.0330    0.8410 N   0  0  0  0  0  0  0  0  0  0  0  0
    0.8960    0.2620   -0.5400 C   0  0  0  0  0  0  0  0  0  0  0  0
    1.2120    1.7710   -0.5980 C   0  0  0  0  0  0  0  0  0  0  0  0
    0.5690    2.3360    0.6460 C   0  0  0  0  0  0  0  0  0  0  0  0
   -0.2150    1.1660    1.1620 C   0  0  1  0  0  0  0  0  0  0  0  0
   -1.6210    1.1460    0.8420 C   0  0  0  0  0  0  0  0  0  0  0  0
   -2.2780    2.1950    1.0900 O   0  0  0  0  0  0  0  0  0  0  0  0
    0.0630    0.1250   -1.2400 H   0  0  0  0  0  0  0  0  0  0  0  0
    1.8010   -0.2910   -0.8680 H   0  0  0  0  0  0  0  0  0  0  0  0
    0.8500    2.2070   -1.5300 H   0  0  0  0  0  0  0  0  0  0  0  0
    2.3240    1.8800   -0.4830 H   0  0  0  0  0  0  0  0  0  0  0  0
    1.3380    2.7060    1.3660 H   0  0  0  0  0  0  0  0  0  0  0  0
   -0.1140    3.1640    0.3470 H   0  0  0  0  0  0  0  0  0  0  0  0
   -0.1610    1.2650    2.2960 H   0  0  0  0  0  0  0  0  0  0  0  0
   -2.2750    0.0260    0.2750 N   0  0  0  0  0  0  0  0  0  0  0  0
   -3.6890   -0.0040   -0.0550 C   0  0  1  0  0  0  0  0  0  0  0  0
   -3.8760   -0.4110   -1.4800 C   0  0  0  0  0  0  0  0  0  0  0  0
   -3.2040    0.5420   -2.3920 C   0  0  0  0  0  0  0  0  0  0  0  0
   -2.5930    1.5220   -1.9000 O   0  0  0  0  0  0  0  0  0  0  0  0
   -4.3580   -1.0050    0.8340 C   0  0  0  0  0  0  0  0  0  0  0  0
   -3.6840   -1.6310    1.6840 O   0  0  0  0  0  0  0  0  0  0  0  0
   -3.2460    0.3590   -3.7780 O   0  0  0  0  0  0  0  0  0  0  0  0
   -5.7030   -1.2580    0.7440 O   0  0  0  0  0  0  0  0  0  0  0  0
   -1.6570   -0.7970    0.1100 H   0  0  0  0  0  0  0  0  0  0  0  0
   -4.1000    1.0040    0.1890 H   0  0  0  0  0  0  0  0  0  0  0  0
   -3.4590   -1.4400   -1.5830 H   0  0  0  0  0  0  0  0  0  0  0  0
   -4.9790   -0.4440   -1.6760 H   0  0  0  0  0  0  0  0  0  0  0  0
   -3.0670    1.1630   -4.3640 H   0  0  0  0  0  0  0  0  0  0  0  0
  1  9  1  0  0  0  0
  1 10  1  0  0  0  0
  2 13  1  0  0  0  0
  2 12  1  0  0  0  0
  2  1  1  0  0  0  0
  3 14  1  6  0  0  0
  3  2  1  0  0  0  0
  4 15  1  0  0  0  0
  4 16  1  0  0  0  0
  4  3  1  0  0  0  0
  5 18  1  1  0  0  0
  5  7  1  0  0  0  0
  5  3  1  0  0  0  0
  6  5  1  0  0  0  0
  7  8  2  0  0  0  0
 11  1  1  0  0  0  0
 17  4  1  0  0  0  0
 19  6  1  0  0  0  0
 20  6  1  0  0  0  0
 21 25  1  0  0  0  0
 21  7  1  0  0  0  0
 22 21  1  0  0  0  0
 23 22  1  0  0  0  0
 23 31  1  0  0  0  0
 23 24  1  0  0  0  0
 24 25  1  0  0  0  0
 24 32  1  0  0  0  0
 25 34  1  1  0  0  0
 26 27  2  0  0  0  0
 26 25  1  0  0  0  0
 28 22  1  0  0  0  0
 29 22  1  0  0  0  0
 30 23  1  0  0  0  0
 33 24  1  0  0  0  0
 35 26  1  0  0  0  0
 36 45  1  1  0  0  0
 36 35  1  0  0  0  0
 36 40  1  0  0  0  0
 37 36  1  0  0  0  0
 38 39  2  0  0  0  0
 38 37  1  0  0  0  0
 40 41  1  0  0  0  0
 42 38  1  0  0  0  0
 43 40  2  0  0  0  0
 44 35  1  0  0  0  0
 46 37  1  0  0  0  0
 47 37  1  0  0  0  0
 48 42  1  0  0  0  0
M  END
$$$$
