IPE.pdb
 OpenBabel07022418423D

 51 51  0  0  1  0  0  0  0  0999 V2000
    3.4150   -1.1390    0.9080 C   0  0  0  0  0  0  0  0  0  0  0  0
    2.2060   -1.9010    0.4360 C   0  0  0  0  0  0  0  0  0  0  0  0
    1.6940   -2.8210    1.5000 C   0  0  2  0  0  0  0  0  0  0  0  0
    0.4880   -3.6190    0.9460 C   0  0  0  0  0  0  0  0  0  0  0  0
    1.2760   -2.1530    2.7770 C   0  0  2  0  0  0  0  0  0  0  0  0
    0.8760   -3.3250    3.6390 N   0  0  0  0  0  0  0  0  0  0  0  0
    0.1570   -1.2350    2.7220 C   0  0  0  0  0  0  0  0  0  0  0  0
   -1.0120   -1.7570    2.9900 O   0  0  0  0  0  0  0  0  0  0  0  0
    3.3120   -0.9090    1.9670 H   0  0  0  0  0  0  0  0  0  0  0  0
    4.2720   -1.8740    0.8430 H   0  0  0  0  0  0  0  0  0  0  0  0
    3.6210   -0.2490    0.2710 H   0  0  0  0  0  0  0  0  0  0  0  0
    1.4120   -1.1960    0.0920 H   0  0  0  0  0  0  0  0  0  0  0  0
    2.5090   -2.5020   -0.4880 H   0  0  0  0  0  0  0  0  0  0  0  0
    2.4520   -3.5860    1.7520 H   0  0  0  0  0  0  0  0  0  0  0  0
    0.7340   -3.7850   -0.1220 H   0  0  0  0  0  0  0  0  0  0  0  0
    0.4480   -4.6150    1.4240 H   0  0  0  0  0  0  0  0  0  0  0  0
   -0.4580   -3.1110    1.1330 H   0  0  0  0  0  0  0  0  0  0  0  0
    2.1380   -1.7320    3.2840 H   0  0  0  0  0  0  0  0  0  0  0  0
    1.6160   -4.0350    3.4470 H   0  0  0  0  0  0  0  0  0  0  0  0
    0.0010   -3.6650    3.1960 H   0  0  0  0  0  0  0  0  0  0  0  0
    0.0740    0.1410    2.4360 N   0  0  0  0  0  0  0  0  0  0  0  0
    1.1490    1.0200    2.0820 C   0  0  0  0  0  0  0  0  0  0  0  0
    0.6730    2.4380    2.3570 C   0  0  0  0  0  0  0  0  0  0  0  0
   -0.6540    2.2500    3.0660 C   0  0  0  0  0  0  0  0  0  0  0  0
   -1.1410    0.9750    2.4800 C   0  0  1  0  0  0  0  0  0  0  0  0
   -1.8690    1.0470    1.2280 C   0  0  0  0  0  0  0  0  0  0  0  0
   -2.8200    1.8730    1.1570 O   0  0  0  0  0  0  0  0  0  0  0  0
    1.9820    0.8360    2.8290 H   0  0  0  0  0  0  0  0  0  0  0  0
    1.4930    0.9450    1.0430 H   0  0  0  0  0  0  0  0  0  0  0  0
    0.5530    2.9560    1.3870 H   0  0  0  0  0  0  0  0  0  0  0  0
    1.3880    3.0140    2.9480 H   0  0  0  0  0  0  0  0  0  0  0  0
   -1.2610    3.1380    2.8880 H   0  0  0  0  0  0  0  0  0  0  0  0
   -0.4640    2.0730    4.1530 H   0  0  0  0  0  0  0  0  0  0  0  0
   -1.8390    0.5240    3.2730 H   0  0  0  0  0  0  0  0  0  0  0  0
   -1.6040    0.2630    0.0840 N   0  0  0  0  0  0  0  0  0  0  0  0
   -2.3620    0.3510   -1.1520 C   0  0  1  0  0  0  0  0  0  0  0  0
   -1.5200    0.7950   -2.2850 C   0  0  0  0  0  0  0  0  0  0  0  0
   -0.3200   -0.0310   -2.5830 C   0  0  0  0  0  0  0  0  0  0  0  0
   -0.5000   -1.4320   -2.9500 C   0  0  0  0  0  0  0  0  0  0  0  0
   -1.5980   -1.9850   -3.0970 O   0  0  0  0  0  0  0  0  0  0  0  0
   -3.3050   -0.7380   -1.3630 C   0  0  0  0  0  0  0  0  0  0  0  0
   -3.3180   -1.7110   -0.5670 O   0  0  0  0  0  0  0  0  0  0  0  0
    0.6160   -2.2750   -3.1690 O   0  0  0  0  0  0  0  0  0  0  0  0
   -4.1910   -0.7290   -2.4160 O   0  0  0  0  0  0  0  0  0  0  0  0
   -0.8290   -0.4270    0.0940 H   0  0  0  0  0  0  0  0  0  0  0  0
   -3.0590    1.2710   -0.9490 H   0  0  0  0  0  0  0  0  0  0  0  0
   -1.1290    1.8270   -2.0030 H   0  0  0  0  0  0  0  0  0  0  0  0
   -2.1430    0.9770   -3.2080 H   0  0  0  0  0  0  0  0  0  0  0  0
    0.2860    0.5110   -3.3980 H   0  0  0  0  0  0  0  0  0  0  0  0
    0.3400    0.0470   -1.6530 H   0  0  0  0  0  0  0  0  0  0  0  0
    0.5350   -3.2460   -2.9030 H   0  0  0  0  0  0  0  0  0  0  0  0
  1  9  1  0  0  0  0
  2  1  1  0  0  0  0
  2  3  1  0  0  0  0
  3 14  1  1  0  0  0
  3  5  1  0  0  0  0
  4 17  1  0  0  0  0
  4 16  1  0  0  0  0
  4  3  1  0  0  0  0
  5 18  1  1  0  0  0
  5  6  1  0  0  0  0
  7  5  1  0  0  0  0
  7  8  2  0  0  0  0
 10  1  1  0  0  0  0
 11  1  1  0  0  0  0
 12  2  1  0  0  0  0
 13  2  1  0  0  0  0
 15  4  1  0  0  0  0
 19  6  1  0  0  0  0
 20  6  1  0  0  0  0
 21 25  1  0  0  0  0
 21  7  1  0  0  0  0
 22 23  1  0  0  0  0
 22 21  1  0  0  0  0
 22 28  1  0  0  0  0
 23 31  1  0  0  0  0
 23 24  1  0  0  0  0
 24 33  1  0  0  0  0
 25 24  1  0  0  0  0
 25 34  1  1  0  0  0
 26 25  1  0  0  0  0
 27 26  2  0  0  0  0
 29 22  1  0  0  0  0
 30 23  1  0  0  0  0
 32 24  1  0  0  0  0
 35 45  1  0  0  0  0
 35 26  1  0  0  0  0
 36 46  1  1  0  0  0
 36 35  1  0  0  0  0
 37 47  1  0  0  0  0
 37 36  1  0  0  0  0
 38 37  1  0  0  0  0
 38 50  1  0  0  0  0
 39 38  1  0  0  0  0
 40 39  2  0  0  0  0
 41 36  1  0  0  0  0
 41 42  1  0  0  0  0
 43 39  1  0  0  0  0
 43 51  1  0  0  0  0
 44 41  2  0  0  0  0
 48 37  1  0  0  0  0
 49 38  1  0  0  0  0
M  END
$$$$
