IPF.pdb
 OpenBabel07022418423D

 55 56  0  0  1  0  0  0  0  0999 V2000
    2.6670   -2.6180    3.9130 C   0  0  0  0  0  0  0  0  0  0  0  0
    3.1930   -2.0930    2.6060 C   0  0  0  0  0  0  0  0  0  0  0  0
    3.6040   -0.6410    2.6750 C   0  0  2  0  0  0  0  0  0  0  0  0
    4.6920   -0.5370    3.7210 C   0  0  0  0  0  0  0  0  0  0  0  0
    2.4580    0.2460    3.1220 C   0  0  2  0  0  0  0  0  0  0  0  0
    2.0090   -0.1780    4.4500 N   0  0  0  0  0  0  0  0  0  0  0  0
    1.3110    0.2380    2.2260 C   0  0  0  0  0  0  0  0  0  0  0  0
    0.3120   -0.4790    2.5480 O   0  0  0  0  0  0  0  0  0  0  0  0
    3.1970   -2.2600    4.7960 H   0  0  0  0  0  0  0  0  0  0  0  0
    1.5570   -2.4780    3.9860 H   0  0  0  0  0  0  0  0  0  0  0  0
    2.8010   -3.7370    3.8910 H   0  0  0  0  0  0  0  0  0  0  0  0
    4.0530   -2.7140    2.3190 H   0  0  0  0  0  0  0  0  0  0  0  0
    2.4240   -2.2040    1.8510 H   0  0  0  0  0  0  0  0  0  0  0  0
    3.9650   -0.3080    1.7140 H   0  0  0  0  0  0  0  0  0  0  0  0
    4.1970   -0.4860    4.7090 H   0  0  0  0  0  0  0  0  0  0  0  0
    5.3430    0.3420    3.5600 H   0  0  0  0  0  0  0  0  0  0  0  0
    5.2830   -1.4870    3.7170 H   0  0  0  0  0  0  0  0  0  0  0  0
    2.8520    1.2710    3.2190 H   0  0  0  0  0  0  0  0  0  0  0  0
    0.9870   -0.1200    4.4820 H   0  0  0  0  0  0  0  0  0  0  0  0
    2.4420    0.4220    5.1950 H   0  0  0  0  0  0  0  0  0  0  0  0
    1.1790    0.9650    0.9970 N   0  0  0  0  0  0  0  0  0  0  0  0
    2.1990    1.8650    0.5430 C   0  0  0  0  0  0  0  0  0  0  0  0
    2.1030    1.6970   -0.9810 C   0  0  0  0  0  0  0  0  0  0  0  0
    0.5750    1.6780   -1.1550 C   0  0  0  0  0  0  0  0  0  0  0  0
    0.0930    0.9420    0.0670 C   0  0  1  0  0  0  0  0  0  0  0  0
   -0.2600   -0.4690   -0.2790 C   0  0  0  0  0  0  0  0  0  0  0  0
    0.4210   -1.4120    0.1510 O   0  0  0  0  0  0  0  0  0  0  0  0
    1.8420    2.9230    0.7160 H   0  0  0  0  0  0  0  0  0  0  0  0
    3.2020    1.7130    0.9190 H   0  0  0  0  0  0  0  0  0  0  0  0
    2.5740    2.5430   -1.4760 H   0  0  0  0  0  0  0  0  0  0  0  0
    2.5650    0.7400   -1.2230 H   0  0  0  0  0  0  0  0  0  0  0  0
    0.1890    2.6970   -1.2530 H   0  0  0  0  0  0  0  0  0  0  0  0
    0.3990    1.0610   -2.0670 H   0  0  0  0  0  0  0  0  0  0  0  0
   -0.8180    1.4440    0.4880 H   0  0  0  0  0  0  0  0  0  0  0  0
   -1.3600   -0.8010   -1.0940 N   0  0  0  0  0  0  0  0  0  0  0  0
   -1.6750   -2.1450   -1.4070 C   0  0  1  0  0  0  0  0  0  0  0  0
   -3.0020   -2.6310   -0.9340 C   0  0  0  0  0  0  0  0  0  0  0  0
   -4.1660   -1.9030   -1.4520 C   0  0  0  0  0  0  0  0  0  0  0  0
   -4.6110   -0.8130   -0.7160 C   0  0  0  0  0  0  0  0  0  0  0  0
   -5.6920   -0.0430   -1.0910 C   0  0  0  0  0  0  0  0  0  0  0  0
   -6.3620   -0.3790   -2.2580 C   0  0  0  0  0  0  0  0  0  0  0  0
   -5.9340   -1.4620   -3.0060 C   0  0  0  0  0  0  0  0  0  0  0  0
   -4.8470   -2.2000   -2.5880 C   0  0  0  0  0  0  0  0  0  0  0  0
   -1.4680   -2.4340   -2.8560 C   0  0  0  0  0  0  0  0  0  0  0  0
   -1.0660   -1.5510   -3.6350 O   0  0  0  0  0  0  0  0  0  0  0  0
   -1.7330   -3.7050   -3.3110 O   0  0  0  0  0  0  0  0  0  0  0  0
   -1.9960   -0.0510   -1.5040 H   0  0  0  0  0  0  0  0  0  0  0  0
   -0.9190   -2.7960   -0.8990 H   0  0  0  0  0  0  0  0  0  0  0  0
   -3.0980   -3.6890   -1.2600 H   0  0  0  0  0  0  0  0  0  0  0  0
   -2.9950   -2.6480    0.1690 H   0  0  0  0  0  0  0  0  0  0  0  0
   -4.1150   -0.5130    0.2080 H   0  0  0  0  0  0  0  0  0  0  0  0
   -6.0290    0.8130   -0.4980 H   0  0  0  0  0  0  0  0  0  0  0  0
   -7.2010    0.2410   -2.5230 H   0  0  0  0  0  0  0  0  0  0  0  0
   -6.4720   -1.6950   -3.9020 H   0  0  0  0  0  0  0  0  0  0  0  0
   -4.5210   -3.0420   -3.1770 H   0  0  0  0  0  0  0  0  0  0  0  0
  1 10  1  0  0  0  0
  1  9  1  0  0  0  0
  2  3  1  0  0  0  0
  2  1  1  0  0  0  0
  3 14  1  6  0  0  0
  3  5  1  0  0  0  0
  3  4  1  0  0  0  0
  4 15  1  0  0  0  0
  5 18  1  1  0  0  0
  5  6  1  0  0  0  0
  6 19  1  0  0  0  0
  6 20  1  0  0  0  0
  7  8  2  0  0  0  0
  7  5  1  0  0  0  0
 11  1  1  0  0  0  0
 12  2  1  0  0  0  0
 13  2  1  0  0  0  0
 16  4  1  0  0  0  0
 17  4  1  0  0  0  0
 21  7  1  0  0  0  0
 22 28  1  0  0  0  0
 22 29  1  0  0  0  0
 22 21  1  0  0  0  0
 23 22  1  0  0  0  0
 24 23  1  0  0  0  0
 24 25  1  0  0  0  0
 25 34  1  1  0  0  0
 25 21  1  0  0  0  0
 26 25  1  0  0  0  0
 26 27  2  0  0  0  0
 30 23  1  0  0  0  0
 31 23  1  0  0  0  0
 32 24  1  0  0  0  0
 33 24  1  0  0  0  0
 35 26  1  0  0  0  0
 36 35  1  0  0  0  0
 36 37  1  0  0  0  0
 36 48  1  1  0  0  0
 37 50  1  0  0  0  0
 38 37  1  0  0  0  0
 38 39  1  0  0  0  0
 39 51  1  0  0  0  0
 40 39  2  0  0  0  0
 40 52  1  0  0  0  0
 41 40  1  0  0  0  0
 42 43  1  0  0  0  0
 42 41  2  0  0  0  0
 43 38  2  0  0  0  0
 44 36  1  0  0  0  0
 45 44  2  0  0  0  0
 46 44  1  0  0  0  0
 47 35  1  0  0  0  0
 49 37  1  0  0  0  0
 53 41  1  0  0  0  0
 54 42  1  0  0  0  0
 55 43  1  0  0  0  0
M  END
$$$$
