IPG.pdb
 OpenBabel07022418423D

 42 42  0  0  1  0  0  0  0  0999 V2000
   -2.1720   -4.5950   -0.4940 C   0  0  0  0  0  0  0  0  0  0  0  0
   -0.7330   -4.5280   -0.8720 C   0  0  0  0  0  0  0  0  0  0  0  0
   -0.1110   -3.1770   -0.8990 C   0  0  2  0  0  0  0  0  0  0  0  0
    1.3360   -3.3470   -1.3100 C   0  0  0  0  0  0  0  0  0  0  0  0
   -0.2320   -2.4020    0.4010 C   0  0  2  0  0  0  0  0  0  0  0  0
   -1.5680   -2.1620    0.7770 N   0  0  0  0  0  0  0  0  0  0  0  0
    0.6230   -1.2220    0.4370 C   0  0  0  0  0  0  0  0  0  0  0  0
    1.8990   -1.4270    0.2940 O   0  0  0  0  0  0  0  0  0  0  0  0
   -2.8220   -4.0150   -1.1680 H   0  0  0  0  0  0  0  0  0  0  0  0
   -2.4630   -5.6890   -0.5980 H   0  0  0  0  0  0  0  0  0  0  0  0
   -2.2950   -4.3930    0.5790 H   0  0  0  0  0  0  0  0  0  0  0  0
   -0.0890   -5.1680   -0.2080 H   0  0  0  0  0  0  0  0  0  0  0  0
   -0.5590   -4.9760   -1.8960 H   0  0  0  0  0  0  0  0  0  0  0  0
   -0.5970   -2.5650   -1.6880 H   0  0  0  0  0  0  0  0  0  0  0  0
    1.6880   -2.4200   -1.7880 H   0  0  0  0  0  0  0  0  0  0  0  0
    1.9950   -3.6110   -0.4660 H   0  0  0  0  0  0  0  0  0  0  0  0
    1.4040   -4.2050   -2.0440 H   0  0  0  0  0  0  0  0  0  0  0  0
    0.2230   -3.1110    1.1830 H   0  0  0  0  0  0  0  0  0  0  0  0
   -2.2570   -2.0710    0.0450 H   0  0  0  0  0  0  0  0  0  0  0  0
   -1.7690   -1.6220    1.6050 H   0  0  0  0  0  0  0  0  0  0  0  0
    0.2840    0.1330    0.6080 N   0  0  0  0  0  0  0  0  0  0  0  0
   -1.0140    0.6960    0.7500 C   0  0  0  0  0  0  0  0  0  0  0  0
   -0.8820    2.1170    0.1970 C   0  0  0  0  0  0  0  0  0  0  0  0
    0.5720    2.2470   -0.2320 C   0  0  0  0  0  0  0  0  0  0  0  0
    1.2360    1.2420    0.7010 C   0  0  1  0  0  0  0  0  0  0  0  0
    1.3760    1.7460    2.0600 C   0  0  0  0  0  0  0  0  0  0  0  0
    0.7180    1.2320    2.9880 O   0  0  0  0  0  0  0  0  0  0  0  0
   -1.7080    0.1560    0.0570 H   0  0  0  0  0  0  0  0  0  0  0  0
   -1.3740    0.7150    1.7990 H   0  0  0  0  0  0  0  0  0  0  0  0
   -1.5580    2.2890   -0.6580 H   0  0  0  0  0  0  0  0  0  0  0  0
   -1.1100    2.8040    1.0330 H   0  0  0  0  0  0  0  0  0  0  0  0
    0.8910    3.2810   -0.0300 H   0  0  0  0  0  0  0  0  0  0  0  0
    0.7240    2.0040   -1.2830 H   0  0  0  0  0  0  0  0  0  0  0  0
    2.1690    0.9170    0.2310 H   0  0  0  0  0  0  0  0  0  0  0  0
    2.2530    2.8160    2.3430 N   0  0  0  0  0  0  0  0  0  0  0  0
    2.3590    3.2840    3.7110 C   0  0  0  0  0  0  0  0  0  0  0  0
    2.8300    2.1760    4.6050 C   0  0  0  0  0  0  0  0  0  0  0  0
    2.9880    2.3760    5.8330 O   0  0  0  0  0  0  0  0  0  0  0  0
    3.1080    0.9040    4.1210 O   0  0  0  0  0  0  0  0  0  0  0  0
    2.8270    3.2760    1.5750 H   0  0  0  0  0  0  0  0  0  0  0  0
    1.4400    3.7470    4.0890 H   0  0  0  0  0  0  0  0  0  0  0  0
    3.1580    4.0680    3.7590 H   0  0  0  0  0  0  0  0  0  0  0  0
  1 11  1  0  0  0  0
  2  1  1  0  0  0  0
  2 12  1  0  0  0  0
  3 14  1  6  0  0  0
  3  2  1  0  0  0  0
  3  5  1  0  0  0  0
  4  3  1  0  0  0  0
  4 16  1  0  0  0  0
  5  7  1  0  0  0  0
  5  6  1  0  0  0  0
  5 18  1  1  0  0  0
  6 20  1  0  0  0  0
  7 21  1  0  0  0  0
  8  7  2  0  0  0  0
  9  1  1  0  0  0  0
 10  1  1  0  0  0  0
 13  2  1  0  0  0  0
 15  4  1  0  0  0  0
 17  4  1  0  0  0  0
 19  6  1  0  0  0  0
 21 25  1  0  0  0  0
 21 22  1  0  0  0  0
 22 29  1  0  0  0  0
 23 22  1  0  0  0  0
 23 31  1  0  0  0  0
 24 32  1  0  0  0  0
 24 23  1  0  0  0  0
 24 25  1  0  0  0  0
 25 34  1  6  0  0  0
 25 26  1  0  0  0  0
 26 35  1  0  0  0  0
 26 27  2  0  0  0  0
 28 22  1  0  0  0  0
 30 23  1  0  0  0  0
 33 24  1  0  0  0  0
 35 36  1  0  0  0  0
 36 42  1  0  0  0  0
 36 41  1  0  0  0  0
 36 37  1  0  0  0  0
 37 38  1  0  0  0  0
 39 37  2  0  0  0  0
 40 35  1  0  0  0  0
M  END
$$$$
