IPH.pdb
 OpenBabel07022418423D

 52 53  0  0  1  0  0  0  0  0999 V2000
    3.7790   -2.0150    4.1890 C   0  0  0  0  0  0  0  0  0  0  0  0
    3.2700   -0.9350    3.2140 C   0  0  0  0  0  0  0  0  0  0  0  0
    1.8780   -0.5480    3.5970 C   0  0  2  0  0  0  0  0  0  0  0  0
    0.8930   -1.6730    3.5500 C   0  0  0  0  0  0  0  0  0  0  0  0
    1.4340    0.6940    2.8560 C   0  0  2  0  0  0  0  0  0  0  0  0
    0.1000    1.0130    3.2550 N   0  0  0  0  0  0  0  0  0  0  0  0
    1.6830    0.6750    1.4140 C   0  0  0  0  0  0  0  0  0  0  0  0
    2.9230    0.4770    1.1040 O   0  0  0  0  0  0  0  0  0  0  0  0
    4.8570   -2.1420    3.9610 H   0  0  0  0  0  0  0  0  0  0  0  0
    3.5800   -1.7160    5.2320 H   0  0  0  0  0  0  0  0  0  0  0  0
    3.2810   -2.9690    3.9150 H   0  0  0  0  0  0  0  0  0  0  0  0
    3.9240   -0.0520    3.2430 H   0  0  0  0  0  0  0  0  0  0  0  0
    3.3120   -1.4610    2.2250 H   0  0  0  0  0  0  0  0  0  0  0  0
    1.9470   -0.2590    4.6970 H   0  0  0  0  0  0  0  0  0  0  0  0
   -0.0810   -1.3740    3.1070 H   0  0  0  0  0  0  0  0  0  0  0  0
    1.3340   -2.5240    2.9770 H   0  0  0  0  0  0  0  0  0  0  0  0
    0.6960   -2.0690    4.5620 H   0  0  0  0  0  0  0  0  0  0  0  0
    2.0880    1.5210    3.2900 H   0  0  0  0  0  0  0  0  0  0  0  0
   -0.1010    0.5370    4.1580 H   0  0  0  0  0  0  0  0  0  0  0  0
    0.0030    2.0460    3.4840 H   0  0  0  0  0  0  0  0  0  0  0  0
    0.7620    0.8420    0.3620 N   0  0  0  0  0  0  0  0  0  0  0  0
    1.1430    0.7980   -1.0390 C   0  0  0  0  0  0  0  0  0  0  0  0
    0.4600    2.0490   -1.5550 C   0  0  0  0  0  0  0  0  0  0  0  0
   -0.8170    2.1010   -0.7480 C   0  0  0  0  0  0  0  0  0  0  0  0
   -0.6430    1.0760    0.3490 C   0  0  1  0  0  0  0  0  0  0  0  0
   -1.5170   -0.0780    0.2160 C   0  0  0  0  0  0  0  0  0  0  0  0
   -2.7710    0.1560    0.3000 O   0  0  0  0  0  0  0  0  0  0  0  0
    0.8280   -0.1060   -1.5650 H   0  0  0  0  0  0  0  0  0  0  0  0
    2.2350    1.0000   -1.1430 H   0  0  0  0  0  0  0  0  0  0  0  0
    0.2380    1.9920   -2.6500 H   0  0  0  0  0  0  0  0  0  0  0  0
    1.0830    2.9530   -1.3980 H   0  0  0  0  0  0  0  0  0  0  0  0
   -1.6550    1.8790   -1.4200 H   0  0  0  0  0  0  0  0  0  0  0  0
   -0.9230    3.1150   -0.3440 H   0  0  0  0  0  0  0  0  0  0  0  0
   -0.8930    1.6380    1.3050 H   0  0  0  0  0  0  0  0  0  0  0  0
   -1.1580   -1.4300    0.0050 N   0  0  0  0  0  0  0  0  0  0  0  0
   -2.1300   -2.4980   -0.1050 C   0  0  1  0  0  0  0  0  0  0  0  0
   -2.1380   -3.0070   -1.5350 C   0  0  0  0  0  0  0  0  0  0  0  0
   -2.5070   -1.9470   -2.4990 C   0  0  0  0  0  0  0  0  0  0  0  0
   -1.7510   -1.0490   -3.2030 C   0  0  0  0  0  0  0  0  0  0  0  0
   -2.5450   -0.2620   -3.9830 N   0  0  0  0  0  0  0  0  0  0  0  0
   -3.7940   -0.6750   -3.7610 C   0  0  0  0  0  0  0  0  0  0  0  0
   -3.7940   -1.6850   -2.8730 N   0  0  0  0  0  0  0  0  0  0  0  0
   -1.8730   -3.6140    0.8320 C   0  0  0  0  0  0  0  0  0  0  0  0
   -0.8850   -3.5380    1.5970 O   0  0  0  0  0  0  0  0  0  0  0  0
   -2.6920   -4.7080    0.8680 O   0  0  0  0  0  0  0  0  0  0  0  0
   -0.1640   -1.6520   -0.0670 H   0  0  0  0  0  0  0  0  0  0  0  0
   -3.1650   -2.1240    0.0940 H   0  0  0  0  0  0  0  0  0  0  0  0
   -2.8290   -3.8690   -1.6350 H   0  0  0  0  0  0  0  0  0  0  0  0
   -1.1120   -3.3710   -1.8310 H   0  0  0  0  0  0  0  0  0  0  0  0
   -0.6920   -0.9630   -3.1640 H   0  0  0  0  0  0  0  0  0  0  0  0
   -2.2410    0.5090   -4.6260 H   0  0  0  0  0  0  0  0  0  0  0  0
   -4.7050   -0.2640   -4.2240 H   0  0  0  0  0  0  0  0  0  0  0  0
  1 10  1  0  0  0  0
  2 12  1  0  0  0  0
  2  3  1  0  0  0  0
  2  1  1  0  0  0  0
  3 14  1  1  0  0  0
  4  3  1  0  0  0  0
  4 17  1  0  0  0  0
  5  6  1  0  0  0  0
  5 18  1  1  0  0  0
  5  3  1  0  0  0  0
  6 20  1  0  0  0  0
  6 19  1  0  0  0  0
  7  5  1  0  0  0  0
  8  7  2  0  0  0  0
  9  1  1  0  0  0  0
 11  1  1  0  0  0  0
 13  2  1  0  0  0  0
 15  4  1  0  0  0  0
 16  4  1  0  0  0  0
 21  7  1  0  0  0  0
 22 21  1  0  0  0  0
 23 31  1  0  0  0  0
 23 22  1  0  0  0  0
 23 24  1  0  0  0  0
 24 33  1  0  0  0  0
 24 25  1  0  0  0  0
 25 21  1  0  0  0  0
 25 34  1  1  0  0  0
 26 27  2  0  0  0  0
 26 25  1  0  0  0  0
 28 22  1  0  0  0  0
 29 22  1  0  0  0  0
 30 23  1  0  0  0  0
 32 24  1  0  0  0  0
 35 26  1  0  0  0  0
 36 35  1  0  0  0  0
 36 47  1  1  0  0  0
 36 43  1  0  0  0  0
 37 36  1  0  0  0  0
 38 37  1  0  0  0  0
 39 50  1  0  0  0  0
 39 38  2  0  0  0  0
 40 41  1  0  0  0  0
 40 39  1  0  0  0  0
 41 42  2  0  0  0  0
 42 38  1  0  0  0  0
 43 45  2  0  0  0  0
 43 44  1  0  0  0  0
 46 35  1  0  0  0  0
 48 37  1  0  0  0  0
 49 37  1  0  0  0  0
 51 40  1  0  0  0  0
 52 41  1  0  0  0  0
M  END
$$$$
