IPK.pdb
 OpenBabel07022418423D

 56 56  0  0  1  0  0  0  0  0999 V2000
    3.5620   -3.1600    3.7640 C   0  0  0  0  0  0  0  0  0  0  0  0
    4.1880   -1.9920    3.0770 C   0  0  0  0  0  0  0  0  0  0  0  0
    3.9460   -1.9470    1.6100 C   0  0  2  0  0  0  0  0  0  0  0  0
    4.6300   -0.7290    0.9740 C   0  0  0  0  0  0  0  0  0  0  0  0
    2.5000   -2.0020    1.1790 C   0  0  2  0  0  0  0  0  0  0  0  0
    2.5290   -1.9280   -0.2600 N   0  0  0  0  0  0  0  0  0  0  0  0
    1.6430   -1.0310    1.8500 C   0  0  0  0  0  0  0  0  0  0  0  0
    1.4520   -1.1860    3.0850 O   0  0  0  0  0  0  0  0  0  0  0  0
    3.0430   -2.8030    4.6930 H   0  0  0  0  0  0  0  0  0  0  0  0
    2.8070   -3.6170    3.1210 H   0  0  0  0  0  0  0  0  0  0  0  0
    4.3350   -3.9120    4.0720 H   0  0  0  0  0  0  0  0  0  0  0  0
    3.7730   -1.0600    3.5630 H   0  0  0  0  0  0  0  0  0  0  0  0
    5.2910   -1.9180    3.2880 H   0  0  0  0  0  0  0  0  0  0  0  0
    4.4440   -2.8240    1.1540 H   0  0  0  0  0  0  0  0  0  0  0  0
    5.7160   -0.7380    1.0870 H   0  0  0  0  0  0  0  0  0  0  0  0
    4.3840   -0.6520   -0.1020 H   0  0  0  0  0  0  0  0  0  0  0  0
    4.2440    0.1690    1.5070 H   0  0  0  0  0  0  0  0  0  0  0  0
    2.1360   -3.0220    1.4060 H   0  0  0  0  0  0  0  0  0  0  0  0
    3.2830   -2.5450   -0.5990 H   0  0  0  0  0  0  0  0  0  0  0  0
    1.6420   -2.1950   -0.7040 H   0  0  0  0  0  0  0  0  0  0  0  0
    0.9900    0.0850    1.2470 N   0  0  0  0  0  0  0  0  0  0  0  0
    1.0600    0.5410   -0.1130 C   0  0  0  0  0  0  0  0  0  0  0  0
    0.9830    2.0520    0.0160 C   0  0  0  0  0  0  0  0  0  0  0  0
    0.5610    2.3360    1.4510 C   0  0  0  0  0  0  0  0  0  0  0  0
    0.0680    1.0050    1.8690 C   0  0  1  0  0  0  0  0  0  0  0  0
   -1.3400    0.7140    1.6420 C   0  0  0  0  0  0  0  0  0  0  0  0
   -2.1840    1.5410    2.0850 O   0  0  0  0  0  0  0  0  0  0  0  0
    2.0590    0.2730   -0.5860 H   0  0  0  0  0  0  0  0  0  0  0  0
    0.2920    0.1420   -0.7920 H   0  0  0  0  0  0  0  0  0  0  0  0
    2.0190    2.4500   -0.1240 H   0  0  0  0  0  0  0  0  0  0  0  0
    0.3130    2.5130   -0.7120 H   0  0  0  0  0  0  0  0  0  0  0  0
   -0.1460    3.1650    1.5280 H   0  0  0  0  0  0  0  0  0  0  0  0
    1.4600    2.6250    2.0490 H   0  0  0  0  0  0  0  0  0  0  0  0
    0.2480    0.9140    2.9770 H   0  0  0  0  0  0  0  0  0  0  0  0
   -1.8720   -0.4180    0.9660 N   0  0  0  0  0  0  0  0  0  0  0  0
   -3.2720   -0.6250    0.7800 C   0  0  1  0  0  0  0  0  0  0  0  0
   -3.7290   -0.5890   -0.6600 C   0  0  0  0  0  0  0  0  0  0  0  0
   -3.0820   -1.6210   -1.5280 C   0  0  0  0  0  0  0  0  0  0  0  0
   -3.6400   -1.4950   -2.9220 C   0  0  0  0  0  0  0  0  0  0  0  0
   -3.4100   -0.1630   -3.5590 C   0  0  0  0  0  0  0  0  0  0  0  0
   -4.0130   -0.2300   -4.8970 N   0  0  0  0  0  0  0  0  0  0  0  0
   -3.7840   -1.8640    1.4330 C   0  0  0  0  0  0  0  0  0  0  0  0
   -3.0170   -2.6210    2.1010 O   0  0  0  0  0  0  0  0  0  0  0  0
   -5.1050   -2.2520    1.3500 O   0  0  0  0  0  0  0  0  0  0  0  0
   -1.1480   -1.1100    0.6070 H   0  0  0  0  0  0  0  0  0  0  0  0
   -3.8100    0.2250    1.2700 H   0  0  0  0  0  0  0  0  0  0  0  0
   -4.8200   -0.7880   -0.6460 H   0  0  0  0  0  0  0  0  0  0  0  0
   -3.6010    0.4440   -1.0480 H   0  0  0  0  0  0  0  0  0  0  0  0
   -3.2690   -2.6570   -1.1780 H   0  0  0  0  0  0  0  0  0  0  0  0
   -1.9800   -1.5150   -1.5930 H   0  0  0  0  0  0  0  0  0  0  0  0
   -4.7200   -1.7520   -2.8890 H   0  0  0  0  0  0  0  0  0  0  0  0
   -3.0800   -2.2520   -3.5390 H   0  0  0  0  0  0  0  0  0  0  0  0
   -3.8210    0.6990   -3.0230 H   0  0  0  0  0  0  0  0  0  0  0  0
   -2.3350   -0.0050   -3.7340 H   0  0  0  0  0  0  0  0  0  0  0  0
   -4.9660   -0.6550   -4.7940 H   0  0  0  0  0  0  0  0  0  0  0  0
   -4.0390    0.6930   -5.3380 H   0  0  0  0  0  0  0  0  0  0  0  0
  1 11  1  0  0  0  0
  1  9  1  0  0  0  0
  2 13  1  0  0  0  0
  2 12  1  0  0  0  0
  2  1  1  0  0  0  0
  3 14  1  6  0  0  0
  3  2  1  0  0  0  0
  4 15  1  0  0  0  0
  4 17  1  0  0  0  0
  4  3  1  0  0  0  0
  5 18  1  1  0  0  0
  5  3  1  0  0  0  0
  5  7  1  0  0  0  0
  6  5  1  0  0  0  0
  7  8  2  0  0  0  0
 10  1  1  0  0  0  0
 16  4  1  0  0  0  0
 19  6  1  0  0  0  0
 20  6  1  0  0  0  0
 21  7  1  0  0  0  0
 21 25  1  0  0  0  0
 22 23  1  0  0  0  0
 22 21  1  0  0  0  0
 23 24  1  0  0  0  0
 24 32  1  0  0  0  0
 24 25  1  0  0  0  0
 24 33  1  0  0  0  0
 25 34  1  1  0  0  0
 26 25  1  0  0  0  0
 26 27  2  0  0  0  0
 28 22  1  0  0  0  0
 29 22  1  0  0  0  0
 30 23  1  0  0  0  0
 31 23  1  0  0  0  0
 35 26  1  0  0  0  0
 36 35  1  0  0  0  0
 36 46  1  1  0  0  0
 36 42  1  0  0  0  0
 37 47  1  0  0  0  0
 37 36  1  0  0  0  0
 38 49  1  0  0  0  0
 38 37  1  0  0  0  0
 39 51  1  0  0  0  0
 39 38  1  0  0  0  0
 40 53  1  0  0  0  0
 40 39  1  0  0  0  0
 41 55  1  0  0  0  0
 41 40  1  0  0  0  0
 42 43  1  0  0  0  0
 44 42  2  0  0  0  0
 45 35  1  0  0  0  0
 48 37  1  0  0  0  0
 50 38  1  0  0  0  0
 52 39  1  0  0  0  0
 54 40  1  0  0  0  0
 56 41  1  0  0  0  0
M  END
$$$$
