IPQ.pdb
 OpenBabel07022418423D

 52 52  0  0  1  0  0  0  0  0999 V2000
    3.0240   -2.1900    0.8080 C   0  0  0  0  0  0  0  0  0  0  0  0
    1.5980   -2.5630    0.4980 C   0  0  0  0  0  0  0  0  0  0  0  0
    0.8930   -3.1360    1.6870 C   0  0  2  0  0  0  0  0  0  0  0  0
   -0.5330   -3.5650    1.2950 C   0  0  0  0  0  0  0  0  0  0  0  0
    0.7960   -2.2200    2.8940 C   0  0  2  0  0  0  0  0  0  0  0  0
    0.1060   -3.1060    3.8840 N   0  0  0  0  0  0  0  0  0  0  0  0
    0.0140   -1.0120    2.7230 C   0  0  0  0  0  0  0  0  0  0  0  0
   -1.2330   -1.0800    3.0670 O   0  0  0  0  0  0  0  0  0  0  0  0
    3.7210   -2.9540    0.3820 H   0  0  0  0  0  0  0  0  0  0  0  0
    3.3200   -1.2300    0.3100 H   0  0  0  0  0  0  0  0  0  0  0  0
    3.2170   -2.1510    1.8890 H   0  0  0  0  0  0  0  0  0  0  0  0
    1.1090   -1.6380    0.1170 H   0  0  0  0  0  0  0  0  0  0  0  0
    1.6260   -3.3580   -0.2870 H   0  0  0  0  0  0  0  0  0  0  0  0
    1.4140   -4.0460    2.0050 H   0  0  0  0  0  0  0  0  0  0  0  0
   -0.4880   -3.7810    0.2070 H   0  0  0  0  0  0  0  0  0  0  0  0
   -0.7810   -4.5410    1.7920 H   0  0  0  0  0  0  0  0  0  0  0  0
   -1.2950   -2.8540    1.5980 H   0  0  0  0  0  0  0  0  0  0  0  0
    1.7880   -2.0300    3.2710 H   0  0  0  0  0  0  0  0  0  0  0  0
    0.8360   -3.8170    4.1760 H   0  0  0  0  0  0  0  0  0  0  0  0
   -0.0200   -2.4970    4.7310 H   0  0  0  0  0  0  0  0  0  0  0  0
    0.3760    0.2690    2.2380 N   0  0  0  0  0  0  0  0  0  0  0  0
    1.6940    0.6390    1.8070 C   0  0  0  0  0  0  0  0  0  0  0  0
    1.7860    2.1050    2.2760 C   0  0  0  0  0  0  0  0  0  0  0  0
    0.3880    2.6190    2.0460 C   0  0  0  0  0  0  0  0  0  0  0  0
   -0.4700    1.4230    2.1010 C   0  0  1  0  0  0  0  0  0  0  0  0
   -1.4890    1.3440    1.0480 C   0  0  0  0  0  0  0  0  0  0  0  0
   -2.3050    2.3000    0.9690 O   0  0  0  0  0  0  0  0  0  0  0  0
    2.4360    0.0850    2.4270 H   0  0  0  0  0  0  0  0  0  0  0  0
    1.8810    0.6230    0.7410 H   0  0  0  0  0  0  0  0  0  0  0  0
    2.5610    2.6560    1.7080 H   0  0  0  0  0  0  0  0  0  0  0  0
    2.0550    2.1000    3.3610 H   0  0  0  0  0  0  0  0  0  0  0  0
    0.1420    3.3910    2.8310 H   0  0  0  0  0  0  0  0  0  0  0  0
    0.4140    3.1180    1.0480 H   0  0  0  0  0  0  0  0  0  0  0  0
   -1.0080    1.5020    3.1300 H   0  0  0  0  0  0  0  0  0  0  0  0
    1.0940   -1.0420   -2.5970 N   0  0  0  0  0  0  0  0  0  0  0  0
    0.1170   -0.0520   -2.3170 C   0  0  0  0  0  0  0  0  0  0  0  0
    0.4190    0.8800   -1.5360 O   0  0  0  0  0  0  0  0  0  0  0  0
   -1.2280   -0.0830   -2.9150 C   0  0  0  0  0  0  0  0  0  0  0  0
   -2.2740    0.7090   -2.2330 C   0  0  0  0  0  0  0  0  0  0  0  0
   -2.6920    0.3060   -0.8740 C   0  0  2  0  0  0  0  0  0  0  0  0
   -1.6510    0.2960    0.1080 N   0  0  0  0  0  0  0  0  0  0  0  0
   -3.4490   -0.9820   -0.8930 C   0  0  0  0  0  0  0  0  0  0  0  0
   -3.2050   -1.9430   -0.1430 O   0  0  0  0  0  0  0  0  0  0  0  0
   -4.5050   -1.1540   -1.8000 O   0  0  0  0  0  0  0  0  0  0  0  0
    0.8740   -2.0690   -2.5780 H   0  0  0  0  0  0  0  0  0  0  0  0
    2.0780   -0.7930   -2.8360 H   0  0  0  0  0  0  0  0  0  0  0  0
   -1.5640   -1.1460   -3.0970 H   0  0  0  0  0  0  0  0  0  0  0  0
   -1.1100    0.3780   -3.9450 H   0  0  0  0  0  0  0  0  0  0  0  0
   -1.9460    1.7900   -2.2450 H   0  0  0  0  0  0  0  0  0  0  0  0
   -3.1860    0.7230   -2.9080 H   0  0  0  0  0  0  0  0  0  0  0  0
   -3.4950    1.0720   -0.5420 H   0  0  0  0  0  0  0  0  0  0  0  0
   -1.0030   -0.5310    0.1450 H   0  0  0  0  0  0  0  0  0  0  0  0
  1 11  1  0  0  0  0
  2  1  1  0  0  0  0
  2  3  1  0  0  0  0
  3 14  1  1  0  0  0
  3  5  1  0  0  0  0
  4 17  1  0  0  0  0
  4  3  1  0  0  0  0
  4 16  1  0  0  0  0
  5 18  1  1  0  0  0
  5  6  1  0  0  0  0
  6 19  1  0  0  0  0
  6 20  1  0  0  0  0
  7  5  1  0  0  0  0
  7  8  2  0  0  0  0
  9  1  1  0  0  0  0
 10  1  1  0  0  0  0
 12  2  1  0  0  0  0
 13  2  1  0  0  0  0
 15  4  1  0  0  0  0
 21  7  1  0  0  0  0
 22 21  1  0  0  0  0
 22 23  1  0  0  0  0
 22 28  1  0  0  0  0
 23 31  1  0  0  0  0
 24 25  1  0  0  0  0
 24 23  1  0  0  0  0
 24 32  1  0  0  0  0
 25 21  1  0  0  0  0
 25 34  1  1  0  0  0
 26 25  1  0  0  0  0
 27 26  2  0  0  0  0
 29 22  1  0  0  0  0
 30 23  1  0  0  0  0
 33 24  1  0  0  0  0
 35 45  1  0  0  0  0
 35 36  1  0  0  0  0
 36 37  2  0  0  0  0
 38 36  1  0  0  0  0
 38 39  1  0  0  0  0
 39 40  1  0  0  0  0
 40 51  1  1  0  0  0
 40 41  1  0  0  0  0
 41 52  1  0  0  0  0
 41 26  1  0  0  0  0
 42 40  1  0  0  0  0
 42 43  1  0  0  0  0
 44 42  2  0  0  0  0
 46 35  1  0  0  0  0
 47 38  1  0  0  0  0
 48 38  1  0  0  0  0
 49 39  1  0  0  0  0
 50 39  1  0  0  0  0
M  END
$$$$
