IPR.pdb
 OpenBabel07022418423D

 58 58  0  0  1  0  0  0  0  0999 V2000
    4.8340   -1.5220    1.3650 C   0  0  0  0  0  0  0  0  0  0  0  0
    3.6430   -2.3780    1.6280 C   0  0  0  0  0  0  0  0  0  0  0  0
    2.3130   -1.6310    1.4520 C   0  0  2  0  0  0  0  0  0  0  0  0
    2.2680   -1.1580    0.0500 C   0  0  0  0  0  0  0  0  0  0  0  0
    2.2610   -0.5230    2.5030 C   0  0  2  0  0  0  0  0  0  0  0  0
    2.3640   -1.3100    3.7680 N   0  0  0  0  0  0  0  0  0  0  0  0
    0.9930    0.2030    2.5340 C   0  0  0  0  0  0  0  0  0  0  0  0
    0.1060   -0.2460    3.3480 O   0  0  0  0  0  0  0  0  0  0  0  0
    5.3240   -1.8690    0.4190 H   0  0  0  0  0  0  0  0  0  0  0  0
    5.6080   -1.6180    2.1580 H   0  0  0  0  0  0  0  0  0  0  0  0
    4.6290   -0.4470    1.2510 H   0  0  0  0  0  0  0  0  0  0  0  0
    3.6250   -3.2420    0.9420 H   0  0  0  0  0  0  0  0  0  0  0  0
    3.7220   -2.7670    2.6750 H   0  0  0  0  0  0  0  0  0  0  0  0
    1.5220   -2.3410    1.6900 H   0  0  0  0  0  0  0  0  0  0  0  0
    3.1760   -0.5250   -0.1670 H   0  0  0  0  0  0  0  0  0  0  0  0
    2.3530   -2.0430   -0.6080 H   0  0  0  0  0  0  0  0  0  0  0  0
    1.3390   -0.6270   -0.2260 H   0  0  0  0  0  0  0  0  0  0  0  0
    3.1280    0.1340    2.4960 H   0  0  0  0  0  0  0  0  0  0  0  0
    2.4520   -0.5680    4.5200 H   0  0  0  0  0  0  0  0  0  0  0  0
    1.3760   -1.6840    3.8940 H   0  0  0  0  0  0  0  0  0  0  0  0
    0.6590    1.3520    1.7550 N   0  0  0  0  0  0  0  0  0  0  0  0
    1.3940    2.0890    0.7810 C   0  0  0  0  0  0  0  0  0  0  0  0
    0.3080    2.4650   -0.2390 C   0  0  0  0  0  0  0  0  0  0  0  0
   -0.7480    2.9830    0.7170 C   0  0  0  0  0  0  0  0  0  0  0  0
   -0.6200    2.0400    1.8890 C   0  0  1  0  0  0  0  0  0  0  0  0
   -1.7530    1.0990    1.8490 C   0  0  0  0  0  0  0  0  0  0  0  0
   -2.8820    1.3880    2.3570 O   0  0  0  0  0  0  0  0  0  0  0  0
    1.7200    3.0870    1.1870 H   0  0  0  0  0  0  0  0  0  0  0  0
    2.2650    1.6320    0.3390 H   0  0  0  0  0  0  0  0  0  0  0  0
    0.6560    3.2520   -0.9200 H   0  0  0  0  0  0  0  0  0  0  0  0
   -0.0170    1.6050   -0.8220 H   0  0  0  0  0  0  0  0  0  0  0  0
   -0.4330    4.0060    1.0050 H   0  0  0  0  0  0  0  0  0  0  0  0
   -1.7510    3.0370    0.2980 H   0  0  0  0  0  0  0  0  0  0  0  0
   -0.6520    2.6480    2.8170 H   0  0  0  0  0  0  0  0  0  0  0  0
   -0.6410   -2.0060   -4.4740 N   0  0  0  0  0  0  0  0  0  0  0  0
   -0.8240   -2.3750   -3.1000 C   0  0  0  0  0  0  0  0  0  0  0  0
    0.0800   -2.1010   -2.2110 N   0  0  0  0  0  0  0  0  0  0  0  0
   -1.9850   -3.0480   -2.6570 N   0  0  0  0  0  0  0  0  0  0  0  0
   -2.5100   -2.8430   -1.3240 C   0  0  0  0  0  0  0  0  0  0  0  0
   -3.0220   -1.4360   -1.2530 C   0  0  0  0  0  0  0  0  0  0  0  0
   -3.6590   -1.0350    0.0150 C   0  0  0  0  0  0  0  0  0  0  0  0
   -2.8690   -1.0720    1.2690 C   0  0  2  0  0  0  0  0  0  0  0  0
   -1.6990   -0.1960    1.2480 N   0  0  0  0  0  0  0  0  0  0  0  0
   -2.5110   -2.4190    1.7600 C   0  0  0  0  0  0  0  0  0  0  0  0
   -1.3320   -2.6890    2.1060 O   0  0  0  0  0  0  0  0  0  0  0  0
   -3.4420   -3.4420    1.8630 O   0  0  0  0  0  0  0  0  0  0  0  0
   -0.7600   -2.7440   -5.1870 H   0  0  0  0  0  0  0  0  0  0  0  0
   -0.3970   -1.0480   -4.7820 H   0  0  0  0  0  0  0  0  0  0  0  0
    0.9490   -1.5990   -2.5430 H   0  0  0  0  0  0  0  0  0  0  0  0
   -2.4630   -3.7080   -3.3270 H   0  0  0  0  0  0  0  0  0  0  0  0
   -3.3490   -3.5550   -1.1780 H   0  0  0  0  0  0  0  0  0  0  0  0
   -1.7330   -3.0640   -0.5640 H   0  0  0  0  0  0  0  0  0  0  0  0
   -3.8220   -1.3680   -2.0520 H   0  0  0  0  0  0  0  0  0  0  0  0
   -2.2640   -0.6900   -1.5850 H   0  0  0  0  0  0  0  0  0  0  0  0
   -3.9890    0.0420   -0.1140 H   0  0  0  0  0  0  0  0  0  0  0  0
   -4.5980   -1.6200    0.1890 H   0  0  0  0  0  0  0  0  0  0  0  0
   -3.6010   -0.6670    2.0610 H   0  0  0  0  0  0  0  0  0  0  0  0
   -0.8360   -0.5330    0.7900 H   0  0  0  0  0  0  0  0  0  0  0  0
  1  2  1  0  0  0  0
  1 10  1  0  0  0  0
  2 13  1  0  0  0  0
  3  2  1  0  0  0  0
  3 14  1  1  0  0  0
  3  5  1  0  0  0  0
  4  3  1  0  0  0  0
  5 18  1  6  0  0  0
  5  7  1  0  0  0  0
  5  6  1  0  0  0  0
  6 20  1  0  0  0  0
  6 19  1  0  0  0  0
  7  8  2  0  0  0  0
  9  1  1  0  0  0  0
 11  1  1  0  0  0  0
 12  2  1  0  0  0  0
 15  4  1  0  0  0  0
 16  4  1  0  0  0  0
 17  4  1  0  0  0  0
 21 25  1  0  0  0  0
 21  7  1  0  0  0  0
 22 28  1  0  0  0  0
 22 21  1  0  0  0  0
 23 24  1  0  0  0  0
 23 22  1  0  0  0  0
 24 32  1  0  0  0  0
 24 25  1  0  0  0  0
 25 34  1  1  0  0  0
 26 25  1  0  0  0  0
 26 27  2  0  0  0  0
 29 22  1  0  0  0  0
 30 23  1  0  0  0  0
 31 23  1  0  0  0  0
 33 24  1  0  0  0  0
 35 36  1  0  0  0  0
 36 38  1  0  0  0  0
 36 37  2  0  0  0  0
 38 39  1  0  0  0  0
 39 40  1  0  0  0  0
 39 51  1  0  0  0  0
 39 52  1  0  0  0  0
 40 41  1  0  0  0  0
 41 56  1  0  0  0  0
 41 42  1  0  0  0  0
 42 44  1  0  0  0  0
 42 57  1  1  0  0  0
 43 42  1  0  0  0  0
 43 26  1  0  0  0  0
 44 46  2  0  0  0  0
 44 45  1  0  0  0  0
 47 35  1  0  0  0  0
 48 35  1  0  0  0  0
 49 37  1  0  0  0  0
 50 38  1  0  0  0  0
 53 40  1  0  0  0  0
 54 40  1  0  0  0  0
 55 41  1  0  0  0  0
 58 43  1  0  0  0  0
M  END
$$$$
