IPV.pdb
 OpenBabel07022418423D

 51 51  0  0  1  0  0  0  0  0999 V2000
    1.0840   -5.3540    2.8910 C   0  0  0  0  0  0  0  0  0  0  0  0
    1.5360   -4.2370    2.0010 C   0  0  0  0  0  0  0  0  0  0  0  0
    1.2740   -4.5000    0.5470 C   0  0  2  0  0  0  0  0  0  0  0  0
    1.9600   -5.7220    0.0270 C   0  0  0  0  0  0  0  0  0  0  0  0
    1.7060   -3.2400   -0.2240 C   0  0  2  0  0  0  0  0  0  0  0  0
    3.0940   -3.0380    0.0320 N   0  0  0  0  0  0  0  0  0  0  0  0
    0.8140   -2.1570    0.2200 C   0  0  0  0  0  0  0  0  0  0  0  0
   -0.4080   -2.2630   -0.0230 O   0  0  0  0  0  0  0  0  0  0  0  0
    1.6300   -5.2190    3.8700 H   0  0  0  0  0  0  0  0  0  0  0  0
    0.0020   -5.2650    3.0760 H   0  0  0  0  0  0  0  0  0  0  0  0
    1.3680   -6.3490    2.5210 H   0  0  0  0  0  0  0  0  0  0  0  0
    2.6280   -4.0150    2.1810 H   0  0  0  0  0  0  0  0  0  0  0  0
    0.9830   -3.3200    2.2860 H   0  0  0  0  0  0  0  0  0  0  0  0
    0.1950   -4.5880    0.3920 H   0  0  0  0  0  0  0  0  0  0  0  0
    1.2320   -6.5480   -0.0200 H   0  0  0  0  0  0  0  0  0  0  0  0
    2.2880   -5.4980   -1.0180 H   0  0  0  0  0  0  0  0  0  0  0  0
    2.8480   -6.0100    0.6120 H   0  0  0  0  0  0  0  0  0  0  0  0
    1.5090   -3.5210   -1.2980 H   0  0  0  0  0  0  0  0  0  0  0  0
    3.6400   -2.7480   -0.8100 H   0  0  0  0  0  0  0  0  0  0  0  0
    3.5270   -3.9340    0.3450 H   0  0  0  0  0  0  0  0  0  0  0  0
    1.2820   -1.0140    0.9030 N   0  0  0  0  0  0  0  0  0  0  0  0
    2.6750   -0.8100    1.2590 C   0  0  0  0  0  0  0  0  0  0  0  0
    2.6920    0.4240    2.1440 C   0  0  0  0  0  0  0  0  0  0  0  0
    1.5200    1.1820    1.6230 C   0  0  0  0  0  0  0  0  0  0  0  0
    0.4910    0.1120    1.3470 C   0  0  1  0  0  0  0  0  0  0  0  0
   -0.3940    0.6580    0.2790 C   0  0  0  0  0  0  0  0  0  0  0  0
   -0.3370    0.1810   -0.8780 O   0  0  0  0  0  0  0  0  0  0  0  0
    3.3330   -0.7000    0.3940 H   0  0  0  0  0  0  0  0  0  0  0  0
    3.0160   -1.6640    1.9150 H   0  0  0  0  0  0  0  0  0  0  0  0
    2.5320    0.1620    3.2090 H   0  0  0  0  0  0  0  0  0  0  0  0
    3.6120    1.0140    2.0020 H   0  0  0  0  0  0  0  0  0  0  0  0
    1.7940    1.6230    0.6380 H   0  0  0  0  0  0  0  0  0  0  0  0
    1.1540    1.9450    2.3370 H   0  0  0  0  0  0  0  0  0  0  0  0
   -0.0960   -0.1390    2.2550 H   0  0  0  0  0  0  0  0  0  0  0  0
   -4.0360    2.7990    0.9700 C   0  0  0  0  0  0  0  0  0  0  0  0
   -3.6070    2.0340   -0.2590 C   0  0  0  0  0  0  0  0  0  0  0  0
   -4.3780    2.5830   -1.4350 C   0  0  0  0  0  0  0  0  0  0  0  0
   -2.1320    2.1870   -0.5550 C   0  0  2  0  0  0  0  0  0  0  0  0
   -1.3100    1.7090    0.5200 N   0  0  0  0  0  0  0  0  0  0  0  0
   -1.8360    3.6120   -0.8460 C   0  0  0  0  0  0  0  0  0  0  0  0
   -0.9590    4.2260   -0.1580 O   0  0  0  0  0  0  0  0  0  0  0  0
   -2.4620    4.3310   -1.8340 O   0  0  0  0  0  0  0  0  0  0  0  0
   -3.2380    2.8820    1.7270 H   0  0  0  0  0  0  0  0  0  0  0  0
   -4.4210    3.8020    0.6550 H   0  0  0  0  0  0  0  0  0  0  0  0
   -4.9420    2.2650    1.3770 H   0  0  0  0  0  0  0  0  0  0  0  0
   -3.8860    0.9600   -0.1280 H   0  0  0  0  0  0  0  0  0  0  0  0
   -5.3130    2.0080   -1.6210 H   0  0  0  0  0  0  0  0  0  0  0  0
   -4.6270    3.6750   -1.3060 H   0  0  0  0  0  0  0  0  0  0  0  0
   -3.8030    2.5160   -2.3820 H   0  0  0  0  0  0  0  0  0  0  0  0
   -1.8980    1.6120   -1.4680 H   0  0  0  0  0  0  0  0  0  0  0  0
   -1.3630    2.1150    1.4890 H   0  0  0  0  0  0  0  0  0  0  0  0
  1 10  1  0  0  0  0
  1  9  1  0  0  0  0
  2 12  1  0  0  0  0
  2 13  1  0  0  0  0
  2  1  1  0  0  0  0
  3 14  1  6  0  0  0
  3  2  1  0  0  0  0
  4  3  1  0  0  0  0
  4 17  1  0  0  0  0
  5 18  1  6  0  0  0
  5  6  1  0  0  0  0
  5  7  1  0  0  0  0
  5  3  1  0  0  0  0
  6 20  1  0  0  0  0
  7 21  1  0  0  0  0
  8  7  2  0  0  0  0
 11  1  1  0  0  0  0
 15  4  1  0  0  0  0
 16  4  1  0  0  0  0
 19  6  1  0  0  0  0
 21 22  1  0  0  0  0
 21 25  1  0  0  0  0
 22 29  1  0  0  0  0
 22 23  1  0  0  0  0
 23 30  1  0  0  0  0
 24 23  1  0  0  0  0
 24 33  1  0  0  0  0
 25 24  1  0  0  0  0
 25 34  1  1  0  0  0
 26 39  1  0  0  0  0
 26 25  1  0  0  0  0
 27 26  2  0  0  0  0
 28 22  1  0  0  0  0
 31 23  1  0  0  0  0
 32 24  1  0  0  0  0
 35 45  1  0  0  0  0
 35 43  1  0  0  0  0
 36 46  1  0  0  0  0
 36 35  1  0  0  0  0
 37 48  1  0  0  0  0
 37 36  1  0  0  0  0
 38 50  1  6  0  0  0
 38 36  1  0  0  0  0
 38 39  1  0  0  0  0
 39 51  1  0  0  0  0
 40 38  1  0  0  0  0
 40 41  1  0  0  0  0
 42 40  2  0  0  0  0
 44 35  1  0  0  0  0
 47 37  1  0  0  0  0
 49 37  1  0  0  0  0
M  END
$$$$
