IPW.pdb
 OpenBabel07022418423D

 59 61  0  0  1  0  0  0  0  0999 V2000
   -0.1790    1.1430    4.2090 C   0  0  0  0  0  0  0  0  0  0  0  0
    1.2450    1.5170    3.7690 C   0  0  0  0  0  0  0  0  0  0  0  0
    1.9960    0.3370    3.2820 C   0  0  2  0  0  0  0  0  0  0  0  0
    3.4150    0.8310    2.9020 C   0  0  0  0  0  0  0  0  0  0  0  0
    1.4230   -0.3330    2.0390 C   0  0  2  0  0  0  0  0  0  0  0  0
    2.3140   -1.5130    1.7800 N   0  0  0  0  0  0  0  0  0  0  0  0
    1.5170    0.4850    0.8260 C   0  0  0  0  0  0  0  0  0  0  0  0
    2.6190    0.2900    0.1520 O   0  0  0  0  0  0  0  0  0  0  0  0
   -0.0900    0.6090    5.1660 H   0  0  0  0  0  0  0  0  0  0  0  0
   -0.6990    0.5370    3.4670 H   0  0  0  0  0  0  0  0  0  0  0  0
   -0.7260    2.0880    4.3580 H   0  0  0  0  0  0  0  0  0  0  0  0
    1.7130    1.8900    4.7310 H   0  0  0  0  0  0  0  0  0  0  0  0
    1.2600    2.3790    3.1040 H   0  0  0  0  0  0  0  0  0  0  0  0
    2.1440   -0.3960    4.0870 H   0  0  0  0  0  0  0  0  0  0  0  0
    4.0810   -0.0110    2.7080 H   0  0  0  0  0  0  0  0  0  0  0  0
    3.8060    1.4090    3.7660 H   0  0  0  0  0  0  0  0  0  0  0  0
    3.3080    1.5300    2.0470 H   0  0  0  0  0  0  0  0  0  0  0  0
    0.4430   -0.7520    2.2370 H   0  0  0  0  0  0  0  0  0  0  0  0
    2.6760   -1.8330    2.7200 H   0  0  0  0  0  0  0  0  0  0  0  0
    3.1600   -1.1500    1.2870 H   0  0  0  0  0  0  0  0  0  0  0  0
    0.6060    1.4170    0.3090 N   0  0  0  0  0  0  0  0  0  0  0  0
    0.8870    2.1680   -0.9330 C   0  0  0  0  0  0  0  0  0  0  0  0
   -0.5200    2.4550   -1.4850 C   0  0  0  0  0  0  0  0  0  0  0  0
   -1.1710    2.9070   -0.1980 C   0  0  0  0  0  0  0  0  0  0  0  0
   -0.6610    1.8080    0.7680 C   0  0  1  0  0  0  0  0  0  0  0  0
   -1.7230    0.7800    0.7400 C   0  0  0  0  0  0  0  0  0  0  0  0
   -2.8590    1.1150    1.1580 O   0  0  0  0  0  0  0  0  0  0  0  0
    1.3120    3.1600   -0.6740 H   0  0  0  0  0  0  0  0  0  0  0  0
    1.5000    1.6000   -1.6250 H   0  0  0  0  0  0  0  0  0  0  0  0
   -0.9880    1.5270   -1.8120 H   0  0  0  0  0  0  0  0  0  0  0  0
   -0.4860    3.2520   -2.2270 H   0  0  0  0  0  0  0  0  0  0  0  0
   -0.6940    3.8400    0.1040 H   0  0  0  0  0  0  0  0  0  0  0  0
   -2.2610    2.9140   -0.2360 H   0  0  0  0  0  0  0  0  0  0  0  0
   -0.6950    2.3380    1.7520 H   0  0  0  0  0  0  0  0  0  0  0  0
   -1.4890   -0.5280    0.2680 N   0  0  0  0  0  0  0  0  0  0  0  0
   -2.5100   -1.5580    0.2260 C   0  0  1  0  0  0  0  0  0  0  0  0
   -2.7760   -1.9770   -1.2030 C   0  0  0  0  0  0  0  0  0  0  0  0
   -1.5620   -2.4810   -1.9080 C   0  0  0  0  0  0  0  0  0  0  0  0
   -0.7290   -1.7010   -2.7070 C   0  0  0  0  0  0  0  0  0  0  0  0
    0.2650   -2.4690   -3.1220 N   0  0  0  0  0  0  0  0  0  0  0  0
    0.1360   -3.7050   -2.6450 C   0  0  0  0  0  0  0  0  0  0  0  0
    0.8810   -4.8490   -2.7870 C   0  0  0  0  0  0  0  0  0  0  0  0
    0.5020   -6.0260   -2.1770 C   0  0  0  0  0  0  0  0  0  0  0  0
   -0.6270   -6.0820   -1.4160 C   0  0  0  0  0  0  0  0  0  0  0  0
   -1.3910   -4.9290   -1.2640 C   0  0  0  0  0  0  0  0  0  0  0  0
   -1.0290   -3.7300   -1.8670 C   0  0  0  0  0  0  0  0  0  0  0  0
   -2.3220   -2.6810    1.1090 C   0  0  0  0  0  0  0  0  0  0  0  0
   -1.3040   -2.9520    1.7890 O   0  0  0  0  0  0  0  0  0  0  0  0
   -3.3910   -3.5900    1.2450 O   0  0  0  0  0  0  0  0  0  0  0  0
   -0.5330   -0.7510   -0.0650 H   0  0  0  0  0  0  0  0  0  0  0  0
   -3.4680   -1.0410    0.5790 H   0  0  0  0  0  0  0  0  0  0  0  0
   -3.5980   -2.7400   -1.2510 H   0  0  0  0  0  0  0  0  0  0  0  0
   -3.1270   -1.0840   -1.7630 H   0  0  0  0  0  0  0  0  0  0  0  0
   -0.9250   -0.6550   -2.9090 H   0  0  0  0  0  0  0  0  0  0  0  0
    1.0590   -2.1430   -3.7510 H   0  0  0  0  0  0  0  0  0  0  0  0
    1.7900   -4.8280   -3.3920 H   0  0  0  0  0  0  0  0  0  0  0  0
    1.0900   -6.9150   -2.2940 H   0  0  0  0  0  0  0  0  0  0  0  0
   -0.9890   -6.9670   -0.9070 H   0  0  0  0  0  0  0  0  0  0  0  0
   -2.2990   -4.9350   -0.6870 H   0  0  0  0  0  0  0  0  0  0  0  0
  1 11  1  0  0  0  0
  1  9  1  0  0  0  0
  2  1  1  0  0  0  0
  2 12  1  0  0  0  0
  3  2  1  0  0  0  0
  3 14  1  1  0  0  0
  4  3  1  0  0  0  0
  4 16  1  0  0  0  0
  5 18  1  1  0  0  0
  5  3  1  0  0  0  0
  6  5  1  0  0  0  0
  6 19  1  0  0  0  0
  7  5  1  0  0  0  0
  8  7  2  0  0  0  0
 10  1  1  0  0  0  0
 13  2  1  0  0  0  0
 15  4  1  0  0  0  0
 17  4  1  0  0  0  0
 20  6  1  0  0  0  0
 21 25  1  0  0  0  0
 21  7  1  0  0  0  0
 22 28  1  0  0  0  0
 22 21  1  0  0  0  0
 23 22  1  0  0  0  0
 23 24  1  0  0  0  0
 24 32  1  0  0  0  0
 24 25  1  0  0  0  0
 25 34  1  1  0  0  0
 26 25  1  0  0  0  0
 26 27  2  0  0  0  0
 29 22  1  0  0  0  0
 30 23  1  0  0  0  0
 31 23  1  0  0  0  0
 33 24  1  0  0  0  0
 35 26  1  0  0  0  0
 36 35  1  0  0  0  0
 36 51  1  1  0  0  0
 36 47  1  0  0  0  0
 37 36  1  0  0  0  0
 38 46  1  0  0  0  0
 38 37  1  0  0  0  0
 39 38  2  0  0  0  0
 40 39  1  0  0  0  0
 40 41  1  0  0  0  0
 41 46  1  0  0  0  0
 42 41  2  0  0  0  0
 42 43  1  0  0  0  0
 43 44  2  0  0  0  0
 44 45  1  0  0  0  0
 44 58  1  0  0  0  0
 45 59  1  0  0  0  0
 46 45  2  0  0  0  0
 47 49  2  0  0  0  0
 47 48  1  0  0  0  0
 50 35  1  0  0  0  0
 52 37  1  0  0  0  0
 53 37  1  0  0  0  0
 54 39  1  0  0  0  0
 55 40  1  0  0  0  0
 56 42  1  0  0  0  0
 57 43  1  0  0  0  0
M  END
$$$$
