IQA.pdb
 OpenBabel07022418413D

 48 47  0  0  1  0  0  0  0  0999 V2000
   -1.3910   -5.3920    2.6610 C   0  0  0  0  0  0  0  0  0  0  0  0
   -0.0620   -4.6870    2.7760 C   0  0  0  0  0  0  0  0  0  0  0  0
   -0.2680   -3.2420    2.3570 C   0  0  2  0  0  0  0  0  0  0  0  0
   -0.7560   -3.2700    0.9400 C   0  0  0  0  0  0  0  0  0  0  0  0
    1.0350   -2.5320    2.5640 C   0  0  2  0  0  0  0  0  0  0  0  0
    1.3520   -2.6610    3.9960 N   0  0  0  0  0  0  0  0  0  0  0  0
    0.9660   -1.0590    2.3010 C   0  0  0  0  0  0  0  0  0  0  0  0
    1.0500   -0.2370    3.2530 O   0  0  0  0  0  0  0  0  0  0  0  0
   -1.5490   -6.1140    3.4990 H   0  0  0  0  0  0  0  0  0  0  0  0
   -2.2090   -4.6290    2.6360 H   0  0  0  0  0  0  0  0  0  0  0  0
   -1.4080   -6.0170    1.7430 H   0  0  0  0  0  0  0  0  0  0  0  0
    0.6370   -5.1570    2.0600 H   0  0  0  0  0  0  0  0  0  0  0  0
    0.3740   -4.7800    3.7910 H   0  0  0  0  0  0  0  0  0  0  0  0
   -1.0420   -2.7580    2.9840 H   0  0  0  0  0  0  0  0  0  0  0  0
   -1.4860   -2.4550    0.7280 H   0  0  0  0  0  0  0  0  0  0  0  0
    0.0280   -3.3730    0.1820 H   0  0  0  0  0  0  0  0  0  0  0  0
   -1.3800   -4.2080    0.8260 H   0  0  0  0  0  0  0  0  0  0  0  0
    1.8390   -3.0100    1.9700 H   0  0  0  0  0  0  0  0  0  0  0  0
    1.8900   -3.5010    4.2180 H   0  0  0  0  0  0  0  0  0  0  0  0
    0.4400   -2.6940    4.4940 H   0  0  0  0  0  0  0  0  0  0  0  0
    4.2060    4.1500   -0.9570 N   0  0  0  0  0  0  0  0  0  0  0  0
    3.6940    2.8720   -0.5980 C   0  0  0  0  0  0  0  0  0  0  0  0
    4.4340    1.8860   -0.7980 O   0  0  0  0  0  0  0  0  0  0  0  0
    2.3120    2.7420   -0.0040 C   0  0  0  0  0  0  0  0  0  0  0  0
    2.1020    1.2960    0.2480 C   0  0  0  0  0  0  0  0  0  0  0  0
    0.7610    0.9340    0.8670 C   0  0  2  0  0  0  0  0  0  0  0  0
    0.8100   -0.5060    1.0090 N   0  0  0  0  0  0  0  0  0  0  0  0
   -0.3860    1.3940    0.0610 C   0  0  0  0  0  0  0  0  0  0  0  0
   -0.5670    2.6430   -0.0720 O   0  0  0  0  0  0  0  0  0  0  0  0
    4.8630    4.3020   -1.7550 H   0  0  0  0  0  0  0  0  0  0  0  0
    3.9260    4.9940   -0.4110 H   0  0  0  0  0  0  0  0  0  0  0  0
    1.5680    3.1810   -0.7140 H   0  0  0  0  0  0  0  0  0  0  0  0
    2.3250    3.3240    0.9280 H   0  0  0  0  0  0  0  0  0  0  0  0
    2.8740    0.9550    0.9680 H   0  0  0  0  0  0  0  0  0  0  0  0
    2.2850    0.7350   -0.6890 H   0  0  0  0  0  0  0  0  0  0  0  0
    0.7690    1.4090    1.8670 H   0  0  0  0  0  0  0  0  0  0  0  0
    0.7310   -1.0990    0.1630 H   0  0  0  0  0  0  0  0  0  0  0  0
   -2.4220    0.5770   -2.7830 C   0  0  0  0  0  0  0  0  0  0  0  0
   -2.4280    1.0590   -1.3640 C   0  0  2  0  0  0  0  0  0  0  0  0
   -1.3220    0.5610   -0.5890 N   0  0  0  0  0  0  0  0  0  0  0  0
   -3.7350    0.6360   -0.7560 C   0  0  0  0  0  0  0  0  0  0  0  0
   -4.8210    0.9620   -1.2730 O   0  0  0  0  0  0  0  0  0  0  0  0
   -3.7490   -0.1300    0.3990 O   0  0  0  0  0  0  0  0  0  0  0  0
   -1.7090    1.1230   -3.4290 H   0  0  0  0  0  0  0  0  0  0  0  0
   -3.4410    0.8190   -3.2050 H   0  0  0  0  0  0  0  0  0  0  0  0
   -2.3240   -0.5220   -2.8580 H   0  0  0  0  0  0  0  0  0  0  0  0
   -2.4260    2.1680   -1.3730 H   0  0  0  0  0  0  0  0  0  0  0  0
   -1.2090   -0.4580   -0.5090 H   0  0  0  0  0  0  0  0  0  0  0  0
  1  2  1  0  0  0  0
  1  9  1  0  0  0  0
  2 13  1  0  0  0  0
  3  5  1  0  0  0  0
  3  2  1  0  0  0  0
  3 14  1  1  0  0  0
  4  3  1  0  0  0  0
  5 18  1  6  0  0  0
  5  6  1  0  0  0  0
  6 19  1  0  0  0  0
  6 20  1  0  0  0  0
  7  5  1  0  0  0  0
  7  8  2  0  0  0  0
 10  1  1  0  0  0  0
 11  1  1  0  0  0  0
 12  2  1  0  0  0  0
 15  4  1  0  0  0  0
 16  4  1  0  0  0  0
 17  4  1  0  0  0  0
 21 22  1  0  0  0  0
 21 31  1  0  0  0  0
 22 24  1  0  0  0  0
 23 22  2  0  0  0  0
 24 25  1  0  0  0  0
 24 33  1  0  0  0  0
 25 26  1  0  0  0  0
 25 34  1  0  0  0  0
 26 27  1  0  0  0  0
 26 36  1  1  0  0  0
 27  7  1  0  0  0  0
 28 26  1  0  0  0  0
 29 28  2  0  0  0  0
 30 21  1  0  0  0  0
 32 24  1  0  0  0  0
 35 25  1  0  0  0  0
 37 27  1  0  0  0  0
 38 39  1  0  0  0  0
 39 47  1  6  0  0  0
 39 41  1  0  0  0  0
 39 40  1  0  0  0  0
 40 48  1  0  0  0  0
 40 28  1  0  0  0  0
 41 43  1  0  0  0  0
 42 41  2  0  0  0  0
 44 38  1  0  0  0  0
 45 38  1  0  0  0  0
 46 38  1  0  0  0  0
M  END
$$$$
