IQC.pdb
 OpenBabel07022418413D

 49 48  0  0  1  0  0  0  0  0999 V2000
    2.1980   -5.1550    1.3720 C   0  0  0  0  0  0  0  0  0  0  0  0
    2.9580   -3.8830    1.5150 C   0  0  0  0  0  0  0  0  0  0  0  0
    2.0910   -2.7100    1.9150 C   0  0  2  0  0  0  0  0  0  0  0  0
    1.4340   -3.0040    3.2500 C   0  0  0  0  0  0  0  0  0  0  0  0
    0.9880   -2.4620    0.9130 C   0  0  2  0  0  0  0  0  0  0  0  0
    1.5170   -2.1750   -0.4080 N   0  0  0  0  0  0  0  0  0  0  0  0
    0.1980   -1.2930    1.4260 C   0  0  0  0  0  0  0  0  0  0  0  0
   -0.3640   -1.3130    2.5480 O   0  0  0  0  0  0  0  0  0  0  0  0
    1.2350   -5.1690    1.9290 H   0  0  0  0  0  0  0  0  0  0  0  0
    1.9770   -5.4320    0.3210 H   0  0  0  0  0  0  0  0  0  0  0  0
    2.8110   -5.9840    1.7830 H   0  0  0  0  0  0  0  0  0  0  0  0
    3.4780   -3.6360    0.5700 H   0  0  0  0  0  0  0  0  0  0  0  0
    3.7200   -3.9960    2.3110 H   0  0  0  0  0  0  0  0  0  0  0  0
    2.7600   -1.8360    2.0500 H   0  0  0  0  0  0  0  0  0  0  0  0
    0.4150   -3.4270    3.1500 H   0  0  0  0  0  0  0  0  0  0  0  0
    1.3560   -2.1160    3.9020 H   0  0  0  0  0  0  0  0  0  0  0  0
    2.0210   -3.7920    3.7970 H   0  0  0  0  0  0  0  0  0  0  0  0
    0.3890   -3.3780    0.8350 H   0  0  0  0  0  0  0  0  0  0  0  0
    2.5430   -2.1000   -0.4330 H   0  0  0  0  0  0  0  0  0  0  0  0
    1.2350   -2.9000   -1.1060 H   0  0  0  0  0  0  0  0  0  0  0  0
    3.3390    3.3120    2.9480 N   0  0  0  0  0  0  0  0  0  0  0  0
    2.1830    3.2650    2.1410 C   0  0  0  0  0  0  0  0  0  0  0  0
    1.9110    4.2980    1.4600 O   0  0  0  0  0  0  0  0  0  0  0  0
    1.3110    2.0500    2.0850 C   0  0  0  0  0  0  0  0  0  0  0  0
    0.1430    2.2970    1.1350 C   0  0  0  0  0  0  0  0  0  0  0  0
   -0.7030    1.0490    1.1140 C   0  0  2  0  0  0  0  0  0  0  0  0
    0.0510   -0.1040    0.6570 N   0  0  0  0  0  0  0  0  0  0  0  0
   -1.8570    1.2580    0.1840 C   0  0  0  0  0  0  0  0  0  0  0  0
   -2.6750    2.1980    0.3540 O   0  0  0  0  0  0  0  0  0  0  0  0
    3.3140    2.8290    3.8720 H   0  0  0  0  0  0  0  0  0  0  0  0
    4.2240    3.7970    2.6910 H   0  0  0  0  0  0  0  0  0  0  0  0
    1.9220    1.1910    1.7400 H   0  0  0  0  0  0  0  0  0  0  0  0
    0.9600    1.8280    3.0970 H   0  0  0  0  0  0  0  0  0  0  0  0
   -0.4730    3.1120    1.5580 H   0  0  0  0  0  0  0  0  0  0  0  0
    0.5060    2.5610    0.1330 H   0  0  0  0  0  0  0  0  0  0  0  0
   -1.1220    0.8610    2.1050 H   0  0  0  0  0  0  0  0  0  0  0  0
    0.5170   -0.0860   -0.2730 H   0  0  0  0  0  0  0  0  0  0  0  0
   -2.0690    0.3970   -0.9300 N   0  0  0  0  0  0  0  0  0  0  0  0
   -3.1550    0.5570   -1.8440 C   0  0  1  0  0  0  0  0  0  0  0  0
   -2.6790    0.8040   -3.2610 C   0  0  0  0  0  0  0  0  0  0  0  0
   -4.1650    0.9860   -4.2950 S   0  0  0  0  0  0  0  0  0  0  0  0
   -4.0420   -0.6260   -1.7630 C   0  0  0  0  0  0  0  0  0  0  0  0
   -5.0770   -0.7190   -2.4800 O   0  0  0  0  0  0  0  0  0  0  0  0
   -3.7160   -1.6380   -0.8820 O   0  0  0  0  0  0  0  0  0  0  0  0
   -1.4060   -0.4130   -1.1180 H   0  0  0  0  0  0  0  0  0  0  0  0
   -3.7750    1.4410   -1.5340 H   0  0  0  0  0  0  0  0  0  0  0  0
   -2.0780    1.7330   -3.2680 H   0  0  0  0  0  0  0  0  0  0  0  0
   -2.0250   -0.0200   -3.6080 H   0  0  0  0  0  0  0  0  0  0  0  0
   -5.2630    1.4480   -3.5270 H   0  0  0  0  0  0  0  0  0  0  0  0
  1  2  1  0  0  0  0
  1 11  1  0  0  0  0
  1  9  1  0  0  0  0
  2  3  1  0  0  0  0
  2 13  1  0  0  0  0
  3 14  1  1  0  0  0
  3  4  1  0  0  0  0
  4 17  1  0  0  0  0
  4 16  1  0  0  0  0
  5 18  1  6  0  0  0
  5  7  1  0  0  0  0
  5  3  1  0  0  0  0
  6  5  1  0  0  0  0
  7  8  2  0  0  0  0
 10  1  1  0  0  0  0
 12  2  1  0  0  0  0
 15  4  1  0  0  0  0
 19  6  1  0  0  0  0
 20  6  1  0  0  0  0
 21 30  1  0  0  0  0
 22 21  1  0  0  0  0
 23 22  2  0  0  0  0
 24 22  1  0  0  0  0
 24 33  1  0  0  0  0
 25 34  1  0  0  0  0
 25 24  1  0  0  0  0
 26 25  1  0  0  0  0
 26 36  1  1  0  0  0
 27 26  1  0  0  0  0
 27  7  1  0  0  0  0
 28 29  2  0  0  0  0
 28 26  1  0  0  0  0
 31 21  1  0  0  0  0
 32 24  1  0  0  0  0
 35 25  1  0  0  0  0
 37 27  1  0  0  0  0
 38 28  1  0  0  0  0
 39 42  1  0  0  0  0
 39 46  1  1  0  0  0
 39 38  1  0  0  0  0
 40 39  1  0  0  0  0
 41 49  1  0  0  0  0
 41 40  1  0  0  0  0
 42 44  1  0  0  0  0
 43 42  2  0  0  0  0
 45 38  1  0  0  0  0
 47 40  1  0  0  0  0
 48 40  1  0  0  0  0
M  END
$$$$
