IQF.pdb
 OpenBabel07022418413D

 58 58  0  0  1  0  0  0  0  0999 V2000
    1.4120    1.8060   -2.5360 C   0  0  0  0  0  0  0  0  0  0  0  0
    1.6280    0.6210   -3.4130 C   0  0  0  0  0  0  0  0  0  0  0  0
    2.4880   -0.4680   -2.8340 C   0  0  2  0  0  0  0  0  0  0  0  0
    2.5840   -1.5690   -3.8970 C   0  0  0  0  0  0  0  0  0  0  0  0
    1.9440   -1.0720   -1.5660 C   0  0  2  0  0  0  0  0  0  0  0  0
    0.6420   -1.6210   -1.8650 N   0  0  0  0  0  0  0  0  0  0  0  0
    1.9650   -0.1710   -0.3980 C   0  0  0  0  0  0  0  0  0  0  0  0
    3.0600    0.3350   -0.0650 O   0  0  0  0  0  0  0  0  0  0  0  0
    0.4920    1.7230   -1.8880 H   0  0  0  0  0  0  0  0  0  0  0  0
    1.1630    2.7050   -3.1840 H   0  0  0  0  0  0  0  0  0  0  0  0
    2.2930    2.1170   -1.9690 H   0  0  0  0  0  0  0  0  0  0  0  0
    2.0390    0.9760   -4.4020 H   0  0  0  0  0  0  0  0  0  0  0  0
    0.6650    0.1370   -3.6910 H   0  0  0  0  0  0  0  0  0  0  0  0
    3.4910   -0.0310   -2.6330 H   0  0  0  0  0  0  0  0  0  0  0  0
    2.0180   -2.4670   -3.5630 H   0  0  0  0  0  0  0  0  0  0  0  0
    3.6380   -1.8930   -4.0230 H   0  0  0  0  0  0  0  0  0  0  0  0
    2.1330   -1.2420   -4.8530 H   0  0  0  0  0  0  0  0  0  0  0  0
    2.5780   -1.9610   -1.2970 H   0  0  0  0  0  0  0  0  0  0  0  0
   -0.1250   -0.9270   -1.8150 H   0  0  0  0  0  0  0  0  0  0  0  0
    0.4470   -2.5000   -1.3380 H   0  0  0  0  0  0  0  0  0  0  0  0
   -3.5880    3.3110    0.8180 N   0  0  0  0  0  0  0  0  0  0  0  0
   -2.1890    3.2530    1.0370 C   0  0  0  0  0  0  0  0  0  0  0  0
   -1.5670    4.3390    1.1340 O   0  0  0  0  0  0  0  0  0  0  0  0
   -1.4540    1.9720    1.1530 C   0  0  0  0  0  0  0  0  0  0  0  0
   -0.0070    2.2610    1.3820 C   0  0  0  0  0  0  0  0  0  0  0  0
    0.8440    1.0380    1.5160 C   0  0  2  0  0  0  0  0  0  0  0  0
    0.8440    0.1720    0.3850 N   0  0  0  0  0  0  0  0  0  0  0  0
    0.5260    0.3120    2.7870 C   0  0  0  0  0  0  0  0  0  0  0  0
    0.4870    0.9260    3.8850 O   0  0  0  0  0  0  0  0  0  0  0  0
   -3.9240    3.7080   -0.0820 H   0  0  0  0  0  0  0  0  0  0  0  0
   -4.2490    2.9600    1.5490 H   0  0  0  0  0  0  0  0  0  0  0  0
   -1.6480    1.2910    0.3030 H   0  0  0  0  0  0  0  0  0  0  0  0
   -1.9000    1.4510    2.0470 H   0  0  0  0  0  0  0  0  0  0  0  0
    0.4290    2.9720    0.6750 H   0  0  0  0  0  0  0  0  0  0  0  0
    0.0400    2.7830    2.3870 H   0  0  0  0  0  0  0  0  0  0  0  0
    1.8980    1.3800    1.6440 H   0  0  0  0  0  0  0  0  0  0  0  0
   -0.0900   -0.2470    0.1160 H   0  0  0  0  0  0  0  0  0  0  0  0
    0.2690   -1.0830    2.7310 N   0  0  0  0  0  0  0  0  0  0  0  0
   -0.0480   -1.8690    3.9130 C   0  0  1  0  0  0  0  0  0  0  0  0
   -1.4980   -2.3530    3.7930 C   0  0  0  0  0  0  0  0  0  0  0  0
   -1.6930   -3.1840    2.5980 C   0  0  0  0  0  0  0  0  0  0  0  0
   -2.0590   -2.5950    1.3950 C   0  0  0  0  0  0  0  0  0  0  0  0
   -2.2530   -3.3270    0.2500 C   0  0  0  0  0  0  0  0  0  0  0  0
   -2.0830   -4.6850    0.2790 C   0  0  0  0  0  0  0  0  0  0  0  0
   -1.7170   -5.2700    1.4810 C   0  0  0  0  0  0  0  0  0  0  0  0
   -1.5200   -4.5460    2.6360 C   0  0  0  0  0  0  0  0  0  0  0  0
    0.8710   -3.0080    4.0880 C   0  0  0  0  0  0  0  0  0  0  0  0
    0.6840   -3.7540    5.0830 O   0  0  0  0  0  0  0  0  0  0  0  0
    1.9130   -3.3080    3.2400 O   0  0  0  0  0  0  0  0  0  0  0  0
    0.3170   -1.5330    1.7910 H   0  0  0  0  0  0  0  0  0  0  0  0
   -0.0340   -1.1770    4.7740 H   0  0  0  0  0  0  0  0  0  0  0  0
   -1.7860   -2.9260    4.6830 H   0  0  0  0  0  0  0  0  0  0  0  0
   -2.0980   -1.4020    3.6900 H   0  0  0  0  0  0  0  0  0  0  0  0
   -2.2100   -1.5140    1.3110 H   0  0  0  0  0  0  0  0  0  0  0  0
   -2.5360   -2.8520   -0.6690 H   0  0  0  0  0  0  0  0  0  0  0  0
   -2.2290   -5.3040   -0.6180 H   0  0  0  0  0  0  0  0  0  0  0  0
   -1.5930   -6.3510    1.4560 H   0  0  0  0  0  0  0  0  0  0  0  0
   -1.2310   -5.0770    3.5500 H   0  0  0  0  0  0  0  0  0  0  0  0
  1 11  1  0  0  0  0
  1  9  1  0  0  0  0
  2  3  1  0  0  0  0
  2  1  1  0  0  0  0
  3 14  1  1  0  0  0
  3  5  1  0  0  0  0
  4 15  1  0  0  0  0
  4  3  1  0  0  0  0
  5 18  1  1  0  0  0
  5  7  1  0  0  0  0
  6 19  1  0  0  0  0
  6  5  1  0  0  0  0
  6 20  1  0  0  0  0
  7  8  2  0  0  0  0
  7 27  1  0  0  0  0
 10  1  1  0  0  0  0
 12  2  1  0  0  0  0
 13  2  1  0  0  0  0
 16  4  1  0  0  0  0
 17  4  1  0  0  0  0
 21 22  1  0  0  0  0
 21 31  1  0  0  0  0
 22 23  2  0  0  0  0
 22 24  1  0  0  0  0
 24 25  1  0  0  0  0
 24 33  1  0  0  0  0
 25 26  1  0  0  0  0
 25 35  1  0  0  0  0
 26 36  1  1  0  0  0
 26 28  1  0  0  0  0
 27 26  1  0  0  0  0
 28 29  2  0  0  0  0
 30 21  1  0  0  0  0
 32 24  1  0  0  0  0
 34 25  1  0  0  0  0
 37 27  1  0  0  0  0
 38 28  1  0  0  0  0
 38 39  1  0  0  0  0
 39 47  1  0  0  0  0
 39 51  1  1  0  0  0
 40 39  1  0  0  0  0
 40 52  1  0  0  0  0
 41 46  1  0  0  0  0
 41 40  1  0  0  0  0
 42 41  2  0  0  0  0
 43 44  2  0  0  0  0
 43 42  1  0  0  0  0
 44 45  1  0  0  0  0
 45 46  2  0  0  0  0
 46 58  1  0  0  0  0
 47 48  1  0  0  0  0
 49 47  2  0  0  0  0
 50 38  1  0  0  0  0
 53 40  1  0  0  0  0
 54 42  1  0  0  0  0
 55 43  1  0  0  0  0
 56 44  1  0  0  0  0
 57 45  1  0  0  0  0
M  END
$$$$
