IQH.pdb
 OpenBabel07022418413D

 55 55  0  0  1  0  0  0  0  0999 V2000
   -0.0510   -1.8870    3.1270 C   0  0  0  0  0  0  0  0  0  0  0  0
    1.1230   -1.3820    3.8690 C   0  0  0  0  0  0  0  0  0  0  0  0
    1.8650   -0.2330    3.3430 C   0  0  2  0  0  0  0  0  0  0  0  0
    3.0350    0.0800    4.3000 C   0  0  0  0  0  0  0  0  0  0  0  0
    1.1490    1.0380    3.1070 C   0  0  2  0  0  0  0  0  0  0  0  0
    0.5360    1.5980    4.2940 N   0  0  0  0  0  0  0  0  0  0  0  0
    0.2510    1.0460    1.9380 C   0  0  0  0  0  0  0  0  0  0  0  0
   -0.9460    1.4740    1.9990 O   0  0  0  0  0  0  0  0  0  0  0  0
   -0.7850   -2.4180    3.8080 H   0  0  0  0  0  0  0  0  0  0  0  0
    0.3090   -2.7310    2.4620 H   0  0  0  0  0  0  0  0  0  0  0  0
   -0.5520   -1.2000    2.4500 H   0  0  0  0  0  0  0  0  0  0  0  0
    0.7590   -1.1370    4.9140 H   0  0  0  0  0  0  0  0  0  0  0  0
    1.8150   -2.2550    4.0610 H   0  0  0  0  0  0  0  0  0  0  0  0
    2.3710   -0.5380    2.3980 H   0  0  0  0  0  0  0  0  0  0  0  0
    3.2080    1.1650    4.3720 H   0  0  0  0  0  0  0  0  0  0  0  0
    3.9470   -0.4450    4.0060 H   0  0  0  0  0  0  0  0  0  0  0  0
    2.7580   -0.3330    5.3150 H   0  0  0  0  0  0  0  0  0  0  0  0
    1.9540    1.7960    2.8430 H   0  0  0  0  0  0  0  0  0  0  0  0
    0.3310    2.6180    4.0680 H   0  0  0  0  0  0  0  0  0  0  0  0
    1.2860    1.6330    5.0270 H   0  0  0  0  0  0  0  0  0  0  0  0
    3.3750    0.0130   -3.3150 N   0  0  0  0  0  0  0  0  0  0  0  0
    2.0420    0.1640   -2.7590 C   0  0  0  0  0  0  0  0  0  0  0  0
    1.3410   -0.8530   -2.9300 O   0  0  0  0  0  0  0  0  0  0  0  0
    1.6370    1.3860   -2.0910 C   0  0  0  0  0  0  0  0  0  0  0  0
    0.2850    1.5110   -1.5270 C   0  0  0  0  0  0  0  0  0  0  0  0
   -0.1540    0.5630   -0.4700 C   0  0  2  0  0  0  0  0  0  0  0  0
    0.6960    0.5690    0.6850 N   0  0  0  0  0  0  0  0  0  0  0  0
   -0.5090   -0.7900   -0.8400 C   0  0  0  0  0  0  0  0  0  0  0  0
    0.0430   -1.7540   -0.2490 O   0  0  0  0  0  0  0  0  0  0  0  0
    3.7580    0.8540   -3.7880 H   0  0  0  0  0  0  0  0  0  0  0  0
    3.9250   -0.8450   -3.2640 H   0  0  0  0  0  0  0  0  0  0  0  0
    2.4420    1.7520   -1.3610 H   0  0  0  0  0  0  0  0  0  0  0  0
    1.7100    2.2080   -2.8840 H   0  0  0  0  0  0  0  0  0  0  0  0
    0.2400    2.5480   -1.0680 H   0  0  0  0  0  0  0  0  0  0  0  0
   -0.4390    1.5800   -2.3640 H   0  0  0  0  0  0  0  0  0  0  0  0
   -1.1540    1.0050   -0.0980 H   0  0  0  0  0  0  0  0  0  0  0  0
    1.7040    0.2140    0.6460 H   0  0  0  0  0  0  0  0  0  0  0  0
   -1.4660   -1.1350   -1.8460 N   0  0  0  0  0  0  0  0  0  0  0  0
   -1.8170   -2.4720   -2.2040 C   0  0  1  0  0  0  0  0  0  0  0  0
   -3.2570   -2.7870   -1.8200 C   0  0  0  0  0  0  0  0  0  0  0  0
   -3.3250   -2.6030   -0.3270 C   0  0  0  0  0  0  0  0  0  0  0  0
   -3.6290   -1.4560    0.3500 C   0  0  0  0  0  0  0  0  0  0  0  0
   -3.5690   -1.7610    1.6600 N   0  0  0  0  0  0  0  0  0  0  0  0
   -3.2400   -3.0530    1.8090 C   0  0  0  0  0  0  0  0  0  0  0  0
   -3.0920   -3.5590    0.5730 N   0  0  0  0  0  0  0  0  0  0  0  0
   -1.5890   -2.8140   -3.6120 C   0  0  0  0  0  0  0  0  0  0  0  0
   -1.1260   -1.9820   -4.4190 O   0  0  0  0  0  0  0  0  0  0  0  0
   -1.8900   -4.0820   -4.0610 O   0  0  0  0  0  0  0  0  0  0  0  0
   -1.9170   -0.3370   -2.3300 H   0  0  0  0  0  0  0  0  0  0  0  0
   -1.1960   -3.1570   -1.5750 H   0  0  0  0  0  0  0  0  0  0  0  0
   -3.4270   -3.8520   -2.0370 H   0  0  0  0  0  0  0  0  0  0  0  0
   -3.9710   -2.1000   -2.2880 H   0  0  0  0  0  0  0  0  0  0  0  0
   -3.8680   -0.5030   -0.1000 H   0  0  0  0  0  0  0  0  0  0  0  0
   -3.7480   -1.1080    2.4470 H   0  0  0  0  0  0  0  0  0  0  0  0
   -3.1210   -3.5680    2.7580 H   0  0  0  0  0  0  0  0  0  0  0  0
  1  9  1  0  0  0  0
  1  2  1  0  0  0  0
  2 13  1  0  0  0  0
  2 12  1  0  0  0  0
  3 14  1  6  0  0  0
  3  2  1  0  0  0  0
  3  4  1  0  0  0  0
  4 15  1  0  0  0  0
  4 17  1  0  0  0  0
  5 18  1  6  0  0  0
  5  3  1  0  0  0  0
  5  6  1  0  0  0  0
  6 20  1  0  0  0  0
  7  8  2  0  0  0  0
  7  5  1  0  0  0  0
 10  1  1  0  0  0  0
 11  1  1  0  0  0  0
 16  4  1  0  0  0  0
 19  6  1  0  0  0  0
 21 31  1  0  0  0  0
 21 22  1  0  0  0  0
 22 24  1  0  0  0  0
 23 22  2  0  0  0  0
 24 25  1  0  0  0  0
 24 32  1  0  0  0  0
 25 34  1  0  0  0  0
 25 26  1  0  0  0  0
 26 36  1  1  0  0  0
 26 27  1  0  0  0  0
 27  7  1  0  0  0  0
 28 26  1  0  0  0  0
 28 29  2  0  0  0  0
 30 21  1  0  0  0  0
 33 24  1  0  0  0  0
 35 25  1  0  0  0  0
 37 27  1  0  0  0  0
 38 28  1  0  0  0  0
 39 38  1  0  0  0  0
 39 40  1  0  0  0  0
 39 50  1  1  0  0  0
 40 41  1  0  0  0  0
 41 42  2  0  0  0  0
 41 45  1  0  0  0  0
 42 43  1  0  0  0  0
 43 44  1  0  0  0  0
 43 54  1  0  0  0  0
 44 55  1  0  0  0  0
 45 44  2  0  0  0  0
 46 39  1  0  0  0  0
 47 46  2  0  0  0  0
 48 46  1  0  0  0  0
 49 38  1  0  0  0  0
 51 40  1  0  0  0  0
 52 40  1  0  0  0  0
 53 42  1  0  0  0  0
M  END
$$$$
