IQI.pdb
 OpenBabel07022418413D

 57 56  0  0  1  0  0  0  0  0999 V2000
    2.3780   -4.5560    3.6550 C   0  0  0  0  0  0  0  0  0  0  0  0
    2.3950   -4.1280    2.2360 C   0  0  0  0  0  0  0  0  0  0  0  0
    1.4200   -3.0200    1.8750 C   0  0  2  0  0  0  0  0  0  0  0  0
    1.6130   -2.7710    0.4040 C   0  0  0  0  0  0  0  0  0  0  0  0
    1.6390   -1.8910    2.7740 C   0  0  2  0  0  0  0  0  0  0  0  0
    1.4110   -2.3500    4.1390 N   0  0  0  0  0  0  0  0  0  0  0  0
    0.9690   -0.6230    2.6000 C   0  0  0  0  0  0  0  0  0  0  0  0
    0.3400   -0.1720    3.6310 O   0  0  0  0  0  0  0  0  0  0  0  0
    2.8060   -5.6120    3.6840 H   0  0  0  0  0  0  0  0  0  0  0  0
    3.0640   -3.9990    4.3330 H   0  0  0  0  0  0  0  0  0  0  0  0
    1.3660   -4.6890    4.0960 H   0  0  0  0  0  0  0  0  0  0  0  0
    3.4550   -3.8020    2.0130 H   0  0  0  0  0  0  0  0  0  0  0  0
    2.2570   -5.0110    1.5430 H   0  0  0  0  0  0  0  0  0  0  0  0
    0.4020   -3.4380    2.0160 H   0  0  0  0  0  0  0  0  0  0  0  0
    0.7020   -2.3620   -0.0720 H   0  0  0  0  0  0  0  0  0  0  0  0
    2.5200   -2.2430    0.1260 H   0  0  0  0  0  0  0  0  0  0  0  0
    1.7260   -3.7810   -0.1070 H   0  0  0  0  0  0  0  0  0  0  0  0
    2.7510   -1.6610    2.7590 H   0  0  0  0  0  0  0  0  0  0  0  0
    0.3960   -2.4920    4.3260 H   0  0  0  0  0  0  0  0  0  0  0  0
    1.8960   -1.7740    4.8410 H   0  0  0  0  0  0  0  0  0  0  0  0
    2.2610    2.5530   -2.5350 N   0  0  0  0  0  0  0  0  0  0  0  0
    1.3370    2.6730   -1.4250 C   0  0  0  0  0  0  0  0  0  0  0  0
    0.1500    2.7410   -1.7430 O   0  0  0  0  0  0  0  0  0  0  0  0
    1.9220    2.7010   -0.0990 C   0  0  0  0  0  0  0  0  0  0  0  0
    1.0710    2.6080    1.0860 C   0  0  0  0  0  0  0  0  0  0  0  0
    0.2410    1.4270    1.3560 C   0  0  2  0  0  0  0  0  0  0  0  0
    0.9190    0.1860    1.4400 N   0  0  0  0  0  0  0  0  0  0  0  0
   -1.0100    1.3880    0.5890 C   0  0  0  0  0  0  0  0  0  0  0  0
   -1.7120    2.4570    0.5040 O   0  0  0  0  0  0  0  0  0  0  0  0
    2.9950    1.8100   -2.4280 H   0  0  0  0  0  0  0  0  0  0  0  0
    2.2020    3.1510   -3.3640 H   0  0  0  0  0  0  0  0  0  0  0  0
    2.5430    3.6700   -0.0610 H   0  0  0  0  0  0  0  0  0  0  0  0
    2.7520    1.9340   -0.1160 H   0  0  0  0  0  0  0  0  0  0  0  0
    1.7420    2.7640    1.9950 H   0  0  0  0  0  0  0  0  0  0  0  0
    0.4480    3.5630    1.1190 H   0  0  0  0  0  0  0  0  0  0  0  0
   -0.1750    1.5710    2.4540 H   0  0  0  0  0  0  0  0  0  0  0  0
    1.4300   -0.1970    0.6200 H   0  0  0  0  0  0  0  0  0  0  0  0
   -3.2580   -2.6660   -1.2940 C   0  0  0  0  0  0  0  0  0  0  0  0
   -2.3260   -1.8080   -2.0850 C   0  0  0  0  0  0  0  0  0  0  0  0
   -2.6990   -0.3750   -2.1140 C   0  0  2  0  0  0  0  0  0  0  0  0
   -1.6990    0.4100   -2.9630 C   0  0  0  0  0  0  0  0  0  0  0  0
   -2.7400    0.2780   -0.7840 C   0  0  2  0  0  0  0  0  0  0  0  0
   -1.5030    0.2370   -0.0630 N   0  0  0  0  0  0  0  0  0  0  0  0
   -3.8340   -0.1800    0.1180 C   0  0  0  0  0  0  0  0  0  0  0  0
   -5.0380   -0.2660   -0.2500 O   0  0  0  0  0  0  0  0  0  0  0  0
   -3.5520   -0.5280    1.4130 O   0  0  0  0  0  0  0  0  0  0  0  0
   -4.3240   -2.5030   -1.5780 H   0  0  0  0  0  0  0  0  0  0  0  0
   -3.1010   -3.7650   -1.5730 H   0  0  0  0  0  0  0  0  0  0  0  0
   -3.1070   -2.6280   -0.2000 H   0  0  0  0  0  0  0  0  0  0  0  0
   -2.2970   -2.2180   -3.1400 H   0  0  0  0  0  0  0  0  0  0  0  0
   -1.2570   -1.9620   -1.7430 H   0  0  0  0  0  0  0  0  0  0  0  0
   -3.6820   -0.2460   -2.6200 H   0  0  0  0  0  0  0  0  0  0  0  0
   -1.9360    1.4890   -2.9900 H   0  0  0  0  0  0  0  0  0  0  0  0
   -0.6720    0.2770   -2.5960 H   0  0  0  0  0  0  0  0  0  0  0  0
   -1.7700    0.0630   -4.0260 H   0  0  0  0  0  0  0  0  0  0  0  0
   -2.9780    1.3870   -0.9310 H   0  0  0  0  0  0  0  0  0  0  0  0
   -0.9150   -0.6310    0.0150 H   0  0  0  0  0  0  0  0  0  0  0  0
  1  9  1  0  0  0  0
  1 11  1  0  0  0  0
  1 10  1  0  0  0  0
  2  1  1  0  0  0  0
  3 14  1  1  0  0  0
  3  2  1  0  0  0  0
  3  5  1  0  0  0  0
  4  3  1  0  0  0  0
  5 18  1  6  0  0  0
  5  6  1  0  0  0  0
  6 19  1  0  0  0  0
  6 20  1  0  0  0  0
  7  5  1  0  0  0  0
  7  8  2  0  0  0  0
 12  2  1  0  0  0  0
 13  2  1  0  0  0  0
 15  4  1  0  0  0  0
 16  4  1  0  0  0  0
 17  4  1  0  0  0  0
 21 30  1  0  0  0  0
 21 22  1  0  0  0  0
 22 24  1  0  0  0  0
 23 22  2  0  0  0  0
 24 32  1  0  0  0  0
 24 25  1  0  0  0  0
 25 35  1  0  0  0  0
 25 26  1  0  0  0  0
 25 34  1  0  0  0  0
 26 27  1  0  0  0  0
 26 36  1  1  0  0  0
 27  7  1  0  0  0  0
 28 26  1  0  0  0  0
 29 28  2  0  0  0  0
 31 21  1  0  0  0  0
 33 24  1  0  0  0  0
 37 27  1  0  0  0  0
 38 49  1  0  0  0  0
 39 51  1  0  0  0  0
 39 38  1  0  0  0  0
 40 52  1  6  0  0  0
 40 39  1  0  0  0  0
 40 42  1  0  0  0  0
 41 54  1  0  0  0  0
 41 40  1  0  0  0  0
 42 56  1  6  0  0  0
 42 43  1  0  0  0  0
 42 44  1  0  0  0  0
 43 57  1  0  0  0  0
 43 28  1  0  0  0  0
 44 46  1  0  0  0  0
 45 44  2  0  0  0  0
 47 38  1  0  0  0  0
 48 38  1  0  0  0  0
 50 39  1  0  0  0  0
 53 41  1  0  0  0  0
 55 41  1  0  0  0  0
M  END
$$$$
