IQK.pdb
 OpenBabel07022418413D

 59 58  0  0  1  0  0  0  0  0999 V2000
    3.0200   -2.3400    4.3330 C   0  0  0  0  0  0  0  0  0  0  0  0
    1.5480   -2.5900    4.3060 C   0  0  0  0  0  0  0  0  0  0  0  0
    0.8530   -1.7130    3.2200 C   0  0  2  0  0  0  0  0  0  0  0  0
    1.4720   -2.0930    1.8880 C   0  0  0  0  0  0  0  0  0  0  0  0
    1.0170   -0.2780    3.5990 C   0  0  2  0  0  0  0  0  0  0  0  0
    0.4200   -0.1130    4.9790 N   0  0  0  0  0  0  0  0  0  0  0  0
    0.3370    0.7270    2.7710 C   0  0  0  0  0  0  0  0  0  0  0  0
   -0.5490    1.5070    3.3330 O   0  0  0  0  0  0  0  0  0  0  0  0
    3.5940   -3.3130    4.3280 H   0  0  0  0  0  0  0  0  0  0  0  0
    3.2590   -1.8540    5.3220 H   0  0  0  0  0  0  0  0  0  0  0  0
    3.3760   -1.6540    3.5600 H   0  0  0  0  0  0  0  0  0  0  0  0
    1.3120   -3.6510    4.0810 H   0  0  0  0  0  0  0  0  0  0  0  0
    1.0200   -2.3310    5.2420 H   0  0  0  0  0  0  0  0  0  0  0  0
   -0.1980   -2.0050    3.2110 H   0  0  0  0  0  0  0  0  0  0  0  0
    0.8030   -1.9400    1.0380 H   0  0  0  0  0  0  0  0  0  0  0  0
    2.3870   -1.4950    1.7410 H   0  0  0  0  0  0  0  0  0  0  0  0
    1.7360   -3.2020    1.9000 H   0  0  0  0  0  0  0  0  0  0  0  0
    2.0890   -0.0710    3.7560 H   0  0  0  0  0  0  0  0  0  0  0  0
   -0.5920   -0.3920    4.8020 H   0  0  0  0  0  0  0  0  0  0  0  0
    0.4080    0.9150    5.1450 H   0  0  0  0  0  0  0  0  0  0  0  0
    3.5150    2.7760   -2.7670 N   0  0  0  0  0  0  0  0  0  0  0  0
    2.5640    3.1290   -1.7950 C   0  0  0  0  0  0  0  0  0  0  0  0
    2.4160    4.3520   -1.4620 O   0  0  0  0  0  0  0  0  0  0  0  0
    1.6940    2.1410   -1.1100 C   0  0  0  0  0  0  0  0  0  0  0  0
    0.8350    2.8370   -0.1180 C   0  0  0  0  0  0  0  0  0  0  0  0
   -0.0880    1.9280    0.6410 C   0  0  2  0  0  0  0  0  0  0  0  0
    0.5790    0.9180    1.3930 N   0  0  0  0  0  0  0  0  0  0  0  0
   -1.1320    1.3810   -0.2240 C   0  0  0  0  0  0  0  0  0  0  0  0
   -1.7830    2.1620   -1.0030 O   0  0  0  0  0  0  0  0  0  0  0  0
    4.5210    2.8010   -2.5420 H   0  0  0  0  0  0  0  0  0  0  0  0
    3.2090    2.4900   -3.7090 H   0  0  0  0  0  0  0  0  0  0  0  0
    2.2670    1.2880   -0.6940 H   0  0  0  0  0  0  0  0  0  0  0  0
    1.0600    1.6830   -1.9250 H   0  0  0  0  0  0  0  0  0  0  0  0
    0.1790    3.5500   -0.6870 H   0  0  0  0  0  0  0  0  0  0  0  0
    1.4390    3.4740    0.5570 H   0  0  0  0  0  0  0  0  0  0  0  0
   -0.5990    2.6030    1.4130 H   0  0  0  0  0  0  0  0  0  0  0  0
    1.2600    0.3360    0.8860 H   0  0  0  0  0  0  0  0  0  0  0  0
   -1.4760    0.0200   -0.2510 N   0  0  0  0  0  0  0  0  0  0  0  0
   -2.5410   -0.4740   -1.1410 C   0  0  1  0  0  0  0  0  0  0  0  0
   -2.0680   -1.5320   -2.0880 C   0  0  0  0  0  0  0  0  0  0  0  0
   -1.5310   -2.7460   -1.4100 C   0  0  0  0  0  0  0  0  0  0  0  0
   -1.0590   -3.7850   -2.3890 C   0  0  0  0  0  0  0  0  0  0  0  0
   -2.1900   -4.2440   -3.2760 C   0  0  0  0  0  0  0  0  0  0  0  0
   -3.2570   -4.8140   -2.4770 N   0  0  0  0  0  0  0  0  0  0  0  0
   -3.6170   -1.0030   -0.2440 C   0  0  0  0  0  0  0  0  0  0  0  0
   -4.6380   -1.4830   -0.7980 O   0  0  0  0  0  0  0  0  0  0  0  0
   -3.5450   -0.9920    1.1210 O   0  0  0  0  0  0  0  0  0  0  0  0
   -1.0290   -0.6990    0.3310 H   0  0  0  0  0  0  0  0  0  0  0  0
   -2.9550    0.3850   -1.7020 H   0  0  0  0  0  0  0  0  0  0  0  0
   -1.2370   -1.0790   -2.6980 H   0  0  0  0  0  0  0  0  0  0  0  0
   -2.9000   -1.7680   -2.7650 H   0  0  0  0  0  0  0  0  0  0  0  0
   -0.6370   -2.4870   -0.7780 H   0  0  0  0  0  0  0  0  0  0  0  0
   -2.2610   -3.1920   -0.6860 H   0  0  0  0  0  0  0  0  0  0  0  0
   -0.2530   -3.3290   -3.0160 H   0  0  0  0  0  0  0  0  0  0  0  0
   -0.5720   -4.6380   -1.8750 H   0  0  0  0  0  0  0  0  0  0  0  0
   -2.6070   -3.4100   -3.8560 H   0  0  0  0  0  0  0  0  0  0  0  0
   -1.8410   -5.0370   -3.9900 H   0  0  0  0  0  0  0  0  0  0  0  0
   -2.9630   -5.6120   -1.9010 H   0  0  0  0  0  0  0  0  0  0  0  0
   -3.8150   -4.0950   -1.9870 H   0  0  0  0  0  0  0  0  0  0  0  0
  1 10  1  0  0  0  0
  2  1  1  0  0  0  0
  2 13  1  0  0  0  0
  3 14  1  6  0  0  0
  3  5  1  0  0  0  0
  3  2  1  0  0  0  0
  4 17  1  0  0  0  0
  4  3  1  0  0  0  0
  5 18  1  1  0  0  0
  5  6  1  0  0  0  0
  6 20  1  0  0  0  0
  7  8  2  0  0  0  0
  7  5  1  0  0  0  0
  9  1  1  0  0  0  0
 11  1  1  0  0  0  0
 12  2  1  0  0  0  0
 15  4  1  0  0  0  0
 16  4  1  0  0  0  0
 19  6  1  0  0  0  0
 21 30  1  0  0  0  0
 21 22  1  0  0  0  0
 22 23  2  0  0  0  0
 22 24  1  0  0  0  0
 24 32  1  0  0  0  0
 24 25  1  0  0  0  0
 25 35  1  0  0  0  0
 25 26  1  0  0  0  0
 26 27  1  0  0  0  0
 26 36  1  1  0  0  0
 27  7  1  0  0  0  0
 28 26  1  0  0  0  0
 29 28  2  0  0  0  0
 31 21  1  0  0  0  0
 33 24  1  0  0  0  0
 34 25  1  0  0  0  0
 37 27  1  0  0  0  0
 38 28  1  0  0  0  0
 38 48  1  0  0  0  0
 39 49  1  6  0  0  0
 39 38  1  0  0  0  0
 39 45  1  0  0  0  0
 40 41  1  0  0  0  0
 40 39  1  0  0  0  0
 41 52  1  0  0  0  0
 41 53  1  0  0  0  0
 42 55  1  0  0  0  0
 42 41  1  0  0  0  0
 43 44  1  0  0  0  0
 43 42  1  0  0  0  0
 44 59  1  0  0  0  0
 44 58  1  0  0  0  0
 45 47  1  0  0  0  0
 46 45  2  0  0  0  0
 50 40  1  0  0  0  0
 51 40  1  0  0  0  0
 54 42  1  0  0  0  0
 56 43  1  0  0  0  0
 57 43  1  0  0  0  0
M  END
$$$$
