IQL.pdb
 OpenBabel07022418413D

 57 56  0  0  1  0  0  0  0  0999 V2000
    3.9050   -3.6550    0.5760 C   0  0  0  0  0  0  0  0  0  0  0  0
    3.4180   -2.2440    0.9160 C   0  0  0  0  0  0  0  0  0  0  0  0
    3.6590   -1.9550    2.3570 C   0  0  2  0  0  0  0  0  0  0  0  0
    2.9390   -2.9020    3.2770 C   0  0  0  0  0  0  0  0  0  0  0  0
    3.4720   -0.5390    2.7870 C   0  0  2  0  0  0  0  0  0  0  0  0
    3.7640   -0.5080    4.2360 N   0  0  0  0  0  0  0  0  0  0  0  0
    2.1140    0.0040    2.6150 C   0  0  0  0  0  0  0  0  0  0  0  0
    1.4120    0.2080    3.6380 O   0  0  0  0  0  0  0  0  0  0  0  0
    4.0700   -3.6770   -0.5150 H   0  0  0  0  0  0  0  0  0  0  0  0
    4.8520   -3.8960    1.0720 H   0  0  0  0  0  0  0  0  0  0  0  0
    3.1070   -4.3890    0.8850 H   0  0  0  0  0  0  0  0  0  0  0  0
    3.9380   -1.5550    0.2300 H   0  0  0  0  0  0  0  0  0  0  0  0
    2.3300   -2.2340    0.7010 H   0  0  0  0  0  0  0  0  0  0  0  0
    4.7640   -2.1790    2.5290 H   0  0  0  0  0  0  0  0  0  0  0  0
    1.9020   -3.0750    2.9620 H   0  0  0  0  0  0  0  0  0  0  0  0
    3.4800   -3.8680    3.2910 H   0  0  0  0  0  0  0  0  0  0  0  0
    2.9740   -2.4830    4.3050 H   0  0  0  0  0  0  0  0  0  0  0  0
    4.1970    0.1440    2.2530 H   0  0  0  0  0  0  0  0  0  0  0  0
    4.4140    0.2670    4.3990 H   0  0  0  0  0  0  0  0  0  0  0  0
    2.8990   -0.3380    4.7800 H   0  0  0  0  0  0  0  0  0  0  0  0
    1.7630    3.8210   -2.6110 N   0  0  0  0  0  0  0  0  0  0  0  0
    1.1560    3.5660   -1.3590 C   0  0  0  0  0  0  0  0  0  0  0  0
    0.6880    4.5260   -0.7100 O   0  0  0  0  0  0  0  0  0  0  0  0
    1.0670    2.1960   -0.8120 C   0  0  0  0  0  0  0  0  0  0  0  0
    0.3780    2.2160    0.5210 C   0  0  0  0  0  0  0  0  0  0  0  0
    0.2570    0.8410    1.1290 C   0  0  2  0  0  0  0  0  0  0  0  0
    1.5890    0.3020    1.3080 N   0  0  0  0  0  0  0  0  0  0  0  0
   -0.5720   -0.0790    0.3430 C   0  0  0  0  0  0  0  0  0  0  0  0
   -0.0490   -1.1490   -0.0490 O   0  0  0  0  0  0  0  0  0  0  0  0
    1.2260    4.0640   -3.4710 H   0  0  0  0  0  0  0  0  0  0  0  0
    2.8120    3.7550   -2.6520 H   0  0  0  0  0  0  0  0  0  0  0  0
    2.1230    1.8240   -0.7340 H   0  0  0  0  0  0  0  0  0  0  0  0
    0.5520    1.5630   -1.5600 H   0  0  0  0  0  0  0  0  0  0  0  0
    1.0410    2.8020    1.2130 H   0  0  0  0  0  0  0  0  0  0  0  0
   -0.5580    2.7650    0.4490 H   0  0  0  0  0  0  0  0  0  0  0  0
   -0.1880    0.9110    2.1600 H   0  0  0  0  0  0  0  0  0  0  0  0
    2.2090    0.1190    0.4910 H   0  0  0  0  0  0  0  0  0  0  0  0
   -5.9460   -2.7110    0.1110 C   0  0  0  0  0  0  0  0  0  0  0  0
   -4.7870   -2.2550   -0.7770 C   0  0  0  0  0  0  0  0  0  0  0  0
   -4.0140   -3.4780   -1.2170 C   0  0  0  0  0  0  0  0  0  0  0  0
   -3.9010   -1.2900   -0.0340 C   0  0  0  0  0  0  0  0  0  0  0  0
   -2.7310   -0.7820   -0.7940 C   0  0  2  0  0  0  0  0  0  0  0  0
   -1.9170    0.1400   -0.0120 N   0  0  0  0  0  0  0  0  0  0  0  0
   -3.1070   -0.1860   -2.0930 C   0  0  0  0  0  0  0  0  0  0  0  0
   -2.7320    0.9950   -2.3170 O   0  0  0  0  0  0  0  0  0  0  0  0
   -3.8310   -0.7970   -3.0920 O   0  0  0  0  0  0  0  0  0  0  0  0
   -6.3170   -1.8900    0.7570 H   0  0  0  0  0  0  0  0  0  0  0  0
   -6.7870   -3.0440   -0.5320 H   0  0  0  0  0  0  0  0  0  0  0  0
   -5.5950   -3.5150    0.7880 H   0  0  0  0  0  0  0  0  0  0  0  0
   -5.2720   -1.8310   -1.6760 H   0  0  0  0  0  0  0  0  0  0  0  0
   -4.7250   -4.1410   -1.7590 H   0  0  0  0  0  0  0  0  0  0  0  0
   -3.6740   -3.9810   -0.2650 H   0  0  0  0  0  0  0  0  0  0  0  0
   -3.1830   -3.1600   -1.8470 H   0  0  0  0  0  0  0  0  0  0  0  0
   -3.5670   -1.8560    0.8870 H   0  0  0  0  0  0  0  0  0  0  0  0
   -4.5600   -0.4960    0.3690 H   0  0  0  0  0  0  0  0  0  0  0  0
   -2.0750   -1.6580   -1.0310 H   0  0  0  0  0  0  0  0  0  0  0  0
   -2.3480    1.0320    0.3170 H   0  0  0  0  0  0  0  0  0  0  0  0
  1 11  1  0  0  0  0
  1  2  1  0  0  0  0
  1 10  1  0  0  0  0
  2  3  1  0  0  0  0
  3 14  1  1  0  0  0
  3  5  1  0  0  0  0
  3  4  1  0  0  0  0
  4 16  1  0  0  0  0
  4 17  1  0  0  0  0
  5 18  1  6  0  0  0
  5  6  1  0  0  0  0
  6 19  1  0  0  0  0
  6 20  1  0  0  0  0
  7  5  1  0  0  0  0
  7  8  2  0  0  0  0
  9  1  1  0  0  0  0
 12  2  1  0  0  0  0
 13  2  1  0  0  0  0
 15  4  1  0  0  0  0
 21 22  1  0  0  0  0
 22 24  1  0  0  0  0
 22 23  2  0  0  0  0
 24 32  1  0  0  0  0
 24 25  1  0  0  0  0
 25 26  1  0  0  0  0
 25 34  1  0  0  0  0
 26 27  1  0  0  0  0
 26 36  1  1  0  0  0
 27  7  1  0  0  0  0
 28 26  1  0  0  0  0
 29 28  2  0  0  0  0
 30 21  1  0  0  0  0
 31 21  1  0  0  0  0
 33 24  1  0  0  0  0
 35 25  1  0  0  0  0
 37 27  1  0  0  0  0
 38 47  1  0  0  0  0
 38 49  1  0  0  0  0
 39 41  1  0  0  0  0
 39 38  1  0  0  0  0
 40 39  1  0  0  0  0
 40 52  1  0  0  0  0
 41 55  1  0  0  0  0
 41 54  1  0  0  0  0
 42 56  1  6  0  0  0
 42 41  1  0  0  0  0
 42 43  1  0  0  0  0
 43 57  1  0  0  0  0
 43 28  1  0  0  0  0
 44 42  1  0  0  0  0
 45 44  1  0  0  0  0
 46 44  2  0  0  0  0
 48 38  1  0  0  0  0
 50 39  1  0  0  0  0
 51 40  1  0  0  0  0
 53 40  1  0  0  0  0
M  END
$$$$
