IQN.pdb
 OpenBabel07022418413D

 52 51  0  0  1  0  0  0  0  0999 V2000
    2.5630   -4.3850   -1.0610 C   0  0  0  0  0  0  0  0  0  0  0  0
    2.3460   -3.0760   -0.3270 C   0  0  0  0  0  0  0  0  0  0  0  0
    2.8140   -3.1280    1.0850 C   0  0  2  0  0  0  0  0  0  0  0  0
    2.0970   -4.1850    1.8990 C   0  0  0  0  0  0  0  0  0  0  0  0
    2.9100   -1.8030    1.7770 C   0  0  2  0  0  0  0  0  0  0  0  0
    3.3870   -2.1060    3.1350 N   0  0  0  0  0  0  0  0  0  0  0  0
    1.6390   -1.0810    1.9330 C   0  0  0  0  0  0  0  0  0  0  0  0
    1.0800   -0.9990    3.0510 O   0  0  0  0  0  0  0  0  0  0  0  0
    3.6090   -4.3500   -1.4660 H   0  0  0  0  0  0  0  0  0  0  0  0
    2.5040   -5.2630   -0.4180 H   0  0  0  0  0  0  0  0  0  0  0  0
    1.8970   -4.4520   -1.9280 H   0  0  0  0  0  0  0  0  0  0  0  0
    2.8480   -2.2980   -0.9290 H   0  0  0  0  0  0  0  0  0  0  0  0
    1.2580   -2.8860   -0.3580 H   0  0  0  0  0  0  0  0  0  0  0  0
    3.8860   -3.5020    1.0360 H   0  0  0  0  0  0  0  0  0  0  0  0
    0.9990   -4.1220    1.7970 H   0  0  0  0  0  0  0  0  0  0  0  0
    2.4280   -4.0250    2.9650 H   0  0  0  0  0  0  0  0  0  0  0  0
    2.5000   -5.1800    1.6220 H   0  0  0  0  0  0  0  0  0  0  0  0
    3.6570   -1.1940    1.2300 H   0  0  0  0  0  0  0  0  0  0  0  0
    3.4060   -1.2430    3.7190 H   0  0  0  0  0  0  0  0  0  0  0  0
    4.3630   -2.5010    3.0280 H   0  0  0  0  0  0  0  0  0  0  0  0
    2.9740    2.6540    2.6880 N   0  0  0  0  0  0  0  0  0  0  0  0
    2.1350    2.2670    1.6010 C   0  0  0  0  0  0  0  0  0  0  0  0
    2.6760    1.6730    0.6390 O   0  0  0  0  0  0  0  0  0  0  0  0
    0.6990    2.5390    1.5720 C   0  0  0  0  0  0  0  0  0  0  0  0
   -0.1490    1.7380    0.6710 C   0  0  0  0  0  0  0  0  0  0  0  0
   -0.2330    0.2650    0.9260 C   0  0  2  0  0  0  0  0  0  0  0  0
    1.0070   -0.4570    0.8390 N   0  0  0  0  0  0  0  0  0  0  0  0
   -1.1900   -0.3120   -0.0490 C   0  0  0  0  0  0  0  0  0  0  0  0
   -0.8850   -1.2560   -0.8200 O   0  0  0  0  0  0  0  0  0  0  0  0
    2.6700    3.2720    3.4640 H   0  0  0  0  0  0  0  0  0  0  0  0
    3.9460    2.3020    2.7130 H   0  0  0  0  0  0  0  0  0  0  0  0
    0.3000    2.4850    2.6230 H   0  0  0  0  0  0  0  0  0  0  0  0
    0.5960    3.6280    1.2810 H   0  0  0  0  0  0  0  0  0  0  0  0
   -1.2100    2.1210    0.7840 H   0  0  0  0  0  0  0  0  0  0  0  0
    0.0770    1.9440   -0.4050 H   0  0  0  0  0  0  0  0  0  0  0  0
   -0.6850    0.0760    1.9480 H   0  0  0  0  0  0  0  0  0  0  0  0
    1.4690   -0.5400   -0.1030 H   0  0  0  0  0  0  0  0  0  0  0  0
   -5.3010    1.1400    0.4830 N   0  0  0  0  0  0  0  0  0  0  0  0
   -5.5030   -0.2240    0.2880 C   0  0  0  0  0  0  0  0  0  0  0  0
   -6.5030   -0.7570    0.8490 O   0  0  0  0  0  0  0  0  0  0  0  0
   -4.6390   -1.0670   -0.5170 C   0  0  0  0  0  0  0  0  0  0  0  0
   -3.4510   -0.4140   -1.1440 C   0  0  2  0  0  0  0  0  0  0  0  0
   -2.5280    0.1750   -0.1710 N   0  0  0  0  0  0  0  0  0  0  0  0
   -3.8660    0.6410   -2.0750 C   0  0  0  0  0  0  0  0  0  0  0  0
   -3.4200    1.8350   -1.9850 O   0  0  0  0  0  0  0  0  0  0  0  0
   -4.7590    0.3500   -3.0750 O   0  0  0  0  0  0  0  0  0  0  0  0
   -4.9190    1.5640    1.3770 H   0  0  0  0  0  0  0  0  0  0  0  0
   -5.5250    1.8380   -0.2570 H   0  0  0  0  0  0  0  0  0  0  0  0
   -5.2050   -1.6950   -1.2630 H   0  0  0  0  0  0  0  0  0  0  0  0
   -4.2180   -1.8530    0.1860 H   0  0  0  0  0  0  0  0  0  0  0  0
   -2.9060   -1.2290   -1.7110 H   0  0  0  0  0  0  0  0  0  0  0  0
   -2.8160    0.9540    0.4520 H   0  0  0  0  0  0  0  0  0  0  0  0
  1 10  1  0  0  0  0
  1  2  1  0  0  0  0
  2  3  1  0  0  0  0
  3 14  1  6  0  0  0
  3  5  1  0  0  0  0
  3  4  1  0  0  0  0
  4 16  1  0  0  0  0
  5 18  1  6  0  0  0
  5  7  1  0  0  0  0
  5  6  1  0  0  0  0
  6 19  1  0  0  0  0
  7  8  2  0  0  0  0
  9  1  1  0  0  0  0
 11  1  1  0  0  0  0
 12  2  1  0  0  0  0
 13  2  1  0  0  0  0
 15  4  1  0  0  0  0
 17  4  1  0  0  0  0
 20  6  1  0  0  0  0
 21 31  1  0  0  0  0
 21 30  1  0  0  0  0
 22 21  1  0  0  0  0
 23 22  2  0  0  0  0
 24 22  1  0  0  0  0
 24 32  1  0  0  0  0
 25 34  1  0  0  0  0
 25 26  1  0  0  0  0
 25 24  1  0  0  0  0
 26 36  1  1  0  0  0
 27 26  1  0  0  0  0
 27  7  1  0  0  0  0
 28 26  1  0  0  0  0
 29 28  2  0  0  0  0
 33 24  1  0  0  0  0
 35 25  1  0  0  0  0
 37 27  1  0  0  0  0
 38 47  1  0  0  0  0
 39 38  1  0  0  0  0
 39 40  2  0  0  0  0
 41 50  1  0  0  0  0
 41 39  1  0  0  0  0
 42 51  1  6  0  0  0
 42 41  1  0  0  0  0
 42 43  1  0  0  0  0
 43 28  1  0  0  0  0
 43 52  1  0  0  0  0
 44 45  1  0  0  0  0
 44 42  1  0  0  0  0
 46 44  2  0  0  0  0
 48 38  1  0  0  0  0
 49 41  1  0  0  0  0
M  END
$$$$
