IQQ.pdb
 OpenBabel07022418413D

 55 54  0  0  1  0  0  0  0  0999 V2000
    4.1240    0.2070    2.8210 C   0  0  0  0  0  0  0  0  0  0  0  0
    3.3920   -0.4400    3.9690 C   0  0  0  0  0  0  0  0  0  0  0  0
    2.3690   -1.4400    3.5840 C   0  0  2  0  0  0  0  0  0  0  0  0
    2.9340   -2.5820    2.7550 C   0  0  0  0  0  0  0  0  0  0  0  0
    1.0790   -0.9780    3.0340 C   0  0  2  0  0  0  0  0  0  0  0  0
    0.2360   -2.1640    2.7150 N   0  0  0  0  0  0  0  0  0  0  0  0
    1.0710   -0.0260    1.9440 C   0  0  0  0  0  0  0  0  0  0  0  0
    1.4880    1.1500    2.0020 O   0  0  0  0  0  0  0  0  0  0  0  0
    5.2450    0.0420    2.9430 H   0  0  0  0  0  0  0  0  0  0  0  0
    3.8040   -0.1810    1.8330 H   0  0  0  0  0  0  0  0  0  0  0  0
    4.0230    1.3000    2.8510 H   0  0  0  0  0  0  0  0  0  0  0  0
    2.9320    0.3530    4.6070 H   0  0  0  0  0  0  0  0  0  0  0  0
    4.1820   -0.8860    4.6450 H   0  0  0  0  0  0  0  0  0  0  0  0
    2.1520   -1.9930    4.6000 H   0  0  0  0  0  0  0  0  0  0  0  0
    3.9900   -2.7480    2.9720 H   0  0  0  0  0  0  0  0  0  0  0  0
    2.3580   -3.5280    2.9620 H   0  0  0  0  0  0  0  0  0  0  0  0
    2.7820   -2.3100    1.6920 H   0  0  0  0  0  0  0  0  0  0  0  0
    0.5050   -0.5180    3.9010 H   0  0  0  0  0  0  0  0  0  0  0  0
   -0.6690   -1.7630    2.3880 H   0  0  0  0  0  0  0  0  0  0  0  0
    0.7250   -2.6590    1.9660 H   0  0  0  0  0  0  0  0  0  0  0  0
    2.5040    0.7620   -5.0280 N   0  0  0  0  0  0  0  0  0  0  0  0
    2.2790    0.1380   -3.7850 C   0  0  0  0  0  0  0  0  0  0  0  0
    2.7900   -0.9600   -3.5290 O   0  0  0  0  0  0  0  0  0  0  0  0
    1.4200    0.8180   -2.7860 C   0  0  0  0  0  0  0  0  0  0  0  0
    1.3400   -0.0310   -1.5750 C   0  0  0  0  0  0  0  0  0  0  0  0
    0.5280    0.5090   -0.4580 C   0  0  2  0  0  0  0  0  0  0  0  0
    0.5490   -0.4280    0.6690 N   0  0  0  0  0  0  0  0  0  0  0  0
   -0.8840    0.7460   -0.8200 C   0  0  0  0  0  0  0  0  0  0  0  0
   -1.1550    1.5610   -1.7230 O   0  0  0  0  0  0  0  0  0  0  0  0
    3.3680    0.5290   -5.5910 H   0  0  0  0  0  0  0  0  0  0  0  0
    1.8490    1.4640   -5.4410 H   0  0  0  0  0  0  0  0  0  0  0  0
    0.4550    1.1340   -3.2310 H   0  0  0  0  0  0  0  0  0  0  0  0
    1.9480    1.7960   -2.5760 H   0  0  0  0  0  0  0  0  0  0  0  0
    2.3900   -0.2010   -1.2350 H   0  0  0  0  0  0  0  0  0  0  0  0
    0.9520   -1.0500   -1.8330 H   0  0  0  0  0  0  0  0  0  0  0  0
    0.9630    1.4920   -0.1450 H   0  0  0  0  0  0  0  0  0  0  0  0
    0.1680   -1.3800    0.4800 H   0  0  0  0  0  0  0  0  0  0  0  0
   -4.7590   -4.3430    0.3430 N   0  0  0  0  0  0  0  0  0  0  0  0
   -4.6640   -3.2160   -0.5060 C   0  0  0  0  0  0  0  0  0  0  0  0
   -5.1200   -3.2570   -1.6490 O   0  0  0  0  0  0  0  0  0  0  0  0
   -4.0110   -1.9960    0.0010 C   0  0  0  0  0  0  0  0  0  0  0  0
   -4.0180   -0.9230   -1.0580 C   0  0  0  0  0  0  0  0  0  0  0  0
   -3.3540    0.3290   -0.5530 C   0  0  2  0  0  0  0  0  0  0  0  0
   -1.9580    0.0770   -0.1770 N   0  0  0  0  0  0  0  0  0  0  0  0
   -4.1230    0.8010    0.6330 C   0  0  0  0  0  0  0  0  0  0  0  0
   -5.3290    1.0790    0.5590 O   0  0  0  0  0  0  0  0  0  0  0  0
   -3.4940    0.9420    1.8690 O   0  0  0  0  0  0  0  0  0  0  0  0
   -4.5640   -5.2990   -0.0490 H   0  0  0  0  0  0  0  0  0  0  0  0
   -5.0180   -4.2400    1.3420 H   0  0  0  0  0  0  0  0  0  0  0  0
   -2.9560   -2.1920    0.2840 H   0  0  0  0  0  0  0  0  0  0  0  0
   -4.6010   -1.6250    0.8610 H   0  0  0  0  0  0  0  0  0  0  0  0
   -3.4650   -1.2850   -1.9470 H   0  0  0  0  0  0  0  0  0  0  0  0
   -5.0420   -0.6580   -1.3540 H   0  0  0  0  0  0  0  0  0  0  0  0
   -3.3600    1.0840   -1.3610 H   0  0  0  0  0  0  0  0  0  0  0  0
   -1.7130   -0.6000    0.5740 H   0  0  0  0  0  0  0  0  0  0  0  0
  1 11  1  0  0  0  0
  1  9  1  0  0  0  0
  1  2  1  0  0  0  0
  2 12  1  0  0  0  0
  2 13  1  0  0  0  0
  3  2  1  0  0  0  0
  3 14  1  1  0  0  0
  4 16  1  0  0  0  0
  4 15  1  0  0  0  0
  4  3  1  0  0  0  0
  5  3  1  0  0  0  0
  5 18  1  1  0  0  0
  6  5  1  0  0  0  0
  7  8  2  0  0  0  0
  7  5  1  0  0  0  0
 10  1  1  0  0  0  0
 17  4  1  0  0  0  0
 19  6  1  0  0  0  0
 20  6  1  0  0  0  0
 21 22  1  0  0  0  0
 22 23  2  0  0  0  0
 22 24  1  0  0  0  0
 24 33  1  0  0  0  0
 24 25  1  0  0  0  0
 25 34  1  0  0  0  0
 25 26  1  0  0  0  0
 26 36  1  1  0  0  0
 26 27  1  0  0  0  0
 27  7  1  0  0  0  0
 28 26  1  0  0  0  0
 28 44  1  0  0  0  0
 29 28  2  0  0  0  0
 30 21  1  0  0  0  0
 31 21  1  0  0  0  0
 32 24  1  0  0  0  0
 35 25  1  0  0  0  0
 37 27  1  0  0  0  0
 38 49  1  0  0  0  0
 39 41  1  0  0  0  0
 39 38  1  0  0  0  0
 40 39  2  0  0  0  0
 41 50  1  0  0  0  0
 41 51  1  0  0  0  0
 42 43  1  0  0  0  0
 42 41  1  0  0  0  0
 43 54  1  6  0  0  0
 43 44  1  0  0  0  0
 43 45  1  0  0  0  0
 44 55  1  0  0  0  0
 45 47  1  0  0  0  0
 46 45  2  0  0  0  0
 48 38  1  0  0  0  0
 52 42  1  0  0  0  0
 53 42  1  0  0  0  0
M  END
$$$$
