IQR.pdb
 OpenBabel07022418413D

 61 60  0  0  1  0  0  0  0  0999 V2000
   -1.9890    0.1840   -3.0010 C   0  0  0  0  0  0  0  0  0  0  0  0
   -0.6000    0.6410   -2.7010 C   0  0  0  0  0  0  0  0  0  0  0  0
   -0.6430    1.9950   -2.0330 C   0  0  2  0  0  0  0  0  0  0  0  0
    0.7090    2.5390   -1.6990 C   0  0  0  0  0  0  0  0  0  0  0  0
   -1.5200    2.0360   -0.8120 C   0  0  2  0  0  0  0  0  0  0  0  0
   -1.4430    3.4050   -0.3050 N   0  0  0  0  0  0  0  0  0  0  0  0
   -1.1810    1.1010    0.2470 C   0  0  0  0  0  0  0  0  0  0  0  0
   -1.1760   -0.1340    0.0860 O   0  0  0  0  0  0  0  0  0  0  0  0
   -2.3820   -0.5800   -2.3290 H   0  0  0  0  0  0  0  0  0  0  0  0
   -2.0280   -0.2110   -4.0590 H   0  0  0  0  0  0  0  0  0  0  0  0
   -2.6480    1.0950   -3.0450 H   0  0  0  0  0  0  0  0  0  0  0  0
   -0.0620    0.7850   -3.6610 H   0  0  0  0  0  0  0  0  0  0  0  0
   -0.0050   -0.0950   -2.1250 H   0  0  0  0  0  0  0  0  0  0  0  0
   -1.1160    2.6800   -2.7790 H   0  0  0  0  0  0  0  0  0  0  0  0
    1.4400    2.0120   -2.3780 H   0  0  0  0  0  0  0  0  0  0  0  0
    1.0020    2.4180   -0.6350 H   0  0  0  0  0  0  0  0  0  0  0  0
    0.7570    3.6010   -2.0090 H   0  0  0  0  0  0  0  0  0  0  0  0
   -2.5740    1.8170   -1.1420 H   0  0  0  0  0  0  0  0  0  0  0  0
   -0.4870    3.6900   -0.0830 H   0  0  0  0  0  0  0  0  0  0  0  0
   -2.1640    3.6170    0.3900 H   0  0  0  0  0  0  0  0  0  0  0  0
   -4.7120    0.0280    1.9560 N   0  0  0  0  0  0  0  0  0  0  0  0
   -3.6100    0.7180    2.5460 C   0  0  0  0  0  0  0  0  0  0  0  0
   -3.4850    1.9210    2.2280 O   0  0  0  0  0  0  0  0  0  0  0  0
   -2.7250   -0.0230    3.4670 C   0  0  0  0  0  0  0  0  0  0  0  0
   -1.4280    0.6250    3.7670 C   0  0  0  0  0  0  0  0  0  0  0  0
   -0.4670    0.8270    2.6720 C   0  0  2  0  0  0  0  0  0  0  0  0
   -0.8360    1.6030    1.5460 N   0  0  0  0  0  0  0  0  0  0  0  0
    0.4180   -0.3480    2.3960 C   0  0  0  0  0  0  0  0  0  0  0  0
    0.4830   -1.3220    3.1910 O   0  0  0  0  0  0  0  0  0  0  0  0
   -5.6460    0.4820    2.0290 H   0  0  0  0  0  0  0  0  0  0  0  0
   -4.6100   -0.8830    1.4730 H   0  0  0  0  0  0  0  0  0  0  0  0
   -2.6410   -1.0910    3.1700 H   0  0  0  0  0  0  0  0  0  0  0  0
   -3.2950   -0.0670    4.4450 H   0  0  0  0  0  0  0  0  0  0  0  0
   -0.8860    0.0470    4.5740 H   0  0  0  0  0  0  0  0  0  0  0  0
   -1.6360    1.6130    4.2460 H   0  0  0  0  0  0  0  0  0  0  0  0
    0.3600    1.5230    3.1810 H   0  0  0  0  0  0  0  0  0  0  0  0
   -0.8650    2.6660    1.6840 H   0  0  0  0  0  0  0  0  0  0  0  0
   -0.6870   -6.5440    1.0580 N   0  0  0  0  0  0  0  0  0  0  0  0
    0.5610   -5.8790    1.1800 C   0  0  0  0  0  0  0  0  0  0  0  0
    1.4000   -6.2230    2.1160 N   0  0  0  0  0  0  0  0  0  0  0  0
    0.9590   -4.8230    0.3080 N   0  0  0  0  0  0  0  0  0  0  0  0
    2.3460   -4.4280    0.1740 C   0  0  0  0  0  0  0  0  0  0  0  0
    2.4230   -3.2990   -0.8110 C   0  0  0  0  0  0  0  0  0  0  0  0
    1.6210   -2.1040   -0.3670 C   0  0  0  0  0  0  0  0  0  0  0  0
    2.0810   -1.5490    0.9480 C   0  0  2  0  0  0  0  0  0  0  0  0
    1.2070   -0.3960    1.2460 N   0  0  0  0  0  0  0  0  0  0  0  0
    3.4670   -1.0420    0.8730 C   0  0  0  0  0  0  0  0  0  0  0  0
    4.4300   -1.8140    0.6330 O   0  0  0  0  0  0  0  0  0  0  0  0
    3.7370    0.2990    1.0670 O   0  0  0  0  0  0  0  0  0  0  0  0
   -1.2100   -6.5230    0.1620 H   0  0  0  0  0  0  0  0  0  0  0  0
   -1.0810   -7.0540    1.8660 H   0  0  0  0  0  0  0  0  0  0  0  0
    1.1420   -6.9920    2.7730 H   0  0  0  0  0  0  0  0  0  0  0  0
    0.2020   -4.3560   -0.2220 H   0  0  0  0  0  0  0  0  0  0  0  0
    2.9030   -5.2890   -0.2280 H   0  0  0  0  0  0  0  0  0  0  0  0
    2.7580   -4.1280    1.1650 H   0  0  0  0  0  0  0  0  0  0  0  0
    1.9320   -3.6690   -1.7540 H   0  0  0  0  0  0  0  0  0  0  0  0
    3.4410   -3.0180   -1.1040 H   0  0  0  0  0  0  0  0  0  0  0  0
    0.5490   -2.3230   -0.3730 H   0  0  0  0  0  0  0  0  0  0  0  0
    1.8090   -1.3140   -1.1490 H   0  0  0  0  0  0  0  0  0  0  0  0
    1.9520   -2.2770    1.7760 H   0  0  0  0  0  0  0  0  0  0  0  0
    1.2770    0.3630    0.5390 H   0  0  0  0  0  0  0  0  0  0  0  0
  1  2  1  0  0  0  0
  1  9  1  0  0  0  0
  2 13  1  0  0  0  0
  2  3  1  0  0  0  0
  3 14  1  6  0  0  0
  3  4  1  0  0  0  0
  3  5  1  0  0  0  0
  4 16  1  0  0  0  0
  5 18  1  6  0  0  0
  5  6  1  0  0  0  0
  5  7  1  0  0  0  0
  6 19  1  0  0  0  0
  6 20  1  0  0  0  0
  7 27  1  0  0  0  0
  8  7  2  0  0  0  0
 10  1  1  0  0  0  0
 11  1  1  0  0  0  0
 12  2  1  0  0  0  0
 15  4  1  0  0  0  0
 17  4  1  0  0  0  0
 21 30  1  0  0  0  0
 21 22  1  0  0  0  0
 22 24  1  0  0  0  0
 23 22  2  0  0  0  0
 24 25  1  0  0  0  0
 24 33  1  0  0  0  0
 25 35  1  0  0  0  0
 25 34  1  0  0  0  0
 26 36  1  1  0  0  0
 26 25  1  0  0  0  0
 27 37  1  0  0  0  0
 27 26  1  0  0  0  0
 28 26  1  0  0  0  0
 28 29  2  0  0  0  0
 31 21  1  0  0  0  0
 32 24  1  0  0  0  0
 38 39  1  0  0  0  0
 38 51  1  0  0  0  0
 39 40  2  0  0  0  0
 40 52  1  0  0  0  0
 41 39  1  0  0  0  0
 42 41  1  0  0  0  0
 42 55  1  0  0  0  0
 43 44  1  0  0  0  0
 43 42  1  0  0  0  0
 44 45  1  0  0  0  0
 45 46  1  0  0  0  0
 45 60  1  1  0  0  0
 46 28  1  0  0  0  0
 47 45  1  0  0  0  0
 47 49  1  0  0  0  0
 48 47  2  0  0  0  0
 50 38  1  0  0  0  0
 53 41  1  0  0  0  0
 54 42  1  0  0  0  0
 56 43  1  0  0  0  0
 57 43  1  0  0  0  0
 58 44  1  0  0  0  0
 59 44  1  0  0  0  0
 61 46  1  0  0  0  0
M  END
$$$$
