IQS.pdb
 OpenBabel07022418413D

 49 48  0  0  1  0  0  0  0  0999 V2000
    0.7570   -5.7390    3.9030 C   0  0  0  0  0  0  0  0  0  0  0  0
    1.6790   -4.5710    4.0750 C   0  0  0  0  0  0  0  0  0  0  0  0
    1.1010   -3.2650    3.5890 C   0  0  2  0  0  0  0  0  0  0  0  0
   -0.1460   -2.9880    4.3650 C   0  0  0  0  0  0  0  0  0  0  0  0
    0.8740   -3.2650    2.0870 C   0  0  2  0  0  0  0  0  0  0  0  0
    2.1460   -3.4810    1.4620 N   0  0  0  0  0  0  0  0  0  0  0  0
    0.2960   -1.9360    1.7490 C   0  0  0  0  0  0  0  0  0  0  0  0
   -0.8260   -1.6010    2.2190 O   0  0  0  0  0  0  0  0  0  0  0  0
    0.3100   -6.0730    4.8780 H   0  0  0  0  0  0  0  0  0  0  0  0
   -0.0800   -5.5740    3.2240 H   0  0  0  0  0  0  0  0  0  0  0  0
    1.3680   -6.6020    3.5480 H   0  0  0  0  0  0  0  0  0  0  0  0
    2.6890   -4.7580    3.6270 H   0  0  0  0  0  0  0  0  0  0  0  0
    1.8660   -4.4490    5.1610 H   0  0  0  0  0  0  0  0  0  0  0  0
    1.8450   -2.4790    3.8180 H   0  0  0  0  0  0  0  0  0  0  0  0
   -0.1410   -3.5570    5.3180 H   0  0  0  0  0  0  0  0  0  0  0  0
   -0.2040   -1.9030    4.5610 H   0  0  0  0  0  0  0  0  0  0  0  0
   -1.0730   -3.2790    3.8390 H   0  0  0  0  0  0  0  0  0  0  0  0
    0.2220   -4.1010    1.8490 H   0  0  0  0  0  0  0  0  0  0  0  0
    2.8790   -2.8140    1.7810 H   0  0  0  0  0  0  0  0  0  0  0  0
    2.0840   -3.5640    0.4230 H   0  0  0  0  0  0  0  0  0  0  0  0
    0.2150    4.6370   -0.6070 N   0  0  0  0  0  0  0  0  0  0  0  0
    0.8600    3.3900   -0.3080 C   0  0  0  0  0  0  0  0  0  0  0  0
    1.4810    2.8260   -1.2380 O   0  0  0  0  0  0  0  0  0  0  0  0
    0.8020    2.7970    1.0310 C   0  0  0  0  0  0  0  0  0  0  0  0
    1.1580    1.3760    1.1840 C   0  0  0  0  0  0  0  0  0  0  0  0
    0.2970    0.3380    0.6070 C   0  0  2  0  0  0  0  0  0  0  0  0
    0.9350   -0.9990    0.9150 N   0  0  0  0  0  0  0  0  0  0  0  0
    0.0060    0.2460   -0.8060 C   0  0  0  0  0  0  0  0  0  0  0  0
    0.5580   -0.6000   -1.5860 O   0  0  0  0  0  0  0  0  0  0  0  0
   -0.5720    5.0110   -0.0270 H   0  0  0  0  0  0  0  0  0  0  0  0
    0.5300    5.1910   -1.4170 H   0  0  0  0  0  0  0  0  0  0  0  0
   -0.2820    2.9060    1.3540 H   0  0  0  0  0  0  0  0  0  0  0  0
    1.3350    3.4450    1.7830 H   0  0  0  0  0  0  0  0  0  0  0  0
    1.2670    1.1920    2.2990 H   0  0  0  0  0  0  0  0  0  0  0  0
    2.2390    1.2740    0.8380 H   0  0  0  0  0  0  0  0  0  0  0  0
   -0.6820    0.3630    1.1470 H   0  0  0  0  0  0  0  0  0  0  0  0
    1.8520   -1.1950    0.4920 H   0  0  0  0  0  0  0  0  0  0  0  0
   -3.0130    0.2400   -4.2510 O   0  0  0  0  0  0  0  0  0  0  0  0
   -2.6580    0.3610   -2.8940 C   0  0  0  0  0  0  0  0  0  0  0  0
   -1.2610    1.0000   -2.8380 C   0  0  2  0  0  0  0  0  0  0  0  0
   -0.9470    1.1010   -1.4350 N   0  0  0  0  0  0  0  0  0  0  0  0
   -1.1930    2.2240   -3.6100 C   0  0  0  0  0  0  0  0  0  0  0  0
   -0.8980    3.3280   -3.1570 O   0  0  0  0  0  0  0  0  0  0  0  0
   -1.4890    2.1400   -4.9780 O   0  0  0  0  0  0  0  0  0  0  0  0
   -3.7720   -0.4070   -4.2650 H   0  0  0  0  0  0  0  0  0  0  0  0
   -2.5660   -0.6800   -2.5210 H   0  0  0  0  0  0  0  0  0  0  0  0
   -3.3900    0.9120   -2.3070 H   0  0  0  0  0  0  0  0  0  0  0  0
   -0.5970    0.1870   -3.2600 H   0  0  0  0  0  0  0  0  0  0  0  0
   -1.4410    1.8140   -0.8750 H   0  0  0  0  0  0  0  0  0  0  0  0
  1  2  1  0  0  0  0
  1  9  1  0  0  0  0
  2 13  1  0  0  0  0
  3 14  1  1  0  0  0
  3  2  1  0  0  0  0
  3  4  1  0  0  0  0
  4 16  1  0  0  0  0
  4 15  1  0  0  0  0
  5 18  1  6  0  0  0
  5  3  1  0  0  0  0
  6 19  1  0  0  0  0
  6  5  1  0  0  0  0
  7  5  1  0  0  0  0
  7  8  2  0  0  0  0
 10  1  1  0  0  0  0
 11  1  1  0  0  0  0
 12  2  1  0  0  0  0
 17  4  1  0  0  0  0
 20  6  1  0  0  0  0
 21 22  1  0  0  0  0
 21 30  1  0  0  0  0
 22 24  1  0  0  0  0
 23 22  2  0  0  0  0
 24 25  1  0  0  0  0
 24 32  1  0  0  0  0
 24 33  1  0  0  0  0
 25 34  1  0  0  0  0
 26 27  1  0  0  0  0
 26 36  1  1  0  0  0
 26 25  1  0  0  0  0
 27  7  1  0  0  0  0
 28 26  1  0  0  0  0
 29 28  2  0  0  0  0
 31 21  1  0  0  0  0
 35 25  1  0  0  0  0
 37 27  1  0  0  0  0
 38 39  1  0  0  0  0
 39 40  1  0  0  0  0
 39 46  1  0  0  0  0
 39 47  1  0  0  0  0
 40 48  1  6  0  0  0
 40 41  1  0  0  0  0
 41 49  1  0  0  0  0
 41 28  1  0  0  0  0
 42 43  1  0  0  0  0
 42 40  1  0  0  0  0
 44 42  2  0  0  0  0
 45 38  1  0  0  0  0
M  END
$$$$
