IQT.pdb
 OpenBabel07022418413D

 52 51  0  0  1  0  0  0  0  0999 V2000
    2.2380   -5.1170    0.9030 C   0  0  0  0  0  0  0  0  0  0  0  0
    2.7050   -3.8170    1.5070 C   0  0  0  0  0  0  0  0  0  0  0  0
    1.6080   -2.7370    1.3660 C   0  0  2  0  0  0  0  0  0  0  0  0
    1.4150   -2.6360   -0.1360 C   0  0  0  0  0  0  0  0  0  0  0  0
    2.1640   -1.5180    2.0070 C   0  0  2  0  0  0  0  0  0  0  0  0
    2.4770   -1.8920    3.4030 N   0  0  0  0  0  0  0  0  0  0  0  0
    1.2680   -0.3600    2.1230 C   0  0  0  0  0  0  0  0  0  0  0  0
    1.0390    0.1310    3.2980 O   0  0  0  0  0  0  0  0  0  0  0  0
    1.1280   -5.1160    0.7100 H   0  0  0  0  0  0  0  0  0  0  0  0
    2.7110   -5.2790   -0.0650 H   0  0  0  0  0  0  0  0  0  0  0  0
    2.4120   -5.9570    1.6190 H   0  0  0  0  0  0  0  0  0  0  0  0
    3.6260   -3.5100    0.9720 H   0  0  0  0  0  0  0  0  0  0  0  0
    2.9620   -3.9840    2.5530 H   0  0  0  0  0  0  0  0  0  0  0  0
    0.7330   -3.1090    1.9090 H   0  0  0  0  0  0  0  0  0  0  0  0
    2.1240   -1.9620   -0.6200 H   0  0  0  0  0  0  0  0  0  0  0  0
    0.3780   -2.4190   -0.4330 H   0  0  0  0  0  0  0  0  0  0  0  0
    1.6220   -3.6470   -0.6150 H   0  0  0  0  0  0  0  0  0  0  0  0
    3.1430   -1.2670    1.5460 H   0  0  0  0  0  0  0  0  0  0  0  0
    3.4400   -2.2300    3.4700 H   0  0  0  0  0  0  0  0  0  0  0  0
    1.7300   -2.5490    3.6950 H   0  0  0  0  0  0  0  0  0  0  0  0
    2.8210    4.9530   -0.7080 N   0  0  0  0  0  0  0  0  0  0  0  0
    1.5930    4.2230   -0.5840 C   0  0  0  0  0  0  0  0  0  0  0  0
    0.6330    4.5640   -1.3290 O   0  0  0  0  0  0  0  0  0  0  0  0
    1.4500    3.1050    0.3870 C   0  0  0  0  0  0  0  0  0  0  0  0
    0.0800    2.5550    0.2810 C   0  0  0  0  0  0  0  0  0  0  0  0
   -0.2210    1.4100    1.2050 C   0  0  2  0  0  0  0  0  0  0  0  0
    0.6300    0.2660    1.0120 N   0  0  0  0  0  0  0  0  0  0  0  0
   -1.6310    1.0350    0.9570 C   0  0  0  0  0  0  0  0  0  0  0  0
   -2.5730    1.8760    1.0080 O   0  0  0  0  0  0  0  0  0  0  0  0
    3.4940    4.9340    0.0820 H   0  0  0  0  0  0  0  0  0  0  0  0
    3.0570    5.4960   -1.5570 H   0  0  0  0  0  0  0  0  0  0  0  0
    2.2580    2.3880    0.1660 H   0  0  0  0  0  0  0  0  0  0  0  0
    1.5870    3.5760    1.4040 H   0  0  0  0  0  0  0  0  0  0  0  0
   -0.1380    2.3020   -0.7760 H   0  0  0  0  0  0  0  0  0  0  0  0
   -0.6380    3.3700    0.5450 H   0  0  0  0  0  0  0  0  0  0  0  0
   -0.1810    1.7450    2.2890 H   0  0  0  0  0  0  0  0  0  0  0  0
    0.8110   -0.1370    0.0780 H   0  0  0  0  0  0  0  0  0  0  0  0
   -4.7390   -1.8020   -1.3450 C   0  0  0  0  0  0  0  0  0  0  0  0
   -3.3520   -1.3030   -1.0120 C   0  0  1  0  0  0  0  0  0  0  0  0
   -2.9910   -0.3380   -1.9550 O   0  0  0  0  0  0  0  0  0  0  0  0
   -3.3060   -0.7560    0.3940 C   0  0  2  0  0  0  0  0  0  0  0  0
   -1.9310   -0.3140    0.6530 N   0  0  0  0  0  0  0  0  0  0  0  0
   -3.6510   -1.8390    1.3280 C   0  0  0  0  0  0  0  0  0  0  0  0
   -2.8410   -2.2730    2.1940 O   0  0  0  0  0  0  0  0  0  0  0  0
   -4.9180   -2.4000    1.2490 O   0  0  0  0  0  0  0  0  0  0  0  0
   -4.7770   -2.8770   -1.0360 H   0  0  0  0  0  0  0  0  0  0  0  0
   -5.4990   -1.1950   -0.8460 H   0  0  0  0  0  0  0  0  0  0  0  0
   -4.8280   -1.8070   -2.4500 H   0  0  0  0  0  0  0  0  0  0  0  0
   -2.6420   -2.1450   -1.1430 H   0  0  0  0  0  0  0  0  0  0  0  0
   -2.4870   -0.7340   -2.7070 H   0  0  0  0  0  0  0  0  0  0  0  0
   -3.9490    0.1170    0.4840 H   0  0  0  0  0  0  0  0  0  0  0  0
   -1.1770   -1.0280    0.6110 H   0  0  0  0  0  0  0  0  0  0  0  0
  1  2  1  0  0  0  0
  1 11  1  0  0  0  0
  2 13  1  0  0  0  0
  3  2  1  0  0  0  0
  3 14  1  1  0  0  0
  3  5  1  0  0  0  0
  4  3  1  0  0  0  0
  5 18  1  6  0  0  0
  5  7  1  0  0  0  0
  5  6  1  0  0  0  0
  6 19  1  0  0  0  0
  6 20  1  0  0  0  0
  7  8  2  0  0  0  0
  9  1  1  0  0  0  0
 10  1  1  0  0  0  0
 12  2  1  0  0  0  0
 15  4  1  0  0  0  0
 16  4  1  0  0  0  0
 17  4  1  0  0  0  0
 21 22  1  0  0  0  0
 21 30  1  0  0  0  0
 22 24  1  0  0  0  0
 23 22  2  0  0  0  0
 24 33  1  0  0  0  0
 25 24  1  0  0  0  0
 25 35  1  0  0  0  0
 25 26  1  0  0  0  0
 26 36  1  1  0  0  0
 27 26  1  0  0  0  0
 27  7  1  0  0  0  0
 28 29  2  0  0  0  0
 28 26  1  0  0  0  0
 31 21  1  0  0  0  0
 32 24  1  0  0  0  0
 34 25  1  0  0  0  0
 37 27  1  0  0  0  0
 38 46  1  0  0  0  0
 38 39  1  0  0  0  0
 38 47  1  0  0  0  0
 39 49  1  6  0  0  0
 39 41  1  0  0  0  0
 40 39  1  0  0  0  0
 41 51  1  1  0  0  0
 41 42  1  0  0  0  0
 41 43  1  0  0  0  0
 42 28  1  0  0  0  0
 43 44  1  0  0  0  0
 45 43  2  0  0  0  0
 48 38  1  0  0  0  0
 50 40  1  0  0  0  0
 52 42  1  0  0  0  0
M  END
$$$$
