IQV.pdb
 OpenBabel07022418413D

 54 53  0  0  1  0  0  0  0  0999 V2000
    2.8230   -4.2190    3.1910 C   0  0  0  0  0  0  0  0  0  0  0  0
    2.6200   -3.8870    1.7420 C   0  0  0  0  0  0  0  0  0  0  0  0
    1.5190   -2.8340    1.5150 C   0  0  2  0  0  0  0  0  0  0  0  0
    1.4340   -2.6400   -0.0170 C   0  0  0  0  0  0  0  0  0  0  0  0
    1.9590   -1.5400    2.1010 C   0  0  2  0  0  0  0  0  0  0  0  0
    2.2590   -1.7620    3.5670 N   0  0  0  0  0  0  0  0  0  0  0  0
    1.0930   -0.3840    2.0120 C   0  0  0  0  0  0  0  0  0  0  0  0
    0.7790    0.2040    3.1340 O   0  0  0  0  0  0  0  0  0  0  0  0
    1.8830   -4.0510    3.7470 H   0  0  0  0  0  0  0  0  0  0  0  0
    3.0160   -5.3240    3.3130 H   0  0  0  0  0  0  0  0  0  0  0  0
    3.6210   -3.6400    3.6930 H   0  0  0  0  0  0  0  0  0  0  0  0
    2.2330   -4.8240    1.2440 H   0  0  0  0  0  0  0  0  0  0  0  0
    3.5670   -3.5780    1.2740 H   0  0  0  0  0  0  0  0  0  0  0  0
    0.5930   -3.2620    1.8400 H   0  0  0  0  0  0  0  0  0  0  0  0
    2.2100   -1.9750   -0.3980 H   0  0  0  0  0  0  0  0  0  0  0  0
    1.7340   -3.6620   -0.4190 H   0  0  0  0  0  0  0  0  0  0  0  0
    0.4240   -2.5040   -0.3790 H   0  0  0  0  0  0  0  0  0  0  0  0
    2.9530   -1.2880    1.6810 H   0  0  0  0  0  0  0  0  0  0  0  0
    3.0110   -1.1020    3.8550 H   0  0  0  0  0  0  0  0  0  0  0  0
    1.3780   -1.6600    4.0970 H   0  0  0  0  0  0  0  0  0  0  0  0
    3.4050    4.3460   -0.6600 N   0  0  0  0  0  0  0  0  0  0  0  0
    2.0920    3.8330   -0.7740 C   0  0  0  0  0  0  0  0  0  0  0  0
    1.3430    4.2260   -1.6880 O   0  0  0  0  0  0  0  0  0  0  0  0
    1.6120    2.8260    0.1980 C   0  0  0  0  0  0  0  0  0  0  0  0
    0.1830    2.4050   -0.0970 C   0  0  0  0  0  0  0  0  0  0  0  0
   -0.2990    1.3760    0.9010 C   0  0  2  0  0  0  0  0  0  0  0  0
    0.5560    0.1750    0.8490 N   0  0  0  0  0  0  0  0  0  0  0  0
   -1.6680    0.9780    0.5200 C   0  0  0  0  0  0  0  0  0  0  0  0
   -2.6030    1.8290    0.4070 O   0  0  0  0  0  0  0  0  0  0  0  0
    4.0840    4.3220   -1.4730 H   0  0  0  0  0  0  0  0  0  0  0  0
    3.7890    4.7750    0.2150 H   0  0  0  0  0  0  0  0  0  0  0  0
    2.2460    1.9190    0.0580 H   0  0  0  0  0  0  0  0  0  0  0  0
    1.7030    3.2660    1.1990 H   0  0  0  0  0  0  0  0  0  0  0  0
    0.0770    2.0210   -1.1300 H   0  0  0  0  0  0  0  0  0  0  0  0
   -0.4210    3.3340   -0.0540 H   0  0  0  0  0  0  0  0  0  0  0  0
   -0.2770    1.7790    1.9530 H   0  0  0  0  0  0  0  0  0  0  0  0
    0.7570   -0.2380   -0.0710 H   0  0  0  0  0  0  0  0  0  0  0  0
   -4.7130   -1.7980   -1.8630 C   0  0  0  0  0  0  0  0  0  0  0  0
   -3.3260   -1.4170   -1.4500 C   0  0  0  0  0  0  0  0  0  0  0  0
   -2.6610   -0.5550   -2.5080 C   0  0  0  0  0  0  0  0  0  0  0  0
   -3.3390   -0.7320   -0.1060 C   0  0  2  0  0  0  0  0  0  0  0  0
   -1.9770   -0.3720    0.2710 N   0  0  0  0  0  0  0  0  0  0  0  0
   -3.8090   -1.7520    0.8880 C   0  0  0  0  0  0  0  0  0  0  0  0
   -4.9650   -2.2530    0.8140 O   0  0  0  0  0  0  0  0  0  0  0  0
   -3.0060   -2.1940    1.9280 O   0  0  0  0  0  0  0  0  0  0  0  0
   -4.9310   -2.8700   -1.6540 H   0  0  0  0  0  0  0  0  0  0  0  0
   -5.4350   -1.1590   -1.3160 H   0  0  0  0  0  0  0  0  0  0  0  0
   -4.8290   -1.6260   -2.9420 H   0  0  0  0  0  0  0  0  0  0  0  0
   -2.7150   -2.3600   -1.3910 H   0  0  0  0  0  0  0  0  0  0  0  0
   -1.5530   -0.5940   -2.4400 H   0  0  0  0  0  0  0  0  0  0  0  0
   -3.0540    0.4850   -2.4700 H   0  0  0  0  0  0  0  0  0  0  0  0
   -2.9290   -0.9900   -3.4930 H   0  0  0  0  0  0  0  0  0  0  0  0
   -4.0130    0.1240   -0.1590 H   0  0  0  0  0  0  0  0  0  0  0  0
   -1.2880   -1.1370    0.3460 H   0  0  0  0  0  0  0  0  0  0  0  0
  1 10  1  0  0  0  0
  1 11  1  0  0  0  0
  1  9  1  0  0  0  0
  2  1  1  0  0  0  0
  3  2  1  0  0  0  0
  3 14  1  1  0  0  0
  3  5  1  0  0  0  0
  4  3  1  0  0  0  0
  5 18  1  6  0  0  0
  5  6  1  0  0  0  0
  6 19  1  0  0  0  0
  6 20  1  0  0  0  0
  7  5  1  0  0  0  0
  7  8  2  0  0  0  0
 12  2  1  0  0  0  0
 13  2  1  0  0  0  0
 15  4  1  0  0  0  0
 16  4  1  0  0  0  0
 17  4  1  0  0  0  0
 21 31  1  0  0  0  0
 22 21  1  0  0  0  0
 22 24  1  0  0  0  0
 23 22  2  0  0  0  0
 24 33  1  0  0  0  0
 25 35  1  0  0  0  0
 25 24  1  0  0  0  0
 25 26  1  0  0  0  0
 26 36  1  1  0  0  0
 27 26  1  0  0  0  0
 27  7  1  0  0  0  0
 28 26  1  0  0  0  0
 29 28  2  0  0  0  0
 30 21  1  0  0  0  0
 32 24  1  0  0  0  0
 34 25  1  0  0  0  0
 37 27  1  0  0  0  0
 38 46  1  0  0  0  0
 38 39  1  0  0  0  0
 38 47  1  0  0  0  0
 39 49  1  0  0  0  0
 39 41  1  0  0  0  0
 40 51  1  0  0  0  0
 40 50  1  0  0  0  0
 40 39  1  0  0  0  0
 41 53  1  6  0  0  0
 41 42  1  0  0  0  0
 41 43  1  0  0  0  0
 42 54  1  0  0  0  0
 42 28  1  0  0  0  0
 43 45  1  0  0  0  0
 44 43  2  0  0  0  0
 48 38  1  0  0  0  0
 52 40  1  0  0  0  0
M  END
$$$$
