IQW.pdb
 OpenBabel07022418413D

 62 63  0  0  1  0  0  0  0  0999 V2000
    2.5660   -1.5240    2.9490 C   0  0  0  0  0  0  0  0  0  0  0  0
    2.2300   -1.6210    1.4910 C   0  0  0  0  0  0  0  0  0  0  0  0
    3.0970   -0.7220    0.6380 C   0  0  2  0  0  0  0  0  0  0  0  0
    4.5320   -1.1200    0.8190 C   0  0  0  0  0  0  0  0  0  0  0  0
    2.9620    0.7390    1.0280 C   0  0  2  0  0  0  0  0  0  0  0  0
    3.3640    0.8890    2.4130 N   0  0  0  0  0  0  0  0  0  0  0  0
    1.5720    1.2270    0.8320 C   0  0  0  0  0  0  0  0  0  0  0  0
    0.9610    1.6820    1.8430 O   0  0  0  0  0  0  0  0  0  0  0  0
    1.9750   -0.7280    3.4760 H   0  0  0  0  0  0  0  0  0  0  0  0
    2.2960   -2.4740    3.4970 H   0  0  0  0  0  0  0  0  0  0  0  0
    3.6230   -1.3540    3.1520 H   0  0  0  0  0  0  0  0  0  0  0  0
    2.4430   -2.6610    1.1700 H   0  0  0  0  0  0  0  0  0  0  0  0
    1.1790   -1.4050    1.2710 H   0  0  0  0  0  0  0  0  0  0  0  0
    2.8330   -0.8200   -0.4140 H   0  0  0  0  0  0  0  0  0  0  0  0
    4.5990   -2.1000    1.3580 H   0  0  0  0  0  0  0  0  0  0  0  0
    5.0220   -1.3070   -0.1760 H   0  0  0  0  0  0  0  0  0  0  0  0
    5.1120   -0.3420    1.3140 H   0  0  0  0  0  0  0  0  0  0  0  0
    3.6730    1.2930    0.3690 H   0  0  0  0  0  0  0  0  0  0  0  0
    2.8160    1.7240    2.7790 H   0  0  0  0  0  0  0  0  0  0  0  0
    4.3590    1.2000    2.4180 H   0  0  0  0  0  0  0  0  0  0  0  0
   -4.2600    2.8660   -2.2800 N   0  0  0  0  0  0  0  0  0  0  0  0
   -2.8670    2.6700   -2.4700 C   0  0  0  0  0  0  0  0  0  0  0  0
   -2.5100    1.8120   -3.3170 O   0  0  0  0  0  0  0  0  0  0  0  0
   -1.8840    3.4340   -1.7250 C   0  0  0  0  0  0  0  0  0  0  0  0
   -0.5600    2.8280   -1.4520 C   0  0  0  0  0  0  0  0  0  0  0  0
   -0.4820    1.7190   -0.5090 C   0  0  2  0  0  0  0  0  0  0  0  0
    0.8970    1.2200   -0.3860 N   0  0  0  0  0  0  0  0  0  0  0  0
   -1.3960    0.5940   -0.7410 C   0  0  0  0  0  0  0  0  0  0  0  0
   -2.6570    0.7680   -0.6180 O   0  0  0  0  0  0  0  0  0  0  0  0
   -4.6530    3.7610   -1.9140 H   0  0  0  0  0  0  0  0  0  0  0  0
   -4.9470    2.0940   -2.5090 H   0  0  0  0  0  0  0  0  0  0  0  0
   -2.3820    3.6730   -0.7210 H   0  0  0  0  0  0  0  0  0  0  0  0
   -1.7970    4.4610   -2.1790 H   0  0  0  0  0  0  0  0  0  0  0  0
    0.1460    3.6780   -1.1940 H   0  0  0  0  0  0  0  0  0  0  0  0
   -0.1060    2.4530   -2.4310 H   0  0  0  0  0  0  0  0  0  0  0  0
   -0.7920    2.1310    0.5160 H   0  0  0  0  0  0  0  0  0  0  0  0
    1.3540    0.8660   -1.2390 H   0  0  0  0  0  0  0  0  0  0  0  0
   -0.9060   -0.6800   -1.0950 N   0  0  0  0  0  0  0  0  0  0  0  0
   -1.7190   -1.8280   -1.3150 C   0  0  1  0  0  0  0  0  0  0  0  0
   -2.8590   -1.9220   -0.3230 C   0  0  0  0  0  0  0  0  0  0  0  0
   -2.2920   -2.0090    1.0370 C   0  0  0  0  0  0  0  0  0  0  0  0
   -2.1670   -1.0590    2.0190 C   0  0  0  0  0  0  0  0  0  0  0  0
   -1.5740   -1.5870    3.1020 N   0  0  0  0  0  0  0  0  0  0  0  0
   -1.2930   -2.8790    2.8730 C   0  0  0  0  0  0  0  0  0  0  0  0
   -0.7000   -3.8520    3.6500 C   0  0  0  0  0  0  0  0  0  0  0  0
   -0.5480   -5.1130    3.1400 C   0  0  0  0  0  0  0  0  0  0  0  0
   -0.9840   -5.3990    1.8670 C   0  0  0  0  0  0  0  0  0  0  0  0
   -1.5830   -4.4420    1.0640 C   0  0  0  0  0  0  0  0  0  0  0  0
   -1.7310   -3.1710    1.5890 C   0  0  0  0  0  0  0  0  0  0  0  0
   -2.2160   -1.9920   -2.6870 C   0  0  0  0  0  0  0  0  0  0  0  0
   -1.9080   -1.1800   -3.5720 O   0  0  0  0  0  0  0  0  0  0  0  0
   -3.0410   -3.0510   -3.0430 O   0  0  0  0  0  0  0  0  0  0  0  0
    0.1650   -0.7470   -1.1950 H   0  0  0  0  0  0  0  0  0  0  0  0
   -1.0980   -2.7720   -1.0460 H   0  0  0  0  0  0  0  0  0  0  0  0
   -3.6070   -1.1460   -0.4490 H   0  0  0  0  0  0  0  0  0  0  0  0
   -3.3800   -2.9360   -0.4920 H   0  0  0  0  0  0  0  0  0  0  0  0
   -2.5050   -0.0240    1.9390 H   0  0  0  0  0  0  0  0  0  0  0  0
   -1.3660   -1.0780    3.9750 H   0  0  0  0  0  0  0  0  0  0  0  0
   -0.3740   -3.5910    4.6340 H   0  0  0  0  0  0  0  0  0  0  0  0
   -0.0770   -5.9120    3.7360 H   0  0  0  0  0  0  0  0  0  0  0  0
   -0.8680   -6.4010    1.4510 H   0  0  0  0  0  0  0  0  0  0  0  0
   -1.9330   -4.6610    0.0710 H   0  0  0  0  0  0  0  0  0  0  0  0
  1 11  1  0  0  0  0
  1  9  1  0  0  0  0
  1 10  1  0  0  0  0
  2  1  1  0  0  0  0
  3 14  1  6  0  0  0
  3  4  1  0  0  0  0
  3  5  1  0  0  0  0
  3  2  1  0  0  0  0
  4 17  1  0  0  0  0
  4 15  1  0  0  0  0
  5 18  1  6  0  0  0
  5  6  1  0  0  0  0
  6 20  1  0  0  0  0
  6 19  1  0  0  0  0
  7  5  1  0  0  0  0
  7  8  2  0  0  0  0
 12  2  1  0  0  0  0
 13  2  1  0  0  0  0
 16  4  1  0  0  0  0
 21 30  1  0  0  0  0
 22 21  1  0  0  0  0
 22 24  1  0  0  0  0
 23 22  2  0  0  0  0
 24 25  1  0  0  0  0
 24 32  1  0  0  0  0
 25 34  1  0  0  0  0
 25 26  1  0  0  0  0
 26 27  1  0  0  0  0
 26 36  1  1  0  0  0
 27  7  1  0  0  0  0
 28 29  2  0  0  0  0
 28 26  1  0  0  0  0
 31 21  1  0  0  0  0
 33 24  1  0  0  0  0
 35 25  1  0  0  0  0
 37 27  1  0  0  0  0
 38 28  1  0  0  0  0
 39 38  1  0  0  0  0
 39 54  1  1  0  0  0
 39 40  1  0  0  0  0
 40 41  1  0  0  0  0
 41 49  1  0  0  0  0
 41 42  2  0  0  0  0
 42 43  1  0  0  0  0
 43 58  1  0  0  0  0
 44 43  1  0  0  0  0
 44 45  1  0  0  0  0
 45 59  1  0  0  0  0
 46 45  2  0  0  0  0
 46 60  1  0  0  0  0
 47 46  1  0  0  0  0
 48 49  1  0  0  0  0
 48 47  2  0  0  0  0
 49 44  2  0  0  0  0
 50 39  1  0  0  0  0
 51 50  2  0  0  0  0
 52 50  1  0  0  0  0
 53 38  1  0  0  0  0
 55 40  1  0  0  0  0
 56 40  1  0  0  0  0
 57 42  1  0  0  0  0
 61 47  1  0  0  0  0
 62 48  1  0  0  0  0
M  END
$$$$
