IRA.pdb
 OpenBabel07022418393D

 54 53  0  0  1  0  0  0  0  0999 V2000
    3.3920   -3.7290    2.8290 C   0  0  0  0  0  0  0  0  0  0  0  0
    3.6050   -2.4930    1.9700 C   0  0  0  0  0  0  0  0  0  0  0  0
    2.5330   -1.4630    2.2000 C   0  0  2  0  0  0  0  0  0  0  0  0
    2.5320   -1.0360    3.6340 C   0  0  0  0  0  0  0  0  0  0  0  0
    1.1780   -1.9440    1.7210 C   0  0  2  0  0  0  0  0  0  0  0  0
    1.3030   -2.2090    0.3000 N   0  0  0  0  0  0  0  0  0  0  0  0
    0.1160   -0.9440    2.0000 C   0  0  0  0  0  0  0  0  0  0  0  0
   -0.1100   -0.6130    3.1760 O   0  0  0  0  0  0  0  0  0  0  0  0
    2.4630   -4.2630    2.5610 H   0  0  0  0  0  0  0  0  0  0  0  0
    4.2380   -4.4200    2.5730 H   0  0  0  0  0  0  0  0  0  0  0  0
    3.4830   -3.4900    3.8990 H   0  0  0  0  0  0  0  0  0  0  0  0
    4.5920   -2.0770    2.1820 H   0  0  0  0  0  0  0  0  0  0  0  0
    3.6210   -2.8520    0.9180 H   0  0  0  0  0  0  0  0  0  0  0  0
    2.8130   -0.5710    1.5900 H   0  0  0  0  0  0  0  0  0  0  0  0
    2.3220    0.0660    3.7350 H   0  0  0  0  0  0  0  0  0  0  0  0
    3.5600   -1.1720    4.0650 H   0  0  0  0  0  0  0  0  0  0  0  0
    1.8330   -1.6050    4.2740 H   0  0  0  0  0  0  0  0  0  0  0  0
    0.9250   -2.9190    2.2040 H   0  0  0  0  0  0  0  0  0  0  0  0
    2.0140   -1.5490   -0.1380 H   0  0  0  0  0  0  0  0  0  0  0  0
    1.7350   -3.1550    0.2050 H   0  0  0  0  0  0  0  0  0  0  0  0
    3.4870    1.9230   -0.6750 N   0  0  0  0  0  0  0  0  0  0  0  0
    2.2560    1.7340   -1.3770 C   0  0  0  0  0  0  0  0  0  0  0  0
    2.3190    1.1580   -2.5280 N   0  0  0  0  0  0  0  0  0  0  0  0
    1.0130    2.1610   -0.8360 N   0  0  0  0  0  0  0  0  0  0  0  0
   -0.2310    1.7290   -1.4650 C   0  0  0  0  0  0  0  0  0  0  0  0
   -1.3960    2.3040   -0.7200 C   0  0  0  0  0  0  0  0  0  0  0  0
   -1.5240    1.9960    0.7110 C   0  0  0  0  0  0  0  0  0  0  0  0
   -1.6820    0.6140    1.1910 C   0  0  2  0  0  0  0  0  0  0  0  0
   -0.6670   -0.3400    0.9390 N   0  0  0  0  0  0  0  0  0  0  0  0
   -2.9800    0.1080    0.6110 C   0  0  0  0  0  0  0  0  0  0  0  0
   -4.0300    0.7910    0.6950 O   0  0  0  0  0  0  0  0  0  0  0  0
    3.6680    2.7810   -0.0930 H   0  0  0  0  0  0  0  0  0  0  0  0
    4.2660    1.2140   -0.7070 H   0  0  0  0  0  0  0  0  0  0  0  0
    1.4450    1.0020   -3.0710 H   0  0  0  0  0  0  0  0  0  0  0  0
    1.0210    2.7840    0.0140 H   0  0  0  0  0  0  0  0  0  0  0  0
   -0.2150    2.2880   -2.4600 H   0  0  0  0  0  0  0  0  0  0  0  0
   -0.2800    0.6870   -1.7370 H   0  0  0  0  0  0  0  0  0  0  0  0
   -2.3540    2.1690   -1.2950 H   0  0  0  0  0  0  0  0  0  0  0  0
   -1.2500    3.4360   -0.7880 H   0  0  0  0  0  0  0  0  0  0  0  0
   -2.4620    2.5530    1.0650 H   0  0  0  0  0  0  0  0  0  0  0  0
   -0.7170    2.5650    1.2570 H   0  0  0  0  0  0  0  0  0  0  0  0
   -1.8650    0.7130    2.3230 H   0  0  0  0  0  0  0  0  0  0  0  0
   -0.4110   -0.6910    0.0100 H   0  0  0  0  0  0  0  0  0  0  0  0
   -3.9990   -1.8360   -2.1100 C   0  0  0  0  0  0  0  0  0  0  0  0
   -4.2560   -1.6800   -0.6100 C   0  0  2  0  0  0  0  0  0  0  0  0
   -3.0310   -1.1510   -0.0360 N   0  0  0  0  0  0  0  0  0  0  0  0
   -4.4900   -3.0360   -0.0740 C   0  0  0  0  0  0  0  0  0  0  0  0
   -3.6620   -3.5130    0.7420 O   0  0  0  0  0  0  0  0  0  0  0  0
   -5.6130   -3.7890   -0.4620 O   0  0  0  0  0  0  0  0  0  0  0  0
   -3.3410   -1.0290   -2.4930 H   0  0  0  0  0  0  0  0  0  0  0  0
   -4.9840   -1.8250   -2.5900 H   0  0  0  0  0  0  0  0  0  0  0  0
   -3.4570   -2.8050   -2.2750 H   0  0  0  0  0  0  0  0  0  0  0  0
   -5.1060   -1.0060   -0.4820 H   0  0  0  0  0  0  0  0  0  0  0  0
   -2.1490   -1.7090   -0.0950 H   0  0  0  0  0  0  0  0  0  0  0  0
  1 11  1  0  0  0  0
  2 12  1  0  0  0  0
  2  3  1  0  0  0  0
  2  1  1  0  0  0  0
  3 14  1  6  0  0  0
  3  4  1  0  0  0  0
  4 15  1  0  0  0  0
  4 16  1  0  0  0  0
  4 17  1  0  0  0  0
  5  7  1  0  0  0  0
  5  3  1  0  0  0  0
  5 18  1  1  0  0  0
  6  5  1  0  0  0  0
  7  8  2  0  0  0  0
  9  1  1  0  0  0  0
 10  1  1  0  0  0  0
 13  2  1  0  0  0  0
 19  6  1  0  0  0  0
 20  6  1  0  0  0  0
 21 32  1  0  0  0  0
 22 24  1  0  0  0  0
 22 21  1  0  0  0  0
 23 22  2  0  0  0  0
 24 35  1  0  0  0  0
 25 24  1  0  0  0  0
 25 26  1  0  0  0  0
 26 27  1  0  0  0  0
 27 40  1  0  0  0  0
 27 28  1  0  0  0  0
 27 41  1  0  0  0  0
 28 42  1  1  0  0  0
 29 28  1  0  0  0  0
 29  7  1  0  0  0  0
 30 31  2  0  0  0  0
 30 28  1  0  0  0  0
 33 21  1  0  0  0  0
 34 23  1  0  0  0  0
 36 25  1  0  0  0  0
 37 25  1  0  0  0  0
 38 26  1  0  0  0  0
 39 26  1  0  0  0  0
 43 29  1  0  0  0  0
 44 45  1  0  0  0  0
 45 53  1  1  0  0  0
 45 47  1  0  0  0  0
 45 46  1  0  0  0  0
 46 30  1  0  0  0  0
 47 48  1  0  0  0  0
 49 47  2  0  0  0  0
 50 44  1  0  0  0  0
 51 44  1  0  0  0  0
 52 44  1  0  0  0  0
 54 46  1  0  0  0  0
M  END
$$$$
