IRD.pdb
 OpenBabel07022418393D

 57 56  0  0  1  0  0  0  0  0999 V2000
    3.4600   -1.8610    1.4270 C   0  0  0  0  0  0  0  0  0  0  0  0
    4.3130   -0.6500    1.4950 C   0  0  0  0  0  0  0  0  0  0  0  0
    3.7760    0.5920    0.8990 C   0  0  2  0  0  0  0  0  0  0  0  0
    4.8520    1.6720    1.1050 C   0  0  0  0  0  0  0  0  0  0  0  0
    2.4540    1.0660    1.3810 C   0  0  2  0  0  0  0  0  0  0  0  0
    2.3780    1.3400    2.7830 N   0  0  0  0  0  0  0  0  0  0  0  0
    1.2980    0.3030    0.8380 C   0  0  0  0  0  0  0  0  0  0  0  0
    1.2840   -0.0030   -0.3610 O   0  0  0  0  0  0  0  0  0  0  0  0
    2.5290   -1.8130    1.9840 H   0  0  0  0  0  0  0  0  0  0  0  0
    3.2220   -2.1230    0.3730 H   0  0  0  0  0  0  0  0  0  0  0  0
    3.9920   -2.7800    1.8130 H   0  0  0  0  0  0  0  0  0  0  0  0
    4.6340   -0.4700    2.5570 H   0  0  0  0  0  0  0  0  0  0  0  0
    5.2820   -0.8730    0.9600 H   0  0  0  0  0  0  0  0  0  0  0  0
    3.7150    0.5070   -0.2280 H   0  0  0  0  0  0  0  0  0  0  0  0
    5.8100    1.2210    0.7740 H   0  0  0  0  0  0  0  0  0  0  0  0
    4.6050    2.6070    0.6030 H   0  0  0  0  0  0  0  0  0  0  0  0
    4.9200    1.8360    2.1990 H   0  0  0  0  0  0  0  0  0  0  0  0
    2.3170    2.1010    0.8950 H   0  0  0  0  0  0  0  0  0  0  0  0
    2.2890    0.4090    3.2810 H   0  0  0  0  0  0  0  0  0  0  0  0
    1.4680    1.8290    2.9650 H   0  0  0  0  0  0  0  0  0  0  0  0
   -1.0440    3.5200   -1.5690 N   0  0  0  0  0  0  0  0  0  0  0  0
   -1.9480    3.3790   -0.4660 C   0  0  0  0  0  0  0  0  0  0  0  0
   -1.8770    4.1060    0.5920 N   0  0  0  0  0  0  0  0  0  0  0  0
   -2.9520    2.3880   -0.5740 N   0  0  0  0  0  0  0  0  0  0  0  0
   -3.5760    1.9060    0.6570 C   0  0  0  0  0  0  0  0  0  0  0  0
   -2.5030    1.1340    1.4050 C   0  0  0  0  0  0  0  0  0  0  0  0
   -2.0180   -0.0380    0.5400 C   0  0  0  0  0  0  0  0  0  0  0  0
   -0.9590   -0.8020    1.2630 C   0  0  2  0  0  0  0  0  0  0  0  0
    0.1980   -0.0940    1.6200 N   0  0  0  0  0  0  0  0  0  0  0  0
   -0.6600   -2.0180    0.4870 C   0  0  0  0  0  0  0  0  0  0  0  0
    0.5040   -2.3360    0.2210 O   0  0  0  0  0  0  0  0  0  0  0  0
   -0.5540    4.4180   -1.7600 H   0  0  0  0  0  0  0  0  0  0  0  0
   -0.8550    2.7200   -2.2090 H   0  0  0  0  0  0  0  0  0  0  0  0
   -1.1050    4.8310    0.6140 H   0  0  0  0  0  0  0  0  0  0  0  0
   -3.2120    2.0380   -1.5010 H   0  0  0  0  0  0  0  0  0  0  0  0
   -3.9800    2.7230    1.2730 H   0  0  0  0  0  0  0  0  0  0  0  0
   -4.4160    1.2460    0.3640 H   0  0  0  0  0  0  0  0  0  0  0  0
   -1.6960    1.7680    1.7550 H   0  0  0  0  0  0  0  0  0  0  0  0
   -2.9920    0.6690    2.2850 H   0  0  0  0  0  0  0  0  0  0  0  0
   -2.9110   -0.6950    0.4910 H   0  0  0  0  0  0  0  0  0  0  0  0
   -1.7900    0.2540   -0.4790 H   0  0  0  0  0  0  0  0  0  0  0  0
   -1.4490   -1.1690    2.2330 H   0  0  0  0  0  0  0  0  0  0  0  0
    0.2790    0.2050    2.6480 H   0  0  0  0  0  0  0  0  0  0  0  0
   -1.7140   -2.8420    0.0350 N   0  0  0  0  0  0  0  0  0  0  0  0
   -1.4230   -4.0580   -0.7420 C   0  0  1  0  0  0  0  0  0  0  0  0
   -1.9340   -5.2660   -0.0190 C   0  0  0  0  0  0  0  0  0  0  0  0
   -1.6410   -6.5090   -0.7290 C   0  0  0  0  0  0  0  0  0  0  0  0
   -0.9610   -6.5620   -1.7700 O   0  0  0  0  0  0  0  0  0  0  0  0
   -2.0730   -3.8590   -2.0450 C   0  0  0  0  0  0  0  0  0  0  0  0
   -2.7170   -2.7640   -2.2310 O   0  0  0  0  0  0  0  0  0  0  0  0
   -2.1410   -7.7070   -0.2300 O   0  0  0  0  0  0  0  0  0  0  0  0
   -2.0730   -4.7290   -3.1140 O   0  0  0  0  0  0  0  0  0  0  0  0
   -2.7220   -2.6570    0.2150 H   0  0  0  0  0  0  0  0  0  0  0  0
   -0.3390   -4.1340   -0.8650 H   0  0  0  0  0  0  0  0  0  0  0  0
   -1.4910   -5.3530    0.9950 H   0  0  0  0  0  0  0  0  0  0  0  0
   -3.0500   -5.1650    0.0430 H   0  0  0  0  0  0  0  0  0  0  0  0
   -2.0890   -8.5910   -0.7040 H   0  0  0  0  0  0  0  0  0  0  0  0
  1  2  1  0  0  0  0
  1 11  1  0  0  0  0
  1  9  1  0  0  0  0
  2 12  1  0  0  0  0
  3 14  1  6  0  0  0
  3  4  1  0  0  0  0
  3  5  1  0  0  0  0
  3  2  1  0  0  0  0
  4 17  1  0  0  0  0
  5 18  1  6  0  0  0
  5  6  1  0  0  0  0
  6 20  1  0  0  0  0
  6 19  1  0  0  0  0
  7  5  1  0  0  0  0
  7 29  1  0  0  0  0
  8  7  2  0  0  0  0
 10  1  1  0  0  0  0
 13  2  1  0  0  0  0
 15  4  1  0  0  0  0
 16  4  1  0  0  0  0
 21 22  1  0  0  0  0
 22 23  2  0  0  0  0
 23 34  1  0  0  0  0
 24 22  1  0  0  0  0
 24 25  1  0  0  0  0
 25 36  1  0  0  0  0
 25 26  1  0  0  0  0
 26 38  1  0  0  0  0
 26 39  1  0  0  0  0
 27 28  1  0  0  0  0
 27 26  1  0  0  0  0
 28 29  1  0  0  0  0
 28 42  1  1  0  0  0
 29 43  1  0  0  0  0
 30 28  1  0  0  0  0
 31 30  2  0  0  0  0
 32 21  1  0  0  0  0
 33 21  1  0  0  0  0
 35 24  1  0  0  0  0
 37 25  1  0  0  0  0
 40 27  1  0  0  0  0
 41 27  1  0  0  0  0
 44 53  1  0  0  0  0
 44 30  1  0  0  0  0
 45 54  1  6  0  0  0
 45 46  1  0  0  0  0
 45 44  1  0  0  0  0
 46 56  1  0  0  0  0
 46 55  1  0  0  0  0
 47 51  1  0  0  0  0
 47 46  1  0  0  0  0
 48 47  2  0  0  0  0
 49 45  1  0  0  0  0
 50 49  1  0  0  0  0
 52 49  2  0  0  0  0
 57 51  1  0  0  0  0
M  END
$$$$
