IRF.pdb
 OpenBabel07022418393D

 64 64  0  0  1  0  0  0  0  0999 V2000
   -0.3910    3.6220    4.2110 C   0  0  0  0  0  0  0  0  0  0  0  0
    0.1160    2.3470    3.5530 C   0  0  0  0  0  0  0  0  0  0  0  0
    1.6030    2.4210    3.2890 C   0  0  2  0  0  0  0  0  0  0  0  0
    1.9910    3.5590    2.3810 C   0  0  0  0  0  0  0  0  0  0  0  0
    2.2140    1.1220    2.8240 C   0  0  2  0  0  0  0  0  0  0  0  0
    3.6340    1.3450    2.6030 N   0  0  0  0  0  0  0  0  0  0  0  0
    1.6360    0.6380    1.5360 C   0  0  0  0  0  0  0  0  0  0  0  0
    2.1580    1.1590    0.5290 O   0  0  0  0  0  0  0  0  0  0  0  0
   -0.2870    4.5070    3.5650 H   0  0  0  0  0  0  0  0  0  0  0  0
   -1.4880    3.4810    4.3670 H   0  0  0  0  0  0  0  0  0  0  0  0
    0.0430    3.7460    5.2250 H   0  0  0  0  0  0  0  0  0  0  0  0
   -0.4730    2.1730    2.6310 H   0  0  0  0  0  0  0  0  0  0  0  0
   -0.1610    1.5400    4.2640 H   0  0  0  0  0  0  0  0  0  0  0  0
    2.0900    2.6340    4.2760 H   0  0  0  0  0  0  0  0  0  0  0  0
    1.4460    4.4880    2.5940 H   0  0  0  0  0  0  0  0  0  0  0  0
    1.8070    3.2840    1.3260 H   0  0  0  0  0  0  0  0  0  0  0  0
    3.0790    3.8120    2.4540 H   0  0  0  0  0  0  0  0  0  0  0  0
    2.0670    0.3410    3.5690 H   0  0  0  0  0  0  0  0  0  0  0  0
    3.9640    0.6490    1.8630 H   0  0  0  0  0  0  0  0  0  0  0  0
    4.1040    1.1660    3.5150 H   0  0  0  0  0  0  0  0  0  0  0  0
    2.1290    2.6950   -4.7130 N   0  0  0  0  0  0  0  0  0  0  0  0
    2.4010    1.3580   -4.4310 C   0  0  0  0  0  0  0  0  0  0  0  0
    3.3830    0.6850   -4.9410 N   0  0  0  0  0  0  0  0  0  0  0  0
    1.5330    0.6850   -3.5130 N   0  0  0  0  0  0  0  0  0  0  0  0
    1.4390   -0.7310   -3.4120 C   0  0  0  0  0  0  0  0  0  0  0  0
    0.4500   -1.0660   -2.2850 C   0  0  0  0  0  0  0  0  0  0  0  0
    0.9340   -0.5610   -0.9790 C   0  0  0  0  0  0  0  0  0  0  0  0
    0.0070   -0.7910    0.2130 C   0  0  2  0  0  0  0  0  0  0  0  0
    0.6280   -0.3020    1.4340 N   0  0  0  0  0  0  0  0  0  0  0  0
   -0.4810   -2.1460    0.3350 C   0  0  0  0  0  0  0  0  0  0  0  0
   -0.1700   -2.8480    1.3600 O   0  0  0  0  0  0  0  0  0  0  0  0
    2.5700    3.4690   -4.1310 H   0  0  0  0  0  0  0  0  0  0  0  0
    1.5000    3.0460   -5.4810 H   0  0  0  0  0  0  0  0  0  0  0  0
    3.5600   -0.3100   -4.7100 H   0  0  0  0  0  0  0  0  0  0  0  0
    0.9300    1.2830   -2.9000 H   0  0  0  0  0  0  0  0  0  0  0  0
    1.0340   -1.2200   -4.3340 H   0  0  0  0  0  0  0  0  0  0  0  0
    2.3910   -1.2050   -3.0960 H   0  0  0  0  0  0  0  0  0  0  0  0
   -0.5020   -0.6330   -2.6200 H   0  0  0  0  0  0  0  0  0  0  0  0
    0.4900   -2.1890   -2.2770 H   0  0  0  0  0  0  0  0  0  0  0  0
    1.0330    0.5580   -1.1250 H   0  0  0  0  0  0  0  0  0  0  0  0
    1.9540   -0.9200   -0.7180 H   0  0  0  0  0  0  0  0  0  0  0  0
   -0.8200   -0.0910   -0.0080 H   0  0  0  0  0  0  0  0  0  0  0  0
    0.2870   -0.7060    2.3800 H   0  0  0  0  0  0  0  0  0  0  0  0
   -1.3170   -2.8210   -0.5900 N   0  0  0  0  0  0  0  0  0  0  0  0
   -1.7390   -4.1790   -0.4030 C   0  0  1  0  0  0  0  0  0  0  0  0
   -3.2050   -4.3670   -0.1240 C   0  0  0  0  0  0  0  0  0  0  0  0
   -3.6840   -3.6960    1.1010 C   0  0  0  0  0  0  0  0  0  0  0  0
   -4.2290   -2.4420    1.0610 C   0  0  0  0  0  0  0  0  0  0  0  0
   -4.6630   -1.8070    2.2130 C   0  0  0  0  0  0  0  0  0  0  0  0
   -4.5190   -2.5010    3.4150 C   0  0  0  0  0  0  0  0  0  0  0  0
   -3.9820   -3.7340    3.4450 C   0  0  0  0  0  0  0  0  0  0  0  0
   -3.5560   -4.3510    2.2850 C   0  0  0  0  0  0  0  0  0  0  0  0
   -1.4070   -5.0560   -1.5480 C   0  0  0  0  0  0  0  0  0  0  0  0
   -1.6900   -6.2930   -1.4980 O   0  0  0  0  0  0  0  0  0  0  0  0
   -0.8000   -4.5760   -2.6630 O   0  0  0  0  0  0  0  0  0  0  0  0
   -1.6490   -2.3160   -1.4130 H   0  0  0  0  0  0  0  0  0  0  0  0
   -1.2230   -4.5990    0.5060 H   0  0  0  0  0  0  0  0  0  0  0  0
   -3.4490   -5.4640   -0.0140 H   0  0  0  0  0  0  0  0  0  0  0  0
   -3.7930   -4.0590   -1.0240 H   0  0  0  0  0  0  0  0  0  0  0  0
   -4.3640   -1.8850    0.1330 H   0  0  0  0  0  0  0  0  0  0  0  0
   -5.0950   -0.8270    2.2410 H   0  0  0  0  0  0  0  0  0  0  0  0
   -4.8670   -2.0120    4.3360 H   0  0  0  0  0  0  0  0  0  0  0  0
   -3.8910   -4.2430    4.4190 H   0  0  0  0  0  0  0  0  0  0  0  0
   -3.1490   -5.3500    2.3980 H   0  0  0  0  0  0  0  0  0  0  0  0
  1 10  1  0  0  0  0
  1 11  1  0  0  0  0
  2  1  1  0  0  0  0
  2 13  1  0  0  0  0
  3  2  1  0  0  0  0
  3 14  1  1  0  0  0
  4 17  1  0  0  0  0
  4 15  1  0  0  0  0
  4  3  1  0  0  0  0
  5  3  1  0  0  0  0
  5 18  1  1  0  0  0
  6  5  1  0  0  0  0
  6 20  1  0  0  0  0
  7  5  1  0  0  0  0
  8  7  2  0  0  0  0
  9  1  1  0  0  0  0
 12  2  1  0  0  0  0
 16  4  1  0  0  0  0
 19  6  1  0  0  0  0
 21 22  1  0  0  0  0
 21 32  1  0  0  0  0
 22 24  1  0  0  0  0
 23 34  1  0  0  0  0
 23 22  2  0  0  0  0
 24 25  1  0  0  0  0
 24 35  1  0  0  0  0
 25 37  1  0  0  0  0
 25 26  1  0  0  0  0
 26 39  1  0  0  0  0
 26 27  1  0  0  0  0
 27 41  1  0  0  0  0
 27 28  1  0  0  0  0
 28 42  1  6  0  0  0
 28 30  1  0  0  0  0
 28 29  1  0  0  0  0
 29  7  1  0  0  0  0
 29 43  1  0  0  0  0
 30 31  2  0  0  0  0
 33 21  1  0  0  0  0
 36 25  1  0  0  0  0
 38 26  1  0  0  0  0
 40 27  1  0  0  0  0
 44 45  1  0  0  0  0
 44 30  1  0  0  0  0
 45 46  1  0  0  0  0
 45 57  1  1  0  0  0
 46 58  1  0  0  0  0
 46 47  1  0  0  0  0
 47 52  1  0  0  0  0
 48 47  2  0  0  0  0
 48 49  1  0  0  0  0
 49 61  1  0  0  0  0
 49 50  2  0  0  0  0
 50 51  1  0  0  0  0
 50 62  1  0  0  0  0
 51 63  1  0  0  0  0
 52 64  1  0  0  0  0
 52 51  2  0  0  0  0
 53 54  1  0  0  0  0
 53 45  1  0  0  0  0
 55 53  2  0  0  0  0
 56 44  1  0  0  0  0
 59 46  1  0  0  0  0
 60 48  1  0  0  0  0
M  END
$$$$
