IRG.pdb
 OpenBabel07022418393D

 51 50  0  0  1  0  0  0  0  0999 V2000
   -0.1850   -4.5410    3.5740 C   0  0  0  0  0  0  0  0  0  0  0  0
    0.4530   -3.1950    3.8180 C   0  0  0  0  0  0  0  0  0  0  0  0
   -0.2930   -2.0820    3.1130 C   0  0  2  0  0  0  0  0  0  0  0  0
   -1.7110   -2.0940    3.6720 C   0  0  0  0  0  0  0  0  0  0  0  0
   -0.3840   -2.3470    1.6170 C   0  0  2  0  0  0  0  0  0  0  0  0
    0.9350   -2.4350    1.0730 N   0  0  0  0  0  0  0  0  0  0  0  0
   -1.2030   -1.2840    1.0300 C   0  0  0  0  0  0  0  0  0  0  0  0
   -2.3720   -1.1000    1.4140 O   0  0  0  0  0  0  0  0  0  0  0  0
   -1.3060   -4.4870    3.6240 H   0  0  0  0  0  0  0  0  0  0  0  0
    0.1660   -4.9850    2.6250 H   0  0  0  0  0  0  0  0  0  0  0  0
    0.1110   -5.2470    4.3830 H   0  0  0  0  0  0  0  0  0  0  0  0
    1.5100   -3.2610    3.5220 H   0  0  0  0  0  0  0  0  0  0  0  0
    0.3850   -2.9990    4.9060 H   0  0  0  0  0  0  0  0  0  0  0  0
    0.2280   -1.1370    3.2980 H   0  0  0  0  0  0  0  0  0  0  0  0
   -1.6920   -2.4810    4.7330 H   0  0  0  0  0  0  0  0  0  0  0  0
   -2.1310   -1.0770    3.7450 H   0  0  0  0  0  0  0  0  0  0  0  0
   -2.2970   -2.7790    3.0410 H   0  0  0  0  0  0  0  0  0  0  0  0
   -0.8500   -3.3590    1.5220 H   0  0  0  0  0  0  0  0  0  0  0  0
    1.6220   -1.7820    1.4780 H   0  0  0  0  0  0  0  0  0  0  0  0
    1.2910   -3.4150    0.9850 H   0  0  0  0  0  0  0  0  0  0  0  0
    2.7610    2.0900    3.1770 N   0  0  0  0  0  0  0  0  0  0  0  0
    2.5380    1.6630    1.8350 C   0  0  0  0  0  0  0  0  0  0  0  0
    3.3980    0.8510    1.3060 N   0  0  0  0  0  0  0  0  0  0  0  0
    1.4050    2.1360    1.1490 N   0  0  0  0  0  0  0  0  0  0  0  0
    1.3480    2.0380   -0.2890 C   0  0  0  0  0  0  0  0  0  0  0  0
    0.0680    2.5960   -0.7920 C   0  0  0  0  0  0  0  0  0  0  0  0
   -1.1980    2.0320   -0.3230 C   0  0  0  0  0  0  0  0  0  0  0  0
   -1.5450    0.6210   -0.5550 C   0  0  2  0  0  0  0  0  0  0  0  0
   -0.7210   -0.3970   -0.0110 N   0  0  0  0  0  0  0  0  0  0  0  0
   -1.7230    0.4190   -2.0220 C   0  0  0  0  0  0  0  0  0  0  0  0
   -2.4030    1.1680   -2.7620 O   0  0  0  0  0  0  0  0  0  0  0  0
    3.4960    1.6510    3.7860 H   0  0  0  0  0  0  0  0  0  0  0  0
    2.2080    2.8560    3.6190 H   0  0  0  0  0  0  0  0  0  0  0  0
    4.2290    0.5160    1.8370 H   0  0  0  0  0  0  0  0  0  0  0  0
    0.6190    2.5510    1.6650 H   0  0  0  0  0  0  0  0  0  0  0  0
    2.1460    2.7900   -0.6550 H   0  0  0  0  0  0  0  0  0  0  0  0
    1.6850    1.0960   -0.7140 H   0  0  0  0  0  0  0  0  0  0  0  0
    0.0680    3.6920   -0.4790 H   0  0  0  0  0  0  0  0  0  0  0  0
    0.1570    2.6760   -1.9070 H   0  0  0  0  0  0  0  0  0  0  0  0
   -1.3300    2.3520    0.7490 H   0  0  0  0  0  0  0  0  0  0  0  0
   -2.0220    2.6360   -0.8350 H   0  0  0  0  0  0  0  0  0  0  0  0
   -2.6230    0.5160   -0.1600 H   0  0  0  0  0  0  0  0  0  0  0  0
    0.2470   -0.6030   -0.3020 H   0  0  0  0  0  0  0  0  0  0  0  0
   -1.0790   -0.6980   -2.6210 N   0  0  0  0  0  0  0  0  0  0  0  0
   -1.2010   -0.9670   -4.0390 C   0  0  0  0  0  0  0  0  0  0  0  0
   -0.4320   -2.1840   -4.3810 C   0  0  0  0  0  0  0  0  0  0  0  0
   -0.3680   -2.6400   -5.5460 O   0  0  0  0  0  0  0  0  0  0  0  0
    0.2540   -2.8620   -3.3880 O   0  0  0  0  0  0  0  0  0  0  0  0
   -0.4890   -1.3690   -2.0430 H   0  0  0  0  0  0  0  0  0  0  0  0
   -0.8210   -0.1090   -4.6540 H   0  0  0  0  0  0  0  0  0  0  0  0
   -2.2880   -1.1550   -4.2700 H   0  0  0  0  0  0  0  0  0  0  0  0
  1  9  1  0  0  0  0
  1  2  1  0  0  0  0
  1 11  1  0  0  0  0
  2 13  1  0  0  0  0
  3 14  1  1  0  0  0
  3  4  1  0  0  0  0
  3  2  1  0  0  0  0
  4 16  1  0  0  0  0
  4 15  1  0  0  0  0
  5 18  1  6  0  0  0
  5  3  1  0  0  0  0
  6 19  1  0  0  0  0
  6  5  1  0  0  0  0
  7  8  2  0  0  0  0
  7  5  1  0  0  0  0
 10  1  1  0  0  0  0
 12  2  1  0  0  0  0
 17  4  1  0  0  0  0
 20  6  1  0  0  0  0
 21 33  1  0  0  0  0
 21 32  1  0  0  0  0
 22 21  1  0  0  0  0
 23 22  2  0  0  0  0
 23 34  1  0  0  0  0
 24 35  1  0  0  0  0
 24 22  1  0  0  0  0
 25 24  1  0  0  0  0
 26 38  1  0  0  0  0
 26 27  1  0  0  0  0
 26 25  1  0  0  0  0
 27 40  1  0  0  0  0
 28 27  1  0  0  0  0
 28 42  1  1  0  0  0
 28 29  1  0  0  0  0
 29  7  1  0  0  0  0
 30 28  1  0  0  0  0
 31 30  2  0  0  0  0
 36 25  1  0  0  0  0
 37 25  1  0  0  0  0
 39 26  1  0  0  0  0
 41 27  1  0  0  0  0
 43 29  1  0  0  0  0
 44 49  1  0  0  0  0
 44 30  1  0  0  0  0
 45 44  1  0  0  0  0
 46 45  1  0  0  0  0
 46 48  1  0  0  0  0
 47 46  2  0  0  0  0
 50 45  1  0  0  0  0
 51 45  1  0  0  0  0
M  END
$$$$
