IRH.pdb
 OpenBabel07022418393D

 61 61  0  0  1  0  0  0  0  0999 V2000
    2.3940    3.2770    2.6080 C   0  0  0  0  0  0  0  0  0  0  0  0
    2.3480    2.0470    1.7210 C   0  0  0  0  0  0  0  0  0  0  0  0
    3.1230    0.9110    2.3880 C   0  0  2  0  0  0  0  0  0  0  0  0
    4.5670    1.2870    2.6090 C   0  0  0  0  0  0  0  0  0  0  0  0
    2.9610   -0.3790    1.6210 C   0  0  2  0  0  0  0  0  0  0  0  0
    3.4590   -0.1990    0.2820 N   0  0  0  0  0  0  0  0  0  0  0  0
    1.5080   -0.7010    1.6250 C   0  0  0  0  0  0  0  0  0  0  0  0
    0.9340   -0.8590    2.7330 O   0  0  0  0  0  0  0  0  0  0  0  0
    1.6180    4.0090    2.3300 H   0  0  0  0  0  0  0  0  0  0  0  0
    3.3760    3.7430    2.6770 H   0  0  0  0  0  0  0  0  0  0  0  0
    2.1310    2.9270    3.6500 H   0  0  0  0  0  0  0  0  0  0  0  0
    2.7290    2.2730    0.7130 H   0  0  0  0  0  0  0  0  0  0  0  0
    1.2810    1.7580    1.6470 H   0  0  0  0  0  0  0  0  0  0  0  0
    2.6620    0.8290    3.4150 H   0  0  0  0  0  0  0  0  0  0  0  0
    5.1000    0.3500    2.8810 H   0  0  0  0  0  0  0  0  0  0  0  0
    4.6170    1.9390    3.5130 H   0  0  0  0  0  0  0  0  0  0  0  0
    5.0300    1.7710    1.7140 H   0  0  0  0  0  0  0  0  0  0  0  0
    3.5460   -1.1490    2.1710 H   0  0  0  0  0  0  0  0  0  0  0  0
    4.4250    0.2150    0.3510 H   0  0  0  0  0  0  0  0  0  0  0  0
    2.9050    0.4930   -0.2620 H   0  0  0  0  0  0  0  0  0  0  0  0
   -0.1500    4.2910   -1.0350 N   0  0  0  0  0  0  0  0  0  0  0  0
   -0.3550    3.0770   -1.7610 C   0  0  0  0  0  0  0  0  0  0  0  0
    0.5840    2.5720   -2.4670 N   0  0  0  0  0  0  0  0  0  0  0  0
   -1.6040    2.4130   -1.7110 N   0  0  0  0  0  0  0  0  0  0  0  0
   -1.8050    1.1380   -2.3850 C   0  0  0  0  0  0  0  0  0  0  0  0
   -0.9980    0.0470   -1.7150 C   0  0  0  0  0  0  0  0  0  0  0  0
   -1.4500   -0.0770   -0.2730 C   0  0  0  0  0  0  0  0  0  0  0  0
   -0.6800   -1.1520    0.4570 C   0  0  2  0  0  0  0  0  0  0  0  0
    0.7330   -0.8400    0.4540 N   0  0  0  0  0  0  0  0  0  0  0  0
   -0.9280   -2.4970   -0.1610 C   0  0  0  0  0  0  0  0  0  0  0  0
    0.0090   -3.2030   -0.6120 O   0  0  0  0  0  0  0  0  0  0  0  0
   -0.5120    4.4600   -0.0870 H   0  0  0  0  0  0  0  0  0  0  0  0
    0.4000    5.0760   -1.4680 H   0  0  0  0  0  0  0  0  0  0  0  0
    1.5030    3.0510   -2.5110 H   0  0  0  0  0  0  0  0  0  0  0  0
   -2.4010    2.8280   -1.1900 H   0  0  0  0  0  0  0  0  0  0  0  0
   -2.8910    0.8930   -2.4360 H   0  0  0  0  0  0  0  0  0  0  0  0
   -1.4280    1.2840   -3.4260 H   0  0  0  0  0  0  0  0  0  0  0  0
    0.0670    0.3310   -1.8070 H   0  0  0  0  0  0  0  0  0  0  0  0
   -1.2280   -0.9200   -2.1970 H   0  0  0  0  0  0  0  0  0  0  0  0
   -1.3290    0.8720    0.2610 H   0  0  0  0  0  0  0  0  0  0  0  0
   -2.5230   -0.3580   -0.2960 H   0  0  0  0  0  0  0  0  0  0  0  0
   -1.0950   -1.2240    1.4800 H   0  0  0  0  0  0  0  0  0  0  0  0
    1.2100   -0.7090   -0.4620 H   0  0  0  0  0  0  0  0  0  0  0  0
   -2.2580   -2.9700   -0.2300 N   0  0  0  0  0  0  0  0  0  0  0  0
   -2.6260   -4.2430   -0.7940 C   0  0  1  0  0  0  0  0  0  0  0  0
   -3.3810   -5.0000    0.3010 C   0  0  0  0  0  0  0  0  0  0  0  0
   -2.5530   -5.2060    1.5050 C   0  0  0  0  0  0  0  0  0  0  0  0
   -3.0050   -5.8600    2.6290 C   0  0  0  0  0  0  0  0  0  0  0  0
   -2.0190   -5.8790    3.5400 N   0  0  0  0  0  0  0  0  0  0  0  0
   -0.9580   -5.2430    2.9900 C   0  0  0  0  0  0  0  0  0  0  0  0
   -1.2660   -4.8270    1.7500 N   0  0  0  0  0  0  0  0  0  0  0  0
   -3.6120   -4.0150   -1.8760 C   0  0  0  0  0  0  0  0  0  0  0  0
   -4.1080   -4.9520   -2.5530 O   0  0  0  0  0  0  0  0  0  0  0  0
   -4.0180   -2.7270   -2.1700 O   0  0  0  0  0  0  0  0  0  0  0  0
   -3.0610   -2.3890    0.1430 H   0  0  0  0  0  0  0  0  0  0  0  0
   -1.7500   -4.8230   -1.1400 H   0  0  0  0  0  0  0  0  0  0  0  0
   -3.7450   -5.9800   -0.1200 H   0  0  0  0  0  0  0  0  0  0  0  0
   -4.2730   -4.4280    0.5990 H   0  0  0  0  0  0  0  0  0  0  0  0
   -3.9980   -6.2900    2.7590 H   0  0  0  0  0  0  0  0  0  0  0  0
   -2.1170   -6.3140    4.4680 H   0  0  0  0  0  0  0  0  0  0  0  0
    0.0010   -5.0850    3.4600 H   0  0  0  0  0  0  0  0  0  0  0  0
  1 10  1  0  0  0  0
  1 11  1  0  0  0  0
  2  3  1  0  0  0  0
  2  1  1  0  0  0  0
  3  4  1  0  0  0  0
  3 14  1  1  0  0  0
  4 15  1  0  0  0  0
  4 16  1  0  0  0  0
  5  7  1  0  0  0  0
  5 18  1  1  0  0  0
  5  3  1  0  0  0  0
  6 19  1  0  0  0  0
  6  5  1  0  0  0  0
  7  8  2  0  0  0  0
  9  1  1  0  0  0  0
 12  2  1  0  0  0  0
 13  2  1  0  0  0  0
 17  4  1  0  0  0  0
 20  6  1  0  0  0  0
 21 32  1  0  0  0  0
 22 24  1  0  0  0  0
 22 21  1  0  0  0  0
 23 22  2  0  0  0  0
 24 35  1  0  0  0  0
 25 26  1  0  0  0  0
 25 24  1  0  0  0  0
 26 27  1  0  0  0  0
 27 40  1  0  0  0  0
 27 28  1  0  0  0  0
 28 42  1  1  0  0  0
 29 28  1  0  0  0  0
 29  7  1  0  0  0  0
 30 28  1  0  0  0  0
 31 30  2  0  0  0  0
 33 21  1  0  0  0  0
 34 23  1  0  0  0  0
 36 25  1  0  0  0  0
 37 25  1  0  0  0  0
 38 26  1  0  0  0  0
 39 26  1  0  0  0  0
 41 27  1  0  0  0  0
 43 29  1  0  0  0  0
 44 30  1  0  0  0  0
 44 55  1  0  0  0  0
 45 56  1  6  0  0  0
 45 44  1  0  0  0  0
 45 46  1  0  0  0  0
 46 58  1  0  0  0  0
 46 47  1  0  0  0  0
 47 51  1  0  0  0  0
 47 48  2  0  0  0  0
 48 59  1  0  0  0  0
 48 49  1  0  0  0  0
 49 60  1  0  0  0  0
 50 61  1  0  0  0  0
 50 49  1  0  0  0  0
 51 50  2  0  0  0  0
 52 45  1  0  0  0  0
 53 52  2  0  0  0  0
 54 52  1  0  0  0  0
 57 46  1  0  0  0  0
M  END
$$$$
