IRK.pdb
 OpenBabel07022418393D

 65 64  0  0  1  0  0  0  0  0999 V2000
   -2.5490    0.3940    4.5440 C   0  0  0  0  0  0  0  0  0  0  0  0
   -1.4420    1.3730    4.2770 C   0  0  0  0  0  0  0  0  0  0  0  0
   -0.0940    0.8930    4.6720 C   0  0  2  0  0  0  0  0  0  0  0  0
    0.9790    1.9020    4.4090 C   0  0  0  0  0  0  0  0  0  0  0  0
    0.3400   -0.4180    4.0550 C   0  0  2  0  0  0  0  0  0  0  0  0
    1.6900   -0.6320    4.6360 N   0  0  0  0  0  0  0  0  0  0  0  0
    0.5510   -0.3180    2.5740 C   0  0  0  0  0  0  0  0  0  0  0  0
    1.7360   -0.1360    2.1370 O   0  0  0  0  0  0  0  0  0  0  0  0
   -2.2150   -0.6270    4.3450 H   0  0  0  0  0  0  0  0  0  0  0  0
   -3.4230    0.6840    3.9120 H   0  0  0  0  0  0  0  0  0  0  0  0
   -2.8560    0.5250    5.6260 H   0  0  0  0  0  0  0  0  0  0  0  0
   -1.5280    1.6990    3.2210 H   0  0  0  0  0  0  0  0  0  0  0  0
   -1.6500    2.2900    4.8960 H   0  0  0  0  0  0  0  0  0  0  0  0
   -0.1260    0.6990    5.7750 H   0  0  0  0  0  0  0  0  0  0  0  0
    1.5140    1.7830    3.4550 H   0  0  0  0  0  0  0  0  0  0  0  0
    1.7350    1.8500    5.2500 H   0  0  0  0  0  0  0  0  0  0  0  0
    0.4950    2.9130    4.4280 H   0  0  0  0  0  0  0  0  0  0  0  0
   -0.2590   -1.2850    4.3440 H   0  0  0  0  0  0  0  0  0  0  0  0
    2.0450   -1.5920    4.3410 H   0  0  0  0  0  0  0  0  0  0  0  0
    2.3060    0.0450    4.1380 H   0  0  0  0  0  0  0  0  0  0  0  0
    4.3910    0.6950    0.5420 N   0  0  0  0  0  0  0  0  0  0  0  0
    3.6290    1.5450   -0.2780 C   0  0  0  0  0  0  0  0  0  0  0  0
    3.5910    1.3260   -1.5680 N   0  0  0  0  0  0  0  0  0  0  0  0
    2.9070    2.6410    0.2660 N   0  0  0  0  0  0  0  0  0  0  0  0
    1.5800    2.9710   -0.1810 C   0  0  0  0  0  0  0  0  0  0  0  0
    0.5150    1.9900    0.2240 C   0  0  0  0  0  0  0  0  0  0  0  0
    0.7010    0.5980   -0.2580 C   0  0  0  0  0  0  0  0  0  0  0  0
   -0.4260   -0.3250    0.2140 C   0  0  2  0  0  0  0  0  0  0  0  0
   -0.5150   -0.4220    1.6460 N   0  0  0  0  0  0  0  0  0  0  0  0
   -0.2550   -1.6110   -0.4820 C   0  0  0  0  0  0  0  0  0  0  0  0
   -0.1670   -2.6880    0.1610 O   0  0  0  0  0  0  0  0  0  0  0  0
    5.0500    1.0150    1.2970 H   0  0  0  0  0  0  0  0  0  0  0  0
    4.3030   -0.3280    0.3990 H   0  0  0  0  0  0  0  0  0  0  0  0
    3.0400    1.9300   -2.2160 H   0  0  0  0  0  0  0  0  0  0  0  0
    3.4160    3.1920    1.0220 H   0  0  0  0  0  0  0  0  0  0  0  0
    1.3190    3.9520    0.3010 H   0  0  0  0  0  0  0  0  0  0  0  0
    1.5580    3.1790   -1.2800 H   0  0  0  0  0  0  0  0  0  0  0  0
   -0.4860    2.4070   -0.1010 H   0  0  0  0  0  0  0  0  0  0  0  0
    0.4560    2.0360    1.3340 H   0  0  0  0  0  0  0  0  0  0  0  0
    1.6440    0.1390   -0.0410 H   0  0  0  0  0  0  0  0  0  0  0  0
    0.5950    0.6350   -1.3790 H   0  0  0  0  0  0  0  0  0  0  0  0
   -1.3480    0.2430   -0.1200 H   0  0  0  0  0  0  0  0  0  0  0  0
   -1.4950   -0.5940    2.0730 H   0  0  0  0  0  0  0  0  0  0  0  0
   -0.1770   -1.7110   -1.9060 N   0  0  0  0  0  0  0  0  0  0  0  0
    0.0010   -2.9850   -2.5220 C   0  0  1  0  0  0  0  0  0  0  0  0
   -0.9880   -3.3580   -3.5700 C   0  0  0  0  0  0  0  0  0  0  0  0
   -2.4090   -3.4270   -3.1300 C   0  0  0  0  0  0  0  0  0  0  0  0
   -2.6550   -4.4330   -2.0380 C   0  0  0  0  0  0  0  0  0  0  0  0
   -4.1500   -4.3980   -1.6960 C   0  0  0  0  0  0  0  0  0  0  0  0
   -4.5210   -3.0810   -1.2520 N   0  0  0  0  0  0  0  0  0  0  0  0
    1.3580   -2.9850   -3.1770 C   0  0  0  0  0  0  0  0  0  0  0  0
    1.7480   -4.0080   -3.7840 O   0  0  0  0  0  0  0  0  0  0  0  0
    2.1920   -1.8860   -3.1290 O   0  0  0  0  0  0  0  0  0  0  0  0
   -0.2540   -0.8520   -2.4940 H   0  0  0  0  0  0  0  0  0  0  0  0
    0.0490   -3.8060   -1.7630 H   0  0  0  0  0  0  0  0  0  0  0  0
   -0.9190   -2.7440   -4.4920 H   0  0  0  0  0  0  0  0  0  0  0  0
   -0.7090   -4.3970   -3.9120 H   0  0  0  0  0  0  0  0  0  0  0  0
   -2.8230   -2.4620   -2.7900 H   0  0  0  0  0  0  0  0  0  0  0  0
   -3.0120   -3.7120   -4.0300 H   0  0  0  0  0  0  0  0  0  0  0  0
   -2.3810   -5.4380   -2.4110 H   0  0  0  0  0  0  0  0  0  0  0  0
   -2.1210   -4.1180   -1.1350 H   0  0  0  0  0  0  0  0  0  0  0  0
   -4.3120   -5.1240   -0.8970 H   0  0  0  0  0  0  0  0  0  0  0  0
   -4.6950   -4.6710   -2.6280 H   0  0  0  0  0  0  0  0  0  0  0  0
   -4.7390   -2.4350   -2.0660 H   0  0  0  0  0  0  0  0  0  0  0  0
   -5.3930   -3.1580   -0.6640 H   0  0  0  0  0  0  0  0  0  0  0  0
  1 11  1  0  0  0  0
  2  1  1  0  0  0  0
  2  3  1  0  0  0  0
  2 13  1  0  0  0  0
  3 14  1  1  0  0  0
  4 17  1  0  0  0  0
  4  3  1  0  0  0  0
  4 16  1  0  0  0  0
  5 18  1  1  0  0  0
  5  6  1  0  0  0  0
  5  3  1  0  0  0  0
  7  5  1  0  0  0  0
  8  7  2  0  0  0  0
  9  1  1  0  0  0  0
 10  1  1  0  0  0  0
 12  2  1  0  0  0  0
 15  4  1  0  0  0  0
 19  6  1  0  0  0  0
 20  6  1  0  0  0  0
 21 32  1  0  0  0  0
 22 24  1  0  0  0  0
 22 21  1  0  0  0  0
 23 22  2  0  0  0  0
 24 35  1  0  0  0  0
 25 26  1  0  0  0  0
 25 24  1  0  0  0  0
 25 36  1  0  0  0  0
 26 39  1  0  0  0  0
 27 40  1  0  0  0  0
 27 28  1  0  0  0  0
 27 26  1  0  0  0  0
 28 42  1  6  0  0  0
 28 29  1  0  0  0  0
 29 43  1  0  0  0  0
 29  7  1  0  0  0  0
 30 31  2  0  0  0  0
 30 28  1  0  0  0  0
 33 21  1  0  0  0  0
 34 23  1  0  0  0  0
 37 25  1  0  0  0  0
 38 26  1  0  0  0  0
 41 27  1  0  0  0  0
 44 30  1  0  0  0  0
 45 44  1  0  0  0  0
 45 55  1  1  0  0  0
 46 47  1  0  0  0  0
 46 45  1  0  0  0  0
 47 58  1  0  0  0  0
 47 48  1  0  0  0  0
 48 49  1  0  0  0  0
 48 61  1  0  0  0  0
 49 50  1  0  0  0  0
 49 62  1  0  0  0  0
 50 65  1  0  0  0  0
 51 53  1  0  0  0  0
 51 45  1  0  0  0  0
 52 51  2  0  0  0  0
 54 44  1  0  0  0  0
 56 46  1  0  0  0  0
 57 46  1  0  0  0  0
 59 47  1  0  0  0  0
 60 48  1  0  0  0  0
 63 49  1  0  0  0  0
 64 50  1  0  0  0  0
M  END
$$$$
