IRL.pdb
 OpenBabel07022418393D

 63 62  0  0  1  0  0  0  0  0999 V2000
   -0.7060   -2.7460    3.0880 C   0  0  0  0  0  0  0  0  0  0  0  0
    0.3590   -2.6100    4.1100 C   0  0  0  0  0  0  0  0  0  0  0  0
    1.1110   -1.3360    4.1020 C   0  0  2  0  0  0  0  0  0  0  0  0
    2.1740   -1.3240    5.1950 C   0  0  0  0  0  0  0  0  0  0  0  0
    0.3240   -0.0900    4.2370 C   0  0  2  0  0  0  0  0  0  0  0  0
   -0.4460   -0.0210    5.4660 N   0  0  0  0  0  0  0  0  0  0  0  0
   -0.4440    0.3190    3.0430 C   0  0  0  0  0  0  0  0  0  0  0  0
   -1.6610    0.6550    3.1160 O   0  0  0  0  0  0  0  0  0  0  0  0
   -1.6160   -2.1440    3.2920 H   0  0  0  0  0  0  0  0  0  0  0  0
   -1.0600   -3.8210    3.1310 H   0  0  0  0  0  0  0  0  0  0  0  0
   -0.3400   -2.6330    2.0450 H   0  0  0  0  0  0  0  0  0  0  0  0
   -0.1070   -2.7180    5.1310 H   0  0  0  0  0  0  0  0  0  0  0  0
    1.0300   -3.4860    4.0270 H   0  0  0  0  0  0  0  0  0  0  0  0
    1.6720   -1.2760    3.1350 H   0  0  0  0  0  0  0  0  0  0  0  0
    2.1860   -0.3790    5.7620 H   0  0  0  0  0  0  0  0  0  0  0  0
    3.1970   -1.4800    4.7780 H   0  0  0  0  0  0  0  0  0  0  0  0
    2.0060   -2.2200    5.8540 H   0  0  0  0  0  0  0  0  0  0  0  0
    1.0930    0.7430    4.3580 H   0  0  0  0  0  0  0  0  0  0  0  0
    0.0130   -0.6460    6.1620 H   0  0  0  0  0  0  0  0  0  0  0  0
   -0.4690    0.9230    5.8900 H   0  0  0  0  0  0  0  0  0  0  0  0
    3.6540    2.0150   -2.6880 N   0  0  0  0  0  0  0  0  0  0  0  0
    2.3550    2.5390   -2.8690 C   0  0  0  0  0  0  0  0  0  0  0  0
    2.1790    3.7700   -3.1900 N   0  0  0  0  0  0  0  0  0  0  0  0
    1.2240    1.7000   -2.6960 N   0  0  0  0  0  0  0  0  0  0  0  0
   -0.0790    2.2460   -2.3550 C   0  0  0  0  0  0  0  0  0  0  0  0
   -0.1240    2.8070   -0.9850 C   0  0  0  0  0  0  0  0  0  0  0  0
    0.1990    1.9690    0.1530 C   0  0  0  0  0  0  0  0  0  0  0  0
   -0.5950    0.7750    0.5460 C   0  0  2  0  0  0  0  0  0  0  0  0
    0.1750    0.3420    1.7970 N   0  0  0  0  0  0  0  0  0  0  0  0
   -0.4240   -0.3990   -0.3180 C   0  0  0  0  0  0  0  0  0  0  0  0
    0.5370   -1.2210   -0.1340 O   0  0  0  0  0  0  0  0  0  0  0  0
    4.2670    2.2740   -1.8950 H   0  0  0  0  0  0  0  0  0  0  0  0
    4.0580    1.3190   -3.3780 H   0  0  0  0  0  0  0  0  0  0  0  0
    2.9580    4.4470   -3.3350 H   0  0  0  0  0  0  0  0  0  0  0  0
    1.3910    0.6810   -2.8240 H   0  0  0  0  0  0  0  0  0  0  0  0
   -0.2520    3.1220   -3.0720 H   0  0  0  0  0  0  0  0  0  0  0  0
   -0.8600    1.5590   -2.5570 H   0  0  0  0  0  0  0  0  0  0  0  0
    0.5480    3.7230   -1.0070 H   0  0  0  0  0  0  0  0  0  0  0  0
   -1.1650    3.2470   -0.8050 H   0  0  0  0  0  0  0  0  0  0  0  0
    0.3230    2.6560    1.0760 H   0  0  0  0  0  0  0  0  0  0  0  0
    1.2950    1.6060    0.0750 H   0  0  0  0  0  0  0  0  0  0  0  0
   -1.6200    0.9980    0.8550 H   0  0  0  0  0  0  0  0  0  0  0  0
    1.1500    0.0890    1.5870 H   0  0  0  0  0  0  0  0  0  0  0  0
   -3.1390   -2.5160    0.0770 C   0  0  0  0  0  0  0  0  0  0  0  0
   -2.6230   -3.5050   -0.9470 C   0  0  0  0  0  0  0  0  0  0  0  0
   -1.6200   -4.4610   -0.3320 C   0  0  0  0  0  0  0  0  0  0  0  0
   -2.1770   -2.9230   -2.2240 C   0  0  0  0  0  0  0  0  0  0  0  0
   -1.0460   -1.9380   -2.1910 C   0  0  2  0  0  0  0  0  0  0  0  0
   -1.2680   -0.7760   -1.4170 N   0  0  0  0  0  0  0  0  0  0  0  0
   -0.6780   -1.7220   -3.6110 C   0  0  0  0  0  0  0  0  0  0  0  0
   -0.4340   -2.7530   -4.3050 O   0  0  0  0  0  0  0  0  0  0  0  0
   -0.5790   -0.5100   -4.2470 O   0  0  0  0  0  0  0  0  0  0  0  0
   -2.3260   -2.2300    0.7690 H   0  0  0  0  0  0  0  0  0  0  0  0
   -3.9000   -3.0150    0.7550 H   0  0  0  0  0  0  0  0  0  0  0  0
   -3.6800   -1.6820   -0.3690 H   0  0  0  0  0  0  0  0  0  0  0  0
   -3.5170   -4.1530   -1.1990 H   0  0  0  0  0  0  0  0  0  0  0  0
   -0.5880   -4.0780   -0.3680 H   0  0  0  0  0  0  0  0  0  0  0  0
   -1.9780   -4.6590    0.7090 H   0  0  0  0  0  0  0  0  0  0  0  0
   -1.6240   -5.4460   -0.8420 H   0  0  0  0  0  0  0  0  0  0  0  0
   -3.0440   -2.4540   -2.7320 H   0  0  0  0  0  0  0  0  0  0  0  0
   -1.8670   -3.7570   -2.8900 H   0  0  0  0  0  0  0  0  0  0  0  0
   -0.1590   -2.4860   -1.7490 H   0  0  0  0  0  0  0  0  0  0  0  0
   -2.0780   -0.1530   -1.6120 H   0  0  0  0  0  0  0  0  0  0  0  0
  1 10  1  0  0  0  0
  1  9  1  0  0  0  0
  1  2  1  0  0  0  0
  2 12  1  0  0  0  0
  3 14  1  6  0  0  0
  3  2  1  0  0  0  0
  3  5  1  0  0  0  0
  3  4  1  0  0  0  0
  4 15  1  0  0  0  0
  4 17  1  0  0  0  0
  5 18  1  1  0  0  0
  5  6  1  0  0  0  0
  6 20  1  0  0  0  0
  6 19  1  0  0  0  0
  7  8  2  0  0  0  0
  7  5  1  0  0  0  0
 11  1  1  0  0  0  0
 13  2  1  0  0  0  0
 16  4  1  0  0  0  0
 21 32  1  0  0  0  0
 22 24  1  0  0  0  0
 22 21  1  0  0  0  0
 23 22  2  0  0  0  0
 24 25  1  0  0  0  0
 25 26  1  0  0  0  0
 26 39  1  0  0  0  0
 26 27  1  0  0  0  0
 27 28  1  0  0  0  0
 27 40  1  0  0  0  0
 28 42  1  1  0  0  0
 28 29  1  0  0  0  0
 29  7  1  0  0  0  0
 30 31  2  0  0  0  0
 30 28  1  0  0  0  0
 33 21  1  0  0  0  0
 34 23  1  0  0  0  0
 35 24  1  0  0  0  0
 36 25  1  0  0  0  0
 37 25  1  0  0  0  0
 38 26  1  0  0  0  0
 41 27  1  0  0  0  0
 43 29  1  0  0  0  0
 44 54  1  0  0  0  0
 44 53  1  0  0  0  0
 45 46  1  0  0  0  0
 45 44  1  0  0  0  0
 46 58  1  0  0  0  0
 47 48  1  0  0  0  0
 47 45  1  0  0  0  0
 48 62  1  1  0  0  0
 48 49  1  0  0  0  0
 49 30  1  0  0  0  0
 50 48  1  0  0  0  0
 51 50  2  0  0  0  0
 52 50  1  0  0  0  0
 55 44  1  0  0  0  0
 56 45  1  0  0  0  0
 57 46  1  0  0  0  0
 59 46  1  0  0  0  0
 60 47  1  0  0  0  0
 61 47  1  0  0  0  0
 63 49  1  0  0  0  0
M  END
$$$$
