IRM.pdb
 OpenBabel07022418393D

 61 60  0  0  1  0  0  0  0  0999 V2000
    2.5060   -2.3410    0.0880 C   0  0  0  0  0  0  0  0  0  0  0  0
    3.3590   -1.1450    0.1900 C   0  0  0  0  0  0  0  0  0  0  0  0
    3.4350   -0.4320    1.4700 C   0  0  2  0  0  0  0  0  0  0  0  0
    3.9290   -1.3280    2.6050 C   0  0  0  0  0  0  0  0  0  0  0  0
    2.4170    0.5560    1.8560 C   0  0  2  0  0  0  0  0  0  0  0  0
    2.8730    1.0560    3.2080 N   0  0  0  0  0  0  0  0  0  0  0  0
    1.0180    0.1930    2.0080 C   0  0  0  0  0  0  0  0  0  0  0  0
    0.4990    0.1310    3.1770 O   0  0  0  0  0  0  0  0  0  0  0  0
    2.0140   -2.6490    1.0320 H   0  0  0  0  0  0  0  0  0  0  0  0
    3.1230   -3.2530   -0.1880 H   0  0  0  0  0  0  0  0  0  0  0  0
    1.8050   -2.2400   -0.7660 H   0  0  0  0  0  0  0  0  0  0  0  0
    4.4090   -1.4410   -0.1190 H   0  0  0  0  0  0  0  0  0  0  0  0
    3.0860   -0.3890   -0.5990 H   0  0  0  0  0  0  0  0  0  0  0  0
    4.3910    0.2350    1.3310 H   0  0  0  0  0  0  0  0  0  0  0  0
    4.4580   -0.7350    3.3690 H   0  0  0  0  0  0  0  0  0  0  0  0
    4.6650   -2.0310    2.1620 H   0  0  0  0  0  0  0  0  0  0  0  0
    3.1310   -1.9000    3.0690 H   0  0  0  0  0  0  0  0  0  0  0  0
    2.5030    1.5250    1.2560 H   0  0  0  0  0  0  0  0  0  0  0  0
    2.3120    1.9320    3.3960 H   0  0  0  0  0  0  0  0  0  0  0  0
    3.8510    1.4200    2.9860 H   0  0  0  0  0  0  0  0  0  0  0  0
    0.1790    6.1300    0.0610 N   0  0  0  0  0  0  0  0  0  0  0  0
    0.0160    4.8000   -0.4100 C   0  0  0  0  0  0  0  0  0  0  0  0
    0.8960    4.3270   -1.2520 N   0  0  0  0  0  0  0  0  0  0  0  0
   -1.0540    3.9660   -0.0080 N   0  0  0  0  0  0  0  0  0  0  0  0
   -0.9130    2.5030   -0.0790 C   0  0  0  0  0  0  0  0  0  0  0  0
   -2.1630    1.8290    0.3900 C   0  0  0  0  0  0  0  0  0  0  0  0
   -2.1910    0.3580    0.3800 C   0  0  0  0  0  0  0  0  0  0  0  0
   -1.2390   -0.3940    1.2560 C   0  0  2  0  0  0  0  0  0  0  0  0
    0.1240   -0.1020    0.9480 N   0  0  0  0  0  0  0  0  0  0  0  0
   -1.4960   -1.8570    0.9350 C   0  0  0  0  0  0  0  0  0  0  0  0
   -0.6210   -2.5580    0.4380 O   0  0  0  0  0  0  0  0  0  0  0  0
    0.0180    6.4240    1.0430 H   0  0  0  0  0  0  0  0  0  0  0  0
    0.4800    6.8500   -0.6310 H   0  0  0  0  0  0  0  0  0  0  0  0
    1.7020    4.9020   -1.5770 H   0  0  0  0  0  0  0  0  0  0  0  0
   -1.9310    4.4010    0.3320 H   0  0  0  0  0  0  0  0  0  0  0  0
   -0.7340    2.3180   -1.1820 H   0  0  0  0  0  0  0  0  0  0  0  0
    0.0090    2.2060    0.4130 H   0  0  0  0  0  0  0  0  0  0  0  0
   -2.5030    2.2700    1.3840 H   0  0  0  0  0  0  0  0  0  0  0  0
   -2.9800    2.2070   -0.3070 H   0  0  0  0  0  0  0  0  0  0  0  0
   -3.2380    0.0350    0.6930 H   0  0  0  0  0  0  0  0  0  0  0  0
   -2.1150    0.0280   -0.6910 H   0  0  0  0  0  0  0  0  0  0  0  0
   -1.4720   -0.2330    2.3440 H   0  0  0  0  0  0  0  0  0  0  0  0
    0.4480   -0.1070   -0.0350 H   0  0  0  0  0  0  0  0  0  0  0  0
   -1.1360   -4.6280   -4.0800 C   0  0  0  0  0  0  0  0  0  0  0  0
   -1.2230   -5.1990   -2.3690 S   0  0  0  0  0  0  0  0  0  0  0  0
   -2.3060   -4.0990   -1.3750 C   0  0  0  0  0  0  0  0  0  0  0  0
   -2.3620   -4.6010    0.0290 C   0  0  0  0  0  0  0  0  0  0  0  0
   -3.1980   -3.7500    0.9680 C   0  0  2  0  0  0  0  0  0  0  0  0
   -2.7510   -2.4370    1.2050 N   0  0  0  0  0  0  0  0  0  0  0  0
   -3.6430   -4.5440    2.0960 C   0  0  0  0  0  0  0  0  0  0  0  0
   -4.0580   -5.7250    1.9940 O   0  0  0  0  0  0  0  0  0  0  0  0
   -3.6230   -3.9970    3.3740 O   0  0  0  0  0  0  0  0  0  0  0  0
   -2.0220   -4.0150   -4.3140 H   0  0  0  0  0  0  0  0  0  0  0  0
   -1.0860   -5.5550   -4.7150 H   0  0  0  0  0  0  0  0  0  0  0  0
   -0.2100   -4.0570   -4.2940 H   0  0  0  0  0  0  0  0  0  0  0  0
   -3.3380   -4.2860   -1.8610 H   0  0  0  0  0  0  0  0  0  0  0  0
   -2.1400   -3.0540   -1.5340 H   0  0  0  0  0  0  0  0  0  0  0  0
   -1.3540   -4.8180    0.4540 H   0  0  0  0  0  0  0  0  0  0  0  0
   -2.8790   -5.6020    0.0080 H   0  0  0  0  0  0  0  0  0  0  0  0
   -4.1400   -3.6000    0.2800 H   0  0  0  0  0  0  0  0  0  0  0  0
   -3.4560   -1.7690    1.6550 H   0  0  0  0  0  0  0  0  0  0  0  0
  1  2  1  0  0  0  0
  1  9  1  0  0  0  0
  2  3  1  0  0  0  0
  3 14  1  6  0  0  0
  3  5  1  0  0  0  0
  3  4  1  0  0  0  0
  4 17  1  0  0  0  0
  4 15  1  0  0  0  0
  5 18  1  6  0  0  0
  5  7  1  0  0  0  0
  5  6  1  0  0  0  0
  6 19  1  0  0  0  0
  7  8  2  0  0  0  0
 10  1  1  0  0  0  0
 11  1  1  0  0  0  0
 12  2  1  0  0  0  0
 13  2  1  0  0  0  0
 16  4  1  0  0  0  0
 20  6  1  0  0  0  0
 21 32  1  0  0  0  0
 22 24  1  0  0  0  0
 22 21  1  0  0  0  0
 23 22  2  0  0  0  0
 24 35  1  0  0  0  0
 25 24  1  0  0  0  0
 25 26  1  0  0  0  0
 25 37  1  0  0  0  0
 26 38  1  0  0  0  0
 27 26  1  0  0  0  0
 27 40  1  0  0  0  0
 27 28  1  0  0  0  0
 28 42  1  1  0  0  0
 29 28  1  0  0  0  0
 29  7  1  0  0  0  0
 30 49  1  0  0  0  0
 30 28  1  0  0  0  0
 31 30  2  0  0  0  0
 33 21  1  0  0  0  0
 34 23  1  0  0  0  0
 36 25  1  0  0  0  0
 39 26  1  0  0  0  0
 41 27  1  0  0  0  0
 43 29  1  0  0  0  0
 44 45  1  0  0  0  0
 45 46  1  0  0  0  0
 46 47  1  0  0  0  0
 47 58  1  0  0  0  0
 47 48  1  0  0  0  0
 48 60  1  6  0  0  0
 48 49  1  0  0  0  0
 48 50  1  0  0  0  0
 49 61  1  0  0  0  0
 50 52  1  0  0  0  0
 51 50  2  0  0  0  0
 53 44  1  0  0  0  0
 54 44  1  0  0  0  0
 55 44  1  0  0  0  0
 56 46  1  0  0  0  0
 57 46  1  0  0  0  0
 59 47  1  0  0  0  0
M  END
$$$$
