IRP.pdb
 OpenBabel07022418393D

 58 58  0  0  1  0  0  0  0  0999 V2000
    3.1710   -4.0500    4.2260 C   0  0  0  0  0  0  0  0  0  0  0  0
    1.9190   -3.3780    4.6780 C   0  0  0  0  0  0  0  0  0  0  0  0
    1.9690   -1.8860    4.6310 C   0  0  2  0  0  0  0  0  0  0  0  0
    0.6430   -1.3310    5.1190 C   0  0  0  0  0  0  0  0  0  0  0  0
    2.3430   -1.3190    3.2920 C   0  0  2  0  0  0  0  0  0  0  0  0
    2.3380    0.1460    3.4510 N   0  0  0  0  0  0  0  0  0  0  0  0
    1.3510   -1.6890    2.2310 C   0  0  0  0  0  0  0  0  0  0  0  0
    1.2240   -2.8990    1.9830 O   0  0  0  0  0  0  0  0  0  0  0  0
    2.9320   -5.1140    3.9860 H   0  0  0  0  0  0  0  0  0  0  0  0
    3.5270   -3.6030    3.2920 H   0  0  0  0  0  0  0  0  0  0  0  0
    3.9030   -3.9920    5.0590 H   0  0  0  0  0  0  0  0  0  0  0  0
    1.0560   -3.8120    4.1400 H   0  0  0  0  0  0  0  0  0  0  0  0
    1.7540   -3.6520    5.7600 H   0  0  0  0  0  0  0  0  0  0  0  0
    2.7340   -1.5430    5.3540 H   0  0  0  0  0  0  0  0  0  0  0  0
    0.0100   -2.1510    5.5590 H   0  0  0  0  0  0  0  0  0  0  0  0
    0.7730   -0.5630    5.9090 H   0  0  0  0  0  0  0  0  0  0  0  0
    0.0670   -0.9170    4.2800 H   0  0  0  0  0  0  0  0  0  0  0  0
    3.3650   -1.5960    3.0430 H   0  0  0  0  0  0  0  0  0  0  0  0
    1.4010    0.5080    3.6710 H   0  0  0  0  0  0  0  0  0  0  0  0
    2.7390    0.6210    2.6170 H   0  0  0  0  0  0  0  0  0  0  0  0
    0.6830    3.2030   -1.9590 N   0  0  0  0  0  0  0  0  0  0  0  0
   -0.6270    2.9200   -1.4880 C   0  0  0  0  0  0  0  0  0  0  0  0
   -1.6440    3.4310   -2.0650 N   0  0  0  0  0  0  0  0  0  0  0  0
   -0.8390    2.0580   -0.3590 N   0  0  0  0  0  0  0  0  0  0  0  0
   -2.1490    1.6300    0.0260 C   0  0  0  0  0  0  0  0  0  0  0  0
   -2.2100    0.6020    1.0700 C   0  0  0  0  0  0  0  0  0  0  0  0
   -1.7330   -0.7640    0.8500 C   0  0  0  0  0  0  0  0  0  0  0  0
   -0.3680   -1.1350    0.5110 C   0  0  2  0  0  0  0  0  0  0  0  0
    0.5920   -0.7380    1.5380 N   0  0  0  0  0  0  0  0  0  0  0  0
    0.0980   -0.8200   -0.8190 C   0  0  0  0  0  0  0  0  0  0  0  0
    1.2470   -0.2010   -0.9680 O   0  0  0  0  0  0  0  0  0  0  0  0
    1.2240    2.5530   -2.5690 H   0  0  0  0  0  0  0  0  0  0  0  0
    1.1560    4.1130   -1.6910 H   0  0  0  0  0  0  0  0  0  0  0  0
   -1.5850    4.0650   -2.8900 H   0  0  0  0  0  0  0  0  0  0  0  0
    0.0030    1.8080    0.1670 H   0  0  0  0  0  0  0  0  0  0  0  0
   -2.7880    1.3980   -0.8710 H   0  0  0  0  0  0  0  0  0  0  0  0
   -2.6500    2.5720    0.4330 H   0  0  0  0  0  0  0  0  0  0  0  0
   -1.7640    1.0610    2.0130 H   0  0  0  0  0  0  0  0  0  0  0  0
   -3.3060    0.4950    1.4060 H   0  0  0  0  0  0  0  0  0  0  0  0
   -2.5430   -1.3460    0.3330 H   0  0  0  0  0  0  0  0  0  0  0  0
   -1.8860   -1.2550    1.9350 H   0  0  0  0  0  0  0  0  0  0  0  0
   -0.3190   -2.2930    0.5580 H   0  0  0  0  0  0  0  0  0  0  0  0
    0.6950    0.2570    1.7460 H   0  0  0  0  0  0  0  0  0  0  0  0
   -0.5430   -1.1050   -2.0300 N   0  0  0  0  0  0  0  0  0  0  0  0
    0.0740   -0.6760   -3.3420 C   0  0  0  0  0  0  0  0  0  0  0  0
   -1.1030   -0.0270   -4.0190 C   0  0  0  0  0  0  0  0  0  0  0  0
   -2.1890   -1.0270   -3.7200 C   0  0  0  0  0  0  0  0  0  0  0  0
   -1.7170   -1.7770   -2.4670 C   0  0  1  0  0  0  0  0  0  0  0  0
   -1.3870   -3.1770   -2.9260 C   0  0  0  0  0  0  0  0  0  0  0  0
   -2.2680   -3.9370   -3.3780 O   0  0  0  0  0  0  0  0  0  0  0  0
   -0.0740   -3.5830   -2.8250 O   0  0  0  0  0  0  0  0  0  0  0  0
    0.4130   -1.5710   -3.8770 H   0  0  0  0  0  0  0  0  0  0  0  0
    0.9060   -0.0020   -3.1660 H   0  0  0  0  0  0  0  0  0  0  0  0
   -1.2970    0.9700   -3.5930 H   0  0  0  0  0  0  0  0  0  0  0  0
   -0.8710    0.0400   -5.0990 H   0  0  0  0  0  0  0  0  0  0  0  0
   -2.3000   -1.6940   -4.5870 H   0  0  0  0  0  0  0  0  0  0  0  0
   -3.1030   -0.4630   -3.4880 H   0  0  0  0  0  0  0  0  0  0  0  0
   -2.5570   -1.8000   -1.7600 H   0  0  0  0  0  0  0  0  0  0  0  0
  1  2  1  0  0  0  0
  1 11  1  0  0  0  0
  2 13  1  0  0  0  0
  3  2  1  0  0  0  0
  3  4  1  0  0  0  0
  3 14  1  1  0  0  0
  4 15  1  0  0  0  0
  4 16  1  0  0  0  0
  5 18  1  6  0  0  0
  5  6  1  0  0  0  0
  5  3  1  0  0  0  0
  6 19  1  0  0  0  0
  7  5  1  0  0  0  0
  8  7  2  0  0  0  0
  9  1  1  0  0  0  0
 10  1  1  0  0  0  0
 12  2  1  0  0  0  0
 17  4  1  0  0  0  0
 20  6  1  0  0  0  0
 21 33  1  0  0  0  0
 21 22  1  0  0  0  0
 22 24  1  0  0  0  0
 23 22  2  0  0  0  0
 24 25  1  0  0  0  0
 24 35  1  0  0  0  0
 25 37  1  0  0  0  0
 25 26  1  0  0  0  0
 26 39  1  0  0  0  0
 26 38  1  0  0  0  0
 27 26  1  0  0  0  0
 27 41  1  0  0  0  0
 28 42  1  1  0  0  0
 28 27  1  0  0  0  0
 28 29  1  0  0  0  0
 29 43  1  0  0  0  0
 29  7  1  0  0  0  0
 30 28  1  0  0  0  0
 31 30  2  0  0  0  0
 32 21  1  0  0  0  0
 34 23  1  0  0  0  0
 36 25  1  0  0  0  0
 40 27  1  0  0  0  0
 44 30  1  0  0  0  0
 45 53  1  0  0  0  0
 45 44  1  0  0  0  0
 46 47  1  0  0  0  0
 46 54  1  0  0  0  0
 46 45  1  0  0  0  0
 47 57  1  0  0  0  0
 47 48  1  0  0  0  0
 48 44  1  0  0  0  0
 48 58  1  1  0  0  0
 49 51  1  0  0  0  0
 49 48  1  0  0  0  0
 50 49  2  0  0  0  0
 52 45  1  0  0  0  0
 55 46  1  0  0  0  0
 56 47  1  0  0  0  0
M  END
$$$$
