IRQ.pdb
 OpenBabel07022418393D

 61 60  0  0  1  0  0  0  0  0999 V2000
   -0.5110    1.4260    3.9310 C   0  0  0  0  0  0  0  0  0  0  0  0
    0.7720    1.5560    3.1720 C   0  0  0  0  0  0  0  0  0  0  0  0
    1.7560    0.4610    3.3900 C   0  0  2  0  0  0  0  0  0  0  0  0
    3.0430    0.7340    2.5740 C   0  0  0  0  0  0  0  0  0  0  0  0
    1.2560   -0.9320    3.0570 C   0  0  2  0  0  0  0  0  0  0  0  0
    2.3720   -1.8590    3.3790 N   0  0  0  0  0  0  0  0  0  0  0  0
    1.0130   -1.1250    1.5990 C   0  0  0  0  0  0  0  0  0  0  0  0
    1.8650   -1.7590    0.8860 O   0  0  0  0  0  0  0  0  0  0  0  0
   -0.6380    0.4110    4.3590 H   0  0  0  0  0  0  0  0  0  0  0  0
   -0.6230    2.2130    4.7150 H   0  0  0  0  0  0  0  0  0  0  0  0
   -1.3570    1.5640    3.2300 H   0  0  0  0  0  0  0  0  0  0  0  0
    0.5410    1.7480    2.1080 H   0  0  0  0  0  0  0  0  0  0  0  0
    1.2630    2.5160    3.5230 H   0  0  0  0  0  0  0  0  0  0  0  0
    2.0730    0.4600    4.4450 H   0  0  0  0  0  0  0  0  0  0  0  0
    3.5360   -0.2210    2.3960 H   0  0  0  0  0  0  0  0  0  0  0  0
    2.8130    1.3330    1.6850 H   0  0  0  0  0  0  0  0  0  0  0  0
    3.7140    1.3740    3.2070 H   0  0  0  0  0  0  0  0  0  0  0  0
    0.4320   -1.1780    3.7050 H   0  0  0  0  0  0  0  0  0  0  0  0
    3.0400   -1.3700    4.0040 H   0  0  0  0  0  0  0  0  0  0  0  0
    2.8800   -2.1360    2.5170 H   0  0  0  0  0  0  0  0  0  0  0  0
    2.7770    4.8010   -2.1120 N   0  0  0  0  0  0  0  0  0  0  0  0
    1.7130    3.8690   -2.0370 C   0  0  0  0  0  0  0  0  0  0  0  0
    0.4950    4.2300   -2.2580 N   0  0  0  0  0  0  0  0  0  0  0  0
    2.0230    2.5260   -1.7120 N   0  0  0  0  0  0  0  0  0  0  0  0
    0.9030    1.5710   -1.7580 C   0  0  0  0  0  0  0  0  0  0  0  0
    1.5430    0.2340   -1.3660 C   0  0  0  0  0  0  0  0  0  0  0  0
    0.5700   -0.9000   -1.3850 C   0  0  0  0  0  0  0  0  0  0  0  0
   -0.5310   -0.6870   -0.3860 C   0  0  2  0  0  0  0  0  0  0  0  0
   -0.1410   -0.6230    0.9820 N   0  0  0  0  0  0  0  0  0  0  0  0
   -1.6970   -1.5330   -0.6670 C   0  0  0  0  0  0  0  0  0  0  0  0
   -2.0740   -1.6170   -1.8670 O   0  0  0  0  0  0  0  0  0  0  0  0
    3.6710    4.4850   -2.5700 H   0  0  0  0  0  0  0  0  0  0  0  0
    2.6670    5.7620   -1.7230 H   0  0  0  0  0  0  0  0  0  0  0  0
    0.2950    5.2200   -2.4940 H   0  0  0  0  0  0  0  0  0  0  0  0
    2.9910    2.2760   -1.4640 H   0  0  0  0  0  0  0  0  0  0  0  0
    0.4430    1.5360   -2.7580 H   0  0  0  0  0  0  0  0  0  0  0  0
    0.1930    1.9420   -1.0160 H   0  0  0  0  0  0  0  0  0  0  0  0
    2.3730    0.0000   -2.0800 H   0  0  0  0  0  0  0  0  0  0  0  0
    2.0180    0.4460   -0.3940 H   0  0  0  0  0  0  0  0  0  0  0  0
    0.0600   -0.8730   -2.4000 H   0  0  0  0  0  0  0  0  0  0  0  0
    1.0820   -1.8820   -1.2700 H   0  0  0  0  0  0  0  0  0  0  0  0
   -0.8560    0.3970   -0.6330 H   0  0  0  0  0  0  0  0  0  0  0  0
   -0.8370   -0.1350    1.6240 H   0  0  0  0  0  0  0  0  0  0  0  0
   -1.1380   -5.9030   -2.1140 N   0  0  0  0  0  0  0  0  0  0  0  0
   -2.2630   -5.3290   -1.4460 C   0  0  0  0  0  0  0  0  0  0  0  0
   -3.2240   -5.0100   -2.1830 O   0  0  0  0  0  0  0  0  0  0  0  0
   -2.2050   -5.1640    0.0160 C   0  0  0  0  0  0  0  0  0  0  0  0
   -3.4160   -4.4840    0.6080 C   0  0  0  0  0  0  0  0  0  0  0  0
   -3.5720   -3.0930    0.0370 C   0  0  2  0  0  0  0  0  0  0  0  0
   -2.4270   -2.2610    0.3070 N   0  0  0  0  0  0  0  0  0  0  0  0
   -4.7420   -2.4910    0.7190 C   0  0  0  0  0  0  0  0  0  0  0  0
   -4.6500   -1.4430    1.3880 O   0  0  0  0  0  0  0  0  0  0  0  0
   -5.9740   -3.1040    0.6150 O   0  0  0  0  0  0  0  0  0  0  0  0
   -0.8370   -6.8480   -1.8020 H   0  0  0  0  0  0  0  0  0  0  0  0
   -0.6180   -5.4320   -2.8800 H   0  0  0  0  0  0  0  0  0  0  0  0
   -2.0640   -6.1890    0.4470 H   0  0  0  0  0  0  0  0  0  0  0  0
   -1.2760   -4.6160    0.2850 H   0  0  0  0  0  0  0  0  0  0  0  0
   -4.2880   -5.1300    0.3290 H   0  0  0  0  0  0  0  0  0  0  0  0
   -3.4000   -4.4840    1.7110 H   0  0  0  0  0  0  0  0  0  0  0  0
   -3.8220   -3.0980   -1.0420 H   0  0  0  0  0  0  0  0  0  0  0  0
   -2.1020   -2.1810    1.2940 H   0  0  0  0  0  0  0  0  0  0  0  0
  1  9  1  0  0  0  0
  1 10  1  0  0  0  0
  2  3  1  0  0  0  0
  2 13  1  0  0  0  0
  2  1  1  0  0  0  0
  3 14  1  1  0  0  0
  4 17  1  0  0  0  0
  4  3  1  0  0  0  0
  5  6  1  0  0  0  0
  5  3  1  0  0  0  0
  5 18  1  1  0  0  0
  6 19  1  0  0  0  0
  7  5  1  0  0  0  0
  8  7  2  0  0  0  0
 11  1  1  0  0  0  0
 12  2  1  0  0  0  0
 15  4  1  0  0  0  0
 16  4  1  0  0  0  0
 20  6  1  0  0  0  0
 21 22  1  0  0  0  0
 21 33  1  0  0  0  0
 22 24  1  0  0  0  0
 23 22  2  0  0  0  0
 24 35  1  0  0  0  0
 25 24  1  0  0  0  0
 25 26  1  0  0  0  0
 25 37  1  0  0  0  0
 26 39  1  0  0  0  0
 27 26  1  0  0  0  0
 27 41  1  0  0  0  0
 27 28  1  0  0  0  0
 28 42  1  6  0  0  0
 28 29  1  0  0  0  0
 29  7  1  0  0  0  0
 29 43  1  0  0  0  0
 30 28  1  0  0  0  0
 30 50  1  0  0  0  0
 31 30  2  0  0  0  0
 32 21  1  0  0  0  0
 34 23  1  0  0  0  0
 36 25  1  0  0  0  0
 38 26  1  0  0  0  0
 40 27  1  0  0  0  0
 44 54  1  0  0  0  0
 44 45  1  0  0  0  0
 45 47  1  0  0  0  0
 46 45  2  0  0  0  0
 47 57  1  0  0  0  0
 47 56  1  0  0  0  0
 47 48  1  0  0  0  0
 48 59  1  0  0  0  0
 49 60  1  6  0  0  0
 49 50  1  0  0  0  0
 49 48  1  0  0  0  0
 49 51  1  0  0  0  0
 50 61  1  0  0  0  0
 51 52  1  0  0  0  0
 53 51  2  0  0  0  0
 55 44  1  0  0  0  0
 58 48  1  0  0  0  0
M  END
$$$$
