IRR.pdb
 OpenBabel07022418393D

 67 66  0  0  1  0  0  0  0  0999 V2000
    2.4120   -1.1980    3.9440 C   0  0  0  0  0  0  0  0  0  0  0  0
    3.6640   -0.3920    3.7030 C   0  0  0  0  0  0  0  0  0  0  0  0
    3.5060    1.0780    3.8370 C   0  0  2  0  0  0  0  0  0  0  0  0
    2.9940    1.4900    5.2000 C   0  0  0  0  0  0  0  0  0  0  0  0
    2.9490    1.8060    2.6830 C   0  0  2  0  0  0  0  0  0  0  0  0
    2.8700    3.2410    3.0500 N   0  0  0  0  0  0  0  0  0  0  0  0
    1.6960    1.3480    2.1190 C   0  0  0  0  0  0  0  0  0  0  0  0
    0.6400    1.9800    2.4240 O   0  0  0  0  0  0  0  0  0  0  0  0
    1.4860   -0.6460    3.8040 H   0  0  0  0  0  0  0  0  0  0  0  0
    2.4640   -1.6340    4.9980 H   0  0  0  0  0  0  0  0  0  0  0  0
    2.4660   -2.0980    3.3050 H   0  0  0  0  0  0  0  0  0  0  0  0
    4.4480   -0.7770    4.4200 H   0  0  0  0  0  0  0  0  0  0  0  0
    4.0860   -0.6790    2.6970 H   0  0  0  0  0  0  0  0  0  0  0  0
    4.6180    1.4670    3.8870 H   0  0  0  0  0  0  0  0  0  0  0  0
    3.7800    1.3650    5.9590 H   0  0  0  0  0  0  0  0  0  0  0  0
    2.0910    0.8470    5.4020 H   0  0  0  0  0  0  0  0  0  0  0  0
    2.6310    2.5340    5.2140 H   0  0  0  0  0  0  0  0  0  0  0  0
    3.7240    1.8060    1.8580 H   0  0  0  0  0  0  0  0  0  0  0  0
    2.7170    3.7880    2.1740 H   0  0  0  0  0  0  0  0  0  0  0  0
    3.6930    3.5340    3.5910 H   0  0  0  0  0  0  0  0  0  0  0  0
    0.4740    3.6250   -4.4950 N   0  0  0  0  0  0  0  0  0  0  0  0
    0.7130    2.2250   -4.3950 C   0  0  0  0  0  0  0  0  0  0  0  0
    0.7800    1.5390   -5.4760 N   0  0  0  0  0  0  0  0  0  0  0  0
    0.8790    1.5760   -3.1410 N   0  0  0  0  0  0  0  0  0  0  0  0
    0.7380    0.1200   -3.0730 C   0  0  0  0  0  0  0  0  0  0  0  0
    0.9640   -0.3020   -1.6380 C   0  0  0  0  0  0  0  0  0  0  0  0
   -0.0350    0.3390   -0.7080 C   0  0  0  0  0  0  0  0  0  0  0  0
    0.1860   -0.0840    0.7310 C   0  0  2  0  0  0  0  0  0  0  0  0
    1.4750    0.2620    1.2340 N   0  0  0  0  0  0  0  0  0  0  0  0
    0.0310   -1.5550    0.7440 C   0  0  0  0  0  0  0  0  0  0  0  0
    0.9680   -2.3180    1.0850 O   0  0  0  0  0  0  0  0  0  0  0  0
    1.2570    4.3200   -4.3750 H   0  0  0  0  0  0  0  0  0  0  0  0
   -0.4740    4.0200   -4.6880 H   0  0  0  0  0  0  0  0  0  0  0  0
    0.9510    0.5240   -5.4680 H   0  0  0  0  0  0  0  0  0  0  0  0
    1.0970    2.1600   -2.3080 H   0  0  0  0  0  0  0  0  0  0  0  0
    1.5740   -0.3170   -3.6780 H   0  0  0  0  0  0  0  0  0  0  0  0
   -0.2380   -0.2240   -3.4450 H   0  0  0  0  0  0  0  0  0  0  0  0
    0.8700   -1.3870   -1.5400 H   0  0  0  0  0  0  0  0  0  0  0  0
    2.0110   -0.0420   -1.3850 H   0  0  0  0  0  0  0  0  0  0  0  0
   -1.0290   -0.0700   -0.9840 H   0  0  0  0  0  0  0  0  0  0  0  0
   -0.1200    1.4330   -0.8300 H   0  0  0  0  0  0  0  0  0  0  0  0
   -0.5810    0.4730    1.3040 H   0  0  0  0  0  0  0  0  0  0  0  0
    2.2930   -0.3030    0.9460 H   0  0  0  0  0  0  0  0  0  0  0  0
   -4.3150   -1.5640   -2.3380 N   0  0  0  0  0  0  0  0  0  0  0  0
   -4.5200   -2.0080   -1.0060 C   0  0  0  0  0  0  0  0  0  0  0  0
   -4.7470   -1.1480   -0.0460 N   0  0  0  0  0  0  0  0  0  0  0  0
   -4.4830   -3.4010   -0.6820 N   0  0  0  0  0  0  0  0  0  0  0  0
   -4.6580   -3.9080    0.6340 C   0  0  0  0  0  0  0  0  0  0  0  0
   -3.6150   -3.6060    1.6310 C   0  0  0  0  0  0  0  0  0  0  0  0
   -2.2380   -4.0680    1.4910 C   0  0  0  0  0  0  0  0  0  0  0  0
   -1.3700   -3.6140    0.3700 C   0  0  2  0  0  0  0  0  0  0  0  0
   -1.2050   -2.1830    0.3660 N   0  0  0  0  0  0  0  0  0  0  0  0
   -1.6580   -4.2250   -0.9190 C   0  0  0  0  0  0  0  0  0  0  0  0
   -1.8600   -5.4650   -0.9520 O   0  0  0  0  0  0  0  0  0  0  0  0
   -1.7250   -3.5400   -2.1250 O   0  0  0  0  0  0  0  0  0  0  0  0
   -4.8500   -1.8740   -3.1630 H   0  0  0  0  0  0  0  0  0  0  0  0
   -3.5470   -0.8510   -2.5190 H   0  0  0  0  0  0  0  0  0  0  0  0
   -4.7730   -0.1320   -0.2860 H   0  0  0  0  0  0  0  0  0  0  0  0
   -4.3430   -4.0290   -1.5220 H   0  0  0  0  0  0  0  0  0  0  0  0
   -5.6450   -3.4770    1.0130 H   0  0  0  0  0  0  0  0  0  0  0  0
   -4.7960   -5.0320    0.5450 H   0  0  0  0  0  0  0  0  0  0  0  0
   -3.9880   -3.9620    2.6650 H   0  0  0  0  0  0  0  0  0  0  0  0
   -3.6750   -2.4750    1.7960 H   0  0  0  0  0  0  0  0  0  0  0  0
   -1.6660   -3.8680    2.4740 H   0  0  0  0  0  0  0  0  0  0  0  0
   -2.2370   -5.2180    1.5030 H   0  0  0  0  0  0  0  0  0  0  0  0
   -0.3230   -4.0190    0.6800 H   0  0  0  0  0  0  0  0  0  0  0  0
   -1.9550   -1.5100    0.0960 H   0  0  0  0  0  0  0  0  0  0  0  0
  1 10  1  0  0  0  0
  2  3  1  0  0  0  0
  2  1  1  0  0  0  0
  2 12  1  0  0  0  0
  3 14  1  1  0  0  0
  3  4  1  0  0  0  0
  4 17  1  0  0  0  0
  4 16  1  0  0  0  0
  4 15  1  0  0  0  0
  5 18  1  6  0  0  0
  5  6  1  0  0  0  0
  5  3  1  0  0  0  0
  6 20  1  0  0  0  0
  7  8  2  0  0  0  0
  7  5  1  0  0  0  0
  9  1  1  0  0  0  0
 11  1  1  0  0  0  0
 13  2  1  0  0  0  0
 19  6  1  0  0  0  0
 21 22  1  0  0  0  0
 21 32  1  0  0  0  0
 22 24  1  0  0  0  0
 23 34  1  0  0  0  0
 23 22  2  0  0  0  0
 24 25  1  0  0  0  0
 24 35  1  0  0  0  0
 25 26  1  0  0  0  0
 26 38  1  0  0  0  0
 26 39  1  0  0  0  0
 26 27  1  0  0  0  0
 27 28  1  0  0  0  0
 28 30  1  0  0  0  0
 28 29  1  0  0  0  0
 28 42  1  1  0  0  0
 29  7  1  0  0  0  0
 30 31  2  0  0  0  0
 33 21  1  0  0  0  0
 36 25  1  0  0  0  0
 37 25  1  0  0  0  0
 40 27  1  0  0  0  0
 41 27  1  0  0  0  0
 43 29  1  0  0  0  0
 44 45  1  0  0  0  0
 45 47  1  0  0  0  0
 45 46  2  0  0  0  0
 47 48  1  0  0  0  0
 48 60  1  0  0  0  0
 48 49  1  0  0  0  0
 49 63  1  0  0  0  0
 49 62  1  0  0  0  0
 50 65  1  0  0  0  0
 50 49  1  0  0  0  0
 50 64  1  0  0  0  0
 51 66  1  1  0  0  0
 51 50  1  0  0  0  0
 52 51  1  0  0  0  0
 52 30  1  0  0  0  0
 53 51  1  0  0  0  0
 54 53  1  0  0  0  0
 55 53  2  0  0  0  0
 56 44  1  0  0  0  0
 57 44  1  0  0  0  0
 58 46  1  0  0  0  0
 59 47  1  0  0  0  0
 61 48  1  0  0  0  0
 67 52  1  0  0  0  0
M  END
$$$$
