IRY.pdb
 OpenBabel07022418403D

 65 65  0  0  1  0  0  0  0  0999 V2000
    2.3200   -0.8790    4.3860 C   0  0  0  0  0  0  0  0  0  0  0  0
    2.1500   -0.5420    2.9130 C   0  0  0  0  0  0  0  0  0  0  0  0
    2.4080    0.8970    2.6280 C   0  0  2  0  0  0  0  0  0  0  0  0
    1.4290    1.7520    3.4060 C   0  0  0  0  0  0  0  0  0  0  0  0
    2.5250    1.2500    1.1860 C   0  0  2  0  0  0  0  0  0  0  0  0
    2.7820    2.7160    1.1160 N   0  0  0  0  0  0  0  0  0  0  0  0
    1.4070    0.9060    0.3190 C   0  0  0  0  0  0  0  0  0  0  0  0
    0.7090    1.8430   -0.1800 O   0  0  0  0  0  0  0  0  0  0  0  0
    2.3700   -1.9900    4.4380 H   0  0  0  0  0  0  0  0  0  0  0  0
    3.2970   -0.5070    4.7690 H   0  0  0  0  0  0  0  0  0  0  0  0
    1.4690   -0.5710    5.0040 H   0  0  0  0  0  0  0  0  0  0  0  0
    2.7710   -1.2550    2.3450 H   0  0  0  0  0  0  0  0  0  0  0  0
    1.0760   -0.8140    2.6950 H   0  0  0  0  0  0  0  0  0  0  0  0
    3.4110    1.1230    3.1240 H   0  0  0  0  0  0  0  0  0  0  0  0
    0.3870    1.4480    3.2510 H   0  0  0  0  0  0  0  0  0  0  0  0
    1.6170    2.8280    3.2890 H   0  0  0  0  0  0  0  0  0  0  0  0
    1.6490    1.5310    4.4930 H   0  0  0  0  0  0  0  0  0  0  0  0
    3.4810    0.8100    0.8070 H   0  0  0  0  0  0  0  0  0  0  0  0
    3.6160    2.8560    1.7250 H   0  0  0  0  0  0  0  0  0  0  0  0
    3.0960    2.9080    0.1340 H   0  0  0  0  0  0  0  0  0  0  0  0
   -1.7100    0.2510   -5.8950 N   0  0  0  0  0  0  0  0  0  0  0  0
   -0.3150    0.3780   -5.6040 C   0  0  0  0  0  0  0  0  0  0  0  0
    0.2580    1.5040   -5.7750 N   0  0  0  0  0  0  0  0  0  0  0  0
    0.4540   -0.7260   -5.1260 N   0  0  0  0  0  0  0  0  0  0  0  0
    1.6340   -0.5550   -4.3340 C   0  0  0  0  0  0  0  0  0  0  0  0
    1.2510    0.0060   -2.9580 C   0  0  0  0  0  0  0  0  0  0  0  0
    0.3270   -1.0000   -2.3390 C   0  0  0  0  0  0  0  0  0  0  0  0
   -0.1390   -0.5660   -0.9460 C   0  0  2  0  0  0  0  0  0  0  0  0
    0.9830   -0.4040   -0.0620 N   0  0  0  0  0  0  0  0  0  0  0  0
   -1.0460   -1.6040   -0.4550 C   0  0  0  0  0  0  0  0  0  0  0  0
   -2.1190   -1.7890   -1.1020 O   0  0  0  0  0  0  0  0  0  0  0  0
   -2.3130    1.0960   -5.8810 H   0  0  0  0  0  0  0  0  0  0  0  0
   -2.1650   -0.6570   -6.1250 H   0  0  0  0  0  0  0  0  0  0  0  0
    1.2690    1.6200   -5.5700 H   0  0  0  0  0  0  0  0  0  0  0  0
    0.1140   -1.6900   -5.3820 H   0  0  0  0  0  0  0  0  0  0  0  0
    2.1190   -1.5410   -4.1890 H   0  0  0  0  0  0  0  0  0  0  0  0
    2.3930    0.1060   -4.7950 H   0  0  0  0  0  0  0  0  0  0  0  0
    0.7360    0.9680   -3.0940 H   0  0  0  0  0  0  0  0  0  0  0  0
    2.1960    0.1030   -2.3970 H   0  0  0  0  0  0  0  0  0  0  0  0
   -0.6010   -1.0410   -2.9520 H   0  0  0  0  0  0  0  0  0  0  0  0
    0.7490   -2.0080   -2.3260 H   0  0  0  0  0  0  0  0  0  0  0  0
   -0.6790    0.3840   -1.1280 H   0  0  0  0  0  0  0  0  0  0  0  0
    1.5100   -1.2140    0.3190 H   0  0  0  0  0  0  0  0  0  0  0  0
   -2.5460    0.5080    5.9150 O   0  0  0  0  0  0  0  0  0  0  0  0
   -2.6830   -0.2740    4.7980 C   0  0  0  0  0  0  0  0  0  0  0  0
   -2.9570   -1.6140    4.9510 C   0  0  0  0  0  0  0  0  0  0  0  0
   -3.0930   -2.3880    3.8350 C   0  0  0  0  0  0  0  0  0  0  0  0
   -2.9660   -1.8750    2.5620 C   0  0  0  0  0  0  0  0  0  0  0  0
   -3.1330   -2.7840    1.4170 C   0  0  0  0  0  0  0  0  0  0  0  0
   -1.8090   -3.4020    1.0470 C   0  0  2  0  0  0  0  0  0  0  0  0
   -0.8160   -2.4140    0.6800 N   0  0  0  0  0  0  0  0  0  0  0  0
   -2.0140   -4.3520   -0.1010 C   0  0  0  0  0  0  0  0  0  0  0  0
   -2.8580   -5.2760    0.0110 O   0  0  0  0  0  0  0  0  0  0  0  0
   -2.6910   -0.5280    2.4420 C   0  0  0  0  0  0  0  0  0  0  0  0
   -2.5500    0.2700    3.5520 C   0  0  0  0  0  0  0  0  0  0  0  0
   -1.3160   -4.2670   -1.2880 O   0  0  0  0  0  0  0  0  0  0  0  0
   -2.7700    1.5070    5.8550 H   0  0  0  0  0  0  0  0  0  0  0  0
   -3.0650   -2.0570    5.9390 H   0  0  0  0  0  0  0  0  0  0  0  0
   -3.3100   -3.4460    3.9930 H   0  0  0  0  0  0  0  0  0  0  0  0
   -3.7950   -3.6250    1.7360 H   0  0  0  0  0  0  0  0  0  0  0  0
   -3.6450   -2.3070    0.5580 H   0  0  0  0  0  0  0  0  0  0  0  0
   -1.4430   -3.9860    1.9360 H   0  0  0  0  0  0  0  0  0  0  0  0
    0.0730   -2.3160    1.2560 H   0  0  0  0  0  0  0  0  0  0  0  0
   -2.5860   -0.0900    1.4610 H   0  0  0  0  0  0  0  0  0  0  0  0
   -2.3360    1.3130    3.4340 H   0  0  0  0  0  0  0  0  0  0  0  0
  1  9  1  0  0  0  0
  1 10  1  0  0  0  0
  1 11  1  0  0  0  0
  2  1  1  0  0  0  0
  3  2  1  0  0  0  0
  3 14  1  1  0  0  0
  3  4  1  0  0  0  0
  4 17  1  0  0  0  0
  5 18  1  6  0  0  0
  5  3  1  0  0  0  0
  6  5  1  0  0  0  0
  6 19  1  0  0  0  0
  7  5  1  0  0  0  0
  8  7  2  0  0  0  0
 12  2  1  0  0  0  0
 13  2  1  0  0  0  0
 15  4  1  0  0  0  0
 16  4  1  0  0  0  0
 20  6  1  0  0  0  0
 21 32  1  0  0  0  0
 21 22  1  0  0  0  0
 22 24  1  0  0  0  0
 23 22  2  0  0  0  0
 23 34  1  0  0  0  0
 24 25  1  0  0  0  0
 25 36  1  0  0  0  0
 25 26  1  0  0  0  0
 26 39  1  0  0  0  0
 26 27  1  0  0  0  0
 27 41  1  0  0  0  0
 27 28  1  0  0  0  0
 28 42  1  6  0  0  0
 28 30  1  0  0  0  0
 28 29  1  0  0  0  0
 29 43  1  0  0  0  0
 29  7  1  0  0  0  0
 30 51  1  0  0  0  0
 31 30  2  0  0  0  0
 33 21  1  0  0  0  0
 35 24  1  0  0  0  0
 37 25  1  0  0  0  0
 38 26  1  0  0  0  0
 40 27  1  0  0  0  0
 45 46  1  0  0  0  0
 45 44  1  0  0  0  0
 46 58  1  0  0  0  0
 47 59  1  0  0  0  0
 47 46  2  0  0  0  0
 48 47  1  0  0  0  0
 49 60  1  0  0  0  0
 49 48  1  0  0  0  0
 50 49  1  0  0  0  0
 50 62  1  1  0  0  0
 51 50  1  0  0  0  0
 51 63  1  0  0  0  0
 52 53  1  0  0  0  0
 52 50  1  0  0  0  0
 54 48  2  0  0  0  0
 54 55  1  0  0  0  0
 55 45  2  0  0  0  0
 56 52  2  0  0  0  0
 57 44  1  0  0  0  0
 61 49  1  0  0  0  0
 64 54  1  0  0  0  0
 65 55  1  0  0  0  0
M  END
$$$$
