ISA.pdb
 OpenBabel07022418423D

 42 41  0  0  1  0  0  0  0  0999 V2000
   -0.3330   -5.3790    1.0240 C   0  0  0  0  0  0  0  0  0  0  0  0
    0.1260   -4.8280   -0.2900 C   0  0  0  0  0  0  0  0  0  0  0  0
    1.0460   -3.6380   -0.1360 C   0  0  2  0  0  0  0  0  0  0  0  0
    2.2690   -4.0140    0.6350 C   0  0  0  0  0  0  0  0  0  0  0  0
    0.3200   -2.4530    0.4700 C   0  0  2  0  0  0  0  0  0  0  0  0
   -0.7850   -2.0690   -0.3870 N   0  0  0  0  0  0  0  0  0  0  0  0
    1.2300   -1.3300    0.7480 C   0  0  0  0  0  0  0  0  0  0  0  0
    2.2350   -1.5180    1.4790 O   0  0  0  0  0  0  0  0  0  0  0  0
    0.4370   -5.2520    1.7990 H   0  0  0  0  0  0  0  0  0  0  0  0
   -1.3340   -4.9890    1.3380 H   0  0  0  0  0  0  0  0  0  0  0  0
   -0.4730   -6.4830    0.9070 H   0  0  0  0  0  0  0  0  0  0  0  0
    0.6960   -5.6200   -0.8160 H   0  0  0  0  0  0  0  0  0  0  0  0
   -0.7290   -4.5760   -0.9500 H   0  0  0  0  0  0  0  0  0  0  0  0
    1.3500   -3.3430   -1.1680 H   0  0  0  0  0  0  0  0  0  0  0  0
    3.1220   -3.3570    0.3400 H   0  0  0  0  0  0  0  0  0  0  0  0
    2.1280   -4.0700    1.7150 H   0  0  0  0  0  0  0  0  0  0  0  0
    2.5710   -5.0450    0.2870 H   0  0  0  0  0  0  0  0  0  0  0  0
   -0.1400   -2.8300    1.4190 H   0  0  0  0  0  0  0  0  0  0  0  0
   -1.5070   -2.8010   -0.3040 H   0  0  0  0  0  0  0  0  0  0  0  0
   -0.4940   -1.8630   -1.3620 H   0  0  0  0  0  0  0  0  0  0  0  0
    3.4480    2.6120   -0.5340 O   0  0  0  0  0  0  0  0  0  0  0  0
    2.5430    1.5780   -0.7670 C   0  0  0  0  0  0  0  0  0  0  0  0
    1.9850    1.0630    0.5440 C   0  0  2  0  0  0  0  0  0  0  0  0
    1.0460   -0.0170    0.2330 N   0  0  0  0  0  0  0  0  0  0  0  0
    1.2530    2.1570    1.2380 C   0  0  0  0  0  0  0  0  0  0  0  0
    1.8470    3.2000    1.6080 O   0  0  0  0  0  0  0  0  0  0  0  0
    3.1210    3.4320   -1.0170 H   0  0  0  0  0  0  0  0  0  0  0  0
    1.7190    1.8920   -1.4310 H   0  0  0  0  0  0  0  0  0  0  0  0
    3.1330    0.7330   -1.2040 H   0  0  0  0  0  0  0  0  0  0  0  0
    2.7900    0.6820    1.1980 H   0  0  0  0  0  0  0  0  0  0  0  0
    0.2140    0.1370   -0.3710 H   0  0  0  0  0  0  0  0  0  0  0  0
   -2.0330    3.6270    1.3490 C   0  0  0  0  0  0  0  0  0  0  0  0
   -0.8910    3.1070    2.1780 C   0  0  2  0  0  0  0  0  0  0  0  0
   -0.1330    2.0700    1.5070 N   0  0  0  0  0  0  0  0  0  0  0  0
   -1.4470    2.5750    3.4480 C   0  0  0  0  0  0  0  0  0  0  0  0
   -1.2240    1.3850    3.7810 O   0  0  0  0  0  0  0  0  0  0  0  0
   -2.2130    3.3600    4.2840 O   0  0  0  0  0  0  0  0  0  0  0  0
   -1.7640    4.4860    0.7100 H   0  0  0  0  0  0  0  0  0  0  0  0
   -2.8110    3.9970    2.0600 H   0  0  0  0  0  0  0  0  0  0  0  0
   -2.5260    2.8260    0.7580 H   0  0  0  0  0  0  0  0  0  0  0  0
   -0.2510    3.9700    2.4520 H   0  0  0  0  0  0  0  0  0  0  0  0
   -0.6480    1.2150    1.2090 H   0  0  0  0  0  0  0  0  0  0  0  0
  1 10  1  0  0  0  0
  1  9  1  0  0  0  0
  2  3  1  0  0  0  0
  2  1  1  0  0  0  0
  3 14  1  6  0  0  0
  3  5  1  0  0  0  0
  3  4  1  0  0  0  0
  4 16  1  0  0  0  0
  5  7  1  0  0  0  0
  5 18  1  1  0  0  0
  6 19  1  0  0  0  0
  6  5  1  0  0  0  0
  7  8  2  0  0  0  0
 11  1  1  0  0  0  0
 12  2  1  0  0  0  0
 13  2  1  0  0  0  0
 15  4  1  0  0  0  0
 17  4  1  0  0  0  0
 20  6  1  0  0  0  0
 22 21  1  0  0  0  0
 22 23  1  0  0  0  0
 23 30  1  1  0  0  0
 23 25  1  0  0  0  0
 24 23  1  0  0  0  0
 24  7  1  0  0  0  0
 25 34  1  0  0  0  0
 25 26  2  0  0  0  0
 27 21  1  0  0  0  0
 28 22  1  0  0  0  0
 29 22  1  0  0  0  0
 31 24  1  0  0  0  0
 32 39  1  0  0  0  0
 32 33  1  0  0  0  0
 33 41  1  1  0  0  0
 33 35  1  0  0  0  0
 34 33  1  0  0  0  0
 35 36  2  0  0  0  0
 35 37  1  0  0  0  0
 38 32  1  0  0  0  0
 40 32  1  0  0  0  0
 42 34  1  0  0  0  0
M  END
$$$$
