ISD.pdb
 OpenBabel07022418433D

 45 44  0  0  1  0  0  0  0  0999 V2000
    1.4100   -4.8180    0.9520 C   0  0  0  0  0  0  0  0  0  0  0  0
    2.1650   -3.9560    1.9200 C   0  0  0  0  0  0  0  0  0  0  0  0
    1.3060   -3.2630    2.9360 C   0  0  2  0  0  0  0  0  0  0  0  0
    0.5220   -4.2200    3.7840 C   0  0  0  0  0  0  0  0  0  0  0  0
    0.4440   -2.1730    2.3450 C   0  0  2  0  0  0  0  0  0  0  0  0
   -0.4260   -2.7100    1.3630 N   0  0  0  0  0  0  0  0  0  0  0  0
    1.2700   -1.0220    1.8830 C   0  0  0  0  0  0  0  0  0  0  0  0
    2.1210   -0.4750    2.6380 O   0  0  0  0  0  0  0  0  0  0  0  0
    1.5060   -4.4400   -0.0850 H   0  0  0  0  0  0  0  0  0  0  0  0
    0.3460   -4.9510    1.2210 H   0  0  0  0  0  0  0  0  0  0  0  0
    1.8710   -5.8440    0.9720 H   0  0  0  0  0  0  0  0  0  0  0  0
    2.6980   -3.1660    1.3220 H   0  0  0  0  0  0  0  0  0  0  0  0
    2.9820   -4.5340    2.4060 H   0  0  0  0  0  0  0  0  0  0  0  0
    2.0200   -2.7290    3.6200 H   0  0  0  0  0  0  0  0  0  0  0  0
    1.2370   -4.9010    4.2780 H   0  0  0  0  0  0  0  0  0  0  0  0
   -0.2320   -4.7650    3.1670 H   0  0  0  0  0  0  0  0  0  0  0  0
   -0.0420   -3.6120    4.5350 H   0  0  0  0  0  0  0  0  0  0  0  0
   -0.2210   -1.7410    3.1590 H   0  0  0  0  0  0  0  0  0  0  0  0
   -1.4370   -2.5660    1.5160 H   0  0  0  0  0  0  0  0  0  0  0  0
   -0.1070   -2.7560    0.3990 H   0  0  0  0  0  0  0  0  0  0  0  0
    3.5030   -0.9090   -0.6600 O   0  0  0  0  0  0  0  0  0  0  0  0
    2.7180    0.1640   -1.0870 C   0  0  0  0  0  0  0  0  0  0  0  0
    1.9580    0.6510    0.1250 C   0  0  2  0  0  0  0  0  0  0  0  0
    1.1460   -0.4840    0.5890 N   0  0  0  0  0  0  0  0  0  0  0  0
    1.0280    1.7710   -0.2030 C   0  0  0  0  0  0  0  0  0  0  0  0
    1.4630    2.8720   -0.6350 O   0  0  0  0  0  0  0  0  0  0  0  0
    3.9660   -0.5780    0.1740 H   0  0  0  0  0  0  0  0  0  0  0  0
    1.9560   -0.2700   -1.7780 H   0  0  0  0  0  0  0  0  0  0  0  0
    3.3110    0.9640   -1.5650 H   0  0  0  0  0  0  0  0  0  0  0  0
    2.6220    0.9340    0.9670 H   0  0  0  0  0  0  0  0  0  0  0  0
    0.4610   -0.8930   -0.0710 H   0  0  0  0  0  0  0  0  0  0  0  0
   -0.3790    1.6540   -0.0480 N   0  0  0  0  0  0  0  0  0  0  0  0
   -1.3140    2.7180   -0.3560 C   0  0  1  0  0  0  0  0  0  0  0  0
   -2.2610    2.2020   -1.4230 C   0  0  0  0  0  0  0  0  0  0  0  0
   -3.2640    3.2300   -1.8050 C   0  0  0  0  0  0  0  0  0  0  0  0
   -2.9660    4.1770   -2.5750 O   0  0  0  0  0  0  0  0  0  0  0  0
   -2.0600    3.1510    0.8560 C   0  0  0  0  0  0  0  0  0  0  0  0
   -2.9140    4.0690    0.7670 O   0  0  0  0  0  0  0  0  0  0  0  0
   -4.5620    3.1770   -1.3230 O   0  0  0  0  0  0  0  0  0  0  0  0
   -1.8460    2.5760    2.0860 O   0  0  0  0  0  0  0  0  0  0  0  0
   -0.7180    0.7200    0.3160 H   0  0  0  0  0  0  0  0  0  0  0  0
   -0.7550    3.5820   -0.7170 H   0  0  0  0  0  0  0  0  0  0  0  0
   -2.7680    1.2820   -1.0460 H   0  0  0  0  0  0  0  0  0  0  0  0
   -1.6950    1.9060   -2.3270 H   0  0  0  0  0  0  0  0  0  0  0  0
   -5.2950    3.8190   -1.6480 H   0  0  0  0  0  0  0  0  0  0  0  0
  1 11  1  0  0  0  0
  1 10  1  0  0  0  0
  1  2  1  0  0  0  0
  2 13  1  0  0  0  0
  2  3  1  0  0  0  0
  3 14  1  1  0  0  0
  3  4  1  0  0  0  0
  4 15  1  0  0  0  0
  4 17  1  0  0  0  0
  5  3  1  0  0  0  0
  5 18  1  1  0  0  0
  6 19  1  0  0  0  0
  6  5  1  0  0  0  0
  7  5  1  0  0  0  0
  7  8  2  0  0  0  0
  9  1  1  0  0  0  0
 12  2  1  0  0  0  0
 16  4  1  0  0  0  0
 20  6  1  0  0  0  0
 21 27  1  0  0  0  0
 22 21  1  0  0  0  0
 22 23  1  0  0  0  0
 23 24  1  0  0  0  0
 23 30  1  1  0  0  0
 24  7  1  0  0  0  0
 25 32  1  0  0  0  0
 25 23  1  0  0  0  0
 26 25  2  0  0  0  0
 28 22  1  0  0  0  0
 29 22  1  0  0  0  0
 31 24  1  0  0  0  0
 32 41  1  0  0  0  0
 33 42  1  6  0  0  0
 33 32  1  0  0  0  0
 33 37  1  0  0  0  0
 34 43  1  0  0  0  0
 34 33  1  0  0  0  0
 35 34  1  0  0  0  0
 35 39  1  0  0  0  0
 36 35  2  0  0  0  0
 37 40  1  0  0  0  0
 38 37  2  0  0  0  0
 44 34  1  0  0  0  0
 45 39  1  0  0  0  0
M  END
$$$$
