ISE.pdb
 OpenBabel07022418433D

 48 47  0  0  1  0  0  0  0  0999 V2000
    0.6070   -5.4870   -2.6240 C   0  0  0  0  0  0  0  0  0  0  0  0
    0.5910   -4.6720   -1.3520 C   0  0  0  0  0  0  0  0  0  0  0  0
    0.8670   -3.2250   -1.5850 C   0  0  2  0  0  0  0  0  0  0  0  0
    2.2320   -3.0010   -2.2200 C   0  0  0  0  0  0  0  0  0  0  0  0
    0.7690   -2.3760   -0.3540 C   0  0  2  0  0  0  0  0  0  0  0  0
   -0.5670   -2.4740    0.1850 N   0  0  0  0  0  0  0  0  0  0  0  0
    1.1910   -0.9850   -0.5720 C   0  0  0  0  0  0  0  0  0  0  0  0
    2.3520   -0.7030   -0.9980 O   0  0  0  0  0  0  0  0  0  0  0  0
   -0.4080   -5.9110   -2.8550 H   0  0  0  0  0  0  0  0  0  0  0  0
    0.8870   -4.9030   -3.5150 H   0  0  0  0  0  0  0  0  0  0  0  0
    1.2770   -6.3690   -2.5670 H   0  0  0  0  0  0  0  0  0  0  0  0
    1.3520   -5.1380   -0.6770 H   0  0  0  0  0  0  0  0  0  0  0  0
   -0.3950   -4.8420   -0.8780 H   0  0  0  0  0  0  0  0  0  0  0  0
    0.0950   -2.8550   -2.3120 H   0  0  0  0  0  0  0  0  0  0  0  0
    2.2680   -2.1140   -2.8570 H   0  0  0  0  0  0  0  0  0  0  0  0
    3.0030   -2.9020   -1.4260 H   0  0  0  0  0  0  0  0  0  0  0  0
    2.5210   -3.9370   -2.7750 H   0  0  0  0  0  0  0  0  0  0  0  0
    1.4470   -2.7890    0.4500 H   0  0  0  0  0  0  0  0  0  0  0  0
   -0.7610   -3.4550    0.5390 H   0  0  0  0  0  0  0  0  0  0  0  0
   -0.6930   -1.8710    1.0330 H   0  0  0  0  0  0  0  0  0  0  0  0
   -1.5400    2.1750   -1.1680 O   0  0  0  0  0  0  0  0  0  0  0  0
   -0.2050    2.1740   -1.5220 C   0  0  0  0  0  0  0  0  0  0  0  0
    0.6690    1.4750   -0.5070 C   0  0  2  0  0  0  0  0  0  0  0  0
    0.3160    0.1030   -0.3150 N   0  0  0  0  0  0  0  0  0  0  0  0
    0.5910    2.1840    0.7860 C   0  0  0  0  0  0  0  0  0  0  0  0
    0.8570    3.4120    0.8350 O   0  0  0  0  0  0  0  0  0  0  0  0
   -2.0870    2.0910   -1.9780 H   0  0  0  0  0  0  0  0  0  0  0  0
   -0.0630    1.7460   -2.5360 H   0  0  0  0  0  0  0  0  0  0  0  0
    0.1230    3.2330   -1.5890 H   0  0  0  0  0  0  0  0  0  0  0  0
    1.7230    1.5670   -0.8970 H   0  0  0  0  0  0  0  0  0  0  0  0
   -0.6490   -0.1190    0.0340 H   0  0  0  0  0  0  0  0  0  0  0  0
    0.2190    1.4770    1.9500 N   0  0  0  0  0  0  0  0  0  0  0  0
    0.1180    2.0890    3.2510 C   0  0  1  0  0  0  0  0  0  0  0  0
   -1.2970    1.9970    3.7510 C   0  0  0  0  0  0  0  0  0  0  0  0
   -1.7640    0.5640    3.8740 C   0  0  0  0  0  0  0  0  0  0  0  0
   -3.1620    0.5680    4.3720 C   0  0  0  0  0  0  0  0  0  0  0  0
   -3.7750    1.6520    4.6230 O   0  0  0  0  0  0  0  0  0  0  0  0
    1.0660    1.4980    4.2270 C   0  0  0  0  0  0  0  0  0  0  0  0
    1.0520    1.9710    5.3940 O   0  0  0  0  0  0  0  0  0  0  0  0
   -3.8720   -0.6080    4.5900 O   0  0  0  0  0  0  0  0  0  0  0  0
    1.9400    0.4870    3.9410 O   0  0  0  0  0  0  0  0  0  0  0  0
    0.0090    0.4640    1.8660 H   0  0  0  0  0  0  0  0  0  0  0  0
    0.3680    3.1600    3.1320 H   0  0  0  0  0  0  0  0  0  0  0  0
   -1.9760    2.4910    3.0320 H   0  0  0  0  0  0  0  0  0  0  0  0
   -1.4120    2.4690    4.7400 H   0  0  0  0  0  0  0  0  0  0  0  0
   -1.1520    0.0070    4.6150 H   0  0  0  0  0  0  0  0  0  0  0  0
   -1.7530    0.0690    2.8970 H   0  0  0  0  0  0  0  0  0  0  0  0
   -4.8820   -0.5650    4.5120 H   0  0  0  0  0  0  0  0  0  0  0  0
  1 11  1  0  0  0  0
  1  2  1  0  0  0  0
  2 13  1  0  0  0  0
  2 12  1  0  0  0  0
  3 14  1  6  0  0  0
  3  2  1  0  0  0  0
  3  5  1  0  0  0  0
  4  3  1  0  0  0  0
  4 16  1  0  0  0  0
  5  6  1  0  0  0  0
  5 18  1  1  0  0  0
  6 19  1  0  0  0  0
  6 20  1  0  0  0  0
  7  5  1  0  0  0  0
  7 24  1  0  0  0  0
  8  7  2  0  0  0  0
  9  1  1  0  0  0  0
 10  1  1  0  0  0  0
 15  4  1  0  0  0  0
 17  4  1  0  0  0  0
 22 21  1  0  0  0  0
 22 23  1  0  0  0  0
 23 30  1  6  0  0  0
 23 24  1  0  0  0  0
 23 25  1  0  0  0  0
 24 31  1  0  0  0  0
 25 26  2  0  0  0  0
 25 32  1  0  0  0  0
 27 21  1  0  0  0  0
 28 22  1  0  0  0  0
 29 22  1  0  0  0  0
 32 33  1  0  0  0  0
 33 43  1  6  0  0  0
 33 34  1  0  0  0  0
 33 38  1  0  0  0  0
 34 35  1  0  0  0  0
 34 45  1  0  0  0  0
 35 36  1  0  0  0  0
 35 46  1  0  0  0  0
 36 40  1  0  0  0  0
 36 37  2  0  0  0  0
 38 39  1  0  0  0  0
 41 38  2  0  0  0  0
 42 32  1  0  0  0  0
 44 34  1  0  0  0  0
 47 35  1  0  0  0  0
 48 40  1  0  0  0  0
M  END
$$$$
