ISF.pdb
 OpenBabel07022418433D

 52 52  0  0  1  0  0  0  0  0999 V2000
    1.8030   -3.4220    0.8330 C   0  0  0  0  0  0  0  0  0  0  0  0
    1.8320   -1.9090    0.9060 C   0  0  0  0  0  0  0  0  0  0  0  0
    2.8100   -1.4810    1.9430 C   0  0  2  0  0  0  0  0  0  0  0  0
    2.4100   -2.0300    3.3000 C   0  0  0  0  0  0  0  0  0  0  0  0
    3.1630   -0.0360    1.9480 C   0  0  2  0  0  0  0  0  0  0  0  0
    4.1280    0.1500    3.0400 N   0  0  0  0  0  0  0  0  0  0  0  0
    2.0720    0.9080    2.1510 C   0  0  0  0  0  0  0  0  0  0  0  0
    2.0030    1.5870    3.2060 O   0  0  0  0  0  0  0  0  0  0  0  0
    1.5720   -3.7200   -0.2090 H   0  0  0  0  0  0  0  0  0  0  0  0
    2.7460   -3.8860    1.1490 H   0  0  0  0  0  0  0  0  0  0  0  0
    1.0040   -3.8590    1.4720 H   0  0  0  0  0  0  0  0  0  0  0  0
    2.0710   -1.5250   -0.0940 H   0  0  0  0  0  0  0  0  0  0  0  0
    0.8180   -1.5850    1.2330 H   0  0  0  0  0  0  0  0  0  0  0  0
    3.7730   -2.0300    1.6980 H   0  0  0  0  0  0  0  0  0  0  0  0
    2.4470   -3.1340    3.2210 H   0  0  0  0  0  0  0  0  0  0  0  0
    1.4260   -1.6530    3.6280 H   0  0  0  0  0  0  0  0  0  0  0  0
    3.1420   -1.7180    4.0770 H   0  0  0  0  0  0  0  0  0  0  0  0
    3.7300    0.1830    1.0190 H   0  0  0  0  0  0  0  0  0  0  0  0
    4.7450   -0.6820    3.0150 H   0  0  0  0  0  0  0  0  0  0  0  0
    4.7140    0.9870    2.7810 H   0  0  0  0  0  0  0  0  0  0  0  0
    0.3790    2.9140   -0.7610 O   0  0  0  0  0  0  0  0  0  0  0  0
    0.3590    3.2840    0.5750 C   0  0  0  0  0  0  0  0  0  0  0  0
    0.0160    2.0550    1.4470 C   0  0  2  0  0  0  0  0  0  0  0  0
    1.0540    1.1050    1.1810 N   0  0  0  0  0  0  0  0  0  0  0  0
   -1.3510    1.6060    1.2050 C   0  0  0  0  0  0  0  0  0  0  0  0
   -2.2870    2.4400    1.4760 O   0  0  0  0  0  0  0  0  0  0  0  0
    1.2290    2.4450   -0.9270 H   0  0  0  0  0  0  0  0  0  0  0  0
   -0.2890    4.1270    0.8040 H   0  0  0  0  0  0  0  0  0  0  0  0
    1.3970    3.5540    0.8590 H   0  0  0  0  0  0  0  0  0  0  0  0
    0.1140    2.4700    2.4890 H   0  0  0  0  0  0  0  0  0  0  0  0
    1.0200    0.5930    0.2760 H   0  0  0  0  0  0  0  0  0  0  0  0
   -1.7690    0.3610    0.7070 N   0  0  0  0  0  0  0  0  0  0  0  0
   -3.1890    0.0770    0.5280 C   0  0  1  0  0  0  0  0  0  0  0  0
   -3.5010   -0.1230   -0.9530 C   0  0  0  0  0  0  0  0  0  0  0  0
   -2.7320   -1.2520   -1.5370 C   0  0  0  0  0  0  0  0  0  0  0  0
   -3.2460   -2.5160   -1.5320 C   0  0  0  0  0  0  0  0  0  0  0  0
   -2.5640   -3.5690   -2.0600 C   0  0  0  0  0  0  0  0  0  0  0  0
   -1.3060   -3.3760   -2.6240 C   0  0  0  0  0  0  0  0  0  0  0  0
   -0.7990   -2.0920   -2.6220 C   0  0  0  0  0  0  0  0  0  0  0  0
   -1.4800   -1.0220   -2.0920 C   0  0  0  0  0  0  0  0  0  0  0  0
   -3.6190   -1.1000    1.2840 C   0  0  0  0  0  0  0  0  0  0  0  0
   -2.7790   -1.7300    1.9730 O   0  0  0  0  0  0  0  0  0  0  0  0
   -4.9220   -1.5660    1.2820 O   0  0  0  0  0  0  0  0  0  0  0  0
   -1.0310   -0.3310    0.4760 H   0  0  0  0  0  0  0  0  0  0  0  0
   -3.7840    0.9610    0.8370 H   0  0  0  0  0  0  0  0  0  0  0  0
   -4.5790   -0.2550   -1.0680 H   0  0  0  0  0  0  0  0  0  0  0  0
   -3.2220    0.7850   -1.5340 H   0  0  0  0  0  0  0  0  0  0  0  0
   -4.2260   -2.7260   -1.1050 H   0  0  0  0  0  0  0  0  0  0  0  0
   -3.0110   -4.5680   -2.0360 H   0  0  0  0  0  0  0  0  0  0  0  0
   -0.7800   -4.2060   -3.0340 H   0  0  0  0  0  0  0  0  0  0  0  0
    0.1880   -1.9140   -3.0590 H   0  0  0  0  0  0  0  0  0  0  0  0
   -1.0760   -0.0040   -2.0910 H   0  0  0  0  0  0  0  0  0  0  0  0
  1  2  1  0  0  0  0
  1 10  1  0  0  0  0
  1 11  1  0  0  0  0
  2 13  1  0  0  0  0
  2  3  1  0  0  0  0
  3 14  1  6  0  0  0
  3  5  1  0  0  0  0
  3  4  1  0  0  0  0
  4 16  1  0  0  0  0
  4 17  1  0  0  0  0
  5 18  1  6  0  0  0
  5  7  1  0  0  0  0
  5  6  1  0  0  0  0
  7  8  2  0  0  0  0
  9  1  1  0  0  0  0
 12  2  1  0  0  0  0
 15  4  1  0  0  0  0
 19  6  1  0  0  0  0
 20  6  1  0  0  0  0
 21 22  1  0  0  0  0
 22 28  1  0  0  0  0
 22 29  1  0  0  0  0
 22 23  1  0  0  0  0
 23 30  1  1  0  0  0
 24 23  1  0  0  0  0
 24  7  1  0  0  0  0
 25 23  1  0  0  0  0
 25 26  2  0  0  0  0
 27 21  1  0  0  0  0
 31 24  1  0  0  0  0
 32 25  1  0  0  0  0
 33 32  1  0  0  0  0
 33 45  1  1  0  0  0
 33 41  1  0  0  0  0
 34 33  1  0  0  0  0
 35 36  1  0  0  0  0
 35 34  1  0  0  0  0
 36 48  1  0  0  0  0
 37 49  1  0  0  0  0
 37 36  2  0  0  0  0
 38 39  2  0  0  0  0
 38 37  1  0  0  0  0
 39 40  1  0  0  0  0
 40 52  1  0  0  0  0
 40 35  2  0  0  0  0
 41 42  1  0  0  0  0
 43 41  2  0  0  0  0
 44 32  1  0  0  0  0
 46 34  1  0  0  0  0
 47 34  1  0  0  0  0
 50 38  1  0  0  0  0
 51 39  1  0  0  0  0
M  END
$$$$
