ISH.pdb
 OpenBabel07022418433D

 49 49  0  0  1  0  0  0  0  0999 V2000
    4.7300   -1.4020    0.9210 C   0  0  0  0  0  0  0  0  0  0  0  0
    3.7300   -2.2750    0.2170 C   0  0  0  0  0  0  0  0  0  0  0  0
    3.3840   -3.4510    1.0810 C   0  0  2  0  0  0  0  0  0  0  0  0
    2.3880   -4.3730    0.3640 C   0  0  0  0  0  0  0  0  0  0  0  0
    2.9020   -3.1290    2.4560 C   0  0  2  0  0  0  0  0  0  0  0  0
    2.6570   -4.4580    3.0910 N   0  0  0  0  0  0  0  0  0  0  0  0
    1.6950   -2.3650    2.6170 C   0  0  0  0  0  0  0  0  0  0  0  0
    0.6710   -2.9800    3.1100 O   0  0  0  0  0  0  0  0  0  0  0  0
    5.7580   -1.8350    0.8890 H   0  0  0  0  0  0  0  0  0  0  0  0
    4.8050   -0.3930    0.4580 H   0  0  0  0  0  0  0  0  0  0  0  0
    4.4540   -1.2330    1.9700 H   0  0  0  0  0  0  0  0  0  0  0  0
    2.8510   -1.6430   -0.0310 H   0  0  0  0  0  0  0  0  0  0  0  0
    4.2360   -2.6380   -0.7120 H   0  0  0  0  0  0  0  0  0  0  0  0
    4.3050   -4.0560    1.1940 H   0  0  0  0  0  0  0  0  0  0  0  0
    1.3390   -4.0510    0.5350 H   0  0  0  0  0  0  0  0  0  0  0  0
    2.4550   -5.4080    0.7610 H   0  0  0  0  0  0  0  0  0  0  0  0
    2.6470   -4.4460   -0.7140 H   0  0  0  0  0  0  0  0  0  0  0  0
    3.7270   -2.7090    3.0410 H   0  0  0  0  0  0  0  0  0  0  0  0
    1.7250   -4.8140    2.7880 H   0  0  0  0  0  0  0  0  0  0  0  0
    3.3660   -5.1280    2.7250 H   0  0  0  0  0  0  0  0  0  0  0  0
   -0.8120    1.4610    3.7500 O   0  0  0  0  0  0  0  0  0  0  0  0
    0.3600    0.7890    3.4430 C   0  0  0  0  0  0  0  0  0  0  0  0
    0.1300   -0.3930    2.5490 C   0  0  2  0  0  0  0  0  0  0  0  0
    1.4480   -1.0050    2.3100 N   0  0  0  0  0  0  0  0  0  0  0  0
   -0.4000    0.0850    1.2280 C   0  0  0  0  0  0  0  0  0  0  0  0
    0.2910   -0.0940    0.1720 O   0  0  0  0  0  0  0  0  0  0  0  0
   -0.6720    2.4330    3.9280 H   0  0  0  0  0  0  0  0  0  0  0  0
    0.9990    1.5080    2.8610 H   0  0  0  0  0  0  0  0  0  0  0  0
    0.9520    0.5230    4.3350 H   0  0  0  0  0  0  0  0  0  0  0  0
   -0.5480   -1.1470    2.9710 H   0  0  0  0  0  0  0  0  0  0  0  0
    2.2310   -0.4580    1.9180 H   0  0  0  0  0  0  0  0  0  0  0  0
   -1.6530    0.7310    1.1220 N   0  0  0  0  0  0  0  0  0  0  0  0
   -2.0870    1.1600   -0.2070 C   0  0  1  0  0  0  0  0  0  0  0  0
   -3.3820    0.5330   -0.5830 C   0  0  0  0  0  0  0  0  0  0  0  0
   -3.8140    0.9670   -1.9210 C   0  0  0  0  0  0  0  0  0  0  0  0
   -4.6340    2.0170   -2.2730 C   0  0  0  0  0  0  0  0  0  0  0  0
   -4.7630    2.0040   -3.6320 N   0  0  0  0  0  0  0  0  0  0  0  0
   -4.0490    0.9820   -4.1150 C   0  0  0  0  0  0  0  0  0  0  0  0
   -3.4780    0.3580   -3.0840 N   0  0  0  0  0  0  0  0  0  0  0  0
   -2.1740    2.6340   -0.2310 C   0  0  0  0  0  0  0  0  0  0  0  0
   -1.9470    3.2960    0.8340 O   0  0  0  0  0  0  0  0  0  0  0  0
   -2.4870    3.3960   -1.3390 O   0  0  0  0  0  0  0  0  0  0  0  0
   -2.2340    0.8880    1.9690 H   0  0  0  0  0  0  0  0  0  0  0  0
   -1.3350    0.8790   -0.9720 H   0  0  0  0  0  0  0  0  0  0  0  0
   -4.1800    0.7990    0.1710 H   0  0  0  0  0  0  0  0  0  0  0  0
   -3.3400   -0.5790   -0.6010 H   0  0  0  0  0  0  0  0  0  0  0  0
   -5.1110    2.7380   -1.6110 H   0  0  0  0  0  0  0  0  0  0  0  0
   -5.3130    2.6580   -4.2320 H   0  0  0  0  0  0  0  0  0  0  0  0
   -3.9590    0.7200   -5.1470 H   0  0  0  0  0  0  0  0  0  0  0  0
  1 11  1  0  0  0  0
  2  1  1  0  0  0  0
  2  3  1  0  0  0  0
  3 14  1  1  0  0  0
  3  5  1  0  0  0  0
  4 15  1  0  0  0  0
  4 16  1  0  0  0  0
  4  3  1  0  0  0  0
  5  7  1  0  0  0  0
  5 18  1  1  0  0  0
  5  6  1  0  0  0  0
  7  8  2  0  0  0  0
  9  1  1  0  0  0  0
 10  1  1  0  0  0  0
 12  2  1  0  0  0  0
 13  2  1  0  0  0  0
 17  4  1  0  0  0  0
 19  6  1  0  0  0  0
 20  6  1  0  0  0  0
 21 27  1  0  0  0  0
 22 21  1  0  0  0  0
 22 29  1  0  0  0  0
 23 30  1  1  0  0  0
 23 22  1  0  0  0  0
 24 23  1  0  0  0  0
 24  7  1  0  0  0  0
 25 23  1  0  0  0  0
 26 25  2  0  0  0  0
 28 22  1  0  0  0  0
 31 24  1  0  0  0  0
 32 25  1  0  0  0  0
 32 43  1  0  0  0  0
 33 44  1  6  0  0  0
 33 32  1  0  0  0  0
 34 33  1  0  0  0  0
 34 45  1  0  0  0  0
 35 34  1  0  0  0  0
 36 35  2  0  0  0  0
 36 47  1  0  0  0  0
 37 36  1  0  0  0  0
 38 37  1  0  0  0  0
 38 39  2  0  0  0  0
 39 35  1  0  0  0  0
 40 33  1  0  0  0  0
 40 41  1  0  0  0  0
 42 40  2  0  0  0  0
 46 34  1  0  0  0  0
 48 37  1  0  0  0  0
 49 38  1  0  0  0  0
M  END
$$$$
