ISI.pdb
 OpenBabel07022418433D

 51 50  0  0  1  0  0  0  0  0999 V2000
    2.4430   -5.2450    1.7280 C   0  0  0  0  0  0  0  0  0  0  0  0
    2.1250   -4.1560    2.6900 C   0  0  0  0  0  0  0  0  0  0  0  0
    1.5410   -2.9170    1.9760 C   0  0  2  0  0  0  0  0  0  0  0  0
    0.2780   -3.4750    1.3140 C   0  0  0  0  0  0  0  0  0  0  0  0
    2.5940   -2.5100    0.9890 C   0  0  2  0  0  0  0  0  0  0  0  0
    3.7950   -2.2390    1.7830 N   0  0  0  0  0  0  0  0  0  0  0  0
    2.3300   -1.3070    0.2070 C   0  0  0  0  0  0  0  0  0  0  0  0
    3.1090   -0.2850    0.2850 O   0  0  0  0  0  0  0  0  0  0  0  0
    3.5430   -5.2360    1.5260 H   0  0  0  0  0  0  0  0  0  0  0  0
    2.2430   -6.2750    2.1400 H   0  0  0  0  0  0  0  0  0  0  0  0
    1.9500   -5.2130    0.7600 H   0  0  0  0  0  0  0  0  0  0  0  0
    3.0070   -3.8670    3.2920 H   0  0  0  0  0  0  0  0  0  0  0  0
    1.3270   -4.5120    3.3770 H   0  0  0  0  0  0  0  0  0  0  0  0
    1.2320   -2.1570    2.6860 H   0  0  0  0  0  0  0  0  0  0  0  0
   -0.1200   -4.3470    1.9240 H   0  0  0  0  0  0  0  0  0  0  0  0
   -0.5610   -2.7490    1.3560 H   0  0  0  0  0  0  0  0  0  0  0  0
    0.4800   -3.9010    0.3320 H   0  0  0  0  0  0  0  0  0  0  0  0
    2.8360   -3.4080    0.3770 H   0  0  0  0  0  0  0  0  0  0  0  0
    3.5640   -1.8870    2.7290 H   0  0  0  0  0  0  0  0  0  0  0  0
    4.4650   -3.0250    1.7640 H   0  0  0  0  0  0  0  0  0  0  0  0
    0.0410   -0.9080   -3.3600 O   0  0  0  0  0  0  0  0  0  0  0  0
    1.0540   -0.0560   -2.9260 C   0  0  0  0  0  0  0  0  0  0  0  0
    1.0660    0.1210   -1.4420 C   0  0  2  0  0  0  0  0  0  0  0  0
    1.2570   -1.0840   -0.6990 N   0  0  0  0  0  0  0  0  0  0  0  0
   -0.1720    0.8150   -1.0130 C   0  0  0  0  0  0  0  0  0  0  0  0
   -0.4990    1.9100   -1.5750 O   0  0  0  0  0  0  0  0  0  0  0  0
    0.4220   -1.7010   -3.8030 H   0  0  0  0  0  0  0  0  0  0  0  0
    2.0470   -0.3550   -3.3130 H   0  0  0  0  0  0  0  0  0  0  0  0
    0.8360    0.9400   -3.3770 H   0  0  0  0  0  0  0  0  0  0  0  0
    1.9130    0.8190   -1.2030 H   0  0  0  0  0  0  0  0  0  0  0  0
    0.5670   -1.8470   -0.8310 H   0  0  0  0  0  0  0  0  0  0  0  0
   -1.4190    2.8150    2.5320 C   0  0  0  0  0  0  0  0  0  0  0  0
   -1.4080    3.1520    1.0260 C   0  0  0  0  0  0  0  0  0  0  0  0
   -2.4630    2.3570    0.3250 C   0  0  2  0  0  0  0  0  0  0  0  0
   -3.8010    2.7070    0.9270 C   0  0  0  0  0  0  0  0  0  0  0  0
   -2.2140    0.8940    0.5160 C   0  0  2  0  0  0  0  0  0  0  0  0
   -1.0250    0.3450   -0.0150 N   0  0  0  0  0  0  0  0  0  0  0  0
   -3.3580    0.0070    0.3060 C   0  0  0  0  0  0  0  0  0  0  0  0
   -4.5420    0.2220    0.6620 O   0  0  0  0  0  0  0  0  0  0  0  0
   -3.1400   -1.2190   -0.3620 O   0  0  0  0  0  0  0  0  0  0  0  0
   -2.4080    2.4750    2.8750 H   0  0  0  0  0  0  0  0  0  0  0  0
   -1.0490    3.6890    3.1120 H   0  0  0  0  0  0  0  0  0  0  0  0
   -0.7000    1.9970    2.7430 H   0  0  0  0  0  0  0  0  0  0  0  0
   -0.3660    2.9660    0.7360 H   0  0  0  0  0  0  0  0  0  0  0  0
   -1.6710    4.2400    0.9720 H   0  0  0  0  0  0  0  0  0  0  0  0
   -2.5680    2.6410   -0.7480 H   0  0  0  0  0  0  0  0  0  0  0  0
   -3.8900    3.8250    1.0820 H   0  0  0  0  0  0  0  0  0  0  0  0
   -4.6180    2.5020    0.1710 H   0  0  0  0  0  0  0  0  0  0  0  0
   -4.0780    2.1550    1.8200 H   0  0  0  0  0  0  0  0  0  0  0  0
   -2.0130    0.8790    1.6670 H   0  0  0  0  0  0  0  0  0  0  0  0
   -0.7350   -0.5900    0.4260 H   0  0  0  0  0  0  0  0  0  0  0  0
  1 10  1  0  0  0  0
  1  2  1  0  0  0  0
  2 12  1  0  0  0  0
  2 13  1  0  0  0  0
  3 14  1  1  0  0  0
  3  2  1  0  0  0  0
  4 16  1  0  0  0  0
  4 15  1  0  0  0  0
  4  3  1  0  0  0  0
  5 18  1  6  0  0  0
  5  6  1  0  0  0  0
  5  3  1  0  0  0  0
  6 19  1  0  0  0  0
  7  8  2  0  0  0  0
  7  5  1  0  0  0  0
  9  1  1  0  0  0  0
 11  1  1  0  0  0  0
 17  4  1  0  0  0  0
 20  6  1  0  0  0  0
 21 22  1  0  0  0  0
 22 23  1  0  0  0  0
 23 30  1  1  0  0  0
 23 25  1  0  0  0  0
 23 24  1  0  0  0  0
 24  7  1  0  0  0  0
 25 37  1  0  0  0  0
 26 25  2  0  0  0  0
 27 21  1  0  0  0  0
 28 22  1  0  0  0  0
 29 22  1  0  0  0  0
 31 24  1  0  0  0  0
 32 43  1  0  0  0  0
 32 41  1  0  0  0  0
 32 42  1  0  0  0  0
 33 32  1  0  0  0  0
 34 46  1  6  0  0  0
 34 36  1  0  0  0  0
 34 35  1  0  0  0  0
 34 33  1  0  0  0  0
 35 47  1  0  0  0  0
 35 49  1  0  0  0  0
 36 50  1  1  0  0  0
 37 51  1  0  0  0  0
 37 36  1  0  0  0  0
 38 36  1  0  0  0  0
 38 39  1  0  0  0  0
 40 38  2  0  0  0  0
 44 33  1  0  0  0  0
 45 33  1  0  0  0  0
 48 35  1  0  0  0  0
M  END
$$$$
