ISK.pdb
 OpenBabel07022418433D

 53 52  0  0  1  0  0  0  0  0999 V2000
    1.9620   -3.7670    3.9070 C   0  0  0  0  0  0  0  0  0  0  0  0
    1.9600   -3.4580    2.4480 C   0  0  0  0  0  0  0  0  0  0  0  0
    3.3200   -3.0510    1.9200 C   0  0  2  0  0  0  0  0  0  0  0  0
    4.3410   -4.1550    2.1280 C   0  0  0  0  0  0  0  0  0  0  0  0
    3.7780   -1.7430    2.4780 C   0  0  2  0  0  0  0  0  0  0  0  0
    3.9010   -1.7250    3.9050 N   0  0  0  0  0  0  0  0  0  0  0  0
    2.7900   -0.7010    2.0950 C   0  0  0  0  0  0  0  0  0  0  0  0
    2.2070    0.0360    2.9430 O   0  0  0  0  0  0  0  0  0  0  0  0
    1.1240   -4.4940    4.0920 H   0  0  0  0  0  0  0  0  0  0  0  0
    2.8720   -4.2430    4.2770 H   0  0  0  0  0  0  0  0  0  0  0  0
    1.7230   -2.8500    4.4830 H   0  0  0  0  0  0  0  0  0  0  0  0
    1.2740   -2.6150    2.2580 H   0  0  0  0  0  0  0  0  0  0  0  0
    1.6120   -4.3180    1.8380 H   0  0  0  0  0  0  0  0  0  0  0  0
    3.2100   -2.9320    0.8220 H   0  0  0  0  0  0  0  0  0  0  0  0
    3.8760   -5.1600    2.0530 H   0  0  0  0  0  0  0  0  0  0  0  0
    5.1480   -4.1210    1.3680 H   0  0  0  0  0  0  0  0  0  0  0  0
    4.8400   -4.0820    3.1180 H   0  0  0  0  0  0  0  0  0  0  0  0
    4.7330   -1.4790    1.9700 H   0  0  0  0  0  0  0  0  0  0  0  0
    3.9190   -0.7010    4.1930 H   0  0  0  0  0  0  0  0  0  0  0  0
    4.7670   -2.1380    4.2770 H   0  0  0  0  0  0  0  0  0  0  0  0
    3.2810    2.0320    0.2570 O   0  0  0  0  0  0  0  0  0  0  0  0
    2.2170    1.5240   -0.5200 C   0  0  0  0  0  0  0  0  0  0  0  0
    1.4920    0.5340    0.3620 C   0  0  2  0  0  0  0  0  0  0  0  0
    2.4660   -0.4970    0.7190 N   0  0  0  0  0  0  0  0  0  0  0  0
    0.3460   -0.0830   -0.3860 C   0  0  0  0  0  0  0  0  0  0  0  0
    0.3280   -1.3150   -0.6180 O   0  0  0  0  0  0  0  0  0  0  0  0
    3.1360    2.9700    0.4940 H   0  0  0  0  0  0  0  0  0  0  0  0
    1.5890    2.3480   -0.8690 H   0  0  0  0  0  0  0  0  0  0  0  0
    2.7130    0.9680   -1.3550 H   0  0  0  0  0  0  0  0  0  0  0  0
    1.1300    1.0380    1.2810 H   0  0  0  0  0  0  0  0  0  0  0  0
    2.9280   -1.0870   -0.0070 H   0  0  0  0  0  0  0  0  0  0  0  0
   -0.7440    0.6930   -0.8540 N   0  0  0  0  0  0  0  0  0  0  0  0
   -1.8250    0.0140   -1.5770 C   0  0  1  0  0  0  0  0  0  0  0  0
   -3.1350    0.2370   -0.8530 C   0  0  0  0  0  0  0  0  0  0  0  0
   -4.2730   -0.4400   -1.5270 C   0  0  0  0  0  0  0  0  0  0  0  0
   -5.6000   -0.3390   -0.8650 C   0  0  0  0  0  0  0  0  0  0  0  0
   -6.1700    1.0120   -0.6640 C   0  0  0  0  0  0  0  0  0  0  0  0
   -5.3270    1.8200    0.1830 N   0  0  0  0  0  0  0  0  0  0  0  0
   -1.8770    0.6210   -2.9190 C   0  0  0  0  0  0  0  0  0  0  0  0
   -1.1070    1.6240   -3.1490 O   0  0  0  0  0  0  0  0  0  0  0  0
   -2.7010    0.1830   -3.9580 O   0  0  0  0  0  0  0  0  0  0  0  0
   -0.7900    1.7210   -0.6950 H   0  0  0  0  0  0  0  0  0  0  0  0
   -1.6490   -1.0540   -1.6710 H   0  0  0  0  0  0  0  0  0  0  0  0
   -3.3570    1.3510   -0.8680 H   0  0  0  0  0  0  0  0  0  0  0  0
   -3.0550   -0.0700    0.2040 H   0  0  0  0  0  0  0  0  0  0  0  0
   -4.4110   -0.0570   -2.5850 H   0  0  0  0  0  0  0  0  0  0  0  0
   -4.0610   -1.5320   -1.6600 H   0  0  0  0  0  0  0  0  0  0  0  0
   -5.5900   -0.9600    0.0610 H   0  0  0  0  0  0  0  0  0  0  0  0
   -6.3210   -0.8940   -1.5390 H   0  0  0  0  0  0  0  0  0  0  0  0
   -7.1630    0.9560   -0.1250 H   0  0  0  0  0  0  0  0  0  0  0  0
   -6.4270    1.5340   -1.6150 H   0  0  0  0  0  0  0  0  0  0  0  0
   -5.1740    2.7790   -0.2080 H   0  0  0  0  0  0  0  0  0  0  0  0
   -5.6380    1.8280    1.1740 H   0  0  0  0  0  0  0  0  0  0  0  0
  1  9  1  0  0  0  0
  1 10  1  0  0  0  0
  1 11  1  0  0  0  0
  2  1  1  0  0  0  0
  3 14  1  6  0  0  0
  3  4  1  0  0  0  0
  3  2  1  0  0  0  0
  3  5  1  0  0  0  0
  4 17  1  0  0  0  0
  5 18  1  6  0  0  0
  5  6  1  0  0  0  0
  6 19  1  0  0  0  0
  6 20  1  0  0  0  0
  7  5  1  0  0  0  0
  7  8  2  0  0  0  0
 12  2  1  0  0  0  0
 13  2  1  0  0  0  0
 15  4  1  0  0  0  0
 16  4  1  0  0  0  0
 21 27  1  0  0  0  0
 22 21  1  0  0  0  0
 22 23  1  0  0  0  0
 23 24  1  0  0  0  0
 23 30  1  1  0  0  0
 24  7  1  0  0  0  0
 25 23  1  0  0  0  0
 26 25  2  0  0  0  0
 28 22  1  0  0  0  0
 29 22  1  0  0  0  0
 31 24  1  0  0  0  0
 32 42  1  0  0  0  0
 32 25  1  0  0  0  0
 33 43  1  6  0  0  0
 33 32  1  0  0  0  0
 33 34  1  0  0  0  0
 34 45  1  0  0  0  0
 35 36  1  0  0  0  0
 35 34  1  0  0  0  0
 36 37  1  0  0  0  0
 36 48  1  0  0  0  0
 37 50  1  0  0  0  0
 37 38  1  0  0  0  0
 38 53  1  0  0  0  0
 39 33  1  0  0  0  0
 40 39  1  0  0  0  0
 41 39  2  0  0  0  0
 44 34  1  0  0  0  0
 46 35  1  0  0  0  0
 47 35  1  0  0  0  0
 49 36  1  0  0  0  0
 51 37  1  0  0  0  0
 52 38  1  0  0  0  0
M  END
$$$$
