ISM.pdb
 OpenBabel07022418433D

 49 48  0  0  1  0  0  0  0  0999 V2000
    1.7530   -2.2990    4.5060 C   0  0  0  0  0  0  0  0  0  0  0  0
    2.4770   -1.0380    4.1580 C   0  0  0  0  0  0  0  0  0  0  0  0
    2.0490   -0.5670    2.7530 C   0  0  2  0  0  0  0  0  0  0  0  0
    0.5640   -0.3410    2.8550 C   0  0  0  0  0  0  0  0  0  0  0  0
    2.4220   -1.7170    1.8390 C   0  0  2  0  0  0  0  0  0  0  0  0
    3.8940   -1.9380    1.9720 N   0  0  0  0  0  0  0  0  0  0  0  0
    2.2160   -1.4690    0.4150 C   0  0  0  0  0  0  0  0  0  0  0  0
    3.2120   -1.2470   -0.3690 O   0  0  0  0  0  0  0  0  0  0  0  0
    2.3240   -3.2110    4.1670 H   0  0  0  0  0  0  0  0  0  0  0  0
    1.6200   -2.3690    5.6220 H   0  0  0  0  0  0  0  0  0  0  0  0
    0.7440   -2.3940    4.0770 H   0  0  0  0  0  0  0  0  0  0  0  0
    3.5810   -1.2300    4.0620 H   0  0  0  0  0  0  0  0  0  0  0  0
    2.2820   -0.2720    4.9120 H   0  0  0  0  0  0  0  0  0  0  0  0
    2.5570    0.3690    2.5060 H   0  0  0  0  0  0  0  0  0  0  0  0
    0.0280   -1.2620    2.5680 H   0  0  0  0  0  0  0  0  0  0  0  0
    0.2330    0.5350    2.2580 H   0  0  0  0  0  0  0  0  0  0  0  0
    0.2570   -0.1720    3.9360 H   0  0  0  0  0  0  0  0  0  0  0  0
    1.9630   -2.6280    2.2500 H   0  0  0  0  0  0  0  0  0  0  0  0
    4.3120   -1.0180    1.6770 H   0  0  0  0  0  0  0  0  0  0  0  0
    4.1170   -2.6020    1.1890 H   0  0  0  0  0  0  0  0  0  0  0  0
    0.3000   -2.0250   -3.8140 O   0  0  0  0  0  0  0  0  0  0  0  0
    0.3350   -2.3870   -2.4510 C   0  0  0  0  0  0  0  0  0  0  0  0
    0.8840   -1.1890   -1.7020 C   0  0  2  0  0  0  0  0  0  0  0  0
    0.9690   -1.4400   -0.2810 N   0  0  0  0  0  0  0  0  0  0  0  0
   -0.0430   -0.0750   -1.9590 C   0  0  0  0  0  0  0  0  0  0  0  0
   -0.2600    0.3140   -3.1400 O   0  0  0  0  0  0  0  0  0  0  0  0
    1.2540   -2.0070   -4.0990 H   0  0  0  0  0  0  0  0  0  0  0  0
    0.9580   -3.2760   -2.3810 H   0  0  0  0  0  0  0  0  0  0  0  0
   -0.7220   -2.5520   -2.1680 H   0  0  0  0  0  0  0  0  0  0  0  0
    1.9070   -0.9830   -2.1290 H   0  0  0  0  0  0  0  0  0  0  0  0
    0.1010   -1.6160    0.2570 H   0  0  0  0  0  0  0  0  0  0  0  0
   -3.1120   -2.0940    0.1920 C   0  0  0  0  0  0  0  0  0  0  0  0
   -2.5850   -0.6310    1.1390 S   0  0  0  0  0  0  0  0  0  0  0  0
   -3.3710    0.8610    0.5570 C   0  0  0  0  0  0  0  0  0  0  0  0
   -3.0170    1.3250   -0.7950 C   0  0  0  0  0  0  0  0  0  0  0  0
   -1.6270    1.6830   -1.1050 C   0  0  2  0  0  0  0  0  0  0  0  0
   -0.7140    0.5920   -0.9270 N   0  0  0  0  0  0  0  0  0  0  0  0
   -1.1500    2.9390   -0.4820 C   0  0  0  0  0  0  0  0  0  0  0  0
   -1.7720    4.0130   -0.5080 O   0  0  0  0  0  0  0  0  0  0  0  0
    0.0730    2.9090    0.1720 O   0  0  0  0  0  0  0  0  0  0  0  0
   -2.6190   -2.0790   -0.7910 H   0  0  0  0  0  0  0  0  0  0  0  0
   -2.9490   -3.0310    0.7570 H   0  0  0  0  0  0  0  0  0  0  0  0
   -4.2080   -1.9410   -0.0010 H   0  0  0  0  0  0  0  0  0  0  0  0
   -3.3070    1.6730    1.3410 H   0  0  0  0  0  0  0  0  0  0  0  0
   -4.4840    0.6460    0.5410 H   0  0  0  0  0  0  0  0  0  0  0  0
   -3.3200    0.5030   -1.5140 H   0  0  0  0  0  0  0  0  0  0  0  0
   -3.7130    2.1680   -1.0530 H   0  0  0  0  0  0  0  0  0  0  0  0
   -1.6090    1.8920   -2.2230 H   0  0  0  0  0  0  0  0  0  0  0  0
   -0.5290    0.2750    0.0450 H   0  0  0  0  0  0  0  0  0  0  0  0
  1 10  1  0  0  0  0
  2  1  1  0  0  0  0
  2 13  1  0  0  0  0
  3 14  1  6  0  0  0
  3  4  1  0  0  0  0
  3  2  1  0  0  0  0
  4 17  1  0  0  0  0
  5  6  1  0  0  0  0
  5 18  1  1  0  0  0
  5  3  1  0  0  0  0
  7  5  1  0  0  0  0
  8  7  2  0  0  0  0
  9  1  1  0  0  0  0
 11  1  1  0  0  0  0
 12  2  1  0  0  0  0
 15  4  1  0  0  0  0
 16  4  1  0  0  0  0
 19  6  1  0  0  0  0
 20  6  1  0  0  0  0
 21 22  1  0  0  0  0
 22 28  1  0  0  0  0
 22 29  1  0  0  0  0
 22 23  1  0  0  0  0
 23 30  1  6  0  0  0
 23 24  1  0  0  0  0
 24 31  1  0  0  0  0
 24  7  1  0  0  0  0
 25 23  1  0  0  0  0
 25 37  1  0  0  0  0
 26 25  2  0  0  0  0
 27 21  1  0  0  0  0
 32 42  1  0  0  0  0
 32 33  1  0  0  0  0
 34 33  1  0  0  0  0
 34 44  1  0  0  0  0
 35 34  1  0  0  0  0
 36 48  1  6  0  0  0
 36 37  1  0  0  0  0
 36 35  1  0  0  0  0
 36 38  1  0  0  0  0
 37 49  1  0  0  0  0
 38 40  1  0  0  0  0
 39 38  2  0  0  0  0
 41 32  1  0  0  0  0
 43 32  1  0  0  0  0
 45 34  1  0  0  0  0
 46 35  1  0  0  0  0
 47 35  1  0  0  0  0
M  END
$$$$
