ISN.pdb
 OpenBabel07022418423D

 46 45  0  0  1  0  0  0  0  0999 V2000
    2.1970   -3.3900    3.9520 C   0  0  0  0  0  0  0  0  0  0  0  0
    2.9340   -2.9520    2.7290 C   0  0  0  0  0  0  0  0  0  0  0  0
    2.1430   -1.8370    1.9930 C   0  0  2  0  0  0  0  0  0  0  0  0
    0.7940   -2.4710    1.6290 C   0  0  0  0  0  0  0  0  0  0  0  0
    2.8480   -1.4840    0.7380 C   0  0  2  0  0  0  0  0  0  0  0  0
    4.2120   -1.0570    1.1870 N   0  0  0  0  0  0  0  0  0  0  0  0
    2.2940   -0.4400   -0.1050 C   0  0  0  0  0  0  0  0  0  0  0  0
    3.0260    0.6110   -0.2740 O   0  0  0  0  0  0  0  0  0  0  0  0
    2.9070   -3.5280    4.7890 H   0  0  0  0  0  0  0  0  0  0  0  0
    1.5250   -2.5550    4.2560 H   0  0  0  0  0  0  0  0  0  0  0  0
    1.6230   -4.3330    3.7850 H   0  0  0  0  0  0  0  0  0  0  0  0
    3.0850   -3.8110    2.0700 H   0  0  0  0  0  0  0  0  0  0  0  0
    3.9250   -2.5650    3.0320 H   0  0  0  0  0  0  0  0  0  0  0  0
    1.9610   -1.0600    2.7180 H   0  0  0  0  0  0  0  0  0  0  0  0
   -0.0180   -1.7630    1.5460 H   0  0  0  0  0  0  0  0  0  0  0  0
    0.9610   -3.0110    0.6780 H   0  0  0  0  0  0  0  0  0  0  0  0
    0.5830   -3.2880    2.3720 H   0  0  0  0  0  0  0  0  0  0  0  0
    3.0270   -2.3920    0.1270 H   0  0  0  0  0  0  0  0  0  0  0  0
    4.8570   -1.8550    1.1850 H   0  0  0  0  0  0  0  0  0  0  0  0
    4.5120   -0.2420    0.6230 H   0  0  0  0  0  0  0  0  0  0  0  0
   -0.6810   -0.5890   -3.1290 O   0  0  0  0  0  0  0  0  0  0  0  0
    0.3290    0.3410   -3.0190 C   0  0  0  0  0  0  0  0  0  0  0  0
    0.6470    0.7200   -1.6060 C   0  0  2  0  0  0  0  0  0  0  0  0
    1.0730   -0.3770   -0.7850 N   0  0  0  0  0  0  0  0  0  0  0  0
   -0.5090    1.3990   -1.0080 C   0  0  0  0  0  0  0  0  0  0  0  0
   -0.9960    2.3840   -1.6590 O   0  0  0  0  0  0  0  0  0  0  0  0
   -1.4580   -0.2600   -3.6560 H   0  0  0  0  0  0  0  0  0  0  0  0
    1.2570    0.0270   -3.5810 H   0  0  0  0  0  0  0  0  0  0  0  0
   -0.0120    1.2630   -3.5360 H   0  0  0  0  0  0  0  0  0  0  0  0
    1.4830    1.4540   -1.6350 H   0  0  0  0  0  0  0  0  0  0  0  0
    0.4280   -1.1850   -0.6940 H   0  0  0  0  0  0  0  0  0  0  0  0
   -4.4090   -1.1260    1.8340 N   0  0  0  0  0  0  0  0  0  0  0  0
   -3.3200   -0.2020    1.6890 C   0  0  0  0  0  0  0  0  0  0  0  0
   -2.2950   -0.4580    2.3520 O   0  0  0  0  0  0  0  0  0  0  0  0
   -3.4990    0.9470    0.7910 C   0  0  0  0  0  0  0  0  0  0  0  0
   -2.3000    1.8450    0.7050 C   0  0  2  0  0  0  0  0  0  0  0  0
   -1.1490    1.0940    0.2060 N   0  0  0  0  0  0  0  0  0  0  0  0
   -1.9850    2.4900    2.0070 C   0  0  0  0  0  0  0  0  0  0  0  0
   -0.8580    2.3650    2.5530 O   0  0  0  0  0  0  0  0  0  0  0  0
   -2.9310    3.2570    2.6710 O   0  0  0  0  0  0  0  0  0  0  0  0
   -4.1770   -2.1390    1.7640 H   0  0  0  0  0  0  0  0  0  0  0  0
   -5.3790   -0.8390    1.9980 H   0  0  0  0  0  0  0  0  0  0  0  0
   -4.3970    1.5600    1.0280 H   0  0  0  0  0  0  0  0  0  0  0  0
   -3.6720    0.5460   -0.2400 H   0  0  0  0  0  0  0  0  0  0  0  0
   -2.5440    2.6500   -0.0190 H   0  0  0  0  0  0  0  0  0  0  0  0
   -0.7740    0.3040    0.7560 H   0  0  0  0  0  0  0  0  0  0  0  0
  1 10  1  0  0  0  0
  1  9  1  0  0  0  0
  2 13  1  0  0  0  0
  2  1  1  0  0  0  0
  3 14  1  1  0  0  0
  3  2  1  0  0  0  0
  4  3  1  0  0  0  0
  4 17  1  0  0  0  0
  5 18  1  6  0  0  0
  5  6  1  0  0  0  0
  5  3  1  0  0  0  0
  7  5  1  0  0  0  0
  8  7  2  0  0  0  0
 11  1  1  0  0  0  0
 12  2  1  0  0  0  0
 15  4  1  0  0  0  0
 16  4  1  0  0  0  0
 19  6  1  0  0  0  0
 20  6  1  0  0  0  0
 21 22  1  0  0  0  0
 22 23  1  0  0  0  0
 23 30  1  6  0  0  0
 23 25  1  0  0  0  0
 23 24  1  0  0  0  0
 24 31  1  0  0  0  0
 24  7  1  0  0  0  0
 25 37  1  0  0  0  0
 26 25  2  0  0  0  0
 27 21  1  0  0  0  0
 28 22  1  0  0  0  0
 29 22  1  0  0  0  0
 32 42  1  0  0  0  0
 33 32  1  0  0  0  0
 33 34  2  0  0  0  0
 35 43  1  0  0  0  0
 35 33  1  0  0  0  0
 36 45  1  6  0  0  0
 36 35  1  0  0  0  0
 36 38  1  0  0  0  0
 37 36  1  0  0  0  0
 37 46  1  0  0  0  0
 38 39  2  0  0  0  0
 38 40  1  0  0  0  0
 41 32  1  0  0  0  0
 44 35  1  0  0  0  0
M  END
$$$$
