ISP.pdb
 OpenBabel07022418433D

 46 46  0  0  1  0  0  0  0  0999 V2000
    2.6530   -3.2310    0.2960 C   0  0  0  0  0  0  0  0  0  0  0  0
    1.2080   -3.1940   -0.1530 C   0  0  0  0  0  0  0  0  0  0  0  0
    0.2390   -3.5950    0.9130 C   0  0  2  0  0  0  0  0  0  0  0  0
   -1.2020   -3.5430    0.3900 C   0  0  0  0  0  0  0  0  0  0  0  0
    0.3870   -3.0500    2.2510 C   0  0  2  0  0  0  0  0  0  0  0  0
   -0.6920   -3.6860    3.0720 N   0  0  0  0  0  0  0  0  0  0  0  0
    0.3660   -1.6580    2.5800 C   0  0  0  0  0  0  0  0  0  0  0  0
   -0.3770   -1.3470    3.6070 O   0  0  0  0  0  0  0  0  0  0  0  0
    2.7970   -3.4500    1.3560 H   0  0  0  0  0  0  0  0  0  0  0  0
    3.2310   -3.9890   -0.3070 H   0  0  0  0  0  0  0  0  0  0  0  0
    3.1670   -2.2370    0.1240 H   0  0  0  0  0  0  0  0  0  0  0  0
    1.0410   -2.1950   -0.5950 H   0  0  0  0  0  0  0  0  0  0  0  0
    1.1460   -3.9190   -1.0220 H   0  0  0  0  0  0  0  0  0  0  0  0
    0.4030   -4.7180    1.0280 H   0  0  0  0  0  0  0  0  0  0  0  0
   -1.8130   -4.3610    0.8260 H   0  0  0  0  0  0  0  0  0  0  0  0
   -1.6970   -2.6000    0.6690 H   0  0  0  0  0  0  0  0  0  0  0  0
   -1.1680   -3.7190   -0.7030 H   0  0  0  0  0  0  0  0  0  0  0  0
    1.3170   -3.5010    2.7190 H   0  0  0  0  0  0  0  0  0  0  0  0
   -1.6140   -3.4170    2.6830 H   0  0  0  0  0  0  0  0  0  0  0  0
   -0.5750   -3.2940    4.0520 H   0  0  0  0  0  0  0  0  0  0  0  0
    1.9160    2.5950    3.5300 O   0  0  0  0  0  0  0  0  0  0  0  0
    2.1810    1.3110    3.0570 C   0  0  0  0  0  0  0  0  0  0  0  0
    0.8680    0.7700    2.4990 C   0  0  2  0  0  0  0  0  0  0  0  0
    1.0170   -0.5530    1.9810 N   0  0  0  0  0  0  0  0  0  0  0  0
    0.2290    1.7610    1.6150 C   0  0  0  0  0  0  0  0  0  0  0  0
    0.0850    2.9610    2.0850 O   0  0  0  0  0  0  0  0  0  0  0  0
    2.2790    3.2760    2.9100 H   0  0  0  0  0  0  0  0  0  0  0  0
    2.9660    1.3880    2.3070 H   0  0  0  0  0  0  0  0  0  0  0  0
    2.4490    0.6800    3.9020 H   0  0  0  0  0  0  0  0  0  0  0  0
    0.2130    0.6970    3.4250 H   0  0  0  0  0  0  0  0  0  0  0  0
    1.6080   -0.7390    1.1580 H   0  0  0  0  0  0  0  0  0  0  0  0
   -0.2440    1.5570    0.3160 N   0  0  0  0  0  0  0  0  0  0  0  0
   -0.2040    0.3430   -0.4310 C   0  0  0  0  0  0  0  0  0  0  0  0
   -1.1510    0.5200   -1.6210 C   0  0  0  0  0  0  0  0  0  0  0  0
   -1.0260    2.0070   -1.8840 C   0  0  0  0  0  0  0  0  0  0  0  0
   -0.8800    2.5820   -0.5200 C   0  0  1  0  0  0  0  0  0  0  0  0
   -2.1920    2.9700    0.0030 C   0  0  0  0  0  0  0  0  0  0  0  0
   -2.6430    2.4490    1.0350 O   0  0  0  0  0  0  0  0  0  0  0  0
   -2.9110    3.9350   -0.6890 O   0  0  0  0  0  0  0  0  0  0  0  0
    0.7840    0.1490   -0.9060 H   0  0  0  0  0  0  0  0  0  0  0  0
   -0.5740   -0.5190    0.1150 H   0  0  0  0  0  0  0  0  0  0  0  0
   -2.1800    0.2630   -1.3280 H   0  0  0  0  0  0  0  0  0  0  0  0
   -0.8110   -0.0670   -2.4900 H   0  0  0  0  0  0  0  0  0  0  0  0
   -0.1810    2.2340   -2.5550 H   0  0  0  0  0  0  0  0  0  0  0  0
   -1.9750    2.3290   -2.3580 H   0  0  0  0  0  0  0  0  0  0  0  0
   -0.1570    3.4300   -0.5560 H   0  0  0  0  0  0  0  0  0  0  0  0
  1  9  1  0  0  0  0
  2  1  1  0  0  0  0
  2  3  1  0  0  0  0
  3 14  1  1  0  0  0
  3  5  1  0  0  0  0
  4 16  1  0  0  0  0
  4 15  1  0  0  0  0
  4  3  1  0  0  0  0
  5  7  1  0  0  0  0
  5 18  1  1  0  0  0
  5  6  1  0  0  0  0
  6 20  1  0  0  0  0
  7  8  2  0  0  0  0
 10  1  1  0  0  0  0
 11  1  1  0  0  0  0
 12  2  1  0  0  0  0
 13  2  1  0  0  0  0
 17  4  1  0  0  0  0
 19  6  1  0  0  0  0
 22 21  1  0  0  0  0
 22 29  1  0  0  0  0
 23 22  1  0  0  0  0
 23 30  1  1  0  0  0
 24 23  1  0  0  0  0
 24  7  1  0  0  0  0
 25 26  2  0  0  0  0
 25 23  1  0  0  0  0
 27 21  1  0  0  0  0
 28 22  1  0  0  0  0
 31 24  1  0  0  0  0
 32 25  1  0  0  0  0
 33 41  1  0  0  0  0
 33 32  1  0  0  0  0
 34 42  1  0  0  0  0
 34 33  1  0  0  0  0
 35 34  1  0  0  0  0
 35 36  1  0  0  0  0
 36 46  1  6  0  0  0
 36 37  1  0  0  0  0
 36 32  1  0  0  0  0
 37 38  1  0  0  0  0
 39 37  2  0  0  0  0
 40 33  1  0  0  0  0
 43 34  1  0  0  0  0
 44 35  1  0  0  0  0
 45 35  1  0  0  0  0
M  END
$$$$
