ISQ.pdb
 OpenBabel07022418433D

 49 48  0  0  1  0  0  0  0  0999 V2000
   -0.9490   -5.1620    0.7520 C   0  0  0  0  0  0  0  0  0  0  0  0
    0.2220   -4.4730    1.4190 C   0  0  0  0  0  0  0  0  0  0  0  0
    1.4030   -4.4420    0.4740 C   0  0  2  0  0  0  0  0  0  0  0  0
    1.8220   -5.8410    0.0900 C   0  0  0  0  0  0  0  0  0  0  0  0
    2.5760   -3.6970    1.0650 C   0  0  2  0  0  0  0  0  0  0  0  0
    3.0470   -4.2830    2.2860 N   0  0  0  0  0  0  0  0  0  0  0  0
    2.1470   -2.2840    1.2450 C   0  0  0  0  0  0  0  0  0  0  0  0
    2.2450   -1.7980    2.3990 O   0  0  0  0  0  0  0  0  0  0  0  0
   -1.7470   -4.4190    0.4760 H   0  0  0  0  0  0  0  0  0  0  0  0
   -0.6100   -5.5990   -0.1950 H   0  0  0  0  0  0  0  0  0  0  0  0
   -1.4210   -5.8970    1.4320 H   0  0  0  0  0  0  0  0  0  0  0  0
    0.5310   -5.1360    2.2790 H   0  0  0  0  0  0  0  0  0  0  0  0
   -0.0310   -3.4970    1.8240 H   0  0  0  0  0  0  0  0  0  0  0  0
    1.0660   -3.8970   -0.4310 H   0  0  0  0  0  0  0  0  0  0  0  0
    1.6330   -6.5430    0.9320 H   0  0  0  0  0  0  0  0  0  0  0  0
    1.2550   -6.1800   -0.7820 H   0  0  0  0  0  0  0  0  0  0  0  0
    2.9130   -5.7900   -0.1490 H   0  0  0  0  0  0  0  0  0  0  0  0
    3.4030   -3.7840    0.3240 H   0  0  0  0  0  0  0  0  0  0  0  0
    4.0820   -4.2080    2.3410 H   0  0  0  0  0  0  0  0  0  0  0  0
    2.8140   -5.3140    2.2430 H   0  0  0  0  0  0  0  0  0  0  0  0
    3.4980    0.5770   -0.0430 O   0  0  0  0  0  0  0  0  0  0  0  0
    2.1930    0.7240   -0.4970 C   0  0  0  0  0  0  0  0  0  0  0  0
    1.2230   -0.1150    0.3480 C   0  0  2  0  0  0  0  0  0  0  0  0
    1.6470   -1.4790    0.2160 N   0  0  0  0  0  0  0  0  0  0  0  0
   -0.1330    0.1470   -0.1140 C   0  0  0  0  0  0  0  0  0  0  0  0
   -0.8870   -0.7310   -0.5920 O   0  0  0  0  0  0  0  0  0  0  0  0
    3.9120    1.4770    0.0770 H   0  0  0  0  0  0  0  0  0  0  0  0
    1.8670    1.7730   -0.5330 H   0  0  0  0  0  0  0  0  0  0  0  0
    2.1510    0.3340   -1.5360 H   0  0  0  0  0  0  0  0  0  0  0  0
    1.3440    0.2410    1.4100 H   0  0  0  0  0  0  0  0  0  0  0  0
    1.5720   -1.9020   -0.7420 H   0  0  0  0  0  0  0  0  0  0  0  0
   -2.4070    5.3190    3.0370 N   0  0  0  0  0  0  0  0  0  0  0  0
   -2.9060    4.1900    2.3740 C   0  0  0  0  0  0  0  0  0  0  0  0
   -4.0050    3.6320    2.6670 O   0  0  0  0  0  0  0  0  0  0  0  0
   -2.1250    3.5950    1.2650 C   0  0  0  0  0  0  0  0  0  0  0  0
   -2.8190    2.3820    0.6690 C   0  0  0  0  0  0  0  0  0  0  0  0
   -1.9470    1.8650   -0.4390 C   0  0  2  0  0  0  0  0  0  0  0  0
   -0.6380    1.4700   -0.0230 N   0  0  0  0  0  0  0  0  0  0  0  0
   -1.8810    2.8010   -1.5840 C   0  0  0  0  0  0  0  0  0  0  0  0
   -2.9550    3.2370   -2.0610 O   0  0  0  0  0  0  0  0  0  0  0  0
   -0.6880    3.2140   -2.1470 O   0  0  0  0  0  0  0  0  0  0  0  0
   -2.8060    5.5160    4.0030 H   0  0  0  0  0  0  0  0  0  0  0  0
   -1.6910    5.9140    2.5980 H   0  0  0  0  0  0  0  0  0  0  0  0
   -1.9550    4.3720    0.4990 H   0  0  0  0  0  0  0  0  0  0  0  0
   -1.1300    3.3240    1.7090 H   0  0  0  0  0  0  0  0  0  0  0  0
   -3.0930    1.6400    1.4100 H   0  0  0  0  0  0  0  0  0  0  0  0
   -3.7680    2.7700    0.2280 H   0  0  0  0  0  0  0  0  0  0  0  0
   -2.4490    0.9330   -0.8380 H   0  0  0  0  0  0  0  0  0  0  0  0
   -0.0290    2.2500    0.3780 H   0  0  0  0  0  0  0  0  0  0  0  0
  1  2  1  0  0  0  0
  1 11  1  0  0  0  0
  2 13  1  0  0  0  0
  2 12  1  0  0  0  0
  3 14  1  6  0  0  0
  3  5  1  0  0  0  0
  3  2  1  0  0  0  0
  4  3  1  0  0  0  0
  4 15  1  0  0  0  0
  5 18  1  6  0  0  0
  5  7  1  0  0  0  0
  5  6  1  0  0  0  0
  6 19  1  0  0  0  0
  7  8  2  0  0  0  0
  9  1  1  0  0  0  0
 10  1  1  0  0  0  0
 16  4  1  0  0  0  0
 17  4  1  0  0  0  0
 20  6  1  0  0  0  0
 21 27  1  0  0  0  0
 22 21  1  0  0  0  0
 22 23  1  0  0  0  0
 23 30  1  1  0  0  0
 24 23  1  0  0  0  0
 24  7  1  0  0  0  0
 25 38  1  0  0  0  0
 25 23  1  0  0  0  0
 26 25  2  0  0  0  0
 28 22  1  0  0  0  0
 29 22  1  0  0  0  0
 31 24  1  0  0  0  0
 32 42  1  0  0  0  0
 33 34  2  0  0  0  0
 33 32  1  0  0  0  0
 35 45  1  0  0  0  0
 35 33  1  0  0  0  0
 36 35  1  0  0  0  0
 36 46  1  0  0  0  0
 37 48  1  6  0  0  0
 37 38  1  0  0  0  0
 37 36  1  0  0  0  0
 38 49  1  0  0  0  0
 39 37  1  0  0  0  0
 40 39  1  0  0  0  0
 41 39  2  0  0  0  0
 43 32  1  0  0  0  0
 44 35  1  0  0  0  0
 47 36  1  0  0  0  0
M  END
$$$$
