ISR.pdb
 OpenBabel07022418423D

 55 54  0  0  1  0  0  0  0  0999 V2000
    4.6910   -2.0850    5.1630 C   0  0  0  0  0  0  0  0  0  0  0  0
    3.7360   -1.5220    4.1050 C   0  0  0  0  0  0  0  0  0  0  0  0
    2.3710   -2.1060    4.2520 C   0  0  2  0  0  0  0  0  0  0  0  0
    2.4470   -3.5870    4.0880 C   0  0  0  0  0  0  0  0  0  0  0  0
    1.3400   -1.4560    3.3580 C   0  0  2  0  0  0  0  0  0  0  0  0
    0.0490   -2.1010    3.5840 N   0  0  0  0  0  0  0  0  0  0  0  0
    1.7150   -1.4700    1.9370 C   0  0  0  0  0  0  0  0  0  0  0  0
    2.7650   -0.8960    1.5690 O   0  0  0  0  0  0  0  0  0  0  0  0
    4.9930   -3.1010    4.8340 H   0  0  0  0  0  0  0  0  0  0  0  0
    5.5370   -1.3760    5.2250 H   0  0  0  0  0  0  0  0  0  0  0  0
    4.1390   -2.0820    6.1120 H   0  0  0  0  0  0  0  0  0  0  0  0
    3.7950   -0.4310    4.1250 H   0  0  0  0  0  0  0  0  0  0  0  0
    4.2010   -1.8530    3.1300 H   0  0  0  0  0  0  0  0  0  0  0  0
    2.0300   -1.8930    5.2990 H   0  0  0  0  0  0  0  0  0  0  0  0
    3.3120   -3.8930    3.4560 H   0  0  0  0  0  0  0  0  0  0  0  0
    2.6270   -4.0420    5.0830 H   0  0  0  0  0  0  0  0  0  0  0  0
    1.4870   -4.0220    3.7190 H   0  0  0  0  0  0  0  0  0  0  0  0
    1.2330   -0.4150    3.7200 H   0  0  0  0  0  0  0  0  0  0  0  0
   -0.7260   -1.5700    3.1260 H   0  0  0  0  0  0  0  0  0  0  0  0
   -0.1520   -2.0840    4.6060 H   0  0  0  0  0  0  0  0  0  0  0  0
    0.4190   -4.3370   -0.9310 O   0  0  0  0  0  0  0  0  0  0  0  0
    1.5290   -3.5080   -1.0260 C   0  0  0  0  0  0  0  0  0  0  0  0
    1.2920   -2.1330   -0.4580 C   0  0  2  0  0  0  0  0  0  0  0  0
    0.9470   -2.1080    0.9190 N   0  0  0  0  0  0  0  0  0  0  0  0
    0.2770   -1.4710   -1.3460 C   0  0  0  0  0  0  0  0  0  0  0  0
    0.4990   -1.4580   -2.5750 O   0  0  0  0  0  0  0  0  0  0  0  0
   -0.2470   -3.9580   -0.3030 H   0  0  0  0  0  0  0  0  0  0  0  0
    1.6890   -3.3520   -2.1370 H   0  0  0  0  0  0  0  0  0  0  0  0
    2.4550   -3.9830   -0.6720 H   0  0  0  0  0  0  0  0  0  0  0  0
    2.2450   -1.5640   -0.6350 H   0  0  0  0  0  0  0  0  0  0  0  0
    0.0460   -2.6070    1.1950 H   0  0  0  0  0  0  0  0  0  0  0  0
   -3.9310    4.6340   -0.0770 N   0  0  0  0  0  0  0  0  0  0  0  0
   -4.2200    3.5470   -0.9360 C   0  0  0  0  0  0  0  0  0  0  0  0
   -5.4300    3.0540   -1.0170 N   0  0  0  0  0  0  0  0  0  0  0  0
   -3.1920    2.9760   -1.7230 N   0  0  0  0  0  0  0  0  0  0  0  0
   -3.4520    2.0040   -2.7560 C   0  0  0  0  0  0  0  0  0  0  0  0
   -2.1730    1.5510   -3.4300 C   0  0  0  0  0  0  0  0  0  0  0  0
   -1.2140    0.9120   -2.4750 C   0  0  0  0  0  0  0  0  0  0  0  0
   -1.8140   -0.2600   -1.8030 C   0  0  2  0  0  0  0  0  0  0  0  0
   -0.8930   -0.8750   -0.8490 N   0  0  0  0  0  0  0  0  0  0  0  0
   -2.3060   -1.2600   -2.7600 C   0  0  0  0  0  0  0  0  0  0  0  0
   -3.1460   -1.0410   -3.6500 O   0  0  0  0  0  0  0  0  0  0  0  0
   -1.8280   -2.5970   -2.7200 O   0  0  0  0  0  0  0  0  0  0  0  0
   -3.7610    5.5970   -0.4400 H   0  0  0  0  0  0  0  0  0  0  0  0
   -3.8830    4.4690    0.9720 H   0  0  0  0  0  0  0  0  0  0  0  0
   -5.6440    2.2560   -1.6460 H   0  0  0  0  0  0  0  0  0  0  0  0
   -2.2080    3.2660   -1.5560 H   0  0  0  0  0  0  0  0  0  0  0  0
   -4.1210    2.4630   -3.5330 H   0  0  0  0  0  0  0  0  0  0  0  0
   -4.0140    1.1680   -2.3040 H   0  0  0  0  0  0  0  0  0  0  0  0
   -2.4330    0.8920   -4.2630 H   0  0  0  0  0  0  0  0  0  0  0  0
   -1.6870    2.4500   -3.9330 H   0  0  0  0  0  0  0  0  0  0  0  0
   -0.9070    1.7200   -1.7610 H   0  0  0  0  0  0  0  0  0  0  0  0
   -0.3120    0.6270   -3.1060 H   0  0  0  0  0  0  0  0  0  0  0  0
   -2.6950    0.0900   -1.2150 H   0  0  0  0  0  0  0  0  0  0  0  0
   -1.1250   -0.8550    0.1570 H   0  0  0  0  0  0  0  0  0  0  0  0
  1 10  1  0  0  0  0
  1 11  1  0  0  0  0
  2 12  1  0  0  0  0
  2  3  1  0  0  0  0
  2  1  1  0  0  0  0
  3 14  1  1  0  0  0
  4  3  1  0  0  0  0
  4 16  1  0  0  0  0
  5  6  1  0  0  0  0
  5 18  1  1  0  0  0
  5  3  1  0  0  0  0
  6 20  1  0  0  0  0
  7  5  1  0  0  0  0
  8  7  2  0  0  0  0
  9  1  1  0  0  0  0
 13  2  1  0  0  0  0
 15  4  1  0  0  0  0
 17  4  1  0  0  0  0
 19  6  1  0  0  0  0
 21 27  1  0  0  0  0
 22 21  1  0  0  0  0
 22 29  1  0  0  0  0
 22 23  1  0  0  0  0
 23 30  1  6  0  0  0
 23 24  1  0  0  0  0
 24 31  1  0  0  0  0
 24  7  1  0  0  0  0
 25 40  1  0  0  0  0
 25 23  1  0  0  0  0
 26 25  2  0  0  0  0
 28 22  1  0  0  0  0
 32 45  1  0  0  0  0
 33 32  1  0  0  0  0
 34 33  2  0  0  0  0
 35 47  1  0  0  0  0
 35 33  1  0  0  0  0
 36 49  1  0  0  0  0
 36 35  1  0  0  0  0
 37 36  1  0  0  0  0
 37 38  1  0  0  0  0
 38 39  1  0  0  0  0
 38 52  1  0  0  0  0
 39 54  1  1  0  0  0
 39 40  1  0  0  0  0
 40 55  1  0  0  0  0
 41 43  1  0  0  0  0
 41 39  1  0  0  0  0
 42 41  2  0  0  0  0
 44 32  1  0  0  0  0
 46 34  1  0  0  0  0
 48 36  1  0  0  0  0
 50 37  1  0  0  0  0
 51 37  1  0  0  0  0
 53 38  1  0  0  0  0
M  END
$$$$
