ISS.pdb
 OpenBabel07022418433D

 43 42  0  0  1  0  0  0  0  0999 V2000
    3.0890   -3.5880   -0.5980 C   0  0  0  0  0  0  0  0  0  0  0  0
    2.3920   -2.3430   -1.0360 C   0  0  0  0  0  0  0  0  0  0  0  0
    3.2160   -1.0970   -0.7820 C   0  0  2  0  0  0  0  0  0  0  0  0
    4.5180   -1.1770   -1.5310 C   0  0  0  0  0  0  0  0  0  0  0  0
    3.4970   -0.9030    0.6800 C   0  0  2  0  0  0  0  0  0  0  0  0
    4.2230   -2.0300    1.1810 N   0  0  0  0  0  0  0  0  0  0  0  0
    2.2670   -0.7250    1.4800 C   0  0  0  0  0  0  0  0  0  0  0  0
    1.9880   -1.4970    2.4340 O   0  0  0  0  0  0  0  0  0  0  0  0
    2.7960   -3.7940    0.4660 H   0  0  0  0  0  0  0  0  0  0  0  0
    2.6690   -4.4450   -1.1760 H   0  0  0  0  0  0  0  0  0  0  0  0
    4.1830   -3.5450   -0.6530 H   0  0  0  0  0  0  0  0  0  0  0  0
    1.4210   -2.2000   -0.5090 H   0  0  0  0  0  0  0  0  0  0  0  0
    2.1750   -2.4190   -2.1160 H   0  0  0  0  0  0  0  0  0  0  0  0
    2.6940   -0.1860   -1.1390 H   0  0  0  0  0  0  0  0  0  0  0  0
    4.9980   -0.1830   -1.6370 H   0  0  0  0  0  0  0  0  0  0  0  0
    5.2470   -1.8620   -1.0950 H   0  0  0  0  0  0  0  0  0  0  0  0
    4.2810   -1.5600   -2.5570 H   0  0  0  0  0  0  0  0  0  0  0  0
    4.1750   -0.0140    0.7610 H   0  0  0  0  0  0  0  0  0  0  0  0
    5.2380   -2.0260    0.9410 H   0  0  0  0  0  0  0  0  0  0  0  0
    4.0780   -2.1930    2.2100 H   0  0  0  0  0  0  0  0  0  0  0  0
   -0.8870    2.1460    3.3860 O   0  0  0  0  0  0  0  0  0  0  0  0
    0.2360    1.8860    2.6200 C   0  0  0  0  0  0  0  0  0  0  0  0
    0.1320    0.5110    1.9850 C   0  0  2  0  0  0  0  0  0  0  0  0
    1.3420    0.3250    1.2090 N   0  0  0  0  0  0  0  0  0  0  0  0
   -1.0210    0.4240    1.0640 C   0  0  0  0  0  0  0  0  0  0  0  0
   -0.8180    0.2210   -0.1550 O   0  0  0  0  0  0  0  0  0  0  0  0
   -1.2250    3.0640    3.2340 H   0  0  0  0  0  0  0  0  0  0  0  0
    0.3560    2.6500    1.8290 H   0  0  0  0  0  0  0  0  0  0  0  0
    1.1130    1.9340    3.2790 H   0  0  0  0  0  0  0  0  0  0  0  0
    0.0750   -0.2790    2.7830 H   0  0  0  0  0  0  0  0  0  0  0  0
    1.5830    0.9580    0.4160 H   0  0  0  0  0  0  0  0  0  0  0  0
   -4.7290   -0.4600    2.3690 O   0  0  0  0  0  0  0  0  0  0  0  0
   -4.3350   -0.7210    1.0590 C   0  0  0  0  0  0  0  0  0  0  0  0
   -3.5010    0.4760    0.5810 C   0  0  2  0  0  0  0  0  0  0  0  0
   -2.3720    0.5600    1.4820 N   0  0  0  0  0  0  0  0  0  0  0  0
   -4.3690    1.6630    0.6590 C   0  0  0  0  0  0  0  0  0  0  0  0
   -4.1660    2.6450    1.4160 O   0  0  0  0  0  0  0  0  0  0  0  0
   -5.4870    1.7020   -0.1570 O   0  0  0  0  0  0  0  0  0  0  0  0
   -4.8390   -1.3150    2.8870 H   0  0  0  0  0  0  0  0  0  0  0  0
   -3.6270   -1.5760    1.0920 H   0  0  0  0  0  0  0  0  0  0  0  0
   -5.1880   -0.9010    0.3780 H   0  0  0  0  0  0  0  0  0  0  0  0
   -3.1330    0.2930   -0.4550 H   0  0  0  0  0  0  0  0  0  0  0  0
   -2.5390    0.7290    2.4980 H   0  0  0  0  0  0  0  0  0  0  0  0
  1  9  1  0  0  0  0
  2  3  1  0  0  0  0
  2  1  1  0  0  0  0
  2 12  1  0  0  0  0
  3 14  1  6  0  0  0
  3  5  1  0  0  0  0
  4 16  1  0  0  0  0
  4  3  1  0  0  0  0
  5 18  1  1  0  0  0
  5  6  1  0  0  0  0
  5  7  1  0  0  0  0
  6 20  1  0  0  0  0
  7  8  2  0  0  0  0
 10  1  1  0  0  0  0
 11  1  1  0  0  0  0
 13  2  1  0  0  0  0
 15  4  1  0  0  0  0
 17  4  1  0  0  0  0
 19  6  1  0  0  0  0
 22 29  1  0  0  0  0
 22 21  1  0  0  0  0
 23 22  1  0  0  0  0
 23 30  1  1  0  0  0
 24  7  1  0  0  0  0
 24 23  1  0  0  0  0
 25 35  1  0  0  0  0
 25 23  1  0  0  0  0
 26 25  2  0  0  0  0
 27 21  1  0  0  0  0
 28 22  1  0  0  0  0
 31 24  1  0  0  0  0
 32 39  1  0  0  0  0
 33 40  1  0  0  0  0
 33 32  1  0  0  0  0
 34 42  1  6  0  0  0
 34 36  1  0  0  0  0
 34 33  1  0  0  0  0
 34 35  1  0  0  0  0
 35 43  1  0  0  0  0
 36 37  1  0  0  0  0
 38 36  2  0  0  0  0
 41 33  1  0  0  0  0
M  END
$$$$
