ISV.pdb
 OpenBabel07022418433D

 48 47  0  0  1  0  0  0  0  0999 V2000
    0.6280   -5.4520   -0.7610 C   0  0  0  0  0  0  0  0  0  0  0  0
    1.6470   -4.5350   -1.4150 C   0  0  0  0  0  0  0  0  0  0  0  0
    1.0300   -3.3670   -2.1100 C   0  0  2  0  0  0  0  0  0  0  0  0
    2.1530   -2.5440   -2.7080 C   0  0  0  0  0  0  0  0  0  0  0  0
    0.1530   -2.5950   -1.1830 C   0  0  2  0  0  0  0  0  0  0  0  0
   -0.4640   -1.4490   -1.8520 N   0  0  0  0  0  0  0  0  0  0  0  0
    0.8370   -2.0760    0.0140 C   0  0  0  0  0  0  0  0  0  0  0  0
    1.4230   -2.8580    0.8270 O   0  0  0  0  0  0  0  0  0  0  0  0
    0.6800   -5.4520    0.3390 H   0  0  0  0  0  0  0  0  0  0  0  0
    0.8290   -6.5240   -1.0560 H   0  0  0  0  0  0  0  0  0  0  0  0
   -0.3990   -5.2400   -1.1540 H   0  0  0  0  0  0  0  0  0  0  0  0
    2.4360   -4.2280   -0.7140 H   0  0  0  0  0  0  0  0  0  0  0  0
    2.1560   -5.1390   -2.2320 H   0  0  0  0  0  0  0  0  0  0  0  0
    0.3710   -3.7570   -2.9270 H   0  0  0  0  0  0  0  0  0  0  0  0
    1.8130   -1.9840   -3.5800 H   0  0  0  0  0  0  0  0  0  0  0  0
    2.5720   -1.8960   -1.9010 H   0  0  0  0  0  0  0  0  0  0  0  0
    2.9620   -3.2480   -2.9900 H   0  0  0  0  0  0  0  0  0  0  0  0
   -0.6760   -3.2440   -0.8690 H   0  0  0  0  0  0  0  0  0  0  0  0
   -1.4200   -1.6770   -2.1800 H   0  0  0  0  0  0  0  0  0  0  0  0
    0.1550   -1.0530   -2.5860 H   0  0  0  0  0  0  0  0  0  0  0  0
    3.4030    1.0590    2.2820 O   0  0  0  0  0  0  0  0  0  0  0  0
    2.7520    0.6270    1.1220 C   0  0  0  0  0  0  0  0  0  0  0  0
    1.5510   -0.2340    1.4920 C   0  0  2  0  0  0  0  0  0  0  0  0
    0.8750   -0.6830    0.3200 N   0  0  0  0  0  0  0  0  0  0  0  0
    0.6820    0.4700    2.4460 C   0  0  0  0  0  0  0  0  0  0  0  0
    1.1870    0.9000    3.5040 O   0  0  0  0  0  0  0  0  0  0  0  0
    3.7820    1.9720    2.1420 H   0  0  0  0  0  0  0  0  0  0  0  0
    2.4560    1.4690    0.4640 H   0  0  0  0  0  0  0  0  0  0  0  0
    3.4450   -0.0300    0.5640 H   0  0  0  0  0  0  0  0  0  0  0  0
    1.9910   -1.1100    2.0540 H   0  0  0  0  0  0  0  0  0  0  0  0
    0.4150    0.0100   -0.3050 H   0  0  0  0  0  0  0  0  0  0  0  0
   -1.4050    3.7380    2.3190 C   0  0  0  0  0  0  0  0  0  0  0  0
   -2.2940    2.5880    2.7470 C   0  0  0  0  0  0  0  0  0  0  0  0
   -3.4600    2.3690    1.8470 C   0  0  0  0  0  0  0  0  0  0  0  0
   -1.5610    1.3850    3.1790 C   0  0  2  0  0  0  0  0  0  0  0  0
   -0.6870    0.7200    2.2990 N   0  0  0  0  0  0  0  0  0  0  0  0
   -2.5290    0.4220    3.7440 C   0  0  0  0  0  0  0  0  0  0  0  0
   -3.4110    0.7740    4.5540 O   0  0  0  0  0  0  0  0  0  0  0  0
   -2.4640   -0.9010    3.3740 O   0  0  0  0  0  0  0  0  0  0  0  0
   -0.7410    3.4440    1.4610 H   0  0  0  0  0  0  0  0  0  0  0  0
   -0.8250    4.1500    3.1720 H   0  0  0  0  0  0  0  0  0  0  0  0
   -1.9900    4.5960    1.9260 H   0  0  0  0  0  0  0  0  0  0  0  0
   -2.7860    2.9560    3.6840 H   0  0  0  0  0  0  0  0  0  0  0  0
   -3.2410    2.0840    0.8200 H   0  0  0  0  0  0  0  0  0  0  0  0
   -4.0480    3.3230    1.8070 H   0  0  0  0  0  0  0  0  0  0  0  0
   -4.1160    1.6170    2.2880 H   0  0  0  0  0  0  0  0  0  0  0  0
   -0.9230    1.6980    4.0670 H   0  0  0  0  0  0  0  0  0  0  0  0
   -1.1350    0.3640    1.4100 H   0  0  0  0  0  0  0  0  0  0  0  0
  1  9  1  0  0  0  0
  2  1  1  0  0  0  0
  2 12  1  0  0  0  0
  3 14  1  6  0  0  0
  3  2  1  0  0  0  0
  3  5  1  0  0  0  0
  4  3  1  0  0  0  0
  4 16  1  0  0  0  0
  5 18  1  1  0  0  0
  5  7  1  0  0  0  0
  6  5  1  0  0  0  0
  7 24  1  0  0  0  0
  7  8  2  0  0  0  0
 10  1  1  0  0  0  0
 11  1  1  0  0  0  0
 13  2  1  0  0  0  0
 15  4  1  0  0  0  0
 17  4  1  0  0  0  0
 19  6  1  0  0  0  0
 20  6  1  0  0  0  0
 22 23  1  0  0  0  0
 22 21  1  0  0  0  0
 23 30  1  1  0  0  0
 23 25  1  0  0  0  0
 24 23  1  0  0  0  0
 25 26  2  0  0  0  0
 27 21  1  0  0  0  0
 28 22  1  0  0  0  0
 29 22  1  0  0  0  0
 31 24  1  0  0  0  0
 32 33  1  0  0  0  0
 32 41  1  0  0  0  0
 33 35  1  0  0  0  0
 33 43  1  0  0  0  0
 34 46  1  0  0  0  0
 34 33  1  0  0  0  0
 35 37  1  0  0  0  0
 35 47  1  1  0  0  0
 36 25  1  0  0  0  0
 36 35  1  0  0  0  0
 37 38  1  0  0  0  0
 39 37  2  0  0  0  0
 40 32  1  0  0  0  0
 42 32  1  0  0  0  0
 44 34  1  0  0  0  0
 45 34  1  0  0  0  0
 48 36  1  0  0  0  0
M  END
$$$$
