ISW.pdb
 OpenBabel07022418433D

 56 57  0  0  1  0  0  0  0  0999 V2000
    3.6160    1.8590    3.9950 C   0  0  0  0  0  0  0  0  0  0  0  0
    3.2140    2.5500    2.7230 C   0  0  0  0  0  0  0  0  0  0  0  0
    3.3710    1.7010    1.5080 C   0  0  2  0  0  0  0  0  0  0  0  0
    2.9370    2.4990    0.2970 C   0  0  0  0  0  0  0  0  0  0  0  0
    2.5560    0.4340    1.5420 C   0  0  2  0  0  0  0  0  0  0  0  0
    2.7750   -0.3370    0.3070 N   0  0  0  0  0  0  0  0  0  0  0  0
    1.1230    0.6580    1.6850 C   0  0  0  0  0  0  0  0  0  0  0  0
    0.6810    1.3010    2.6640 O   0  0  0  0  0  0  0  0  0  0  0  0
    4.1650    0.9070    3.8030 H   0  0  0  0  0  0  0  0  0  0  0  0
    2.6810    1.5860    4.5390 H   0  0  0  0  0  0  0  0  0  0  0  0
    4.1680    2.5390    4.6540 H   0  0  0  0  0  0  0  0  0  0  0  0
    2.2440    3.0190    2.8590 H   0  0  0  0  0  0  0  0  0  0  0  0
    3.9410    3.4080    2.5940 H   0  0  0  0  0  0  0  0  0  0  0  0
    4.4540    1.4890    1.3910 H   0  0  0  0  0  0  0  0  0  0  0  0
    3.5740    2.1860   -0.5540 H   0  0  0  0  0  0  0  0  0  0  0  0
    1.8680    2.2480    0.0510 H   0  0  0  0  0  0  0  0  0  0  0  0
    3.0770    3.5900    0.4600 H   0  0  0  0  0  0  0  0  0  0  0  0
    2.9760   -0.1990    2.3520 H   0  0  0  0  0  0  0  0  0  0  0  0
    2.4050    0.1760   -0.5210 H   0  0  0  0  0  0  0  0  0  0  0  0
    2.3750   -1.2930    0.3960 H   0  0  0  0  0  0  0  0  0  0  0  0
   -1.7440    0.6810   -1.3920 O   0  0  0  0  0  0  0  0  0  0  0  0
   -1.8360    1.2770   -0.1560 C   0  0  0  0  0  0  0  0  0  0  0  0
   -1.2230    0.4340    0.9560 C   0  0  2  0  0  0  0  0  0  0  0  0
    0.1790    0.1730    0.7490 N   0  0  0  0  0  0  0  0  0  0  0  0
   -2.0040   -0.7940    1.2020 C   0  0  0  0  0  0  0  0  0  0  0  0
   -3.2390   -0.7410    1.3840 O   0  0  0  0  0  0  0  0  0  0  0  0
   -1.5950    1.3710   -2.1140 H   0  0  0  0  0  0  0  0  0  0  0  0
   -2.9080    1.4150    0.0750 H   0  0  0  0  0  0  0  0  0  0  0  0
   -1.3730    2.2900   -0.1220 H   0  0  0  0  0  0  0  0  0  0  0  0
   -1.3600    1.0540    1.8910 H   0  0  0  0  0  0  0  0  0  0  0  0
    0.4520   -0.3740   -0.1020 H   0  0  0  0  0  0  0  0  0  0  0  0
   -1.3920   -2.0830    1.2450 N   0  0  0  0  0  0  0  0  0  0  0  0
   -2.1380   -3.2840    1.4910 C   0  0  1  0  0  0  0  0  0  0  0  0
   -1.9800   -4.2460    0.3490 C   0  0  0  0  0  0  0  0  0  0  0  0
   -2.4420   -3.7490   -0.9420 C   0  0  0  0  0  0  0  0  0  0  0  0
   -3.7310   -4.0200   -1.4330 C   0  0  0  0  0  0  0  0  0  0  0  0
   -3.8180   -3.3910   -2.5980 N   0  0  0  0  0  0  0  0  0  0  0  0
   -2.6910   -2.7460   -2.8850 C   0  0  0  0  0  0  0  0  0  0  0  0
   -2.2950   -1.9850   -3.9490 C   0  0  0  0  0  0  0  0  0  0  0  0
   -1.0570   -1.4150   -4.0510 C   0  0  0  0  0  0  0  0  0  0  0  0
   -0.1670   -1.6360   -3.0010 C   0  0  0  0  0  0  0  0  0  0  0  0
   -0.5250   -2.3960   -1.9100 C   0  0  0  0  0  0  0  0  0  0  0  0
   -1.7850   -2.9530   -1.8460 C   0  0  0  0  0  0  0  0  0  0  0  0
   -1.6390   -3.9940    2.7010 C   0  0  0  0  0  0  0  0  0  0  0  0
   -2.1720   -5.0600    3.0700 O   0  0  0  0  0  0  0  0  0  0  0  0
   -0.5790   -3.4350    3.3860 O   0  0  0  0  0  0  0  0  0  0  0  0
   -0.3730   -2.1130    1.1040 H   0  0  0  0  0  0  0  0  0  0  0  0
   -3.2270   -3.0590    1.6740 H   0  0  0  0  0  0  0  0  0  0  0  0
   -2.4290   -5.2500    0.6040 H   0  0  0  0  0  0  0  0  0  0  0  0
   -0.8690   -4.4720    0.3120 H   0  0  0  0  0  0  0  0  0  0  0  0
   -4.4780   -4.6220   -0.9370 H   0  0  0  0  0  0  0  0  0  0  0  0
   -4.6750   -3.4070   -3.2110 H   0  0  0  0  0  0  0  0  0  0  0  0
   -3.0330   -1.8420   -4.7480 H   0  0  0  0  0  0  0  0  0  0  0  0
   -0.8100   -0.8280   -4.9130 H   0  0  0  0  0  0  0  0  0  0  0  0
    0.8170   -1.2060   -3.0410 H   0  0  0  0  0  0  0  0  0  0  0  0
    0.1630   -2.5740   -1.1090 H   0  0  0  0  0  0  0  0  0  0  0  0
  1 10  1  0  0  0  0
  1 11  1  0  0  0  0
  2 12  1  0  0  0  0
  2  1  1  0  0  0  0
  3 14  1  6  0  0  0
  3  5  1  0  0  0  0
  3  2  1  0  0  0  0
  4 17  1  0  0  0  0
  4  3  1  0  0  0  0
  5  7  1  0  0  0  0
  5 18  1  1  0  0  0
  6 20  1  0  0  0  0
  6  5  1  0  0  0  0
  7  8  2  0  0  0  0
  9  1  1  0  0  0  0
 13  2  1  0  0  0  0
 15  4  1  0  0  0  0
 16  4  1  0  0  0  0
 19  6  1  0  0  0  0
 21 22  1  0  0  0  0
 22 29  1  0  0  0  0
 22 28  1  0  0  0  0
 22 23  1  0  0  0  0
 23 25  1  0  0  0  0
 23 30  1  1  0  0  0
 24 23  1  0  0  0  0
 24  7  1  0  0  0  0
 25 32  1  0  0  0  0
 25 26  2  0  0  0  0
 27 21  1  0  0  0  0
 31 24  1  0  0  0  0
 32 33  1  0  0  0  0
 33 48  1  1  0  0  0
 33 44  1  0  0  0  0
 34 49  1  0  0  0  0
 34 33  1  0  0  0  0
 35 34  1  0  0  0  0
 36 35  2  0  0  0  0
 36 51  1  0  0  0  0
 37 36  1  0  0  0  0
 38 37  1  0  0  0  0
 38 43  1  0  0  0  0
 39 38  2  0  0  0  0
 40 39  1  0  0  0  0
 40 41  2  0  0  0  0
 41 42  1  0  0  0  0
 42 43  2  0  0  0  0
 42 56  1  0  0  0  0
 43 35  1  0  0  0  0
 44 45  2  0  0  0  0
 44 46  1  0  0  0  0
 47 32  1  0  0  0  0
 50 34  1  0  0  0  0
 52 37  1  0  0  0  0
 53 39  1  0  0  0  0
 54 40  1  0  0  0  0
 55 41  1  0  0  0  0
M  END
$$$$
