ISY.pdb
 OpenBabel07022418433D

 53 53  0  0  1  0  0  0  0  0999 V2000
   -1.5270   -1.2470    2.7860 C   0  0  0  0  0  0  0  0  0  0  0  0
   -0.3330   -0.2940    2.7890 C   0  0  0  0  0  0  0  0  0  0  0  0
    0.9530   -1.0740    3.0160 C   0  0  2  0  0  0  0  0  0  0  0  0
    0.8880   -1.7940    4.3540 C   0  0  0  0  0  0  0  0  0  0  0  0
    2.1670   -0.2210    2.8860 C   0  0  2  0  0  0  0  0  0  0  0  0
    2.2120    0.8750    3.8180 N   0  0  0  0  0  0  0  0  0  0  0  0
    2.3010    0.2270    1.4830 C   0  0  0  0  0  0  0  0  0  0  0  0
    2.4230    1.4390    1.1570 O   0  0  0  0  0  0  0  0  0  0  0  0
   -1.4550   -1.8300    1.8670 H   0  0  0  0  0  0  0  0  0  0  0  0
   -1.4600   -1.9610    3.6410 H   0  0  0  0  0  0  0  0  0  0  0  0
   -2.4720   -0.7040    2.8710 H   0  0  0  0  0  0  0  0  0  0  0  0
   -0.4950    0.4090    3.6330 H   0  0  0  0  0  0  0  0  0  0  0  0
   -0.3140    0.2360    1.8360 H   0  0  0  0  0  0  0  0  0  0  0  0
    0.9970   -1.8700    2.2460 H   0  0  0  0  0  0  0  0  0  0  0  0
    0.3030   -1.1500    5.0420 H   0  0  0  0  0  0  0  0  0  0  0  0
    1.8870   -1.9460    4.7900 H   0  0  0  0  0  0  0  0  0  0  0  0
    0.3230   -2.7480    4.2660 H   0  0  0  0  0  0  0  0  0  0  0  0
    3.0500   -0.8750    3.1140 H   0  0  0  0  0  0  0  0  0  0  0  0
    1.4780    0.8780    4.5280 H   0  0  0  0  0  0  0  0  0  0  0  0
    3.1640    1.1200    4.1460 H   0  0  0  0  0  0  0  0  0  0  0  0
    3.8510   -0.6620   -2.8550 O   0  0  0  0  0  0  0  0  0  0  0  0
    3.6730   -0.9930   -1.5130 C   0  0  0  0  0  0  0  0  0  0  0  0
    2.4300   -0.3220   -0.9760 C   0  0  2  0  0  0  0  0  0  0  0  0
    2.3010   -0.7020    0.4130 N   0  0  0  0  0  0  0  0  0  0  0  0
    1.2580   -0.8190   -1.7920 C   0  0  0  0  0  0  0  0  0  0  0  0
    1.2210   -0.5950   -3.0280 O   0  0  0  0  0  0  0  0  0  0  0  0
    3.4210    0.2350   -2.9860 H   0  0  0  0  0  0  0  0  0  0  0  0
    4.5750   -0.6500   -0.9720 H   0  0  0  0  0  0  0  0  0  0  0  0
    3.5810   -2.1060   -1.4450 H   0  0  0  0  0  0  0  0  0  0  0  0
    2.5420    0.7750   -1.1030 H   0  0  0  0  0  0  0  0  0  0  0  0
    2.2030   -1.7190    0.6230 H   0  0  0  0  0  0  0  0  0  0  0  0
   -4.4680    1.6610    2.0080 O   0  0  0  0  0  0  0  0  0  0  0  0
   -3.8890    0.9560    0.9650 C   0  0  0  0  0  0  0  0  0  0  0  0
   -4.3670   -0.2440    0.5020 C   0  0  0  0  0  0  0  0  0  0  0  0
   -3.7900   -0.9440   -0.5360 C   0  0  0  0  0  0  0  0  0  0  0  0
   -2.6760   -0.4320   -1.1530 C   0  0  0  0  0  0  0  0  0  0  0  0
   -1.9970   -1.0940   -2.2570 C   0  0  0  0  0  0  0  0  0  0  0  0
   -0.9220   -2.0310   -1.9060 C   0  0  2  0  0  0  0  0  0  0  0  0
    0.1940   -1.5360   -1.1820 N   0  0  0  0  0  0  0  0  0  0  0  0
   -0.4700   -2.8210   -3.1090 C   0  0  0  0  0  0  0  0  0  0  0  0
   -1.3540   -3.2640   -3.8870 O   0  0  0  0  0  0  0  0  0  0  0  0
   -2.1910    0.7690   -0.6960 C   0  0  0  0  0  0  0  0  0  0  0  0
   -2.7670    1.4740    0.3460 C   0  0  0  0  0  0  0  0  0  0  0  0
    0.8490   -3.0870   -3.4040 O   0  0  0  0  0  0  0  0  0  0  0  0
   -4.0390    1.6890    2.9270 H   0  0  0  0  0  0  0  0  0  0  0  0
   -5.2620   -0.6230    1.0220 H   0  0  0  0  0  0  0  0  0  0  0  0
   -4.2370   -1.8890   -0.8380 H   0  0  0  0  0  0  0  0  0  0  0  0
   -1.5640   -0.3150   -2.9440 H   0  0  0  0  0  0  0  0  0  0  0  0
   -2.7830   -1.5880   -2.8830 H   0  0  0  0  0  0  0  0  0  0  0  0
   -1.3780   -2.8630   -1.2610 H   0  0  0  0  0  0  0  0  0  0  0  0
    0.3100   -1.6700   -0.1260 H   0  0  0  0  0  0  0  0  0  0  0  0
   -1.3010    1.2430   -1.1400 H   0  0  0  0  0  0  0  0  0  0  0  0
   -2.3470    2.4200    0.6720 H   0  0  0  0  0  0  0  0  0  0  0  0
  1  2  1  0  0  0  0
  1 11  1  0  0  0  0
  1 10  1  0  0  0  0
  2  3  1  0  0  0  0
  2 12  1  0  0  0  0
  3 14  1  6  0  0  0
  3  4  1  0  0  0  0
  4 16  1  0  0  0  0
  4 15  1  0  0  0  0
  5  3  1  0  0  0  0
  5 18  1  1  0  0  0
  5  6  1  0  0  0  0
  6 20  1  0  0  0  0
  6 19  1  0  0  0  0
  7  5  1  0  0  0  0
  8  7  2  0  0  0  0
  9  1  1  0  0  0  0
 13  2  1  0  0  0  0
 17  4  1  0  0  0  0
 21 22  1  0  0  0  0
 22 29  1  0  0  0  0
 22 23  1  0  0  0  0
 22 28  1  0  0  0  0
 23 30  1  6  0  0  0
 23 24  1  0  0  0  0
 24 31  1  0  0  0  0
 24  7  1  0  0  0  0
 25 39  1  0  0  0  0
 25 23  1  0  0  0  0
 26 25  2  0  0  0  0
 27 21  1  0  0  0  0
 32 45  1  0  0  0  0
 33 32  1  0  0  0  0
 34 33  1  0  0  0  0
 34 46  1  0  0  0  0
 35 34  2  0  0  0  0
 36 42  2  0  0  0  0
 36 35  1  0  0  0  0
 37 38  1  0  0  0  0
 37 36  1  0  0  0  0
 38 50  1  1  0  0  0
 38 39  1  0  0  0  0
 39 51  1  0  0  0  0
 40 38  1  0  0  0  0
 41 40  2  0  0  0  0
 42 43  1  0  0  0  0
 43 53  1  0  0  0  0
 43 33  2  0  0  0  0
 44 40  1  0  0  0  0
 47 35  1  0  0  0  0
 48 37  1  0  0  0  0
 49 37  1  0  0  0  0
 52 42  1  0  0  0  0
M  END
$$$$
