ITC.pdb
 OpenBabel07022418433D

 46 45  0  0  1  0  0  0  0  0999 V2000
    2.4350   -5.0700    0.8750 C   0  0  0  0  0  0  0  0  0  0  0  0
    1.7250   -3.7370    0.6290 C   0  0  0  0  0  0  0  0  0  0  0  0
    0.6020   -3.6550    1.6190 C   0  0  2  0  0  0  0  0  0  0  0  0
   -0.3190   -4.8520    1.3510 C   0  0  0  0  0  0  0  0  0  0  0  0
   -0.2460   -2.4210    1.4420 C   0  0  2  0  0  0  0  0  0  0  0  0
   -0.8170   -2.4120    0.1460 N   0  0  0  0  0  0  0  0  0  0  0  0
    0.4570   -1.1810    1.8210 C   0  0  0  0  0  0  0  0  0  0  0  0
    0.9880   -1.1240    2.9610 O   0  0  0  0  0  0  0  0  0  0  0  0
    2.1990   -5.4590    1.8900 H   0  0  0  0  0  0  0  0  0  0  0  0
    3.5250   -4.9390    0.7660 H   0  0  0  0  0  0  0  0  0  0  0  0
    2.0740   -5.8320    0.1310 H   0  0  0  0  0  0  0  0  0  0  0  0
    1.3430   -3.7260   -0.4010 H   0  0  0  0  0  0  0  0  0  0  0  0
    2.4740   -2.9430    0.8110 H   0  0  0  0  0  0  0  0  0  0  0  0
    1.0130   -3.7440    2.6470 H   0  0  0  0  0  0  0  0  0  0  0  0
   -1.3330   -4.5710    1.7000 H   0  0  0  0  0  0  0  0  0  0  0  0
    0.0730   -5.7700    1.7970 H   0  0  0  0  0  0  0  0  0  0  0  0
   -0.3940   -4.9220    0.2310 H   0  0  0  0  0  0  0  0  0  0  0  0
   -1.0960   -2.5270    2.1810 H   0  0  0  0  0  0  0  0  0  0  0  0
   -0.1750   -2.3850   -0.6430 H   0  0  0  0  0  0  0  0  0  0  0  0
   -1.5450   -1.6840   -0.0050 H   0  0  0  0  0  0  0  0  0  0  0  0
    3.3410    0.3560    0.2170 C   0  0  0  0  0  0  0  0  0  0  0  0
    2.3130    1.4510    0.3180 C   0  0  1  0  0  0  0  0  0  0  0  0
    1.7490    1.6110   -0.9510 O   0  0  0  0  0  0  0  0  0  0  0  0
    1.2400    1.1580    1.3160 C   0  0  2  0  0  0  0  0  0  0  0  0
    0.5480   -0.0630    0.9420 N   0  0  0  0  0  0  0  0  0  0  0  0
    0.2990    2.3260    1.3100 C   0  0  0  0  0  0  0  0  0  0  0  0
    0.6770    3.4740    1.5990 O   0  0  0  0  0  0  0  0  0  0  0  0
    3.6630   -0.0370    1.1840 H   0  0  0  0  0  0  0  0  0  0  0  0
    4.2330    0.7890   -0.2890 H   0  0  0  0  0  0  0  0  0  0  0  0
    2.9700   -0.4450   -0.4780 H   0  0  0  0  0  0  0  0  0  0  0  0
    2.7740    2.4330    0.5880 H   0  0  0  0  0  0  0  0  0  0  0  0
    2.2300    1.1210   -1.6480 H   0  0  0  0  0  0  0  0  0  0  0  0
    1.6630    1.0800    2.3360 H   0  0  0  0  0  0  0  0  0  0  0  0
    0.0850   -0.1840    0.0160 H   0  0  0  0  0  0  0  0  0  0  0  0
   -1.0580    2.0760    0.9590 N   0  0  0  0  0  0  0  0  0  0  0  0
   -2.0290    3.1340    0.9270 C   0  0  1  0  0  0  0  0  0  0  0  0
   -2.6300    3.3380   -0.4450 C   0  0  0  0  0  0  0  0  0  0  0  0
   -3.4720    1.8540   -1.0370 S   0  0  0  0  0  0  0  0  0  0  0  0
   -3.1200    2.8510    1.9030 C   0  0  0  0  0  0  0  0  0  0  0  0
   -3.0850    1.8130    2.5900 O   0  0  0  0  0  0  0  0  0  0  0  0
   -4.1920    3.7140    2.0760 O   0  0  0  0  0  0  0  0  0  0  0  0
   -1.3500    1.0820    0.7170 H   0  0  0  0  0  0  0  0  0  0  0  0
   -1.5280    4.0830    1.2080 H   0  0  0  0  0  0  0  0  0  0  0  0
   -3.3350    4.1780   -0.3740 H   0  0  0  0  0  0  0  0  0  0  0  0
   -1.8550    3.6060   -1.1760 H   0  0  0  0  0  0  0  0  0  0  0  0
   -3.4430    0.8210   -0.0890 H   0  0  0  0  0  0  0  0  0  0  0  0
  1  9  1  0  0  0  0
  2 13  1  0  0  0  0
  2  1  1  0  0  0  0
  2  3  1  0  0  0  0
  3 14  1  1  0  0  0
  4  3  1  0  0  0  0
  4 15  1  0  0  0  0
  4 16  1  0  0  0  0
  5  3  1  0  0  0  0
  5  7  1  0  0  0  0
  5 18  1  1  0  0  0
  6  5  1  0  0  0  0
  7  8  2  0  0  0  0
 10  1  1  0  0  0  0
 11  1  1  0  0  0  0
 12  2  1  0  0  0  0
 17  4  1  0  0  0  0
 19  6  1  0  0  0  0
 20  6  1  0  0  0  0
 21 22  1  0  0  0  0
 21 28  1  0  0  0  0
 22 31  1  1  0  0  0
 22 24  1  0  0  0  0
 23 22  1  0  0  0  0
 24 33  1  1  0  0  0
 25 24  1  0  0  0  0
 25  7  1  0  0  0  0
 26 24  1  0  0  0  0
 26 27  2  0  0  0  0
 29 21  1  0  0  0  0
 30 21  1  0  0  0  0
 32 23  1  0  0  0  0
 34 25  1  0  0  0  0
 35 26  1  0  0  0  0
 36 35  1  0  0  0  0
 36 43  1  1  0  0  0
 36 39  1  0  0  0  0
 37 44  1  0  0  0  0
 37 36  1  0  0  0  0
 38 37  1  0  0  0  0
 38 46  1  0  0  0  0
 39 41  2  0  0  0  0
 39 40  1  0  0  0  0
 42 35  1  0  0  0  0
 45 37  1  0  0  0  0
M  END
$$$$
