ITG.pdb
 OpenBabel07022418433D

 42 41  0  0  1  0  0  0  0  0999 V2000
   -1.2910   -2.5720    1.1760 C   0  0  0  0  0  0  0  0  0  0  0  0
   -0.1380   -3.5130    1.2750 C   0  0  0  0  0  0  0  0  0  0  0  0
    0.7290   -3.3750    2.4630 C   0  0  2  0  0  0  0  0  0  0  0  0
    0.0220   -3.5220    3.7930 C   0  0  0  0  0  0  0  0  0  0  0  0
    1.7260   -2.2860    2.4240 C   0  0  2  0  0  0  0  0  0  0  0  0
    2.4920   -2.2670    3.6960 N   0  0  0  0  0  0  0  0  0  0  0  0
    1.2730   -0.9310    2.2050 C   0  0  0  0  0  0  0  0  0  0  0  0
    1.0030   -0.1880    3.1870 O   0  0  0  0  0  0  0  0  0  0  0  0
   -1.1820   -1.6100    1.6730 H   0  0  0  0  0  0  0  0  0  0  0  0
   -2.1830   -3.1140    1.6410 H   0  0  0  0  0  0  0  0  0  0  0  0
   -1.5650   -2.4430    0.1100 H   0  0  0  0  0  0  0  0  0  0  0  0
    0.4790   -3.3910    0.3440 H   0  0  0  0  0  0  0  0  0  0  0  0
   -0.5450   -4.5620    1.1680 H   0  0  0  0  0  0  0  0  0  0  0  0
    1.4000   -4.3430    2.4520 H   0  0  0  0  0  0  0  0  0  0  0  0
   -0.6180   -4.4220    3.7400 H   0  0  0  0  0  0  0  0  0  0  0  0
   -0.4880   -2.6170    4.1250 H   0  0  0  0  0  0  0  0  0  0  0  0
    0.8180   -3.7500    4.5500 H   0  0  0  0  0  0  0  0  0  0  0  0
    2.5080   -2.5520    1.6650 H   0  0  0  0  0  0  0  0  0  0  0  0
    2.7020   -3.2640    3.9330 H   0  0  0  0  0  0  0  0  0  0  0  0
    1.9700   -1.7580    4.4200 H   0  0  0  0  0  0  0  0  0  0  0  0
    1.5350    3.2830    0.3060 C   0  0  0  0  0  0  0  0  0  0  0  0
    1.9050    1.8520    0.5040 C   0  0  1  0  0  0  0  0  0  0  0  0
    2.7580    1.7140    1.5980 O   0  0  0  0  0  0  0  0  0  0  0  0
    0.6760    0.9730    0.7640 C   0  0  2  0  0  0  0  0  0  0  0  0
    1.1270   -0.3930    0.9050 N   0  0  0  0  0  0  0  0  0  0  0  0
   -0.3220    1.1110   -0.2890 C   0  0  0  0  0  0  0  0  0  0  0  0
   -0.8530    2.2650   -0.4370 O   0  0  0  0  0  0  0  0  0  0  0  0
    1.4400    3.4450   -0.8080 H   0  0  0  0  0  0  0  0  0  0  0  0
    0.6190    3.5830    0.8400 H   0  0  0  0  0  0  0  0  0  0  0  0
    2.3540    3.9620    0.6230 H   0  0  0  0  0  0  0  0  0  0  0  0
    2.4200    1.4020   -0.3690 H   0  0  0  0  0  0  0  0  0  0  0  0
    2.9700    2.5710    2.0360 H   0  0  0  0  0  0  0  0  0  0  0  0
    0.2920    1.3130    1.7280 H   0  0  0  0  0  0  0  0  0  0  0  0
    1.3320   -0.9400    0.0510 H   0  0  0  0  0  0  0  0  0  0  0  0
   -0.7820    0.1130   -1.1800 N   0  0  0  0  0  0  0  0  0  0  0  0
   -1.7900    0.3580   -2.1950 C   0  0  0  0  0  0  0  0  0  0  0  0
   -1.3710    1.4050   -3.1580 C   0  0  0  0  0  0  0  0  0  0  0  0
   -2.1340    1.7350   -4.1010 O   0  0  0  0  0  0  0  0  0  0  0  0
   -0.1590    2.0750   -3.0990 O   0  0  0  0  0  0  0  0  0  0  0  0
   -0.3480   -0.8290   -1.0780 H   0  0  0  0  0  0  0  0  0  0  0  0
   -2.7860    0.6070   -1.7370 H   0  0  0  0  0  0  0  0  0  0  0  0
   -1.9550   -0.5760   -2.7630 H   0  0  0  0  0  0  0  0  0  0  0  0
  1  2  1  0  0  0  0
  1 10  1  0  0  0  0
  1  9  1  0  0  0  0
  2  3  1  0  0  0  0
  3 14  1  6  0  0  0
  3  4  1  0  0  0  0
  4 16  1  0  0  0  0
  4 17  1  0  0  0  0
  5 18  1  6  0  0  0
  5  3  1  0  0  0  0
  5  6  1  0  0  0  0
  6 19  1  0  0  0  0
  6 20  1  0  0  0  0
  7  5  1  0  0  0  0
  7  8  2  0  0  0  0
 11  1  1  0  0  0  0
 12  2  1  0  0  0  0
 13  2  1  0  0  0  0
 15  4  1  0  0  0  0
 21 22  1  0  0  0  0
 21 30  1  0  0  0  0
 21 29  1  0  0  0  0
 22 31  1  6  0  0  0
 22 24  1  0  0  0  0
 22 23  1  0  0  0  0
 23 32  1  0  0  0  0
 24 25  1  0  0  0  0
 24 33  1  1  0  0  0
 25  7  1  0  0  0  0
 26 24  1  0  0  0  0
 27 26  2  0  0  0  0
 28 21  1  0  0  0  0
 34 25  1  0  0  0  0
 35 40  1  0  0  0  0
 35 26  1  0  0  0  0
 36 41  1  0  0  0  0
 36 35  1  0  0  0  0
 37 39  1  0  0  0  0
 37 36  1  0  0  0  0
 38 37  2  0  0  0  0
 42 36  1  0  0  0  0
M  END
$$$$
