ITH.pdb
 OpenBabel07022418433D

 52 52  0  0  1  0  0  0  0  0999 V2000
    4.4490   -2.6600    3.5710 C   0  0  0  0  0  0  0  0  0  0  0  0
    3.5200   -3.0260    2.4610 C   0  0  0  0  0  0  0  0  0  0  0  0
    2.1650   -2.3880    2.6190 C   0  0  2  0  0  0  0  0  0  0  0  0
    1.2720   -2.7940    1.4840 C   0  0  0  0  0  0  0  0  0  0  0  0
    2.2260   -0.8940    2.8540 C   0  0  2  0  0  0  0  0  0  0  0  0
    2.9730   -0.6300    4.0880 N   0  0  0  0  0  0  0  0  0  0  0  0
    0.8950   -0.2490    2.9050 C   0  0  0  0  0  0  0  0  0  0  0  0
    0.3750    0.0980    4.0290 O   0  0  0  0  0  0  0  0  0  0  0  0
    5.3120   -3.3960    3.6280 H   0  0  0  0  0  0  0  0  0  0  0  0
    4.9670   -1.6830    3.4130 H   0  0  0  0  0  0  0  0  0  0  0  0
    3.9380   -2.7260    4.5440 H   0  0  0  0  0  0  0  0  0  0  0  0
    3.9530   -2.8530    1.4540 H   0  0  0  0  0  0  0  0  0  0  0  0
    3.3400   -4.1380    2.5510 H   0  0  0  0  0  0  0  0  0  0  0  0
    1.7220   -2.9010    3.5310 H   0  0  0  0  0  0  0  0  0  0  0  0
    0.2170   -2.4800    1.6630 H   0  0  0  0  0  0  0  0  0  0  0  0
    1.2220   -3.9180    1.3950 H   0  0  0  0  0  0  0  0  0  0  0  0
    1.5670   -2.4480    0.4960 H   0  0  0  0  0  0  0  0  0  0  0  0
    2.7980   -0.4320    2.0330 H   0  0  0  0  0  0  0  0  0  0  0  0
    3.4590    0.3090    4.0240 H   0  0  0  0  0  0  0  0  0  0  0  0
    2.3330   -0.5500    4.9020 H   0  0  0  0  0  0  0  0  0  0  0  0
   -0.1680    2.1620   -0.0950 C   0  0  0  0  0  0  0  0  0  0  0  0
   -0.8500    2.0660    1.2290 C   0  0  1  0  0  0  0  0  0  0  0  0
   -2.0420    2.7460    1.1860 O   0  0  0  0  0  0  0  0  0  0  0  0
   -1.0690    0.5980    1.6720 C   0  0  2  0  0  0  0  0  0  0  0  0
    0.2060   -0.0160    1.6880 N   0  0  0  0  0  0  0  0  0  0  0  0
   -2.0950    0.0760    0.8020 C   0  0  0  0  0  0  0  0  0  0  0  0
   -3.2370    0.6200    0.8480 O   0  0  0  0  0  0  0  0  0  0  0  0
    0.2890    1.2410   -0.4660 H   0  0  0  0  0  0  0  0  0  0  0  0
   -0.9430    2.4420   -0.8670 H   0  0  0  0  0  0  0  0  0  0  0  0
    0.5480    3.0330   -0.1270 H   0  0  0  0  0  0  0  0  0  0  0  0
   -0.2010    2.5800    1.9840 H   0  0  0  0  0  0  0  0  0  0  0  0
   -2.1310    3.3080    0.3690 H   0  0  0  0  0  0  0  0  0  0  0  0
   -1.4730    0.6890    2.7190 H   0  0  0  0  0  0  0  0  0  0  0  0
    0.6560   -0.2980    0.8020 H   0  0  0  0  0  0  0  0  0  0  0  0
   -1.8800   -1.0030   -0.0840 N   0  0  0  0  0  0  0  0  0  0  0  0
   -2.8870   -1.5480   -0.9600 C   0  0  1  0  0  0  0  0  0  0  0  0
   -2.4760   -1.6260   -2.3950 C   0  0  0  0  0  0  0  0  0  0  0  0
   -2.1530   -0.2780   -2.9210 C   0  0  0  0  0  0  0  0  0  0  0  0
   -0.9500    0.3930   -2.9420 C   0  0  0  0  0  0  0  0  0  0  0  0
   -1.1130    1.6070   -3.5260 N   0  0  0  0  0  0  0  0  0  0  0  0
   -2.4080    1.6920   -3.8660 C   0  0  0  0  0  0  0  0  0  0  0  0
   -3.0480    0.5680   -3.5100 N   0  0  0  0  0  0  0  0  0  0  0  0
   -3.2900   -2.9240   -0.5260 C   0  0  0  0  0  0  0  0  0  0  0  0
   -2.7520   -3.4390    0.4860 O   0  0  0  0  0  0  0  0  0  0  0  0
   -4.2350   -3.6340   -1.2120 O   0  0  0  0  0  0  0  0  0  0  0  0
   -0.9280   -1.4140   -0.0980 H   0  0  0  0  0  0  0  0  0  0  0  0
   -3.8210   -0.9370   -0.8220 H   0  0  0  0  0  0  0  0  0  0  0  0
   -3.2390   -2.0850   -3.0380 H   0  0  0  0  0  0  0  0  0  0  0  0
   -1.5440   -2.2450   -2.4270 H   0  0  0  0  0  0  0  0  0  0  0  0
   -0.0130    0.0060   -2.5500 H   0  0  0  0  0  0  0  0  0  0  0  0
   -0.3680    2.3390   -3.6820 H   0  0  0  0  0  0  0  0  0  0  0  0
   -2.8540    2.5420   -4.3520 H   0  0  0  0  0  0  0  0  0  0  0  0
  1  9  1  0  0  0  0
  1 11  1  0  0  0  0
  2 13  1  0  0  0  0
  2  3  1  0  0  0  0
  2  1  1  0  0  0  0
  3  5  1  0  0  0  0
  3 14  1  1  0  0  0
  4 15  1  0  0  0  0
  4  3  1  0  0  0  0
  5 18  1  6  0  0  0
  5  7  1  0  0  0  0
  5  6  1  0  0  0  0
  6 20  1  0  0  0  0
  7  8  2  0  0  0  0
 10  1  1  0  0  0  0
 12  2  1  0  0  0  0
 16  4  1  0  0  0  0
 17  4  1  0  0  0  0
 19  6  1  0  0  0  0
 21 22  1  0  0  0  0
 22 24  1  0  0  0  0
 22 31  1  1  0  0  0
 23 22  1  0  0  0  0
 24 25  1  0  0  0  0
 24 33  1  1  0  0  0
 25  7  1  0  0  0  0
 26 27  2  0  0  0  0
 26 24  1  0  0  0  0
 28 21  1  0  0  0  0
 29 21  1  0  0  0  0
 30 21  1  0  0  0  0
 32 23  1  0  0  0  0
 34 25  1  0  0  0  0
 35 26  1  0  0  0  0
 36 47  1  1  0  0  0
 36 43  1  0  0  0  0
 36 35  1  0  0  0  0
 37 36  1  0  0  0  0
 38 37  1  0  0  0  0
 39 38  2  0  0  0  0
 39 50  1  0  0  0  0
 40 39  1  0  0  0  0
 41 40  1  0  0  0  0
 41 42  2  0  0  0  0
 42 38  1  0  0  0  0
 43 44  1  0  0  0  0
 45 43  2  0  0  0  0
 46 35  1  0  0  0  0
 48 37  1  0  0  0  0
 49 37  1  0  0  0  0
 51 40  1  0  0  0  0
 52 41  1  0  0  0  0
M  END
$$$$
