ITK.pdb
 OpenBabel07022418433D

 56 55  0  0  1  0  0  0  0  0999 V2000
    0.2770   -5.2140    3.2490 C   0  0  0  0  0  0  0  0  0  0  0  0
    1.6310   -5.0850    2.6300 C   0  0  0  0  0  0  0  0  0  0  0  0
    2.5510   -4.1280    3.3460 C   0  0  2  0  0  0  0  0  0  0  0  0
    2.8320   -4.4920    4.7670 C   0  0  0  0  0  0  0  0  0  0  0  0
    2.0300   -2.7130    3.1810 C   0  0  2  0  0  0  0  0  0  0  0  0
    0.7150   -2.5900    3.7300 N   0  0  0  0  0  0  0  0  0  0  0  0
    2.0810   -2.4060    1.7300 C   0  0  0  0  0  0  0  0  0  0  0  0
    3.2020   -2.4870    1.1620 O   0  0  0  0  0  0  0  0  0  0  0  0
   -0.4600   -4.6440    2.6100 H   0  0  0  0  0  0  0  0  0  0  0  0
   -0.0350   -6.2960    3.1840 H   0  0  0  0  0  0  0  0  0  0  0  0
    0.2460   -4.8550    4.2910 H   0  0  0  0  0  0  0  0  0  0  0  0
    1.5280   -4.7640    1.5770 H   0  0  0  0  0  0  0  0  0  0  0  0
    2.1170   -6.0990    2.5860 H   0  0  0  0  0  0  0  0  0  0  0  0
    3.5330   -4.1640    2.7990 H   0  0  0  0  0  0  0  0  0  0  0  0
    1.9860   -4.8880    5.3320 H   0  0  0  0  0  0  0  0  0  0  0  0
    3.6620   -5.2350    4.7780 H   0  0  0  0  0  0  0  0  0  0  0  0
    3.2320   -3.5770    5.2790 H   0  0  0  0  0  0  0  0  0  0  0  0
    2.7760   -2.0470    3.6700 H   0  0  0  0  0  0  0  0  0  0  0  0
    0.2430   -1.7200    3.4400 H   0  0  0  0  0  0  0  0  0  0  0  0
    0.8140   -2.5760    4.7820 H   0  0  0  0  0  0  0  0  0  0  0  0
   -1.2240   -2.8260   -0.6520 C   0  0  0  0  0  0  0  0  0  0  0  0
    0.1760   -2.7430   -1.1920 C   0  0  1  0  0  0  0  0  0  0  0  0
    0.1650   -2.5670   -2.5520 O   0  0  0  0  0  0  0  0  0  0  0  0
    1.0320   -1.7370   -0.4570 C   0  0  2  0  0  0  0  0  0  0  0  0
    0.9580   -2.0320    0.9580 N   0  0  0  0  0  0  0  0  0  0  0  0
    0.5630   -0.3350   -0.6810 C   0  0  0  0  0  0  0  0  0  0  0  0
    0.1860    0.3630    0.2860 O   0  0  0  0  0  0  0  0  0  0  0  0
   -1.2900   -3.6030    0.1480 H   0  0  0  0  0  0  0  0  0  0  0  0
   -1.8670   -3.2090   -1.4910 H   0  0  0  0  0  0  0  0  0  0  0  0
   -1.6530   -1.8700   -0.3450 H   0  0  0  0  0  0  0  0  0  0  0  0
    0.6510   -3.7410   -0.9950 H   0  0  0  0  0  0  0  0  0  0  0  0
   -0.7480   -2.5380   -2.9400 H   0  0  0  0  0  0  0  0  0  0  0  0
    2.0630   -1.8530   -0.8000 H   0  0  0  0  0  0  0  0  0  0  0  0
    0.0390   -1.9640    1.4170 H   0  0  0  0  0  0  0  0  0  0  0  0
    0.5290    0.2460   -1.9780 N   0  0  0  0  0  0  0  0  0  0  0  0
    0.0650    1.6150   -2.1330 C   0  0  1  0  0  0  0  0  0  0  0  0
   -1.4090    1.7370   -1.9330 C   0  0  0  0  0  0  0  0  0  0  0  0
   -1.9820    3.0910   -2.0690 C   0  0  0  0  0  0  0  0  0  0  0  0
   -3.4940    2.9560   -1.8270 C   0  0  0  0  0  0  0  0  0  0  0  0
   -4.1820    4.2910   -1.9440 C   0  0  0  0  0  0  0  0  0  0  0  0
   -3.5900    5.1670   -0.9320 N   0  0  0  0  0  0  0  0  0  0  0  0
    0.8890    2.5370   -1.3600 C   0  0  0  0  0  0  0  0  0  0  0  0
    1.8560    2.1050   -0.6920 O   0  0  0  0  0  0  0  0  0  0  0  0
    0.6640    3.9000   -1.3160 O   0  0  0  0  0  0  0  0  0  0  0  0
    0.8480   -0.3510   -2.8010 H   0  0  0  0  0  0  0  0  0  0  0  0
    0.2520    1.8570   -3.2280 H   0  0  0  0  0  0  0  0  0  0  0  0
   -1.9950    1.0440   -2.5690 H   0  0  0  0  0  0  0  0  0  0  0  0
   -1.6130    1.3840   -0.8780 H   0  0  0  0  0  0  0  0  0  0  0  0
   -1.6530    3.8340   -1.3180 H   0  0  0  0  0  0  0  0  0  0  0  0
   -1.8140    3.5280   -3.0670 H   0  0  0  0  0  0  0  0  0  0  0  0
   -3.6570    2.5150   -0.8400 H   0  0  0  0  0  0  0  0  0  0  0  0
   -3.8510    2.2300   -2.5860 H   0  0  0  0  0  0  0  0  0  0  0  0
   -5.2330    4.1360   -1.6260 H   0  0  0  0  0  0  0  0  0  0  0  0
   -4.1330    4.7260   -2.9390 H   0  0  0  0  0  0  0  0  0  0  0  0
   -3.8610    4.8470    0.0190 H   0  0  0  0  0  0  0  0  0  0  0  0
   -3.9130    6.1470   -1.1320 H   0  0  0  0  0  0  0  0  0  0  0  0
  1 11  1  0  0  0  0
  2  1  1  0  0  0  0
  2  3  1  0  0  0  0
  3 14  1  6  0  0  0
  3  4  1  0  0  0  0
  4 16  1  0  0  0  0
  4 17  1  0  0  0  0
  4 15  1  0  0  0  0
  5  3  1  0  0  0  0
  5 18  1  1  0  0  0
  5  6  1  0  0  0  0
  6 20  1  0  0  0  0
  7  5  1  0  0  0  0
  8  7  2  0  0  0  0
  9  1  1  0  0  0  0
 10  1  1  0  0  0  0
 12  2  1  0  0  0  0
 13  2  1  0  0  0  0
 19  6  1  0  0  0  0
 21 30  1  0  0  0  0
 21 28  1  0  0  0  0
 22 31  1  1  0  0  0
 22 21  1  0  0  0  0
 22 24  1  0  0  0  0
 23 22  1  0  0  0  0
 24 33  1  6  0  0  0
 24 25  1  0  0  0  0
 25 34  1  0  0  0  0
 25  7  1  0  0  0  0
 26 24  1  0  0  0  0
 26 27  2  0  0  0  0
 29 21  1  0  0  0  0
 32 23  1  0  0  0  0
 35 26  1  0  0  0  0
 36 46  1  6  0  0  0
 36 35  1  0  0  0  0
 36 37  1  0  0  0  0
 36 42  1  0  0  0  0
 37 48  1  0  0  0  0
 38 37  1  0  0  0  0
 38 39  1  0  0  0  0
 38 49  1  0  0  0  0
 39 51  1  0  0  0  0
 40 39  1  0  0  0  0
 40 53  1  0  0  0  0
 40 41  1  0  0  0  0
 41 55  1  0  0  0  0
 42 44  2  0  0  0  0
 42 43  1  0  0  0  0
 45 35  1  0  0  0  0
 47 37  1  0  0  0  0
 50 38  1  0  0  0  0
 52 39  1  0  0  0  0
 54 40  1  0  0  0  0
 56 41  1  0  0  0  0
M  END
$$$$
