ITL.pdb
 OpenBabel07022418433D

 54 53  0  0  1  0  0  0  0  0999 V2000
    4.3970   -0.3500    4.9140 C   0  0  0  0  0  0  0  0  0  0  0  0
    3.9030    1.0400    4.6400 C   0  0  0  0  0  0  0  0  0  0  0  0
    3.1320    1.1150    3.3240 C   0  0  2  0  0  0  0  0  0  0  0  0
    2.6980    2.5580    3.1810 C   0  0  0  0  0  0  0  0  0  0  0  0
    1.9430    0.1560    3.3930 C   0  0  2  0  0  0  0  0  0  0  0  0
    2.3730   -1.1870    3.6040 N   0  0  0  0  0  0  0  0  0  0  0  0
    1.1240    0.3790    2.2000 C   0  0  0  0  0  0  0  0  0  0  0  0
    0.7020    1.5560    2.0130 O   0  0  0  0  0  0  0  0  0  0  0  0
    3.7110   -0.9500    5.5550 H   0  0  0  0  0  0  0  0  0  0  0  0
    4.7240   -0.8810    4.0080 H   0  0  0  0  0  0  0  0  0  0  0  0
    5.3300   -0.2330    5.5400 H   0  0  0  0  0  0  0  0  0  0  0  0
    3.2150    1.4090    5.4250 H   0  0  0  0  0  0  0  0  0  0  0  0
    4.7730    1.7420    4.5000 H   0  0  0  0  0  0  0  0  0  0  0  0
    3.7990    0.8530    2.4640 H   0  0  0  0  0  0  0  0  0  0  0  0
    1.7550    2.6800    3.7570 H   0  0  0  0  0  0  0  0  0  0  0  0
    3.4940    3.2220    3.6140 H   0  0  0  0  0  0  0  0  0  0  0  0
    2.5970    2.8840    2.1270 H   0  0  0  0  0  0  0  0  0  0  0  0
    1.3490    0.4640    4.2780 H   0  0  0  0  0  0  0  0  0  0  0  0
    1.8200   -1.7240    4.3000 H   0  0  0  0  0  0  0  0  0  0  0  0
    2.5750   -1.7700    2.8010 H   0  0  0  0  0  0  0  0  0  0  0  0
    1.8270    0.6310   -1.2810 C   0  0  0  0  0  0  0  0  0  0  0  0
    0.6590   -0.3650   -1.2090 C   0  0  1  0  0  0  0  0  0  0  0  0
    1.1880   -1.5950   -1.5070 O   0  0  0  0  0  0  0  0  0  0  0  0
   -0.0540   -0.2630    0.0980 C   0  0  2  0  0  0  0  0  0  0  0  0
    0.7520   -0.5710    1.2380 N   0  0  0  0  0  0  0  0  0  0  0  0
   -1.3760   -0.9750    0.1300 C   0  0  0  0  0  0  0  0  0  0  0  0
   -1.6630   -1.7530    1.0790 O   0  0  0  0  0  0  0  0  0  0  0  0
    1.4360    1.5870   -0.8420 H   0  0  0  0  0  0  0  0  0  0  0  0
    2.6000    0.2000   -0.5870 H   0  0  0  0  0  0  0  0  0  0  0  0
    2.1990    0.7630   -2.2950 H   0  0  0  0  0  0  0  0  0  0  0  0
   -0.0350   -0.0090   -2.0140 H   0  0  0  0  0  0  0  0  0  0  0  0
    1.8740   -1.4460   -2.2330 H   0  0  0  0  0  0  0  0  0  0  0  0
   -0.3260    0.8320    0.1960 H   0  0  0  0  0  0  0  0  0  0  0  0
    1.1140   -1.5610    1.4100 H   0  0  0  0  0  0  0  0  0  0  0  0
   -1.8390   -2.4820   -3.2480 C   0  0  0  0  0  0  0  0  0  0  0  0
   -3.2540   -2.8620   -2.9880 C   0  0  0  0  0  0  0  0  0  0  0  0
   -4.1460   -2.0690   -3.9390 C   0  0  0  0  0  0  0  0  0  0  0  0
   -3.7100   -2.7500   -1.5730 C   0  0  0  0  0  0  0  0  0  0  0  0
   -3.6350   -1.4010   -0.9690 C   0  0  2  0  0  0  0  0  0  0  0  0
   -2.3370   -0.7950   -0.8990 N   0  0  0  0  0  0  0  0  0  0  0  0
   -4.3520   -1.3990    0.3530 C   0  0  0  0  0  0  0  0  0  0  0  0
   -3.9540   -0.8500    1.3880 O   0  0  0  0  0  0  0  0  0  0  0  0
   -5.5770   -2.0740    0.4390 O   0  0  0  0  0  0  0  0  0  0  0  0
   -1.6770   -1.4800   -3.6400 H   0  0  0  0  0  0  0  0  0  0  0  0
   -1.3800   -3.1840   -4.0060 H   0  0  0  0  0  0  0  0  0  0  0  0
   -1.1950   -2.6230   -2.3420 H   0  0  0  0  0  0  0  0  0  0  0  0
   -3.3830   -3.9330   -3.3150 H   0  0  0  0  0  0  0  0  0  0  0  0
   -5.2030   -2.3570   -3.7670 H   0  0  0  0  0  0  0  0  0  0  0  0
   -3.8490   -2.2820   -4.9850 H   0  0  0  0  0  0  0  0  0  0  0  0
   -3.9760   -0.9940   -3.7600 H   0  0  0  0  0  0  0  0  0  0  0  0
   -3.1790   -3.5350   -0.9950 H   0  0  0  0  0  0  0  0  0  0  0  0
   -4.7860   -3.0960   -1.5680 H   0  0  0  0  0  0  0  0  0  0  0  0
   -4.2840   -0.6530   -1.5500 H   0  0  0  0  0  0  0  0  0  0  0  0
   -2.0280   -0.1300   -1.6890 H   0  0  0  0  0  0  0  0  0  0  0  0
  1 11  1  0  0  0  0
  1  9  1  0  0  0  0
  2  1  1  0  0  0  0
  2 12  1  0  0  0  0
  3 14  1  6  0  0  0
  3  5  1  0  0  0  0
  3  2  1  0  0  0  0
  4  3  1  0  0  0  0
  4 16  1  0  0  0  0
  4 15  1  0  0  0  0
  5  6  1  0  0  0  0
  5 18  1  1  0  0  0
  6 19  1  0  0  0  0
  7  5  1  0  0  0  0
  8  7  2  0  0  0  0
 10  1  1  0  0  0  0
 13  2  1  0  0  0  0
 17  4  1  0  0  0  0
 20  6  1  0  0  0  0
 21 22  1  0  0  0  0
 21 28  1  0  0  0  0
 21 29  1  0  0  0  0
 22 31  1  6  0  0  0
 22 24  1  0  0  0  0
 23 22  1  0  0  0  0
 24 26  1  0  0  0  0
 24 33  1  1  0  0  0
 24 25  1  0  0  0  0
 25 34  1  0  0  0  0
 25  7  1  0  0  0  0
 26 27  2  0  0  0  0
 30 21  1  0  0  0  0
 32 23  1  0  0  0  0
 35 36  1  0  0  0  0
 35 46  1  0  0  0  0
 36 38  1  0  0  0  0
 37 48  1  0  0  0  0
 37 50  1  0  0  0  0
 37 36  1  0  0  0  0
 38 52  1  0  0  0  0
 38 51  1  0  0  0  0
 38 39  1  0  0  0  0
 39 53  1  6  0  0  0
 39 40  1  0  0  0  0
 39 41  1  0  0  0  0
 40 26  1  0  0  0  0
 41 43  2  0  0  0  0
 41 42  1  0  0  0  0
 44 35  1  0  0  0  0
 45 35  1  0  0  0  0
 47 36  1  0  0  0  0
 49 37  1  0  0  0  0
 54 40  1  0  0  0  0
M  END
$$$$
