ITN.pdb
 OpenBabel07022418433D

 49 48  0  0  1  0  0  0  0  0999 V2000
    2.9650   -3.5930    2.9670 C   0  0  0  0  0  0  0  0  0  0  0  0
    2.8520   -2.8930    1.6670 C   0  0  0  0  0  0  0  0  0  0  0  0
    3.5080   -1.5460    1.6190 C   0  0  2  0  0  0  0  0  0  0  0  0
    4.9900   -1.7270    1.9120 C   0  0  0  0  0  0  0  0  0  0  0  0
    2.9630   -0.5670    2.6050 C   0  0  2  0  0  0  0  0  0  0  0  0
    3.1110   -1.0170    3.9680 N   0  0  0  0  0  0  0  0  0  0  0  0
    1.5700   -0.1560    2.3030 C   0  0  0  0  0  0  0  0  0  0  0  0
    0.7200   -0.2440    3.2240 O   0  0  0  0  0  0  0  0  0  0  0  0
    2.2850   -3.2420    3.7530 H   0  0  0  0  0  0  0  0  0  0  0  0
    2.6910   -4.6750    2.7930 H   0  0  0  0  0  0  0  0  0  0  0  0
    4.0360   -3.6350    3.3000 H   0  0  0  0  0  0  0  0  0  0  0  0
    3.2360   -3.5490    0.8610 H   0  0  0  0  0  0  0  0  0  0  0  0
    1.7590   -2.7420    1.4420 H   0  0  0  0  0  0  0  0  0  0  0  0
    3.4490   -1.0890    0.6150 H   0  0  0  0  0  0  0  0  0  0  0  0
    5.5840   -0.8740    1.5270 H   0  0  0  0  0  0  0  0  0  0  0  0
    5.1770   -1.9800    2.9560 H   0  0  0  0  0  0  0  0  0  0  0  0
    5.2980   -2.6290    1.3100 H   0  0  0  0  0  0  0  0  0  0  0  0
    3.5820    0.3650    2.5130 H   0  0  0  0  0  0  0  0  0  0  0  0
    2.5350   -0.3630    4.5720 H   0  0  0  0  0  0  0  0  0  0  0  0
    4.1050   -0.8250    4.2510 H   0  0  0  0  0  0  0  0  0  0  0  0
   -1.7090    2.6450    0.3080 C   0  0  0  0  0  0  0  0  0  0  0  0
   -0.2680    2.1850    0.3650 C   0  0  1  0  0  0  0  0  0  0  0  0
    0.2700    2.8710    1.4940 O   0  0  0  0  0  0  0  0  0  0  0  0
   -0.2290    0.7310    0.7460 C   0  0  2  0  0  0  0  0  0  0  0  0
    1.1410    0.3220    1.0620 N   0  0  0  0  0  0  0  0  0  0  0  0
   -0.6780   -0.1980   -0.3030 C   0  0  0  0  0  0  0  0  0  0  0  0
    0.1570   -1.0060   -0.7740 O   0  0  0  0  0  0  0  0  0  0  0  0
   -2.3570    2.1400    1.0550 H   0  0  0  0  0  0  0  0  0  0  0  0
   -2.1290    2.6390   -0.7190 H   0  0  0  0  0  0  0  0  0  0  0  0
   -1.7820    3.7360    0.6060 H   0  0  0  0  0  0  0  0  0  0  0  0
    0.2200    2.4480   -0.5650 H   0  0  0  0  0  0  0  0  0  0  0  0
   -0.3090    2.6730    2.2680 H   0  0  0  0  0  0  0  0  0  0  0  0
   -0.8390    0.5930    1.6560 H   0  0  0  0  0  0  0  0  0  0  0  0
    1.8180    0.4070    0.2800 H   0  0  0  0  0  0  0  0  0  0  0  0
   -4.9580   -0.2600   -0.9770 N   0  0  0  0  0  0  0  0  0  0  0  0
   -4.6540   -1.6410   -0.9650 C   0  0  0  0  0  0  0  0  0  0  0  0
   -5.5340   -2.4380   -0.5520 O   0  0  0  0  0  0  0  0  0  0  0  0
   -3.3780   -2.1810   -1.4060 C   0  0  0  0  0  0  0  0  0  0  0  0
   -2.3560   -1.1930   -1.8610 C   0  0  2  0  0  0  0  0  0  0  0  0
   -1.9880   -0.2330   -0.8060 N   0  0  0  0  0  0  0  0  0  0  0  0
   -2.7600   -0.4850   -3.0860 C   0  0  0  0  0  0  0  0  0  0  0  0
   -3.1140   -1.1620   -4.0840 O   0  0  0  0  0  0  0  0  0  0  0  0
   -2.7840    0.8940   -3.2400 O   0  0  0  0  0  0  0  0  0  0  0  0
   -5.0660    0.3210   -1.8360 H   0  0  0  0  0  0  0  0  0  0  0  0
   -5.0990    0.2790   -0.0710 H   0  0  0  0  0  0  0  0  0  0  0  0
   -2.9400   -2.8680   -0.6370 H   0  0  0  0  0  0  0  0  0  0  0  0
   -3.5630   -2.8600   -2.2900 H   0  0  0  0  0  0  0  0  0  0  0  0
   -1.4200   -1.7600   -2.0920 H   0  0  0  0  0  0  0  0  0  0  0  0
   -2.7410    0.3980   -0.4550 H   0  0  0  0  0  0  0  0  0  0  0  0
  1 11  1  0  0  0  0
  1  9  1  0  0  0  0
  2  1  1  0  0  0  0
  3 14  1  6  0  0  0
  3  2  1  0  0  0  0
  3  4  1  0  0  0  0
  3  5  1  0  0  0  0
  4 16  1  0  0  0  0
  5 18  1  6  0  0  0
  5  6  1  0  0  0  0
  6 20  1  0  0  0  0
  6 19  1  0  0  0  0
  7  5  1  0  0  0  0
  7  8  2  0  0  0  0
 10  1  1  0  0  0  0
 12  2  1  0  0  0  0
 13  2  1  0  0  0  0
 15  4  1  0  0  0  0
 17  4  1  0  0  0  0
 21 22  1  0  0  0  0
 21 30  1  0  0  0  0
 21 28  1  0  0  0  0
 22 31  1  6  0  0  0
 22 24  1  0  0  0  0
 22 23  1  0  0  0  0
 23 32  1  0  0  0  0
 24 25  1  0  0  0  0
 24 33  1  1  0  0  0
 25  7  1  0  0  0  0
 26 24  1  0  0  0  0
 27 26  2  0  0  0  0
 29 21  1  0  0  0  0
 34 25  1  0  0  0  0
 35 36  1  0  0  0  0
 35 45  1  0  0  0  0
 36 37  2  0  0  0  0
 38 36  1  0  0  0  0
 38 46  1  0  0  0  0
 39 48  1  6  0  0  0
 39 38  1  0  0  0  0
 39 40  1  0  0  0  0
 40 49  1  0  0  0  0
 40 26  1  0  0  0  0
 41 39  1  0  0  0  0
 42 41  2  0  0  0  0
 43 41  1  0  0  0  0
 44 35  1  0  0  0  0
 47 38  1  0  0  0  0
M  END
$$$$
