ITP.pdb
 OpenBabel07022418433D

 49 49  0  0  1  0  0  0  0  0999 V2000
   -1.6150   -3.4820    1.8750 C   0  0  0  0  0  0  0  0  0  0  0  0
   -0.1760   -3.0170    1.9790 C   0  0  0  0  0  0  0  0  0  0  0  0
    0.6170   -3.4000    0.7700 C   0  0  2  0  0  0  0  0  0  0  0  0
    0.6240   -4.9100    0.6060 C   0  0  0  0  0  0  0  0  0  0  0  0
    2.0050   -2.8410    0.8680 C   0  0  2  0  0  0  0  0  0  0  0  0
    2.5850   -3.4290    2.0810 N   0  0  0  0  0  0  0  0  0  0  0  0
    1.9300   -1.3820    1.0410 C   0  0  0  0  0  0  0  0  0  0  0  0
    2.2760   -0.8380    2.1450 O   0  0  0  0  0  0  0  0  0  0  0  0
   -2.0120   -3.0560    0.9260 H   0  0  0  0  0  0  0  0  0  0  0  0
   -2.1400   -3.0530    2.7630 H   0  0  0  0  0  0  0  0  0  0  0  0
   -1.6180   -4.5780    1.8840 H   0  0  0  0  0  0  0  0  0  0  0  0
    0.3240   -3.4690    2.8600 H   0  0  0  0  0  0  0  0  0  0  0  0
   -0.1900   -1.9300    2.1540 H   0  0  0  0  0  0  0  0  0  0  0  0
    0.1490   -3.0030   -0.1470 H   0  0  0  0  0  0  0  0  0  0  0  0
   -0.3600   -5.1820    0.1710 H   0  0  0  0  0  0  0  0  0  0  0  0
    1.3940   -5.1960   -0.1140 H   0  0  0  0  0  0  0  0  0  0  0  0
    0.6950   -5.4280    1.5850 H   0  0  0  0  0  0  0  0  0  0  0  0
    2.6320   -3.1050   -0.0080 H   0  0  0  0  0  0  0  0  0  0  0  0
    3.3490   -2.8530    2.4650 H   0  0  0  0  0  0  0  0  0  0  0  0
    2.9890   -4.3520    1.7660 H   0  0  0  0  0  0  0  0  0  0  0  0
    2.6280    3.1110   -0.2000 C   0  0  0  0  0  0  0  0  0  0  0  0
    2.5110    1.6640   -0.6190 C   0  0  1  0  0  0  0  0  0  0  0  0
    3.7740    1.1010   -0.3050 O   0  0  0  0  0  0  0  0  0  0  0  0
    1.4680    0.9600    0.2790 C   0  0  2  0  0  0  0  0  0  0  0  0
    1.4850   -0.4460    0.0310 N   0  0  0  0  0  0  0  0  0  0  0  0
    0.1970    1.6240    0.2410 C   0  0  0  0  0  0  0  0  0  0  0  0
    0.2240    2.8790    0.5800 O   0  0  0  0  0  0  0  0  0  0  0  0
    2.4870    3.1440    0.9100 H   0  0  0  0  0  0  0  0  0  0  0  0
    3.6450    3.5110   -0.4340 H   0  0  0  0  0  0  0  0  0  0  0  0
    1.9070    3.7270   -0.7410 H   0  0  0  0  0  0  0  0  0  0  0  0
    2.2910    1.5020   -1.6720 H   0  0  0  0  0  0  0  0  0  0  0  0
    3.9560    1.1970    0.6490 H   0  0  0  0  0  0  0  0  0  0  0  0
    1.8900    1.1740    1.3300 H   0  0  0  0  0  0  0  0  0  0  0  0
    1.2170   -0.9020   -0.8580 H   0  0  0  0  0  0  0  0  0  0  0  0
   -1.0560    1.1030   -0.1090 N   0  0  0  0  0  0  0  0  0  0  0  0
   -1.3220   -0.2300   -0.5890 C   0  0  0  0  0  0  0  0  0  0  0  0
   -2.8120   -0.3310   -0.8650 C   0  0  0  0  0  0  0  0  0  0  0  0
   -3.3750    0.7470   -0.0300 C   0  0  0  0  0  0  0  0  0  0  0  0
   -2.3410    1.8450   -0.0280 C   0  0  1  0  0  0  0  0  0  0  0  0
   -2.4640    2.5710    1.2620 C   0  0  0  0  0  0  0  0  0  0  0  0
   -3.4140    3.3730    1.4030 O   0  0  0  0  0  0  0  0  0  0  0  0
   -1.5850    2.3960    2.3010 O   0  0  0  0  0  0  0  0  0  0  0  0
   -0.9720   -0.9890    0.1000 H   0  0  0  0  0  0  0  0  0  0  0  0
   -0.8460   -0.4020   -1.5840 H   0  0  0  0  0  0  0  0  0  0  0  0
   -3.1220   -1.3350   -0.5010 H   0  0  0  0  0  0  0  0  0  0  0  0
   -3.0510   -0.1790   -1.9320 H   0  0  0  0  0  0  0  0  0  0  0  0
   -3.5300    0.4360    1.0250 H   0  0  0  0  0  0  0  0  0  0  0  0
   -4.3540    1.1390   -0.3800 H   0  0  0  0  0  0  0  0  0  0  0  0
   -2.4450    2.5080   -0.9010 H   0  0  0  0  0  0  0  0  0  0  0  0
  1 11  1  0  0  0  0
  1  2  1  0  0  0  0
  1 10  1  0  0  0  0
  2 13  1  0  0  0  0
  2 12  1  0  0  0  0
  3 14  1  6  0  0  0
  3  5  1  0  0  0  0
  3  2  1  0  0  0  0
  4  3  1  0  0  0  0
  4 17  1  0  0  0  0
  5 18  1  6  0  0  0
  5  7  1  0  0  0  0
  5  6  1  0  0  0  0
  6 19  1  0  0  0  0
  7  8  2  0  0  0  0
  9  1  1  0  0  0  0
 15  4  1  0  0  0  0
 16  4  1  0  0  0  0
 20  6  1  0  0  0  0
 21 28  1  0  0  0  0
 22 31  1  6  0  0  0
 22 23  1  0  0  0  0
 22 21  1  0  0  0  0
 22 24  1  0  0  0  0
 23 32  1  0  0  0  0
 24 33  1  1  0  0  0
 25 24  1  0  0  0  0
 25  7  1  0  0  0  0
 26 24  1  0  0  0  0
 26 27  2  0  0  0  0
 29 21  1  0  0  0  0
 30 21  1  0  0  0  0
 34 25  1  0  0  0  0
 35 39  1  0  0  0  0
 35 26  1  0  0  0  0
 36 35  1  0  0  0  0
 36 43  1  0  0  0  0
 37 36  1  0  0  0  0
 37 45  1  0  0  0  0
 37 38  1  0  0  0  0
 38 39  1  0  0  0  0
 38 47  1  0  0  0  0
 39 49  1  6  0  0  0
 39 40  1  0  0  0  0
 40 41  2  0  0  0  0
 40 42  1  0  0  0  0
 44 36  1  0  0  0  0
 46 37  1  0  0  0  0
 48 38  1  0  0  0  0
M  END
$$$$
