ITQ.pdb
 OpenBabel07022418433D

 52 51  0  0  1  0  0  0  0  0999 V2000
    4.1260   -4.5510    0.4830 C   0  0  0  0  0  0  0  0  0  0  0  0
    4.4900   -3.2690   -0.2170 C   0  0  0  0  0  0  0  0  0  0  0  0
    3.5470   -2.9400   -1.3510 C   0  0  2  0  0  0  0  0  0  0  0  0
    4.0110   -1.6490   -1.9680 C   0  0  0  0  0  0  0  0  0  0  0  0
    2.1110   -2.9200   -0.9290 C   0  0  2  0  0  0  0  0  0  0  0  0
    1.3100   -2.5950   -2.0940 N   0  0  0  0  0  0  0  0  0  0  0  0
    1.8100   -1.9260    0.1120 C   0  0  0  0  0  0  0  0  0  0  0  0
    2.3990   -2.0140    1.2190 O   0  0  0  0  0  0  0  0  0  0  0  0
    3.7220   -4.4090    1.4950 H   0  0  0  0  0  0  0  0  0  0  0  0
    3.4360   -5.1390   -0.1830 H   0  0  0  0  0  0  0  0  0  0  0  0
    5.0220   -5.2270    0.6120 H   0  0  0  0  0  0  0  0  0  0  0  0
    5.4990   -3.4470   -0.6950 H   0  0  0  0  0  0  0  0  0  0  0  0
    4.6390   -2.4200    0.4740 H   0  0  0  0  0  0  0  0  0  0  0  0
    3.6620   -3.7420   -2.1080 H   0  0  0  0  0  0  0  0  0  0  0  0
    4.1140   -0.8800   -1.1900 H   0  0  0  0  0  0  0  0  0  0  0  0
    3.3430   -1.2870   -2.7810 H   0  0  0  0  0  0  0  0  0  0  0  0
    5.0300   -1.8390   -2.3830 H   0  0  0  0  0  0  0  0  0  0  0  0
    1.8320   -3.9500   -0.6330 H   0  0  0  0  0  0  0  0  0  0  0  0
    1.8010   -2.8700   -2.9930 H   0  0  0  0  0  0  0  0  0  0  0  0
    0.3980   -3.1290   -2.0960 H   0  0  0  0  0  0  0  0  0  0  0  0
    0.9920    2.5640    1.4100 C   0  0  0  0  0  0  0  0  0  0  0  0
    1.0770    1.4500    0.4080 C   0  0  1  0  0  0  0  0  0  0  0  0
    2.4630    1.2430    0.1820 O   0  0  0  0  0  0  0  0  0  0  0  0
    0.5860    0.1170    0.9590 C   0  0  2  0  0  0  0  0  0  0  0  0
    0.8950   -0.8800   -0.0690 N   0  0  0  0  0  0  0  0  0  0  0  0
   -0.8470    0.1020    1.2850 C   0  0  0  0  0  0  0  0  0  0  0  0
   -1.5910   -0.6580    0.5750 O   0  0  0  0  0  0  0  0  0  0  0  0
    0.0080    3.0660    1.4590 H   0  0  0  0  0  0  0  0  0  0  0  0
    1.2670    2.1910    2.4210 H   0  0  0  0  0  0  0  0  0  0  0  0
    1.7220    3.3950    1.1380 H   0  0  0  0  0  0  0  0  0  0  0  0
    0.6310    1.7110   -0.5560 H   0  0  0  0  0  0  0  0  0  0  0  0
    2.7410    1.7460   -0.6390 H   0  0  0  0  0  0  0  0  0  0  0  0
    1.1830   -0.1040    1.8560 H   0  0  0  0  0  0  0  0  0  0  0  0
    0.3890   -0.7760   -0.9720 H   0  0  0  0  0  0  0  0  0  0  0  0
   -7.1490    0.1720    1.4010 N   0  0  0  0  0  0  0  0  0  0  0  0
   -5.7740    0.2350    1.0690 C   0  0  0  0  0  0  0  0  0  0  0  0
   -5.2300   -0.7800    0.5870 O   0  0  0  0  0  0  0  0  0  0  0  0
   -5.0560    1.5000    1.3060 C   0  0  0  0  0  0  0  0  0  0  0  0
   -3.5980    1.4240    1.4430 C   0  0  0  0  0  0  0  0  0  0  0  0
   -2.9360    0.7400    2.5340 C   0  0  2  0  0  0  0  0  0  0  0  0
   -1.4710    0.8490    2.3130 N   0  0  0  0  0  0  0  0  0  0  0  0
   -3.2210   -0.5940    2.9580 C   0  0  0  0  0  0  0  0  0  0  0  0
   -2.2780   -1.4510    2.9570 O   0  0  0  0  0  0  0  0  0  0  0  0
   -4.4210   -1.1400    3.4010 O   0  0  0  0  0  0  0  0  0  0  0  0
   -7.4970   -0.1610    2.3270 H   0  0  0  0  0  0  0  0  0  0  0  0
   -7.9080    0.4630    0.7220 H   0  0  0  0  0  0  0  0  0  0  0  0
   -5.2440    2.0950    0.3530 H   0  0  0  0  0  0  0  0  0  0  0  0
   -5.5650    2.1370    2.0690 H   0  0  0  0  0  0  0  0  0  0  0  0
   -3.2210    2.4970    1.3880 H   0  0  0  0  0  0  0  0  0  0  0  0
   -3.2100    1.0130    0.4540 H   0  0  0  0  0  0  0  0  0  0  0  0
   -3.0820    1.3900    3.4810 H   0  0  0  0  0  0  0  0  0  0  0  0
   -0.9070    1.4650    2.9160 H   0  0  0  0  0  0  0  0  0  0  0  0
  1 11  1  0  0  0  0
  1  9  1  0  0  0  0
  2 13  1  0  0  0  0
  2  1  1  0  0  0  0
  3 14  1  6  0  0  0
  3  5  1  0  0  0  0
  3  2  1  0  0  0  0
  4  3  1  0  0  0  0
  4 15  1  0  0  0  0
  5 18  1  1  0  0  0
  5  7  1  0  0  0  0
  6  5  1  0  0  0  0
  7  8  2  0  0  0  0
 10  1  1  0  0  0  0
 12  2  1  0  0  0  0
 16  4  1  0  0  0  0
 17  4  1  0  0  0  0
 19  6  1  0  0  0  0
 20  6  1  0  0  0  0
 21 28  1  0  0  0  0
 21 29  1  0  0  0  0
 22 31  1  6  0  0  0
 22 24  1  0  0  0  0
 22 21  1  0  0  0  0
 23 22  1  0  0  0  0
 24 26  1  0  0  0  0
 24 33  1  1  0  0  0
 25  7  1  0  0  0  0
 25 24  1  0  0  0  0
 26 41  1  0  0  0  0
 27 26  2  0  0  0  0
 30 21  1  0  0  0  0
 32 23  1  0  0  0  0
 34 25  1  0  0  0  0
 35 45  1  0  0  0  0
 36 38  1  0  0  0  0
 36 35  1  0  0  0  0
 37 36  2  0  0  0  0
 38 39  1  0  0  0  0
 38 48  1  0  0  0  0
 39 40  1  0  0  0  0
 40 42  1  0  0  0  0
 40 51  1  1  0  0  0
 41 40  1  0  0  0  0
 41 52  1  0  0  0  0
 42 44  1  0  0  0  0
 43 42  2  0  0  0  0
 46 35  1  0  0  0  0
 47 38  1  0  0  0  0
 49 39  1  0  0  0  0
 50 39  1  0  0  0  0
M  END
$$$$
