ITR.pdb
 OpenBabel07022418433D

 58 57  0  0  1  0  0  0  0  0999 V2000
    0.9960   -2.6370    6.6030 C   0  0  0  0  0  0  0  0  0  0  0  0
    1.6250   -2.1630    5.3060 C   0  0  0  0  0  0  0  0  0  0  0  0
    1.8040   -0.6660    5.3320 C   0  0  2  0  0  0  0  0  0  0  0  0
    0.4880   -0.0010    5.4950 C   0  0  0  0  0  0  0  0  0  0  0  0
    2.6410   -0.1510    4.1940 C   0  0  2  0  0  0  0  0  0  0  0  0
    2.7710    1.2870    4.2760 N   0  0  0  0  0  0  0  0  0  0  0  0
    2.1500   -0.5150    2.8620 C   0  0  0  0  0  0  0  0  0  0  0  0
    2.0410   -1.7200    2.5940 O   0  0  0  0  0  0  0  0  0  0  0  0
    1.3170   -3.6930    6.8000 H   0  0  0  0  0  0  0  0  0  0  0  0
    1.3710   -2.0290    7.4700 H   0  0  0  0  0  0  0  0  0  0  0  0
   -0.1090   -2.6340    6.5780 H   0  0  0  0  0  0  0  0  0  0  0  0
    0.9020   -2.4650    4.4990 H   0  0  0  0  0  0  0  0  0  0  0  0
    2.6220   -2.6160    5.1520 H   0  0  0  0  0  0  0  0  0  0  0  0
    2.3890   -0.4540    6.2790 H   0  0  0  0  0  0  0  0  0  0  0  0
    0.4660    0.7700    6.3010 H   0  0  0  0  0  0  0  0  0  0  0  0
   -0.2700   -0.7540    5.7950 H   0  0  0  0  0  0  0  0  0  0  0  0
    0.1480    0.4090    4.5240 H   0  0  0  0  0  0  0  0  0  0  0  0
    3.6670   -0.5810    4.3460 H   0  0  0  0  0  0  0  0  0  0  0  0
    2.6800    1.6030    5.2570 H   0  0  0  0  0  0  0  0  0  0  0  0
    3.7080    1.6110    3.9240 H   0  0  0  0  0  0  0  0  0  0  0  0
    2.1700    0.1250   -1.8510 C   0  0  0  0  0  0  0  0  0  0  0  0
    2.3090    0.4870   -0.4450 C   0  0  1  0  0  0  0  0  0  0  0  0
    2.7500    1.8460   -0.4370 O   0  0  0  0  0  0  0  0  0  0  0  0
    1.3080    0.2170    0.5790 C   0  0  2  0  0  0  0  0  0  0  0  0
    1.8160    0.4700    1.9220 N   0  0  0  0  0  0  0  0  0  0  0  0
    0.3290   -0.8540    0.4610 C   0  0  0  0  0  0  0  0  0  0  0  0
   -0.0690   -1.5260    1.4690 O   0  0  0  0  0  0  0  0  0  0  0  0
    3.1650    0.4350   -2.3390 H   0  0  0  0  0  0  0  0  0  0  0  0
    2.1930   -0.9720   -2.0960 H   0  0  0  0  0  0  0  0  0  0  0  0
    1.4580    0.7090   -2.4680 H   0  0  0  0  0  0  0  0  0  0  0  0
    3.2620   -0.0330   -0.0870 H   0  0  0  0  0  0  0  0  0  0  0  0
    1.9700    2.3960   -0.7110 H   0  0  0  0  0  0  0  0  0  0  0  0
    0.5840    1.1340    0.4900 H   0  0  0  0  0  0  0  0  0  0  0  0
    1.9590    1.5040    2.2390 H   0  0  0  0  0  0  0  0  0  0  0  0
   -2.8360    0.9460   -6.1170 N   0  0  0  0  0  0  0  0  0  0  0  0
   -3.3400    0.5960   -4.8480 C   0  0  0  0  0  0  0  0  0  0  0  0
   -3.2950    1.4120   -3.8270 N   0  0  0  0  0  0  0  0  0  0  0  0
   -3.9400   -0.6890   -4.5910 N   0  0  0  0  0  0  0  0  0  0  0  0
   -3.9500   -1.1750   -3.2410 C   0  0  0  0  0  0  0  0  0  0  0  0
   -2.5410   -1.5170   -2.7540 C   0  0  0  0  0  0  0  0  0  0  0  0
   -2.5910   -2.0160   -1.3350 C   0  0  0  0  0  0  0  0  0  0  0  0
   -1.2670   -2.3800   -0.7690 C   0  0  2  0  0  0  0  0  0  0  0  0
   -0.3100   -1.3020   -0.7290 N   0  0  0  0  0  0  0  0  0  0  0  0
   -0.6870   -3.4790   -1.6050 C   0  0  0  0  0  0  0  0  0  0  0  0
   -1.3280   -4.5600   -1.8100 O   0  0  0  0  0  0  0  0  0  0  0  0
    0.5600   -3.3930   -2.1980 O   0  0  0  0  0  0  0  0  0  0  0  0
   -1.8130    0.9920   -6.2620 H   0  0  0  0  0  0  0  0  0  0  0  0
   -3.4640    1.1600   -6.9100 H   0  0  0  0  0  0  0  0  0  0  0  0
   -2.8610    2.3560   -3.9850 H   0  0  0  0  0  0  0  0  0  0  0  0
   -4.3470   -1.2260   -5.3850 H   0  0  0  0  0  0  0  0  0  0  0  0
   -4.5900   -2.0990   -3.1800 H   0  0  0  0  0  0  0  0  0  0  0  0
   -4.3680   -0.4500   -2.5130 H   0  0  0  0  0  0  0  0  0  0  0  0
   -1.9860   -0.5480   -2.7960 H   0  0  0  0  0  0  0  0  0  0  0  0
   -2.1490   -2.2730   -3.4530 H   0  0  0  0  0  0  0  0  0  0  0  0
   -3.0990   -1.2170   -0.7250 H   0  0  0  0  0  0  0  0  0  0  0  0
   -3.2850   -2.8800   -1.3080 H   0  0  0  0  0  0  0  0  0  0  0  0
   -1.4450   -2.8350    0.2300 H   0  0  0  0  0  0  0  0  0  0  0  0
   -0.0810   -0.8220   -1.5940 H   0  0  0  0  0  0  0  0  0  0  0  0
  1  9  1  0  0  0  0
  1 10  1  0  0  0  0
  2  3  1  0  0  0  0
  2  1  1  0  0  0  0
  3  4  1  0  0  0  0
  3 14  1  1  0  0  0
  4 16  1  0  0  0  0
  4 15  1  0  0  0  0
  5  6  1  0  0  0  0
  5 18  1  1  0  0  0
  5  3  1  0  0  0  0
  6 19  1  0  0  0  0
  7  5  1  0  0  0  0
  8  7  2  0  0  0  0
 11  1  1  0  0  0  0
 12  2  1  0  0  0  0
 13  2  1  0  0  0  0
 17  4  1  0  0  0  0
 20  6  1  0  0  0  0
 21 22  1  0  0  0  0
 22 23  1  0  0  0  0
 22 31  1  1  0  0  0
 22 24  1  0  0  0  0
 24 33  1  6  0  0  0
 24 25  1  0  0  0  0
 25 34  1  0  0  0  0
 25  7  1  0  0  0  0
 26 24  1  0  0  0  0
 26 27  2  0  0  0  0
 28 21  1  0  0  0  0
 29 21  1  0  0  0  0
 30 21  1  0  0  0  0
 32 23  1  0  0  0  0
 35 36  1  0  0  0  0
 36 38  1  0  0  0  0
 36 37  2  0  0  0  0
 38 39  1  0  0  0  0
 39 51  1  0  0  0  0
 39 40  1  0  0  0  0
 39 52  1  0  0  0  0
 40 41  1  0  0  0  0
 41 56  1  0  0  0  0
 41 42  1  0  0  0  0
 41 55  1  0  0  0  0
 42 43  1  0  0  0  0
 42 57  1  1  0  0  0
 43 26  1  0  0  0  0
 44 42  1  0  0  0  0
 45 44  1  0  0  0  0
 46 44  2  0  0  0  0
 47 35  1  0  0  0  0
 48 35  1  0  0  0  0
 49 37  1  0  0  0  0
 50 38  1  0  0  0  0
 53 40  1  0  0  0  0
 54 40  1  0  0  0  0
 58 43  1  0  0  0  0
M  END
$$$$
