ITT.pdb
 OpenBabel07022418433D

 49 48  0  0  1  0  0  0  0  0999 V2000
   -1.4990   -1.5130   -2.5900 C   0  0  0  0  0  0  0  0  0  0  0  0
   -0.2910   -2.1530   -1.9860 C   0  0  0  0  0  0  0  0  0  0  0  0
    0.9300   -1.2390   -2.1480 C   0  0  2  0  0  0  0  0  0  0  0  0
    1.1830   -0.9930   -3.6190 C   0  0  0  0  0  0  0  0  0  0  0  0
    2.1520   -1.8860   -1.5420 C   0  0  2  0  0  0  0  0  0  0  0  0
    2.4530   -3.1460   -2.1730 N   0  0  0  0  0  0  0  0  0  0  0  0
    2.0180   -2.0760   -0.0830 C   0  0  0  0  0  0  0  0  0  0  0  0
    2.1600   -3.2140    0.4780 O   0  0  0  0  0  0  0  0  0  0  0  0
   -2.3900   -1.8940   -2.0230 H   0  0  0  0  0  0  0  0  0  0  0  0
   -1.5230   -0.4070   -2.4880 H   0  0  0  0  0  0  0  0  0  0  0  0
   -1.6810   -1.8350   -3.6450 H   0  0  0  0  0  0  0  0  0  0  0  0
   -0.1270   -3.1250   -2.4670 H   0  0  0  0  0  0  0  0  0  0  0  0
   -0.4690   -2.2870   -0.9000 H   0  0  0  0  0  0  0  0  0  0  0  0
    0.7290   -0.2790   -1.6720 H   0  0  0  0  0  0  0  0  0  0  0  0
    1.1350   -1.9220   -4.2140 H   0  0  0  0  0  0  0  0  0  0  0  0
    2.1720   -0.5030   -3.7300 H   0  0  0  0  0  0  0  0  0  0  0  0
    0.4350   -0.2520   -4.0290 H   0  0  0  0  0  0  0  0  0  0  0  0
    2.9950   -1.1710   -1.7050 H   0  0  0  0  0  0  0  0  0  0  0  0
    1.8370   -3.4010   -2.9490 H   0  0  0  0  0  0  0  0  0  0  0  0
    2.6780   -3.9020   -1.5050 H   0  0  0  0  0  0  0  0  0  0  0  0
    2.4910   -0.3100    4.3960 C   0  0  0  0  0  0  0  0  0  0  0  0
    2.6340   -0.2930    2.8840 C   0  0  1  0  0  0  0  0  0  0  0  0
    3.9210   -0.6480    2.4920 O   0  0  0  0  0  0  0  0  0  0  0  0
    1.5870   -1.1680    2.2250 C   0  0  2  0  0  0  0  0  0  0  0  0
    1.7200   -0.9960    0.7930 N   0  0  0  0  0  0  0  0  0  0  0  0
    0.2560   -0.6600    2.7030 C   0  0  0  0  0  0  0  0  0  0  0  0
   -0.0490   -0.7220    3.9210 O   0  0  0  0  0  0  0  0  0  0  0  0
    3.4860   -0.2230    4.9000 H   0  0  0  0  0  0  0  0  0  0  0  0
    2.0720   -1.3040    4.7120 H   0  0  0  0  0  0  0  0  0  0  0  0
    1.8790    0.5350    4.7720 H   0  0  0  0  0  0  0  0  0  0  0  0
    2.4510    0.7470    2.5450 H   0  0  0  0  0  0  0  0  0  0  0  0
    4.3460    0.0650    1.9510 H   0  0  0  0  0  0  0  0  0  0  0  0
    1.7420   -2.2160    2.5350 H   0  0  0  0  0  0  0  0  0  0  0  0
    1.5980   -0.0550    0.3620 H   0  0  0  0  0  0  0  0  0  0  0  0
   -3.4390    2.3930    2.5910 C   0  0  0  0  0  0  0  0  0  0  0  0
   -2.1270    1.8890    2.0310 C   0  0  1  0  0  0  0  0  0  0  0  0
   -1.1200    2.5480    2.7650 O   0  0  0  0  0  0  0  0  0  0  0  0
   -1.9790    0.3980    2.2400 C   0  0  2  0  0  0  0  0  0  0  0  0
   -0.7030   -0.0930    1.8020 N   0  0  0  0  0  0  0  0  0  0  0  0
   -3.1120   -0.3560    1.6620 C   0  0  0  0  0  0  0  0  0  0  0  0
   -4.3000   -0.0790    1.9240 O   0  0  0  0  0  0  0  0  0  0  0  0
   -2.8420   -1.4020    0.8040 O   0  0  0  0  0  0  0  0  0  0  0  0
   -4.1560    2.5780    1.7650 H   0  0  0  0  0  0  0  0  0  0  0  0
   -3.8680    1.7130    3.3580 H   0  0  0  0  0  0  0  0  0  0  0  0
   -3.3110    3.3740    3.1040 H   0  0  0  0  0  0  0  0  0  0  0  0
   -2.0000    2.1490    0.9780 H   0  0  0  0  0  0  0  0  0  0  0  0
   -1.2430    2.2150    3.7080 H   0  0  0  0  0  0  0  0  0  0  0  0
   -2.0250    0.2370    3.3530 H   0  0  0  0  0  0  0  0  0  0  0  0
   -0.3950   -0.0650    0.7940 H   0  0  0  0  0  0  0  0  0  0  0  0
  1 10  1  0  0  0  0
  1  9  1  0  0  0  0
  1  2  1  0  0  0  0
  2 13  1  0  0  0  0
  3  2  1  0  0  0  0
  3 14  1  1  0  0  0
  3  5  1  0  0  0  0
  4  3  1  0  0  0  0
  5 18  1  6  0  0  0
  5  7  1  0  0  0  0
  6  5  1  0  0  0  0
  6 20  1  0  0  0  0
  7  8  2  0  0  0  0
  7 25  1  0  0  0  0
 11  1  1  0  0  0  0
 12  2  1  0  0  0  0
 15  4  1  0  0  0  0
 16  4  1  0  0  0  0
 17  4  1  0  0  0  0
 19  6  1  0  0  0  0
 21 29  1  0  0  0  0
 21 30  1  0  0  0  0
 21 28  1  0  0  0  0
 22 31  1  6  0  0  0
 22 21  1  0  0  0  0
 23 22  1  0  0  0  0
 24 33  1  1  0  0  0
 24 26  1  0  0  0  0
 24 22  1  0  0  0  0
 25 24  1  0  0  0  0
 26 27  2  0  0  0  0
 32 23  1  0  0  0  0
 34 25  1  0  0  0  0
 35 45  1  0  0  0  0
 35 44  1  0  0  0  0
 36 46  1  6  0  0  0
 36 38  1  0  0  0  0
 36 35  1  0  0  0  0
 36 37  1  0  0  0  0
 37 47  1  0  0  0  0
 38 48  1  1  0  0  0
 39 38  1  0  0  0  0
 39 26  1  0  0  0  0
 40 41  1  0  0  0  0
 40 38  1  0  0  0  0
 42 40  2  0  0  0  0
 43 35  1  0  0  0  0
 49 39  1  0  0  0  0
M  END
$$$$
