ITV.pdb
 OpenBabel07022418433D

 51 50  0  0  1  0  0  0  0  0999 V2000
    0.5010   -6.6590    1.7960 C   0  0  0  0  0  0  0  0  0  0  0  0
    1.7940   -5.9430    1.4750 C   0  0  0  0  0  0  0  0  0  0  0  0
    1.7000   -4.4510    1.7220 C   0  0  2  0  0  0  0  0  0  0  0  0
    1.3730   -4.2060    3.1870 C   0  0  0  0  0  0  0  0  0  0  0  0
    0.7130   -3.7900    0.8080 C   0  0  2  0  0  0  0  0  0  0  0  0
    1.1240   -4.0010   -0.5460 N   0  0  0  0  0  0  0  0  0  0  0  0
    0.5830   -2.3610    1.1620 C   0  0  0  0  0  0  0  0  0  0  0  0
    0.2230   -2.1050    2.3520 O   0  0  0  0  0  0  0  0  0  0  0  0
    0.7600   -7.7520    1.8840 H   0  0  0  0  0  0  0  0  0  0  0  0
    0.1330   -6.3060    2.7790 H   0  0  0  0  0  0  0  0  0  0  0  0
   -0.2350   -6.4970    0.9800 H   0  0  0  0  0  0  0  0  0  0  0  0
    2.1140   -6.1380    0.4340 H   0  0  0  0  0  0  0  0  0  0  0  0
    2.5750   -6.3860    2.1260 H   0  0  0  0  0  0  0  0  0  0  0  0
    2.7240   -4.0460    1.5570 H   0  0  0  0  0  0  0  0  0  0  0  0
    0.2800   -4.2200    3.3720 H   0  0  0  0  0  0  0  0  0  0  0  0
    1.8730   -3.2920    3.5060 H   0  0  0  0  0  0  0  0  0  0  0  0
    1.8210   -5.0470    3.7630 H   0  0  0  0  0  0  0  0  0  0  0  0
   -0.2750   -4.2670    0.9910 H   0  0  0  0  0  0  0  0  0  0  0  0
    2.1350   -4.0030   -0.7100 H   0  0  0  0  0  0  0  0  0  0  0  0
    0.5650   -3.4500   -1.2310 H   0  0  0  0  0  0  0  0  0  0  0  0
    3.1140    0.3590    1.2260 C   0  0  0  0  0  0  0  0  0  0  0  0
    1.9340    0.8790    0.4470 C   0  0  1  0  0  0  0  0  0  0  0  0
    2.2670    0.9200   -0.8860 O   0  0  0  0  0  0  0  0  0  0  0  0
    0.6830    0.0600    0.6890 C   0  0  2  0  0  0  0  0  0  0  0  0
    0.8370   -1.3060    0.2530 N   0  0  0  0  0  0  0  0  0  0  0  0
   -0.3900    0.6760   -0.1420 C   0  0  0  0  0  0  0  0  0  0  0  0
   -0.9940    0.0310   -1.0370 O   0  0  0  0  0  0  0  0  0  0  0  0
    3.2560   -0.7320    1.0320 H   0  0  0  0  0  0  0  0  0  0  0  0
    4.0240    0.8540    0.8290 H   0  0  0  0  0  0  0  0  0  0  0  0
    3.0570    0.6010    2.2940 H   0  0  0  0  0  0  0  0  0  0  0  0
    1.7140    1.9130    0.7850 H   0  0  0  0  0  0  0  0  0  0  0  0
    3.0860    1.4350   -1.0000 H   0  0  0  0  0  0  0  0  0  0  0  0
    0.3680    0.0980    1.7450 H   0  0  0  0  0  0  0  0  0  0  0  0
    1.1290   -1.5400   -0.7100 H   0  0  0  0  0  0  0  0  0  0  0  0
   -4.0310    3.7910   -0.6170 C   0  0  0  0  0  0  0  0  0  0  0  0
   -2.9480    3.1250    0.2030 C   0  0  0  0  0  0  0  0  0  0  0  0
   -3.5740    1.9330    0.8840 C   0  0  0  0  0  0  0  0  0  0  0  0
   -1.8010    2.6810   -0.7140 C   0  0  2  0  0  0  0  0  0  0  0  0
   -0.7630    2.0430    0.0700 N   0  0  0  0  0  0  0  0  0  0  0  0
   -1.2660    3.8480   -1.4680 C   0  0  0  0  0  0  0  0  0  0  0  0
   -0.0460    4.1830   -1.3870 O   0  0  0  0  0  0  0  0  0  0  0  0
   -2.0610    4.6260   -2.2930 O   0  0  0  0  0  0  0  0  0  0  0  0
   -5.0040    3.6630   -0.0680 H   0  0  0  0  0  0  0  0  0  0  0  0
   -4.0650    3.3660   -1.6220 H   0  0  0  0  0  0  0  0  0  0  0  0
   -3.7750    4.8660   -0.6840 H   0  0  0  0  0  0  0  0  0  0  0  0
   -2.5600    3.7940    1.0010 H   0  0  0  0  0  0  0  0  0  0  0  0
   -2.9480    1.6120    1.7510 H   0  0  0  0  0  0  0  0  0  0  0  0
   -4.6180    2.1010    1.1690 H   0  0  0  0  0  0  0  0  0  0  0  0
   -3.5150    1.0870    0.1550 H   0  0  0  0  0  0  0  0  0  0  0  0
   -2.2300    1.9930   -1.4480 H   0  0  0  0  0  0  0  0  0  0  0  0
   -0.2540    2.5480    0.8070 H   0  0  0  0  0  0  0  0  0  0  0  0
  1  9  1  0  0  0  0
  1 10  1  0  0  0  0
  2  3  1  0  0  0  0
  2  1  1  0  0  0  0
  2 13  1  0  0  0  0
  3 14  1  6  0  0  0
  3  4  1  0  0  0  0
  4 15  1  0  0  0  0
  4 16  1  0  0  0  0
  4 17  1  0  0  0  0
  5 18  1  1  0  0  0
  5  7  1  0  0  0  0
  5  3  1  0  0  0  0
  6  5  1  0  0  0  0
  7  8  2  0  0  0  0
 11  1  1  0  0  0  0
 12  2  1  0  0  0  0
 19  6  1  0  0  0  0
 20  6  1  0  0  0  0
 21 30  1  0  0  0  0
 22 24  1  0  0  0  0
 22 31  1  1  0  0  0
 22 21  1  0  0  0  0
 23 22  1  0  0  0  0
 24 33  1  1  0  0  0
 25 24  1  0  0  0  0
 25  7  1  0  0  0  0
 26 39  1  0  0  0  0
 26 24  1  0  0  0  0
 27 26  2  0  0  0  0
 28 21  1  0  0  0  0
 29 21  1  0  0  0  0
 32 23  1  0  0  0  0
 34 25  1  0  0  0  0
 35 43  1  0  0  0  0
 35 36  1  0  0  0  0
 36 37  1  0  0  0  0
 36 46  1  0  0  0  0
 37 48  1  0  0  0  0
 37 47  1  0  0  0  0
 38 50  1  6  0  0  0
 38 39  1  0  0  0  0
 38 36  1  0  0  0  0
 39 51  1  0  0  0  0
 40 41  1  0  0  0  0
 40 38  1  0  0  0  0
 42 40  2  0  0  0  0
 44 35  1  0  0  0  0
 45 35  1  0  0  0  0
 49 37  1  0  0  0  0
M  END
$$$$
