ITW.pdb
 OpenBabel07022418433D

 59 60  0  0  1  0  0  0  0  0999 V2000
    1.7800   -2.3850    0.9140 C   0  0  0  0  0  0  0  0  0  0  0  0
    1.6960   -1.4070    2.0290 C   0  0  0  0  0  0  0  0  0  0  0  0
    2.8320   -0.5010    2.2390 C   0  0  2  0  0  0  0  0  0  0  0  0
    2.4960    0.3930    3.4350 C   0  0  0  0  0  0  0  0  0  0  0  0
    3.2780    0.3660    1.1020 C   0  0  2  0  0  0  0  0  0  0  0  0
    4.4180    1.1190    1.6860 N   0  0  0  0  0  0  0  0  0  0  0  0
    2.3070    1.3650    0.6660 C   0  0  0  0  0  0  0  0  0  0  0  0
    2.4160    2.6060    0.9700 O   0  0  0  0  0  0  0  0  0  0  0  0
    2.3590   -3.3020    1.1940 H   0  0  0  0  0  0  0  0  0  0  0  0
    0.7400   -2.7790    0.7380 H   0  0  0  0  0  0  0  0  0  0  0  0
    2.1300   -2.0120   -0.0430 H   0  0  0  0  0  0  0  0  0  0  0  0
    1.6370   -2.0460    2.9690 H   0  0  0  0  0  0  0  0  0  0  0  0
    0.7090   -0.8560    2.0800 H   0  0  0  0  0  0  0  0  0  0  0  0
    3.7180   -1.0980    2.5590 H   0  0  0  0  0  0  0  0  0  0  0  0
    3.1530    1.2870    3.4130 H   0  0  0  0  0  0  0  0  0  0  0  0
    2.7510   -0.1690    4.3660 H   0  0  0  0  0  0  0  0  0  0  0  0
    1.4370    0.7150    3.4230 H   0  0  0  0  0  0  0  0  0  0  0  0
    3.7390   -0.2430    0.3110 H   0  0  0  0  0  0  0  0  0  0  0  0
    5.0190    0.4100    2.2010 H   0  0  0  0  0  0  0  0  0  0  0  0
    4.9990    1.5420    0.9200 H   0  0  0  0  0  0  0  0  0  0  0  0
    1.7180    2.9260   -2.3630 C   0  0  0  0  0  0  0  0  0  0  0  0
    0.3660    2.3540   -2.0390 C   0  0  1  0  0  0  0  0  0  0  0  0
    0.1590    1.1910   -2.7470 O   0  0  0  0  0  0  0  0  0  0  0  0
    0.2080    2.0450   -0.5510 C   0  0  2  0  0  0  0  0  0  0  0  0
    1.1710    1.0540   -0.1250 N   0  0  0  0  0  0  0  0  0  0  0  0
   -1.1990    1.6470   -0.3390 C   0  0  0  0  0  0  0  0  0  0  0  0
   -2.1290    2.4580   -0.5930 O   0  0  0  0  0  0  0  0  0  0  0  0
    2.5350    2.1930   -2.2280 H   0  0  0  0  0  0  0  0  0  0  0  0
    1.7020    3.1870   -3.4420 H   0  0  0  0  0  0  0  0  0  0  0  0
    1.9530    3.8350   -1.7850 H   0  0  0  0  0  0  0  0  0  0  0  0
   -0.4080    3.1100   -2.2760 H   0  0  0  0  0  0  0  0  0  0  0  0
    0.4800    1.3400   -3.6660 H   0  0  0  0  0  0  0  0  0  0  0  0
    0.3930    3.0060   -0.0490 H   0  0  0  0  0  0  0  0  0  0  0  0
    1.0210    0.0830   -0.4110 H   0  0  0  0  0  0  0  0  0  0  0  0
   -1.5830    0.3750    0.1430 N   0  0  0  0  0  0  0  0  0  0  0  0
   -2.9660   -0.0460    0.3600 C   0  0  1  0  0  0  0  0  0  0  0  0
   -3.3700   -1.0590   -0.6830 C   0  0  0  0  0  0  0  0  0  0  0  0
   -2.5440   -2.2650   -0.7250 C   0  0  0  0  0  0  0  0  0  0  0  0
   -1.4660   -2.4280   -1.5930 C   0  0  0  0  0  0  0  0  0  0  0  0
   -0.8710   -3.5980   -1.3870 N   0  0  0  0  0  0  0  0  0  0  0  0
   -1.5420   -4.2190   -0.3890 C   0  0  0  0  0  0  0  0  0  0  0  0
   -1.3340   -5.4430    0.1870 C   0  0  0  0  0  0  0  0  0  0  0  0
   -2.1460   -5.8940    1.1880 C   0  0  0  0  0  0  0  0  0  0  0  0
   -3.1880   -5.0900    1.6150 C   0  0  0  0  0  0  0  0  0  0  0  0
   -3.4050   -3.8680    1.0500 C   0  0  0  0  0  0  0  0  0  0  0  0
   -2.5890   -3.3930    0.0300 C   0  0  0  0  0  0  0  0  0  0  0  0
   -3.1780   -0.4430    1.7430 C   0  0  0  0  0  0  0  0  0  0  0  0
   -2.2310   -0.5230    2.5980 O   0  0  0  0  0  0  0  0  0  0  0  0
   -4.4770   -0.7540    2.1870 O   0  0  0  0  0  0  0  0  0  0  0  0
   -0.8260   -0.3070    0.3540 H   0  0  0  0  0  0  0  0  0  0  0  0
   -3.6590    0.8350    0.1700 H   0  0  0  0  0  0  0  0  0  0  0  0
   -3.4660   -0.5650   -1.6920 H   0  0  0  0  0  0  0  0  0  0  0  0
   -4.4390   -1.3400   -0.4400 H   0  0  0  0  0  0  0  0  0  0  0  0
   -1.1540   -1.6960   -2.3390 H   0  0  0  0  0  0  0  0  0  0  0  0
   -0.0420   -3.9830   -1.8880 H   0  0  0  0  0  0  0  0  0  0  0  0
   -0.5010   -6.0590   -0.1680 H   0  0  0  0  0  0  0  0  0  0  0  0
   -2.0160   -6.8570    1.6730 H   0  0  0  0  0  0  0  0  0  0  0  0
   -3.8430   -5.4340    2.4090 H   0  0  0  0  0  0  0  0  0  0  0  0
   -4.2170   -3.2600    1.3750 H   0  0  0  0  0  0  0  0  0  0  0  0
  1  9  1  0  0  0  0
  1  2  1  0  0  0  0
  2 13  1  0  0  0  0
  2  3  1  0  0  0  0
  2 12  1  0  0  0  0
  3 14  1  1  0  0  0
  3  4  1  0  0  0  0
  4 16  1  0  0  0  0
  5 18  1  6  0  0  0
  5  6  1  0  0  0  0
  5  3  1  0  0  0  0
  6 19  1  0  0  0  0
  7  8  2  0  0  0  0
  7  5  1  0  0  0  0
 10  1  1  0  0  0  0
 11  1  1  0  0  0  0
 15  4  1  0  0  0  0
 17  4  1  0  0  0  0
 20  6  1  0  0  0  0
 21 28  1  0  0  0  0
 21 22  1  0  0  0  0
 21 30  1  0  0  0  0
 22 31  1  6  0  0  0
 22 24  1  0  0  0  0
 23 22  1  0  0  0  0
 24 26  1  0  0  0  0
 24 25  1  0  0  0  0
 24 33  1  1  0  0  0
 25  7  1  0  0  0  0
 26 35  1  0  0  0  0
 27 26  2  0  0  0  0
 29 21  1  0  0  0  0
 32 23  1  0  0  0  0
 34 25  1  0  0  0  0
 35 50  1  0  0  0  0
 35 36  1  0  0  0  0
 36 51  1  6  0  0  0
 36 47  1  0  0  0  0
 37 53  1  0  0  0  0
 37 36  1  0  0  0  0
 38 37  1  0  0  0  0
 38 46  1  0  0  0  0
 39 40  1  0  0  0  0
 39 38  2  0  0  0  0
 40 41  1  0  0  0  0
 41 46  2  0  0  0  0
 41 42  1  0  0  0  0
 42 43  2  0  0  0  0
 43 44  1  0  0  0  0
 43 57  1  0  0  0  0
 44 58  1  0  0  0  0
 45 59  1  0  0  0  0
 45 44  2  0  0  0  0
 46 45  1  0  0  0  0
 47 49  2  0  0  0  0
 47 48  1  0  0  0  0
 52 37  1  0  0  0  0
 54 39  1  0  0  0  0
 55 40  1  0  0  0  0
 56 42  1  0  0  0  0
M  END
$$$$
