ITY.pdb
 OpenBabel07022418433D

 56 56  0  0  1  0  0  0  0  0999 V2000
   -4.1100    1.2170   -1.5140 C   0  0  0  0  0  0  0  0  0  0  0  0
   -4.2710    1.4440   -0.0480 C   0  0  0  0  0  0  0  0  0  0  0  0
   -3.3420    2.4700    0.5450 C   0  0  2  0  0  0  0  0  0  0  0  0
   -3.5860    3.7880   -0.1540 C   0  0  0  0  0  0  0  0  0  0  0  0
   -1.8940    2.0400    0.5210 C   0  0  2  0  0  0  0  0  0  0  0  0
   -1.4450    1.8080   -0.8030 N   0  0  0  0  0  0  0  0  0  0  0  0
   -1.6370    0.9300    1.4680 C   0  0  0  0  0  0  0  0  0  0  0  0
   -2.0700    1.0150    2.6510 O   0  0  0  0  0  0  0  0  0  0  0  0
   -5.1060    1.2330   -2.0520 H   0  0  0  0  0  0  0  0  0  0  0  0
   -3.4630    1.9530   -2.0010 H   0  0  0  0  0  0  0  0  0  0  0  0
   -3.7100    0.1910   -1.7370 H   0  0  0  0  0  0  0  0  0  0  0  0
   -5.3350    1.7650    0.1160 H   0  0  0  0  0  0  0  0  0  0  0  0
   -4.1490    0.4480    0.4510 H   0  0  0  0  0  0  0  0  0  0  0  0
   -3.6470    2.6470    1.6190 H   0  0  0  0  0  0  0  0  0  0  0  0
   -4.1770    4.5030    0.4620 H   0  0  0  0  0  0  0  0  0  0  0  0
   -4.1440    3.6150   -1.0870 H   0  0  0  0  0  0  0  0  0  0  0  0
   -2.6060    4.3090   -0.3190 H   0  0  0  0  0  0  0  0  0  0  0  0
   -1.3200    2.9700    0.8720 H   0  0  0  0  0  0  0  0  0  0  0  0
   -0.5860    2.3120   -1.0990 H   0  0  0  0  0  0  0  0  0  0  0  0
   -1.5050    0.8670   -1.1790 H   0  0  0  0  0  0  0  0  0  0  0  0
   -0.9970   -3.8160    2.1330 C   0  0  0  0  0  0  0  0  0  0  0  0
   -1.2790   -2.5560    1.3860 C   0  0  1  0  0  0  0  0  0  0  0  0
   -2.6570   -2.3380    1.2290 O   0  0  0  0  0  0  0  0  0  0  0  0
   -0.6640   -1.3240    2.0110 C   0  0  2  0  0  0  0  0  0  0  0  0
   -0.9270   -0.2140    1.0900 N   0  0  0  0  0  0  0  0  0  0  0  0
    0.8190   -1.5450    2.1240 C   0  0  0  0  0  0  0  0  0  0  0  0
    1.2860   -2.4490    2.8610 O   0  0  0  0  0  0  0  0  0  0  0  0
   -0.7660   -3.6680    3.1980 H   0  0  0  0  0  0  0  0  0  0  0  0
   -0.1900   -4.4270    1.6380 H   0  0  0  0  0  0  0  0  0  0  0  0
   -1.9150   -4.4650    2.0290 H   0  0  0  0  0  0  0  0  0  0  0  0
   -0.8380   -2.6490    0.3750 H   0  0  0  0  0  0  0  0  0  0  0  0
   -3.0430   -2.9100    0.5080 H   0  0  0  0  0  0  0  0  0  0  0  0
   -1.0840   -1.1520    3.0020 H   0  0  0  0  0  0  0  0  0  0  0  0
   -0.5630   -0.2910    0.1160 H   0  0  0  0  0  0  0  0  0  0  0  0
    1.5220   -5.8290   -2.3560 O   0  0  0  0  0  0  0  0  0  0  0  0
    2.0700   -4.6830   -1.7480 C   0  0  0  0  0  0  0  0  0  0  0  0
    3.1970   -4.7720   -0.9570 C   0  0  0  0  0  0  0  0  0  0  0  0
    3.7320   -3.6430   -0.3620 C   0  0  0  0  0  0  0  0  0  0  0  0
    3.1770   -2.3900   -0.5240 C   0  0  0  0  0  0  0  0  0  0  0  0
    3.7600   -1.1870    0.1220 C   0  0  0  0  0  0  0  0  0  0  0  0
    3.1820   -0.9360    1.4970 C   0  0  2  0  0  0  0  0  0  0  0  0
    1.7390   -0.7340    1.3980 N   0  0  0  0  0  0  0  0  0  0  0  0
    3.7680    0.3040    2.0570 C   0  0  0  0  0  0  0  0  0  0  0  0
    3.0390    1.2820    2.3530 O   0  0  0  0  0  0  0  0  0  0  0  0
    2.0490   -2.3160   -1.3170 C   0  0  0  0  0  0  0  0  0  0  0  0
    1.5060   -3.4420   -1.9190 C   0  0  0  0  0  0  0  0  0  0  0  0
    5.1360    0.4520    2.2820 O   0  0  0  0  0  0  0  0  0  0  0  0
    1.9810   -6.1230   -3.2130 H   0  0  0  0  0  0  0  0  0  0  0  0
    3.6280   -5.7590   -0.8350 H   0  0  0  0  0  0  0  0  0  0  0  0
    4.6190   -3.7170    0.2600 H   0  0  0  0  0  0  0  0  0  0  0  0
    4.8630   -1.2510    0.2040 H   0  0  0  0  0  0  0  0  0  0  0  0
    3.5470   -0.2580   -0.4710 H   0  0  0  0  0  0  0  0  0  0  0  0
    3.4150   -1.7530    2.1810 H   0  0  0  0  0  0  0  0  0  0  0  0
    1.3340    0.0190    0.7870 H   0  0  0  0  0  0  0  0  0  0  0  0
    1.5920   -1.3450   -1.4620 H   0  0  0  0  0  0  0  0  0  0  0  0
    0.6110   -3.3760   -2.5470 H   0  0  0  0  0  0  0  0  0  0  0  0
  1  2  1  0  0  0  0
  2 12  1  0  0  0  0
  2 13  1  0  0  0  0
  2  3  1  0  0  0  0
  3 14  1  1  0  0  0
  4 15  1  0  0  0  0
  4  3  1  0  0  0  0
  5  3  1  0  0  0  0
  5 18  1  1  0  0  0
  5  7  1  0  0  0  0
  6  5  1  0  0  0  0
  7  8  2  0  0  0  0
  9  1  1  0  0  0  0
 10  1  1  0  0  0  0
 11  1  1  0  0  0  0
 16  4  1  0  0  0  0
 17  4  1  0  0  0  0
 19  6  1  0  0  0  0
 20  6  1  0  0  0  0
 21 28  1  0  0  0  0
 22 31  1  6  0  0  0
 22 24  1  0  0  0  0
 22 21  1  0  0  0  0
 23 22  1  0  0  0  0
 24 26  1  0  0  0  0
 24 33  1  1  0  0  0
 25  7  1  0  0  0  0
 25 24  1  0  0  0  0
 26 27  2  0  0  0  0
 29 21  1  0  0  0  0
 30 21  1  0  0  0  0
 32 23  1  0  0  0  0
 34 25  1  0  0  0  0
 35 36  1  0  0  0  0
 36 37  1  0  0  0  0
 37 49  1  0  0  0  0
 37 38  2  0  0  0  0
 38 50  1  0  0  0  0
 39 38  1  0  0  0  0
 39 40  1  0  0  0  0
 40 51  1  0  0  0  0
 40 41  1  0  0  0  0
 41 43  1  0  0  0  0
 41 53  1  1  0  0  0
 42 41  1  0  0  0  0
 42 26  1  0  0  0  0
 43 47  2  0  0  0  0
 43 44  1  0  0  0  0
 45 39  2  0  0  0  0
 46 36  2  0  0  0  0
 46 45  1  0  0  0  0
 48 35  1  0  0  0  0
 52 40  1  0  0  0  0
 54 42  1  0  0  0  0
 55 45  1  0  0  0  0
 56 46  1  0  0  0  0
M  END
$$$$
