IVC.pdb
 OpenBabel07022418433D

 48 47  0  0  1  0  0  0  0  0999 V2000
    3.7740   -0.5460    0.9490 C   0  0  0  0  0  0  0  0  0  0  0  0
    3.8650   -1.3700    2.2060 C   0  0  0  0  0  0  0  0  0  0  0  0
    2.7680   -1.0590    3.1500 C   0  0  2  0  0  0  0  0  0  0  0  0
    2.9410   -1.9390    4.3910 C   0  0  0  0  0  0  0  0  0  0  0  0
    1.3760   -1.1410    2.6470 C   0  0  2  0  0  0  0  0  0  0  0  0
    1.0290   -2.4640    2.1380 N   0  0  0  0  0  0  0  0  0  0  0  0
    0.9410   -0.0450    1.7490 C   0  0  0  0  0  0  0  0  0  0  0  0
    1.2050    1.1550    2.0560 O   0  0  0  0  0  0  0  0  0  0  0  0
    3.7010    0.5370    1.1640 H   0  0  0  0  0  0  0  0  0  0  0  0
    4.7190   -0.6350    0.3370 H   0  0  0  0  0  0  0  0  0  0  0  0
    2.9310   -0.8420    0.3050 H   0  0  0  0  0  0  0  0  0  0  0  0
    3.9690   -2.4530    1.9760 H   0  0  0  0  0  0  0  0  0  0  0  0
    4.8600   -1.1040    2.6740 H   0  0  0  0  0  0  0  0  0  0  0  0
    2.8950   -0.0090    3.5550 H   0  0  0  0  0  0  0  0  0  0  0  0
    2.2220   -1.6960    5.1730 H   0  0  0  0  0  0  0  0  0  0  0  0
    4.0030   -1.7940    4.7070 H   0  0  0  0  0  0  0  0  0  0  0  0
    2.8620   -3.0030    4.0880 H   0  0  0  0  0  0  0  0  0  0  0  0
    0.7270   -1.0230    3.5980 H   0  0  0  0  0  0  0  0  0  0  0  0
    1.1680   -3.1190    2.9570 H   0  0  0  0  0  0  0  0  0  0  0  0
    0.0020   -2.4890    1.9490 H   0  0  0  0  0  0  0  0  0  0  0  0
    1.8150    0.6980   -1.8470 C   0  0  0  0  0  0  0  0  0  0  0  0
    0.3100    0.6390   -1.7570 C   0  0  0  0  0  0  0  0  0  0  0  0
   -0.2050   -0.6360   -2.4360 C   0  0  0  0  0  0  0  0  0  0  0  0
   -0.2230    0.7560   -0.3570 C   0  0  2  0  0  0  0  0  0  0  0  0
    0.2270   -0.2820    0.5400 N   0  0  0  0  0  0  0  0  0  0  0  0
   -1.6980    0.7420   -0.4360 C   0  0  0  0  0  0  0  0  0  0  0  0
   -2.2790    1.5660   -1.1640 O   0  0  0  0  0  0  0  0  0  0  0  0
    2.1580    1.3860   -2.6670 H   0  0  0  0  0  0  0  0  0  0  0  0
    2.2140   -0.3030   -2.1190 H   0  0  0  0  0  0  0  0  0  0  0  0
    2.2730    1.1110   -0.9220 H   0  0  0  0  0  0  0  0  0  0  0  0
   -0.0730    1.4800   -2.3710 H   0  0  0  0  0  0  0  0  0  0  0  0
   -0.7740   -1.2520   -1.6970 H   0  0  0  0  0  0  0  0  0  0  0  0
   -0.9100   -0.4040   -3.2600 H   0  0  0  0  0  0  0  0  0  0  0  0
    0.6320   -1.2110   -2.8940 H   0  0  0  0  0  0  0  0  0  0  0  0
    0.1080    1.7400    0.0480 H   0  0  0  0  0  0  0  0  0  0  0  0
    0.0280   -1.2770    0.3090 H   0  0  0  0  0  0  0  0  0  0  0  0
   -2.4400   -0.1960    0.3050 N   0  0  0  0  0  0  0  0  0  0  0  0
   -3.8880   -0.2760    0.2830 C   0  0  1  0  0  0  0  0  0  0  0  0
   -4.3500   -1.5810   -0.3170 C   0  0  0  0  0  0  0  0  0  0  0  0
   -3.7330   -1.7070   -2.0140 S   0  0  0  0  0  0  0  0  0  0  0  0
   -4.4640   -0.0860    1.6340 C   0  0  0  0  0  0  0  0  0  0  0  0
   -3.7050    0.1130    2.6050 O   0  0  0  0  0  0  0  0  0  0  0  0
   -5.8240   -0.1240    1.8420 O   0  0  0  0  0  0  0  0  0  0  0  0
   -1.8900   -0.8740    0.9090 H   0  0  0  0  0  0  0  0  0  0  0  0
   -4.2300    0.5350   -0.4220 H   0  0  0  0  0  0  0  0  0  0  0  0
   -4.0260   -2.4550    0.2690 H   0  0  0  0  0  0  0  0  0  0  0  0
   -5.4570   -1.5630   -0.3710 H   0  0  0  0  0  0  0  0  0  0  0  0
   -4.7020   -1.3120   -2.9540 H   0  0  0  0  0  0  0  0  0  0  0  0
  1  9  1  0  0  0  0
  1  2  1  0  0  0  0
  2 13  1  0  0  0  0
  2  3  1  0  0  0  0
  3 14  1  1  0  0  0
  3  4  1  0  0  0  0
  4 16  1  0  0  0  0
  4 15  1  0  0  0  0
  5  3  1  0  0  0  0
  5 18  1  1  0  0  0
  6  5  1  0  0  0  0
  6 19  1  0  0  0  0
  7  8  2  0  0  0  0
  7  5  1  0  0  0  0
 10  1  1  0  0  0  0
 11  1  1  0  0  0  0
 12  2  1  0  0  0  0
 17  4  1  0  0  0  0
 20  6  1  0  0  0  0
 21 22  1  0  0  0  0
 21 30  1  0  0  0  0
 22 24  1  0  0  0  0
 23 22  1  0  0  0  0
 23 32  1  0  0  0  0
 24 35  1  1  0  0  0
 24 25  1  0  0  0  0
 25  7  1  0  0  0  0
 26 24  1  0  0  0  0
 26 37  1  0  0  0  0
 27 26  2  0  0  0  0
 28 21  1  0  0  0  0
 29 21  1  0  0  0  0
 31 22  1  0  0  0  0
 33 23  1  0  0  0  0
 34 23  1  0  0  0  0
 36 25  1  0  0  0  0
 37 44  1  0  0  0  0
 38 45  1  6  0  0  0
 38 37  1  0  0  0  0
 38 41  1  0  0  0  0
 39 46  1  0  0  0  0
 39 38  1  0  0  0  0
 40 39  1  0  0  0  0
 41 43  2  0  0  0  0
 41 42  1  0  0  0  0
 47 39  1  0  0  0  0
 48 40  1  0  0  0  0
M  END
$$$$
