IVF.pdb
 OpenBabel07022418443D

 57 57  0  0  1  0  0  0  0  0999 V2000
    4.6480    1.5260    3.0090 C   0  0  0  0  0  0  0  0  0  0  0  0
    3.1940    1.2250    2.8370 C   0  0  0  0  0  0  0  0  0  0  0  0
    2.4750    2.3280    2.0640 C   0  0  2  0  0  0  0  0  0  0  0  0
    2.6400    3.5960    2.8580 C   0  0  0  0  0  0  0  0  0  0  0  0
    1.0350    1.9840    1.8280 C   0  0  2  0  0  0  0  0  0  0  0  0
    0.3490    1.8010    3.0930 N   0  0  0  0  0  0  0  0  0  0  0  0
    0.9610    0.7460    1.0120 C   0  0  0  0  0  0  0  0  0  0  0  0
    1.5150    0.7700   -0.1120 O   0  0  0  0  0  0  0  0  0  0  0  0
    4.7520    2.5010    3.5380 H   0  0  0  0  0  0  0  0  0  0  0  0
    5.1850    1.6300    2.0410 H   0  0  0  0  0  0  0  0  0  0  0  0
    5.1410    0.7130    3.5570 H   0  0  0  0  0  0  0  0  0  0  0  0
    3.0830    0.2850    2.2720 H   0  0  0  0  0  0  0  0  0  0  0  0
    2.7470    1.0640    3.8290 H   0  0  0  0  0  0  0  0  0  0  0  0
    3.0010    2.4520    1.0980 H   0  0  0  0  0  0  0  0  0  0  0  0
    2.5720    3.4150    3.9570 H   0  0  0  0  0  0  0  0  0  0  0  0
    1.9360    4.3910    2.5430 H   0  0  0  0  0  0  0  0  0  0  0  0
    3.6620    3.9840    2.6610 H   0  0  0  0  0  0  0  0  0  0  0  0
    0.5680    2.8500    1.3190 H   0  0  0  0  0  0  0  0  0  0  0  0
   -0.6580    2.0480    2.9260 H   0  0  0  0  0  0  0  0  0  0  0  0
    0.7860    2.3740    3.8450 H   0  0  0  0  0  0  0  0  0  0  0  0
    0.4830   -3.2000    2.4940 C   0  0  0  0  0  0  0  0  0  0  0  0
    1.0460   -2.7350    1.1950 C   0  0  0  0  0  0  0  0  0  0  0  0
    1.2960   -3.8930    0.2770 C   0  0  0  0  0  0  0  0  0  0  0  0
    0.2970   -1.5990    0.5460 C   0  0  2  0  0  0  0  0  0  0  0  0
    0.3120   -0.4300    1.4320 N   0  0  0  0  0  0  0  0  0  0  0  0
   -1.0980   -1.8990    0.1950 C   0  0  0  0  0  0  0  0  0  0  0  0
   -2.0100   -1.2110    0.7710 O   0  0  0  0  0  0  0  0  0  0  0  0
    1.2630   -3.3250    3.2940 H   0  0  0  0  0  0  0  0  0  0  0  0
   -0.3440   -2.5450    2.8780 H   0  0  0  0  0  0  0  0  0  0  0  0
    0.0140   -4.2210    2.4090 H   0  0  0  0  0  0  0  0  0  0  0  0
    2.0830   -2.3250    1.4460 H   0  0  0  0  0  0  0  0  0  0  0  0
    2.2610   -4.4180    0.5310 H   0  0  0  0  0  0  0  0  0  0  0  0
    1.4350   -3.5900   -0.7810 H   0  0  0  0  0  0  0  0  0  0  0  0
    0.4650   -4.6530    0.2830 H   0  0  0  0  0  0  0  0  0  0  0  0
    0.8420   -1.3190   -0.3680 H   0  0  0  0  0  0  0  0  0  0  0  0
   -0.1490   -0.4480    2.3700 H   0  0  0  0  0  0  0  0  0  0  0  0
   -1.5430   -2.8650   -0.7150 N   0  0  0  0  0  0  0  0  0  0  0  0
   -2.9670   -3.0890   -0.9940 C   0  0  1  0  0  0  0  0  0  0  0  0
   -3.2350   -2.7740   -2.4470 C   0  0  0  0  0  0  0  0  0  0  0  0
   -2.8850   -1.3490   -2.7140 C   0  0  0  0  0  0  0  0  0  0  0  0
   -3.8450   -0.3850   -2.5560 C   0  0  0  0  0  0  0  0  0  0  0  0
   -3.5300    0.9300   -2.8010 C   0  0  0  0  0  0  0  0  0  0  0  0
   -2.2670    1.3330   -3.2060 C   0  0  0  0  0  0  0  0  0  0  0  0
   -1.3090    0.3580   -3.3620 C   0  0  0  0  0  0  0  0  0  0  0  0
   -1.6220   -0.9600   -3.1180 C   0  0  0  0  0  0  0  0  0  0  0  0
   -3.3460   -4.4950   -0.7080 C   0  0  0  0  0  0  0  0  0  0  0  0
   -4.5390   -4.8430   -0.8990 O   0  0  0  0  0  0  0  0  0  0  0  0
   -2.4700   -5.4530   -0.2430 O   0  0  0  0  0  0  0  0  0  0  0  0
   -0.8610   -3.4470   -1.2280 H   0  0  0  0  0  0  0  0  0  0  0  0
   -3.5890   -2.4100   -0.3950 H   0  0  0  0  0  0  0  0  0  0  0  0
   -4.2540   -3.0360   -2.7310 H   0  0  0  0  0  0  0  0  0  0  0  0
   -2.5470   -3.3880   -3.0740 H   0  0  0  0  0  0  0  0  0  0  0  0
   -4.8450   -0.7030   -2.2350 H   0  0  0  0  0  0  0  0  0  0  0  0
   -4.2970    1.7020   -2.6750 H   0  0  0  0  0  0  0  0  0  0  0  0
   -2.0770    2.3830   -3.3840 H   0  0  0  0  0  0  0  0  0  0  0  0
   -0.3200    0.6580   -3.6780 H   0  0  0  0  0  0  0  0  0  0  0  0
   -0.8710   -1.7510   -3.2380 H   0  0  0  0  0  0  0  0  0  0  0  0
  1  9  1  0  0  0  0
  1 11  1  0  0  0  0
  2  1  1  0  0  0  0
  2 13  1  0  0  0  0
  3 14  1  6  0  0  0
  3  2  1  0  0  0  0
  3  4  1  0  0  0  0
  4 15  1  0  0  0  0
  5 18  1  6  0  0  0
  5  3  1  0  0  0  0
  5  6  1  0  0  0  0
  6 20  1  0  0  0  0
  7 25  1  0  0  0  0
  7  5  1  0  0  0  0
  8  7  2  0  0  0  0
 10  1  1  0  0  0  0
 12  2  1  0  0  0  0
 16  4  1  0  0  0  0
 17  4  1  0  0  0  0
 19  6  1  0  0  0  0
 21 29  1  0  0  0  0
 21 28  1  0  0  0  0
 22 31  1  0  0  0  0
 22 21  1  0  0  0  0
 23 34  1  0  0  0  0
 23 32  1  0  0  0  0
 23 22  1  0  0  0  0
 24 35  1  6  0  0  0
 24 22  1  0  0  0  0
 24 25  1  0  0  0  0
 25 36  1  0  0  0  0
 26 24  1  0  0  0  0
 26 27  2  0  0  0  0
 30 21  1  0  0  0  0
 33 23  1  0  0  0  0
 37 26  1  0  0  0  0
 38 37  1  0  0  0  0
 38 46  1  0  0  0  0
 38 50  1  1  0  0  0
 39 38  1  0  0  0  0
 40 41  1  0  0  0  0
 40 39  1  0  0  0  0
 41 53  1  0  0  0  0
 42 54  1  0  0  0  0
 42 41  2  0  0  0  0
 43 42  1  0  0  0  0
 44 43  2  0  0  0  0
 44 45  1  0  0  0  0
 45 40  2  0  0  0  0
 46 48  1  0  0  0  0
 47 46  2  0  0  0  0
 49 37  1  0  0  0  0
 51 39  1  0  0  0  0
 52 39  1  0  0  0  0
 55 43  1  0  0  0  0
 56 44  1  0  0  0  0
 57 45  1  0  0  0  0
M  END
$$$$
