IVG.pdb
 OpenBabel07022418433D

 44 43  0  0  1  0  0  0  0  0999 V2000
   -0.4670    1.4670   -2.6490 C   0  0  0  0  0  0  0  0  0  0  0  0
    0.3340    0.5410   -1.7370 C   0  0  0  0  0  0  0  0  0  0  0  0
    0.3990   -0.8210   -2.3700 C   0  0  2  0  0  0  0  0  0  0  0  0
   -1.0060   -1.3420   -2.5240 C   0  0  0  0  0  0  0  0  0  0  0  0
    1.2420   -1.7960   -1.5880 C   0  0  2  0  0  0  0  0  0  0  0  0
    1.2070   -3.0710   -2.3140 N   0  0  0  0  0  0  0  0  0  0  0  0
    0.7960   -2.0460   -0.2200 C   0  0  0  0  0  0  0  0  0  0  0  0
    0.1940   -3.1240    0.0650 O   0  0  0  0  0  0  0  0  0  0  0  0
    0.0110    2.4840   -2.6630 H   0  0  0  0  0  0  0  0  0  0  0  0
   -1.5170    1.5240   -2.3310 H   0  0  0  0  0  0  0  0  0  0  0  0
   -0.3920    1.0660   -3.6770 H   0  0  0  0  0  0  0  0  0  0  0  0
    1.3280    0.9890   -1.5980 H   0  0  0  0  0  0  0  0  0  0  0  0
   -0.2340    0.5100   -0.7730 H   0  0  0  0  0  0  0  0  0  0  0  0
    0.7910   -0.7450   -3.4350 H   0  0  0  0  0  0  0  0  0  0  0  0
   -1.4490   -1.5290   -1.5380 H   0  0  0  0  0  0  0  0  0  0  0  0
   -1.0260   -2.2580   -3.1540 H   0  0  0  0  0  0  0  0  0  0  0  0
   -1.6200   -0.5540   -3.0350 H   0  0  0  0  0  0  0  0  0  0  0  0
    2.2910   -1.4450   -1.6350 H   0  0  0  0  0  0  0  0  0  0  0  0
    1.2890   -2.8880   -3.3380 H   0  0  0  0  0  0  0  0  0  0  0  0
    0.3310   -3.6090   -2.0800 H   0  0  0  0  0  0  0  0  0  0  0  0
    2.6290   -0.4780    2.9710 C   0  0  0  0  0  0  0  0  0  0  0  0
    1.8080   -1.7490    2.9780 C   0  0  0  0  0  0  0  0  0  0  0  0
    1.4900   -2.2360    4.3550 C   0  0  0  0  0  0  0  0  0  0  0  0
    0.5340   -1.4640    2.1640 C   0  0  2  0  0  0  0  0  0  0  0  0
    1.0200   -1.1060    0.8310 N   0  0  0  0  0  0  0  0  0  0  0  0
   -0.1360   -0.3480    2.8460 C   0  0  0  0  0  0  0  0  0  0  0  0
   -0.6530   -0.5730    3.9800 O   0  0  0  0  0  0  0  0  0  0  0  0
    3.1500   -0.4440    1.9820 H   0  0  0  0  0  0  0  0  0  0  0  0
    1.9340    0.4000    3.0760 H   0  0  0  0  0  0  0  0  0  0  0  0
    3.4180   -0.4720    3.7470 H   0  0  0  0  0  0  0  0  0  0  0  0
    2.3530   -2.5340    2.4350 H   0  0  0  0  0  0  0  0  0  0  0  0
    2.2010   -3.0450    4.6290 H   0  0  0  0  0  0  0  0  0  0  0  0
    0.4600   -2.5710    4.4900 H   0  0  0  0  0  0  0  0  0  0  0  0
    1.6810   -1.3970    5.0790 H   0  0  0  0  0  0  0  0  0  0  0  0
   -0.0940   -2.3540    2.1530 H   0  0  0  0  0  0  0  0  0  0  0  0
    1.5110   -0.2010    0.6710 H   0  0  0  0  0  0  0  0  0  0  0  0
   -0.2630    0.9730    2.3590 N   0  0  0  0  0  0  0  0  0  0  0  0
   -0.9540    1.9900    3.1280 C   0  0  0  0  0  0  0  0  0  0  0  0
   -2.3480    1.5910    3.3500 C   0  0  0  0  0  0  0  0  0  0  0  0
   -2.7720    0.5060    2.8810 O   0  0  0  0  0  0  0  0  0  0  0  0
   -3.2450    2.3930    4.0820 O   0  0  0  0  0  0  0  0  0  0  0  0
    0.1620    1.1890    1.4360 H   0  0  0  0  0  0  0  0  0  0  0  0
   -0.4390    2.0980    4.0970 H   0  0  0  0  0  0  0  0  0  0  0  0
   -0.9100    2.9470    2.5700 H   0  0  0  0  0  0  0  0  0  0  0  0
  1 10  1  0  0  0  0
  1  2  1  0  0  0  0
  2 12  1  0  0  0  0
  2 13  1  0  0  0  0
  3 14  1  6  0  0  0
  3  2  1  0  0  0  0
  3  5  1  0  0  0  0
  4  3  1  0  0  0  0
  4 15  1  0  0  0  0
  5 18  1  1  0  0  0
  5  7  1  0  0  0  0
  6 20  1  0  0  0  0
  6  5  1  0  0  0  0
  7  8  2  0  0  0  0
  7 25  1  0  0  0  0
  9  1  1  0  0  0  0
 11  1  1  0  0  0  0
 16  4  1  0  0  0  0
 17  4  1  0  0  0  0
 19  6  1  0  0  0  0
 21 22  1  0  0  0  0
 21 29  1  0  0  0  0
 21 30  1  0  0  0  0
 22 23  1  0  0  0  0
 23 33  1  0  0  0  0
 23 32  1  0  0  0  0
 23 34  1  0  0  0  0
 24 35  1  6  0  0  0
 24 26  1  0  0  0  0
 24 22  1  0  0  0  0
 25 24  1  0  0  0  0
 26 27  2  0  0  0  0
 28 21  1  0  0  0  0
 31 22  1  0  0  0  0
 36 25  1  0  0  0  0
 37 26  1  0  0  0  0
 37 38  1  0  0  0  0
 38 39  1  0  0  0  0
 38 43  1  0  0  0  0
 39 41  1  0  0  0  0
 40 39  2  0  0  0  0
 42 37  1  0  0  0  0
 44 38  1  0  0  0  0
M  END
$$$$
