IVH.pdb
 OpenBabel07022418433D

 54 54  0  0  1  0  0  0  0  0999 V2000
    3.3430   -3.5950    3.8880 C   0  0  0  0  0  0  0  0  0  0  0  0
    3.0820   -3.6730    2.4070 C   0  0  0  0  0  0  0  0  0  0  0  0
    1.9820   -2.6700    2.0240 C   0  0  2  0  0  0  0  0  0  0  0  0
    1.8220   -2.8730    0.5080 C   0  0  0  0  0  0  0  0  0  0  0  0
    2.4620   -1.2710    2.2500 C   0  0  2  0  0  0  0  0  0  0  0  0
    2.8640   -1.1310    3.6890 N   0  0  0  0  0  0  0  0  0  0  0  0
    1.4600   -0.2130    2.0610 C   0  0  0  0  0  0  0  0  0  0  0  0
    1.1650    0.5430    3.0610 O   0  0  0  0  0  0  0  0  0  0  0  0
    3.6480   -4.6410    4.2010 H   0  0  0  0  0  0  0  0  0  0  0  0
    4.2570   -2.9970    4.0480 H   0  0  0  0  0  0  0  0  0  0  0  0
    2.4740   -3.3110    4.4860 H   0  0  0  0  0  0  0  0  0  0  0  0
    3.9980   -3.4580    1.8080 H   0  0  0  0  0  0  0  0  0  0  0  0
    2.7160   -4.6660    2.0820 H   0  0  0  0  0  0  0  0  0  0  0  0
    1.0900   -2.9410    2.5930 H   0  0  0  0  0  0  0  0  0  0  0  0
    0.7610   -2.7750    0.2530 H   0  0  0  0  0  0  0  0  0  0  0  0
    2.4530   -2.1630   -0.0480 H   0  0  0  0  0  0  0  0  0  0  0  0
    2.1860   -3.9030    0.2290 H   0  0  0  0  0  0  0  0  0  0  0  0
    3.3640   -1.0670    1.6740 H   0  0  0  0  0  0  0  0  0  0  0  0
    3.5380   -0.3600    3.7930 H   0  0  0  0  0  0  0  0  0  0  0  0
    2.0130   -0.9070    4.2440 H   0  0  0  0  0  0  0  0  0  0  0  0
    1.6410    2.6490   -0.0130 C   0  0  0  0  0  0  0  0  0  0  0  0
    0.2440    2.1420   -0.2740 C   0  0  0  0  0  0  0  0  0  0  0  0
   -0.7340    3.3050   -0.4030 C   0  0  0  0  0  0  0  0  0  0  0  0
   -0.2120    1.2200    0.8530 C   0  0  2  0  0  0  0  0  0  0  0  0
    0.7460    0.1090    0.8800 N   0  0  0  0  0  0  0  0  0  0  0  0
   -1.5520    0.6910    0.5550 C   0  0  0  0  0  0  0  0  0  0  0  0
   -2.5370    1.4940    0.4570 O   0  0  0  0  0  0  0  0  0  0  0  0
    2.0660    2.2440    0.9340 H   0  0  0  0  0  0  0  0  0  0  0  0
    1.5890    3.7610    0.1500 H   0  0  0  0  0  0  0  0  0  0  0  0
    2.3230    2.4810   -0.8620 H   0  0  0  0  0  0  0  0  0  0  0  0
    0.2700    1.5210   -1.1890 H   0  0  0  0  0  0  0  0  0  0  0  0
   -1.5740    2.9990   -1.0610 H   0  0  0  0  0  0  0  0  0  0  0  0
   -0.1840    4.1770   -0.8370 H   0  0  0  0  0  0  0  0  0  0  0  0
   -1.1310    3.5230    0.6030 H   0  0  0  0  0  0  0  0  0  0  0  0
   -0.2080    1.7410    1.8370 H   0  0  0  0  0  0  0  0  0  0  0  0
    0.9030   -0.4360    0.0340 H   0  0  0  0  0  0  0  0  0  0  0  0
   -1.8300   -0.6720    0.3660 N   0  0  0  0  0  0  0  0  0  0  0  0
   -3.1620   -1.1750    0.0710 C   0  0  1  0  0  0  0  0  0  0  0  0
   -3.1530   -1.8930   -1.2480 C   0  0  0  0  0  0  0  0  0  0  0  0
   -2.7330   -0.9550   -2.3210 C   0  0  0  0  0  0  0  0  0  0  0  0
   -3.5540   -0.1420   -3.0890 C   0  0  0  0  0  0  0  0  0  0  0  0
   -2.7990    0.5590   -3.9530 N   0  0  0  0  0  0  0  0  0  0  0  0
   -1.5140    0.2160   -3.7600 C   0  0  0  0  0  0  0  0  0  0  0  0
   -1.4910   -0.7110   -2.7590 N   0  0  0  0  0  0  0  0  0  0  0  0
   -3.6240   -2.1030    1.1510 C   0  0  0  0  0  0  0  0  0  0  0  0
   -2.8780   -2.3450    2.1370 O   0  0  0  0  0  0  0  0  0  0  0  0
   -4.8640   -2.7120    1.0970 O   0  0  0  0  0  0  0  0  0  0  0  0
   -1.0460   -1.3450    0.4440 H   0  0  0  0  0  0  0  0  0  0  0  0
   -3.8470   -0.3040    0.0330 H   0  0  0  0  0  0  0  0  0  0  0  0
   -2.3460   -2.6800   -1.2060 H   0  0  0  0  0  0  0  0  0  0  0  0
   -4.0830   -2.4120   -1.4730 H   0  0  0  0  0  0  0  0  0  0  0  0
   -4.6210   -0.0940   -2.9930 H   0  0  0  0  0  0  0  0  0  0  0  0
   -3.0990    1.2560   -4.6670 H   0  0  0  0  0  0  0  0  0  0  0  0
   -0.6260    0.5700   -4.2670 H   0  0  0  0  0  0  0  0  0  0  0  0
  1 10  1  0  0  0  0
  1  9  1  0  0  0  0
  1 11  1  0  0  0  0
  2  1  1  0  0  0  0
  3  5  1  0  0  0  0
  3  2  1  0  0  0  0
  3 14  1  1  0  0  0
  4  3  1  0  0  0  0
  5 18  1  6  0  0  0
  5  6  1  0  0  0  0
  6 19  1  0  0  0  0
  6 20  1  0  0  0  0
  7  5  1  0  0  0  0
  7  8  2  0  0  0  0
 12  2  1  0  0  0  0
 13  2  1  0  0  0  0
 15  4  1  0  0  0  0
 16  4  1  0  0  0  0
 17  4  1  0  0  0  0
 21 29  1  0  0  0  0
 21 28  1  0  0  0  0
 22 21  1  0  0  0  0
 22 24  1  0  0  0  0
 23 22  1  0  0  0  0
 23 34  1  0  0  0  0
 24 25  1  0  0  0  0
 24 35  1  1  0  0  0
 25  7  1  0  0  0  0
 26 24  1  0  0  0  0
 27 26  2  0  0  0  0
 30 21  1  0  0  0  0
 31 22  1  0  0  0  0
 32 23  1  0  0  0  0
 33 23  1  0  0  0  0
 36 25  1  0  0  0  0
 37 48  1  0  0  0  0
 37 26  1  0  0  0  0
 38 49  1  6  0  0  0
 38 37  1  0  0  0  0
 38 45  1  0  0  0  0
 39 50  1  0  0  0  0
 39 38  1  0  0  0  0
 40 39  1  0  0  0  0
 41 52  1  0  0  0  0
 41 40  2  0  0  0  0
 42 43  1  0  0  0  0
 42 41  1  0  0  0  0
 43 44  2  0  0  0  0
 44 40  1  0  0  0  0
 45 46  1  0  0  0  0
 47 45  2  0  0  0  0
 51 39  1  0  0  0  0
 53 42  1  0  0  0  0
 54 43  1  0  0  0  0
M  END
$$$$
