IVL.pdb
 OpenBabel07022418433D

 56 55  0  0  1  0  0  0  0  0999 V2000
    4.7550   -5.0070    1.8580 C   0  0  0  0  0  0  0  0  0  0  0  0
    3.3860   -4.3320    1.7500 C   0  0  0  0  0  0  0  0  0  0  0  0
    3.1780   -3.8420    0.3400 C   0  0  2  0  0  0  0  0  0  0  0  0
    4.2390   -2.8530   -0.0300 C   0  0  0  0  0  0  0  0  0  0  0  0
    1.7760   -3.3620    0.1260 C   0  0  2  0  0  0  0  0  0  0  0  0
    1.7150   -2.9190   -1.2770 N   0  0  0  0  0  0  0  0  0  0  0  0
    1.3370   -2.3050    1.0400 C   0  0  0  0  0  0  0  0  0  0  0  0
    1.3110   -2.5220    2.2770 O   0  0  0  0  0  0  0  0  0  0  0  0
    4.7630   -5.5400    2.8370 H   0  0  0  0  0  0  0  0  0  0  0  0
    4.8320   -5.7510    1.0480 H   0  0  0  0  0  0  0  0  0  0  0  0
    5.5590   -4.2490    1.7800 H   0  0  0  0  0  0  0  0  0  0  0  0
    3.4150   -3.4960    2.4770 H   0  0  0  0  0  0  0  0  0  0  0  0
    2.6390   -5.1060    2.0190 H   0  0  0  0  0  0  0  0  0  0  0  0
    3.3290   -4.7250   -0.3500 H   0  0  0  0  0  0  0  0  0  0  0  0
    5.0260   -3.2790   -0.6850 H   0  0  0  0  0  0  0  0  0  0  0  0
    3.8140   -1.9480   -0.4920 H   0  0  0  0  0  0  0  0  0  0  0  0
    4.7580   -2.5180    0.8950 H   0  0  0  0  0  0  0  0  0  0  0  0
    1.1140   -4.2710    0.1650 H   0  0  0  0  0  0  0  0  0  0  0  0
    2.1490   -3.7000   -1.8220 H   0  0  0  0  0  0  0  0  0  0  0  0
    0.7340   -2.7670   -1.5830 H   0  0  0  0  0  0  0  0  0  0  0  0
    0.7340    2.3130    2.3600 C   0  0  0  0  0  0  0  0  0  0  0  0
    1.2710    1.2980    1.3760 C   0  0  0  0  0  0  0  0  0  0  0  0
    2.7360    1.1410    1.6300 C   0  0  0  0  0  0  0  0  0  0  0  0
    0.4930    0.0340    1.5160 C   0  0  2  0  0  0  0  0  0  0  0  0
    0.9260   -1.0100    0.6190 N   0  0  0  0  0  0  0  0  0  0  0  0
   -0.9510    0.3750    1.2360 C   0  0  0  0  0  0  0  0  0  0  0  0
   -1.5140    1.2680    1.9220 O   0  0  0  0  0  0  0  0  0  0  0  0
    0.3040    1.8350    3.2730 H   0  0  0  0  0  0  0  0  0  0  0  0
    0.0210    3.0270    1.8950 H   0  0  0  0  0  0  0  0  0  0  0  0
    1.5650    2.9640    2.7580 H   0  0  0  0  0  0  0  0  0  0  0  0
    1.1530    1.7210    0.3380 H   0  0  0  0  0  0  0  0  0  0  0  0
    2.9170    0.6740    2.6180 H   0  0  0  0  0  0  0  0  0  0  0  0
    3.2240    0.6180    0.7990 H   0  0  0  0  0  0  0  0  0  0  0  0
    3.1750    2.1680    1.6880 H   0  0  0  0  0  0  0  0  0  0  0  0
    0.5170   -0.2860    2.5770 H   0  0  0  0  0  0  0  0  0  0  0  0
    0.9400   -0.8080   -0.4030 H   0  0  0  0  0  0  0  0  0  0  0  0
   -5.1500    2.1560   -0.5260 C   0  0  0  0  0  0  0  0  0  0  0  0
   -4.7020    1.1200   -1.5500 C   0  0  0  0  0  0  0  0  0  0  0  0
   -4.8140    1.8210   -2.9230 C   0  0  0  0  0  0  0  0  0  0  0  0
   -3.2760    0.7100   -1.3310 C   0  0  0  0  0  0  0  0  0  0  0  0
   -3.1010    0.1270    0.0320 C   0  0  2  0  0  0  0  0  0  0  0  0
   -1.6940   -0.2640    0.2420 N   0  0  0  0  0  0  0  0  0  0  0  0
   -3.9000   -1.0840    0.2510 C   0  0  0  0  0  0  0  0  0  0  0  0
   -3.3360   -2.1710    0.4910 O   0  0  0  0  0  0  0  0  0  0  0  0
   -5.2730   -1.0440    0.1990 O   0  0  0  0  0  0  0  0  0  0  0  0
   -5.3640    1.6940    0.4560 H   0  0  0  0  0  0  0  0  0  0  0  0
   -4.3800    2.9630   -0.4290 H   0  0  0  0  0  0  0  0  0  0  0  0
   -6.0770    2.6530   -0.8750 H   0  0  0  0  0  0  0  0  0  0  0  0
   -5.4370    0.3270   -1.5800 H   0  0  0  0  0  0  0  0  0  0  0  0
   -4.0630    2.6290   -2.9520 H   0  0  0  0  0  0  0  0  0  0  0  0
   -4.7310    1.0850   -3.7240 H   0  0  0  0  0  0  0  0  0  0  0  0
   -5.8460    2.2570   -2.9590 H   0  0  0  0  0  0  0  0  0  0  0  0
   -2.9960   -0.0360   -2.1250 H   0  0  0  0  0  0  0  0  0  0  0  0
   -2.6330    1.6270   -1.4340 H   0  0  0  0  0  0  0  0  0  0  0  0
   -3.3670    0.9420    0.7660 H   0  0  0  0  0  0  0  0  0  0  0  0
   -1.3060   -0.9980   -0.3540 H   0  0  0  0  0  0  0  0  0  0  0  0
  1  9  1  0  0  0  0
  2  1  1  0  0  0  0
  2 13  1  0  0  0  0
  2 12  1  0  0  0  0
  3 14  1  6  0  0  0
  3  2  1  0  0  0  0
  4  3  1  0  0  0  0
  4 17  1  0  0  0  0
  5 18  1  1  0  0  0
  5  3  1  0  0  0  0
  5  7  1  0  0  0  0
  6  5  1  0  0  0  0
  7  8  2  0  0  0  0
 10  1  1  0  0  0  0
 11  1  1  0  0  0  0
 15  4  1  0  0  0  0
 16  4  1  0  0  0  0
 19  6  1  0  0  0  0
 20  6  1  0  0  0  0
 21 30  1  0  0  0  0
 21 28  1  0  0  0  0
 22 24  1  0  0  0  0
 22 23  1  0  0  0  0
 22 21  1  0  0  0  0
 23 34  1  0  0  0  0
 23 32  1  0  0  0  0
 24 35  1  1  0  0  0
 25  7  1  0  0  0  0
 25 24  1  0  0  0  0
 26 24  1  0  0  0  0
 26 27  2  0  0  0  0
 29 21  1  0  0  0  0
 31 22  1  0  0  0  0
 33 23  1  0  0  0  0
 36 25  1  0  0  0  0
 37 47  1  0  0  0  0
 37 46  1  0  0  0  0
 38 40  1  0  0  0  0
 38 37  1  0  0  0  0
 39 38  1  0  0  0  0
 40 41  1  0  0  0  0
 41 42  1  0  0  0  0
 41 43  1  0  0  0  0
 41 55  1  1  0  0  0
 42 26  1  0  0  0  0
 43 44  1  0  0  0  0
 45 43  2  0  0  0  0
 48 37  1  0  0  0  0
 49 38  1  0  0  0  0
 50 39  1  0  0  0  0
 51 39  1  0  0  0  0
 52 39  1  0  0  0  0
 53 40  1  0  0  0  0
 54 40  1  0  0  0  0
 56 42  1  0  0  0  0
M  END
$$$$
