IVM.pdb
 OpenBabel07022418443D

 54 53  0  0  1  0  0  0  0  0999 V2000
   -0.1730   -4.8270    4.5980 C   0  0  0  0  0  0  0  0  0  0  0  0
   -1.2190   -4.9480    3.5170 C   0  0  0  0  0  0  0  0  0  0  0  0
   -1.0950   -3.8370    2.4920 C   0  0  2  0  0  0  0  0  0  0  0  0
    0.2520   -3.9240    1.8720 C   0  0  0  0  0  0  0  0  0  0  0  0
   -1.4340   -2.5440    3.1710 C   0  0  2  0  0  0  0  0  0  0  0  0
   -2.8220   -2.7210    3.6420 N   0  0  0  0  0  0  0  0  0  0  0  0
   -1.3610   -1.3670    2.3050 C   0  0  0  0  0  0  0  0  0  0  0  0
   -2.4130   -0.7500    2.0100 O   0  0  0  0  0  0  0  0  0  0  0  0
    0.4100   -3.9150    4.4720 H   0  0  0  0  0  0  0  0  0  0  0  0
   -0.6920   -4.7920    5.5820 H   0  0  0  0  0  0  0  0  0  0  0  0
    0.5340   -5.6900    4.5600 H   0  0  0  0  0  0  0  0  0  0  0  0
   -2.2410   -5.0020    3.9500 H   0  0  0  0  0  0  0  0  0  0  0  0
   -1.0630   -5.9140    2.9950 H   0  0  0  0  0  0  0  0  0  0  0  0
   -1.8530   -4.0160    1.7030 H   0  0  0  0  0  0  0  0  0  0  0  0
    0.3960   -5.0160    1.6020 H   0  0  0  0  0  0  0  0  0  0  0  0
    0.3230   -3.4140    0.8860 H   0  0  0  0  0  0  0  0  0  0  0  0
    1.0880   -3.6890    2.5620 H   0  0  0  0  0  0  0  0  0  0  0  0
   -0.8570   -2.3510    4.0920 H   0  0  0  0  0  0  0  0  0  0  0  0
   -3.4160   -3.1700    2.9350 H   0  0  0  0  0  0  0  0  0  0  0  0
   -3.2300   -1.7780    3.8370 H   0  0  0  0  0  0  0  0  0  0  0  0
   -0.1820    1.7410    2.8530 C   0  0  0  0  0  0  0  0  0  0  0  0
    0.6950    1.4270    1.6350 C   0  0  0  0  0  0  0  0  0  0  0  0
    2.0820    1.0190    2.0680 C   0  0  0  0  0  0  0  0  0  0  0  0
   -0.0260    0.2830    0.9080 C   0  0  2  0  0  0  0  0  0  0  0  0
   -0.1510   -0.8660    1.7650 N   0  0  0  0  0  0  0  0  0  0  0  0
    0.6510    0.0560   -0.3470 C   0  0  0  0  0  0  0  0  0  0  0  0
    1.1010   -1.0640   -0.6370 O   0  0  0  0  0  0  0  0  0  0  0  0
    0.2910    2.6290    3.3340 H   0  0  0  0  0  0  0  0  0  0  0  0
   -1.2160    1.9100    2.5390 H   0  0  0  0  0  0  0  0  0  0  0  0
   -0.1550    0.8430    3.4950 H   0  0  0  0  0  0  0  0  0  0  0  0
    0.6880    2.2980    0.9520 H   0  0  0  0  0  0  0  0  0  0  0  0
    2.0210    0.8020    3.1700 H   0  0  0  0  0  0  0  0  0  0  0  0
    2.8250    1.8330    1.9100 H   0  0  0  0  0  0  0  0  0  0  0  0
    2.4010    0.0620    1.6060 H   0  0  0  0  0  0  0  0  0  0  0  0
   -1.0600    0.6830    0.7380 H   0  0  0  0  0  0  0  0  0  0  0  0
    0.7730   -1.3450    1.9840 H   0  0  0  0  0  0  0  0  0  0  0  0
   -2.4340    1.9690   -5.1170 C   0  0  0  0  0  0  0  0  0  0  0  0
   -1.5440    0.4080   -5.1850 S   0  0  0  0  0  0  0  0  0  0  0  0
   -0.4980    0.1570   -3.7260 C   0  0  0  0  0  0  0  0  0  0  0  0
    0.6080    1.1990   -3.7350 C   0  0  0  0  0  0  0  0  0  0  0  0
    1.4690    0.9920   -2.5450 C   0  0  2  0  0  0  0  0  0  0  0  0
    0.8140    1.1030   -1.2720 N   0  0  0  0  0  0  0  0  0  0  0  0
    2.7300    1.7720   -2.5450 C   0  0  0  0  0  0  0  0  0  0  0  0
    3.4920    1.8380   -3.5450 O   0  0  0  0  0  0  0  0  0  0  0  0
    3.1070    2.4680   -1.4040 O   0  0  0  0  0  0  0  0  0  0  0  0
   -3.3380    1.8860   -5.7730 H   0  0  0  0  0  0  0  0  0  0  0  0
   -2.8140    2.1460   -4.0920 H   0  0  0  0  0  0  0  0  0  0  0  0
   -1.8320    2.7990   -5.5100 H   0  0  0  0  0  0  0  0  0  0  0  0
   -1.0570    0.1470   -2.7850 H   0  0  0  0  0  0  0  0  0  0  0  0
   -0.0550   -0.8670   -3.8370 H   0  0  0  0  0  0  0  0  0  0  0  0
    1.2310    0.9490   -4.6360 H   0  0  0  0  0  0  0  0  0  0  0  0
    0.2360    2.2090   -3.8990 H   0  0  0  0  0  0  0  0  0  0  0  0
    1.8100   -0.0890   -2.6010 H   0  0  0  0  0  0  0  0  0  0  0  0
    0.4380    2.0650   -1.0520 H   0  0  0  0  0  0  0  0  0  0  0  0
  1 10  1  0  0  0  0
  2 12  1  0  0  0  0
  2  1  1  0  0  0  0
  3 14  1  6  0  0  0
  3  5  1  0  0  0  0
  3  2  1  0  0  0  0
  4  3  1  0  0  0  0
  4 17  1  0  0  0  0
  5  6  1  0  0  0  0
  5 18  1  1  0  0  0
  6 20  1  0  0  0  0
  7  5  1  0  0  0  0
  8  7  2  0  0  0  0
  9  1  1  0  0  0  0
 11  1  1  0  0  0  0
 13  2  1  0  0  0  0
 15  4  1  0  0  0  0
 16  4  1  0  0  0  0
 19  6  1  0  0  0  0
 21 28  1  0  0  0  0
 21 30  1  0  0  0  0
 22 23  1  0  0  0  0
 22 21  1  0  0  0  0
 23 32  1  0  0  0  0
 24 35  1  6  0  0  0
 24 22  1  0  0  0  0
 24 25  1  0  0  0  0
 25 36  1  0  0  0  0
 25  7  1  0  0  0  0
 26 24  1  0  0  0  0
 27 26  2  0  0  0  0
 29 21  1  0  0  0  0
 31 22  1  0  0  0  0
 33 23  1  0  0  0  0
 34 23  1  0  0  0  0
 37 47  1  0  0  0  0
 38 37  1  0  0  0  0
 38 39  1  0  0  0  0
 39 49  1  0  0  0  0
 40 39  1  0  0  0  0
 40 41  1  0  0  0  0
 41 53  1  6  0  0  0
 41 43  1  0  0  0  0
 41 42  1  0  0  0  0
 42 54  1  0  0  0  0
 42 26  1  0  0  0  0
 43 45  1  0  0  0  0
 44 43  2  0  0  0  0
 46 37  1  0  0  0  0
 48 37  1  0  0  0  0
 50 39  1  0  0  0  0
 51 40  1  0  0  0  0
 52 40  1  0  0  0  0
M  END
$$$$
