IVP.pdb
 OpenBabel07022418443D

 51 51  0  0  1  0  0  0  0  0999 V2000
    0.2320   -3.4350    1.2190 C   0  0  0  0  0  0  0  0  0  0  0  0
    0.7890   -3.7650   -0.1460 C   0  0  0  0  0  0  0  0  0  0  0  0
    2.1870   -3.2880   -0.3400 C   0  0  2  0  0  0  0  0  0  0  0  0
    3.1560   -3.8510    0.6770 C   0  0  0  0  0  0  0  0  0  0  0  0
    2.3910   -1.8520   -0.6660 C   0  0  2  0  0  0  0  0  0  0  0  0
    3.8850   -1.7290   -0.7620 N   0  0  0  0  0  0  0  0  0  0  0  0
    1.9010   -0.8570    0.2640 C   0  0  0  0  0  0  0  0  0  0  0  0
    2.5780   -0.6210    1.3250 O   0  0  0  0  0  0  0  0  0  0  0  0
    0.7470   -4.0850    1.9910 H   0  0  0  0  0  0  0  0  0  0  0  0
    0.3860   -2.4170    1.5540 H   0  0  0  0  0  0  0  0  0  0  0  0
   -0.8120   -3.8050    1.2210 H   0  0  0  0  0  0  0  0  0  0  0  0
    0.7220   -4.8840   -0.2490 H   0  0  0  0  0  0  0  0  0  0  0  0
    0.1240   -3.3790   -0.9520 H   0  0  0  0  0  0  0  0  0  0  0  0
    2.5290   -3.8320   -1.3150 H   0  0  0  0  0  0  0  0  0  0  0  0
    4.1640   -3.9450    0.2260 H   0  0  0  0  0  0  0  0  0  0  0  0
    2.8000   -4.8570    0.9770 H   0  0  0  0  0  0  0  0  0  0  0  0
    3.2640   -3.1890    1.5580 H   0  0  0  0  0  0  0  0  0  0  0  0
    2.0660   -1.6760   -1.7280 H   0  0  0  0  0  0  0  0  0  0  0  0
    4.2500   -1.8660    0.2240 H   0  0  0  0  0  0  0  0  0  0  0  0
    4.1000   -0.7240   -0.9890 H   0  0  0  0  0  0  0  0  0  0  0  0
    0.3890    3.4120    1.5060 C   0  0  0  0  0  0  0  0  0  0  0  0
    0.7130    2.2970    0.5590 C   0  0  0  0  0  0  0  0  0  0  0  0
    2.1800    2.2910    0.1580 C   0  0  0  0  0  0  0  0  0  0  0  0
    0.3340    0.9000    1.1230 C   0  0  2  0  0  0  0  0  0  0  0  0
    0.7110   -0.0630    0.1380 N   0  0  0  0  0  0  0  0  0  0  0  0
   -1.0360    0.9740    1.5720 C   0  0  0  0  0  0  0  0  0  0  0  0
   -1.2510    1.8990    2.4810 O   0  0  0  0  0  0  0  0  0  0  0  0
    1.0470    4.2780    1.1610 H   0  0  0  0  0  0  0  0  0  0  0  0
    0.6150    3.1920    2.5720 H   0  0  0  0  0  0  0  0  0  0  0  0
   -0.6390    3.7560    1.3130 H   0  0  0  0  0  0  0  0  0  0  0  0
    0.1480    2.4920   -0.3770 H   0  0  0  0  0  0  0  0  0  0  0  0
    2.8470    2.1160    1.0010 H   0  0  0  0  0  0  0  0  0  0  0  0
    2.3560    3.2450   -0.3860 H   0  0  0  0  0  0  0  0  0  0  0  0
    2.3030    1.4960   -0.6170 H   0  0  0  0  0  0  0  0  0  0  0  0
    1.0000    0.8310    2.0430 H   0  0  0  0  0  0  0  0  0  0  0  0
    0.1500   -0.1970   -0.7180 H   0  0  0  0  0  0  0  0  0  0  0  0
   -2.1900    0.2670    1.2400 N   0  0  0  0  0  0  0  0  0  0  0  0
   -3.5030    0.5540    1.7790 C   0  0  0  0  0  0  0  0  0  0  0  0
   -4.0360   -0.8180    2.0870 C   0  0  0  0  0  0  0  0  0  0  0  0
   -3.2400   -1.7750    1.2310 C   0  0  0  0  0  0  0  0  0  0  0  0
   -2.3590   -0.8360    0.3670 C   0  0  1  0  0  0  0  0  0  0  0  0
   -3.0940   -0.4860   -0.8810 C   0  0  0  0  0  0  0  0  0  0  0  0
   -3.2740   -1.4220   -1.7030 O   0  0  0  0  0  0  0  0  0  0  0  0
   -3.5740    0.7620   -1.1800 O   0  0  0  0  0  0  0  0  0  0  0  0
   -4.1360    1.1090    1.0590 H   0  0  0  0  0  0  0  0  0  0  0  0
   -3.4300    1.1060    2.7520 H   0  0  0  0  0  0  0  0  0  0  0  0
   -5.1350   -0.8930    1.8290 H   0  0  0  0  0  0  0  0  0  0  0  0
   -3.9990   -1.0670    3.1740 H   0  0  0  0  0  0  0  0  0  0  0  0
   -2.5820   -2.3790    1.9040 H   0  0  0  0  0  0  0  0  0  0  0  0
   -3.8710   -2.4180    0.5900 H   0  0  0  0  0  0  0  0  0  0  0  0
   -1.4680   -1.4430    0.1590 H   0  0  0  0  0  0  0  0  0  0  0  0
  1 11  1  0  0  0  0
  1 10  1  0  0  0  0
  1  9  1  0  0  0  0
  2  1  1  0  0  0  0
  3 14  1  6  0  0  0
  3  2  1  0  0  0  0
  3  4  1  0  0  0  0
  4 16  1  0  0  0  0
  4 17  1  0  0  0  0
  5 18  1  6  0  0  0
  5  3  1  0  0  0  0
  5  7  1  0  0  0  0
  6  5  1  0  0  0  0
  6 19  1  0  0  0  0
  7  8  2  0  0  0  0
 12  2  1  0  0  0  0
 13  2  1  0  0  0  0
 15  4  1  0  0  0  0
 20  6  1  0  0  0  0
 21 29  1  0  0  0  0
 22 24  1  0  0  0  0
 22 21  1  0  0  0  0
 23 22  1  0  0  0  0
 23 32  1  0  0  0  0
 24 26  1  0  0  0  0
 24 35  1  1  0  0  0
 25  7  1  0  0  0  0
 25 24  1  0  0  0  0
 26 27  2  0  0  0  0
 28 21  1  0  0  0  0
 30 21  1  0  0  0  0
 31 22  1  0  0  0  0
 33 23  1  0  0  0  0
 34 23  1  0  0  0  0
 36 25  1  0  0  0  0
 37 26  1  0  0  0  0
 37 38  1  0  0  0  0
 38 39  1  0  0  0  0
 38 46  1  0  0  0  0
 39 48  1  0  0  0  0
 40 49  1  0  0  0  0
 40 39  1  0  0  0  0
 41 51  1  6  0  0  0
 41 40  1  0  0  0  0
 41 37  1  0  0  0  0
 42 41  1  0  0  0  0
 43 42  2  0  0  0  0
 44 42  1  0  0  0  0
 45 38  1  0  0  0  0
 47 39  1  0  0  0  0
 50 40  1  0  0  0  0
M  END
$$$$
