IVQ.pdb
 OpenBabel07022418433D

 54 53  0  0  1  0  0  0  0  0999 V2000
    1.8980   -5.1460   -0.2640 C   0  0  0  0  0  0  0  0  0  0  0  0
    2.9720   -4.4010    0.4500 C   0  0  0  0  0  0  0  0  0  0  0  0
    2.8810   -2.9090    0.3120 C   0  0  2  0  0  0  0  0  0  0  0  0
    4.0710   -2.2970    1.0850 C   0  0  0  0  0  0  0  0  0  0  0  0
    1.6530   -2.3240    0.9850 C   0  0  2  0  0  0  0  0  0  0  0  0
    0.4090   -2.8200    0.4820 N   0  0  0  0  0  0  0  0  0  0  0  0
    1.6740   -0.8440    0.7690 C   0  0  0  0  0  0  0  0  0  0  0  0
    2.6250   -0.1600    1.2610 O   0  0  0  0  0  0  0  0  0  0  0  0
    1.3320   -4.4880   -0.9340 H   0  0  0  0  0  0  0  0  0  0  0  0
    2.3300   -5.9480   -0.9470 H   0  0  0  0  0  0  0  0  0  0  0  0
    1.2180   -5.7340    0.3990 H   0  0  0  0  0  0  0  0  0  0  0  0
    3.0720   -4.7100    1.5240 H   0  0  0  0  0  0  0  0  0  0  0  0
    3.9580   -4.7200    0.0000 H   0  0  0  0  0  0  0  0  0  0  0  0
    3.0010   -2.6370   -0.7330 H   0  0  0  0  0  0  0  0  0  0  0  0
    4.8620   -3.0820    1.2060 H   0  0  0  0  0  0  0  0  0  0  0  0
    4.4640   -1.4050    0.5630 H   0  0  0  0  0  0  0  0  0  0  0  0
    3.7860   -1.9940    2.1030 H   0  0  0  0  0  0  0  0  0  0  0  0
    1.7780   -2.4960    2.0760 H   0  0  0  0  0  0  0  0  0  0  0  0
    0.1120   -3.7190    0.9430 H   0  0  0  0  0  0  0  0  0  0  0  0
   -0.3310   -2.1350    0.8440 H   0  0  0  0  0  0  0  0  0  0  0  0
    2.1090    0.8590   -2.1120 C   0  0  0  0  0  0  0  0  0  0  0  0
    0.8300    1.5490   -1.6210 C   0  0  0  0  0  0  0  0  0  0  0  0
    0.9280    2.9980   -1.9870 C   0  0  0  0  0  0  0  0  0  0  0  0
    0.7510    1.3090   -0.1460 C   0  0  2  0  0  0  0  0  0  0  0  0
    0.7000   -0.1460    0.0470 N   0  0  0  0  0  0  0  0  0  0  0  0
   -0.4040    1.9020    0.5140 C   0  0  0  0  0  0  0  0  0  0  0  0
   -0.5550    3.1510    0.4680 O   0  0  0  0  0  0  0  0  0  0  0  0
    2.2910    1.0490   -3.1740 H   0  0  0  0  0  0  0  0  0  0  0  0
    2.0570   -0.2260   -1.9130 H   0  0  0  0  0  0  0  0  0  0  0  0
    2.9340    1.2650   -1.4920 H   0  0  0  0  0  0  0  0  0  0  0  0
   -0.0020    1.0150   -2.1030 H   0  0  0  0  0  0  0  0  0  0  0  0
    1.1690    3.6570   -1.1270 H   0  0  0  0  0  0  0  0  0  0  0  0
    1.6980    3.1950   -2.7650 H   0  0  0  0  0  0  0  0  0  0  0  0
   -0.0510    3.2870   -2.4550 H   0  0  0  0  0  0  0  0  0  0  0  0
    1.6760    1.6860    0.3810 H   0  0  0  0  0  0  0  0  0  0  0  0
   -0.1130   -0.6120   -0.4010 H   0  0  0  0  0  0  0  0  0  0  0  0
   -5.0970   -2.4300    0.9100 N   0  0  0  0  0  0  0  0  0  0  0  0
   -4.9390   -1.0300    0.8390 C   0  0  0  0  0  0  0  0  0  0  0  0
   -5.8010   -0.3240    0.2970 O   0  0  0  0  0  0  0  0  0  0  0  0
   -3.7340   -0.4030    1.4160 C   0  0  0  0  0  0  0  0  0  0  0  0
   -3.7550    1.0970    1.2350 C   0  0  0  0  0  0  0  0  0  0  0  0
   -2.5070    1.6640    1.8640 C   0  0  2  0  0  0  0  0  0  0  0  0
   -1.3610    1.1010    1.2070 N   0  0  0  0  0  0  0  0  0  0  0  0
   -2.5500    1.3290    3.3150 C   0  0  0  0  0  0  0  0  0  0  0  0
   -1.7030    0.6450    3.9060 O   0  0  0  0  0  0  0  0  0  0  0  0
   -3.6220    1.8270    4.0420 O   0  0  0  0  0  0  0  0  0  0  0  0
   -4.2620   -3.0670    0.9520 H   0  0  0  0  0  0  0  0  0  0  0  0
   -6.0680   -2.8240    0.9220 H   0  0  0  0  0  0  0  0  0  0  0  0
   -3.5530   -0.6860    2.4640 H   0  0  0  0  0  0  0  0  0  0  0  0
   -2.8720   -0.8490    0.8370 H   0  0  0  0  0  0  0  0  0  0  0  0
   -4.6680    1.5410    1.6690 H   0  0  0  0  0  0  0  0  0  0  0  0
   -3.6700    1.3080    0.1390 H   0  0  0  0  0  0  0  0  0  0  0  0
   -2.4920    2.7770    1.8100 H   0  0  0  0  0  0  0  0  0  0  0  0
   -1.1620    0.0820    1.2060 H   0  0  0  0  0  0  0  0  0  0  0  0
  1 11  1  0  0  0  0
  1  2  1  0  0  0  0
  2 12  1  0  0  0  0
  3 14  1  6  0  0  0
  3  2  1  0  0  0  0
  3  5  1  0  0  0  0
  3  4  1  0  0  0  0
  4 15  1  0  0  0  0
  4 17  1  0  0  0  0
  5 18  1  1  0  0  0
  6 20  1  0  0  0  0
  6 19  1  0  0  0  0
  6  5  1  0  0  0  0
  7  5  1  0  0  0  0
  7  8  2  0  0  0  0
  9  1  1  0  0  0  0
 10  1  1  0  0  0  0
 13  2  1  0  0  0  0
 16  4  1  0  0  0  0
 21 29  1  0  0  0  0
 21 22  1  0  0  0  0
 21 30  1  0  0  0  0
 22 24  1  0  0  0  0
 23 22  1  0  0  0  0
 23 32  1  0  0  0  0
 24 25  1  0  0  0  0
 24 35  1  1  0  0  0
 24 26  1  0  0  0  0
 25  7  1  0  0  0  0
 26 43  1  0  0  0  0
 27 26  2  0  0  0  0
 28 21  1  0  0  0  0
 31 22  1  0  0  0  0
 33 23  1  0  0  0  0
 34 23  1  0  0  0  0
 36 25  1  0  0  0  0
 37 48  1  0  0  0  0
 37 47  1  0  0  0  0
 38 37  1  0  0  0  0
 38 40  1  0  0  0  0
 39 38  2  0  0  0  0
 40 49  1  0  0  0  0
 41 40  1  0  0  0  0
 41 51  1  0  0  0  0
 41 42  1  0  0  0  0
 42 53  1  6  0  0  0
 42 44  1  0  0  0  0
 43 42  1  0  0  0  0
 44 45  2  0  0  0  0
 44 46  1  0  0  0  0
 50 40  1  0  0  0  0
 52 41  1  0  0  0  0
 54 43  1  0  0  0  0
M  END
$$$$
