IVS.pdb
 OpenBabel07022418443D

 48 47  0  0  1  0  0  0  0  0999 V2000
    0.3330   -5.7330    0.4600 C   0  0  0  0  0  0  0  0  0  0  0  0
    1.3890   -4.8830   -0.2010 C   0  0  0  0  0  0  0  0  0  0  0  0
    1.5910   -3.5970    0.6100 C   0  0  2  0  0  0  0  0  0  0  0  0
    2.0240   -3.9940    1.9810 C   0  0  0  0  0  0  0  0  0  0  0  0
    0.3100   -2.7970    0.5880 C   0  0  2  0  0  0  0  0  0  0  0  0
   -0.0060   -2.4780   -0.7870 N   0  0  0  0  0  0  0  0  0  0  0  0
    0.5250   -1.5630    1.3410 C   0  0  0  0  0  0  0  0  0  0  0  0
    0.8160   -1.5240    2.5690 O   0  0  0  0  0  0  0  0  0  0  0  0
    0.4780   -6.7970    0.1300 H   0  0  0  0  0  0  0  0  0  0  0  0
    0.4250   -5.7550    1.5640 H   0  0  0  0  0  0  0  0  0  0  0  0
   -0.6890   -5.4150    0.1480 H   0  0  0  0  0  0  0  0  0  0  0  0
    1.0340   -4.6220   -1.2090 H   0  0  0  0  0  0  0  0  0  0  0  0
    2.3610   -5.4080   -0.1860 H   0  0  0  0  0  0  0  0  0  0  0  0
    2.3780   -2.9860    0.1460 H   0  0  0  0  0  0  0  0  0  0  0  0
    1.1890   -4.1580    2.6900 H   0  0  0  0  0  0  0  0  0  0  0  0
    2.5880   -4.9500    1.9020 H   0  0  0  0  0  0  0  0  0  0  0  0
    2.7070   -3.2690    2.4630 H   0  0  0  0  0  0  0  0  0  0  0  0
   -0.5250   -3.4170    0.9760 H   0  0  0  0  0  0  0  0  0  0  0  0
   -0.8740   -1.9380   -0.9120 H   0  0  0  0  0  0  0  0  0  0  0  0
    0.7620   -1.9840   -1.2890 H   0  0  0  0  0  0  0  0  0  0  0  0
    3.0640    0.7950    0.9080 C   0  0  0  0  0  0  0  0  0  0  0  0
    1.8150    1.6210    0.7400 C   0  0  0  0  0  0  0  0  0  0  0  0
    2.0700    2.9590    1.4040 C   0  0  0  0  0  0  0  0  0  0  0  0
    0.5990    0.9450    1.3370 C   0  0  2  0  0  0  0  0  0  0  0  0
    0.4060   -0.3120    0.6780 N   0  0  0  0  0  0  0  0  0  0  0  0
   -0.5910    1.8100    1.2950 C   0  0  0  0  0  0  0  0  0  0  0  0
   -0.6200    2.9530    1.8170 O   0  0  0  0  0  0  0  0  0  0  0  0
    3.9210    1.4520    0.6070 H   0  0  0  0  0  0  0  0  0  0  0  0
    3.1010   -0.0760    0.2260 H   0  0  0  0  0  0  0  0  0  0  0  0
    3.2510    0.5280    1.9680 H   0  0  0  0  0  0  0  0  0  0  0  0
    1.6460    1.7620   -0.3470 H   0  0  0  0  0  0  0  0  0  0  0  0
    1.4190    3.7610    1.0090 H   0  0  0  0  0  0  0  0  0  0  0  0
    3.1410    3.2140    1.1780 H   0  0  0  0  0  0  0  0  0  0  0  0
    2.0060    2.8380    2.5040 H   0  0  0  0  0  0  0  0  0  0  0  0
    0.8450    0.7440    2.4040 H   0  0  0  0  0  0  0  0  0  0  0  0
    0.1670   -0.2830   -0.3400 H   0  0  0  0  0  0  0  0  0  0  0  0
   -3.6770    1.4600   -1.5690 O   0  0  0  0  0  0  0  0  0  0  0  0
   -3.3790    2.5800   -0.8120 C   0  0  0  0  0  0  0  0  0  0  0  0
   -2.9770    2.2380    0.6010 C   0  0  2  0  0  0  0  0  0  0  0  0
   -1.8100    1.3970    0.6450 N   0  0  0  0  0  0  0  0  0  0  0  0
   -4.1460    1.5950    1.2640 C   0  0  0  0  0  0  0  0  0  0  0  0
   -5.2650    2.1610    1.3360 O   0  0  0  0  0  0  0  0  0  0  0  0
   -4.0310    0.3330    1.8300 O   0  0  0  0  0  0  0  0  0  0  0  0
   -2.8450    0.9370   -1.7010 H   0  0  0  0  0  0  0  0  0  0  0  0
   -2.5800    3.1570   -1.3070 H   0  0  0  0  0  0  0  0  0  0  0  0
   -4.3120    3.1810   -0.7430 H   0  0  0  0  0  0  0  0  0  0  0  0
   -2.7770    3.1930    1.1210 H   0  0  0  0  0  0  0  0  0  0  0  0
   -1.8110    0.4530    0.2050 H   0  0  0  0  0  0  0  0  0  0  0  0
  1 10  1  0  0  0  0
  2 13  1  0  0  0  0
  2  1  1  0  0  0  0
  2  3  1  0  0  0  0
  3 14  1  6  0  0  0
  3  4  1  0  0  0  0
  4 17  1  0  0  0  0
  4 15  1  0  0  0  0
  5  3  1  0  0  0  0
  5 18  1  1  0  0  0
  5  7  1  0  0  0  0
  6  5  1  0  0  0  0
  7  8  2  0  0  0  0
  9  1  1  0  0  0  0
 11  1  1  0  0  0  0
 12  2  1  0  0  0  0
 16  4  1  0  0  0  0
 19  6  1  0  0  0  0
 20  6  1  0  0  0  0
 21 30  1  0  0  0  0
 22 21  1  0  0  0  0
 22 24  1  0  0  0  0
 22 23  1  0  0  0  0
 23 34  1  0  0  0  0
 24 35  1  1  0  0  0
 25 24  1  0  0  0  0
 25  7  1  0  0  0  0
 26 24  1  0  0  0  0
 26 27  2  0  0  0  0
 28 21  1  0  0  0  0
 29 21  1  0  0  0  0
 31 22  1  0  0  0  0
 32 23  1  0  0  0  0
 33 23  1  0  0  0  0
 36 25  1  0  0  0  0
 37 38  1  0  0  0  0
 38 46  1  0  0  0  0
 38 39  1  0  0  0  0
 39 40  1  0  0  0  0
 39 47  1  1  0  0  0
 39 41  1  0  0  0  0
 40 26  1  0  0  0  0
 41 42  2  0  0  0  0
 41 43  1  0  0  0  0
 44 37  1  0  0  0  0
 45 38  1  0  0  0  0
 48 40  1  0  0  0  0
M  END
$$$$
