IVT.pdb
 OpenBabel07022418443D

 51 50  0  0  1  0  0  0  0  0999 V2000
    1.3490   -2.8970   -4.4240 C   0  0  0  0  0  0  0  0  0  0  0  0
    0.7940   -1.5160   -4.4540 C   0  0  0  0  0  0  0  0  0  0  0  0
    0.6320   -0.9100   -3.0420 C   0  0  2  0  0  0  0  0  0  0  0  0
    2.0020   -0.8700   -2.4610 C   0  0  0  0  0  0  0  0  0  0  0  0
   -0.3490   -1.7790   -2.3570 C   0  0  2  0  0  0  0  0  0  0  0  0
   -1.5810   -1.7260   -3.1730 N   0  0  0  0  0  0  0  0  0  0  0  0
   -0.6920   -1.5520   -0.9760 C   0  0  0  0  0  0  0  0  0  0  0  0
   -1.9540   -1.4880   -0.6760 O   0  0  0  0  0  0  0  0  0  0  0  0
    1.9680   -3.1380   -5.3020 H   0  0  0  0  0  0  0  0  0  0  0  0
    1.8140   -3.1870   -3.4550 H   0  0  0  0  0  0  0  0  0  0  0  0
    0.4750   -3.6130   -4.5070 H   0  0  0  0  0  0  0  0  0  0  0  0
    1.4720   -0.8840   -5.0620 H   0  0  0  0  0  0  0  0  0  0  0  0
   -0.1870   -1.5300   -4.9590 H   0  0  0  0  0  0  0  0  0  0  0  0
    0.2710    0.1150   -3.1940 H   0  0  0  0  0  0  0  0  0  0  0  0
    2.2020   -0.0390   -1.7610 H   0  0  0  0  0  0  0  0  0  0  0  0
    2.7120   -0.6530   -3.3210 H   0  0  0  0  0  0  0  0  0  0  0  0
    2.3880   -1.8370   -2.0780 H   0  0  0  0  0  0  0  0  0  0  0  0
   -0.0310   -2.8590   -2.4650 H   0  0  0  0  0  0  0  0  0  0  0  0
   -1.6690   -0.7000   -3.4390 H   0  0  0  0  0  0  0  0  0  0  0  0
   -2.4010   -1.9230   -2.5710 H   0  0  0  0  0  0  0  0  0  0  0  0
   -0.0350   -3.5540    2.1930 C   0  0  0  0  0  0  0  0  0  0  0  0
    0.3330   -2.1110    2.4740 C   0  0  0  0  0  0  0  0  0  0  0  0
    1.8200   -2.0610    2.6500 C   0  0  0  0  0  0  0  0  0  0  0  0
   -0.2270   -1.1680    1.4740 C   0  0  2  0  0  0  0  0  0  0  0  0
    0.1880   -1.3840    0.1170 N   0  0  0  0  0  0  0  0  0  0  0  0
   -0.1300    0.2700    1.8710 C   0  0  0  0  0  0  0  0  0  0  0  0
    0.2740    1.1820    1.0780 O   0  0  0  0  0  0  0  0  0  0  0  0
   -0.1090   -3.7040    1.0760 H   0  0  0  0  0  0  0  0  0  0  0  0
   -0.9820   -3.7770    2.6890 H   0  0  0  0  0  0  0  0  0  0  0  0
    0.7910   -4.2500    2.5040 H   0  0  0  0  0  0  0  0  0  0  0  0
   -0.1100   -1.8570    3.4630 H   0  0  0  0  0  0  0  0  0  0  0  0
    2.1330   -1.0150    2.9050 H   0  0  0  0  0  0  0  0  0  0  0  0
    2.0850   -2.6600    3.5460 H   0  0  0  0  0  0  0  0  0  0  0  0
    2.3880   -2.4910    1.8140 H   0  0  0  0  0  0  0  0  0  0  0  0
   -1.3450   -1.3460    1.4870 H   0  0  0  0  0  0  0  0  0  0  0  0
    1.2070   -1.4250   -0.0890 H   0  0  0  0  0  0  0  0  0  0  0  0
   -2.6880    2.1800    2.6340 C   0  0  0  0  0  0  0  0  0  0  0  0
   -1.8690    2.5300    3.8780 C   0  0  1  0  0  0  0  0  0  0  0  0
   -2.3760    1.6970    4.8850 O   0  0  0  0  0  0  0  0  0  0  0  0
   -0.4140    2.1040    3.6100 C   0  0  2  0  0  0  0  0  0  0  0  0
   -0.4870    0.7170    3.1740 N   0  0  0  0  0  0  0  0  0  0  0  0
    0.3790    2.2450    4.8460 C   0  0  0  0  0  0  0  0  0  0  0  0
    0.5570    3.3610    5.3890 O   0  0  0  0  0  0  0  0  0  0  0  0
    0.9600    1.1420    5.4580 O   0  0  0  0  0  0  0  0  0  0  0  0
   -2.4310    1.1000    2.4350 H   0  0  0  0  0  0  0  0  0  0  0  0
   -3.7560    2.2060    2.8750 H   0  0  0  0  0  0  0  0  0  0  0  0
   -2.3840    2.8230    1.8000 H   0  0  0  0  0  0  0  0  0  0  0  0
   -1.9710    3.5600    4.1980 H   0  0  0  0  0  0  0  0  0  0  0  0
   -2.6190    0.7990    4.5560 H   0  0  0  0  0  0  0  0  0  0  0  0
   -0.0480    2.7860    2.8190 H   0  0  0  0  0  0  0  0  0  0  0  0
   -0.8210   -0.0040    3.8530 H   0  0  0  0  0  0  0  0  0  0  0  0
  1 10  1  0  0  0  0
  2  1  1  0  0  0  0
  2  3  1  0  0  0  0
  3 14  1  6  0  0  0
  3  4  1  0  0  0  0
  3  5  1  0  0  0  0
  4 17  1  0  0  0  0
  4 15  1  0  0  0  0
  5 18  1  6  0  0  0
  5  7  1  0  0  0  0
  6 20  1  0  0  0  0
  6  5  1  0  0  0  0
  7  8  2  0  0  0  0
  7 25  1  0  0  0  0
  9  1  1  0  0  0  0
 11  1  1  0  0  0  0
 12  2  1  0  0  0  0
 13  2  1  0  0  0  0
 16  4  1  0  0  0  0
 19  6  1  0  0  0  0
 21 22  1  0  0  0  0
 21 30  1  0  0  0  0
 21 29  1  0  0  0  0
 22 23  1  0  0  0  0
 22 31  1  0  0  0  0
 23 32  1  0  0  0  0
 23 33  1  0  0  0  0
 24 35  1  6  0  0  0
 24 26  1  0  0  0  0
 24 22  1  0  0  0  0
 25 24  1  0  0  0  0
 26 41  1  0  0  0  0
 27 26  2  0  0  0  0
 28 21  1  0  0  0  0
 34 23  1  0  0  0  0
 36 25  1  0  0  0  0
 37 46  1  0  0  0  0
 37 38  1  0  0  0  0
 38 48  1  1  0  0  0
 38 39  1  0  0  0  0
 40 50  1  6  0  0  0
 40 38  1  0  0  0  0
 40 42  1  0  0  0  0
 41 40  1  0  0  0  0
 41 51  1  0  0  0  0
 42 43  2  0  0  0  0
 42 44  1  0  0  0  0
 45 37  1  0  0  0  0
 47 37  1  0  0  0  0
 49 39  1  0  0  0  0
M  END
$$$$
