IVV.pdb
 OpenBabel07022418443D

 53 52  0  0  1  0  0  0  0  0999 V2000
   -1.5660   -5.1890   -0.4770 C   0  0  0  0  0  0  0  0  0  0  0  0
   -0.1550   -5.2220   -1.0100 C   0  0  0  0  0  0  0  0  0  0  0  0
    0.6750   -4.0380   -0.5490 C   0  0  2  0  0  0  0  0  0  0  0  0
    0.7430   -4.0430    0.9370 C   0  0  0  0  0  0  0  0  0  0  0  0
    0.0970   -2.8150   -1.1800 C   0  0  2  0  0  0  0  0  0  0  0  0
    0.1940   -3.0440   -2.6360 N   0  0  0  0  0  0  0  0  0  0  0  0
    0.8890   -1.5690   -0.8800 C   0  0  0  0  0  0  0  0  0  0  0  0
    1.5720   -1.0670   -1.8070 O   0  0  0  0  0  0  0  0  0  0  0  0
   -1.5940   -5.3270    0.6280 H   0  0  0  0  0  0  0  0  0  0  0  0
   -2.1660   -4.3420   -0.8210 H   0  0  0  0  0  0  0  0  0  0  0  0
   -2.0600   -6.1160   -0.8870 H   0  0  0  0  0  0  0  0  0  0  0  0
   -0.2420   -5.2230   -2.1340 H   0  0  0  0  0  0  0  0  0  0  0  0
    0.2990   -6.1760   -0.6870 H   0  0  0  0  0  0  0  0  0  0  0  0
    1.7030   -4.2030   -0.9430 H   0  0  0  0  0  0  0  0  0  0  0  0
   -0.2010   -3.8510    1.4540 H   0  0  0  0  0  0  0  0  0  0  0  0
    1.0140   -5.1040    1.2290 H   0  0  0  0  0  0  0  0  0  0  0  0
    1.6090   -3.4460    1.3070 H   0  0  0  0  0  0  0  0  0  0  0  0
   -0.9790   -2.6950   -0.9650 H   0  0  0  0  0  0  0  0  0  0  0  0
    1.1960   -2.8180   -2.8660 H   0  0  0  0  0  0  0  0  0  0  0  0
   -0.4600   -2.3590   -3.0840 H   0  0  0  0  0  0  0  0  0  0  0  0
    3.6210   -0.0050   -0.4110 C   0  0  0  0  0  0  0  0  0  0  0  0
    2.4500    0.8520   -0.0120 C   0  0  0  0  0  0  0  0  0  0  0  0
    2.9300    2.1400    0.5570 C   0  0  0  0  0  0  0  0  0  0  0  0
    1.5070    0.1100    0.9040 C   0  0  2  0  0  0  0  0  0  0  0  0
    0.8390   -1.0200    0.4000 N   0  0  0  0  0  0  0  0  0  0  0  0
    0.6200    0.9810    1.6690 C   0  0  0  0  0  0  0  0  0  0  0  0
    1.0290    2.0260    2.2680 O   0  0  0  0  0  0  0  0  0  0  0  0
    3.9110    0.0840   -1.4730 H   0  0  0  0  0  0  0  0  0  0  0  0
    3.5260   -1.0460   -0.0380 H   0  0  0  0  0  0  0  0  0  0  0  0
    4.5010    0.3990    0.1970 H   0  0  0  0  0  0  0  0  0  0  0  0
    1.9070    1.0850   -0.9770 H   0  0  0  0  0  0  0  0  0  0  0  0
    3.2620    2.0690    1.6080 H   0  0  0  0  0  0  0  0  0  0  0  0
    3.8480    2.4330   -0.0330 H   0  0  0  0  0  0  0  0  0  0  0  0
    2.2040    2.9510    0.3640 H   0  0  0  0  0  0  0  0  0  0  0  0
    2.2940   -0.2960    1.6910 H   0  0  0  0  0  0  0  0  0  0  0  0
    0.2090   -1.5310    1.1000 H   0  0  0  0  0  0  0  0  0  0  0  0
   -3.4050    1.2560    0.7180 C   0  0  0  0  0  0  0  0  0  0  0  0
   -2.5940    2.2130    1.5360 C   0  0  0  0  0  0  0  0  0  0  0  0
   -1.7850    3.1110    0.6500 C   0  0  0  0  0  0  0  0  0  0  0  0
   -1.6770    1.5280    2.5260 C   0  0  2  0  0  0  0  0  0  0  0  0
   -0.7630    0.6730    1.7640 N   0  0  0  0  0  0  0  0  0  0  0  0
   -2.4090    0.7800    3.5490 C   0  0  0  0  0  0  0  0  0  0  0  0
   -2.2690   -0.4510    3.7440 O   0  0  0  0  0  0  0  0  0  0  0  0
   -3.3160    1.4410    4.3660 O   0  0  0  0  0  0  0  0  0  0  0  0
   -2.8110    0.5550    0.1270 H   0  0  0  0  0  0  0  0  0  0  0  0
   -3.9720    1.8840   -0.0210 H   0  0  0  0  0  0  0  0  0  0  0  0
   -4.1940    0.7500    1.3210 H   0  0  0  0  0  0  0  0  0  0  0  0
   -3.2950    2.8530    2.1150 H   0  0  0  0  0  0  0  0  0  0  0  0
   -2.4150    3.9570    0.2520 H   0  0  0  0  0  0  0  0  0  0  0  0
   -0.9400    3.6000    1.1740 H   0  0  0  0  0  0  0  0  0  0  0  0
   -1.4310    2.5610   -0.2540 H   0  0  0  0  0  0  0  0  0  0  0  0
   -1.0580    2.3380    2.9640 H   0  0  0  0  0  0  0  0  0  0  0  0
   -1.1980   -0.1520    1.3070 H   0  0  0  0  0  0  0  0  0  0  0  0
  1  9  1  0  0  0  0
  2 13  1  0  0  0  0
  2  3  1  0  0  0  0
  2  1  1  0  0  0  0
  3 14  1  6  0  0  0
  3  4  1  0  0  0  0
  4 16  1  0  0  0  0
  4 17  1  0  0  0  0
  4 15  1  0  0  0  0
  5 18  1  1  0  0  0
  5  7  1  0  0  0  0
  5  3  1  0  0  0  0
  6  5  1  0  0  0  0
  7 25  1  0  0  0  0
  8  7  2  0  0  0  0
 10  1  1  0  0  0  0
 11  1  1  0  0  0  0
 12  2  1  0  0  0  0
 19  6  1  0  0  0  0
 20  6  1  0  0  0  0
 21 29  1  0  0  0  0
 21 22  1  0  0  0  0
 21 30  1  0  0  0  0
 22 23  1  0  0  0  0
 22 24  1  0  0  0  0
 23 32  1  0  0  0  0
 24 26  1  0  0  0  0
 24 35  1  1  0  0  0
 25 24  1  0  0  0  0
 25 36  1  0  0  0  0
 26 41  1  0  0  0  0
 26 27  2  0  0  0  0
 28 21  1  0  0  0  0
 31 22  1  0  0  0  0
 33 23  1  0  0  0  0
 34 23  1  0  0  0  0
 37 47  1  0  0  0  0
 37 38  1  0  0  0  0
 38 48  1  0  0  0  0
 38 40  1  0  0  0  0
 39 50  1  0  0  0  0
 39 38  1  0  0  0  0
 40 52  1  1  0  0  0
 40 42  1  0  0  0  0
 41 40  1  0  0  0  0
 42 43  2  0  0  0  0
 42 44  1  0  0  0  0
 45 37  1  0  0  0  0
 46 37  1  0  0  0  0
 49 39  1  0  0  0  0
 51 39  1  0  0  0  0
 53 41  1  0  0  0  0
M  END
$$$$
