IVW.pdb
 OpenBabel07022418443D

 61 62  0  0  1  0  0  0  0  0999 V2000
    4.1670    2.6310    1.5520 C   0  0  0  0  0  0  0  0  0  0  0  0
    3.2700    1.6610    0.8570 C   0  0  0  0  0  0  0  0  0  0  0  0
    2.2820    2.2800   -0.0750 C   0  0  2  0  0  0  0  0  0  0  0  0
    2.9160    3.0630   -1.1830 C   0  0  0  0  0  0  0  0  0  0  0  0
    1.2390    3.1110    0.6250 C   0  0  2  0  0  0  0  0  0  0  0  0
    1.8290    4.2070    1.3710 N   0  0  0  0  0  0  0  0  0  0  0  0
    0.3530    2.2940    1.5000 C   0  0  0  0  0  0  0  0  0  0  0  0
    0.1800    2.5580    2.7210 O   0  0  0  0  0  0  0  0  0  0  0  0
    4.1360    3.6560    1.1870 H   0  0  0  0  0  0  0  0  0  0  0  0
    3.8510    2.6530    2.6320 H   0  0  0  0  0  0  0  0  0  0  0  0
    5.2320    2.2730    1.5380 H   0  0  0  0  0  0  0  0  0  0  0  0
    2.7050    1.0180    1.5740 H   0  0  0  0  0  0  0  0  0  0  0  0
    3.9010    0.9620    0.2520 H   0  0  0  0  0  0  0  0  0  0  0  0
    1.7260    1.4290   -0.5600 H   0  0  0  0  0  0  0  0  0  0  0  0
    3.4550    2.4090   -1.9080 H   0  0  0  0  0  0  0  0  0  0  0  0
    3.6380    3.7940   -0.7860 H   0  0  0  0  0  0  0  0  0  0  0  0
    2.1620    3.6410   -1.7520 H   0  0  0  0  0  0  0  0  0  0  0  0
    0.6210    3.5900   -0.1780 H   0  0  0  0  0  0  0  0  0  0  0  0
    1.4430    4.2470    2.3490 H   0  0  0  0  0  0  0  0  0  0  0  0
    1.6780    5.1290    0.9310 H   0  0  0  0  0  0  0  0  0  0  0  0
   -3.5650   -0.3930    2.2330 C   0  0  0  0  0  0  0  0  0  0  0  0
   -2.6620    0.4360    1.3470 C   0  0  0  0  0  0  0  0  0  0  0  0
   -2.7900   -0.1090   -0.0590 C   0  0  0  0  0  0  0  0  0  0  0  0
   -1.2130    0.3650    1.8450 C   0  0  2  0  0  0  0  0  0  0  0  0
   -0.3500    1.1620    0.9930 N   0  0  0  0  0  0  0  0  0  0  0  0
   -0.7640   -1.0470    1.7510 C   0  0  0  0  0  0  0  0  0  0  0  0
   -1.3460   -1.9710    2.4050 O   0  0  0  0  0  0  0  0  0  0  0  0
   -4.5980   -0.0190    2.2580 H   0  0  0  0  0  0  0  0  0  0  0  0
   -3.1130   -0.4830    3.2430 H   0  0  0  0  0  0  0  0  0  0  0  0
   -3.6030   -1.4150    1.8100 H   0  0  0  0  0  0  0  0  0  0  0  0
   -3.0090    1.4900    1.3430 H   0  0  0  0  0  0  0  0  0  0  0  0
   -3.5290    0.5090   -0.6470 H   0  0  0  0  0  0  0  0  0  0  0  0
   -1.8570   -0.0700   -0.6200 H   0  0  0  0  0  0  0  0  0  0  0  0
   -3.2470   -1.1390   -0.0590 H   0  0  0  0  0  0  0  0  0  0  0  0
   -1.2370    0.7320    2.8750 H   0  0  0  0  0  0  0  0  0  0  0  0
   -0.2030    0.9490   -0.0180 H   0  0  0  0  0  0  0  0  0  0  0  0
    0.3280   -1.4260    0.9300 N   0  0  0  0  0  0  0  0  0  0  0  0
    0.7370   -2.8110    0.8650 C   0  0  1  0  0  0  0  0  0  0  0  0
    0.6460   -3.4060   -0.5100 C   0  0  0  0  0  0  0  0  0  0  0  0
   -0.7350   -3.3770   -1.0580 C   0  0  0  0  0  0  0  0  0  0  0  0
   -1.2850   -2.5460   -2.0090 C   0  0  0  0  0  0  0  0  0  0  0  0
   -2.5710   -2.8930   -2.1850 N   0  0  0  0  0  0  0  0  0  0  0  0
   -2.8820   -3.9350   -1.3700 C   0  0  0  0  0  0  0  0  0  0  0  0
   -4.0610   -4.6540   -1.1720 C   0  0  0  0  0  0  0  0  0  0  0  0
   -4.1000   -5.6880   -0.2610 C   0  0  0  0  0  0  0  0  0  0  0  0
   -2.9470   -5.9830    0.4370 C   0  0  0  0  0  0  0  0  0  0  0  0
   -1.7840   -5.2910    0.2580 C   0  0  0  0  0  0  0  0  0  0  0  0
   -1.7400   -4.2450   -0.6610 C   0  0  0  0  0  0  0  0  0  0  0  0
    2.1440   -2.9840    1.3360 C   0  0  0  0  0  0  0  0  0  0  0  0
    2.8470   -2.0080    1.7320 O   0  0  0  0  0  0  0  0  0  0  0  0
    2.7220   -4.2450    1.3490 O   0  0  0  0  0  0  0  0  0  0  0  0
    0.8660   -0.7450    0.3580 H   0  0  0  0  0  0  0  0  0  0  0  0
    0.0870   -3.4260    1.5350 H   0  0  0  0  0  0  0  0  0  0  0  0
    1.0640   -4.4180   -0.4690 H   0  0  0  0  0  0  0  0  0  0  0  0
    1.2720   -2.7760   -1.1880 H   0  0  0  0  0  0  0  0  0  0  0  0
   -0.7270   -1.7480   -2.5120 H   0  0  0  0  0  0  0  0  0  0  0  0
   -3.2650   -2.4580   -2.8360 H   0  0  0  0  0  0  0  0  0  0  0  0
   -4.9320   -4.3830   -1.7430 H   0  0  0  0  0  0  0  0  0  0  0  0
   -5.0240   -6.2590   -0.1000 H   0  0  0  0  0  0  0  0  0  0  0  0
   -2.9570   -6.7910    1.1560 H   0  0  0  0  0  0  0  0  0  0  0  0
   -0.8660   -5.4940    0.7850 H   0  0  0  0  0  0  0  0  0  0  0  0
  1 10  1  0  0  0  0
  2  1  1  0  0  0  0
  2 12  1  0  0  0  0
  3 14  1  6  0  0  0
  3  5  1  0  0  0  0
  3  2  1  0  0  0  0
  4 16  1  0  0  0  0
  4  3  1  0  0  0  0
  5 18  1  6  0  0  0
  5  6  1  0  0  0  0
  5  7  1  0  0  0  0
  6 19  1  0  0  0  0
  7  8  2  0  0  0  0
  9  1  1  0  0  0  0
 11  1  1  0  0  0  0
 13  2  1  0  0  0  0
 15  4  1  0  0  0  0
 17  4  1  0  0  0  0
 20  6  1  0  0  0  0
 21 28  1  0  0  0  0
 21 29  1  0  0  0  0
 22 24  1  0  0  0  0
 22 21  1  0  0  0  0
 23 34  1  0  0  0  0
 23 22  1  0  0  0  0
 24 35  1  1  0  0  0
 25  7  1  0  0  0  0
 25 24  1  0  0  0  0
 26 24  1  0  0  0  0
 26 27  2  0  0  0  0
 30 21  1  0  0  0  0
 31 22  1  0  0  0  0
 32 23  1  0  0  0  0
 33 23  1  0  0  0  0
 36 25  1  0  0  0  0
 37 26  1  0  0  0  0
 38 37  1  0  0  0  0
 38 49  1  0  0  0  0
 38 53  1  1  0  0  0
 39 54  1  0  0  0  0
 39 38  1  0  0  0  0
 40 48  1  0  0  0  0
 40 39  1  0  0  0  0
 41 40  2  0  0  0  0
 42 41  1  0  0  0  0
 42 43  1  0  0  0  0
 43 44  2  0  0  0  0
 43 48  1  0  0  0  0
 44 45  1  0  0  0  0
 45 59  1  0  0  0  0
 45 46  2  0  0  0  0
 46 60  1  0  0  0  0
 47 46  1  0  0  0  0
 47 61  1  0  0  0  0
 48 47  2  0  0  0  0
 49 51  2  0  0  0  0
 49 50  1  0  0  0  0
 52 37  1  0  0  0  0
 55 39  1  0  0  0  0
 56 41  1  0  0  0  0
 57 42  1  0  0  0  0
 58 44  1  0  0  0  0
M  END
$$$$
