IVY.pdb
 OpenBabel07022418443D

 58 58  0  0  1  0  0  0  0  0999 V2000
    1.7580    2.1330   -3.3740 C   0  0  0  0  0  0  0  0  0  0  0  0
    1.5100    2.9230   -2.1070 C   0  0  0  0  0  0  0  0  0  0  0  0
    2.1130    2.2110   -0.8880 C   0  0  2  0  0  0  0  0  0  0  0  0
    3.5900    2.0990   -1.1570 C   0  0  0  0  0  0  0  0  0  0  0  0
    1.4220    0.8870   -0.7910 C   0  0  2  0  0  0  0  0  0  0  0  0
    0.0030    1.1590   -0.6220 N   0  0  0  0  0  0  0  0  0  0  0  0
    1.9070    0.0490    0.3270 C   0  0  0  0  0  0  0  0  0  0  0  0
    3.1080   -0.2990    0.3700 O   0  0  0  0  0  0  0  0  0  0  0  0
    0.9480    1.3880   -3.5570 H   0  0  0  0  0  0  0  0  0  0  0  0
    2.7620    1.7060   -3.4360 H   0  0  0  0  0  0  0  0  0  0  0  0
    1.6570    2.8660   -4.2250 H   0  0  0  0  0  0  0  0  0  0  0  0
    0.4090    2.9930   -1.9790 H   0  0  0  0  0  0  0  0  0  0  0  0
    1.9810    3.9130   -2.2530 H   0  0  0  0  0  0  0  0  0  0  0  0
    1.8660    2.8380   -0.0150 H   0  0  0  0  0  0  0  0  0  0  0  0
    4.0990    2.2660   -0.1630 H   0  0  0  0  0  0  0  0  0  0  0  0
    3.9750    2.9140   -1.8070 H   0  0  0  0  0  0  0  0  0  0  0  0
    3.8860    1.1540   -1.6090 H   0  0  0  0  0  0  0  0  0  0  0  0
    1.5230    0.3370   -1.7440 H   0  0  0  0  0  0  0  0  0  0  0  0
   -0.5650    0.3010   -0.5730 H   0  0  0  0  0  0  0  0  0  0  0  0
   -0.1480    1.8430    0.1230 H   0  0  0  0  0  0  0  0  0  0  0  0
    1.7930   -1.4570    4.9030 C   0  0  0  0  0  0  0  0  0  0  0  0
    1.3100   -0.5260    3.8210 C   0  0  0  0  0  0  0  0  0  0  0  0
   -0.1490   -0.2310    4.0930 C   0  0  0  0  0  0  0  0  0  0  0  0
    1.5010   -1.2120    2.4850 C   0  0  2  0  0  0  0  0  0  0  0  0
    1.0690   -0.3990    1.3850 N   0  0  0  0  0  0  0  0  0  0  0  0
    0.7540   -2.4800    2.4660 C   0  0  0  0  0  0  0  0  0  0  0  0
    0.9650   -3.3420    3.3430 O   0  0  0  0  0  0  0  0  0  0  0  0
    2.1860   -0.8720    5.7850 H   0  0  0  0  0  0  0  0  0  0  0  0
    2.5810   -2.1630    4.5440 H   0  0  0  0  0  0  0  0  0  0  0  0
    0.9220   -2.0450    5.2830 H   0  0  0  0  0  0  0  0  0  0  0  0
    1.8640    0.4120    3.8670 H   0  0  0  0  0  0  0  0  0  0  0  0
   -0.7390   -1.1570    4.2560 H   0  0  0  0  0  0  0  0  0  0  0  0
   -0.1930    0.3450    5.0400 H   0  0  0  0  0  0  0  0  0  0  0  0
   -0.5980    0.4070    3.3070 H   0  0  0  0  0  0  0  0  0  0  0  0
    2.6080   -1.4340    2.4270 H   0  0  0  0  0  0  0  0  0  0  0  0
    0.0710   -0.1100    1.3550 H   0  0  0  0  0  0  0  0  0  0  0  0
   -4.2480   -0.0170   -2.5300 O   0  0  0  0  0  0  0  0  0  0  0  0
   -3.8120   -0.9190   -1.5630 C   0  0  0  0  0  0  0  0  0  0  0  0
   -3.8170   -2.2870   -1.7540 C   0  0  0  0  0  0  0  0  0  0  0  0
   -3.3880   -3.1810   -0.8030 C   0  0  0  0  0  0  0  0  0  0  0  0
   -2.9260   -2.7310    0.4080 C   0  0  0  0  0  0  0  0  0  0  0  0
   -2.4510   -3.6460    1.4770 C   0  0  0  0  0  0  0  0  0  0  0  0
   -0.9710   -3.9270    1.3620 C   0  0  2  0  0  0  0  0  0  0  0  0
   -0.2000   -2.7280    1.4600 N   0  0  0  0  0  0  0  0  0  0  0  0
   -0.6250   -4.6500    0.1200 C   0  0  0  0  0  0  0  0  0  0  0  0
   -1.1720   -5.7330   -0.1890 O   0  0  0  0  0  0  0  0  0  0  0  0
   -2.9100   -1.3710    0.6280 C   0  0  0  0  0  0  0  0  0  0  0  0
   -3.3440   -0.4890   -0.3380 C   0  0  0  0  0  0  0  0  0  0  0  0
    0.3310   -4.1110   -0.7230 O   0  0  0  0  0  0  0  0  0  0  0  0
   -4.2210   -0.3450   -3.4920 H   0  0  0  0  0  0  0  0  0  0  0  0
   -4.1900   -2.6320   -2.7300 H   0  0  0  0  0  0  0  0  0  0  0  0
   -3.4210   -4.2360   -1.0250 H   0  0  0  0  0  0  0  0  0  0  0  0
   -2.6550   -3.2120    2.4600 H   0  0  0  0  0  0  0  0  0  0  0  0
   -3.0240   -4.5910    1.3930 H   0  0  0  0  0  0  0  0  0  0  0  0
   -0.6700   -4.6000    2.2070 H   0  0  0  0  0  0  0  0  0  0  0  0
   -0.3550   -1.9900    0.7370 H   0  0  0  0  0  0  0  0  0  0  0  0
   -2.5500   -0.9570    1.5800 H   0  0  0  0  0  0  0  0  0  0  0  0
   -3.3370    0.5960   -0.1780 H   0  0  0  0  0  0  0  0  0  0  0  0
  1  2  1  0  0  0  0
  2 12  1  0  0  0  0
  2  3  1  0  0  0  0
  3  5  1  0  0  0  0
  3 14  1  1  0  0  0
  4  3  1  0  0  0  0
  4 15  1  0  0  0  0
  5 18  1  6  0  0  0
  5  6  1  0  0  0  0
  5  7  1  0  0  0  0
  6 19  1  0  0  0  0
  6 20  1  0  0  0  0
  7  8  2  0  0  0  0
  7 25  1  0  0  0  0
  9  1  1  0  0  0  0
 10  1  1  0  0  0  0
 11  1  1  0  0  0  0
 13  2  1  0  0  0  0
 16  4  1  0  0  0  0
 17  4  1  0  0  0  0
 21 30  1  0  0  0  0
 21 28  1  0  0  0  0
 22 31  1  0  0  0  0
 22 23  1  0  0  0  0
 22 21  1  0  0  0  0
 23 32  1  0  0  0  0
 23 33  1  0  0  0  0
 24 35  1  6  0  0  0
 24 22  1  0  0  0  0
 25 24  1  0  0  0  0
 26 24  1  0  0  0  0
 26 27  2  0  0  0  0
 29 21  1  0  0  0  0
 34 23  1  0  0  0  0
 36 25  1  0  0  0  0
 37 38  1  0  0  0  0
 38 48  1  0  0  0  0
 39 38  2  0  0  0  0
 39 40  1  0  0  0  0
 40 41  2  0  0  0  0
 41 47  1  0  0  0  0
 41 42  1  0  0  0  0
 42 53  1  0  0  0  0
 43 44  1  0  0  0  0
 43 42  1  0  0  0  0
 43 55  1  1  0  0  0
 44 26  1  0  0  0  0
 45 43  1  0  0  0  0
 46 45  1  0  0  0  0
 47 57  1  0  0  0  0
 48 58  1  0  0  0  0
 48 47  2  0  0  0  0
 49 45  2  0  0  0  0
 50 37  1  0  0  0  0
 51 39  1  0  0  0  0
 52 40  1  0  0  0  0
 54 42  1  0  0  0  0
 56 44  1  0  0  0  0
M  END
$$$$
