IWA.pdb
 OpenBabel07022418433D

 55 56  0  0  1  0  0  0  0  0999 V2000
    4.4910   -1.7190    1.2850 C   0  0  0  0  0  0  0  0  0  0  0  0
    3.6490   -1.3760    0.0960 C   0  0  0  0  0  0  0  0  0  0  0  0
    3.4560    0.1070   -0.0770 C   0  0  2  0  0  0  0  0  0  0  0  0
    4.8050    0.7620   -0.2570 C   0  0  0  0  0  0  0  0  0  0  0  0
    2.7720    0.7390    1.1060 C   0  0  2  0  0  0  0  0  0  0  0  0
    3.5500    0.5370    2.2870 N   0  0  0  0  0  0  0  0  0  0  0  0
    1.4100    0.2200    1.3150 C   0  0  0  0  0  0  0  0  0  0  0  0
    1.1110   -0.3140    2.4010 O   0  0  0  0  0  0  0  0  0  0  0  0
    5.2370   -0.9770    1.5640 H   0  0  0  0  0  0  0  0  0  0  0  0
    5.0460   -2.6910    1.1380 H   0  0  0  0  0  0  0  0  0  0  0  0
    3.8500   -1.9060    2.1800 H   0  0  0  0  0  0  0  0  0  0  0  0
    4.1470   -1.7640   -0.8160 H   0  0  0  0  0  0  0  0  0  0  0  0
    2.6820   -1.9180    0.1850 H   0  0  0  0  0  0  0  0  0  0  0  0
    2.8760    0.2910   -1.0030 H   0  0  0  0  0  0  0  0  0  0  0  0
    4.9830    1.5550    0.5030 H   0  0  0  0  0  0  0  0  0  0  0  0
    4.9240    1.1890   -1.2880 H   0  0  0  0  0  0  0  0  0  0  0  0
    5.6460    0.0300   -0.1590 H   0  0  0  0  0  0  0  0  0  0  0  0
    2.7590    1.8400    0.9060 H   0  0  0  0  0  0  0  0  0  0  0  0
    2.9420    0.4550    3.1380 H   0  0  0  0  0  0  0  0  0  0  0  0
    4.3370    1.2040    2.4090 H   0  0  0  0  0  0  0  0  0  0  0  0
    0.3820    0.2810    0.3540 N   0  0  0  0  0  0  0  0  0  0  0  0
   -0.9290   -0.2300    0.5880 C   0  0  1  0  0  0  0  0  0  0  0  0
   -1.9800    0.7990    0.5680 C   0  0  0  0  0  0  0  0  0  0  0  0
   -3.3380    0.4360    0.7870 C   0  0  0  0  0  0  0  0  0  0  0  0
   -4.3230    0.3270   -0.1770 C   0  0  0  0  0  0  0  0  0  0  0  0
   -5.4690   -0.0330    0.3870 N   0  0  0  0  0  0  0  0  0  0  0  0
   -5.3190   -0.1810    1.7100 C   0  0  0  0  0  0  0  0  0  0  0  0
   -6.1370   -0.5300    2.7650 C   0  0  0  0  0  0  0  0  0  0  0  0
   -5.5990   -0.5750    4.0410 C   0  0  0  0  0  0  0  0  0  0  0  0
   -4.2830   -0.2870    4.2990 C   0  0  0  0  0  0  0  0  0  0  0  0
   -3.4590    0.0630    3.2470 C   0  0  0  0  0  0  0  0  0  0  0  0
   -3.9830    0.1110    1.9790 C   0  0  0  0  0  0  0  0  0  0  0  0
   -1.1700   -1.2850   -0.4300 C   0  0  0  0  0  0  0  0  0  0  0  0
   -2.2840   -1.9110   -0.4700 O   0  0  0  0  0  0  0  0  0  0  0  0
    0.6310    0.7380   -0.5750 H   0  0  0  0  0  0  0  0  0  0  0  0
   -0.8890   -0.6510    1.6240 H   0  0  0  0  0  0  0  0  0  0  0  0
   -1.6880    1.5830    1.3350 H   0  0  0  0  0  0  0  0  0  0  0  0
   -1.9010    1.3240   -0.4080 H   0  0  0  0  0  0  0  0  0  0  0  0
   -4.2320    0.5000   -1.2560 H   0  0  0  0  0  0  0  0  0  0  0  0
   -6.3810   -0.1900   -0.0970 H   0  0  0  0  0  0  0  0  0  0  0  0
   -7.1800   -0.7610    2.5800 H   0  0  0  0  0  0  0  0  0  0  0  0
   -6.2480   -0.8490    4.8510 H   0  0  0  0  0  0  0  0  0  0  0  0
   -3.8320   -0.3140    5.2830 H   0  0  0  0  0  0  0  0  0  0  0  0
   -2.4160    0.3020    3.3750 H   0  0  0  0  0  0  0  0  0  0  0  0
   -0.3260   -2.1290   -3.7870 C   0  0  0  0  0  0  0  0  0  0  0  0
   -0.3990   -2.6620   -2.3930 C   0  0  2  0  0  0  0  0  0  0  0  0
   -0.1940   -1.6380   -1.3850 N   0  0  0  0  0  0  0  0  0  0  0  0
    0.4620   -3.8470   -2.1790 C   0  0  0  0  0  0  0  0  0  0  0  0
    0.3890   -4.8010   -2.9750 O   0  0  0  0  0  0  0  0  0  0  0  0
    1.3490   -3.9300   -1.1200 O   0  0  0  0  0  0  0  0  0  0  0  0
   -1.3190   -1.9780   -4.2220 H   0  0  0  0  0  0  0  0  0  0  0  0
    0.1840   -2.9140   -4.4070 H   0  0  0  0  0  0  0  0  0  0  0  0
    0.3170   -1.2300   -3.8810 H   0  0  0  0  0  0  0  0  0  0  0  0
   -1.4530   -3.0400   -2.2390 H   0  0  0  0  0  0  0  0  0  0  0  0
    0.7200   -1.1340   -1.3580 H   0  0  0  0  0  0  0  0  0  0  0  0
  1  9  1  0  0  0  0
  1 11  1  0  0  0  0
  2 13  1  0  0  0  0
  2  1  1  0  0  0  0
  3 14  1  6  0  0  0
  3  2  1  0  0  0  0
  3  5  1  0  0  0  0
  4 17  1  0  0  0  0
  4  3  1  0  0  0  0
  4 15  1  0  0  0  0
  5 18  1  6  0  0  0
  5  7  1  0  0  0  0
  5  6  1  0  0  0  0
  6 20  1  0  0  0  0
  6 19  1  0  0  0  0
  7  8  2  0  0  0  0
 10  1  1  0  0  0  0
 12  2  1  0  0  0  0
 16  4  1  0  0  0  0
 21 22  1  0  0  0  0
 21  7  1  0  0  0  0
 22 36  1  1  0  0  0
 23 22  1  0  0  0  0
 23 24  1  0  0  0  0
 23 37  1  0  0  0  0
 24 32  1  0  0  0  0
 25 26  1  0  0  0  0
 25 24  2  0  0  0  0
 26 27  1  0  0  0  0
 27 32  2  0  0  0  0
 27 28  1  0  0  0  0
 28 29  2  0  0  0  0
 29 30  1  0  0  0  0
 29 42  1  0  0  0  0
 30 43  1  0  0  0  0
 31 44  1  0  0  0  0
 31 30  2  0  0  0  0
 32 31  1  0  0  0  0
 33 22  1  0  0  0  0
 34 33  2  0  0  0  0
 35 21  1  0  0  0  0
 38 23  1  0  0  0  0
 39 25  1  0  0  0  0
 40 26  1  0  0  0  0
 41 28  1  0  0  0  0
 45 46  1  0  0  0  0
 46 54  1  1  0  0  0
 46 48  1  0  0  0  0
 46 47  1  0  0  0  0
 47 55  1  0  0  0  0
 47 33  1  0  0  0  0
 48 50  1  0  0  0  0
 49 48  2  0  0  0  0
 51 45  1  0  0  0  0
 52 45  1  0  0  0  0
 53 45  1  0  0  0  0
M  END
$$$$
