IWC.pdb
 OpenBabel07022418433D

 56 57  0  0  1  0  0  0  0  0999 V2000
   -0.9490    1.2090    5.2890 C   0  0  0  0  0  0  0  0  0  0  0  0
   -0.6210    0.0960    4.3070 C   0  0  0  0  0  0  0  0  0  0  0  0
    0.8520    0.1390    4.0530 C   0  0  2  0  0  0  0  0  0  0  0  0
    1.2000    1.4770    3.4650 C   0  0  0  0  0  0  0  0  0  0  0  0
    1.2780   -1.0370    3.2300 C   0  0  2  0  0  0  0  0  0  0  0  0
    2.7090   -0.9980    2.9800 N   0  0  0  0  0  0  0  0  0  0  0  0
    0.5040   -1.2580    2.0040 C   0  0  0  0  0  0  0  0  0  0  0  0
   -0.7460   -1.3730    1.9590 O   0  0  0  0  0  0  0  0  0  0  0  0
   -0.1140    1.2270    6.0450 H   0  0  0  0  0  0  0  0  0  0  0  0
   -0.9500    2.1580    4.7260 H   0  0  0  0  0  0  0  0  0  0  0  0
   -1.8880    0.9750    5.8040 H   0  0  0  0  0  0  0  0  0  0  0  0
   -0.9980   -0.8670    4.6490 H   0  0  0  0  0  0  0  0  0  0  0  0
   -1.1880    0.3820    3.3710 H   0  0  0  0  0  0  0  0  0  0  0  0
    1.3720    0.0800    5.0430 H   0  0  0  0  0  0  0  0  0  0  0  0
    1.8720    1.4150    2.5850 H   0  0  0  0  0  0  0  0  0  0  0  0
    0.2680    1.9920    3.0900 H   0  0  0  0  0  0  0  0  0  0  0  0
    1.6570    2.1500    4.2050 H   0  0  0  0  0  0  0  0  0  0  0  0
    1.1120   -1.9450    3.8800 H   0  0  0  0  0  0  0  0  0  0  0  0
    3.1360   -0.2660    3.5920 H   0  0  0  0  0  0  0  0  0  0  0  0
    3.1830   -1.8930    3.2430 H   0  0  0  0  0  0  0  0  0  0  0  0
    1.1340   -1.3640    0.7060 N   0  0  0  0  0  0  0  0  0  0  0  0
    0.3910   -1.5810   -0.5040 C   0  0  1  0  0  0  0  0  0  0  0  0
    0.5720   -0.4110   -1.4450 C   0  0  0  0  0  0  0  0  0  0  0  0
    0.0970    0.8580   -0.8370 C   0  0  0  0  0  0  0  0  0  0  0  0
    0.8770    1.8830   -0.3050 C   0  0  0  0  0  0  0  0  0  0  0  0
    0.0770    2.8670    0.1510 N   0  0  0  0  0  0  0  0  0  0  0  0
   -1.2260    2.5400   -0.0550 C   0  0  0  0  0  0  0  0  0  0  0  0
   -2.4070    3.1890    0.2220 C   0  0  0  0  0  0  0  0  0  0  0  0
   -3.6210    2.6230   -0.1000 C   0  0  0  0  0  0  0  0  0  0  0  0
   -3.6170    1.3880   -0.7080 C   0  0  0  0  0  0  0  0  0  0  0  0
   -2.4250    0.7550   -0.9770 C   0  0  0  0  0  0  0  0  0  0  0  0
   -1.2020    1.2970   -0.6660 C   0  0  0  0  0  0  0  0  0  0  0  0
    0.7230   -2.8690   -1.1550 C   0  0  0  0  0  0  0  0  0  0  0  0
    1.5830   -3.6300   -0.6400 O   0  0  0  0  0  0  0  0  0  0  0  0
    2.1690   -1.2780    0.6620 H   0  0  0  0  0  0  0  0  0  0  0  0
   -0.6860   -1.6220   -0.2400 H   0  0  0  0  0  0  0  0  0  0  0  0
    1.6540   -0.2570   -1.6960 H   0  0  0  0  0  0  0  0  0  0  0  0
    0.0540   -0.5370   -2.3950 H   0  0  0  0  0  0  0  0  0  0  0  0
    1.9590    1.8270   -0.2950 H   0  0  0  0  0  0  0  0  0  0  0  0
    0.3800    3.7630    0.6020 H   0  0  0  0  0  0  0  0  0  0  0  0
   -2.3980    4.1560    0.6980 H   0  0  0  0  0  0  0  0  0  0  0  0
   -4.5670    3.1420    0.1220 H   0  0  0  0  0  0  0  0  0  0  0  0
   -4.5410    0.9050   -0.9780 H   0  0  0  0  0  0  0  0  0  0  0  0
   -2.4030   -0.2320   -1.4610 H   0  0  0  0  0  0  0  0  0  0  0  0
    0.0700   -3.2340   -2.3530 N   0  0  0  0  0  0  0  0  0  0  0  0
    0.3570   -4.4740   -3.0240 C   0  0  1  0  0  0  0  0  0  0  0  0
   -0.8560   -5.3830   -3.0310 C   0  0  0  0  0  0  0  0  0  0  0  0
   -0.3830   -6.9080   -3.8980 S   0  0  0  0  0  0  0  0  0  0  0  0
    0.7590   -4.1880   -4.4080 C   0  0  0  0  0  0  0  0  0  0  0  0
    0.8110   -3.0130   -4.8410 O   0  0  0  0  0  0  0  0  0  0  0  0
    1.0940   -5.2140   -5.2810 O   0  0  0  0  0  0  0  0  0  0  0  0
   -0.6330   -2.5930   -2.7570 H   0  0  0  0  0  0  0  0  0  0  0  0
    1.1480   -5.0530   -2.4650 H   0  0  0  0  0  0  0  0  0  0  0  0
   -1.7050   -4.9350   -3.5930 H   0  0  0  0  0  0  0  0  0  0  0  0
   -1.1380   -5.6610   -2.0030 H   0  0  0  0  0  0  0  0  0  0  0  0
   -1.4610   -7.8320   -3.8410 H   0  0  0  0  0  0  0  0  0  0  0  0
  1 11  1  0  0  0  0
  1  9  1  0  0  0  0
  2 12  1  0  0  0  0
  2  1  1  0  0  0  0
  3  2  1  0  0  0  0
  3 14  1  1  0  0  0
  4  3  1  0  0  0  0
  4 17  1  0  0  0  0
  5 18  1  1  0  0  0
  5  3  1  0  0  0  0
  6  5  1  0  0  0  0
  6 20  1  0  0  0  0
  6 19  1  0  0  0  0
  7  5  1  0  0  0  0
  8  7  2  0  0  0  0
 10  1  1  0  0  0  0
 13  2  1  0  0  0  0
 15  4  1  0  0  0  0
 16  4  1  0  0  0  0
 21  7  1  0  0  0  0
 22 36  1  1  0  0  0
 22 21  1  0  0  0  0
 23 24  1  0  0  0  0
 23 22  1  0  0  0  0
 24 32  1  0  0  0  0
 24 25  2  0  0  0  0
 25 39  1  0  0  0  0
 25 26  1  0  0  0  0
 26 40  1  0  0  0  0
 27 26  1  0  0  0  0
 27 28  1  0  0  0  0
 28 41  1  0  0  0  0
 29 42  1  0  0  0  0
 29 28  2  0  0  0  0
 30 29  1  0  0  0  0
 31 30  2  0  0  0  0
 31 32  1  0  0  0  0
 32 27  2  0  0  0  0
 33 34  2  0  0  0  0
 33 22  1  0  0  0  0
 35 21  1  0  0  0  0
 37 23  1  0  0  0  0
 38 23  1  0  0  0  0
 43 30  1  0  0  0  0
 44 31  1  0  0  0  0
 45 33  1  0  0  0  0
 46 53  1  1  0  0  0
 46 45  1  0  0  0  0
 47 46  1  0  0  0  0
 47 55  1  0  0  0  0
 48 56  1  0  0  0  0
 48 47  1  0  0  0  0
 49 46  1  0  0  0  0
 50 49  1  0  0  0  0
 51 49  2  0  0  0  0
 52 45  1  0  0  0  0
 54 47  1  0  0  0  0
M  END
$$$$
