IWE.pdb
 OpenBabel07022418433D

 61 62  0  0  1  0  0  0  0  0999 V2000
    3.8190   -1.2100    4.4960 C   0  0  0  0  0  0  0  0  0  0  0  0
    4.4050   -0.5780    3.2610 C   0  0  0  0  0  0  0  0  0  0  0  0
    4.2210   -1.4970    2.0760 C   0  0  2  0  0  0  0  0  0  0  0  0
    4.8190   -0.8620    0.8290 C   0  0  0  0  0  0  0  0  0  0  0  0
    2.7910   -1.8930    1.8690 C   0  0  2  0  0  0  0  0  0  0  0  0
    2.7020   -2.7840    0.7280 N   0  0  0  0  0  0  0  0  0  0  0  0
    1.8710   -0.7680    1.6560 C   0  0  0  0  0  0  0  0  0  0  0  0
    1.8260    0.2920    2.3310 O   0  0  0  0  0  0  0  0  0  0  0  0
    3.8980   -2.3210    4.4170 H   0  0  0  0  0  0  0  0  0  0  0  0
    2.7620   -0.9520    4.5670 H   0  0  0  0  0  0  0  0  0  0  0  0
    4.3780   -0.9190    5.4290 H   0  0  0  0  0  0  0  0  0  0  0  0
    5.5180   -0.5260    3.4410 H   0  0  0  0  0  0  0  0  0  0  0  0
    4.0320    0.4460    3.0960 H   0  0  0  0  0  0  0  0  0  0  0  0
    4.8000   -2.4160    2.2810 H   0  0  0  0  0  0  0  0  0  0  0  0
    4.6670   -1.5070   -0.0410 H   0  0  0  0  0  0  0  0  0  0  0  0
    4.5220    0.1900    0.7070 H   0  0  0  0  0  0  0  0  0  0  0  0
    5.9330   -0.8620    1.0090 H   0  0  0  0  0  0  0  0  0  0  0  0
    2.4760   -2.4270    2.8140 H   0  0  0  0  0  0  0  0  0  0  0  0
    1.8090   -3.2980    0.7140 H   0  0  0  0  0  0  0  0  0  0  0  0
    2.7800   -2.2580   -0.1700 H   0  0  0  0  0  0  0  0  0  0  0  0
    0.9330   -0.8600    0.5960 N   0  0  0  0  0  0  0  0  0  0  0  0
   -0.0140    0.2400    0.3290 C   0  0  1  0  0  0  0  0  0  0  0  0
    0.1000    0.5330   -1.1150 C   0  0  0  0  0  0  0  0  0  0  0  0
   -0.7020    1.5940   -1.7000 C   0  0  0  0  0  0  0  0  0  0  0  0
   -0.2090    2.8980   -1.8380 C   0  0  0  0  0  0  0  0  0  0  0  0
   -1.1380    3.6960   -2.3710 N   0  0  0  0  0  0  0  0  0  0  0  0
   -2.2450    2.9220   -2.5860 C   0  0  0  0  0  0  0  0  0  0  0  0
   -3.4820    3.2180   -3.1260 C   0  0  0  0  0  0  0  0  0  0  0  0
   -4.4700    2.2760   -3.2740 C   0  0  0  0  0  0  0  0  0  0  0  0
   -4.1810    0.9900   -2.8570 C   0  0  0  0  0  0  0  0  0  0  0  0
   -2.9740    0.6590   -2.3200 C   0  0  0  0  0  0  0  0  0  0  0  0
   -1.9910    1.6310   -2.1790 C   0  0  0  0  0  0  0  0  0  0  0  0
   -1.3290   -0.2420    0.7560 C   0  0  0  0  0  0  0  0  0  0  0  0
   -2.4070    0.4030    0.6780 O   0  0  0  0  0  0  0  0  0  0  0  0
    0.8390   -1.6740   -0.0500 H   0  0  0  0  0  0  0  0  0  0  0  0
    0.2630    1.1170    0.9790 H   0  0  0  0  0  0  0  0  0  0  0  0
   -0.1300   -0.4440   -1.6650 H   0  0  0  0  0  0  0  0  0  0  0  0
    1.2030    0.6650   -1.3610 H   0  0  0  0  0  0  0  0  0  0  0  0
    0.7890    3.2560   -1.5620 H   0  0  0  0  0  0  0  0  0  0  0  0
   -1.0830    4.7120   -2.5970 H   0  0  0  0  0  0  0  0  0  0  0  0
   -3.6480    4.2550   -3.4380 H   0  0  0  0  0  0  0  0  0  0  0  0
   -5.4460    2.5270   -3.7030 H   0  0  0  0  0  0  0  0  0  0  0  0
   -4.9770    0.2310   -2.9770 H   0  0  0  0  0  0  0  0  0  0  0  0
   -2.7290   -0.3490   -1.9820 H   0  0  0  0  0  0  0  0  0  0  0  0
   -1.4830   -1.5570    1.3340 N   0  0  0  0  0  0  0  0  0  0  0  0
   -2.7560   -2.0490    1.7690 C   0  0  1  0  0  0  0  0  0  0  0  0
   -2.9570   -3.4840    1.4630 C   0  0  0  0  0  0  0  0  0  0  0  0
   -2.9040   -3.8130    0.0190 C   0  0  0  0  0  0  0  0  0  0  0  0
   -1.6290   -3.5890   -0.6760 C   0  0  0  0  0  0  0  0  0  0  0  0
   -0.6180   -4.1990   -0.1910 O   0  0  0  0  0  0  0  0  0  0  0  0
   -2.9040   -1.8040    3.2610 C   0  0  0  0  0  0  0  0  0  0  0  0
   -1.9770   -1.2520    3.8680 O   0  0  0  0  0  0  0  0  0  0  0  0
   -1.5090   -2.7750   -1.7890 O   0  0  0  0  0  0  0  0  0  0  0  0
   -4.0530   -2.1940    3.9110 O   0  0  0  0  0  0  0  0  0  0  0  0
   -0.6380   -2.1320    1.4410 H   0  0  0  0  0  0  0  0  0  0  0  0
   -3.5910   -1.4480    1.3240 H   0  0  0  0  0  0  0  0  0  0  0  0
   -2.1080   -4.0840    1.9530 H   0  0  0  0  0  0  0  0  0  0  0  0
   -3.8780   -3.9010    1.9600 H   0  0  0  0  0  0  0  0  0  0  0  0
   -3.1220   -4.9310   -0.0560 H   0  0  0  0  0  0  0  0  0  0  0  0
   -3.7090   -3.2890   -0.5740 H   0  0  0  0  0  0  0  0  0  0  0  0
   -0.5850   -2.7300   -2.2260 H   0  0  0  0  0  0  0  0  0  0  0  0
  1 10  1  0  0  0  0
  1 11  1  0  0  0  0
  2 12  1  0  0  0  0
  2  1  1  0  0  0  0
  3 14  1  1  0  0  0
  3  2  1  0  0  0  0
  4 17  1  0  0  0  0
  4  3  1  0  0  0  0
  5  3  1  0  0  0  0
  5 18  1  1  0  0  0
  6  5  1  0  0  0  0
  7  5  1  0  0  0  0
  7  8  2  0  0  0  0
  9  1  1  0  0  0  0
 13  2  1  0  0  0  0
 15  4  1  0  0  0  0
 16  4  1  0  0  0  0
 19  6  1  0  0  0  0
 20  6  1  0  0  0  0
 21  7  1  0  0  0  0
 22 21  1  0  0  0  0
 22 33  1  0  0  0  0
 22 36  1  1  0  0  0
 23 22  1  0  0  0  0
 24 23  1  0  0  0  0
 25 24  2  0  0  0  0
 25 39  1  0  0  0  0
 26 25  1  0  0  0  0
 27 26  1  0  0  0  0
 27 32  1  0  0  0  0
 28 27  2  0  0  0  0
 29 28  1  0  0  0  0
 29 30  2  0  0  0  0
 30 31  1  0  0  0  0
 31 32  2  0  0  0  0
 31 44  1  0  0  0  0
 32 24  1  0  0  0  0
 33 45  1  0  0  0  0
 34 33  2  0  0  0  0
 35 21  1  0  0  0  0
 37 23  1  0  0  0  0
 38 23  1  0  0  0  0
 40 26  1  0  0  0  0
 41 28  1  0  0  0  0
 42 29  1  0  0  0  0
 43 30  1  0  0  0  0
 45 55  1  0  0  0  0
 45 46  1  0  0  0  0
 46 56  1  6  0  0  0
 46 51  1  0  0  0  0
 47 46  1  0  0  0  0
 47 57  1  0  0  0  0
 47 58  1  0  0  0  0
 48 47  1  0  0  0  0
 49 50  2  0  0  0  0
 49 48  1  0  0  0  0
 51 52  2  0  0  0  0
 51 54  1  0  0  0  0
 53 49  1  0  0  0  0
 59 48  1  0  0  0  0
 60 48  1  0  0  0  0
 61 53  1  0  0  0  0
M  END
$$$$
