IWH.pdb
 OpenBabel07022418433D

 62 64  0  0  1  0  0  0  0  0999 V2000
    1.8190   -0.6140    4.8430 C   0  0  0  0  0  0  0  0  0  0  0  0
    2.1180    0.4230    3.8070 C   0  0  0  0  0  0  0  0  0  0  0  0
    2.9320   -0.1070    2.6570 C   0  0  2  0  0  0  0  0  0  0  0  0
    3.2070    0.9760    1.6400 C   0  0  0  0  0  0  0  0  0  0  0  0
    2.3040   -1.2570    1.9420 C   0  0  2  0  0  0  0  0  0  0  0  0
    3.2240   -1.6370    0.8650 N   0  0  0  0  0  0  0  0  0  0  0  0
    0.9570   -0.9310    1.3650 C   0  0  0  0  0  0  0  0  0  0  0  0
   -0.0080   -0.5970    2.0740 O   0  0  0  0  0  0  0  0  0  0  0  0
    0.8800   -1.1640    4.6840 H   0  0  0  0  0  0  0  0  0  0  0  0
    1.7290   -0.0910    5.8220 H   0  0  0  0  0  0  0  0  0  0  0  0
    2.6920   -1.3200    4.9670 H   0  0  0  0  0  0  0  0  0  0  0  0
    2.7640    1.2080    4.2980 H   0  0  0  0  0  0  0  0  0  0  0  0
    1.2190    0.9310    3.4640 H   0  0  0  0  0  0  0  0  0  0  0  0
    3.9130   -0.4630    3.0450 H   0  0  0  0  0  0  0  0  0  0  0  0
    2.5100    0.9190    0.7750 H   0  0  0  0  0  0  0  0  0  0  0  0
    3.0880    1.9470    2.1370 H   0  0  0  0  0  0  0  0  0  0  0  0
    4.2510    0.8770    1.2830 H   0  0  0  0  0  0  0  0  0  0  0  0
    2.1950   -2.1740    2.5680 H   0  0  0  0  0  0  0  0  0  0  0  0
    2.9370   -2.5370    0.4220 H   0  0  0  0  0  0  0  0  0  0  0  0
    3.3630   -0.8750    0.1800 H   0  0  0  0  0  0  0  0  0  0  0  0
    0.7120   -0.9880   -0.0430 N   0  0  0  0  0  0  0  0  0  0  0  0
   -0.5390   -0.6960   -0.6510 C   0  0  1  0  0  0  0  0  0  0  0  0
   -0.5550    0.3970   -1.6630 C   0  0  0  0  0  0  0  0  0  0  0  0
   -0.1250    1.7070   -1.1090 C   0  0  0  0  0  0  0  0  0  0  0  0
    1.0480    2.3900   -1.2440 C   0  0  0  0  0  0  0  0  0  0  0  0
    0.9760    3.5420   -0.5590 N   0  0  0  0  0  0  0  0  0  0  0  0
   -0.2370    3.6480    0.0410 C   0  0  0  0  0  0  0  0  0  0  0  0
   -0.7830    4.6460    0.8480 C   0  0  0  0  0  0  0  0  0  0  0  0
   -2.0630    4.5030    1.3360 C   0  0  0  0  0  0  0  0  0  0  0  0
   -2.7450    3.3570    0.9890 C   0  0  0  0  0  0  0  0  0  0  0  0
   -2.2150    2.3660    0.1930 C   0  0  0  0  0  0  0  0  0  0  0  0
   -0.9280    2.5060   -0.2990 C   0  0  0  0  0  0  0  0  0  0  0  0
   -1.0590   -1.9700   -1.2820 C   0  0  0  0  0  0  0  0  0  0  0  0
   -2.1600   -1.9620   -1.8770 O   0  0  0  0  0  0  0  0  0  0  0  0
    1.5260   -1.2660   -0.6360 H   0  0  0  0  0  0  0  0  0  0  0  0
   -1.3120   -0.4380    0.1180 H   0  0  0  0  0  0  0  0  0  0  0  0
   -1.6320    0.5460   -1.9630 H   0  0  0  0  0  0  0  0  0  0  0  0
   -0.0340    0.1540   -2.6100 H   0  0  0  0  0  0  0  0  0  0  0  0
    1.8830    2.0010   -1.8370 H   0  0  0  0  0  0  0  0  0  0  0  0
    1.7340    4.2450   -0.4970 H   0  0  0  0  0  0  0  0  0  0  0  0
   -0.2310    5.5370    1.1080 H   0  0  0  0  0  0  0  0  0  0  0  0
   -2.5210    5.2700    1.9740 H   0  0  0  0  0  0  0  0  0  0  0  0
   -3.7500    3.2300    1.3640 H   0  0  0  0  0  0  0  0  0  0  0  0
   -2.7450    1.4720   -0.0790 H   0  0  0  0  0  0  0  0  0  0  0  0
   -0.3250   -3.1720   -1.2140 N   0  0  0  0  0  0  0  0  0  0  0  0
   -0.7020   -4.4400   -1.7790 C   0  0  1  0  0  0  0  0  0  0  0  0
   -1.5220   -5.2000   -0.7910 C   0  0  0  0  0  0  0  0  0  0  0  0
   -2.7670   -4.5460   -0.3620 C   0  0  0  0  0  0  0  0  0  0  0  0
   -2.9520   -3.7000    0.7120 C   0  0  0  0  0  0  0  0  0  0  0  0
   -4.2570   -3.3290    0.7550 N   0  0  0  0  0  0  0  0  0  0  0  0
   -4.8750   -3.9330   -0.2740 C   0  0  0  0  0  0  0  0  0  0  0  0
   -3.9690   -4.6700   -0.9490 N   0  0  0  0  0  0  0  0  0  0  0  0
   -1.2540   -4.3620   -3.1340 C   0  0  0  0  0  0  0  0  0  0  0  0
   -1.7300   -5.3920   -3.6950 O   0  0  0  0  0  0  0  0  0  0  0  0
   -1.2760   -3.1970   -3.8400 O   0  0  0  0  0  0  0  0  0  0  0  0
    0.6050   -3.0990   -0.6760 H   0  0  0  0  0  0  0  0  0  0  0  0
    0.2870   -5.0240   -1.8430 H   0  0  0  0  0  0  0  0  0  0  0  0
   -1.7240   -6.2480   -1.1020 H   0  0  0  0  0  0  0  0  0  0  0  0
   -0.8670   -5.3190    0.1240 H   0  0  0  0  0  0  0  0  0  0  0  0
   -2.1970   -3.3660    1.4260 H   0  0  0  0  0  0  0  0  0  0  0  0
   -4.7260   -2.6890    1.4540 H   0  0  0  0  0  0  0  0  0  0  0  0
   -5.9300   -3.8740   -0.5640 H   0  0  0  0  0  0  0  0  0  0  0  0
  1 11  1  0  0  0  0
  1 10  1  0  0  0  0
  2 12  1  0  0  0  0
  2  1  1  0  0  0  0
  3 14  1  1  0  0  0
  3  2  1  0  0  0  0
  4 16  1  0  0  0  0
  4  3  1  0  0  0  0
  5 18  1  1  0  0  0
  5  3  1  0  0  0  0
  6  5  1  0  0  0  0
  7  5  1  0  0  0  0
  7  8  2  0  0  0  0
  9  1  1  0  0  0  0
 13  2  1  0  0  0  0
 15  4  1  0  0  0  0
 17  4  1  0  0  0  0
 19  6  1  0  0  0  0
 20  6  1  0  0  0  0
 21  7  1  0  0  0  0
 22 21  1  0  0  0  0
 22 36  1  1  0  0  0
 23 24  1  0  0  0  0
 23 22  1  0  0  0  0
 24 32  1  0  0  0  0
 25 24  2  0  0  0  0
 25 26  1  0  0  0  0
 26 40  1  0  0  0  0
 26 27  1  0  0  0  0
 27 28  1  0  0  0  0
 28 41  1  0  0  0  0
 28 29  2  0  0  0  0
 29 42  1  0  0  0  0
 30 29  1  0  0  0  0
 30 43  1  0  0  0  0
 31 30  2  0  0  0  0
 32 27  2  0  0  0  0
 32 31  1  0  0  0  0
 33 45  1  0  0  0  0
 33 22  1  0  0  0  0
 34 33  2  0  0  0  0
 35 21  1  0  0  0  0
 37 23  1  0  0  0  0
 38 23  1  0  0  0  0
 39 25  1  0  0  0  0
 44 31  1  0  0  0  0
 45 56  1  0  0  0  0
 46 57  1  6  0  0  0
 46 45  1  0  0  0  0
 46 47  1  0  0  0  0
 47 48  1  0  0  0  0
 47 59  1  0  0  0  0
 48 49  2  0  0  0  0
 49 50  1  0  0  0  0
 49 60  1  0  0  0  0
 50 61  1  0  0  0  0
 51 50  1  0  0  0  0
 52 48  1  0  0  0  0
 52 51  2  0  0  0  0
 53 46  1  0  0  0  0
 54 53  1  0  0  0  0
 55 53  2  0  0  0  0
 58 47  1  0  0  0  0
 62 51  1  0  0  0  0
M  END
$$$$
