IWN.pdb
 OpenBabel07022418433D

 59 60  0  0  1  0  0  0  0  0999 V2000
    2.2700   -0.1350    5.1530 C   0  0  0  0  0  0  0  0  0  0  0  0
    3.6060    0.0120    4.5220 C   0  0  0  0  0  0  0  0  0  0  0  0
    3.6530    0.6160    3.1670 C   0  0  2  0  0  0  0  0  0  0  0  0
    3.0610    2.0220    3.1250 C   0  0  0  0  0  0  0  0  0  0  0  0
    3.2950   -0.2370    2.0090 C   0  0  2  0  0  0  0  0  0  0  0  0
    3.4200    0.6060    0.8110 N   0  0  0  0  0  0  0  0  0  0  0  0
    2.0090   -0.9190    2.0350 C   0  0  0  0  0  0  0  0  0  0  0  0
    1.7210   -1.8020    2.8780 O   0  0  0  0  0  0  0  0  0  0  0  0
    2.1400   -1.1840    5.4810 H   0  0  0  0  0  0  0  0  0  0  0  0
    2.2340    0.4450    6.1320 H   0  0  0  0  0  0  0  0  0  0  0  0
    1.4160    0.2770    4.5800 H   0  0  0  0  0  0  0  0  0  0  0  0
    4.2320    0.6820    5.1870 H   0  0  0  0  0  0  0  0  0  0  0  0
    4.1320   -0.9850    4.4460 H   0  0  0  0  0  0  0  0  0  0  0  0
    4.7790    0.8380    3.0100 H   0  0  0  0  0  0  0  0  0  0  0  0
    3.7580    2.7800    3.5180 H   0  0  0  0  0  0  0  0  0  0  0  0
    2.1940    2.0120    3.8460 H   0  0  0  0  0  0  0  0  0  0  0  0
    2.6420    2.2770    2.1480 H   0  0  0  0  0  0  0  0  0  0  0  0
    4.1250   -0.9960    1.8850 H   0  0  0  0  0  0  0  0  0  0  0  0
    3.7740    0.0340   -0.0030 H   0  0  0  0  0  0  0  0  0  0  0  0
    4.1370    1.3540    0.9470 H   0  0  0  0  0  0  0  0  0  0  0  0
    1.0050   -0.6070    1.0850 N   0  0  0  0  0  0  0  0  0  0  0  0
   -0.3080   -1.2460    1.0450 C   0  0  1  0  0  0  0  0  0  0  0  0
   -1.3240   -0.2410    1.4520 C   0  0  0  0  0  0  0  0  0  0  0  0
   -1.3980    0.9860    0.6620 C   0  0  0  0  0  0  0  0  0  0  0  0
   -0.8420    2.2250    1.0540 C   0  0  0  0  0  0  0  0  0  0  0  0
   -1.0870    3.1190    0.0870 N   0  0  0  0  0  0  0  0  0  0  0  0
   -1.7640    2.5660   -0.9170 C   0  0  0  0  0  0  0  0  0  0  0  0
   -2.2360    3.0700   -2.1010 C   0  0  0  0  0  0  0  0  0  0  0  0
   -2.9340    2.2410   -2.9860 C   0  0  0  0  0  0  0  0  0  0  0  0
   -3.1470    0.9160   -2.6650 C   0  0  0  0  0  0  0  0  0  0  0  0
   -2.6560    0.4500   -1.4650 C   0  0  0  0  0  0  0  0  0  0  0  0
   -1.9590    1.2490   -0.5670 C   0  0  0  0  0  0  0  0  0  0  0  0
   -0.5600   -2.0550   -0.1280 C   0  0  0  0  0  0  0  0  0  0  0  0
    0.2580   -2.0480   -1.1100 O   0  0  0  0  0  0  0  0  0  0  0  0
    1.1510    0.1270    0.3300 H   0  0  0  0  0  0  0  0  0  0  0  0
   -0.2550   -1.9790    1.9230 H   0  0  0  0  0  0  0  0  0  0  0  0
   -2.3660   -0.6760    1.4690 H   0  0  0  0  0  0  0  0  0  0  0  0
   -1.1430    0.0260    2.5350 H   0  0  0  0  0  0  0  0  0  0  0  0
   -0.3220    2.3580    1.9860 H   0  0  0  0  0  0  0  0  0  0  0  0
   -0.7850    4.1310    0.1110 H   0  0  0  0  0  0  0  0  0  0  0  0
   -2.1090    4.0940   -2.4220 H   0  0  0  0  0  0  0  0  0  0  0  0
   -3.3220    2.5970   -3.9270 H   0  0  0  0  0  0  0  0  0  0  0  0
   -3.6940    0.2600   -3.3530 H   0  0  0  0  0  0  0  0  0  0  0  0
   -2.8010   -0.5600   -1.1760 H   0  0  0  0  0  0  0  0  0  0  0  0
   -0.6010   -6.0300   -3.3960 N   0  0  0  0  0  0  0  0  0  0  0  0
   -1.6540   -5.9160   -2.4360 C   0  0  0  0  0  0  0  0  0  0  0  0
   -2.7360   -6.5080   -2.6970 O   0  0  0  0  0  0  0  0  0  0  0  0
   -1.4930   -5.1400   -1.1880 C   0  0  0  0  0  0  0  0  0  0  0  0
   -1.8490   -3.6810   -1.4930 C   0  0  2  0  0  0  0  0  0  0  0  0
   -1.6950   -2.8930   -0.2650 N   0  0  0  0  0  0  0  0  0  0  0  0
   -3.1890   -3.5600   -2.0560 C   0  0  0  0  0  0  0  0  0  0  0  0
   -4.1160   -2.9050   -1.4680 O   0  0  0  0  0  0  0  0  0  0  0  0
   -3.5720   -4.1330   -3.2600 O   0  0  0  0  0  0  0  0  0  0  0  0
   -0.4960   -6.9360   -3.9040 H   0  0  0  0  0  0  0  0  0  0  0  0
    0.0350   -5.2230   -3.5720 H   0  0  0  0  0  0  0  0  0  0  0  0
   -0.4550   -5.2310   -0.8590 H   0  0  0  0  0  0  0  0  0  0  0  0
   -2.2350   -5.5330   -0.4600 H   0  0  0  0  0  0  0  0  0  0  0  0
   -1.0990   -3.3630   -2.2430 H   0  0  0  0  0  0  0  0  0  0  0  0
   -2.4110   -2.9720    0.4580 H   0  0  0  0  0  0  0  0  0  0  0  0
  1  9  1  0  0  0  0
  1 10  1  0  0  0  0
  2  1  1  0  0  0  0
  2 12  1  0  0  0  0
  3 14  1  6  0  0  0
  3  2  1  0  0  0  0
  4  3  1  0  0  0  0
  4 15  1  0  0  0  0
  4 16  1  0  0  0  0
  5 18  1  6  0  0  0
  5  7  1  0  0  0  0
  5  3  1  0  0  0  0
  6 20  1  0  0  0  0
  6  5  1  0  0  0  0
  7  8  2  0  0  0  0
 11  1  1  0  0  0  0
 13  2  1  0  0  0  0
 17  4  1  0  0  0  0
 19  6  1  0  0  0  0
 21  7  1  0  0  0  0
 22 21  1  0  0  0  0
 22 23  1  0  0  0  0
 22 36  1  1  0  0  0
 23 37  1  0  0  0  0
 23 38  1  0  0  0  0
 24 25  2  0  0  0  0
 24 23  1  0  0  0  0
 25 39  1  0  0  0  0
 26 40  1  0  0  0  0
 26 25  1  0  0  0  0
 27 32  1  0  0  0  0
 27 26  1  0  0  0  0
 28 27  2  0  0  0  0
 29 30  2  0  0  0  0
 29 28  1  0  0  0  0
 30 31  1  0  0  0  0
 31 44  1  0  0  0  0
 31 32  2  0  0  0  0
 32 24  1  0  0  0  0
 33 22  1  0  0  0  0
 34 33  2  0  0  0  0
 35 21  1  0  0  0  0
 41 28  1  0  0  0  0
 42 29  1  0  0  0  0
 43 30  1  0  0  0  0
 45 46  1  0  0  0  0
 46 48  1  0  0  0  0
 47 46  2  0  0  0  0
 48 56  1  0  0  0  0
 48 57  1  0  0  0  0
 49 58  1  6  0  0  0
 49 48  1  0  0  0  0
 49 50  1  0  0  0  0
 50 33  1  0  0  0  0
 50 59  1  0  0  0  0
 51 49  1  0  0  0  0
 51 52  1  0  0  0  0
 53 51  2  0  0  0  0
 54 45  1  0  0  0  0
 55 45  1  0  0  0  0
M  END
$$$$
