IWP.pdb
 OpenBabel07022418433D

 59 61  0  0  1  0  0  0  0  0999 V2000
    0.5270   -0.4620    5.3470 C   0  0  0  0  0  0  0  0  0  0  0  0
    0.4800    0.3860    4.0950 C   0  0  0  0  0  0  0  0  0  0  0  0
    1.8490    0.4990    3.4580 C   0  0  2  0  0  0  0  0  0  0  0  0
    2.8470    1.1310    4.3920 C   0  0  0  0  0  0  0  0  0  0  0  0
    1.7670    1.3280    2.1680 C   0  0  2  0  0  0  0  0  0  0  0  0
    1.2690    2.6690    2.4930 N   0  0  0  0  0  0  0  0  0  0  0  0
    0.7960    0.6230    1.2830 C   0  0  0  0  0  0  0  0  0  0  0  0
   -0.3040    1.1670    1.0060 O   0  0  0  0  0  0  0  0  0  0  0  0
   -0.4480   -0.3640    5.8780 H   0  0  0  0  0  0  0  0  0  0  0  0
    1.3460   -0.1000    6.0200 H   0  0  0  0  0  0  0  0  0  0  0  0
    0.6770   -1.5480    5.1010 H   0  0  0  0  0  0  0  0  0  0  0  0
   -0.2770    0.0070    3.4060 H   0  0  0  0  0  0  0  0  0  0  0  0
    0.1720    1.4170    4.4150 H   0  0  0  0  0  0  0  0  0  0  0  0
    2.1930   -0.5300    3.2370 H   0  0  0  0  0  0  0  0  0  0  0  0
    3.1310    0.4610    5.2280 H   0  0  0  0  0  0  0  0  0  0  0  0
    2.3520    2.0190    4.8490 H   0  0  0  0  0  0  0  0  0  0  0  0
    3.7680    1.4450    3.8730 H   0  0  0  0  0  0  0  0  0  0  0  0
    2.7520    1.4470    1.6970 H   0  0  0  0  0  0  0  0  0  0  0  0
    2.0560    3.1520    2.9550 H   0  0  0  0  0  0  0  0  0  0  0  0
    1.1050    3.1360    1.5720 H   0  0  0  0  0  0  0  0  0  0  0  0
    1.0480   -0.6540    0.7250 N   0  0  0  0  0  0  0  0  0  0  0  0
    0.0470   -1.3070   -0.1420 C   0  0  1  0  0  0  0  0  0  0  0  0
    0.5770   -1.3070   -1.5780 C   0  0  0  0  0  0  0  0  0  0  0  0
    0.8020    0.1090   -2.0250 C   0  0  0  0  0  0  0  0  0  0  0  0
    1.9920    0.7770   -2.1420 C   0  0  0  0  0  0  0  0  0  0  0  0
    1.7160    2.0230   -2.5690 N   0  0  0  0  0  0  0  0  0  0  0  0
    0.3910    2.1860   -2.7330 C   0  0  0  0  0  0  0  0  0  0  0  0
   -0.3910    3.2670   -3.1500 C   0  0  0  0  0  0  0  0  0  0  0  0
   -1.7640    3.1670   -3.2340 C   0  0  0  0  0  0  0  0  0  0  0  0
   -2.3530    1.9650   -2.8940 C   0  0  0  0  0  0  0  0  0  0  0  0
   -1.5800    0.9040   -2.4840 C   0  0  0  0  0  0  0  0  0  0  0  0
   -0.1950    0.9870   -2.3930 C   0  0  0  0  0  0  0  0  0  0  0  0
   -0.1680   -2.6790    0.3580 C   0  0  0  0  0  0  0  0  0  0  0  0
    0.5670   -3.1160    1.3180 O   0  0  0  0  0  0  0  0  0  0  0  0
    1.9570   -1.1040    0.9500 H   0  0  0  0  0  0  0  0  0  0  0  0
   -0.8920   -0.7320   -0.1790 H   0  0  0  0  0  0  0  0  0  0  0  0
   -0.1450   -1.7460   -2.2850 H   0  0  0  0  0  0  0  0  0  0  0  0
    1.5040   -1.8830   -1.6380 H   0  0  0  0  0  0  0  0  0  0  0  0
    2.9750    0.3610   -1.9250 H   0  0  0  0  0  0  0  0  0  0  0  0
    2.4450    2.7450   -2.7440 H   0  0  0  0  0  0  0  0  0  0  0  0
    0.0850    4.1970   -3.4110 H   0  0  0  0  0  0  0  0  0  0  0  0
   -2.4010    3.9780   -3.5540 H   0  0  0  0  0  0  0  0  0  0  0  0
   -3.4310    1.8620   -2.9500 H   0  0  0  0  0  0  0  0  0  0  0  0
   -1.9940   -0.0700   -2.2050 H   0  0  0  0  0  0  0  0  0  0  0  0
   -1.1330   -3.5960   -0.1230 N   0  0  0  0  0  0  0  0  0  0  0  0
   -2.1190   -3.3860   -1.1650 C   0  0  0  0  0  0  0  0  0  0  0  0
   -3.3790   -3.8320   -0.3990 C   0  0  0  0  0  0  0  0  0  0  0  0
   -2.8710   -4.9990    0.3820 C   0  0  0  0  0  0  0  0  0  0  0  0
   -1.3560   -4.9610    0.3100 C   0  0  1  0  0  0  0  0  0  0  0  0
   -0.8150   -5.9460   -0.6390 C   0  0  0  0  0  0  0  0  0  0  0  0
   -0.2560   -5.5590   -1.6920 O   0  0  0  0  0  0  0  0  0  0  0  0
   -0.9100   -7.2980   -0.3960 O   0  0  0  0  0  0  0  0  0  0  0  0
   -2.2730   -2.3160   -1.4140 H   0  0  0  0  0  0  0  0  0  0  0  0
   -1.9840   -4.0310   -2.0410 H   0  0  0  0  0  0  0  0  0  0  0  0
   -3.7150   -3.0010    0.2550 H   0  0  0  0  0  0  0  0  0  0  0  0
   -4.1830   -4.1000   -1.1160 H   0  0  0  0  0  0  0  0  0  0  0  0
   -3.2030   -5.9290   -0.1220 H   0  0  0  0  0  0  0  0  0  0  0  0
   -3.2380   -5.0520    1.4220 H   0  0  0  0  0  0  0  0  0  0  0  0
   -0.9720   -5.1220    1.3470 H   0  0  0  0  0  0  0  0  0  0  0  0
  1  9  1  0  0  0  0
  1 10  1  0  0  0  0
  2 13  1  0  0  0  0
  2  1  1  0  0  0  0
  3 14  1  6  0  0  0
  3  2  1  0  0  0  0
  3  4  1  0  0  0  0
  4 16  1  0  0  0  0
  4 15  1  0  0  0  0
  5 18  1  6  0  0  0
  5  6  1  0  0  0  0
  5  3  1  0  0  0  0
  6 19  1  0  0  0  0
  7  5  1  0  0  0  0
  8  7  2  0  0  0  0
 11  1  1  0  0  0  0
 12  2  1  0  0  0  0
 17  4  1  0  0  0  0
 20  6  1  0  0  0  0
 21 35  1  0  0  0  0
 21  7  1  0  0  0  0
 22 36  1  1  0  0  0
 22 33  1  0  0  0  0
 22 21  1  0  0  0  0
 23 22  1  0  0  0  0
 24 23  1  0  0  0  0
 25 24  2  0  0  0  0
 25 39  1  0  0  0  0
 26 25  1  0  0  0  0
 27 26  1  0  0  0  0
 27 32  1  0  0  0  0
 28 27  2  0  0  0  0
 29 28  1  0  0  0  0
 29 30  2  0  0  0  0
 30 31  1  0  0  0  0
 31 32  2  0  0  0  0
 31 44  1  0  0  0  0
 32 24  1  0  0  0  0
 33 34  2  0  0  0  0
 37 23  1  0  0  0  0
 38 23  1  0  0  0  0
 40 26  1  0  0  0  0
 41 28  1  0  0  0  0
 42 29  1  0  0  0  0
 43 30  1  0  0  0  0
 45 49  1  0  0  0  0
 45 33  1  0  0  0  0
 46 47  1  0  0  0  0
 46 45  1  0  0  0  0
 47 55  1  0  0  0  0
 47 48  1  0  0  0  0
 48 58  1  0  0  0  0
 49 48  1  0  0  0  0
 49 59  1  1  0  0  0
 50 52  1  0  0  0  0
 50 49  1  0  0  0  0
 51 50  2  0  0  0  0
 53 46  1  0  0  0  0
 54 46  1  0  0  0  0
 56 47  1  0  0  0  0
 57 48  1  0  0  0  0
M  END
$$$$
