IWQ.pdb
 OpenBabel07022418433D

 62 63  0  0  1  0  0  0  0  0999 V2000
    3.1570   -1.5840    3.9960 C   0  0  0  0  0  0  0  0  0  0  0  0
    2.5040   -0.2320    3.8350 C   0  0  0  0  0  0  0  0  0  0  0  0
    3.0790    0.5410    2.6650 C   0  0  2  0  0  0  0  0  0  0  0  0
    4.5600    0.7380    2.9140 C   0  0  0  0  0  0  0  0  0  0  0  0
    2.3450    1.8670    2.6310 C   0  0  2  0  0  0  0  0  0  0  0  0
    2.6150    2.4920    3.9240 N   0  0  0  0  0  0  0  0  0  0  0  0
    0.9070    1.6710    2.4050 C   0  0  0  0  0  0  0  0  0  0  0  0
    0.0660    1.9660    3.2990 O   0  0  0  0  0  0  0  0  0  0  0  0
    3.5070   -2.0100    3.0580 H   0  0  0  0  0  0  0  0  0  0  0  0
    4.0400   -1.4140    4.6590 H   0  0  0  0  0  0  0  0  0  0  0  0
    2.4950   -2.3170    4.4970 H   0  0  0  0  0  0  0  0  0  0  0  0
    1.4150   -0.3970    3.7080 H   0  0  0  0  0  0  0  0  0  0  0  0
    2.6290    0.4040    4.7340 H   0  0  0  0  0  0  0  0  0  0  0  0
    2.9940   -0.0190    1.7110 H   0  0  0  0  0  0  0  0  0  0  0  0
    4.9650   -0.2900    3.1000 H   0  0  0  0  0  0  0  0  0  0  0  0
    5.0550    1.0950    1.9830 H   0  0  0  0  0  0  0  0  0  0  0  0
    4.7770    1.3990    3.7790 H   0  0  0  0  0  0  0  0  0  0  0  0
    2.8060    2.4790    1.8420 H   0  0  0  0  0  0  0  0  0  0  0  0
    1.8550    3.1840    4.1190 H   0  0  0  0  0  0  0  0  0  0  0  0
    3.5250    3.0010    3.8980 H   0  0  0  0  0  0  0  0  0  0  0  0
    0.4560    1.1490    1.1820 N   0  0  0  0  0  0  0  0  0  0  0  0
   -0.9440    0.9120    0.8520 C   0  0  1  0  0  0  0  0  0  0  0  0
   -1.4140    1.8750   -0.1960 C   0  0  0  0  0  0  0  0  0  0  0  0
   -0.7060    1.8770   -1.4590 C   0  0  0  0  0  0  0  0  0  0  0  0
    0.3520    2.7390   -1.7900 C   0  0  0  0  0  0  0  0  0  0  0  0
    0.8010    2.4390   -3.0200 N   0  0  0  0  0  0  0  0  0  0  0  0
    0.0840    1.4140   -3.5200 C   0  0  0  0  0  0  0  0  0  0  0  0
    0.1560    0.7690   -4.7190 C   0  0  0  0  0  0  0  0  0  0  0  0
   -0.7190   -0.2700   -5.0100 C   0  0  0  0  0  0  0  0  0  0  0  0
   -1.6520   -0.6360   -4.0790 C   0  0  0  0  0  0  0  0  0  0  0  0
   -1.7070    0.0270   -2.8770 C   0  0  0  0  0  0  0  0  0  0  0  0
   -0.8520    1.0700   -2.5430 C   0  0  0  0  0  0  0  0  0  0  0  0
   -1.1180   -0.4940    0.5000 C   0  0  0  0  0  0  0  0  0  0  0  0
   -0.0760   -1.1960    0.2870 O   0  0  0  0  0  0  0  0  0  0  0  0
    1.1590    0.9110    0.4510 H   0  0  0  0  0  0  0  0  0  0  0  0
   -1.5700    1.1280    1.7560 H   0  0  0  0  0  0  0  0  0  0  0  0
   -1.4110    2.9160    0.2460 H   0  0  0  0  0  0  0  0  0  0  0  0
   -2.5250    1.6730   -0.3100 H   0  0  0  0  0  0  0  0  0  0  0  0
    0.7790    3.5330   -1.1910 H   0  0  0  0  0  0  0  0  0  0  0  0
    1.5970    2.9150   -3.5450 H   0  0  0  0  0  0  0  0  0  0  0  0
    0.8820    1.0290   -5.4820 H   0  0  0  0  0  0  0  0  0  0  0  0
   -0.6500   -0.7650   -5.9570 H   0  0  0  0  0  0  0  0  0  0  0  0
   -2.3410   -1.4420   -4.2900 H   0  0  0  0  0  0  0  0  0  0  0  0
   -2.4700   -0.2860   -2.1780 H   0  0  0  0  0  0  0  0  0  0  0  0
   -3.7080   -6.7140    0.0440 N   0  0  0  0  0  0  0  0  0  0  0  0
   -3.6840   -5.4360    0.6630 C   0  0  0  0  0  0  0  0  0  0  0  0
   -4.7750   -4.7910    0.7600 O   0  0  0  0  0  0  0  0  0  0  0  0
   -2.4390   -4.8450    1.1950 C   0  0  0  0  0  0  0  0  0  0  0  0
   -2.3830   -3.3840    1.2920 C   0  0  0  0  0  0  0  0  0  0  0  0
   -2.3740   -2.5740    0.0240 C   0  0  2  0  0  0  0  0  0  0  0  0
   -2.3690   -1.1440    0.3840 N   0  0  0  0  0  0  0  0  0  0  0  0
   -3.3410   -2.9100   -0.9980 C   0  0  0  0  0  0  0  0  0  0  0  0
   -4.2720   -2.1280   -1.3370 O   0  0  0  0  0  0  0  0  0  0  0  0
   -3.3170   -4.1270   -1.6970 O   0  0  0  0  0  0  0  0  0  0  0  0
   -2.8530   -7.3060    0.0000 H   0  0  0  0  0  0  0  0  0  0  0  0
   -4.5750   -7.0950   -0.3830 H   0  0  0  0  0  0  0  0  0  0  0  0
   -2.2550   -5.2720    2.2280 H   0  0  0  0  0  0  0  0  0  0  0  0
   -1.6150   -5.3000    0.5890 H   0  0  0  0  0  0  0  0  0  0  0  0
   -1.4710   -3.0580    1.8800 H   0  0  0  0  0  0  0  0  0  0  0  0
   -3.2310   -3.0510    1.9580 H   0  0  0  0  0  0  0  0  0  0  0  0
   -1.3470   -2.7970   -0.4210 H   0  0  0  0  0  0  0  0  0  0  0  0
   -3.2540   -0.6160    0.5510 H   0  0  0  0  0  0  0  0  0  0  0  0
  1 11  1  0  0  0  0
  1 10  1  0  0  0  0
  2  1  1  0  0  0  0
  2 13  1  0  0  0  0
  3 14  1  6  0  0  0
  3  4  1  0  0  0  0
  3  2  1  0  0  0  0
  4 15  1  0  0  0  0
  4 17  1  0  0  0  0
  5 18  1  6  0  0  0
  5  3  1  0  0  0  0
  5  6  1  0  0  0  0
  6 19  1  0  0  0  0
  7  5  1  0  0  0  0
  7  8  2  0  0  0  0
  9  1  1  0  0  0  0
 12  2  1  0  0  0  0
 16  4  1  0  0  0  0
 20  6  1  0  0  0  0
 21  7  1  0  0  0  0
 22 21  1  0  0  0  0
 22 36  1  1  0  0  0
 23 37  1  0  0  0  0
 23 22  1  0  0  0  0
 24 23  1  0  0  0  0
 25 24  2  0  0  0  0
 25 39  1  0  0  0  0
 26 25  1  0  0  0  0
 27 26  1  0  0  0  0
 27 32  1  0  0  0  0
 28 27  2  0  0  0  0
 29 28  1  0  0  0  0
 29 30  2  0  0  0  0
 30 31  1  0  0  0  0
 31 32  2  0  0  0  0
 31 44  1  0  0  0  0
 32 24  1  0  0  0  0
 33 22  1  0  0  0  0
 34 33  2  0  0  0  0
 35 21  1  0  0  0  0
 38 23  1  0  0  0  0
 40 26  1  0  0  0  0
 41 28  1  0  0  0  0
 42 29  1  0  0  0  0
 43 30  1  0  0  0  0
 45 46  1  0  0  0  0
 46 47  2  0  0  0  0
 46 48  1  0  0  0  0
 48 49  1  0  0  0  0
 48 57  1  0  0  0  0
 49 59  1  0  0  0  0
 49 60  1  0  0  0  0
 50 61  1  6  0  0  0
 50 51  1  0  0  0  0
 50 49  1  0  0  0  0
 51 33  1  0  0  0  0
 51 62  1  0  0  0  0
 52 50  1  0  0  0  0
 53 52  1  0  0  0  0
 54 52  2  0  0  0  0
 55 45  1  0  0  0  0
 56 45  1  0  0  0  0
 58 48  1  0  0  0  0
M  END
$$$$
