IWR.pdb
 OpenBabel07022418433D

 68 69  0  0  1  0  0  0  0  0999 V2000
    2.9670    2.3500    5.5650 C   0  0  0  0  0  0  0  0  0  0  0  0
    2.5330    1.3690    4.5010 C   0  0  0  0  0  0  0  0  0  0  0  0
    3.6680    0.5020    4.0090 C   0  0  2  0  0  0  0  0  0  0  0  0
    4.7900    1.2840    3.4020 C   0  0  0  0  0  0  0  0  0  0  0  0
    3.1090   -0.5550    3.0800 C   0  0  2  0  0  0  0  0  0  0  0  0
    4.2760   -1.3550    2.6400 N   0  0  0  0  0  0  0  0  0  0  0  0
    2.5130   -0.0210    1.8600 C   0  0  0  0  0  0  0  0  0  0  0  0
    3.0850    0.9100    1.2530 O   0  0  0  0  0  0  0  0  0  0  0  0
    2.4250    3.3020    5.3810 H   0  0  0  0  0  0  0  0  0  0  0  0
    4.0800    2.4900    5.5450 H   0  0  0  0  0  0  0  0  0  0  0  0
    2.6600    2.0010    6.5710 H   0  0  0  0  0  0  0  0  0  0  0  0
    1.7850    0.6910    4.9560 H   0  0  0  0  0  0  0  0  0  0  0  0
    2.0150    1.8930    3.6660 H   0  0  0  0  0  0  0  0  0  0  0  0
    4.0590   -0.0240    4.9220 H   0  0  0  0  0  0  0  0  0  0  0  0
    5.6570    1.2780    4.0840 H   0  0  0  0  0  0  0  0  0  0  0  0
    5.1290    0.7830    2.4770 H   0  0  0  0  0  0  0  0  0  0  0  0
    4.5440    2.3630    3.2390 H   0  0  0  0  0  0  0  0  0  0  0  0
    2.4900   -1.2380    3.6720 H   0  0  0  0  0  0  0  0  0  0  0  0
    4.8950   -1.5880    3.4510 H   0  0  0  0  0  0  0  0  0  0  0  0
    3.9230   -2.2080    2.1500 H   0  0  0  0  0  0  0  0  0  0  0  0
    1.2910   -0.4780    1.2610 N   0  0  0  0  0  0  0  0  0  0  0  0
    0.7550    0.0970    0.0420 C   0  0  1  0  0  0  0  0  0  0  0  0
    1.2880   -0.5460   -1.1800 C   0  0  0  0  0  0  0  0  0  0  0  0
    0.7250    0.0090   -2.4120 C   0  0  0  0  0  0  0  0  0  0  0  0
    1.2400    1.1080   -3.1300 C   0  0  0  0  0  0  0  0  0  0  0  0
    0.4620    1.3630   -4.1810 N   0  0  0  0  0  0  0  0  0  0  0  0
   -0.5760    0.4900   -4.2340 C   0  0  0  0  0  0  0  0  0  0  0  0
   -1.6230    0.3330   -5.1240 C   0  0  0  0  0  0  0  0  0  0  0  0
   -2.5460   -0.6700   -4.9550 C   0  0  0  0  0  0  0  0  0  0  0  0
   -2.3770   -1.5030   -3.8650 C   0  0  0  0  0  0  0  0  0  0  0  0
   -1.3370   -1.3470   -2.9800 C   0  0  0  0  0  0  0  0  0  0  0  0
   -0.3990   -0.3330   -3.1440 C   0  0  0  0  0  0  0  0  0  0  0  0
   -0.6710    0.3330    0.0240 C   0  0  0  0  0  0  0  0  0  0  0  0
   -1.2010    0.9720   -0.9120 O   0  0  0  0  0  0  0  0  0  0  0  0
    0.8140   -1.2470    1.7540 H   0  0  0  0  0  0  0  0  0  0  0  0
    1.2520    1.1390    0.0120 H   0  0  0  0  0  0  0  0  0  0  0  0
    1.1620   -1.6490   -1.2220 H   0  0  0  0  0  0  0  0  0  0  0  0
    2.4050   -0.3860   -1.2470 H   0  0  0  0  0  0  0  0  0  0  0  0
    2.1440    1.6380   -2.8250 H   0  0  0  0  0  0  0  0  0  0  0  0
    0.6100    2.1200   -4.8660 H   0  0  0  0  0  0  0  0  0  0  0  0
   -1.7500    0.9890   -5.9740 H   0  0  0  0  0  0  0  0  0  0  0  0
   -3.3800   -0.8100   -5.6530 H   0  0  0  0  0  0  0  0  0  0  0  0
   -3.1050   -2.2900   -3.7380 H   0  0  0  0  0  0  0  0  0  0  0  0
   -1.1850   -1.9820   -2.1230 H   0  0  0  0  0  0  0  0  0  0  0  0
   -1.6660   -4.9500   -2.3860 N   0  0  0  0  0  0  0  0  0  0  0  0
   -2.3890   -4.7640   -1.1700 C   0  0  0  0  0  0  0  0  0  0  0  0
   -1.8310   -5.1240   -0.0700 N   0  0  0  0  0  0  0  0  0  0  0  0
   -3.6880   -4.2120   -1.1380 N   0  0  0  0  0  0  0  0  0  0  0  0
   -4.1150   -3.4050   -0.0270 C   0  0  0  0  0  0  0  0  0  0  0  0
   -3.3120   -2.0950   -0.0810 C   0  0  0  0  0  0  0  0  0  0  0  0
   -3.7060   -1.2110    1.0940 C   0  0  0  0  0  0  0  0  0  0  0  0
   -2.9500    0.0750    1.0230 C   0  0  2  0  0  0  0  0  0  0  0  0
   -1.5070   -0.1570    1.0600 N   0  0  0  0  0  0  0  0  0  0  0  0
   -3.3160    0.9960    2.1330 C   0  0  0  0  0  0  0  0  0  0  0  0
   -4.4970    1.3550    2.2880 O   0  0  0  0  0  0  0  0  0  0  0  0
   -2.3490    1.4580    3.0000 O   0  0  0  0  0  0  0  0  0  0  0  0
   -1.9090   -5.7450   -3.0220 H   0  0  0  0  0  0  0  0  0  0  0  0
   -0.8910   -4.2660   -2.6070 H   0  0  0  0  0  0  0  0  0  0  0  0
   -2.2640   -5.0370    0.8660 H   0  0  0  0  0  0  0  0  0  0  0  0
   -4.3300   -4.3950   -1.9280 H   0  0  0  0  0  0  0  0  0  0  0  0
   -3.9100   -3.8850    0.9410 H   0  0  0  0  0  0  0  0  0  0  0  0
   -5.1990   -3.1910   -0.1320 H   0  0  0  0  0  0  0  0  0  0  0  0
   -3.5860   -1.5880   -1.0190 H   0  0  0  0  0  0  0  0  0  0  0  0
   -2.2470   -2.4000   -0.0310 H   0  0  0  0  0  0  0  0  0  0  0  0
   -3.5870   -1.7420    2.0560 H   0  0  0  0  0  0  0  0  0  0  0  0
   -4.7870   -0.9890    0.9440 H   0  0  0  0  0  0  0  0  0  0  0  0
   -3.1680    0.5860    0.0680 H   0  0  0  0  0  0  0  0  0  0  0  0
   -1.1410   -0.6890    1.8670 H   0  0  0  0  0  0  0  0  0  0  0  0
  1 11  1  0  0  0  0
  2 12  1  0  0  0  0
  2  1  1  0  0  0  0
  3  2  1  0  0  0  0
  3 14  1  1  0  0  0
  4  3  1  0  0  0  0
  4 15  1  0  0  0  0
  5 18  1  1  0  0  0
  5  3  1  0  0  0  0
  6  5  1  0  0  0  0
  6 19  1  0  0  0  0
  7  5  1  0  0  0  0
  8  7  2  0  0  0  0
  9  1  1  0  0  0  0
 10  1  1  0  0  0  0
 13  2  1  0  0  0  0
 16  4  1  0  0  0  0
 17  4  1  0  0  0  0
 20  6  1  0  0  0  0
 21 35  1  0  0  0  0
 21  7  1  0  0  0  0
 22 36  1  6  0  0  0
 22 21  1  0  0  0  0
 23 22  1  0  0  0  0
 24 23  1  0  0  0  0
 25 39  1  0  0  0  0
 25 24  2  0  0  0  0
 26 25  1  0  0  0  0
 27 26  1  0  0  0  0
 27 32  1  0  0  0  0
 28 29  1  0  0  0  0
 28 27  2  0  0  0  0
 29 30  2  0  0  0  0
 30 43  1  0  0  0  0
 30 31  1  0  0  0  0
 31 44  1  0  0  0  0
 32 31  2  0  0  0  0
 32 24  1  0  0  0  0
 33 22  1  0  0  0  0
 33 53  1  0  0  0  0
 34 33  2  0  0  0  0
 37 23  1  0  0  0  0
 38 23  1  0  0  0  0
 40 26  1  0  0  0  0
 41 28  1  0  0  0  0
 42 29  1  0  0  0  0
 45 46  1  0  0  0  0
 46 48  1  0  0  0  0
 46 47  2  0  0  0  0
 47 59  1  0  0  0  0
 48 49  1  0  0  0  0
 49 61  1  0  0  0  0
 50 64  1  0  0  0  0
 50 49  1  0  0  0  0
 50 51  1  0  0  0  0
 51 65  1  0  0  0  0
 52 67  1  6  0  0  0
 52 53  1  0  0  0  0
 52 51  1  0  0  0  0
 52 54  1  0  0  0  0
 53 68  1  0  0  0  0
 54 55  2  0  0  0  0
 54 56  1  0  0  0  0
 57 45  1  0  0  0  0
 58 45  1  0  0  0  0
 60 48  1  0  0  0  0
 62 49  1  0  0  0  0
 63 50  1  0  0  0  0
 66 51  1  0  0  0  0
M  END
$$$$
