IWS.pdb
 OpenBabel07022418433D

 56 57  0  0  1  0  0  0  0  0999 V2000
   -0.7540    1.5290    5.1230 C   0  0  0  0  0  0  0  0  0  0  0  0
   -0.5520    0.2630    4.2800 C   0  0  0  0  0  0  0  0  0  0  0  0
    0.9150    0.1930    3.9480 C   0  0  2  0  0  0  0  0  0  0  0  0
    1.2710    1.4430    3.1630 C   0  0  0  0  0  0  0  0  0  0  0  0
    1.2480   -1.0760    3.2330 C   0  0  2  0  0  0  0  0  0  0  0  0
    2.6880   -1.0960    2.9360 N   0  0  0  0  0  0  0  0  0  0  0  0
    0.4640   -1.3150    2.0020 C   0  0  0  0  0  0  0  0  0  0  0  0
   -0.7870   -1.3750    1.9700 O   0  0  0  0  0  0  0  0  0  0  0  0
   -0.5690    1.2680    6.1820 H   0  0  0  0  0  0  0  0  0  0  0  0
   -0.0070    2.2560    4.7920 H   0  0  0  0  0  0  0  0  0  0  0  0
   -1.7970    1.8950    5.0060 H   0  0  0  0  0  0  0  0  0  0  0  0
   -0.9190   -0.6240    4.8280 H   0  0  0  0  0  0  0  0  0  0  0  0
   -1.1620    0.4300    3.3610 H   0  0  0  0  0  0  0  0  0  0  0  0
    1.5420    0.2170    4.8850 H   0  0  0  0  0  0  0  0  0  0  0  0
    1.8150    2.1650    3.8020 H   0  0  0  0  0  0  0  0  0  0  0  0
    1.9300    1.2080    2.2980 H   0  0  0  0  0  0  0  0  0  0  0  0
    0.3360    1.9610    2.8040 H   0  0  0  0  0  0  0  0  0  0  0  0
    1.0630   -1.9100    3.9350 H   0  0  0  0  0  0  0  0  0  0  0  0
    3.1370   -0.5340    3.7030 H   0  0  0  0  0  0  0  0  0  0  0  0
    3.0590   -2.0810    3.0690 H   0  0  0  0  0  0  0  0  0  0  0  0
    1.1160   -1.4990    0.7260 N   0  0  0  0  0  0  0  0  0  0  0  0
    0.3640   -1.7340   -0.4890 C   0  0  1  0  0  0  0  0  0  0  0  0
    0.5710   -0.6240   -1.4960 C   0  0  0  0  0  0  0  0  0  0  0  0
    0.1290    0.6780   -0.9340 C   0  0  0  0  0  0  0  0  0  0  0  0
    0.9050    1.7110   -0.4530 C   0  0  0  0  0  0  0  0  0  0  0  0
    0.1060    2.7120   -0.0360 N   0  0  0  0  0  0  0  0  0  0  0  0
   -1.1840    2.3930   -0.2180 C   0  0  0  0  0  0  0  0  0  0  0  0
   -2.3510    3.0810    0.0480 C   0  0  0  0  0  0  0  0  0  0  0  0
   -3.5660    2.5000   -0.2480 C   0  0  0  0  0  0  0  0  0  0  0  0
   -3.5560    1.2290   -0.8100 C   0  0  0  0  0  0  0  0  0  0  0  0
   -2.3820    0.5450   -1.0740 C   0  0  0  0  0  0  0  0  0  0  0  0
   -1.1860    1.1270   -0.7780 C   0  0  0  0  0  0  0  0  0  0  0  0
    0.6790   -3.0580   -1.0520 C   0  0  0  0  0  0  0  0  0  0  0  0
    1.4960   -3.8440   -0.5110 O   0  0  0  0  0  0  0  0  0  0  0  0
    2.1490   -1.4580    0.7060 H   0  0  0  0  0  0  0  0  0  0  0  0
   -0.7170   -1.7140   -0.2060 H   0  0  0  0  0  0  0  0  0  0  0  0
    1.6550   -0.5070   -1.7500 H   0  0  0  0  0  0  0  0  0  0  0  0
    0.0210   -0.7850   -2.4250 H   0  0  0  0  0  0  0  0  0  0  0  0
    1.9920    1.6670   -0.4370 H   0  0  0  0  0  0  0  0  0  0  0  0
    0.4420    3.6100    0.3720 H   0  0  0  0  0  0  0  0  0  0  0  0
   -2.3630    4.0700    0.4850 H   0  0  0  0  0  0  0  0  0  0  0  0
   -4.5150    2.9870   -0.0640 H   0  0  0  0  0  0  0  0  0  0  0  0
   -4.4940    0.7260   -1.0620 H   0  0  0  0  0  0  0  0  0  0  0  0
   -2.3840   -0.4490   -1.5130 H   0  0  0  0  0  0  0  0  0  0  0  0
   -1.5920   -5.7420   -1.8130 O   0  0  0  0  0  0  0  0  0  0  0  0
   -0.9880   -5.5330   -3.0540 C   0  0  0  0  0  0  0  0  0  0  0  0
    0.3040   -4.7620   -2.8640 C   0  0  2  0  0  0  0  0  0  0  0  0
    0.0490   -3.4860   -2.2520 N   0  0  0  0  0  0  0  0  0  0  0  0
    0.8640   -4.5290   -4.2170 C   0  0  0  0  0  0  0  0  0  0  0  0
    1.1880   -5.4660   -4.9930 O   0  0  0  0  0  0  0  0  0  0  0  0
    1.0600   -3.2400   -4.6970 O   0  0  0  0  0  0  0  0  0  0  0  0
   -2.4020   -5.1920   -1.7800 H   0  0  0  0  0  0  0  0  0  0  0  0
   -0.7410   -6.5170   -3.5130 H   0  0  0  0  0  0  0  0  0  0  0  0
   -1.6400   -4.9950   -3.7610 H   0  0  0  0  0  0  0  0  0  0  0  0
    1.0420   -5.3610   -2.2960 H   0  0  0  0  0  0  0  0  0  0  0  0
   -0.6320   -2.8470   -2.7150 H   0  0  0  0  0  0  0  0  0  0  0  0
  1  9  1  0  0  0  0
  2 12  1  0  0  0  0
  2  1  1  0  0  0  0
  3  2  1  0  0  0  0
  3 14  1  1  0  0  0
  4 15  1  0  0  0  0
  4  3  1  0  0  0  0
  5 18  1  1  0  0  0
  5  3  1  0  0  0  0
  6 20  1  0  0  0  0
  6  5  1  0  0  0  0
  6 19  1  0  0  0  0
  7  5  1  0  0  0  0
  8  7  2  0  0  0  0
 10  1  1  0  0  0  0
 11  1  1  0  0  0  0
 13  2  1  0  0  0  0
 16  4  1  0  0  0  0
 17  4  1  0  0  0  0
 21  7  1  0  0  0  0
 22 36  1  1  0  0  0
 22 21  1  0  0  0  0
 23 24  1  0  0  0  0
 23 22  1  0  0  0  0
 24 32  1  0  0  0  0
 24 25  2  0  0  0  0
 25 39  1  0  0  0  0
 25 26  1  0  0  0  0
 26 40  1  0  0  0  0
 27 26  1  0  0  0  0
 27 28  1  0  0  0  0
 28 41  1  0  0  0  0
 29 42  1  0  0  0  0
 29 28  2  0  0  0  0
 30 29  1  0  0  0  0
 31 30  2  0  0  0  0
 31 32  1  0  0  0  0
 32 27  2  0  0  0  0
 33 34  2  0  0  0  0
 33 22  1  0  0  0  0
 35 21  1  0  0  0  0
 37 23  1  0  0  0  0
 38 23  1  0  0  0  0
 43 30  1  0  0  0  0
 44 31  1  0  0  0  0
 45 52  1  0  0  0  0
 46 47  1  0  0  0  0
 46 45  1  0  0  0  0
 47 55  1  1  0  0  0
 47 48  1  0  0  0  0
 48 33  1  0  0  0  0
 49 47  1  0  0  0  0
 50 49  2  0  0  0  0
 51 49  1  0  0  0  0
 53 46  1  0  0  0  0
 54 46  1  0  0  0  0
 56 48  1  0  0  0  0
M  END
$$$$
