IWT.pdb
 OpenBabel07022418433D

 59 60  0  0  1  0  0  0  0  0999 V2000
    1.3950    3.6950    4.0580 C   0  0  0  0  0  0  0  0  0  0  0  0
    1.3900    2.4410    3.2110 C   0  0  0  0  0  0  0  0  0  0  0  0
    1.6230    1.2200    4.0760 C   0  0  2  0  0  0  0  0  0  0  0  0
    2.9590    1.3350    4.7690 C   0  0  0  0  0  0  0  0  0  0  0  0
    1.5130   -0.0570    3.2750 C   0  0  2  0  0  0  0  0  0  0  0  0
    2.4670   -0.1180    2.2060 N   0  0  0  0  0  0  0  0  0  0  0  0
    0.1110   -0.2450    2.7780 C   0  0  0  0  0  0  0  0  0  0  0  0
   -0.8330   -0.2020    3.6340 O   0  0  0  0  0  0  0  0  0  0  0  0
    0.8850    4.5350    3.5500 H   0  0  0  0  0  0  0  0  0  0  0  0
    2.4350    3.9920    4.3090 H   0  0  0  0  0  0  0  0  0  0  0  0
    0.8000    3.4630    4.9750 H   0  0  0  0  0  0  0  0  0  0  0  0
    0.4290    2.4080    2.6850 H   0  0  0  0  0  0  0  0  0  0  0  0
    2.2080    2.5220    2.4660 H   0  0  0  0  0  0  0  0  0  0  0  0
    0.8440    1.2120    4.8730 H   0  0  0  0  0  0  0  0  0  0  0  0
    3.2520    0.3070    5.0860 H   0  0  0  0  0  0  0  0  0  0  0  0
    2.8770    1.9660    5.6700 H   0  0  0  0  0  0  0  0  0  0  0  0
    3.7500    1.7180    4.0950 H   0  0  0  0  0  0  0  0  0  0  0  0
    1.7370   -0.8890    3.9700 H   0  0  0  0  0  0  0  0  0  0  0  0
    3.4200   -0.1470    2.6420 H   0  0  0  0  0  0  0  0  0  0  0  0
    2.3320   -1.0300    1.7190 H   0  0  0  0  0  0  0  0  0  0  0  0
   -0.2150   -0.4640    1.4440 N   0  0  0  0  0  0  0  0  0  0  0  0
   -1.5800   -0.6440    0.9820 C   0  0  1  0  0  0  0  0  0  0  0  0
   -2.0320    0.5090    0.1450 C   0  0  0  0  0  0  0  0  0  0  0  0
   -1.2610    0.8070   -1.0460 C   0  0  0  0  0  0  0  0  0  0  0  0
   -0.2510    1.7700   -1.0940 C   0  0  0  0  0  0  0  0  0  0  0  0
    0.2850    1.7750   -2.3180 N   0  0  0  0  0  0  0  0  0  0  0  0
   -0.3400    0.8480   -3.0770 C   0  0  0  0  0  0  0  0  0  0  0  0
   -0.2030    0.4440   -4.3830 C   0  0  0  0  0  0  0  0  0  0  0  0
   -0.9710   -0.5310   -4.9640 C   0  0  0  0  0  0  0  0  0  0  0  0
   -1.9200   -1.1160   -4.1630 C   0  0  0  0  0  0  0  0  0  0  0  0
   -2.1040   -0.7580   -2.8570 C   0  0  0  0  0  0  0  0  0  0  0  0
   -1.3010    0.2440   -2.2920 C   0  0  0  0  0  0  0  0  0  0  0  0
   -1.8790   -1.9810    0.4880 C   0  0  0  0  0  0  0  0  0  0  0  0
   -3.0470   -2.2830    0.1510 O   0  0  0  0  0  0  0  0  0  0  0  0
    0.5420   -0.5040    0.7230 H   0  0  0  0  0  0  0  0  0  0  0  0
   -2.2040   -0.5410    1.9390 H   0  0  0  0  0  0  0  0  0  0  0  0
   -2.1270    1.4190    0.8200 H   0  0  0  0  0  0  0  0  0  0  0  0
   -3.1240    0.2930   -0.0900 H   0  0  0  0  0  0  0  0  0  0  0  0
    0.0830    2.4300   -0.3010 H   0  0  0  0  0  0  0  0  0  0  0  0
    1.0600    2.3790   -2.6740 H   0  0  0  0  0  0  0  0  0  0  0  0
    0.5570    0.9270   -4.9910 H   0  0  0  0  0  0  0  0  0  0  0  0
   -0.8760   -0.8610   -5.9900 H   0  0  0  0  0  0  0  0  0  0  0  0
   -2.5620   -1.9010   -4.5740 H   0  0  0  0  0  0  0  0  0  0  0  0
   -2.8630   -1.2190   -2.2460 H   0  0  0  0  0  0  0  0  0  0  0  0
   -0.8410   -3.9120   -2.5860 C   0  0  0  0  0  0  0  0  0  0  0  0
   -0.4870   -4.7130   -1.3740 C   0  0  1  0  0  0  0  0  0  0  0  0
    0.8830   -4.7540   -1.1400 O   0  0  0  0  0  0  0  0  0  0  0  0
   -1.2480   -4.3030   -0.1290 C   0  0  2  0  0  0  0  0  0  0  0  0
   -0.8840   -3.0140    0.3590 N   0  0  0  0  0  0  0  0  0  0  0  0
   -0.9370   -5.3310    0.8970 C   0  0  0  0  0  0  0  0  0  0  0  0
   -0.4310   -4.9650    1.9830 O   0  0  0  0  0  0  0  0  0  0  0  0
   -1.1800   -6.6830    0.7150 O   0  0  0  0  0  0  0  0  0  0  0  0
   -1.9280   -3.7150   -2.5600 H   0  0  0  0  0  0  0  0  0  0  0  0
   -0.6080   -4.5370   -3.4880 H   0  0  0  0  0  0  0  0  0  0  0  0
   -0.2380   -2.9810   -2.6780 H   0  0  0  0  0  0  0  0  0  0  0  0
   -0.7940   -5.7720   -1.5840 H   0  0  0  0  0  0  0  0  0  0  0  0
    1.1500   -5.5380   -0.5970 H   0  0  0  0  0  0  0  0  0  0  0  0
   -2.3300   -4.3090   -0.3870 H   0  0  0  0  0  0  0  0  0  0  0  0
    0.0930   -2.7600    0.6390 H   0  0  0  0  0  0  0  0  0  0  0  0
  1 10  1  0  0  0  0
  1 11  1  0  0  0  0
  2  1  1  0  0  0  0
  2  3  1  0  0  0  0
  3  4  1  0  0  0  0
  3 14  1  1  0  0  0
  4 15  1  0  0  0  0
  4 16  1  0  0  0  0
  5 18  1  1  0  0  0
  5  3  1  0  0  0  0
  6 19  1  0  0  0  0
  6  5  1  0  0  0  0
  7  5  1  0  0  0  0
  7  8  2  0  0  0  0
  9  1  1  0  0  0  0
 12  2  1  0  0  0  0
 13  2  1  0  0  0  0
 17  4  1  0  0  0  0
 20  6  1  0  0  0  0
 21  7  1  0  0  0  0
 22 21  1  0  0  0  0
 22 36  1  1  0  0  0
 23 37  1  0  0  0  0
 23 22  1  0  0  0  0
 24 23  1  0  0  0  0
 25 24  2  0  0  0  0
 25 39  1  0  0  0  0
 26 25  1  0  0  0  0
 27 26  1  0  0  0  0
 27 32  1  0  0  0  0
 28 27  2  0  0  0  0
 29 28  1  0  0  0  0
 29 30  2  0  0  0  0
 30 31  1  0  0  0  0
 31 32  2  0  0  0  0
 31 44  1  0  0  0  0
 32 24  1  0  0  0  0
 33 22  1  0  0  0  0
 34 33  2  0  0  0  0
 35 21  1  0  0  0  0
 38 23  1  0  0  0  0
 40 26  1  0  0  0  0
 41 28  1  0  0  0  0
 42 29  1  0  0  0  0
 43 30  1  0  0  0  0
 45 53  1  0  0  0  0
 45 46  1  0  0  0  0
 46 56  1  6  0  0  0
 46 47  1  0  0  0  0
 46 48  1  0  0  0  0
 47 57  1  0  0  0  0
 48 58  1  6  0  0  0
 48 49  1  0  0  0  0
 48 50  1  0  0  0  0
 49 33  1  0  0  0  0
 49 59  1  0  0  0  0
 50 51  1  0  0  0  0
 52 50  2  0  0  0  0
 54 45  1  0  0  0  0
 55 45  1  0  0  0  0
M  END
$$$$
