IWW.pdb
 OpenBabel07022418433D

 69 72  0  0  1  0  0  0  0  0999 V2000
    0.1720   -4.4550    3.9890 C   0  0  0  0  0  0  0  0  0  0  0  0
    1.2290   -3.9470    3.0540 C   0  0  0  0  0  0  0  0  0  0  0  0
    1.0130   -4.4280    1.6340 C   0  0  2  0  0  0  0  0  0  0  0  0
    1.0240   -5.9230    1.5350 C   0  0  0  0  0  0  0  0  0  0  0  0
    2.0500   -3.8070    0.6950 C   0  0  2  0  0  0  0  0  0  0  0  0
    3.3960   -4.1860    1.1350 N   0  0  0  0  0  0  0  0  0  0  0  0
    1.9950   -2.3330    0.6720 C   0  0  0  0  0  0  0  0  0  0  0  0
    2.9510   -1.6090    1.1170 O   0  0  0  0  0  0  0  0  0  0  0  0
   -0.5710   -5.1320    3.4960 H   0  0  0  0  0  0  0  0  0  0  0  0
    0.6630   -5.0460    4.8020 H   0  0  0  0  0  0  0  0  0  0  0  0
   -0.4020   -3.6190    4.4210 H   0  0  0  0  0  0  0  0  0  0  0  0
    1.1890   -2.8390    3.0280 H   0  0  0  0  0  0  0  0  0  0  0  0
    2.2660   -4.2130    3.3680 H   0  0  0  0  0  0  0  0  0  0  0  0
    0.0270   -4.0570    1.3020 H   0  0  0  0  0  0  0  0  0  0  0  0
    1.6550   -6.2190    0.6730 H   0  0  0  0  0  0  0  0  0  0  0  0
    0.0010   -6.3420    1.3100 H   0  0  0  0  0  0  0  0  0  0  0  0
    1.4580   -6.4320    2.4330 H   0  0  0  0  0  0  0  0  0  0  0  0
    1.8670   -4.2620   -0.2950 H   0  0  0  0  0  0  0  0  0  0  0  0
    4.1050   -3.5060    0.7800 H   0  0  0  0  0  0  0  0  0  0  0  0
    3.6570   -5.1350    0.8080 H   0  0  0  0  0  0  0  0  0  0  0  0
    0.8880   -1.5780    0.1560 N   0  0  0  0  0  0  0  0  0  0  0  0
    0.8740   -0.1430    0.1450 C   0  0  1  0  0  0  0  0  0  0  0  0
    0.9640    0.4060   -1.2710 C   0  0  0  0  0  0  0  0  0  0  0  0
    0.9440    1.8880   -1.2350 C   0  0  0  0  0  0  0  0  0  0  0  0
   -0.1060    2.7250   -1.5610 C   0  0  0  0  0  0  0  0  0  0  0  0
    0.2770    4.0270   -1.4020 N   0  0  0  0  0  0  0  0  0  0  0  0
    1.5460    4.0510   -0.9830 C   0  0  0  0  0  0  0  0  0  0  0  0
    2.3820    5.1020   -0.6830 C   0  0  0  0  0  0  0  0  0  0  0  0
    3.6930    4.8810   -0.2570 C   0  0  0  0  0  0  0  0  0  0  0  0
    4.1260    3.5820   -0.1460 C   0  0  0  0  0  0  0  0  0  0  0  0
    3.2730    2.5420   -0.4520 C   0  0  0  0  0  0  0  0  0  0  0  0
    1.9760    2.7450   -0.8740 C   0  0  0  0  0  0  0  0  0  0  0  0
   -0.3360    0.3800    0.7960 C   0  0  0  0  0  0  0  0  0  0  0  0
   -0.5790    1.6080    0.9070 O   0  0  0  0  0  0  0  0  0  0  0  0
    0.0940   -2.1430   -0.2130 H   0  0  0  0  0  0  0  0  0  0  0  0
    1.7600    0.2920    0.6690 H   0  0  0  0  0  0  0  0  0  0  0  0
    1.8520    0.0420   -1.8080 H   0  0  0  0  0  0  0  0  0  0  0  0
    0.0780    0.0320   -1.8070 H   0  0  0  0  0  0  0  0  0  0  0  0
   -1.0870    2.4250   -1.8910 H   0  0  0  0  0  0  0  0  0  0  0  0
   -0.3480    4.8430   -1.5880 H   0  0  0  0  0  0  0  0  0  0  0  0
    2.0810    6.1380   -0.7570 H   0  0  0  0  0  0  0  0  0  0  0  0
    4.3570    5.7090   -0.0180 H   0  0  0  0  0  0  0  0  0  0  0  0
    5.1490    3.3860    0.1860 H   0  0  0  0  0  0  0  0  0  0  0  0
    3.6410    1.5440   -0.3560 H   0  0  0  0  0  0  0  0  0  0  0  0
   -1.2920   -0.5160    1.3330 N   0  0  0  0  0  0  0  0  0  0  0  0
   -2.5010   -0.1180    1.9750 C   0  0  1  0  0  0  0  0  0  0  0  0
   -3.7700   -0.4520    1.2750 C   0  0  0  0  0  0  0  0  0  0  0  0
   -3.9090    0.1460   -0.0570 C   0  0  0  0  0  0  0  0  0  0  0  0
   -4.6210    1.3000   -0.4030 C   0  0  0  0  0  0  0  0  0  0  0  0
   -4.4510    1.4840   -1.7140 N   0  0  0  0  0  0  0  0  0  0  0  0
   -3.6840    0.5420   -2.2570 C   0  0  0  0  0  0  0  0  0  0  0  0
   -3.2300    0.2930   -3.5410 C   0  0  0  0  0  0  0  0  0  0  0  0
   -2.4310   -0.7940   -3.8220 C   0  0  0  0  0  0  0  0  0  0  0  0
   -2.0730   -1.6550   -2.8090 C   0  0  0  0  0  0  0  0  0  0  0  0
   -2.5290   -1.3970   -1.5420 C   0  0  0  0  0  0  0  0  0  0  0  0
   -3.3360   -0.3100   -1.2190 C   0  0  0  0  0  0  0  0  0  0  0  0
   -2.5970   -0.5030    3.3990 C   0  0  0  0  0  0  0  0  0  0  0  0
   -3.6210   -0.1980    4.0280 O   0  0  0  0  0  0  0  0  0  0  0  0
   -1.5760   -1.1830    4.0130 O   0  0  0  0  0  0  0  0  0  0  0  0
   -1.1340   -1.5680    1.2840 H   0  0  0  0  0  0  0  0  0  0  0  0
   -2.4650    1.0220    1.9940 H   0  0  0  0  0  0  0  0  0  0  0  0
   -4.6000   -0.0290    1.9140 H   0  0  0  0  0  0  0  0  0  0  0  0
   -3.9850   -1.5590    1.2700 H   0  0  0  0  0  0  0  0  0  0  0  0
   -5.1860    1.8930    0.3020 H   0  0  0  0  0  0  0  0  0  0  0  0
   -4.8730    2.2810   -2.2650 H   0  0  0  0  0  0  0  0  0  0  0  0
   -3.5140    0.9720   -4.3340 H   0  0  0  0  0  0  0  0  0  0  0  0
   -2.0850   -0.9720   -4.8370 H   0  0  0  0  0  0  0  0  0  0  0  0
   -1.4460   -2.5130   -3.0160 H   0  0  0  0  0  0  0  0  0  0  0  0
   -2.2630   -2.0770   -0.7260 H   0  0  0  0  0  0  0  0  0  0  0  0
  1 11  1  0  0  0  0
  1 10  1  0  0  0  0
  2 13  1  0  0  0  0
  2  1  1  0  0  0  0
  3 14  1  6  0  0  0
  3  2  1  0  0  0  0
  4  3  1  0  0  0  0
  4 17  1  0  0  0  0
  5 18  1  6  0  0  0
  5  6  1  0  0  0  0
  5  3  1  0  0  0  0
  7  5  1  0  0  0  0
  7  8  2  0  0  0  0
  9  1  1  0  0  0  0
 12  2  1  0  0  0  0
 15  4  1  0  0  0  0
 16  4  1  0  0  0  0
 19  6  1  0  0  0  0
 20  6  1  0  0  0  0
 21  7  1  0  0  0  0
 22 21  1  0  0  0  0
 22 36  1  1  0  0  0
 22 33  1  0  0  0  0
 23 24  1  0  0  0  0
 23 22  1  0  0  0  0
 24 32  1  0  0  0  0
 25 26  1  0  0  0  0
 25 24  2  0  0  0  0
 26 27  1  0  0  0  0
 27 32  2  0  0  0  0
 27 28  1  0  0  0  0
 28 29  2  0  0  0  0
 29 30  1  0  0  0  0
 29 42  1  0  0  0  0
 30 43  1  0  0  0  0
 31 44  1  0  0  0  0
 31 30  2  0  0  0  0
 32 31  1  0  0  0  0
 33 34  2  0  0  0  0
 33 45  1  0  0  0  0
 35 21  1  0  0  0  0
 37 23  1  0  0  0  0
 38 23  1  0  0  0  0
 39 25  1  0  0  0  0
 40 26  1  0  0  0  0
 41 28  1  0  0  0  0
 45 46  1  0  0  0  0
 46 61  1  1  0  0  0
 46 57  1  0  0  0  0
 47 62  1  0  0  0  0
 47 46  1  0  0  0  0
 48 47  1  0  0  0  0
 49 48  2  0  0  0  0
 49 64  1  0  0  0  0
 50 49  1  0  0  0  0
 51 50  1  0  0  0  0
 51 56  1  0  0  0  0
 52 51  2  0  0  0  0
 53 52  1  0  0  0  0
 53 54  2  0  0  0  0
 54 55  1  0  0  0  0
 55 56  2  0  0  0  0
 55 69  1  0  0  0  0
 56 48  1  0  0  0  0
 57 59  2  0  0  0  0
 57 58  1  0  0  0  0
 60 45  1  0  0  0  0
 63 47  1  0  0  0  0
 65 50  1  0  0  0  0
 66 52  1  0  0  0  0
 67 53  1  0  0  0  0
 68 54  1  0  0  0  0
M  END
$$$$
