IWY.pdb
 OpenBabel07022418433D

 66 68  0  0  1  0  0  0  0  0999 V2000
    4.5320   -2.8400    3.9250 C   0  0  0  0  0  0  0  0  0  0  0  0
    4.3710   -3.1470    2.4630 C   0  0  0  0  0  0  0  0  0  0  0  0
    4.0230   -1.9200    1.6440 C   0  0  2  0  0  0  0  0  0  0  0  0
    5.1250   -0.8960    1.7850 C   0  0  0  0  0  0  0  0  0  0  0  0
    2.6870   -1.3470    2.0790 C   0  0  2  0  0  0  0  0  0  0  0  0
    1.6350   -2.3230    1.9050 N   0  0  0  0  0  0  0  0  0  0  0  0
    2.3770   -0.0860    1.3630 C   0  0  0  0  0  0  0  0  0  0  0  0
    3.1890    0.8940    1.3970 O   0  0  0  0  0  0  0  0  0  0  0  0
    5.3790   -3.4210    4.3430 H   0  0  0  0  0  0  0  0  0  0  0  0
    3.6260   -3.2130    4.4880 H   0  0  0  0  0  0  0  0  0  0  0  0
    4.7310   -1.7700    4.1280 H   0  0  0  0  0  0  0  0  0  0  0  0
    5.3650   -3.5130    2.0930 H   0  0  0  0  0  0  0  0  0  0  0  0
    3.5910   -3.9280    2.3500 H   0  0  0  0  0  0  0  0  0  0  0  0
    3.9590   -2.2440    0.5860 H   0  0  0  0  0  0  0  0  0  0  0  0
    4.8860   -0.2200    2.6260 H   0  0  0  0  0  0  0  0  0  0  0  0
    5.2640   -0.3200    0.8560 H   0  0  0  0  0  0  0  0  0  0  0  0
    6.1130   -1.4010    1.9860 H   0  0  0  0  0  0  0  0  0  0  0  0
    2.7480   -1.0990    3.1640 H   0  0  0  0  0  0  0  0  0  0  0  0
    0.7150   -1.9840    2.2060 H   0  0  0  0  0  0  0  0  0  0  0  0
    1.6110   -2.6780    0.9480 H   0  0  0  0  0  0  0  0  0  0  0  0
    1.1760    0.0650    0.6240 N   0  0  0  0  0  0  0  0  0  0  0  0
    0.8200    1.2620   -0.0880 C   0  0  1  0  0  0  0  0  0  0  0  0
    0.8210    1.0910   -1.5640 C   0  0  0  0  0  0  0  0  0  0  0  0
   -0.0780    0.0980   -2.1280 C   0  0  0  0  0  0  0  0  0  0  0  0
   -1.3080    0.3940   -2.7070 C   0  0  0  0  0  0  0  0  0  0  0  0
   -1.8760   -0.7520   -3.1090 N   0  0  0  0  0  0  0  0  0  0  0  0
   -1.0790   -1.7960   -2.8240 C   0  0  0  0  0  0  0  0  0  0  0  0
   -1.1990   -3.1760   -3.0350 C   0  0  0  0  0  0  0  0  0  0  0  0
   -0.2110   -4.0550   -2.6450 C   0  0  0  0  0  0  0  0  0  0  0  0
    0.9050   -3.5210   -2.0370 C   0  0  0  0  0  0  0  0  0  0  0  0
    1.0160   -2.1610   -1.8320 C   0  0  0  0  0  0  0  0  0  0  0  0
    0.0380   -1.2700   -2.2150 C   0  0  0  0  0  0  0  0  0  0  0  0
   -0.4120    1.8890    0.4400 C   0  0  0  0  0  0  0  0  0  0  0  0
   -0.8900    2.9290   -0.0710 O   0  0  0  0  0  0  0  0  0  0  0  0
    0.5200   -0.7410    0.6080 H   0  0  0  0  0  0  0  0  0  0  0  0
    1.6750    1.9840    0.1310 H   0  0  0  0  0  0  0  0  0  0  0  0
    0.6450    2.0780   -2.0910 H   0  0  0  0  0  0  0  0  0  0  0  0
    1.8780    0.8410   -1.8930 H   0  0  0  0  0  0  0  0  0  0  0  0
   -1.7670    1.3870   -2.8290 H   0  0  0  0  0  0  0  0  0  0  0  0
   -2.8030   -0.8250   -3.5770 H   0  0  0  0  0  0  0  0  0  0  0  0
   -2.0770   -3.5700   -3.5110 H   0  0  0  0  0  0  0  0  0  0  0  0
   -0.3040   -5.1180   -2.8080 H   0  0  0  0  0  0  0  0  0  0  0  0
    1.6840   -4.2260   -1.7310 H   0  0  0  0  0  0  0  0  0  0  0  0
    1.9040   -1.7500   -1.3530 H   0  0  0  0  0  0  0  0  0  0  0  0
   -5.2680   -1.6020   -2.4210 O   0  0  0  0  0  0  0  0  0  0  0  0
   -4.8210   -0.9760   -1.2580 C   0  0  0  0  0  0  0  0  0  0  0  0
   -5.3840    0.1980   -0.7980 C   0  0  0  0  0  0  0  0  0  0  0  0
   -4.9010    0.7900    0.3760 C   0  0  0  0  0  0  0  0  0  0  0  0
   -3.8730    0.2190    1.0800 C   0  0  0  0  0  0  0  0  0  0  0  0
   -3.3780    0.8370    2.3070 C   0  0  0  0  0  0  0  0  0  0  0  0
   -2.2790    1.8280    2.1510 C   0  0  2  0  0  0  0  0  0  0  0  0
   -1.0730    1.3060    1.5480 N   0  0  0  0  0  0  0  0  0  0  0  0
   -1.9630    2.3370    3.5350 C   0  0  0  0  0  0  0  0  0  0  0  0
   -0.7980    2.2690    3.9940 O   0  0  0  0  0  0  0  0  0  0  0  0
   -3.3250   -0.9440    0.6130 C   0  0  0  0  0  0  0  0  0  0  0  0
   -3.7870   -1.5460   -0.5460 C   0  0  0  0  0  0  0  0  0  0  0  0
   -2.9410    2.8940    4.3380 O   0  0  0  0  0  0  0  0  0  0  0  0
   -4.6320   -2.2190   -2.9010 H   0  0  0  0  0  0  0  0  0  0  0  0
   -6.1910    0.6260   -1.3710 H   0  0  0  0  0  0  0  0  0  0  0  0
   -5.3950    1.7070    0.6690 H   0  0  0  0  0  0  0  0  0  0  0  0
   -4.2030    1.3530    2.8720 H   0  0  0  0  0  0  0  0  0  0  0  0
   -3.0220    0.0460    3.0090 H   0  0  0  0  0  0  0  0  0  0  0  0
   -2.6230    2.7230    1.5680 H   0  0  0  0  0  0  0  0  0  0  0  0
   -0.6660    0.4430    1.9610 H   0  0  0  0  0  0  0  0  0  0  0  0
   -2.5000   -1.4540    1.1250 H   0  0  0  0  0  0  0  0  0  0  0  0
   -3.3410   -2.4700   -0.9030 H   0  0  0  0  0  0  0  0  0  0  0  0
  1 11  1  0  0  0  0
  1  9  1  0  0  0  0
  1 10  1  0  0  0  0
  2  1  1  0  0  0  0
  3 14  1  6  0  0  0
  3  4  1  0  0  0  0
  3  5  1  0  0  0  0
  3  2  1  0  0  0  0
  4 17  1  0  0  0  0
  4 15  1  0  0  0  0
  5 18  1  1  0  0  0
  6  5  1  0  0  0  0
  6 19  1  0  0  0  0
  7  8  2  0  0  0  0
  7  5  1  0  0  0  0
 12  2  1  0  0  0  0
 13  2  1  0  0  0  0
 16  4  1  0  0  0  0
 20  6  1  0  0  0  0
 21  7  1  0  0  0  0
 22 36  1  1  0  0  0
 22 33  1  0  0  0  0
 22 21  1  0  0  0  0
 23 22  1  0  0  0  0
 24 23  1  0  0  0  0
 25 24  2  0  0  0  0
 26 27  1  0  0  0  0
 26 25  1  0  0  0  0
 27 32  1  0  0  0  0
 28 27  2  0  0  0  0
 28 29  1  0  0  0  0
 29 30  2  0  0  0  0
 30 31  1  0  0  0  0
 30 43  1  0  0  0  0
 31 44  1  0  0  0  0
 32 24  1  0  0  0  0
 32 31  2  0  0  0  0
 33 52  1  0  0  0  0
 34 33  2  0  0  0  0
 35 21  1  0  0  0  0
 37 23  1  0  0  0  0
 38 23  1  0  0  0  0
 39 25  1  0  0  0  0
 40 26  1  0  0  0  0
 41 28  1  0  0  0  0
 42 29  1  0  0  0  0
 45 46  1  0  0  0  0
 46 47  2  0  0  0  0
 46 56  1  0  0  0  0
 47 48  1  0  0  0  0
 48 60  1  0  0  0  0
 48 49  2  0  0  0  0
 49 50  1  0  0  0  0
 50 61  1  0  0  0  0
 50 62  1  0  0  0  0
 51 63  1  6  0  0  0
 51 50  1  0  0  0  0
 51 53  1  0  0  0  0
 52 64  1  0  0  0  0
 52 51  1  0  0  0  0
 53 54  2  0  0  0  0
 53 57  1  0  0  0  0
 55 49  1  0  0  0  0
 55 65  1  0  0  0  0
 56 55  2  0  0  0  0
 58 45  1  0  0  0  0
 59 47  1  0  0  0  0
 66 56  1  0  0  0  0
M  END
$$$$
