IYA.pdb
 OpenBabel07022418433D

 52 52  0  0  1  0  0  0  0  0999 V2000
    4.0840   -1.7890    2.2060 C   0  0  0  0  0  0  0  0  0  0  0  0
    2.8640   -0.8600    2.1250 C   0  0  0  0  0  0  0  0  0  0  0  0
    2.4750   -0.3800    3.4920 C   0  0  2  0  0  0  0  0  0  0  0  0
    2.1100   -1.5350    4.3880 C   0  0  0  0  0  0  0  0  0  0  0  0
    1.3910    0.6740    3.4970 C   0  0  2  0  0  0  0  0  0  0  0  0
    1.1610    0.9920    4.9090 N   0  0  0  0  0  0  0  0  0  0  0  0
    0.1260    0.2280    2.8870 C   0  0  0  0  0  0  0  0  0  0  0  0
   -0.8590   -0.0420    3.6500 O   0  0  0  0  0  0  0  0  0  0  0  0
    4.4760   -1.8920    1.1730 H   0  0  0  0  0  0  0  0  0  0  0  0
    4.8500   -1.3700    2.8690 H   0  0  0  0  0  0  0  0  0  0  0  0
    3.7750   -2.8050    2.5270 H   0  0  0  0  0  0  0  0  0  0  0  0
    3.1360   -0.0520    1.4280 H   0  0  0  0  0  0  0  0  0  0  0  0
    2.0280   -1.4490    1.6460 H   0  0  0  0  0  0  0  0  0  0  0  0
    3.4150    0.0500    3.9450 H   0  0  0  0  0  0  0  0  0  0  0  0
    1.1460   -2.0100    4.1000 H   0  0  0  0  0  0  0  0  0  0  0  0
    2.0120   -1.1530    5.4310 H   0  0  0  0  0  0  0  0  0  0  0  0
    2.9570   -2.2510    4.3970 H   0  0  0  0  0  0  0  0  0  0  0  0
    1.7740    1.6020    3.0300 H   0  0  0  0  0  0  0  0  0  0  0  0
    2.0850    0.9760    5.3720 H   0  0  0  0  0  0  0  0  0  0  0  0
    0.5350    0.2910    5.3550 H   0  0  0  0  0  0  0  0  0  0  0  0
    1.2020    2.6140   -4.1310 O   0  0  0  0  0  0  0  0  0  0  0  0
    0.4010    2.1170   -3.1130 C   0  0  0  0  0  0  0  0  0  0  0  0
   -0.4400    1.0350   -3.3210 C   0  0  0  0  0  0  0  0  0  0  0  0
   -1.2280    0.5580   -2.2900 C   0  0  0  0  0  0  0  0  0  0  0  0
   -1.1910    1.1460   -1.0520 C   0  0  0  0  0  0  0  0  0  0  0  0
   -2.0010    0.6850    0.0730 C   0  0  0  0  0  0  0  0  0  0  0  0
   -1.3310   -0.3670    0.9180 C   0  0  2  0  0  0  0  0  0  0  0  0
   -0.0980    0.0710    1.4910 N   0  0  0  0  0  0  0  0  0  0  0  0
   -1.2490   -1.6660    0.2130 C   0  0  0  0  0  0  0  0  0  0  0  0
   -0.1770   -2.3100    0.0790 O   0  0  0  0  0  0  0  0  0  0  0  0
   -0.3500    2.2220   -0.8580 C   0  0  0  0  0  0  0  0  0  0  0  0
    0.4520    2.7270   -1.8650 C   0  0  0  0  0  0  0  0  0  0  0  0
    1.2870    3.6250   -4.3110 H   0  0  0  0  0  0  0  0  0  0  0  0
   -0.4630    0.5740   -4.3070 H   0  0  0  0  0  0  0  0  0  0  0  0
   -1.8660   -0.2950   -2.5200 H   0  0  0  0  0  0  0  0  0  0  0  0
   -2.9370    0.2450   -0.3430 H   0  0  0  0  0  0  0  0  0  0  0  0
   -2.3290    1.5480    0.6880 H   0  0  0  0  0  0  0  0  0  0  0  0
   -2.0340   -0.5450    1.7870 H   0  0  0  0  0  0  0  0  0  0  0  0
    0.6910    0.3020    0.8530 H   0  0  0  0  0  0  0  0  0  0  0  0
   -0.2740    2.7360    0.1080 H   0  0  0  0  0  0  0  0  0  0  0  0
    1.1180    3.5690   -1.7340 H   0  0  0  0  0  0  0  0  0  0  0  0
   -3.1520   -4.5580   -0.2180 C   0  0  0  0  0  0  0  0  0  0  0  0
   -2.3630   -3.5310   -1.0500 C   0  0  2  0  0  0  0  0  0  0  0  0
   -2.4110   -2.2610   -0.3580 N   0  0  0  0  0  0  0  0  0  0  0  0
   -3.0820   -3.4320   -2.3340 C   0  0  0  0  0  0  0  0  0  0  0  0
   -3.1300   -4.4430   -3.0870 O   0  0  0  0  0  0  0  0  0  0  0  0
   -3.7160   -2.2830   -2.7690 O   0  0  0  0  0  0  0  0  0  0  0  0
   -3.5290   -5.3370   -0.9120 H   0  0  0  0  0  0  0  0  0  0  0  0
   -4.0390   -4.0430    0.2010 H   0  0  0  0  0  0  0  0  0  0  0  0
   -2.4900   -4.9730    0.5740 H   0  0  0  0  0  0  0  0  0  0  0  0
   -1.3520   -3.9220   -1.1540 H   0  0  0  0  0  0  0  0  0  0  0  0
   -3.3180   -1.7560   -0.2670 H   0  0  0  0  0  0  0  0  0  0  0  0
  1 11  1  0  0  0  0
  1 10  1  0  0  0  0
  2  1  1  0  0  0  0
  2  3  1  0  0  0  0
  3  5  1  0  0  0  0
  3 14  1  1  0  0  0
  3  4  1  0  0  0  0
  4 17  1  0  0  0  0
  4 16  1  0  0  0  0
  5 18  1  6  0  0  0
  5  6  1  0  0  0  0
  6 20  1  0  0  0  0
  6 19  1  0  0  0  0
  7  5  1  0  0  0  0
  7  8  2  0  0  0  0
  9  1  1  0  0  0  0
 12  2  1  0  0  0  0
 13  2  1  0  0  0  0
 15  4  1  0  0  0  0
 21 22  1  0  0  0  0
 22 32  1  0  0  0  0
 23 22  2  0  0  0  0
 23 24  1  0  0  0  0
 24 25  2  0  0  0  0
 25 31  1  0  0  0  0
 25 26  1  0  0  0  0
 26 37  1  0  0  0  0
 26 27  1  0  0  0  0
 27 28  1  0  0  0  0
 27 38  1  1  0  0  0
 28  7  1  0  0  0  0
 29 27  1  0  0  0  0
 30 29  2  0  0  0  0
 31 40  1  0  0  0  0
 32 41  1  0  0  0  0
 32 31  2  0  0  0  0
 33 21  1  0  0  0  0
 34 23  1  0  0  0  0
 35 24  1  0  0  0  0
 36 26  1  0  0  0  0
 39 28  1  0  0  0  0
 42 49  1  0  0  0  0
 42 50  1  0  0  0  0
 43 51  1  6  0  0  0
 43 44  1  0  0  0  0
 43 42  1  0  0  0  0
 44 52  1  0  0  0  0
 44 29  1  0  0  0  0
 45 43  1  0  0  0  0
 46 45  2  0  0  0  0
 47 45  1  0  0  0  0
 48 42  1  0  0  0  0
M  END
$$$$
