IYC.pdb
 OpenBabel07022418433D

 53 53  0  0  1  0  0  0  0  0999 V2000
    2.1300   -2.8510    1.3020 C   0  0  0  0  0  0  0  0  0  0  0  0
    3.2660   -1.9470    1.6310 C   0  0  0  0  0  0  0  0  0  0  0  0
    3.1820   -1.2440    2.9470 C   0  0  2  0  0  0  0  0  0  0  0  0
    3.0750   -2.2190    4.1060 C   0  0  0  0  0  0  0  0  0  0  0  0
    2.3670   -0.0260    3.0530 C   0  0  2  0  0  0  0  0  0  0  0  0
    2.5100    0.4030    4.4780 N   0  0  0  0  0  0  0  0  0  0  0  0
    0.9730   -0.0290    2.6660 C   0  0  0  0  0  0  0  0  0  0  0  0
    0.1160    0.0240    3.6160 O   0  0  0  0  0  0  0  0  0  0  0  0
    1.2440   -2.6430    1.9270 H   0  0  0  0  0  0  0  0  0  0  0  0
    1.9230   -2.9220    0.2140 H   0  0  0  0  0  0  0  0  0  0  0  0
    2.4380   -3.9030    1.5780 H   0  0  0  0  0  0  0  0  0  0  0  0
    3.4370   -1.1980    0.7940 H   0  0  0  0  0  0  0  0  0  0  0  0
    4.2140   -2.5650    1.5820 H   0  0  0  0  0  0  0  0  0  0  0  0
    4.2750   -0.8490    3.0960 H   0  0  0  0  0  0  0  0  0  0  0  0
    2.1530   -2.8070    4.0900 H   0  0  0  0  0  0  0  0  0  0  0  0
    3.9230   -2.9320    4.0290 H   0  0  0  0  0  0  0  0  0  0  0  0
    3.2280   -1.6360    5.0330 H   0  0  0  0  0  0  0  0  0  0  0  0
    2.9140    0.8060    2.5060 H   0  0  0  0  0  0  0  0  0  0  0  0
    1.8050    1.1670    4.6380 H   0  0  0  0  0  0  0  0  0  0  0  0
    3.4880    0.7440    4.6350 H   0  0  0  0  0  0  0  0  0  0  0  0
    1.0180    2.8920   -4.2140 O   0  0  0  0  0  0  0  0  0  0  0  0
    0.4160    2.5030   -3.0180 C   0  0  0  0  0  0  0  0  0  0  0  0
    0.9610    2.7920   -1.7850 C   0  0  0  0  0  0  0  0  0  0  0  0
    0.3860    2.4200   -0.5900 C   0  0  0  0  0  0  0  0  0  0  0  0
   -0.7950    1.7210   -0.6160 C   0  0  0  0  0  0  0  0  0  0  0  0
   -1.4300    1.3130    0.6530 C   0  0  0  0  0  0  0  0  0  0  0  0
   -0.9670   -0.0480    1.1430 C   0  0  2  0  0  0  0  0  0  0  0  0
    0.4500   -0.0760    1.3580 N   0  0  0  0  0  0  0  0  0  0  0  0
   -1.3960   -1.1500    0.3130 C   0  0  0  0  0  0  0  0  0  0  0  0
   -0.5570   -1.9260   -0.1930 O   0  0  0  0  0  0  0  0  0  0  0  0
   -1.3680    1.4140   -1.8150 C   0  0  0  0  0  0  0  0  0  0  0  0
   -0.7730    1.7980   -2.9920 C   0  0  0  0  0  0  0  0  0  0  0  0
    1.4000    2.1420   -4.8020 H   0  0  0  0  0  0  0  0  0  0  0  0
    1.8990    3.3480   -1.7780 H   0  0  0  0  0  0  0  0  0  0  0  0
    0.8770    2.6840    0.3690 H   0  0  0  0  0  0  0  0  0  0  0  0
   -2.5170    1.2840    0.5840 H   0  0  0  0  0  0  0  0  0  0  0  0
   -1.1420    2.0420    1.4300 H   0  0  0  0  0  0  0  0  0  0  0  0
   -1.4640   -0.1450    2.1460 H   0  0  0  0  0  0  0  0  0  0  0  0
    1.1070   -0.1290    0.5740 H   0  0  0  0  0  0  0  0  0  0  0  0
   -2.3020    0.8640   -1.9130 H   0  0  0  0  0  0  0  0  0  0  0  0
   -1.2450    1.5440   -3.9550 H   0  0  0  0  0  0  0  0  0  0  0  0
   -2.7650   -1.4510    0.0030 N   0  0  0  0  0  0  0  0  0  0  0  0
   -3.1240   -2.5610   -0.8230 C   0  0  1  0  0  0  0  0  0  0  0  0
   -3.9080   -3.6230   -0.0700 C   0  0  0  0  0  0  0  0  0  0  0  0
   -4.2800   -4.9480   -1.2550 S   0  0  0  0  0  0  0  0  0  0  0  0
   -4.0180   -2.1210   -1.9120 C   0  0  0  0  0  0  0  0  0  0  0  0
   -4.3550   -0.9170   -1.9680 O   0  0  0  0  0  0  0  0  0  0  0  0
   -4.5150   -2.9670   -2.8870 O   0  0  0  0  0  0  0  0  0  0  0  0
   -3.4630   -0.8030    0.4240 H   0  0  0  0  0  0  0  0  0  0  0  0
   -2.2600   -3.0800   -1.2680 H   0  0  0  0  0  0  0  0  0  0  0  0
   -3.3580   -4.0630    0.7570 H   0  0  0  0  0  0  0  0  0  0  0  0
   -4.8400   -3.1700    0.3340 H   0  0  0  0  0  0  0  0  0  0  0  0
   -3.2080   -5.8620   -1.2100 H   0  0  0  0  0  0  0  0  0  0  0  0
  1 11  1  0  0  0  0
  1  2  1  0  0  0  0
  1  9  1  0  0  0  0
  2  3  1  0  0  0  0
  3  5  1  0  0  0  0
  3 14  1  1  0  0  0
  3  4  1  0  0  0  0
  4 17  1  0  0  0  0
  5 18  1  6  0  0  0
  5  6  1  0  0  0  0
  6 20  1  0  0  0  0
  6 19  1  0  0  0  0
  7  5  1  0  0  0  0
  7  8  2  0  0  0  0
 10  1  1  0  0  0  0
 12  2  1  0  0  0  0
 13  2  1  0  0  0  0
 15  4  1  0  0  0  0
 16  4  1  0  0  0  0
 21 22  1  0  0  0  0
 22 32  2  0  0  0  0
 22 23  1  0  0  0  0
 23 34  1  0  0  0  0
 23 24  2  0  0  0  0
 24 35  1  0  0  0  0
 25 24  1  0  0  0  0
 25 26  1  0  0  0  0
 26 27  1  0  0  0  0
 26 37  1  0  0  0  0
 27 28  1  0  0  0  0
 27 38  1  1  0  0  0
 28  7  1  0  0  0  0
 29 27  1  0  0  0  0
 30 29  2  0  0  0  0
 31 25  2  0  0  0  0
 32 31  1  0  0  0  0
 33 21  1  0  0  0  0
 36 26  1  0  0  0  0
 39 28  1  0  0  0  0
 40 31  1  0  0  0  0
 41 32  1  0  0  0  0
 42 29  1  0  0  0  0
 42 49  1  0  0  0  0
 43 50  1  6  0  0  0
 43 44  1  0  0  0  0
 43 42  1  0  0  0  0
 44 52  1  0  0  0  0
 44 51  1  0  0  0  0
 45 53  1  0  0  0  0
 45 44  1  0  0  0  0
 46 43  1  0  0  0  0
 47 46  1  0  0  0  0
 48 46  2  0  0  0  0
M  END
$$$$
