IYE.pdb
 OpenBabel07022418433D

 58 58  0  0  1  0  0  0  0  0999 V2000
    3.4420   -1.8570    5.1610 C   0  0  0  0  0  0  0  0  0  0  0  0
    3.3300   -0.4060    4.8280 C   0  0  0  0  0  0  0  0  0  0  0  0
    3.8010   -0.0190    3.4680 C   0  0  2  0  0  0  0  0  0  0  0  0
    3.6130    1.4870    3.3060 C   0  0  0  0  0  0  0  0  0  0  0  0
    3.1950   -0.7840    2.3470 C   0  0  2  0  0  0  0  0  0  0  0  0
    3.7190   -0.3310    1.0740 N   0  0  0  0  0  0  0  0  0  0  0  0
    1.7100   -0.7650    2.3590 C   0  0  0  0  0  0  0  0  0  0  0  0
    1.0500   -1.0770    3.4020 O   0  0  0  0  0  0  0  0  0  0  0  0
    4.0770   -2.0530    6.0740 H   0  0  0  0  0  0  0  0  0  0  0  0
    3.8590   -2.4630    4.3570 H   0  0  0  0  0  0  0  0  0  0  0  0
    2.4460   -2.3100    5.4360 H   0  0  0  0  0  0  0  0  0  0  0  0
    2.2990   -0.0060    5.0610 H   0  0  0  0  0  0  0  0  0  0  0  0
    3.9960    0.1410    5.5600 H   0  0  0  0  0  0  0  0  0  0  0  0
    4.9110   -0.1740    3.4360 H   0  0  0  0  0  0  0  0  0  0  0  0
    4.0310    1.8720    2.3680 H   0  0  0  0  0  0  0  0  0  0  0  0
    2.5300    1.7050    3.2890 H   0  0  0  0  0  0  0  0  0  0  0  0
    4.1460    2.0130    4.1380 H   0  0  0  0  0  0  0  0  0  0  0  0
    3.5770   -1.8470    2.4420 H   0  0  0  0  0  0  0  0  0  0  0  0
    4.7690   -0.4230    1.1520 H   0  0  0  0  0  0  0  0  0  0  0  0
    3.4100   -1.0110    0.3300 H   0  0  0  0  0  0  0  0  0  0  0  0
    0.0600    2.9550   -4.1430 O   0  0  0  0  0  0  0  0  0  0  0  0
   -0.2430    2.4500   -2.8740 C   0  0  0  0  0  0  0  0  0  0  0  0
    0.6030    2.7260   -1.8140 C   0  0  0  0  0  0  0  0  0  0  0  0
    0.2890    2.2180   -0.5650 C   0  0  0  0  0  0  0  0  0  0  0  0
   -0.8320    1.4510   -0.3400 C   0  0  0  0  0  0  0  0  0  0  0  0
   -1.1340    0.9320    0.9910 C   0  0  0  0  0  0  0  0  0  0  0  0
   -0.5400   -0.4050    1.3080 C   0  0  2  0  0  0  0  0  0  0  0  0
    0.9070   -0.4070    1.2360 N   0  0  0  0  0  0  0  0  0  0  0  0
   -1.0160   -1.4900    0.3740 C   0  0  0  0  0  0  0  0  0  0  0  0
   -0.2030   -2.1750   -0.2950 O   0  0  0  0  0  0  0  0  0  0  0  0
   -1.6620    1.1860   -1.4000 C   0  0  0  0  0  0  0  0  0  0  0  0
   -1.3680    1.6830   -2.6600 C   0  0  0  0  0  0  0  0  0  0  0  0
   -0.1510    3.8950   -4.4410 H   0  0  0  0  0  0  0  0  0  0  0  0
    1.4790    3.3300   -2.0100 H   0  0  0  0  0  0  0  0  0  0  0  0
    0.9680    2.4510    0.2410 H   0  0  0  0  0  0  0  0  0  0  0  0
   -2.2560    0.8110    1.0470 H   0  0  0  0  0  0  0  0  0  0  0  0
   -0.9040    1.6450    1.8100 H   0  0  0  0  0  0  0  0  0  0  0  0
   -0.8810   -0.6490    2.3560 H   0  0  0  0  0  0  0  0  0  0  0  0
    1.3780   -0.1420    0.3460 H   0  0  0  0  0  0  0  0  0  0  0  0
   -2.5700    0.5760   -1.2480 H   0  0  0  0  0  0  0  0  0  0  0  0
   -2.0280    1.4660   -3.4730 H   0  0  0  0  0  0  0  0  0  0  0  0
   -2.3970   -1.7680    0.2280 N   0  0  0  0  0  0  0  0  0  0  0  0
   -2.9230   -2.8230   -0.6690 C   0  0  1  0  0  0  0  0  0  0  0  0
   -2.5610   -2.5510   -2.0760 C   0  0  0  0  0  0  0  0  0  0  0  0
   -3.1110   -3.5910   -3.0080 C   0  0  0  0  0  0  0  0  0  0  0  0
   -4.6020   -3.6370   -2.9120 C   0  0  0  0  0  0  0  0  0  0  0  0
   -5.2200   -4.1780   -1.9680 O   0  0  0  0  0  0  0  0  0  0  0  0
   -2.3490   -4.1150   -0.2140 C   0  0  0  0  0  0  0  0  0  0  0  0
   -2.6120   -5.2280   -0.7240 O   0  0  0  0  0  0  0  0  0  0  0  0
   -5.3360   -3.0410   -3.9350 O   0  0  0  0  0  0  0  0  0  0  0  0
   -1.4430   -4.1360    0.8600 O   0  0  0  0  0  0  0  0  0  0  0  0
   -3.0450   -1.1680    0.8050 H   0  0  0  0  0  0  0  0  0  0  0  0
   -4.0120   -2.8680   -0.4640 H   0  0  0  0  0  0  0  0  0  0  0  0
   -2.8850   -1.5210   -2.3620 H   0  0  0  0  0  0  0  0  0  0  0  0
   -1.4370   -2.6030   -2.2130 H   0  0  0  0  0  0  0  0  0  0  0  0
   -2.8120   -3.2580   -4.0450 H   0  0  0  0  0  0  0  0  0  0  0  0
   -2.7080   -4.5950   -2.8320 H   0  0  0  0  0  0  0  0  0  0  0  0
   -6.3580   -3.1440   -3.9140 H   0  0  0  0  0  0  0  0  0  0  0  0
  1 11  1  0  0  0  0
  1  9  1  0  0  0  0
  2 12  1  0  0  0  0
  2  1  1  0  0  0  0
  2 13  1  0  0  0  0
  3 14  1  6  0  0  0
  3  2  1  0  0  0  0
  4  3  1  0  0  0  0
  4 17  1  0  0  0  0
  5  7  1  0  0  0  0
  5 18  1  1  0  0  0
  5  3  1  0  0  0  0
  6 19  1  0  0  0  0
  6  5  1  0  0  0  0
  7  8  2  0  0  0  0
 10  1  1  0  0  0  0
 15  4  1  0  0  0  0
 16  4  1  0  0  0  0
 20  6  1  0  0  0  0
 21 22  1  0  0  0  0
 22 32  2  0  0  0  0
 22 23  1  0  0  0  0
 23 24  2  0  0  0  0
 24 25  1  0  0  0  0
 24 35  1  0  0  0  0
 25 26  1  0  0  0  0
 26 36  1  0  0  0  0
 26 27  1  0  0  0  0
 26 37  1  0  0  0  0
 27 38  1  1  0  0  0
 28 27  1  0  0  0  0
 28  7  1  0  0  0  0
 29 27  1  0  0  0  0
 30 29  2  0  0  0  0
 31 40  1  0  0  0  0
 31 25  2  0  0  0  0
 32 31  1  0  0  0  0
 33 21  1  0  0  0  0
 34 23  1  0  0  0  0
 39 28  1  0  0  0  0
 41 32  1  0  0  0  0
 42 29  1  0  0  0  0
 42 52  1  0  0  0  0
 43 53  1  1  0  0  0
 43 48  1  0  0  0  0
 43 42  1  0  0  0  0
 44 43  1  0  0  0  0
 45 46  1  0  0  0  0
 45 57  1  0  0  0  0
 45 44  1  0  0  0  0
 46 47  2  0  0  0  0
 48 51  1  0  0  0  0
 49 48  2  0  0  0  0
 50 58  1  0  0  0  0
 50 46  1  0  0  0  0
 54 44  1  0  0  0  0
 55 44  1  0  0  0  0
 56 45  1  0  0  0  0
M  END
$$$$
