IYF.pdb
 OpenBabel07022418433D

 62 63  0  0  1  0  0  0  0  0999 V2000
   -1.3150    0.3890    5.4470 C   0  0  0  0  0  0  0  0  0  0  0  0
   -1.1260   -0.6710    4.3970 C   0  0  0  0  0  0  0  0  0  0  0  0
   -0.5130   -0.0460    3.1500 C   0  0  2  0  0  0  0  0  0  0  0  0
   -1.4830    1.0060    2.6900 C   0  0  0  0  0  0  0  0  0  0  0  0
   -0.4260   -1.2000    2.1420 C   0  0  2  0  0  0  0  0  0  0  0  0
    0.4120   -2.2340    2.7440 N   0  0  0  0  0  0  0  0  0  0  0  0
    0.2200   -0.6550    0.9270 C   0  0  0  0  0  0  0  0  0  0  0  0
    1.4190   -0.9790    0.7430 O   0  0  0  0  0  0  0  0  0  0  0  0
   -2.3510    0.7320    5.5580 H   0  0  0  0  0  0  0  0  0  0  0  0
   -1.0260   -0.0610    6.4390 H   0  0  0  0  0  0  0  0  0  0  0  0
   -0.6870    1.2960    5.2490 H   0  0  0  0  0  0  0  0  0  0  0  0
   -0.3960   -1.4280    4.7540 H   0  0  0  0  0  0  0  0  0  0  0  0
   -2.0430   -1.1950    4.1310 H   0  0  0  0  0  0  0  0  0  0  0  0
    0.4550    0.4230    3.3360 H   0  0  0  0  0  0  0  0  0  0  0  0
   -1.8320    1.6160    3.5850 H   0  0  0  0  0  0  0  0  0  0  0  0
   -0.9990    1.7250    2.0360 H   0  0  0  0  0  0  0  0  0  0  0  0
   -2.3880    0.6150    2.2120 H   0  0  0  0  0  0  0  0  0  0  0  0
   -1.4260   -1.6050    1.9990 H   0  0  0  0  0  0  0  0  0  0  0  0
   -0.2240   -2.9230    3.1870 H   0  0  0  0  0  0  0  0  0  0  0  0
    0.9070   -2.7170    1.9670 H   0  0  0  0  0  0  0  0  0  0  0  0
    1.5540    5.8780    2.3800 O   0  0  0  0  0  0  0  0  0  0  0  0
    1.5990    4.7380    1.5890 C   0  0  0  0  0  0  0  0  0  0  0  0
    1.8270    3.5040    2.1510 C   0  0  0  0  0  0  0  0  0  0  0  0
    1.8710    2.3550    1.3470 C   0  0  0  0  0  0  0  0  0  0  0  0
    1.6950    2.3970   -0.0110 C   0  0  0  0  0  0  0  0  0  0  0  0
    1.7140    1.2310   -0.9290 C   0  0  0  0  0  0  0  0  0  0  0  0
    0.3260    0.6740   -1.1620 C   0  0  2  0  0  0  0  0  0  0  0  0
   -0.3690    0.1830   -0.0350 N   0  0  0  0  0  0  0  0  0  0  0  0
    0.3140   -0.2860   -2.2780 C   0  0  0  0  0  0  0  0  0  0  0  0
    0.9130   -0.0020   -3.3750 O   0  0  0  0  0  0  0  0  0  0  0  0
    1.4640    3.6630   -0.5720 C   0  0  0  0  0  0  0  0  0  0  0  0
    1.4210    4.7880    0.2220 C   0  0  0  0  0  0  0  0  0  0  0  0
    0.6960    6.3950    2.5470 H   0  0  0  0  0  0  0  0  0  0  0  0
    1.9780    3.3810    3.2320 H   0  0  0  0  0  0  0  0  0  0  0  0
    2.0570    1.3930    1.7960 H   0  0  0  0  0  0  0  0  0  0  0  0
    2.0610    1.6420   -1.9270 H   0  0  0  0  0  0  0  0  0  0  0  0
    2.4730    0.4840   -0.6830 H   0  0  0  0  0  0  0  0  0  0  0  0
   -0.2290    1.6010   -1.5930 H   0  0  0  0  0  0  0  0  0  0  0  0
   -1.3730    0.4380    0.0970 H   0  0  0  0  0  0  0  0  0  0  0  0
    1.3210    3.7280   -1.6380 H   0  0  0  0  0  0  0  0  0  0  0  0
    1.2430    5.7750   -0.2000 H   0  0  0  0  0  0  0  0  0  0  0  0
   -0.3370   -1.5600   -2.2400 N   0  0  0  0  0  0  0  0  0  0  0  0
   -0.2950   -2.4470   -3.4130 C   0  0  1  0  0  0  0  0  0  0  0  0
    0.3610   -3.7310   -2.9650 C   0  0  0  0  0  0  0  0  0  0  0  0
   -0.3410   -4.4190   -1.8910 C   0  0  0  0  0  0  0  0  0  0  0  0
   -1.3070   -5.3540   -2.1700 C   0  0  0  0  0  0  0  0  0  0  0  0
   -1.9840   -6.0160   -1.1380 C   0  0  0  0  0  0  0  0  0  0  0  0
   -1.6740   -5.7230    0.1690 C   0  0  0  0  0  0  0  0  0  0  0  0
   -0.7120   -4.7910    0.4320 C   0  0  0  0  0  0  0  0  0  0  0  0
   -0.0490   -4.1430   -0.5780 C   0  0  0  0  0  0  0  0  0  0  0  0
   -1.6820   -2.7530   -3.8290 C   0  0  0  0  0  0  0  0  0  0  0  0
   -1.9430   -3.4730   -4.8020 O   0  0  0  0  0  0  0  0  0  0  0  0
   -2.7650   -2.2270   -3.1180 O   0  0  0  0  0  0  0  0  0  0  0  0
   -0.8270   -1.8140   -1.3610 H   0  0  0  0  0  0  0  0  0  0  0  0
    0.2990   -1.9920   -4.2200 H   0  0  0  0  0  0  0  0  0  0  0  0
    0.4410   -4.3690   -3.8790 H   0  0  0  0  0  0  0  0  0  0  0  0
    1.4190   -3.4730   -2.7070 H   0  0  0  0  0  0  0  0  0  0  0  0
   -1.6050   -5.6400   -3.1660 H   0  0  0  0  0  0  0  0  0  0  0  0
   -2.7430   -6.7510   -1.3430 H   0  0  0  0  0  0  0  0  0  0  0  0
   -2.1930   -6.2300    0.9760 H   0  0  0  0  0  0  0  0  0  0  0  0
   -0.5050   -4.5960    1.4910 H   0  0  0  0  0  0  0  0  0  0  0  0
    0.7080   -3.4110   -0.3100 H   0  0  0  0  0  0  0  0  0  0  0  0
  1  9  1  0  0  0  0
  1 10  1  0  0  0  0
  2 12  1  0  0  0  0
  2  1  1  0  0  0  0
  3 14  1  1  0  0  0
  3  2  1  0  0  0  0
  4  3  1  0  0  0  0
  4 15  1  0  0  0  0
  5 18  1  6  0  0  0
  5  6  1  0  0  0  0
  5  3  1  0  0  0  0
  6 19  1  0  0  0  0
  7  5  1  0  0  0  0
  8  7  2  0  0  0  0
 11  1  1  0  0  0  0
 13  2  1  0  0  0  0
 16  4  1  0  0  0  0
 17  4  1  0  0  0  0
 20  6  1  0  0  0  0
 21 33  1  0  0  0  0
 22 23  1  0  0  0  0
 22 21  1  0  0  0  0
 23 34  1  0  0  0  0
 24 35  1  0  0  0  0
 24 23  2  0  0  0  0
 25 24  1  0  0  0  0
 26 37  1  0  0  0  0
 26 25  1  0  0  0  0
 27 38  1  6  0  0  0
 27 26  1  0  0  0  0
 27 28  1  0  0  0  0
 28 39  1  0  0  0  0
 28  7  1  0  0  0  0
 29 42  1  0  0  0  0
 29 27  1  0  0  0  0
 30 29  2  0  0  0  0
 31 25  2  0  0  0  0
 31 32  1  0  0  0  0
 32 22  2  0  0  0  0
 36 26  1  0  0  0  0
 40 31  1  0  0  0  0
 41 32  1  0  0  0  0
 42 54  1  0  0  0  0
 43 55  1  6  0  0  0
 43 44  1  0  0  0  0
 43 42  1  0  0  0  0
 44 57  1  0  0  0  0
 44 45  1  0  0  0  0
 45 50  1  0  0  0  0
 46 45  2  0  0  0  0
 46 47  1  0  0  0  0
 47 48  2  0  0  0  0
 48 49  1  0  0  0  0
 48 60  1  0  0  0  0
 49 61  1  0  0  0  0
 50 62  1  0  0  0  0
 50 49  2  0  0  0  0
 51 43  1  0  0  0  0
 51 53  1  0  0  0  0
 52 51  2  0  0  0  0
 56 44  1  0  0  0  0
 58 46  1  0  0  0  0
 59 47  1  0  0  0  0
M  END
$$$$
