IYH.pdb
 OpenBabel07022418433D

 59 60  0  0  1  0  0  0  0  0999 V2000
    2.1080   -2.6380    3.2870 C   0  0  0  0  0  0  0  0  0  0  0  0
    1.8540   -1.4460    2.3830 C   0  0  0  0  0  0  0  0  0  0  0  0
    2.4470   -0.2410    3.0250 C   0  0  2  0  0  0  0  0  0  0  0  0
    1.8480    0.0620    4.3790 C   0  0  0  0  0  0  0  0  0  0  0  0
    2.3910    1.0190    2.1960 C   0  0  2  0  0  0  0  0  0  0  0  0
    3.0350    2.0430    3.0580 N   0  0  0  0  0  0  0  0  0  0  0  0
    1.0210    1.4910    1.9300 C   0  0  0  0  0  0  0  0  0  0  0  0
    0.5120    2.4580    2.6000 O   0  0  0  0  0  0  0  0  0  0  0  0
    1.2400   -2.7080    3.9740 H   0  0  0  0  0  0  0  0  0  0  0  0
    2.2550   -3.5270    2.6720 H   0  0  0  0  0  0  0  0  0  0  0  0
    3.0060   -2.4750    3.9030 H   0  0  0  0  0  0  0  0  0  0  0  0
    2.3070   -1.6650    1.4040 H   0  0  0  0  0  0  0  0  0  0  0  0
    0.7460   -1.3280    2.2470 H   0  0  0  0  0  0  0  0  0  0  0  0
    3.5340   -0.4830    3.2450 H   0  0  0  0  0  0  0  0  0  0  0  0
    2.1810    1.0780    4.6640 H   0  0  0  0  0  0  0  0  0  0  0  0
    2.2070   -0.6280    5.1720 H   0  0  0  0  0  0  0  0  0  0  0  0
    0.7370    0.0380    4.3030 H   0  0  0  0  0  0  0  0  0  0  0  0
    2.9870    0.9000    1.2580 H   0  0  0  0  0  0  0  0  0  0  0  0
    3.1960    2.9010    2.5160 H   0  0  0  0  0  0  0  0  0  0  0  0
    3.9750    1.6650    3.3390 H   0  0  0  0  0  0  0  0  0  0  0  0
    0.5190   -0.5730   -5.1650 O   0  0  0  0  0  0  0  0  0  0  0  0
    0.1050    0.1370   -4.0230 C   0  0  0  0  0  0  0  0  0  0  0  0
   -1.2240    0.2090   -3.6790 C   0  0  0  0  0  0  0  0  0  0  0  0
   -1.6100    0.9130   -2.5520 C   0  0  0  0  0  0  0  0  0  0  0  0
   -0.6870    1.5510   -1.7560 C   0  0  0  0  0  0  0  0  0  0  0  0
   -1.1080    2.2930   -0.5650 C   0  0  0  0  0  0  0  0  0  0  0  0
   -1.1340    1.4060    0.6890 C   0  0  2  0  0  0  0  0  0  0  0  0
    0.2040    0.8900    0.9070 N   0  0  0  0  0  0  0  0  0  0  0  0
   -2.1650    0.3670    0.5630 C   0  0  0  0  0  0  0  0  0  0  0  0
   -3.3920    0.6980    0.4490 O   0  0  0  0  0  0  0  0  0  0  0  0
    0.6480    1.4920   -2.0810 C   0  0  0  0  0  0  0  0  0  0  0  0
    1.0150    0.7840   -3.2120 C   0  0  0  0  0  0  0  0  0  0  0  0
    0.4630   -0.1390   -6.0830 H   0  0  0  0  0  0  0  0  0  0  0  0
   -1.9680   -0.2880   -4.2930 H   0  0  0  0  0  0  0  0  0  0  0  0
   -2.6710    0.9280   -2.3400 H   0  0  0  0  0  0  0  0  0  0  0  0
   -2.1110    2.7550   -0.6920 H   0  0  0  0  0  0  0  0  0  0  0  0
   -0.3810    3.1160   -0.3910 H   0  0  0  0  0  0  0  0  0  0  0  0
   -1.3930    2.1080    1.5310 H   0  0  0  0  0  0  0  0  0  0  0  0
    0.5710    0.1020    0.3370 H   0  0  0  0  0  0  0  0  0  0  0  0
    1.4210    1.9870   -1.4740 H   0  0  0  0  0  0  0  0  0  0  0  0
    2.0600    0.7340   -3.4720 H   0  0  0  0  0  0  0  0  0  0  0  0
   -1.9150   -1.0200    0.5560 N   0  0  0  0  0  0  0  0  0  0  0  0
   -2.9710   -2.0040    0.4320 C   0  0  1  0  0  0  0  0  0  0  0  0
   -2.8070   -2.7680   -0.8650 C   0  0  0  0  0  0  0  0  0  0  0  0
   -1.5290   -3.4810   -0.9590 C   0  0  0  0  0  0  0  0  0  0  0  0
   -1.2460   -4.7650   -0.5560 C   0  0  0  0  0  0  0  0  0  0  0  0
    0.0580   -4.9810   -0.8450 N   0  0  0  0  0  0  0  0  0  0  0  0
    0.5820   -3.8840   -1.4060 C   0  0  0  0  0  0  0  0  0  0  0  0
   -0.3900   -2.9810   -1.4700 N   0  0  0  0  0  0  0  0  0  0  0  0
   -3.0260   -2.9040    1.6110 C   0  0  0  0  0  0  0  0  0  0  0  0
   -2.2320   -2.7940    2.5850 O   0  0  0  0  0  0  0  0  0  0  0  0
   -3.9950   -3.8970    1.6240 O   0  0  0  0  0  0  0  0  0  0  0  0
   -0.9400   -1.3650    0.6340 H   0  0  0  0  0  0  0  0  0  0  0  0
   -3.9290   -1.4500    0.3540 H   0  0  0  0  0  0  0  0  0  0  0  0
   -2.8520   -2.0070   -1.6790 H   0  0  0  0  0  0  0  0  0  0  0  0
   -3.6190   -3.4850   -1.0170 H   0  0  0  0  0  0  0  0  0  0  0  0
   -1.9240   -5.4930   -0.0900 H   0  0  0  0  0  0  0  0  0  0  0  0
    0.5560   -5.8930   -0.6430 H   0  0  0  0  0  0  0  0  0  0  0  0
    1.6030   -3.7700   -1.7390 H   0  0  0  0  0  0  0  0  0  0  0  0
  1 11  1  0  0  0  0
  1  9  1  0  0  0  0
  2  3  1  0  0  0  0
  2  1  1  0  0  0  0
  3 14  1  1  0  0  0
  3  4  1  0  0  0  0
  4 15  1  0  0  0  0
  4 16  1  0  0  0  0
  5 18  1  6  0  0  0
  5  3  1  0  0  0  0
  5  6  1  0  0  0  0
  6 20  1  0  0  0  0
  7  5  1  0  0  0  0
  7  8  2  0  0  0  0
 10  1  1  0  0  0  0
 12  2  1  0  0  0  0
 13  2  1  0  0  0  0
 17  4  1  0  0  0  0
 19  6  1  0  0  0  0
 21 22  1  0  0  0  0
 22 23  2  0  0  0  0
 22 32  1  0  0  0  0
 23 24  1  0  0  0  0
 24 35  1  0  0  0  0
 24 25  2  0  0  0  0
 25 26  1  0  0  0  0
 26 37  1  0  0  0  0
 26 27  1  0  0  0  0
 27 28  1  0  0  0  0
 27 38  1  1  0  0  0
 28  7  1  0  0  0  0
 29 27  1  0  0  0  0
 30 29  2  0  0  0  0
 31 25  1  0  0  0  0
 31 40  1  0  0  0  0
 32 31  2  0  0  0  0
 33 21  1  0  0  0  0
 34 23  1  0  0  0  0
 36 26  1  0  0  0  0
 39 28  1  0  0  0  0
 41 32  1  0  0  0  0
 42 29  1  0  0  0  0
 42 53  1  0  0  0  0
 43 54  1  6  0  0  0
 43 42  1  0  0  0  0
 43 50  1  0  0  0  0
 44 43  1  0  0  0  0
 45 44  1  0  0  0  0
 45 46  2  0  0  0  0
 46 57  1  0  0  0  0
 47 58  1  0  0  0  0
 47 46  1  0  0  0  0
 48 47  1  0  0  0  0
 49 48  2  0  0  0  0
 49 45  1  0  0  0  0
 50 52  2  0  0  0  0
 50 51  1  0  0  0  0
 55 44  1  0  0  0  0
 56 44  1  0  0  0  0
 59 48  1  0  0  0  0
M  END
$$$$
