IYI.pdb
 OpenBabel07022418433D

 61 61  0  0  1  0  0  0  0  0999 V2000
   -1.5320    0.9190    5.9310 C   0  0  0  0  0  0  0  0  0  0  0  0
   -0.3140    1.5550    5.2970 C   0  0  0  0  0  0  0  0  0  0  0  0
    0.5620    0.5270    4.6250 C   0  0  2  0  0  0  0  0  0  0  0  0
    1.7630    1.2340    4.0120 C   0  0  0  0  0  0  0  0  0  0  0  0
   -0.1670   -0.2960    3.6020 C   0  0  2  0  0  0  0  0  0  0  0  0
    0.7920   -1.2490    3.0340 N   0  0  0  0  0  0  0  0  0  0  0  0
   -0.7400    0.5510    2.5350 C   0  0  0  0  0  0  0  0  0  0  0  0
   -1.5780    1.4590    2.7490 O   0  0  0  0  0  0  0  0  0  0  0  0
   -2.2130    0.4490    5.2170 H   0  0  0  0  0  0  0  0  0  0  0  0
   -2.0730    1.7490    6.4730 H   0  0  0  0  0  0  0  0  0  0  0  0
   -1.2500    0.1490    6.6770 H   0  0  0  0  0  0  0  0  0  0  0  0
   -0.6070    2.3960    4.6530 H   0  0  0  0  0  0  0  0  0  0  0  0
    0.2970    1.9870    6.1340 H   0  0  0  0  0  0  0  0  0  0  0  0
    0.9630   -0.1250    5.4240 H   0  0  0  0  0  0  0  0  0  0  0  0
    1.5590    1.5310    2.9710 H   0  0  0  0  0  0  0  0  0  0  0  0
    2.6620    0.5980    4.0380 H   0  0  0  0  0  0  0  0  0  0  0  0
    2.0160    2.1450    4.6200 H   0  0  0  0  0  0  0  0  0  0  0  0
   -0.9780   -0.8440    4.1220 H   0  0  0  0  0  0  0  0  0  0  0  0
    1.5290   -0.6710    2.5630 H   0  0  0  0  0  0  0  0  0  0  0  0
    0.3430   -1.8720    2.3490 H   0  0  0  0  0  0  0  0  0  0  0  0
    4.4550   -0.8840   -2.8840 O   0  0  0  0  0  0  0  0  0  0  0  0
    3.3810   -0.1700   -2.3270 C   0  0  0  0  0  0  0  0  0  0  0  0
    3.4320    0.2570   -1.0120 C   0  0  0  0  0  0  0  0  0  0  0  0
    2.4180    0.9600   -0.3970 C   0  0  0  0  0  0  0  0  0  0  0  0
    1.3000    1.2450   -1.1500 C   0  0  0  0  0  0  0  0  0  0  0  0
    0.1800    1.9980   -0.5600 C   0  0  0  0  0  0  0  0  0  0  0  0
   -0.8650    1.1470    0.0920 C   0  0  2  0  0  0  0  0  0  0  0  0
   -0.3380    0.3510    1.1770 N   0  0  0  0  0  0  0  0  0  0  0  0
   -1.5920    0.2840   -0.8430 C   0  0  0  0  0  0  0  0  0  0  0  0
   -2.1610    0.7000   -1.8910 O   0  0  0  0  0  0  0  0  0  0  0  0
    1.2200    0.8310   -2.4680 C   0  0  0  0  0  0  0  0  0  0  0  0
    2.2520    0.1290   -3.0510 C   0  0  0  0  0  0  0  0  0  0  0  0
    4.8850   -0.4520   -3.6940 H   0  0  0  0  0  0  0  0  0  0  0  0
    4.3170    0.0250   -0.4330 H   0  0  0  0  0  0  0  0  0  0  0  0
    2.4920    1.2830    0.6430 H   0  0  0  0  0  0  0  0  0  0  0  0
    0.6200    2.6410    0.2550 H   0  0  0  0  0  0  0  0  0  0  0  0
   -0.2940    2.6920   -1.2630 H   0  0  0  0  0  0  0  0  0  0  0  0
   -1.5910    1.8750    0.5660 H   0  0  0  0  0  0  0  0  0  0  0  0
    0.3560   -0.3850    0.9200 H   0  0  0  0  0  0  0  0  0  0  0  0
    0.3210    1.0750   -3.0290 H   0  0  0  0  0  0  0  0  0  0  0  0
    2.1870   -0.1870   -4.0660 H   0  0  0  0  0  0  0  0  0  0  0  0
   -0.6870   -4.8830   -3.3020 C   0  0  0  0  0  0  0  0  0  0  0  0
   -1.9040   -4.0360   -2.9000 C   0  0  0  0  0  0  0  0  0  0  0  0
   -1.4020   -3.0200   -1.9310 C   0  0  2  0  0  0  0  0  0  0  0  0
   -0.7960   -3.6300   -0.6930 C   0  0  0  0  0  0  0  0  0  0  0  0
   -2.4100   -1.9780   -1.5110 C   0  0  2  0  0  0  0  0  0  0  0  0
   -1.6780   -1.1070   -0.5750 N   0  0  0  0  0  0  0  0  0  0  0  0
   -3.5240   -2.6600   -0.8090 C   0  0  0  0  0  0  0  0  0  0  0  0
   -4.2810   -3.4010   -1.4800 O   0  0  0  0  0  0  0  0  0  0  0  0
   -3.7720   -2.5250    0.5380 O   0  0  0  0  0  0  0  0  0  0  0  0
    0.2540   -4.4480   -2.9560 H   0  0  0  0  0  0  0  0  0  0  0  0
   -0.8790   -5.8980   -2.9040 H   0  0  0  0  0  0  0  0  0  0  0  0
   -0.6110   -4.9830   -4.4110 H   0  0  0  0  0  0  0  0  0  0  0  0
   -2.2300   -3.5320   -3.8310 H   0  0  0  0  0  0  0  0  0  0  0  0
   -2.7220   -4.6680   -2.5600 H   0  0  0  0  0  0  0  0  0  0  0  0
   -0.5660   -2.4350   -2.4340 H   0  0  0  0  0  0  0  0  0  0  0  0
   -0.5230   -4.6980   -0.8350 H   0  0  0  0  0  0  0  0  0  0  0  0
   -1.5150   -3.6090    0.1590 H   0  0  0  0  0  0  0  0  0  0  0  0
    0.0780   -3.0190   -0.3570 H   0  0  0  0  0  0  0  0  0  0  0  0
   -2.8050   -1.3780   -2.3270 H   0  0  0  0  0  0  0  0  0  0  0  0
   -1.2360   -1.5580    0.2750 H   0  0  0  0  0  0  0  0  0  0  0  0
  1 10  1  0  0  0  0
  1 11  1  0  0  0  0
  2  1  1  0  0  0  0
  2 13  1  0  0  0  0
  3  2  1  0  0  0  0
  3 14  1  1  0  0  0
  4 16  1  0  0  0  0
  4 17  1  0  0  0  0
  4  3  1  0  0  0  0
  5 18  1  1  0  0  0
  5  3  1  0  0  0  0
  6  5  1  0  0  0  0
  7  8  2  0  0  0  0
  7  5  1  0  0  0  0
  9  1  1  0  0  0  0
 12  2  1  0  0  0  0
 15  4  1  0  0  0  0
 19  6  1  0  0  0  0
 20  6  1  0  0  0  0
 21 22  1  0  0  0  0
 22 23  1  0  0  0  0
 23 34  1  0  0  0  0
 23 24  2  0  0  0  0
 24 35  1  0  0  0  0
 25 26  1  0  0  0  0
 25 24  1  0  0  0  0
 26 27  1  0  0  0  0
 26 36  1  0  0  0  0
 27 38  1  1  0  0  0
 27 28  1  0  0  0  0
 28  7  1  0  0  0  0
 29 47  1  0  0  0  0
 29 27  1  0  0  0  0
 30 29  2  0  0  0  0
 31 25  2  0  0  0  0
 32 31  1  0  0  0  0
 32 22  2  0  0  0  0
 33 21  1  0  0  0  0
 37 26  1  0  0  0  0
 39 28  1  0  0  0  0
 40 31  1  0  0  0  0
 41 32  1  0  0  0  0
 42 51  1  0  0  0  0
 42 52  1  0  0  0  0
 42 43  1  0  0  0  0
 43 55  1  0  0  0  0
 43 44  1  0  0  0  0
 44 56  1  6  0  0  0
 44 46  1  0  0  0  0
 44 45  1  0  0  0  0
 45 59  1  0  0  0  0
 45 58  1  0  0  0  0
 46 60  1  6  0  0  0
 46 48  1  0  0  0  0
 46 47  1  0  0  0  0
 47 61  1  0  0  0  0
 48 50  1  0  0  0  0
 49 48  2  0  0  0  0
 53 42  1  0  0  0  0
 54 43  1  0  0  0  0
 57 45  1  0  0  0  0
M  END
$$$$
