IYK.pdb
 OpenBabel07022418433D

 63 63  0  0  1  0  0  0  0  0999 V2000
   -0.5030   -2.3730    5.5910 C   0  0  0  0  0  0  0  0  0  0  0  0
    0.2810   -1.3730    4.7030 C   0  0  0  0  0  0  0  0  0  0  0  0
    0.3110   -0.0430    5.3940 C   0  0  2  0  0  0  0  0  0  0  0  0
   -1.0620    0.5300    5.6250 C   0  0  0  0  0  0  0  0  0  0  0  0
    1.2490    0.9470    4.7820 C   0  0  2  0  0  0  0  0  0  0  0  0
    1.1530    2.1760    5.5820 N   0  0  0  0  0  0  0  0  0  0  0  0
    0.9920    1.2470    3.3550 C   0  0  0  0  0  0  0  0  0  0  0  0
    0.5600    2.4030    3.0000 O   0  0  0  0  0  0  0  0  0  0  0  0
   -1.5620   -2.0060    5.6690 H   0  0  0  0  0  0  0  0  0  0  0  0
   -0.4820   -3.3400    5.0430 H   0  0  0  0  0  0  0  0  0  0  0  0
   -0.0100   -2.4980    6.5650 H   0  0  0  0  0  0  0  0  0  0  0  0
    1.2660   -1.8380    4.5750 H   0  0  0  0  0  0  0  0  0  0  0  0
   -0.2810   -1.3310    3.7580 H   0  0  0  0  0  0  0  0  0  0  0  0
    0.6900   -0.2890    6.4430 H   0  0  0  0  0  0  0  0  0  0  0  0
   -0.9300    1.5420    6.0680 H   0  0  0  0  0  0  0  0  0  0  0  0
   -1.6760    0.5630    4.7250 H   0  0  0  0  0  0  0  0  0  0  0  0
   -1.5820   -0.0870    6.4040 H   0  0  0  0  0  0  0  0  0  0  0  0
    2.3150    0.6180    4.8310 H   0  0  0  0  0  0  0  0  0  0  0  0
    1.7700    2.9230    5.2110 H   0  0  0  0  0  0  0  0  0  0  0  0
    1.5310    1.9300    6.5230 H   0  0  0  0  0  0  0  0  0  0  0  0
    2.7310    1.2560   -5.4000 O   0  0  0  0  0  0  0  0  0  0  0  0
    2.5970    1.0610   -4.0100 C   0  0  0  0  0  0  0  0  0  0  0  0
    2.6190    2.0950   -3.1110 C   0  0  0  0  0  0  0  0  0  0  0  0
    2.4730    1.7850   -1.7620 C   0  0  0  0  0  0  0  0  0  0  0  0
    2.3130    0.5050   -1.2770 C   0  0  0  0  0  0  0  0  0  0  0  0
    2.2200    0.3190    0.1520 C   0  0  0  0  0  0  0  0  0  0  0  0
    0.9750    0.5810    0.8760 C   0  0  2  0  0  0  0  0  0  0  0  0
    1.1980    0.3350    2.3140 N   0  0  0  0  0  0  0  0  0  0  0  0
   -0.2830   -0.0140    0.5350 C   0  0  0  0  0  0  0  0  0  0  0  0
   -1.1270   -0.2590    1.4970 O   0  0  0  0  0  0  0  0  0  0  0  0
    2.2990   -0.4910   -2.2010 C   0  0  0  0  0  0  0  0  0  0  0  0
    2.4360   -0.2320   -3.5450 C   0  0  0  0  0  0  0  0  0  0  0  0
    2.0460    1.8340   -5.8740 H   0  0  0  0  0  0  0  0  0  0  0  0
    2.7360    3.1150   -3.4250 H   0  0  0  0  0  0  0  0  0  0  0  0
    2.5000    2.6330   -1.0840 H   0  0  0  0  0  0  0  0  0  0  0  0
    3.0860    0.9210    0.6110 H   0  0  0  0  0  0  0  0  0  0  0  0
    2.5630   -0.7430    0.4400 H   0  0  0  0  0  0  0  0  0  0  0  0
    0.8160    1.7250    0.8240 H   0  0  0  0  0  0  0  0  0  0  0  0
    1.5640   -0.6280    2.5450 H   0  0  0  0  0  0  0  0  0  0  0  0
    2.1840   -1.5220   -1.9010 H   0  0  0  0  0  0  0  0  0  0  0  0
    2.4290   -1.0210   -4.3130 H   0  0  0  0  0  0  0  0  0  0  0  0
   -0.7700   -0.3900   -0.7050 N   0  0  0  0  0  0  0  0  0  0  0  0
   -2.1000   -0.9820   -0.8450 C   0  0  1  0  0  0  0  0  0  0  0  0
   -2.6420   -0.8360   -2.2210 C   0  0  0  0  0  0  0  0  0  0  0  0
   -1.8700   -1.4450   -3.3090 C   0  0  0  0  0  0  0  0  0  0  0  0
   -1.6800   -2.8860   -3.4380 C   0  0  0  0  0  0  0  0  0  0  0  0
   -2.8290   -3.7520   -3.7690 C   0  0  0  0  0  0  0  0  0  0  0  0
   -3.9580   -3.8220   -2.9530 N   0  0  0  0  0  0  0  0  0  0  0  0
   -2.2000   -2.2960   -0.2530 C   0  0  0  0  0  0  0  0  0  0  0  0
   -3.3240   -2.8550   -0.2220 O   0  0  0  0  0  0  0  0  0  0  0  0
   -1.1850   -3.0590    0.3140 O   0  0  0  0  0  0  0  0  0  0  0  0
   -0.2590   -0.2710   -1.5910 H   0  0  0  0  0  0  0  0  0  0  0  0
   -2.7450   -0.3470   -0.1660 H   0  0  0  0  0  0  0  0  0  0  0  0
   -3.7200   -1.1050   -2.2000 H   0  0  0  0  0  0  0  0  0  0  0  0
   -2.6690    0.2840   -2.4370 H   0  0  0  0  0  0  0  0  0  0  0  0
   -2.3870   -1.1060   -4.2710 H   0  0  0  0  0  0  0  0  0  0  0  0
   -0.8880   -0.9220   -3.3940 H   0  0  0  0  0  0  0  0  0  0  0  0
   -1.1130   -3.3530   -2.5800 H   0  0  0  0  0  0  0  0  0  0  0  0
   -0.9580   -3.0240   -4.3110 H   0  0  0  0  0  0  0  0  0  0  0  0
   -3.2130   -3.5330   -4.8290 H   0  0  0  0  0  0  0  0  0  0  0  0
   -2.4270   -4.8100   -3.9050 H   0  0  0  0  0  0  0  0  0  0  0  0
   -3.9630   -4.5510   -2.2010 H   0  0  0  0  0  0  0  0  0  0  0  0
   -4.8710   -3.9180   -3.4750 H   0  0  0  0  0  0  0  0  0  0  0  0
  1  9  1  0  0  0  0
  1 11  1  0  0  0  0
  2  3  1  0  0  0  0
  2  1  1  0  0  0  0
  3  4  1  0  0  0  0
  3 14  1  1  0  0  0
  4 15  1  0  0  0  0
  4 17  1  0  0  0  0
  5 18  1  1  0  0  0
  5  3  1  0  0  0  0
  5  6  1  0  0  0  0
  6 20  1  0  0  0  0
  7  5  1  0  0  0  0
  8  7  2  0  0  0  0
 10  1  1  0  0  0  0
 12  2  1  0  0  0  0
 13  2  1  0  0  0  0
 16  4  1  0  0  0  0
 19  6  1  0  0  0  0
 21 22  1  0  0  0  0
 22 32  2  0  0  0  0
 22 23  1  0  0  0  0
 23 24  2  0  0  0  0
 24 25  1  0  0  0  0
 24 35  1  0  0  0  0
 25 26  1  0  0  0  0
 26 37  1  0  0  0  0
 26 36  1  0  0  0  0
 26 27  1  0  0  0  0
 27 38  1  6  0  0  0
 27 28  1  0  0  0  0
 28 39  1  0  0  0  0
 28  7  1  0  0  0  0
 29 27  1  0  0  0  0
 29 30  2  0  0  0  0
 31 40  1  0  0  0  0
 31 25  2  0  0  0  0
 32 31  1  0  0  0  0
 33 21  1  0  0  0  0
 34 23  1  0  0  0  0
 41 32  1  0  0  0  0
 42 29  1  0  0  0  0
 43 42  1  0  0  0  0
 43 49  1  0  0  0  0
 43 53  1  1  0  0  0
 44 54  1  0  0  0  0
 44 43  1  0  0  0  0
 45 44  1  0  0  0  0
 46 45  1  0  0  0  0
 46 58  1  0  0  0  0
 47 46  1  0  0  0  0
 47 48  1  0  0  0  0
 48 62  1  0  0  0  0
 49 50  2  0  0  0  0
 49 51  1  0  0  0  0
 52 42  1  0  0  0  0
 55 44  1  0  0  0  0
 56 45  1  0  0  0  0
 57 45  1  0  0  0  0
 59 46  1  0  0  0  0
 60 47  1  0  0  0  0
 61 47  1  0  0  0  0
 63 48  1  0  0  0  0
M  END
$$$$
