IYM.pdb
 OpenBabel07022418433D

 59 59  0  0  1  0  0  0  0  0999 V2000
    1.2480   -0.5830    3.5880 C   0  0  0  0  0  0  0  0  0  0  0  0
    2.6210   -1.0670    3.2320 C   0  0  0  0  0  0  0  0  0  0  0  0
    2.8980   -1.0770    1.7710 C   0  0  2  0  0  0  0  0  0  0  0  0
    4.3080   -1.5810    1.5420 C   0  0  0  0  0  0  0  0  0  0  0  0
    2.6700    0.2060    1.0470 C   0  0  2  0  0  0  0  0  0  0  0  0
    3.4900    1.2900    1.5810 N   0  0  0  0  0  0  0  0  0  0  0  0
    1.2690    0.5770    0.8560 C   0  0  0  0  0  0  0  0  0  0  0  0
    0.7880    1.6980    1.2380 O   0  0  0  0  0  0  0  0  0  0  0  0
    0.9380   -0.9470    4.6150 H   0  0  0  0  0  0  0  0  0  0  0  0
    1.1780    0.5240    3.6820 H   0  0  0  0  0  0  0  0  0  0  0  0
    0.4750   -0.9750    2.9050 H   0  0  0  0  0  0  0  0  0  0  0  0
    3.4170   -0.5410    3.8240 H   0  0  0  0  0  0  0  0  0  0  0  0
    2.6850   -2.1310    3.6060 H   0  0  0  0  0  0  0  0  0  0  0  0
    2.2340   -1.8490    1.2880 H   0  0  0  0  0  0  0  0  0  0  0  0
    5.0800   -0.8680    1.8650 H   0  0  0  0  0  0  0  0  0  0  0  0
    4.4680   -1.9340    0.5140 H   0  0  0  0  0  0  0  0  0  0  0  0
    4.4210   -2.4820    2.2080 H   0  0  0  0  0  0  0  0  0  0  0  0
    3.1050    0.0410    0.0090 H   0  0  0  0  0  0  0  0  0  0  0  0
    3.2890    2.1310    0.9920 H   0  0  0  0  0  0  0  0  0  0  0  0
    4.4840    1.0300    1.3630 H   0  0  0  0  0  0  0  0  0  0  0  0
    1.5980    4.5200   -3.7550 O   0  0  0  0  0  0  0  0  0  0  0  0
    0.8840    3.4610   -3.1930 C   0  0  0  0  0  0  0  0  0  0  0  0
   -0.3360    3.6780   -2.5720 C   0  0  0  0  0  0  0  0  0  0  0  0
   -1.0610    2.6500   -2.0100 C   0  0  0  0  0  0  0  0  0  0  0  0
   -0.5920    1.3540   -2.0460 C   0  0  0  0  0  0  0  0  0  0  0  0
   -1.3980    0.2940   -1.4340 C   0  0  0  0  0  0  0  0  0  0  0  0
   -1.0560    0.0840    0.0350 C   0  0  2  0  0  0  0  0  0  0  0  0
    0.3110   -0.2850    0.2210 N   0  0  0  0  0  0  0  0  0  0  0  0
   -2.0350   -0.8970    0.5660 C   0  0  0  0  0  0  0  0  0  0  0  0
   -3.2840   -0.6470    0.4630 O   0  0  0  0  0  0  0  0  0  0  0  0
    0.6210    1.1130   -2.6590 C   0  0  0  0  0  0  0  0  0  0  0  0
    1.3330    2.1580   -3.2170 C   0  0  0  0  0  0  0  0  0  0  0  0
    2.2950    4.2750   -4.4490 H   0  0  0  0  0  0  0  0  0  0  0  0
   -0.7390    4.6750   -2.5220 H   0  0  0  0  0  0  0  0  0  0  0  0
   -2.0230    2.8960   -1.5330 H   0  0  0  0  0  0  0  0  0  0  0  0
   -2.4690    0.5540   -1.5610 H   0  0  0  0  0  0  0  0  0  0  0  0
   -1.2600   -0.6610   -2.0090 H   0  0  0  0  0  0  0  0  0  0  0  0
   -1.2870    1.0630    0.5150 H   0  0  0  0  0  0  0  0  0  0  0  0
    0.6700   -1.2000   -0.0990 H   0  0  0  0  0  0  0  0  0  0  0  0
    1.0310    0.0910   -2.7090 H   0  0  0  0  0  0  0  0  0  0  0  0
    2.2980    2.0040   -3.7110 H   0  0  0  0  0  0  0  0  0  0  0  0
   -4.0270   -3.1160   -1.4830 C   0  0  0  0  0  0  0  0  0  0  0  0
   -3.5620   -4.7780   -1.0370 S   0  0  0  0  0  0  0  0  0  0  0  0
   -2.1780   -4.9290    0.0660 C   0  0  0  0  0  0  0  0  0  0  0  0
   -2.3600   -4.4580    1.4550 C   0  0  0  0  0  0  0  0  0  0  0  0
   -2.6730   -3.0250    1.6800 C   0  0  2  0  0  0  0  0  0  0  0  0
   -1.6470   -2.1110    1.1870 N   0  0  0  0  0  0  0  0  0  0  0  0
   -2.6980   -2.8550    3.1900 C   0  0  0  0  0  0  0  0  0  0  0  0
   -1.9170   -2.0410    3.7270 O   0  0  0  0  0  0  0  0  0  0  0  0
   -3.5670   -3.5830    3.9800 O   0  0  0  0  0  0  0  0  0  0  0  0
   -4.7530   -2.6650   -0.7840 H   0  0  0  0  0  0  0  0  0  0  0  0
   -3.1010   -2.4880   -1.5700 H   0  0  0  0  0  0  0  0  0  0  0  0
   -4.4890   -3.0470   -2.4990 H   0  0  0  0  0  0  0  0  0  0  0  0
   -1.9060   -6.0280    0.1330 H   0  0  0  0  0  0  0  0  0  0  0  0
   -1.2690   -4.4720   -0.3950 H   0  0  0  0  0  0  0  0  0  0  0  0
   -3.1830   -5.0460    1.9390 H   0  0  0  0  0  0  0  0  0  0  0  0
   -1.4460   -4.7060    2.0480 H   0  0  0  0  0  0  0  0  0  0  0  0
   -3.6610   -2.6870    1.3200 H   0  0  0  0  0  0  0  0  0  0  0  0
   -0.6240   -2.3380    1.2820 H   0  0  0  0  0  0  0  0  0  0  0  0
  1 10  1  0  0  0  0
  1  9  1  0  0  0  0
  2  1  1  0  0  0  0
  2 13  1  0  0  0  0
  2 12  1  0  0  0  0
  3 14  1  6  0  0  0
  3  2  1  0  0  0  0
  4  3  1  0  0  0  0
  4 15  1  0  0  0  0
  4 17  1  0  0  0  0
  5 18  1  6  0  0  0
  5  6  1  0  0  0  0
  5  3  1  0  0  0  0
  7  5  1  0  0  0  0
  7  8  2  0  0  0  0
 11  1  1  0  0  0  0
 16  4  1  0  0  0  0
 19  6  1  0  0  0  0
 20  6  1  0  0  0  0
 21 22  1  0  0  0  0
 22 23  1  0  0  0  0
 23 34  1  0  0  0  0
 23 24  2  0  0  0  0
 24 35  1  0  0  0  0
 25 24  1  0  0  0  0
 25 26  1  0  0  0  0
 26 27  1  0  0  0  0
 27 28  1  0  0  0  0
 27 38  1  1  0  0  0
 27 29  1  0  0  0  0
 28  7  1  0  0  0  0
 29 47  1  0  0  0  0
 30 29  2  0  0  0  0
 31 25  2  0  0  0  0
 32 22  2  0  0  0  0
 32 31  1  0  0  0  0
 33 21  1  0  0  0  0
 36 26  1  0  0  0  0
 37 26  1  0  0  0  0
 39 28  1  0  0  0  0
 40 31  1  0  0  0  0
 41 32  1  0  0  0  0
 42 43  1  0  0  0  0
 42 51  1  0  0  0  0
 43 44  1  0  0  0  0
 44 54  1  0  0  0  0
 44 45  1  0  0  0  0
 45 46  1  0  0  0  0
 45 56  1  0  0  0  0
 45 57  1  0  0  0  0
 46 58  1  6  0  0  0
 46 48  1  0  0  0  0
 47 59  1  0  0  0  0
 47 46  1  0  0  0  0
 48 49  2  0  0  0  0
 48 50  1  0  0  0  0
 52 42  1  0  0  0  0
 53 42  1  0  0  0  0
 55 44  1  0  0  0  0
M  END
$$$$
