IYS.pdb
 OpenBabel07022418433D

 53 53  0  0  1  0  0  0  0  0999 V2000
    0.8720   -3.8250    5.1860 C   0  0  0  0  0  0  0  0  0  0  0  0
    0.0660   -2.5560    5.2340 C   0  0  0  0  0  0  0  0  0  0  0  0
    0.8900   -1.3090    5.1720 C   0  0  2  0  0  0  0  0  0  0  0  0
   -0.0470   -0.1180    5.2240 C   0  0  0  0  0  0  0  0  0  0  0  0
    1.7570   -1.2120    3.9370 C   0  0  2  0  0  0  0  0  0  0  0  0
    2.4750    0.0470    4.0480 N   0  0  0  0  0  0  0  0  0  0  0  0
    0.9740   -1.3100    2.7060 C   0  0  0  0  0  0  0  0  0  0  0  0
    0.3220   -2.3700    2.4860 O   0  0  0  0  0  0  0  0  0  0  0  0
    0.7430   -4.4530    6.0940 H   0  0  0  0  0  0  0  0  0  0  0  0
    1.9490   -3.6810    5.0310 H   0  0  0  0  0  0  0  0  0  0  0  0
    0.4630   -4.4430    4.3470 H   0  0  0  0  0  0  0  0  0  0  0  0
   -0.7650   -2.5140    4.5210 H   0  0  0  0  0  0  0  0  0  0  0  0
   -0.4310   -2.5430    6.2500 H   0  0  0  0  0  0  0  0  0  0  0  0
    1.5250   -1.3040    6.0860 H   0  0  0  0  0  0  0  0  0  0  0  0
   -0.1440    0.3210    4.2150 H   0  0  0  0  0  0  0  0  0  0  0  0
    0.3830    0.6430    5.9240 H   0  0  0  0  0  0  0  0  0  0  0  0
   -1.0630   -0.4260    5.5460 H   0  0  0  0  0  0  0  0  0  0  0  0
    2.5300   -2.0120    4.0220 H   0  0  0  0  0  0  0  0  0  0  0  0
    1.8120    0.8420    3.8780 H   0  0  0  0  0  0  0  0  0  0  0  0
    2.8530    0.0890    5.0210 H   0  0  0  0  0  0  0  0  0  0  0  0
   -4.6220    0.6050   -3.8620 O   0  0  0  0  0  0  0  0  0  0  0  0
   -3.7320    0.5980   -2.7980 C   0  0  0  0  0  0  0  0  0  0  0  0
   -2.6270    1.4420   -2.7550 C   0  0  0  0  0  0  0  0  0  0  0  0
   -1.7550    1.4270   -1.6970 C   0  0  0  0  0  0  0  0  0  0  0  0
   -1.9450    0.5740   -0.6410 C   0  0  0  0  0  0  0  0  0  0  0  0
   -1.0280    0.5540    0.4980 C   0  0  0  0  0  0  0  0  0  0  0  0
    0.0680   -0.4580    0.4920 C   0  0  2  0  0  0  0  0  0  0  0  0
    0.8750   -0.3130    1.7200 N   0  0  0  0  0  0  0  0  0  0  0  0
    0.9080   -0.4910   -0.6860 C   0  0  0  0  0  0  0  0  0  0  0  0
    2.1540   -0.2270   -0.5460 O   0  0  0  0  0  0  0  0  0  0  0  0
   -3.0460   -0.2910   -0.6470 C   0  0  0  0  0  0  0  0  0  0  0  0
   -3.9010   -0.2500   -1.7230 C   0  0  0  0  0  0  0  0  0  0  0  0
   -4.3740    1.1110   -4.7070 H   0  0  0  0  0  0  0  0  0  0  0  0
   -2.4980    2.1060   -3.6000 H   0  0  0  0  0  0  0  0  0  0  0  0
   -0.9150    2.0920   -1.6990 H   0  0  0  0  0  0  0  0  0  0  0  0
   -0.5540    1.5520    0.6850 H   0  0  0  0  0  0  0  0  0  0  0  0
   -1.6970    0.4290    1.4110 H   0  0  0  0  0  0  0  0  0  0  0  0
   -0.4130   -1.4750    0.6020 H   0  0  0  0  0  0  0  0  0  0  0  0
    1.3880    0.5830    1.8440 H   0  0  0  0  0  0  0  0  0  0  0  0
   -3.2270   -0.9790    0.1700 H   0  0  0  0  0  0  0  0  0  0  0  0
   -4.7780   -0.9080   -1.7800 H   0  0  0  0  0  0  0  0  0  0  0  0
    0.1870   -2.5160   -4.1670 O   0  0  0  0  0  0  0  0  0  0  0  0
    1.4600   -2.1960   -3.7090 C   0  0  0  0  0  0  0  0  0  0  0  0
    1.4320   -0.8060   -3.0990 C   0  0  2  0  0  0  0  0  0  0  0  0
    0.5060   -0.7940   -2.0100 N   0  0  0  0  0  0  0  0  0  0  0  0
    1.1540    0.1370   -4.1930 C   0  0  0  0  0  0  0  0  0  0  0  0
    0.1880    0.9290   -4.2280 O   0  0  0  0  0  0  0  0  0  0  0  0
    2.0330    0.1460   -5.2670 O   0  0  0  0  0  0  0  0  0  0  0  0
   -0.2300   -1.7420   -4.6340 H   0  0  0  0  0  0  0  0  0  0  0  0
    1.7540   -2.8910   -2.8890 H   0  0  0  0  0  0  0  0  0  0  0  0
    2.2060   -2.2920   -4.5110 H   0  0  0  0  0  0  0  0  0  0  0  0
    2.4410   -0.5320   -2.7030 H   0  0  0  0  0  0  0  0  0  0  0  0
   -0.5080   -1.0380   -2.2200 H   0  0  0  0  0  0  0  0  0  0  0  0
  1  2  1  0  0  0  0
  1  9  1  0  0  0  0
  2 13  1  0  0  0  0
  3  4  1  0  0  0  0
  3  2  1  0  0  0  0
  3 14  1  1  0  0  0
  4 17  1  0  0  0  0
  4 16  1  0  0  0  0
  5 18  1  1  0  0  0
  5  6  1  0  0  0  0
  5  3  1  0  0  0  0
  6 20  1  0  0  0  0
  7  5  1  0  0  0  0
  8  7  2  0  0  0  0
 10  1  1  0  0  0  0
 11  1  1  0  0  0  0
 12  2  1  0  0  0  0
 15  4  1  0  0  0  0
 19  6  1  0  0  0  0
 21 22  1  0  0  0  0
 22 23  2  0  0  0  0
 22 32  1  0  0  0  0
 23 24  1  0  0  0  0
 24 25  2  0  0  0  0
 25 26  1  0  0  0  0
 26 36  1  0  0  0  0
 26 37  1  0  0  0  0
 27 26  1  0  0  0  0
 27 38  1  1  0  0  0
 27 28  1  0  0  0  0
 28 39  1  0  0  0  0
 28  7  1  0  0  0  0
 29 30  2  0  0  0  0
 29 27  1  0  0  0  0
 31 25  1  0  0  0  0
 31 40  1  0  0  0  0
 32 31  2  0  0  0  0
 33 21  1  0  0  0  0
 34 23  1  0  0  0  0
 35 24  1  0  0  0  0
 41 32  1  0  0  0  0
 42 43  1  0  0  0  0
 43 44  1  0  0  0  0
 43 50  1  0  0  0  0
 44 52  1  1  0  0  0
 44 45  1  0  0  0  0
 45 29  1  0  0  0  0
 46 44  1  0  0  0  0
 47 46  1  0  0  0  0
 48 46  2  0  0  0  0
 49 42  1  0  0  0  0
 51 43  1  0  0  0  0
 53 45  1  0  0  0  0
M  END
$$$$
