IYT.pdb
 OpenBabel07022418433D

 56 56  0  0  1  0  0  0  0  0999 V2000
    2.5540   -0.8950    4.9820 C   0  0  0  0  0  0  0  0  0  0  0  0
    2.6970    0.3470    4.1560 C   0  0  0  0  0  0  0  0  0  0  0  0
    1.5890    1.3310    4.3640 C   0  0  2  0  0  0  0  0  0  0  0  0
    1.4980    1.7940    5.7860 C   0  0  0  0  0  0  0  0  0  0  0  0
    0.2600    0.8510    3.8340 C   0  0  2  0  0  0  0  0  0  0  0  0
   -0.1730   -0.3640    4.4570 N   0  0  0  0  0  0  0  0  0  0  0  0
    0.3000    0.7200    2.3430 C   0  0  0  0  0  0  0  0  0  0  0  0
    0.6550    1.6760    1.6070 O   0  0  0  0  0  0  0  0  0  0  0  0
    2.2000   -0.7220    6.0070 H   0  0  0  0  0  0  0  0  0  0  0  0
    3.5660   -1.3600    5.0690 H   0  0  0  0  0  0  0  0  0  0  0  0
    1.9340   -1.6740    4.4550 H   0  0  0  0  0  0  0  0  0  0  0  0
    3.6610    0.8680    4.3420 H   0  0  0  0  0  0  0  0  0  0  0  0
    2.7200    0.0450    3.0880 H   0  0  0  0  0  0  0  0  0  0  0  0
    1.8520    2.2400    3.7490 H   0  0  0  0  0  0  0  0  0  0  0  0
    0.5180    1.5220    6.2440 H   0  0  0  0  0  0  0  0  0  0  0  0
    1.7060    2.8890    5.9040 H   0  0  0  0  0  0  0  0  0  0  0  0
    2.3200    1.2850    6.3610 H   0  0  0  0  0  0  0  0  0  0  0  0
   -0.4920    1.6330    4.0640 H   0  0  0  0  0  0  0  0  0  0  0  0
   -0.2690   -0.1990    5.4750 H   0  0  0  0  0  0  0  0  0  0  0  0
   -1.1050   -0.6220    4.0850 H   0  0  0  0  0  0  0  0  0  0  0  0
    2.0930   -3.0260   -5.4430 O   0  0  0  0  0  0  0  0  0  0  0  0
    1.8120   -2.7070   -4.1190 C   0  0  0  0  0  0  0  0  0  0  0  0
    2.4260   -1.6440   -3.4930 C   0  0  0  0  0  0  0  0  0  0  0  0
    2.1600   -1.3140   -2.1840 C   0  0  0  0  0  0  0  0  0  0  0  0
    1.2430   -2.0500   -1.4220 C   0  0  0  0  0  0  0  0  0  0  0  0
    0.9980   -1.6930   -0.0180 C   0  0  0  0  0  0  0  0  0  0  0  0
   -0.0270   -0.6400    0.2360 C   0  0  2  0  0  0  0  0  0  0  0  0
   -0.0610   -0.4890    1.7150 N   0  0  0  0  0  0  0  0  0  0  0  0
   -1.4070   -0.9750   -0.1760 C   0  0  0  0  0  0  0  0  0  0  0  0
   -2.3040   -1.2030    0.7190 O   0  0  0  0  0  0  0  0  0  0  0  0
    0.6420   -3.1070   -2.0700 C   0  0  0  0  0  0  0  0  0  0  0  0
    0.9070   -3.4410   -3.3810 C   0  0  0  0  0  0  0  0  0  0  0  0
    2.7130   -2.4190   -5.9640 H   0  0  0  0  0  0  0  0  0  0  0  0
    3.1430   -1.0740   -4.1000 H   0  0  0  0  0  0  0  0  0  0  0  0
    2.6530   -0.4730   -1.7050 H   0  0  0  0  0  0  0  0  0  0  0  0
    1.9590   -1.4020    0.5090 H   0  0  0  0  0  0  0  0  0  0  0  0
    0.6700   -2.5960    0.5860 H   0  0  0  0  0  0  0  0  0  0  0  0
    0.3050    0.2960   -0.2270 H   0  0  0  0  0  0  0  0  0  0  0  0
   -0.3580   -1.2940    2.3040 H   0  0  0  0  0  0  0  0  0  0  0  0
   -0.0740   -3.7030   -1.5150 H   0  0  0  0  0  0  0  0  0  0  0  0
    0.4150   -4.2870   -3.8740 H   0  0  0  0  0  0  0  0  0  0  0  0
   -3.9870    0.9890   -1.6820 C   0  0  0  0  0  0  0  0  0  0  0  0
   -3.9140   -0.2540   -2.5240 C   0  0  1  0  0  0  0  0  0  0  0  0
   -3.3180    0.0750   -3.7370 O   0  0  0  0  0  0  0  0  0  0  0  0
   -3.1840   -1.3820   -1.8250 C   0  0  2  0  0  0  0  0  0  0  0  0
   -1.8220   -1.0590   -1.5370 N   0  0  0  0  0  0  0  0  0  0  0  0
   -3.3650   -2.5800   -2.6770 C   0  0  0  0  0  0  0  0  0  0  0  0
   -4.5460   -2.9480   -2.9760 O   0  0  0  0  0  0  0  0  0  0  0  0
   -2.3510   -3.3580   -3.1940 O   0  0  0  0  0  0  0  0  0  0  0  0
   -4.5620    1.7400   -2.2620 H   0  0  0  0  0  0  0  0  0  0  0  0
   -2.9940    1.4390   -1.4940 H   0  0  0  0  0  0  0  0  0  0  0  0
   -4.5700    0.8260   -0.7440 H   0  0  0  0  0  0  0  0  0  0  0  0
   -4.9510   -0.5800   -2.7410 H   0  0  0  0  0  0  0  0  0  0  0  0
   -3.0200   -0.7550   -4.1930 H   0  0  0  0  0  0  0  0  0  0  0  0
   -3.7360   -1.5790   -0.8840 H   0  0  0  0  0  0  0  0  0  0  0  0
   -1.0940   -0.8670   -2.2590 H   0  0  0  0  0  0  0  0  0  0  0  0
  1 10  1  0  0  0  0
  1  9  1  0  0  0  0
  2 12  1  0  0  0  0
  2  3  1  0  0  0  0
  2  1  1  0  0  0  0
  3 14  1  6  0  0  0
  3  4  1  0  0  0  0
  4 16  1  0  0  0  0
  4 15  1  0  0  0  0
  4 17  1  0  0  0  0
  5 18  1  1  0  0  0
  5  3  1  0  0  0  0
  5  6  1  0  0  0  0
  6 19  1  0  0  0  0
  7  5  1  0  0  0  0
  8  7  2  0  0  0  0
 11  1  1  0  0  0  0
 13  2  1  0  0  0  0
 20  6  1  0  0  0  0
 21 22  1  0  0  0  0
 22 23  2  0  0  0  0
 22 32  1  0  0  0  0
 23 24  1  0  0  0  0
 24 35  1  0  0  0  0
 24 25  2  0  0  0  0
 25 26  1  0  0  0  0
 26 27  1  0  0  0  0
 26 36  1  0  0  0  0
 26 37  1  0  0  0  0
 27 38  1  6  0  0  0
 27 28  1  0  0  0  0
 28 39  1  0  0  0  0
 28  7  1  0  0  0  0
 29 27  1  0  0  0  0
 29 30  2  0  0  0  0
 31 40  1  0  0  0  0
 31 25  1  0  0  0  0
 32 31  2  0  0  0  0
 33 21  1  0  0  0  0
 34 23  1  0  0  0  0
 41 32  1  0  0  0  0
 42 51  1  0  0  0  0
 42 52  1  0  0  0  0
 43 53  1  6  0  0  0
 43 45  1  0  0  0  0
 43 42  1  0  0  0  0
 44 43  1  0  0  0  0
 45 46  1  0  0  0  0
 45 55  1  1  0  0  0
 46 29  1  0  0  0  0
 47 45  1  0  0  0  0
 48 47  1  0  0  0  0
 49 47  2  0  0  0  0
 50 42  1  0  0  0  0
 54 44  1  0  0  0  0
 56 46  1  0  0  0  0
M  END
$$$$
