IYV.pdb
 OpenBabel07022418433D

 58 58  0  0  1  0  0  0  0  0999 V2000
   -0.5290   -0.7000    5.6320 C   0  0  0  0  0  0  0  0  0  0  0  0
    0.1020   -1.1660    4.3710 C   0  0  0  0  0  0  0  0  0  0  0  0
    1.2490   -0.3740    3.8780 C   0  0  2  0  0  0  0  0  0  0  0  0
    2.3930   -0.3400    4.8890 C   0  0  0  0  0  0  0  0  0  0  0  0
    0.9610    1.0240    3.4670 C   0  0  2  0  0  0  0  0  0  0  0  0
    0.4300    1.8220    4.5340 N   0  0  0  0  0  0  0  0  0  0  0  0
    0.1480    1.1150    2.2270 C   0  0  0  0  0  0  0  0  0  0  0  0
   -0.8620    1.8420    2.2410 O   0  0  0  0  0  0  0  0  0  0  0  0
    0.1600   -0.8080    6.4950 H   0  0  0  0  0  0  0  0  0  0  0  0
   -1.3600   -1.4330    5.8600 H   0  0  0  0  0  0  0  0  0  0  0  0
   -1.0320    0.2740    5.5780 H   0  0  0  0  0  0  0  0  0  0  0  0
    0.4880   -2.2100    4.5700 H   0  0  0  0  0  0  0  0  0  0  0  0
   -0.6290   -1.2940    3.5480 H   0  0  0  0  0  0  0  0  0  0  0  0
    1.7030   -0.8930    2.9820 H   0  0  0  0  0  0  0  0  0  0  0  0
    3.0850    0.4730    4.5430 H   0  0  0  0  0  0  0  0  0  0  0  0
    2.9370   -1.3120    4.8870 H   0  0  0  0  0  0  0  0  0  0  0  0
    1.9830   -0.1460    5.8810 H   0  0  0  0  0  0  0  0  0  0  0  0
    1.9570    1.4880    3.1970 H   0  0  0  0  0  0  0  0  0  0  0  0
    1.2160    1.9830    5.2170 H   0  0  0  0  0  0  0  0  0  0  0  0
    0.1790    2.7680    4.1400 H   0  0  0  0  0  0  0  0  0  0  0  0
    5.2760   -1.9120   -2.1290 O   0  0  0  0  0  0  0  0  0  0  0  0
    4.0960   -1.1770   -1.9250 C   0  0  0  0  0  0  0  0  0  0  0  0
    4.0810   -0.2050   -0.9690 C   0  0  0  0  0  0  0  0  0  0  0  0
    2.9380    0.5340   -0.7450 C   0  0  0  0  0  0  0  0  0  0  0  0
    1.7800    0.3180   -1.4740 C   0  0  0  0  0  0  0  0  0  0  0  0
    0.5600    1.1230   -1.2210 C   0  0  0  0  0  0  0  0  0  0  0  0
   -0.3250    0.5020   -0.1710 C   0  0  2  0  0  0  0  0  0  0  0  0
    0.4740    0.4140    1.0490 N   0  0  0  0  0  0  0  0  0  0  0  0
   -0.7930   -0.8590   -0.5290 C   0  0  0  0  0  0  0  0  0  0  0  0
   -0.4570   -1.8570    0.1740 O   0  0  0  0  0  0  0  0  0  0  0  0
    1.8300   -0.6710   -2.4310 C   0  0  0  0  0  0  0  0  0  0  0  0
    2.9780   -1.4200   -2.6630 C   0  0  0  0  0  0  0  0  0  0  0  0
    6.0020   -1.5070   -2.7320 H   0  0  0  0  0  0  0  0  0  0  0  0
    4.9760   -0.0150   -0.3840 H   0  0  0  0  0  0  0  0  0  0  0  0
    2.9920    1.2860    0.0230 H   0  0  0  0  0  0  0  0  0  0  0  0
    0.8650    2.1140   -0.8500 H   0  0  0  0  0  0  0  0  0  0  0  0
   -0.0040    1.3090   -2.1730 H   0  0  0  0  0  0  0  0  0  0  0  0
   -1.1840    1.1910    0.0110 H   0  0  0  0  0  0  0  0  0  0  0  0
    1.3110   -0.1970    1.0170 H   0  0  0  0  0  0  0  0  0  0  0  0
    0.9820   -0.8880   -3.0240 H   0  0  0  0  0  0  0  0  0  0  0  0
    2.9930   -2.1910   -3.4200 H   0  0  0  0  0  0  0  0  0  0  0  0
   -3.8090   -2.2690   -0.2620 C   0  0  0  0  0  0  0  0  0  0  0  0
   -3.5730   -2.5460   -1.7320 C   0  0  0  0  0  0  0  0  0  0  0  0
   -4.3630   -1.5330   -2.5170 C   0  0  0  0  0  0  0  0  0  0  0  0
   -2.0830   -2.4450   -1.9940 C   0  0  2  0  0  0  0  0  0  0  0  0
   -1.6300   -1.1190   -1.6570 N   0  0  0  0  0  0  0  0  0  0  0  0
   -1.7210   -2.8860   -3.3480 C   0  0  0  0  0  0  0  0  0  0  0  0
   -1.0880   -2.2300   -4.1970 O   0  0  0  0  0  0  0  0  0  0  0  0
   -2.1140   -4.1760   -3.7540 O   0  0  0  0  0  0  0  0  0  0  0  0
   -4.8670   -1.8910   -0.1730 H   0  0  0  0  0  0  0  0  0  0  0  0
   -3.1640   -1.4090    0.0010 H   0  0  0  0  0  0  0  0  0  0  0  0
   -3.6520   -3.1560    0.3700 H   0  0  0  0  0  0  0  0  0  0  0  0
   -3.9510   -3.5440   -2.0050 H   0  0  0  0  0  0  0  0  0  0  0  0
   -3.9740   -0.4970   -2.3760 H   0  0  0  0  0  0  0  0  0  0  0  0
   -5.3940   -1.5310   -2.1060 H   0  0  0  0  0  0  0  0  0  0  0  0
   -4.4480   -1.7990   -3.5900 H   0  0  0  0  0  0  0  0  0  0  0  0
   -1.6170   -3.1480   -1.2650 H   0  0  0  0  0  0  0  0  0  0  0  0
   -1.9340   -0.3290   -2.2700 H   0  0  0  0  0  0  0  0  0  0  0  0
  1 10  1  0  0  0  0
  1  9  1  0  0  0  0
  2 12  1  0  0  0  0
  2  1  1  0  0  0  0
  3 14  1  6  0  0  0
  3  2  1  0  0  0  0
  3  4  1  0  0  0  0
  4 17  1  0  0  0  0
  5 18  1  6  0  0  0
  5  3  1  0  0  0  0
  5  6  1  0  0  0  0
  6 19  1  0  0  0  0
  7  8  2  0  0  0  0
  7  5  1  0  0  0  0
 11  1  1  0  0  0  0
 13  2  1  0  0  0  0
 15  4  1  0  0  0  0
 16  4  1  0  0  0  0
 20  6  1  0  0  0  0
 21 22  1  0  0  0  0
 22 23  1  0  0  0  0
 23 24  2  0  0  0  0
 23 34  1  0  0  0  0
 24 35  1  0  0  0  0
 25 26  1  0  0  0  0
 25 24  1  0  0  0  0
 26 36  1  0  0  0  0
 26 27  1  0  0  0  0
 27 38  1  1  0  0  0
 27 28  1  0  0  0  0
 28  7  1  0  0  0  0
 29 27  1  0  0  0  0
 29 30  2  0  0  0  0
 31 25  2  0  0  0  0
 32 31  1  0  0  0  0
 32 22  2  0  0  0  0
 33 21  1  0  0  0  0
 37 26  1  0  0  0  0
 39 28  1  0  0  0  0
 40 31  1  0  0  0  0
 41 32  1  0  0  0  0
 42 50  1  0  0  0  0
 42 51  1  0  0  0  0
 42 52  1  0  0  0  0
 43 42  1  0  0  0  0
 44 54  1  0  0  0  0
 44 55  1  0  0  0  0
 44 43  1  0  0  0  0
 45 43  1  0  0  0  0
 45 46  1  0  0  0  0
 45 57  1  1  0  0  0
 46 29  1  0  0  0  0
 47 45  1  0  0  0  0
 48 47  2  0  0  0  0
 49 47  1  0  0  0  0
 53 43  1  0  0  0  0
 56 44  1  0  0  0  0
 58 46  1  0  0  0  0
M  END
$$$$
