IYW.pdb
 OpenBabel07022418433D

 66 68  0  0  1  0  0  0  0  0999 V2000
    5.1190   -0.2460    3.2490 C   0  0  0  0  0  0  0  0  0  0  0  0
    5.3500   -0.4340    1.7730 C   0  0  0  0  0  0  0  0  0  0  0  0
    4.5070   -1.5470    1.2130 C   0  0  2  0  0  0  0  0  0  0  0  0
    4.7700   -1.7140   -0.2760 C   0  0  0  0  0  0  0  0  0  0  0  0
    3.0510   -1.4020    1.4830 C   0  0  2  0  0  0  0  0  0  0  0  0
    2.2950   -2.5090    0.9270 N   0  0  0  0  0  0  0  0  0  0  0  0
    2.4440   -0.1340    1.0310 C   0  0  0  0  0  0  0  0  0  0  0  0
    2.9610    0.9820    1.2850 O   0  0  0  0  0  0  0  0  0  0  0  0
    4.0710   -0.1060    3.5370 H   0  0  0  0  0  0  0  0  0  0  0  0
    5.5050   -1.0960    3.8520 H   0  0  0  0  0  0  0  0  0  0  0  0
    5.6950    0.6700    3.5710 H   0  0  0  0  0  0  0  0  0  0  0  0
    5.2440    0.5280    1.2780 H   0  0  0  0  0  0  0  0  0  0  0  0
    6.4210   -0.7650    1.6490 H   0  0  0  0  0  0  0  0  0  0  0  0
    4.8430   -2.4860    1.7020 H   0  0  0  0  0  0  0  0  0  0  0  0
    3.8170   -1.6150   -0.8370 H   0  0  0  0  0  0  0  0  0  0  0  0
    5.1750   -2.7340   -0.5110 H   0  0  0  0  0  0  0  0  0  0  0  0
    5.4900   -0.9450   -0.5900 H   0  0  0  0  0  0  0  0  0  0  0  0
    2.9020   -1.4780    2.6000 H   0  0  0  0  0  0  0  0  0  0  0  0
    1.6640   -2.9650    1.6020 H   0  0  0  0  0  0  0  0  0  0  0  0
    2.9660   -3.2180    0.5590 H   0  0  0  0  0  0  0  0  0  0  0  0
   -2.9440   -2.6580   -4.0260 O   0  0  0  0  0  0  0  0  0  0  0  0
   -2.1650   -1.6810   -3.4290 C   0  0  0  0  0  0  0  0  0  0  0  0
   -0.8070   -1.9050   -3.3390 C   0  0  0  0  0  0  0  0  0  0  0  0
    0.0220   -0.9450   -2.7430 C   0  0  0  0  0  0  0  0  0  0  0  0
   -0.4930    0.2240   -2.2430 C   0  0  0  0  0  0  0  0  0  0  0  0
    0.3690    1.2330   -1.6380 C   0  0  0  0  0  0  0  0  0  0  0  0
    0.6080    1.1390   -0.1790 C   0  0  2  0  0  0  0  0  0  0  0  0
    1.2270   -0.0890    0.2770 N   0  0  0  0  0  0  0  0  0  0  0  0
   -0.5500    1.4600    0.6830 C   0  0  0  0  0  0  0  0  0  0  0  0
   -1.2840    2.4360    0.3530 O   0  0  0  0  0  0  0  0  0  0  0  0
   -1.8480    0.4360   -2.3390 C   0  0  0  0  0  0  0  0  0  0  0  0
   -2.6900   -0.5100   -2.9290 C   0  0  0  0  0  0  0  0  0  0  0  0
   -3.9470   -2.6180   -4.1120 H   0  0  0  0  0  0  0  0  0  0  0  0
   -0.3850   -2.8190   -3.7280 H   0  0  0  0  0  0  0  0  0  0  0  0
    1.0700   -1.1990   -2.7130 H   0  0  0  0  0  0  0  0  0  0  0  0
   -0.0250    2.2820   -1.8240 H   0  0  0  0  0  0  0  0  0  0  0  0
    1.3620    1.2600   -2.1830 H   0  0  0  0  0  0  0  0  0  0  0  0
    1.3400    2.0020    0.0530 H   0  0  0  0  0  0  0  0  0  0  0  0
    0.7670   -0.9780    0.0470 H   0  0  0  0  0  0  0  0  0  0  0  0
   -2.3400    1.3300   -1.9710 H   0  0  0  0  0  0  0  0  0  0  0  0
   -3.7630   -0.3460   -3.0070 H   0  0  0  0  0  0  0  0  0  0  0  0
   -0.9000    0.7620    1.8600 N   0  0  0  0  0  0  0  0  0  0  0  0
   -2.0350    1.1390    2.6540 C   0  0  1  0  0  0  0  0  0  0  0  0
   -3.0120    0.0880    3.0090 C   0  0  0  0  0  0  0  0  0  0  0  0
   -3.6600   -0.5760    1.8760 C   0  0  0  0  0  0  0  0  0  0  0  0
   -4.9000   -0.2620    1.3450 C   0  0  0  0  0  0  0  0  0  0  0  0
   -5.1270   -1.0730    0.3200 N   0  0  0  0  0  0  0  0  0  0  0  0
   -4.0940   -1.9200    0.1370 C   0  0  0  0  0  0  0  0  0  0  0  0
   -3.8860   -2.9400   -0.7900 C   0  0  0  0  0  0  0  0  0  0  0  0
   -2.7370   -3.6850   -0.7630 C   0  0  0  0  0  0  0  0  0  0  0  0
   -1.8200   -3.3700    0.2160 C   0  0  0  0  0  0  0  0  0  0  0  0
   -2.0160   -2.3660    1.1340 C   0  0  0  0  0  0  0  0  0  0  0  0
   -3.1710   -1.6120    1.1120 C   0  0  0  0  0  0  0  0  0  0  0  0
   -1.5890    1.8450    3.9100 C   0  0  0  0  0  0  0  0  0  0  0  0
   -2.4310    2.2570    4.7480 O   0  0  0  0  0  0  0  0  0  0  0  0
   -0.2480    2.0670    4.1900 O   0  0  0  0  0  0  0  0  0  0  0  0
   -0.2980   -0.0530    2.1620 H   0  0  0  0  0  0  0  0  0  0  0  0
   -2.5960    1.9510    2.0900 H   0  0  0  0  0  0  0  0  0  0  0  0
   -3.8290    0.5960    3.6080 H   0  0  0  0  0  0  0  0  0  0  0  0
   -2.6120   -0.6690    3.7270 H   0  0  0  0  0  0  0  0  0  0  0  0
   -5.5280    0.5360    1.7630 H   0  0  0  0  0  0  0  0  0  0  0  0
   -5.9960   -1.0670   -0.2810 H   0  0  0  0  0  0  0  0  0  0  0  0
   -4.6330   -3.1510   -1.5400 H   0  0  0  0  0  0  0  0  0  0  0  0
   -2.5490   -4.4880   -1.4770 H   0  0  0  0  0  0  0  0  0  0  0  0
   -0.8990   -3.9680    0.2350 H   0  0  0  0  0  0  0  0  0  0  0  0
   -1.2820   -2.1540    1.8900 H   0  0  0  0  0  0  0  0  0  0  0  0
  1  9  1  0  0  0  0
  1 11  1  0  0  0  0
  1 10  1  0  0  0  0
  2  1  1  0  0  0  0
  3  5  1  0  0  0  0
  3 14  1  1  0  0  0
  3  2  1  0  0  0  0
  4  3  1  0  0  0  0
  5 18  1  1  0  0  0
  6  5  1  0  0  0  0
  6 19  1  0  0  0  0
  7  8  2  0  0  0  0
  7  5  1  0  0  0  0
 12  2  1  0  0  0  0
 13  2  1  0  0  0  0
 15  4  1  0  0  0  0
 16  4  1  0  0  0  0
 17  4  1  0  0  0  0
 20  6  1  0  0  0  0
 21 22  1  0  0  0  0
 22 23  2  0  0  0  0
 22 32  1  0  0  0  0
 23 24  1  0  0  0  0
 24 35  1  0  0  0  0
 24 25  2  0  0  0  0
 25 26  1  0  0  0  0
 26 27  1  0  0  0  0
 27 38  1  1  0  0  0
 27 28  1  0  0  0  0
 27 29  1  0  0  0  0
 28  7  1  0  0  0  0
 29 42  1  0  0  0  0
 30 29  2  0  0  0  0
 31 25  1  0  0  0  0
 31 40  1  0  0  0  0
 32 31  2  0  0  0  0
 33 21  1  0  0  0  0
 34 23  1  0  0  0  0
 36 26  1  0  0  0  0
 37 26  1  0  0  0  0
 39 28  1  0  0  0  0
 41 32  1  0  0  0  0
 42 57  1  0  0  0  0
 42 43  1  0  0  0  0
 43 58  1  6  0  0  0
 43 44  1  0  0  0  0
 43 54  1  0  0  0  0
 44 59  1  0  0  0  0
 44 60  1  0  0  0  0
 45 44  1  0  0  0  0
 46 61  1  0  0  0  0
 46 45  2  0  0  0  0
 47 46  1  0  0  0  0
 48 47  1  0  0  0  0
 48 53  1  0  0  0  0
 49 50  1  0  0  0  0
 49 48  2  0  0  0  0
 50 51  2  0  0  0  0
 51 65  1  0  0  0  0
 51 52  1  0  0  0  0
 52 66  1  0  0  0  0
 53 52  2  0  0  0  0
 53 45  1  0  0  0  0
 54 56  2  0  0  0  0
 54 55  1  0  0  0  0
 62 47  1  0  0  0  0
 63 49  1  0  0  0  0
 64 50  1  0  0  0  0
M  END
$$$$
