KAA.pdb
 OpenBabel07022418483D

 43 42  0  0  1  0  0  0  0  0999 V2000
   -1.4650   -1.4970    3.7590 N   0  0  0  0  0  0  0  0  0  0  0  0
   -0.4220   -1.3300    2.7690 C   0  0  1  0  0  0  0  0  0  0  0  0
   -0.9050   -1.7350    1.3910 C   0  0  0  0  0  0  0  0  0  0  0  0
   -1.3370   -3.1730    1.3420 C   0  0  0  0  0  0  0  0  0  0  0  0
   -0.2200   -4.1260    1.7020 C   0  0  0  0  0  0  0  0  0  0  0  0
    0.9560   -3.9680    0.7300 C   0  0  0  0  0  0  0  0  0  0  0  0
    1.9940   -4.9020    1.1220 N   0  0  0  0  0  0  0  0  0  0  0  0
   -0.0240    0.0890    2.7410 C   0  0  0  0  0  0  0  0  0  0  0  0
   -0.5870    0.9000    3.5070 O   0  0  0  0  0  0  0  0  0  0  0  0
   -1.4770   -0.6970    4.4510 H   0  0  0  0  0  0  0  0  0  0  0  0
   -2.3960   -1.4050    3.2510 H   0  0  0  0  0  0  0  0  0  0  0  0
    0.4290   -1.9640    3.1020 H   0  0  0  0  0  0  0  0  0  0  0  0
   -1.8100   -1.1180    1.1880 H   0  0  0  0  0  0  0  0  0  0  0  0
   -0.1740   -1.4880    0.6180 H   0  0  0  0  0  0  0  0  0  0  0  0
   -1.6310   -3.3930    0.2970 H   0  0  0  0  0  0  0  0  0  0  0  0
   -2.1840   -3.3430    2.0070 H   0  0  0  0  0  0  0  0  0  0  0  0
   -0.6040   -5.1530    1.5340 H   0  0  0  0  0  0  0  0  0  0  0  0
    0.1200   -4.0320    2.7400 H   0  0  0  0  0  0  0  0  0  0  0  0
    1.3730   -2.9590    0.7560 H   0  0  0  0  0  0  0  0  0  0  0  0
    0.5760   -4.2790   -0.2640 H   0  0  0  0  0  0  0  0  0  0  0  0
    2.9490   -4.5370    0.9230 H   0  0  0  0  0  0  0  0  0  0  0  0
    1.9180   -5.8130    0.6080 H   0  0  0  0  0  0  0  0  0  0  0  0
    2.7950    2.1950    2.2270 C   0  0  0  0  0  0  0  0  0  0  0  0
    1.3210    1.9930    1.9000 C   0  0  2  0  0  0  0  0  0  0  0  0
    0.9830    0.5870    1.8730 N   0  0  0  0  0  0  0  0  0  0  0  0
    1.0840    2.5570    0.5500 C   0  0  0  0  0  0  0  0  0  0  0  0
    1.3110    3.7700    0.2790 O   0  0  0  0  0  0  0  0  0  0  0  0
    3.1410    1.5300    3.0350 H   0  0  0  0  0  0  0  0  0  0  0  0
    2.9600    3.2480    2.5330 H   0  0  0  0  0  0  0  0  0  0  0  0
    3.4410    2.0060    1.3530 H   0  0  0  0  0  0  0  0  0  0  0  0
    0.7280    2.5350    2.6780 H   0  0  0  0  0  0  0  0  0  0  0  0
    1.4840   -0.0470    1.2190 H   0  0  0  0  0  0  0  0  0  0  0  0
    1.2820    1.4460   -2.7400 C   0  0  0  0  0  0  0  0  0  0  0  0
    0.3290    2.2040   -1.8280 C   0  0  2  0  0  0  0  0  0  0  0  0
    0.5920    1.7410   -0.4760 N   0  0  0  0  0  0  0  0  0  0  0  0
   -1.0890    1.9930   -2.2100 C   0  0  0  0  0  0  0  0  0  0  0  0
   -1.9320    1.4810   -1.4500 O   0  0  0  0  0  0  0  0  0  0  0  0
   -1.5120    2.3800   -3.4730 O   0  0  0  0  0  0  0  0  0  0  0  0
    1.3750    0.3890   -2.3600 H   0  0  0  0  0  0  0  0  0  0  0  0
    2.2990    1.8910   -2.5810 H   0  0  0  0  0  0  0  0  0  0  0  0
    1.0090    1.5040   -3.7930 H   0  0  0  0  0  0  0  0  0  0  0  0
    0.5770    3.2750   -1.8980 H   0  0  0  0  0  0  0  0  0  0  0  0
    0.3910    0.7370   -0.2890 H   0  0  0  0  0  0  0  0  0  0  0  0
  1 10  1  0  0  0  0
  2 12  1  1  0  0  0
  2  1  1  0  0  0  0
  3  2  1  0  0  0  0
  4  3  1  0  0  0  0
  4  5  1  0  0  0  0
  4 16  1  0  0  0  0
  5 18  1  0  0  0  0
  6 19  1  0  0  0  0
  6  7  1  0  0  0  0
  6  5  1  0  0  0  0
  8  2  1  0  0  0  0
  8  9  2  0  0  0  0
 11  1  1  0  0  0  0
 13  3  1  0  0  0  0
 14  3  1  0  0  0  0
 15  4  1  0  0  0  0
 17  5  1  0  0  0  0
 20  6  1  0  0  0  0
 21  7  1  0  0  0  0
 22  7  1  0  0  0  0
 23 29  1  0  0  0  0
 23 28  1  0  0  0  0
 24 23  1  0  0  0  0
 24 31  1  1  0  0  0
 25 24  1  0  0  0  0
 25  8  1  0  0  0  0
 26 24  1  0  0  0  0
 27 26  2  0  0  0  0
 30 23  1  0  0  0  0
 32 25  1  0  0  0  0
 33 40  1  0  0  0  0
 33 39  1  0  0  0  0
 33 34  1  0  0  0  0
 34 42  1  6  0  0  0
 34 35  1  0  0  0  0
 35 43  1  0  0  0  0
 35 26  1  0  0  0  0
 36 34  1  0  0  0  0
 36 37  1  0  0  0  0
 38 36  2  0  0  0  0
 41 33  1  0  0  0  0
M  END
$$$$
