KAC.pdb
 OpenBabel07022418483D

 44 43  0  0  1  0  0  0  0  0999 V2000
   -3.8700   -1.0220    0.6920 N   0  0  0  0  0  0  0  0  0  0  0  0
   -2.6860   -1.6810    0.2150 C   0  0  1  0  0  0  0  0  0  0  0  0
   -2.2790   -1.2560   -1.1470 C   0  0  0  0  0  0  0  0  0  0  0  0
   -1.9470    0.1700   -1.3570 C   0  0  0  0  0  0  0  0  0  0  0  0
   -3.0530    1.1530   -1.0740 C   0  0  0  0  0  0  0  0  0  0  0  0
   -2.5920    2.5810   -1.3480 C   0  0  0  0  0  0  0  0  0  0  0  0
   -2.2150    2.6680   -2.7260 N   0  0  0  0  0  0  0  0  0  0  0  0
   -1.6150   -1.5110    1.2300 C   0  0  0  0  0  0  0  0  0  0  0  0
   -1.8440   -0.8730    2.2870 O   0  0  0  0  0  0  0  0  0  0  0  0
   -4.7520   -1.4480    0.3330 H   0  0  0  0  0  0  0  0  0  0  0  0
   -3.8280   -0.9530    1.7170 H   0  0  0  0  0  0  0  0  0  0  0  0
   -2.9750   -2.7730    0.1230 H   0  0  0  0  0  0  0  0  0  0  0  0
   -3.1610   -1.4910   -1.8230 H   0  0  0  0  0  0  0  0  0  0  0  0
   -1.4820   -1.9440   -1.5630 H   0  0  0  0  0  0  0  0  0  0  0  0
   -1.7350    0.2880   -2.4630 H   0  0  0  0  0  0  0  0  0  0  0  0
   -0.9870    0.4830   -0.8820 H   0  0  0  0  0  0  0  0  0  0  0  0
   -3.4250    1.1180   -0.0200 H   0  0  0  0  0  0  0  0  0  0  0  0
   -3.9310    0.9730   -1.7230 H   0  0  0  0  0  0  0  0  0  0  0  0
   -3.4640    3.2510   -1.1680 H   0  0  0  0  0  0  0  0  0  0  0  0
   -1.7980    2.8490   -0.6400 H   0  0  0  0  0  0  0  0  0  0  0  0
   -2.1880    3.6640   -3.0800 H   0  0  0  0  0  0  0  0  0  0  0  0
   -1.2530    2.2960   -2.9050 H   0  0  0  0  0  0  0  0  0  0  0  0
    1.1760   -3.2640    2.5370 C   0  0  0  0  0  0  0  0  0  0  0  0
    0.7510   -1.8930    2.0400 C   0  0  2  0  0  0  0  0  0  0  0  0
   -0.3070   -2.0420    1.0750 N   0  0  0  0  0  0  0  0  0  0  0  0
    1.9520   -1.2370    1.4840 C   0  0  0  0  0  0  0  0  0  0  0  0
    2.0740   -0.8420    0.3160 O   0  0  0  0  0  0  0  0  0  0  0  0
    2.2040   -3.2590    2.9540 H   0  0  0  0  0  0  0  0  0  0  0  0
    1.1540   -4.0240    1.7360 H   0  0  0  0  0  0  0  0  0  0  0  0
    0.5010   -3.5520    3.3910 H   0  0  0  0  0  0  0  0  0  0  0  0
    0.4370   -1.3140    2.9320 H   0  0  0  0  0  0  0  0  0  0  0  0
   -0.1200   -2.5710    0.1960 H   0  0  0  0  0  0  0  0  0  0  0  0
    3.0550   -1.0470    2.3680 N   0  0  0  0  0  0  0  0  0  0  0  0
    4.2840   -0.4290    1.9790 C   0  0  1  0  0  0  0  0  0  0  0  0
    4.4640    0.8480    2.8100 C   0  0  0  0  0  0  0  0  0  0  0  0
    3.0830    1.9440    2.4870 S   0  0  0  0  0  0  0  0  0  0  0  0
    5.4560   -1.2930    2.3180 C   0  0  0  0  0  0  0  0  0  0  0  0
    6.6280   -0.9710    2.0780 O   0  0  0  0  0  0  0  0  0  0  0  0
    5.2130   -2.5050    2.9270 O   0  0  0  0  0  0  0  0  0  0  0  0
    2.9860   -1.3720    3.3700 H   0  0  0  0  0  0  0  0  0  0  0  0
    4.3060   -0.1080    0.9250 H   0  0  0  0  0  0  0  0  0  0  0  0
    5.4450    1.2920    2.6050 H   0  0  0  0  0  0  0  0  0  0  0  0
    4.4410    0.5800    3.8940 H   0  0  0  0  0  0  0  0  0  0  0  0
    2.8520    2.1510    1.1260 H   0  0  0  0  0  0  0  0  0  0  0  0
  1 11  1  0  0  0  0
  2 12  1  6  0  0  0
  2  1  1  0  0  0  0
  2  8  1  0  0  0  0
  3  2  1  0  0  0  0
  4  3  1  0  0  0  0
  4  5  1  0  0  0  0
  4 16  1  0  0  0  0
  5 17  1  0  0  0  0
  6 19  1  0  0  0  0
  6  5  1  0  0  0  0
  6 20  1  0  0  0  0
  7  6  1  0  0  0  0
  8  9  2  0  0  0  0
 10  1  1  0  0  0  0
 13  3  1  0  0  0  0
 14  3  1  0  0  0  0
 15  4  1  0  0  0  0
 18  5  1  0  0  0  0
 21  7  1  0  0  0  0
 22  7  1  0  0  0  0
 23 28  1  0  0  0  0
 23 30  1  0  0  0  0
 24 23  1  0  0  0  0
 24 31  1  1  0  0  0
 25  8  1  0  0  0  0
 25 24  1  0  0  0  0
 26 24  1  0  0  0  0
 26 33  1  0  0  0  0
 27 26  2  0  0  0  0
 29 23  1  0  0  0  0
 32 25  1  0  0  0  0
 33 40  1  0  0  0  0
 34 41  1  6  0  0  0
 34 37  1  0  0  0  0
 34 33  1  0  0  0  0
 34 35  1  0  0  0  0
 35 43  1  0  0  0  0
 36 35  1  0  0  0  0
 37 39  1  0  0  0  0
 38 37  2  0  0  0  0
 42 35  1  0  0  0  0
 44 36  1  0  0  0  0
M  END
$$$$
