KAE.pdb
 OpenBabel07022418483D

 49 48  0  0  1  0  0  0  0  0999 V2000
    0.4660   -1.8300    5.1060 N   0  0  0  0  0  0  0  0  0  0  0  0
    0.9270   -1.9500    3.7530 C   0  0  1  0  0  0  0  0  0  0  0  0
   -0.0500   -2.6850    2.8460 C   0  0  0  0  0  0  0  0  0  0  0  0
   -1.3290   -1.9520    2.8200 C   0  0  0  0  0  0  0  0  0  0  0  0
   -2.4230   -2.5000    2.0040 C   0  0  0  0  0  0  0  0  0  0  0  0
   -2.2050   -2.6640    0.5500 C   0  0  0  0  0  0  0  0  0  0  0  0
   -1.1110   -3.5520    0.3090 N   0  0  0  0  0  0  0  0  0  0  0  0
    1.2580   -0.6050    3.2390 C   0  0  0  0  0  0  0  0  0  0  0  0
    1.1400    0.4260    3.9800 O   0  0  0  0  0  0  0  0  0  0  0  0
    0.4580   -2.6950    5.6520 H   0  0  0  0  0  0  0  0  0  0  0  0
   -0.3420   -1.2180    5.2480 H   0  0  0  0  0  0  0  0  0  0  0  0
    1.9050   -2.5040    3.7930 H   0  0  0  0  0  0  0  0  0  0  0  0
   -0.1580   -3.7090    3.2530 H   0  0  0  0  0  0  0  0  0  0  0  0
    0.4720   -2.7560    1.8720 H   0  0  0  0  0  0  0  0  0  0  0  0
   -1.6990   -1.8770    3.8760 H   0  0  0  0  0  0  0  0  0  0  0  0
   -1.1220   -0.8830    2.5340 H   0  0  0  0  0  0  0  0  0  0  0  0
   -2.7790   -3.4940    2.4050 H   0  0  0  0  0  0  0  0  0  0  0  0
   -3.3270   -1.8370    2.1340 H   0  0  0  0  0  0  0  0  0  0  0  0
   -2.1440   -1.7180   -0.0250 H   0  0  0  0  0  0  0  0  0  0  0  0
   -3.1270   -3.1780    0.1430 H   0  0  0  0  0  0  0  0  0  0  0  0
   -1.4280   -4.5350    0.0820 H   0  0  0  0  0  0  0  0  0  0  0  0
   -0.4300   -3.2460   -0.3920 H   0  0  0  0  0  0  0  0  0  0  0  0
    3.5190    1.0200    1.1120 C   0  0  0  0  0  0  0  0  0  0  0  0
    2.0410    0.9620    1.4300 C   0  0  2  0  0  0  0  0  0  0  0  0
    1.7220   -0.3430    1.9170 N   0  0  0  0  0  0  0  0  0  0  0  0
    1.1930    1.3970    0.2960 C   0  0  0  0  0  0  0  0  0  0  0  0
    1.4060    2.5260   -0.2140 O   0  0  0  0  0  0  0  0  0  0  0  0
    4.0270    0.2090    1.6340 H   0  0  0  0  0  0  0  0  0  0  0  0
    3.7050    0.8960    0.0240 H   0  0  0  0  0  0  0  0  0  0  0  0
    3.9650    1.9760    1.4920 H   0  0  0  0  0  0  0  0  0  0  0  0
    1.8780    1.6790    2.2890 H   0  0  0  0  0  0  0  0  0  0  0  0
    1.8350   -1.1530    1.2660 H   0  0  0  0  0  0  0  0  0  0  0  0
    0.1650    0.6060   -0.2340 N   0  0  0  0  0  0  0  0  0  0  0  0
   -0.6740    1.0310   -1.3530 C   0  0  1  0  0  0  0  0  0  0  0  0
   -0.5670    0.0720   -2.4930 C   0  0  0  0  0  0  0  0  0  0  0  0
    0.8200   -0.0480   -3.0020 C   0  0  0  0  0  0  0  0  0  0  0  0
    1.4000    1.1800   -3.5450 C   0  0  0  0  0  0  0  0  0  0  0  0
    0.7450    2.2350   -3.6350 O   0  0  0  0  0  0  0  0  0  0  0  0
   -2.0860    1.2060   -0.9020 C   0  0  0  0  0  0  0  0  0  0  0  0
   -2.9530    1.5630   -1.7230 O   0  0  0  0  0  0  0  0  0  0  0  0
    2.7300    1.2130   -3.9890 O   0  0  0  0  0  0  0  0  0  0  0  0
   -2.4370    0.9770    0.4130 O   0  0  0  0  0  0  0  0  0  0  0  0
   -0.0220   -0.3170    0.1690 H   0  0  0  0  0  0  0  0  0  0  0  0
   -0.3110    2.0210   -1.6620 H   0  0  0  0  0  0  0  0  0  0  0  0
   -1.2000    0.4680   -3.3210 H   0  0  0  0  0  0  0  0  0  0  0  0
   -0.9640   -0.9070   -2.1200 H   0  0  0  0  0  0  0  0  0  0  0  0
    1.4580   -0.4190   -2.1610 H   0  0  0  0  0  0  0  0  0  0  0  0
    0.8680   -0.8280   -3.8210 H   0  0  0  0  0  0  0  0  0  0  0  0
    3.0590    1.9220   -4.6420 H   0  0  0  0  0  0  0  0  0  0  0  0
  1 11  1  0  0  0  0
  1 10  1  0  0  0  0
  2 12  1  1  0  0  0
  2  1  1  0  0  0  0
  3 13  1  0  0  0  0
  3  2  1  0  0  0  0
  4  3  1  0  0  0  0
  4 15  1  0  0  0  0
  5 18  1  0  0  0  0
  5 17  1  0  0  0  0
  5  4  1  0  0  0  0
  6  5  1  0  0  0  0
  7  6  1  0  0  0  0
  8  2  1  0  0  0  0
  8  9  2  0  0  0  0
 14  3  1  0  0  0  0
 16  4  1  0  0  0  0
 19  6  1  0  0  0  0
 20  6  1  0  0  0  0
 21  7  1  0  0  0  0
 22  7  1  0  0  0  0
 23 24  1  0  0  0  0
 23 30  1  0  0  0  0
 23 28  1  0  0  0  0
 24 25  1  0  0  0  0
 24 31  1  1  0  0  0
 25  8  1  0  0  0  0
 26 24  1  0  0  0  0
 27 26  2  0  0  0  0
 29 23  1  0  0  0  0
 32 25  1  0  0  0  0
 33 43  1  0  0  0  0
 33 26  1  0  0  0  0
 34 44  1  6  0  0  0
 34 39  1  0  0  0  0
 34 33  1  0  0  0  0
 35 46  1  0  0  0  0
 35 34  1  0  0  0  0
 36 35  1  0  0  0  0
 36 47  1  0  0  0  0
 37 36  1  0  0  0  0
 38 37  2  0  0  0  0
 39 42  1  0  0  0  0
 40 39  2  0  0  0  0
 41 37  1  0  0  0  0
 45 35  1  0  0  0  0
 48 36  1  0  0  0  0
 49 41  1  0  0  0  0
M  END
$$$$
