KAF.pdb
 OpenBabel07022418483D

 53 53  0  0  1  0  0  0  0  0999 V2000
    0.8140    0.1210    5.6570 N   0  0  0  0  0  0  0  0  0  0  0  0
    1.5240   -0.2290    4.3920 C   0  0  1  0  0  0  0  0  0  0  0  0
    1.6860   -1.7120    4.4590 C   0  0  0  0  0  0  0  0  0  0  0  0
    2.3900   -2.3570    3.3200 C   0  0  0  0  0  0  0  0  0  0  0  0
    3.8110   -1.8410    3.1610 C   0  0  0  0  0  0  0  0  0  0  0  0
    4.4950   -2.5080    2.0000 C   0  0  0  0  0  0  0  0  0  0  0  0
    3.7230   -2.2050    0.8090 N   0  0  0  0  0  0  0  0  0  0  0  0
    0.5890    0.2110    3.3120 C   0  0  0  0  0  0  0  0  0  0  0  0
   -0.6060    0.6060    3.5820 O   0  0  0  0  0  0  0  0  0  0  0  0
    0.0130   -0.5750    5.6940 H   0  0  0  0  0  0  0  0  0  0  0  0
    1.4330   -0.1310    6.4540 H   0  0  0  0  0  0  0  0  0  0  0  0
    2.4680    0.3250    4.3890 H   0  0  0  0  0  0  0  0  0  0  0  0
    2.2320   -1.9630    5.3990 H   0  0  0  0  0  0  0  0  0  0  0  0
    0.6750   -2.1670    4.5320 H   0  0  0  0  0  0  0  0  0  0  0  0
    2.5080   -3.4490    3.6170 H   0  0  0  0  0  0  0  0  0  0  0  0
    1.8270   -2.3970    2.3840 H   0  0  0  0  0  0  0  0  0  0  0  0
    3.8760   -0.7450    3.0760 H   0  0  0  0  0  0  0  0  0  0  0  0
    4.4110   -2.1170    4.0720 H   0  0  0  0  0  0  0  0  0  0  0  0
    4.5330   -3.6050    2.1250 H   0  0  0  0  0  0  0  0  0  0  0  0
    5.5000   -2.1060    1.8520 H   0  0  0  0  0  0  0  0  0  0  0  0
    3.8060   -1.2020    0.5830 H   0  0  0  0  0  0  0  0  0  0  0  0
    3.9560   -2.8380    0.0110 H   0  0  0  0  0  0  0  0  0  0  0  0
    0.6730    1.8340    0.1930 C   0  0  0  0  0  0  0  0  0  0  0  0
    0.1130    0.6270    0.9200 C   0  0  2  0  0  0  0  0  0  0  0  0
    1.0380    0.1910    1.9660 N   0  0  0  0  0  0  0  0  0  0  0  0
   -0.1180   -0.5050   -0.0110 C   0  0  0  0  0  0  0  0  0  0  0  0
    0.4460   -1.6140    0.1660 O   0  0  0  0  0  0  0  0  0  0  0  0
    1.4350    2.2880    0.8620 H   0  0  0  0  0  0  0  0  0  0  0  0
    1.1320    1.5610   -0.7800 H   0  0  0  0  0  0  0  0  0  0  0  0
   -0.1370    2.5830    0.0400 H   0  0  0  0  0  0  0  0  0  0  0  0
   -0.8500    0.9040    1.3670 H   0  0  0  0  0  0  0  0  0  0  0  0
    2.0010   -0.1210    1.7370 H   0  0  0  0  0  0  0  0  0  0  0  0
   -0.9730   -0.4080   -1.1360 N   0  0  0  0  0  0  0  0  0  0  0  0
   -1.1800   -1.5110   -2.0180 C   0  0  1  0  0  0  0  0  0  0  0  0
   -2.6110   -1.9890   -1.9340 C   0  0  0  0  0  0  0  0  0  0  0  0
   -3.5980   -0.9770   -2.2930 C   0  0  0  0  0  0  0  0  0  0  0  0
   -4.0840   -0.7660   -3.5630 C   0  0  0  0  0  0  0  0  0  0  0  0
   -5.0190    0.2190   -3.8020 C   0  0  0  0  0  0  0  0  0  0  0  0
   -5.5090    1.0330   -2.7960 C   0  0  0  0  0  0  0  0  0  0  0  0
   -5.0220    0.8210   -1.5230 C   0  0  0  0  0  0  0  0  0  0  0  0
   -4.0930   -0.1610   -1.2950 C   0  0  0  0  0  0  0  0  0  0  0  0
   -0.7350   -1.2750   -3.3910 C   0  0  0  0  0  0  0  0  0  0  0  0
   -0.8630   -2.1690   -4.2590 O   0  0  0  0  0  0  0  0  0  0  0  0
   -0.1630   -0.0760   -3.7830 O   0  0  0  0  0  0  0  0  0  0  0  0
   -1.4570    0.4850   -1.3190 H   0  0  0  0  0  0  0  0  0  0  0  0
   -0.5670   -2.3680   -1.6360 H   0  0  0  0  0  0  0  0  0  0  0  0
   -2.7850   -2.3030   -0.8850 H   0  0  0  0  0  0  0  0  0  0  0  0
   -2.7320   -2.9060   -2.5560 H   0  0  0  0  0  0  0  0  0  0  0  0
   -3.7140   -1.3900   -4.3610 H   0  0  0  0  0  0  0  0  0  0  0  0
   -5.4220    0.4090   -4.8050 H   0  0  0  0  0  0  0  0  0  0  0  0
   -6.2500    1.8090   -3.0050 H   0  0  0  0  0  0  0  0  0  0  0  0
   -5.3970    1.4530   -0.7160 H   0  0  0  0  0  0  0  0  0  0  0  0
   -3.7510   -0.2730   -0.2600 H   0  0  0  0  0  0  0  0  0  0  0  0
  1 10  1  0  0  0  0
  1 11  1  0  0  0  0
  2 12  1  6  0  0  0
  2  3  1  0  0  0  0
  2  1  1  0  0  0  0
  3 14  1  0  0  0  0
  3 13  1  0  0  0  0
  4 15  1  0  0  0  0
  4  3  1  0  0  0  0
  5  4  1  0  0  0  0
  5 18  1  0  0  0  0
  6 19  1  0  0  0  0
  6  5  1  0  0  0  0
  7  6  1  0  0  0  0
  8  9  2  0  0  0  0
  8  2  1  0  0  0  0
 16  4  1  0  0  0  0
 17  5  1  0  0  0  0
 20  6  1  0  0  0  0
 21  7  1  0  0  0  0
 22  7  1  0  0  0  0
 23 28  1  0  0  0  0
 23 24  1  0  0  0  0
 24 31  1  1  0  0  0
 24 25  1  0  0  0  0
 25  8  1  0  0  0  0
 26 27  2  0  0  0  0
 26 24  1  0  0  0  0
 29 23  1  0  0  0  0
 30 23  1  0  0  0  0
 32 25  1  0  0  0  0
 33 26  1  0  0  0  0
 34 35  1  0  0  0  0
 34 46  1  1  0  0  0
 34 33  1  0  0  0  0
 35 47  1  0  0  0  0
 36 35  1  0  0  0  0
 36 41  1  0  0  0  0
 37 36  2  0  0  0  0
 38 37  1  0  0  0  0
 38 39  2  0  0  0  0
 39 40  1  0  0  0  0
 40 41  2  0  0  0  0
 40 52  1  0  0  0  0
 41 53  1  0  0  0  0
 42 34  1  0  0  0  0
 43 42  2  0  0  0  0
 44 42  1  0  0  0  0
 45 33  1  0  0  0  0
 48 35  1  0  0  0  0
 49 37  1  0  0  0  0
 50 38  1  0  0  0  0
 51 39  1  0  0  0  0
M  END
$$$$
