KAI.pdb
 OpenBabel07022418483D

 52 51  0  0  1  0  0  0  0  0999 V2000
    3.9210    0.2970    1.5200 N   0  0  0  0  0  0  0  0  0  0  0  0
    2.8170   -0.4320    0.9200 C   0  0  1  0  0  0  0  0  0  0  0  0
    1.7880   -0.8330    1.9010 C   0  0  0  0  0  0  0  0  0  0  0  0
    2.2480   -1.6800    3.0050 C   0  0  0  0  0  0  0  0  0  0  0  0
    2.8050   -3.0180    2.8360 C   0  0  0  0  0  0  0  0  0  0  0  0
    4.0480   -3.2560    2.0770 C   0  0  0  0  0  0  0  0  0  0  0  0
    4.3790   -4.7220    2.1650 N   0  0  0  0  0  0  0  0  0  0  0  0
    2.1970    0.4780   -0.1390 C   0  0  0  0  0  0  0  0  0  0  0  0
    2.7200    1.5870   -0.3250 O   0  0  0  0  0  0  0  0  0  0  0  0
    3.6780    0.5390    2.4860 H   0  0  0  0  0  0  0  0  0  0  0  0
    4.8050   -0.2070    1.3970 H   0  0  0  0  0  0  0  0  0  0  0  0
    3.1900   -1.2730    0.3420 H   0  0  0  0  0  0  0  0  0  0  0  0
    0.9270   -1.3390    1.3510 H   0  0  0  0  0  0  0  0  0  0  0  0
    1.3780    0.1200    2.3630 H   0  0  0  0  0  0  0  0  0  0  0  0
    1.3870   -1.7010    3.7800 H   0  0  0  0  0  0  0  0  0  0  0  0
    3.0520   -1.0640    3.5750 H   0  0  0  0  0  0  0  0  0  0  0  0
    2.0110   -3.7710    2.4840 H   0  0  0  0  0  0  0  0  0  0  0  0
    3.0070   -3.4250    3.8910 H   0  0  0  0  0  0  0  0  0  0  0  0
    3.9860   -3.1360    0.9750 H   0  0  0  0  0  0  0  0  0  0  0  0
    4.9170   -2.7320    2.4900 H   0  0  0  0  0  0  0  0  0  0  0  0
    5.3430   -4.7630    1.7530 H   0  0  0  0  0  0  0  0  0  0  0  0
    3.7690   -5.2370    1.4720 H   0  0  0  0  0  0  0  0  0  0  0  0
    0.4780    0.1200   -3.2060 C   0  0  0  0  0  0  0  0  0  0  0  0
    0.4270    0.8460   -1.8810 C   0  0  2  0  0  0  0  0  0  0  0  0
    1.0610    0.0550   -0.8760 N   0  0  0  0  0  0  0  0  0  0  0  0
   -0.9710    1.2130   -1.5330 C   0  0  0  0  0  0  0  0  0  0  0  0
   -1.5950    1.9080   -2.3750 O   0  0  0  0  0  0  0  0  0  0  0  0
   -0.2010   -0.7540   -3.1130 H   0  0  0  0  0  0  0  0  0  0  0  0
    0.2070    0.7540   -4.0610 H   0  0  0  0  0  0  0  0  0  0  0  0
    1.4990   -0.3020   -3.3190 H   0  0  0  0  0  0  0  0  0  0  0  0
    0.9670    1.8250   -2.0140 H   0  0  0  0  0  0  0  0  0  0  0  0
    0.6760   -0.8890   -0.6630 H   0  0  0  0  0  0  0  0  0  0  0  0
   -4.4570   -2.0610    1.3130 C   0  0  0  0  0  0  0  0  0  0  0  0
   -3.4420   -0.9460    1.2180 C   0  0  0  0  0  0  0  0  0  0  0  0
   -3.8800   -0.0010    0.1340 C   0  0  2  0  0  0  0  0  0  0  0  0
   -3.9760   -0.6880   -1.1960 C   0  0  0  0  0  0  0  0  0  0  0  0
   -2.9810    1.1950   -0.0080 C   0  0  2  0  0  0  0  0  0  0  0  0
   -1.6180    0.8280   -0.3280 N   0  0  0  0  0  0  0  0  0  0  0  0
   -3.0270    2.0780    1.1870 C   0  0  0  0  0  0  0  0  0  0  0  0
   -1.9750    2.4270    1.8020 O   0  0  0  0  0  0  0  0  0  0  0  0
   -4.2180    2.5690    1.7010 O   0  0  0  0  0  0  0  0  0  0  0  0
   -5.4260   -1.7010    0.8890 H   0  0  0  0  0  0  0  0  0  0  0  0
   -4.1000   -2.9930    0.8270 H   0  0  0  0  0  0  0  0  0  0  0  0
   -4.6320   -2.2720    2.3860 H   0  0  0  0  0  0  0  0  0  0  0  0
   -3.4360   -0.4120    2.1800 H   0  0  0  0  0  0  0  0  0  0  0  0
   -2.4580   -1.4140    0.9900 H   0  0  0  0  0  0  0  0  0  0  0  0
   -4.8880    0.3740    0.4060 H   0  0  0  0  0  0  0  0  0  0  0  0
   -4.7560   -0.1290   -1.7880 H   0  0  0  0  0  0  0  0  0  0  0  0
   -4.3100   -1.7330   -1.1460 H   0  0  0  0  0  0  0  0  0  0  0  0
   -3.0370   -0.5580   -1.8010 H   0  0  0  0  0  0  0  0  0  0  0  0
   -3.3980    1.8040   -0.8500 H   0  0  0  0  0  0  0  0  0  0  0  0
   -1.0610    0.2480    0.3460 H   0  0  0  0  0  0  0  0  0  0  0  0
  1 10  1  0  0  0  0
  2 12  1  6  0  0  0
  2  1  1  0  0  0  0
  2  3  1  0  0  0  0
  3 14  1  0  0  0  0
  3  4  1  0  0  0  0
  4 16  1  0  0  0  0
  4 15  1  0  0  0  0
  5  4  1  0  0  0  0
  5 18  1  0  0  0  0
  6  7  1  0  0  0  0
  6 20  1  0  0  0  0
  6  5  1  0  0  0  0
  8  2  1  0  0  0  0
  9  8  2  0  0  0  0
 11  1  1  0  0  0  0
 13  3  1  0  0  0  0
 17  5  1  0  0  0  0
 19  6  1  0  0  0  0
 21  7  1  0  0  0  0
 22  7  1  0  0  0  0
 23 28  1  0  0  0  0
 23 24  1  0  0  0  0
 24 31  1  6  0  0  0
 24 26  1  0  0  0  0
 24 25  1  0  0  0  0
 25 32  1  0  0  0  0
 25  8  1  0  0  0  0
 26 38  1  0  0  0  0
 27 26  2  0  0  0  0
 29 23  1  0  0  0  0
 30 23  1  0  0  0  0
 33 44  1  0  0  0  0
 34 33  1  0  0  0  0
 34 45  1  0  0  0  0
 35 47  1  1  0  0  0
 35 34  1  0  0  0  0
 36 49  1  0  0  0  0
 36 35  1  0  0  0  0
 37 51  1  6  0  0  0
 37 35  1  0  0  0  0
 37 39  1  0  0  0  0
 38 37  1  0  0  0  0
 38 52  1  0  0  0  0
 39 41  2  0  0  0  0
 39 40  1  0  0  0  0
 42 33  1  0  0  0  0
 43 33  1  0  0  0  0
 46 34  1  0  0  0  0
 48 36  1  0  0  0  0
 50 36  1  0  0  0  0
M  END
$$$$
