KAL.pdb
 OpenBabel07022418483D

 52 51  0  0  1  0  0  0  0  0999 V2000
    2.8600   -1.5110    3.1120 N   0  0  0  0  0  0  0  0  0  0  0  0
    2.9410   -2.0180    1.7290 C   0  0  1  0  0  0  0  0  0  0  0  0
    3.4320   -3.4120    1.8120 C   0  0  0  0  0  0  0  0  0  0  0  0
    3.6020   -4.1490    0.5490 C   0  0  0  0  0  0  0  0  0  0  0  0
    4.5570   -3.5710   -0.4430 C   0  0  0  0  0  0  0  0  0  0  0  0
    5.9640   -3.4750    0.1550 C   0  0  0  0  0  0  0  0  0  0  0  0
    6.8380   -2.8990   -0.8790 N   0  0  0  0  0  0  0  0  0  0  0  0
    1.5680   -1.9970    1.2050 C   0  0  0  0  0  0  0  0  0  0  0  0
    1.3440   -2.3760    0.0250 O   0  0  0  0  0  0  0  0  0  0  0  0
    2.9670   -0.4700    3.1190 H   0  0  0  0  0  0  0  0  0  0  0  0
    3.6830   -1.8750    3.6570 H   0  0  0  0  0  0  0  0  0  0  0  0
    3.6210   -1.3160    1.2120 H   0  0  0  0  0  0  0  0  0  0  0  0
    2.7300   -3.9860    2.4600 H   0  0  0  0  0  0  0  0  0  0  0  0
    4.3950   -3.3930    2.4050 H   0  0  0  0  0  0  0  0  0  0  0  0
    2.6300   -4.3210    0.0440 H   0  0  0  0  0  0  0  0  0  0  0  0
    3.9810   -5.1750    0.8050 H   0  0  0  0  0  0  0  0  0  0  0  0
    4.3080   -2.5790   -0.8070 H   0  0  0  0  0  0  0  0  0  0  0  0
    4.6620   -4.2360   -1.3260 H   0  0  0  0  0  0  0  0  0  0  0  0
    6.3610   -4.5040    0.3330 H   0  0  0  0  0  0  0  0  0  0  0  0
    5.9720   -2.8500    1.0500 H   0  0  0  0  0  0  0  0  0  0  0  0
    6.6520   -3.4770   -1.7450 H   0  0  0  0  0  0  0  0  0  0  0  0
    6.4550   -1.9430   -1.1140 H   0  0  0  0  0  0  0  0  0  0  0  0
   -1.8460   -2.4790    2.1030 C   0  0  0  0  0  0  0  0  0  0  0  0
   -0.8800   -1.5660    1.3920 C   0  0  2  0  0  0  0  0  0  0  0  0
    0.4320   -1.5660    1.9500 N   0  0  0  0  0  0  0  0  0  0  0  0
   -1.4900   -0.2140    1.3350 C   0  0  0  0  0  0  0  0  0  0  0  0
   -0.8180    0.7540    1.7720 O   0  0  0  0  0  0  0  0  0  0  0  0
   -1.6720   -3.5530    1.8790 H   0  0  0  0  0  0  0  0  0  0  0  0
   -2.8810   -2.2520    1.7760 H   0  0  0  0  0  0  0  0  0  0  0  0
   -1.8060   -2.3620    3.2030 H   0  0  0  0  0  0  0  0  0  0  0  0
   -0.8160   -1.9450    0.3360 H   0  0  0  0  0  0  0  0  0  0  0  0
    0.6110   -1.2510    2.9290 H   0  0  0  0  0  0  0  0  0  0  0  0
   -3.3830    4.1270   -0.4740 C   0  0  0  0  0  0  0  0  0  0  0  0
   -4.2700    2.9830   -0.9610 C   0  0  0  0  0  0  0  0  0  0  0  0
   -4.4990    3.1750   -2.4670 C   0  0  0  0  0  0  0  0  0  0  0  0
   -3.6530    1.6500   -0.6940 C   0  0  0  0  0  0  0  0  0  0  0  0
   -3.3800    1.3600    0.7600 C   0  0  2  0  0  0  0  0  0  0  0  0
   -2.7780    0.0240    0.8160 N   0  0  0  0  0  0  0  0  0  0  0  0
   -4.6580    1.3360    1.4990 C   0  0  0  0  0  0  0  0  0  0  0  0
   -5.3870    2.3440    1.6440 O   0  0  0  0  0  0  0  0  0  0  0  0
   -5.0900    0.1530    2.0660 O   0  0  0  0  0  0  0  0  0  0  0  0
   -3.2110    3.9770    0.6130 H   0  0  0  0  0  0  0  0  0  0  0  0
   -2.4250    4.1710   -1.0100 H   0  0  0  0  0  0  0  0  0  0  0  0
   -3.9680    5.0720   -0.5700 H   0  0  0  0  0  0  0  0  0  0  0  0
   -5.2640    3.1440   -0.5090 H   0  0  0  0  0  0  0  0  0  0  0  0
   -5.0020    2.2680   -2.8540 H   0  0  0  0  0  0  0  0  0  0  0  0
   -5.1630    4.0410   -2.5730 H   0  0  0  0  0  0  0  0  0  0  0  0
   -3.5400    3.3920   -2.9790 H   0  0  0  0  0  0  0  0  0  0  0  0
   -2.7380    1.5160   -1.3190 H   0  0  0  0  0  0  0  0  0  0  0  0
   -4.3790    0.8810   -1.0890 H   0  0  0  0  0  0  0  0  0  0  0  0
   -2.6690    2.0910    1.1830 H   0  0  0  0  0  0  0  0  0  0  0  0
   -3.3340   -0.7710    0.4540 H   0  0  0  0  0  0  0  0  0  0  0  0
  1 10  1  0  0  0  0
  1 11  1  0  0  0  0
  2 12  1  6  0  0  0
  2  3  1  0  0  0  0
  2  1  1  0  0  0  0
  3 14  1  0  0  0  0
  3 13  1  0  0  0  0
  4 16  1  0  0  0  0
  4  3  1  0  0  0  0
  5  6  1  0  0  0  0
  5  4  1  0  0  0  0
  6 19  1  0  0  0  0
  6 20  1  0  0  0  0
  7  6  1  0  0  0  0
  8  2  1  0  0  0  0
  8 25  1  0  0  0  0
  9  8  2  0  0  0  0
 15  4  1  0  0  0  0
 17  5  1  0  0  0  0
 18  5  1  0  0  0  0
 21  7  1  0  0  0  0
 22  7  1  0  0  0  0
 23 30  1  0  0  0  0
 24 31  1  6  0  0  0
 24 25  1  0  0  0  0
 24 23  1  0  0  0  0
 25 32  1  0  0  0  0
 26 24  1  0  0  0  0
 26 27  2  0  0  0  0
 28 23  1  0  0  0  0
 29 23  1  0  0  0  0
 33 42  1  0  0  0  0
 34 36  1  0  0  0  0
 34 45  1  0  0  0  0
 34 33  1  0  0  0  0
 35 34  1  0  0  0  0
 36 37  1  0  0  0  0
 37 38  1  0  0  0  0
 37 51  1  1  0  0  0
 37 39  1  0  0  0  0
 38 26  1  0  0  0  0
 39 40  2  0  0  0  0
 39 41  1  0  0  0  0
 43 33  1  0  0  0  0
 44 33  1  0  0  0  0
 46 35  1  0  0  0  0
 47 35  1  0  0  0  0
 48 35  1  0  0  0  0
 49 36  1  0  0  0  0
 50 36  1  0  0  0  0
 52 38  1  0  0  0  0
M  END
$$$$
