KAM.pdb
 OpenBabel07022418483D

 50 49  0  0  1  0  0  0  0  0999 V2000
    1.0920   -1.8630    0.8780 N   0  0  0  0  0  0  0  0  0  0  0  0
    0.0610   -2.7000    1.4560 C   0  0  1  0  0  0  0  0  0  0  0  0
    0.7460   -3.7280    2.3280 C   0  0  0  0  0  0  0  0  0  0  0  0
    1.6740   -4.5350    1.4720 C   0  0  0  0  0  0  0  0  0  0  0  0
    1.0040   -5.2710    0.3540 C   0  0  0  0  0  0  0  0  0  0  0  0
    2.1130   -6.0250   -0.3920 C   0  0  0  0  0  0  0  0  0  0  0  0
    3.0360   -5.0040   -0.8660 N   0  0  0  0  0  0  0  0  0  0  0  0
   -0.8810   -1.8590    2.1960 C   0  0  0  0  0  0  0  0  0  0  0  0
   -1.8940   -2.2950    2.8050 O   0  0  0  0  0  0  0  0  0  0  0  0
    1.8430   -1.6900    1.5840 H   0  0  0  0  0  0  0  0  0  0  0  0
    1.5180   -2.2780    0.0310 H   0  0  0  0  0  0  0  0  0  0  0  0
   -0.5110   -3.2740    0.6940 H   0  0  0  0  0  0  0  0  0  0  0  0
    0.0260   -4.3650    2.8650 H   0  0  0  0  0  0  0  0  0  0  0  0
    1.3740   -3.2250    3.0990 H   0  0  0  0  0  0  0  0  0  0  0  0
    2.2160   -5.2970    2.0860 H   0  0  0  0  0  0  0  0  0  0  0  0
    2.4420   -3.8700    1.0070 H   0  0  0  0  0  0  0  0  0  0  0  0
    0.3050   -6.0600    0.7190 H   0  0  0  0  0  0  0  0  0  0  0  0
    0.5460   -4.6170   -0.4090 H   0  0  0  0  0  0  0  0  0  0  0  0
    2.6300   -6.6870    0.3230 H   0  0  0  0  0  0  0  0  0  0  0  0
    1.7160   -6.6210   -1.2230 H   0  0  0  0  0  0  0  0  0  0  0  0
    3.5980   -5.3030   -1.6710 H   0  0  0  0  0  0  0  0  0  0  0  0
    2.4510   -4.1850   -1.1510 H   0  0  0  0  0  0  0  0  0  0  0  0
   -0.7390    1.0750    4.0830 C   0  0  0  0  0  0  0  0  0  0  0  0
   -1.5470    0.4620    2.9580 C   0  0  2  0  0  0  0  0  0  0  0  0
   -0.6780   -0.4580    2.2560 N   0  0  0  0  0  0  0  0  0  0  0  0
   -2.0450    1.5470    2.1070 C   0  0  0  0  0  0  0  0  0  0  0  0
   -2.7980    2.4150    2.6200 O   0  0  0  0  0  0  0  0  0  0  0  0
   -0.4220    0.3130    4.8250 H   0  0  0  0  0  0  0  0  0  0  0  0
    0.1810    1.4950    3.6250 H   0  0  0  0  0  0  0  0  0  0  0  0
   -1.2630    1.9260    4.5550 H   0  0  0  0  0  0  0  0  0  0  0  0
   -2.3890   -0.0990    3.4520 H   0  0  0  0  0  0  0  0  0  0  0  0
    0.1600   -0.0660    1.7580 H   0  0  0  0  0  0  0  0  0  0  0  0
    2.2730    4.0000   -0.9710 C   0  0  0  0  0  0  0  0  0  0  0  0
    1.2370    3.4100   -2.3610 S   0  0  0  0  0  0  0  0  0  0  0  0
   -0.0950    2.4190   -1.6260 C   0  0  0  0  0  0  0  0  0  0  0  0
   -0.9650    3.3360   -0.8150 C   0  0  0  0  0  0  0  0  0  0  0  0
   -2.1130    2.6100   -0.1530 C   0  0  2  0  0  0  0  0  0  0  0  0
   -1.6680    1.5840    0.7440 N   0  0  0  0  0  0  0  0  0  0  0  0
   -2.9460    1.9800   -1.1980 C   0  0  0  0  0  0  0  0  0  0  0  0
   -3.4470    2.6990   -2.0980 O   0  0  0  0  0  0  0  0  0  0  0  0
   -3.1900    0.6300   -1.2170 O   0  0  0  0  0  0  0  0  0  0  0  0
    1.9040    5.0120   -0.7160 H   0  0  0  0  0  0  0  0  0  0  0  0
    3.3330    4.0890   -1.2850 H   0  0  0  0  0  0  0  0  0  0  0  0
    2.2040    3.2930   -0.1160 H   0  0  0  0  0  0  0  0  0  0  0  0
    0.3940    1.6360   -1.0160 H   0  0  0  0  0  0  0  0  0  0  0  0
   -0.6740    1.9780   -2.4770 H   0  0  0  0  0  0  0  0  0  0  0  0
   -1.3720    4.1040   -1.5010 H   0  0  0  0  0  0  0  0  0  0  0  0
   -0.3440    3.8070   -0.0260 H   0  0  0  0  0  0  0  0  0  0  0  0
   -2.7570    3.3360    0.3710 H   0  0  0  0  0  0  0  0  0  0  0  0
   -1.0460    0.8350    0.3920 H   0  0  0  0  0  0  0  0  0  0  0  0
  1  2  1  0  0  0  0
  1 10  1  0  0  0  0
  2 12  1  6  0  0  0
  2  8  1  0  0  0  0
  2  3  1  0  0  0  0
  3 13  1  0  0  0  0
  3 14  1  0  0  0  0
  4 15  1  0  0  0  0
  4  3  1  0  0  0  0
  5 17  1  0  0  0  0
  5  4  1  0  0  0  0
  6 19  1  0  0  0  0
  6  5  1  0  0  0  0
  7  6  1  0  0  0  0
  8 25  1  0  0  0  0
  8  9  2  0  0  0  0
 11  1  1  0  0  0  0
 16  4  1  0  0  0  0
 18  5  1  0  0  0  0
 20  6  1  0  0  0  0
 21  7  1  0  0  0  0
 22  7  1  0  0  0  0
 23 30  1  0  0  0  0
 23 28  1  0  0  0  0
 24 31  1  1  0  0  0
 24 23  1  0  0  0  0
 25 24  1  0  0  0  0
 26 27  2  0  0  0  0
 26 24  1  0  0  0  0
 29 23  1  0  0  0  0
 32 25  1  0  0  0  0
 33 42  1  0  0  0  0
 33 44  1  0  0  0  0
 34 35  1  0  0  0  0
 34 33  1  0  0  0  0
 35 45  1  0  0  0  0
 35 36  1  0  0  0  0
 36 37  1  0  0  0  0
 36 48  1  0  0  0  0
 37 49  1  1  0  0  0
 37 38  1  0  0  0  0
 38 26  1  0  0  0  0
 39 37  1  0  0  0  0
 40 39  2  0  0  0  0
 41 39  1  0  0  0  0
 43 33  1  0  0  0  0
 46 35  1  0  0  0  0
 47 36  1  0  0  0  0
 50 38  1  0  0  0  0
M  END
$$$$
