KAQ.pdb
 OpenBabel07022418483D

 50 49  0  0  1  0  0  0  0  0999 V2000
    3.6340   -1.6760    4.6140 N   0  0  0  0  0  0  0  0  0  0  0  0
    3.0120   -1.5780    3.2610 C   0  0  1  0  0  0  0  0  0  0  0  0
    2.1000   -2.7600    3.1910 C   0  0  0  0  0  0  0  0  0  0  0  0
    1.3460   -2.9280    1.9230 C   0  0  0  0  0  0  0  0  0  0  0  0
    2.2850   -3.0920    0.7300 C   0  0  0  0  0  0  0  0  0  0  0  0
    1.4480   -3.2540   -0.5060 C   0  0  0  0  0  0  0  0  0  0  0  0
    0.6230   -4.4460   -0.3130 N   0  0  0  0  0  0  0  0  0  0  0  0
    2.2600   -0.3300    3.1680 C   0  0  0  0  0  0  0  0  0  0  0  0
    2.0220    0.3150    4.2380 O   0  0  0  0  0  0  0  0  0  0  0  0
    2.9220   -1.4860    5.3460 H   0  0  0  0  0  0  0  0  0  0  0  0
    3.9320   -2.6850    4.7630 H   0  0  0  0  0  0  0  0  0  0  0  0
    3.8500   -1.6060    2.5590 H   0  0  0  0  0  0  0  0  0  0  0  0
    2.7160   -3.6740    3.4140 H   0  0  0  0  0  0  0  0  0  0  0  0
    1.3680   -2.6640    4.0220 H   0  0  0  0  0  0  0  0  0  0  0  0
    0.6420   -2.1130    1.7820 H   0  0  0  0  0  0  0  0  0  0  0  0
    0.7430   -3.8760    2.0180 H   0  0  0  0  0  0  0  0  0  0  0  0
    2.8370   -4.0730    0.8460 H   0  0  0  0  0  0  0  0  0  0  0  0
    3.0430   -2.3070    0.6820 H   0  0  0  0  0  0  0  0  0  0  0  0
    2.0760   -3.3960   -1.4070 H   0  0  0  0  0  0  0  0  0  0  0  0
    0.7700   -2.4160   -0.7060 H   0  0  0  0  0  0  0  0  0  0  0  0
    0.2310   -4.8060   -1.2080 H   0  0  0  0  0  0  0  0  0  0  0  0
    1.1600   -5.1580    0.2220 H   0  0  0  0  0  0  0  0  0  0  0  0
    1.9880    2.5900    1.4910 C   0  0  0  0  0  0  0  0  0  0  0  0
    1.0410    1.4840    1.9730 C   0  0  2  0  0  0  0  0  0  0  0  0
    1.7690    0.2340    1.9610 N   0  0  0  0  0  0  0  0  0  0  0  0
   -0.2080    1.4850    1.2040 C   0  0  0  0  0  0  0  0  0  0  0  0
   -0.9580    2.5280    1.2120 O   0  0  0  0  0  0  0  0  0  0  0  0
    1.4400    3.5330    1.4500 H   0  0  0  0  0  0  0  0  0  0  0  0
    2.7870    2.6520    2.2540 H   0  0  0  0  0  0  0  0  0  0  0  0
    2.4610    2.3070    0.5190 H   0  0  0  0  0  0  0  0  0  0  0  0
    0.8210    1.7560    3.0230 H   0  0  0  0  0  0  0  0  0  0  0  0
    1.9240   -0.2370    1.0480 H   0  0  0  0  0  0  0  0  0  0  0  0
   -4.9910    2.0600   -2.9490 N   0  0  0  0  0  0  0  0  0  0  0  0
   -3.6960    1.8560   -2.3960 C   0  0  0  0  0  0  0  0  0  0  0  0
   -3.1890    2.8380   -1.8080 O   0  0  0  0  0  0  0  0  0  0  0  0
   -3.0270    0.5440   -2.5330 C   0  0  0  0  0  0  0  0  0  0  0  0
   -1.7520    0.3980   -1.7690 C   0  0  0  0  0  0  0  0  0  0  0  0
   -1.9610    0.5560   -0.2940 C   0  0  2  0  0  0  0  0  0  0  0  0
   -0.6840    0.4120    0.4250 N   0  0  0  0  0  0  0  0  0  0  0  0
   -2.8480   -0.4920    0.2970 C   0  0  0  0  0  0  0  0  0  0  0  0
   -2.4410   -1.3070    1.1970 O   0  0  0  0  0  0  0  0  0  0  0  0
   -4.1740   -0.6790   -0.0640 O   0  0  0  0  0  0  0  0  0  0  0  0
   -5.1240    2.6630   -3.7780 H   0  0  0  0  0  0  0  0  0  0  0  0
   -5.8250    1.6030   -2.5240 H   0  0  0  0  0  0  0  0  0  0  0  0
   -2.8640    0.3530   -3.6360 H   0  0  0  0  0  0  0  0  0  0  0  0
   -3.7720   -0.2500   -2.2600 H   0  0  0  0  0  0  0  0  0  0  0  0
   -1.0070    1.1460   -2.1210 H   0  0  0  0  0  0  0  0  0  0  0  0
   -1.3390   -0.6060   -2.0310 H   0  0  0  0  0  0  0  0  0  0  0  0
   -2.4000    1.5490   -0.1170 H   0  0  0  0  0  0  0  0  0  0  0  0
   -0.1710   -0.4760    0.3300 H   0  0  0  0  0  0  0  0  0  0  0  0
  1 11  1  0  0  0  0
  1 10  1  0  0  0  0
  2 12  1  6  0  0  0
  2  1  1  0  0  0  0
  3  2  1  0  0  0  0
  3 13  1  0  0  0  0
  3 14  1  0  0  0  0
  4 16  1  0  0  0  0
  4  3  1  0  0  0  0
  5 17  1  0  0  0  0
  5  4  1  0  0  0  0
  6  7  1  0  0  0  0
  6  5  1  0  0  0  0
  7 22  1  0  0  0  0
  8  2  1  0  0  0  0
  8  9  2  0  0  0  0
 15  4  1  0  0  0  0
 18  5  1  0  0  0  0
 19  6  1  0  0  0  0
 20  6  1  0  0  0  0
 21  7  1  0  0  0  0
 23 24  1  0  0  0  0
 23 29  1  0  0  0  0
 24 31  1  1  0  0  0
 25 24  1  0  0  0  0
 25  8  1  0  0  0  0
 26 27  2  0  0  0  0
 26 24  1  0  0  0  0
 28 23  1  0  0  0  0
 30 23  1  0  0  0  0
 32 25  1  0  0  0  0
 33 44  1  0  0  0  0
 33 34  1  0  0  0  0
 34 35  2  0  0  0  0
 36 34  1  0  0  0  0
 36 46  1  0  0  0  0
 36 37  1  0  0  0  0
 37 38  1  0  0  0  0
 38 49  1  1  0  0  0
 38 40  1  0  0  0  0
 38 39  1  0  0  0  0
 39 26  1  0  0  0  0
 40 41  1  0  0  0  0
 42 40  2  0  0  0  0
 43 33  1  0  0  0  0
 45 36  1  0  0  0  0
 47 37  1  0  0  0  0
 48 37  1  0  0  0  0
 50 39  1  0  0  0  0
M  END
$$$$
