KAR.pdb
 OpenBabel07022418483D

 56 55  0  0  1  0  0  0  0  0999 V2000
    3.6120    0.0850    4.0780 N   0  0  0  0  0  0  0  0  0  0  0  0
    3.0040    0.4190    2.8120 C   0  0  1  0  0  0  0  0  0  0  0  0
    3.0980   -0.7170    1.8200 C   0  0  0  0  0  0  0  0  0  0  0  0
    4.5370   -1.0890    1.5330 C   0  0  0  0  0  0  0  0  0  0  0  0
    4.6400   -2.2140    0.5400 C   0  0  0  0  0  0  0  0  0  0  0  0
    3.9920   -1.8680   -0.7780 C   0  0  0  0  0  0  0  0  0  0  0  0
    4.5550   -0.7200   -1.4180 N   0  0  0  0  0  0  0  0  0  0  0  0
    1.5460    0.6590    3.0500 C   0  0  0  0  0  0  0  0  0  0  0  0
    1.0770    0.6140    4.2280 O   0  0  0  0  0  0  0  0  0  0  0  0
    3.6100   -0.9510    4.2650 H   0  0  0  0  0  0  0  0  0  0  0  0
    4.5560    0.4930    4.2190 H   0  0  0  0  0  0  0  0  0  0  0  0
    3.5000    1.3420    2.4390 H   0  0  0  0  0  0  0  0  0  0  0  0
    2.5590   -1.5790    2.2620 H   0  0  0  0  0  0  0  0  0  0  0  0
    2.5780   -0.4520    0.8830 H   0  0  0  0  0  0  0  0  0  0  0  0
    5.1560   -0.2230    1.3100 H   0  0  0  0  0  0  0  0  0  0  0  0
    4.9300   -1.5150    2.5050 H   0  0  0  0  0  0  0  0  0  0  0  0
    5.6900   -2.4780    0.3940 H   0  0  0  0  0  0  0  0  0  0  0  0
    4.0690   -3.0690    0.9600 H   0  0  0  0  0  0  0  0  0  0  0  0
    2.9190   -1.7680   -0.6060 H   0  0  0  0  0  0  0  0  0  0  0  0
    4.0960   -2.7430   -1.4760 H   0  0  0  0  0  0  0  0  0  0  0  0
    5.5720   -0.5850   -1.2120 H   0  0  0  0  0  0  0  0  0  0  0  0
    4.0000    0.1510   -1.2700 H   0  0  0  0  0  0  0  0  0  0  0  0
   -1.1130    2.5910    1.7940 C   0  0  0  0  0  0  0  0  0  0  0  0
   -0.7760    1.1730    2.2680 C   0  0  2  0  0  0  0  0  0  0  0  0
    0.6170    0.9430    2.0160 N   0  0  0  0  0  0  0  0  0  0  0  0
   -1.6730    0.1840    1.6190 C   0  0  0  0  0  0  0  0  0  0  0  0
   -2.9160    0.2770    1.8340 O   0  0  0  0  0  0  0  0  0  0  0  0
   -0.5890    2.8240    0.8270 H   0  0  0  0  0  0  0  0  0  0  0  0
   -2.1980    2.7130    1.6660 H   0  0  0  0  0  0  0  0  0  0  0  0
   -0.7850    3.3490    2.5420 H   0  0  0  0  0  0  0  0  0  0  0  0
   -0.9640    1.1490    3.3510 H   0  0  0  0  0  0  0  0  0  0  0  0
    0.9970    0.9800    1.0360 H   0  0  0  0  0  0  0  0  0  0  0  0
   -5.1370    1.0760   -3.0790 N   0  0  0  0  0  0  0  0  0  0  0  0
   -4.8560   -0.0670   -2.2480 C   0  0  0  0  0  0  0  0  0  0  0  0
   -4.5560    0.1290   -1.0370 N   0  0  0  0  0  0  0  0  0  0  0  0
   -4.9210   -1.3810   -2.7550 N   0  0  0  0  0  0  0  0  0  0  0  0
   -4.3810   -2.5570   -2.1490 C   0  0  0  0  0  0  0  0  0  0  0  0
   -2.9330   -2.7250   -2.0770 C   0  0  0  0  0  0  0  0  0  0  0  0
   -2.0580   -1.8570   -1.3000 C   0  0  0  0  0  0  0  0  0  0  0  0
   -2.2260   -1.8000    0.1800 C   0  0  2  0  0  0  0  0  0  0  0  0
   -1.2510   -0.8690    0.7680 N   0  0  0  0  0  0  0  0  0  0  0  0
   -1.8470   -3.1540    0.7200 C   0  0  0  0  0  0  0  0  0  0  0  0
   -2.4790   -4.2020    0.4810 O   0  0  0  0  0  0  0  0  0  0  0  0
   -0.7250   -3.3060    1.5490 O   0  0  0  0  0  0  0  0  0  0  0  0
   -5.1910    2.0090   -2.6420 H   0  0  0  0  0  0  0  0  0  0  0  0
   -5.2850    0.9540   -4.1030 H   0  0  0  0  0  0  0  0  0  0  0  0
   -4.4980    1.0480   -0.5910 H   0  0  0  0  0  0  0  0  0  0  0  0
   -5.4460   -1.4360   -3.7030 H   0  0  0  0  0  0  0  0  0  0  0  0
   -4.8070   -3.4340   -2.7500 H   0  0  0  0  0  0  0  0  0  0  0  0
   -4.9210   -2.7010   -1.1770 H   0  0  0  0  0  0  0  0  0  0  0  0
   -2.5700   -2.7790   -3.1690 H   0  0  0  0  0  0  0  0  0  0  0  0
   -2.7000   -3.7970   -1.7660 H   0  0  0  0  0  0  0  0  0  0  0  0
   -2.0570   -0.8250   -1.7610 H   0  0  0  0  0  0  0  0  0  0  0  0
   -0.9650   -2.1530   -1.4390 H   0  0  0  0  0  0  0  0  0  0  0  0
   -3.1930   -1.5590    0.5810 H   0  0  0  0  0  0  0  0  0  0  0  0
   -0.2260   -0.9560    0.5760 H   0  0  0  0  0  0  0  0  0  0  0  0
  1 11  1  0  0  0  0
  1 10  1  0  0  0  0
  2 12  1  6  0  0  0
  2  8  1  0  0  0  0
  2  1  1  0  0  0  0
  3 13  1  0  0  0  0
  3  2  1  0  0  0  0
  4  3  1  0  0  0  0
  4 16  1  0  0  0  0
  5 18  1  0  0  0  0
  5  4  1  0  0  0  0
  6 19  1  0  0  0  0
  6  5  1  0  0  0  0
  7 22  1  0  0  0  0
  7 21  1  0  0  0  0
  7  6  1  0  0  0  0
  8  9  2  0  0  0  0
 14  3  1  0  0  0  0
 15  4  1  0  0  0  0
 17  5  1  0  0  0  0
 20  6  1  0  0  0  0
 23 24  1  0  0  0  0
 23 30  1  0  0  0  0
 24 31  1  1  0  0  0
 25 24  1  0  0  0  0
 25  8  1  0  0  0  0
 26 27  2  0  0  0  0
 26 24  1  0  0  0  0
 28 23  1  0  0  0  0
 29 23  1  0  0  0  0
 32 25  1  0  0  0  0
 33 45  1  0  0  0  0
 33 34  1  0  0  0  0
 34 35  2  0  0  0  0
 35 47  1  0  0  0  0
 36 34  1  0  0  0  0
 36 37  1  0  0  0  0
 37 38  1  0  0  0  0
 37 50  1  0  0  0  0
 38 52  1  0  0  0  0
 38 39  1  0  0  0  0
 39 40  1  0  0  0  0
 40 55  1  1  0  0  0
 40 42  1  0  0  0  0
 40 41  1  0  0  0  0
 41 26  1  0  0  0  0
 42 44  1  0  0  0  0
 43 42  2  0  0  0  0
 46 33  1  0  0  0  0
 48 36  1  0  0  0  0
 49 37  1  0  0  0  0
 51 38  1  0  0  0  0
 53 39  1  0  0  0  0
 54 39  1  0  0  0  0
 56 41  1  0  0  0  0
M  END
$$$$
