KAS.pdb
 OpenBabel07022418483D

 44 43  0  0  1  0  0  0  0  0999 V2000
    1.6470   -2.4830    4.2610 N   0  0  0  0  0  0  0  0  0  0  0  0
    1.9620   -2.2200    2.7920 C   0  0  1  0  0  0  0  0  0  0  0  0
    1.4960   -3.3830    2.0590 C   0  0  0  0  0  0  0  0  0  0  0  0
    1.5900   -3.6000    0.6160 C   0  0  0  0  0  0  0  0  0  0  0  0
    0.7980   -2.8120   -0.3390 C   0  0  0  0  0  0  0  0  0  0  0  0
   -0.7140   -2.9830   -0.1150 C   0  0  0  0  0  0  0  0  0  0  0  0
   -1.3780   -2.2020   -1.1260 N   0  0  0  0  0  0  0  0  0  0  0  0
    1.6900   -0.8370    2.5310 C   0  0  0  0  0  0  0  0  0  0  0  0
    1.0030   -0.1900    3.4350 O   0  0  0  0  0  0  0  0  0  0  0  0
    0.6420   -2.2320    4.4120 H   0  0  0  0  0  0  0  0  0  0  0  0
    1.7800   -3.5010    4.3890 H   0  0  0  0  0  0  0  0  0  0  0  0
    3.1160   -2.2970    2.8440 H   0  0  0  0  0  0  0  0  0  0  0  0
    1.8170   -4.3500    2.6190 H   0  0  0  0  0  0  0  0  0  0  0  0
    0.3520   -3.4530    2.3050 H   0  0  0  0  0  0  0  0  0  0  0  0
    1.5090   -4.7220    0.3930 H   0  0  0  0  0  0  0  0  0  0  0  0
    2.6820   -3.4140    0.3360 H   0  0  0  0  0  0  0  0  0  0  0  0
    1.0160   -1.7660   -0.3300 H   0  0  0  0  0  0  0  0  0  0  0  0
    1.0000   -3.1420   -1.4170 H   0  0  0  0  0  0  0  0  0  0  0  0
   -0.9780   -2.5740    0.8720 H   0  0  0  0  0  0  0  0  0  0  0  0
   -0.9810   -4.0570   -0.1510 H   0  0  0  0  0  0  0  0  0  0  0  0
   -2.3600   -2.0000   -0.9600 H   0  0  0  0  0  0  0  0  0  0  0  0
   -0.8490   -1.3520   -1.3400 H   0  0  0  0  0  0  0  0  0  0  0  0
    2.9020    2.1180    0.7330 C   0  0  0  0  0  0  0  0  0  0  0  0
    1.7560    1.3650    1.3540 C   0  0  2  0  0  0  0  0  0  0  0  0
    2.0640   -0.0250    1.4330 N   0  0  0  0  0  0  0  0  0  0  0  0
    0.4730    1.7330    0.7270 C   0  0  0  0  0  0  0  0  0  0  0  0
    0.2170    2.9480    0.4110 O   0  0  0  0  0  0  0  0  0  0  0  0
    2.7180    3.2120    0.7410 H   0  0  0  0  0  0  0  0  0  0  0  0
    3.1560    1.7270   -0.2680 H   0  0  0  0  0  0  0  0  0  0  0  0
    3.8040    1.9090    1.3750 H   0  0  0  0  0  0  0  0  0  0  0  0
    1.7150    1.7050    2.4520 H   0  0  0  0  0  0  0  0  0  0  0  0
    2.6160   -0.5200    0.6760 H   0  0  0  0  0  0  0  0  0  0  0  0
   -3.7040    2.4380    0.0520 O   0  0  0  0  0  0  0  0  0  0  0  0
   -2.5410    2.0940    0.7540 C   0  0  0  0  0  0  0  0  0  0  0  0
   -1.7440    1.1840   -0.1530 C   0  0  2  0  0  0  0  0  0  0  0  0
   -0.5040    0.7560    0.4680 N   0  0  0  0  0  0  0  0  0  0  0  0
   -1.5110    1.7890   -1.4820 C   0  0  0  0  0  0  0  0  0  0  0  0
   -0.3420    1.8650   -1.9180 O   0  0  0  0  0  0  0  0  0  0  0  0
   -2.5410    2.2730   -2.2580 O   0  0  0  0  0  0  0  0  0  0  0  0
   -4.4700    2.4470    0.6940 H   0  0  0  0  0  0  0  0  0  0  0  0
   -2.0370    3.0210    1.0170 H   0  0  0  0  0  0  0  0  0  0  0  0
   -2.8550    1.4730    1.6230 H   0  0  0  0  0  0  0  0  0  0  0  0
   -2.3630    0.2840   -0.3140 H   0  0  0  0  0  0  0  0  0  0  0  0
   -0.4010   -0.2520    0.7090 H   0  0  0  0  0  0  0  0  0  0  0  0
  1 11  1  0  0  0  0
  1 10  1  0  0  0  0
  2 12  1  6  0  0  0
  2  1  1  0  0  0  0
  3 14  1  0  0  0  0
  3 13  1  0  0  0  0
  3  2  1  0  0  0  0
  4  3  1  0  0  0  0
  5 17  1  0  0  0  0
  5  6  1  0  0  0  0
  5  4  1  0  0  0  0
  6 19  1  0  0  0  0
  7 21  1  0  0  0  0
  7  6  1  0  0  0  0
  8  2  1  0  0  0  0
  8  9  2  0  0  0  0
 15  4  1  0  0  0  0
 16  4  1  0  0  0  0
 18  5  1  0  0  0  0
 20  6  1  0  0  0  0
 22  7  1  0  0  0  0
 23 28  1  0  0  0  0
 23 24  1  0  0  0  0
 23 30  1  0  0  0  0
 24 25  1  0  0  0  0
 24 31  1  1  0  0  0
 25  8  1  0  0  0  0
 26 24  1  0  0  0  0
 27 26  2  0  0  0  0
 29 23  1  0  0  0  0
 32 25  1  0  0  0  0
 33 40  1  0  0  0  0
 33 34  1  0  0  0  0
 34 41  1  0  0  0  0
 34 42  1  0  0  0  0
 35 43  1  6  0  0  0
 35 36  1  0  0  0  0
 35 34  1  0  0  0  0
 36 44  1  0  0  0  0
 36 26  1  0  0  0  0
 37 35  1  0  0  0  0
 38 37  1  0  0  0  0
 39 37  2  0  0  0  0
M  END
$$$$
