KAT.pdb
 OpenBabel07022418483D

 47 46  0  0  1  0  0  0  0  0999 V2000
    2.4650   -3.7990    1.6860 N   0  0  0  0  0  0  0  0  0  0  0  0
    2.1040   -2.6000    0.9750 C   0  0  1  0  0  0  0  0  0  0  0  0
    1.2450   -2.9620   -0.2080 C   0  0  0  0  0  0  0  0  0  0  0  0
    1.9320   -3.8740   -1.1680 C   0  0  0  0  0  0  0  0  0  0  0  0
    3.1950   -3.3070   -1.7620 C   0  0  0  0  0  0  0  0  0  0  0  0
    3.8020   -4.3100   -2.7160 C   0  0  0  0  0  0  0  0  0  0  0  0
    5.0060   -3.8530   -3.3260 N   0  0  0  0  0  0  0  0  0  0  0  0
    1.3600   -1.6650    1.8900 C   0  0  0  0  0  0  0  0  0  0  0  0
    1.1130   -1.9270    3.0760 O   0  0  0  0  0  0  0  0  0  0  0  0
    3.2740   -4.2860    1.2410 H   0  0  0  0  0  0  0  0  0  0  0  0
    2.6170   -3.6230    2.7100 H   0  0  0  0  0  0  0  0  0  0  0  0
    3.0090   -2.1140    0.6200 H   0  0  0  0  0  0  0  0  0  0  0  0
    0.8560   -2.0330   -0.7030 H   0  0  0  0  0  0  0  0  0  0  0  0
    0.3430   -3.4890    0.1650 H   0  0  0  0  0  0  0  0  0  0  0  0
    1.2050   -4.1860   -1.9300 H   0  0  0  0  0  0  0  0  0  0  0  0
    2.2160   -4.7960   -0.5880 H   0  0  0  0  0  0  0  0  0  0  0  0
    3.8920   -2.9680   -0.9970 H   0  0  0  0  0  0  0  0  0  0  0  0
    2.9100   -2.4220   -2.3690 H   0  0  0  0  0  0  0  0  0  0  0  0
    3.0960   -4.6020   -3.5090 H   0  0  0  0  0  0  0  0  0  0  0  0
    4.0370   -5.2220   -2.1240 H   0  0  0  0  0  0  0  0  0  0  0  0
    5.6570   -3.3590   -2.6890 H   0  0  0  0  0  0  0  0  0  0  0  0
    4.8780   -3.3820   -4.2400 H   0  0  0  0  0  0  0  0  0  0  0  0
    0.9560    1.8670    2.2660 C   0  0  0  0  0  0  0  0  0  0  0  0
    0.1910    0.5490    2.1710 C   0  0  2  0  0  0  0  0  0  0  0  0
    0.9140   -0.4130    1.3670 N   0  0  0  0  0  0  0  0  0  0  0  0
   -1.0890    0.8510    1.5030 C   0  0  0  0  0  0  0  0  0  0  0  0
   -1.3590    0.2830    0.4210 O   0  0  0  0  0  0  0  0  0  0  0  0
    1.3730    2.0630    1.2600 H   0  0  0  0  0  0  0  0  0  0  0  0
    1.7030    1.8530    3.0620 H   0  0  0  0  0  0  0  0  0  0  0  0
    0.1950    2.6460    2.4910 H   0  0  0  0  0  0  0  0  0  0  0  0
    0.0410    0.1830    3.2100 H   0  0  0  0  0  0  0  0  0  0  0  0
    1.1250   -0.1990    0.3670 H   0  0  0  0  0  0  0  0  0  0  0  0
   -4.4780    2.3690    3.5110 C   0  0  0  0  0  0  0  0  0  0  0  0
   -4.4650    1.6240    2.2000 C   0  0  1  0  0  0  0  0  0  0  0  0
   -5.6110    1.9290    1.4600 O   0  0  0  0  0  0  0  0  0  0  0  0
   -3.2790    2.0420    1.3670 C   0  0  2  0  0  0  0  0  0  0  0  0
   -2.0380    1.7690    2.0440 N   0  0  0  0  0  0  0  0  0  0  0  0
   -3.4070    3.4690    0.9890 C   0  0  0  0  0  0  0  0  0  0  0  0
   -2.4860    4.2660    1.2710 O   0  0  0  0  0  0  0  0  0  0  0  0
   -4.5280    3.9340    0.3290 O   0  0  0  0  0  0  0  0  0  0  0  0
   -4.6130    1.6480    4.3570 H   0  0  0  0  0  0  0  0  0  0  0  0
   -3.5380    2.9320    3.6680 H   0  0  0  0  0  0  0  0  0  0  0  0
   -5.3700    3.0330    3.5370 H   0  0  0  0  0  0  0  0  0  0  0  0
   -4.3770    0.5410    2.4070 H   0  0  0  0  0  0  0  0  0  0  0  0
   -5.4790    1.8050    0.5030 H   0  0  0  0  0  0  0  0  0  0  0  0
   -3.3150    1.4360    0.4330 H   0  0  0  0  0  0  0  0  0  0  0  0
   -1.7690    2.2170    2.9470 H   0  0  0  0  0  0  0  0  0  0  0  0
  1 11  1  0  0  0  0
  2 12  1  6  0  0  0
  2  1  1  0  0  0  0
  2  8  1  0  0  0  0
  3 14  1  0  0  0  0
  3  2  1  0  0  0  0
  4 16  1  0  0  0  0
  4  3  1  0  0  0  0
  5  4  1  0  0  0  0
  5 17  1  0  0  0  0
  6 20  1  0  0  0  0
  6  5  1  0  0  0  0
  7  6  1  0  0  0  0
  7 21  1  0  0  0  0
  8  9  2  0  0  0  0
 10  1  1  0  0  0  0
 13  3  1  0  0  0  0
 15  4  1  0  0  0  0
 18  5  1  0  0  0  0
 19  6  1  0  0  0  0
 22  7  1  0  0  0  0
 23 30  1  0  0  0  0
 23 29  1  0  0  0  0
 24 23  1  0  0  0  0
 24 31  1  1  0  0  0
 25  8  1  0  0  0  0
 25 24  1  0  0  0  0
 26 37  1  0  0  0  0
 26 24  1  0  0  0  0
 27 26  2  0  0  0  0
 28 23  1  0  0  0  0
 32 25  1  0  0  0  0
 33 43  1  0  0  0  0
 33 42  1  0  0  0  0
 33 41  1  0  0  0  0
 34 44  1  1  0  0  0
 34 33  1  0  0  0  0
 35 34  1  0  0  0  0
 36 46  1  6  0  0  0
 36 37  1  0  0  0  0
 36 34  1  0  0  0  0
 37 47  1  0  0  0  0
 38 39  1  0  0  0  0
 38 36  1  0  0  0  0
 40 38  2  0  0  0  0
 45 35  1  0  0  0  0
M  END
$$$$
