KAV.pdb
 OpenBabel07022418483D

 49 48  0  0  1  0  0  0  0  0999 V2000
    0.4250   -1.5280   -1.5810 N   0  0  0  0  0  0  0  0  0  0  0  0
    0.4530   -2.7680   -0.8270 C   0  0  1  0  0  0  0  0  0  0  0  0
    1.5280   -3.6850   -1.2870 C   0  0  0  0  0  0  0  0  0  0  0  0
    2.9200   -3.2020   -1.2080 C   0  0  0  0  0  0  0  0  0  0  0  0
    3.2590   -1.9770   -1.9870 C   0  0  0  0  0  0  0  0  0  0  0  0
    4.7480   -1.6360   -1.8030 C   0  0  0  0  0  0  0  0  0  0  0  0
    5.0910   -1.3880   -0.4360 N   0  0  0  0  0  0  0  0  0  0  0  0
    0.4550   -2.5360    0.6380 C   0  0  0  0  0  0  0  0  0  0  0  0
    0.4700   -3.5320    1.3900 O   0  0  0  0  0  0  0  0  0  0  0  0
   -0.5220   -1.0950   -1.4250 H   0  0  0  0  0  0  0  0  0  0  0  0
    0.6000   -1.7070   -2.5720 H   0  0  0  0  0  0  0  0  0  0  0  0
   -0.5690   -3.2310   -1.0300 H   0  0  0  0  0  0  0  0  0  0  0  0
    1.4490   -4.6300   -0.6880 H   0  0  0  0  0  0  0  0  0  0  0  0
    1.3090   -3.9950   -2.3310 H   0  0  0  0  0  0  0  0  0  0  0  0
    3.5710   -4.0270   -1.6310 H   0  0  0  0  0  0  0  0  0  0  0  0
    3.2700   -3.1320   -0.1430 H   0  0  0  0  0  0  0  0  0  0  0  0
    2.7160   -1.1090   -1.5320 H   0  0  0  0  0  0  0  0  0  0  0  0
    3.0770   -2.0630   -3.0640 H   0  0  0  0  0  0  0  0  0  0  0  0
    5.3720   -2.4590   -2.2180 H   0  0  0  0  0  0  0  0  0  0  0  0
    4.9700   -0.7320   -2.3980 H   0  0  0  0  0  0  0  0  0  0  0  0
    5.6010   -0.4700   -0.3070 H   0  0  0  0  0  0  0  0  0  0  0  0
    5.5860   -2.1650    0.0350 H   0  0  0  0  0  0  0  0  0  0  0  0
    1.6270   -0.0680    2.8770 C   0  0  0  0  0  0  0  0  0  0  0  0
    0.4370   -0.9360    2.5730 C   0  0  2  0  0  0  0  0  0  0  0  0
    0.4410   -1.2270    1.1460 N   0  0  0  0  0  0  0  0  0  0  0  0
   -0.8350   -0.1970    2.8980 C   0  0  0  0  0  0  0  0  0  0  0  0
   -1.0880    0.1490    4.0810 O   0  0  0  0  0  0  0  0  0  0  0  0
    2.4490   -0.2000    2.1400 H   0  0  0  0  0  0  0  0  0  0  0  0
    2.0220   -0.3760    3.8670 H   0  0  0  0  0  0  0  0  0  0  0  0
    1.3710    1.0190    2.8610 H   0  0  0  0  0  0  0  0  0  0  0  0
    0.4600   -1.9120    3.1080 H   0  0  0  0  0  0  0  0  0  0  0  0
    0.4340   -0.4390    0.4470 H   0  0  0  0  0  0  0  0  0  0  0  0
   -1.8830    3.0490    1.9180 C   0  0  0  0  0  0  0  0  0  0  0  0
   -2.9990    2.1690    1.4000 C   0  0  0  0  0  0  0  0  0  0  0  0
   -4.2860    2.9200    1.6460 C   0  0  0  0  0  0  0  0  0  0  0  0
   -3.0090    0.8210    2.0820 C   0  0  2  0  0  0  0  0  0  0  0  0
   -1.7570    0.1130    1.8650 N   0  0  0  0  0  0  0  0  0  0  0  0
   -4.1610   -0.0070    1.6650 C   0  0  0  0  0  0  0  0  0  0  0  0
   -5.3200    0.4410    1.7850 O   0  0  0  0  0  0  0  0  0  0  0  0
   -3.9840   -1.2770    1.1420 O   0  0  0  0  0  0  0  0  0  0  0  0
   -1.9650    4.0790    1.4940 H   0  0  0  0  0  0  0  0  0  0  0  0
   -0.9230    2.6390    1.5320 H   0  0  0  0  0  0  0  0  0  0  0  0
   -1.9150    3.1720    3.0080 H   0  0  0  0  0  0  0  0  0  0  0  0
   -2.8990    2.0020    0.3140 H   0  0  0  0  0  0  0  0  0  0  0  0
   -4.0980    4.0020    1.8540 H   0  0  0  0  0  0  0  0  0  0  0  0
   -4.7380    2.5280    2.5760 H   0  0  0  0  0  0  0  0  0  0  0  0
   -5.0240    2.7880    0.8280 H   0  0  0  0  0  0  0  0  0  0  0  0
   -3.1020    1.0090    3.1680 H   0  0  0  0  0  0  0  0  0  0  0  0
   -1.5260   -0.1830    0.8930 H   0  0  0  0  0  0  0  0  0  0  0  0
  1 10  1  0  0  0  0
  1  2  1  0  0  0  0
  2 12  1  6  0  0  0
  2  8  1  0  0  0  0
  3  4  1  0  0  0  0
  3  2  1  0  0  0  0
  3 13  1  0  0  0  0
  4 16  1  0  0  0  0
  5  6  1  0  0  0  0
  5 17  1  0  0  0  0
  5  4  1  0  0  0  0
  6  7  1  0  0  0  0
  7 21  1  0  0  0  0
  7 22  1  0  0  0  0
  8 25  1  0  0  0  0
  8  9  2  0  0  0  0
 11  1  1  0  0  0  0
 14  3  1  0  0  0  0
 15  4  1  0  0  0  0
 18  5  1  0  0  0  0
 19  6  1  0  0  0  0
 20  6  1  0  0  0  0
 23 29  1  0  0  0  0
 24 23  1  0  0  0  0
 24 26  1  0  0  0  0
 24 31  1  1  0  0  0
 25 24  1  0  0  0  0
 26 27  2  0  0  0  0
 28 23  1  0  0  0  0
 30 23  1  0  0  0  0
 32 25  1  0  0  0  0
 33 43  1  0  0  0  0
 34 35  1  0  0  0  0
 34 33  1  0  0  0  0
 34 36  1  0  0  0  0
 35 45  1  0  0  0  0
 35 46  1  0  0  0  0
 36 48  1  1  0  0  0
 37 36  1  0  0  0  0
 37 26  1  0  0  0  0
 38 39  1  0  0  0  0
 38 36  1  0  0  0  0
 40 38  2  0  0  0  0
 41 33  1  0  0  0  0
 42 33  1  0  0  0  0
 44 34  1  0  0  0  0
 47 35  1  0  0  0  0
 49 37  1  0  0  0  0
M  END
$$$$
