KAW.pdb
 OpenBabel07022418483D

 57 58  0  0  1  0  0  0  0  0999 V2000
    2.0320   -0.6710   -0.3800 N   0  0  0  0  0  0  0  0  0  0  0  0
    2.4680    0.3840    0.5140 C   0  0  1  0  0  0  0  0  0  0  0  0
    3.2670    1.4010   -0.2480 C   0  0  0  0  0  0  0  0  0  0  0  0
    4.4890    0.8370   -0.8960 C   0  0  0  0  0  0  0  0  0  0  0  0
    5.4630    0.2260    0.0720 C   0  0  0  0  0  0  0  0  0  0  0  0
    6.6470   -0.3090   -0.6740 C   0  0  0  0  0  0  0  0  0  0  0  0
    6.2870   -1.3240   -1.6400 N   0  0  0  0  0  0  0  0  0  0  0  0
    1.2800    1.0930    1.1060 C   0  0  0  0  0  0  0  0  0  0  0  0
    1.4540    2.0490    1.9020 O   0  0  0  0  0  0  0  0  0  0  0  0
    2.7330   -1.4310   -0.4750 H   0  0  0  0  0  0  0  0  0  0  0  0
    1.7220   -0.3150   -1.3020 H   0  0  0  0  0  0  0  0  0  0  0  0
    3.1200   -0.0380    1.3060 H   0  0  0  0  0  0  0  0  0  0  0  0
    2.6260    1.8060   -1.0850 H   0  0  0  0  0  0  0  0  0  0  0  0
    3.5010    2.2890    0.3760 H   0  0  0  0  0  0  0  0  0  0  0  0
    5.0110    1.6980   -1.4000 H   0  0  0  0  0  0  0  0  0  0  0  0
    4.2200    0.1120   -1.6690 H   0  0  0  0  0  0  0  0  0  0  0  0
    4.9970   -0.5530    0.7080 H   0  0  0  0  0  0  0  0  0  0  0  0
    5.8130    1.0540    0.7340 H   0  0  0  0  0  0  0  0  0  0  0  0
    7.3550   -0.7770    0.0410 H   0  0  0  0  0  0  0  0  0  0  0  0
    7.1590    0.5060   -1.2000 H   0  0  0  0  0  0  0  0  0  0  0  0
    5.6830   -2.0660   -1.2770 H   0  0  0  0  0  0  0  0  0  0  0  0
    7.0610   -1.6120   -2.2430 H   0  0  0  0  0  0  0  0  0  0  0  0
   -2.0940    1.9360    0.2240 C   0  0  0  0  0  0  0  0  0  0  0  0
   -1.2250    1.3660    1.3330 C   0  0  2  0  0  0  0  0  0  0  0  0
   -0.0440    0.7200    0.7940 N   0  0  0  0  0  0  0  0  0  0  0  0
   -2.0020    0.3760    2.0960 C   0  0  0  0  0  0  0  0  0  0  0  0
   -3.0680    0.7260    2.6530 O   0  0  0  0  0  0  0  0  0  0  0  0
   -2.5650    2.8550    0.6270 H   0  0  0  0  0  0  0  0  0  0  0  0
   -2.9130    1.2370   -0.0150 H   0  0  0  0  0  0  0  0  0  0  0  0
   -1.4840    2.2130   -0.6630 H   0  0  0  0  0  0  0  0  0  0  0  0
   -0.8530    2.1980    1.9730 H   0  0  0  0  0  0  0  0  0  0  0  0
   -0.1910   -0.0620    0.1400 H   0  0  0  0  0  0  0  0  0  0  0  0
   -1.5690   -0.9670    2.2120 N   0  0  0  0  0  0  0  0  0  0  0  0
   -2.2840   -1.9730    2.9460 C   0  0  1  0  0  0  0  0  0  0  0  0
   -2.7870   -3.1220    2.1370 C   0  0  0  0  0  0  0  0  0  0  0  0
   -3.7270   -2.7880    1.0680 C   0  0  0  0  0  0  0  0  0  0  0  0
   -5.0970   -2.9030    1.1320 C   0  0  0  0  0  0  0  0  0  0  0  0
   -5.6140   -2.4820   -0.0270 N   0  0  0  0  0  0  0  0  0  0  0  0
   -4.6170   -2.0980   -0.8410 C   0  0  0  0  0  0  0  0  0  0  0  0
   -4.6810   -1.6010   -2.1330 C   0  0  0  0  0  0  0  0  0  0  0  0
   -3.5100   -1.2830   -2.7660 C   0  0  0  0  0  0  0  0  0  0  0  0
   -2.2980   -1.4580   -2.1230 C   0  0  0  0  0  0  0  0  0  0  0  0
   -2.2640   -1.9510   -0.8440 C   0  0  0  0  0  0  0  0  0  0  0  0
   -3.4260   -2.2830   -0.1720 C   0  0  0  0  0  0  0  0  0  0  0  0
   -1.3870   -2.5000    4.0070 C   0  0  0  0  0  0  0  0  0  0  0  0
   -0.2190   -2.0660    4.1440 O   0  0  0  0  0  0  0  0  0  0  0  0
   -1.8430   -3.5060    4.8830 O   0  0  0  0  0  0  0  0  0  0  0  0
   -0.6760   -1.2210    1.7410 H   0  0  0  0  0  0  0  0  0  0  0  0
   -3.1510   -1.4490    3.4360 H   0  0  0  0  0  0  0  0  0  0  0  0
   -1.9220   -3.6890    1.6840 H   0  0  0  0  0  0  0  0  0  0  0  0
   -3.2950   -3.8210    2.8590 H   0  0  0  0  0  0  0  0  0  0  0  0
   -5.6960   -3.2710    1.9700 H   0  0  0  0  0  0  0  0  0  0  0  0
   -6.6410   -2.4550   -0.2670 H   0  0  0  0  0  0  0  0  0  0  0  0
   -5.6110   -1.4540   -2.6610 H   0  0  0  0  0  0  0  0  0  0  0  0
   -3.5450   -0.8980   -3.7660 H   0  0  0  0  0  0  0  0  0  0  0  0
   -1.4060   -1.1830   -2.6890 H   0  0  0  0  0  0  0  0  0  0  0  0
   -1.3340   -2.0980   -0.3420 H   0  0  0  0  0  0  0  0  0  0  0  0
  1  2  1  0  0  0  0
  2  8  1  0  0  0  0
  2 12  1  1  0  0  0
  3 14  1  0  0  0  0
  3  2  1  0  0  0  0
  4  3  1  0  0  0  0
  4  5  1  0  0  0  0
  5 17  1  0  0  0  0
  5 18  1  0  0  0  0
  6 19  1  0  0  0  0
  6  5  1  0  0  0  0
  7 21  1  0  0  0  0
  7  6  1  0  0  0  0
  8  9  2  0  0  0  0
 10  1  1  0  0  0  0
 11  1  1  0  0  0  0
 13  3  1  0  0  0  0
 15  4  1  0  0  0  0
 16  4  1  0  0  0  0
 20  6  1  0  0  0  0
 22  7  1  0  0  0  0
 23 28  1  0  0  0  0
 23 24  1  0  0  0  0
 24 31  1  1  0  0  0
 24 26  1  0  0  0  0
 25  8  1  0  0  0  0
 25 24  1  0  0  0  0
 26 33  1  0  0  0  0
 26 27  2  0  0  0  0
 29 23  1  0  0  0  0
 30 23  1  0  0  0  0
 32 25  1  0  0  0  0
 33 34  1  0  0  0  0
 34 49  1  1  0  0  0
 34 45  1  0  0  0  0
 35 51  1  0  0  0  0
 35 34  1  0  0  0  0
 36 37  2  0  0  0  0
 36 35  1  0  0  0  0
 37 52  1  0  0  0  0
 38 37  1  0  0  0  0
 39 44  1  0  0  0  0
 39 38  1  0  0  0  0
 40 39  2  0  0  0  0
 41 40  1  0  0  0  0
 41 42  2  0  0  0  0
 42 43  1  0  0  0  0
 43 57  1  0  0  0  0
 43 44  2  0  0  0  0
 44 36  1  0  0  0  0
 45 46  2  0  0  0  0
 45 47  1  0  0  0  0
 48 33  1  0  0  0  0
 50 35  1  0  0  0  0
 53 38  1  0  0  0  0
 54 40  1  0  0  0  0
 55 41  1  0  0  0  0
 56 42  1  0  0  0  0
M  END
$$$$
