KAY.pdb
 OpenBabel07022418483D

 54 54  0  0  1  0  0  0  0  0999 V2000
   -0.0130    2.2540    4.3540 N   0  0  0  0  0  0  0  0  0  0  0  0
    0.6900    1.3610    3.3690 C   0  0  1  0  0  0  0  0  0  0  0  0
    0.2770   -0.0080    3.7890 C   0  0  0  0  0  0  0  0  0  0  0  0
    0.8340   -1.1500    3.0290 C   0  0  0  0  0  0  0  0  0  0  0  0
    2.3590   -1.1610    3.1360 C   0  0  0  0  0  0  0  0  0  0  0  0
    2.9800   -2.3070    2.3860 C   0  0  0  0  0  0  0  0  0  0  0  0
    2.7050   -2.3130    0.9820 N   0  0  0  0  0  0  0  0  0  0  0  0
    0.2080    1.7970    2.0420 C   0  0  0  0  0  0  0  0  0  0  0  0
   -0.7280    2.6670    1.9260 O   0  0  0  0  0  0  0  0  0  0  0  0
    0.4600    2.0490    5.2630 H   0  0  0  0  0  0  0  0  0  0  0  0
   -0.9970    1.9140    4.4570 H   0  0  0  0  0  0  0  0  0  0  0  0
    1.7460    1.5420    3.5540 H   0  0  0  0  0  0  0  0  0  0  0  0
    0.5870   -0.1410    4.8590 H   0  0  0  0  0  0  0  0  0  0  0  0
   -0.8410   -0.1320    3.8060 H   0  0  0  0  0  0  0  0  0  0  0  0
    0.5140   -2.0840    3.5930 H   0  0  0  0  0  0  0  0  0  0  0  0
    0.4650   -1.3020    2.0190 H   0  0  0  0  0  0  0  0  0  0  0  0
    2.7630   -0.2150    2.7340 H   0  0  0  0  0  0  0  0  0  0  0  0
    2.6640   -1.2630    4.2020 H   0  0  0  0  0  0  0  0  0  0  0  0
    2.6290   -3.2570    2.8580 H   0  0  0  0  0  0  0  0  0  0  0  0
    4.0680   -2.2400    2.5410 H   0  0  0  0  0  0  0  0  0  0  0  0
    3.0540   -3.1980    0.5570 H   0  0  0  0  0  0  0  0  0  0  0  0
    3.0190   -1.4500    0.5280 H   0  0  0  0  0  0  0  0  0  0  0  0
    1.2940    2.6730   -1.0880 C   0  0  0  0  0  0  0  0  0  0  0  0
    0.2610    1.7600   -0.4210 C   0  0  2  0  0  0  0  0  0  0  0  0
    0.7510    1.2910    0.8570 N   0  0  0  0  0  0  0  0  0  0  0  0
    0.0050    0.7040   -1.4200 C   0  0  0  0  0  0  0  0  0  0  0  0
   -0.4750    1.0160   -2.5660 O   0  0  0  0  0  0  0  0  0  0  0  0
    2.0330    1.9960   -1.5610 H   0  0  0  0  0  0  0  0  0  0  0  0
    0.7800    3.3380   -1.7930 H   0  0  0  0  0  0  0  0  0  0  0  0
    1.8270    3.2870   -0.3600 H   0  0  0  0  0  0  0  0  0  0  0  0
   -0.6110    2.4280   -0.2430 H   0  0  0  0  0  0  0  0  0  0  0  0
    1.5100    0.5750    0.8790 H   0  0  0  0  0  0  0  0  0  0  0  0
   -5.2070   -2.3920    1.3740 O   0  0  0  0  0  0  0  0  0  0  0  0
   -4.2580   -2.2610    0.3640 C   0  0  0  0  0  0  0  0  0  0  0  0
   -3.6270   -3.3280   -0.2150 C   0  0  0  0  0  0  0  0  0  0  0  0
   -2.7010   -3.1260   -1.2060 C   0  0  0  0  0  0  0  0  0  0  0  0
   -2.3580   -1.8630   -1.6700 C   0  0  0  0  0  0  0  0  0  0  0  0
   -1.3670   -1.7280   -2.7550 C   0  0  0  0  0  0  0  0  0  0  0  0
    0.0230   -1.7420   -2.1230 C   0  0  2  0  0  0  0  0  0  0  0  0
    0.2580   -0.6610   -1.1980 N   0  0  0  0  0  0  0  0  0  0  0  0
    1.0800   -1.9120   -3.1140 C   0  0  0  0  0  0  0  0  0  0  0  0
    2.0930   -1.1750   -3.1390 O   0  0  0  0  0  0  0  0  0  0  0  0
   -3.0010   -0.8120   -1.0790 C   0  0  0  0  0  0  0  0  0  0  0  0
   -3.9450   -0.9960   -0.0690 C   0  0  0  0  0  0  0  0  0  0  0  0
    0.9790   -2.9140   -4.0650 O   0  0  0  0  0  0  0  0  0  0  0  0
   -5.0810   -1.7880    2.1980 H   0  0  0  0  0  0  0  0  0  0  0  0
   -3.8580   -4.3240    0.1090 H   0  0  0  0  0  0  0  0  0  0  0  0
   -2.1930   -3.9760   -1.6730 H   0  0  0  0  0  0  0  0  0  0  0  0
   -1.4220   -2.6850   -3.3460 H   0  0  0  0  0  0  0  0  0  0  0  0
   -1.5350   -0.8500   -3.3780 H   0  0  0  0  0  0  0  0  0  0  0  0
   -0.0470   -2.6700   -1.4440 H   0  0  0  0  0  0  0  0  0  0  0  0
    0.6670   -0.8860   -0.2560 H   0  0  0  0  0  0  0  0  0  0  0  0
   -2.7820    0.1980   -1.4110 H   0  0  0  0  0  0  0  0  0  0  0  0
   -4.4320   -0.1490    0.3760 H   0  0  0  0  0  0  0  0  0  0  0  0
  1 11  1  0  0  0  0
  1 10  1  0  0  0  0
  2 12  1  1  0  0  0
  2  3  1  0  0  0  0
  2  1  1  0  0  0  0
  3 14  1  0  0  0  0
  3 13  1  0  0  0  0
  4  5  1  0  0  0  0
  4 15  1  0  0  0  0
  4  3  1  0  0  0  0
  5 18  1  0  0  0  0
  6 20  1  0  0  0  0
  6 19  1  0  0  0  0
  6  5  1  0  0  0  0
  7  6  1  0  0  0  0
  8  2  1  0  0  0  0
  9  8  2  0  0  0  0
 16  4  1  0  0  0  0
 17  5  1  0  0  0  0
 21  7  1  0  0  0  0
 22  7  1  0  0  0  0
 23 24  1  0  0  0  0
 23 30  1  0  0  0  0
 24 31  1  1  0  0  0
 24 25  1  0  0  0  0
 25 32  1  0  0  0  0
 25  8  1  0  0  0  0
 26 40  1  0  0  0  0
 26 24  1  0  0  0  0
 27 26  2  0  0  0  0
 28 23  1  0  0  0  0
 29 23  1  0  0  0  0
 33 46  1  0  0  0  0
 34 33  1  0  0  0  0
 35 47  1  0  0  0  0
 35 34  2  0  0  0  0
 36 35  1  0  0  0  0
 37 36  2  0  0  0  0
 37 43  1  0  0  0  0
 38 39  1  0  0  0  0
 38 37  1  0  0  0  0
 39 51  1  1  0  0  0
 39 40  1  0  0  0  0
 40 52  1  0  0  0  0
 41 39  1  0  0  0  0
 42 41  1  0  0  0  0
 43 44  2  0  0  0  0
 44 34  1  0  0  0  0
 44 54  1  0  0  0  0
 45 41  2  0  0  0  0
 48 36  1  0  0  0  0
 49 38  1  0  0  0  0
 50 38  1  0  0  0  0
 53 43  1  0  0  0  0
M  END
$$$$
