KCC.pdb
 OpenBabel07022418503D

 45 44  0  0  1  0  0  0  0  0999 V2000
    2.3550   -3.0420    1.2100 N   0  0  0  0  0  0  0  0  0  0  0  0
    1.6040   -1.9950    0.5540 C   0  0  1  0  0  0  0  0  0  0  0  0
    0.1170   -2.1790    0.8690 C   0  0  0  0  0  0  0  0  0  0  0  0
   -0.3900   -3.4960    0.3950 C   0  0  0  0  0  0  0  0  0  0  0  0
   -0.2460   -3.6870   -1.0970 C   0  0  0  0  0  0  0  0  0  0  0  0
   -0.7840   -5.0520   -1.5150 C   0  0  0  0  0  0  0  0  0  0  0  0
   -0.0420   -6.1180   -0.8330 N   0  0  0  0  0  0  0  0  0  0  0  0
    2.0980   -0.6960    1.0320 C   0  0  0  0  0  0  0  0  0  0  0  0
    3.0320   -0.6090    1.8810 O   0  0  0  0  0  0  0  0  0  0  0  0
    1.9450   -3.3130    2.1270 H   0  0  0  0  0  0  0  0  0  0  0  0
    3.3690   -2.8070    1.2680 H   0  0  0  0  0  0  0  0  0  0  0  0
    1.6840   -2.0490   -0.5510 H   0  0  0  0  0  0  0  0  0  0  0  0
   -0.4370   -1.3580    0.3820 H   0  0  0  0  0  0  0  0  0  0  0  0
   -0.0620   -2.1070    1.9540 H   0  0  0  0  0  0  0  0  0  0  0  0
   -1.4750   -3.5510    0.6170 H   0  0  0  0  0  0  0  0  0  0  0  0
    0.0820   -4.3470    0.8950 H   0  0  0  0  0  0  0  0  0  0  0  0
    0.7910   -3.6450   -1.4510 H   0  0  0  0  0  0  0  0  0  0  0  0
   -0.8270   -2.9350   -1.6700 H   0  0  0  0  0  0  0  0  0  0  0  0
   -1.8490   -5.1260   -1.2100 H   0  0  0  0  0  0  0  0  0  0  0  0
   -0.6480   -5.2220   -2.5860 H   0  0  0  0  0  0  0  0  0  0  0  0
    0.9410   -5.8200   -0.6400 H   0  0  0  0  0  0  0  0  0  0  0  0
   -0.0730   -7.0000   -1.3620 H   0  0  0  0  0  0  0  0  0  0  0  0
    1.5640    0.5550    0.5780 N   0  0  0  0  0  0  0  0  0  0  0  0
    2.0250    1.8310    1.0250 C   0  0  1  0  0  0  0  0  0  0  0  0
    2.5600    2.6950   -0.0950 C   0  0  0  0  0  0  0  0  0  0  0  0
    3.0930    4.2690    0.6760 S   0  0  0  0  0  0  0  0  0  0  0  0
    0.8900    2.5630    1.6470 C   0  0  0  0  0  0  0  0  0  0  0  0
    1.0430    3.7340    2.1290 O   0  0  0  0  0  0  0  0  0  0  0  0
    0.7930    0.5000   -0.1230 H   0  0  0  0  0  0  0  0  0  0  0  0
    2.8390    1.6830    1.7600 H   0  0  0  0  0  0  0  0  0  0  0  0
    1.7860    2.9530   -0.8320 H   0  0  0  0  0  0  0  0  0  0  0  0
    3.4550    2.2330   -0.5270 H   0  0  0  0  0  0  0  0  0  0  0  0
    3.6140    5.1440   -0.3090 H   0  0  0  0  0  0  0  0  0  0  0  0
   -0.4160    1.9950    1.7360 N   0  0  0  0  0  0  0  0  0  0  0  0
   -1.5450    2.6440    2.3200 C   0  0  1  0  0  0  0  0  0  0  0  0
   -2.6470    2.7370    1.2650 C   0  0  0  0  0  0  0  0  0  0  0  0
   -3.0820    1.0610    0.7380 S   0  0  0  0  0  0  0  0  0  0  0  0
   -2.0630    1.8530    3.4700 C   0  0  0  0  0  0  0  0  0  0  0  0
   -3.0480    2.2090    4.1510 O   0  0  0  0  0  0  0  0  0  0  0  0
   -1.4440    0.6490    3.8380 O   0  0  0  0  0  0  0  0  0  0  0  0
   -0.5270    1.0350    1.3380 H   0  0  0  0  0  0  0  0  0  0  0  0
   -1.2640    3.6440    2.6910 H   0  0  0  0  0  0  0  0  0  0  0  0
   -2.2700    3.2740    0.3700 H   0  0  0  0  0  0  0  0  0  0  0  0
   -3.5250    3.2880    1.6620 H   0  0  0  0  0  0  0  0  0  0  0  0
   -2.1510    0.6280   -0.2310 H   0  0  0  0  0  0  0  0  0  0  0  0
  1 11  1  0  0  0  0
  1 10  1  0  0  0  0
  2 12  1  6  0  0  0
  2  3  1  0  0  0  0
  2  8  1  0  0  0  0
  2  1  1  0  0  0  0
  3 14  1  0  0  0  0
  4 15  1  0  0  0  0
  4  3  1  0  0  0  0
  4 16  1  0  0  0  0
  5  4  1  0  0  0  0
  6 19  1  0  0  0  0
  6  5  1  0  0  0  0
  6  7  1  0  0  0  0
  7 21  1  0  0  0  0
  8  9  2  0  0  0  0
 13  3  1  0  0  0  0
 17  5  1  0  0  0  0
 18  5  1  0  0  0  0
 20  6  1  0  0  0  0
 22  7  1  0  0  0  0
 23 24  1  0  0  0  0
 23  8  1  0  0  0  0
 24 27  1  0  0  0  0
 24 30  1  1  0  0  0
 25 26  1  0  0  0  0
 25 24  1  0  0  0  0
 27 34  1  0  0  0  0
 27 28  2  0  0  0  0
 29 23  1  0  0  0  0
 31 25  1  0  0  0  0
 32 25  1  0  0  0  0
 33 26  1  0  0  0  0
 34 35  1  0  0  0  0
 35 42  1  1  0  0  0
 35 38  1  0  0  0  0
 36 44  1  0  0  0  0
 36 35  1  0  0  0  0
 37 36  1  0  0  0  0
 38 40  2  0  0  0  0
 38 39  1  0  0  0  0
 41 34  1  0  0  0  0
 43 36  1  0  0  0  0
 45 37  1  0  0  0  0
M  END
$$$$
