KCD.pdb
 OpenBabel07022418503D

 47 46  0  0  1  0  0  0  0  0999 V2000
    2.7170   -3.4720    3.1620 N   0  0  0  0  0  0  0  0  0  0  0  0
    2.3700   -2.4160    2.1160 C   0  0  1  0  0  0  0  0  0  0  0  0
    1.8800   -3.2120    0.9850 C   0  0  0  0  0  0  0  0  0  0  0  0
    1.4620   -2.6370   -0.2890 C   0  0  0  0  0  0  0  0  0  0  0  0
    2.4020   -1.9400   -1.1710 C   0  0  0  0  0  0  0  0  0  0  0  0
    3.1010   -0.7160   -0.7490 C   0  0  0  0  0  0  0  0  0  0  0  0
    3.9980   -0.2260   -1.8370 N   0  0  0  0  0  0  0  0  0  0  0  0
    1.4220   -1.4950    2.7640 C   0  0  0  0  0  0  0  0  0  0  0  0
    1.1130   -1.7050    3.9760 O   0  0  0  0  0  0  0  0  0  0  0  0
    1.8140   -3.7120    3.6240 H   0  0  0  0  0  0  0  0  0  0  0  0
    3.0640   -4.3070    2.6690 H   0  0  0  0  0  0  0  0  0  0  0  0
    3.3410   -1.9100    2.0180 H   0  0  0  0  0  0  0  0  0  0  0  0
    2.6980   -3.9910    0.7650 H   0  0  0  0  0  0  0  0  0  0  0  0
    1.0660   -3.9160    1.3990 H   0  0  0  0  0  0  0  0  0  0  0  0
    0.5310   -2.0120   -0.2290 H   0  0  0  0  0  0  0  0  0  0  0  0
    1.0700   -3.5270   -0.9170 H   0  0  0  0  0  0  0  0  0  0  0  0
    1.7920   -1.6430   -2.0980 H   0  0  0  0  0  0  0  0  0  0  0  0
    3.1570   -2.6520   -1.6270 H   0  0  0  0  0  0  0  0  0  0  0  0
    3.7390   -0.7470    0.1270 H   0  0  0  0  0  0  0  0  0  0  0  0
    2.4100    0.1710   -0.6260 H   0  0  0  0  0  0  0  0  0  0  0  0
    3.6870   -0.6640   -2.7380 H   0  0  0  0  0  0  0  0  0  0  0  0
    4.9630   -0.5340   -1.6770 H   0  0  0  0  0  0  0  0  0  0  0  0
    0.8120   -0.3750    2.1590 N   0  0  0  0  0  0  0  0  0  0  0  0
   -0.0970    0.4620    2.9130 C   0  0  1  0  0  0  0  0  0  0  0  0
    0.5870    1.7960    3.1940 C   0  0  0  0  0  0  0  0  0  0  0  0
   -0.5150    2.8690    4.1340 S   0  0  0  0  0  0  0  0  0  0  0  0
   -1.3920    0.6600    2.2440 C   0  0  0  0  0  0  0  0  0  0  0  0
   -2.2880    1.3620    2.8350 O   0  0  0  0  0  0  0  0  0  0  0  0
    1.0030   -0.1390    1.1620 H   0  0  0  0  0  0  0  0  0  0  0  0
   -0.2450    0.0000    3.9050 H   0  0  0  0  0  0  0  0  0  0  0  0
    0.8090    2.3220    2.2290 H   0  0  0  0  0  0  0  0  0  0  0  0
    1.5360    1.5890    3.6830 H   0  0  0  0  0  0  0  0  0  0  0  0
   -0.1130    4.2100    3.8750 H   0  0  0  0  0  0  0  0  0  0  0  0
   -1.7500    0.1360    0.9790 N   0  0  0  0  0  0  0  0  0  0  0  0
   -3.0900    0.4260    0.4460 C   0  0  1  0  0  0  0  0  0  0  0  0
   -2.9540    1.1950   -0.8420 C   0  0  0  0  0  0  0  0  0  0  0  0
   -4.2460    1.5640   -1.4260 C   0  0  0  0  0  0  0  0  0  0  0  0
   -5.3260    1.3480   -0.8400 O   0  0  0  0  0  0  0  0  0  0  0  0
   -3.7010   -0.9030    0.1890 C   0  0  0  0  0  0  0  0  0  0  0  0
   -3.0010   -1.9330    0.4350 O   0  0  0  0  0  0  0  0  0  0  0  0
   -4.3550    2.1840   -2.6780 O   0  0  0  0  0  0  0  0  0  0  0  0
   -4.9840   -1.0860   -0.3010 O   0  0  0  0  0  0  0  0  0  0  0  0
   -1.0690   -0.4370    0.4480 H   0  0  0  0  0  0  0  0  0  0  0  0
   -3.6750    1.0330    1.1550 H   0  0  0  0  0  0  0  0  0  0  0  0
   -2.4200    2.1700   -0.6300 H   0  0  0  0  0  0  0  0  0  0  0  0
   -2.3680    0.6140   -1.5980 H   0  0  0  0  0  0  0  0  0  0  0  0
   -5.0680    2.8800   -2.8830 H   0  0  0  0  0  0  0  0  0  0  0  0
  1 10  1  0  0  0  0
  2 12  1  6  0  0  0
  2  8  1  0  0  0  0
  2  1  1  0  0  0  0
  3 14  1  0  0  0  0
  3  2  1  0  0  0  0
  4 15  1  0  0  0  0
  4  3  1  0  0  0  0
  5  6  1  0  0  0  0
  5  4  1  0  0  0  0
  6 20  1  0  0  0  0
  6 19  1  0  0  0  0
  7 22  1  0  0  0  0
  7  6  1  0  0  0  0
  8  9  2  0  0  0  0
 11  1  1  0  0  0  0
 13  3  1  0  0  0  0
 16  4  1  0  0  0  0
 17  5  1  0  0  0  0
 18  5  1  0  0  0  0
 21  7  1  0  0  0  0
 23  8  1  0  0  0  0
 23 24  1  0  0  0  0
 24 25  1  0  0  0  0
 24 30  1  1  0  0  0
 25 32  1  0  0  0  0
 25 26  1  0  0  0  0
 27 28  2  0  0  0  0
 27 24  1  0  0  0  0
 29 23  1  0  0  0  0
 31 25  1  0  0  0  0
 33 26  1  0  0  0  0
 34 27  1  0  0  0  0
 35 34  1  0  0  0  0
 35 44  1  1  0  0  0
 36 45  1  0  0  0  0
 36 35  1  0  0  0  0
 37 36  1  0  0  0  0
 37 38  2  0  0  0  0
 39 40  1  0  0  0  0
 39 35  1  0  0  0  0
 41 37  1  0  0  0  0
 42 39  2  0  0  0  0
 43 34  1  0  0  0  0
 46 36  1  0  0  0  0
 47 41  1  0  0  0  0
M  END
$$$$
