KCF.pdb
 OpenBabel07022418503D

 54 54  0  0  1  0  0  0  0  0999 V2000
    3.4260    0.7560    4.5240 N   0  0  0  0  0  0  0  0  0  0  0  0
    2.8290    0.6240    3.1720 C   0  0  1  0  0  0  0  0  0  0  0  0
    3.0980   -0.8180    2.8060 C   0  0  0  0  0  0  0  0  0  0  0  0
    2.5970   -1.2370    1.4720 C   0  0  0  0  0  0  0  0  0  0  0  0
    2.9090   -2.6910    1.1920 C   0  0  0  0  0  0  0  0  0  0  0  0
    4.3940   -2.9060    1.2210 C   0  0  0  0  0  0  0  0  0  0  0  0
    4.7110   -4.3010    0.9370 N   0  0  0  0  0  0  0  0  0  0  0  0
    1.4200    0.9790    3.3130 C   0  0  0  0  0  0  0  0  0  0  0  0
    0.8750    1.1130    4.4660 O   0  0  0  0  0  0  0  0  0  0  0  0
    3.0150    1.6220    4.9690 H   0  0  0  0  0  0  0  0  0  0  0  0
    2.9910   -0.0430    5.0670 H   0  0  0  0  0  0  0  0  0  0  0  0
    3.3620    1.3240    2.5290 H   0  0  0  0  0  0  0  0  0  0  0  0
    2.7840   -1.4790    3.6160 H   0  0  0  0  0  0  0  0  0  0  0  0
    4.2270   -0.8850    2.7630 H   0  0  0  0  0  0  0  0  0  0  0  0
    1.4700   -1.1780    1.4080 H   0  0  0  0  0  0  0  0  0  0  0  0
    2.9520   -0.6010    0.6400 H   0  0  0  0  0  0  0  0  0  0  0  0
    2.3780   -3.3530    1.9120 H   0  0  0  0  0  0  0  0  0  0  0  0
    2.5450   -2.9990    0.1830 H   0  0  0  0  0  0  0  0  0  0  0  0
    4.9260   -2.2700    0.5060 H   0  0  0  0  0  0  0  0  0  0  0  0
    4.7600   -2.7380    2.2570 H   0  0  0  0  0  0  0  0  0  0  0  0
    3.9660   -4.7730    0.3900 H   0  0  0  0  0  0  0  0  0  0  0  0
    5.6500   -4.3930    0.4730 H   0  0  0  0  0  0  0  0  0  0  0  0
    0.5110    1.2160    2.2160 N   0  0  0  0  0  0  0  0  0  0  0  0
   -0.8750    1.5690    2.4820 C   0  0  1  0  0  0  0  0  0  0  0  0
   -0.9950    3.0560    2.0680 C   0  0  0  0  0  0  0  0  0  0  0  0
   -2.6850    3.6250    2.3510 S   0  0  0  0  0  0  0  0  0  0  0  0
   -1.8080    0.8570    1.5980 C   0  0  0  0  0  0  0  0  0  0  0  0
   -3.0530    1.0510    1.7820 O   0  0  0  0  0  0  0  0  0  0  0  0
    0.8850    1.1270    1.2500 H   0  0  0  0  0  0  0  0  0  0  0  0
   -1.1160    1.4920    3.5580 H   0  0  0  0  0  0  0  0  0  0  0  0
   -0.8260    3.0460    0.9690 H   0  0  0  0  0  0  0  0  0  0  0  0
   -0.2430    3.6630    2.5730 H   0  0  0  0  0  0  0  0  0  0  0  0
   -3.1560    4.4250    1.3130 H   0  0  0  0  0  0  0  0  0  0  0  0
   -1.4060   -0.0070    0.5850 N   0  0  0  0  0  0  0  0  0  0  0  0
   -2.3500   -0.7160   -0.2920 C   0  0  1  0  0  0  0  0  0  0  0  0
   -1.9930   -0.2700   -1.6900 C   0  0  0  0  0  0  0  0  0  0  0  0
   -2.8570   -0.9070   -2.6910 C   0  0  0  0  0  0  0  0  0  0  0  0
   -4.0810   -0.3040   -3.0000 C   0  0  0  0  0  0  0  0  0  0  0  0
   -4.9140   -0.8690   -3.9470 C   0  0  0  0  0  0  0  0  0  0  0  0
   -4.5930   -2.0280   -4.6210 C   0  0  0  0  0  0  0  0  0  0  0  0
   -3.3890   -2.6230   -4.3180 C   0  0  0  0  0  0  0  0  0  0  0  0
   -2.5320   -2.0660   -3.3630 C   0  0  0  0  0  0  0  0  0  0  0  0
   -2.0640   -2.1570   -0.1570 C   0  0  0  0  0  0  0  0  0  0  0  0
   -2.7530   -3.0120   -0.7640 O   0  0  0  0  0  0  0  0  0  0  0  0
   -1.0170   -2.6390    0.6490 O   0  0  0  0  0  0  0  0  0  0  0  0
   -0.4080   -0.1930    0.3900 H   0  0  0  0  0  0  0  0  0  0  0  0
   -3.3890   -0.4600   -0.0230 H   0  0  0  0  0  0  0  0  0  0  0  0
   -2.0660    0.8560   -1.7640 H   0  0  0  0  0  0  0  0  0  0  0  0
   -0.9190   -0.4810   -1.9070 H   0  0  0  0  0  0  0  0  0  0  0  0
   -4.3260    0.6010   -2.4710 H   0  0  0  0  0  0  0  0  0  0  0  0
   -5.8620   -0.4060   -4.1900 H   0  0  0  0  0  0  0  0  0  0  0  0
   -5.2320   -2.4870   -5.3660 H   0  0  0  0  0  0  0  0  0  0  0  0
   -3.1140   -3.5320   -4.8320 H   0  0  0  0  0  0  0  0  0  0  0  0
   -1.5970   -2.5570   -3.1620 H   0  0  0  0  0  0  0  0  0  0  0  0
  1 10  1  0  0  0  0
  1 11  1  0  0  0  0
  2 12  1  6  0  0  0
  2  8  1  0  0  0  0
  2  1  1  0  0  0  0
  3  2  1  0  0  0  0
  3 13  1  0  0  0  0
  4  3  1  0  0  0  0
  5  6  1  0  0  0  0
  5  4  1  0  0  0  0
  5 17  1  0  0  0  0
  6 20  1  0  0  0  0
  7  6  1  0  0  0  0
  8  9  2  0  0  0  0
 14  3  1  0  0  0  0
 15  4  1  0  0  0  0
 16  4  1  0  0  0  0
 18  5  1  0  0  0  0
 19  6  1  0  0  0  0
 21  7  1  0  0  0  0
 22  7  1  0  0  0  0
 23 24  1  0  0  0  0
 23  8  1  0  0  0  0
 24 30  1  1  0  0  0
 25 26  1  0  0  0  0
 25 24  1  0  0  0  0
 25 32  1  0  0  0  0
 27 28  2  0  0  0  0
 27 24  1  0  0  0  0
 29 23  1  0  0  0  0
 31 25  1  0  0  0  0
 33 26  1  0  0  0  0
 34 27  1  0  0  0  0
 35 43  1  0  0  0  0
 35 47  1  1  0  0  0
 35 34  1  0  0  0  0
 36 35  1  0  0  0  0
 37 36  1  0  0  0  0
 38 37  1  0  0  0  0
 38 50  1  0  0  0  0
 39 38  2  0  0  0  0
 40 41  2  0  0  0  0
 40 39  1  0  0  0  0
 41 42  1  0  0  0  0
 42 54  1  0  0  0  0
 42 37  2  0  0  0  0
 43 45  1  0  0  0  0
 44 43  2  0  0  0  0
 46 34  1  0  0  0  0
 48 36  1  0  0  0  0
 49 36  1  0  0  0  0
 51 39  1  0  0  0  0
 52 40  1  0  0  0  0
 53 41  1  0  0  0  0
M  END
$$$$
