KCG.pdb
 OpenBabel07022418503D

 41 40  0  0  1  0  0  0  0  0999 V2000
    2.3680   -2.3490    3.4160 N   0  0  0  0  0  0  0  0  0  0  0  0
    1.7590   -1.8440    2.2010 C   0  0  1  0  0  0  0  0  0  0  0  0
    0.3640   -2.4110    2.1030 C   0  0  0  0  0  0  0  0  0  0  0  0
    0.3880   -3.9110    2.0580 C   0  0  0  0  0  0  0  0  0  0  0  0
    1.1630   -4.4410    0.8760 C   0  0  0  0  0  0  0  0  0  0  0  0
    0.5470   -3.9580   -0.4270 C   0  0  0  0  0  0  0  0  0  0  0  0
    1.3370   -4.5010   -1.5260 N   0  0  0  0  0  0  0  0  0  0  0  0
    1.7550   -0.3580    2.2060 C   0  0  0  0  0  0  0  0  0  0  0  0
    2.2450    0.2940    3.1930 O   0  0  0  0  0  0  0  0  0  0  0  0
    2.9870   -1.5660    3.7830 H   0  0  0  0  0  0  0  0  0  0  0  0
    1.5950   -2.5130    4.0990 H   0  0  0  0  0  0  0  0  0  0  0  0
    2.3250   -2.1940    1.3150 H   0  0  0  0  0  0  0  0  0  0  0  0
   -0.1570   -2.1240    3.0500 H   0  0  0  0  0  0  0  0  0  0  0  0
   -0.2180   -2.0400    1.2620 H   0  0  0  0  0  0  0  0  0  0  0  0
   -0.6510   -4.2900    1.9710 H   0  0  0  0  0  0  0  0  0  0  0  0
    0.8000   -4.3140    2.9860 H   0  0  0  0  0  0  0  0  0  0  0  0
    1.0910   -5.5490    0.8590 H   0  0  0  0  0  0  0  0  0  0  0  0
    2.2220   -4.1870    0.9010 H   0  0  0  0  0  0  0  0  0  0  0  0
   -0.4850   -4.3500   -0.5390 H   0  0  0  0  0  0  0  0  0  0  0  0
    0.5390   -2.8460   -0.4500 H   0  0  0  0  0  0  0  0  0  0  0  0
    0.7680   -4.5920   -2.3960 H   0  0  0  0  0  0  0  0  0  0  0  0
    2.1780   -3.9050   -1.7100 H   0  0  0  0  0  0  0  0  0  0  0  0
    1.1960    0.3260    1.0930 N   0  0  0  0  0  0  0  0  0  0  0  0
    1.1570    1.7630    1.0280 C   0  0  1  0  0  0  0  0  0  0  0  0
    1.9770    2.1830   -0.1800 C   0  0  0  0  0  0  0  0  0  0  0  0
    2.0330    3.9540   -0.4090 S   0  0  0  0  0  0  0  0  0  0  0  0
   -0.2090    2.2930    0.8390 C   0  0  0  0  0  0  0  0  0  0  0  0
   -0.3430    3.5380    0.7700 O   0  0  0  0  0  0  0  0  0  0  0  0
    0.8120   -0.2520    0.3180 H   0  0  0  0  0  0  0  0  0  0  0  0
    1.6000    2.2450    1.9190 H   0  0  0  0  0  0  0  0  0  0  0  0
    3.0070    1.8050   -0.0420 H   0  0  0  0  0  0  0  0  0  0  0  0
    1.5580    1.6320   -1.0510 H   0  0  0  0  0  0  0  0  0  0  0  0
    1.4450    4.3140   -1.6580 H   0  0  0  0  0  0  0  0  0  0  0  0
   -1.3680    1.4920    0.7300 N   0  0  0  0  0  0  0  0  0  0  0  0
   -2.6880    2.0840    0.5430 C   0  0  0  0  0  0  0  0  0  0  0  0
   -2.6890    2.8610   -0.7030 C   0  0  0  0  0  0  0  0  0  0  0  0
   -3.7190    3.4570   -1.0650 O   0  0  0  0  0  0  0  0  0  0  0  0
   -1.5600    2.9500   -1.4980 O   0  0  0  0  0  0  0  0  0  0  0  0
   -1.2320    0.4560    0.7900 H   0  0  0  0  0  0  0  0  0  0  0  0
   -3.4140    1.2530    0.4530 H   0  0  0  0  0  0  0  0  0  0  0  0
   -2.9250    2.7310    1.4290 H   0  0  0  0  0  0  0  0  0  0  0  0
  1 10  1  0  0  0  0
  1 11  1  0  0  0  0
  2 12  1  6  0  0  0
  2  8  1  0  0  0  0
  2  1  1  0  0  0  0
  3  2  1  0  0  0  0
  3 13  1  0  0  0  0
  4  3  1  0  0  0  0
  4 16  1  0  0  0  0
  5 18  1  0  0  0  0
  5  4  1  0  0  0  0
  6  5  1  0  0  0  0
  7  6  1  0  0  0  0
  8  9  2  0  0  0  0
 14  3  1  0  0  0  0
 15  4  1  0  0  0  0
 17  5  1  0  0  0  0
 19  6  1  0  0  0  0
 20  6  1  0  0  0  0
 21  7  1  0  0  0  0
 22  7  1  0  0  0  0
 23  8  1  0  0  0  0
 24 23  1  0  0  0  0
 24 30  1  1  0  0  0
 25 31  1  0  0  0  0
 25 24  1  0  0  0  0
 26 25  1  0  0  0  0
 27 24  1  0  0  0  0
 28 27  2  0  0  0  0
 29 23  1  0  0  0  0
 32 25  1  0  0  0  0
 33 26  1  0  0  0  0
 34 39  1  0  0  0  0
 34 27  1  0  0  0  0
 35 34  1  0  0  0  0
 35 41  1  0  0  0  0
 36 35  1  0  0  0  0
 37 36  1  0  0  0  0
 38 36  2  0  0  0  0
 40 35  1  0  0  0  0
M  END
$$$$
