KCH.pdb
 OpenBabel07022418503D

 51 51  0  0  1  0  0  0  0  0999 V2000
    1.9430    0.0510    5.0140 N   0  0  0  0  0  0  0  0  0  0  0  0
    1.7980   -0.3150    3.5400 C   0  0  1  0  0  0  0  0  0  0  0  0
    1.5710   -1.7600    3.5980 C   0  0  0  0  0  0  0  0  0  0  0  0
    1.3590   -2.6550    2.4940 C   0  0  0  0  0  0  0  0  0  0  0  0
    2.2990   -2.9740    1.4300 C   0  0  0  0  0  0  0  0  0  0  0  0
    2.7740   -1.9590    0.4650 C   0  0  0  0  0  0  0  0  0  0  0  0
    3.4960   -0.8440    0.9300 N   0  0  0  0  0  0  0  0  0  0  0  0
    0.5920    0.4970    3.1530 C   0  0  0  0  0  0  0  0  0  0  0  0
   -0.0710    1.1840    4.0020 O   0  0  0  0  0  0  0  0  0  0  0  0
    2.6440   -0.6410    5.4150 H   0  0  0  0  0  0  0  0  0  0  0  0
    1.0200   -0.2410    5.4040 H   0  0  0  0  0  0  0  0  0  0  0  0
    2.7300    0.0800    3.1540 H   0  0  0  0  0  0  0  0  0  0  0  0
    2.4480   -2.1900    4.2240 H   0  0  0  0  0  0  0  0  0  0  0  0
    0.7210   -1.8980    4.3790 H   0  0  0  0  0  0  0  0  0  0  0  0
    1.1070   -3.6880    2.9820 H   0  0  0  0  0  0  0  0  0  0  0  0
    0.3450   -2.4870    1.9720 H   0  0  0  0  0  0  0  0  0  0  0  0
    3.2120   -3.5410    1.8710 H   0  0  0  0  0  0  0  0  0  0  0  0
    1.8920   -3.8300    0.7590 H   0  0  0  0  0  0  0  0  0  0  0  0
    1.8910   -1.5920   -0.1230 H   0  0  0  0  0  0  0  0  0  0  0  0
    3.3840   -2.5180   -0.3180 H   0  0  0  0  0  0  0  0  0  0  0  0
    3.3680    0.0220    0.3980 H   0  0  0  0  0  0  0  0  0  0  0  0
    4.4200   -1.0160    1.3340 H   0  0  0  0  0  0  0  0  0  0  0  0
    0.1530    0.5220    1.8060 N   0  0  0  0  0  0  0  0  0  0  0  0
   -1.0260    1.3300    1.4840 C   0  0  1  0  0  0  0  0  0  0  0  0
   -0.4850    2.4810    0.6230 C   0  0  0  0  0  0  0  0  0  0  0  0
    0.7290    3.3890    1.6130 S   0  0  0  0  0  0  0  0  0  0  0  0
   -1.9850    0.6020    0.6330 C   0  0  0  0  0  0  0  0  0  0  0  0
   -3.0540    1.2020    0.3000 O   0  0  0  0  0  0  0  0  0  0  0  0
    0.6630   -0.0200    1.0860 H   0  0  0  0  0  0  0  0  0  0  0  0
   -1.4430    1.8000    2.3740 H   0  0  0  0  0  0  0  0  0  0  0  0
    0.0280    2.0230   -0.2450 H   0  0  0  0  0  0  0  0  0  0  0  0
   -1.3160    3.1190    0.2760 H   0  0  0  0  0  0  0  0  0  0  0  0
    2.0390    3.1330    1.1490 H   0  0  0  0  0  0  0  0  0  0  0  0
   -1.8180   -0.7100    0.1540 N   0  0  0  0  0  0  0  0  0  0  0  0
   -2.8130   -1.3460   -0.6770 C   0  0  1  0  0  0  0  0  0  0  0  0
   -2.2450   -1.8120   -1.9850 C   0  0  0  0  0  0  0  0  0  0  0  0
   -1.6810   -0.7070   -2.7830 C   0  0  0  0  0  0  0  0  0  0  0  0
   -1.0910   -0.8060   -4.0170 C   0  0  0  0  0  0  0  0  0  0  0  0
   -0.7060    0.4140   -4.4110 N   0  0  0  0  0  0  0  0  0  0  0  0
   -1.0520    1.2630   -3.4350 C   0  0  0  0  0  0  0  0  0  0  0  0
   -1.6470    0.5850   -2.4390 N   0  0  0  0  0  0  0  0  0  0  0  0
   -3.4420   -2.4900    0.0630 C   0  0  0  0  0  0  0  0  0  0  0  0
   -3.0920   -2.7810    1.2330 O   0  0  0  0  0  0  0  0  0  0  0  0
   -4.4300   -3.2590   -0.5320 O   0  0  0  0  0  0  0  0  0  0  0  0
   -0.9510   -1.2280    0.4090 H   0  0  0  0  0  0  0  0  0  0  0  0
   -3.6420   -0.6280   -0.8670 H   0  0  0  0  0  0  0  0  0  0  0  0
   -1.4410   -2.5520   -1.8060 H   0  0  0  0  0  0  0  0  0  0  0  0
   -3.0070   -2.3230   -2.6040 H   0  0  0  0  0  0  0  0  0  0  0  0
   -0.9570   -1.7050   -4.5760 H   0  0  0  0  0  0  0  0  0  0  0  0
   -0.2200    0.6810   -5.3180 H   0  0  0  0  0  0  0  0  0  0  0  0
   -0.8480    2.3390   -3.5080 H   0  0  0  0  0  0  0  0  0  0  0  0
  1 11  1  0  0  0  0
  1 10  1  0  0  0  0
  2 12  1  6  0  0  0
  2  3  1  0  0  0  0
  2  1  1  0  0  0  0
  3 13  1  0  0  0  0
  3 14  1  0  0  0  0
  4 15  1  0  0  0  0
  4  3  1  0  0  0  0
  5 17  1  0  0  0  0
  5  4  1  0  0  0  0
  6  7  1  0  0  0  0
  6  5  1  0  0  0  0
  7 22  1  0  0  0  0
  8  2  1  0  0  0  0
  8  9  2  0  0  0  0
 16  4  1  0  0  0  0
 18  5  1  0  0  0  0
 19  6  1  0  0  0  0
 20  6  1  0  0  0  0
 21  7  1  0  0  0  0
 23  8  1  0  0  0  0
 24 23  1  0  0  0  0
 24 30  1  1  0  0  0
 25 24  1  0  0  0  0
 25 26  1  0  0  0  0
 27 24  1  0  0  0  0
 28 27  2  0  0  0  0
 29 23  1  0  0  0  0
 31 25  1  0  0  0  0
 32 25  1  0  0  0  0
 33 26  1  0  0  0  0
 34 45  1  0  0  0  0
 34 27  1  0  0  0  0
 35 46  1  6  0  0  0
 35 42  1  0  0  0  0
 35 34  1  0  0  0  0
 36 47  1  0  0  0  0
 36 35  1  0  0  0  0
 37 41  1  0  0  0  0
 37 36  1  0  0  0  0
 38 37  2  0  0  0  0
 39 38  1  0  0  0  0
 39 40  1  0  0  0  0
 40 41  2  0  0  0  0
 42 43  1  0  0  0  0
 44 42  2  0  0  0  0
 48 36  1  0  0  0  0
 49 38  1  0  0  0  0
 50 39  1  0  0  0  0
 51 40  1  0  0  0  0
M  END
$$$$
