KCI.pdb
 OpenBabel07022418503D

 53 52  0  0  1  0  0  0  0  0999 V2000
    1.2300   -0.0930    4.4890 N   0  0  0  0  0  0  0  0  0  0  0  0
    1.4850   -0.2710    3.0210 C   0  0  1  0  0  0  0  0  0  0  0  0
    1.1250   -1.6670    2.7440 C   0  0  0  0  0  0  0  0  0  0  0  0
    1.2800   -2.2160    1.3860 C   0  0  0  0  0  0  0  0  0  0  0  0
    2.6970   -2.1570    0.8580 C   0  0  0  0  0  0  0  0  0  0  0  0
    3.6560   -2.9350    1.7280 C   0  0  0  0  0  0  0  0  0  0  0  0
    3.3260   -4.3280    1.8310 N   0  0  0  0  0  0  0  0  0  0  0  0
    0.8330    0.8100    2.2970 C   0  0  0  0  0  0  0  0  0  0  0  0
    0.2210    1.7250    2.9790 O   0  0  0  0  0  0  0  0  0  0  0  0
    1.1030    0.9250    4.6900 H   0  0  0  0  0  0  0  0  0  0  0  0
    2.0110   -0.4850    5.0330 H   0  0  0  0  0  0  0  0  0  0  0  0
    2.5940   -0.1260    2.9630 H   0  0  0  0  0  0  0  0  0  0  0  0
    1.7560   -2.3090    3.4420 H   0  0  0  0  0  0  0  0  0  0  0  0
    0.0790   -1.9170    3.0820 H   0  0  0  0  0  0  0  0  0  0  0  0
    0.5860   -1.9210    0.6110 H   0  0  0  0  0  0  0  0  0  0  0  0
    1.0930   -3.3460    1.4940 H   0  0  0  0  0  0  0  0  0  0  0  0
    3.0990   -1.1520    0.7510 H   0  0  0  0  0  0  0  0  0  0  0  0
    2.6890   -2.6390   -0.1410 H   0  0  0  0  0  0  0  0  0  0  0  0
    3.7710   -2.5220    2.7330 H   0  0  0  0  0  0  0  0  0  0  0  0
    4.6570   -2.8550    1.2340 H   0  0  0  0  0  0  0  0  0  0  0  0
    3.1770   -4.8010    0.9260 H   0  0  0  0  0  0  0  0  0  0  0  0
    2.5640   -4.5080    2.5240 H   0  0  0  0  0  0  0  0  0  0  0  0
    0.7840    0.9980    0.9060 N   0  0  0  0  0  0  0  0  0  0  0  0
    0.1250    2.1330    0.2860 C   0  0  1  0  0  0  0  0  0  0  0  0
    1.0150    2.8580   -0.6710 C   0  0  0  0  0  0  0  0  0  0  0  0
    2.4640    3.4650    0.2200 S   0  0  0  0  0  0  0  0  0  0  0  0
   -1.1420    1.6910   -0.3280 C   0  0  0  0  0  0  0  0  0  0  0  0
   -1.8770    2.5090   -0.9830 O   0  0  0  0  0  0  0  0  0  0  0  0
    1.2500    0.2950    0.2970 H   0  0  0  0  0  0  0  0  0  0  0  0
   -0.1860    2.8800    1.0810 H   0  0  0  0  0  0  0  0  0  0  0  0
    1.3530    2.1210   -1.4460 H   0  0  0  0  0  0  0  0  0  0  0  0
    0.4890    3.6520   -1.2370 H   0  0  0  0  0  0  0  0  0  0  0  0
    2.1860    4.7950    0.6270 H   0  0  0  0  0  0  0  0  0  0  0  0
   -2.5760   -3.1240   -0.4910 C   0  0  0  0  0  0  0  0  0  0  0  0
   -1.9200   -2.3110   -1.5570 C   0  0  0  0  0  0  0  0  0  0  0  0
   -2.6390   -1.0600   -1.9370 C   0  0  2  0  0  0  0  0  0  0  0  0
   -1.8620   -0.3350   -3.0290 C   0  0  0  0  0  0  0  0  0  0  0  0
   -2.8540   -0.0890   -0.8250 C   0  0  2  0  0  0  0  0  0  0  0  0
   -1.6120    0.3660   -0.2290 N   0  0  0  0  0  0  0  0  0  0  0  0
   -3.8340   -0.5210    0.1820 C   0  0  0  0  0  0  0  0  0  0  0  0
   -3.5480   -0.4710    1.3920 O   0  0  0  0  0  0  0  0  0  0  0  0
   -5.0680   -0.9810   -0.2110 O   0  0  0  0  0  0  0  0  0  0  0  0
   -2.1170   -4.1540   -0.5500 H   0  0  0  0  0  0  0  0  0  0  0  0
   -3.6500   -3.2880   -0.6480 H   0  0  0  0  0  0  0  0  0  0  0  0
   -2.3070   -2.7550    0.5160 H   0  0  0  0  0  0  0  0  0  0  0  0
   -1.8880   -2.9590   -2.4820 H   0  0  0  0  0  0  0  0  0  0  0  0
   -0.8680   -2.1290   -1.2730 H   0  0  0  0  0  0  0  0  0  0  0  0
   -3.6450   -1.3310   -2.3380 H   0  0  0  0  0  0  0  0  0  0  0  0
   -2.0050   -0.8700   -4.0110 H   0  0  0  0  0  0  0  0  0  0  0  0
   -2.2520    0.6950   -3.1710 H   0  0  0  0  0  0  0  0  0  0  0  0
   -0.7950   -0.2490   -2.7690 H   0  0  0  0  0  0  0  0  0  0  0  0
   -3.2980    0.8330   -1.3060 H   0  0  0  0  0  0  0  0  0  0  0  0
   -1.0290   -0.3020    0.3060 H   0  0  0  0  0  0  0  0  0  0  0  0
  1 10  1  0  0  0  0
  1 11  1  0  0  0  0
  2 12  1  6  0  0  0
  2  1  1  0  0  0  0
  3  2  1  0  0  0  0
  3 14  1  0  0  0  0
  3 13  1  0  0  0  0
  4 16  1  0  0  0  0
  4  3  1  0  0  0  0
  5  4  1  0  0  0  0
  5  6  1  0  0  0  0
  6  7  1  0  0  0  0
  6 19  1  0  0  0  0
  7 22  1  0  0  0  0
  8  9  2  0  0  0  0
  8  2  1  0  0  0  0
 15  4  1  0  0  0  0
 17  5  1  0  0  0  0
 18  5  1  0  0  0  0
 20  6  1  0  0  0  0
 21  7  1  0  0  0  0
 23  8  1  0  0  0  0
 24 23  1  0  0  0  0
 24 30  1  1  0  0  0
 25 26  1  0  0  0  0
 25 24  1  0  0  0  0
 26 33  1  0  0  0  0
 27 39  1  0  0  0  0
 27 24  1  0  0  0  0
 28 27  2  0  0  0  0
 29 23  1  0  0  0  0
 31 25  1  0  0  0  0
 32 25  1  0  0  0  0
 34 45  1  0  0  0  0
 35 47  1  0  0  0  0
 35 34  1  0  0  0  0
 36 48  1  6  0  0  0
 36 35  1  0  0  0  0
 36 38  1  0  0  0  0
 37 51  1  0  0  0  0
 37 36  1  0  0  0  0
 38 52  1  6  0  0  0
 38 39  1  0  0  0  0
 38 40  1  0  0  0  0
 39 53  1  0  0  0  0
 40 41  1  0  0  0  0
 42 40  2  0  0  0  0
 43 34  1  0  0  0  0
 44 34  1  0  0  0  0
 46 35  1  0  0  0  0
 49 37  1  0  0  0  0
 50 37  1  0  0  0  0
M  END
$$$$
