KCK.pdb
 OpenBabel07022418503D

 55 54  0  0  1  0  0  0  0  0999 V2000
    3.3270   -0.7210    3.9320 N   0  0  0  0  0  0  0  0  0  0  0  0
    2.5180   -0.7070    2.6670 C   0  0  1  0  0  0  0  0  0  0  0  0
    2.5600   -2.1330    2.2120 C   0  0  0  0  0  0  0  0  0  0  0  0
    1.8650   -2.4500    0.9440 C   0  0  0  0  0  0  0  0  0  0  0  0
    2.3530   -1.7610   -0.2810 C   0  0  0  0  0  0  0  0  0  0  0  0
    3.7840   -2.0330   -0.6450 C   0  0  0  0  0  0  0  0  0  0  0  0
    4.7180   -1.6240    0.3710 N   0  0  0  0  0  0  0  0  0  0  0  0
    1.1880   -0.1820    2.9790 C   0  0  0  0  0  0  0  0  0  0  0  0
    0.8470   -0.0220    4.2000 O   0  0  0  0  0  0  0  0  0  0  0  0
    2.7620   -1.3210    4.5710 H   0  0  0  0  0  0  0  0  0  0  0  0
    4.2220   -1.2440    3.7290 H   0  0  0  0  0  0  0  0  0  0  0  0
    3.0490   -0.0560    1.9790 H   0  0  0  0  0  0  0  0  0  0  0  0
    2.0510   -2.7510    3.0260 H   0  0  0  0  0  0  0  0  0  0  0  0
    3.6120   -2.4880    2.2370 H   0  0  0  0  0  0  0  0  0  0  0  0
    0.7840   -2.2800    1.0370 H   0  0  0  0  0  0  0  0  0  0  0  0
    1.9870   -3.5660    0.7670 H   0  0  0  0  0  0  0  0  0  0  0  0
    1.6950   -2.1210   -1.1270 H   0  0  0  0  0  0  0  0  0  0  0  0
    2.2260   -0.6660   -0.2760 H   0  0  0  0  0  0  0  0  0  0  0  0
    4.0190   -1.4210   -1.5540 H   0  0  0  0  0  0  0  0  0  0  0  0
    3.9430   -3.0890   -0.9650 H   0  0  0  0  0  0  0  0  0  0  0  0
    5.5940   -2.1540    0.3730 H   0  0  0  0  0  0  0  0  0  0  0  0
    4.8200   -0.5890    0.3450 H   0  0  0  0  0  0  0  0  0  0  0  0
    0.2280    0.1740    2.0020 N   0  0  0  0  0  0  0  0  0  0  0  0
   -1.0760    0.7000    2.3940 C   0  0  1  0  0  0  0  0  0  0  0  0
   -0.9990    2.2140    2.1510 C   0  0  0  0  0  0  0  0  0  0  0  0
    0.3440    2.8750    3.1820 S   0  0  0  0  0  0  0  0  0  0  0  0
   -2.2150    0.1020    1.7180 C   0  0  0  0  0  0  0  0  0  0  0  0
   -3.4080    0.4460    2.0270 O   0  0  0  0  0  0  0  0  0  0  0  0
    0.4000    0.0830    0.9800 H   0  0  0  0  0  0  0  0  0  0  0  0
   -1.1610    0.5970    3.4830 H   0  0  0  0  0  0  0  0  0  0  0  0
   -0.7000    2.3710    1.0990 H   0  0  0  0  0  0  0  0  0  0  0  0
   -1.9200    2.7210    2.4480 H   0  0  0  0  0  0  0  0  0  0  0  0
   -0.1680    3.6040    4.2750 H   0  0  0  0  0  0  0  0  0  0  0  0
   -2.1450   -0.8900    0.6770 N   0  0  0  0  0  0  0  0  0  0  0  0
   -3.3130   -1.4440    0.0500 C   0  0  1  0  0  0  0  0  0  0  0  0
   -3.6290   -0.9890   -1.3180 C   0  0  0  0  0  0  0  0  0  0  0  0
   -2.6980   -1.2030   -2.4250 C   0  0  0  0  0  0  0  0  0  0  0  0
   -1.3460   -0.6080   -2.3820 C   0  0  0  0  0  0  0  0  0  0  0  0
   -1.3480    0.9040   -2.2500 C   0  0  0  0  0  0  0  0  0  0  0  0
   -2.0220    1.5370   -3.3470 N   0  0  0  0  0  0  0  0  0  0  0  0
   -3.3720   -2.9170    0.2090 C   0  0  0  0  0  0  0  0  0  0  0  0
   -2.4610   -3.4880    0.8300 O   0  0  0  0  0  0  0  0  0  0  0  0
   -4.4090   -3.6440   -0.3170 O   0  0  0  0  0  0  0  0  0  0  0  0
   -1.1860   -1.1870    0.4190 H   0  0  0  0  0  0  0  0  0  0  0  0
   -4.2010   -1.0800    0.6830 H   0  0  0  0  0  0  0  0  0  0  0  0
   -3.9230    0.0900   -1.2470 H   0  0  0  0  0  0  0  0  0  0  0  0
   -4.6020   -1.4980   -1.6050 H   0  0  0  0  0  0  0  0  0  0  0  0
   -2.5910   -2.2870   -2.6790 H   0  0  0  0  0  0  0  0  0  0  0  0
   -3.1990   -0.7830   -3.3560 H   0  0  0  0  0  0  0  0  0  0  0  0
   -0.9330   -0.7610   -3.4500 H   0  0  0  0  0  0  0  0  0  0  0  0
   -0.5970   -1.1050   -1.7700 H   0  0  0  0  0  0  0  0  0  0  0  0
   -0.2790    1.2190   -2.2480 H   0  0  0  0  0  0  0  0  0  0  0  0
   -1.8060    1.2360   -1.3180 H   0  0  0  0  0  0  0  0  0  0  0  0
   -1.4240    2.1200   -3.9480 H   0  0  0  0  0  0  0  0  0  0  0  0
   -2.8350    2.1170   -3.0320 H   0  0  0  0  0  0  0  0  0  0  0  0
  1 10  1  0  0  0  0
  2 12  1  6  0  0  0
  2  8  1  0  0  0  0
  2  1  1  0  0  0  0
  3 14  1  0  0  0  0
  3  2  1  0  0  0  0
  3 13  1  0  0  0  0
  4 15  1  0  0  0  0
  4  3  1  0  0  0  0
  5 18  1  0  0  0  0
  5  4  1  0  0  0  0
  6  5  1  0  0  0  0
  6  7  1  0  0  0  0
  7 21  1  0  0  0  0
  8  9  2  0  0  0  0
 11  1  1  0  0  0  0
 16  4  1  0  0  0  0
 17  5  1  0  0  0  0
 19  6  1  0  0  0  0
 20  6  1  0  0  0  0
 22  7  1  0  0  0  0
 23 24  1  0  0  0  0
 23  8  1  0  0  0  0
 24 30  1  1  0  0  0
 25 24  1  0  0  0  0
 25 32  1  0  0  0  0
 25 26  1  0  0  0  0
 26 33  1  0  0  0  0
 27 28  2  0  0  0  0
 27 24  1  0  0  0  0
 29 23  1  0  0  0  0
 31 25  1  0  0  0  0
 34 27  1  0  0  0  0
 35 41  1  0  0  0  0
 35 34  1  0  0  0  0
 35 45  1  1  0  0  0
 36 46  1  0  0  0  0
 36 35  1  0  0  0  0
 37 38  1  0  0  0  0
 37 36  1  0  0  0  0
 38 39  1  0  0  0  0
 38 51  1  0  0  0  0
 39 52  1  0  0  0  0
 39 53  1  0  0  0  0
 40 55  1  0  0  0  0
 40 39  1  0  0  0  0
 41 42  1  0  0  0  0
 43 41  2  0  0  0  0
 44 34  1  0  0  0  0
 47 36  1  0  0  0  0
 48 37  1  0  0  0  0
 49 37  1  0  0  0  0
 50 38  1  0  0  0  0
 54 40  1  0  0  0  0
M  END
$$$$
