KCL.pdb
 OpenBabel07022418503D

 53 52  0  0  1  0  0  0  0  0999 V2000
   -0.9420   -2.8280    3.1200 N   0  0  0  0  0  0  0  0  0  0  0  0
    0.3440   -2.1320    3.2770 C   0  0  1  0  0  0  0  0  0  0  0  0
    1.4230   -2.9160    2.5650 C   0  0  0  0  0  0  0  0  0  0  0  0
    2.7400   -2.2100    2.7170 C   0  0  0  0  0  0  0  0  0  0  0  0
    3.8670   -2.9260    2.0350 C   0  0  0  0  0  0  0  0  0  0  0  0
    5.1300   -2.0950    2.2750 C   0  0  0  0  0  0  0  0  0  0  0  0
    6.2630   -2.7590    1.6240 N   0  0  0  0  0  0  0  0  0  0  0  0
    0.1830   -0.7780    2.7010 C   0  0  0  0  0  0  0  0  0  0  0  0
   -0.2450    0.1990    3.3840 O   0  0  0  0  0  0  0  0  0  0  0  0
   -1.3610   -2.6500    2.1930 H   0  0  0  0  0  0  0  0  0  0  0  0
   -0.8340   -3.8530    3.2400 H   0  0  0  0  0  0  0  0  0  0  0  0
    0.5300   -2.0970    4.3750 H   0  0  0  0  0  0  0  0  0  0  0  0
    1.5530   -3.9130    3.0930 H   0  0  0  0  0  0  0  0  0  0  0  0
    1.1810   -3.0880    1.5030 H   0  0  0  0  0  0  0  0  0  0  0  0
    2.9760   -2.1190    3.8070 H   0  0  0  0  0  0  0  0  0  0  0  0
    2.6540   -1.2020    2.3150 H   0  0  0  0  0  0  0  0  0  0  0  0
    4.0090   -3.9290    2.4590 H   0  0  0  0  0  0  0  0  0  0  0  0
    3.7480   -2.9870    0.9450 H   0  0  0  0  0  0  0  0  0  0  0  0
    5.3750   -2.0240    3.3490 H   0  0  0  0  0  0  0  0  0  0  0  0
    5.0210   -1.0810    1.8470 H   0  0  0  0  0  0  0  0  0  0  0  0
    5.9160   -3.1070    0.7020 H   0  0  0  0  0  0  0  0  0  0  0  0
    6.5260   -3.5570    2.2500 H   0  0  0  0  0  0  0  0  0  0  0  0
    0.4950   -0.5050    1.3670 N   0  0  0  0  0  0  0  0  0  0  0  0
    0.3640    0.7910    0.7350 C   0  0  1  0  0  0  0  0  0  0  0  0
    1.6460    1.3230    0.1820 C   0  0  0  0  0  0  0  0  0  0  0  0
    1.3360    2.9420   -0.5750 S   0  0  0  0  0  0  0  0  0  0  0  0
   -0.6930    0.7200   -0.3420 C   0  0  0  0  0  0  0  0  0  0  0  0
   -0.9130    1.7720   -0.9720 O   0  0  0  0  0  0  0  0  0  0  0  0
    0.8500   -1.2650    0.7460 H   0  0  0  0  0  0  0  0  0  0  0  0
   -0.0200    1.5170    1.4780 H   0  0  0  0  0  0  0  0  0  0  0  0
    2.4010    1.4870    0.9760 H   0  0  0  0  0  0  0  0  0  0  0  0
    2.1100    0.6790   -0.5770 H   0  0  0  0  0  0  0  0  0  0  0  0
    2.2290    3.2210   -1.6120 H   0  0  0  0  0  0  0  0  0  0  0  0
   -4.4020    2.5310   -1.4530 C   0  0  0  0  0  0  0  0  0  0  0  0
   -3.7610    1.2380   -0.9500 C   0  0  0  0  0  0  0  0  0  0  0  0
   -4.9800    0.3640   -0.5400 C   0  0  0  0  0  0  0  0  0  0  0  0
   -3.0800    0.5350   -2.0960 C   0  0  0  0  0  0  0  0  0  0  0  0
   -2.4230   -0.7250   -1.5670 C   0  0  2  0  0  0  0  0  0  0  0  0
   -1.3880   -0.4510   -0.6220 N   0  0  0  0  0  0  0  0  0  0  0  0
   -2.1490   -1.7440   -2.5600 C   0  0  0  0  0  0  0  0  0  0  0  0
   -3.0200   -2.0290   -3.4160 O   0  0  0  0  0  0  0  0  0  0  0  0
   -0.9420   -2.4440   -2.6180 O   0  0  0  0  0  0  0  0  0  0  0  0
   -3.7100    3.3850   -1.2590 H   0  0  0  0  0  0  0  0  0  0  0  0
   -4.6110    2.4850   -2.5360 H   0  0  0  0  0  0  0  0  0  0  0  0
   -5.3350    2.7440   -0.8980 H   0  0  0  0  0  0  0  0  0  0  0  0
   -3.2120    1.3690   -0.0360 H   0  0  0  0  0  0  0  0  0  0  0  0
   -5.2940   -0.1630   -1.4460 H   0  0  0  0  0  0  0  0  0  0  0  0
   -4.6970   -0.3130    0.2980 H   0  0  0  0  0  0  0  0  0  0  0  0
   -5.7880    1.0590   -0.2450 H   0  0  0  0  0  0  0  0  0  0  0  0
   -2.3290    1.1340   -2.6170 H   0  0  0  0  0  0  0  0  0  0  0  0
   -3.8460    0.2200   -2.8520 H   0  0  0  0  0  0  0  0  0  0  0  0
   -3.2920   -1.1310   -0.8910 H   0  0  0  0  0  0  0  0  0  0  0  0
   -1.1010   -1.2980   -0.0290 H   0  0  0  0  0  0  0  0  0  0  0  0
  1 11  1  0  0  0  0
  1  2  1  0  0  0  0
  2 12  1  1  0  0  0
  3  4  1  0  0  0  0
  3 13  1  0  0  0  0
  3  2  1  0  0  0  0
  4 15  1  0  0  0  0
  5  6  1  0  0  0  0
  5 17  1  0  0  0  0
  5  4  1  0  0  0  0
  6 19  1  0  0  0  0
  7 22  1  0  0  0  0
  7  6  1  0  0  0  0
  8  2  1  0  0  0  0
  8  9  2  0  0  0  0
 10  1  1  0  0  0  0
 14  3  1  0  0  0  0
 16  4  1  0  0  0  0
 18  5  1  0  0  0  0
 20  6  1  0  0  0  0
 21  7  1  0  0  0  0
 23  8  1  0  0  0  0
 24 23  1  0  0  0  0
 24 30  1  1  0  0  0
 25 24  1  0  0  0  0
 25 31  1  0  0  0  0
 26 25  1  0  0  0  0
 27 24  1  0  0  0  0
 28 27  2  0  0  0  0
 29 23  1  0  0  0  0
 32 25  1  0  0  0  0
 33 26  1  0  0  0  0
 34 43  1  0  0  0  0
 34 35  1  0  0  0  0
 34 45  1  0  0  0  0
 35 36  1  0  0  0  0
 35 46  1  0  0  0  0
 36 49  1  0  0  0  0
 36 48  1  0  0  0  0
 37 38  1  0  0  0  0
 37 35  1  0  0  0  0
 38 52  1  1  0  0  0
 38 39  1  0  0  0  0
 39 27  1  0  0  0  0
 39 53  1  0  0  0  0
 40 38  1  0  0  0  0
 41 40  2  0  0  0  0
 42 40  1  0  0  0  0
 44 34  1  0  0  0  0
 47 36  1  0  0  0  0
 50 37  1  0  0  0  0
 51 37  1  0  0  0  0
M  END
$$$$
