KCM.pdb
 OpenBabel07022418503D

 51 50  0  0  1  0  0  0  0  0999 V2000
    1.9930   -2.1930    4.9510 N   0  0  0  0  0  0  0  0  0  0  0  0
    1.7990   -1.9390    3.5000 C   0  0  1  0  0  0  0  0  0  0  0  0
    1.3070   -3.2570    2.8980 C   0  0  0  0  0  0  0  0  0  0  0  0
    1.0680   -3.2160    1.4470 C   0  0  0  0  0  0  0  0  0  0  0  0
    2.2370   -2.8900    0.5890 C   0  0  0  0  0  0  0  0  0  0  0  0
    3.3860   -3.8570    0.7070 C   0  0  0  0  0  0  0  0  0  0  0  0
    3.0480   -5.2040    0.3510 N   0  0  0  0  0  0  0  0  0  0  0  0
    0.7940   -0.8600    3.4300 C   0  0  0  0  0  0  0  0  0  0  0  0
    0.1050   -0.5790    4.4580 O   0  0  0  0  0  0  0  0  0  0  0  0
    1.0900   -2.1200    5.4590 H   0  0  0  0  0  0  0  0  0  0  0  0
    2.3350   -3.1630    5.0820 H   0  0  0  0  0  0  0  0  0  0  0  0
    2.7880   -1.6560    3.1040 H   0  0  0  0  0  0  0  0  0  0  0  0
    1.9890   -4.0580    3.2440 H   0  0  0  0  0  0  0  0  0  0  0  0
    0.3330   -3.4570    3.4250 H   0  0  0  0  0  0  0  0  0  0  0  0
    0.6290   -4.2070    1.1100 H   0  0  0  0  0  0  0  0  0  0  0  0
    0.2600   -2.4950    1.2340 H   0  0  0  0  0  0  0  0  0  0  0  0
    2.6560   -1.8800    0.7560 H   0  0  0  0  0  0  0  0  0  0  0  0
    1.9030   -2.9210   -0.4740 H   0  0  0  0  0  0  0  0  0  0  0  0
    3.9170   -3.7760    1.6870 H   0  0  0  0  0  0  0  0  0  0  0  0
    4.1480   -3.5120   -0.0500 H   0  0  0  0  0  0  0  0  0  0  0  0
    3.1730   -5.3470   -0.6760 H   0  0  0  0  0  0  0  0  0  0  0  0
    2.1120   -5.5170    0.6180 H   0  0  0  0  0  0  0  0  0  0  0  0
    0.5440   -0.1010    2.2770 N   0  0  0  0  0  0  0  0  0  0  0  0
   -0.4600    0.9380    2.3200 C   0  0  1  0  0  0  0  0  0  0  0  0
    0.3280    2.2490    2.4330 C   0  0  0  0  0  0  0  0  0  0  0  0
   -0.8030    3.6620    2.4980 S   0  0  0  0  0  0  0  0  0  0  0  0
   -1.3750    0.9650    1.1810 C   0  0  0  0  0  0  0  0  0  0  0  0
   -2.3290    1.8220    1.1790 O   0  0  0  0  0  0  0  0  0  0  0  0
    1.0590   -0.2640    1.4130 H   0  0  0  0  0  0  0  0  0  0  0  0
   -1.0380    0.9050    3.2880 H   0  0  0  0  0  0  0  0  0  0  0  0
    1.0970    2.3390    1.6620 H   0  0  0  0  0  0  0  0  0  0  0  0
    0.8460    2.1850    3.4190 H   0  0  0  0  0  0  0  0  0  0  0  0
   -0.8390    4.2590    1.2180 H   0  0  0  0  0  0  0  0  0  0  0  0
   -3.0360    3.2080   -3.5010 C   0  0  0  0  0  0  0  0  0  0  0  0
   -1.8720    3.0980   -2.1020 S   0  0  0  0  0  0  0  0  0  0  0  0
   -0.7420    1.7080   -2.3760 C   0  0  0  0  0  0  0  0  0  0  0  0
   -1.4740    0.3880   -2.3350 C   0  0  0  0  0  0  0  0  0  0  0  0
   -2.1590    0.1210   -1.0330 C   0  0  2  0  0  0  0  0  0  0  0  0
   -1.2450    0.0880    0.0910 N   0  0  0  0  0  0  0  0  0  0  0  0
   -2.8770   -1.1690   -1.1510 C   0  0  0  0  0  0  0  0  0  0  0  0
   -2.6290   -2.0730   -0.3240 O   0  0  0  0  0  0  0  0  0  0  0  0
   -3.8100   -1.4100   -2.1410 O   0  0  0  0  0  0  0  0  0  0  0  0
   -2.5590    3.6290   -4.4060 H   0  0  0  0  0  0  0  0  0  0  0  0
   -3.8450    3.9040   -3.1850 H   0  0  0  0  0  0  0  0  0  0  0  0
   -3.4790    2.1980   -3.7050 H   0  0  0  0  0  0  0  0  0  0  0  0
   -0.3020    1.7890   -3.4000 H   0  0  0  0  0  0  0  0  0  0  0  0
    0.0730    1.7130   -1.6340 H   0  0  0  0  0  0  0  0  0  0  0  0
   -2.1800    0.2730   -3.1600 H   0  0  0  0  0  0  0  0  0  0  0  0
   -0.6910   -0.4030   -2.4790 H   0  0  0  0  0  0  0  0  0  0  0  0
   -2.9190    0.9410   -0.8780 H   0  0  0  0  0  0  0  0  0  0  0  0
   -0.4840   -0.6150    0.0470 H   0  0  0  0  0  0  0  0  0  0  0  0
  1 11  1  0  0  0  0
  1 10  1  0  0  0  0
  2 12  1  6  0  0  0
  2  1  1  0  0  0  0
  3 13  1  0  0  0  0
  3 14  1  0  0  0  0
  3  2  1  0  0  0  0
  4  3  1  0  0  0  0
  5  6  1  0  0  0  0
  5 17  1  0  0  0  0
  5  4  1  0  0  0  0
  6 19  1  0  0  0  0
  7 22  1  0  0  0  0
  7  6  1  0  0  0  0
  8  2  1  0  0  0  0
  8  9  2  0  0  0  0
 15  4  1  0  0  0  0
 16  4  1  0  0  0  0
 18  5  1  0  0  0  0
 20  6  1  0  0  0  0
 21  7  1  0  0  0  0
 23 24  1  0  0  0  0
 23  8  1  0  0  0  0
 24 25  1  0  0  0  0
 24 30  1  1  0  0  0
 25 26  1  0  0  0  0
 25 32  1  0  0  0  0
 27 24  1  0  0  0  0
 28 27  2  0  0  0  0
 29 23  1  0  0  0  0
 31 25  1  0  0  0  0
 33 26  1  0  0  0  0
 34 44  1  0  0  0  0
 34 35  1  0  0  0  0
 36 37  1  0  0  0  0
 36 35  1  0  0  0  0
 36 47  1  0  0  0  0
 37 38  1  0  0  0  0
 38 50  1  1  0  0  0
 38 39  1  0  0  0  0
 39 27  1  0  0  0  0
 40 38  1  0  0  0  0
 40 41  1  0  0  0  0
 42 40  2  0  0  0  0
 43 34  1  0  0  0  0
 45 34  1  0  0  0  0
 46 36  1  0  0  0  0
 48 37  1  0  0  0  0
 49 37  1  0  0  0  0
 51 39  1  0  0  0  0
M  END
$$$$
