KCN.pdb
 OpenBabel07022418503D

 48 47  0  0  1  0  0  0  0  0999 V2000
    0.6570   -3.0830    4.0540 N   0  0  0  0  0  0  0  0  0  0  0  0
    1.2980   -1.8790    3.4720 C   0  0  1  0  0  0  0  0  0  0  0  0
    2.3920   -2.2390    2.5660 C   0  0  0  0  0  0  0  0  0  0  0  0
    2.1380   -3.0900    1.3980 C   0  0  0  0  0  0  0  0  0  0  0  0
    1.2770   -2.6370    0.3010 C   0  0  0  0  0  0  0  0  0  0  0  0
    1.7750   -1.4200   -0.4320 C   0  0  0  0  0  0  0  0  0  0  0  0
    3.0880   -1.6370   -1.0170 N   0  0  0  0  0  0  0  0  0  0  0  0
    0.3550   -0.8330    3.2310 C   0  0  0  0  0  0  0  0  0  0  0  0
   -0.8430   -0.9850    3.6610 O   0  0  0  0  0  0  0  0  0  0  0  0
   -0.0310   -2.6960    4.7420 H   0  0  0  0  0  0  0  0  0  0  0  0
    0.1120   -3.5860    3.3250 H   0  0  0  0  0  0  0  0  0  0  0  0
    1.8540   -1.4990    4.4590 H   0  0  0  0  0  0  0  0  0  0  0  0
    3.1540   -2.8110    3.2020 H   0  0  0  0  0  0  0  0  0  0  0  0
    2.9710   -1.3030    2.3220 H   0  0  0  0  0  0  0  0  0  0  0  0
    3.1020   -3.5020    0.9480 H   0  0  0  0  0  0  0  0  0  0  0  0
    1.6670   -4.0500    1.8000 H   0  0  0  0  0  0  0  0  0  0  0  0
    1.2580   -3.4580   -0.4770 H   0  0  0  0  0  0  0  0  0  0  0  0
    0.2370   -2.4910    0.5840 H   0  0  0  0  0  0  0  0  0  0  0  0
    1.6760   -0.4700    0.0920 H   0  0  0  0  0  0  0  0  0  0  0  0
    1.0980   -1.3200   -1.3320 H   0  0  0  0  0  0  0  0  0  0  0  0
    2.9610   -2.3820   -1.7420 H   0  0  0  0  0  0  0  0  0  0  0  0
    3.8090   -1.8840   -0.3100 H   0  0  0  0  0  0  0  0  0  0  0  0
    0.6370    0.3700    2.5600 N   0  0  0  0  0  0  0  0  0  0  0  0
   -0.2970    1.4340    2.3720 C   0  0  1  0  0  0  0  0  0  0  0  0
    0.3880    2.7410    2.6670 C   0  0  0  0  0  0  0  0  0  0  0  0
   -0.7060    4.1580    2.4590 S   0  0  0  0  0  0  0  0  0  0  0  0
   -1.1630    1.4440    1.2140 C   0  0  0  0  0  0  0  0  0  0  0  0
   -1.8890    2.5150    1.0800 O   0  0  0  0  0  0  0  0  0  0  0  0
    1.6080    0.5560    2.1600 H   0  0  0  0  0  0  0  0  0  0  0  0
   -1.0320    1.2870    3.2670 H   0  0  0  0  0  0  0  0  0  0  0  0
    1.2400    2.8660    1.9580 H   0  0  0  0  0  0  0  0  0  0  0  0
    0.8240    2.7050    3.6850 H   0  0  0  0  0  0  0  0  0  0  0  0
   -0.6340    4.5660    1.1090 H   0  0  0  0  0  0  0  0  0  0  0  0
   -1.0030   -1.4910   -3.6550 N   0  0  0  0  0  0  0  0  0  0  0  0
   -1.4810   -0.9830   -2.4290 C   0  0  0  0  0  0  0  0  0  0  0  0
   -1.5990   -1.8270   -1.4750 O   0  0  0  0  0  0  0  0  0  0  0  0
   -1.8300    0.4260   -2.2340 C   0  0  0  0  0  0  0  0  0  0  0  0
   -2.3120    0.7440   -0.8560 C   0  0  2  0  0  0  0  0  0  0  0  0
   -1.3600    0.4860    0.2050 N   0  0  0  0  0  0  0  0  0  0  0  0
   -3.5560   -0.0900   -0.6410 C   0  0  0  0  0  0  0  0  0  0  0  0
   -4.4580    0.0470   -1.4990 O   0  0  0  0  0  0  0  0  0  0  0  0
   -3.7320   -0.9480    0.4010 O   0  0  0  0  0  0  0  0  0  0  0  0
   -0.7490   -0.7940   -4.4150 H   0  0  0  0  0  0  0  0  0  0  0  0
   -0.8840   -2.4870   -3.8630 H   0  0  0  0  0  0  0  0  0  0  0  0
   -0.9280    1.0500   -2.5110 H   0  0  0  0  0  0  0  0  0  0  0  0
   -2.5780    0.6860   -3.0130 H   0  0  0  0  0  0  0  0  0  0  0  0
   -2.6930    1.7840   -0.8220 H   0  0  0  0  0  0  0  0  0  0  0  0
   -0.8060   -0.3820    0.2650 H   0  0  0  0  0  0  0  0  0  0  0  0
  1 10  1  0  0  0  0
  2  1  1  0  0  0  0
  2 12  1  1  0  0  0
  3 13  1  0  0  0  0
  3  2  1  0  0  0  0
  4 16  1  0  0  0  0
  4  3  1  0  0  0  0
  5 18  1  0  0  0  0
  5  4  1  0  0  0  0
  6 19  1  0  0  0  0
  6  5  1  0  0  0  0
  7  6  1  0  0  0  0
  7 22  1  0  0  0  0
  8  2  1  0  0  0  0
  8  9  2  0  0  0  0
 11  1  1  0  0  0  0
 14  3  1  0  0  0  0
 15  4  1  0  0  0  0
 17  5  1  0  0  0  0
 20  6  1  0  0  0  0
 21  7  1  0  0  0  0
 23  8  1  0  0  0  0
 24 23  1  0  0  0  0
 24 25  1  0  0  0  0
 24 30  1  1  0  0  0
 25 32  1  0  0  0  0
 26 25  1  0  0  0  0
 27 24  1  0  0  0  0
 28 27  2  0  0  0  0
 29 23  1  0  0  0  0
 31 25  1  0  0  0  0
 33 26  1  0  0  0  0
 34 35  1  0  0  0  0
 35 37  1  0  0  0  0
 35 36  2  0  0  0  0
 37 38  1  0  0  0  0
 38 47  1  1  0  0  0
 38 40  1  0  0  0  0
 38 39  1  0  0  0  0
 39 48  1  0  0  0  0
 39 27  1  0  0  0  0
 40 42  1  0  0  0  0
 41 40  2  0  0  0  0
 43 34  1  0  0  0  0
 44 34  1  0  0  0  0
 45 37  1  0  0  0  0
 46 37  1  0  0  0  0
M  END
$$$$
