KCP.pdb
 OpenBabel07022418503D

 48 48  0  0  1  0  0  0  0  0999 V2000
    1.5430   -4.0950    1.6290 N   0  0  0  0  0  0  0  0  0  0  0  0
    1.4710   -2.7910    2.3130 C   0  0  1  0  0  0  0  0  0  0  0  0
    2.8410   -2.4090    2.7210 C   0  0  0  0  0  0  0  0  0  0  0  0
    3.8720   -2.2790    1.6620 C   0  0  0  0  0  0  0  0  0  0  0  0
    3.5840   -1.2310    0.6450 C   0  0  0  0  0  0  0  0  0  0  0  0
    4.6890   -1.1590   -0.4130 C   0  0  0  0  0  0  0  0  0  0  0  0
    5.9650   -0.8470    0.1810 N   0  0  0  0  0  0  0  0  0  0  0  0
    0.6630   -1.8400    1.5720 C   0  0  0  0  0  0  0  0  0  0  0  0
    0.1000   -2.2510    0.5160 O   0  0  0  0  0  0  0  0  0  0  0  0
    2.2690   -4.6630    2.1290 H   0  0  0  0  0  0  0  0  0  0  0  0
    0.6240   -4.5830    1.6870 H   0  0  0  0  0  0  0  0  0  0  0  0
    0.8930   -3.0910    3.2790 H   0  0  0  0  0  0  0  0  0  0  0  0
    2.7660   -1.4250    3.2570 H   0  0  0  0  0  0  0  0  0  0  0  0
    3.2160   -3.1640    3.4800 H   0  0  0  0  0  0  0  0  0  0  0  0
    4.0760   -3.2790    1.1690 H   0  0  0  0  0  0  0  0  0  0  0  0
    4.8580   -2.0620    2.1760 H   0  0  0  0  0  0  0  0  0  0  0  0
    3.6040   -0.2170    1.1290 H   0  0  0  0  0  0  0  0  0  0  0  0
    2.6380   -1.4290    0.1210 H   0  0  0  0  0  0  0  0  0  0  0  0
    4.4100   -0.4070   -1.1650 H   0  0  0  0  0  0  0  0  0  0  0  0
    4.7360   -2.1610   -0.8810 H   0  0  0  0  0  0  0  0  0  0  0  0
    5.8250   -0.0370    0.8260 H   0  0  0  0  0  0  0  0  0  0  0  0
    6.6110   -0.5920   -0.6010 H   0  0  0  0  0  0  0  0  0  0  0  0
    0.4170   -0.4810    1.8990 N   0  0  0  0  0  0  0  0  0  0  0  0
   -0.4440    0.3520    1.0810 C   0  0  1  0  0  0  0  0  0  0  0  0
    0.0690    0.6220   -0.2860 C   0  0  0  0  0  0  0  0  0  0  0  0
    1.6640    1.5040   -0.2810 S   0  0  0  0  0  0  0  0  0  0  0  0
   -1.8300   -0.1680    1.0400 C   0  0  0  0  0  0  0  0  0  0  0  0
   -2.0280   -1.2820    1.6250 O   0  0  0  0  0  0  0  0  0  0  0  0
    0.8980   -0.1280    2.7650 H   0  0  0  0  0  0  0  0  0  0  0  0
   -0.5220    1.3390    1.6280 H   0  0  0  0  0  0  0  0  0  0  0  0
   -0.6490    1.2520   -0.8330 H   0  0  0  0  0  0  0  0  0  0  0  0
    0.1690   -0.3090   -0.8920 H   0  0  0  0  0  0  0  0  0  0  0  0
    2.1130    1.7040    1.0410 H   0  0  0  0  0  0  0  0  0  0  0  0
   -2.9420    0.4250    0.4370 N   0  0  0  0  0  0  0  0  0  0  0  0
   -3.0380    1.6740   -0.2650 C   0  0  0  0  0  0  0  0  0  0  0  0
   -4.4740    2.1620   -0.0520 C   0  0  0  0  0  0  0  0  0  0  0  0
   -5.1040    1.0830    0.7660 C   0  0  0  0  0  0  0  0  0  0  0  0
   -4.2770   -0.1300    0.3980 C   0  0  1  0  0  0  0  0  0  0  0  0
   -4.6210   -0.6500   -0.9470 C   0  0  0  0  0  0  0  0  0  0  0  0
   -3.8290   -0.6050   -1.9310 O   0  0  0  0  0  0  0  0  0  0  0  0
   -5.8610   -1.2240   -1.1870 O   0  0  0  0  0  0  0  0  0  0  0  0
   -2.9180    1.5230   -1.3760 H   0  0  0  0  0  0  0  0  0  0  0  0
   -2.4020    2.4830    0.1160 H   0  0  0  0  0  0  0  0  0  0  0  0
   -4.5220    3.1590    0.4080 H   0  0  0  0  0  0  0  0  0  0  0  0
   -5.0190    2.2500   -1.0270 H   0  0  0  0  0  0  0  0  0  0  0  0
   -6.1740    0.9430    0.5940 H   0  0  0  0  0  0  0  0  0  0  0  0
   -4.9000    1.2850    1.8490 H   0  0  0  0  0  0  0  0  0  0  0  0
   -4.4510   -0.9140    1.1320 H   0  0  0  0  0  0  0  0  0  0  0  0
  1 11  1  0  0  0  0
  1 10  1  0  0  0  0
  1  2  1  0  0  0  0
  2  3  1  0  0  0  0
  2 12  1  1  0  0  0
  3 13  1  0  0  0  0
  3 14  1  0  0  0  0
  4 16  1  0  0  0  0
  4  3  1  0  0  0  0
  5 17  1  0  0  0  0
  5  4  1  0  0  0  0
  6  7  1  0  0  0  0
  6  5  1  0  0  0  0
  7 21  1  0  0  0  0
  8 23  1  0  0  0  0
  8  2  1  0  0  0  0
  9  8  2  0  0  0  0
 15  4  1  0  0  0  0
 18  5  1  0  0  0  0
 19  6  1  0  0  0  0
 20  6  1  0  0  0  0
 22  7  1  0  0  0  0
 23 29  1  0  0  0  0
 24 30  1  1  0  0  0
 24 23  1  0  0  0  0
 25 26  1  0  0  0  0
 25 24  1  0  0  0  0
 26 33  1  0  0  0  0
 27 24  1  0  0  0  0
 27 28  2  0  0  0  0
 31 25  1  0  0  0  0
 32 25  1  0  0  0  0
 34 27  1  0  0  0  0
 35 36  1  0  0  0  0
 35 43  1  0  0  0  0
 35 34  1  0  0  0  0
 36 44  1  0  0  0  0
 36 37  1  0  0  0  0
 37 47  1  0  0  0  0
 38 34  1  0  0  0  0
 38 37  1  0  0  0  0
 38 48  1  1  0  0  0
 39 38  1  0  0  0  0
 40 39  2  0  0  0  0
 41 39  1  0  0  0  0
 42 35  1  0  0  0  0
 45 36  1  0  0  0  0
 46 37  1  0  0  0  0
M  END
$$$$
