KCQ.pdb
 OpenBabel07022418503D

 51 50  0  0  1  0  0  0  0  0999 V2000
    3.1350   -0.9270    3.4330 N   0  0  0  0  0  0  0  0  0  0  0  0
    2.5880   -0.6190    2.1240 C   0  0  1  0  0  0  0  0  0  0  0  0
    1.7840   -1.8010    1.6360 C   0  0  0  0  0  0  0  0  0  0  0  0
    2.5990   -3.0500    1.5130 C   0  0  0  0  0  0  0  0  0  0  0  0
    3.7500   -2.9060    0.5440 C   0  0  0  0  0  0  0  0  0  0  0  0
    4.4700   -4.2610    0.5410 C   0  0  0  0  0  0  0  0  0  0  0  0
    4.9500   -4.5730    1.8750 N   0  0  0  0  0  0  0  0  0  0  0  0
    1.6270    0.5110    2.3170 C   0  0  0  0  0  0  0  0  0  0  0  0
    1.4020    1.0290    3.4390 O   0  0  0  0  0  0  0  0  0  0  0  0
    2.3170   -1.0740    4.0680 H   0  0  0  0  0  0  0  0  0  0  0  0
    3.6840   -1.8110    3.4440 H   0  0  0  0  0  0  0  0  0  0  0  0
    3.4130   -0.3550    1.4670 H   0  0  0  0  0  0  0  0  0  0  0  0
    1.3120   -1.5980    0.6640 H   0  0  0  0  0  0  0  0  0  0  0  0
    0.9640   -2.0070    2.3540 H   0  0  0  0  0  0  0  0  0  0  0  0
    1.9270   -3.8330    1.0800 H   0  0  0  0  0  0  0  0  0  0  0  0
    2.9260   -3.4480    2.4920 H   0  0  0  0  0  0  0  0  0  0  0  0
    3.4200   -2.7280   -0.4810 H   0  0  0  0  0  0  0  0  0  0  0  0
    4.4840   -2.1560    0.8310 H   0  0  0  0  0  0  0  0  0  0  0  0
    5.3610   -4.2050   -0.1210 H   0  0  0  0  0  0  0  0  0  0  0  0
    3.7660   -5.0450    0.2160 H   0  0  0  0  0  0  0  0  0  0  0  0
    4.3100   -5.2760    2.3160 H   0  0  0  0  0  0  0  0  0  0  0  0
    4.9780   -3.7180    2.4790 H   0  0  0  0  0  0  0  0  0  0  0  0
    0.9470    1.0120    1.1890 N   0  0  0  0  0  0  0  0  0  0  0  0
    0.0020    2.0860    1.2220 C   0  0  1  0  0  0  0  0  0  0  0  0
    0.5680    3.2420    0.4310 C   0  0  0  0  0  0  0  0  0  0  0  0
    2.1400    3.7160    1.2340 S   0  0  0  0  0  0  0  0  0  0  0  0
   -1.3470    1.6840    0.7590 C   0  0  0  0  0  0  0  0  0  0  0  0
   -2.2580    2.5500    0.7470 O   0  0  0  0  0  0  0  0  0  0  0  0
    1.1380    0.5730    0.2450 H   0  0  0  0  0  0  0  0  0  0  0  0
   -0.0800    2.4280    2.2800 H   0  0  0  0  0  0  0  0  0  0  0  0
    0.8200    2.9290   -0.6130 H   0  0  0  0  0  0  0  0  0  0  0  0
   -0.0820    4.1320    0.4410 H   0  0  0  0  0  0  0  0  0  0  0  0
    2.6160    4.9230    0.6570 H   0  0  0  0  0  0  0  0  0  0  0  0
   -6.5260    0.0440   -2.4790 N   0  0  0  0  0  0  0  0  0  0  0  0
   -5.1500    0.2270   -2.1460 C   0  0  0  0  0  0  0  0  0  0  0  0
   -4.7280    1.3780   -1.9410 O   0  0  0  0  0  0  0  0  0  0  0  0
   -4.2310   -0.9450   -2.0470 C   0  0  0  0  0  0  0  0  0  0  0  0
   -2.9060   -0.5540   -1.4880 C   0  0  0  0  0  0  0  0  0  0  0  0
   -2.9990    0.0120   -0.1200 C   0  0  2  0  0  0  0  0  0  0  0  0
   -1.6320    0.3830    0.3400 N   0  0  0  0  0  0  0  0  0  0  0  0
   -3.5380   -1.0140    0.8160 C   0  0  0  0  0  0  0  0  0  0  0  0
   -4.6850   -1.4990    0.7760 O   0  0  0  0  0  0  0  0  0  0  0  0
   -2.7220   -1.5160    1.8560 O   0  0  0  0  0  0  0  0  0  0  0  0
   -7.2540    0.4660   -1.8770 H   0  0  0  0  0  0  0  0  0  0  0  0
   -6.7450   -0.5140   -3.3230 H   0  0  0  0  0  0  0  0  0  0  0  0
   -4.0680   -1.3650   -3.0940 H   0  0  0  0  0  0  0  0  0  0  0  0
   -4.7310   -1.7060   -1.4270 H   0  0  0  0  0  0  0  0  0  0  0  0
   -2.3910    0.1450   -2.2090 H   0  0  0  0  0  0  0  0  0  0  0  0
   -2.2600   -1.4870   -1.4590 H   0  0  0  0  0  0  0  0  0  0  0  0
   -3.5980    0.9090   -0.0420 H   0  0  0  0  0  0  0  0  0  0  0  0
   -0.9270   -0.3830    0.3240 H   0  0  0  0  0  0  0  0  0  0  0  0
  1 11  1  0  0  0  0
  1 10  1  0  0  0  0
  2 12  1  6  0  0  0
  2  8  1  0  0  0  0
  2  1  1  0  0  0  0
  3  2  1  0  0  0  0
  3 14  1  0  0  0  0
  4  3  1  0  0  0  0
  4 16  1  0  0  0  0
  5 18  1  0  0  0  0
  5  4  1  0  0  0  0
  6  5  1  0  0  0  0
  6  7  1  0  0  0  0
  7 21  1  0  0  0  0
  7 22  1  0  0  0  0
  8  9  2  0  0  0  0
 13  3  1  0  0  0  0
 15  4  1  0  0  0  0
 17  5  1  0  0  0  0
 19  6  1  0  0  0  0
 20  6  1  0  0  0  0
 23 24  1  0  0  0  0
 23  8  1  0  0  0  0
 24 30  1  1  0  0  0
 25 32  1  0  0  0  0
 25 24  1  0  0  0  0
 25 26  1  0  0  0  0
 27 24  1  0  0  0  0
 28 27  2  0  0  0  0
 29 23  1  0  0  0  0
 31 25  1  0  0  0  0
 33 26  1  0  0  0  0
 34 35  1  0  0  0  0
 34 44  1  0  0  0  0
 35 37  1  0  0  0  0
 35 36  2  0  0  0  0
 37 38  1  0  0  0  0
 37 47  1  0  0  0  0
 38 49  1  0  0  0  0
 38 39  1  0  0  0  0
 39 50  1  6  0  0  0
 39 40  1  0  0  0  0
 39 41  1  0  0  0  0
 40 27  1  0  0  0  0
 41 43  1  0  0  0  0
 42 41  2  0  0  0  0
 45 34  1  0  0  0  0
 46 37  1  0  0  0  0
 48 38  1  0  0  0  0
 51 40  1  0  0  0  0
M  END
$$$$
