KCR.pdb
 OpenBabel07022418503D

 57 56  0  0  1  0  0  0  0  0999 V2000
    1.2650    1.7150    4.6390 N   0  0  0  0  0  0  0  0  0  0  0  0
    1.9380    1.4020    3.3560 C   0  0  1  0  0  0  0  0  0  0  0  0
    2.5920    0.0770    3.5960 C   0  0  0  0  0  0  0  0  0  0  0  0
    3.3450   -0.4730    2.4360 C   0  0  0  0  0  0  0  0  0  0  0  0
    3.9980   -1.8020    2.7570 C   0  0  0  0  0  0  0  0  0  0  0  0
    4.9760   -1.7070    3.8890 C   0  0  0  0  0  0  0  0  0  0  0  0
    5.5320   -3.0520    4.0910 N   0  0  0  0  0  0  0  0  0  0  0  0
    0.8720    1.3870    2.3250 C   0  0  0  0  0  0  0  0  0  0  0  0
   -0.3690    1.4280    2.6560 O   0  0  0  0  0  0  0  0  0  0  0  0
    1.9440    1.6510    5.4320 H   0  0  0  0  0  0  0  0  0  0  0  0
    0.5580    0.9490    4.8390 H   0  0  0  0  0  0  0  0  0  0  0  0
    2.6730    2.2160    3.1890 H   0  0  0  0  0  0  0  0  0  0  0  0
    1.7800   -0.6290    3.9140 H   0  0  0  0  0  0  0  0  0  0  0  0
    3.2280    0.1990    4.5060 H   0  0  0  0  0  0  0  0  0  0  0  0
    4.0780    0.2410    2.0570 H   0  0  0  0  0  0  0  0  0  0  0  0
    2.5560   -0.7580    1.6710 H   0  0  0  0  0  0  0  0  0  0  0  0
    4.5740   -2.0990    1.8470 H   0  0  0  0  0  0  0  0  0  0  0  0
    3.2490   -2.5670    2.9540 H   0  0  0  0  0  0  0  0  0  0  0  0
    5.8420   -1.0540    3.6570 H   0  0  0  0  0  0  0  0  0  0  0  0
    4.5020   -1.4210    4.8490 H   0  0  0  0  0  0  0  0  0  0  0  0
    4.8150   -3.7610    3.7540 H   0  0  0  0  0  0  0  0  0  0  0  0
    6.3870   -3.1820    3.4800 H   0  0  0  0  0  0  0  0  0  0  0  0
    1.1670    1.3280    0.9370 N   0  0  0  0  0  0  0  0  0  0  0  0
    0.0600    1.3140   -0.0240 C   0  0  1  0  0  0  0  0  0  0  0  0
    0.2160    2.5000   -0.9310 C   0  0  0  0  0  0  0  0  0  0  0  0
   -1.0820    2.6090   -2.1480 S   0  0  0  0  0  0  0  0  0  0  0  0
    0.0710    0.0630   -0.8060 C   0  0  0  0  0  0  0  0  0  0  0  0
    1.0530   -0.7370   -0.6250 O   0  0  0  0  0  0  0  0  0  0  0  0
    2.1620    1.3050    0.6250 H   0  0  0  0  0  0  0  0  0  0  0  0
   -0.8850    1.3710    0.5170 H   0  0  0  0  0  0  0  0  0  0  0  0
    0.1950    3.4210   -0.2970 H   0  0  0  0  0  0  0  0  0  0  0  0
    1.2130    2.4710   -1.4000 H   0  0  0  0  0  0  0  0  0  0  0  0
   -2.3430    2.7370   -1.5800 H   0  0  0  0  0  0  0  0  0  0  0  0
   -4.7590   -2.2710    1.3840 N   0  0  0  0  0  0  0  0  0  0  0  0
   -4.9690   -2.0420   -0.0060 C   0  0  0  0  0  0  0  0  0  0  0  0
   -5.4780   -0.9440   -0.4210 N   0  0  0  0  0  0  0  0  0  0  0  0
   -4.6000   -3.0660   -0.9450 N   0  0  0  0  0  0  0  0  0  0  0  0
   -4.4280   -2.7500   -2.3300 C   0  0  0  0  0  0  0  0  0  0  0  0
   -3.2290   -1.8690   -2.6100 C   0  0  0  0  0  0  0  0  0  0  0  0
   -1.9430   -2.5260   -2.1690 C   0  0  0  0  0  0  0  0  0  0  0  0
   -0.7620   -1.6310   -2.4540 C   0  0  2  0  0  0  0  0  0  0  0  0
   -0.8910   -0.3570   -1.7380 N   0  0  0  0  0  0  0  0  0  0  0  0
   -0.6740   -1.3350   -3.9210 C   0  0  0  0  0  0  0  0  0  0  0  0
   -0.5560   -2.2830   -4.7520 O   0  0  0  0  0  0  0  0  0  0  0  0
   -0.7170   -0.0480   -4.4100 O   0  0  0  0  0  0  0  0  0  0  0  0
   -4.7390   -3.2210    1.7750 H   0  0  0  0  0  0  0  0  0  0  0  0
   -4.6260   -1.4440    2.0030 H   0  0  0  0  0  0  0  0  0  0  0  0
   -5.6470   -0.7350   -1.4140 H   0  0  0  0  0  0  0  0  0  0  0  0
   -4.4640   -4.0430   -0.5680 H   0  0  0  0  0  0  0  0  0  0  0  0
   -5.3250   -2.2660   -2.7200 H   0  0  0  0  0  0  0  0  0  0  0  0
   -4.3340   -3.7270   -2.8880 H   0  0  0  0  0  0  0  0  0  0  0  0
   -3.3760   -0.8880   -2.1570 H   0  0  0  0  0  0  0  0  0  0  0  0
   -3.1630   -1.7560   -3.7130 H   0  0  0  0  0  0  0  0  0  0  0  0
   -1.9290   -2.7330   -1.0780 H   0  0  0  0  0  0  0  0  0  0  0  0
   -1.8700   -3.4940   -2.6930 H   0  0  0  0  0  0  0  0  0  0  0  0
    0.1520   -2.1760   -2.1820 H   0  0  0  0  0  0  0  0  0  0  0  0
   -1.7070    0.2330   -1.9220 H   0  0  0  0  0  0  0  0  0  0  0  0
  1 11  1  0  0  0  0
  1 10  1  0  0  0  0
  2 12  1  6  0  0  0
  2  3  1  0  0  0  0
  2  1  1  0  0  0  0
  3 13  1  0  0  0  0
  3 14  1  0  0  0  0
  4  5  1  0  0  0  0
  4  3  1  0  0  0  0
  5 18  1  0  0  0  0
  5  6  1  0  0  0  0
  6  7  1  0  0  0  0
  6 20  1  0  0  0  0
  8  9  2  0  0  0  0
  8  2  1  0  0  0  0
 15  4  1  0  0  0  0
 16  4  1  0  0  0  0
 17  5  1  0  0  0  0
 19  6  1  0  0  0  0
 21  7  1  0  0  0  0
 22  7  1  0  0  0  0
 23  8  1  0  0  0  0
 24 30  1  1  0  0  0
 24 23  1  0  0  0  0
 25 31  1  0  0  0  0
 25 24  1  0  0  0  0
 26 33  1  0  0  0  0
 26 25  1  0  0  0  0
 27 28  2  0  0  0  0
 27 24  1  0  0  0  0
 29 23  1  0  0  0  0
 32 25  1  0  0  0  0
 34 46  1  0  0  0  0
 34 47  1  0  0  0  0
 35 34  1  0  0  0  0
 36 35  2  0  0  0  0
 37 49  1  0  0  0  0
 37 35  1  0  0  0  0
 38 37  1  0  0  0  0
 39 38  1  0  0  0  0
 39 40  1  0  0  0  0
 39 52  1  0  0  0  0
 40 54  1  0  0  0  0
 41 56  1  1  0  0  0
 41 40  1  0  0  0  0
 41 42  1  0  0  0  0
 42 27  1  0  0  0  0
 43 41  1  0  0  0  0
 44 43  2  0  0  0  0
 45 43  1  0  0  0  0
 48 36  1  0  0  0  0
 50 38  1  0  0  0  0
 51 38  1  0  0  0  0
 53 39  1  0  0  0  0
 55 40  1  0  0  0  0
 57 42  1  0  0  0  0
M  END
$$$$
