KCT.pdb
 OpenBabel07022418503D

 48 47  0  0  1  0  0  0  0  0999 V2000
    1.3980   -3.3140    3.9170 N   0  0  0  0  0  0  0  0  0  0  0  0
    1.6360   -2.1910    3.0160 C   0  0  1  0  0  0  0  0  0  0  0  0
    2.0460   -2.6880    1.6870 C   0  0  0  0  0  0  0  0  0  0  0  0
    1.1160   -3.5800    0.9610 C   0  0  0  0  0  0  0  0  0  0  0  0
   -0.2240   -2.9810    0.6450 C   0  0  0  0  0  0  0  0  0  0  0  0
   -1.1040   -3.9880   -0.1140 C   0  0  0  0  0  0  0  0  0  0  0  0
   -0.4830   -4.3720   -1.3450 N   0  0  0  0  0  0  0  0  0  0  0  0
    0.5780   -1.2010    3.0940 C   0  0  0  0  0  0  0  0  0  0  0  0
   -0.3920   -1.3770    3.8880 O   0  0  0  0  0  0  0  0  0  0  0  0
    0.8180   -2.9130    4.7130 H   0  0  0  0  0  0  0  0  0  0  0  0
    0.7430   -3.9540    3.3950 H   0  0  0  0  0  0  0  0  0  0  0  0
    2.5760   -1.6900    3.4500 H   0  0  0  0  0  0  0  0  0  0  0  0
    2.9980   -3.2840    1.8480 H   0  0  0  0  0  0  0  0  0  0  0  0
    2.3700   -1.8750    0.9930 H   0  0  0  0  0  0  0  0  0  0  0  0
    0.9840   -4.5800    1.4520 H   0  0  0  0  0  0  0  0  0  0  0  0
    1.5680   -3.8450   -0.0400 H   0  0  0  0  0  0  0  0  0  0  0  0
   -0.7250   -2.7060    1.5690 H   0  0  0  0  0  0  0  0  0  0  0  0
   -0.0450   -2.1640   -0.0700 H   0  0  0  0  0  0  0  0  0  0  0  0
   -1.3590   -4.8500    0.5380 H   0  0  0  0  0  0  0  0  0  0  0  0
   -2.0490   -3.4510   -0.3230 H   0  0  0  0  0  0  0  0  0  0  0  0
    0.0160   -5.2930   -1.3020 H   0  0  0  0  0  0  0  0  0  0  0  0
    0.2410   -3.6830   -1.6770 H   0  0  0  0  0  0  0  0  0  0  0  0
    0.5420   -0.0050    2.3260 N   0  0  0  0  0  0  0  0  0  0  0  0
   -0.5300    0.9550    2.4450 C   0  0  1  0  0  0  0  0  0  0  0  0
   -0.0120    2.1530    3.2410 C   0  0  0  0  0  0  0  0  0  0  0  0
    0.5070    1.5850    4.8680 S   0  0  0  0  0  0  0  0  0  0  0  0
   -1.1310    1.3870    1.1910 C   0  0  0  0  0  0  0  0  0  0  0  0
   -2.0950    2.2240    1.1590 O   0  0  0  0  0  0  0  0  0  0  0  0
    1.3100    0.2130    1.6410 H   0  0  0  0  0  0  0  0  0  0  0  0
   -1.3220    0.5160    3.1170 H   0  0  0  0  0  0  0  0  0  0  0  0
    0.8040    2.6740    2.7460 H   0  0  0  0  0  0  0  0  0  0  0  0
   -0.8730    2.8410    3.3730 H   0  0  0  0  0  0  0  0  0  0  0  0
    1.7190    2.1330    5.2880 H   0  0  0  0  0  0  0  0  0  0  0  0
    0.1990    3.3530   -1.6020 C   0  0  0  0  0  0  0  0  0  0  0  0
   -0.2380    2.0370   -2.1500 C   0  0  1  0  0  0  0  0  0  0  0  0
    0.8480    1.2290   -2.4500 O   0  0  0  0  0  0  0  0  0  0  0  0
   -1.2630    1.3300   -1.3000 C   0  0  2  0  0  0  0  0  0  0  0  0
   -0.6810    0.9070   -0.0460 N   0  0  0  0  0  0  0  0  0  0  0  0
   -1.9040    0.2710   -2.0710 C   0  0  0  0  0  0  0  0  0  0  0  0
   -2.4260    0.5540   -3.1770 O   0  0  0  0  0  0  0  0  0  0  0  0
   -1.9690   -1.0420   -1.6460 O   0  0  0  0  0  0  0  0  0  0  0  0
   -0.6100    4.1200   -1.6870 H   0  0  0  0  0  0  0  0  0  0  0  0
    0.6360    3.2990   -0.5930 H   0  0  0  0  0  0  0  0  0  0  0  0
    1.0400    3.7070   -2.2680 H   0  0  0  0  0  0  0  0  0  0  0  0
   -0.7470    2.2500   -3.1360 H   0  0  0  0  0  0  0  0  0  0  0  0
    0.6640    0.5680   -3.1630 H   0  0  0  0  0  0  0  0  0  0  0  0
   -2.0390    2.1110   -1.0410 H   0  0  0  0  0  0  0  0  0  0  0  0
    0.1140    0.2090   -0.1440 H   0  0  0  0  0  0  0  0  0  0  0  0
  1 10  1  0  0  0  0
  2  8  1  0  0  0  0
  2 12  1  1  0  0  0
  2  1  1  0  0  0  0
  3 13  1  0  0  0  0
  3  2  1  0  0  0  0
  4 15  1  0  0  0  0
  4  3  1  0  0  0  0
  5  4  1  0  0  0  0
  5 17  1  0  0  0  0
  6 19  1  0  0  0  0
  6  5  1  0  0  0  0
  7 21  1  0  0  0  0
  7  6  1  0  0  0  0
  8  9  2  0  0  0  0
 11  1  1  0  0  0  0
 14  3  1  0  0  0  0
 16  4  1  0  0  0  0
 18  5  1  0  0  0  0
 20  6  1  0  0  0  0
 22  7  1  0  0  0  0
 23 24  1  0  0  0  0
 23  8  1  0  0  0  0
 24 30  1  1  0  0  0
 24 25  1  0  0  0  0
 25 32  1  0  0  0  0
 25 26  1  0  0  0  0
 26 33  1  0  0  0  0
 27 24  1  0  0  0  0
 28 27  2  0  0  0  0
 29 23  1  0  0  0  0
 31 25  1  0  0  0  0
 34 43  1  0  0  0  0
 35 45  1  6  0  0  0
 35 34  1  0  0  0  0
 35 37  1  0  0  0  0
 36 35  1  0  0  0  0
 37 47  1  1  0  0  0
 37 38  1  0  0  0  0
 38 27  1  0  0  0  0
 39 41  1  0  0  0  0
 39 37  1  0  0  0  0
 40 39  2  0  0  0  0
 42 34  1  0  0  0  0
 44 34  1  0  0  0  0
 46 36  1  0  0  0  0
 48 38  1  0  0  0  0
M  END
$$$$
