KCV.pdb
 OpenBabel07022418503D

 50 49  0  0  1  0  0  0  0  0999 V2000
    2.5450   -3.0910    3.4670 N   0  0  0  0  0  0  0  0  0  0  0  0
    2.1500   -1.7630    3.1240 C   0  0  1  0  0  0  0  0  0  0  0  0
    2.6280   -1.3560    1.7590 C   0  0  0  0  0  0  0  0  0  0  0  0
    2.0790   -2.2720    0.6660 C   0  0  0  0  0  0  0  0  0  0  0  0
    2.6620   -1.7160   -0.6390 C   0  0  0  0  0  0  0  0  0  0  0  0
    2.2080   -2.5230   -1.8260 C   0  0  0  0  0  0  0  0  0  0  0  0
    2.6570   -3.9030   -1.6540 N   0  0  0  0  0  0  0  0  0  0  0  0
    0.7110   -1.5700    3.3300 C   0  0  0  0  0  0  0  0  0  0  0  0
    0.0210   -2.5480    3.7650 O   0  0  0  0  0  0  0  0  0  0  0  0
    3.4280   -3.4020    3.0100 H   0  0  0  0  0  0  0  0  0  0  0  0
    1.7850   -3.8020    3.4110 H   0  0  0  0  0  0  0  0  0  0  0  0
    2.6690   -1.0690    3.8490 H   0  0  0  0  0  0  0  0  0  0  0  0
    3.7330   -1.4320    1.7030 H   0  0  0  0  0  0  0  0  0  0  0  0
    2.3800   -0.2990    1.5450 H   0  0  0  0  0  0  0  0  0  0  0  0
    0.9870   -2.2420    0.6020 H   0  0  0  0  0  0  0  0  0  0  0  0
    2.4520   -3.2920    0.7690 H   0  0  0  0  0  0  0  0  0  0  0  0
    2.3490   -0.6580   -0.7830 H   0  0  0  0  0  0  0  0  0  0  0  0
    3.7660   -1.8100   -0.5760 H   0  0  0  0  0  0  0  0  0  0  0  0
    1.1200   -2.4890   -1.9250 H   0  0  0  0  0  0  0  0  0  0  0  0
    2.7370   -2.1310   -2.7140 H   0  0  0  0  0  0  0  0  0  0  0  0
    3.3030   -4.2050   -2.4150 H   0  0  0  0  0  0  0  0  0  0  0  0
    1.8630   -4.5760   -1.6190 H   0  0  0  0  0  0  0  0  0  0  0  0
    0.0240   -0.3600    3.0760 N   0  0  0  0  0  0  0  0  0  0  0  0
   -1.3770   -0.2670    3.3080 C   0  0  1  0  0  0  0  0  0  0  0  0
   -1.6110    0.7340    4.4210 C   0  0  0  0  0  0  0  0  0  0  0  0
   -0.9380    2.3280    3.8760 S   0  0  0  0  0  0  0  0  0  0  0  0
   -2.1700    0.0500    2.1030 C   0  0  0  0  0  0  0  0  0  0  0  0
   -3.4100    0.1540    2.2180 O   0  0  0  0  0  0  0  0  0  0  0  0
    0.5630    0.4550    2.7180 H   0  0  0  0  0  0  0  0  0  0  0  0
   -1.7500   -1.2390    3.6860 H   0  0  0  0  0  0  0  0  0  0  0  0
   -1.0100    0.3950    5.2940 H   0  0  0  0  0  0  0  0  0  0  0  0
   -2.6540    0.8010    4.7310 H   0  0  0  0  0  0  0  0  0  0  0  0
    0.3380    2.5420    4.4290 H   0  0  0  0  0  0  0  0  0  0  0  0
   -0.5960    1.7530   -1.6210 C   0  0  0  0  0  0  0  0  0  0  0  0
   -2.0180    1.7800   -1.1060 C   0  0  0  0  0  0  0  0  0  0  0  0
   -2.9260    1.9190   -2.3040 C   0  0  0  0  0  0  0  0  0  0  0  0
   -2.4060    0.5610   -0.3660 C   0  0  2  0  0  0  0  0  0  0  0  0
   -1.6470    0.2520    0.8080 N   0  0  0  0  0  0  0  0  0  0  0  0
   -2.2720   -0.6010   -1.2900 C   0  0  0  0  0  0  0  0  0  0  0  0
   -2.8260   -0.6780   -2.4160 O   0  0  0  0  0  0  0  0  0  0  0  0
   -1.4970   -1.7010   -0.9390 O   0  0  0  0  0  0  0  0  0  0  0  0
   -0.4140    0.7370   -2.0530 H   0  0  0  0  0  0  0  0  0  0  0  0
    0.1460    2.0070   -0.8420 H   0  0  0  0  0  0  0  0  0  0  0  0
   -0.5550    2.4510   -2.4910 H   0  0  0  0  0  0  0  0  0  0  0  0
   -2.1340    2.7290   -0.5440 H   0  0  0  0  0  0  0  0  0  0  0  0
   -3.8730    1.3650   -2.1070 H   0  0  0  0  0  0  0  0  0  0  0  0
   -3.1760    2.9910   -2.4830 H   0  0  0  0  0  0  0  0  0  0  0  0
   -2.4500    1.4610   -3.1960 H   0  0  0  0  0  0  0  0  0  0  0  0
   -3.4790    0.6270   -0.0950 H   0  0  0  0  0  0  0  0  0  0  0  0
   -0.6110    0.1670    0.7000 H   0  0  0  0  0  0  0  0  0  0  0  0
  2  8  1  0  0  0  0
  2  1  1  0  0  0  0
  2 12  1  1  0  0  0
  3  2  1  0  0  0  0
  4 16  1  0  0  0  0
  4  3  1  0  0  0  0
  5 18  1  0  0  0  0
  5  4  1  0  0  0  0
  6  7  1  0  0  0  0
  6  5  1  0  0  0  0
  7 22  1  0  0  0  0
  8  9  2  0  0  0  0
 10  1  1  0  0  0  0
 11  1  1  0  0  0  0
 13  3  1  0  0  0  0
 14  3  1  0  0  0  0
 15  4  1  0  0  0  0
 17  5  1  0  0  0  0
 19  6  1  0  0  0  0
 20  6  1  0  0  0  0
 21  7  1  0  0  0  0
 23 24  1  0  0  0  0
 23  8  1  0  0  0  0
 24 30  1  1  0  0  0
 24 25  1  0  0  0  0
 25 32  1  0  0  0  0
 25 31  1  0  0  0  0
 26 25  1  0  0  0  0
 26 33  1  0  0  0  0
 27 28  2  0  0  0  0
 27 24  1  0  0  0  0
 29 23  1  0  0  0  0
 34 35  1  0  0  0  0
 34 43  1  0  0  0  0
 35 45  1  0  0  0  0
 35 37  1  0  0  0  0
 36 46  1  0  0  0  0
 36 35  1  0  0  0  0
 37 49  1  1  0  0  0
 37 38  1  0  0  0  0
 38 27  1  0  0  0  0
 39 41  1  0  0  0  0
 39 37  1  0  0  0  0
 40 39  2  0  0  0  0
 42 34  1  0  0  0  0
 44 34  1  0  0  0  0
 47 36  1  0  0  0  0
 48 36  1  0  0  0  0
 50 38  1  0  0  0  0
M  END
$$$$
