KCW.pdb
 OpenBabel07022418503D

 58 59  0  0  1  0  0  0  0  0999 V2000
   -0.3080    2.0990    4.5840 N   0  0  0  0  0  0  0  0  0  0  0  0
   -0.5750    2.3310    3.2020 C   0  0  1  0  0  0  0  0  0  0  0  0
    0.6640    2.7390    2.4790 C   0  0  0  0  0  0  0  0  0  0  0  0
    1.7880    1.7600    2.5110 C   0  0  0  0  0  0  0  0  0  0  0  0
    2.9400    2.3890    1.7240 C   0  0  0  0  0  0  0  0  0  0  0  0
    4.1030    1.3950    1.7440 C   0  0  0  0  0  0  0  0  0  0  0  0
    5.2100    1.9650    1.0070 N   0  0  0  0  0  0  0  0  0  0  0  0
   -1.3310    1.2240    2.6080 C   0  0  0  0  0  0  0  0  0  0  0  0
   -1.6640    1.1590    1.4120 O   0  0  0  0  0  0  0  0  0  0  0  0
   -1.1340    2.0920    5.1870 H   0  0  0  0  0  0  0  0  0  0  0  0
    0.2760    1.2710    4.7880 H   0  0  0  0  0  0  0  0  0  0  0  0
   -1.2630    3.2260    3.1550 H   0  0  0  0  0  0  0  0  0  0  0  0
    1.0360    3.6660    3.0020 H   0  0  0  0  0  0  0  0  0  0  0  0
    0.4370    3.0710    1.4400 H   0  0  0  0  0  0  0  0  0  0  0  0
    1.5540    0.7840    2.0520 H   0  0  0  0  0  0  0  0  0  0  0  0
    2.1680    1.5720    3.5410 H   0  0  0  0  0  0  0  0  0  0  0  0
    2.6460    2.6290    0.6840 H   0  0  0  0  0  0  0  0  0  0  0  0
    3.2700    3.3240    2.2020 H   0  0  0  0  0  0  0  0  0  0  0  0
    3.7640    0.4690    1.1940 H   0  0  0  0  0  0  0  0  0  0  0  0
    4.3490    1.1310    2.7800 H   0  0  0  0  0  0  0  0  0  0  0  0
    4.8630    2.6610    0.2990 H   0  0  0  0  0  0  0  0  0  0  0  0
    5.7100    1.1950    0.5060 H   0  0  0  0  0  0  0  0  0  0  0  0
   -1.7140    0.1410    3.4730 N   0  0  0  0  0  0  0  0  0  0  0  0
   -2.4500   -1.0110    3.0850 C   0  0  1  0  0  0  0  0  0  0  0  0
   -3.9240   -0.6990    3.0810 C   0  0  0  0  0  0  0  0  0  0  0  0
   -4.3350    0.6260    1.9340 S   0  0  0  0  0  0  0  0  0  0  0  0
   -1.9770   -1.7540    1.9180 C   0  0  0  0  0  0  0  0  0  0  0  0
   -2.7490   -2.6490    1.4120 O   0  0  0  0  0  0  0  0  0  0  0  0
   -1.4230    0.2060    4.5060 H   0  0  0  0  0  0  0  0  0  0  0  0
   -2.3430   -1.7250    4.0120 H   0  0  0  0  0  0  0  0  0  0  0  0
   -4.1480   -0.3230    4.1240 H   0  0  0  0  0  0  0  0  0  0  0  0
   -4.5360   -1.6100    2.9140 H   0  0  0  0  0  0  0  0  0  0  0  0
   -5.1550    0.1270    0.8990 H   0  0  0  0  0  0  0  0  0  0  0  0
   -0.7410   -1.5790    1.2980 N   0  0  0  0  0  0  0  0  0  0  0  0
   -0.3300   -2.3580    0.1160 C   0  0  1  0  0  0  0  0  0  0  0  0
   -0.1590   -1.4490   -1.0770 C   0  0  0  0  0  0  0  0  0  0  0  0
    0.2560   -2.1980   -2.2860 C   0  0  0  0  0  0  0  0  0  0  0  0
    1.5210   -2.2300   -2.8340 C   0  0  0  0  0  0  0  0  0  0  0  0
    1.4790   -3.0230   -3.9260 N   0  0  0  0  0  0  0  0  0  0  0  0
    0.2320   -3.5010   -4.0980 C   0  0  0  0  0  0  0  0  0  0  0  0
   -0.2770   -4.3350   -5.0620 C   0  0  0  0  0  0  0  0  0  0  0  0
   -1.6120   -4.6680   -4.9960 C   0  0  0  0  0  0  0  0  0  0  0  0
   -2.4360   -4.1890   -3.9990 C   0  0  0  0  0  0  0  0  0  0  0  0
   -1.8880   -3.3530   -3.0480 C   0  0  0  0  0  0  0  0  0  0  0  0
   -0.5570   -2.9910   -3.0720 C   0  0  0  0  0  0  0  0  0  0  0  0
    0.8610   -3.1620    0.3960 C   0  0  0  0  0  0  0  0  0  0  0  0
    1.4080   -3.1330    1.5470 O   0  0  0  0  0  0  0  0  0  0  0  0
    1.4700   -3.9910   -0.5300 O   0  0  0  0  0  0  0  0  0  0  0  0
   -0.0560   -0.8910    1.6770 H   0  0  0  0  0  0  0  0  0  0  0  0
   -1.1740   -3.0400   -0.1020 H   0  0  0  0  0  0  0  0  0  0  0  0
   -1.0920   -0.9080   -1.3200 H   0  0  0  0  0  0  0  0  0  0  0  0
    0.5920   -0.6440   -0.8440 H   0  0  0  0  0  0  0  0  0  0  0  0
    2.4300   -1.7340   -2.5010 H   0  0  0  0  0  0  0  0  0  0  0  0
    2.2830   -3.2460   -4.5570 H   0  0  0  0  0  0  0  0  0  0  0  0
    0.3300   -4.7290   -5.8550 H   0  0  0  0  0  0  0  0  0  0  0  0
   -2.0160   -5.3320   -5.7620 H   0  0  0  0  0  0  0  0  0  0  0  0
   -3.4820   -4.4640   -3.9650 H   0  0  0  0  0  0  0  0  0  0  0  0
   -2.5200   -2.9560   -2.2410 H   0  0  0  0  0  0  0  0  0  0  0  0
  1 11  1  0  0  0  0
  1 10  1  0  0  0  0
  2 12  1  6  0  0  0
  2  1  1  0  0  0  0
  3  4  1  0  0  0  0
  3 13  1  0  0  0  0
  3  2  1  0  0  0  0
  4 16  1  0  0  0  0
  5  6  1  0  0  0  0
  5 18  1  0  0  0  0
  5  4  1  0  0  0  0
  6 20  1  0  0  0  0
  7  6  1  0  0  0  0
  8  2  1  0  0  0  0
  8 23  1  0  0  0  0
  9  8  2  0  0  0  0
 14  3  1  0  0  0  0
 15  4  1  0  0  0  0
 17  5  1  0  0  0  0
 19  6  1  0  0  0  0
 21  7  1  0  0  0  0
 22  7  1  0  0  0  0
 23 29  1  0  0  0  0
 24 23  1  0  0  0  0
 24 30  1  1  0  0  0
 25 24  1  0  0  0  0
 25 31  1  0  0  0  0
 26 25  1  0  0  0  0
 27 24  1  0  0  0  0
 28 27  2  0  0  0  0
 32 25  1  0  0  0  0
 33 26  1  0  0  0  0
 34 49  1  0  0  0  0
 34 27  1  0  0  0  0
 35 50  1  6  0  0  0
 35 46  1  0  0  0  0
 35 34  1  0  0  0  0
 36 52  1  0  0  0  0
 36 35  1  0  0  0  0
 37 36  1  0  0  0  0
 38 53  1  0  0  0  0
 38 37  2  0  0  0  0
 39 38  1  0  0  0  0
 40 39  1  0  0  0  0
 40 45  1  0  0  0  0
 41 42  1  0  0  0  0
 41 40  2  0  0  0  0
 42 43  2  0  0  0  0
 43 57  1  0  0  0  0
 43 44  1  0  0  0  0
 44 58  1  0  0  0  0
 45 44  2  0  0  0  0
 45 37  1  0  0  0  0
 46 47  1  0  0  0  0
 48 46  2  0  0  0  0
 51 36  1  0  0  0  0
 54 39  1  0  0  0  0
 55 41  1  0  0  0  0
 56 42  1  0  0  0  0
M  END
$$$$
