KCY.pdb
 OpenBabel07022418503D

 55 55  0  0  1  0  0  0  0  0999 V2000
    0.0900   -0.2170    4.6170 N   0  0  0  0  0  0  0  0  0  0  0  0
    0.9390   -0.7520    3.5040 C   0  0  1  0  0  0  0  0  0  0  0  0
    0.2770   -1.9930    3.0920 C   0  0  0  0  0  0  0  0  0  0  0  0
    0.7620   -2.8790    2.0490 C   0  0  0  0  0  0  0  0  0  0  0  0
    2.0260   -3.6160    2.1470 C   0  0  0  0  0  0  0  0  0  0  0  0
    3.2830   -2.8320    2.2340 C   0  0  0  0  0  0  0  0  0  0  0  0
    3.5230   -1.9740    1.0850 N   0  0  0  0  0  0  0  0  0  0  0  0
    0.8850    0.3330    2.4780 C   0  0  0  0  0  0  0  0  0  0  0  0
    1.4050    0.1960    1.3400 O   0  0  0  0  0  0  0  0  0  0  0  0
    0.5550    0.5490    5.1080 H   0  0  0  0  0  0  0  0  0  0  0  0
   -0.8450   -0.0770    4.2440 H   0  0  0  0  0  0  0  0  0  0  0  0
    1.9170   -0.8400    3.9990 H   0  0  0  0  0  0  0  0  0  0  0  0
    0.1440   -2.6160    4.0340 H   0  0  0  0  0  0  0  0  0  0  0  0
   -0.8060   -1.7200    2.8590 H   0  0  0  0  0  0  0  0  0  0  0  0
    0.7530   -2.4140    1.0140 H   0  0  0  0  0  0  0  0  0  0  0  0
   -0.0560   -3.6790    1.9120 H   0  0  0  0  0  0  0  0  0  0  0  0
    2.1520   -4.2530    1.1970 H   0  0  0  0  0  0  0  0  0  0  0  0
    1.9940   -4.4320    2.9330 H   0  0  0  0  0  0  0  0  0  0  0  0
    3.4410   -2.2270    3.1330 H   0  0  0  0  0  0  0  0  0  0  0  0
    4.1180   -3.6100    2.2040 H   0  0  0  0  0  0  0  0  0  0  0  0
    3.7120   -2.5170    0.2370 H   0  0  0  0  0  0  0  0  0  0  0  0
    4.1510   -1.1930    1.2860 H   0  0  0  0  0  0  0  0  0  0  0  0
    0.2440    1.5740    2.7380 N   0  0  0  0  0  0  0  0  0  0  0  0
    0.1480    2.6640    1.8000 C   0  0  1  0  0  0  0  0  0  0  0  0
    1.3860    3.4470    1.5910 C   0  0  0  0  0  0  0  0  0  0  0  0
    2.7930    2.5410    0.9680 S   0  0  0  0  0  0  0  0  0  0  0  0
   -0.4460    2.1640    0.5350 C   0  0  0  0  0  0  0  0  0  0  0  0
   -0.3940    2.8430   -0.5360 O   0  0  0  0  0  0  0  0  0  0  0  0
   -0.2040    1.7490    3.6750 H   0  0  0  0  0  0  0  0  0  0  0  0
   -0.6300    3.4190    2.1870 H   0  0  0  0  0  0  0  0  0  0  0  0
    1.1290    4.3130    0.9220 H   0  0  0  0  0  0  0  0  0  0  0  0
    1.6450    3.9190    2.5830 H   0  0  0  0  0  0  0  0  0  0  0  0
    3.0240    2.8270   -0.4110 H   0  0  0  0  0  0  0  0  0  0  0  0
   -2.7860   -3.2780   -5.8970 O   0  0  0  0  0  0  0  0  0  0  0  0
   -2.3450   -2.6960   -4.7160 C   0  0  0  0  0  0  0  0  0  0  0  0
   -2.9150   -3.0340   -3.5100 C   0  0  0  0  0  0  0  0  0  0  0  0
   -2.4950   -2.4720   -2.3330 C   0  0  0  0  0  0  0  0  0  0  0  0
   -1.4820   -1.5420   -2.3140 C   0  0  0  0  0  0  0  0  0  0  0  0
   -0.9980   -0.9020   -1.0900 C   0  0  0  0  0  0  0  0  0  0  0  0
   -1.6770    0.4120   -0.7610 C   0  0  2  0  0  0  0  0  0  0  0  0
   -1.0900    0.9240    0.4890 N   0  0  0  0  0  0  0  0  0  0  0  0
   -3.1120    0.1970   -0.5380 C   0  0  0  0  0  0  0  0  0  0  0  0
   -3.8780   -0.2140   -1.4660 O   0  0  0  0  0  0  0  0  0  0  0  0
   -0.8990   -1.1930   -3.5230 C   0  0  0  0  0  0  0  0  0  0  0  0
   -1.3330   -1.7640   -4.6770 C   0  0  0  0  0  0  0  0  0  0  0  0
   -3.6710    0.4360    0.6900 O   0  0  0  0  0  0  0  0  0  0  0  0
   -3.7730   -3.3510   -6.0880 H   0  0  0  0  0  0  0  0  0  0  0  0
   -3.7190   -3.7700   -3.5180 H   0  0  0  0  0  0  0  0  0  0  0  0
   -2.9690   -2.7720   -1.3960 H   0  0  0  0  0  0  0  0  0  0  0  0
    0.1110   -0.7550   -1.2110 H   0  0  0  0  0  0  0  0  0  0  0  0
   -1.1200   -1.6240   -0.2580 H   0  0  0  0  0  0  0  0  0  0  0  0
   -1.4860    1.1760   -1.5350 H   0  0  0  0  0  0  0  0  0  0  0  0
   -1.2250    0.2970    1.3000 H   0  0  0  0  0  0  0  0  0  0  0  0
   -0.0910   -0.4580   -3.5530 H   0  0  0  0  0  0  0  0  0  0  0  0
   -0.8800   -1.4930   -5.6210 H   0  0  0  0  0  0  0  0  0  0  0  0
  1 10  1  0  0  0  0
  2 12  1  1  0  0  0
  2  1  1  0  0  0  0
  3  2  1  0  0  0  0
  3 13  1  0  0  0  0
  4  5  1  0  0  0  0
  4  3  1  0  0  0  0
  5  6  1  0  0  0  0
  5 18  1  0  0  0  0
  6 19  1  0  0  0  0
  7 22  1  0  0  0  0
  7  6  1  0  0  0  0
  8 23  1  0  0  0  0
  8  2  1  0  0  0  0
  9  8  2  0  0  0  0
 11  1  1  0  0  0  0
 14  3  1  0  0  0  0
 15  4  1  0  0  0  0
 16  4  1  0  0  0  0
 17  5  1  0  0  0  0
 20  6  1  0  0  0  0
 21  7  1  0  0  0  0
 23 29  1  0  0  0  0
 24 30  1  1  0  0  0
 24 23  1  0  0  0  0
 25 24  1  0  0  0  0
 25 32  1  0  0  0  0
 26 25  1  0  0  0  0
 27 24  1  0  0  0  0
 28 27  2  0  0  0  0
 31 25  1  0  0  0  0
 33 26  1  0  0  0  0
 34 35  1  0  0  0  0
 35 45  2  0  0  0  0
 35 36  1  0  0  0  0
 36 37  2  0  0  0  0
 37 38  1  0  0  0  0
 37 49  1  0  0  0  0
 38 39  1  0  0  0  0
 39 40  1  0  0  0  0
 39 51  1  0  0  0  0
 40 52  1  6  0  0  0
 40 42  1  0  0  0  0
 40 41  1  0  0  0  0
 41 27  1  0  0  0  0
 41 53  1  0  0  0  0
 42 46  1  0  0  0  0
 43 42  2  0  0  0  0
 44 38  2  0  0  0  0
 45 44  1  0  0  0  0
 47 34  1  0  0  0  0
 48 36  1  0  0  0  0
 50 39  1  0  0  0  0
 54 44  1  0  0  0  0
 55 45  1  0  0  0  0
M  END
$$$$
