KDA.pdb
 OpenBabel07022418493D

 46 45  0  0  1  0  0  0  0  0999 V2000
   -0.9710   -3.4490    1.0410 N   0  0  0  0  0  0  0  0  0  0  0  0
    0.0170   -2.5050    1.6110 C   0  0  1  0  0  0  0  0  0  0  0  0
    1.3110   -3.2160    1.5880 C   0  0  0  0  0  0  0  0  0  0  0  0
    1.8190   -3.7080    0.2900 C   0  0  0  0  0  0  0  0  0  0  0  0
    2.1070   -2.7300   -0.7790 C   0  0  0  0  0  0  0  0  0  0  0  0
    3.1800   -1.7420   -0.3620 C   0  0  0  0  0  0  0  0  0  0  0  0
    3.4270   -0.8110   -1.4140 N   0  0  0  0  0  0  0  0  0  0  0  0
   -0.1090   -1.1690    1.0800 C   0  0  0  0  0  0  0  0  0  0  0  0
   -0.7860   -0.9140    0.0210 O   0  0  0  0  0  0  0  0  0  0  0  0
   -0.8200   -4.3410    1.5500 H   0  0  0  0  0  0  0  0  0  0  0  0
   -1.9320   -3.1260    1.2290 H   0  0  0  0  0  0  0  0  0  0  0  0
   -0.3410   -2.4610    2.7100 H   0  0  0  0  0  0  0  0  0  0  0  0
    2.1360   -2.6740    2.1080 H   0  0  0  0  0  0  0  0  0  0  0  0
    1.1750   -4.1360    2.2410 H   0  0  0  0  0  0  0  0  0  0  0  0
    1.0630   -4.4380   -0.1100 H   0  0  0  0  0  0  0  0  0  0  0  0
    2.7830   -4.2630    0.5140 H   0  0  0  0  0  0  0  0  0  0  0  0
    1.2640   -2.1790   -1.1860 H   0  0  0  0  0  0  0  0  0  0  0  0
    2.5390   -3.2980   -1.6500 H   0  0  0  0  0  0  0  0  0  0  0  0
    4.1330   -2.2910   -0.1760 H   0  0  0  0  0  0  0  0  0  0  0  0
    2.9230   -1.2400    0.5680 H   0  0  0  0  0  0  0  0  0  0  0  0
    2.6310   -0.6830   -2.0700 H   0  0  0  0  0  0  0  0  0  0  0  0
    4.3420   -0.9000   -1.8630 H   0  0  0  0  0  0  0  0  0  0  0  0
    0.5020   -0.0340    1.7020 N   0  0  0  0  0  0  0  0  0  0  0  0
    0.3910    1.3140    1.2700 C   0  0  1  0  0  0  0  0  0  0  0  0
    1.4050    1.6910    0.2650 C   0  0  0  0  0  0  0  0  0  0  0  0
    2.7990    1.5810    0.7580 C   0  0  0  0  0  0  0  0  0  0  0  0
    3.7780    1.9140    0.0720 O   0  0  0  0  0  0  0  0  0  0  0  0
   -0.9830    1.7860    0.9590 C   0  0  0  0  0  0  0  0  0  0  0  0
   -1.0580    2.8760    0.3140 O   0  0  0  0  0  0  0  0  0  0  0  0
    3.0650    1.0880    2.0390 O   0  0  0  0  0  0  0  0  0  0  0  0
    1.0940   -0.2330    2.5640 H   0  0  0  0  0  0  0  0  0  0  0  0
    0.7150    1.9220    2.2270 H   0  0  0  0  0  0  0  0  0  0  0  0
    1.3640    1.0510   -0.6570 H   0  0  0  0  0  0  0  0  0  0  0  0
    1.2450    2.7420   -0.0640 H   0  0  0  0  0  0  0  0  0  0  0  0
    3.8020    1.5280    2.5960 H   0  0  0  0  0  0  0  0  0  0  0  0
   -4.1900    0.5640    0.1760 C   0  0  0  0  0  0  0  0  0  0  0  0
   -3.4990    1.6370    0.9830 C   0  0  2  0  0  0  0  0  0  0  0  0
   -2.1560    1.1440    1.3180 N   0  0  0  0  0  0  0  0  0  0  0  0
   -4.1870    1.9010    2.2700 C   0  0  0  0  0  0  0  0  0  0  0  0
   -5.3820    2.3410    2.3070 O   0  0  0  0  0  0  0  0  0  0  0  0
   -3.5770    1.6880    3.4910 O   0  0  0  0  0  0  0  0  0  0  0  0
   -3.6280   -0.3920    0.2250 H   0  0  0  0  0  0  0  0  0  0  0  0
   -5.1870    0.3700    0.5960 H   0  0  0  0  0  0  0  0  0  0  0  0
   -4.2680    0.8390   -0.8760 H   0  0  0  0  0  0  0  0  0  0  0  0
   -3.3830    2.5760    0.4150 H   0  0  0  0  0  0  0  0  0  0  0  0
   -2.1440    0.2730    1.8780 H   0  0  0  0  0  0  0  0  0  0  0  0
  1 11  1  0  0  0  0
  1 10  1  0  0  0  0
  1  2  1  0  0  0  0
  2 12  1  1  0  0  0
  3  2  1  0  0  0  0
  3 13  1  0  0  0  0
  3 14  1  0  0  0  0
  4 16  1  0  0  0  0
  4  3  1  0  0  0  0
  5  6  1  0  0  0  0
  5  4  1  0  0  0  0
  6 19  1  0  0  0  0
  6 20  1  0  0  0  0
  7  6  1  0  0  0  0
  8  2  1  0  0  0  0
  8 23  1  0  0  0  0
  9  8  2  0  0  0  0
 15  4  1  0  0  0  0
 17  5  1  0  0  0  0
 18  5  1  0  0  0  0
 21  7  1  0  0  0  0
 22  7  1  0  0  0  0
 23 31  1  0  0  0  0
 24 23  1  0  0  0  0
 24 32  1  1  0  0  0
 25 26  1  0  0  0  0
 25 24  1  0  0  0  0
 26 30  1  0  0  0  0
 27 26  2  0  0  0  0
 28 24  1  0  0  0  0
 28 38  1  0  0  0  0
 29 28  2  0  0  0  0
 30 35  1  0  0  0  0
 33 25  1  0  0  0  0
 34 25  1  0  0  0  0
 36 42  1  0  0  0  0
 36 43  1  0  0  0  0
 36 37  1  0  0  0  0
 37 45  1  6  0  0  0
 37 38  1  0  0  0  0
 37 39  1  0  0  0  0
 38 46  1  0  0  0  0
 39 40  2  0  0  0  0
 39 41  1  0  0  0  0
 44 36  1  0  0  0  0
M  END
$$$$
