KDC.pdb
 OpenBabel07022418493D

 47 46  0  0  1  0  0  0  0  0999 V2000
    1.8250   -2.4960    4.1270 N   0  0  0  0  0  0  0  0  0  0  0  0
    1.8860   -1.3820    3.2380 C   0  0  1  0  0  0  0  0  0  0  0  0
    2.6710   -1.6510    1.9720 C   0  0  0  0  0  0  0  0  0  0  0  0
    2.0570   -2.7750    1.2120 C   0  0  0  0  0  0  0  0  0  0  0  0
    2.7280   -3.1460   -0.0570 C   0  0  0  0  0  0  0  0  0  0  0  0
    4.1530   -3.5830    0.0540 C   0  0  0  0  0  0  0  0  0  0  0  0
    4.3190   -4.7520    0.8960 N   0  0  0  0  0  0  0  0  0  0  0  0
    0.5270   -0.8390    2.9130 C   0  0  0  0  0  0  0  0  0  0  0  0
   -0.4880   -1.3710    3.4230 O   0  0  0  0  0  0  0  0  0  0  0  0
    0.8110   -2.8180    4.1430 H   0  0  0  0  0  0  0  0  0  0  0  0
    2.0140   -2.1850    5.1050 H   0  0  0  0  0  0  0  0  0  0  0  0
    2.4080   -0.5380    3.7710 H   0  0  0  0  0  0  0  0  0  0  0  0
    2.7780   -0.7120    1.4410 H   0  0  0  0  0  0  0  0  0  0  0  0
    3.6960   -1.9590    2.3110 H   0  0  0  0  0  0  0  0  0  0  0  0
    1.9860   -3.6510    1.8920 H   0  0  0  0  0  0  0  0  0  0  0  0
    1.0090   -2.4940    0.9730 H   0  0  0  0  0  0  0  0  0  0  0  0
    2.1570   -3.9800   -0.5160 H   0  0  0  0  0  0  0  0  0  0  0  0
    2.6880   -2.3100   -0.7870 H   0  0  0  0  0  0  0  0  0  0  0  0
    4.8450   -2.7680    0.3470 H   0  0  0  0  0  0  0  0  0  0  0  0
    4.4760   -3.8930   -0.9640 H   0  0  0  0  0  0  0  0  0  0  0  0
    4.0920   -5.5890    0.3200 H   0  0  0  0  0  0  0  0  0  0  0  0
    5.2060   -4.7860    1.4040 H   0  0  0  0  0  0  0  0  0  0  0  0
    0.3960    0.2630    2.0400 N   0  0  0  0  0  0  0  0  0  0  0  0
   -0.9120    0.8440    1.6820 C   0  0  1  0  0  0  0  0  0  0  0  0
   -0.8610    2.2710    2.1280 C   0  0  0  0  0  0  0  0  0  0  0  0
   -2.0480    3.0750    1.8810 C   0  0  0  0  0  0  0  0  0  0  0  0
   -2.1760    3.7920    0.8420 O   0  0  0  0  0  0  0  0  0  0  0  0
   -1.1190    0.6400    0.2420 C   0  0  0  0  0  0  0  0  0  0  0  0
   -0.1830    0.1200   -0.4430 O   0  0  0  0  0  0  0  0  0  0  0  0
   -3.0950    3.0860    2.7860 O   0  0  0  0  0  0  0  0  0  0  0  0
    1.2580    0.6800    1.6350 H   0  0  0  0  0  0  0  0  0  0  0  0
   -1.6850    0.2640    2.2170 H   0  0  0  0  0  0  0  0  0  0  0  0
   -0.5750    2.2410    3.2210 H   0  0  0  0  0  0  0  0  0  0  0  0
    0.0100    2.8120    1.6550 H   0  0  0  0  0  0  0  0  0  0  0  0
   -4.0210    3.4340    2.5610 H   0  0  0  0  0  0  0  0  0  0  0  0
   -2.2850    0.9700   -0.4880 N   0  0  0  0  0  0  0  0  0  0  0  0
   -2.4150    0.7390   -1.9140 C   0  0  1  0  0  0  0  0  0  0  0  0
   -3.5420   -0.2880   -2.0670 C   0  0  0  0  0  0  0  0  0  0  0  0
   -5.0770    0.3740   -1.3720 S   0  0  0  0  0  0  0  0  0  0  0  0
   -2.7070    1.9560   -2.6770 C   0  0  0  0  0  0  0  0  0  0  0  0
   -2.8190    3.0470   -2.0910 O   0  0  0  0  0  0  0  0  0  0  0  0
   -2.8590    1.8900   -4.0540 O   0  0  0  0  0  0  0  0  0  0  0  0
   -3.0880    1.3880    0.0140 H   0  0  0  0  0  0  0  0  0  0  0  0
   -1.4850    0.2780   -2.3060 H   0  0  0  0  0  0  0  0  0  0  0  0
   -3.7180   -0.5620   -3.1130 H   0  0  0  0  0  0  0  0  0  0  0  0
   -3.2510   -1.1800   -1.4500 H   0  0  0  0  0  0  0  0  0  0  0  0
   -5.3510   -0.1480   -0.1150 H   0  0  0  0  0  0  0  0  0  0  0  0
  1 10  1  0  0  0  0
  1 11  1  0  0  0  0
  2 12  1  1  0  0  0
  2  1  1  0  0  0  0
  3 14  1  0  0  0  0
  3  2  1  0  0  0  0
  4 15  1  0  0  0  0
  4  3  1  0  0  0  0
  5  6  1  0  0  0  0
  5  4  1  0  0  0  0
  6 19  1  0  0  0  0
  6  7  1  0  0  0  0
  7 22  1  0  0  0  0
  8  2  1  0  0  0  0
  8  9  2  0  0  0  0
 13  3  1  0  0  0  0
 16  4  1  0  0  0  0
 17  5  1  0  0  0  0
 18  5  1  0  0  0  0
 20  6  1  0  0  0  0
 21  7  1  0  0  0  0
 23  8  1  0  0  0  0
 24 23  1  0  0  0  0
 24 25  1  0  0  0  0
 24 32  1  1  0  0  0
 25 33  1  0  0  0  0
 26 25  1  0  0  0  0
 26 30  1  0  0  0  0
 27 26  2  0  0  0  0
 28 24  1  0  0  0  0
 29 28  2  0  0  0  0
 31 23  1  0  0  0  0
 34 25  1  0  0  0  0
 35 30  1  0  0  0  0
 36 43  1  0  0  0  0
 36 28  1  0  0  0  0
 37 44  1  6  0  0  0
 37 36  1  0  0  0  0
 38 37  1  0  0  0  0
 38 46  1  0  0  0  0
 38 39  1  0  0  0  0
 39 47  1  0  0  0  0
 40 41  1  0  0  0  0
 40 37  1  0  0  0  0
 42 40  2  0  0  0  0
 45 38  1  0  0  0  0
M  END
$$$$
