KDD.pdb
 OpenBabel07022418493D

 49 48  0  0  1  0  0  0  0  0999 V2000
    1.2670   -3.2140    0.3540 N   0  0  0  0  0  0  0  0  0  0  0  0
    1.1150   -2.7690    1.7870 C   0  0  1  0  0  0  0  0  0  0  0  0
    2.4580   -2.7750    2.4090 C   0  0  0  0  0  0  0  0  0  0  0  0
    2.6820   -2.4300    3.8020 C   0  0  0  0  0  0  0  0  0  0  0  0
    2.3680   -1.1080    4.3560 C   0  0  0  0  0  0  0  0  0  0  0  0
    3.0400    0.0520    3.7040 C   0  0  0  0  0  0  0  0  0  0  0  0
    2.5980    1.2710    4.4020 N   0  0  0  0  0  0  0  0  0  0  0  0
    0.4310   -1.4620    1.6530 C   0  0  0  0  0  0  0  0  0  0  0  0
   -0.2590   -0.8970    2.5250 O   0  0  0  0  0  0  0  0  0  0  0  0
    2.2270   -2.9590    0.1040 H   0  0  0  0  0  0  0  0  0  0  0  0
    0.9930   -4.1920    0.2420 H   0  0  0  0  0  0  0  0  0  0  0  0
    0.4120   -3.5080    2.2100 H   0  0  0  0  0  0  0  0  0  0  0  0
    2.8210   -3.8660    2.2930 H   0  0  0  0  0  0  0  0  0  0  0  0
    3.2240   -2.2690    1.7060 H   0  0  0  0  0  0  0  0  0  0  0  0
    3.7700   -2.6400    4.1150 H   0  0  0  0  0  0  0  0  0  0  0  0
    2.1550   -3.2370    4.4330 H   0  0  0  0  0  0  0  0  0  0  0  0
    2.7610   -1.0590    5.4540 H   0  0  0  0  0  0  0  0  0  0  0  0
    1.3040   -0.9350    4.5010 H   0  0  0  0  0  0  0  0  0  0  0  0
    2.7590    0.2040    2.6480 H   0  0  0  0  0  0  0  0  0  0  0  0
    4.1400   -0.0210    3.8340 H   0  0  0  0  0  0  0  0  0  0  0  0
    3.3330    2.0320    4.3250 H   0  0  0  0  0  0  0  0  0  0  0  0
    2.5300    1.0700    5.4380 H   0  0  0  0  0  0  0  0  0  0  0  0
    0.5330   -0.7110    0.4140 N   0  0  0  0  0  0  0  0  0  0  0  0
   -0.1570    0.5840    0.3010 C   0  0  1  0  0  0  0  0  0  0  0  0
    0.7800    1.6220   -0.2300 C   0  0  0  0  0  0  0  0  0  0  0  0
    0.2380    2.9640   -0.3690 C   0  0  0  0  0  0  0  0  0  0  0  0
    0.9090    3.8490   -0.9700 O   0  0  0  0  0  0  0  0  0  0  0  0
   -1.2630    0.3330   -0.7130 C   0  0  0  0  0  0  0  0  0  0  0  0
   -2.0240    1.2850   -0.9810 O   0  0  0  0  0  0  0  0  0  0  0  0
   -0.9890    3.3430    0.1250 O   0  0  0  0  0  0  0  0  0  0  0  0
    1.0950   -1.0970   -0.3740 H   0  0  0  0  0  0  0  0  0  0  0  0
   -0.6340    0.8620    1.2440 H   0  0  0  0  0  0  0  0  0  0  0  0
    1.2850    1.2910   -1.1650 H   0  0  0  0  0  0  0  0  0  0  0  0
    1.6180    1.6900    0.5280 H   0  0  0  0  0  0  0  0  0  0  0  0
   -1.2080    4.3060    0.2850 H   0  0  0  0  0  0  0  0  0  0  0  0
   -1.4440   -0.9140   -1.3370 N   0  0  0  0  0  0  0  0  0  0  0  0
   -2.4310   -1.3320   -2.2790 C   0  0  1  0  0  0  0  0  0  0  0  0
   -3.4870   -0.2710   -2.6140 C   0  0  0  0  0  0  0  0  0  0  0  0
   -4.2570    0.0100   -1.3970 C   0  0  0  0  0  0  0  0  0  0  0  0
   -4.1240   -0.6960   -0.3700 O   0  0  0  0  0  0  0  0  0  0  0  0
   -1.9580   -2.0660   -3.4390 C   0  0  0  0  0  0  0  0  0  0  0  0
   -2.7720   -2.4720   -4.3020 O   0  0  0  0  0  0  0  0  0  0  0  0
   -5.1490    1.0650   -1.3600 O   0  0  0  0  0  0  0  0  0  0  0  0
   -0.6140   -2.3410   -3.6340 O   0  0  0  0  0  0  0  0  0  0  0  0
   -0.7190   -1.6620   -1.0510 H   0  0  0  0  0  0  0  0  0  0  0  0
   -3.1170   -2.0620   -1.6720 H   0  0  0  0  0  0  0  0  0  0  0  0
   -2.9720    0.6260   -3.0170 H   0  0  0  0  0  0  0  0  0  0  0  0
   -4.1200   -0.7520   -3.4090 H   0  0  0  0  0  0  0  0  0  0  0  0
   -5.9550    1.0470   -0.7510 H   0  0  0  0  0  0  0  0  0  0  0  0
  1  2  1  0  0  0  0
  2 12  1  1  0  0  0
  2  3  1  0  0  0  0
  3  4  1  0  0  0  0
  4 15  1  0  0  0  0
  4  5  1  0  0  0  0
  4 16  1  0  0  0  0
  5 18  1  0  0  0  0
  5 17  1  0  0  0  0
  6 20  1  0  0  0  0
  6  5  1  0  0  0  0
  6  7  1  0  0  0  0
  7 22  1  0  0  0  0
  8  2  1  0  0  0  0
  8  9  2  0  0  0  0
 10  1  1  0  0  0  0
 11  1  1  0  0  0  0
 13  3  1  0  0  0  0
 14  3  1  0  0  0  0
 19  6  1  0  0  0  0
 21  7  1  0  0  0  0
 23  8  1  0  0  0  0
 24 23  1  0  0  0  0
 24 32  1  1  0  0  0
 25 24  1  0  0  0  0
 25 34  1  0  0  0  0
 26 25  1  0  0  0  0
 26 30  1  0  0  0  0
 27 26  2  0  0  0  0
 28 24  1  0  0  0  0
 29 28  2  0  0  0  0
 30 35  1  0  0  0  0
 31 23  1  0  0  0  0
 33 25  1  0  0  0  0
 36 45  1  0  0  0  0
 36 28  1  0  0  0  0
 37 46  1  1  0  0  0
 37 36  1  0  0  0  0
 38 37  1  0  0  0  0
 38 39  1  0  0  0  0
 39 43  1  0  0  0  0
 39 40  2  0  0  0  0
 41 37  1  0  0  0  0
 42 41  2  0  0  0  0
 43 49  1  0  0  0  0
 44 41  1  0  0  0  0
 47 38  1  0  0  0  0
 48 38  1  0  0  0  0
M  END
$$$$
