KDE.pdb
 OpenBabel07022418493D

 52 51  0  0  1  0  0  0  0  0999 V2000
    2.3770   -1.5830    3.3010 N   0  0  0  0  0  0  0  0  0  0  0  0
    1.1880   -1.0610    2.7500 C   0  0  1  0  0  0  0  0  0  0  0  0
    0.5830    0.1430    3.3230 C   0  0  0  0  0  0  0  0  0  0  0  0
    1.2700    1.4350    3.3730 C   0  0  0  0  0  0  0  0  0  0  0  0
    2.4720    1.6960    4.1730 C   0  0  0  0  0  0  0  0  0  0  0  0
    3.7290    0.9620    3.9680 C   0  0  0  0  0  0  0  0  0  0  0  0
    4.2510    1.0260    2.6060 N   0  0  0  0  0  0  0  0  0  0  0  0
    1.3870   -0.8480    1.2560 C   0  0  0  0  0  0  0  0  0  0  0  0
    2.5320   -0.8980    0.7830 O   0  0  0  0  0  0  0  0  0  0  0  0
    3.0310   -2.0260    2.6460 H   0  0  0  0  0  0  0  0  0  0  0  0
    2.2200   -2.0990    4.1860 H   0  0  0  0  0  0  0  0  0  0  0  0
    0.4380   -1.9330    2.7690 H   0  0  0  0  0  0  0  0  0  0  0  0
   -0.3980    0.3150    2.7460 H   0  0  0  0  0  0  0  0  0  0  0  0
    0.1240   -0.0950    4.3640 H   0  0  0  0  0  0  0  0  0  0  0  0
    1.5160    1.8160    2.3210 H   0  0  0  0  0  0  0  0  0  0  0  0
    0.5150    2.2670    3.6860 H   0  0  0  0  0  0  0  0  0  0  0  0
    2.7480    2.8160    4.1120 H   0  0  0  0  0  0  0  0  0  0  0  0
    2.2340    1.5950    5.2900 H   0  0  0  0  0  0  0  0  0  0  0  0
    3.8810    0.0160    4.4740 H   0  0  0  0  0  0  0  0  0  0  0  0
    4.5240    1.6220    4.5590 H   0  0  0  0  0  0  0  0  0  0  0  0
    5.2210    0.5930    2.6620 H   0  0  0  0  0  0  0  0  0  0  0  0
    4.3980    2.0520    2.3980 H   0  0  0  0  0  0  0  0  0  0  0  0
    0.2280   -0.6090    0.4930 N   0  0  0  0  0  0  0  0  0  0  0  0
    0.0690   -0.3690   -0.8840 C   0  0  1  0  0  0  0  0  0  0  0  0
    1.3720   -0.3950   -1.6500 C   0  0  0  0  0  0  0  0  0  0  0  0
    2.2170    0.7340   -1.1990 C   0  0  0  0  0  0  0  0  0  0  0  0
    3.4350    0.8770   -1.5040 O   0  0  0  0  0  0  0  0  0  0  0  0
   -1.0070   -1.0890   -1.5580 C   0  0  0  0  0  0  0  0  0  0  0  0
   -1.2800   -0.9120   -2.7840 O   0  0  0  0  0  0  0  0  0  0  0  0
    1.7010    1.7560   -0.3790 O   0  0  0  0  0  0  0  0  0  0  0  0
   -0.7300   -0.5930    1.0340 H   0  0  0  0  0  0  0  0  0  0  0  0
   -0.1500    0.7860   -0.9370 H   0  0  0  0  0  0  0  0  0  0  0  0
    1.9230   -1.3570   -1.5240 H   0  0  0  0  0  0  0  0  0  0  0  0
    1.1960   -0.2300   -2.7400 H   0  0  0  0  0  0  0  0  0  0  0  0
    2.0920    2.6660   -0.3010 H   0  0  0  0  0  0  0  0  0  0  0  0
   -1.7840   -2.0230   -0.8370 N   0  0  0  0  0  0  0  0  0  0  0  0
   -2.8840   -2.8030   -1.3040 C   0  0  1  0  0  0  0  0  0  0  0  0
   -3.5720   -2.3120   -2.5500 C   0  0  0  0  0  0  0  0  0  0  0  0
   -4.2380   -0.9900   -2.4100 C   0  0  0  0  0  0  0  0  0  0  0  0
   -5.3550   -0.9600   -1.4320 C   0  0  0  0  0  0  0  0  0  0  0  0
   -5.8200    0.1390   -1.0820 O   0  0  0  0  0  0  0  0  0  0  0  0
   -2.6880   -4.2470   -1.2740 C   0  0  0  0  0  0  0  0  0  0  0  0
   -3.5800   -5.0610   -1.6590 O   0  0  0  0  0  0  0  0  0  0  0  0
   -5.8690   -2.1200   -0.9220 O   0  0  0  0  0  0  0  0  0  0  0  0
   -1.5040   -4.8570   -0.8210 O   0  0  0  0  0  0  0  0  0  0  0  0
   -1.5120   -2.1730    0.1900 H   0  0  0  0  0  0  0  0  0  0  0  0
   -3.7070   -2.5620   -0.5070 H   0  0  0  0  0  0  0  0  0  0  0  0
   -2.9450   -2.3830   -3.4510 H   0  0  0  0  0  0  0  0  0  0  0  0
   -4.4030   -3.0610   -2.7340 H   0  0  0  0  0  0  0  0  0  0  0  0
   -4.7230   -0.7560   -3.4160 H   0  0  0  0  0  0  0  0  0  0  0  0
   -3.6140   -0.1270   -2.1610 H   0  0  0  0  0  0  0  0  0  0  0  0
   -6.4320   -2.1550   -0.0580 H   0  0  0  0  0  0  0  0  0  0  0  0
  1 11  1  0  0  0  0
  2 12  1  1  0  0  0
  2  1  1  0  0  0  0
  2  3  1  0  0  0  0
  3  4  1  0  0  0  0
  3 14  1  0  0  0  0
  4 16  1  0  0  0  0
  4  5  1  0  0  0  0
  5 18  1  0  0  0  0
  6  5  1  0  0  0  0
  6 19  1  0  0  0  0
  6 20  1  0  0  0  0
  7 21  1  0  0  0  0
  7  6  1  0  0  0  0
  8  2  1  0  0  0  0
  9  8  2  0  0  0  0
 10  1  1  0  0  0  0
 13  3  1  0  0  0  0
 15  4  1  0  0  0  0
 17  5  1  0  0  0  0
 22  7  1  0  0  0  0
 23 31  1  0  0  0  0
 23  8  1  0  0  0  0
 24 32  1  6  0  0  0
 24 23  1  0  0  0  0
 25 33  1  0  0  0  0
 25 26  1  0  0  0  0
 25 24  1  0  0  0  0
 26 30  1  0  0  0  0
 27 26  2  0  0  0  0
 28 24  1  0  0  0  0
 28 36  1  0  0  0  0
 29 28  2  0  0  0  0
 30 35  1  0  0  0  0
 34 25  1  0  0  0  0
 36 46  1  0  0  0  0
 37 42  1  0  0  0  0
 37 36  1  0  0  0  0
 37 47  1  1  0  0  0
 38 39  1  0  0  0  0
 38 37  1  0  0  0  0
 39 51  1  0  0  0  0
 39 40  1  0  0  0  0
 40 41  2  0  0  0  0
 40 44  1  0  0  0  0
 42 45  1  0  0  0  0
 43 42  2  0  0  0  0
 44 52  1  0  0  0  0
 48 38  1  0  0  0  0
 49 38  1  0  0  0  0
 50 39  1  0  0  0  0
M  END
$$$$
