KDF.pdb
 OpenBabel07022418493D

 56 56  0  0  1  0  0  0  0  0999 V2000
   -0.3450   -1.5460    3.7840 N   0  0  0  0  0  0  0  0  0  0  0  0
    0.4560   -0.3410    3.6560 C   0  0  1  0  0  0  0  0  0  0  0  0
    1.8860   -0.7700    3.8180 C   0  0  0  0  0  0  0  0  0  0  0  0
    2.9020    0.3110    3.7180 C   0  0  0  0  0  0  0  0  0  0  0  0
    4.2820   -0.2690    3.9230 C   0  0  0  0  0  0  0  0  0  0  0  0
    4.6580   -1.3190    2.9300 C   0  0  0  0  0  0  0  0  0  0  0  0
    6.0180   -1.7520    3.2910 N   0  0  0  0  0  0  0  0  0  0  0  0
    0.2050    0.3670    2.3580 C   0  0  0  0  0  0  0  0  0  0  0  0
    0.7670    1.4650    2.2320 O   0  0  0  0  0  0  0  0  0  0  0  0
   -0.0750   -2.2390    3.0760 H   0  0  0  0  0  0  0  0  0  0  0  0
   -1.3540   -1.3590    3.8760 H   0  0  0  0  0  0  0  0  0  0  0  0
    0.1760    0.3410    4.4710 H   0  0  0  0  0  0  0  0  0  0  0  0
    2.0420   -1.3220    4.7720 H   0  0  0  0  0  0  0  0  0  0  0  0
    2.1490   -1.5330    3.0250 H   0  0  0  0  0  0  0  0  0  0  0  0
    2.7840    1.1210    4.4620 H   0  0  0  0  0  0  0  0  0  0  0  0
    2.9250    0.7870    2.7040 H   0  0  0  0  0  0  0  0  0  0  0  0
    4.3130   -0.7460    4.9450 H   0  0  0  0  0  0  0  0  0  0  0  0
    5.0460    0.5420    3.9260 H   0  0  0  0  0  0  0  0  0  0  0  0
    4.0460   -2.2420    3.0370 H   0  0  0  0  0  0  0  0  0  0  0  0
    4.6200   -0.9790    1.8920 H   0  0  0  0  0  0  0  0  0  0  0  0
    5.9890   -2.5640    3.9400 H   0  0  0  0  0  0  0  0  0  0  0  0
    6.5830   -2.0040    2.4600 H   0  0  0  0  0  0  0  0  0  0  0  0
   -0.6050   -0.1690    1.3550 N   0  0  0  0  0  0  0  0  0  0  0  0
   -0.9660    0.3800    0.0920 C   0  0  1  0  0  0  0  0  0  0  0  0
   -0.3500    1.7530   -0.2170 C   0  0  0  0  0  0  0  0  0  0  0  0
   -0.8130    2.8120    0.6950 C   0  0  0  0  0  0  0  0  0  0  0  0
   -0.2280    3.9180    0.6940 O   0  0  0  0  0  0  0  0  0  0  0  0
   -0.8470   -0.5180   -1.0450 C   0  0  0  0  0  0  0  0  0  0  0  0
   -0.3930   -1.6770   -0.8540 O   0  0  0  0  0  0  0  0  0  0  0  0
   -1.8960    2.6580    1.5840 O   0  0  0  0  0  0  0  0  0  0  0  0
   -1.0000   -1.1550    1.6200 H   0  0  0  0  0  0  0  0  0  0  0  0
   -2.0650    0.7350    0.2620 H   0  0  0  0  0  0  0  0  0  0  0  0
    0.7520    1.5950   -0.1590 H   0  0  0  0  0  0  0  0  0  0  0  0
   -0.5790    2.0220   -1.2600 H   0  0  0  0  0  0  0  0  0  0  0  0
   -1.9730    3.3300    2.3550 H   0  0  0  0  0  0  0  0  0  0  0  0
   -1.2050   -0.1930   -2.3800 N   0  0  0  0  0  0  0  0  0  0  0  0
   -1.0490   -1.1350   -3.4560 C   0  0  1  0  0  0  0  0  0  0  0  0
   -2.4490   -1.5920   -3.8930 C   0  0  0  0  0  0  0  0  0  0  0  0
   -3.1630   -2.2400   -2.7640 C   0  0  0  0  0  0  0  0  0  0  0  0
   -3.9570   -1.5070   -1.9100 C   0  0  0  0  0  0  0  0  0  0  0  0
   -4.6240   -2.1140   -0.8500 C   0  0  0  0  0  0  0  0  0  0  0  0
   -4.4870   -3.4710   -0.6550 C   0  0  0  0  0  0  0  0  0  0  0  0
   -3.6940   -4.2050   -1.5070 C   0  0  0  0  0  0  0  0  0  0  0  0
   -3.0250   -3.6010   -2.5680 C   0  0  0  0  0  0  0  0  0  0  0  0
   -0.3490   -0.5940   -4.6200 C   0  0  0  0  0  0  0  0  0  0  0  0
    0.0400    0.5990   -4.5960 O   0  0  0  0  0  0  0  0  0  0  0  0
   -0.0850   -1.3240   -5.7620 O   0  0  0  0  0  0  0  0  0  0  0  0
   -1.5890    0.7630   -2.5500 H   0  0  0  0  0  0  0  0  0  0  0  0
   -0.5500   -2.0730   -3.1320 H   0  0  0  0  0  0  0  0  0  0  0  0
   -2.9870   -0.6850   -4.2380 H   0  0  0  0  0  0  0  0  0  0  0  0
   -2.3140   -2.2590   -4.7600 H   0  0  0  0  0  0  0  0  0  0  0  0
   -4.0780   -0.4280   -2.0490 H   0  0  0  0  0  0  0  0  0  0  0  0
   -5.2530   -1.5630   -0.1660 H   0  0  0  0  0  0  0  0  0  0  0  0
   -5.0030   -3.9460    0.1670 H   0  0  0  0  0  0  0  0  0  0  0  0
   -3.5460   -5.2800   -1.4050 H   0  0  0  0  0  0  0  0  0  0  0  0
   -2.4010   -4.1570   -3.2460 H   0  0  0  0  0  0  0  0  0  0  0  0
  1 11  1  0  0  0  0
  2  1  1  0  0  0  0
  2  3  1  0  0  0  0
  2 12  1  1  0  0  0
  3 13  1  0  0  0  0
  4  3  1  0  0  0  0
  4  5  1  0  0  0  0
  4 15  1  0  0  0  0
  5 18  1  0  0  0  0
  5 17  1  0  0  0  0
  6 19  1  0  0  0  0
  6  7  1  0  0  0  0
  6  5  1  0  0  0  0
  7 21  1  0  0  0  0
  8  2  1  0  0  0  0
  9  8  2  0  0  0  0
 10  1  1  0  0  0  0
 14  3  1  0  0  0  0
 16  4  1  0  0  0  0
 20  6  1  0  0  0  0
 22  7  1  0  0  0  0
 23 31  1  0  0  0  0
 23  8  1  0  0  0  0
 24 32  1  1  0  0  0
 24 23  1  0  0  0  0
 25 33  1  0  0  0  0
 25 24  1  0  0  0  0
 25 26  1  0  0  0  0
 26 30  1  0  0  0  0
 27 26  2  0  0  0  0
 28 29  2  0  0  0  0
 28 24  1  0  0  0  0
 30 35  1  0  0  0  0
 34 25  1  0  0  0  0
 36 28  1  0  0  0  0
 37 49  1  1  0  0  0
 37 36  1  0  0  0  0
 38 37  1  0  0  0  0
 38 39  1  0  0  0  0
 39 44  2  0  0  0  0
 39 40  1  0  0  0  0
 40 41  2  0  0  0  0
 41 42  1  0  0  0  0
 41 53  1  0  0  0  0
 42 54  1  0  0  0  0
 43 55  1  0  0  0  0
 43 42  2  0  0  0  0
 44 43  1  0  0  0  0
 45 46  1  0  0  0  0
 45 37  1  0  0  0  0
 47 45  2  0  0  0  0
 48 36  1  0  0  0  0
 50 38  1  0  0  0  0
 51 38  1  0  0  0  0
 52 40  1  0  0  0  0
 56 44  1  0  0  0  0
M  END
$$$$
