KDH.pdb
 OpenBabel07022418493D

 53 53  0  0  1  0  0  0  0  0999 V2000
    0.2730   -0.1720    3.9770 N   0  0  0  0  0  0  0  0  0  0  0  0
    0.7350    0.0920    2.6200 C   0  0  1  0  0  0  0  0  0  0  0  0
    1.2570   -1.1330    1.9600 C   0  0  0  0  0  0  0  0  0  0  0  0
    2.4210   -1.7650    2.6800 C   0  0  0  0  0  0  0  0  0  0  0  0
    3.6060   -0.8750    2.8150 C   0  0  0  0  0  0  0  0  0  0  0  0
    4.6850   -1.6410    3.5530 C   0  0  0  0  0  0  0  0  0  0  0  0
    5.0780   -2.8400    2.8520 N   0  0  0  0  0  0  0  0  0  0  0  0
   -0.4220    0.6050    1.8450 C   0  0  0  0  0  0  0  0  0  0  0  0
   -1.5580    0.7830    2.3560 O   0  0  0  0  0  0  0  0  0  0  0  0
    0.1100    0.7010    4.5020 H   0  0  0  0  0  0  0  0  0  0  0  0
    0.8500   -0.8490    4.4860 H   0  0  0  0  0  0  0  0  0  0  0  0
    1.4630    0.9150    2.6950 H   0  0  0  0  0  0  0  0  0  0  0  0
    0.4440   -1.8870    1.9280 H   0  0  0  0  0  0  0  0  0  0  0  0
    1.5160   -0.9140    0.8910 H   0  0  0  0  0  0  0  0  0  0  0  0
    2.7380   -2.6400    2.0470 H   0  0  0  0  0  0  0  0  0  0  0  0
    2.1240   -2.2040    3.6500 H   0  0  0  0  0  0  0  0  0  0  0  0
    3.4230    0.0470    3.3840 H   0  0  0  0  0  0  0  0  0  0  0  0
    4.0180   -0.6730    1.7960 H   0  0  0  0  0  0  0  0  0  0  0  0
    5.6120   -1.0210    3.6780 H   0  0  0  0  0  0  0  0  0  0  0  0
    4.3740   -1.9130    4.5870 H   0  0  0  0  0  0  0  0  0  0  0  0
    4.5950   -3.6910    3.1600 H   0  0  0  0  0  0  0  0  0  0  0  0
    5.1020   -2.6870    1.8290 H   0  0  0  0  0  0  0  0  0  0  0  0
   -0.2780    0.9200    0.4700 N   0  0  0  0  0  0  0  0  0  0  0  0
   -1.3510    1.4310   -0.3370 C   0  0  1  0  0  0  0  0  0  0  0  0
   -0.8560    2.6610   -1.0630 C   0  0  0  0  0  0  0  0  0  0  0  0
   -0.4310    3.6900   -0.0990 C   0  0  0  0  0  0  0  0  0  0  0  0
    0.0230    4.8120   -0.4660 O   0  0  0  0  0  0  0  0  0  0  0  0
   -1.6920    0.4160   -1.3680 C   0  0  0  0  0  0  0  0  0  0  0  0
   -2.6040    0.6540   -2.1890 O   0  0  0  0  0  0  0  0  0  0  0  0
   -0.5200    3.4510    1.2500 O   0  0  0  0  0  0  0  0  0  0  0  0
    0.6460    0.7800    0.0090 H   0  0  0  0  0  0  0  0  0  0  0  0
   -2.2580    1.6680    0.2670 H   0  0  0  0  0  0  0  0  0  0  0  0
   -1.6140    3.0610   -1.7680 H   0  0  0  0  0  0  0  0  0  0  0  0
    0.0220    2.3670   -1.6930 H   0  0  0  0  0  0  0  0  0  0  0  0
   -0.5470    4.1920    1.9120 H   0  0  0  0  0  0  0  0  0  0  0  0
   -1.0030   -0.8080   -1.4310 N   0  0  0  0  0  0  0  0  0  0  0  0
   -1.2060   -1.8880   -2.3360 C   0  0  1  0  0  0  0  0  0  0  0  0
   -2.6710   -2.1630   -2.6530 C   0  0  0  0  0  0  0  0  0  0  0  0
   -3.3830   -2.5290   -1.4140 C   0  0  0  0  0  0  0  0  0  0  0  0
   -4.0620   -1.7430   -0.5260 C   0  0  0  0  0  0  0  0  0  0  0  0
   -4.5530   -2.5570    0.4400 N   0  0  0  0  0  0  0  0  0  0  0  0
   -4.1850   -3.8140    0.1540 C   0  0  0  0  0  0  0  0  0  0  0  0
   -3.4710   -3.8210   -0.9720 N   0  0  0  0  0  0  0  0  0  0  0  0
   -0.3480   -1.8780   -3.5310 C   0  0  0  0  0  0  0  0  0  0  0  0
    0.4870   -0.9440   -3.6740 O   0  0  0  0  0  0  0  0  0  0  0  0
   -0.4210   -2.8510   -4.5010 O   0  0  0  0  0  0  0  0  0  0  0  0
   -0.2340   -0.9210   -0.7040 H   0  0  0  0  0  0  0  0  0  0  0  0
   -0.9250   -2.8350   -1.7450 H   0  0  0  0  0  0  0  0  0  0  0  0
   -2.6480   -3.0620   -3.3240 H   0  0  0  0  0  0  0  0  0  0  0  0
   -3.1070   -1.3030   -3.1440 H   0  0  0  0  0  0  0  0  0  0  0  0
   -4.2240   -0.6630   -0.5350 H   0  0  0  0  0  0  0  0  0  0  0  0
   -5.1150   -2.2250    1.2520 H   0  0  0  0  0  0  0  0  0  0  0  0
   -4.4600   -4.6610    0.7870 H   0  0  0  0  0  0  0  0  0  0  0  0
  1 11  1  0  0  0  0
  1 10  1  0  0  0  0
  2 12  1  1  0  0  0
  2  1  1  0  0  0  0
  3  2  1  0  0  0  0
  3  4  1  0  0  0  0
  4  5  1  0  0  0  0
  4 16  1  0  0  0  0
  5 17  1  0  0  0  0
  5  6  1  0  0  0  0
  6 19  1  0  0  0  0
  6 20  1  0  0  0  0
  7 21  1  0  0  0  0
  7  6  1  0  0  0  0
  8  9  2  0  0  0  0
  8  2  1  0  0  0  0
 13  3  1  0  0  0  0
 14  3  1  0  0  0  0
 15  4  1  0  0  0  0
 18  5  1  0  0  0  0
 22  7  1  0  0  0  0
 23  8  1  0  0  0  0
 24 32  1  1  0  0  0
 24 23  1  0  0  0  0
 25 24  1  0  0  0  0
 25 26  1  0  0  0  0
 26 30  1  0  0  0  0
 27 26  2  0  0  0  0
 28 24  1  0  0  0  0
 29 28  2  0  0  0  0
 30 35  1  0  0  0  0
 31 23  1  0  0  0  0
 33 25  1  0  0  0  0
 34 25  1  0  0  0  0
 36 28  1  0  0  0  0
 36 47  1  0  0  0  0
 37 48  1  1  0  0  0
 37 36  1  0  0  0  0
 38 37  1  0  0  0  0
 38 39  1  0  0  0  0
 39 43  1  0  0  0  0
 39 40  2  0  0  0  0
 40 41  1  0  0  0  0
 41 52  1  0  0  0  0
 42 41  1  0  0  0  0
 42 53  1  0  0  0  0
 43 42  2  0  0  0  0
 44 37  1  0  0  0  0
 45 44  1  0  0  0  0
 46 44  2  0  0  0  0
 49 38  1  0  0  0  0
 50 38  1  0  0  0  0
 51 40  1  0  0  0  0
M  END
$$$$
