KDI.pdb
 OpenBabel07022418493D

 55 54  0  0  1  0  0  0  0  0999 V2000
    0.2510   -0.5460    4.5010 N   0  0  0  0  0  0  0  0  0  0  0  0
    0.5340   -0.3550    3.0910 C   0  0  1  0  0  0  0  0  0  0  0  0
    0.5500   -1.7240    2.4510 C   0  0  0  0  0  0  0  0  0  0  0  0
    1.6000   -2.5900    3.0720 C   0  0  0  0  0  0  0  0  0  0  0  0
    3.0000   -2.0450    2.9410 C   0  0  0  0  0  0  0  0  0  0  0  0
    3.9160   -3.0560    3.6240 C   0  0  0  0  0  0  0  0  0  0  0  0
    5.2670   -2.5690    3.5200 N   0  0  0  0  0  0  0  0  0  0  0  0
   -0.4850    0.5260    2.5180 C   0  0  0  0  0  0  0  0  0  0  0  0
   -1.4080    0.9710    3.2480 O   0  0  0  0  0  0  0  0  0  0  0  0
   -0.0460   -1.5160    4.7120 H   0  0  0  0  0  0  0  0  0  0  0  0
   -0.4220    0.1720    4.8590 H   0  0  0  0  0  0  0  0  0  0  0  0
    1.5430    0.1200    3.0410 H   0  0  0  0  0  0  0  0  0  0  0  0
   -0.4300   -2.1940    2.6490 H   0  0  0  0  0  0  0  0  0  0  0  0
    0.7710   -1.6670    1.3640 H   0  0  0  0  0  0  0  0  0  0  0  0
    1.3740   -2.8570    4.1210 H   0  0  0  0  0  0  0  0  0  0  0  0
    1.5890   -3.5640    2.5110 H   0  0  0  0  0  0  0  0  0  0  0  0
    3.1420   -1.0640    3.4260 H   0  0  0  0  0  0  0  0  0  0  0  0
    3.3150   -2.0110    1.8840 H   0  0  0  0  0  0  0  0  0  0  0  0
    3.8510   -4.0360    3.0960 H   0  0  0  0  0  0  0  0  0  0  0  0
    3.6480   -3.2230    4.6710 H   0  0  0  0  0  0  0  0  0  0  0  0
    5.3350   -1.6200    3.9840 H   0  0  0  0  0  0  0  0  0  0  0  0
    5.5080   -2.4660    2.5180 H   0  0  0  0  0  0  0  0  0  0  0  0
   -0.5040    0.9260    1.1530 N   0  0  0  0  0  0  0  0  0  0  0  0
   -1.5160    1.7940    0.6110 C   0  0  1  0  0  0  0  0  0  0  0  0
   -0.9870    3.1070    0.1460 C   0  0  0  0  0  0  0  0  0  0  0  0
    0.0230    3.0270   -0.9160 C   0  0  0  0  0  0  0  0  0  0  0  0
    0.3640    1.9150   -1.3630 O   0  0  0  0  0  0  0  0  0  0  0  0
   -2.3430    1.1050   -0.4120 C   0  0  0  0  0  0  0  0  0  0  0  0
   -3.2990    1.7250   -1.0000 O   0  0  0  0  0  0  0  0  0  0  0  0
    0.6320    4.1630   -1.4600 O   0  0  0  0  0  0  0  0  0  0  0  0
    0.2420    0.5740    0.5270 H   0  0  0  0  0  0  0  0  0  0  0  0
   -2.2280    2.0280    1.4580 H   0  0  0  0  0  0  0  0  0  0  0  0
   -0.4740    3.5710    1.0400 H   0  0  0  0  0  0  0  0  0  0  0  0
   -1.7600    3.8260   -0.1420 H   0  0  0  0  0  0  0  0  0  0  0  0
    1.4140    4.0600   -2.1160 H   0  0  0  0  0  0  0  0  0  0  0  0
    0.3070   -1.8580   -2.0040 C   0  0  0  0  0  0  0  0  0  0  0  0
   -0.9090   -2.4350   -2.5970 C   0  0  0  0  0  0  0  0  0  0  0  0
   -2.0410   -1.5080   -2.8540 C   0  0  2  0  0  0  0  0  0  0  0  0
   -1.6000   -0.4090   -3.8200 C   0  0  0  0  0  0  0  0  0  0  0  0
   -2.7760   -0.9970   -1.6750 C   0  0  2  0  0  0  0  0  0  0  0  0
   -2.0440   -0.2490   -0.7140 N   0  0  0  0  0  0  0  0  0  0  0  0
   -3.5360   -2.1310   -1.0840 C   0  0  0  0  0  0  0  0  0  0  0  0
   -3.5020   -2.3650    0.1530 O   0  0  0  0  0  0  0  0  0  0  0  0
   -4.3060   -2.9680   -1.8740 O   0  0  0  0  0  0  0  0  0  0  0  0
    0.5260   -2.1540   -0.9660 H   0  0  0  0  0  0  0  0  0  0  0  0
    1.2270   -2.1510   -2.5860 H   0  0  0  0  0  0  0  0  0  0  0  0
    0.3090   -0.7490   -2.0220 H   0  0  0  0  0  0  0  0  0  0  0  0
   -0.6320   -2.8920   -3.5880 H   0  0  0  0  0  0  0  0  0  0  0  0
   -1.2250   -3.3120   -1.9760 H   0  0  0  0  0  0  0  0  0  0  0  0
   -2.8000   -2.0980   -3.4560 H   0  0  0  0  0  0  0  0  0  0  0  0
   -1.0020    0.3620   -3.3390 H   0  0  0  0  0  0  0  0  0  0  0  0
   -0.9220   -0.9320   -4.5530 H   0  0  0  0  0  0  0  0  0  0  0  0
   -2.4470   -0.0340   -4.4220 H   0  0  0  0  0  0  0  0  0  0  0  0
   -3.5750   -0.3090   -2.0860 H   0  0  0  0  0  0  0  0  0  0  0  0
   -1.2560   -0.6920   -0.2030 H   0  0  0  0  0  0  0  0  0  0  0  0
  1 10  1  0  0  0  0
  1 11  1  0  0  0  0
  2 12  1  6  0  0  0
  2  1  1  0  0  0  0
  3 13  1  0  0  0  0
  3  4  1  0  0  0  0
  3  2  1  0  0  0  0
  4 15  1  0  0  0  0
  5  4  1  0  0  0  0
  5 17  1  0  0  0  0
  5  6  1  0  0  0  0
  6 20  1  0  0  0  0
  7  6  1  0  0  0  0
  7 21  1  0  0  0  0
  8  2  1  0  0  0  0
  8  9  2  0  0  0  0
 14  3  1  0  0  0  0
 16  4  1  0  0  0  0
 18  5  1  0  0  0  0
 19  6  1  0  0  0  0
 22  7  1  0  0  0  0
 23  8  1  0  0  0  0
 24 23  1  0  0  0  0
 24 32  1  1  0  0  0
 25 24  1  0  0  0  0
 25 33  1  0  0  0  0
 26 25  1  0  0  0  0
 27 26  2  0  0  0  0
 28 24  1  0  0  0  0
 29 28  2  0  0  0  0
 30 26  1  0  0  0  0
 31 23  1  0  0  0  0
 34 25  1  0  0  0  0
 35 30  1  0  0  0  0
 36 45  1  0  0  0  0
 37 36  1  0  0  0  0
 37 49  1  0  0  0  0
 38 50  1  6  0  0  0
 38 37  1  0  0  0  0
 38 40  1  0  0  0  0
 39 51  1  0  0  0  0
 39 38  1  0  0  0  0
 40 54  1  6  0  0  0
 40 42  1  0  0  0  0
 40 41  1  0  0  0  0
 41 28  1  0  0  0  0
 41 55  1  0  0  0  0
 42 43  1  0  0  0  0
 44 42  2  0  0  0  0
 46 36  1  0  0  0  0
 47 36  1  0  0  0  0
 48 37  1  0  0  0  0
 52 39  1  0  0  0  0
 53 39  1  0  0  0  0
M  END
$$$$
