KDL.pdb
 OpenBabel07022418493D

 55 54  0  0  1  0  0  0  0  0999 V2000
    3.5010   -2.5330    1.9740 N   0  0  0  0  0  0  0  0  0  0  0  0
    2.3850   -2.1800    2.7770 C   0  0  1  0  0  0  0  0  0  0  0  0
    2.5280   -2.0590    4.2160 C   0  0  0  0  0  0  0  0  0  0  0  0
    3.4450   -1.1880    4.9240 C   0  0  0  0  0  0  0  0  0  0  0  0
    3.4590    0.2750    4.7910 C   0  0  0  0  0  0  0  0  0  0  0  0
    3.8310    0.8660    3.4760 C   0  0  0  0  0  0  0  0  0  0  0  0
    3.7900    2.3400    3.5950 N   0  0  0  0  0  0  0  0  0  0  0  0
    1.4090   -1.2540    2.1580 C   0  0  0  0  0  0  0  0  0  0  0  0
    0.5040   -0.7680    2.8800 O   0  0  0  0  0  0  0  0  0  0  0  0
    3.8960   -1.7000    1.4630 H   0  0  0  0  0  0  0  0  0  0  0  0
    3.3920   -3.2850    1.2930 H   0  0  0  0  0  0  0  0  0  0  0  0
    1.7450   -3.2020    2.6910 H   0  0  0  0  0  0  0  0  0  0  0  0
    2.6720   -3.1110    4.6810 H   0  0  0  0  0  0  0  0  0  0  0  0
    1.4790   -1.8280    4.6540 H   0  0  0  0  0  0  0  0  0  0  0  0
    3.2340   -1.3820    6.0470 H   0  0  0  0  0  0  0  0  0  0  0  0
    4.5270   -1.5560    4.8920 H   0  0  0  0  0  0  0  0  0  0  0  0
    4.1650    0.7640    5.5470 H   0  0  0  0  0  0  0  0  0  0  0  0
    2.4740    0.7440    5.0890 H   0  0  0  0  0  0  0  0  0  0  0  0
    3.2280    0.6100    2.6180 H   0  0  0  0  0  0  0  0  0  0  0  0
    4.9250    0.6140    3.2860 H   0  0  0  0  0  0  0  0  0  0  0  0
    2.8190    2.6690    3.7200 H   0  0  0  0  0  0  0  0  0  0  0  0
    4.1510    2.7800    2.7220 H   0  0  0  0  0  0  0  0  0  0  0  0
    1.4450   -0.8910    0.7940 N   0  0  0  0  0  0  0  0  0  0  0  0
    0.4600    0.0380    0.1960 C   0  0  1  0  0  0  0  0  0  0  0  0
    1.1500    1.0740   -0.6090 C   0  0  0  0  0  0  0  0  0  0  0  0
    0.1960    2.0150   -1.2090 C   0  0  0  0  0  0  0  0  0  0  0  0
   -0.0310    2.0740   -2.4340 O   0  0  0  0  0  0  0  0  0  0  0  0
   -0.4610   -0.8370   -0.5630 C   0  0  0  0  0  0  0  0  0  0  0  0
   -0.2510   -2.1060   -0.6420 O   0  0  0  0  0  0  0  0  0  0  0  0
   -0.5190    2.9160   -0.3910 O   0  0  0  0  0  0  0  0  0  0  0  0
    2.1710   -1.2700    0.1640 H   0  0  0  0  0  0  0  0  0  0  0  0
   -0.1070    0.4530    1.0570 H   0  0  0  0  0  0  0  0  0  0  0  0
    1.9560    1.5940   -0.0420 H   0  0  0  0  0  0  0  0  0  0  0  0
    1.6950    0.5980   -1.4800 H   0  0  0  0  0  0  0  0  0  0  0  0
   -1.0480    3.6880   -0.7720 H   0  0  0  0  0  0  0  0  0  0  0  0
   -4.7760   -3.3460   -1.7850 C   0  0  0  0  0  0  0  0  0  0  0  0
   -4.9970   -1.8730   -2.0870 C   0  0  0  0  0  0  0  0  0  0  0  0
   -5.4070   -1.6320   -3.4880 C   0  0  0  0  0  0  0  0  0  0  0  0
   -3.8880   -1.0630   -1.5330 C   0  0  0  0  0  0  0  0  0  0  0  0
   -2.5130   -1.3510   -1.9780 C   0  0  2  0  0  0  0  0  0  0  0  0
   -1.6190   -0.4050   -1.2480 N   0  0  0  0  0  0  0  0  0  0  0  0
   -2.2120   -1.2880   -3.4090 C   0  0  0  0  0  0  0  0  0  0  0  0
   -2.6910   -2.0180   -4.3040 O   0  0  0  0  0  0  0  0  0  0  0  0
   -1.2940   -0.3220   -3.8490 O   0  0  0  0  0  0  0  0  0  0  0  0
   -4.2330   -3.8380   -2.6100 H   0  0  0  0  0  0  0  0  0  0  0  0
   -5.7360   -3.8740   -1.6180 H   0  0  0  0  0  0  0  0  0  0  0  0
   -4.2320   -3.4330   -0.8050 H   0  0  0  0  0  0  0  0  0  0  0  0
   -5.9200   -1.6060   -1.4300 H   0  0  0  0  0  0  0  0  0  0  0  0
   -6.5360   -1.4340   -3.4990 H   0  0  0  0  0  0  0  0  0  0  0  0
   -4.9510   -0.6950   -3.8820 H   0  0  0  0  0  0  0  0  0  0  0  0
   -5.2950   -2.5060   -4.1540 H   0  0  0  0  0  0  0  0  0  0  0  0
   -4.0760    0.0400   -1.6870 H   0  0  0  0  0  0  0  0  0  0  0  0
   -3.9110   -1.2140   -0.4100 H   0  0  0  0  0  0  0  0  0  0  0  0
   -2.2010   -2.3640   -1.5840 H   0  0  0  0  0  0  0  0  0  0  0  0
   -1.8850    0.5760   -1.2510 H   0  0  0  0  0  0  0  0  0  0  0  0
  1  2  1  0  0  0  0
  2 12  1  6  0  0  0
  2  3  1  0  0  0  0
  3 14  1  0  0  0  0
  3 13  1  0  0  0  0
  3  4  1  0  0  0  0
  4 15  1  0  0  0  0
  5  4  1  0  0  0  0
  5 18  1  0  0  0  0
  5 17  1  0  0  0  0
  6  7  1  0  0  0  0
  6  5  1  0  0  0  0
  7 21  1  0  0  0  0
  8  2  1  0  0  0  0
  8  9  2  0  0  0  0
 10  1  1  0  0  0  0
 11  1  1  0  0  0  0
 16  4  1  0  0  0  0
 19  6  1  0  0  0  0
 20  6  1  0  0  0  0
 22  7  1  0  0  0  0
 23  8  1  0  0  0  0
 24 23  1  0  0  0  0
 24 32  1  1  0  0  0
 25 33  1  0  0  0  0
 25 24  1  0  0  0  0
 26 25  1  0  0  0  0
 26 30  1  0  0  0  0
 27 26  2  0  0  0  0
 28 24  1  0  0  0  0
 29 28  2  0  0  0  0
 31 23  1  0  0  0  0
 34 25  1  0  0  0  0
 35 30  1  0  0  0  0
 36 46  1  0  0  0  0
 36 47  1  0  0  0  0
 37 36  1  0  0  0  0
 37 39  1  0  0  0  0
 37 48  1  0  0  0  0
 38 37  1  0  0  0  0
 39 53  1  0  0  0  0
 40 54  1  1  0  0  0
 40 39  1  0  0  0  0
 40 41  1  0  0  0  0
 41 28  1  0  0  0  0
 42 40  1  0  0  0  0
 43 42  2  0  0  0  0
 44 42  1  0  0  0  0
 45 36  1  0  0  0  0
 49 38  1  0  0  0  0
 50 38  1  0  0  0  0
 51 38  1  0  0  0  0
 52 39  1  0  0  0  0
 55 41  1  0  0  0  0
M  END
$$$$
