KDN.pdb
 OpenBabel07022418493D

 50 49  0  0  1  0  0  0  0  0999 V2000
    3.0750   -1.9430    3.6480 N   0  0  0  0  0  0  0  0  0  0  0  0
    2.5890   -1.1870    2.4880 C   0  0  1  0  0  0  0  0  0  0  0  0
    2.7510   -2.0890    1.2980 C   0  0  0  0  0  0  0  0  0  0  0  0
    4.1610   -2.4990    1.0400 C   0  0  0  0  0  0  0  0  0  0  0  0
    4.9990   -1.2820    0.7570 C   0  0  0  0  0  0  0  0  0  0  0  0
    6.4450   -1.6390    0.4820 C   0  0  0  0  0  0  0  0  0  0  0  0
    7.1280   -0.3890    0.2210 N   0  0  0  0  0  0  0  0  0  0  0  0
    1.1560   -0.8320    2.6280 C   0  0  0  0  0  0  0  0  0  0  0  0
    0.5410   -1.2160    3.6370 O   0  0  0  0  0  0  0  0  0  0  0  0
    2.3340   -2.6950    3.7850 H   0  0  0  0  0  0  0  0  0  0  0  0
    3.0470   -1.2870    4.4790 H   0  0  0  0  0  0  0  0  0  0  0  0
    3.1530   -0.2460    2.4430 H   0  0  0  0  0  0  0  0  0  0  0  0
    2.1480   -3.0150    1.5300 H   0  0  0  0  0  0  0  0  0  0  0  0
    2.2520   -1.6700    0.3840 H   0  0  0  0  0  0  0  0  0  0  0  0
    4.2320   -3.2340    0.2090 H   0  0  0  0  0  0  0  0  0  0  0  0
    4.5700   -2.9510    1.9870 H   0  0  0  0  0  0  0  0  0  0  0  0
    4.9690   -0.5740    1.6030 H   0  0  0  0  0  0  0  0  0  0  0  0
    4.6150   -0.8320   -0.1920 H   0  0  0  0  0  0  0  0  0  0  0  0
    6.5200   -2.3180   -0.4070 H   0  0  0  0  0  0  0  0  0  0  0  0
    6.8990   -2.0960    1.3760 H   0  0  0  0  0  0  0  0  0  0  0  0
    6.5240    0.2860   -0.2820 H   0  0  0  0  0  0  0  0  0  0  0  0
    7.5480    0.0480    1.0580 H   0  0  0  0  0  0  0  0  0  0  0  0
    0.5600   -0.0850    1.6210 N   0  0  0  0  0  0  0  0  0  0  0  0
   -0.8620    0.3060    1.6820 C   0  0  1  0  0  0  0  0  0  0  0  0
   -0.9210    1.7730    2.0200 C   0  0  0  0  0  0  0  0  0  0  0  0
   -2.2310    2.3690    2.1340 C   0  0  0  0  0  0  0  0  0  0  0  0
   -2.5880    3.2140    1.2380 O   0  0  0  0  0  0  0  0  0  0  0  0
   -1.4820   -0.1030    0.4380 C   0  0  0  0  0  0  0  0  0  0  0  0
   -0.7880   -0.6860   -0.4500 O   0  0  0  0  0  0  0  0  0  0  0  0
   -3.1800    2.1320    3.1210 O   0  0  0  0  0  0  0  0  0  0  0  0
    1.0810    0.2330    0.7850 H   0  0  0  0  0  0  0  0  0  0  0  0
   -1.2710   -0.2220    2.5860 H   0  0  0  0  0  0  0  0  0  0  0  0
   -0.3470    2.2920    1.1940 H   0  0  0  0  0  0  0  0  0  0  0  0
   -0.3040    2.0040    2.9330 H   0  0  0  0  0  0  0  0  0  0  0  0
   -4.1720    2.3390    2.9510 H   0  0  0  0  0  0  0  0  0  0  0  0
   -6.1120   -2.9620   -1.9970 N   0  0  0  0  0  0  0  0  0  0  0  0
   -5.0810   -1.9600   -2.0750 C   0  0  0  0  0  0  0  0  0  0  0  0
   -4.7880   -1.5980   -3.2570 O   0  0  0  0  0  0  0  0  0  0  0  0
   -4.4390   -1.4200   -0.8660 C   0  0  0  0  0  0  0  0  0  0  0  0
   -3.4480   -0.3150   -1.1100 C   0  0  2  0  0  0  0  0  0  0  0  0
   -2.8420    0.1160    0.1580 N   0  0  0  0  0  0  0  0  0  0  0  0
   -3.9890    0.8600   -1.8000 C   0  0  0  0  0  0  0  0  0  0  0  0
   -3.8420    1.9950   -1.2340 O   0  0  0  0  0  0  0  0  0  0  0  0
   -4.6500    0.9090   -2.9960 O   0  0  0  0  0  0  0  0  0  0  0  0
   -6.3430   -3.5780   -2.8050 H   0  0  0  0  0  0  0  0  0  0  0  0
   -6.6660   -3.1020   -1.1160 H   0  0  0  0  0  0  0  0  0  0  0  0
   -5.2730   -1.0910   -0.2000 H   0  0  0  0  0  0  0  0  0  0  0  0
   -3.9540   -2.2690   -0.3360 H   0  0  0  0  0  0  0  0  0  0  0  0
   -2.6290   -0.7400   -1.7170 H   0  0  0  0  0  0  0  0  0  0  0  0
   -3.4210    0.5940    0.8680 H   0  0  0  0  0  0  0  0  0  0  0  0
  1 10  1  0  0  0  0
  1 11  1  0  0  0  0
  2 12  1  6  0  0  0
  2  8  1  0  0  0  0
  2  1  1  0  0  0  0
  3 13  1  0  0  0  0
  3  2  1  0  0  0  0
  4  3  1  0  0  0  0
  4 16  1  0  0  0  0
  5  4  1  0  0  0  0
  5 17  1  0  0  0  0
  6  5  1  0  0  0  0
  6 20  1  0  0  0  0
  7  6  1  0  0  0  0
  7 22  1  0  0  0  0
  8  9  2  0  0  0  0
 14  3  1  0  0  0  0
 15  4  1  0  0  0  0
 18  5  1  0  0  0  0
 19  6  1  0  0  0  0
 21  7  1  0  0  0  0
 23 24  1  0  0  0  0
 23  8  1  0  0  0  0
 24 25  1  0  0  0  0
 24 32  1  1  0  0  0
 25 26  1  0  0  0  0
 25 34  1  0  0  0  0
 26 30  1  0  0  0  0
 27 26  2  0  0  0  0
 28 24  1  0  0  0  0
 29 28  2  0  0  0  0
 31 23  1  0  0  0  0
 33 25  1  0  0  0  0
 35 30  1  0  0  0  0
 36 46  1  0  0  0  0
 37 36  1  0  0  0  0
 37 39  1  0  0  0  0
 38 37  2  0  0  0  0
 39 48  1  0  0  0  0
 39 47  1  0  0  0  0
 40 49  1  6  0  0  0
 40 39  1  0  0  0  0
 40 41  1  0  0  0  0
 41 28  1  0  0  0  0
 41 50  1  0  0  0  0
 42 43  1  0  0  0  0
 42 40  1  0  0  0  0
 44 42  2  0  0  0  0
 45 36  1  0  0  0  0
M  END
$$$$
