KDS.pdb
 OpenBabel07022418493D

 47 46  0  0  1  0  0  0  0  0999 V2000
    0.8890   -2.4470    4.2850 N   0  0  0  0  0  0  0  0  0  0  0  0
    1.5670   -1.7930    3.1880 C   0  0  1  0  0  0  0  0  0  0  0  0
    1.9180   -2.7450    2.0870 C   0  0  0  0  0  0  0  0  0  0  0  0
    0.7250   -3.4190    1.4820 C   0  0  0  0  0  0  0  0  0  0  0  0
    1.0390   -4.3690    0.3830 C   0  0  0  0  0  0  0  0  0  0  0  0
    1.9240   -5.5110    0.7500 C   0  0  0  0  0  0  0  0  0  0  0  0
    1.3860   -6.3640    1.7840 N   0  0  0  0  0  0  0  0  0  0  0  0
    0.7480   -0.6480    2.7480 C   0  0  0  0  0  0  0  0  0  0  0  0
   -0.2980   -0.3740    3.3850 O   0  0  0  0  0  0  0  0  0  0  0  0
    0.7250   -1.7200    5.0170 H   0  0  0  0  0  0  0  0  0  0  0  0
   -0.0670   -2.7210    3.9210 H   0  0  0  0  0  0  0  0  0  0  0  0
    2.5310   -1.3960    3.6220 H   0  0  0  0  0  0  0  0  0  0  0  0
    2.5670   -2.2450    1.3710 H   0  0  0  0  0  0  0  0  0  0  0  0
    2.5360   -3.5590    2.5540 H   0  0  0  0  0  0  0  0  0  0  0  0
    0.1180   -3.9450    2.2460 H   0  0  0  0  0  0  0  0  0  0  0  0
    0.0700   -2.6220    1.0710 H   0  0  0  0  0  0  0  0  0  0  0  0
    0.1150   -4.7890   -0.0670 H   0  0  0  0  0  0  0  0  0  0  0  0
    1.5520   -3.8380   -0.4730 H   0  0  0  0  0  0  0  0  0  0  0  0
    2.9760   -5.1880    0.9870 H   0  0  0  0  0  0  0  0  0  0  0  0
    2.0290   -6.1510   -0.1560 H   0  0  0  0  0  0  0  0  0  0  0  0
    0.9460   -7.2310    1.4160 H   0  0  0  0  0  0  0  0  0  0  0  0
    1.9700   -6.4760    2.6110 H   0  0  0  0  0  0  0  0  0  0  0  0
    1.0810    0.1620    1.6370 N   0  0  0  0  0  0  0  0  0  0  0  0
    0.1990    1.2710    1.2880 C   0  0  1  0  0  0  0  0  0  0  0  0
    1.0080    2.5320    1.4130 C   0  0  0  0  0  0  0  0  0  0  0  0
    0.2960    3.7770    1.0960 C   0  0  0  0  0  0  0  0  0  0  0  0
    0.4930    4.3150   -0.0230 O   0  0  0  0  0  0  0  0  0  0  0  0
   -0.4100    1.0950   -0.0230 C   0  0  0  0  0  0  0  0  0  0  0  0
   -0.0230    0.1010   -0.7200 O   0  0  0  0  0  0  0  0  0  0  0  0
   -0.5850    4.4000    1.9590 O   0  0  0  0  0  0  0  0  0  0  0  0
    1.9550   -0.0380    1.0730 H   0  0  0  0  0  0  0  0  0  0  0  0
   -0.5960    1.3210    2.0380 H   0  0  0  0  0  0  0  0  0  0  0  0
    1.9450    2.4880    0.7960 H   0  0  0  0  0  0  0  0  0  0  0  0
    1.3440    2.5690    2.4830 H   0  0  0  0  0  0  0  0  0  0  0  0
   -1.1670    5.1830    1.6300 H   0  0  0  0  0  0  0  0  0  0  0  0
   -3.4420    0.1130   -0.9540 O   0  0  0  0  0  0  0  0  0  0  0  0
   -3.4400    1.3030   -1.6980 C   0  0  0  0  0  0  0  0  0  0  0  0
   -1.9790    1.7370   -1.8350 C   0  0  2  0  0  0  0  0  0  0  0  0
   -1.3980    1.9620   -0.5360 N   0  0  0  0  0  0  0  0  0  0  0  0
   -1.8360    2.8470   -2.7860 C   0  0  0  0  0  0  0  0  0  0  0  0
   -1.2540    3.8980   -2.4940 O   0  0  0  0  0  0  0  0  0  0  0  0
   -2.3640    2.7520   -4.0810 O   0  0  0  0  0  0  0  0  0  0  0  0
   -3.8720    0.2840   -0.0800 H   0  0  0  0  0  0  0  0  0  0  0  0
   -4.0180    2.0800   -1.1610 H   0  0  0  0  0  0  0  0  0  0  0  0
   -3.8360    1.1780   -2.7090 H   0  0  0  0  0  0  0  0  0  0  0  0
   -1.4780    0.8510   -2.3010 H   0  0  0  0  0  0  0  0  0  0  0  0
   -1.7090    2.7630    0.0380 H   0  0  0  0  0  0  0  0  0  0  0  0
  1 10  1  0  0  0  0
  2 12  1  1  0  0  0
  2  1  1  0  0  0  0
  3 14  1  0  0  0  0
  3  2  1  0  0  0  0
  4  3  1  0  0  0  0
  4 15  1  0  0  0  0
  5  6  1  0  0  0  0
  5  4  1  0  0  0  0
  6 19  1  0  0  0  0
  6  7  1  0  0  0  0
  7 22  1  0  0  0  0
  8  2  1  0  0  0  0
  8  9  2  0  0  0  0
 11  1  1  0  0  0  0
 13  3  1  0  0  0  0
 16  4  1  0  0  0  0
 17  5  1  0  0  0  0
 18  5  1  0  0  0  0
 20  6  1  0  0  0  0
 21  7  1  0  0  0  0
 23  8  1  0  0  0  0
 24 25  1  0  0  0  0
 24 23  1  0  0  0  0
 24 32  1  1  0  0  0
 25 34  1  0  0  0  0
 26 25  1  0  0  0  0
 26 30  1  0  0  0  0
 27 26  2  0  0  0  0
 28 24  1  0  0  0  0
 29 28  2  0  0  0  0
 31 23  1  0  0  0  0
 33 25  1  0  0  0  0
 35 30  1  0  0  0  0
 36 43  1  0  0  0  0
 37 44  1  0  0  0  0
 37 36  1  0  0  0  0
 38 46  1  6  0  0  0
 38 37  1  0  0  0  0
 38 39  1  0  0  0  0
 39 28  1  0  0  0  0
 39 47  1  0  0  0  0
 40 41  1  0  0  0  0
 40 38  1  0  0  0  0
 42 40  2  0  0  0  0
 45 37  1  0  0  0  0
M  END
$$$$
