KEA.pdb
 OpenBabel07022418493D

 49 48  0  0  1  0  0  0  0  0999 V2000
    1.7980   -2.9770    3.6870 N   0  0  0  0  0  0  0  0  0  0  0  0
    1.8170   -1.7250    2.9430 C   0  0  1  0  0  0  0  0  0  0  0  0
    2.4140   -2.0320    1.5840 C   0  0  0  0  0  0  0  0  0  0  0  0
    1.5840   -3.0680    0.8540 C   0  0  0  0  0  0  0  0  0  0  0  0
    2.2050   -3.3460   -0.4810 C   0  0  0  0  0  0  0  0  0  0  0  0
    1.3990   -4.3930   -1.2490 C   0  0  0  0  0  0  0  0  0  0  0  0
    2.0260   -4.6350   -2.5340 N   0  0  0  0  0  0  0  0  0  0  0  0
    0.4270   -1.2300    2.8560 C   0  0  0  0  0  0  0  0  0  0  0  0
   -0.5430   -1.9040    3.3090 O   0  0  0  0  0  0  0  0  0  0  0  0
    1.5920   -2.7530    4.7050 H   0  0  0  0  0  0  0  0  0  0  0  0
    0.9680   -3.5550    3.3590 H   0  0  0  0  0  0  0  0  0  0  0  0
    2.4720   -1.0100    3.4550 H   0  0  0  0  0  0  0  0  0  0  0  0
    3.4360   -2.4190    1.7710 H   0  0  0  0  0  0  0  0  0  0  0  0
    2.5020   -1.1530    0.9360 H   0  0  0  0  0  0  0  0  0  0  0  0
    1.4960   -3.9910    1.4320 H   0  0  0  0  0  0  0  0  0  0  0  0
    0.5650   -2.6340    0.7050 H   0  0  0  0  0  0  0  0  0  0  0  0
    2.2670   -2.4180   -1.0950 H   0  0  0  0  0  0  0  0  0  0  0  0
    3.2390   -3.7060   -0.3530 H   0  0  0  0  0  0  0  0  0  0  0  0
    1.4050   -5.3170   -0.6230 H   0  0  0  0  0  0  0  0  0  0  0  0
    0.3520   -4.0680   -1.3970 H   0  0  0  0  0  0  0  0  0  0  0  0
    1.4520   -4.3060   -3.3320 H   0  0  0  0  0  0  0  0  0  0  0  0
    2.3040   -5.6410   -2.6460 H   0  0  0  0  0  0  0  0  0  0  0  0
    0.2040    0.0180    2.2530 N   0  0  0  0  0  0  0  0  0  0  0  0
   -1.1650    0.5780    2.1320 C   0  0  1  0  0  0  0  0  0  0  0  0
   -1.1870    1.7020    3.0980 C   0  0  0  0  0  0  0  0  0  0  0  0
   -2.4400    2.4970    3.1880 C   0  0  0  0  0  0  0  0  0  0  0  0
   -2.7290    3.2600    1.9750 C   0  0  0  0  0  0  0  0  0  0  0  0
   -3.9190    3.5460    1.6220 O   0  0  0  0  0  0  0  0  0  0  0  0
   -1.5410    0.7910    0.7570 C   0  0  0  0  0  0  0  0  0  0  0  0
   -2.7270    1.0450    0.3940 O   0  0  0  0  0  0  0  0  0  0  0  0
   -1.6400    3.6880    1.1890 O   0  0  0  0  0  0  0  0  0  0  0  0
    0.9540    0.6230    1.8640 H   0  0  0  0  0  0  0  0  0  0  0  0
   -1.8300   -0.2350    2.5510 H   0  0  0  0  0  0  0  0  0  0  0  0
   -0.3040    2.3980    2.9490 H   0  0  0  0  0  0  0  0  0  0  0  0
   -0.9930    1.3300    4.1610 H   0  0  0  0  0  0  0  0  0  0  0  0
   -2.4360    3.1370    4.1050 H   0  0  0  0  0  0  0  0  0  0  0  0
   -3.2720    1.7480    3.3740 H   0  0  0  0  0  0  0  0  0  0  0  0
   -1.8240    4.2780    0.3840 H   0  0  0  0  0  0  0  0  0  0  0  0
   -0.3230    2.1790   -2.3210 C   0  0  0  0  0  0  0  0  0  0  0  0
   -0.9420    0.9470   -1.7060 C   0  0  2  0  0  0  0  0  0  0  0  0
   -0.6060    0.7400   -0.3440 N   0  0  0  0  0  0  0  0  0  0  0  0
   -0.6700   -0.2040   -2.5830 C   0  0  0  0  0  0  0  0  0  0  0  0
   -0.9040   -0.2110   -3.8030 O   0  0  0  0  0  0  0  0  0  0  0  0
   -0.1140   -1.3460   -1.9790 O   0  0  0  0  0  0  0  0  0  0  0  0
   -0.9750    3.0770   -2.1380 H   0  0  0  0  0  0  0  0  0  0  0  0
    0.7150    2.3460   -2.0320 H   0  0  0  0  0  0  0  0  0  0  0  0
   -0.3450    2.0260   -3.4210 H   0  0  0  0  0  0  0  0  0  0  0  0
   -2.0570    1.1300   -1.7500 H   0  0  0  0  0  0  0  0  0  0  0  0
    0.3720    0.5320   -0.0720 H   0  0  0  0  0  0  0  0  0  0  0  0
  1 10  1  0  0  0  0
  2 12  1  1  0  0  0
  2  1  1  0  0  0  0
  3 13  1  0  0  0  0
  3  2  1  0  0  0  0
  4 15  1  0  0  0  0
  4  3  1  0  0  0  0
  5 18  1  0  0  0  0
  5  4  1  0  0  0  0
  6 19  1  0  0  0  0
  6  5  1  0  0  0  0
  7  6  1  0  0  0  0
  8  2  1  0  0  0  0
  8  9  2  0  0  0  0
 11  1  1  0  0  0  0
 14  3  1  0  0  0  0
 16  4  1  0  0  0  0
 17  5  1  0  0  0  0
 20  6  1  0  0  0  0
 21  7  1  0  0  0  0
 22  7  1  0  0  0  0
 23  8  1  0  0  0  0
 24 23  1  0  0  0  0
 24 33  1  1  0  0  0
 24 25  1  0  0  0  0
 25 26  1  0  0  0  0
 25 35  1  0  0  0  0
 26 37  1  0  0  0  0
 26 36  1  0  0  0  0
 27 26  1  0  0  0  0
 28 27  2  0  0  0  0
 29 24  1  0  0  0  0
 30 29  2  0  0  0  0
 31 27  1  0  0  0  0
 32 23  1  0  0  0  0
 34 25  1  0  0  0  0
 38 31  1  0  0  0  0
 39 45  1  0  0  0  0
 39 46  1  0  0  0  0
 39 40  1  0  0  0  0
 40 48  1  6  0  0  0
 40 41  1  0  0  0  0
 41 49  1  0  0  0  0
 41 29  1  0  0  0  0
 42 44  1  0  0  0  0
 42 40  1  0  0  0  0
 43 42  2  0  0  0  0
 47 39  1  0  0  0  0
M  END
$$$$
