KEC.pdb
 OpenBabel07022418493D

 50 49  0  0  1  0  0  0  0  0999 V2000
    1.4500   -2.8030    3.0300 N   0  0  0  0  0  0  0  0  0  0  0  0
    1.4810   -1.7120    2.0690 C   0  0  1  0  0  0  0  0  0  0  0  0
    1.3940   -2.3000    0.6880 C   0  0  0  0  0  0  0  0  0  0  0  0
    2.5450   -3.2550    0.4300 C   0  0  0  0  0  0  0  0  0  0  0  0
    3.8790   -2.5660    0.5820 C   0  0  0  0  0  0  0  0  0  0  0  0
    4.9740   -3.5620    0.3150 C   0  0  0  0  0  0  0  0  0  0  0  0
    6.2850   -2.9340    0.4700 N   0  0  0  0  0  0  0  0  0  0  0  0
    0.3210   -0.8060    2.2640 C   0  0  0  0  0  0  0  0  0  0  0  0
   -0.4530   -0.9530    3.2660 O   0  0  0  0  0  0  0  0  0  0  0  0
    0.6360   -2.7790    3.6450 H   0  0  0  0  0  0  0  0  0  0  0  0
    2.3650   -2.8750    3.5210 H   0  0  0  0  0  0  0  0  0  0  0  0
    2.4150   -1.1090    2.1540 H   0  0  0  0  0  0  0  0  0  0  0  0
    0.4450   -2.8500    0.5560 H   0  0  0  0  0  0  0  0  0  0  0  0
    1.4660   -1.4880   -0.0820 H   0  0  0  0  0  0  0  0  0  0  0  0
    2.4510   -3.5950   -0.6250 H   0  0  0  0  0  0  0  0  0  0  0  0
    2.4640   -4.1450    1.0790 H   0  0  0  0  0  0  0  0  0  0  0  0
    3.9700   -1.7550   -0.1790 H   0  0  0  0  0  0  0  0  0  0  0  0
    4.0430   -2.1600    1.6000 H   0  0  0  0  0  0  0  0  0  0  0  0
    4.9380   -3.9610   -0.7300 H   0  0  0  0  0  0  0  0  0  0  0  0
    4.9350   -4.4510    0.9730 H   0  0  0  0  0  0  0  0  0  0  0  0
    6.3070   -2.0270   -0.0460 H   0  0  0  0  0  0  0  0  0  0  0  0
    6.5300   -2.8140    1.4990 H   0  0  0  0  0  0  0  0  0  0  0  0
    0.0810    0.2190    1.3350 N   0  0  0  0  0  0  0  0  0  0  0  0
   -1.0330    1.1330    1.4740 C   0  0  1  0  0  0  0  0  0  0  0  0
   -0.5710    2.5430    1.3850 C   0  0  0  0  0  0  0  0  0  0  0  0
   -1.6340    3.5750    1.5240 C   0  0  0  0  0  0  0  0  0  0  0  0
   -2.3440    3.5120    2.8250 C   0  0  0  0  0  0  0  0  0  0  0  0
   -1.6700    3.5200    3.8820 O   0  0  0  0  0  0  0  0  0  0  0  0
   -2.1290    0.7830    0.5290 C   0  0  0  0  0  0  0  0  0  0  0  0
   -3.1720    1.4750    0.5470 O   0  0  0  0  0  0  0  0  0  0  0  0
   -3.7280    3.4460    2.9380 O   0  0  0  0  0  0  0  0  0  0  0  0
    0.7060    0.3360    0.5240 H   0  0  0  0  0  0  0  0  0  0  0  0
   -1.4640    0.9390    2.4960 H   0  0  0  0  0  0  0  0  0  0  0  0
   -0.0320    2.7540    0.4330 H   0  0  0  0  0  0  0  0  0  0  0  0
    0.1870    2.7230    2.1970 H   0  0  0  0  0  0  0  0  0  0  0  0
   -2.3590    3.5970    0.7040 H   0  0  0  0  0  0  0  0  0  0  0  0
   -1.0970    4.5760    1.4330 H   0  0  0  0  0  0  0  0  0  0  0  0
   -4.0960    3.0930    3.8180 H   0  0  0  0  0  0  0  0  0  0  0  0
   -2.0580   -0.2970   -0.3910 N   0  0  0  0  0  0  0  0  0  0  0  0
   -3.1590   -0.5910   -1.2790 C   0  0  1  0  0  0  0  0  0  0  0  0
   -2.7990   -0.5510   -2.7380 C   0  0  0  0  0  0  0  0  0  0  0  0
   -2.1970    1.0980   -3.1560 S   0  0  0  0  0  0  0  0  0  0  0  0
   -3.7890   -1.9020   -0.9240 C   0  0  0  0  0  0  0  0  0  0  0  0
   -4.7730   -2.3540   -1.5320 O   0  0  0  0  0  0  0  0  0  0  0  0
   -3.2500   -2.6220    0.1120 O   0  0  0  0  0  0  0  0  0  0  0  0
   -1.1700   -0.8780   -0.4090 H   0  0  0  0  0  0  0  0  0  0  0  0
   -3.9590    0.1650   -1.1220 H   0  0  0  0  0  0  0  0  0  0  0  0
   -3.7710   -0.6910   -3.2910 H   0  0  0  0  0  0  0  0  0  0  0  0
   -2.1080   -1.3590   -3.0160 H   0  0  0  0  0  0  0  0  0  0  0  0
   -1.6080    1.0890   -4.4480 H   0  0  0  0  0  0  0  0  0  0  0  0
  1 11  1  0  0  0  0
  1 10  1  0  0  0  0
  2 12  1  1  0  0  0
  2  8  1  0  0  0  0
  2  1  1  0  0  0  0
  3  2  1  0  0  0  0
  4  5  1  0  0  0  0
  4  3  1  0  0  0  0
  4 16  1  0  0  0  0
  5 18  1  0  0  0  0
  6  7  1  0  0  0  0
  6  5  1  0  0  0  0
  6 20  1  0  0  0  0
  7 22  1  0  0  0  0
  8  9  2  0  0  0  0
 13  3  1  0  0  0  0
 14  3  1  0  0  0  0
 15  4  1  0  0  0  0
 17  5  1  0  0  0  0
 19  6  1  0  0  0  0
 21  7  1  0  0  0  0
 23 24  1  0  0  0  0
 23  8  1  0  0  0  0
 24 33  1  1  0  0  0
 25 24  1  0  0  0  0
 25 26  1  0  0  0  0
 25 35  1  0  0  0  0
 26 27  1  0  0  0  0
 27 31  1  0  0  0  0
 27 28  2  0  0  0  0
 29 30  2  0  0  0  0
 29 24  1  0  0  0  0
 31 38  1  0  0  0  0
 32 23  1  0  0  0  0
 34 25  1  0  0  0  0
 36 26  1  0  0  0  0
 37 26  1  0  0  0  0
 39 29  1  0  0  0  0
 40 47  1  1  0  0  0
 40 43  1  0  0  0  0
 40 39  1  0  0  0  0
 41 40  1  0  0  0  0
 42 41  1  0  0  0  0
 43 45  1  0  0  0  0
 44 43  2  0  0  0  0
 46 39  1  0  0  0  0
 48 41  1  0  0  0  0
 49 41  1  0  0  0  0
 50 42  1  0  0  0  0
M  END
$$$$
