KEE.pdb
 OpenBabel07022418493D

 55 54  0  0  1  0  0  0  0  0999 V2000
    2.8610   -0.7630    2.7470 N   0  0  0  0  0  0  0  0  0  0  0  0
    1.6650   -0.4680    3.4120 C   0  0  1  0  0  0  0  0  0  0  0  0
    1.8520    0.6980    4.3480 C   0  0  0  0  0  0  0  0  0  0  0  0
    2.2720    1.9720    3.7250 C   0  0  0  0  0  0  0  0  0  0  0  0
    3.5630    1.9790    2.9890 C   0  0  0  0  0  0  0  0  0  0  0  0
    3.8180    3.3950    2.4370 C   0  0  0  0  0  0  0  0  0  0  0  0
    5.1070    3.2870    1.7370 N   0  0  0  0  0  0  0  0  0  0  0  0
    0.4620   -0.3190    2.5940 C   0  0  0  0  0  0  0  0  0  0  0  0
   -0.6220   -0.0820    3.1880 O   0  0  0  0  0  0  0  0  0  0  0  0
    2.8150   -1.3770    1.9180 H   0  0  0  0  0  0  0  0  0  0  0  0
    3.5950   -1.1390    3.3920 H   0  0  0  0  0  0  0  0  0  0  0  0
    1.4470   -1.3480    4.0950 H   0  0  0  0  0  0  0  0  0  0  0  0
    0.8890    0.8960    4.8860 H   0  0  0  0  0  0  0  0  0  0  0  0
    2.5590    0.4030    5.1570 H   0  0  0  0  0  0  0  0  0  0  0  0
    2.3850    2.7110    4.5730 H   0  0  0  0  0  0  0  0  0  0  0  0
    1.4560    2.4070    3.1050 H   0  0  0  0  0  0  0  0  0  0  0  0
    3.4910    1.3640    2.0430 H   0  0  0  0  0  0  0  0  0  0  0  0
    4.4380    1.7280    3.5940 H   0  0  0  0  0  0  0  0  0  0  0  0
    3.0720    3.6580    1.6620 H   0  0  0  0  0  0  0  0  0  0  0  0
    3.9150    4.1330    3.2350 H   0  0  0  0  0  0  0  0  0  0  0  0
    5.7720    2.7260    2.3290 H   0  0  0  0  0  0  0  0  0  0  0  0
    4.9400    2.6710    0.8840 H   0  0  0  0  0  0  0  0  0  0  0  0
    0.4690   -0.4280    1.2020 N   0  0  0  0  0  0  0  0  0  0  0  0
   -0.7600   -0.2760    0.3770 C   0  0  1  0  0  0  0  0  0  0  0  0
   -0.5940    0.9020   -0.5170 C   0  0  0  0  0  0  0  0  0  0  0  0
   -1.7020    1.2440   -1.4340 C   0  0  0  0  0  0  0  0  0  0  0  0
   -2.9920    1.5330   -0.8010 C   0  0  0  0  0  0  0  0  0  0  0  0
   -3.1850    1.5060    0.4360 O   0  0  0  0  0  0  0  0  0  0  0  0
   -0.8800   -1.5140   -0.4070 C   0  0  0  0  0  0  0  0  0  0  0  0
    0.1010   -2.3390   -0.3710 O   0  0  0  0  0  0  0  0  0  0  0  0
   -4.0990    1.8640   -1.5910 O   0  0  0  0  0  0  0  0  0  0  0  0
    1.3580   -0.6180    0.7240 H   0  0  0  0  0  0  0  0  0  0  0  0
   -1.6260   -0.0920    1.0410 H   0  0  0  0  0  0  0  0  0  0  0  0
   -0.3980    1.7840    0.1650 H   0  0  0  0  0  0  0  0  0  0  0  0
    0.3500    0.8390   -1.1340 H   0  0  0  0  0  0  0  0  0  0  0  0
   -1.4020    2.2110   -1.9880 H   0  0  0  0  0  0  0  0  0  0  0  0
   -1.8560    0.5410   -2.2760 H   0  0  0  0  0  0  0  0  0  0  0  0
   -4.7850    2.5070   -1.1770 H   0  0  0  0  0  0  0  0  0  0  0  0
   -1.9590   -1.9180   -1.2040 N   0  0  0  0  0  0  0  0  0  0  0  0
   -1.9580   -3.1920   -1.9450 C   0  0  1  0  0  0  0  0  0  0  0  0
   -3.1460   -3.9570   -1.3830 C   0  0  0  0  0  0  0  0  0  0  0  0
   -3.3350   -5.3110   -1.9860 C   0  0  0  0  0  0  0  0  0  0  0  0
   -2.1790   -6.2050   -1.7720 C   0  0  0  0  0  0  0  0  0  0  0  0
   -1.1530   -6.1120   -2.4840 O   0  0  0  0  0  0  0  0  0  0  0  0
   -2.1150   -2.9060   -3.3860 C   0  0  0  0  0  0  0  0  0  0  0  0
   -2.2310   -1.7160   -3.7650 O   0  0  0  0  0  0  0  0  0  0  0  0
   -2.2030   -7.1700   -0.7790 O   0  0  0  0  0  0  0  0  0  0  0  0
   -2.1420   -3.8740   -4.3540 O   0  0  0  0  0  0  0  0  0  0  0  0
   -2.7970   -1.3160   -1.2700 H   0  0  0  0  0  0  0  0  0  0  0  0
   -1.0250   -3.7440   -1.7970 H   0  0  0  0  0  0  0  0  0  0  0  0
   -4.0460   -3.3180   -1.5600 H   0  0  0  0  0  0  0  0  0  0  0  0
   -3.0750   -4.0590   -0.2820 H   0  0  0  0  0  0  0  0  0  0  0  0
   -3.5370   -5.2110   -3.0860 H   0  0  0  0  0  0  0  0  0  0  0  0
   -4.2870   -5.7760   -1.5950 H   0  0  0  0  0  0  0  0  0  0  0  0
   -1.3480   -7.4450   -0.2700 H   0  0  0  0  0  0  0  0  0  0  0  0
  1 11  1  0  0  0  0
  1  2  1  0  0  0  0
  2 12  1  1  0  0  0
  2  3  1  0  0  0  0
  3 13  1  0  0  0  0
  3 14  1  0  0  0  0
  4  3  1  0  0  0  0
  4 15  1  0  0  0  0
  5 18  1  0  0  0  0
  5  4  1  0  0  0  0
  6  5  1  0  0  0  0
  6 20  1  0  0  0  0
  7 21  1  0  0  0  0
  7  6  1  0  0  0  0
  8  9  2  0  0  0  0
  8  2  1  0  0  0  0
 10  1  1  0  0  0  0
 16  4  1  0  0  0  0
 17  5  1  0  0  0  0
 19  6  1  0  0  0  0
 22  7  1  0  0  0  0
 23  8  1  0  0  0  0
 24 33  1  1  0  0  0
 24 23  1  0  0  0  0
 25 34  1  0  0  0  0
 25 24  1  0  0  0  0
 26 27  1  0  0  0  0
 26 25  1  0  0  0  0
 27 28  2  0  0  0  0
 29 30  2  0  0  0  0
 29 24  1  0  0  0  0
 31 38  1  0  0  0  0
 31 27  1  0  0  0  0
 32 23  1  0  0  0  0
 35 25  1  0  0  0  0
 36 26  1  0  0  0  0
 37 26  1  0  0  0  0
 39 29  1  0  0  0  0
 40 50  1  1  0  0  0
 40 41  1  0  0  0  0
 40 39  1  0  0  0  0
 41 52  1  0  0  0  0
 42 43  1  0  0  0  0
 42 54  1  0  0  0  0
 42 41  1  0  0  0  0
 43 47  1  0  0  0  0
 44 43  2  0  0  0  0
 45 40  1  0  0  0  0
 46 45  1  0  0  0  0
 47 55  1  0  0  0  0
 48 45  2  0  0  0  0
 49 39  1  0  0  0  0
 51 41  1  0  0  0  0
 53 42  1  0  0  0  0
M  END
$$$$
