KEF.pdb
 OpenBabel07022418493D

 59 59  0  0  1  0  0  0  0  0999 V2000
    0.8910   -1.2660    2.2350 N   0  0  0  0  0  0  0  0  0  0  0  0
    0.7180    0.1530    2.5150 C   0  0  1  0  0  0  0  0  0  0  0  0
    2.0200    0.7760    2.8480 C   0  0  0  0  0  0  0  0  0  0  0  0
    3.0940    0.6570    1.8250 C   0  0  0  0  0  0  0  0  0  0  0  0
    4.3810    1.3530    2.2660 C   0  0  0  0  0  0  0  0  0  0  0  0
    5.3860    1.1630    1.1530 C   0  0  0  0  0  0  0  0  0  0  0  0
    5.6350   -0.2470    0.9200 N   0  0  0  0  0  0  0  0  0  0  0  0
   -0.1760    0.8250    1.5940 C   0  0  0  0  0  0  0  0  0  0  0  0
   -0.6280    1.9830    1.9020 O   0  0  0  0  0  0  0  0  0  0  0  0
    1.2400   -1.4430    1.2780 H   0  0  0  0  0  0  0  0  0  0  0  0
   -0.0330   -1.7410    2.3960 H   0  0  0  0  0  0  0  0  0  0  0  0
    0.1290    0.1240    3.5150 H   0  0  0  0  0  0  0  0  0  0  0  0
    2.4450    0.3470    3.8030 H   0  0  0  0  0  0  0  0  0  0  0  0
    1.9160    1.8730    3.1020 H   0  0  0  0  0  0  0  0  0  0  0  0
    2.8420    1.0150    0.8260 H   0  0  0  0  0  0  0  0  0  0  0  0
    3.4160   -0.4180    1.6850 H   0  0  0  0  0  0  0  0  0  0  0  0
    4.1980    2.4470    2.3700 H   0  0  0  0  0  0  0  0  0  0  0  0
    4.7960    0.8920    3.1750 H   0  0  0  0  0  0  0  0  0  0  0  0
    5.0770    1.6680    0.2260 H   0  0  0  0  0  0  0  0  0  0  0  0
    6.3360    1.6450    1.4710 H   0  0  0  0  0  0  0  0  0  0  0  0
    6.6040   -0.4540    0.6420 H   0  0  0  0  0  0  0  0  0  0  0  0
    5.0250   -0.5290    0.0970 H   0  0  0  0  0  0  0  0  0  0  0  0
   -0.6210    0.3170    0.3550 N   0  0  0  0  0  0  0  0  0  0  0  0
   -1.5340    0.9670   -0.5030 C   0  0  1  0  0  0  0  0  0  0  0  0
   -1.0910    1.4980   -1.8030 C   0  0  0  0  0  0  0  0  0  0  0  0
   -0.0970    2.5800   -1.8650 C   0  0  0  0  0  0  0  0  0  0  0  0
    1.2080    2.3780   -1.2460 C   0  0  0  0  0  0  0  0  0  0  0  0
    1.4400    2.9850   -0.1720 O   0  0  0  0  0  0  0  0  0  0  0  0
   -2.7410    0.0980   -0.7950 C   0  0  0  0  0  0  0  0  0  0  0  0
   -3.6100    0.5790   -1.5520 O   0  0  0  0  0  0  0  0  0  0  0  0
    2.1830    1.5680   -1.7730 O   0  0  0  0  0  0  0  0  0  0  0  0
   -0.2440   -0.6250    0.0380 H   0  0  0  0  0  0  0  0  0  0  0  0
   -1.9400    1.8810    0.0680 H   0  0  0  0  0  0  0  0  0  0  0  0
   -2.0340    1.8930   -2.3160 H   0  0  0  0  0  0  0  0  0  0  0  0
   -0.8260    0.6290   -2.4940 H   0  0  0  0  0  0  0  0  0  0  0  0
    0.0420    2.8190   -2.9760 H   0  0  0  0  0  0  0  0  0  0  0  0
   -0.5740    3.5580   -1.5100 H   0  0  0  0  0  0  0  0  0  0  0  0
    3.1860    1.7690   -1.6380 H   0  0  0  0  0  0  0  0  0  0  0  0
   -2.8910   -1.2010   -0.2410 N   0  0  0  0  0  0  0  0  0  0  0  0
   -4.0440   -2.0360   -0.5190 C   0  0  1  0  0  0  0  0  0  0  0  0
   -3.5490   -3.2580   -1.2440 C   0  0  0  0  0  0  0  0  0  0  0  0
   -2.5790   -4.0430   -0.4790 C   0  0  0  0  0  0  0  0  0  0  0  0
   -1.2420   -3.7400   -0.6180 C   0  0  0  0  0  0  0  0  0  0  0  0
   -0.2550   -4.4270    0.0650 C   0  0  0  0  0  0  0  0  0  0  0  0
   -0.6050   -5.4530    0.9180 C   0  0  0  0  0  0  0  0  0  0  0  0
   -1.9440   -5.7540    1.0560 C   0  0  0  0  0  0  0  0  0  0  0  0
   -2.9280   -5.0680    0.3740 C   0  0  0  0  0  0  0  0  0  0  0  0
   -4.8220   -2.3510    0.6860 C   0  0  0  0  0  0  0  0  0  0  0  0
   -4.5090   -1.9330    1.8320 O   0  0  0  0  0  0  0  0  0  0  0  0
   -5.9420   -3.1370    0.5670 O   0  0  0  0  0  0  0  0  0  0  0  0
   -2.1090   -1.5240    0.3870 H   0  0  0  0  0  0  0  0  0  0  0  0
   -4.6980   -1.4640   -1.2070 H   0  0  0  0  0  0  0  0  0  0  0  0
   -3.1000   -2.9820   -2.2130 H   0  0  0  0  0  0  0  0  0  0  0  0
   -4.4080   -3.9390   -1.4820 H   0  0  0  0  0  0  0  0  0  0  0  0
   -0.8920   -2.9440   -1.2730 H   0  0  0  0  0  0  0  0  0  0  0  0
    0.7970   -4.2020   -0.0340 H   0  0  0  0  0  0  0  0  0  0  0  0
    0.1680   -6.0110    1.4710 H   0  0  0  0  0  0  0  0  0  0  0  0
   -2.2410   -6.5570    1.7210 H   0  0  0  0  0  0  0  0  0  0  0  0
   -3.9890   -5.3360    0.5080 H   0  0  0  0  0  0  0  0  0  0  0  0
  1 11  1  0  0  0  0
  1  2  1  0  0  0  0
  2  3  1  0  0  0  0
  2 12  1  1  0  0  0
  3 14  1  0  0  0  0
  3 13  1  0  0  0  0
  4  5  1  0  0  0  0
  4  3  1  0  0  0  0
  5 17  1  0  0  0  0
  5 18  1  0  0  0  0
  6 20  1  0  0  0  0
  6  5  1  0  0  0  0
  7  6  1  0  0  0  0
  8  9  2  0  0  0  0
  8  2  1  0  0  0  0
 10  1  1  0  0  0  0
 15  4  1  0  0  0  0
 16  4  1  0  0  0  0
 19  6  1  0  0  0  0
 21  7  1  0  0  0  0
 22  7  1  0  0  0  0
 23  8  1  0  0  0  0
 24 33  1  1  0  0  0
 24 23  1  0  0  0  0
 25 24  1  0  0  0  0
 26 25  1  0  0  0  0
 26 37  1  0  0  0  0
 26 27  1  0  0  0  0
 27 28  2  0  0  0  0
 29 24  1  0  0  0  0
 29 39  1  0  0  0  0
 30 29  2  0  0  0  0
 31 38  1  0  0  0  0
 31 27  1  0  0  0  0
 32 23  1  0  0  0  0
 34 25  1  0  0  0  0
 35 25  1  0  0  0  0
 36 26  1  0  0  0  0
 39 51  1  0  0  0  0
 40 52  1  6  0  0  0
 40 39  1  0  0  0  0
 40 48  1  0  0  0  0
 41 40  1  0  0  0  0
 41 42  1  0  0  0  0
 42 47  1  0  0  0  0
 43 42  2  0  0  0  0
 43 44  1  0  0  0  0
 44 45  2  0  0  0  0
 45 46  1  0  0  0  0
 45 57  1  0  0  0  0
 46 58  1  0  0  0  0
 47 59  1  0  0  0  0
 47 46  2  0  0  0  0
 48 49  1  0  0  0  0
 50 48  2  0  0  0  0
 53 41  1  0  0  0  0
 54 41  1  0  0  0  0
 55 43  1  0  0  0  0
 56 44  1  0  0  0  0
M  END
$$$$
