KEG.pdb
 OpenBabel07022418493D

 46 45  0  0  1  0  0  0  0  0999 V2000
    0.6560   -3.6890    1.8400 N   0  0  0  0  0  0  0  0  0  0  0  0
    1.2440   -2.4020    1.6090 C   0  0  1  0  0  0  0  0  0  0  0  0
    1.8320   -2.2660    0.2630 C   0  0  0  0  0  0  0  0  0  0  0  0
    0.9370   -2.4270   -0.9070 C   0  0  0  0  0  0  0  0  0  0  0  0
    0.2530   -3.7690   -1.0170 C   0  0  0  0  0  0  0  0  0  0  0  0
   -0.5910   -3.6720   -2.3020 C   0  0  0  0  0  0  0  0  0  0  0  0
    0.2800   -3.4170   -3.4320 N   0  0  0  0  0  0  0  0  0  0  0  0
    0.3370   -1.2940    1.9970 C   0  0  0  0  0  0  0  0  0  0  0  0
   -0.7860   -1.6180    2.4580 O   0  0  0  0  0  0  0  0  0  0  0  0
   -0.2650   -3.6640    2.2870 H   0  0  0  0  0  0  0  0  0  0  0  0
    1.3250   -4.3640    2.2740 H   0  0  0  0  0  0  0  0  0  0  0  0
    2.1010   -2.3310    2.3460 H   0  0  0  0  0  0  0  0  0  0  0  0
    2.6220   -3.0710    0.1690 H   0  0  0  0  0  0  0  0  0  0  0  0
    2.4250   -1.3210    0.1890 H   0  0  0  0  0  0  0  0  0  0  0  0
    0.1070   -1.6670   -0.9340 H   0  0  0  0  0  0  0  0  0  0  0  0
    1.5550   -2.3410   -1.8500 H   0  0  0  0  0  0  0  0  0  0  0  0
   -0.4700   -3.9690   -0.1970 H   0  0  0  0  0  0  0  0  0  0  0  0
    0.9810   -4.5950   -1.1600 H   0  0  0  0  0  0  0  0  0  0  0  0
   -1.2200   -4.5580   -2.4270 H   0  0  0  0  0  0  0  0  0  0  0  0
   -1.2630   -2.7940   -2.1890 H   0  0  0  0  0  0  0  0  0  0  0  0
    0.3900   -2.3970   -3.6200 H   0  0  0  0  0  0  0  0  0  0  0  0
    1.2240   -3.8190   -3.2210 H   0  0  0  0  0  0  0  0  0  0  0  0
    0.6730    0.0650    1.8740 N   0  0  0  0  0  0  0  0  0  0  0  0
   -0.1930    1.1570    2.2440 C   0  0  1  0  0  0  0  0  0  0  0  0
    0.4710    1.9910    3.2800 C   0  0  0  0  0  0  0  0  0  0  0  0
    0.8300    1.3090    4.5530 C   0  0  0  0  0  0  0  0  0  0  0  0
   -0.2890    0.7340    5.3070 C   0  0  0  0  0  0  0  0  0  0  0  0
   -1.4810    0.8220    4.9180 O   0  0  0  0  0  0  0  0  0  0  0  0
   -0.5480    2.0260    1.1030 C   0  0  0  0  0  0  0  0  0  0  0  0
   -1.3030    3.0040    1.3460 O   0  0  0  0  0  0  0  0  0  0  0  0
   -0.0770    0.0590    6.5010 O   0  0  0  0  0  0  0  0  0  0  0  0
    1.6080    0.3250    1.4900 H   0  0  0  0  0  0  0  0  0  0  0  0
   -1.1440    0.7410    2.6300 H   0  0  0  0  0  0  0  0  0  0  0  0
   -0.1030    2.9080    3.5330 H   0  0  0  0  0  0  0  0  0  0  0  0
    1.4370    2.3730    2.8430 H   0  0  0  0  0  0  0  0  0  0  0  0
    1.2940    2.1030    5.2110 H   0  0  0  0  0  0  0  0  0  0  0  0
    1.6730    0.5680    4.4230 H   0  0  0  0  0  0  0  0  0  0  0  0
   -0.8020   -0.1620    7.1560 H   0  0  0  0  0  0  0  0  0  0  0  0
   -0.1080    1.8380   -0.2160 N   0  0  0  0  0  0  0  0  0  0  0  0
   -0.4880    2.7220   -1.2990 C   0  0  0  0  0  0  0  0  0  0  0  0
   -1.9730    2.7440   -1.4800 C   0  0  0  0  0  0  0  0  0  0  0  0
   -2.7130    2.0500   -0.7370 O   0  0  0  0  0  0  0  0  0  0  0  0
   -2.5810    3.5150   -2.4540 O   0  0  0  0  0  0  0  0  0  0  0  0
    0.5260    1.0050   -0.3900 H   0  0  0  0  0  0  0  0  0  0  0  0
   -0.1620    3.7650   -1.1210 H   0  0  0  0  0  0  0  0  0  0  0  0
   -0.0410    2.3510   -2.2440 H   0  0  0  0  0  0  0  0  0  0  0  0
  1 11  1  0  0  0  0
  1 10  1  0  0  0  0
  2  1  1  0  0  0  0
  2  8  1  0  0  0  0
  2 12  1  1  0  0  0
  3  2  1  0  0  0  0
  4  3  1  0  0  0  0
  5  4  1  0  0  0  0
  5 17  1  0  0  0  0
  6 20  1  0  0  0  0
  6  5  1  0  0  0  0
  7 22  1  0  0  0  0
  7  6  1  0  0  0  0
  8  9  2  0  0  0  0
 13  3  1  0  0  0  0
 14  3  1  0  0  0  0
 15  4  1  0  0  0  0
 16  4  1  0  0  0  0
 18  5  1  0  0  0  0
 19  6  1  0  0  0  0
 21  7  1  0  0  0  0
 23  8  1  0  0  0  0
 23 24  1  0  0  0  0
 24 33  1  1  0  0  0
 24 25  1  0  0  0  0
 25 34  1  0  0  0  0
 25 26  1  0  0  0  0
 26 36  1  0  0  0  0
 26 27  1  0  0  0  0
 27 31  1  0  0  0  0
 28 27  2  0  0  0  0
 29 30  2  0  0  0  0
 29 24  1  0  0  0  0
 31 38  1  0  0  0  0
 32 23  1  0  0  0  0
 35 25  1  0  0  0  0
 37 26  1  0  0  0  0
 39 29  1  0  0  0  0
 40 45  1  0  0  0  0
 40 39  1  0  0  0  0
 41 40  1  0  0  0  0
 41 42  1  0  0  0  0
 43 41  2  0  0  0  0
 44 39  1  0  0  0  0
 46 40  1  0  0  0  0
M  END
$$$$
