KEI.pdb
 OpenBabel07022418493D

 58 57  0  0  1  0  0  0  0  0999 V2000
    1.0570   -2.4160    3.2250 N   0  0  0  0  0  0  0  0  0  0  0  0
    1.9290   -1.2910    2.8520 C   0  0  1  0  0  0  0  0  0  0  0  0
    2.9970   -1.8340    1.9580 C   0  0  0  0  0  0  0  0  0  0  0  0
    3.9730   -0.7850    1.4940 C   0  0  0  0  0  0  0  0  0  0  0  0
    4.6900   -0.1210    2.6380 C   0  0  0  0  0  0  0  0  0  0  0  0
    5.4560   -1.1390    3.4200 C   0  0  0  0  0  0  0  0  0  0  0  0
    6.4480   -1.8270    2.6260 N   0  0  0  0  0  0  0  0  0  0  0  0
    1.0570   -0.2970    2.1930 C   0  0  0  0  0  0  0  0  0  0  0  0
    0.4120    0.5750    2.8760 O   0  0  0  0  0  0  0  0  0  0  0  0
    1.1710   -3.1910    2.5610 H   0  0  0  0  0  0  0  0  0  0  0  0
    0.0960   -2.1210    3.4250 H   0  0  0  0  0  0  0  0  0  0  0  0
    2.3680   -0.8820    3.7950 H   0  0  0  0  0  0  0  0  0  0  0  0
    3.5220   -2.6400    2.5260 H   0  0  0  0  0  0  0  0  0  0  0  0
    2.5630   -2.3400    1.0800 H   0  0  0  0  0  0  0  0  0  0  0  0
    4.7680   -1.3440    0.9170 H   0  0  0  0  0  0  0  0  0  0  0  0
    3.5300   -0.0860    0.7890 H   0  0  0  0  0  0  0  0  0  0  0  0
    3.9650    0.3580    3.3310 H   0  0  0  0  0  0  0  0  0  0  0  0
    5.3730    0.6380    2.2620 H   0  0  0  0  0  0  0  0  0  0  0  0
    4.7620   -1.8220    3.9160 H   0  0  0  0  0  0  0  0  0  0  0  0
    6.0300   -0.6260    4.2420 H   0  0  0  0  0  0  0  0  0  0  0  0
    6.1220   -2.7730    2.3180 H   0  0  0  0  0  0  0  0  0  0  0  0
    6.6720   -1.2200    1.8030 H   0  0  0  0  0  0  0  0  0  0  0  0
    0.9300   -0.3080    0.7900 N   0  0  0  0  0  0  0  0  0  0  0  0
    0.0720    0.6670    0.1060 C   0  0  1  0  0  0  0  0  0  0  0  0
    0.7960    1.3370   -0.9980 C   0  0  0  0  0  0  0  0  0  0  0  0
   -0.0300    2.3550   -1.7240 C   0  0  0  0  0  0  0  0  0  0  0  0
   -0.5330    3.4580   -0.8960 C   0  0  0  0  0  0  0  0  0  0  0  0
   -0.2180    3.5140    0.3140 O   0  0  0  0  0  0  0  0  0  0  0  0
   -1.1040   -0.0760   -0.4680 C   0  0  0  0  0  0  0  0  0  0  0  0
   -2.0540    0.4990   -1.0420 O   0  0  0  0  0  0  0  0  0  0  0  0
   -1.3510    4.4680   -1.3720 O   0  0  0  0  0  0  0  0  0  0  0  0
    1.4130   -0.9800    0.1650 H   0  0  0  0  0  0  0  0  0  0  0  0
   -0.3570    1.3120    0.8850 H   0  0  0  0  0  0  0  0  0  0  0  0
    1.7940    1.7420   -0.6950 H   0  0  0  0  0  0  0  0  0  0  0  0
    1.0900    0.5930   -1.8080 H   0  0  0  0  0  0  0  0  0  0  0  0
    0.6330    2.8220   -2.5490 H   0  0  0  0  0  0  0  0  0  0  0  0
   -0.8680    1.8970   -2.2690 H   0  0  0  0  0  0  0  0  0  0  0  0
   -2.0070    4.8780   -0.7180 H   0  0  0  0  0  0  0  0  0  0  0  0
   -5.5840   -2.1490   -1.4240 C   0  0  0  0  0  0  0  0  0  0  0  0
   -4.6670   -2.9460   -0.5480 C   0  0  0  0  0  0  0  0  0  0  0  0
   -3.4620   -2.2560   -0.0520 C   0  0  2  0  0  0  0  0  0  0  0  0
   -3.8530   -1.0220    0.7160 C   0  0  0  0  0  0  0  0  0  0  0  0
   -2.3070   -2.2160   -0.9330 C   0  0  2  0  0  0  0  0  0  0  0  0
   -1.1690   -1.4970   -0.3690 N   0  0  0  0  0  0  0  0  0  0  0  0
   -2.4710   -1.9610   -2.3710 C   0  0  0  0  0  0  0  0  0  0  0  0
   -1.7390   -1.1340   -2.9800 O   0  0  0  0  0  0  0  0  0  0  0  0
   -3.4020   -2.5750   -3.1850 O   0  0  0  0  0  0  0  0  0  0  0  0
   -6.5080   -1.8500   -0.8210 H   0  0  0  0  0  0  0  0  0  0  0  0
   -5.9050   -2.7820   -2.2740 H   0  0  0  0  0  0  0  0  0  0  0  0
   -5.1990   -1.2000   -1.7920 H   0  0  0  0  0  0  0  0  0  0  0  0
   -4.3630   -3.9040   -1.0350 H   0  0  0  0  0  0  0  0  0  0  0  0
   -5.2740   -3.2780    0.3490 H   0  0  0  0  0  0  0  0  0  0  0  0
   -3.1090   -2.9560    0.8320 H   0  0  0  0  0  0  0  0  0  0  0  0
   -4.4080   -0.2830    0.1400 H   0  0  0  0  0  0  0  0  0  0  0  0
   -2.9910   -0.6190    1.2870 H   0  0  0  0  0  0  0  0  0  0  0  0
   -4.5710   -1.3860    1.5120 H   0  0  0  0  0  0  0  0  0  0  0  0
   -1.8900   -3.2970   -0.9450 H   0  0  0  0  0  0  0  0  0  0  0  0
   -0.3700   -1.9540    0.1220 H   0  0  0  0  0  0  0  0  0  0  0  0
  1 11  1  0  0  0  0
  2  1  1  0  0  0  0
  2 12  1  1  0  0  0
  3 13  1  0  0  0  0
  3  2  1  0  0  0  0
  4  3  1  0  0  0  0
  4  5  1  0  0  0  0
  5 17  1  0  0  0  0
  5  6  1  0  0  0  0
  6 19  1  0  0  0  0
  6 20  1  0  0  0  0
  7  6  1  0  0  0  0
  8  2  1  0  0  0  0
  8  9  2  0  0  0  0
 10  1  1  0  0  0  0
 14  3  1  0  0  0  0
 15  4  1  0  0  0  0
 16  4  1  0  0  0  0
 18  5  1  0  0  0  0
 21  7  1  0  0  0  0
 22  7  1  0  0  0  0
 23  8  1  0  0  0  0
 24 23  1  0  0  0  0
 24 33  1  1  0  0  0
 25 34  1  0  0  0  0
 25 24  1  0  0  0  0
 26 25  1  0  0  0  0
 26 27  1  0  0  0  0
 27 28  2  0  0  0  0
 29 44  1  0  0  0  0
 29 24  1  0  0  0  0
 30 29  2  0  0  0  0
 31 27  1  0  0  0  0
 31 38  1  0  0  0  0
 32 23  1  0  0  0  0
 35 25  1  0  0  0  0
 36 26  1  0  0  0  0
 37 26  1  0  0  0  0
 39 48  1  0  0  0  0
 39 40  1  0  0  0  0
 40 41  1  0  0  0  0
 40 52  1  0  0  0  0
 41 42  1  0  0  0  0
 41 53  1  1  0  0  0
 42 55  1  0  0  0  0
 42 56  1  0  0  0  0
 43 57  1  1  0  0  0
 43 44  1  0  0  0  0
 43 41  1  0  0  0  0
 44 58  1  0  0  0  0
 45 43  1  0  0  0  0
 46 45  1  0  0  0  0
 47 45  2  0  0  0  0
 49 39  1  0  0  0  0
 50 39  1  0  0  0  0
 51 40  1  0  0  0  0
 54 42  1  0  0  0  0
M  END
$$$$
