KEL.pdb
 OpenBabel07022418493D

 58 57  0  0  1  0  0  0  0  0999 V2000
    2.9560    0.3890    3.8390 N   0  0  0  0  0  0  0  0  0  0  0  0
    2.3680    0.3910    2.4730 C   0  0  1  0  0  0  0  0  0  0  0  0
    3.0050   -0.7300    1.7690 C   0  0  0  0  0  0  0  0  0  0  0  0
    2.6670   -1.0200    0.3720 C   0  0  0  0  0  0  0  0  0  0  0  0
    2.9410    0.0940   -0.6040 C   0  0  0  0  0  0  0  0  0  0  0  0
    4.3740    0.5020   -0.6550 C   0  0  0  0  0  0  0  0  0  0  0  0
    5.2750   -0.5550   -1.0410 N   0  0  0  0  0  0  0  0  0  0  0  0
    0.9240    0.3820    2.6550 C   0  0  0  0  0  0  0  0  0  0  0  0
    0.4550    0.3280    3.8480 O   0  0  0  0  0  0  0  0  0  0  0  0
    3.8990   -0.0230    3.8180 H   0  0  0  0  0  0  0  0  0  0  0  0
    2.3220   -0.1940    4.4270 H   0  0  0  0  0  0  0  0  0  0  0  0
    2.7080    1.4050    2.0910 H   0  0  0  0  0  0  0  0  0  0  0  0
    2.8550   -1.6550    2.3650 H   0  0  0  0  0  0  0  0  0  0  0  0
    4.1230   -0.5630    1.8180 H   0  0  0  0  0  0  0  0  0  0  0  0
    3.3770   -1.8470    0.0430 H   0  0  0  0  0  0  0  0  0  0  0  0
    1.6810   -1.4300    0.1520 H   0  0  0  0  0  0  0  0  0  0  0  0
    2.3160    0.9780   -0.4670 H   0  0  0  0  0  0  0  0  0  0  0  0
    2.6790   -0.3170   -1.6230 H   0  0  0  0  0  0  0  0  0  0  0  0
    4.4650    1.3020   -1.4240 H   0  0  0  0  0  0  0  0  0  0  0  0
    4.7100    0.9070    0.3110 H   0  0  0  0  0  0  0  0  0  0  0  0
    5.3320   -1.3300   -0.3730 H   0  0  0  0  0  0  0  0  0  0  0  0
    5.2170   -0.8260   -2.0340 H   0  0  0  0  0  0  0  0  0  0  0  0
   -0.0780    0.4300    1.6580 N   0  0  0  0  0  0  0  0  0  0  0  0
   -1.4950    0.4330    1.9470 C   0  0  1  0  0  0  0  0  0  0  0  0
   -1.9660    1.7960    1.4420 C   0  0  0  0  0  0  0  0  0  0  0  0
   -3.4050    2.0670    1.6150 C   0  0  0  0  0  0  0  0  0  0  0  0
   -3.8380    2.0660    3.0070 C   0  0  0  0  0  0  0  0  0  0  0  0
   -3.0410    1.9010    3.9370 O   0  0  0  0  0  0  0  0  0  0  0  0
   -2.1980   -0.6650    1.2660 C   0  0  0  0  0  0  0  0  0  0  0  0
   -3.4540   -0.7830    1.4910 O   0  0  0  0  0  0  0  0  0  0  0  0
   -5.1950    2.2580    3.2620 O   0  0  0  0  0  0  0  0  0  0  0  0
    0.1990    0.4650    0.6710 H   0  0  0  0  0  0  0  0  0  0  0  0
   -1.6900    0.3140    3.0360 H   0  0  0  0  0  0  0  0  0  0  0  0
   -1.5960    1.8790    0.4120 H   0  0  0  0  0  0  0  0  0  0  0  0
   -1.3630    2.5400    2.0350 H   0  0  0  0  0  0  0  0  0  0  0  0
   -3.5930    3.1050    1.2060 H   0  0  0  0  0  0  0  0  0  0  0  0
   -4.0230    1.4150    0.9570 H   0  0  0  0  0  0  0  0  0  0  0  0
   -5.4860    2.3780    4.2230 H   0  0  0  0  0  0  0  0  0  0  0  0
   -0.4920   -3.8900   -2.3490 C   0  0  0  0  0  0  0  0  0  0  0  0
   -1.3030   -2.6260   -2.5260 C   0  0  0  0  0  0  0  0  0  0  0  0
   -0.4270   -1.4220   -2.4270 C   0  0  0  0  0  0  0  0  0  0  0  0
   -2.5380   -2.5880   -1.7130 C   0  0  0  0  0  0  0  0  0  0  0  0
   -2.4280   -2.6730   -0.2450 C   0  0  2  0  0  0  0  0  0  0  0  0
   -1.6570   -1.6220    0.3800 N   0  0  0  0  0  0  0  0  0  0  0  0
   -1.9280   -3.9720    0.2720 C   0  0  0  0  0  0  0  0  0  0  0  0
   -2.4160   -5.0790   -0.1030 O   0  0  0  0  0  0  0  0  0  0  0  0
   -0.8800   -4.0400    1.2100 O   0  0  0  0  0  0  0  0  0  0  0  0
    0.0060   -3.9760   -1.3890 H   0  0  0  0  0  0  0  0  0  0  0  0
   -1.1120   -4.7950   -2.5080 H   0  0  0  0  0  0  0  0  0  0  0  0
    0.2860   -3.9160   -3.1560 H   0  0  0  0  0  0  0  0  0  0  0  0
   -1.6560   -2.6730   -3.6040 H   0  0  0  0  0  0  0  0  0  0  0  0
   -0.9060   -0.5380   -1.9800 H   0  0  0  0  0  0  0  0  0  0  0  0
   -0.0830   -1.0950   -3.4420 H   0  0  0  0  0  0  0  0  0  0  0  0
    0.5090   -1.7330   -1.9130 H   0  0  0  0  0  0  0  0  0  0  0  0
   -3.1730   -3.4650   -2.0390 H   0  0  0  0  0  0  0  0  0  0  0  0
   -3.1430   -1.7000   -1.9730 H   0  0  0  0  0  0  0  0  0  0  0  0
   -3.4980   -2.6080    0.1290 H   0  0  0  0  0  0  0  0  0  0  0  0
   -0.6430   -1.5440    0.1810 H   0  0  0  0  0  0  0  0  0  0  0  0
  1 11  1  0  0  0  0
  2 12  1  6  0  0  0
  2  8  1  0  0  0  0
  2  1  1  0  0  0  0
  3 14  1  0  0  0  0
  3 13  1  0  0  0  0
  3  2  1  0  0  0  0
  4  3  1  0  0  0  0
  5 17  1  0  0  0  0
  5  4  1  0  0  0  0
  6  5  1  0  0  0  0
  6 20  1  0  0  0  0
  7  6  1  0  0  0  0
  7 21  1  0  0  0  0
  8  9  2  0  0  0  0
 10  1  1  0  0  0  0
 15  4  1  0  0  0  0
 16  4  1  0  0  0  0
 18  5  1  0  0  0  0
 19  6  1  0  0  0  0
 22  7  1  0  0  0  0
 23 24  1  0  0  0  0
 23  8  1  0  0  0  0
 24 33  1  1  0  0  0
 25 26  1  0  0  0  0
 25 24  1  0  0  0  0
 25 35  1  0  0  0  0
 26 27  1  0  0  0  0
 27 31  1  0  0  0  0
 27 28  2  0  0  0  0
 29 30  2  0  0  0  0
 29 24  1  0  0  0  0
 31 38  1  0  0  0  0
 32 23  1  0  0  0  0
 34 25  1  0  0  0  0
 36 26  1  0  0  0  0
 37 26  1  0  0  0  0
 39 48  1  0  0  0  0
 40 41  1  0  0  0  0
 40 39  1  0  0  0  0
 40 42  1  0  0  0  0
 41 52  1  0  0  0  0
 41 54  1  0  0  0  0
 42 43  1  0  0  0  0
 43 57  1  1  0  0  0
 43 45  1  0  0  0  0
 43 44  1  0  0  0  0
 44 29  1  0  0  0  0
 45 47  1  0  0  0  0
 46 45  2  0  0  0  0
 49 39  1  0  0  0  0
 50 39  1  0  0  0  0
 51 40  1  0  0  0  0
 53 41  1  0  0  0  0
 55 42  1  0  0  0  0
 56 42  1  0  0  0  0
 58 44  1  0  0  0  0
M  END
$$$$
