KEN.pdb
 OpenBabel07022418493D

 53 52  0  0  1  0  0  0  0  0999 V2000
   -0.5030   -0.1560    5.1170 N   0  0  0  0  0  0  0  0  0  0  0  0
    0.1370    0.2970    3.8470 C   0  0  1  0  0  0  0  0  0  0  0  0
    1.5120   -0.2920    3.7640 C   0  0  0  0  0  0  0  0  0  0  0  0
    2.3200    0.0350    2.5680 C   0  0  0  0  0  0  0  0  0  0  0  0
    3.6930   -0.5820    2.5780 C   0  0  0  0  0  0  0  0  0  0  0  0
    3.7110   -2.0810    2.6480 C   0  0  0  0  0  0  0  0  0  0  0  0
    5.0870   -2.5720    2.6460 N   0  0  0  0  0  0  0  0  0  0  0  0
   -0.7640   -0.0320    2.7180 C   0  0  0  0  0  0  0  0  0  0  0  0
   -1.6760   -0.8590    2.9280 O   0  0  0  0  0  0  0  0  0  0  0  0
   -0.6720   -1.1820    5.0590 H   0  0  0  0  0  0  0  0  0  0  0  0
    0.0890    0.1400    5.9230 H   0  0  0  0  0  0  0  0  0  0  0  0
    0.1310    1.3990    3.9560 H   0  0  0  0  0  0  0  0  0  0  0  0
    1.5020   -1.4010    3.9920 H   0  0  0  0  0  0  0  0  0  0  0  0
    2.0630    0.1120    4.6700 H   0  0  0  0  0  0  0  0  0  0  0  0
    1.7970   -0.3400    1.6370 H   0  0  0  0  0  0  0  0  0  0  0  0
    2.4610    1.1170    2.4090 H   0  0  0  0  0  0  0  0  0  0  0  0
    4.3230   -0.1810    3.3940 H   0  0  0  0  0  0  0  0  0  0  0  0
    4.1950   -0.2790    1.6320 H   0  0  0  0  0  0  0  0  0  0  0  0
    3.2990   -2.4330    3.6350 H   0  0  0  0  0  0  0  0  0  0  0  0
    3.1800   -2.5980    1.8570 H   0  0  0  0  0  0  0  0  0  0  0  0
    5.2670   -3.3580    3.2650 H   0  0  0  0  0  0  0  0  0  0  0  0
    5.5480   -2.5300    1.7350 H   0  0  0  0  0  0  0  0  0  0  0  0
   -0.6430    0.5530    1.4100 N   0  0  0  0  0  0  0  0  0  0  0  0
   -1.5180    0.2370    0.3200 C   0  0  1  0  0  0  0  0  0  0  0  0
   -2.2280    1.4160   -0.2900 C   0  0  0  0  0  0  0  0  0  0  0  0
   -3.1070    2.1590    0.6860 C   0  0  0  0  0  0  0  0  0  0  0  0
   -2.3860    2.7230    1.8420 C   0  0  0  0  0  0  0  0  0  0  0  0
   -1.3630    3.4490    1.6240 O   0  0  0  0  0  0  0  0  0  0  0  0
   -0.8490   -0.5900   -0.7200 C   0  0  0  0  0  0  0  0  0  0  0  0
    0.3360   -0.9800   -0.5800 O   0  0  0  0  0  0  0  0  0  0  0  0
   -2.7210    2.5340    3.1710 O   0  0  0  0  0  0  0  0  0  0  0  0
    0.1490    1.2530    1.3230 H   0  0  0  0  0  0  0  0  0  0  0  0
   -2.3360   -0.4070    0.7720 H   0  0  0  0  0  0  0  0  0  0  0  0
   -1.5320    2.1270   -0.7770 H   0  0  0  0  0  0  0  0  0  0  0  0
   -2.9270    0.9790   -1.0530 H   0  0  0  0  0  0  0  0  0  0  0  0
   -3.6260    2.9670    0.1000 H   0  0  0  0  0  0  0  0  0  0  0  0
   -3.8980    1.4900    1.0590 H   0  0  0  0  0  0  0  0  0  0  0  0
   -2.0390    2.7500    3.8870 H   0  0  0  0  0  0  0  0  0  0  0  0
   -2.0210   -5.1730   -4.2520 N   0  0  0  0  0  0  0  0  0  0  0  0
   -1.1960   -4.0210   -4.0420 C   0  0  0  0  0  0  0  0  0  0  0  0
   -0.1240   -3.9050   -4.6490 O   0  0  0  0  0  0  0  0  0  0  0  0
   -1.6800   -3.0210   -3.0940 C   0  0  0  0  0  0  0  0  0  0  0  0
   -0.7990   -1.8050   -2.9470 C   0  0  2  0  0  0  0  0  0  0  0  0
   -1.4880   -0.9840   -1.9190 N   0  0  0  0  0  0  0  0  0  0  0  0
   -0.6610   -1.0010   -4.1690 C   0  0  0  0  0  0  0  0  0  0  0  0
   -1.1330    0.1630   -4.2200 O   0  0  0  0  0  0  0  0  0  0  0  0
   -0.0260   -1.4750   -5.2770 O   0  0  0  0  0  0  0  0  0  0  0  0
   -2.7420   -5.2550   -4.9910 H   0  0  0  0  0  0  0  0  0  0  0  0
   -1.9060   -6.0210   -3.6190 H   0  0  0  0  0  0  0  0  0  0  0  0
   -1.9210   -3.4700   -2.0880 H   0  0  0  0  0  0  0  0  0  0  0  0
   -2.7040   -2.7030   -3.4800 H   0  0  0  0  0  0  0  0  0  0  0  0
    0.2020   -2.1090   -2.5730 H   0  0  0  0  0  0  0  0  0  0  0  0
   -2.4630   -0.7210   -2.1280 H   0  0  0  0  0  0  0  0  0  0  0  0
  1 11  1  0  0  0  0
  2 12  1  1  0  0  0
  2  1  1  0  0  0  0
  3  2  1  0  0  0  0
  3 13  1  0  0  0  0
  3 14  1  0  0  0  0
  4  5  1  0  0  0  0
  4  3  1  0  0  0  0
  5  6  1  0  0  0  0
  5 17  1  0  0  0  0
  6 19  1  0  0  0  0
  7  6  1  0  0  0  0
  7 21  1  0  0  0  0
  8  9  2  0  0  0  0
  8  2  1  0  0  0  0
 10  1  1  0  0  0  0
 15  4  1  0  0  0  0
 16  4  1  0  0  0  0
 18  5  1  0  0  0  0
 20  6  1  0  0  0  0
 22  7  1  0  0  0  0
 23  8  1  0  0  0  0
 24 33  1  1  0  0  0
 24 23  1  0  0  0  0
 25 24  1  0  0  0  0
 25 26  1  0  0  0  0
 26 37  1  0  0  0  0
 26 27  1  0  0  0  0
 27 31  1  0  0  0  0
 28 27  2  0  0  0  0
 29 30  2  0  0  0  0
 29 24  1  0  0  0  0
 31 38  1  0  0  0  0
 32 23  1  0  0  0  0
 34 25  1  0  0  0  0
 35 25  1  0  0  0  0
 36 26  1  0  0  0  0
 39 40  1  0  0  0  0
 39 49  1  0  0  0  0
 40 42  1  0  0  0  0
 41 40  2  0  0  0  0
 42 43  1  0  0  0  0
 42 50  1  0  0  0  0
 43 52  1  1  0  0  0
 43 44  1  0  0  0  0
 44 29  1  0  0  0  0
 45 43  1  0  0  0  0
 46 45  1  0  0  0  0
 47 45  2  0  0  0  0
 48 39  1  0  0  0  0
 51 42  1  0  0  0  0
 53 44  1  0  0  0  0
M  END
$$$$
