KER.pdb
 OpenBabel07022418493D

 62 61  0  0  1  0  0  0  0  0999 V2000
    1.9470   -1.2590    0.8150 N   0  0  0  0  0  0  0  0  0  0  0  0
    1.9450   -0.0950    1.6640 C   0  0  1  0  0  0  0  0  0  0  0  0
    3.3220    0.5370    1.6800 C   0  0  0  0  0  0  0  0  0  0  0  0
    4.3200   -0.4650    2.2050 C   0  0  0  0  0  0  0  0  0  0  0  0
    5.7150    0.0690    2.2760 C   0  0  0  0  0  0  0  0  0  0  0  0
    6.2480    0.5110    0.9330 C   0  0  0  0  0  0  0  0  0  0  0  0
    6.2460   -0.6240    0.0470 N   0  0  0  0  0  0  0  0  0  0  0  0
    0.8800    0.8720    1.3760 C   0  0  0  0  0  0  0  0  0  0  0  0
    0.7480    1.9190    2.0900 O   0  0  0  0  0  0  0  0  0  0  0  0
    2.4050   -2.0370    1.3790 H   0  0  0  0  0  0  0  0  0  0  0  0
    0.9440   -1.5830    0.7290 H   0  0  0  0  0  0  0  0  0  0  0  0
    1.7720   -0.4550    2.7130 H   0  0  0  0  0  0  0  0  0  0  0  0
    3.3390    1.4040    2.3760 H   0  0  0  0  0  0  0  0  0  0  0  0
    3.6440    0.8900    0.7000 H   0  0  0  0  0  0  0  0  0  0  0  0
    4.3110   -1.3680    1.5700 H   0  0  0  0  0  0  0  0  0  0  0  0
    4.0190   -0.7170    3.2570 H   0  0  0  0  0  0  0  0  0  0  0  0
    6.3630   -0.8080    2.5750 H   0  0  0  0  0  0  0  0  0  0  0  0
    5.8350    0.8710    3.0350 H   0  0  0  0  0  0  0  0  0  0  0  0
    5.6280    1.3030    0.4830 H   0  0  0  0  0  0  0  0  0  0  0  0
    7.2620    0.9360    1.0810 H   0  0  0  0  0  0  0  0  0  0  0  0
    7.2150   -0.9170   -0.2340 H   0  0  0  0  0  0  0  0  0  0  0  0
    5.6190   -0.5110   -0.7830 H   0  0  0  0  0  0  0  0  0  0  0  0
   -0.0780    0.7580    0.3220 N   0  0  0  0  0  0  0  0  0  0  0  0
   -1.1030    1.7190    0.0780 C   0  0  1  0  0  0  0  0  0  0  0  0
   -1.0670    2.5590   -1.1270 C   0  0  0  0  0  0  0  0  0  0  0  0
    0.0710    3.4610   -1.3120 C   0  0  0  0  0  0  0  0  0  0  0  0
    1.3590    2.7880   -1.4920 C   0  0  0  0  0  0  0  0  0  0  0  0
    1.4190    1.5640   -1.6940 O   0  0  0  0  0  0  0  0  0  0  0  0
   -2.4160    1.0540    0.2880 C   0  0  0  0  0  0  0  0  0  0  0  0
   -3.4710    1.7220    0.1130 O   0  0  0  0  0  0  0  0  0  0  0  0
    2.5730    3.5020   -1.4420 O   0  0  0  0  0  0  0  0  0  0  0  0
   -0.0070   -0.1100   -0.2780 H   0  0  0  0  0  0  0  0  0  0  0  0
   -1.0650    2.4760    0.9560 H   0  0  0  0  0  0  0  0  0  0  0  0
   -1.2010    1.9840   -2.0830 H   0  0  0  0  0  0  0  0  0  0  0  0
   -2.0090    3.1990   -1.0980 H   0  0  0  0  0  0  0  0  0  0  0  0
    0.1320    4.2810   -0.5420 H   0  0  0  0  0  0  0  0  0  0  0  0
   -0.1070    4.0170   -2.2960 H   0  0  0  0  0  0  0  0  0  0  0  0
    3.3520    2.9760   -1.0210 H   0  0  0  0  0  0  0  0  0  0  0  0
   -6.4010   -4.9620   -0.3000 N   0  0  0  0  0  0  0  0  0  0  0  0
   -5.2600   -4.6610   -1.0670 C   0  0  0  0  0  0  0  0  0  0  0  0
   -5.3690   -3.9560   -2.1620 N   0  0  0  0  0  0  0  0  0  0  0  0
   -3.9690   -5.0870   -0.7160 N   0  0  0  0  0  0  0  0  0  0  0  0
   -2.7840   -4.2960   -0.8610 C   0  0  0  0  0  0  0  0  0  0  0  0
   -2.7100   -3.1370    0.0820 C   0  0  0  0  0  0  0  0  0  0  0  0
   -3.8360   -2.1720   -0.0800 C   0  0  0  0  0  0  0  0  0  0  0  0
   -3.7110   -1.0040    0.8950 C   0  0  2  0  0  0  0  0  0  0  0  0
   -2.4870   -0.3010    0.6750 N   0  0  0  0  0  0  0  0  0  0  0  0
   -3.7290   -1.6270    2.2530 C   0  0  0  0  0  0  0  0  0  0  0  0
   -4.7090   -2.2990    2.6640 O   0  0  0  0  0  0  0  0  0  0  0  0
   -2.6310   -1.4480    3.0630 O   0  0  0  0  0  0  0  0  0  0  0  0
   -7.1310   -4.2440   -0.1610 H   0  0  0  0  0  0  0  0  0  0  0  0
   -6.5090   -5.8970    0.1230 H   0  0  0  0  0  0  0  0  0  0  0  0
   -6.2750   -3.6020   -2.4970 H   0  0  0  0  0  0  0  0  0  0  0  0
   -3.8640   -6.0530   -0.3120 H   0  0  0  0  0  0  0  0  0  0  0  0
   -2.7400   -3.9010   -1.9180 H   0  0  0  0  0  0  0  0  0  0  0  0
   -1.8690   -4.9330   -0.7170 H   0  0  0  0  0  0  0  0  0  0  0  0
   -1.7040   -2.6410   -0.0440 H   0  0  0  0  0  0  0  0  0  0  0  0
   -2.6730   -3.5530    1.1330 H   0  0  0  0  0  0  0  0  0  0  0  0
   -4.7720   -2.6970    0.2400 H   0  0  0  0  0  0  0  0  0  0  0  0
   -3.9660   -1.7940   -1.0890 H   0  0  0  0  0  0  0  0  0  0  0  0
   -4.5720   -0.3450    0.7200 H   0  0  0  0  0  0  0  0  0  0  0  0
   -1.5740   -0.8010    0.8050 H   0  0  0  0  0  0  0  0  0  0  0  0
  1 10  1  0  0  0  0
  1  2  1  0  0  0  0
  2  3  1  0  0  0  0
  2 12  1  1  0  0  0
  3  4  1  0  0  0  0
  3 13  1  0  0  0  0
  4  5  1  0  0  0  0
  4 16  1  0  0  0  0
  5 17  1  0  0  0  0
  5 18  1  0  0  0  0
  6 20  1  0  0  0  0
  6  5  1  0  0  0  0
  7  6  1  0  0  0  0
  8  2  1  0  0  0  0
  8  9  2  0  0  0  0
 11  1  1  0  0  0  0
 14  3  1  0  0  0  0
 15  4  1  0  0  0  0
 19  6  1  0  0  0  0
 21  7  1  0  0  0  0
 22  7  1  0  0  0  0
 23  8  1  0  0  0  0
 24 29  1  0  0  0  0
 24 23  1  0  0  0  0
 24 33  1  1  0  0  0
 25 35  1  0  0  0  0
 25 24  1  0  0  0  0
 26 25  1  0  0  0  0
 26 36  1  0  0  0  0
 27 31  1  0  0  0  0
 27 26  1  0  0  0  0
 28 27  2  0  0  0  0
 29 47  1  0  0  0  0
 30 29  2  0  0  0  0
 31 38  1  0  0  0  0
 32 23  1  0  0  0  0
 34 25  1  0  0  0  0
 37 26  1  0  0  0  0
 39 51  1  0  0  0  0
 39 52  1  0  0  0  0
 40 42  1  0  0  0  0
 40 39  1  0  0  0  0
 41 40  2  0  0  0  0
 42 54  1  0  0  0  0
 43 56  1  0  0  0  0
 43 42  1  0  0  0  0
 43 44  1  0  0  0  0
 44 58  1  0  0  0  0
 45 44  1  0  0  0  0
 45 59  1  0  0  0  0
 45 46  1  0  0  0  0
 46 61  1  6  0  0  0
 46 48  1  0  0  0  0
 47 62  1  0  0  0  0
 47 46  1  0  0  0  0
 48 49  2  0  0  0  0
 48 50  1  0  0  0  0
 53 41  1  0  0  0  0
 55 43  1  0  0  0  0
 57 44  1  0  0  0  0
 60 45  1  0  0  0  0
M  END
$$$$
