KEY.pdb
 OpenBabel07022418493D

 60 60  0  0  1  0  0  0  0  0999 V2000
   -0.8890   -1.2880    4.1410 N   0  0  0  0  0  0  0  0  0  0  0  0
   -0.8660    0.1340    3.6430 C   0  0  1  0  0  0  0  0  0  0  0  0
    0.1130    0.8710    4.4720 C   0  0  0  0  0  0  0  0  0  0  0  0
    0.3820    2.2920    4.2890 C   0  0  0  0  0  0  0  0  0  0  0  0
    0.9670    2.8160    3.0350 C   0  0  0  0  0  0  0  0  0  0  0  0
    2.3070    2.1720    2.7130 C   0  0  0  0  0  0  0  0  0  0  0  0
    2.8480    2.7060    1.4800 N   0  0  0  0  0  0  0  0  0  0  0  0
   -0.5080    0.0630    2.2150 C   0  0  0  0  0  0  0  0  0  0  0  0
   -0.9200    0.9270    1.4340 O   0  0  0  0  0  0  0  0  0  0  0  0
   -1.4690   -1.2340    5.0310 H   0  0  0  0  0  0  0  0  0  0  0  0
    0.0790   -1.5910    4.3330 H   0  0  0  0  0  0  0  0  0  0  0  0
   -1.8980    0.5050    3.7410 H   0  0  0  0  0  0  0  0  0  0  0  0
   -0.2020    0.6740    5.5680 H   0  0  0  0  0  0  0  0  0  0  0  0
    1.1210    0.2910    4.4860 H   0  0  0  0  0  0  0  0  0  0  0  0
    1.0850    2.6180    5.1280 H   0  0  0  0  0  0  0  0  0  0  0  0
   -0.5780    2.9120    4.4450 H   0  0  0  0  0  0  0  0  0  0  0  0
    1.2920    3.9050    3.3160 H   0  0  0  0  0  0  0  0  0  0  0  0
    0.3670    2.9220    2.1550 H   0  0  0  0  0  0  0  0  0  0  0  0
    2.1640    1.0970    2.6100 H   0  0  0  0  0  0  0  0  0  0  0  0
    3.0630    2.4460    3.5060 H   0  0  0  0  0  0  0  0  0  0  0  0
    3.7780    2.3170    1.2750 H   0  0  0  0  0  0  0  0  0  0  0  0
    2.7480    3.7240    1.3860 H   0  0  0  0  0  0  0  0  0  0  0  0
    0.3060   -0.9820    1.6810 N   0  0  0  0  0  0  0  0  0  0  0  0
    0.6590   -1.0590    0.2440 C   0  0  1  0  0  0  0  0  0  0  0  0
    2.1230   -0.8670    0.0560 C   0  0  0  0  0  0  0  0  0  0  0  0
    2.6650   -0.9300   -1.3270 C   0  0  0  0  0  0  0  0  0  0  0  0
    4.1570   -0.6630   -1.2910 C   0  0  0  0  0  0  0  0  0  0  0  0
    4.6790   -0.4470   -0.1740 O   0  0  0  0  0  0  0  0  0  0  0  0
    0.0220   -2.2050   -0.3830 C   0  0  0  0  0  0  0  0  0  0  0  0
   -0.5300   -3.0730    0.3780 O   0  0  0  0  0  0  0  0  0  0  0  0
    4.9230   -0.6550   -2.4210 O   0  0  0  0  0  0  0  0  0  0  0  0
    0.6320   -1.6810    2.3770 H   0  0  0  0  0  0  0  0  0  0  0  0
    0.1770   -0.1500   -0.1830 H   0  0  0  0  0  0  0  0  0  0  0  0
    2.7360   -1.5690    0.7020 H   0  0  0  0  0  0  0  0  0  0  0  0
    2.4570    0.1390    0.4580 H   0  0  0  0  0  0  0  0  0  0  0  0
    2.5020   -1.9220   -1.8180 H   0  0  0  0  0  0  0  0  0  0  0  0
    2.2680   -0.1820   -2.0330 H   0  0  0  0  0  0  0  0  0  0  0  0
    5.8190   -0.1850   -2.4020 H   0  0  0  0  0  0  0  0  0  0  0  0
   -5.7140   -0.6120    0.3690 O   0  0  0  0  0  0  0  0  0  0  0  0
   -4.8010   -1.2490   -0.4610 C   0  0  0  0  0  0  0  0  0  0  0  0
   -3.8490   -0.5740   -1.2000 C   0  0  0  0  0  0  0  0  0  0  0  0
   -2.9500   -1.2270   -2.0190 C   0  0  0  0  0  0  0  0  0  0  0  0
   -2.9660   -2.5980   -2.1360 C   0  0  0  0  0  0  0  0  0  0  0  0
   -2.0180   -3.3460   -3.0030 C   0  0  0  0  0  0  0  0  0  0  0  0
   -0.7570   -3.7140   -2.2410 C   0  0  2  0  0  0  0  0  0  0  0  0
   -0.0800   -2.5020   -1.7600 N   0  0  0  0  0  0  0  0  0  0  0  0
    0.1590   -4.5120   -3.0840 C   0  0  0  0  0  0  0  0  0  0  0  0
   -0.2240   -5.5920   -3.5950 O   0  0  0  0  0  0  0  0  0  0  0  0
   -3.9090   -3.2860   -1.4060 C   0  0  0  0  0  0  0  0  0  0  0  0
   -4.8110   -2.6300   -0.5830 C   0  0  0  0  0  0  0  0  0  0  0  0
    1.4500   -4.0650   -3.3140 O   0  0  0  0  0  0  0  0  0  0  0  0
   -6.6800   -0.9050    0.3190 H   0  0  0  0  0  0  0  0  0  0  0  0
   -3.8540    0.5070   -1.0890 H   0  0  0  0  0  0  0  0  0  0  0  0
   -2.2080   -0.6670   -2.5920 H   0  0  0  0  0  0  0  0  0  0  0  0
   -1.8040   -2.8020   -3.9220 H   0  0  0  0  0  0  0  0  0  0  0  0
   -2.5110   -4.3010   -3.2760 H   0  0  0  0  0  0  0  0  0  0  0  0
   -1.0860   -4.3400   -1.3850 H   0  0  0  0  0  0  0  0  0  0  0  0
    0.3050   -1.8580   -2.4500 H   0  0  0  0  0  0  0  0  0  0  0  0
   -3.9530   -4.3630   -1.4690 H   0  0  0  0  0  0  0  0  0  0  0  0
   -5.5640   -3.1690    0.0000 H   0  0  0  0  0  0  0  0  0  0  0  0
  1 11  1  0  0  0  0
  1 10  1  0  0  0  0
  2 12  1  1  0  0  0
  2  1  1  0  0  0  0
  2  3  1  0  0  0  0
  3 14  1  0  0  0  0
  3 13  1  0  0  0  0
  4 16  1  0  0  0  0
  4  3  1  0  0  0  0
  4 15  1  0  0  0  0
  5 17  1  0  0  0  0
  5  4  1  0  0  0  0
  6  5  1  0  0  0  0
  6 20  1  0  0  0  0
  7  6  1  0  0  0  0
  8  2  1  0  0  0  0
  9  8  2  0  0  0  0
 18  5  1  0  0  0  0
 19  6  1  0  0  0  0
 21  7  1  0  0  0  0
 22  7  1  0  0  0  0
 23  8  1  0  0  0  0
 23 32  1  0  0  0  0
 24 33  1  6  0  0  0
 24 23  1  0  0  0  0
 25 24  1  0  0  0  0
 25 35  1  0  0  0  0
 25 34  1  0  0  0  0
 26 27  1  0  0  0  0
 26 25  1  0  0  0  0
 27 28  2  0  0  0  0
 29 24  1  0  0  0  0
 29 30  2  0  0  0  0
 31 38  1  0  0  0  0
 31 27  1  0  0  0  0
 36 26  1  0  0  0  0
 37 26  1  0  0  0  0
 40 39  1  0  0  0  0
 41 53  1  0  0  0  0
 41 40  2  0  0  0  0
 42 41  1  0  0  0  0
 43 42  2  0  0  0  0
 43 49  1  0  0  0  0
 44 45  1  0  0  0  0
 44 43  1  0  0  0  0
 45 46  1  0  0  0  0
 45 57  1  1  0  0  0
 46 29  1  0  0  0  0
 47 45  1  0  0  0  0
 48 47  2  0  0  0  0
 49 50  2  0  0  0  0
 50 40  1  0  0  0  0
 50 60  1  0  0  0  0
 51 47  1  0  0  0  0
 52 39  1  0  0  0  0
 54 42  1  0  0  0  0
 55 44  1  0  0  0  0
 56 44  1  0  0  0  0
 58 46  1  0  0  0  0
 59 49  1  0  0  0  0
M  END
$$$$
