KFC.pdb
 OpenBabel07022418513D

 54 54  0  0  1  0  0  0  0  0999 V2000
    0.1890   -2.8330    2.6510 N   0  0  0  0  0  0  0  0  0  0  0  0
   -1.0570   -2.1220    2.8280 C   0  0  1  0  0  0  0  0  0  0  0  0
   -1.1580   -1.2600    4.0240 C   0  0  0  0  0  0  0  0  0  0  0  0
   -0.2060   -0.1560    4.1660 C   0  0  0  0  0  0  0  0  0  0  0  0
    1.2390   -0.4480    4.2280 C   0  0  0  0  0  0  0  0  0  0  0  0
    1.5640   -1.3310    5.4160 C   0  0  0  0  0  0  0  0  0  0  0  0
    2.9800   -1.6340    5.4910 N   0  0  0  0  0  0  0  0  0  0  0  0
   -1.3890   -1.3200    1.5990 C   0  0  0  0  0  0  0  0  0  0  0  0
   -2.3870   -0.5950    1.5810 O   0  0  0  0  0  0  0  0  0  0  0  0
    0.0080   -3.5320    1.8790 H   0  0  0  0  0  0  0  0  0  0  0  0
    0.3130   -3.4300    3.5040 H   0  0  0  0  0  0  0  0  0  0  0  0
   -1.8470   -2.9030    2.8890 H   0  0  0  0  0  0  0  0  0  0  0  0
   -2.2140   -0.8930    4.0570 H   0  0  0  0  0  0  0  0  0  0  0  0
   -1.0910   -1.9400    4.9280 H   0  0  0  0  0  0  0  0  0  0  0  0
   -0.4880    0.4540    5.0700 H   0  0  0  0  0  0  0  0  0  0  0  0
   -0.3860    0.5650    3.3120 H   0  0  0  0  0  0  0  0  0  0  0  0
    1.6840   -0.8270    3.2930 H   0  0  0  0  0  0  0  0  0  0  0  0
    1.8050    0.5100    4.4410 H   0  0  0  0  0  0  0  0  0  0  0  0
    0.9600   -2.2560    5.4650 H   0  0  0  0  0  0  0  0  0  0  0  0
    1.3070   -0.7750    6.3670 H   0  0  0  0  0  0  0  0  0  0  0  0
    3.1480   -2.5770    5.0710 H   0  0  0  0  0  0  0  0  0  0  0  0
    3.4910   -0.8890    4.9690 H   0  0  0  0  0  0  0  0  0  0  0  0
   -0.5500   -1.3950    0.4510 N   0  0  0  0  0  0  0  0  0  0  0  0
   -0.7890   -0.6560   -0.7760 C   0  0  1  0  0  0  0  0  0  0  0  0
    0.3890    0.1820   -1.1770 C   0  0  0  0  0  0  0  0  0  0  0  0
    0.7670    1.1960   -0.1660 C   0  0  0  0  0  0  0  0  0  0  0  0
    1.6640    0.9500    0.8550 C   0  0  0  0  0  0  0  0  0  0  0  0
    2.0200    1.8990    1.7890 C   0  0  0  0  0  0  0  0  0  0  0  0
    1.4660    3.1530    1.7160 C   0  0  0  0  0  0  0  0  0  0  0  0
    0.5650    3.4410    0.7130 C   0  0  0  0  0  0  0  0  0  0  0  0
    0.2190    2.4620   -0.2230 C   0  0  0  0  0  0  0  0  0  0  0  0
   -1.0970   -1.6850   -1.8330 C   0  0  0  0  0  0  0  0  0  0  0  0
   -1.1400   -2.9130   -1.5980 O   0  0  0  0  0  0  0  0  0  0  0  0
    0.2870   -2.0430    0.5460 H   0  0  0  0  0  0  0  0  0  0  0  0
   -1.6620    0.0140   -0.6390 H   0  0  0  0  0  0  0  0  0  0  0  0
    0.1550    0.7220   -2.1160 H   0  0  0  0  0  0  0  0  0  0  0  0
    1.2700   -0.4850   -1.4030 H   0  0  0  0  0  0  0  0  0  0  0  0
    2.1210   -0.0240    0.9470 H   0  0  0  0  0  0  0  0  0  0  0  0
    2.7210    1.7060    2.5840 H   0  0  0  0  0  0  0  0  0  0  0  0
    1.7080    3.9480    2.4260 H   0  0  0  0  0  0  0  0  0  0  0  0
    0.1300    4.4370    0.6650 H   0  0  0  0  0  0  0  0  0  0  0  0
   -0.4920    2.7760   -0.9700 H   0  0  0  0  0  0  0  0  0  0  0  0
   -1.3580   -1.2700   -3.1860 N   0  0  0  0  0  0  0  0  0  0  0  0
   -1.6630   -2.2110   -4.2450 C   0  0  1  0  0  0  0  0  0  0  0  0
   -2.9920   -1.9680   -4.8800 C   0  0  0  0  0  0  0  0  0  0  0  0
   -3.1850   -0.3630   -5.6380 S   0  0  0  0  0  0  0  0  0  0  0  0
   -0.5580   -2.2990   -5.2360 C   0  0  0  0  0  0  0  0  0  0  0  0
   -0.5910   -3.0560   -6.2420 O   0  0  0  0  0  0  0  0  0  0  0  0
    0.6230   -1.5360   -5.1270 O   0  0  0  0  0  0  0  0  0  0  0  0
   -1.3080   -0.2260   -3.3360 H   0  0  0  0  0  0  0  0  0  0  0  0
   -1.7060   -3.2150   -3.7720 H   0  0  0  0  0  0  0  0  0  0  0  0
   -3.7620   -2.0430   -4.0620 H   0  0  0  0  0  0  0  0  0  0  0  0
   -3.2240   -2.7570   -5.6160 H   0  0  0  0  0  0  0  0  0  0  0  0
   -2.0020    0.3130   -5.8990 H   0  0  0  0  0  0  0  0  0  0  0  0
  1  2  1  0  0  0  0
  1 11  1  0  0  0  0
  2 12  1  1  0  0  0
  2  3  1  0  0  0  0
  3 13  1  0  0  0  0
  3  4  1  0  0  0  0
  3 14  1  0  0  0  0
  4  5  1  0  0  0  0
  4 15  1  0  0  0  0
  5 18  1  0  0  0  0
  5  6  1  0  0  0  0
  6 19  1  0  0  0  0
  6  7  1  0  0  0  0
  6 20  1  0  0  0  0
  8  2  1  0  0  0  0
  9  8  2  0  0  0  0
 10  1  1  0  0  0  0
 16  4  1  0  0  0  0
 17  5  1  0  0  0  0
 21  7  1  0  0  0  0
 22  7  1  0  0  0  0
 23 34  1  0  0  0  0
 23  8  1  0  0  0  0
 24 35  1  1  0  0  0
 24 23  1  0  0  0  0
 25 24  1  0  0  0  0
 25 26  1  0  0  0  0
 26 27  1  0  0  0  0
 27 38  1  0  0  0  0
 27 28  2  0  0  0  0
 28 39  1  0  0  0  0
 29 28  1  0  0  0  0
 29 40  1  0  0  0  0
 30 29  2  0  0  0  0
 31 26  2  0  0  0  0
 31 30  1  0  0  0  0
 32 33  2  0  0  0  0
 32 24  1  0  0  0  0
 36 25  1  0  0  0  0
 37 25  1  0  0  0  0
 41 30  1  0  0  0  0
 42 31  1  0  0  0  0
 43 32  1  0  0  0  0
 44 51  1  1  0  0  0
 44 43  1  0  0  0  0
 45 44  1  0  0  0  0
 45 52  1  0  0  0  0
 46 45  1  0  0  0  0
 47 49  1  0  0  0  0
 47 44  1  0  0  0  0
 48 47  2  0  0  0  0
 50 43  1  0  0  0  0
 53 45  1  0  0  0  0
 54 46  1  0  0  0  0
M  END
$$$$
