KFD.pdb
 OpenBabel07022418513D

 56 56  0  0  1  0  0  0  0  0999 V2000
   -1.6820   -0.9810    3.5030 N   0  0  0  0  0  0  0  0  0  0  0  0
   -0.5540   -0.3060    2.8320 C   0  0  1  0  0  0  0  0  0  0  0  0
    0.6720   -1.1460    2.8730 C   0  0  0  0  0  0  0  0  0  0  0  0
    1.8340   -0.4580    2.2500 C   0  0  0  0  0  0  0  0  0  0  0  0
    3.1130   -1.2930    2.3600 C   0  0  0  0  0  0  0  0  0  0  0  0
    2.9310   -2.6020    1.6510 C   0  0  0  0  0  0  0  0  0  0  0  0
    4.1460   -3.3940    1.7450 N   0  0  0  0  0  0  0  0  0  0  0  0
   -0.9620   -0.0120    1.4430 C   0  0  0  0  0  0  0  0  0  0  0  0
   -0.1910    0.3890    0.5770 O   0  0  0  0  0  0  0  0  0  0  0  0
   -1.3740   -1.1760    4.4660 H   0  0  0  0  0  0  0  0  0  0  0  0
   -1.9060   -1.8620    2.9920 H   0  0  0  0  0  0  0  0  0  0  0  0
   -0.3820    0.6460    3.3840 H   0  0  0  0  0  0  0  0  0  0  0  0
    0.8980   -1.5400    3.8920 H   0  0  0  0  0  0  0  0  0  0  0  0
    0.4590   -2.0470    2.2050 H   0  0  0  0  0  0  0  0  0  0  0  0
    2.0930    0.5080    2.7750 H   0  0  0  0  0  0  0  0  0  0  0  0
    1.7560   -0.2230    1.1810 H   0  0  0  0  0  0  0  0  0  0  0  0
    3.9520   -0.7550    1.9100 H   0  0  0  0  0  0  0  0  0  0  0  0
    3.3140   -1.4010    3.4330 H   0  0  0  0  0  0  0  0  0  0  0  0
    2.0970   -3.1870    2.0800 H   0  0  0  0  0  0  0  0  0  0  0  0
    2.7110   -2.4260    0.5710 H   0  0  0  0  0  0  0  0  0  0  0  0
    4.3800   -3.8400    0.8430 H   0  0  0  0  0  0  0  0  0  0  0  0
    4.9360   -2.8250    2.1160 H   0  0  0  0  0  0  0  0  0  0  0  0
   -2.3520   -0.1890    1.0380 N   0  0  0  0  0  0  0  0  0  0  0  0
   -2.7600    0.1000   -0.2930 C   0  0  1  0  0  0  0  0  0  0  0  0
   -3.0130    1.5210   -0.6320 C   0  0  0  0  0  0  0  0  0  0  0  0
   -1.9300    2.4720   -0.4900 C   0  0  0  0  0  0  0  0  0  0  0  0
   -1.7850    3.1560    0.6990 C   0  0  0  0  0  0  0  0  0  0  0  0
   -0.7670    4.0710    0.8640 C   0  0  0  0  0  0  0  0  0  0  0  0
    0.1360    4.3320   -0.1440 C   0  0  0  0  0  0  0  0  0  0  0  0
   -0.0440    3.6270   -1.3160 C   0  0  0  0  0  0  0  0  0  0  0  0
   -1.0500    2.7060   -1.5180 C   0  0  0  0  0  0  0  0  0  0  0  0
   -2.1050   -0.7030   -1.3540 C   0  0  0  0  0  0  0  0  0  0  0  0
   -2.2780   -0.4270   -2.5900 O   0  0  0  0  0  0  0  0  0  0  0  0
   -2.9690   -0.5340    1.8060 H   0  0  0  0  0  0  0  0  0  0  0  0
   -3.8420   -0.3520   -0.3280 H   0  0  0  0  0  0  0  0  0  0  0  0
   -3.9380    1.8480   -0.0680 H   0  0  0  0  0  0  0  0  0  0  0  0
   -3.3460    1.5360   -1.7100 H   0  0  0  0  0  0  0  0  0  0  0  0
   -2.4630    3.0010    1.5410 H   0  0  0  0  0  0  0  0  0  0  0  0
   -0.6430    4.6200    1.8060 H   0  0  0  0  0  0  0  0  0  0  0  0
    0.9470    5.0530   -0.0270 H   0  0  0  0  0  0  0  0  0  0  0  0
    0.6540    3.8120   -2.1320 H   0  0  0  0  0  0  0  0  0  0  0  0
   -1.1340    2.1780   -2.4840 H   0  0  0  0  0  0  0  0  0  0  0  0
   -1.2580   -1.8200   -1.1250 N   0  0  0  0  0  0  0  0  0  0  0  0
   -0.6510   -2.5730   -2.1920 C   0  0  1  0  0  0  0  0  0  0  0  0
    0.6850   -3.1520   -1.9370 C   0  0  0  0  0  0  0  0  0  0  0  0
    0.6960   -4.1120   -0.8150 C   0  0  0  0  0  0  0  0  0  0  0  0
   -0.3530   -4.3210   -0.1550 O   0  0  0  0  0  0  0  0  0  0  0  0
   -1.5750   -3.7740   -2.3770 C   0  0  0  0  0  0  0  0  0  0  0  0
   -2.6020   -3.9340   -1.6790 O   0  0  0  0  0  0  0  0  0  0  0  0
    1.8710   -4.7760   -0.5030 O   0  0  0  0  0  0  0  0  0  0  0  0
   -1.2890   -4.7270   -3.3400 O   0  0  0  0  0  0  0  0  0  0  0  0
   -1.0690   -2.1070   -0.1440 H   0  0  0  0  0  0  0  0  0  0  0  0
   -0.6990   -2.0710   -3.1620 H   0  0  0  0  0  0  0  0  0  0  0  0
    0.9590   -3.7410   -2.8510 H   0  0  0  0  0  0  0  0  0  0  0  0
    1.4990   -2.3910   -1.8480 H   0  0  0  0  0  0  0  0  0  0  0  0
    2.0030   -5.2590    0.3800 H   0  0  0  0  0  0  0  0  0  0  0  0
  1 10  1  0  0  0  0
  2  3  1  0  0  0  0
  2 12  1  1  0  0  0
  2  1  1  0  0  0  0
  3 13  1  0  0  0  0
  4  5  1  0  0  0  0
  4 15  1  0  0  0  0
  4  3  1  0  0  0  0
  5 18  1  0  0  0  0
  6  7  1  0  0  0  0
  6 19  1  0  0  0  0
  6  5  1  0  0  0  0
  7 22  1  0  0  0  0
  8  2  1  0  0  0  0
  9  8  2  0  0  0  0
 11  1  1  0  0  0  0
 14  3  1  0  0  0  0
 16  4  1  0  0  0  0
 17  5  1  0  0  0  0
 20  6  1  0  0  0  0
 21  7  1  0  0  0  0
 23  8  1  0  0  0  0
 23 34  1  0  0  0  0
 24 35  1  6  0  0  0
 24 23  1  0  0  0  0
 25 26  1  0  0  0  0
 25 24  1  0  0  0  0
 25 36  1  0  0  0  0
 26 27  1  0  0  0  0
 27 28  2  0  0  0  0
 27 38  1  0  0  0  0
 28 39  1  0  0  0  0
 29 40  1  0  0  0  0
 29 28  1  0  0  0  0
 30 29  2  0  0  0  0
 31 30  1  0  0  0  0
 31 26  2  0  0  0  0
 32 43  1  0  0  0  0
 32 24  1  0  0  0  0
 33 32  2  0  0  0  0
 37 25  1  0  0  0  0
 41 30  1  0  0  0  0
 42 31  1  0  0  0  0
 43 52  1  0  0  0  0
 44 53  1  6  0  0  0
 44 45  1  0  0  0  0
 44 43  1  0  0  0  0
 45 55  1  0  0  0  0
 45 46  1  0  0  0  0
 46 50  1  0  0  0  0
 46 47  2  0  0  0  0
 48 44  1  0  0  0  0
 48 49  1  0  0  0  0
 50 56  1  0  0  0  0
 51 48  2  0  0  0  0
 54 45  1  0  0  0  0
M  END
$$$$
