KFE.pdb
 OpenBabel07022418513D

 59 59  0  0  1  0  0  0  0  0999 V2000
    0.5590   -1.0980    2.8100 N   0  0  0  0  0  0  0  0  0  0  0  0
   -0.1780    0.1070    3.1040 C   0  0  1  0  0  0  0  0  0  0  0  0
    0.7310    1.0820    3.8280 C   0  0  0  0  0  0  0  0  0  0  0  0
    1.9360    1.4440    2.9910 C   0  0  0  0  0  0  0  0  0  0  0  0
    2.7870    2.4100    3.7680 C   0  0  0  0  0  0  0  0  0  0  0  0
    4.0180    2.8320    3.0130 C   0  0  0  0  0  0  0  0  0  0  0  0
    4.8660    1.6960    2.6900 N   0  0  0  0  0  0  0  0  0  0  0  0
   -0.8070    0.6980    1.9170 C   0  0  0  0  0  0  0  0  0  0  0  0
   -1.4940    1.7490    1.9970 O   0  0  0  0  0  0  0  0  0  0  0  0
    0.0400   -1.7830    2.2520 H   0  0  0  0  0  0  0  0  0  0  0  0
    0.8410   -1.5730    3.7060 H   0  0  0  0  0  0  0  0  0  0  0  0
   -0.9810   -0.1610    3.8230 H   0  0  0  0  0  0  0  0  0  0  0  0
    0.1600    2.0130    4.0060 H   0  0  0  0  0  0  0  0  0  0  0  0
    1.0680    0.5870    4.7570 H   0  0  0  0  0  0  0  0  0  0  0  0
    1.5960    1.8670    2.0370 H   0  0  0  0  0  0  0  0  0  0  0  0
    2.5590    0.5550    2.7580 H   0  0  0  0  0  0  0  0  0  0  0  0
    2.1920    3.3480    3.9450 H   0  0  0  0  0  0  0  0  0  0  0  0
    3.0860    1.9460    4.7240 H   0  0  0  0  0  0  0  0  0  0  0  0
    3.7380    3.3270    2.0590 H   0  0  0  0  0  0  0  0  0  0  0  0
    4.5960    3.5250    3.6340 H   0  0  0  0  0  0  0  0  0  0  0  0
    4.4060    1.1050    1.9620 H   0  0  0  0  0  0  0  0  0  0  0  0
    5.1860    1.1860    3.5240 H   0  0  0  0  0  0  0  0  0  0  0  0
   -0.6910    0.1410    0.6070 N   0  0  0  0  0  0  0  0  0  0  0  0
   -1.3330    0.7650   -0.5360 C   0  0  1  0  0  0  0  0  0  0  0  0
   -0.2990    1.2660   -1.5220 C   0  0  0  0  0  0  0  0  0  0  0  0
    0.5560    0.1840   -2.0360 C   0  0  0  0  0  0  0  0  0  0  0  0
    1.7240   -0.1660   -1.4010 C   0  0  0  0  0  0  0  0  0  0  0  0
    2.5380   -1.1810   -1.8710 C   0  0  0  0  0  0  0  0  0  0  0  0
    2.1600   -1.8430   -2.9940 C   0  0  0  0  0  0  0  0  0  0  0  0
    0.9910   -1.5100   -3.6500 C   0  0  0  0  0  0  0  0  0  0  0  0
    0.1930   -0.4960   -3.1660 C   0  0  0  0  0  0  0  0  0  0  0  0
   -2.2840   -0.1720   -1.1440 C   0  0  0  0  0  0  0  0  0  0  0  0
   -2.9910    0.1210   -2.1610 O   0  0  0  0  0  0  0  0  0  0  0  0
   -0.1270   -0.7290    0.5150 H   0  0  0  0  0  0  0  0  0  0  0  0
   -1.9010    1.6720   -0.2190 H   0  0  0  0  0  0  0  0  0  0  0  0
   -0.8230    1.7270   -2.3810 H   0  0  0  0  0  0  0  0  0  0  0  0
    0.3410    2.0120   -1.0090 H   0  0  0  0  0  0  0  0  0  0  0  0
    2.0440    0.3490   -0.5050 H   0  0  0  0  0  0  0  0  0  0  0  0
    3.4340   -1.4180   -1.3480 H   0  0  0  0  0  0  0  0  0  0  0  0
    2.7830   -2.6450   -3.3830 H   0  0  0  0  0  0  0  0  0  0  0  0
    0.7170   -2.0450   -4.5280 H   0  0  0  0  0  0  0  0  0  0  0  0
   -0.7030   -0.2460   -3.6740 H   0  0  0  0  0  0  0  0  0  0  0  0
   -2.4340   -1.4650   -0.5870 N   0  0  0  0  0  0  0  0  0  0  0  0
   -3.3380   -2.4640   -1.1040 C   0  0  1  0  0  0  0  0  0  0  0  0
   -2.6520   -3.6080   -1.7440 C   0  0  0  0  0  0  0  0  0  0  0  0
   -1.6790   -4.3970   -0.9780 C   0  0  0  0  0  0  0  0  0  0  0  0
   -2.0430   -5.1180    0.2050 C   0  0  0  0  0  0  0  0  0  0  0  0
   -3.1690   -5.2040    0.6930 O   0  0  0  0  0  0  0  0  0  0  0  0
   -4.3710   -2.8450   -0.1420 C   0  0  0  0  0  0  0  0  0  0  0  0
   -4.3800   -2.4220    1.0400 O   0  0  0  0  0  0  0  0  0  0  0  0
   -1.0230   -5.8070    0.8960 O   0  0  0  0  0  0  0  0  0  0  0  0
   -5.4200   -3.7110   -0.5040 O   0  0  0  0  0  0  0  0  0  0  0  0
   -1.8680   -1.7610    0.2650 H   0  0  0  0  0  0  0  0  0  0  0  0
   -3.8460   -1.9110   -1.9960 H   0  0  0  0  0  0  0  0  0  0  0  0
   -2.1770   -3.3330   -2.7210 H   0  0  0  0  0  0  0  0  0  0  0  0
   -3.4780   -4.3230   -2.0730 H   0  0  0  0  0  0  0  0  0  0  0  0
   -1.2720   -5.1790   -1.7170 H   0  0  0  0  0  0  0  0  0  0  0  0
   -0.7540   -3.7570   -0.8110 H   0  0  0  0  0  0  0  0  0  0  0  0
   -1.3010   -6.5990    1.4760 H   0  0  0  0  0  0  0  0  0  0  0  0
  1  2  1  0  0  0  0
  1 11  1  0  0  0  0
  2 12  1  1  0  0  0
  2  3  1  0  0  0  0
  3 13  1  0  0  0  0
  3 14  1  0  0  0  0
  4  5  1  0  0  0  0
  4  3  1  0  0  0  0
  5 17  1  0  0  0  0
  5 18  1  0  0  0  0
  6 20  1  0  0  0  0
  6  5  1  0  0  0  0
  7  6  1  0  0  0  0
  7 22  1  0  0  0  0
  8  9  2  0  0  0  0
  8  2  1  0  0  0  0
 10  1  1  0  0  0  0
 15  4  1  0  0  0  0
 16  4  1  0  0  0  0
 19  6  1  0  0  0  0
 21  7  1  0  0  0  0
 23  8  1  0  0  0  0
 24 35  1  1  0  0  0
 24 23  1  0  0  0  0
 25 37  1  0  0  0  0
 25 24  1  0  0  0  0
 26 25  1  0  0  0  0
 26 27  1  0  0  0  0
 27 38  1  0  0  0  0
 28 27  2  0  0  0  0
 28 39  1  0  0  0  0
 29 28  1  0  0  0  0
 30 31  1  0  0  0  0
 30 29  2  0  0  0  0
 31 26  2  0  0  0  0
 32 43  1  0  0  0  0
 32 24  1  0  0  0  0
 33 32  2  0  0  0  0
 34 23  1  0  0  0  0
 36 25  1  0  0  0  0
 40 29  1  0  0  0  0
 41 30  1  0  0  0  0
 42 31  1  0  0  0  0
 43 53  1  0  0  0  0
 44 54  1  6  0  0  0
 44 43  1  0  0  0  0
 44 49  1  0  0  0  0
 45 44  1  0  0  0  0
 45 46  1  0  0  0  0
 46 58  1  0  0  0  0
 46 47  1  0  0  0  0
 47 48  2  0  0  0  0
 47 51  1  0  0  0  0
 49 50  1  0  0  0  0
 51 59  1  0  0  0  0
 52 49  2  0  0  0  0
 55 45  1  0  0  0  0
 56 45  1  0  0  0  0
 57 46  1  0  0  0  0
M  END
$$$$
