KFF.pdb
 OpenBabel07022418513D

 63 64  0  0  1  0  0  0  0  0999 V2000
    1.8490    2.3700    3.0120 N   0  0  0  0  0  0  0  0  0  0  0  0
    1.6450    1.4570    1.8870 C   0  0  1  0  0  0  0  0  0  0  0  0
    1.8140    0.0410    2.4130 C   0  0  0  0  0  0  0  0  0  0  0  0
    3.1930   -0.1210    2.9730 C   0  0  0  0  0  0  0  0  0  0  0  0
    4.3050    0.1030    2.0040 C   0  0  0  0  0  0  0  0  0  0  0  0
    4.3420   -0.8130    0.8350 C   0  0  0  0  0  0  0  0  0  0  0  0
    3.1520   -0.6960    0.0530 N   0  0  0  0  0  0  0  0  0  0  0  0
    0.2910    1.6500    1.3060 C   0  0  0  0  0  0  0  0  0  0  0  0
   -0.4520    2.5070    1.8090 O   0  0  0  0  0  0  0  0  0  0  0  0
    0.9910    2.3890    3.6260 H   0  0  0  0  0  0  0  0  0  0  0  0
    2.0480    3.3270    2.6460 H   0  0  0  0  0  0  0  0  0  0  0  0
    2.3800    1.7380    1.1290 H   0  0  0  0  0  0  0  0  0  0  0  0
    1.5110   -0.7300    1.6910 H   0  0  0  0  0  0  0  0  0  0  0  0
    1.0900   -0.0710    3.2670 H   0  0  0  0  0  0  0  0  0  0  0  0
    3.3150   -1.1390    3.4210 H   0  0  0  0  0  0  0  0  0  0  0  0
    3.3060    0.6400    3.7930 H   0  0  0  0  0  0  0  0  0  0  0  0
    4.3520    1.1640    1.6610 H   0  0  0  0  0  0  0  0  0  0  0  0
    5.2640   -0.0270    2.5930 H   0  0  0  0  0  0  0  0  0  0  0  0
    5.1940   -0.5540    0.1400 H   0  0  0  0  0  0  0  0  0  0  0  0
    4.5480   -1.8660    1.1440 H   0  0  0  0  0  0  0  0  0  0  0  0
    3.0310   -1.5060   -0.6040 H   0  0  0  0  0  0  0  0  0  0  0  0
    3.2200    0.1970   -0.5070 H   0  0  0  0  0  0  0  0  0  0  0  0
   -0.1930    0.9090    0.2100 N   0  0  0  0  0  0  0  0  0  0  0  0
   -1.4820    1.0560   -0.3840 C   0  0  1  0  0  0  0  0  0  0  0  0
   -1.4620    1.3760   -1.8520 C   0  0  0  0  0  0  0  0  0  0  0  0
   -0.7690    2.6250   -2.1760 C   0  0  0  0  0  0  0  0  0  0  0  0
    0.5840    2.6450   -2.4520 C   0  0  0  0  0  0  0  0  0  0  0  0
    1.2640    3.8180   -2.7620 C   0  0  0  0  0  0  0  0  0  0  0  0
    0.5450    5.0010   -2.7910 C   0  0  0  0  0  0  0  0  0  0  0  0
   -0.8190    5.0190   -2.5170 C   0  0  0  0  0  0  0  0  0  0  0  0
   -1.4340    3.8260   -2.2170 C   0  0  0  0  0  0  0  0  0  0  0  0
   -2.2150   -0.2350   -0.1780 C   0  0  0  0  0  0  0  0  0  0  0  0
   -3.3990   -0.3590   -0.6210 O   0  0  0  0  0  0  0  0  0  0  0  0
    0.4600    0.1890   -0.1980 H   0  0  0  0  0  0  0  0  0  0  0  0
   -2.0640    1.8440    0.1300 H   0  0  0  0  0  0  0  0  0  0  0  0
   -2.5390    1.5140   -2.1540 H   0  0  0  0  0  0  0  0  0  0  0  0
   -1.1170    0.5050   -2.4700 H   0  0  0  0  0  0  0  0  0  0  0  0
    1.1240    1.7080   -2.4240 H   0  0  0  0  0  0  0  0  0  0  0  0
    2.3230    3.7600   -2.9680 H   0  0  0  0  0  0  0  0  0  0  0  0
    1.0580    5.9290   -3.0310 H   0  0  0  0  0  0  0  0  0  0  0  0
   -1.3620    5.9450   -2.5430 H   0  0  0  0  0  0  0  0  0  0  0  0
   -2.4880    3.8330   -2.0050 H   0  0  0  0  0  0  0  0  0  0  0  0
   -1.6520   -1.3380    0.4910 N   0  0  0  0  0  0  0  0  0  0  0  0
   -2.3810   -2.5960    0.6850 C   0  0  1  0  0  0  0  0  0  0  0  0
   -1.6300   -3.7480    0.1090 C   0  0  0  0  0  0  0  0  0  0  0  0
   -2.3170   -5.0480    0.2800 C   0  0  0  0  0  0  0  0  0  0  0  0
   -3.2680   -5.4990   -0.6290 C   0  0  0  0  0  0  0  0  0  0  0  0
   -3.8480   -6.7300   -0.4060 C   0  0  0  0  0  0  0  0  0  0  0  0
   -3.5300   -7.5220    0.6640 C   0  0  0  0  0  0  0  0  0  0  0  0
   -2.5930   -7.0800    1.5610 C   0  0  0  0  0  0  0  0  0  0  0  0
   -2.0060   -5.8530    1.3520 C   0  0  0  0  0  0  0  0  0  0  0  0
   -2.5760   -2.7820    2.1330 C   0  0  0  0  0  0  0  0  0  0  0  0
   -3.2220   -3.7510    2.6250 O   0  0  0  0  0  0  0  0  0  0  0  0
   -2.0290   -1.8520    3.0150 O   0  0  0  0  0  0  0  0  0  0  0  0
   -0.6810   -1.2530    0.8600 H   0  0  0  0  0  0  0  0  0  0  0  0
   -3.3990   -2.5210    0.2280 H   0  0  0  0  0  0  0  0  0  0  0  0
   -1.5810   -3.5760   -1.0050 H   0  0  0  0  0  0  0  0  0  0  0  0
   -0.6140   -3.8690    0.5310 H   0  0  0  0  0  0  0  0  0  0  0  0
   -3.5130   -4.8640   -1.4720 H   0  0  0  0  0  0  0  0  0  0  0  0
   -4.5900   -7.0980   -1.1000 H   0  0  0  0  0  0  0  0  0  0  0  0
   -4.0010   -8.4840    0.8150 H   0  0  0  0  0  0  0  0  0  0  0  0
   -2.3110   -7.6750    2.4220 H   0  0  0  0  0  0  0  0  0  0  0  0
   -1.2680   -5.5390    2.0700 H   0  0  0  0  0  0  0  0  0  0  0  0
  1 10  1  0  0  0  0
  2 12  1  6  0  0  0
  2  3  1  0  0  0  0
  2  1  1  0  0  0  0
  3  4  1  0  0  0  0
  3 14  1  0  0  0  0
  4 15  1  0  0  0  0
  4 16  1  0  0  0  0
  5 18  1  0  0  0  0
  5  4  1  0  0  0  0
  6 20  1  0  0  0  0
  6  5  1  0  0  0  0
  7  6  1  0  0  0  0
  8  9  2  0  0  0  0
  8  2  1  0  0  0  0
 11  1  1  0  0  0  0
 13  3  1  0  0  0  0
 17  5  1  0  0  0  0
 19  6  1  0  0  0  0
 21  7  1  0  0  0  0
 22  7  1  0  0  0  0
 23  8  1  0  0  0  0
 24 32  1  0  0  0  0
 24 35  1  1  0  0  0
 24 23  1  0  0  0  0
 25 24  1  0  0  0  0
 26 25  1  0  0  0  0
 27 38  1  0  0  0  0
 27 26  2  0  0  0  0
 28 27  1  0  0  0  0
 29 28  2  0  0  0  0
 29 30  1  0  0  0  0
 30 31  2  0  0  0  0
 31 26  1  0  0  0  0
 31 42  1  0  0  0  0
 32 43  1  0  0  0  0
 33 32  2  0  0  0  0
 34 23  1  0  0  0  0
 36 25  1  0  0  0  0
 37 25  1  0  0  0  0
 39 28  1  0  0  0  0
 40 29  1  0  0  0  0
 41 30  1  0  0  0  0
 43 44  1  0  0  0  0
 43 55  1  0  0  0  0
 44 56  1  6  0  0  0
 44 52  1  0  0  0  0
 45 46  1  0  0  0  0
 45 58  1  0  0  0  0
 45 44  1  0  0  0  0
 46 51  1  0  0  0  0
 47 48  1  0  0  0  0
 47 46  2  0  0  0  0
 48 49  2  0  0  0  0
 49 61  1  0  0  0  0
 49 50  1  0  0  0  0
 50 62  1  0  0  0  0
 51 50  2  0  0  0  0
 51 63  1  0  0  0  0
 52 53  2  0  0  0  0
 52 54  1  0  0  0  0
 57 45  1  0  0  0  0
 59 47  1  0  0  0  0
 60 48  1  0  0  0  0
M  END
$$$$
