KFH.pdb
 OpenBabel07022418513D

 60 61  0  0  1  0  0  0  0  0999 V2000
    0.0790   -1.0030    3.8830 N   0  0  0  0  0  0  0  0  0  0  0  0
    0.3500   -0.1930    2.7290 C   0  0  1  0  0  0  0  0  0  0  0  0
    1.6000   -0.5870    1.9720 C   0  0  0  0  0  0  0  0  0  0  0  0
    2.7830   -0.4680    2.9000 C   0  0  0  0  0  0  0  0  0  0  0  0
    4.0630   -0.7510    2.2230 C   0  0  0  0  0  0  0  0  0  0  0  0
    4.2190   -2.0870    1.6090 C   0  0  0  0  0  0  0  0  0  0  0  0
    3.3040   -2.3910    0.5340 N   0  0  0  0  0  0  0  0  0  0  0  0
   -0.8330   -0.1090    1.8830 C   0  0  0  0  0  0  0  0  0  0  0  0
   -1.9790   -0.4130    2.3440 O   0  0  0  0  0  0  0  0  0  0  0  0
   -0.0990   -0.4810    4.7520 H   0  0  0  0  0  0  0  0  0  0  0  0
    0.6940   -1.8180    3.9590 H   0  0  0  0  0  0  0  0  0  0  0  0
    0.6110    0.8260    3.1700 H   0  0  0  0  0  0  0  0  0  0  0  0
    1.7640    0.0890    1.1410 H   0  0  0  0  0  0  0  0  0  0  0  0
    1.4390   -1.6600    1.6520 H   0  0  0  0  0  0  0  0  0  0  0  0
    2.6780   -1.1660    3.7760 H   0  0  0  0  0  0  0  0  0  0  0  0
    2.7830    0.5860    3.2800 H   0  0  0  0  0  0  0  0  0  0  0  0
    4.9350   -0.5660    2.9120 H   0  0  0  0  0  0  0  0  0  0  0  0
    4.2480    0.0150    1.4000 H   0  0  0  0  0  0  0  0  0  0  0  0
    4.1060   -2.9100    2.3770 H   0  0  0  0  0  0  0  0  0  0  0  0
    5.2600   -2.2450    1.2020 H   0  0  0  0  0  0  0  0  0  0  0  0
    3.7700   -3.0910   -0.1260 H   0  0  0  0  0  0  0  0  0  0  0  0
    3.0930   -1.5260   -0.0360 H   0  0  0  0  0  0  0  0  0  0  0  0
   -0.7750    0.3060    0.5420 N   0  0  0  0  0  0  0  0  0  0  0  0
   -1.9220    0.4270   -0.2860 C   0  0  1  0  0  0  0  0  0  0  0  0
   -1.9260    1.8250   -0.8870 C   0  0  0  0  0  0  0  0  0  0  0  0
   -1.9710    2.8720    0.1610 C   0  0  0  0  0  0  0  0  0  0  0  0
   -0.8090    3.3740    0.6810 C   0  0  0  0  0  0  0  0  0  0  0  0
   -0.7710    4.3500    1.6580 C   0  0  0  0  0  0  0  0  0  0  0  0
   -2.0040    4.8040    2.0960 C   0  0  0  0  0  0  0  0  0  0  0  0
   -3.1870    4.3190    1.5930 C   0  0  0  0  0  0  0  0  0  0  0  0
   -3.1680    3.3490    0.6220 C   0  0  0  0  0  0  0  0  0  0  0  0
   -2.2430   -0.6140   -1.2280 C   0  0  0  0  0  0  0  0  0  0  0  0
   -3.2090   -0.3990   -2.0430 O   0  0  0  0  0  0  0  0  0  0  0  0
    0.1530    0.5590    0.0670 H   0  0  0  0  0  0  0  0  0  0  0  0
   -2.8010    0.4540    0.4630 H   0  0  0  0  0  0  0  0  0  0  0  0
   -2.8000    1.9900   -1.5480 H   0  0  0  0  0  0  0  0  0  0  0  0
   -1.0250    1.9390   -1.5190 H   0  0  0  0  0  0  0  0  0  0  0  0
    0.1800    3.0260    0.3450 H   0  0  0  0  0  0  0  0  0  0  0  0
    0.1660    4.7380    2.0600 H   0  0  0  0  0  0  0  0  0  0  0  0
   -2.0450    5.5790    2.8720 H   0  0  0  0  0  0  0  0  0  0  0  0
   -4.1570    4.7040    1.9660 H   0  0  0  0  0  0  0  0  0  0  0  0
   -4.1270    2.9720    0.2320 H   0  0  0  0  0  0  0  0  0  0  0  0
   -1.6210   -1.8790   -1.3750 N   0  0  0  0  0  0  0  0  0  0  0  0
   -2.0530   -2.8320   -2.3710 C   0  0  1  0  0  0  0  0  0  0  0  0
   -0.9280   -3.4950   -3.0910 C   0  0  0  0  0  0  0  0  0  0  0  0
   -0.0510   -4.2730   -2.1950 C   0  0  0  0  0  0  0  0  0  0  0  0
    1.0730   -3.8980   -1.5030 C   0  0  0  0  0  0  0  0  0  0  0  0
    1.5550   -4.9460   -0.8030 N   0  0  0  0  0  0  0  0  0  0  0  0
    0.7370   -5.9880   -1.0480 C   0  0  0  0  0  0  0  0  0  0  0  0
   -0.2340   -5.5930   -1.8860 N   0  0  0  0  0  0  0  0  0  0  0  0
   -2.9000   -3.9070   -1.7760 C   0  0  0  0  0  0  0  0  0  0  0  0
   -3.3210   -4.7840   -2.5740 O   0  0  0  0  0  0  0  0  0  0  0  0
   -3.2370   -3.9970   -0.4590 O   0  0  0  0  0  0  0  0  0  0  0  0
   -0.8300   -2.1430   -0.7570 H   0  0  0  0  0  0  0  0  0  0  0  0
   -2.7170   -2.3100   -3.0800 H   0  0  0  0  0  0  0  0  0  0  0  0
   -1.2850   -4.1970   -3.8740 H   0  0  0  0  0  0  0  0  0  0  0  0
   -0.2730   -2.7620   -3.6230 H   0  0  0  0  0  0  0  0  0  0  0  0
    1.5070   -2.8940   -1.5250 H   0  0  0  0  0  0  0  0  0  0  0  0
    2.3800   -5.0000   -0.1840 H   0  0  0  0  0  0  0  0  0  0  0  0
    0.8760   -6.9820   -0.6140 H   0  0  0  0  0  0  0  0  0  0  0  0
  1 11  1  0  0  0  0
  1 10  1  0  0  0  0
  2 12  1  1  0  0  0
  2  1  1  0  0  0  0
  3  2  1  0  0  0  0
  3  4  1  0  0  0  0
  4 16  1  0  0  0  0
  4 15  1  0  0  0  0
  5  4  1  0  0  0  0
  5 17  1  0  0  0  0
  6  5  1  0  0  0  0
  6 19  1  0  0  0  0
  7  6  1  0  0  0  0
  8  9  2  0  0  0  0
  8  2  1  0  0  0  0
 13  3  1  0  0  0  0
 14  3  1  0  0  0  0
 18  5  1  0  0  0  0
 20  6  1  0  0  0  0
 21  7  1  0  0  0  0
 22  7  1  0  0  0  0
 23  8  1  0  0  0  0
 24 35  1  1  0  0  0
 24 23  1  0  0  0  0
 25 24  1  0  0  0  0
 25 26  1  0  0  0  0
 26 31  2  0  0  0  0
 26 27  1  0  0  0  0
 27 28  2  0  0  0  0
 28 39  1  0  0  0  0
 28 29  1  0  0  0  0
 29 40  1  0  0  0  0
 30 41  1  0  0  0  0
 30 29  2  0  0  0  0
 31 30  1  0  0  0  0
 32 24  1  0  0  0  0
 33 32  2  0  0  0  0
 34 23  1  0  0  0  0
 36 25  1  0  0  0  0
 37 25  1  0  0  0  0
 38 27  1  0  0  0  0
 42 31  1  0  0  0  0
 43 32  1  0  0  0  0
 43 54  1  0  0  0  0
 44 55  1  6  0  0  0
 44 51  1  0  0  0  0
 44 43  1  0  0  0  0
 45 44  1  0  0  0  0
 45 46  1  0  0  0  0
 46 50  1  0  0  0  0
 46 47  2  0  0  0  0
 47 48  1  0  0  0  0
 48 59  1  0  0  0  0
 49 48  1  0  0  0  0
 49 60  1  0  0  0  0
 50 49  2  0  0  0  0
 51 53  1  0  0  0  0
 52 51  2  0  0  0  0
 56 45  1  0  0  0  0
 57 45  1  0  0  0  0
 58 47  1  0  0  0  0
M  END
$$$$
