KFK.pdb
 OpenBabel07022418513D

 64 64  0  0  1  0  0  0  0  0999 V2000
    0.6960    2.8530    3.1810 N   0  0  0  0  0  0  0  0  0  0  0  0
    1.6130    2.2790    2.1780 C   0  0  1  0  0  0  0  0  0  0  0  0
    2.8820    1.8830    2.8500 C   0  0  0  0  0  0  0  0  0  0  0  0
    3.8700    1.2910    1.9040 C   0  0  0  0  0  0  0  0  0  0  0  0
    4.2540    2.2330    0.7920 C   0  0  0  0  0  0  0  0  0  0  0  0
    5.2590    1.5920   -0.1440 C   0  0  0  0  0  0  0  0  0  0  0  0
    4.7340    0.4000   -0.7500 N   0  0  0  0  0  0  0  0  0  0  0  0
    0.9690    1.1430    1.4900 C   0  0  0  0  0  0  0  0  0  0  0  0
    1.4800    0.4970    0.5440 O   0  0  0  0  0  0  0  0  0  0  0  0
   -0.1770    3.2080    2.7240 H   0  0  0  0  0  0  0  0  0  0  0  0
    1.1820    3.6980    3.5770 H   0  0  0  0  0  0  0  0  0  0  0  0
    1.8540    3.1070    1.4660 H   0  0  0  0  0  0  0  0  0  0  0  0
    3.3350    2.8260    3.2810 H   0  0  0  0  0  0  0  0  0  0  0  0
    2.6670    1.2300    3.7060 H   0  0  0  0  0  0  0  0  0  0  0  0
    3.5840    0.3300    1.4850 H   0  0  0  0  0  0  0  0  0  0  0  0
    4.8120    1.1100    2.5090 H   0  0  0  0  0  0  0  0  0  0  0  0
    3.3960    2.5610    0.1940 H   0  0  0  0  0  0  0  0  0  0  0  0
    4.7460    3.1460    1.2110 H   0  0  0  0  0  0  0  0  0  0  0  0
    5.5500    2.2900   -0.9380 H   0  0  0  0  0  0  0  0  0  0  0  0
    6.2040    1.3250    0.4120 H   0  0  0  0  0  0  0  0  0  0  0  0
    5.2280    0.1760   -1.6400 H   0  0  0  0  0  0  0  0  0  0  0  0
    4.6320   -0.4040   -0.1030 H   0  0  0  0  0  0  0  0  0  0  0  0
   -0.3380    0.6990    1.8900 N   0  0  0  0  0  0  0  0  0  0  0  0
   -1.0080   -0.4050    1.2490 C   0  0  1  0  0  0  0  0  0  0  0  0
   -1.2170   -1.5840    2.1570 C   0  0  0  0  0  0  0  0  0  0  0  0
    0.0720   -2.1090    2.6590 C   0  0  0  0  0  0  0  0  0  0  0  0
    0.7590   -3.0810    1.9920 C   0  0  0  0  0  0  0  0  0  0  0  0
    1.9550   -3.5370    2.4980 C   0  0  0  0  0  0  0  0  0  0  0  0
    2.4770   -3.0170    3.6890 C   0  0  0  0  0  0  0  0  0  0  0  0
    1.7390   -2.0240    4.3350 C   0  0  0  0  0  0  0  0  0  0  0  0
    0.5440   -1.5560    3.8470 C   0  0  0  0  0  0  0  0  0  0  0  0
   -2.2550    0.0190    0.5690 C   0  0  0  0  0  0  0  0  0  0  0  0
   -2.5750    1.2300    0.6400 O   0  0  0  0  0  0  0  0  0  0  0  0
   -0.7910    1.2200    2.6780 H   0  0  0  0  0  0  0  0  0  0  0  0
   -0.3300   -0.7650    0.4430 H   0  0  0  0  0  0  0  0  0  0  0  0
   -1.6600   -2.3950    1.5340 H   0  0  0  0  0  0  0  0  0  0  0  0
   -1.9130   -1.4070    2.9830 H   0  0  0  0  0  0  0  0  0  0  0  0
    0.3460   -3.4710    1.0820 H   0  0  0  0  0  0  0  0  0  0  0  0
    2.5030   -4.3140    1.9630 H   0  0  0  0  0  0  0  0  0  0  0  0
    3.4170   -3.3710    4.0910 H   0  0  0  0  0  0  0  0  0  0  0  0
    2.0990   -1.5890    5.2590 H   0  0  0  0  0  0  0  0  0  0  0  0
    0.0040   -0.7880    4.3770 H   0  0  0  0  0  0  0  0  0  0  0  0
   -3.0520   -0.9190   -0.1340 N   0  0  0  0  0  0  0  0  0  0  0  0
   -4.2890   -0.5260   -0.8120 C   0  0  1  0  0  0  0  0  0  0  0  0
   -4.2140   -0.8380   -2.2970 C   0  0  0  0  0  0  0  0  0  0  0  0
   -4.0050   -2.3120   -2.4830 C   0  0  0  0  0  0  0  0  0  0  0  0
   -3.9180   -2.7110   -3.9310 C   0  0  0  0  0  0  0  0  0  0  0  0
   -2.7750   -2.0240   -4.6410 C   0  0  0  0  0  0  0  0  0  0  0  0
   -1.5090   -2.3360   -4.0530 N   0  0  0  0  0  0  0  0  0  0  0  0
   -5.4020   -1.3200   -0.2460 C   0  0  0  0  0  0  0  0  0  0  0  0
   -6.5570   -1.1280   -0.6990 O   0  0  0  0  0  0  0  0  0  0  0  0
   -5.2490   -2.2630    0.7560 O   0  0  0  0  0  0  0  0  0  0  0  0
   -2.7080   -1.9000   -0.1390 H   0  0  0  0  0  0  0  0  0  0  0  0
   -4.4990    0.5520   -0.6450 H   0  0  0  0  0  0  0  0  0  0  0  0
   -3.2870   -0.3270   -2.6670 H   0  0  0  0  0  0  0  0  0  0  0  0
   -5.1250   -0.4680   -2.7750 H   0  0  0  0  0  0  0  0  0  0  0  0
   -3.0860   -2.6600   -1.9880 H   0  0  0  0  0  0  0  0  0  0  0  0
   -4.8650   -2.8450   -2.0330 H   0  0  0  0  0  0  0  0  0  0  0  0
   -4.8680   -2.5720   -4.4450 H   0  0  0  0  0  0  0  0  0  0  0  0
   -3.7040   -3.8160   -3.9350 H   0  0  0  0  0  0  0  0  0  0  0  0
   -2.9910   -0.9290   -4.6590 H   0  0  0  0  0  0  0  0  0  0  0  0
   -2.7690   -2.4050   -5.6920 H   0  0  0  0  0  0  0  0  0  0  0  0
   -0.8250   -2.7190   -4.7520 H   0  0  0  0  0  0  0  0  0  0  0  0
   -1.5450   -3.0210   -3.2720 H   0  0  0  0  0  0  0  0  0  0  0  0
  1 11  1  0  0  0  0
  2 12  1  6  0  0  0
  2  3  1  0  0  0  0
  2  1  1  0  0  0  0
  3 13  1  0  0  0  0
  3 14  1  0  0  0  0
  4 16  1  0  0  0  0
  4  3  1  0  0  0  0
  5 18  1  0  0  0  0
  5  4  1  0  0  0  0
  6 20  1  0  0  0  0
  6  5  1  0  0  0  0
  7  6  1  0  0  0  0
  7 22  1  0  0  0  0
  8 23  1  0  0  0  0
  8  2  1  0  0  0  0
  9  8  2  0  0  0  0
 10  1  1  0  0  0  0
 15  4  1  0  0  0  0
 17  5  1  0  0  0  0
 19  6  1  0  0  0  0
 21  7  1  0  0  0  0
 23 34  1  0  0  0  0
 24 35  1  6  0  0  0
 24 23  1  0  0  0  0
 24 25  1  0  0  0  0
 25 26  1  0  0  0  0
 25 37  1  0  0  0  0
 26 31  1  0  0  0  0
 27 28  1  0  0  0  0
 27 26  2  0  0  0  0
 28 29  2  0  0  0  0
 29 40  1  0  0  0  0
 29 30  1  0  0  0  0
 30 41  1  0  0  0  0
 31 30  2  0  0  0  0
 31 42  1  0  0  0  0
 32 33  2  0  0  0  0
 32 24  1  0  0  0  0
 36 25  1  0  0  0  0
 38 27  1  0  0  0  0
 39 28  1  0  0  0  0
 43 32  1  0  0  0  0
 44 54  1  1  0  0  0
 44 50  1  0  0  0  0
 44 43  1  0  0  0  0
 45 44  1  0  0  0  0
 46 45  1  0  0  0  0
 46 58  1  0  0  0  0
 46 57  1  0  0  0  0
 47 46  1  0  0  0  0
 48 49  1  0  0  0  0
 48 47  1  0  0  0  0
 49 64  1  0  0  0  0
 50 52  1  0  0  0  0
 51 50  2  0  0  0  0
 53 43  1  0  0  0  0
 55 45  1  0  0  0  0
 56 45  1  0  0  0  0
 59 47  1  0  0  0  0
 60 47  1  0  0  0  0
 61 48  1  0  0  0  0
 62 48  1  0  0  0  0
 63 49  1  0  0  0  0
M  END
$$$$
