KFN.pdb
 OpenBabel07022418513D

 57 57  0  0  1  0  0  0  0  0999 V2000
    1.1370   -1.8530    2.2530 N   0  0  0  0  0  0  0  0  0  0  0  0
    0.2640   -1.0440    3.0290 C   0  0  1  0  0  0  0  0  0  0  0  0
    1.0170    0.0450    3.8000 C   0  0  0  0  0  0  0  0  0  0  0  0
    2.0290   -0.5150    4.7540 C   0  0  0  0  0  0  0  0  0  0  0  0
    2.7020    0.6290    5.4580 C   0  0  0  0  0  0  0  0  0  0  0  0
    3.4070    1.5390    4.5060 C   0  0  0  0  0  0  0  0  0  0  0  0
    4.4530    0.8780    3.7320 N   0  0  0  0  0  0  0  0  0  0  0  0
   -0.7630   -0.3360    2.2290 C   0  0  0  0  0  0  0  0  0  0  0  0
   -1.6650    0.3670    2.7650 O   0  0  0  0  0  0  0  0  0  0  0  0
    1.5010   -2.6920    2.7110 H   0  0  0  0  0  0  0  0  0  0  0  0
    1.8180   -1.3240    1.6700 H   0  0  0  0  0  0  0  0  0  0  0  0
   -0.2500   -1.6660    3.7830 H   0  0  0  0  0  0  0  0  0  0  0  0
    1.4640    0.7130    3.0400 H   0  0  0  0  0  0  0  0  0  0  0  0
    0.2490    0.6450    4.3310 H   0  0  0  0  0  0  0  0  0  0  0  0
    2.8100   -1.0560    4.1650 H   0  0  0  0  0  0  0  0  0  0  0  0
    1.5900   -1.1950    5.4860 H   0  0  0  0  0  0  0  0  0  0  0  0
    3.3530    0.2850    6.3010 H   0  0  0  0  0  0  0  0  0  0  0  0
    1.9020    1.2460    5.9450 H   0  0  0  0  0  0  0  0  0  0  0  0
    2.6950    2.0780    3.8700 H   0  0  0  0  0  0  0  0  0  0  0  0
    3.9550    2.3210    5.0960 H   0  0  0  0  0  0  0  0  0  0  0  0
    4.4730    1.3280    2.8010 H   0  0  0  0  0  0  0  0  0  0  0  0
    5.3610    0.9200    4.2430 H   0  0  0  0  0  0  0  0  0  0  0  0
   -0.8030   -0.3970    0.8180 N   0  0  0  0  0  0  0  0  0  0  0  0
   -1.7510    0.2510   -0.0360 C   0  0  1  0  0  0  0  0  0  0  0  0
   -1.2390    1.4030   -0.8120 C   0  0  0  0  0  0  0  0  0  0  0  0
   -0.1430    1.1920   -1.7380 C   0  0  0  0  0  0  0  0  0  0  0  0
    1.1470    1.3230   -1.2340 C   0  0  0  0  0  0  0  0  0  0  0  0
    2.2400    1.1370   -2.0580 C   0  0  0  0  0  0  0  0  0  0  0  0
    2.1070    0.8210   -3.3820 C   0  0  0  0  0  0  0  0  0  0  0  0
    0.8340    0.6860   -3.9020 C   0  0  0  0  0  0  0  0  0  0  0  0
   -0.2430    0.8750   -3.0690 C   0  0  0  0  0  0  0  0  0  0  0  0
   -2.5660   -0.7000   -0.7970 C   0  0  0  0  0  0  0  0  0  0  0  0
   -3.4230   -0.2960   -1.6070 O   0  0  0  0  0  0  0  0  0  0  0  0
   -0.0400   -0.9920    0.3740 H   0  0  0  0  0  0  0  0  0  0  0  0
   -2.4940    0.7260    0.6860 H   0  0  0  0  0  0  0  0  0  0  0  0
   -0.9640    2.1900   -0.0830 H   0  0  0  0  0  0  0  0  0  0  0  0
   -2.0950    1.8210   -1.3970 H   0  0  0  0  0  0  0  0  0  0  0  0
    1.3360    1.5700   -0.2080 H   0  0  0  0  0  0  0  0  0  0  0  0
    3.2630    1.2330   -1.6790 H   0  0  0  0  0  0  0  0  0  0  0  0
    2.9640    0.6720   -4.0410 H   0  0  0  0  0  0  0  0  0  0  0  0
    0.7120    0.4310   -4.9670 H   0  0  0  0  0  0  0  0  0  0  0  0
   -1.2160    0.7740   -3.4820 H   0  0  0  0  0  0  0  0  0  0  0  0
   -1.5720   -3.6230   -4.6260 N   0  0  0  0  0  0  0  0  0  0  0  0
   -1.6040   -3.3220   -3.2440 C   0  0  0  0  0  0  0  0  0  0  0  0
   -0.8680   -2.3480   -2.8500 O   0  0  0  0  0  0  0  0  0  0  0  0
   -2.4080   -4.0240   -2.2240 C   0  0  0  0  0  0  0  0  0  0  0  0
   -3.1860   -3.0670   -1.3720 C   0  0  2  0  0  0  0  0  0  0  0  0
   -2.4170   -2.1010   -0.6470 N   0  0  0  0  0  0  0  0  0  0  0  0
   -4.0910   -3.7610   -0.4310 C   0  0  0  0  0  0  0  0  0  0  0  0
   -4.8830   -4.6800   -0.7640 O   0  0  0  0  0  0  0  0  0  0  0  0
   -4.0940   -3.4030    0.9020 O   0  0  0  0  0  0  0  0  0  0  0  0
   -1.6210   -2.8000   -5.2930 H   0  0  0  0  0  0  0  0  0  0  0  0
   -1.5130   -4.5660   -5.0450 H   0  0  0  0  0  0  0  0  0  0  0  0
   -3.1830   -4.6050   -2.8120 H   0  0  0  0  0  0  0  0  0  0  0  0
   -1.8640   -4.7890   -1.6510 H   0  0  0  0  0  0  0  0  0  0  0  0
   -3.8540   -2.4860   -2.0550 H   0  0  0  0  0  0  0  0  0  0  0  0
   -1.7090   -2.4990    0.0320 H   0  0  0  0  0  0  0  0  0  0  0  0
  1 10  1  0  0  0  0
  1  2  1  0  0  0  0
  2 12  1  1  0  0  0
  2  3  1  0  0  0  0
  3 14  1  0  0  0  0
  3  4  1  0  0  0  0
  4  5  1  0  0  0  0
  4 16  1  0  0  0  0
  5 18  1  0  0  0  0
  5 17  1  0  0  0  0
  6 20  1  0  0  0  0
  6  5  1  0  0  0  0
  7 22  1  0  0  0  0
  7  6  1  0  0  0  0
  8  9  2  0  0  0  0
  8  2  1  0  0  0  0
 11  1  1  0  0  0  0
 13  3  1  0  0  0  0
 15  4  1  0  0  0  0
 19  6  1  0  0  0  0
 21  7  1  0  0  0  0
 23  8  1  0  0  0  0
 24 35  1  1  0  0  0
 24 23  1  0  0  0  0
 25 36  1  0  0  0  0
 25 24  1  0  0  0  0
 26 27  1  0  0  0  0
 26 25  1  0  0  0  0
 27 38  1  0  0  0  0
 28 39  1  0  0  0  0
 28 27  2  0  0  0  0
 29 28  1  0  0  0  0
 30 29  2  0  0  0  0
 30 31  1  0  0  0  0
 31 26  2  0  0  0  0
 32 48  1  0  0  0  0
 32 24  1  0  0  0  0
 33 32  2  0  0  0  0
 34 23  1  0  0  0  0
 37 25  1  0  0  0  0
 40 29  1  0  0  0  0
 41 30  1  0  0  0  0
 42 31  1  0  0  0  0
 43 44  1  0  0  0  0
 44 45  2  0  0  0  0
 44 46  1  0  0  0  0
 46 55  1  0  0  0  0
 46 47  1  0  0  0  0
 47 56  1  6  0  0  0
 47 48  1  0  0  0  0
 47 49  1  0  0  0  0
 48 57  1  0  0  0  0
 49 51  1  0  0  0  0
 50 49  2  0  0  0  0
 52 43  1  0  0  0  0
 53 43  1  0  0  0  0
 54 46  1  0  0  0  0
M  END
$$$$
