KFP.pdb
 OpenBabel07022418513D

 57 58  0  0  1  0  0  0  0  0999 V2000
    2.2160   -1.3090    2.9980 N   0  0  0  0  0  0  0  0  0  0  0  0
    0.8970   -0.9850    3.3720 C   0  0  1  0  0  0  0  0  0  0  0  0
    0.6030    0.0820    4.3260 C   0  0  0  0  0  0  0  0  0  0  0  0
    0.9460    1.4760    4.2080 C   0  0  0  0  0  0  0  0  0  0  0  0
    2.2950    2.0270    4.2700 C   0  0  0  0  0  0  0  0  0  0  0  0
    3.2750    1.5910    3.2520 C   0  0  0  0  0  0  0  0  0  0  0  0
    2.8660    1.8190    1.8890 N   0  0  0  0  0  0  0  0  0  0  0  0
   -0.0960   -1.0450    2.2270 C   0  0  0  0  0  0  0  0  0  0  0  0
   -1.2790   -0.7890    2.5170 O   0  0  0  0  0  0  0  0  0  0  0  0
    2.4640   -0.9210    2.0780 H   0  0  0  0  0  0  0  0  0  0  0  0
    2.3310   -2.3430    2.9090 H   0  0  0  0  0  0  0  0  0  0  0  0
    0.5740   -1.9570    3.9900 H   0  0  0  0  0  0  0  0  0  0  0  0
   -0.5080   -0.0280    4.6800 H   0  0  0  0  0  0  0  0  0  0  0  0
    1.0950   -0.2830    5.3270 H   0  0  0  0  0  0  0  0  0  0  0  0
    0.3300    2.0250    5.0380 H   0  0  0  0  0  0  0  0  0  0  0  0
    0.4210    1.8730    3.2560 H   0  0  0  0  0  0  0  0  0  0  0  0
    2.7460    1.7590    5.3000 H   0  0  0  0  0  0  0  0  0  0  0  0
    2.2650    3.1720    4.3370 H   0  0  0  0  0  0  0  0  0  0  0  0
    4.1920    2.3140    3.4400 H   0  0  0  0  0  0  0  0  0  0  0  0
    3.7180    0.6260    3.4060 H   0  0  0  0  0  0  0  0  0  0  0  0
    3.3720    1.1370    1.2640 H   0  0  0  0  0  0  0  0  0  0  0  0
    3.2090    2.7580    1.5690 H   0  0  0  0  0  0  0  0  0  0  0  0
    0.2160   -1.3660    0.9040 N   0  0  0  0  0  0  0  0  0  0  0  0
   -0.7490   -1.4500   -0.1780 C   0  0  1  0  0  0  0  0  0  0  0  0
   -0.4740   -0.4690   -1.2740 C   0  0  0  0  0  0  0  0  0  0  0  0
   -0.5080    0.9430   -0.9080 C   0  0  0  0  0  0  0  0  0  0  0  0
    0.6330    1.6070   -0.5300 C   0  0  0  0  0  0  0  0  0  0  0  0
    0.5990    2.9630   -0.1830 C   0  0  0  0  0  0  0  0  0  0  0  0
   -0.5950    3.6490   -0.2200 C   0  0  0  0  0  0  0  0  0  0  0  0
   -1.7570    2.9770   -0.6030 C   0  0  0  0  0  0  0  0  0  0  0  0
   -1.6930    1.6410   -0.9390 C   0  0  0  0  0  0  0  0  0  0  0  0
   -0.7150   -2.8340   -0.7020 C   0  0  0  0  0  0  0  0  0  0  0  0
    0.3080   -3.5370   -0.3680 O   0  0  0  0  0  0  0  0  0  0  0  0
    1.2020   -1.5650    0.6480 H   0  0  0  0  0  0  0  0  0  0  0  0
   -1.7560   -1.2550    0.2200 H   0  0  0  0  0  0  0  0  0  0  0  0
   -1.1980   -0.6290   -2.0820 H   0  0  0  0  0  0  0  0  0  0  0  0
    0.5180   -0.7370   -1.7820 H   0  0  0  0  0  0  0  0  0  0  0  0
    1.6070    1.1230   -0.4840 H   0  0  0  0  0  0  0  0  0  0  0  0
    1.4740    3.5080    0.1140 H   0  0  0  0  0  0  0  0  0  0  0  0
   -0.6290    4.7110    0.0500 H   0  0  0  0  0  0  0  0  0  0  0  0
   -2.7010    3.5300   -0.6290 H   0  0  0  0  0  0  0  0  0  0  0  0
   -2.5750    1.1220   -1.2330 H   0  0  0  0  0  0  0  0  0  0  0  0
   -1.6800   -3.4600   -1.5190 N   0  0  0  0  0  0  0  0  0  0  0  0
   -2.9320   -2.9070   -1.9280 C   0  0  0  0  0  0  0  0  0  0  0  0
   -3.2230   -3.5370   -3.2860 C   0  0  0  0  0  0  0  0  0  0  0  0
   -2.6980   -4.9410   -3.0200 C   0  0  0  0  0  0  0  0  0  0  0  0
   -1.5500   -4.7710   -2.0890 C   0  0  1  0  0  0  0  0  0  0  0  0
   -0.2440   -4.9830   -2.7660 C   0  0  0  0  0  0  0  0  0  0  0  0
   -0.0150   -6.1200   -3.2340 O   0  0  0  0  0  0  0  0  0  0  0  0
    0.6990   -3.9990   -2.8930 O   0  0  0  0  0  0  0  0  0  0  0  0
   -3.7340   -3.3870   -1.2570 H   0  0  0  0  0  0  0  0  0  0  0  0
   -3.0750   -1.8430   -1.8790 H   0  0  0  0  0  0  0  0  0  0  0  0
   -2.6650   -2.9880   -4.0390 H   0  0  0  0  0  0  0  0  0  0  0  0
   -4.2920   -3.5430   -3.5030 H   0  0  0  0  0  0  0  0  0  0  0  0
   -2.3930   -5.3350   -4.0190 H   0  0  0  0  0  0  0  0  0  0  0  0
   -3.5200   -5.5440   -2.5940 H   0  0  0  0  0  0  0  0  0  0  0  0
   -1.6910   -5.4920   -1.2520 H   0  0  0  0  0  0  0  0  0  0  0  0
  1  2  1  0  0  0  0
  2 12  1  1  0  0  0
  2  3  1  0  0  0  0
  3 13  1  0  0  0  0
  3 14  1  0  0  0  0
  4  5  1  0  0  0  0
  4  3  1  0  0  0  0
  4 15  1  0  0  0  0
  5 18  1  0  0  0  0
  5 17  1  0  0  0  0
  6 20  1  0  0  0  0
  6 19  1  0  0  0  0
  6  5  1  0  0  0  0
  7  6  1  0  0  0  0
  8  9  2  0  0  0  0
  8  2  1  0  0  0  0
 10  1  1  0  0  0  0
 11  1  1  0  0  0  0
 16  4  1  0  0  0  0
 21  7  1  0  0  0  0
 22  7  1  0  0  0  0
 23  8  1  0  0  0  0
 24 35  1  1  0  0  0
 24 23  1  0  0  0  0
 25 26  1  0  0  0  0
 25 24  1  0  0  0  0
 26 27  1  0  0  0  0
 27 38  1  0  0  0  0
 27 28  2  0  0  0  0
 28 39  1  0  0  0  0
 29 28  1  0  0  0  0
 29 40  1  0  0  0  0
 30 29  2  0  0  0  0
 31 26  2  0  0  0  0
 31 30  1  0  0  0  0
 32 33  2  0  0  0  0
 32 24  1  0  0  0  0
 34 23  1  0  0  0  0
 36 25  1  0  0  0  0
 37 25  1  0  0  0  0
 41 30  1  0  0  0  0
 42 31  1  0  0  0  0
 43 32  1  0  0  0  0
 44 52  1  0  0  0  0
 44 43  1  0  0  0  0
 44 51  1  0  0  0  0
 45 46  1  0  0  0  0
 45 44  1  0  0  0  0
 46 56  1  0  0  0  0
 46 47  1  0  0  0  0
 47 43  1  0  0  0  0
 47 57  1  1  0  0  0
 48 47  1  0  0  0  0
 49 48  2  0  0  0  0
 50 48  1  0  0  0  0
 53 45  1  0  0  0  0
 54 45  1  0  0  0  0
 55 46  1  0  0  0  0
M  END
$$$$
