KFQ.pdb
 OpenBabel07022418513D

 60 60  0  0  1  0  0  0  0  0999 V2000
    2.2020    1.9480   -2.2910 N   0  0  0  0  0  0  0  0  0  0  0  0
    2.6870    0.7670   -1.4290 C   0  0  1  0  0  0  0  0  0  0  0  0
    3.5700    1.3210   -0.4340 C   0  0  0  0  0  0  0  0  0  0  0  0
    4.2620    0.5100    0.5810 C   0  0  0  0  0  0  0  0  0  0  0  0
    3.5380   -0.2280    1.6210 C   0  0  0  0  0  0  0  0  0  0  0  0
    4.5620   -0.9160    2.5770 C   0  0  0  0  0  0  0  0  0  0  0  0
    5.4100   -1.8240    1.8710 N   0  0  0  0  0  0  0  0  0  0  0  0
    1.4670    0.0420   -1.1930 C   0  0  0  0  0  0  0  0  0  0  0  0
    1.5370   -1.1490   -0.7320 O   0  0  0  0  0  0  0  0  0  0  0  0
    3.0640    2.3060   -2.7490 H   0  0  0  0  0  0  0  0  0  0  0  0
    1.9390    2.6350   -1.5260 H   0  0  0  0  0  0  0  0  0  0  0  0
    3.2840    0.2140   -2.2170 H   0  0  0  0  0  0  0  0  0  0  0  0
    4.4530    1.7890   -1.0410 H   0  0  0  0  0  0  0  0  0  0  0  0
    3.1740    2.2980    0.0280 H   0  0  0  0  0  0  0  0  0  0  0  0
    4.9110   -0.2670    0.0410 H   0  0  0  0  0  0  0  0  0  0  0  0
    5.0490    1.1450    1.1340 H   0  0  0  0  0  0  0  0  0  0  0  0
    2.9840    0.4560    2.3310 H   0  0  0  0  0  0  0  0  0  0  0  0
    2.8630   -1.0230    1.3730 H   0  0  0  0  0  0  0  0  0  0  0  0
    5.1030   -0.0810    3.0540 H   0  0  0  0  0  0  0  0  0  0  0  0
    3.9640   -1.4350    3.3440 H   0  0  0  0  0  0  0  0  0  0  0  0
    6.3770   -1.4180    1.7590 H   0  0  0  0  0  0  0  0  0  0  0  0
    5.0040   -2.1030    0.9350 H   0  0  0  0  0  0  0  0  0  0  0  0
    0.1830    0.5260   -1.4380 N   0  0  0  0  0  0  0  0  0  0  0  0
   -1.0820   -0.1490   -1.2390 C   0  0  1  0  0  0  0  0  0  0  0  0
   -1.9970    0.5980   -0.3060 C   0  0  0  0  0  0  0  0  0  0  0  0
   -1.2890    0.7210    1.0030 C   0  0  0  0  0  0  0  0  0  0  0  0
   -1.4180   -0.3080    1.9370 C   0  0  0  0  0  0  0  0  0  0  0  0
   -0.7460   -0.1650    3.1250 C   0  0  0  0  0  0  0  0  0  0  0  0
    0.0390    0.9480    3.4160 C   0  0  0  0  0  0  0  0  0  0  0  0
    0.1530    1.9320    2.4980 C   0  0  0  0  0  0  0  0  0  0  0  0
   -0.5200    1.8240    1.2750 C   0  0  0  0  0  0  0  0  0  0  0  0
   -1.6910   -0.4790   -2.5460 C   0  0  0  0  0  0  0  0  0  0  0  0
   -0.9850   -0.4520   -3.5720 O   0  0  0  0  0  0  0  0  0  0  0  0
    0.1050    1.5200   -1.8130 H   0  0  0  0  0  0  0  0  0  0  0  0
   -0.8650   -1.1580   -0.7740 H   0  0  0  0  0  0  0  0  0  0  0  0
   -2.8990   -0.0270   -0.1100 H   0  0  0  0  0  0  0  0  0  0  0  0
   -2.2670    1.5960   -0.6770 H   0  0  0  0  0  0  0  0  0  0  0  0
   -2.0410   -1.1770    1.7040 H   0  0  0  0  0  0  0  0  0  0  0  0
   -0.8050   -0.9170    3.8930 H   0  0  0  0  0  0  0  0  0  0  0  0
    0.5610    1.0160    4.3730 H   0  0  0  0  0  0  0  0  0  0  0  0
    0.7650    2.8260    2.6950 H   0  0  0  0  0  0  0  0  0  0  0  0
   -0.4180    2.6320    0.5700 H   0  0  0  0  0  0  0  0  0  0  0  0
   -6.6620    0.3600   -1.5970 N   0  0  0  0  0  0  0  0  0  0  0  0
   -6.2130   -0.8880   -2.0900 C   0  0  0  0  0  0  0  0  0  0  0  0
   -5.9340   -1.8030   -1.3050 O   0  0  0  0  0  0  0  0  0  0  0  0
   -6.0940   -1.0690   -3.5520 C   0  0  0  0  0  0  0  0  0  0  0  0
   -4.8980   -1.7580   -4.0750 C   0  0  0  0  0  0  0  0  0  0  0  0
   -3.5890   -1.1360   -3.9870 C   0  0  2  0  0  0  0  0  0  0  0  0
   -3.0960   -0.8360   -2.6880 N   0  0  0  0  0  0  0  0  0  0  0  0
   -3.5290    0.1340   -4.8480 C   0  0  0  0  0  0  0  0  0  0  0  0
   -3.1690    1.1800   -4.3030 O   0  0  0  0  0  0  0  0  0  0  0  0
   -3.8560    0.1330   -6.1720 O   0  0  0  0  0  0  0  0  0  0  0  0
   -6.7620    0.4980   -0.5700 H   0  0  0  0  0  0  0  0  0  0  0  0
   -6.8840    1.1320   -2.2360 H   0  0  0  0  0  0  0  0  0  0  0  0
   -6.9870   -1.7270   -3.8140 H   0  0  0  0  0  0  0  0  0  0  0  0
   -6.3310   -0.1220   -4.1080 H   0  0  0  0  0  0  0  0  0  0  0  0
   -4.8440   -2.7470   -3.4950 H   0  0  0  0  0  0  0  0  0  0  0  0
   -5.1570   -2.1190   -5.1110 H   0  0  0  0  0  0  0  0  0  0  0  0
   -2.8170   -1.7500   -4.5020 H   0  0  0  0  0  0  0  0  0  0  0  0
   -3.6290   -0.8380   -1.8280 H   0  0  0  0  0  0  0  0  0  0  0  0
  1 11  1  0  0  0  0
  1  2  1  0  0  0  0
  2 12  1  6  0  0  0
  2  8  1  0  0  0  0
  2  3  1  0  0  0  0
  3 14  1  0  0  0  0
  3  4  1  0  0  0  0
  4 16  1  0  0  0  0
  4  5  1  0  0  0  0
  5 17  1  0  0  0  0
  5  6  1  0  0  0  0
  6 19  1  0  0  0  0
  6 20  1  0  0  0  0
  7  6  1  0  0  0  0
  8  9  2  0  0  0  0
 10  1  1  0  0  0  0
 13  3  1  0  0  0  0
 15  4  1  0  0  0  0
 18  5  1  0  0  0  0
 21  7  1  0  0  0  0
 22  7  1  0  0  0  0
 23 24  1  0  0  0  0
 23  8  1  0  0  0  0
 24 35  1  1  0  0  0
 24 25  1  0  0  0  0
 25 36  1  0  0  0  0
 25 26  1  0  0  0  0
 26 31  2  0  0  0  0
 26 27  1  0  0  0  0
 27 28  2  0  0  0  0
 28 29  1  0  0  0  0
 28 39  1  0  0  0  0
 29 40  1  0  0  0  0
 30 41  1  0  0  0  0
 30 29  2  0  0  0  0
 31 30  1  0  0  0  0
 32 24  1  0  0  0  0
 33 32  2  0  0  0  0
 34 23  1  0  0  0  0
 37 25  1  0  0  0  0
 38 27  1  0  0  0  0
 42 31  1  0  0  0  0
 43 53  1  0  0  0  0
 44 43  1  0  0  0  0
 44 45  2  0  0  0  0
 46 44  1  0  0  0  0
 47 48  1  0  0  0  0
 47 46  1  0  0  0  0
 47 57  1  0  0  0  0
 48 59  1  6  0  0  0
 48 49  1  0  0  0  0
 49 32  1  0  0  0  0
 49 60  1  0  0  0  0
 50 51  1  0  0  0  0
 50 48  1  0  0  0  0
 52 50  2  0  0  0  0
 54 43  1  0  0  0  0
 55 46  1  0  0  0  0
 56 46  1  0  0  0  0
 58 47  1  0  0  0  0
M  END
$$$$
