KFS.pdb
 OpenBabel07022418513D

 54 54  0  0  1  0  0  0  0  0999 V2000
    3.7540    0.8240    0.4030 N   0  0  0  0  0  0  0  0  0  0  0  0
    2.5900    0.3340   -0.2600 C   0  0  1  0  0  0  0  0  0  0  0  0
    2.6910   -1.1370   -0.5710 C   0  0  0  0  0  0  0  0  0  0  0  0
    2.8680   -2.0290    0.6020 C   0  0  0  0  0  0  0  0  0  0  0  0
    4.0980   -1.7900    1.4200 C   0  0  0  0  0  0  0  0  0  0  0  0
    5.3670   -1.9590    0.6240 C   0  0  0  0  0  0  0  0  0  0  0  0
    6.4840   -1.6970    1.5360 N   0  0  0  0  0  0  0  0  0  0  0  0
    1.3290    0.6530    0.4770 C   0  0  0  0  0  0  0  0  0  0  0  0
    1.3170    1.2200    1.6090 O   0  0  0  0  0  0  0  0  0  0  0  0
    3.5830    1.7070    0.9100 H   0  0  0  0  0  0  0  0  0  0  0  0
    4.5030    0.9640   -0.3250 H   0  0  0  0  0  0  0  0  0  0  0  0
    2.5120    0.8620   -1.2380 H   0  0  0  0  0  0  0  0  0  0  0  0
    1.7490   -1.4330   -1.0850 H   0  0  0  0  0  0  0  0  0  0  0  0
    3.4950   -1.2630   -1.3180 H   0  0  0  0  0  0  0  0  0  0  0  0
    1.9920   -1.9940    1.2720 H   0  0  0  0  0  0  0  0  0  0  0  0
    2.9230   -3.0740    0.2200 H   0  0  0  0  0  0  0  0  0  0  0  0
    4.1170   -2.6160    2.1960 H   0  0  0  0  0  0  0  0  0  0  0  0
    4.0880   -0.8630    2.0220 H   0  0  0  0  0  0  0  0  0  0  0  0
    5.4730   -1.2800   -0.2160 H   0  0  0  0  0  0  0  0  0  0  0  0
    5.4560   -3.0280    0.3040 H   0  0  0  0  0  0  0  0  0  0  0  0
    7.3110   -2.2060    1.1460 H   0  0  0  0  0  0  0  0  0  0  0  0
    6.7180   -0.6690    1.4370 H   0  0  0  0  0  0  0  0  0  0  0  0
    0.0610    0.3320   -0.0650 N   0  0  0  0  0  0  0  0  0  0  0  0
   -1.1990    0.6050    0.5840 C   0  0  1  0  0  0  0  0  0  0  0  0
   -1.9990    1.6540   -0.1500 C   0  0  0  0  0  0  0  0  0  0  0  0
   -3.2910    1.9770    0.4520 C   0  0  0  0  0  0  0  0  0  0  0  0
   -3.3520    2.9680    1.4210 C   0  0  0  0  0  0  0  0  0  0  0  0
   -4.5380    3.3370    2.0400 C   0  0  0  0  0  0  0  0  0  0  0  0
   -5.7090    2.7070    1.6900 C   0  0  0  0  0  0  0  0  0  0  0  0
   -5.6730    1.7230    0.7330 C   0  0  0  0  0  0  0  0  0  0  0  0
   -4.4800    1.3690    0.1270 C   0  0  0  0  0  0  0  0  0  0  0  0
   -1.9780   -0.6440    0.7620 C   0  0  0  0  0  0  0  0  0  0  0  0
   -3.0930   -0.6830    1.3360 O   0  0  0  0  0  0  0  0  0  0  0  0
    0.0380   -0.1310   -1.0000 H   0  0  0  0  0  0  0  0  0  0  0  0
   -0.9580    1.0530    1.5720 H   0  0  0  0  0  0  0  0  0  0  0  0
   -1.3910    2.5810   -0.1560 H   0  0  0  0  0  0  0  0  0  0  0  0
   -2.1590    1.2890   -1.2030 H   0  0  0  0  0  0  0  0  0  0  0  0
   -2.4600    3.4850    1.7250 H   0  0  0  0  0  0  0  0  0  0  0  0
   -4.5890    4.1090    2.7950 H   0  0  0  0  0  0  0  0  0  0  0  0
   -6.6330    2.9820    2.1600 H   0  0  0  0  0  0  0  0  0  0  0  0
   -6.6100    1.2350    0.4720 H   0  0  0  0  0  0  0  0  0  0  0  0
   -4.4990    0.6040   -0.6100 H   0  0  0  0  0  0  0  0  0  0  0  0
   -1.6460   -3.9600   -1.7120 O   0  0  0  0  0  0  0  0  0  0  0  0
   -2.7180   -3.6600   -0.8920 C   0  0  0  0  0  0  0  0  0  0  0  0
   -2.2620   -3.1140    0.4570 C   0  0  2  0  0  0  0  0  0  0  0  0
   -1.4880   -1.9010    0.2760 N   0  0  0  0  0  0  0  0  0  0  0  0
   -1.5370   -4.1460    1.2240 C   0  0  0  0  0  0  0  0  0  0  0  0
   -2.1210   -5.2400    1.4340 O   0  0  0  0  0  0  0  0  0  0  0  0
   -0.2550   -3.9920    1.7290 O   0  0  0  0  0  0  0  0  0  0  0  0
   -1.9760   -3.9400   -2.6510 H   0  0  0  0  0  0  0  0  0  0  0  0
   -3.3500   -2.9100   -1.3950 H   0  0  0  0  0  0  0  0  0  0  0  0
   -3.2760   -4.6150   -0.7490 H   0  0  0  0  0  0  0  0  0  0  0  0
   -3.1870   -2.8610    1.0110 H   0  0  0  0  0  0  0  0  0  0  0  0
   -0.5630   -1.9040   -0.2030 H   0  0  0  0  0  0  0  0  0  0  0  0
  1 10  1  0  0  0  0
  2 12  1  6  0  0  0
  2  1  1  0  0  0  0
  2  8  1  0  0  0  0
  3  2  1  0  0  0  0
  3  4  1  0  0  0  0
  4 15  1  0  0  0  0
  4  5  1  0  0  0  0
  5 18  1  0  0  0  0
  5 17  1  0  0  0  0
  6  5  1  0  0  0  0
  6  7  1  0  0  0  0
  8  9  2  0  0  0  0
 11  1  1  0  0  0  0
 13  3  1  0  0  0  0
 14  3  1  0  0  0  0
 16  4  1  0  0  0  0
 19  6  1  0  0  0  0
 20  6  1  0  0  0  0
 21  7  1  0  0  0  0
 22  7  1  0  0  0  0
 23  8  1  0  0  0  0
 23 24  1  0  0  0  0
 24 32  1  0  0  0  0
 24 35  1  1  0  0  0
 25 26  1  0  0  0  0
 25 24  1  0  0  0  0
 26 27  1  0  0  0  0
 27 38  1  0  0  0  0
 27 28  2  0  0  0  0
 28 39  1  0  0  0  0
 29 28  1  0  0  0  0
 29 40  1  0  0  0  0
 30 29  2  0  0  0  0
 31 26  2  0  0  0  0
 31 30  1  0  0  0  0
 32 33  2  0  0  0  0
 34 23  1  0  0  0  0
 36 25  1  0  0  0  0
 37 25  1  0  0  0  0
 41 30  1  0  0  0  0
 42 31  1  0  0  0  0
 43 44  1  0  0  0  0
 44 52  1  0  0  0  0
 44 45  1  0  0  0  0
 45 53  1  1  0  0  0
 45 47  1  0  0  0  0
 46 45  1  0  0  0  0
 46 32  1  0  0  0  0
 47 48  2  0  0  0  0
 47 49  1  0  0  0  0
 50 43  1  0  0  0  0
 51 44  1  0  0  0  0
 54 46  1  0  0  0  0
M  END
$$$$
