KFV.pdb
 OpenBabel07022418523D

 59 59  0  0  1  0  0  0  0  0999 V2000
    3.1500   -0.6110    1.9650 N   0  0  0  0  0  0  0  0  0  0  0  0
    2.0100   -0.4830    2.8410 C   0  0  1  0  0  0  0  0  0  0  0  0
    2.0090    0.7120    3.7220 C   0  0  0  0  0  0  0  0  0  0  0  0
    2.0380    2.0420    3.0680 C   0  0  0  0  0  0  0  0  0  0  0  0
    3.2200    2.3180    2.2070 C   0  0  0  0  0  0  0  0  0  0  0  0
    3.0940    3.7340    1.6310 C   0  0  0  0  0  0  0  0  0  0  0  0
    4.2660    3.9900    0.7830 N   0  0  0  0  0  0  0  0  0  0  0  0
    0.7180   -0.7670    2.1720 C   0  0  0  0  0  0  0  0  0  0  0  0
   -0.3360   -0.6410    2.8400 O   0  0  0  0  0  0  0  0  0  0  0  0
    4.0150   -0.5220    2.5530 H   0  0  0  0  0  0  0  0  0  0  0  0
    3.1560   -1.6300    1.6560 H   0  0  0  0  0  0  0  0  0  0  0  0
    2.1290   -1.3700    3.5570 H   0  0  0  0  0  0  0  0  0  0  0  0
    2.7970    0.6740    4.5140 H   0  0  0  0  0  0  0  0  0  0  0  0
    1.0480    0.6710    4.3160 H   0  0  0  0  0  0  0  0  0  0  0  0
    2.0670    2.8010    3.9060 H   0  0  0  0  0  0  0  0  0  0  0  0
    1.1110    2.2900    2.5130 H   0  0  0  0  0  0  0  0  0  0  0  0
    3.1880    1.6560    1.3050 H   0  0  0  0  0  0  0  0  0  0  0  0
    4.1830    2.2860    2.7330 H   0  0  0  0  0  0  0  0  0  0  0  0
    2.2040    3.8740    1.0220 H   0  0  0  0  0  0  0  0  0  0  0  0
    3.1660    4.4890    2.4580 H   0  0  0  0  0  0  0  0  0  0  0  0
    4.0890    3.4680   -0.1050 H   0  0  0  0  0  0  0  0  0  0  0  0
    5.1320    3.6070    1.2360 H   0  0  0  0  0  0  0  0  0  0  0  0
    0.6510   -1.1770    0.8010 N   0  0  0  0  0  0  0  0  0  0  0  0
   -0.5960   -1.4640    0.1400 C   0  0  1  0  0  0  0  0  0  0  0  0
   -0.8560   -0.6870   -1.1010 C   0  0  0  0  0  0  0  0  0  0  0  0
   -0.9010    0.7820   -0.9250 C   0  0  0  0  0  0  0  0  0  0  0  0
    0.2030    1.5900   -1.0570 C   0  0  0  0  0  0  0  0  0  0  0  0
    0.0740    2.9470   -0.8810 C   0  0  0  0  0  0  0  0  0  0  0  0
   -1.1360    3.5630   -0.5700 C   0  0  0  0  0  0  0  0  0  0  0  0
   -2.2420    2.7500   -0.4380 C   0  0  0  0  0  0  0  0  0  0  0  0
   -2.1150    1.3910   -0.6140 C   0  0  0  0  0  0  0  0  0  0  0  0
   -0.6000   -2.9180   -0.2160 C   0  0  0  0  0  0  0  0  0  0  0  0
    0.3830   -3.6280    0.0850 O   0  0  0  0  0  0  0  0  0  0  0  0
    1.5820   -1.2510    0.3280 H   0  0  0  0  0  0  0  0  0  0  0  0
   -1.4710   -1.2940    0.8230 H   0  0  0  0  0  0  0  0  0  0  0  0
   -1.8430   -0.9800   -1.5170 H   0  0  0  0  0  0  0  0  0  0  0  0
   -0.1080   -0.9380   -1.8850 H   0  0  0  0  0  0  0  0  0  0  0  0
    1.1660    1.1360   -1.3000 H   0  0  0  0  0  0  0  0  0  0  0  0
    0.9210    3.6130   -0.9800 H   0  0  0  0  0  0  0  0  0  0  0  0
   -1.1910    4.6380   -0.4400 H   0  0  0  0  0  0  0  0  0  0  0  0
   -3.2150    3.1960   -0.1940 H   0  0  0  0  0  0  0  0  0  0  0  0
   -2.9920    0.7290   -0.5130 H   0  0  0  0  0  0  0  0  0  0  0  0
   -4.0450   -4.9640   -1.1300 C   0  0  0  0  0  0  0  0  0  0  0  0
   -2.8090   -5.6100   -0.5420 C   0  0  0  0  0  0  0  0  0  0  0  0
   -2.7790   -5.5070    0.9600 C   0  0  0  0  0  0  0  0  0  0  0  0
   -1.6190   -4.9390   -1.2030 C   0  0  2  0  0  0  0  0  0  0  0  0
   -1.6930   -3.5120   -0.8890 N   0  0  0  0  0  0  0  0  0  0  0  0
   -1.7920   -5.0850   -2.6690 C   0  0  0  0  0  0  0  0  0  0  0  0
   -1.7620   -6.2370   -3.1590 O   0  0  0  0  0  0  0  0  0  0  0  0
   -1.9850   -4.0150   -3.5240 O   0  0  0  0  0  0  0  0  0  0  0  0
   -4.4600   -4.2640   -0.3790 H   0  0  0  0  0  0  0  0  0  0  0  0
   -3.8290   -4.3850   -2.0490 H   0  0  0  0  0  0  0  0  0  0  0  0
   -4.7720   -5.7530   -1.4100 H   0  0  0  0  0  0  0  0  0  0  0  0
   -2.7900   -6.6880   -0.8050 H   0  0  0  0  0  0  0  0  0  0  0  0
   -3.2130   -6.4310    1.4240 H   0  0  0  0  0  0  0  0  0  0  0  0
   -1.7480   -5.4240    1.3590 H   0  0  0  0  0  0  0  0  0  0  0  0
   -3.4160   -4.6580    1.3240 H   0  0  0  0  0  0  0  0  0  0  0  0
   -0.6850   -5.3710   -0.8370 H   0  0  0  0  0  0  0  0  0  0  0  0
   -2.5250   -2.9470   -1.1530 H   0  0  0  0  0  0  0  0  0  0  0  0
  1 10  1  0  0  0  0
  1  2  1  0  0  0  0
  2 12  1  1  0  0  0
  2  3  1  0  0  0  0
  3 14  1  0  0  0  0
  3 13  1  0  0  0  0
  4  3  1  0  0  0  0
  4 15  1  0  0  0  0
  5 18  1  0  0  0  0
  5  4  1  0  0  0  0
  6  5  1  0  0  0  0
  6 20  1  0  0  0  0
  7 22  1  0  0  0  0
  7  6  1  0  0  0  0
  8  9  2  0  0  0  0
  8  2  1  0  0  0  0
 11  1  1  0  0  0  0
 16  4  1  0  0  0  0
 17  5  1  0  0  0  0
 19  6  1  0  0  0  0
 21  7  1  0  0  0  0
 23  8  1  0  0  0  0
 24 23  1  0  0  0  0
 24 35  1  1  0  0  0
 25 26  1  0  0  0  0
 25 24  1  0  0  0  0
 26 31  1  0  0  0  0
 27 26  2  0  0  0  0
 27 28  1  0  0  0  0
 28 29  2  0  0  0  0
 29 40  1  0  0  0  0
 29 30  1  0  0  0  0
 30 41  1  0  0  0  0
 31 42  1  0  0  0  0
 31 30  2  0  0  0  0
 32 33  2  0  0  0  0
 32 24  1  0  0  0  0
 34 23  1  0  0  0  0
 36 25  1  0  0  0  0
 37 25  1  0  0  0  0
 38 27  1  0  0  0  0
 39 28  1  0  0  0  0
 43 44  1  0  0  0  0
 43 51  1  0  0  0  0
 44 45  1  0  0  0  0
 45 57  1  0  0  0  0
 45 56  1  0  0  0  0
 45 55  1  0  0  0  0
 46 47  1  0  0  0  0
 46 58  1  1  0  0  0
 46 44  1  0  0  0  0
 47 32  1  0  0  0  0
 48 46  1  0  0  0  0
 49 48  1  0  0  0  0
 50 48  2  0  0  0  0
 52 43  1  0  0  0  0
 53 43  1  0  0  0  0
 54 44  1  0  0  0  0
 59 47  1  0  0  0  0
M  END
$$$$
