KFW.pdb
 OpenBabel07022418513D

 67 69  0  0  1  0  0  0  0  0999 V2000
    0.3040   -1.1540    3.2370 N   0  0  0  0  0  0  0  0  0  0  0  0
    0.7000    0.2340    3.2160 C   0  0  1  0  0  0  0  0  0  0  0  0
    2.1210    0.4550    3.6020 C   0  0  0  0  0  0  0  0  0  0  0  0
    3.1630   -0.2200    2.7820 C   0  0  0  0  0  0  0  0  0  0  0  0
    3.0760   -1.7280    2.7700 C   0  0  0  0  0  0  0  0  0  0  0  0
    4.2260   -2.2830    1.9360 C   0  0  0  0  0  0  0  0  0  0  0  0
    4.1920   -1.8270    0.5750 N   0  0  0  0  0  0  0  0  0  0  0  0
    0.2140    1.0020    2.0650 C   0  0  0  0  0  0  0  0  0  0  0  0
    0.3300    2.2640    2.0630 O   0  0  0  0  0  0  0  0  0  0  0  0
   -0.6720   -1.3100    2.9100 H   0  0  0  0  0  0  0  0  0  0  0  0
    0.3060   -1.5510    4.2190 H   0  0  0  0  0  0  0  0  0  0  0  0
    0.1070    0.6800    4.0960 H   0  0  0  0  0  0  0  0  0  0  0  0
    2.2890    0.2810    4.6900 H   0  0  0  0  0  0  0  0  0  0  0  0
    2.3110    1.5640    3.4840 H   0  0  0  0  0  0  0  0  0  0  0  0
    4.1470    0.0220    3.2800 H   0  0  0  0  0  0  0  0  0  0  0  0
    3.2310    0.1550    1.7590 H   0  0  0  0  0  0  0  0  0  0  0  0
    3.1200   -2.2030    3.7450 H   0  0  0  0  0  0  0  0  0  0  0  0
    2.1450   -1.9910    2.1740 H   0  0  0  0  0  0  0  0  0  0  0  0
    4.1720   -3.4140    1.9290 H   0  0  0  0  0  0  0  0  0  0  0  0
    5.1930   -2.0450    2.4380 H   0  0  0  0  0  0  0  0  0  0  0  0
    5.1060   -2.0760    0.1250 H   0  0  0  0  0  0  0  0  0  0  0  0
    3.3750   -2.2410    0.0650 H   0  0  0  0  0  0  0  0  0  0  0  0
   -0.3950    0.4120    0.9290 N   0  0  0  0  0  0  0  0  0  0  0  0
   -0.9120    1.1100   -0.2200 C   0  0  1  0  0  0  0  0  0  0  0  0
   -0.0960    0.9400   -1.4800 C   0  0  0  0  0  0  0  0  0  0  0  0
    1.2670    1.4350   -1.3750 C   0  0  0  0  0  0  0  0  0  0  0  0
    1.4880    2.7750   -1.7340 C   0  0  0  0  0  0  0  0  0  0  0  0
    2.7410    3.3320   -1.6570 C   0  0  0  0  0  0  0  0  0  0  0  0
    3.8340    2.6050   -1.2270 C   0  0  0  0  0  0  0  0  0  0  0  0
    3.6350    1.2900   -0.8740 C   0  0  0  0  0  0  0  0  0  0  0  0
    2.3810    0.7530   -0.9560 C   0  0  0  0  0  0  0  0  0  0  0  0
   -2.3290    0.7110   -0.4050 C   0  0  0  0  0  0  0  0  0  0  0  0
   -2.9590    1.1280   -1.3860 O   0  0  0  0  0  0  0  0  0  0  0  0
   -0.4360   -0.6520    0.9930 H   0  0  0  0  0  0  0  0  0  0  0  0
   -0.9230    2.2200   -0.0420 H   0  0  0  0  0  0  0  0  0  0  0  0
   -0.6240    1.5210   -2.2660 H   0  0  0  0  0  0  0  0  0  0  0  0
   -0.1500   -0.1230   -1.8540 H   0  0  0  0  0  0  0  0  0  0  0  0
    0.6380    3.3740   -2.0810 H   0  0  0  0  0  0  0  0  0  0  0  0
    2.9200    4.3610   -1.9330 H   0  0  0  0  0  0  0  0  0  0  0  0
    4.8280    3.0610   -1.1700 H   0  0  0  0  0  0  0  0  0  0  0  0
    4.4970    0.7050   -0.5320 H   0  0  0  0  0  0  0  0  0  0  0  0
    2.2300   -0.2720   -0.6790 H   0  0  0  0  0  0  0  0  0  0  0  0
   -3.0220   -0.1470    0.5120 N   0  0  0  0  0  0  0  0  0  0  0  0
   -4.3970   -0.5220    0.2990 C   0  0  1  0  0  0  0  0  0  0  0  0
   -4.6850   -1.9780    0.2450 C   0  0  0  0  0  0  0  0  0  0  0  0
   -3.9430   -2.6530   -0.8490 C   0  0  0  0  0  0  0  0  0  0  0  0
   -4.4250   -2.9450   -2.1250 C   0  0  0  0  0  0  0  0  0  0  0  0
   -3.4650   -3.5200   -2.8440 N   0  0  0  0  0  0  0  0  0  0  0  0
   -2.3380   -3.6310   -2.0960 C   0  0  0  0  0  0  0  0  0  0  0  0
   -1.0900   -4.1470   -2.3650 C   0  0  0  0  0  0  0  0  0  0  0  0
   -0.1160   -4.1360   -1.4030 C   0  0  0  0  0  0  0  0  0  0  0  0
   -0.3940   -3.6070   -0.1680 C   0  0  0  0  0  0  0  0  0  0  0  0
   -1.6510   -3.0860    0.1080 C   0  0  0  0  0  0  0  0  0  0  0  0
   -2.6470   -3.0840   -0.8450 C   0  0  0  0  0  0  0  0  0  0  0  0
   -5.2520    0.1630    1.3270 C   0  0  0  0  0  0  0  0  0  0  0  0
   -6.4910   -0.0370    1.3140 O   0  0  0  0  0  0  0  0  0  0  0  0
   -4.7220    0.9950    2.2730 O   0  0  0  0  0  0  0  0  0  0  0  0
   -2.4700   -0.4540    1.3300 H   0  0  0  0  0  0  0  0  0  0  0  0
   -4.7350   -0.0670   -0.6710 H   0  0  0  0  0  0  0  0  0  0  0  0
   -5.7650   -2.1190    0.0170 H   0  0  0  0  0  0  0  0  0  0  0  0
   -4.4060   -2.4620    1.2100 H   0  0  0  0  0  0  0  0  0  0  0  0
   -5.4230   -2.7240   -2.4430 H   0  0  0  0  0  0  0  0  0  0  0  0
   -3.5540   -3.8450   -3.8500 H   0  0  0  0  0  0  0  0  0  0  0  0
   -0.8650   -4.5600   -3.3290 H   0  0  0  0  0  0  0  0  0  0  0  0
    0.8930   -4.5310   -1.5700 H   0  0  0  0  0  0  0  0  0  0  0  0
    0.3720   -3.5880    0.6160 H   0  0  0  0  0  0  0  0  0  0  0  0
   -1.8510   -2.6860    1.0970 H   0  0  0  0  0  0  0  0  0  0  0  0
  1 11  1  0  0  0  0
  2  1  1  0  0  0  0
  2  3  1  0  0  0  0
  2 12  1  1  0  0  0
  3 13  1  0  0  0  0
  4 15  1  0  0  0  0
  4  3  1  0  0  0  0
  5  4  1  0  0  0  0
  5 17  1  0  0  0  0
  6 20  1  0  0  0  0
  6  5  1  0  0  0  0
  7  6  1  0  0  0  0
  8  2  1  0  0  0  0
  9  8  2  0  0  0  0
 10  1  1  0  0  0  0
 14  3  1  0  0  0  0
 16  4  1  0  0  0  0
 18  5  1  0  0  0  0
 19  6  1  0  0  0  0
 21  7  1  0  0  0  0
 22  7  1  0  0  0  0
 23 34  1  0  0  0  0
 23  8  1  0  0  0  0
 24 35  1  1  0  0  0
 24 23  1  0  0  0  0
 25 26  1  0  0  0  0
 25 24  1  0  0  0  0
 26 31  1  0  0  0  0
 27 28  1  0  0  0  0
 27 26  2  0  0  0  0
 28 29  2  0  0  0  0
 29 40  1  0  0  0  0
 29 30  1  0  0  0  0
 30 41  1  0  0  0  0
 31 30  2  0  0  0  0
 31 42  1  0  0  0  0
 32 24  1  0  0  0  0
 32 43  1  0  0  0  0
 33 32  2  0  0  0  0
 36 25  1  0  0  0  0
 37 25  1  0  0  0  0
 38 27  1  0  0  0  0
 39 28  1  0  0  0  0
 43 58  1  0  0  0  0
 44 59  1  6  0  0  0
 44 43  1  0  0  0  0
 44 55  1  0  0  0  0
 45 44  1  0  0  0  0
 45 61  1  0  0  0  0
 46 54  1  0  0  0  0
 46 45  1  0  0  0  0
 47 46  2  0  0  0  0
 48 47  1  0  0  0  0
 48 49  1  0  0  0  0
 49 54  1  0  0  0  0
 50 49  2  0  0  0  0
 50 51  1  0  0  0  0
 51 52  2  0  0  0  0
 52 53  1  0  0  0  0
 52 66  1  0  0  0  0
 53 67  1  0  0  0  0
 54 53  2  0  0  0  0
 55 57  1  0  0  0  0
 56 55  2  0  0  0  0
 60 45  1  0  0  0  0
 62 47  1  0  0  0  0
 63 48  1  0  0  0  0
 64 50  1  0  0  0  0
 65 51  1  0  0  0  0
M  END
$$$$
