KGA.pdb
 OpenBabel07022418493D

 40 39  0  0  1  0  0  0  0  0999 V2000
   -2.7140   -1.8090    1.1550 N   0  0  0  0  0  0  0  0  0  0  0  0
   -1.3010   -2.0970    1.0640 C   0  0  1  0  0  0  0  0  0  0  0  0
   -0.9960   -3.0690   -0.0560 C   0  0  0  0  0  0  0  0  0  0  0  0
   -1.4310   -2.5170   -1.3940 C   0  0  0  0  0  0  0  0  0  0  0  0
   -1.1200   -3.4920   -2.4790 C   0  0  0  0  0  0  0  0  0  0  0  0
    0.3500   -3.8150   -2.5860 C   0  0  0  0  0  0  0  0  0  0  0  0
    1.1390   -2.6310   -2.8650 N   0  0  0  0  0  0  0  0  0  0  0  0
   -0.4800   -0.8760    0.9790 C   0  0  0  0  0  0  0  0  0  0  0  0
   -1.0920    0.2460    0.9950 O   0  0  0  0  0  0  0  0  0  0  0  0
   -3.3180   -2.5730    0.8160 H   0  0  0  0  0  0  0  0  0  0  0  0
   -2.9330   -1.5930    2.1690 H   0  0  0  0  0  0  0  0  0  0  0  0
   -1.0220   -2.6130    2.0130 H   0  0  0  0  0  0  0  0  0  0  0  0
   -1.5700   -4.0040    0.1120 H   0  0  0  0  0  0  0  0  0  0  0  0
    0.0710   -3.3510   -0.0260 H   0  0  0  0  0  0  0  0  0  0  0  0
   -2.5350   -2.4060   -1.3460 H   0  0  0  0  0  0  0  0  0  0  0  0
   -1.0200   -1.5050   -1.5830 H   0  0  0  0  0  0  0  0  0  0  0  0
   -1.7210   -4.4000   -2.3400 H   0  0  0  0  0  0  0  0  0  0  0  0
   -1.3980   -3.0020   -3.4570 H   0  0  0  0  0  0  0  0  0  0  0  0
    0.4640   -4.5030   -3.4520 H   0  0  0  0  0  0  0  0  0  0  0  0
    0.7500   -4.3400   -1.7090 H   0  0  0  0  0  0  0  0  0  0  0  0
    1.3960   -2.5870   -3.8700 H   0  0  0  0  0  0  0  0  0  0  0  0
    1.9370   -2.5920   -2.2180 H   0  0  0  0  0  0  0  0  0  0  0  0
    0.9240   -0.9650    0.8840 N   0  0  0  0  0  0  0  0  0  0  0  0
    1.7150    0.2300    0.8010 C   0  0  0  0  0  0  0  0  0  0  0  0
    1.5140    1.0890    2.0020 C   0  0  0  0  0  0  0  0  0  0  0  0
    0.7310    0.6780    2.8710 O   0  0  0  0  0  0  0  0  0  0  0  0
    1.3910   -1.8870    0.8730 H   0  0  0  0  0  0  0  0  0  0  0  0
    1.3480    0.7950   -0.0990 H   0  0  0  0  0  0  0  0  0  0  0  0
    2.7890    0.0340    0.6520 H   0  0  0  0  0  0  0  0  0  0  0  0
    0.8310    4.0330    3.2760 C   0  0  0  0  0  0  0  0  0  0  0  0
    2.0540    3.1810    3.2630 C   0  0  2  0  0  0  0  0  0  0  0  0
    2.1890    2.3140    2.1400 N   0  0  0  0  0  0  0  0  0  0  0  0
    2.2490    2.4590    4.5720 C   0  0  0  0  0  0  0  0  0  0  0  0
    2.5670    1.2560    4.5290 O   0  0  0  0  0  0  0  0  0  0  0  0
    2.0650    3.1680    5.7320 O   0  0  0  0  0  0  0  0  0  0  0  0
    1.0450    4.9720    2.7140 H   0  0  0  0  0  0  0  0  0  0  0  0
    0.5990    4.3410    4.3280 H   0  0  0  0  0  0  0  0  0  0  0  0
   -0.0700    3.5270    2.8930 H   0  0  0  0  0  0  0  0  0  0  0  0
    2.9530    3.8940    3.2510 H   0  0  0  0  0  0  0  0  0  0  0  0
    2.8270    2.5830    1.3490 H   0  0  0  0  0  0  0  0  0  0  0  0
  1 11  1  0  0  0  0
  2  1  1  0  0  0  0
  2 12  1  1  0  0  0
  3 14  1  0  0  0  0
  3 13  1  0  0  0  0
  3  2  1  0  0  0  0
  4 15  1  0  0  0  0
  4  3  1  0  0  0  0
  5 17  1  0  0  0  0
  5  4  1  0  0  0  0
  6  5  1  0  0  0  0
  6 20  1  0  0  0  0
  7  6  1  0  0  0  0
  7 22  1  0  0  0  0
  8  9  2  0  0  0  0
  8  2  1  0  0  0  0
 10  1  1  0  0  0  0
 16  4  1  0  0  0  0
 18  5  1  0  0  0  0
 19  6  1  0  0  0  0
 21  7  1  0  0  0  0
 23  8  1  0  0  0  0
 24 23  1  0  0  0  0
 24 25  1  0  0  0  0
 25 32  1  0  0  0  0
 25 26  2  0  0  0  0
 27 23  1  0  0  0  0
 28 24  1  0  0  0  0
 29 24  1  0  0  0  0
 30 37  1  0  0  0  0
 31 39  1  6  0  0  0
 31 30  1  0  0  0  0
 31 33  1  0  0  0  0
 32 31  1  0  0  0  0
 33 35  1  0  0  0  0
 34 33  2  0  0  0  0
 36 30  1  0  0  0  0
 38 30  1  0  0  0  0
 40 32  1  0  0  0  0
M  END
$$$$
