KGD.pdb
 OpenBabel07022418493D

 43 42  0  0  1  0  0  0  0  0999 V2000
    0.7090   -4.4490    0.6670 N   0  0  0  0  0  0  0  0  0  0  0  0
    1.6340   -3.5070    1.2260 C   0  0  1  0  0  0  0  0  0  0  0  0
    2.7600   -3.1180    0.3380 C   0  0  0  0  0  0  0  0  0  0  0  0
    2.4000   -2.4760   -0.9520 C   0  0  0  0  0  0  0  0  0  0  0  0
    1.5500   -3.2870   -1.8730 C   0  0  0  0  0  0  0  0  0  0  0  0
    1.3180   -2.4240   -3.1230 C   0  0  0  0  0  0  0  0  0  0  0  0
    0.6550   -1.2290   -2.6870 N   0  0  0  0  0  0  0  0  0  0  0  0
    0.9220   -2.3160    1.8070 C   0  0  0  0  0  0  0  0  0  0  0  0
   -0.3310   -2.2170    1.7630 O   0  0  0  0  0  0  0  0  0  0  0  0
    0.7390   -5.3850    1.1050 H   0  0  0  0  0  0  0  0  0  0  0  0
   -0.2910   -4.1010    0.6870 H   0  0  0  0  0  0  0  0  0  0  0  0
    2.1020   -4.0180    2.1210 H   0  0  0  0  0  0  0  0  0  0  0  0
    3.3510   -4.0290    0.1160 H   0  0  0  0  0  0  0  0  0  0  0  0
    3.4200   -2.4320    0.8970 H   0  0  0  0  0  0  0  0  0  0  0  0
    3.3750   -2.3030   -1.4990 H   0  0  0  0  0  0  0  0  0  0  0  0
    1.9710   -1.4520   -0.8350 H   0  0  0  0  0  0  0  0  0  0  0  0
    0.5500   -3.5230   -1.5070 H   0  0  0  0  0  0  0  0  0  0  0  0
    2.1000   -4.2180   -2.1510 H   0  0  0  0  0  0  0  0  0  0  0  0
    2.2820   -2.1630   -3.6030 H   0  0  0  0  0  0  0  0  0  0  0  0
    0.6320   -2.9520   -3.8330 H   0  0  0  0  0  0  0  0  0  0  0  0
    1.3030   -0.4310   -2.5260 H   0  0  0  0  0  0  0  0  0  0  0  0
   -0.1950   -0.9940   -3.2170 H   0  0  0  0  0  0  0  0  0  0  0  0
    1.6350   -1.2590    2.4250 N   0  0  0  0  0  0  0  0  0  0  0  0
    0.9960   -0.0930    2.9970 C   0  0  0  0  0  0  0  0  0  0  0  0
    0.2530    0.5970    1.9190 C   0  0  0  0  0  0  0  0  0  0  0  0
    0.2680    0.1320    0.7560 O   0  0  0  0  0  0  0  0  0  0  0  0
    2.6840   -1.3500    2.4580 H   0  0  0  0  0  0  0  0  0  0  0  0
    0.3040   -0.3940    3.8380 H   0  0  0  0  0  0  0  0  0  0  0  0
    1.7290    0.5850    3.4790 H   0  0  0  0  0  0  0  0  0  0  0  0
   -0.4940    1.7840    2.1300 N   0  0  0  0  0  0  0  0  0  0  0  0
   -1.2310    2.4930    1.1270 C   0  0  1  0  0  0  0  0  0  0  0  0
   -2.6990    2.4710    1.5510 C   0  0  0  0  0  0  0  0  0  0  0  0
   -2.8980    3.1150    2.8550 C   0  0  0  0  0  0  0  0  0  0  0  0
   -2.9180    4.3670    2.9210 O   0  0  0  0  0  0  0  0  0  0  0  0
   -0.7380    3.8810    1.0070 C   0  0  0  0  0  0  0  0  0  0  0  0
   -1.2650    4.6600    0.1750 O   0  0  0  0  0  0  0  0  0  0  0  0
   -3.0680    2.4040    4.0310 O   0  0  0  0  0  0  0  0  0  0  0  0
    0.2990    4.3140    1.8110 O   0  0  0  0  0  0  0  0  0  0  0  0
   -0.5010    2.1640    3.1020 H   0  0  0  0  0  0  0  0  0  0  0  0
   -1.1860    2.0270    0.1290 H   0  0  0  0  0  0  0  0  0  0  0  0
   -3.3480    2.8940    0.7500 H   0  0  0  0  0  0  0  0  0  0  0  0
   -2.9800    1.3930    1.6220 H   0  0  0  0  0  0  0  0  0  0  0  0
   -2.9050    2.8710    4.9150 H   0  0  0  0  0  0  0  0  0  0  0  0
  1 11  1  0  0  0  0
  1 10  1  0  0  0  0
  1  2  1  0  0  0  0
  2  8  1  0  0  0  0
  2 12  1  1  0  0  0
  3 14  1  0  0  0  0
  3  2  1  0  0  0  0
  4 16  1  0  0  0  0
  4  3  1  0  0  0  0
  5 17  1  0  0  0  0
  5  4  1  0  0  0  0
  6  7  1  0  0  0  0
  6  5  1  0  0  0  0
  7 21  1  0  0  0  0
  8 23  1  0  0  0  0
  9  8  2  0  0  0  0
 13  3  1  0  0  0  0
 15  4  1  0  0  0  0
 18  5  1  0  0  0  0
 19  6  1  0  0  0  0
 20  6  1  0  0  0  0
 22  7  1  0  0  0  0
 23 27  1  0  0  0  0
 23 24  1  0  0  0  0
 24 29  1  0  0  0  0
 24 28  1  0  0  0  0
 25 30  1  0  0  0  0
 25 24  1  0  0  0  0
 26 25  2  0  0  0  0
 30 39  1  0  0  0  0
 31 40  1  6  0  0  0
 31 32  1  0  0  0  0
 31 30  1  0  0  0  0
 32 42  1  0  0  0  0
 32 33  1  0  0  0  0
 33 34  2  0  0  0  0
 33 37  1  0  0  0  0
 35 31  1  0  0  0  0
 35 38  1  0  0  0  0
 36 35  2  0  0  0  0
 37 43  1  0  0  0  0
 41 32  1  0  0  0  0
M  END
$$$$
