KGE.pdb
 OpenBabel07022418493D

 46 45  0  0  1  0  0  0  0  0999 V2000
    0.8410   -3.9100    2.3810 N   0  0  0  0  0  0  0  0  0  0  0  0
    1.3440   -3.1310    1.1920 C   0  0  1  0  0  0  0  0  0  0  0  0
    0.5170   -3.5760    0.0560 C   0  0  0  0  0  0  0  0  0  0  0  0
    0.7280   -3.0720   -1.2930 C   0  0  0  0  0  0  0  0  0  0  0  0
    1.9490   -3.3630   -2.0500 C   0  0  0  0  0  0  0  0  0  0  0  0
    3.2860   -2.9340   -1.5830 C   0  0  0  0  0  0  0  0  0  0  0  0
    4.2300   -3.4110   -2.6460 N   0  0  0  0  0  0  0  0  0  0  0  0
    1.0100   -1.7150    1.5390 C   0  0  0  0  0  0  0  0  0  0  0  0
    0.2790   -1.4410    2.5530 O   0  0  0  0  0  0  0  0  0  0  0  0
    1.5360   -3.7030    3.1490 H   0  0  0  0  0  0  0  0  0  0  0  0
    0.9170   -4.9150    2.1170 H   0  0  0  0  0  0  0  0  0  0  0  0
    2.3840   -3.3580    1.1030 H   0  0  0  0  0  0  0  0  0  0  0  0
    0.5200   -4.7220   -0.0220 H   0  0  0  0  0  0  0  0  0  0  0  0
   -0.5750   -3.3370    0.3270 H   0  0  0  0  0  0  0  0  0  0  0  0
    0.5400   -1.9570   -1.3920 H   0  0  0  0  0  0  0  0  0  0  0  0
   -0.1680   -3.4650   -1.9210 H   0  0  0  0  0  0  0  0  0  0  0  0
    1.8330   -2.9000   -3.1000 H   0  0  0  0  0  0  0  0  0  0  0  0
    2.0380   -4.4770   -2.2700 H   0  0  0  0  0  0  0  0  0  0  0  0
    3.6790   -3.4150   -0.6790 H   0  0  0  0  0  0  0  0  0  0  0  0
    3.4290   -1.8300   -1.5920 H   0  0  0  0  0  0  0  0  0  0  0  0
    5.1530   -2.9800   -2.5080 H   0  0  0  0  0  0  0  0  0  0  0  0
    4.2710   -4.4420   -2.5080 H   0  0  0  0  0  0  0  0  0  0  0  0
    1.4790   -0.6410    0.7810 N   0  0  0  0  0  0  0  0  0  0  0  0
    1.1680    0.7500    1.0930 C   0  0  0  0  0  0  0  0  0  0  0  0
   -0.2640    1.0220    1.0690 C   0  0  0  0  0  0  0  0  0  0  0  0
   -1.0780    0.1120    0.8010 O   0  0  0  0  0  0  0  0  0  0  0  0
    2.0800   -0.8060   -0.0410 H   0  0  0  0  0  0  0  0  0  0  0  0
    1.6020    0.9070    2.1260 H   0  0  0  0  0  0  0  0  0  0  0  0
    1.7800    1.3980    0.4390 H   0  0  0  0  0  0  0  0  0  0  0  0
   -0.7520    2.3180    1.3480 N   0  0  0  0  0  0  0  0  0  0  0  0
   -2.1440    2.6770    1.3470 C   0  0  1  0  0  0  0  0  0  0  0  0
   -2.5040    3.3250    2.6410 C   0  0  0  0  0  0  0  0  0  0  0  0
   -2.2770    2.4540    3.8400 C   0  0  0  0  0  0  0  0  0  0  0  0
   -3.0450    1.2050    3.8310 C   0  0  0  0  0  0  0  0  0  0  0  0
   -3.8410    0.8390    2.9290 O   0  0  0  0  0  0  0  0  0  0  0  0
   -2.4350    3.6820    0.2630 C   0  0  0  0  0  0  0  0  0  0  0  0
   -3.5970    4.1300    0.0890 O   0  0  0  0  0  0  0  0  0  0  0  0
   -2.8870    0.3410    4.9070 O   0  0  0  0  0  0  0  0  0  0  0  0
   -1.4390    4.1530   -0.5820 O   0  0  0  0  0  0  0  0  0  0  0  0
   -0.0610    3.0870    1.5750 H   0  0  0  0  0  0  0  0  0  0  0  0
   -2.7570    1.7970    1.0990 H   0  0  0  0  0  0  0  0  0  0  0  0
   -1.8180    4.2100    2.7620 H   0  0  0  0  0  0  0  0  0  0  0  0
   -3.5170    3.7290    2.6290 H   0  0  0  0  0  0  0  0  0  0  0  0
   -2.5500    3.0130    4.7540 H   0  0  0  0  0  0  0  0  0  0  0  0
   -1.2030    2.1850    3.9570 H   0  0  0  0  0  0  0  0  0  0  0  0
   -3.4210   -0.5080    5.0130 H   0  0  0  0  0  0  0  0  0  0  0  0
  1 10  1  0  0  0  0
  2 12  1  6  0  0  0
  2  8  1  0  0  0  0
  2  1  1  0  0  0  0
  3 14  1  0  0  0  0
  3  2  1  0  0  0  0
  4  3  1  0  0  0  0
  5  6  1  0  0  0  0
  5  4  1  0  0  0  0
  6 19  1  0  0  0  0
  7 22  1  0  0  0  0
  7 21  1  0  0  0  0
  7  6  1  0  0  0  0
  8  9  2  0  0  0  0
 11  1  1  0  0  0  0
 13  3  1  0  0  0  0
 15  4  1  0  0  0  0
 16  4  1  0  0  0  0
 17  5  1  0  0  0  0
 18  5  1  0  0  0  0
 20  6  1  0  0  0  0
 23 24  1  0  0  0  0
 23  8  1  0  0  0  0
 24 28  1  0  0  0  0
 25 24  1  0  0  0  0
 25 30  1  0  0  0  0
 26 25  2  0  0  0  0
 27 23  1  0  0  0  0
 29 24  1  0  0  0  0
 30 40  1  0  0  0  0
 31 41  1  6  0  0  0
 31 30  1  0  0  0  0
 31 32  1  0  0  0  0
 32 42  1  0  0  0  0
 32 33  1  0  0  0  0
 33 45  1  0  0  0  0
 33 44  1  0  0  0  0
 34 33  1  0  0  0  0
 34 38  1  0  0  0  0
 35 34  2  0  0  0  0
 36 31  1  0  0  0  0
 37 36  1  0  0  0  0
 38 46  1  0  0  0  0
 39 36  2  0  0  0  0
 43 32  1  0  0  0  0
M  END
$$$$
