KGI.pdb
 OpenBabel07022418503D

 49 48  0  0  1  0  0  0  0  0999 V2000
    0.8570   -3.0810    1.0480 N   0  0  0  0  0  0  0  0  0  0  0  0
    1.4390   -1.7790    1.3100 C   0  0  1  0  0  0  0  0  0  0  0  0
    2.9100   -1.7980    1.5170 C   0  0  0  0  0  0  0  0  0  0  0  0
    3.7390   -2.3040    0.3970 C   0  0  0  0  0  0  0  0  0  0  0  0
    3.4970   -3.6960   -0.0450 C   0  0  0  0  0  0  0  0  0  0  0  0
    4.4570   -4.0150   -1.2010 C   0  0  0  0  0  0  0  0  0  0  0  0
    4.1590   -3.0610   -2.2660 N   0  0  0  0  0  0  0  0  0  0  0  0
    1.0000   -0.7720    0.3090 C   0  0  0  0  0  0  0  0  0  0  0  0
    1.4240    0.4050    0.4120 O   0  0  0  0  0  0  0  0  0  0  0  0
   -0.1630   -3.0080    1.0750 H   0  0  0  0  0  0  0  0  0  0  0  0
    1.2490   -3.7430    1.7480 H   0  0  0  0  0  0  0  0  0  0  0  0
    0.9830   -1.4430    2.2870 H   0  0  0  0  0  0  0  0  0  0  0  0
    3.2170   -0.7230    1.6820 H   0  0  0  0  0  0  0  0  0  0  0  0
    3.1200   -2.2920    2.4890 H   0  0  0  0  0  0  0  0  0  0  0  0
    4.8140   -2.1950    0.7180 H   0  0  0  0  0  0  0  0  0  0  0  0
    3.6490   -1.6370   -0.4900 H   0  0  0  0  0  0  0  0  0  0  0  0
    2.4810   -3.7980   -0.5150 H   0  0  0  0  0  0  0  0  0  0  0  0
    3.6270   -4.4770    0.6960 H   0  0  0  0  0  0  0  0  0  0  0  0
    5.4790   -3.8470   -0.7760 H   0  0  0  0  0  0  0  0  0  0  0  0
    4.3640   -5.0530   -1.5340 H   0  0  0  0  0  0  0  0  0  0  0  0
    4.0260   -3.5550   -3.1600 H   0  0  0  0  0  0  0  0  0  0  0  0
    4.8770   -2.3170   -2.3380 H   0  0  0  0  0  0  0  0  0  0  0  0
    0.1230   -1.0810   -0.7580 N   0  0  0  0  0  0  0  0  0  0  0  0
   -0.2690   -0.0680   -1.6770 C   0  0  0  0  0  0  0  0  0  0  0  0
   -1.0390    1.0040   -1.0360 C   0  0  0  0  0  0  0  0  0  0  0  0
   -1.3850    1.9840   -1.7770 O   0  0  0  0  0  0  0  0  0  0  0  0
   -0.2370   -2.0510   -0.8730 H   0  0  0  0  0  0  0  0  0  0  0  0
   -0.8840   -0.4970   -2.5240 H   0  0  0  0  0  0  0  0  0  0  0  0
    0.6200    0.4190   -2.1830 H   0  0  0  0  0  0  0  0  0  0  0  0
   -2.7710    0.7680    3.5880 C   0  0  0  0  0  0  0  0  0  0  0  0
   -3.4940    0.4880    2.3150 C   0  0  0  0  0  0  0  0  0  0  0  0
   -3.5280    1.6010    1.3240 C   0  0  2  0  0  0  0  0  0  0  0  0
   -4.3130    1.1300    0.1050 C   0  0  0  0  0  0  0  0  0  0  0  0
   -2.1610    2.0830    0.9080 C   0  0  2  0  0  0  0  0  0  0  0  0
   -1.3990    0.9880    0.3170 N   0  0  0  0  0  0  0  0  0  0  0  0
   -1.4210    2.8230    1.9370 C   0  0  0  0  0  0  0  0  0  0  0  0
   -1.9510    3.7880    2.5260 O   0  0  0  0  0  0  0  0  0  0  0  0
   -0.1330    2.4630    2.2650 O   0  0  0  0  0  0  0  0  0  0  0  0
   -3.1100    0.0590    4.4110 H   0  0  0  0  0  0  0  0  0  0  0  0
   -3.0190    1.7660    3.9750 H   0  0  0  0  0  0  0  0  0  0  0  0
   -1.7030    0.5860    3.4350 H   0  0  0  0  0  0  0  0  0  0  0  0
   -3.1170   -0.4500    1.8320 H   0  0  0  0  0  0  0  0  0  0  0  0
   -4.5610    0.2330    2.5790 H   0  0  0  0  0  0  0  0  0  0  0  0
   -4.0590    2.4690    1.7590 H   0  0  0  0  0  0  0  0  0  0  0  0
   -5.0760    0.4240    0.4470 H   0  0  0  0  0  0  0  0  0  0  0  0
   -3.5970    0.6020   -0.5520 H   0  0  0  0  0  0  0  0  0  0  0  0
   -4.7830    1.9620   -0.4250 H   0  0  0  0  0  0  0  0  0  0  0  0
   -2.3390    2.8340    0.0610 H   0  0  0  0  0  0  0  0  0  0  0  0
   -1.1590    0.2020    0.9470 H   0  0  0  0  0  0  0  0  0  0  0  0
  1 10  1  0  0  0  0
  1  2  1  0  0  0  0
  1 11  1  0  0  0  0
  2  3  1  0  0  0  0
  2 12  1  1  0  0  0
  3 13  1  0  0  0  0
  3 14  1  0  0  0  0
  4 15  1  0  0  0  0
  4  3  1  0  0  0  0
  5  4  1  0  0  0  0
  5 18  1  0  0  0  0
  6 19  1  0  0  0  0
  6  5  1  0  0  0  0
  7  6  1  0  0  0  0
  8  9  2  0  0  0  0
  8  2  1  0  0  0  0
 16  4  1  0  0  0  0
 17  5  1  0  0  0  0
 20  6  1  0  0  0  0
 21  7  1  0  0  0  0
 22  7  1  0  0  0  0
 23  8  1  0  0  0  0
 24 25  1  0  0  0  0
 24 23  1  0  0  0  0
 25 35  1  0  0  0  0
 26 25  2  0  0  0  0
 27 23  1  0  0  0  0
 28 24  1  0  0  0  0
 29 24  1  0  0  0  0
 30 40  1  0  0  0  0
 30 39  1  0  0  0  0
 31 43  1  0  0  0  0
 31 30  1  0  0  0  0
 32 44  1  1  0  0  0
 32 31  1  0  0  0  0
 33 45  1  0  0  0  0
 33 32  1  0  0  0  0
 34 48  1  6  0  0  0
 34 32  1  0  0  0  0
 34 36  1  0  0  0  0
 35 34  1  0  0  0  0
 35 49  1  0  0  0  0
 36 38  2  0  0  0  0
 36 37  1  0  0  0  0
 41 30  1  0  0  0  0
 42 31  1  0  0  0  0
 46 33  1  0  0  0  0
 47 33  1  0  0  0  0
M  END
$$$$
