KGM.pdb
 OpenBabel07022418503D

 47 46  0  0  1  0  0  0  0  0999 V2000
    0.6220   -3.9010   -0.0620 N   0  0  0  0  0  0  0  0  0  0  0  0
    1.3260   -2.7850    0.4850 C   0  0  1  0  0  0  0  0  0  0  0  0
    2.7510   -2.6830    0.0830 C   0  0  0  0  0  0  0  0  0  0  0  0
    3.0390   -2.5470   -1.3640 C   0  0  0  0  0  0  0  0  0  0  0  0
    2.5750   -3.6560   -2.2450 C   0  0  0  0  0  0  0  0  0  0  0  0
    2.9660   -3.3470   -3.7000 C   0  0  0  0  0  0  0  0  0  0  0  0
    4.4230   -3.2370   -3.7120 N   0  0  0  0  0  0  0  0  0  0  0  0
    0.5670   -1.5240    0.2850 C   0  0  0  0  0  0  0  0  0  0  0  0
   -0.5410   -1.5810   -0.3060 O   0  0  0  0  0  0  0  0  0  0  0  0
   -0.2960   -3.6850   -0.4600 H   0  0  0  0  0  0  0  0  0  0  0  0
    0.6860   -4.7570    0.5050 H   0  0  0  0  0  0  0  0  0  0  0  0
    1.3260   -2.9410    1.6060 H   0  0  0  0  0  0  0  0  0  0  0  0
    3.1940   -1.7990    0.5960 H   0  0  0  0  0  0  0  0  0  0  0  0
    3.2930   -3.5670    0.4770 H   0  0  0  0  0  0  0  0  0  0  0  0
    4.1650   -2.5240   -1.4610 H   0  0  0  0  0  0  0  0  0  0  0  0
    2.7140   -1.5730   -1.7930 H   0  0  0  0  0  0  0  0  0  0  0  0
    3.0600   -4.6280   -2.0200 H   0  0  0  0  0  0  0  0  0  0  0  0
    1.4830   -3.8320   -2.2440 H   0  0  0  0  0  0  0  0  0  0  0  0
    2.6330   -4.1750   -4.3590 H   0  0  0  0  0  0  0  0  0  0  0  0
    2.4750   -2.4310   -4.0530 H   0  0  0  0  0  0  0  0  0  0  0  0
    4.7330   -2.3000   -3.4110 H   0  0  0  0  0  0  0  0  0  0  0  0
    4.7890   -3.9990   -3.1020 H   0  0  0  0  0  0  0  0  0  0  0  0
    1.0350   -0.2790    0.7280 N   0  0  0  0  0  0  0  0  0  0  0  0
    0.2920    0.9470    0.5320 C   0  0  0  0  0  0  0  0  0  0  0  0
   -1.0230    0.8220    1.2110 C   0  0  0  0  0  0  0  0  0  0  0  0
   -1.3150   -0.2400    1.8250 O   0  0  0  0  0  0  0  0  0  0  0  0
    1.9710   -0.2320    1.2270 H   0  0  0  0  0  0  0  0  0  0  0  0
    0.1220    1.0580   -0.5730 H   0  0  0  0  0  0  0  0  0  0  0  0
    0.8510    1.8080    0.9340 H   0  0  0  0  0  0  0  0  0  0  0  0
   -1.0930    1.2110    6.1450 C   0  0  0  0  0  0  0  0  0  0  0  0
   -2.3620    1.1640    4.8570 S   0  0  0  0  0  0  0  0  0  0  0  0
   -2.4510    2.7640    3.9950 C   0  0  0  0  0  0  0  0  0  0  0  0
   -3.5130    2.7210    2.9190 C   0  0  0  0  0  0  0  0  0  0  0  0
   -3.2460    1.6690    1.8850 C   0  0  2  0  0  0  0  0  0  0  0  0
   -1.9880    1.8690    1.1990 N   0  0  0  0  0  0  0  0  0  0  0  0
   -4.3460    1.7320    0.8850 C   0  0  0  0  0  0  0  0  0  0  0  0
   -5.5440    1.5830    1.2640 O   0  0  0  0  0  0  0  0  0  0  0  0
   -4.1010    1.9520   -0.4630 O   0  0  0  0  0  0  0  0  0  0  0  0
   -1.4070    1.7670    7.0440 H   0  0  0  0  0  0  0  0  0  0  0  0
   -0.1980    1.7510    5.7220 H   0  0  0  0  0  0  0  0  0  0  0  0
   -0.7340    0.1770    6.3860 H   0  0  0  0  0  0  0  0  0  0  0  0
   -2.7500    3.5830    4.6940 H   0  0  0  0  0  0  0  0  0  0  0  0
   -1.4470    2.9950    3.6000 H   0  0  0  0  0  0  0  0  0  0  0  0
   -3.6220    3.7010    2.4150 H   0  0  0  0  0  0  0  0  0  0  0  0
   -4.4700    2.5010    3.4080 H   0  0  0  0  0  0  0  0  0  0  0  0
   -3.2990    0.6680    2.3590 H   0  0  0  0  0  0  0  0  0  0  0  0
   -1.7460    2.7440    0.6930 H   0  0  0  0  0  0  0  0  0  0  0  0
  1  2  1  0  0  0  0
  1 11  1  0  0  0  0
  2 12  1  1  0  0  0
  3 14  1  0  0  0  0
  3  2  1  0  0  0  0
  3 13  1  0  0  0  0
  4  3  1  0  0  0  0
  5 18  1  0  0  0  0
  5 17  1  0  0  0  0
  5  4  1  0  0  0  0
  6  5  1  0  0  0  0
  7  6  1  0  0  0  0
  7 21  1  0  0  0  0
  7 22  1  0  0  0  0
  8  2  1  0  0  0  0
  8 23  1  0  0  0  0
  9  8  2  0  0  0  0
 10  1  1  0  0  0  0
 15  4  1  0  0  0  0
 16  4  1  0  0  0  0
 19  6  1  0  0  0  0
 20  6  1  0  0  0  0
 23 27  1  0  0  0  0
 24 23  1  0  0  0  0
 24 29  1  0  0  0  0
 24 25  1  0  0  0  0
 25 26  2  0  0  0  0
 28 24  1  0  0  0  0
 30 41  1  0  0  0  0
 30 39  1  0  0  0  0
 31 30  1  0  0  0  0
 32 42  1  0  0  0  0
 32 31  1  0  0  0  0
 33 45  1  0  0  0  0
 33 32  1  0  0  0  0
 34 46  1  1  0  0  0
 34 33  1  0  0  0  0
 35 25  1  0  0  0  0
 35 34  1  0  0  0  0
 36 37  1  0  0  0  0
 36 34  1  0  0  0  0
 38 36  2  0  0  0  0
 40 30  1  0  0  0  0
 43 32  1  0  0  0  0
 44 33  1  0  0  0  0
 47 35  1  0  0  0  0
M  END
$$$$
