KGP.pdb
 OpenBabel07022418503D

 44 44  0  0  1  0  0  0  0  0999 V2000
    2.5760   -3.7840    2.7370 N   0  0  0  0  0  0  0  0  0  0  0  0
    2.3560   -3.3320    1.3620 C   0  0  1  0  0  0  0  0  0  0  0  0
    1.1510   -4.0240    0.8190 C   0  0  0  0  0  0  0  0  0  0  0  0
    0.8510   -3.6430   -0.6050 C   0  0  0  0  0  0  0  0  0  0  0  0
   -0.3850   -4.3550   -1.1240 C   0  0  0  0  0  0  0  0  0  0  0  0
   -0.6280   -3.9250   -2.5570 C   0  0  0  0  0  0  0  0  0  0  0  0
   -0.8390   -2.5080   -2.6840 N   0  0  0  0  0  0  0  0  0  0  0  0
    2.2900   -1.8660    1.3850 C   0  0  0  0  0  0  0  0  0  0  0  0
    3.3530   -1.1870    1.4250 O   0  0  0  0  0  0  0  0  0  0  0  0
    1.7070   -3.4750    3.2670 H   0  0  0  0  0  0  0  0  0  0  0  0
    2.4950   -4.8390    2.7160 H   0  0  0  0  0  0  0  0  0  0  0  0
    3.2360   -3.7100    0.7910 H   0  0  0  0  0  0  0  0  0  0  0  0
    1.3670   -5.1330    0.7920 H   0  0  0  0  0  0  0  0  0  0  0  0
    0.2680   -3.9340    1.4760 H   0  0  0  0  0  0  0  0  0  0  0  0
    1.6860   -3.9690   -1.2960 H   0  0  0  0  0  0  0  0  0  0  0  0
    0.7730   -2.5530   -0.7210 H   0  0  0  0  0  0  0  0  0  0  0  0
   -0.2510   -5.4480   -1.1410 H   0  0  0  0  0  0  0  0  0  0  0  0
   -1.2360   -4.0100   -0.5160 H   0  0  0  0  0  0  0  0  0  0  0  0
    0.3050   -4.1720   -3.1200 H   0  0  0  0  0  0  0  0  0  0  0  0
   -1.4500   -4.4710   -3.0240 H   0  0  0  0  0  0  0  0  0  0  0  0
   -1.8250   -2.3120   -3.0330 H   0  0  0  0  0  0  0  0  0  0  0  0
   -0.1250   -2.0480   -3.2930 H   0  0  0  0  0  0  0  0  0  0  0  0
    1.0730   -1.1370    1.3690 N   0  0  0  0  0  0  0  0  0  0  0  0
    1.1130    0.3470    1.3920 C   0  0  0  0  0  0  0  0  0  0  0  0
   -0.2370    0.9080    1.3690 C   0  0  0  0  0  0  0  0  0  0  0  0
   -1.1740    0.0010    1.3330 O   0  0  0  0  0  0  0  0  0  0  0  0
    0.1610   -1.6190    1.3480 H   0  0  0  0  0  0  0  0  0  0  0  0
    1.7400    0.5940    2.2430 H   0  0  0  0  0  0  0  0  0  0  0  0
    1.6360    0.6270    0.4570 H   0  0  0  0  0  0  0  0  0  0  0  0
   -0.6680    2.2300    1.3810 N   0  0  0  0  0  0  0  0  0  0  0  0
   -2.1460    2.5260    1.3530 C   0  0  0  0  0  0  0  0  0  0  0  0
   -2.2220    3.2790    2.6820 C   0  0  0  0  0  0  0  0  0  0  0  0
   -0.9000    4.0520    2.6980 C   0  0  0  0  0  0  0  0  0  0  0  0
   -0.1830    3.5540    1.4150 C   0  0  1  0  0  0  0  0  0  0  0  0
    1.2130    3.8770    1.4200 C   0  0  0  0  0  0  0  0  0  0  0  0
    2.1340    3.0510    1.3800 O   0  0  0  0  0  0  0  0  0  0  0  0
    1.6260    5.2400    1.4750 O   0  0  0  0  0  0  0  0  0  0  0  0
   -2.3520    3.2590    0.5650 H   0  0  0  0  0  0  0  0  0  0  0  0
   -2.7380    1.6220    1.3410 H   0  0  0  0  0  0  0  0  0  0  0  0
   -2.2130    2.4740    3.4670 H   0  0  0  0  0  0  0  0  0  0  0  0
   -3.0890    3.9350    2.7470 H   0  0  0  0  0  0  0  0  0  0  0  0
   -1.1130    5.1270    2.6240 H   0  0  0  0  0  0  0  0  0  0  0  0
   -0.3090    3.8020    3.5790 H   0  0  0  0  0  0  0  0  0  0  0  0
   -0.7420    4.1410    0.5940 H   0  0  0  0  0  0  0  0  0  0  0  0
  1 10  1  0  0  0  0
  2 12  1  6  0  0  0
  2  8  1  0  0  0  0
  2  1  1  0  0  0  0
  3  2  1  0  0  0  0
  3 14  1  0  0  0  0
  4  3  1  0  0  0  0
  5  4  1  0  0  0  0
  5 18  1  0  0  0  0
  6  5  1  0  0  0  0
  7  6  1  0  0  0  0
  8  9  2  0  0  0  0
 11  1  1  0  0  0  0
 13  3  1  0  0  0  0
 15  4  1  0  0  0  0
 16  4  1  0  0  0  0
 17  5  1  0  0  0  0
 19  6  1  0  0  0  0
 20  6  1  0  0  0  0
 21  7  1  0  0  0  0
 22  7  1  0  0  0  0
 23  8  1  0  0  0  0
 23 24  1  0  0  0  0
 24 28  1  0  0  0  0
 25 30  1  0  0  0  0
 25 24  1  0  0  0  0
 26 25  2  0  0  0  0
 27 23  1  0  0  0  0
 29 24  1  0  0  0  0
 30 34  1  0  0  0  0
 31 30  1  0  0  0  0
 31 32  1  0  0  0  0
 32 33  1  0  0  0  0
 32 41  1  0  0  0  0
 32 40  1  0  0  0  0
 33 43  1  0  0  0  0
 34 44  1  6  0  0  0
 34 35  1  0  0  0  0
 34 33  1  0  0  0  0
 35 37  1  0  0  0  0
 36 35  2  0  0  0  0
 38 31  1  0  0  0  0
 39 31  1  0  0  0  0
 42 33  1  0  0  0  0
M  END
$$$$
