KGQ.pdb
 OpenBabel07022418503D

 47 46  0  0  1  0  0  0  0  0999 V2000
   -1.7060   -3.9300    2.4450 N   0  0  0  0  0  0  0  0  0  0  0  0
   -0.9530   -2.8380    3.0390 C   0  0  1  0  0  0  0  0  0  0  0  0
    0.4800   -2.9590    2.6760 C   0  0  0  0  0  0  0  0  0  0  0  0
    0.7470   -2.9480    1.2000 C   0  0  0  0  0  0  0  0  0  0  0  0
    2.2490   -3.0800    0.9690 C   0  0  0  0  0  0  0  0  0  0  0  0
    2.5160   -3.0680   -0.5370 C   0  0  0  0  0  0  0  0  0  0  0  0
    3.9250   -3.1900   -0.8140 N   0  0  0  0  0  0  0  0  0  0  0  0
   -1.5990   -1.5380    2.8050 C   0  0  0  0  0  0  0  0  0  0  0  0
   -2.6660   -1.4970    2.1490 O   0  0  0  0  0  0  0  0  0  0  0  0
   -1.1010   -4.7760    2.3440 H   0  0  0  0  0  0  0  0  0  0  0  0
   -2.0900   -3.6090    1.5250 H   0  0  0  0  0  0  0  0  0  0  0  0
   -1.0550   -3.0000    4.1680 H   0  0  0  0  0  0  0  0  0  0  0  0
    0.8190   -3.9780    3.0330 H   0  0  0  0  0  0  0  0  0  0  0  0
    1.1380   -2.2520    3.2300 H   0  0  0  0  0  0  0  0  0  0  0  0
    0.3860   -2.0930    0.6470 H   0  0  0  0  0  0  0  0  0  0  0  0
    0.2800   -3.8770    0.7790 H   0  0  0  0  0  0  0  0  0  0  0  0
    2.7800   -2.2260    1.4300 H   0  0  0  0  0  0  0  0  0  0  0  0
    2.6390   -4.0180    1.4000 H   0  0  0  0  0  0  0  0  0  0  0  0
    2.0000   -3.9370   -1.0020 H   0  0  0  0  0  0  0  0  0  0  0  0
    2.1540   -2.1080   -0.9500 H   0  0  0  0  0  0  0  0  0  0  0  0
    4.3800   -2.2690   -0.6780 H   0  0  0  0  0  0  0  0  0  0  0  0
    4.0560   -3.4650   -1.8080 H   0  0  0  0  0  0  0  0  0  0  0  0
   -1.0420   -0.3300    3.3140 N   0  0  0  0  0  0  0  0  0  0  0  0
   -1.6060    0.9660    3.1530 C   0  0  0  0  0  0  0  0  0  0  0  0
   -1.7450    1.4900    1.7870 C   0  0  0  0  0  0  0  0  0  0  0  0
   -2.2900    2.6550    1.6250 O   0  0  0  0  0  0  0  0  0  0  0  0
   -0.1210   -0.4540    3.8570 H   0  0  0  0  0  0  0  0  0  0  0  0
   -2.5880    1.0670    3.7160 H   0  0  0  0  0  0  0  0  0  0  0  0
   -0.9420    1.6930    3.7200 H   0  0  0  0  0  0  0  0  0  0  0  0
    1.6110    4.3800   -0.1270 N   0  0  0  0  0  0  0  0  0  0  0  0
    0.6450    3.5360   -0.7080 C   0  0  0  0  0  0  0  0  0  0  0  0
   -0.4420    4.0020   -1.0870 O   0  0  0  0  0  0  0  0  0  0  0  0
    0.9340    2.1040   -0.8610 C   0  0  0  0  0  0  0  0  0  0  0  0
   -0.1730    1.3060   -1.4580 C   0  0  0  0  0  0  0  0  0  0  0  0
   -1.4550    1.3080   -0.6930 C   0  0  2  0  0  0  0  0  0  0  0  0
   -1.3060    0.7760    0.6500 N   0  0  0  0  0  0  0  0  0  0  0  0
   -2.4220    0.4760   -1.4790 C   0  0  0  0  0  0  0  0  0  0  0  0
   -2.6920    0.7680   -2.6680 O   0  0  0  0  0  0  0  0  0  0  0  0
   -3.0360   -0.6250   -0.9150 O   0  0  0  0  0  0  0  0  0  0  0  0
    1.3990    5.3780    0.1050 H   0  0  0  0  0  0  0  0  0  0  0  0
    2.5840    4.0370    0.0960 H   0  0  0  0  0  0  0  0  0  0  0  0
    1.2780    1.7220    0.1210 H   0  0  0  0  0  0  0  0  0  0  0  0
    1.8270    2.0260   -1.5320 H   0  0  0  0  0  0  0  0  0  0  0  0
   -0.3900    1.7380   -2.4640 H   0  0  0  0  0  0  0  0  0  0  0  0
    0.1070    0.2510   -1.6430 H   0  0  0  0  0  0  0  0  0  0  0  0
   -1.9430    2.2990   -0.6010 H   0  0  0  0  0  0  0  0  0  0  0  0
   -0.8550   -0.1440    0.7380 H   0  0  0  0  0  0  0  0  0  0  0  0
  1  2  1  0  0  0  0
  2 12  1  1  0  0  0
  3 13  1  0  0  0  0
  3  2  1  0  0  0  0
  3 14  1  0  0  0  0
  4  3  1  0  0  0  0
  5  4  1  0  0  0  0
  5 18  1  0  0  0  0
  5 17  1  0  0  0  0
  6  5  1  0  0  0  0
  7 21  1  0  0  0  0
  7  6  1  0  0  0  0
  8  2  1  0  0  0  0
  8 23  1  0  0  0  0
  9  8  2  0  0  0  0
 10  1  1  0  0  0  0
 11  1  1  0  0  0  0
 15  4  1  0  0  0  0
 16  4  1  0  0  0  0
 19  6  1  0  0  0  0
 20  6  1  0  0  0  0
 22  7  1  0  0  0  0
 23 27  1  0  0  0  0
 24 23  1  0  0  0  0
 24 28  1  0  0  0  0
 24 29  1  0  0  0  0
 25 24  1  0  0  0  0
 26 25  2  0  0  0  0
 30 41  1  0  0  0  0
 30 40  1  0  0  0  0
 31 30  1  0  0  0  0
 32 31  2  0  0  0  0
 33 31  1  0  0  0  0
 33 42  1  0  0  0  0
 34 33  1  0  0  0  0
 34 35  1  0  0  0  0
 35 46  1  1  0  0  0
 35 36  1  0  0  0  0
 36 47  1  0  0  0  0
 36 25  1  0  0  0  0
 37 39  1  0  0  0  0
 37 35  1  0  0  0  0
 38 37  2  0  0  0  0
 43 33  1  0  0  0  0
 44 34  1  0  0  0  0
 45 34  1  0  0  0  0
M  END
$$$$
