KGS.pdb
 OpenBabel07022418503D

 41 40  0  0  1  0  0  0  0  0999 V2000
   -1.0520   -1.7050    2.7320 N   0  0  0  0  0  0  0  0  0  0  0  0
   -0.2370   -2.2920    1.6000 C   0  0  1  0  0  0  0  0  0  0  0  0
   -1.1030   -3.3180    0.9710 C   0  0  0  0  0  0  0  0  0  0  0  0
   -0.6580   -4.1220   -0.1570 C   0  0  0  0  0  0  0  0  0  0  0  0
   -0.2880   -3.5070   -1.4450 C   0  0  0  0  0  0  0  0  0  0  0  0
   -1.3850   -2.6860   -2.0840 C   0  0  0  0  0  0  0  0  0  0  0  0
   -0.8850   -2.1480   -3.3300 N   0  0  0  0  0  0  0  0  0  0  0  0
    0.0830   -1.1020    0.7880 C   0  0  0  0  0  0  0  0  0  0  0  0
   -0.7220   -0.1060    0.7760 O   0  0  0  0  0  0  0  0  0  0  0  0
   -0.5030   -0.9720    3.1920 H   0  0  0  0  0  0  0  0  0  0  0  0
   -1.9520   -1.3740    2.3480 H   0  0  0  0  0  0  0  0  0  0  0  0
    0.6440   -2.7260    2.0640 H   0  0  0  0  0  0  0  0  0  0  0  0
   -1.3570   -4.0590    1.8080 H   0  0  0  0  0  0  0  0  0  0  0  0
   -2.1490   -2.8800    0.7810 H   0  0  0  0  0  0  0  0  0  0  0  0
   -1.4940   -4.8620   -0.3840 H   0  0  0  0  0  0  0  0  0  0  0  0
    0.2210   -4.7600    0.1560 H   0  0  0  0  0  0  0  0  0  0  0  0
   -0.2110   -4.4090   -2.1720 H   0  0  0  0  0  0  0  0  0  0  0  0
    0.7100   -3.0900   -1.4970 H   0  0  0  0  0  0  0  0  0  0  0  0
   -1.7320   -1.8580   -1.4700 H   0  0  0  0  0  0  0  0  0  0  0  0
   -2.2390   -3.3550   -2.2810 H   0  0  0  0  0  0  0  0  0  0  0  0
   -1.2820   -1.2070   -3.5440 H   0  0  0  0  0  0  0  0  0  0  0  0
    0.1390   -2.1630   -3.4050 H   0  0  0  0  0  0  0  0  0  0  0  0
    1.2410   -0.9310   -0.0120 N   0  0  0  0  0  0  0  0  0  0  0  0
    1.4890    0.2640   -0.7630 C   0  0  0  0  0  0  0  0  0  0  0  0
    1.6520    1.4360    0.1300 C   0  0  0  0  0  0  0  0  0  0  0  0
    1.8280    2.5990   -0.3810 O   0  0  0  0  0  0  0  0  0  0  0  0
    1.9320   -1.7000   -0.0430 H   0  0  0  0  0  0  0  0  0  0  0  0
    2.4720    0.1270   -1.3040 H   0  0  0  0  0  0  0  0  0  0  0  0
    0.7130    0.4470   -1.5430 H   0  0  0  0  0  0  0  0  0  0  0  0
    0.7430    4.0080    3.9210 O   0  0  0  0  0  0  0  0  0  0  0  0
    0.5620    2.8240    3.1790 C   0  0  0  0  0  0  0  0  0  0  0  0
    1.8040    2.6460    2.3310 C   0  0  2  0  0  0  0  0  0  0  0  0
    1.6370    1.4080    1.5420 N   0  0  0  0  0  0  0  0  0  0  0  0
    2.9480    2.4180    3.2470 C   0  0  0  0  0  0  0  0  0  0  0  0
    3.3280    3.3160    4.0550 O   0  0  0  0  0  0  0  0  0  0  0  0
    3.6570    1.2290    3.2760 O   0  0  0  0  0  0  0  0  0  0  0  0
    1.0990    4.6810    3.2850 H   0  0  0  0  0  0  0  0  0  0  0  0
   -0.3300    2.9530    2.5680 H   0  0  0  0  0  0  0  0  0  0  0  0
    0.4370    2.0070    3.9100 H   0  0  0  0  0  0  0  0  0  0  0  0
    1.9290    3.5000    1.6660 H   0  0  0  0  0  0  0  0  0  0  0  0
    1.5230    0.4920    2.0240 H   0  0  0  0  0  0  0  0  0  0  0  0
  1 10  1  0  0  0  0
  2 12  1  1  0  0  0
  2  1  1  0  0  0  0
  3  2  1  0  0  0  0
  3 13  1  0  0  0  0
  4 16  1  0  0  0  0
  4  3  1  0  0  0  0
  5  4  1  0  0  0  0
  6 19  1  0  0  0  0
  6  5  1  0  0  0  0
  7  6  1  0  0  0  0
  8  2  1  0  0  0  0
  9  8  2  0  0  0  0
 11  1  1  0  0  0  0
 14  3  1  0  0  0  0
 15  4  1  0  0  0  0
 17  5  1  0  0  0  0
 18  5  1  0  0  0  0
 20  6  1  0  0  0  0
 21  7  1  0  0  0  0
 22  7  1  0  0  0  0
 23  8  1  0  0  0  0
 24 23  1  0  0  0  0
 24 25  1  0  0  0  0
 25 33  1  0  0  0  0
 26 25  2  0  0  0  0
 27 23  1  0  0  0  0
 28 24  1  0  0  0  0
 29 24  1  0  0  0  0
 31 39  1  0  0  0  0
 31 30  1  0  0  0  0
 32 40  1  6  0  0  0
 32 31  1  0  0  0  0
 32 34  1  0  0  0  0
 33 41  1  0  0  0  0
 33 32  1  0  0  0  0
 34 36  2  0  0  0  0
 34 35  1  0  0  0  0
 37 30  1  0  0  0  0
 38 31  1  0  0  0  0
M  END
$$$$
