KGT.pdb
 OpenBabel07022418503D

 44 43  0  0  1  0  0  0  0  0999 V2000
    4.1830   -2.1080    2.4460 N   0  0  0  0  0  0  0  0  0  0  0  0
    3.1160   -2.6380    1.4920 C   0  0  1  0  0  0  0  0  0  0  0  0
    2.2460   -3.4230    2.3860 C   0  0  0  0  0  0  0  0  0  0  0  0
    1.0750   -4.1610    1.9200 C   0  0  0  0  0  0  0  0  0  0  0  0
   -0.0670   -3.4200    1.3130 C   0  0  0  0  0  0  0  0  0  0  0  0
   -1.1980   -4.4110    0.9420 C   0  0  0  0  0  0  0  0  0  0  0  0
   -2.2710   -3.6210    0.3580 N   0  0  0  0  0  0  0  0  0  0  0  0
    2.5750   -1.4100    0.8820 C   0  0  0  0  0  0  0  0  0  0  0  0
    2.5610   -0.3100    1.5390 O   0  0  0  0  0  0  0  0  0  0  0  0
    3.6570   -1.3870    3.0150 H   0  0  0  0  0  0  0  0  0  0  0  0
    4.4110   -2.8810    3.1150 H   0  0  0  0  0  0  0  0  0  0  0  0
    3.7140   -3.2500    0.7870 H   0  0  0  0  0  0  0  0  0  0  0  0
    2.9560   -4.1660    2.9120 H   0  0  0  0  0  0  0  0  0  0  0  0
    1.9970   -2.7360    3.2600 H   0  0  0  0  0  0  0  0  0  0  0  0
    0.6320   -4.6890    2.8380 H   0  0  0  0  0  0  0  0  0  0  0  0
    1.3430   -4.9960    1.2040 H   0  0  0  0  0  0  0  0  0  0  0  0
   -0.5130   -2.7710    2.0910 H   0  0  0  0  0  0  0  0  0  0  0  0
    0.1430   -2.8370    0.4230 H   0  0  0  0  0  0  0  0  0  0  0  0
   -1.5990   -4.8880    1.8550 H   0  0  0  0  0  0  0  0  0  0  0  0
   -0.8350   -5.1870    0.2620 H   0  0  0  0  0  0  0  0  0  0  0  0
   -2.4300   -2.7700    0.9300 H   0  0  0  0  0  0  0  0  0  0  0  0
   -1.9520   -3.2600   -0.5880 H   0  0  0  0  0  0  0  0  0  0  0  0
    2.0550   -1.3540   -0.4340 N   0  0  0  0  0  0  0  0  0  0  0  0
    1.5580   -0.0970   -0.9480 C   0  0  0  0  0  0  0  0  0  0  0  0
    0.4520    0.4520   -0.1480 C   0  0  0  0  0  0  0  0  0  0  0  0
    0.0180   -0.1410    0.8660 O   0  0  0  0  0  0  0  0  0  0  0  0
    2.0240   -2.2220   -1.0520 H   0  0  0  0  0  0  0  0  0  0  0  0
    2.4080    0.6460   -1.0080 H   0  0  0  0  0  0  0  0  0  0  0  0
    1.2530   -0.2350   -2.0200 H   0  0  0  0  0  0  0  0  0  0  0  0
   -0.5050    4.6140   -0.0050 C   0  0  0  0  0  0  0  0  0  0  0  0
   -0.9160    3.5460    0.9610 C   0  0  1  0  0  0  0  0  0  0  0  0
   -1.9940    4.0480    1.6910 O   0  0  0  0  0  0  0  0  0  0  0  0
   -1.2810    2.2400    0.2980 C   0  0  2  0  0  0  0  0  0  0  0  0
   -0.1980    1.6830   -0.4680 N   0  0  0  0  0  0  0  0  0  0  0  0
   -2.5540    2.3120   -0.4540 C   0  0  0  0  0  0  0  0  0  0  0  0
   -2.7010    1.9340   -1.6360 O   0  0  0  0  0  0  0  0  0  0  0  0
   -3.6900    2.8290    0.1580 O   0  0  0  0  0  0  0  0  0  0  0  0
   -1.3650    5.1500   -0.4530 H   0  0  0  0  0  0  0  0  0  0  0  0
    0.1570    4.2900   -0.8000 H   0  0  0  0  0  0  0  0  0  0  0  0
    0.0490    5.3990    0.5850 H   0  0  0  0  0  0  0  0  0  0  0  0
   -0.1060    3.3360    1.6900 H   0  0  0  0  0  0  0  0  0  0  0  0
   -1.7190    4.9670    1.9770 H   0  0  0  0  0  0  0  0  0  0  0  0
   -1.4590    1.5210    1.1290 H   0  0  0  0  0  0  0  0  0  0  0  0
    0.1910    2.1660   -1.3350 H   0  0  0  0  0  0  0  0  0  0  0  0
  1 10  1  0  0  0  0
  1 11  1  0  0  0  0
  2 12  1  6  0  0  0
  2  3  1  0  0  0  0
  2  1  1  0  0  0  0
  3 13  1  0  0  0  0
  3 14  1  0  0  0  0
  4  3  1  0  0  0  0
  4 15  1  0  0  0  0
  5  4  1  0  0  0  0
  5 17  1  0  0  0  0
  6  5  1  0  0  0  0
  6 19  1  0  0  0  0
  7 21  1  0  0  0  0
  7  6  1  0  0  0  0
  8  2  1  0  0  0  0
  8  9  2  0  0  0  0
 16  4  1  0  0  0  0
 18  5  1  0  0  0  0
 20  6  1  0  0  0  0
 22  7  1  0  0  0  0
 23  8  1  0  0  0  0
 24 23  1  0  0  0  0
 24 25  1  0  0  0  0
 25 26  2  0  0  0  0
 27 23  1  0  0  0  0
 28 24  1  0  0  0  0
 29 24  1  0  0  0  0
 30 40  1  0  0  0  0
 30 31  1  0  0  0  0
 31 41  1  1  0  0  0
 31 32  1  0  0  0  0
 32 42  1  0  0  0  0
 33 31  1  0  0  0  0
 33 43  1  1  0  0  0
 34 25  1  0  0  0  0
 34 33  1  0  0  0  0
 35 37  1  0  0  0  0
 35 33  1  0  0  0  0
 36 35  2  0  0  0  0
 38 30  1  0  0  0  0
 39 30  1  0  0  0  0
 44 34  1  0  0  0  0
M  END
$$$$
