KGV.pdb
 OpenBabel07022418503D

 46 45  0  0  1  0  0  0  0  0999 V2000
   -0.1770   -4.4000    2.0360 N   0  0  0  0  0  0  0  0  0  0  0  0
    0.6140   -3.6450    1.0370 C   0  0  1  0  0  0  0  0  0  0  0  0
   -0.3440   -3.2500   -0.0080 C   0  0  0  0  0  0  0  0  0  0  0  0
    0.1200   -2.4700   -1.1640 C   0  0  0  0  0  0  0  0  0  0  0  0
   -1.0620   -2.1990   -2.1140 C   0  0  0  0  0  0  0  0  0  0  0  0
   -0.5100   -1.3930   -3.2800 C   0  0  0  0  0  0  0  0  0  0  0  0
    0.0430   -0.1590   -2.7780 N   0  0  0  0  0  0  0  0  0  0  0  0
    1.3960   -2.6080    1.6910 C   0  0  0  0  0  0  0  0  0  0  0  0
    1.2160   -2.3720    2.9080 O   0  0  0  0  0  0  0  0  0  0  0  0
    0.4260   -4.5400    2.8850 H   0  0  0  0  0  0  0  0  0  0  0  0
   -0.9610   -3.7790    2.3620 H   0  0  0  0  0  0  0  0  0  0  0  0
    1.3340   -4.4110    0.6360 H   0  0  0  0  0  0  0  0  0  0  0  0
   -0.8090   -4.1980   -0.4030 H   0  0  0  0  0  0  0  0  0  0  0  0
   -1.2200   -2.7050    0.4510 H   0  0  0  0  0  0  0  0  0  0  0  0
    0.8870   -2.9800   -1.7780 H   0  0  0  0  0  0  0  0  0  0  0  0
    0.4990   -1.4550   -0.9350 H   0  0  0  0  0  0  0  0  0  0  0  0
   -1.5320   -3.1310   -2.4360 H   0  0  0  0  0  0  0  0  0  0  0  0
   -1.7520   -1.5280   -1.5600 H   0  0  0  0  0  0  0  0  0  0  0  0
   -1.2950   -1.2380   -4.0330 H   0  0  0  0  0  0  0  0  0  0  0  0
    0.3260   -1.9350   -3.7890 H   0  0  0  0  0  0  0  0  0  0  0  0
    0.7790    0.2340   -3.4310 H   0  0  0  0  0  0  0  0  0  0  0  0
   -0.6620    0.5820   -2.6670 H   0  0  0  0  0  0  0  0  0  0  0  0
    2.3760   -1.8260    1.0340 N   0  0  0  0  0  0  0  0  0  0  0  0
    3.0970   -0.8220    1.7290 C   0  0  0  0  0  0  0  0  0  0  0  0
    2.3400    0.2920    2.2820 C   0  0  0  0  0  0  0  0  0  0  0  0
    2.9610    1.1740    2.9300 O   0  0  0  0  0  0  0  0  0  0  0  0
    2.6020   -1.9730    0.0030 H   0  0  0  0  0  0  0  0  0  0  0  0
    3.6050   -1.3400    2.5950 H   0  0  0  0  0  0  0  0  0  0  0  0
    3.9560   -0.4630    1.1080 H   0  0  0  0  0  0  0  0  0  0  0  0
   -1.0270    3.7010    2.3540 C   0  0  0  0  0  0  0  0  0  0  0  0
   -0.3450    2.5160    1.7020 C   0  0  0  0  0  0  0  0  0  0  0  0
   -1.4100    1.7500    0.9430 C   0  0  0  0  0  0  0  0  0  0  0  0
    0.2860    1.6090    2.7370 C   0  0  2  0  0  0  0  0  0  0  0  0
    0.9400    0.4770    2.1510 N   0  0  0  0  0  0  0  0  0  0  0  0
   -0.6640    1.1570    3.7540 C   0  0  0  0  0  0  0  0  0  0  0  0
   -0.8350   -0.0710    4.0270 O   0  0  0  0  0  0  0  0  0  0  0  0
   -1.4270    2.0560    4.4720 O   0  0  0  0  0  0  0  0  0  0  0  0
   -2.0740    3.4390    2.6110 H   0  0  0  0  0  0  0  0  0  0  0  0
   -0.4720    4.0320    3.2740 H   0  0  0  0  0  0  0  0  0  0  0  0
   -1.0410    4.5340    1.6230 H   0  0  0  0  0  0  0  0  0  0  0  0
    0.4300    2.9380    1.0290 H   0  0  0  0  0  0  0  0  0  0  0  0
   -1.4910    0.7070    1.3650 H   0  0  0  0  0  0  0  0  0  0  0  0
   -1.2200    1.7170   -0.1490 H   0  0  0  0  0  0  0  0  0  0  0  0
   -2.4280    2.1870    1.0910 H   0  0  0  0  0  0  0  0  0  0  0  0
    1.0520    2.2430    3.2640 H   0  0  0  0  0  0  0  0  0  0  0  0
    0.3410   -0.1950    1.6180 H   0  0  0  0  0  0  0  0  0  0  0  0
  1 11  1  0  0  0  0
  1 10  1  0  0  0  0
  2 12  1  6  0  0  0
  2  8  1  0  0  0  0
  2  1  1  0  0  0  0
  3 14  1  0  0  0  0
  3  2  1  0  0  0  0
  4 16  1  0  0  0  0
  4  3  1  0  0  0  0
  5 18  1  0  0  0  0
  5  4  1  0  0  0  0
  6  7  1  0  0  0  0
  6  5  1  0  0  0  0
  7 22  1  0  0  0  0
  8  9  2  0  0  0  0
 13  3  1  0  0  0  0
 15  4  1  0  0  0  0
 17  5  1  0  0  0  0
 19  6  1  0  0  0  0
 20  6  1  0  0  0  0
 21  7  1  0  0  0  0
 23  8  1  0  0  0  0
 23 24  1  0  0  0  0
 24 25  1  0  0  0  0
 24 28  1  0  0  0  0
 25 26  2  0  0  0  0
 27 23  1  0  0  0  0
 29 24  1  0  0  0  0
 30 38  1  0  0  0  0
 30 39  1  0  0  0  0
 31 30  1  0  0  0  0
 31 33  1  0  0  0  0
 32 44  1  0  0  0  0
 32 42  1  0  0  0  0
 32 31  1  0  0  0  0
 33 45  1  1  0  0  0
 33 35  1  0  0  0  0
 34 25  1  0  0  0  0
 34 33  1  0  0  0  0
 35 36  2  0  0  0  0
 35 37  1  0  0  0  0
 40 30  1  0  0  0  0
 41 31  1  0  0  0  0
 43 32  1  0  0  0  0
 46 34  1  0  0  0  0
M  END
$$$$
