KGW.pdb
 OpenBabel07022418503D

 54 55  0  0  1  0  0  0  0  0999 V2000
    3.7240   -0.1890    2.8430 N   0  0  0  0  0  0  0  0  0  0  0  0
    3.3950    0.7610    1.8470 C   0  0  1  0  0  0  0  0  0  0  0  0
    3.7850    0.5260    0.4570 C   0  0  0  0  0  0  0  0  0  0  0  0
    5.2050    0.4150    0.1280 C   0  0  0  0  0  0  0  0  0  0  0  0
    6.1010   -0.6650    0.5130 C   0  0  0  0  0  0  0  0  0  0  0  0
    6.3860   -1.0520    1.9010 C   0  0  0  0  0  0  0  0  0  0  0  0
    7.4670   -2.0920    1.7950 N   0  0  0  0  0  0  0  0  0  0  0  0
    1.9040    1.0730    1.9590 C   0  0  0  0  0  0  0  0  0  0  0  0
    1.1890    0.4690    2.8110 O   0  0  0  0  0  0  0  0  0  0  0  0
    4.2900    0.1720    3.6380 H   0  0  0  0  0  0  0  0  0  0  0  0
    2.9110   -0.6980    3.2500 H   0  0  0  0  0  0  0  0  0  0  0  0
    3.8680    1.7520    2.1720 H   0  0  0  0  0  0  0  0  0  0  0  0
    3.3120   -0.4760    0.1190 H   0  0  0  0  0  0  0  0  0  0  0  0
    3.2480    1.2310   -0.2620 H   0  0  0  0  0  0  0  0  0  0  0  0
    5.7040    1.4510    0.4060 H   0  0  0  0  0  0  0  0  0  0  0  0
    5.2890    0.5370   -1.0330 H   0  0  0  0  0  0  0  0  0  0  0  0
    7.0870   -0.5240   -0.0750 H   0  0  0  0  0  0  0  0  0  0  0  0
    5.7220   -1.6170   -0.0480 H   0  0  0  0  0  0  0  0  0  0  0  0
    6.6460   -0.2590    2.5770 H   0  0  0  0  0  0  0  0  0  0  0  0
    5.5600   -1.6700    2.3610 H   0  0  0  0  0  0  0  0  0  0  0  0
    8.3560   -1.6050    1.5360 H   0  0  0  0  0  0  0  0  0  0  0  0
    7.5690   -2.5460    2.7320 H   0  0  0  0  0  0  0  0  0  0  0  0
    1.2710    2.0290    1.1340 N   0  0  0  0  0  0  0  0  0  0  0  0
   -0.1420    2.3400    1.2230 C   0  0  0  0  0  0  0  0  0  0  0  0
   -0.9180    1.1040    0.9450 C   0  0  0  0  0  0  0  0  0  0  0  0
   -0.3030    0.0420    0.6890 O   0  0  0  0  0  0  0  0  0  0  0  0
    1.8670    2.5360    0.4230 H   0  0  0  0  0  0  0  0  0  0  0  0
   -0.3430    2.7340    2.2490 H   0  0  0  0  0  0  0  0  0  0  0  0
   -0.4370    3.1230    0.4990 H   0  0  0  0  0  0  0  0  0  0  0  0
   -2.3520    1.0990    0.9640 N   0  0  0  0  0  0  0  0  0  0  0  0
   -3.1380   -0.0860    0.7000 C   0  0  1  0  0  0  0  0  0  0  0  0
   -2.8900   -0.6220   -0.6800 C   0  0  0  0  0  0  0  0  0  0  0  0
   -3.6640   -1.8250   -0.9930 C   0  0  0  0  0  0  0  0  0  0  0  0
   -3.1400   -3.1020   -1.0200 C   0  0  0  0  0  0  0  0  0  0  0  0
   -4.1280   -3.9510   -1.3420 N   0  0  0  0  0  0  0  0  0  0  0  0
   -5.2780   -3.3150   -1.5320 C   0  0  0  0  0  0  0  0  0  0  0  0
   -6.5420   -3.7510   -1.8700 C   0  0  0  0  0  0  0  0  0  0  0  0
   -7.5470   -2.7930   -1.9890 C   0  0  0  0  0  0  0  0  0  0  0  0
   -7.2830   -1.4560   -1.7760 C   0  0  0  0  0  0  0  0  0  0  0  0
   -6.0110   -1.0470   -1.4390 C   0  0  0  0  0  0  0  0  0  0  0  0
   -4.9980   -1.9700   -1.3140 C   0  0  0  0  0  0  0  0  0  0  0  0
   -2.7200   -1.1090    1.6910 C   0  0  0  0  0  0  0  0  0  0  0  0
   -3.2250   -2.2810    1.7010 O   0  0  0  0  0  0  0  0  0  0  0  0
   -1.7650   -0.8480    2.6560 O   0  0  0  0  0  0  0  0  0  0  0  0
   -2.7790    2.0320    1.1860 H   0  0  0  0  0  0  0  0  0  0  0  0
   -4.2030    0.2090    0.8500 H   0  0  0  0  0  0  0  0  0  0  0  0
   -3.2420    0.1810   -1.3930 H   0  0  0  0  0  0  0  0  0  0  0  0
   -1.8120   -0.7350   -0.9010 H   0  0  0  0  0  0  0  0  0  0  0  0
   -2.1160   -3.3970   -0.8200 H   0  0  0  0  0  0  0  0  0  0  0  0
   -4.0160   -4.9890   -1.4350 H   0  0  0  0  0  0  0  0  0  0  0  0
   -6.7340   -4.7930   -2.0330 H   0  0  0  0  0  0  0  0  0  0  0  0
   -8.5400   -3.1350   -2.2550 H   0  0  0  0  0  0  0  0  0  0  0  0
   -8.0950   -0.7480   -1.8800 H   0  0  0  0  0  0  0  0  0  0  0  0
   -5.7710   -0.0120   -1.2670 H   0  0  0  0  0  0  0  0  0  0  0  0
  1 11  1  0  0  0  0
  1 10  1  0  0  0  0
  2  8  1  0  0  0  0
  2 12  1  1  0  0  0
  2  1  1  0  0  0  0
  3  2  1  0  0  0  0
  4 15  1  0  0  0  0
  4  3  1  0  0  0  0
  4  5  1  0  0  0  0
  5  6  1  0  0  0  0
  6 20  1  0  0  0  0
  6 19  1  0  0  0  0
  7  6  1  0  0  0  0
  7 22  1  0  0  0  0
  8  9  2  0  0  0  0
 13  3  1  0  0  0  0
 14  3  1  0  0  0  0
 16  4  1  0  0  0  0
 17  5  1  0  0  0  0
 18  5  1  0  0  0  0
 21  7  1  0  0  0  0
 23 24  1  0  0  0  0
 23  8  1  0  0  0  0
 24 28  1  0  0  0  0
 25 30  1  0  0  0  0
 25 24  1  0  0  0  0
 26 25  2  0  0  0  0
 27 23  1  0  0  0  0
 29 24  1  0  0  0  0
 30 45  1  0  0  0  0
 31 46  1  1  0  0  0
 31 30  1  0  0  0  0
 31 42  1  0  0  0  0
 32 31  1  0  0  0  0
 33 32  1  0  0  0  0
 34 33  2  0  0  0  0
 34 49  1  0  0  0  0
 35 34  1  0  0  0  0
 36 35  1  0  0  0  0
 36 41  1  0  0  0  0
 37 36  2  0  0  0  0
 38 37  1  0  0  0  0
 38 39  2  0  0  0  0
 39 40  1  0  0  0  0
 40 41  2  0  0  0  0
 40 54  1  0  0  0  0
 41 33  1  0  0  0  0
 42 43  2  0  0  0  0
 42 44  1  0  0  0  0
 47 32  1  0  0  0  0
 48 32  1  0  0  0  0
 50 35  1  0  0  0  0
 51 37  1  0  0  0  0
 52 38  1  0  0  0  0
 53 39  1  0  0  0  0
M  END
$$$$
