KGY.pdb
 OpenBabel07022418503D

 51 51  0  0  1  0  0  0  0  0999 V2000
    0.5880   -3.3740    2.2040 N   0  0  0  0  0  0  0  0  0  0  0  0
    1.3570   -2.3930    1.4560 C   0  0  1  0  0  0  0  0  0  0  0  0
    2.8230   -2.5510    1.6600 C   0  0  0  0  0  0  0  0  0  0  0  0
    3.6660   -1.5580    0.9050 C   0  0  0  0  0  0  0  0  0  0  0  0
    3.3380   -0.1370    1.3100 C   0  0  0  0  0  0  0  0  0  0  0  0
    4.1990    0.8550    0.5390 C   0  0  0  0  0  0  0  0  0  0  0  0
    3.8900    2.2160    0.9170 N   0  0  0  0  0  0  0  0  0  0  0  0
    0.9050   -2.4910    0.0530 C   0  0  0  0  0  0  0  0  0  0  0  0
    1.4160   -1.7120   -0.7840 O   0  0  0  0  0  0  0  0  0  0  0  0
    1.1400   -4.2380    2.3980 H   0  0  0  0  0  0  0  0  0  0  0  0
    0.1520   -2.9740    3.0630 H   0  0  0  0  0  0  0  0  0  0  0  0
    1.0430   -1.3920    1.8190 H   0  0  0  0  0  0  0  0  0  0  0  0
    3.1930   -3.5790    1.4800 H   0  0  0  0  0  0  0  0  0  0  0  0
    3.0430   -2.3640    2.7500 H   0  0  0  0  0  0  0  0  0  0  0  0
    4.7320   -1.7990    1.2060 H   0  0  0  0  0  0  0  0  0  0  0  0
    3.6520   -1.7210   -0.1830 H   0  0  0  0  0  0  0  0  0  0  0  0
    2.2650    0.0950    1.2050 H   0  0  0  0  0  0  0  0  0  0  0  0
    3.5930   -0.0420    2.3850 H   0  0  0  0  0  0  0  0  0  0  0  0
    5.2710    0.6830    0.7660 H   0  0  0  0  0  0  0  0  0  0  0  0
    4.0920    0.6850   -0.5630 H   0  0  0  0  0  0  0  0  0  0  0  0
    4.5640    2.5430    1.6330 H   0  0  0  0  0  0  0  0  0  0  0  0
    2.9420    2.2270    1.3580 H   0  0  0  0  0  0  0  0  0  0  0  0
   -0.0720   -3.4140   -0.3980 N   0  0  0  0  0  0  0  0  0  0  0  0
   -0.4430   -3.4110   -1.7840 C   0  0  0  0  0  0  0  0  0  0  0  0
   -1.0910   -2.1300   -2.1300 C   0  0  0  0  0  0  0  0  0  0  0  0
   -1.4400   -1.9150   -3.3510 O   0  0  0  0  0  0  0  0  0  0  0  0
   -0.5100   -4.0770    0.2620 H   0  0  0  0  0  0  0  0  0  0  0  0
    0.4760   -3.5790   -2.4260 H   0  0  0  0  0  0  0  0  0  0  0  0
   -1.1070   -4.2810   -1.9830 H   0  0  0  0  0  0  0  0  0  0  0  0
   -2.9600    0.3470    4.7040 O   0  0  0  0  0  0  0  0  0  0  0  0
   -3.0540    0.3280    3.2960 C   0  0  0  0  0  0  0  0  0  0  0  0
   -2.9530    1.4980    2.5670 C   0  0  0  0  0  0  0  0  0  0  0  0
   -3.0370    1.5270    1.2000 C   0  0  0  0  0  0  0  0  0  0  0  0
   -3.2300    0.3590    0.5110 C   0  0  0  0  0  0  0  0  0  0  0  0
   -3.3340    0.3050   -0.9570 C   0  0  0  0  0  0  0  0  0  0  0  0
   -1.9960    0.1140   -1.6310 C   0  0  2  0  0  0  0  0  0  0  0  0
   -1.3590   -1.1210   -1.2080 N   0  0  0  0  0  0  0  0  0  0  0  0
   -1.0890    1.2420   -1.3410 C   0  0  0  0  0  0  0  0  0  0  0  0
    0.0150    1.0290   -0.8070 O   0  0  0  0  0  0  0  0  0  0  0  0
   -3.3300   -0.8060    1.2410 C   0  0  0  0  0  0  0  0  0  0  0  0
   -3.2460   -0.8340    2.6050 C   0  0  0  0  0  0  0  0  0  0  0  0
   -1.4360    2.5550   -1.6520 O   0  0  0  0  0  0  0  0  0  0  0  0
   -2.9700    1.2050    5.2170 H   0  0  0  0  0  0  0  0  0  0  0  0
   -2.7980    2.4150    3.1610 H   0  0  0  0  0  0  0  0  0  0  0  0
   -2.9520    2.4640    0.6920 H   0  0  0  0  0  0  0  0  0  0  0  0
   -4.0230   -0.4910   -1.2830 H   0  0  0  0  0  0  0  0  0  0  0  0
   -3.7750    1.2560   -1.3010 H   0  0  0  0  0  0  0  0  0  0  0  0
   -2.1440    0.0720   -2.7290 H   0  0  0  0  0  0  0  0  0  0  0  0
   -1.1350   -1.2230   -0.2140 H   0  0  0  0  0  0  0  0  0  0  0  0
   -3.4860   -1.7780    0.7410 H   0  0  0  0  0  0  0  0  0  0  0  0
   -3.3290   -1.7580    3.1290 H   0  0  0  0  0  0  0  0  0  0  0  0
  1 10  1  0  0  0  0
  1 11  1  0  0  0  0
  2  3  1  0  0  0  0
  2 12  1  1  0  0  0
  2  1  1  0  0  0  0
  3 14  1  0  0  0  0
  4 15  1  0  0  0  0
  4  5  1  0  0  0  0
  4  3  1  0  0  0  0
  5 18  1  0  0  0  0
  6 19  1  0  0  0  0
  6  7  1  0  0  0  0
  6  5  1  0  0  0  0
  7 22  1  0  0  0  0
  7 21  1  0  0  0  0
  8  2  1  0  0  0  0
  9  8  2  0  0  0  0
 13  3  1  0  0  0  0
 16  4  1  0  0  0  0
 17  5  1  0  0  0  0
 20  6  1  0  0  0  0
 23  8  1  0  0  0  0
 23 27  1  0  0  0  0
 24 23  1  0  0  0  0
 25 24  1  0  0  0  0
 25 37  1  0  0  0  0
 26 25  2  0  0  0  0
 28 24  1  0  0  0  0
 29 24  1  0  0  0  0
 30 43  1  0  0  0  0
 31 30  1  0  0  0  0
 32 44  1  0  0  0  0
 32 31  2  0  0  0  0
 33 32  1  0  0  0  0
 34 33  2  0  0  0  0
 34 40  1  0  0  0  0
 35 34  1  0  0  0  0
 36 48  1  6  0  0  0
 36 38  1  0  0  0  0
 36 37  1  0  0  0  0
 36 35  1  0  0  0  0
 37 49  1  0  0  0  0
 38 39  1  0  0  0  0
 40 41  2  0  0  0  0
 41 51  1  0  0  0  0
 41 31  1  0  0  0  0
 42 38  2  0  0  0  0
 45 33  1  0  0  0  0
 46 35  1  0  0  0  0
 47 35  1  0  0  0  0
 50 40  1  0  0  0  0
M  END
$$$$
