KHA.pdb
 OpenBabel07022418503D

 50 50  0  0  1  0  0  0  0  0999 V2000
   -0.5810   -1.1250    4.1310 N   0  0  0  0  0  0  0  0  0  0  0  0
    0.7680   -0.8820    3.5100 C   0  0  1  0  0  0  0  0  0  0  0  0
    1.3670   -2.2280    3.4180 C   0  0  0  0  0  0  0  0  0  0  0  0
    2.7140   -2.4520    2.8860 C   0  0  0  0  0  0  0  0  0  0  0  0
    3.0470   -2.1090    1.4900 C   0  0  0  0  0  0  0  0  0  0  0  0
    4.5320   -2.5390    1.3040 C   0  0  0  0  0  0  0  0  0  0  0  0
    5.2810   -1.7680    2.2750 N   0  0  0  0  0  0  0  0  0  0  0  0
    0.4260   -0.2030    2.2370 C   0  0  0  0  0  0  0  0  0  0  0  0
    1.2040    0.6140    1.6950 O   0  0  0  0  0  0  0  0  0  0  0  0
   -0.8850   -2.0500    3.7770 H   0  0  0  0  0  0  0  0  0  0  0  0
   -0.3600   -1.2790    5.1560 H   0  0  0  0  0  0  0  0  0  0  0  0
    1.2780   -0.2210    4.2220 H   0  0  0  0  0  0  0  0  0  0  0  0
    0.6230   -2.9540    2.9290 H   0  0  0  0  0  0  0  0  0  0  0  0
    1.3810   -2.6690    4.4820 H   0  0  0  0  0  0  0  0  0  0  0  0
    2.9520   -3.5680    3.0050 H   0  0  0  0  0  0  0  0  0  0  0  0
    3.5140   -2.0030    3.5800 H   0  0  0  0  0  0  0  0  0  0  0  0
    2.4950   -2.7400    0.7720 H   0  0  0  0  0  0  0  0  0  0  0  0
    3.0340   -1.0630    1.1960 H   0  0  0  0  0  0  0  0  0  0  0  0
    4.8730   -2.3160    0.2920 H   0  0  0  0  0  0  0  0  0  0  0  0
    4.6270   -3.6070    1.5520 H   0  0  0  0  0  0  0  0  0  0  0  0
    4.7920   -0.8440    2.4420 H   0  0  0  0  0  0  0  0  0  0  0  0
    6.2320   -1.5620    1.8760 H   0  0  0  0  0  0  0  0  0  0  0  0
   -0.7920   -0.4530    1.5840 N   0  0  0  0  0  0  0  0  0  0  0  0
   -1.3210    0.0920    0.3970 C   0  0  1  0  0  0  0  0  0  0  0  0
   -0.5430    1.1560   -0.3200 C   0  0  0  0  0  0  0  0  0  0  0  0
   -0.4510    2.3680    0.5100 C   0  0  0  0  0  0  0  0  0  0  0  0
    0.2120    3.5500    0.2430 C   0  0  0  0  0  0  0  0  0  0  0  0
    0.0080    4.3600    1.2960 N   0  0  0  0  0  0  0  0  0  0  0  0
   -0.7460    3.7440    2.2030 C   0  0  0  0  0  0  0  0  0  0  0  0
   -1.0200    2.5270    1.7120 N   0  0  0  0  0  0  0  0  0  0  0  0
   -1.8480   -0.9720   -0.4570 C   0  0  0  0  0  0  0  0  0  0  0  0
   -1.7810   -2.1860   -0.0790 O   0  0  0  0  0  0  0  0  0  0  0  0
   -1.4450   -1.1750    2.0500 H   0  0  0  0  0  0  0  0  0  0  0  0
   -2.1920    0.7740    0.8150 H   0  0  0  0  0  0  0  0  0  0  0  0
    0.4210    0.8100   -0.7200 H   0  0  0  0  0  0  0  0  0  0  0  0
   -1.1570    1.4350   -1.2150 H   0  0  0  0  0  0  0  0  0  0  0  0
    0.7940    3.7730   -0.6650 H   0  0  0  0  0  0  0  0  0  0  0  0
    0.3780    5.3290    1.4040 H   0  0  0  0  0  0  0  0  0  0  0  0
   -1.0630    4.1690    3.1500 H   0  0  0  0  0  0  0  0  0  0  0  0
   -4.4860   -1.6900   -2.6520 C   0  0  0  0  0  0  0  0  0  0  0  0
   -2.9680   -1.8280   -2.5510 C   0  0  2  0  0  0  0  0  0  0  0  0
   -2.4590   -0.7760   -1.7300 N   0  0  0  0  0  0  0  0  0  0  0  0
   -2.3590   -1.9060   -3.8760 C   0  0  0  0  0  0  0  0  0  0  0  0
   -1.4690   -1.0850   -4.1970 O   0  0  0  0  0  0  0  0  0  0  0  0
   -2.7280   -2.8600   -4.8050 O   0  0  0  0  0  0  0  0  0  0  0  0
   -4.9970   -2.3540   -1.9370 H   0  0  0  0  0  0  0  0  0  0  0  0
   -4.8540   -1.9500   -3.6670 H   0  0  0  0  0  0  0  0  0  0  0  0
   -4.7580   -0.6530   -2.3720 H   0  0  0  0  0  0  0  0  0  0  0  0
   -2.7860   -2.7920   -1.9920 H   0  0  0  0  0  0  0  0  0  0  0  0
   -2.5300    0.1980   -2.0680 H   0  0  0  0  0  0  0  0  0  0  0  0
  1 11  1  0  0  0  0
  2  1  1  0  0  0  0
  2 12  1  1  0  0  0
  3  2  1  0  0  0  0
  3 14  1  0  0  0  0
  4 15  1  0  0  0  0
  4  3  1  0  0  0  0
  4 16  1  0  0  0  0
  5  4  1  0  0  0  0
  6  5  1  0  0  0  0
  6 20  1  0  0  0  0
  6  7  1  0  0  0  0
  7 21  1  0  0  0  0
  8  2  1  0  0  0  0
  9  8  2  0  0  0  0
 10  1  1  0  0  0  0
 13  3  1  0  0  0  0
 17  5  1  0  0  0  0
 18  5  1  0  0  0  0
 19  6  1  0  0  0  0
 22  7  1  0  0  0  0
 23 33  1  0  0  0  0
 23  8  1  0  0  0  0
 24 34  1  1  0  0  0
 24 23  1  0  0  0  0
 25 24  1  0  0  0  0
 25 26  1  0  0  0  0
 26 30  1  0  0  0  0
 27 26  2  0  0  0  0
 27 28  1  0  0  0  0
 28 38  1  0  0  0  0
 28 29  1  0  0  0  0
 29 39  1  0  0  0  0
 30 29  2  0  0  0  0
 31 32  2  0  0  0  0
 31 24  1  0  0  0  0
 35 25  1  0  0  0  0
 36 25  1  0  0  0  0
 37 27  1  0  0  0  0
 40 41  1  0  0  0  0
 40 48  1  0  0  0  0
 40 46  1  0  0  0  0
 41 49  1  1  0  0  0
 41 42  1  0  0  0  0
 42 31  1  0  0  0  0
 43 41  1  0  0  0  0
 44 43  1  0  0  0  0
 45 43  2  0  0  0  0
 47 40  1  0  0  0  0
 50 42  1  0  0  0  0
M  END
$$$$
