KHD.pdb
 OpenBabel07022418503D

 53 53  0  0  1  0  0  0  0  0999 V2000
    0.9920   -2.0390    1.9370 N   0  0  0  0  0  0  0  0  0  0  0  0
   -0.1170   -1.4470    2.6020 C   0  0  1  0  0  0  0  0  0  0  0  0
    0.3120   -0.6450    3.7730 C   0  0  0  0  0  0  0  0  0  0  0  0
    1.2240    0.4970    3.5350 C   0  0  0  0  0  0  0  0  0  0  0  0
    2.5500    0.1620    2.9130 C   0  0  0  0  0  0  0  0  0  0  0  0
    3.3420    1.4550    2.7900 C   0  0  0  0  0  0  0  0  0  0  0  0
    4.6430    1.2260    2.1950 N   0  0  0  0  0  0  0  0  0  0  0  0
   -1.0390   -0.7180    1.7110 C   0  0  0  0  0  0  0  0  0  0  0  0
   -2.0650   -0.1910    2.2110 O   0  0  0  0  0  0  0  0  0  0  0  0
    1.3800   -2.7930    2.5830 H   0  0  0  0  0  0  0  0  0  0  0  0
    0.7430   -2.5600    1.0670 H   0  0  0  0  0  0  0  0  0  0  0  0
   -0.7390   -2.3050    3.0310 H   0  0  0  0  0  0  0  0  0  0  0  0
    0.7600   -1.3340    4.5500 H   0  0  0  0  0  0  0  0  0  0  0  0
   -0.6040   -0.2280    4.2800 H   0  0  0  0  0  0  0  0  0  0  0  0
    0.7260    1.2290    2.8560 H   0  0  0  0  0  0  0  0  0  0  0  0
    1.3610    1.0110    4.5330 H   0  0  0  0  0  0  0  0  0  0  0  0
    2.4040   -0.2260    1.8680 H   0  0  0  0  0  0  0  0  0  0  0  0
    3.1160   -0.5950    3.4730 H   0  0  0  0  0  0  0  0  0  0  0  0
    2.7790    2.1280    2.1170 H   0  0  0  0  0  0  0  0  0  0  0  0
    3.4690    1.8810    3.7920 H   0  0  0  0  0  0  0  0  0  0  0  0
    4.5260    0.7770    1.2620 H   0  0  0  0  0  0  0  0  0  0  0  0
    5.3220    0.7560    2.8080 H   0  0  0  0  0  0  0  0  0  0  0  0
   -0.8470   -0.5710    0.3130 N   0  0  0  0  0  0  0  0  0  0  0  0
   -1.7110    0.1110   -0.5940 C   0  0  1  0  0  0  0  0  0  0  0  0
   -1.0790    1.3000   -1.2900 C   0  0  0  0  0  0  0  0  0  0  0  0
   -0.6250    2.3450   -0.3520 C   0  0  0  0  0  0  0  0  0  0  0  0
    0.5910    2.5100    0.2650 C   0  0  0  0  0  0  0  0  0  0  0  0
    0.5590    3.6250    1.0500 N   0  0  0  0  0  0  0  0  0  0  0  0
   -0.6700    4.1470    0.9180 C   0  0  0  0  0  0  0  0  0  0  0  0
   -1.3880    3.3860    0.0800 N   0  0  0  0  0  0  0  0  0  0  0  0
   -2.2590   -0.8540   -1.5780 C   0  0  0  0  0  0  0  0  0  0  0  0
   -3.0500   -0.4850   -2.4950 O   0  0  0  0  0  0  0  0  0  0  0  0
    0.0300   -1.0220   -0.0590 H   0  0  0  0  0  0  0  0  0  0  0  0
   -2.6220    0.5330   -0.0730 H   0  0  0  0  0  0  0  0  0  0  0  0
   -1.8850    1.7310   -1.9450 H   0  0  0  0  0  0  0  0  0  0  0  0
   -0.2510    0.9810   -1.9650 H   0  0  0  0  0  0  0  0  0  0  0  0
    1.4440    1.8520    0.1460 H   0  0  0  0  0  0  0  0  0  0  0  0
    1.3590    3.9970    1.6450 H   0  0  0  0  0  0  0  0  0  0  0  0
   -0.9980    5.0400    1.4230 H   0  0  0  0  0  0  0  0  0  0  0  0
   -1.8730   -2.2190   -1.4700 N   0  0  0  0  0  0  0  0  0  0  0  0
   -2.3690   -3.2080   -2.3970 C   0  0  1  0  0  0  0  0  0  0  0  0
   -1.1980   -3.8140   -3.1790 C   0  0  0  0  0  0  0  0  0  0  0  0
   -0.2390   -4.4620   -2.2560 C   0  0  0  0  0  0  0  0  0  0  0  0
    0.5320   -3.7550   -1.5670 O   0  0  0  0  0  0  0  0  0  0  0  0
   -2.9740   -4.3130   -1.6310 C   0  0  0  0  0  0  0  0  0  0  0  0
   -2.9860   -4.2860   -0.3870 O   0  0  0  0  0  0  0  0  0  0  0  0
   -0.1660   -5.8370   -2.1290 O   0  0  0  0  0  0  0  0  0  0  0  0
   -3.5430   -5.4060   -2.2730 O   0  0  0  0  0  0  0  0  0  0  0  0
   -1.2220   -2.5010   -0.7030 H   0  0  0  0  0  0  0  0  0  0  0  0
   -3.0670   -2.7670   -3.1400 H   0  0  0  0  0  0  0  0  0  0  0  0
   -0.6860   -3.0080   -3.7350 H   0  0  0  0  0  0  0  0  0  0  0  0
   -1.5840   -4.5340   -3.9260 H   0  0  0  0  0  0  0  0  0  0  0  0
    0.0130   -6.2610   -1.2380 H   0  0  0  0  0  0  0  0  0  0  0  0
  1 10  1  0  0  0  0
  1  2  1  0  0  0  0
  2 12  1  1  0  0  0
  2  3  1  0  0  0  0
  3 14  1  0  0  0  0
  3 13  1  0  0  0  0
  4  3  1  0  0  0  0
  4 16  1  0  0  0  0
  5 18  1  0  0  0  0
  5  4  1  0  0  0  0
  6  5  1  0  0  0  0
  6 20  1  0  0  0  0
  7  6  1  0  0  0  0
  7 22  1  0  0  0  0
  8  9  2  0  0  0  0
  8  2  1  0  0  0  0
 11  1  1  0  0  0  0
 15  4  1  0  0  0  0
 17  5  1  0  0  0  0
 19  6  1  0  0  0  0
 21  7  1  0  0  0  0
 23  8  1  0  0  0  0
 24 34  1  1  0  0  0
 24 23  1  0  0  0  0
 25 24  1  0  0  0  0
 25 26  1  0  0  0  0
 26 30  1  0  0  0  0
 26 27  2  0  0  0  0
 27 28  1  0  0  0  0
 28 38  1  0  0  0  0
 29 28  1  0  0  0  0
 29 39  1  0  0  0  0
 30 29  2  0  0  0  0
 31 40  1  0  0  0  0
 31 24  1  0  0  0  0
 32 31  2  0  0  0  0
 33 23  1  0  0  0  0
 35 25  1  0  0  0  0
 36 25  1  0  0  0  0
 37 27  1  0  0  0  0
 40 49  1  0  0  0  0
 41 50  1  6  0  0  0
 41 45  1  0  0  0  0
 41 40  1  0  0  0  0
 42 41  1  0  0  0  0
 42 43  1  0  0  0  0
 43 47  1  0  0  0  0
 43 44  2  0  0  0  0
 45 46  1  0  0  0  0
 47 53  1  0  0  0  0
 48 45  2  0  0  0  0
 51 42  1  0  0  0  0
 52 42  1  0  0  0  0
M  END
$$$$
