KHF.pdb
 OpenBabel07022418503D

 60 61  0  0  1  0  0  0  0  0999 V2000
   -0.4830   -1.3860    4.2620 N   0  0  0  0  0  0  0  0  0  0  0  0
   -0.2630   -0.1960    3.4740 C   0  0  1  0  0  0  0  0  0  0  0  0
    1.0110   -0.3620    2.6840 C   0  0  0  0  0  0  0  0  0  0  0  0
    2.1950   -0.5600    3.6170 C   0  0  0  0  0  0  0  0  0  0  0  0
    3.4850   -0.6840    2.8530 C   0  0  0  0  0  0  0  0  0  0  0  0
    3.5040   -1.8460    1.8930 C   0  0  0  0  0  0  0  0  0  0  0  0
    4.7500   -1.9340    1.1840 N   0  0  0  0  0  0  0  0  0  0  0  0
   -1.4240    0.0510    2.5950 C   0  0  0  0  0  0  0  0  0  0  0  0
   -2.5230   -0.5320    2.9050 O   0  0  0  0  0  0  0  0  0  0  0  0
   -0.3530   -2.2230    3.6580 H   0  0  0  0  0  0  0  0  0  0  0  0
   -1.4660   -1.4080    4.6090 H   0  0  0  0  0  0  0  0  0  0  0  0
   -0.1390    0.6930    4.1870 H   0  0  0  0  0  0  0  0  0  0  0  0
    0.9300   -1.1600    1.9240 H   0  0  0  0  0  0  0  0  0  0  0  0
    1.2470    0.5940    2.1380 H   0  0  0  0  0  0  0  0  0  0  0  0
    1.9890   -1.5210    4.1610 H   0  0  0  0  0  0  0  0  0  0  0  0
    2.2650    0.3020    4.2810 H   0  0  0  0  0  0  0  0  0  0  0  0
    4.3690   -0.7090    3.5350 H   0  0  0  0  0  0  0  0  0  0  0  0
    3.5570    0.2580    2.2290 H   0  0  0  0  0  0  0  0  0  0  0  0
    2.7180   -1.6790    1.1000 H   0  0  0  0  0  0  0  0  0  0  0  0
    3.3310   -2.8020    2.4160 H   0  0  0  0  0  0  0  0  0  0  0  0
    4.6590   -2.2500    0.2050 H   0  0  0  0  0  0  0  0  0  0  0  0
    5.2780   -1.0340    1.1630 H   0  0  0  0  0  0  0  0  0  0  0  0
   -1.3360    0.8920    1.4660 N   0  0  0  0  0  0  0  0  0  0  0  0
   -2.4110    1.2030    0.6070 C   0  0  1  0  0  0  0  0  0  0  0  0
   -2.5790    2.6850    0.3480 C   0  0  0  0  0  0  0  0  0  0  0  0
   -1.3670    3.2630   -0.2800 C   0  0  0  0  0  0  0  0  0  0  0  0
   -1.1720    3.3300   -1.6430 C   0  0  0  0  0  0  0  0  0  0  0  0
    0.0340    3.9130   -1.8320 N   0  0  0  0  0  0  0  0  0  0  0  0
    0.5910    4.2090   -0.6420 C   0  0  0  0  0  0  0  0  0  0  0  0
   -0.2780    3.8050    0.2870 N   0  0  0  0  0  0  0  0  0  0  0  0
   -2.5250    0.4010   -0.6130 C   0  0  0  0  0  0  0  0  0  0  0  0
   -3.3190    0.7600   -1.5650 O   0  0  0  0  0  0  0  0  0  0  0  0
   -0.3970    1.3220    1.2480 H   0  0  0  0  0  0  0  0  0  0  0  0
   -3.3570    0.9210    1.2090 H   0  0  0  0  0  0  0  0  0  0  0  0
   -2.7820    3.2290    1.2930 H   0  0  0  0  0  0  0  0  0  0  0  0
   -3.4800    2.8220   -0.2940 H   0  0  0  0  0  0  0  0  0  0  0  0
   -1.8030    3.0060   -2.4450 H   0  0  0  0  0  0  0  0  0  0  0  0
    0.4870    4.1150   -2.7500 H   0  0  0  0  0  0  0  0  0  0  0  0
    1.5370    4.6750   -0.4310 H   0  0  0  0  0  0  0  0  0  0  0  0
   -1.8220   -0.7950   -0.8760 N   0  0  0  0  0  0  0  0  0  0  0  0
   -2.0110   -1.5100   -2.1350 C   0  0  1  0  0  0  0  0  0  0  0  0
   -0.8020   -2.1780   -2.6670 C   0  0  0  0  0  0  0  0  0  0  0  0
   -0.2250   -3.2330   -1.8030 C   0  0  0  0  0  0  0  0  0  0  0  0
   -0.6140   -4.5630   -2.0100 C   0  0  0  0  0  0  0  0  0  0  0  0
   -0.1280   -5.5960   -1.2370 C   0  0  0  0  0  0  0  0  0  0  0  0
    0.7670   -5.3560   -0.2230 C   0  0  0  0  0  0  0  0  0  0  0  0
    1.1660   -4.0500   -0.0010 C   0  0  0  0  0  0  0  0  0  0  0  0
    0.6690   -3.0340   -0.7840 C   0  0  0  0  0  0  0  0  0  0  0  0
   -3.0510   -2.5390   -1.8750 C   0  0  0  0  0  0  0  0  0  0  0  0
   -3.4700   -3.2470   -2.8070 O   0  0  0  0  0  0  0  0  0  0  0  0
   -3.5470   -2.7060   -0.6110 O   0  0  0  0  0  0  0  0  0  0  0  0
   -1.1690   -1.1690   -0.1640 H   0  0  0  0  0  0  0  0  0  0  0  0
   -2.3990   -0.7900   -2.9240 H   0  0  0  0  0  0  0  0  0  0  0  0
    0.0440   -1.4720   -2.8730 H   0  0  0  0  0  0  0  0  0  0  0  0
   -0.9830   -2.6480   -3.6790 H   0  0  0  0  0  0  0  0  0  0  0  0
   -1.3130   -4.8190   -2.8080 H   0  0  0  0  0  0  0  0  0  0  0  0
   -0.4320   -6.6190   -1.4010 H   0  0  0  0  0  0  0  0  0  0  0  0
    1.1610   -6.1620    0.3980 H   0  0  0  0  0  0  0  0  0  0  0  0
    1.8700   -3.9010    0.8060 H   0  0  0  0  0  0  0  0  0  0  0  0
    1.0080   -2.0320   -0.5810 H   0  0  0  0  0  0  0  0  0  0  0  0
  1 11  1  0  0  0  0
  2 12  1  1  0  0  0
  2  1  1  0  0  0  0
  3  2  1  0  0  0  0
  3  4  1  0  0  0  0
  4 15  1  0  0  0  0
  4 16  1  0  0  0  0
  5 17  1  0  0  0  0
  5  4  1  0  0  0  0
  6 20  1  0  0  0  0
  6  5  1  0  0  0  0
  7  6  1  0  0  0  0
  8  9  2  0  0  0  0
  8  2  1  0  0  0  0
 10  1  1  0  0  0  0
 13  3  1  0  0  0  0
 14  3  1  0  0  0  0
 18  5  1  0  0  0  0
 19  6  1  0  0  0  0
 21  7  1  0  0  0  0
 22  7  1  0  0  0  0
 23  8  1  0  0  0  0
 24 34  1  1  0  0  0
 24 23  1  0  0  0  0
 25 24  1  0  0  0  0
 25 35  1  0  0  0  0
 26 30  1  0  0  0  0
 26 25  1  0  0  0  0
 27 26  2  0  0  0  0
 28 27  1  0  0  0  0
 28 29  1  0  0  0  0
 29 39  1  0  0  0  0
 29 30  2  0  0  0  0
 31 24  1  0  0  0  0
 32 31  2  0  0  0  0
 33 23  1  0  0  0  0
 36 25  1  0  0  0  0
 37 27  1  0  0  0  0
 38 28  1  0  0  0  0
 40 31  1  0  0  0  0
 40 52  1  0  0  0  0
 41 53  1  6  0  0  0
 41 49  1  0  0  0  0
 41 40  1  0  0  0  0
 42 41  1  0  0  0  0
 42 43  1  0  0  0  0
 43 48  1  0  0  0  0
 44 43  2  0  0  0  0
 44 45  1  0  0  0  0
 45 46  2  0  0  0  0
 46 47  1  0  0  0  0
 46 58  1  0  0  0  0
 47 59  1  0  0  0  0
 48 60  1  0  0  0  0
 48 47  2  0  0  0  0
 49 51  1  0  0  0  0
 50 49  2  0  0  0  0
 54 42  1  0  0  0  0
 55 42  1  0  0  0  0
 56 44  1  0  0  0  0
 57 45  1  0  0  0  0
M  END
$$$$
