KHH.pdb
 OpenBabel07022418503D

 57 58  0  0  1  0  0  0  0  0999 V2000
    2.1660   -0.6300    1.4980 N   0  0  0  0  0  0  0  0  0  0  0  0
    1.4780    0.0270    2.5740 C   0  0  1  0  0  0  0  0  0  0  0  0
    2.3220    1.1000    3.2280 C   0  0  0  0  0  0  0  0  0  0  0  0
    3.5630    0.4510    3.7740 C   0  0  0  0  0  0  0  0  0  0  0  0
    4.4590    1.4810    4.4480 C   0  0  0  0  0  0  0  0  0  0  0  0
    5.6760    0.7420    4.9650 C   0  0  0  0  0  0  0  0  0  0  0  0
    6.3350    0.1310    3.8440 N   0  0  0  0  0  0  0  0  0  0  0  0
    0.2070    0.6000    2.1270 C   0  0  0  0  0  0  0  0  0  0  0  0
   -0.5060    1.2150    2.9880 O   0  0  0  0  0  0  0  0  0  0  0  0
    2.8640   -1.3170    1.8550 H   0  0  0  0  0  0  0  0  0  0  0  0
    2.6150    0.0470    0.8290 H   0  0  0  0  0  0  0  0  0  0  0  0
    1.2730   -0.7670    3.3500 H   0  0  0  0  0  0  0  0  0  0  0  0
    2.6200    1.8310    2.4510 H   0  0  0  0  0  0  0  0  0  0  0  0
    1.7510    1.5630    4.0390 H   0  0  0  0  0  0  0  0  0  0  0  0
    4.0930   -0.0440    2.9630 H   0  0  0  0  0  0  0  0  0  0  0  0
    3.2790   -0.2730    4.5910 H   0  0  0  0  0  0  0  0  0  0  0  0
    4.8430    2.2170    3.6910 H   0  0  0  0  0  0  0  0  0  0  0  0
    3.8850    1.9680    5.2500 H   0  0  0  0  0  0  0  0  0  0  0  0
    6.3110    1.4590    5.5200 H   0  0  0  0  0  0  0  0  0  0  0  0
    5.3380   -0.0550    5.6850 H   0  0  0  0  0  0  0  0  0  0  0  0
    6.0480    0.5480    2.9370 H   0  0  0  0  0  0  0  0  0  0  0  0
    7.3830    0.1640    3.9210 H   0  0  0  0  0  0  0  0  0  0  0  0
   -0.2980    0.5290    0.8120 N   0  0  0  0  0  0  0  0  0  0  0  0
   -1.5680    1.1300    0.4740 C   0  0  1  0  0  0  0  0  0  0  0  0
   -1.3750    2.2120   -0.5650 C   0  0  0  0  0  0  0  0  0  0  0  0
   -0.7730    1.6570   -1.8140 C   0  0  0  0  0  0  0  0  0  0  0  0
   -1.4810    1.1580   -2.8810 C   0  0  0  0  0  0  0  0  0  0  0  0
   -0.6040    0.7580   -3.7990 N   0  0  0  0  0  0  0  0  0  0  0  0
    0.6410    0.9880   -3.3500 C   0  0  0  0  0  0  0  0  0  0  0  0
    0.5260    1.5400   -2.1280 N   0  0  0  0  0  0  0  0  0  0  0  0
   -2.4780    0.0860   -0.0440 C   0  0  0  0  0  0  0  0  0  0  0  0
   -3.6500    0.3820   -0.4050 O   0  0  0  0  0  0  0  0  0  0  0  0
    0.2470    0.0420    0.0880 H   0  0  0  0  0  0  0  0  0  0  0  0
   -2.0350    1.6150    1.3540 H   0  0  0  0  0  0  0  0  0  0  0  0
   -0.6770    2.9800   -0.1810 H   0  0  0  0  0  0  0  0  0  0  0  0
   -2.3550    2.6270   -0.8260 H   0  0  0  0  0  0  0  0  0  0  0  0
   -2.5560    1.0950   -2.9710 H   0  0  0  0  0  0  0  0  0  0  0  0
   -0.8080    0.3300   -4.7320 H   0  0  0  0  0  0  0  0  0  0  0  0
    1.5730    0.7750   -3.8600 H   0  0  0  0  0  0  0  0  0  0  0  0
   -2.0500   -1.2770   -0.1470 N   0  0  0  0  0  0  0  0  0  0  0  0
   -2.9600   -2.2820   -0.6580 C   0  0  1  0  0  0  0  0  0  0  0  0
   -2.4230   -2.8730   -1.9430 C   0  0  0  0  0  0  0  0  0  0  0  0
   -3.3030   -3.9040   -2.5140 C   0  0  0  0  0  0  0  0  0  0  0  0
   -3.2520   -5.2550   -2.2550 C   0  0  0  0  0  0  0  0  0  0  0  0
   -4.2240   -5.8260   -2.9800 N   0  0  0  0  0  0  0  0  0  0  0  0
   -4.8850   -4.8950   -3.6840 C   0  0  0  0  0  0  0  0  0  0  0  0
   -4.3070   -3.7200   -3.3870 N   0  0  0  0  0  0  0  0  0  0  0  0
   -3.2010   -3.2810    0.3970 C   0  0  0  0  0  0  0  0  0  0  0  0
   -2.6280   -3.1470    1.5040 O   0  0  0  0  0  0  0  0  0  0  0  0
   -4.0320   -4.3840    0.2550 O   0  0  0  0  0  0  0  0  0  0  0  0
   -1.0800   -1.5080    0.1540 H   0  0  0  0  0  0  0  0  0  0  0  0
   -3.9520   -1.8260   -0.9240 H   0  0  0  0  0  0  0  0  0  0  0  0
   -2.3030   -2.0170   -2.6480 H   0  0  0  0  0  0  0  0  0  0  0  0
   -1.3780   -3.2650   -1.7970 H   0  0  0  0  0  0  0  0  0  0  0  0
   -2.5500   -5.7800   -1.5820 H   0  0  0  0  0  0  0  0  0  0  0  0
   -4.4360   -6.8540   -2.9920 H   0  0  0  0  0  0  0  0  0  0  0  0
   -5.7340   -5.0590   -4.3710 H   0  0  0  0  0  0  0  0  0  0  0  0
  1 10  1  0  0  0  0
  1  2  1  0  0  0  0
  2  3  1  0  0  0  0
  2 12  1  1  0  0  0
  3  4  1  0  0  0  0
  3 14  1  0  0  0  0
  4  5  1  0  0  0  0
  4 16  1  0  0  0  0
  5  6  1  0  0  0  0
  5 18  1  0  0  0  0
  6 19  1  0  0  0  0
  6 20  1  0  0  0  0
  7 22  1  0  0  0  0
  7  6  1  0  0  0  0
  8  2  1  0  0  0  0
  8  9  2  0  0  0  0
 11  1  1  0  0  0  0
 13  3  1  0  0  0  0
 15  4  1  0  0  0  0
 17  5  1  0  0  0  0
 21  7  1  0  0  0  0
 23  8  1  0  0  0  0
 24 23  1  0  0  0  0
 24 34  1  1  0  0  0
 25 35  1  0  0  0  0
 25 24  1  0  0  0  0
 26 25  1  0  0  0  0
 27 26  2  0  0  0  0
 28 29  1  0  0  0  0
 28 27  1  0  0  0  0
 29 30  2  0  0  0  0
 30 26  1  0  0  0  0
 31 24  1  0  0  0  0
 32 31  2  0  0  0  0
 33 23  1  0  0  0  0
 36 25  1  0  0  0  0
 37 27  1  0  0  0  0
 38 28  1  0  0  0  0
 39 29  1  0  0  0  0
 40 31  1  0  0  0  0
 40 51  1  0  0  0  0
 41 52  1  6  0  0  0
 41 40  1  0  0  0  0
 41 48  1  0  0  0  0
 42 54  1  0  0  0  0
 42 41  1  0  0  0  0
 43 44  2  0  0  0  0
 43 42  1  0  0  0  0
 44 55  1  0  0  0  0
 45 44  1  0  0  0  0
 46 47  2  0  0  0  0
 46 45  1  0  0  0  0
 47 43  1  0  0  0  0
 48 49  1  0  0  0  0
 50 48  2  0  0  0  0
 53 42  1  0  0  0  0
 56 45  1  0  0  0  0
 57 46  1  0  0  0  0
M  END
$$$$
