KHI.pdb
 OpenBabel07022418503D

 59 59  0  0  1  0  0  0  0  0999 V2000
    3.2520    1.0640    2.8350 N   0  0  0  0  0  0  0  0  0  0  0  0
    2.4730    0.7640    1.6500 C   0  0  1  0  0  0  0  0  0  0  0  0
    2.5680   -0.6940    1.3220 C   0  0  0  0  0  0  0  0  0  0  0  0
    3.9540   -1.1720    1.0520 C   0  0  0  0  0  0  0  0  0  0  0  0
    4.6150   -0.4770   -0.1080 C   0  0  0  0  0  0  0  0  0  0  0  0
    6.0130   -1.0460   -0.2810 C   0  0  0  0  0  0  0  0  0  0  0  0
    6.6380   -0.3750   -1.3940 N   0  0  0  0  0  0  0  0  0  0  0  0
    1.0200    1.0420    1.9400 C   0  0  0  0  0  0  0  0  0  0  0  0
    0.6490    1.4550    3.0750 O   0  0  0  0  0  0  0  0  0  0  0  0
    4.2570    1.0350    2.5370 H   0  0  0  0  0  0  0  0  0  0  0  0
    3.0310    2.0170    3.2150 H   0  0  0  0  0  0  0  0  0  0  0  0
    2.7790    1.4430    0.8580 H   0  0  0  0  0  0  0  0  0  0  0  0
    1.8740   -0.9720    0.5180 H   0  0  0  0  0  0  0  0  0  0  0  0
    2.2100   -1.2510    2.2340 H   0  0  0  0  0  0  0  0  0  0  0  0
    3.8990   -2.2520    0.8050 H   0  0  0  0  0  0  0  0  0  0  0  0
    4.5970   -1.0660    1.9470 H   0  0  0  0  0  0  0  0  0  0  0  0
    4.7040    0.6020   -0.0040 H   0  0  0  0  0  0  0  0  0  0  0  0
    4.0810   -0.6980   -1.0670 H   0  0  0  0  0  0  0  0  0  0  0  0
    6.6350   -0.8720    0.6200 H   0  0  0  0  0  0  0  0  0  0  0  0
    5.9390   -2.1300   -0.5500 H   0  0  0  0  0  0  0  0  0  0  0  0
    7.0350    0.5230   -1.0400 H   0  0  0  0  0  0  0  0  0  0  0  0
    5.9360   -0.1420   -2.1130 H   0  0  0  0  0  0  0  0  0  0  0  0
    0.0240    0.8500    0.9470 N   0  0  0  0  0  0  0  0  0  0  0  0
   -1.3940    1.1040    1.1770 C   0  0  1  0  0  0  0  0  0  0  0  0
   -1.8910    2.1930    0.2530 C   0  0  0  0  0  0  0  0  0  0  0  0
   -3.3240    2.4620    0.4770 C   0  0  0  0  0  0  0  0  0  0  0  0
   -3.8670    3.3760    1.3750 C   0  0  0  0  0  0  0  0  0  0  0  0
   -5.2260    3.3440    1.2990 N   0  0  0  0  0  0  0  0  0  0  0  0
   -5.5240    2.4230    0.3680 C   0  0  0  0  0  0  0  0  0  0  0  0
   -4.3910    1.9030   -0.1180 N   0  0  0  0  0  0  0  0  0  0  0  0
   -2.1850   -0.1420    1.0550 C   0  0  0  0  0  0  0  0  0  0  0  0
   -3.3980   -0.1130    1.2500 O   0  0  0  0  0  0  0  0  0  0  0  0
    0.3040    0.5090   -0.0010 H   0  0  0  0  0  0  0  0  0  0  0  0
   -1.4820    1.4420    2.2360 H   0  0  0  0  0  0  0  0  0  0  0  0
   -1.3110    3.1230    0.3540 H   0  0  0  0  0  0  0  0  0  0  0  0
   -1.7190    1.8570   -0.8070 H   0  0  0  0  0  0  0  0  0  0  0  0
   -3.2510    3.9900    2.0090 H   0  0  0  0  0  0  0  0  0  0  0  0
   -5.8560    3.9410    1.8780 H   0  0  0  0  0  0  0  0  0  0  0  0
   -6.5230    2.1560    0.0680 H   0  0  0  0  0  0  0  0  0  0  0  0
   -3.0210   -4.9320   -2.3500 C   0  0  0  0  0  0  0  0  0  0  0  0
   -2.9060   -4.4780   -0.9000 C   0  0  0  0  0  0  0  0  0  0  0  0
   -2.1880   -3.1570   -0.7990 C   0  0  2  0  0  0  0  0  0  0  0  0
   -0.7960   -3.3590   -1.3640 C   0  0  0  0  0  0  0  0  0  0  0  0
   -2.2430   -2.6240    0.5760 C   0  0  2  0  0  0  0  0  0  0  0  0
   -1.5640   -1.3460    0.7220 N   0  0  0  0  0  0  0  0  0  0  0  0
   -1.8210   -3.5690    1.6250 C   0  0  0  0  0  0  0  0  0  0  0  0
   -2.2650   -4.7180    1.8080 O   0  0  0  0  0  0  0  0  0  0  0  0
   -0.8240   -3.1500    2.5100 O   0  0  0  0  0  0  0  0  0  0  0  0
   -2.2460   -4.5260   -2.9970 H   0  0  0  0  0  0  0  0  0  0  0  0
   -2.9720   -6.0320   -2.3530 H   0  0  0  0  0  0  0  0  0  0  0  0
   -4.0530   -4.6630   -2.6610 H   0  0  0  0  0  0  0  0  0  0  0  0
   -2.2820   -5.2460   -0.3680 H   0  0  0  0  0  0  0  0  0  0  0  0
   -3.8970   -4.4410   -0.4130 H   0  0  0  0  0  0  0  0  0  0  0  0
   -2.7840   -2.4740   -1.4770 H   0  0  0  0  0  0  0  0  0  0  0  0
   -0.5810   -2.6750   -2.2100 H   0  0  0  0  0  0  0  0  0  0  0  0
   -0.0160   -3.2460   -0.5540 H   0  0  0  0  0  0  0  0  0  0  0  0
   -0.6380   -4.3880   -1.7530 H   0  0  0  0  0  0  0  0  0  0  0  0
   -3.3290   -2.3910    0.7870 H   0  0  0  0  0  0  0  0  0  0  0  0
   -0.5340   -1.3560    0.5610 H   0  0  0  0  0  0  0  0  0  0  0  0
  1 11  1  0  0  0  0
  2 12  1  6  0  0  0
  2  8  1  0  0  0  0
  2  1  1  0  0  0  0
  3  2  1  0  0  0  0
  3 14  1  0  0  0  0
  4  3  1  0  0  0  0
  4 16  1  0  0  0  0
  5 17  1  0  0  0  0
  5  4  1  0  0  0  0
  6  5  1  0  0  0  0
  6 19  1  0  0  0  0
  7 21  1  0  0  0  0
  7  6  1  0  0  0  0
  8  9  2  0  0  0  0
 10  1  1  0  0  0  0
 13  3  1  0  0  0  0
 15  4  1  0  0  0  0
 18  5  1  0  0  0  0
 20  6  1  0  0  0  0
 22  7  1  0  0  0  0
 23 24  1  0  0  0  0
 23  8  1  0  0  0  0
 24 34  1  1  0  0  0
 25 35  1  0  0  0  0
 25 26  1  0  0  0  0
 25 24  1  0  0  0  0
 26 27  2  0  0  0  0
 27 37  1  0  0  0  0
 28 27  1  0  0  0  0
 28 38  1  0  0  0  0
 29 28  1  0  0  0  0
 30 29  2  0  0  0  0
 30 26  1  0  0  0  0
 31 24  1  0  0  0  0
 31 32  2  0  0  0  0
 33 23  1  0  0  0  0
 36 25  1  0  0  0  0
 39 29  1  0  0  0  0
 40 41  1  0  0  0  0
 41 42  1  0  0  0  0
 41 53  1  0  0  0  0
 41 52  1  0  0  0  0
 42 54  1  6  0  0  0
 42 44  1  0  0  0  0
 43 42  1  0  0  0  0
 43 56  1  0  0  0  0
 44 45  1  0  0  0  0
 44 58  1  1  0  0  0
 44 46  1  0  0  0  0
 45 31  1  0  0  0  0
 46 47  2  0  0  0  0
 46 48  1  0  0  0  0
 49 40  1  0  0  0  0
 50 40  1  0  0  0  0
 51 40  1  0  0  0  0
 55 43  1  0  0  0  0
 57 43  1  0  0  0  0
 59 45  1  0  0  0  0
M  END
$$$$
