KHL.pdb
 OpenBabel07022418503D

 59 59  0  0  1  0  0  0  0  0999 V2000
    3.4200   -2.1460    0.4180 N   0  0  0  0  0  0  0  0  0  0  0  0
    2.7200   -1.6130    1.5680 C   0  0  1  0  0  0  0  0  0  0  0  0
    3.7410   -0.9440    2.4260 C   0  0  0  0  0  0  0  0  0  0  0  0
    3.2150   -0.3240    3.6860 C   0  0  0  0  0  0  0  0  0  0  0  0
    2.5570   -1.3520    4.5900 C   0  0  0  0  0  0  0  0  0  0  0  0
    2.0600   -0.6320    5.8260 C   0  0  0  0  0  0  0  0  0  0  0  0
    3.2160   -0.0300    6.4610 N   0  0  0  0  0  0  0  0  0  0  0  0
    1.5850   -0.7490    1.1820 C   0  0  0  0  0  0  0  0  0  0  0  0
    0.8780   -0.2210    2.0750 O   0  0  0  0  0  0  0  0  0  0  0  0
    2.9000   -2.8990   -0.0710 H   0  0  0  0  0  0  0  0  0  0  0  0
    4.4080   -2.3830    0.6220 H   0  0  0  0  0  0  0  0  0  0  0  0
    2.3090   -2.4790    2.1260 H   0  0  0  0  0  0  0  0  0  0  0  0
    4.3450   -0.2740    1.8180 H   0  0  0  0  0  0  0  0  0  0  0  0
    4.4450   -1.7630    2.7620 H   0  0  0  0  0  0  0  0  0  0  0  0
    2.5200    0.5010    3.5580 H   0  0  0  0  0  0  0  0  0  0  0  0
    4.1170    0.1160    4.2040 H   0  0  0  0  0  0  0  0  0  0  0  0
    1.7080   -1.8470    4.1190 H   0  0  0  0  0  0  0  0  0  0  0  0
    3.2760   -2.1530    4.8770 H   0  0  0  0  0  0  0  0  0  0  0  0
    1.3820    0.1820    5.4510 H   0  0  0  0  0  0  0  0  0  0  0  0
    1.4920   -1.2980    6.4990 H   0  0  0  0  0  0  0  0  0  0  0  0
    4.1000   -0.5540    6.1980 H   0  0  0  0  0  0  0  0  0  0  0  0
    3.3430    0.9200    6.0230 H   0  0  0  0  0  0  0  0  0  0  0  0
    1.2230   -0.4610   -0.1630 N   0  0  0  0  0  0  0  0  0  0  0  0
    0.0710    0.4160   -0.4720 C   0  0  1  0  0  0  0  0  0  0  0  0
    0.5200    1.5570   -1.3130 C   0  0  0  0  0  0  0  0  0  0  0  0
   -0.5210    2.5390   -1.6630 C   0  0  0  0  0  0  0  0  0  0  0  0
   -0.3280    3.6820   -2.4620 C   0  0  0  0  0  0  0  0  0  0  0  0
   -1.4860    4.3460   -2.5710 N   0  0  0  0  0  0  0  0  0  0  0  0
   -2.4160    3.6790   -1.8770 C   0  0  0  0  0  0  0  0  0  0  0  0
   -1.8210    2.6110   -1.3470 N   0  0  0  0  0  0  0  0  0  0  0  0
   -0.9440   -0.4660   -1.1190 C   0  0  0  0  0  0  0  0  0  0  0  0
   -2.0160    0.0790   -1.4590 O   0  0  0  0  0  0  0  0  0  0  0  0
    1.7800   -0.8690   -0.9180 H   0  0  0  0  0  0  0  0  0  0  0  0
   -0.3640    0.8010    0.4660 H   0  0  0  0  0  0  0  0  0  0  0  0
    1.3130    2.1110   -0.7370 H   0  0  0  0  0  0  0  0  0  0  0  0
    1.0520    1.2060   -2.2330 H   0  0  0  0  0  0  0  0  0  0  0  0
    0.6260    3.9410   -2.8970 H   0  0  0  0  0  0  0  0  0  0  0  0
   -1.6340    5.2210   -3.1010 H   0  0  0  0  0  0  0  0  0  0  0  0
   -3.4500    4.0070   -1.8020 H   0  0  0  0  0  0  0  0  0  0  0  0
   -4.9060   -1.6630   -0.3000 C   0  0  0  0  0  0  0  0  0  0  0  0
   -3.4570   -2.1610   -0.4100 C   0  0  0  0  0  0  0  0  0  0  0  0
   -3.5070   -3.5870    0.2060 C   0  0  0  0  0  0  0  0  0  0  0  0
   -3.0370   -2.2840   -1.8340 C   0  0  0  0  0  0  0  0  0  0  0  0
   -1.5790   -2.7590   -1.9070 C   0  0  2  0  0  0  0  0  0  0  0  0
   -0.6750   -1.8250   -1.3180 N   0  0  0  0  0  0  0  0  0  0  0  0
   -1.1940   -3.2870   -3.2030 C   0  0  0  0  0  0  0  0  0  0  0  0
   -0.1070   -2.9310   -3.7760 O   0  0  0  0  0  0  0  0  0  0  0  0
   -1.9550   -4.2020   -3.9140 O   0  0  0  0  0  0  0  0  0  0  0  0
   -5.6180   -2.4780   -0.5790 H   0  0  0  0  0  0  0  0  0  0  0  0
   -5.0590   -0.7480   -0.9140 H   0  0  0  0  0  0  0  0  0  0  0  0
   -5.0540   -1.4250    0.7700 H   0  0  0  0  0  0  0  0  0  0  0  0
   -2.8510   -1.5900    0.2750 H   0  0  0  0  0  0  0  0  0  0  0  0
   -3.7720   -4.3060   -0.5820 H   0  0  0  0  0  0  0  0  0  0  0  0
   -4.2900   -3.5770    0.9600 H   0  0  0  0  0  0  0  0  0  0  0  0
   -2.5000   -3.7740    0.6620 H   0  0  0  0  0  0  0  0  0  0  0  0
   -3.6230   -3.1680   -2.2540 H   0  0  0  0  0  0  0  0  0  0  0  0
   -3.2670   -1.4600   -2.4970 H   0  0  0  0  0  0  0  0  0  0  0  0
   -1.6510   -3.6620   -1.1680 H   0  0  0  0  0  0  0  0  0  0  0  0
    0.2800   -2.2060   -1.0060 H   0  0  0  0  0  0  0  0  0  0  0  0
  1 11  1  0  0  0  0
  1  2  1  0  0  0  0
  2 12  1  1  0  0  0
  2  3  1  0  0  0  0
  3 14  1  0  0  0  0
  3  4  1  0  0  0  0
  4 16  1  0  0  0  0
  4  5  1  0  0  0  0
  5 18  1  0  0  0  0
  5  6  1  0  0  0  0
  6  7  1  0  0  0  0
  6 20  1  0  0  0  0
  8  2  1  0  0  0  0
  8  9  2  0  0  0  0
 10  1  1  0  0  0  0
 13  3  1  0  0  0  0
 15  4  1  0  0  0  0
 17  5  1  0  0  0  0
 19  6  1  0  0  0  0
 21  7  1  0  0  0  0
 22  7  1  0  0  0  0
 23  8  1  0  0  0  0
 24 23  1  0  0  0  0
 24 34  1  1  0  0  0
 25 35  1  0  0  0  0
 25 24  1  0  0  0  0
 26 30  1  0  0  0  0
 26 25  1  0  0  0  0
 27 26  2  0  0  0  0
 28 27  1  0  0  0  0
 28 29  1  0  0  0  0
 29 39  1  0  0  0  0
 29 30  2  0  0  0  0
 31 24  1  0  0  0  0
 32 31  2  0  0  0  0
 33 23  1  0  0  0  0
 36 25  1  0  0  0  0
 37 27  1  0  0  0  0
 38 28  1  0  0  0  0
 40 51  1  0  0  0  0
 41 40  1  0  0  0  0
 41 42  1  0  0  0  0
 41 52  1  0  0  0  0
 42 55  1  0  0  0  0
 42 54  1  0  0  0  0
 43 41  1  0  0  0  0
 44 43  1  0  0  0  0
 44 45  1  0  0  0  0
 44 58  1  1  0  0  0
 45 31  1  0  0  0  0
 45 59  1  0  0  0  0
 46 44  1  0  0  0  0
 47 46  1  0  0  0  0
 48 46  2  0  0  0  0
 49 40  1  0  0  0  0
 50 40  1  0  0  0  0
 53 42  1  0  0  0  0
 56 43  1  0  0  0  0
 57 43  1  0  0  0  0
M  END
$$$$
