KHM.pdb
 OpenBabel07022418503D

 57 57  0  0  1  0  0  0  0  0999 V2000
    1.2760   -2.1830    2.5860 N   0  0  0  0  0  0  0  0  0  0  0  0
   -0.0350   -1.7550    2.9520 C   0  0  1  0  0  0  0  0  0  0  0  0
   -0.1710   -1.0830    4.2660 C   0  0  0  0  0  0  0  0  0  0  0  0
    0.5870    0.1640    4.4970 C   0  0  0  0  0  0  0  0  0  0  0  0
    2.0590   -0.0080    4.3840 C   0  0  0  0  0  0  0  0  0  0  0  0
    2.6880    1.3690    4.6810 C   0  0  0  0  0  0  0  0  0  0  0  0
    4.1340    1.1700    4.5640 N   0  0  0  0  0  0  0  0  0  0  0  0
   -0.7380   -1.0440    1.8380 C   0  0  0  0  0  0  0  0  0  0  0  0
   -1.8980   -0.6450    2.0470 O   0  0  0  0  0  0  0  0  0  0  0  0
    1.6310   -2.8010    3.3500 H   0  0  0  0  0  0  0  0  0  0  0  0
    1.1920   -2.7950    1.7460 H   0  0  0  0  0  0  0  0  0  0  0  0
   -0.6370   -2.7190    3.0500 H   0  0  0  0  0  0  0  0  0  0  0  0
   -1.2540   -0.8550    4.4240 H   0  0  0  0  0  0  0  0  0  0  0  0
    0.0510   -1.8790    5.0430 H   0  0  0  0  0  0  0  0  0  0  0  0
    0.3120    0.5200    5.5350 H   0  0  0  0  0  0  0  0  0  0  0  0
    0.2070    0.9290    3.7720 H   0  0  0  0  0  0  0  0  0  0  0  0
    2.2980   -0.2480    3.3060 H   0  0  0  0  0  0  0  0  0  0  0  0
    2.4080   -0.7710    5.0810 H   0  0  0  0  0  0  0  0  0  0  0  0
    2.3530    2.0670    3.9030 H   0  0  0  0  0  0  0  0  0  0  0  0
    2.4040    1.7040    5.6960 H   0  0  0  0  0  0  0  0  0  0  0  0
    4.2910    0.4490    3.8260 H   0  0  0  0  0  0  0  0  0  0  0  0
    4.5590    2.0920    4.2500 H   0  0  0  0  0  0  0  0  0  0  0  0
   -0.1300   -0.8170    0.5700 N   0  0  0  0  0  0  0  0  0  0  0  0
   -0.7730   -0.1480   -0.5170 C   0  0  1  0  0  0  0  0  0  0  0  0
   -0.0560    1.0890   -1.0030 C   0  0  0  0  0  0  0  0  0  0  0  0
    0.0750    2.1130    0.0600 C   0  0  0  0  0  0  0  0  0  0  0  0
    1.0740    2.3050    0.9770 C   0  0  0  0  0  0  0  0  0  0  0  0
    0.7780    3.3790    1.7650 N   0  0  0  0  0  0  0  0  0  0  0  0
   -0.4100    3.8550    1.3350 C   0  0  0  0  0  0  0  0  0  0  0  0
   -0.8360    3.0970    0.3110 N   0  0  0  0  0  0  0  0  0  0  0  0
   -0.9290   -1.1230   -1.6730 C   0  0  0  0  0  0  0  0  0  0  0  0
   -1.4810   -0.7280   -2.7270 O   0  0  0  0  0  0  0  0  0  0  0  0
    0.8570   -1.1890    0.4920 H   0  0  0  0  0  0  0  0  0  0  0  0
   -1.8120    0.1740   -0.2750 H   0  0  0  0  0  0  0  0  0  0  0  0
   -0.5700    1.5040   -1.8870 H   0  0  0  0  0  0  0  0  0  0  0  0
    0.9660    0.7960   -1.3770 H   0  0  0  0  0  0  0  0  0  0  0  0
    1.9740    1.7010    1.0740 H   0  0  0  0  0  0  0  0  0  0  0  0
    1.3530    3.7690    2.5530 H   0  0  0  0  0  0  0  0  0  0  0  0
   -0.8930    4.7120    1.7830 H   0  0  0  0  0  0  0  0  0  0  0  0
   -3.9530   -1.2510   -5.0000 C   0  0  0  0  0  0  0  0  0  0  0  0
   -4.1760   -2.8910   -4.2890 S   0  0  0  0  0  0  0  0  0  0  0  0
   -2.9160   -3.2190   -2.9980 C   0  0  0  0  0  0  0  0  0  0  0  0
   -1.5490   -3.2970   -3.5810 C   0  0  0  0  0  0  0  0  0  0  0  0
   -0.5100   -3.5260   -2.4760 C   0  0  2  0  0  0  0  0  0  0  0  0
   -0.4680   -2.4420   -1.5730 N   0  0  0  0  0  0  0  0  0  0  0  0
    0.7660   -4.0230   -2.9830 C   0  0  0  0  0  0  0  0  0  0  0  0
    0.8190   -4.9820   -3.7860 O   0  0  0  0  0  0  0  0  0  0  0  0
    1.9480   -3.4350   -2.5750 O   0  0  0  0  0  0  0  0  0  0  0  0
   -2.9100   -1.0310   -5.2780 H   0  0  0  0  0  0  0  0  0  0  0  0
   -4.5620   -1.2280   -5.9490 H   0  0  0  0  0  0  0  0  0  0  0  0
   -4.4100   -0.4480   -4.3650 H   0  0  0  0  0  0  0  0  0  0  0  0
   -3.1100   -2.5750   -2.1650 H   0  0  0  0  0  0  0  0  0  0  0  0
   -3.1890   -4.2750   -2.6390 H   0  0  0  0  0  0  0  0  0  0  0  0
   -1.4680   -4.2440   -4.2030 H   0  0  0  0  0  0  0  0  0  0  0  0
   -1.3110   -2.4210   -4.1670 H   0  0  0  0  0  0  0  0  0  0  0  0
   -1.0380   -4.4340   -1.9420 H   0  0  0  0  0  0  0  0  0  0  0  0
    0.0070   -2.6620   -0.6260 H   0  0  0  0  0  0  0  0  0  0  0  0
  1  2  1  0  0  0  0
  1 10  1  0  0  0  0
  2 12  1  1  0  0  0
  2  3  1  0  0  0  0
  3 13  1  0  0  0  0
  3  4  1  0  0  0  0
  3 14  1  0  0  0  0
  4 15  1  0  0  0  0
  5  4  1  0  0  0  0
  5  6  1  0  0  0  0
  5 18  1  0  0  0  0
  6 20  1  0  0  0  0
  7  6  1  0  0  0  0
  8  9  2  0  0  0  0
  8  2  1  0  0  0  0
 11  1  1  0  0  0  0
 16  4  1  0  0  0  0
 17  5  1  0  0  0  0
 19  6  1  0  0  0  0
 21  7  1  0  0  0  0
 22  7  1  0  0  0  0
 23  8  1  0  0  0  0
 24 34  1  1  0  0  0
 24 23  1  0  0  0  0
 25 24  1  0  0  0  0
 25 26  1  0  0  0  0
 26 30  1  0  0  0  0
 26 27  2  0  0  0  0
 27 37  1  0  0  0  0
 27 28  1  0  0  0  0
 28 38  1  0  0  0  0
 29 28  1  0  0  0  0
 29 39  1  0  0  0  0
 30 29  2  0  0  0  0
 31 45  1  0  0  0  0
 31 24  1  0  0  0  0
 32 31  2  0  0  0  0
 33 23  1  0  0  0  0
 35 25  1  0  0  0  0
 36 25  1  0  0  0  0
 40 51  1  0  0  0  0
 40 41  1  0  0  0  0
 41 42  1  0  0  0  0
 42 53  1  0  0  0  0
 42 52  1  0  0  0  0
 43 42  1  0  0  0  0
 43 44  1  0  0  0  0
 44 56  1  1  0  0  0
 44 45  1  0  0  0  0
 45 57  1  0  0  0  0
 46 48  1  0  0  0  0
 46 44  1  0  0  0  0
 47 46  2  0  0  0  0
 49 40  1  0  0  0  0
 50 40  1  0  0  0  0
 54 43  1  0  0  0  0
 55 43  1  0  0  0  0
M  END
$$$$
