KHN.pdb
 OpenBabel07022418503D

 54 54  0  0  1  0  0  0  0  0999 V2000
    1.6150    1.1720    4.0460 N   0  0  0  0  0  0  0  0  0  0  0  0
    1.8320    0.4400    2.8320 C   0  0  1  0  0  0  0  0  0  0  0  0
    1.9420   -1.0460    3.0410 C   0  0  0  0  0  0  0  0  0  0  0  0
    3.0640   -1.4400    3.9400 C   0  0  0  0  0  0  0  0  0  0  0  0
    4.3830   -0.9740    3.3580 C   0  0  0  0  0  0  0  0  0  0  0  0
    5.4630   -1.4200    4.3410 C   0  0  0  0  0  0  0  0  0  0  0  0
    6.7290   -0.9950    3.8230 N   0  0  0  0  0  0  0  0  0  0  0  0
    0.7100    0.6660    1.8830 C   0  0  0  0  0  0  0  0  0  0  0  0
   -0.2440    1.4290    2.2300 O   0  0  0  0  0  0  0  0  0  0  0  0
    2.0200    2.1510    3.9800 H   0  0  0  0  0  0  0  0  0  0  0  0
    0.5880    1.3130    4.1610 H   0  0  0  0  0  0  0  0  0  0  0  0
    2.7480    0.8390    2.3060 H   0  0  0  0  0  0  0  0  0  0  0  0
    0.9680   -1.4290    3.3450 H   0  0  0  0  0  0  0  0  0  0  0  0
    2.1550   -1.4900    2.0320 H   0  0  0  0  0  0  0  0  0  0  0  0
    3.1110   -2.5650    3.9240 H   0  0  0  0  0  0  0  0  0  0  0  0
    2.9420   -1.1580    4.9870 H   0  0  0  0  0  0  0  0  0  0  0  0
    4.4180    0.1130    3.2250 H   0  0  0  0  0  0  0  0  0  0  0  0
    4.6000   -1.4710    2.3930 H   0  0  0  0  0  0  0  0  0  0  0  0
    5.2840   -1.0090    5.3550 H   0  0  0  0  0  0  0  0  0  0  0  0
    5.4710   -2.5280    4.4070 H   0  0  0  0  0  0  0  0  0  0  0  0
    7.0210   -1.6660    3.0820 H   0  0  0  0  0  0  0  0  0  0  0  0
    6.6910   -0.0150    3.4290 H   0  0  0  0  0  0  0  0  0  0  0  0
    0.6360    0.0840    0.6120 N   0  0  0  0  0  0  0  0  0  0  0  0
   -0.5040    0.3340   -0.3120 C   0  0  1  0  0  0  0  0  0  0  0  0
    0.0240    1.0220   -1.5280 C   0  0  0  0  0  0  0  0  0  0  0  0
   -0.9510    1.3580   -2.5690 C   0  0  0  0  0  0  0  0  0  0  0  0
   -1.6920    2.5190   -2.6690 C   0  0  0  0  0  0  0  0  0  0  0  0
   -2.4900    2.4680   -3.7680 N   0  0  0  0  0  0  0  0  0  0  0  0
   -2.2450    1.2870   -4.3450 C   0  0  0  0  0  0  0  0  0  0  0  0
   -1.3260    0.6230   -3.6290 N   0  0  0  0  0  0  0  0  0  0  0  0
   -1.1110   -0.9920   -0.5380 C   0  0  0  0  0  0  0  0  0  0  0  0
   -0.5630   -2.0660   -0.0950 O   0  0  0  0  0  0  0  0  0  0  0  0
    1.4040   -0.5470    0.2990 H   0  0  0  0  0  0  0  0  0  0  0  0
   -1.2200    1.0230    0.1830 H   0  0  0  0  0  0  0  0  0  0  0  0
    0.8990    0.4580   -1.9770 H   0  0  0  0  0  0  0  0  0  0  0  0
    0.5260    1.9690   -1.1570 H   0  0  0  0  0  0  0  0  0  0  0  0
   -1.6320    3.3320   -1.9660 H   0  0  0  0  0  0  0  0  0  0  0  0
   -3.1540    3.2040   -4.0890 H   0  0  0  0  0  0  0  0  0  0  0  0
   -2.7220    0.9390   -5.2450 H   0  0  0  0  0  0  0  0  0  0  0  0
   -5.6460   -2.2130    1.0990 N   0  0  0  0  0  0  0  0  0  0  0  0
   -4.3690   -2.2380    0.4580 C   0  0  0  0  0  0  0  0  0  0  0  0
   -3.3680   -1.9490    1.1490 O   0  0  0  0  0  0  0  0  0  0  0  0
   -4.2910   -2.5970   -0.9700 C   0  0  0  0  0  0  0  0  0  0  0  0
   -2.8710   -2.5590   -1.4250 C   0  0  2  0  0  0  0  0  0  0  0  0
   -2.3280   -1.2290   -1.2430 N   0  0  0  0  0  0  0  0  0  0  0  0
   -2.8020   -3.0190   -2.8380 C   0  0  0  0  0  0  0  0  0  0  0  0
   -2.3280   -2.3380   -3.7720 O   0  0  0  0  0  0  0  0  0  0  0  0
   -3.2970   -4.2800   -3.1260 O   0  0  0  0  0  0  0  0  0  0  0  0
   -5.8940   -1.5230    1.8320 H   0  0  0  0  0  0  0  0  0  0  0  0
   -6.3340   -2.9400    0.7860 H   0  0  0  0  0  0  0  0  0  0  0  0
   -4.7460   -3.6190   -1.0890 H   0  0  0  0  0  0  0  0  0  0  0  0
   -4.9050   -1.9120   -1.6090 H   0  0  0  0  0  0  0  0  0  0  0  0
   -2.2640   -3.2820   -0.8450 H   0  0  0  0  0  0  0  0  0  0  0  0
   -2.8470   -0.4110   -1.6260 H   0  0  0  0  0  0  0  0  0  0  0  0
  1 11  1  0  0  0  0
  2 12  1  6  0  0  0
  2  3  1  0  0  0  0
  2  1  1  0  0  0  0
  3 13  1  0  0  0  0
  3  4  1  0  0  0  0
  4 16  1  0  0  0  0
  5  4  1  0  0  0  0
  5  6  1  0  0  0  0
  6 20  1  0  0  0  0
  6 19  1  0  0  0  0
  7  6  1  0  0  0  0
  8  9  2  0  0  0  0
  8  2  1  0  0  0  0
 10  1  1  0  0  0  0
 14  3  1  0  0  0  0
 15  4  1  0  0  0  0
 17  5  1  0  0  0  0
 18  5  1  0  0  0  0
 21  7  1  0  0  0  0
 22  7  1  0  0  0  0
 23  8  1  0  0  0  0
 24 34  1  1  0  0  0
 24 23  1  0  0  0  0
 25 36  1  0  0  0  0
 25 24  1  0  0  0  0
 26 25  1  0  0  0  0
 27 26  2  0  0  0  0
 27 37  1  0  0  0  0
 28 27  1  0  0  0  0
 29 28  1  0  0  0  0
 29 30  2  0  0  0  0
 30 26  1  0  0  0  0
 31 24  1  0  0  0  0
 31 32  2  0  0  0  0
 33 23  1  0  0  0  0
 35 25  1  0  0  0  0
 38 28  1  0  0  0  0
 39 29  1  0  0  0  0
 40 49  1  0  0  0  0
 41 40  1  0  0  0  0
 41 42  2  0  0  0  0
 43 41  1  0  0  0  0
 44 45  1  0  0  0  0
 44 43  1  0  0  0  0
 44 53  1  1  0  0  0
 45 31  1  0  0  0  0
 46 44  1  0  0  0  0
 47 46  2  0  0  0  0
 48 46  1  0  0  0  0
 50 40  1  0  0  0  0
 51 43  1  0  0  0  0
 52 43  1  0  0  0  0
 54 45  1  0  0  0  0
M  END
$$$$
