KHP.pdb
 OpenBabel07022418503D

 54 55  0  0  1  0  0  0  0  0999 V2000
   -0.9280   -1.4750    3.8450 N   0  0  0  0  0  0  0  0  0  0  0  0
   -0.0120   -1.0430    2.7180 C   0  0  1  0  0  0  0  0  0  0  0  0
    0.6170   -2.2810    2.2250 C   0  0  0  0  0  0  0  0  0  0  0  0
    1.6250   -2.2080    1.1510 C   0  0  0  0  0  0  0  0  0  0  0  0
    2.8220   -1.3420    1.5210 C   0  0  0  0  0  0  0  0  0  0  0  0
    3.5270   -1.8750    2.7430 C   0  0  0  0  0  0  0  0  0  0  0  0
    4.0230   -3.2060    2.5720 N   0  0  0  0  0  0  0  0  0  0  0  0
   -0.8520   -0.2380    1.8770 C   0  0  0  0  0  0  0  0  0  0  0  0
   -2.0140    0.1010    2.2890 O   0  0  0  0  0  0  0  0  0  0  0  0
   -0.4590   -2.2110    4.3810 H   0  0  0  0  0  0  0  0  0  0  0  0
   -1.1270   -0.5990    4.3730 H   0  0  0  0  0  0  0  0  0  0  0  0
    0.7420   -0.4180    3.2890 H   0  0  0  0  0  0  0  0  0  0  0  0
   -0.2000   -2.9750    1.8910 H   0  0  0  0  0  0  0  0  0  0  0  0
    1.0840   -2.8190    3.0900 H   0  0  0  0  0  0  0  0  0  0  0  0
    2.0870   -3.2600    1.0970 H   0  0  0  0  0  0  0  0  0  0  0  0
    1.3280   -2.0070    0.1400 H   0  0  0  0  0  0  0  0  0  0  0  0
    2.5280   -0.2970    1.7210 H   0  0  0  0  0  0  0  0  0  0  0  0
    3.4860   -1.3440    0.6380 H   0  0  0  0  0  0  0  0  0  0  0  0
    4.3880   -1.2110    2.9420 H   0  0  0  0  0  0  0  0  0  0  0  0
    2.8450   -1.8500    3.5980 H   0  0  0  0  0  0  0  0  0  0  0  0
    3.3230   -3.9510    2.7710 H   0  0  0  0  0  0  0  0  0  0  0  0
    4.5440   -3.3570    1.6860 H   0  0  0  0  0  0  0  0  0  0  0  0
   -0.5260    0.2500    0.5910 N   0  0  0  0  0  0  0  0  0  0  0  0
   -1.3950    1.0780   -0.1700 C   0  0  1  0  0  0  0  0  0  0  0  0
   -0.7440    2.3560   -0.6540 C   0  0  0  0  0  0  0  0  0  0  0  0
   -0.2930    3.1300    0.5290 C   0  0  0  0  0  0  0  0  0  0  0  0
    0.9070    3.1010    1.1930 C   0  0  0  0  0  0  0  0  0  0  0  0
    0.8180    3.9870    2.1970 N   0  0  0  0  0  0  0  0  0  0  0  0
   -0.3900    4.5730    2.1920 C   0  0  0  0  0  0  0  0  0  0  0  0
   -1.0560    4.0330    1.1610 N   0  0  0  0  0  0  0  0  0  0  0  0
   -2.0810    0.4060   -1.2700 C   0  0  0  0  0  0  0  0  0  0  0  0
   -2.8960    1.2580   -1.8960 O   0  0  0  0  0  0  0  0  0  0  0  0
    0.3940    0.0360    0.1340 H   0  0  0  0  0  0  0  0  0  0  0  0
   -2.2260    1.3910    0.5370 H   0  0  0  0  0  0  0  0  0  0  0  0
    0.0540    2.1810   -1.3810 H   0  0  0  0  0  0  0  0  0  0  0  0
   -1.5190    2.9610   -1.1610 H   0  0  0  0  0  0  0  0  0  0  0  0
    1.7230    2.4690    0.9140 H   0  0  0  0  0  0  0  0  0  0  0  0
    1.5820    4.2110    2.9070 H   0  0  0  0  0  0  0  0  0  0  0  0
   -0.7330    5.3230    2.8870 H   0  0  0  0  0  0  0  0  0  0  0  0
   -2.0540   -0.8760   -1.7610 N   0  0  0  0  0  0  0  0  0  0  0  0
   -2.8990   -1.3340   -2.9010 C   0  0  0  0  0  0  0  0  0  0  0  0
   -3.4090   -2.6200   -2.2940 C   0  0  0  0  0  0  0  0  0  0  0  0
   -2.2380   -3.1990   -1.5760 C   0  0  0  0  0  0  0  0  0  0  0  0
   -1.2840   -2.0280   -1.3760 C   0  0  1  0  0  0  0  0  0  0  0  0
   -0.1050   -2.1920   -2.2990 C   0  0  0  0  0  0  0  0  0  0  0  0
    0.0760   -1.3210   -3.1670 O   0  0  0  0  0  0  0  0  0  0  0  0
    0.7430   -3.2680   -2.1910 O   0  0  0  0  0  0  0  0  0  0  0  0
   -3.7140   -0.6130   -3.0970 H   0  0  0  0  0  0  0  0  0  0  0  0
   -2.2530   -1.5230   -3.7820 H   0  0  0  0  0  0  0  0  0  0  0  0
   -3.8130   -3.3010   -3.0740 H   0  0  0  0  0  0  0  0  0  0  0  0
   -4.1890   -2.3460   -1.5520 H   0  0  0  0  0  0  0  0  0  0  0  0
   -1.7360   -3.9590   -2.2020 H   0  0  0  0  0  0  0  0  0  0  0  0
   -2.5390   -3.6280   -0.5870 H   0  0  0  0  0  0  0  0  0  0  0  0
   -0.9660   -2.0370   -0.3240 H   0  0  0  0  0  0  0  0  0  0  0  0
  1 11  1  0  0  0  0
  1 10  1  0  0  0  0
  2 12  1  1  0  0  0
  2  1  1  0  0  0  0
  3  2  1  0  0  0  0
  3 14  1  0  0  0  0
  4  5  1  0  0  0  0
  4  3  1  0  0  0  0
  5 17  1  0  0  0  0
  5  6  1  0  0  0  0
  6 19  1  0  0  0  0
  6 20  1  0  0  0  0
  7  6  1  0  0  0  0
  7 21  1  0  0  0  0
  8  9  2  0  0  0  0
  8  2  1  0  0  0  0
 13  3  1  0  0  0  0
 15  4  1  0  0  0  0
 16  4  1  0  0  0  0
 18  5  1  0  0  0  0
 22  7  1  0  0  0  0
 23  8  1  0  0  0  0
 24 34  1  1  0  0  0
 24 23  1  0  0  0  0
 25 24  1  0  0  0  0
 25 26  1  0  0  0  0
 26 30  1  0  0  0  0
 26 27  2  0  0  0  0
 27 28  1  0  0  0  0
 28 38  1  0  0  0  0
 29 28  1  0  0  0  0
 29 39  1  0  0  0  0
 30 29  2  0  0  0  0
 31 24  1  0  0  0  0
 32 31  2  0  0  0  0
 33 23  1  0  0  0  0
 35 25  1  0  0  0  0
 36 25  1  0  0  0  0
 37 27  1  0  0  0  0
 40 44  1  0  0  0  0
 40 31  1  0  0  0  0
 41 42  1  0  0  0  0
 41 40  1  0  0  0  0
 42 43  1  0  0  0  0
 42 51  1  0  0  0  0
 43 44  1  0  0  0  0
 43 53  1  0  0  0  0
 44 54  1  1  0  0  0
 45 47  1  0  0  0  0
 45 44  1  0  0  0  0
 46 45  2  0  0  0  0
 48 41  1  0  0  0  0
 49 41  1  0  0  0  0
 50 42  1  0  0  0  0
 52 43  1  0  0  0  0
M  END
$$$$
