KHR.pdb
 OpenBabel07022418503D

 63 63  0  0  1  0  0  0  0  0999 V2000
   -2.6380   -5.0920    0.3420 N   0  0  0  0  0  0  0  0  0  0  0  0
   -2.0300   -3.8390    0.7490 C   0  0  1  0  0  0  0  0  0  0  0  0
   -0.5540   -3.9520    0.6350 C   0  0  0  0  0  0  0  0  0  0  0  0
   -0.0390   -5.0580    1.5050 C   0  0  0  0  0  0  0  0  0  0  0  0
   -0.3390   -4.8530    2.9540 C   0  0  0  0  0  0  0  0  0  0  0  0
    0.2990   -3.5380    3.4130 C   0  0  0  0  0  0  0  0  0  0  0  0
    0.0260   -3.3180    4.8240 N   0  0  0  0  0  0  0  0  0  0  0  0
   -2.5960   -2.7380   -0.0700 C   0  0  0  0  0  0  0  0  0  0  0  0
   -3.4410   -3.0100   -0.9360 O   0  0  0  0  0  0  0  0  0  0  0  0
   -3.4680   -5.3420    0.9570 H   0  0  0  0  0  0  0  0  0  0  0  0
   -2.9770   -5.0800   -0.6280 H   0  0  0  0  0  0  0  0  0  0  0  0
   -2.3280   -3.6420    1.7890 H   0  0  0  0  0  0  0  0  0  0  0  0
   -0.0130   -3.0180    0.8940 H   0  0  0  0  0  0  0  0  0  0  0  0
   -0.3190   -4.2580   -0.4280 H   0  0  0  0  0  0  0  0  0  0  0  0
    1.0770   -5.1140    1.4170 H   0  0  0  0  0  0  0  0  0  0  0  0
   -0.4340   -6.0550    1.2010 H   0  0  0  0  0  0  0  0  0  0  0  0
    0.0510   -5.6930    3.5870 H   0  0  0  0  0  0  0  0  0  0  0  0
   -1.4090   -4.7650    3.1100 H   0  0  0  0  0  0  0  0  0  0  0  0
    1.3630   -3.5250    3.1730 H   0  0  0  0  0  0  0  0  0  0  0  0
   -0.2730   -2.7300    2.8800 H   0  0  0  0  0  0  0  0  0  0  0  0
    0.6680   -3.8840    5.4400 H   0  0  0  0  0  0  0  0  0  0  0  0
    0.0890   -2.3000    5.0630 H   0  0  0  0  0  0  0  0  0  0  0  0
   -2.2210   -1.3820    0.0850 N   0  0  0  0  0  0  0  0  0  0  0  0
   -2.7430   -0.2980   -0.6850 C   0  0  1  0  0  0  0  0  0  0  0  0
   -3.5320    0.6990    0.0980 C   0  0  0  0  0  0  0  0  0  0  0  0
   -2.7830    1.3640    1.1840 C   0  0  0  0  0  0  0  0  0  0  0  0
   -2.0530    2.5220    1.1270 C   0  0  0  0  0  0  0  0  0  0  0  0
   -1.5520    2.7420    2.3540 N   0  0  0  0  0  0  0  0  0  0  0  0
   -1.9600    1.7460    3.1570 C   0  0  0  0  0  0  0  0  0  0  0  0
   -2.7060    0.9160    2.4350 N   0  0  0  0  0  0  0  0  0  0  0  0
   -1.7170    0.2980   -1.5760 C   0  0  0  0  0  0  0  0  0  0  0  0
   -1.9610    1.2620   -2.3450 O   0  0  0  0  0  0  0  0  0  0  0  0
   -1.5010   -1.1860    0.8310 H   0  0  0  0  0  0  0  0  0  0  0  0
   -3.4920   -0.7670   -1.3960 H   0  0  0  0  0  0  0  0  0  0  0  0
   -4.4730    0.2400    0.4510 H   0  0  0  0  0  0  0  0  0  0  0  0
   -3.8550    1.5220   -0.6020 H   0  0  0  0  0  0  0  0  0  0  0  0
   -1.8780    3.1800    0.2730 H   0  0  0  0  0  0  0  0  0  0  0  0
   -0.9490    3.5180    2.7100 H   0  0  0  0  0  0  0  0  0  0  0  0
   -1.7190    1.6330    4.2250 H   0  0  0  0  0  0  0  0  0  0  0  0
    1.3970    3.5800    1.1900 N   0  0  0  0  0  0  0  0  0  0  0  0
    2.4770    2.7410    0.8060 C   0  0  0  0  0  0  0  0  0  0  0  0
    2.6430    1.6320    1.4500 N   0  0  0  0  0  0  0  0  0  0  0  0
    3.3790    3.0530   -0.2310 N   0  0  0  0  0  0  0  0  0  0  0  0
    3.8220    2.0780   -1.1540 C   0  0  0  0  0  0  0  0  0  0  0  0
    2.8580    1.5600   -2.1570 C   0  0  0  0  0  0  0  0  0  0  0  0
    1.6790    0.9180   -1.4920 C   0  0  0  0  0  0  0  0  0  0  0  0
    0.6570    0.3520   -2.4650 C   0  0  2  0  0  0  0  0  0  0  0  0
   -0.3940   -0.2140   -1.5880 N   0  0  0  0  0  0  0  0  0  0  0  0
    1.2250   -0.7130   -3.3110 C   0  0  0  0  0  0  0  0  0  0  0  0
    0.8230   -1.9060   -3.1580 O   0  0  0  0  0  0  0  0  0  0  0  0
    2.1800   -0.4980   -4.2790 O   0  0  0  0  0  0  0  0  0  0  0  0
    1.5210    4.0640    2.1290 H   0  0  0  0  0  0  0  0  0  0  0  0
    0.5780    3.6880    0.5890 H   0  0  0  0  0  0  0  0  0  0  0  0
    2.0380    1.3090    2.2340 H   0  0  0  0  0  0  0  0  0  0  0  0
    3.6950    4.0740   -0.2680 H   0  0  0  0  0  0  0  0  0  0  0  0
    4.3790    1.2300   -0.6370 H   0  0  0  0  0  0  0  0  0  0  0  0
    4.6630    2.5570   -1.7530 H   0  0  0  0  0  0  0  0  0  0  0  0
    2.5490    2.3160   -2.9100 H   0  0  0  0  0  0  0  0  0  0  0  0
    3.3330    0.7450   -2.7860 H   0  0  0  0  0  0  0  0  0  0  0  0
    1.9990    0.0860   -0.8390 H   0  0  0  0  0  0  0  0  0  0  0  0
    1.1280    1.6440   -0.8440 H   0  0  0  0  0  0  0  0  0  0  0  0
    0.1990    1.1580   -3.0480 H   0  0  0  0  0  0  0  0  0  0  0  0
   -0.0910   -1.0180   -0.9790 H   0  0  0  0  0  0  0  0  0  0  0  0
  1  2  1  0  0  0  0
  1 10  1  0  0  0  0
  2 12  1  1  0  0  0
  3  2  1  0  0  0  0
  3 13  1  0  0  0  0
  3  4  1  0  0  0  0
  4  5  1  0  0  0  0
  5 18  1  0  0  0  0
  5  6  1  0  0  0  0
  5 17  1  0  0  0  0
  6  7  1  0  0  0  0
  7 22  1  0  0  0  0
  7 21  1  0  0  0  0
  8 23  1  0  0  0  0
  8  2  1  0  0  0  0
  9  8  2  0  0  0  0
 11  1  1  0  0  0  0
 14  3  1  0  0  0  0
 15  4  1  0  0  0  0
 16  4  1  0  0  0  0
 19  6  1  0  0  0  0
 20  6  1  0  0  0  0
 23 33  1  0  0  0  0
 24 34  1  6  0  0  0
 24 23  1  0  0  0  0
 24 25  1  0  0  0  0
 25 35  1  0  0  0  0
 25 26  1  0  0  0  0
 26 30  1  0  0  0  0
 27 26  2  0  0  0  0
 27 28  1  0  0  0  0
 28 38  1  0  0  0  0
 28 29  1  0  0  0  0
 29 39  1  0  0  0  0
 30 29  2  0  0  0  0
 31 24  1  0  0  0  0
 32 31  2  0  0  0  0
 36 25  1  0  0  0  0
 37 27  1  0  0  0  0
 40 52  1  0  0  0  0
 41 40  1  0  0  0  0
 41 42  2  0  0  0  0
 42 54  1  0  0  0  0
 43 41  1  0  0  0  0
 44 56  1  0  0  0  0
 44 43  1  0  0  0  0
 45 46  1  0  0  0  0
 45 44  1  0  0  0  0
 46 61  1  0  0  0  0
 46 60  1  0  0  0  0
 47 62  1  6  0  0  0
 47 48  1  0  0  0  0
 47 46  1  0  0  0  0
 48 31  1  0  0  0  0
 48 63  1  0  0  0  0
 49 50  1  0  0  0  0
 49 47  1  0  0  0  0
 51 49  2  0  0  0  0
 53 40  1  0  0  0  0
 55 43  1  0  0  0  0
 57 44  1  0  0  0  0
 58 45  1  0  0  0  0
 59 45  1  0  0  0  0
M  END
$$$$
