KHS.pdb
 OpenBabel07022418503D

 51 51  0  0  1  0  0  0  0  0999 V2000
    0.6520   -3.0840    4.1030 N   0  0  0  0  0  0  0  0  0  0  0  0
    0.7470   -1.9630    3.1090 C   0  0  1  0  0  0  0  0  0  0  0  0
    1.7790   -2.4070    2.1590 C   0  0  0  0  0  0  0  0  0  0  0  0
    2.1780   -1.5250    1.0450 C   0  0  0  0  0  0  0  0  0  0  0  0
    2.7280   -0.1830    1.4830 C   0  0  0  0  0  0  0  0  0  0  0  0
    3.9450   -0.3960    2.3200 C   0  0  0  0  0  0  0  0  0  0  0  0
    4.5160    0.8710    2.7550 N   0  0  0  0  0  0  0  0  0  0  0  0
   -0.5970   -1.6810    2.6490 C   0  0  0  0  0  0  0  0  0  0  0  0
   -1.5490   -2.3880    3.1860 O   0  0  0  0  0  0  0  0  0  0  0  0
    0.5370   -3.9410    3.4880 H   0  0  0  0  0  0  0  0  0  0  0  0
    1.5960   -3.1120    4.5670 H   0  0  0  0  0  0  0  0  0  0  0  0
    1.1550   -1.1310    3.7330 H   0  0  0  0  0  0  0  0  0  0  0  0
    2.7110   -2.6020    2.7740 H   0  0  0  0  0  0  0  0  0  0  0  0
    1.5540   -3.4580    1.7720 H   0  0  0  0  0  0  0  0  0  0  0  0
    1.4960   -1.3700    0.2230 H   0  0  0  0  0  0  0  0  0  0  0  0
    3.0740   -2.0550    0.5470 H   0  0  0  0  0  0  0  0  0  0  0  0
    1.9490    0.3200    2.0950 H   0  0  0  0  0  0  0  0  0  0  0  0
    2.9360    0.4470    0.6180 H   0  0  0  0  0  0  0  0  0  0  0  0
    4.7340   -0.9590    1.7960 H   0  0  0  0  0  0  0  0  0  0  0  0
    3.7230   -0.9480    3.2630 H   0  0  0  0  0  0  0  0  0  0  0  0
    4.6560    1.5270    1.9570 H   0  0  0  0  0  0  0  0  0  0  0  0
    3.9580    1.2970    3.5330 H   0  0  0  0  0  0  0  0  0  0  0  0
   -0.9530   -0.7150    1.6880 N   0  0  0  0  0  0  0  0  0  0  0  0
   -2.3160   -0.4990    1.3250 C   0  0  1  0  0  0  0  0  0  0  0  0
   -2.7830    0.9140    1.6150 C   0  0  0  0  0  0  0  0  0  0  0  0
   -2.0130    1.9340    0.8980 C   0  0  0  0  0  0  0  0  0  0  0  0
   -2.2930    2.4420   -0.3460 C   0  0  0  0  0  0  0  0  0  0  0  0
   -1.3340    3.3560   -0.6270 N   0  0  0  0  0  0  0  0  0  0  0  0
   -0.4700    3.4310    0.4000 C   0  0  0  0  0  0  0  0  0  0  0  0
   -0.9080    2.5440    1.3340 N   0  0  0  0  0  0  0  0  0  0  0  0
   -2.5830   -0.9010   -0.0600 C   0  0  0  0  0  0  0  0  0  0  0  0
   -3.7360   -0.7170   -0.5280 O   0  0  0  0  0  0  0  0  0  0  0  0
   -0.2140   -0.1460    1.2390 H   0  0  0  0  0  0  0  0  0  0  0  0
   -2.9460   -1.1350    2.0330 H   0  0  0  0  0  0  0  0  0  0  0  0
   -3.8670    0.9480    1.3660 H   0  0  0  0  0  0  0  0  0  0  0  0
   -2.7350    1.0400    2.7300 H   0  0  0  0  0  0  0  0  0  0  0  0
   -3.0920    2.2200   -1.0360 H   0  0  0  0  0  0  0  0  0  0  0  0
   -1.2360    3.9360   -1.4890 H   0  0  0  0  0  0  0  0  0  0  0  0
    0.4000    4.0700    0.4710 H   0  0  0  0  0  0  0  0  0  0  0  0
    0.2790   -1.5430   -2.9660 O   0  0  0  0  0  0  0  0  0  0  0  0
   -1.0210   -1.1680   -3.2380 C   0  0  0  0  0  0  0  0  0  0  0  0
   -1.9350   -1.8530   -2.2390 C   0  0  2  0  0  0  0  0  0  0  0  0
   -1.6110   -1.4800   -0.8810 N   0  0  0  0  0  0  0  0  0  0  0  0
   -1.7230   -3.3260   -2.4260 C   0  0  0  0  0  0  0  0  0  0  0  0
   -1.3250   -3.9910   -1.4570 O   0  0  0  0  0  0  0  0  0  0  0  0
   -1.9520   -3.9610   -3.6180 O   0  0  0  0  0  0  0  0  0  0  0  0
    0.9070   -0.7780   -3.1420 H   0  0  0  0  0  0  0  0  0  0  0  0
   -1.1090   -0.0700   -3.1920 H   0  0  0  0  0  0  0  0  0  0  0  0
   -1.2830   -1.5520   -4.2380 H   0  0  0  0  0  0  0  0  0  0  0  0
   -2.9970   -1.5940   -2.4170 H   0  0  0  0  0  0  0  0  0  0  0  0
   -0.6460   -1.6670   -0.5630 H   0  0  0  0  0  0  0  0  0  0  0  0
  1 11  1  0  0  0  0
  2 12  1  1  0  0  0
  2  1  1  0  0  0  0
  3 13  1  0  0  0  0
  3  2  1  0  0  0  0
  4  5  1  0  0  0  0
  4  3  1  0  0  0  0
  5 17  1  0  0  0  0
  5  6  1  0  0  0  0
  6  7  1  0  0  0  0
  6 20  1  0  0  0  0
  7 22  1  0  0  0  0
  8  2  1  0  0  0  0
  8  9  2  0  0  0  0
 10  1  1  0  0  0  0
 14  3  1  0  0  0  0
 15  4  1  0  0  0  0
 16  4  1  0  0  0  0
 18  5  1  0  0  0  0
 19  6  1  0  0  0  0
 21  7  1  0  0  0  0
 23  8  1  0  0  0  0
 24 25  1  0  0  0  0
 24 23  1  0  0  0  0
 24 34  1  1  0  0  0
 25 36  1  0  0  0  0
 26 30  1  0  0  0  0
 26 25  1  0  0  0  0
 27 26  2  0  0  0  0
 28 27  1  0  0  0  0
 28 29  1  0  0  0  0
 29 39  1  0  0  0  0
 29 30  2  0  0  0  0
 31 24  1  0  0  0  0
 32 31  2  0  0  0  0
 33 23  1  0  0  0  0
 35 25  1  0  0  0  0
 37 27  1  0  0  0  0
 38 28  1  0  0  0  0
 41 48  1  0  0  0  0
 41 40  1  0  0  0  0
 41 42  1  0  0  0  0
 42 50  1  6  0  0  0
 42 43  1  0  0  0  0
 43 51  1  0  0  0  0
 43 31  1  0  0  0  0
 44 42  1  0  0  0  0
 44 45  1  0  0  0  0
 46 44  2  0  0  0  0
 47 40  1  0  0  0  0
 49 41  1  0  0  0  0
M  END
$$$$
