KHT.pdb
 OpenBabel07022418503D

 54 54  0  0  1  0  0  0  0  0999 V2000
    1.6950   -1.3950    4.0390 N   0  0  0  0  0  0  0  0  0  0  0  0
    1.5080   -0.4160    2.9850 C   0  0  1  0  0  0  0  0  0  0  0  0
    2.7380   -0.2550    2.1320 C   0  0  0  0  0  0  0  0  0  0  0  0
    3.1900   -1.4810    1.4330 C   0  0  0  0  0  0  0  0  0  0  0  0
    3.5530   -2.6480    2.2530 C   0  0  0  0  0  0  0  0  0  0  0  0
    4.6700   -2.4340    3.2270 C   0  0  0  0  0  0  0  0  0  0  0  0
    4.8620   -3.7120    3.9320 N   0  0  0  0  0  0  0  0  0  0  0  0
    0.3150   -0.7040    2.1780 C   0  0  0  0  0  0  0  0  0  0  0  0
   -0.3640   -1.7160    2.4450 O   0  0  0  0  0  0  0  0  0  0  0  0
    0.7620   -1.4330    4.5490 H   0  0  0  0  0  0  0  0  0  0  0  0
    2.3430   -0.9400    4.7370 H   0  0  0  0  0  0  0  0  0  0  0  0
    1.3440    0.5610    3.4960 H   0  0  0  0  0  0  0  0  0  0  0  0
    2.4770    0.4980    1.3480 H   0  0  0  0  0  0  0  0  0  0  0  0
    3.5320    0.2390    2.7350 H   0  0  0  0  0  0  0  0  0  0  0  0
    2.3600   -1.7970    0.7440 H   0  0  0  0  0  0  0  0  0  0  0  0
    4.0230   -1.1950    0.7540 H   0  0  0  0  0  0  0  0  0  0  0  0
    3.9210   -3.4430    1.5370 H   0  0  0  0  0  0  0  0  0  0  0  0
    2.6680   -3.1120    2.7300 H   0  0  0  0  0  0  0  0  0  0  0  0
    4.5000   -1.6650    3.9730 H   0  0  0  0  0  0  0  0  0  0  0  0
    5.6320   -2.2180    2.7190 H   0  0  0  0  0  0  0  0  0  0  0  0
    4.1300   -4.3990    3.7050 H   0  0  0  0  0  0  0  0  0  0  0  0
    5.7800   -4.1430    3.7090 H   0  0  0  0  0  0  0  0  0  0  0  0
   -0.0470    0.1620    1.1160 N   0  0  0  0  0  0  0  0  0  0  0  0
   -1.1910   -0.0520    0.2870 C   0  0  1  0  0  0  0  0  0  0  0  0
   -2.1710    1.0770    0.5120 C   0  0  0  0  0  0  0  0  0  0  0  0
   -2.6120    1.1420    1.9330 C   0  0  0  0  0  0  0  0  0  0  0  0
   -2.0590    1.8410    2.9870 C   0  0  0  0  0  0  0  0  0  0  0  0
   -2.7730    1.6180    4.0970 N   0  0  0  0  0  0  0  0  0  0  0  0
   -3.7900    0.7780    3.7730 C   0  0  0  0  0  0  0  0  0  0  0  0
   -3.6850    0.4950    2.4630 N   0  0  0  0  0  0  0  0  0  0  0  0
   -0.8580   -0.0820   -1.1590 C   0  0  0  0  0  0  0  0  0  0  0  0
    0.3370    0.0760   -1.5210 O   0  0  0  0  0  0  0  0  0  0  0  0
    0.5530    0.9920    0.9360 H   0  0  0  0  0  0  0  0  0  0  0  0
   -1.6980   -0.9790    0.6310 H   0  0  0  0  0  0  0  0  0  0  0  0
   -1.7250    2.0490    0.1930 H   0  0  0  0  0  0  0  0  0  0  0  0
   -3.0990    0.9210   -0.1080 H   0  0  0  0  0  0  0  0  0  0  0  0
   -1.1700    2.4640    2.8670 H   0  0  0  0  0  0  0  0  0  0  0  0
   -2.5610    2.0310    5.0310 H   0  0  0  0  0  0  0  0  0  0  0  0
   -4.5190    0.4410    4.5050 H   0  0  0  0  0  0  0  0  0  0  0  0
   -3.2390   -2.1130   -4.0040 C   0  0  0  0  0  0  0  0  0  0  0  0
   -1.8340   -1.6610   -4.1630 C   0  0  1  0  0  0  0  0  0  0  0  0
   -1.5340   -1.6350   -5.5240 O   0  0  0  0  0  0  0  0  0  0  0  0
   -1.5360   -0.3150   -3.5840 C   0  0  2  0  0  0  0  0  0  0  0  0
   -1.8310   -0.2820   -2.1690 N   0  0  0  0  0  0  0  0  0  0  0  0
   -2.1740    0.8020   -4.3160 C   0  0  0  0  0  0  0  0  0  0  0  0
   -2.0140    0.9110   -5.5590 O   0  0  0  0  0  0  0  0  0  0  0  0
   -2.9620    1.7690   -3.7040 O   0  0  0  0  0  0  0  0  0  0  0  0
   -3.2950   -2.8220   -3.1530 H   0  0  0  0  0  0  0  0  0  0  0  0
   -3.9530   -1.2970   -3.7640 H   0  0  0  0  0  0  0  0  0  0  0  0
   -3.5920   -2.7020   -4.9010 H   0  0  0  0  0  0  0  0  0  0  0  0
   -1.1550   -2.3920   -3.6760 H   0  0  0  0  0  0  0  0  0  0  0  0
   -1.3890   -2.5590   -5.8310 H   0  0  0  0  0  0  0  0  0  0  0  0
   -0.4300   -0.1560   -3.6730 H   0  0  0  0  0  0  0  0  0  0  0  0
   -2.8300   -0.4110   -1.8280 H   0  0  0  0  0  0  0  0  0  0  0  0
  1 10  1  0  0  0  0
  1 11  1  0  0  0  0
  2 12  1  1  0  0  0
  2  1  1  0  0  0  0
  3 14  1  0  0  0  0
  3  2  1  0  0  0  0
  4  3  1  0  0  0  0
  4  5  1  0  0  0  0
  5 18  1  0  0  0  0
  5  6  1  0  0  0  0
  6  7  1  0  0  0  0
  6 19  1  0  0  0  0
  8  9  2  0  0  0  0
  8  2  1  0  0  0  0
 13  3  1  0  0  0  0
 15  4  1  0  0  0  0
 16  4  1  0  0  0  0
 17  5  1  0  0  0  0
 20  6  1  0  0  0  0
 21  7  1  0  0  0  0
 22  7  1  0  0  0  0
 23  8  1  0  0  0  0
 24 25  1  0  0  0  0
 24 34  1  1  0  0  0
 24 23  1  0  0  0  0
 25 26  1  0  0  0  0
 26 30  1  0  0  0  0
 26 27  2  0  0  0  0
 27 28  1  0  0  0  0
 28 38  1  0  0  0  0
 29 28  1  0  0  0  0
 29 39  1  0  0  0  0
 30 29  2  0  0  0  0
 31 24  1  0  0  0  0
 32 31  2  0  0  0  0
 33 23  1  0  0  0  0
 35 25  1  0  0  0  0
 36 25  1  0  0  0  0
 37 27  1  0  0  0  0
 40 49  1  0  0  0  0
 40 48  1  0  0  0  0
 41 40  1  0  0  0  0
 41 51  1  1  0  0  0
 41 43  1  0  0  0  0
 42 41  1  0  0  0  0
 43 53  1  6  0  0  0
 43 44  1  0  0  0  0
 44 54  1  0  0  0  0
 44 31  1  0  0  0  0
 45 47  1  0  0  0  0
 45 43  1  0  0  0  0
 46 45  2  0  0  0  0
 50 40  1  0  0  0  0
 52 42  1  0  0  0  0
M  END
$$$$
