KHW.pdb
 OpenBabel07022418503D

 64 66  0  0  1  0  0  0  0  0999 V2000
   -0.8330    0.4830    3.6200 N   0  0  0  0  0  0  0  0  0  0  0  0
    0.0970    0.9610    2.6470 C   0  0  1  0  0  0  0  0  0  0  0  0
    1.3220    0.1690    2.4300 C   0  0  0  0  0  0  0  0  0  0  0  0
    1.1720   -1.2430    1.9880 C   0  0  0  0  0  0  0  0  0  0  0  0
    2.5810   -1.8350    1.8300 C   0  0  0  0  0  0  0  0  0  0  0  0
    2.5470   -3.2750    1.4010 C   0  0  0  0  0  0  0  0  0  0  0  0
    1.8540   -4.1070    2.3880 N   0  0  0  0  0  0  0  0  0  0  0  0
   -0.5790    1.4800    1.4310 C   0  0  0  0  0  0  0  0  0  0  0  0
   -1.8150    1.8070    1.5360 O   0  0  0  0  0  0  0  0  0  0  0  0
   -1.0320   -0.5190    3.6140 H   0  0  0  0  0  0  0  0  0  0  0  0
   -0.8110    0.9550    4.5260 H   0  0  0  0  0  0  0  0  0  0  0  0
    0.5030    1.9430    3.1520 H   0  0  0  0  0  0  0  0  0  0  0  0
    2.0070    0.7410    1.7570 H   0  0  0  0  0  0  0  0  0  0  0  0
    1.9110    0.1260    3.4020 H   0  0  0  0  0  0  0  0  0  0  0  0
    0.6720   -1.4030    1.0370 H   0  0  0  0  0  0  0  0  0  0  0  0
    0.6200   -1.8230    2.7530 H   0  0  0  0  0  0  0  0  0  0  0  0
    3.1140   -1.6900    2.7830 H   0  0  0  0  0  0  0  0  0  0  0  0
    3.1100   -1.2730    1.0360 H   0  0  0  0  0  0  0  0  0  0  0  0
    3.5520   -3.6530    1.1780 H   0  0  0  0  0  0  0  0  0  0  0  0
    1.9720   -3.3270    0.4490 H   0  0  0  0  0  0  0  0  0  0  0  0
    2.3970   -4.1600    3.2780 H   0  0  0  0  0  0  0  0  0  0  0  0
    1.7530   -5.0770    2.0350 H   0  0  0  0  0  0  0  0  0  0  0  0
    0.0480    1.6400    0.1690 N   0  0  0  0  0  0  0  0  0  0  0  0
   -0.5600    2.1670   -1.0110 C   0  0  1  0  0  0  0  0  0  0  0  0
    0.3640    3.0770   -1.8000 C   0  0  0  0  0  0  0  0  0  0  0  0
    0.7360    4.2050   -0.9030 C   0  0  0  0  0  0  0  0  0  0  0  0
    1.7870    4.3270   -0.0320 C   0  0  0  0  0  0  0  0  0  0  0  0
    1.6780    5.5390    0.5390 N   0  0  0  0  0  0  0  0  0  0  0  0
    0.6030    6.1830    0.0640 C   0  0  0  0  0  0  0  0  0  0  0  0
    0.0320    5.3520   -0.8230 N   0  0  0  0  0  0  0  0  0  0  0  0
   -1.1010    1.1480   -1.9230 C   0  0  0  0  0  0  0  0  0  0  0  0
   -1.5250    1.4340   -3.0740 O   0  0  0  0  0  0  0  0  0  0  0  0
    1.0490    1.3450    0.0930 H   0  0  0  0  0  0  0  0  0  0  0  0
   -1.5010    2.7660   -0.7150 H   0  0  0  0  0  0  0  0  0  0  0  0
    1.2600    2.4850   -2.0730 H   0  0  0  0  0  0  0  0  0  0  0  0
   -0.1270    3.4300   -2.7160 H   0  0  0  0  0  0  0  0  0  0  0  0
    2.5450    3.5880    0.1480 H   0  0  0  0  0  0  0  0  0  0  0  0
    2.3170    5.9710    1.2630 H   0  0  0  0  0  0  0  0  0  0  0  0
    0.2430    7.1640    0.3190 H   0  0  0  0  0  0  0  0  0  0  0  0
   -1.1770   -0.2330   -1.5310 N   0  0  0  0  0  0  0  0  0  0  0  0
   -1.7060   -1.2320   -2.4100 C   0  0  1  0  0  0  0  0  0  0  0  0
   -1.0130   -2.5060   -2.3680 C   0  0  0  0  0  0  0  0  0  0  0  0
   -0.9030   -3.3350   -1.1930 C   0  0  0  0  0  0  0  0  0  0  0  0
   -0.0940   -4.4970   -1.2060 C   0  0  0  0  0  0  0  0  0  0  0  0
   -0.1900   -5.0630   -0.0250 N   0  0  0  0  0  0  0  0  0  0  0  0
   -0.9940   -4.3940    0.8000 C   0  0  0  0  0  0  0  0  0  0  0  0
   -1.3820   -4.6120    2.1000 C   0  0  0  0  0  0  0  0  0  0  0  0
   -2.2440   -3.7450    2.7290 C   0  0  0  0  0  0  0  0  0  0  0  0
   -2.7040   -2.6620    2.0290 C   0  0  0  0  0  0  0  0  0  0  0  0
   -2.3070   -2.4580    0.7320 C   0  0  0  0  0  0  0  0  0  0  0  0
   -1.4360   -3.3060    0.0490 C   0  0  0  0  0  0  0  0  0  0  0  0
   -3.1990   -1.2940   -2.4500 C   0  0  0  0  0  0  0  0  0  0  0  0
   -3.7330   -2.1870   -3.1220 O   0  0  0  0  0  0  0  0  0  0  0  0
   -3.9500   -0.3840   -1.7620 O   0  0  0  0  0  0  0  0  0  0  0  0
   -0.8050   -0.4170   -0.5720 H   0  0  0  0  0  0  0  0  0  0  0  0
   -1.5240   -0.7320   -3.4700 H   0  0  0  0  0  0  0  0  0  0  0  0
   -1.4860   -3.1390   -3.2290 H   0  0  0  0  0  0  0  0  0  0  0  0
    0.0470   -2.3840   -2.8520 H   0  0  0  0  0  0  0  0  0  0  0  0
    0.4970   -4.8560   -2.0330 H   0  0  0  0  0  0  0  0  0  0  0  0
    0.2980   -5.9490    0.2760 H   0  0  0  0  0  0  0  0  0  0  0  0
   -1.0220   -5.4640    2.6540 H   0  0  0  0  0  0  0  0  0  0  0  0
   -2.5790   -3.8710    3.7470 H   0  0  0  0  0  0  0  0  0  0  0  0
   -3.3900   -1.9470    2.4900 H   0  0  0  0  0  0  0  0  0  0  0  0
   -2.6870   -1.6050    0.2370 H   0  0  0  0  0  0  0  0  0  0  0  0
  1 11  1  0  0  0  0
  2 12  1  1  0  0  0
  2  1  1  0  0  0  0
  3  2  1  0  0  0  0
  3 14  1  0  0  0  0
  4  3  1  0  0  0  0
  4 16  1  0  0  0  0
  5  4  1  0  0  0  0
  5 17  1  0  0  0  0
  6  5  1  0  0  0  0
  6  7  1  0  0  0  0
  7 21  1  0  0  0  0
  8  9  2  0  0  0  0
  8  2  1  0  0  0  0
 10  1  1  0  0  0  0
 13  3  1  0  0  0  0
 15  4  1  0  0  0  0
 18  5  1  0  0  0  0
 19  6  1  0  0  0  0
 20  6  1  0  0  0  0
 22  7  1  0  0  0  0
 23  8  1  0  0  0  0
 24 34  1  1  0  0  0
 24 23  1  0  0  0  0
 25 24  1  0  0  0  0
 25 26  1  0  0  0  0
 26 30  1  0  0  0  0
 26 27  2  0  0  0  0
 27 37  1  0  0  0  0
 27 28  1  0  0  0  0
 28 38  1  0  0  0  0
 29 39  1  0  0  0  0
 29 28  1  0  0  0  0
 30 29  2  0  0  0  0
 31 40  1  0  0  0  0
 31 24  1  0  0  0  0
 32 31  2  0  0  0  0
 33 23  1  0  0  0  0
 35 25  1  0  0  0  0
 36 25  1  0  0  0  0
 40 55  1  0  0  0  0
 41 56  1  6  0  0  0
 41 42  1  0  0  0  0
 41 40  1  0  0  0  0
 42 43  1  0  0  0  0
 43 51  1  0  0  0  0
 44 43  2  0  0  0  0
 44 45  1  0  0  0  0
 45 60  1  0  0  0  0
 45 46  1  0  0  0  0
 46 47  1  0  0  0  0
 47 61  1  0  0  0  0
 47 48  2  0  0  0  0
 48 62  1  0  0  0  0
 49 63  1  0  0  0  0
 49 48  1  0  0  0  0
 50 49  2  0  0  0  0
 51 50  1  0  0  0  0
 51 46  2  0  0  0  0
 52 41  1  0  0  0  0
 52 54  1  0  0  0  0
 53 52  2  0  0  0  0
 57 42  1  0  0  0  0
 58 42  1  0  0  0  0
 59 44  1  0  0  0  0
 64 50  1  0  0  0  0
M  END
$$$$
