KHY.pdb
 OpenBabel07022418503D

 61 62  0  0  1  0  0  0  0  0999 V2000
    2.5720    0.6720    3.7230 N   0  0  0  0  0  0  0  0  0  0  0  0
    2.0490    0.2570    2.4370 C   0  0  1  0  0  0  0  0  0  0  0  0
    2.1420   -1.2560    2.3460 C   0  0  0  0  0  0  0  0  0  0  0  0
    3.5870   -1.6580    2.4790 C   0  0  0  0  0  0  0  0  0  0  0  0
    4.4630   -1.0710    1.4060 C   0  0  0  0  0  0  0  0  0  0  0  0
    4.0330   -1.4980    0.0250 C   0  0  0  0  0  0  0  0  0  0  0  0
    4.9260   -0.8890   -0.9360 N   0  0  0  0  0  0  0  0  0  0  0  0
    0.5930    0.6330    2.4040 C   0  0  0  0  0  0  0  0  0  0  0  0
    0.0360    1.2010    3.3780 O   0  0  0  0  0  0  0  0  0  0  0  0
    2.0590    0.1030    4.4460 H   0  0  0  0  0  0  0  0  0  0  0  0
    2.3240    1.6950    3.8630 H   0  0  0  0  0  0  0  0  0  0  0  0
    2.6250    0.7560    1.6550 H   0  0  0  0  0  0  0  0  0  0  0  0
    1.6830   -1.6180    1.4140 H   0  0  0  0  0  0  0  0  0  0  0  0
    1.6000   -1.7010    3.2030 H   0  0  0  0  0  0  0  0  0  0  0  0
    3.6950   -2.7610    2.4530 H   0  0  0  0  0  0  0  0  0  0  0  0
    3.9530   -1.2320    3.4520 H   0  0  0  0  0  0  0  0  0  0  0  0
    4.5260    0.0350    1.4880 H   0  0  0  0  0  0  0  0  0  0  0  0
    5.4860   -1.4690    1.5690 H   0  0  0  0  0  0  0  0  0  0  0  0
    4.0660   -2.6070   -0.0160 H   0  0  0  0  0  0  0  0  0  0  0  0
    3.0060   -1.1940   -0.2280 H   0  0  0  0  0  0  0  0  0  0  0  0
    5.3210   -1.5760   -1.6200 H   0  0  0  0  0  0  0  0  0  0  0  0
    4.5210   -0.0500   -1.3990 H   0  0  0  0  0  0  0  0  0  0  0  0
   -0.2140    0.3580    1.2650 N   0  0  0  0  0  0  0  0  0  0  0  0
   -1.6080    0.6980    1.1860 C   0  0  1  0  0  0  0  0  0  0  0  0
   -1.9370    1.5550    0.0050 C   0  0  0  0  0  0  0  0  0  0  0  0
   -1.1940    2.8400    0.0350 C   0  0  0  0  0  0  0  0  0  0  0  0
   -1.2370    3.8740   -0.8740 C   0  0  0  0  0  0  0  0  0  0  0  0
   -0.3950    4.8140   -0.4190 N   0  0  0  0  0  0  0  0  0  0  0  0
    0.1720    4.4160    0.7310 C   0  0  0  0  0  0  0  0  0  0  0  0
   -0.3230    3.2110    0.9980 N   0  0  0  0  0  0  0  0  0  0  0  0
   -2.4690   -0.5390    1.1980 C   0  0  0  0  0  0  0  0  0  0  0  0
   -3.6930   -0.3770    1.1340 O   0  0  0  0  0  0  0  0  0  0  0  0
    0.2650   -0.1240    0.4460 H   0  0  0  0  0  0  0  0  0  0  0  0
   -1.8940    1.2360    2.1130 H   0  0  0  0  0  0  0  0  0  0  0  0
   -3.0100    1.7430   -0.1130 H   0  0  0  0  0  0  0  0  0  0  0  0
   -1.6150    1.0490   -0.9520 H   0  0  0  0  0  0  0  0  0  0  0  0
   -1.8520    3.8610   -1.7590 H   0  0  0  0  0  0  0  0  0  0  0  0
   -0.1920    5.7260   -0.8710 H   0  0  0  0  0  0  0  0  0  0  0  0
    0.8910    4.9270    1.3580 H   0  0  0  0  0  0  0  0  0  0  0  0
   -3.2010   -1.3680   -4.8750 O   0  0  0  0  0  0  0  0  0  0  0  0
   -2.9840   -1.9960   -3.6510 C   0  0  0  0  0  0  0  0  0  0  0  0
   -1.7750   -1.9090   -2.9920 C   0  0  0  0  0  0  0  0  0  0  0  0
   -1.5820   -2.5400   -1.7780 C   0  0  0  0  0  0  0  0  0  0  0  0
   -2.5750   -3.2800   -1.1700 C   0  0  0  0  0  0  0  0  0  0  0  0
   -2.3510   -3.9560    0.1420 C   0  0  0  0  0  0  0  0  0  0  0  0
   -2.7190   -3.0440    1.2920 C   0  0  2  0  0  0  0  0  0  0  0  0
   -1.9200   -1.8260    1.2780 N   0  0  0  0  0  0  0  0  0  0  0  0
   -2.4550   -3.7680    2.5620 C   0  0  0  0  0  0  0  0  0  0  0  0
   -3.0530   -4.8660    2.7840 O   0  0  0  0  0  0  0  0  0  0  0  0
   -3.7810   -3.3630   -1.8340 C   0  0  0  0  0  0  0  0  0  0  0  0
   -3.9810   -2.7350   -3.0470 C   0  0  0  0  0  0  0  0  0  0  0  0
   -1.5780   -3.2990    3.5300 O   0  0  0  0  0  0  0  0  0  0  0  0
   -3.7900   -0.5460   -4.9430 H   0  0  0  0  0  0  0  0  0  0  0  0
   -0.9780   -1.3300   -3.4540 H   0  0  0  0  0  0  0  0  0  0  0  0
   -0.6110   -2.4590   -1.2670 H   0  0  0  0  0  0  0  0  0  0  0  0
   -2.9470   -4.8670    0.1930 H   0  0  0  0  0  0  0  0  0  0  0  0
   -1.2780   -4.2190    0.2060 H   0  0  0  0  0  0  0  0  0  0  0  0
   -3.7900   -2.8410    1.2330 H   0  0  0  0  0  0  0  0  0  0  0  0
   -0.8810   -1.9110    1.3300 H   0  0  0  0  0  0  0  0  0  0  0  0
   -4.5670   -3.9490   -1.3510 H   0  0  0  0  0  0  0  0  0  0  0  0
   -4.9460   -2.8100   -3.5630 H   0  0  0  0  0  0  0  0  0  0  0  0
  1 11  1  0  0  0  0
  1 10  1  0  0  0  0
  2 12  1  6  0  0  0
  2  1  1  0  0  0  0
  3  2  1  0  0  0  0
  3  4  1  0  0  0  0
  3 14  1  0  0  0  0
  4 16  1  0  0  0  0
  5 17  1  0  0  0  0
  5 18  1  0  0  0  0
  5  4  1  0  0  0  0
  6  5  1  0  0  0  0
  7  6  1  0  0  0  0
  8  2  1  0  0  0  0
  8  9  2  0  0  0  0
 13  3  1  0  0  0  0
 15  4  1  0  0  0  0
 19  6  1  0  0  0  0
 20  6  1  0  0  0  0
 21  7  1  0  0  0  0
 22  7  1  0  0  0  0
 23  8  1  0  0  0  0
 24 31  1  0  0  0  0
 24 23  1  0  0  0  0
 24 34  1  1  0  0  0
 25 26  1  0  0  0  0
 25 24  1  0  0  0  0
 26 30  1  0  0  0  0
 27 28  1  0  0  0  0
 27 26  2  0  0  0  0
 28 29  1  0  0  0  0
 29 30  2  0  0  0  0
 29 39  1  0  0  0  0
 31 47  1  0  0  0  0
 32 31  2  0  0  0  0
 33 23  1  0  0  0  0
 35 25  1  0  0  0  0
 36 25  1  0  0  0  0
 37 27  1  0  0  0  0
 38 28  1  0  0  0  0
 40 41  1  0  0  0  0
 41 51  2  0  0  0  0
 41 42  1  0  0  0  0
 42 43  2  0  0  0  0
 43 55  1  0  0  0  0
 43 44  1  0  0  0  0
 44 45  1  0  0  0  0
 45 56  1  0  0  0  0
 45 57  1  0  0  0  0
 45 46  1  0  0  0  0
 46 58  1  6  0  0  0
 46 48  1  0  0  0  0
 47 46  1  0  0  0  0
 47 59  1  0  0  0  0
 48 49  2  0  0  0  0
 48 52  1  0  0  0  0
 50 60  1  0  0  0  0
 50 44  2  0  0  0  0
 51 50  1  0  0  0  0
 53 40  1  0  0  0  0
 54 42  1  0  0  0  0
 61 51  1  0  0  0  0
M  END
$$$$
