KIC.pdb
 OpenBabel07022418503D

 53 52  0  0  1  0  0  0  0  0999 V2000
   -1.3030   -2.8120    2.1470 N   0  0  0  0  0  0  0  0  0  0  0  0
   -0.9460   -1.5760    2.7790 C   0  0  1  0  0  0  0  0  0  0  0  0
    0.1810   -1.7750    3.8040 C   0  0  0  0  0  0  0  0  0  0  0  0
    1.3830   -2.3150    3.1440 C   0  0  0  0  0  0  0  0  0  0  0  0
    2.5640   -2.5750    3.9740 C   0  0  0  0  0  0  0  0  0  0  0  0
    3.1640   -1.4320    4.6970 C   0  0  0  0  0  0  0  0  0  0  0  0
    2.2350   -0.8280    5.6160 N   0  0  0  0  0  0  0  0  0  0  0  0
   -0.4490   -0.5420    1.8340 C   0  0  0  0  0  0  0  0  0  0  0  0
   -0.1230    0.5630    2.3130 O   0  0  0  0  0  0  0  0  0  0  0  0
   -2.0000   -3.2930    2.7910 H   0  0  0  0  0  0  0  0  0  0  0  0
   -1.7740   -2.7060    1.2400 H   0  0  0  0  0  0  0  0  0  0  0  0
   -1.8430   -1.1780    3.2960 H   0  0  0  0  0  0  0  0  0  0  0  0
   -0.2380   -2.4470    4.5810 H   0  0  0  0  0  0  0  0  0  0  0  0
    0.2920   -0.7780    4.2710 H   0  0  0  0  0  0  0  0  0  0  0  0
    1.0820   -3.2230    2.5700 H   0  0  0  0  0  0  0  0  0  0  0  0
    1.6820   -1.5790    2.3390 H   0  0  0  0  0  0  0  0  0  0  0  0
    3.3800   -3.0800    3.3960 H   0  0  0  0  0  0  0  0  0  0  0  0
    2.2840   -3.3460    4.7540 H   0  0  0  0  0  0  0  0  0  0  0  0
    3.6730   -0.6920    4.0470 H   0  0  0  0  0  0  0  0  0  0  0  0
    3.9950   -1.8530    5.3410 H   0  0  0  0  0  0  0  0  0  0  0  0
    2.6670   -0.0210    6.1270 H   0  0  0  0  0  0  0  0  0  0  0  0
    1.9740   -1.5180    6.3550 H   0  0  0  0  0  0  0  0  0  0  0  0
    3.2030    0.7930   -2.5540 C   0  0  0  0  0  0  0  0  0  0  0  0
    1.8220    1.1590   -1.9870 C   0  0  0  0  0  0  0  0  0  0  0  0
    1.3840   -0.0090   -1.1390 C   0  0  2  0  0  0  0  0  0  0  0  0
    1.3040   -1.2090   -2.0500 C   0  0  0  0  0  0  0  0  0  0  0  0
    0.1670    0.3310   -0.3930 C   0  0  2  0  0  0  0  0  0  0  0  0
   -0.3250   -0.7270    0.4580 N   0  0  0  0  0  0  0  0  0  0  0  0
   -0.9540    0.7450   -1.2510 C   0  0  0  0  0  0  0  0  0  0  0  0
   -0.9280    1.6790   -2.0820 O   0  0  0  0  0  0  0  0  0  0  0  0
    3.4640   -0.2640   -2.3420 H   0  0  0  0  0  0  0  0  0  0  0  0
    3.9960    1.4150   -2.0890 H   0  0  0  0  0  0  0  0  0  0  0  0
    3.1870    0.8810   -3.6650 H   0  0  0  0  0  0  0  0  0  0  0  0
    1.9490    2.1010   -1.4310 H   0  0  0  0  0  0  0  0  0  0  0  0
    1.1400    1.3720   -2.8410 H   0  0  0  0  0  0  0  0  0  0  0  0
    2.2560   -0.1280   -0.4130 H   0  0  0  0  0  0  0  0  0  0  0  0
    0.3280   -1.7370   -1.9710 H   0  0  0  0  0  0  0  0  0  0  0  0
    1.4060   -0.9350   -3.1290 H   0  0  0  0  0  0  0  0  0  0  0  0
    2.1270   -1.9350   -1.8550 H   0  0  0  0  0  0  0  0  0  0  0  0
    0.3960    1.2050    0.2610 H   0  0  0  0  0  0  0  0  0  0  0  0
   -0.5780   -1.6220   -0.0010 H   0  0  0  0  0  0  0  0  0  0  0  0
   -2.2250    0.0550   -1.1790 N   0  0  0  0  0  0  0  0  0  0  0  0
   -3.3420    0.4440   -2.0130 C   0  0  1  0  0  0  0  0  0  0  0  0
   -3.7010   -0.7210   -2.9310 C   0  0  0  0  0  0  0  0  0  0  0  0
   -4.1600   -2.1800   -1.9960 S   0  0  0  0  0  0  0  0  0  0  0  0
   -4.5040    0.8550   -1.1930 C   0  0  0  0  0  0  0  0  0  0  0  0
   -4.4020    0.8240    0.0530 O   0  0  0  0  0  0  0  0  0  0  0  0
   -5.6820    1.2660   -1.7760 O   0  0  0  0  0  0  0  0  0  0  0  0
   -2.3420   -0.7420   -0.5100 H   0  0  0  0  0  0  0  0  0  0  0  0
   -3.0160    1.3000   -2.6480 H   0  0  0  0  0  0  0  0  0  0  0  0
   -4.5580   -0.3800   -3.5580 H   0  0  0  0  0  0  0  0  0  0  0  0
   -2.8550   -0.8760   -3.6220 H   0  0  0  0  0  0  0  0  0  0  0  0
   -4.1510   -3.2850   -2.8830 H   0  0  0  0  0  0  0  0  0  0  0  0
  1  2  1  0  0  0  0
  1 10  1  0  0  0  0
  2 12  1  1  0  0  0
  2  3  1  0  0  0  0
  3 14  1  0  0  0  0
  3 13  1  0  0  0  0
  4  3  1  0  0  0  0
  4  5  1  0  0  0  0
  5  6  1  0  0  0  0
  5 18  1  0  0  0  0
  6 20  1  0  0  0  0
  6  7  1  0  0  0  0
  7 21  1  0  0  0  0
  7 22  1  0  0  0  0
  8  9  2  0  0  0  0
  8  2  1  0  0  0  0
 11  1  1  0  0  0  0
 15  4  1  0  0  0  0
 16  4  1  0  0  0  0
 17  5  1  0  0  0  0
 19  6  1  0  0  0  0
 23 31  1  0  0  0  0
 23 32  1  0  0  0  0
 23 24  1  0  0  0  0
 24 34  1  0  0  0  0
 24 25  1  0  0  0  0
 25 36  1  1  0  0  0
 25 27  1  0  0  0  0
 26 37  1  0  0  0  0
 26 39  1  0  0  0  0
 26 25  1  0  0  0  0
 27 40  1  1  0  0  0
 27 28  1  0  0  0  0
 28  8  1  0  0  0  0
 29 42  1  0  0  0  0
 29 27  1  0  0  0  0
 30 29  2  0  0  0  0
 33 23  1  0  0  0  0
 35 24  1  0  0  0  0
 38 26  1  0  0  0  0
 41 28  1  0  0  0  0
 42 49  1  0  0  0  0
 43 50  1  6  0  0  0
 43 46  1  0  0  0  0
 43 42  1  0  0  0  0
 44 43  1  0  0  0  0
 44 45  1  0  0  0  0
 46 47  1  0  0  0  0
 48 46  2  0  0  0  0
 51 44  1  0  0  0  0
 52 44  1  0  0  0  0
 53 45  1  0  0  0  0
M  END
$$$$
