KID.pdb
 OpenBabel07022418503D

 55 54  0  0  1  0  0  0  0  0999 V2000
    1.6950    0.7920    4.1540 N   0  0  0  0  0  0  0  0  0  0  0  0
    1.8140    0.0240    2.8970 C   0  0  1  0  0  0  0  0  0  0  0  0
    1.9470   -1.3830    3.3210 C   0  0  0  0  0  0  0  0  0  0  0  0
    2.0890   -2.4490    2.3350 C   0  0  0  0  0  0  0  0  0  0  0  0
    3.2650   -2.3800    1.4190 C   0  0  0  0  0  0  0  0  0  0  0  0
    4.5700   -2.4110    2.2080 C   0  0  0  0  0  0  0  0  0  0  0  0
    5.7140   -2.3450    1.3480 N   0  0  0  0  0  0  0  0  0  0  0  0
    0.5760    0.3330    2.1230 C   0  0  0  0  0  0  0  0  0  0  0  0
   -0.3440    1.0630    2.6310 O   0  0  0  0  0  0  0  0  0  0  0  0
    0.8390    0.4850    4.6870 H   0  0  0  0  0  0  0  0  0  0  0  0
    2.5610    0.7100    4.7160 H   0  0  0  0  0  0  0  0  0  0  0  0
    2.6500    0.4570    2.3620 H   0  0  0  0  0  0  0  0  0  0  0  0
    2.8040   -1.4360    4.0460 H   0  0  0  0  0  0  0  0  0  0  0  0
    1.0480   -1.6280    3.9620 H   0  0  0  0  0  0  0  0  0  0  0  0
    2.2350   -3.4100    2.9240 H   0  0  0  0  0  0  0  0  0  0  0  0
    1.1350   -2.6340    1.8040 H   0  0  0  0  0  0  0  0  0  0  0  0
    3.3150   -1.5290    0.7570 H   0  0  0  0  0  0  0  0  0  0  0  0
    3.2660   -3.3010    0.7900 H   0  0  0  0  0  0  0  0  0  0  0  0
    4.5940   -3.3790    2.7630 H   0  0  0  0  0  0  0  0  0  0  0  0
    4.5770   -1.5810    2.9500 H   0  0  0  0  0  0  0  0  0  0  0  0
    5.4610   -1.9800    0.4050 H   0  0  0  0  0  0  0  0  0  0  0  0
    6.4900   -1.7850    1.7260 H   0  0  0  0  0  0  0  0  0  0  0  0
    0.7370    3.0180   -1.8270 C   0  0  0  0  0  0  0  0  0  0  0  0
    0.3170    2.2590   -0.5930 C   0  0  0  0  0  0  0  0  0  0  0  0
   -0.4730    1.0390   -1.0810 C   0  0  2  0  0  0  0  0  0  0  0  0
   -1.6700    1.5020   -1.8620 C   0  0  0  0  0  0  0  0  0  0  0  0
   -0.8830    0.2000    0.1370 C   0  0  2  0  0  0  0  0  0  0  0  0
    0.3800   -0.1660    0.8120 N   0  0  0  0  0  0  0  0  0  0  0  0
   -1.5280   -1.0290   -0.3630 C   0  0  0  0  0  0  0  0  0  0  0  0
   -0.8540   -2.1100   -0.2760 O   0  0  0  0  0  0  0  0  0  0  0  0
    0.1170    3.9270   -1.9880 H   0  0  0  0  0  0  0  0  0  0  0  0
    1.7950    3.3660   -1.7690 H   0  0  0  0  0  0  0  0  0  0  0  0
    0.6080    2.4010   -2.7640 H   0  0  0  0  0  0  0  0  0  0  0  0
    1.1580    1.9500    0.0410 H   0  0  0  0  0  0  0  0  0  0  0  0
   -0.4060    2.8960   -0.0310 H   0  0  0  0  0  0  0  0  0  0  0  0
    0.1510    0.4080   -1.7320 H   0  0  0  0  0  0  0  0  0  0  0  0
   -1.4150    2.4380   -2.4530 H   0  0  0  0  0  0  0  0  0  0  0  0
   -2.4840    1.8160   -1.1770 H   0  0  0  0  0  0  0  0  0  0  0  0
   -2.0650    0.7900   -2.5860 H   0  0  0  0  0  0  0  0  0  0  0  0
   -1.4980    0.8260    0.7800 H   0  0  0  0  0  0  0  0  0  0  0  0
    1.0860   -0.7590    0.3400 H   0  0  0  0  0  0  0  0  0  0  0  0
   -2.8130   -1.1220   -0.9190 N   0  0  0  0  0  0  0  0  0  0  0  0
   -3.3160   -2.4210   -1.3570 C   0  0  1  0  0  0  0  0  0  0  0  0
   -4.6790   -2.6070   -0.7390 C   0  0  0  0  0  0  0  0  0  0  0  0
   -4.5990   -2.5720    0.7350 C   0  0  0  0  0  0  0  0  0  0  0  0
   -3.4810   -2.4020    1.2720 O   0  0  0  0  0  0  0  0  0  0  0  0
   -3.5030   -2.4110   -2.8160 C   0  0  0  0  0  0  0  0  0  0  0  0
   -3.9350   -3.4890   -3.3370 O   0  0  0  0  0  0  0  0  0  0  0  0
   -5.7420   -2.7250    1.5340 O   0  0  0  0  0  0  0  0  0  0  0  0
   -3.2640   -1.3710   -3.6720 O   0  0  0  0  0  0  0  0  0  0  0  0
   -3.4200   -0.3130   -1.0190 H   0  0  0  0  0  0  0  0  0  0  0  0
   -2.5860   -3.2260   -1.0660 H   0  0  0  0  0  0  0  0  0  0  0  0
   -5.1440   -3.5420   -1.1150 H   0  0  0  0  0  0  0  0  0  0  0  0
   -5.3060   -1.7730   -1.1140 H   0  0  0  0  0  0  0  0  0  0  0  0
   -5.7690   -2.3220    2.4810 H   0  0  0  0  0  0  0  0  0  0  0  0
  1 10  1  0  0  0  0
  1 11  1  0  0  0  0
  2 12  1  6  0  0  0
  2  3  1  0  0  0  0
  2  1  1  0  0  0  0
  3 14  1  0  0  0  0
  3 13  1  0  0  0  0
  4 15  1  0  0  0  0
  4  3  1  0  0  0  0
  5  6  1  0  0  0  0
  5  4  1  0  0  0  0
  6 19  1  0  0  0  0
  6 20  1  0  0  0  0
  7 22  1  0  0  0  0
  7  6  1  0  0  0  0
  8  9  2  0  0  0  0
  8  2  1  0  0  0  0
 16  4  1  0  0  0  0
 17  5  1  0  0  0  0
 18  5  1  0  0  0  0
 21  7  1  0  0  0  0
 23 32  1  0  0  0  0
 23 24  1  0  0  0  0
 24 35  1  0  0  0  0
 24 34  1  0  0  0  0
 25 36  1  6  0  0  0
 25 24  1  0  0  0  0
 25 27  1  0  0  0  0
 26 38  1  0  0  0  0
 26 25  1  0  0  0  0
 27 40  1  1  0  0  0
 27 28  1  0  0  0  0
 28  8  1  0  0  0  0
 29 30  2  0  0  0  0
 29 27  1  0  0  0  0
 31 23  1  0  0  0  0
 33 23  1  0  0  0  0
 37 26  1  0  0  0  0
 39 26  1  0  0  0  0
 41 28  1  0  0  0  0
 42 29  1  0  0  0  0
 43 52  1  1  0  0  0
 43 42  1  0  0  0  0
 43 44  1  0  0  0  0
 44 45  1  0  0  0  0
 45 46  2  0  0  0  0
 45 49  1  0  0  0  0
 47 43  1  0  0  0  0
 48 47  1  0  0  0  0
 49 55  1  0  0  0  0
 50 47  2  0  0  0  0
 51 42  1  0  0  0  0
 53 44  1  0  0  0  0
 54 44  1  0  0  0  0
M  END
$$$$
