KIF.pdb
 OpenBabel07022418513D

 62 62  0  0  1  0  0  0  0  0999 V2000
   -0.2070    2.0890    3.2250 N   0  0  0  0  0  0  0  0  0  0  0  0
    0.7680    2.2250    2.1760 C   0  0  1  0  0  0  0  0  0  0  0  0
    2.0900    1.6910    2.6050 C   0  0  0  0  0  0  0  0  0  0  0  0
    2.0800    0.2420    2.9830 C   0  0  0  0  0  0  0  0  0  0  0  0
    3.4350   -0.2560    3.4110 C   0  0  0  0  0  0  0  0  0  0  0  0
    3.2820   -1.7290    3.7650 C   0  0  0  0  0  0  0  0  0  0  0  0
    4.5880   -2.2090    4.1780 N   0  0  0  0  0  0  0  0  0  0  0  0
    0.2640    1.6680    0.8960 C   0  0  0  0  0  0  0  0  0  0  0  0
    1.0240    1.7150   -0.1010 O   0  0  0  0  0  0  0  0  0  0  0  0
    0.1500    2.5250    4.1030 H   0  0  0  0  0  0  0  0  0  0  0  0
   -0.4170    1.1040    3.4230 H   0  0  0  0  0  0  0  0  0  0  0  0
    0.9120    3.3410    2.0500 H   0  0  0  0  0  0  0  0  0  0  0  0
    2.4270    2.2610    3.4940 H   0  0  0  0  0  0  0  0  0  0  0  0
    2.8710    1.8550    1.8290 H   0  0  0  0  0  0  0  0  0  0  0  0
    1.7540   -0.3510    2.1060 H   0  0  0  0  0  0  0  0  0  0  0  0
    1.3850    0.0960    3.8350 H   0  0  0  0  0  0  0  0  0  0  0  0
    3.8060    0.2720    4.3150 H   0  0  0  0  0  0  0  0  0  0  0  0
    4.1990   -0.1410    2.6110 H   0  0  0  0  0  0  0  0  0  0  0  0
    2.5320   -1.8080    4.5680 H   0  0  0  0  0  0  0  0  0  0  0  0
    2.9830   -2.2890    2.8590 H   0  0  0  0  0  0  0  0  0  0  0  0
    4.5260   -3.2270    4.3740 H   0  0  0  0  0  0  0  0  0  0  0  0
    5.2940   -1.9480    3.4770 H   0  0  0  0  0  0  0  0  0  0  0  0
   -2.6370    3.3580    0.3010 C   0  0  0  0  0  0  0  0  0  0  0  0
   -2.7610    2.6990   -1.0160 C   0  0  0  0  0  0  0  0  0  0  0  0
   -1.7770    1.6450   -1.3810 C   0  0  2  0  0  0  0  0  0  0  0  0
   -2.1520    1.1690   -2.7790 C   0  0  0  0  0  0  0  0  0  0  0  0
   -1.5660    0.5620   -0.3900 C   0  0  2  0  0  0  0  0  0  0  0  0
   -1.0460    1.1180    0.8740 N   0  0  0  0  0  0  0  0  0  0  0  0
   -0.7120   -0.5600   -0.8250 C   0  0  0  0  0  0  0  0  0  0  0  0
    0.4090   -0.7930   -0.2330 O   0  0  0  0  0  0  0  0  0  0  0  0
   -1.6260    3.7320    0.5080 H   0  0  0  0  0  0  0  0  0  0  0  0
   -3.2590    4.3190    0.2230 H   0  0  0  0  0  0  0  0  0  0  0  0
   -3.1010    2.8010    1.1500 H   0  0  0  0  0  0  0  0  0  0  0  0
   -3.8250    2.3270   -1.1000 H   0  0  0  0  0  0  0  0  0  0  0  0
   -2.6830    3.4950   -1.8140 H   0  0  0  0  0  0  0  0  0  0  0  0
   -0.7790    2.1830   -1.4760 H   0  0  0  0  0  0  0  0  0  0  0  0
   -1.3360    0.6700   -3.2990 H   0  0  0  0  0  0  0  0  0  0  0  0
   -3.0840    0.5800   -2.7410 H   0  0  0  0  0  0  0  0  0  0  0  0
   -2.4560    2.1170   -3.3180 H   0  0  0  0  0  0  0  0  0  0  0  0
   -2.5810    0.1470   -0.1250 H   0  0  0  0  0  0  0  0  0  0  0  0
   -1.6130    1.1080    1.7590 H   0  0  0  0  0  0  0  0  0  0  0  0
   -0.9940   -1.4690   -1.8770 N   0  0  0  0  0  0  0  0  0  0  0  0
   -0.0540   -2.5490   -2.2220 C   0  0  1  0  0  0  0  0  0  0  0  0
   -0.7630   -3.8870   -2.1820 C   0  0  0  0  0  0  0  0  0  0  0  0
   -1.3290   -4.2140   -0.8720 C   0  0  0  0  0  0  0  0  0  0  0  0
   -0.6210   -4.8980    0.0910 C   0  0  0  0  0  0  0  0  0  0  0  0
   -1.1720   -5.1970    1.3190 C   0  0  0  0  0  0  0  0  0  0  0  0
   -2.4820   -4.8030    1.6090 C   0  0  0  0  0  0  0  0  0  0  0  0
   -3.1940   -4.1210    0.6520 C   0  0  0  0  0  0  0  0  0  0  0  0
   -2.6170   -3.8320   -0.5750 C   0  0  0  0  0  0  0  0  0  0  0  0
    0.4580   -2.3690   -3.6030 C   0  0  0  0  0  0  0  0  0  0  0  0
    0.1130   -1.4170   -4.3420 O   0  0  0  0  0  0  0  0  0  0  0  0
    1.3590   -3.2920   -4.1060 O   0  0  0  0  0  0  0  0  0  0  0  0
   -1.8900   -1.3800   -2.3960 H   0  0  0  0  0  0  0  0  0  0  0  0
    0.8210   -2.5080   -1.5480 H   0  0  0  0  0  0  0  0  0  0  0  0
   -0.1270   -4.6970   -2.5900 H   0  0  0  0  0  0  0  0  0  0  0  0
   -1.6130   -3.7980   -2.9140 H   0  0  0  0  0  0  0  0  0  0  0  0
    0.4110   -5.2320   -0.0810 H   0  0  0  0  0  0  0  0  0  0  0  0
   -0.6080   -5.7350    2.0700 H   0  0  0  0  0  0  0  0  0  0  0  0
   -2.9020   -5.0440    2.5760 H   0  0  0  0  0  0  0  0  0  0  0  0
   -4.1940   -3.8080    0.8460 H   0  0  0  0  0  0  0  0  0  0  0  0
   -3.2050   -3.2950   -1.3010 H   0  0  0  0  0  0  0  0  0  0  0  0
  1 11  1  0  0  0  0
  1 10  1  0  0  0  0
  2 12  1  6  0  0  0
  2  3  1  0  0  0  0
  2  1  1  0  0  0  0
  3  4  1  0  0  0  0
  3 13  1  0  0  0  0
  4  5  1  0  0  0  0
  4 16  1  0  0  0  0
  5  6  1  0  0  0  0
  5 17  1  0  0  0  0
  6  7  1  0  0  0  0
  6 19  1  0  0  0  0
  7 21  1  0  0  0  0
  8  2  1  0  0  0  0
  9  8  2  0  0  0  0
 14  3  1  0  0  0  0
 15  4  1  0  0  0  0
 18  5  1  0  0  0  0
 20  6  1  0  0  0  0
 22  7  1  0  0  0  0
 23 31  1  0  0  0  0
 23 33  1  0  0  0  0
 24 23  1  0  0  0  0
 25 36  1  6  0  0  0
 25 24  1  0  0  0  0
 25 27  1  0  0  0  0
 26 38  1  0  0  0  0
 26 25  1  0  0  0  0
 27 40  1  1  0  0  0
 27 28  1  0  0  0  0
 28  8  1  0  0  0  0
 28 41  1  0  0  0  0
 29 27  1  0  0  0  0
 29 30  2  0  0  0  0
 32 23  1  0  0  0  0
 34 24  1  0  0  0  0
 35 24  1  0  0  0  0
 37 26  1  0  0  0  0
 39 26  1  0  0  0  0
 42 29  1  0  0  0  0
 43 44  1  0  0  0  0
 43 42  1  0  0  0  0
 43 55  1  1  0  0  0
 44 45  1  0  0  0  0
 45 50  2  0  0  0  0
 45 46  1  0  0  0  0
 46 47  2  0  0  0  0
 47 48  1  0  0  0  0
 47 59  1  0  0  0  0
 48 60  1  0  0  0  0
 49 61  1  0  0  0  0
 49 48  2  0  0  0  0
 50 49  1  0  0  0  0
 51 43  1  0  0  0  0
 52 51  2  0  0  0  0
 53 51  1  0  0  0  0
 54 42  1  0  0  0  0
 56 44  1  0  0  0  0
 57 44  1  0  0  0  0
 58 46  1  0  0  0  0
 62 50  1  0  0  0  0
M  END
$$$$
