KIN.pdb
 OpenBabel07022418503D

 56 55  0  0  1  0  0  0  0  0999 V2000
    0.8170   -1.2740    4.0460 N   0  0  0  0  0  0  0  0  0  0  0  0
    1.6770   -0.6020    3.0580 C   0  0  1  0  0  0  0  0  0  0  0  0
    2.6350   -1.6300    2.5340 C   0  0  0  0  0  0  0  0  0  0  0  0
    3.5990   -1.1000    1.5170 C   0  0  0  0  0  0  0  0  0  0  0  0
    4.4370    0.0150    2.0730 C   0  0  0  0  0  0  0  0  0  0  0  0
    5.2460   -0.4590    3.2570 C   0  0  0  0  0  0  0  0  0  0  0  0
    6.0700    0.6320    3.7790 N   0  0  0  0  0  0  0  0  0  0  0  0
    0.7700   -0.1030    2.0000 C   0  0  0  0  0  0  0  0  0  0  0  0
    0.2140    1.0030    2.2310 O   0  0  0  0  0  0  0  0  0  0  0  0
    0.6130   -2.2590    3.7560 H   0  0  0  0  0  0  0  0  0  0  0  0
    1.3790   -1.3460    4.9270 H   0  0  0  0  0  0  0  0  0  0  0  0
    2.2340    0.2080    3.5430 H   0  0  0  0  0  0  0  0  0  0  0  0
    3.2090   -2.1100    3.3470 H   0  0  0  0  0  0  0  0  0  0  0  0
    2.0860   -2.4830    2.0390 H   0  0  0  0  0  0  0  0  0  0  0  0
    3.1390   -0.8340    0.5390 H   0  0  0  0  0  0  0  0  0  0  0  0
    4.2640   -1.9800    1.2560 H   0  0  0  0  0  0  0  0  0  0  0  0
    3.7920    0.8660    2.4140 H   0  0  0  0  0  0  0  0  0  0  0  0
    5.1860    0.3890    1.3320 H   0  0  0  0  0  0  0  0  0  0  0  0
    5.8560   -1.3180    2.9170 H   0  0  0  0  0  0  0  0  0  0  0  0
    4.5350   -0.8060    4.0380 H   0  0  0  0  0  0  0  0  0  0  0  0
    6.5720    1.0560    2.9690 H   0  0  0  0  0  0  0  0  0  0  0  0
    5.3880    1.3100    4.2040 H   0  0  0  0  0  0  0  0  0  0  0  0
   -1.0770    2.1400   -2.0330 C   0  0  0  0  0  0  0  0  0  0  0  0
   -0.4550    0.8560   -2.5240 C   0  0  0  0  0  0  0  0  0  0  0  0
    0.3200    0.1930   -1.4300 C   0  0  2  0  0  0  0  0  0  0  0  0
    0.9330   -1.0940   -2.0020 C   0  0  0  0  0  0  0  0  0  0  0  0
   -0.4430   -0.1200   -0.1710 C   0  0  2  0  0  0  0  0  0  0  0  0
    0.4900   -0.7470    0.7980 N   0  0  0  0  0  0  0  0  0  0  0  0
   -1.5820   -1.0240   -0.3170 C   0  0  0  0  0  0  0  0  0  0  0  0
   -1.5130   -2.1750    0.2630 O   0  0  0  0  0  0  0  0  0  0  0  0
   -1.6480    2.6580   -2.8230 H   0  0  0  0  0  0  0  0  0  0  0  0
   -1.6330    2.0100   -1.1030 H   0  0  0  0  0  0  0  0  0  0  0  0
   -0.2150    2.8240   -1.7840 H   0  0  0  0  0  0  0  0  0  0  0  0
   -1.2040    0.2200   -3.0290 H   0  0  0  0  0  0  0  0  0  0  0  0
    0.3210    1.1940   -3.2960 H   0  0  0  0  0  0  0  0  0  0  0  0
    1.1410    0.8850   -1.1480 H   0  0  0  0  0  0  0  0  0  0  0  0
    2.0520   -1.0770   -1.8770 H   0  0  0  0  0  0  0  0  0  0  0  0
    0.4600   -1.9380   -1.4920 H   0  0  0  0  0  0  0  0  0  0  0  0
    0.7700   -1.1450   -3.0980 H   0  0  0  0  0  0  0  0  0  0  0  0
   -0.7720    0.8220    0.2770 H   0  0  0  0  0  0  0  0  0  0  0  0
    0.9260   -1.6670    0.5780 H   0  0  0  0  0  0  0  0  0  0  0  0
   -6.4280   -3.2300    0.6230 N   0  0  0  0  0  0  0  0  0  0  0  0
   -6.2070   -2.2770   -0.4340 C   0  0  0  0  0  0  0  0  0  0  0  0
   -7.0270   -2.3130   -1.3860 O   0  0  0  0  0  0  0  0  0  0  0  0
   -5.0890   -1.3170   -0.4040 C   0  0  0  0  0  0  0  0  0  0  0  0
   -3.8330   -1.8100   -1.0800 C   0  0  2  0  0  0  0  0  0  0  0  0
   -2.7740   -0.8160   -1.0120 N   0  0  0  0  0  0  0  0  0  0  0  0
   -4.0630   -2.2750   -2.4600 C   0  0  0  0  0  0  0  0  0  0  0  0
   -4.9260   -3.1460   -2.6740 O   0  0  0  0  0  0  0  0  0  0  0  0
   -3.3430   -1.7640   -3.5180 O   0  0  0  0  0  0  0  0  0  0  0  0
   -6.5830   -2.9210    1.6050 H   0  0  0  0  0  0  0  0  0  0  0  0
   -6.4410   -4.2520    0.4400 H   0  0  0  0  0  0  0  0  0  0  0  0
   -4.8670   -1.0970    0.6590 H   0  0  0  0  0  0  0  0  0  0  0  0
   -5.3590   -0.3420   -0.8710 H   0  0  0  0  0  0  0  0  0  0  0  0
   -3.4940   -2.6910   -0.5000 H   0  0  0  0  0  0  0  0  0  0  0  0
   -2.9430    0.0640   -1.4930 H   0  0  0  0  0  0  0  0  0  0  0  0
  1 11  1  0  0  0  0
  2 12  1  1  0  0  0
  2  1  1  0  0  0  0
  3  2  1  0  0  0  0
  3 13  1  0  0  0  0
  4  5  1  0  0  0  0
  4  3  1  0  0  0  0
  5 17  1  0  0  0  0
  5  6  1  0  0  0  0
  6  7  1  0  0  0  0
  6 20  1  0  0  0  0
  7 22  1  0  0  0  0
  8  9  2  0  0  0  0
  8  2  1  0  0  0  0
 10  1  1  0  0  0  0
 14  3  1  0  0  0  0
 15  4  1  0  0  0  0
 16  4  1  0  0  0  0
 18  5  1  0  0  0  0
 19  6  1  0  0  0  0
 21  7  1  0  0  0  0
 23 33  1  0  0  0  0
 23 32  1  0  0  0  0
 24 23  1  0  0  0  0
 24 25  1  0  0  0  0
 25 36  1  1  0  0  0
 25 27  1  0  0  0  0
 26 37  1  0  0  0  0
 26 38  1  0  0  0  0
 26 25  1  0  0  0  0
 27 40  1  1  0  0  0
 27 28  1  0  0  0  0
 28  8  1  0  0  0  0
 29 27  1  0  0  0  0
 29 30  2  0  0  0  0
 31 23  1  0  0  0  0
 34 24  1  0  0  0  0
 35 24  1  0  0  0  0
 39 26  1  0  0  0  0
 41 28  1  0  0  0  0
 42 51  1  0  0  0  0
 43 45  1  0  0  0  0
 43 42  1  0  0  0  0
 44 43  2  0  0  0  0
 45 53  1  0  0  0  0
 46 47  1  0  0  0  0
 46 55  1  1  0  0  0
 46 45  1  0  0  0  0
 47 29  1  0  0  0  0
 48 46  1  0  0  0  0
 49 48  1  0  0  0  0
 50 48  2  0  0  0  0
 52 42  1  0  0  0  0
 54 45  1  0  0  0  0
 56 47  1  0  0  0  0
M  END
$$$$
