KIQ.pdb
 OpenBabel07022418503D

 59 58  0  0  1  0  0  0  0  0999 V2000
   -0.7340   -1.6260    4.4760 N   0  0  0  0  0  0  0  0  0  0  0  0
   -0.9470   -0.2640    3.9390 C   0  0  1  0  0  0  0  0  0  0  0  0
    0.3880    0.3410    3.6930 C   0  0  0  0  0  0  0  0  0  0  0  0
    0.3780    1.7400    3.1810 C   0  0  0  0  0  0  0  0  0  0  0  0
    1.7890    2.2360    2.9730 C   0  0  0  0  0  0  0  0  0  0  0  0
    2.5850    1.4340    1.9900 C   0  0  0  0  0  0  0  0  0  0  0  0
    2.0040    1.4240    0.6840 N   0  0  0  0  0  0  0  0  0  0  0  0
   -1.7750   -0.4750    2.7320 C   0  0  0  0  0  0  0  0  0  0  0  0
   -2.9810   -0.7850    2.8980 O   0  0  0  0  0  0  0  0  0  0  0  0
   -0.2120   -2.2020    3.7810 H   0  0  0  0  0  0  0  0  0  0  0  0
   -1.6610   -2.0900    4.6460 H   0  0  0  0  0  0  0  0  0  0  0  0
   -1.5250    0.2690    4.7330 H   0  0  0  0  0  0  0  0  0  0  0  0
    0.9300   -0.3470    2.9880 H   0  0  0  0  0  0  0  0  0  0  0  0
    0.9170    0.3630    4.6850 H   0  0  0  0  0  0  0  0  0  0  0  0
   -0.2970    1.9200    2.3450 H   0  0  0  0  0  0  0  0  0  0  0  0
   -0.0330    2.3710    4.0380 H   0  0  0  0  0  0  0  0  0  0  0  0
    2.3250    2.3900    3.9240 H   0  0  0  0  0  0  0  0  0  0  0  0
    1.6840    3.2660    2.5260 H   0  0  0  0  0  0  0  0  0  0  0  0
    2.7940    0.4020    2.3380 H   0  0  0  0  0  0  0  0  0  0  0  0
    3.5790    1.9290    1.9090 H   0  0  0  0  0  0  0  0  0  0  0  0
    1.8790    0.4700    0.2850 H   0  0  0  0  0  0  0  0  0  0  0  0
    2.4710    2.0780    0.0100 H   0  0  0  0  0  0  0  0  0  0  0  0
   -2.8510    3.0050   -0.8770 C   0  0  0  0  0  0  0  0  0  0  0  0
   -2.8070    1.8420    0.1130 C   0  0  0  0  0  0  0  0  0  0  0  0
   -2.1970    0.6440   -0.6210 C   0  0  2  0  0  0  0  0  0  0  0  0
   -3.1170    0.3650   -1.7910 C   0  0  0  0  0  0  0  0  0  0  0  0
   -2.0850   -0.5540    0.2580 C   0  0  2  0  0  0  0  0  0  0  0  0
   -1.2490   -0.3430    1.4300 N   0  0  0  0  0  0  0  0  0  0  0  0
   -1.4610   -1.6490   -0.5310 C   0  0  0  0  0  0  0  0  0  0  0  0
   -1.9610   -2.0610   -1.6170 O   0  0  0  0  0  0  0  0  0  0  0  0
   -2.2130    2.7800   -1.7530 H   0  0  0  0  0  0  0  0  0  0  0  0
   -3.8590    3.2300   -1.2250 H   0  0  0  0  0  0  0  0  0  0  0  0
   -2.4240    3.9270   -0.4200 H   0  0  0  0  0  0  0  0  0  0  0  0
   -3.8660    1.6430    0.3760 H   0  0  0  0  0  0  0  0  0  0  0  0
   -2.2870    2.0930    1.0330 H   0  0  0  0  0  0  0  0  0  0  0  0
   -1.1800    0.8900   -0.9880 H   0  0  0  0  0  0  0  0  0  0  0  0
   -3.8830   -0.3800   -1.4500 H   0  0  0  0  0  0  0  0  0  0  0  0
   -3.7020    1.2770   -2.0640 H   0  0  0  0  0  0  0  0  0  0  0  0
   -2.5910   -0.0650   -2.6580 H   0  0  0  0  0  0  0  0  0  0  0  0
   -3.1310   -0.8310    0.5640 H   0  0  0  0  0  0  0  0  0  0  0  0
   -0.2540   -0.1060    1.2250 H   0  0  0  0  0  0  0  0  0  0  0  0
    2.7250   -5.1250   -4.1860 N   0  0  0  0  0  0  0  0  0  0  0  0
    2.0440   -4.1890   -3.3250 C   0  0  0  0  0  0  0  0  0  0  0  0
    0.9900   -3.7120   -3.7690 O   0  0  0  0  0  0  0  0  0  0  0  0
    2.5730   -3.8300   -2.0080 C   0  0  0  0  0  0  0  0  0  0  0  0
    1.7390   -2.8930   -1.2160 C   0  0  0  0  0  0  0  0  0  0  0  0
    0.3520   -3.3770   -0.8890 C   0  0  2  0  0  0  0  0  0  0  0  0
   -0.2650   -2.3000   -0.1170 N   0  0  0  0  0  0  0  0  0  0  0  0
    0.4340   -4.5920   -0.0410 C   0  0  0  0  0  0  0  0  0  0  0  0
    0.0030   -4.5390    1.1360 O   0  0  0  0  0  0  0  0  0  0  0  0
    0.9830   -5.7730   -0.5510 O   0  0  0  0  0  0  0  0  0  0  0  0
    3.7680   -5.1820   -4.1180 H   0  0  0  0  0  0  0  0  0  0  0  0
    2.2340   -5.7320   -4.8560 H   0  0  0  0  0  0  0  0  0  0  0  0
    2.8730   -4.7370   -1.4370 H   0  0  0  0  0  0  0  0  0  0  0  0
    3.5500   -3.2970   -2.2000 H   0  0  0  0  0  0  0  0  0  0  0  0
    2.2860   -2.7020   -0.2490 H   0  0  0  0  0  0  0  0  0  0  0  0
    1.7320   -1.9090   -1.7300 H   0  0  0  0  0  0  0  0  0  0  0  0
   -0.2230   -3.5990   -1.8010 H   0  0  0  0  0  0  0  0  0  0  0  0
    0.2150   -2.0320    0.7570 H   0  0  0  0  0  0  0  0  0  0  0  0
  1 11  1  0  0  0  0
  2  1  1  0  0  0  0
  2 12  1  1  0  0  0
  3  2  1  0  0  0  0
  3 14  1  0  0  0  0
  4  3  1  0  0  0  0
  4 16  1  0  0  0  0
  5  4  1  0  0  0  0
  5 17  1  0  0  0  0
  6 19  1  0  0  0  0
  6  5  1  0  0  0  0
  7  6  1  0  0  0  0
  8  9  2  0  0  0  0
  8  2  1  0  0  0  0
 10  1  1  0  0  0  0
 13  3  1  0  0  0  0
 15  4  1  0  0  0  0
 18  5  1  0  0  0  0
 20  6  1  0  0  0  0
 21  7  1  0  0  0  0
 22  7  1  0  0  0  0
 23 33  1  0  0  0  0
 23 24  1  0  0  0  0
 24 34  1  0  0  0  0
 24 35  1  0  0  0  0
 25 36  1  6  0  0  0
 25 24  1  0  0  0  0
 25 27  1  0  0  0  0
 26 37  1  0  0  0  0
 26 25  1  0  0  0  0
 27 40  1  1  0  0  0
 27 28  1  0  0  0  0
 28  8  1  0  0  0  0
 29 48  1  0  0  0  0
 29 27  1  0  0  0  0
 30 29  2  0  0  0  0
 31 23  1  0  0  0  0
 32 23  1  0  0  0  0
 38 26  1  0  0  0  0
 39 26  1  0  0  0  0
 41 28  1  0  0  0  0
 42 52  1  0  0  0  0
 42 43  1  0  0  0  0
 43 45  1  0  0  0  0
 44 43  2  0  0  0  0
 45 54  1  0  0  0  0
 45 46  1  0  0  0  0
 46 47  1  0  0  0  0
 46 56  1  0  0  0  0
 47 58  1  6  0  0  0
 47 48  1  0  0  0  0
 47 49  1  0  0  0  0
 48 59  1  0  0  0  0
 49 50  1  0  0  0  0
 51 49  2  0  0  0  0
 53 42  1  0  0  0  0
 55 45  1  0  0  0  0
 57 46  1  0  0  0  0
M  END
$$$$
