KIV.pdb
 OpenBabel07022418513D

 58 57  0  0  1  0  0  0  0  0999 V2000
    1.0750   -2.1660    4.2820 N   0  0  0  0  0  0  0  0  0  0  0  0
    1.5590   -1.2500    3.1310 C   0  0  1  0  0  0  0  0  0  0  0  0
    2.2630   -2.1980    2.2840 C   0  0  0  0  0  0  0  0  0  0  0  0
    3.0390   -1.9250    1.1030 C   0  0  0  0  0  0  0  0  0  0  0  0
    2.5980   -1.2810   -0.1240 C   0  0  0  0  0  0  0  0  0  0  0  0
    3.7920   -1.2770   -1.1490 C   0  0  0  0  0  0  0  0  0  0  0  0
    4.9120   -0.5540   -0.5890 N   0  0  0  0  0  0  0  0  0  0  0  0
    0.2780   -0.6480    2.7560 C   0  0  0  0  0  0  0  0  0  0  0  0
   -0.7490   -0.9240    3.5180 O   0  0  0  0  0  0  0  0  0  0  0  0
    0.7840   -1.5410    5.0510 H   0  0  0  0  0  0  0  0  0  0  0  0
    1.8340   -2.8140    4.4860 H   0  0  0  0  0  0  0  0  0  0  0  0
    2.2100   -0.5600    3.7120 H   0  0  0  0  0  0  0  0  0  0  0  0
    1.5200   -3.0830    2.1080 H   0  0  0  0  0  0  0  0  0  0  0  0
    2.9810   -2.7680    3.0040 H   0  0  0  0  0  0  0  0  0  0  0  0
    3.5170   -2.9410    0.7880 H   0  0  0  0  0  0  0  0  0  0  0  0
    4.0330   -1.3810    1.3960 H   0  0  0  0  0  0  0  0  0  0  0  0
    1.7720   -1.7560   -0.6620 H   0  0  0  0  0  0  0  0  0  0  0  0
    2.3970   -0.1890   -0.0610 H   0  0  0  0  0  0  0  0  0  0  0  0
    3.4800   -0.8200   -2.0810 H   0  0  0  0  0  0  0  0  0  0  0  0
    4.0500   -2.3300   -1.3050 H   0  0  0  0  0  0  0  0  0  0  0  0
    4.6080    0.1260    0.1340 H   0  0  0  0  0  0  0  0  0  0  0  0
    5.4400   -0.0390   -1.3070 H   0  0  0  0  0  0  0  0  0  0  0  0
    0.6700    2.8990    2.1610 C   0  0  0  0  0  0  0  0  0  0  0  0
   -0.7990    3.1260    1.9760 C   0  0  0  0  0  0  0  0  0  0  0  0
   -1.4530    2.1350    1.0580 C   0  0  2  0  0  0  0  0  0  0  0  0
   -2.9470    2.5290    0.9650 C   0  0  0  0  0  0  0  0  0  0  0  0
   -1.4290    0.7190    1.5140 C   0  0  2  0  0  0  0  0  0  0  0  0
   -0.0600    0.2010    1.6940 N   0  0  0  0  0  0  0  0  0  0  0  0
   -2.2150   -0.1170    0.5820 C   0  0  0  0  0  0  0  0  0  0  0  0
   -3.4220    0.1030    0.3240 O   0  0  0  0  0  0  0  0  0  0  0  0
    0.9020    2.1280    2.8970 H   0  0  0  0  0  0  0  0  0  0  0  0
    1.1250    3.8750    2.5080 H   0  0  0  0  0  0  0  0  0  0  0  0
    1.1590    2.7300    1.1640 H   0  0  0  0  0  0  0  0  0  0  0  0
   -0.9100    4.1490    1.5200 H   0  0  0  0  0  0  0  0  0  0  0  0
   -1.3210    3.2010    2.9510 H   0  0  0  0  0  0  0  0  0  0  0  0
   -1.0490    2.1770    0.0330 H   0  0  0  0  0  0  0  0  0  0  0  0
   -3.3380    2.3480   -0.0320 H   0  0  0  0  0  0  0  0  0  0  0  0
   -3.0400    3.6010    1.2780 H   0  0  0  0  0  0  0  0  0  0  0  0
   -3.4700    1.9280    1.7170 H   0  0  0  0  0  0  0  0  0  0  0  0
   -1.9290    0.5950    2.5290 H   0  0  0  0  0  0  0  0  0  0  0  0
    0.6710    0.4660    1.0370 H   0  0  0  0  0  0  0  0  0  0  0  0
   -2.6240   -2.8540   -3.3330 C   0  0  0  0  0  0  0  0  0  0  0  0
   -1.8230   -2.0270   -2.3380 C   0  0  0  0  0  0  0  0  0  0  0  0
   -0.4170   -2.5900   -2.3310 C   0  0  0  0  0  0  0  0  0  0  0  0
   -2.4400   -2.0560   -0.9740 C   0  0  2  0  0  0  0  0  0  0  0  0
   -1.6370   -1.2320   -0.0730 N   0  0  0  0  0  0  0  0  0  0  0  0
   -2.4300   -3.4800   -0.4860 C   0  0  0  0  0  0  0  0  0  0  0  0
   -1.7850   -3.8090    0.5590 O   0  0  0  0  0  0  0  0  0  0  0  0
   -3.1170   -4.4820   -1.1480 O   0  0  0  0  0  0  0  0  0  0  0  0
   -2.2120   -3.8670   -3.3430 H   0  0  0  0  0  0  0  0  0  0  0  0
   -3.7120   -2.8350   -3.0880 H   0  0  0  0  0  0  0  0  0  0  0  0
   -2.5130   -2.4030   -4.3490 H   0  0  0  0  0  0  0  0  0  0  0  0
   -1.8170   -1.0030   -2.7140 H   0  0  0  0  0  0  0  0  0  0  0  0
   -0.1600   -2.9310   -1.3050 H   0  0  0  0  0  0  0  0  0  0  0  0
    0.2870   -1.7930   -2.6620 H   0  0  0  0  0  0  0  0  0  0  0  0
   -0.3710   -3.4740   -2.9660 H   0  0  0  0  0  0  0  0  0  0  0  0
   -3.4700   -1.6910   -0.9560 H   0  0  0  0  0  0  0  0  0  0  0  0
   -0.6440   -1.5040    0.0560 H   0  0  0  0  0  0  0  0  0  0  0  0
  1 11  1  0  0  0  0
  1 10  1  0  0  0  0
  2 12  1  1  0  0  0
  2  1  1  0  0  0  0
  3 14  1  0  0  0  0
  3  2  1  0  0  0  0
  4 16  1  0  0  0  0
  4  3  1  0  0  0  0
  5 18  1  0  0  0  0
  5  4  1  0  0  0  0
  6  7  1  0  0  0  0
  6  5  1  0  0  0  0
  7 21  1  0  0  0  0
  8  2  1  0  0  0  0
  8  9  2  0  0  0  0
 13  3  1  0  0  0  0
 15  4  1  0  0  0  0
 17  5  1  0  0  0  0
 19  6  1  0  0  0  0
 20  6  1  0  0  0  0
 22  7  1  0  0  0  0
 23 32  1  0  0  0  0
 23 31  1  0  0  0  0
 24 23  1  0  0  0  0
 24 35  1  0  0  0  0
 25 36  1  6  0  0  0
 25 27  1  0  0  0  0
 25 24  1  0  0  0  0
 26 25  1  0  0  0  0
 26 38  1  0  0  0  0
 26 39  1  0  0  0  0
 27 28  1  0  0  0  0
 27 40  1  1  0  0  0
 28  8  1  0  0  0  0
 29 27  1  0  0  0  0
 30 29  2  0  0  0  0
 33 23  1  0  0  0  0
 34 24  1  0  0  0  0
 37 26  1  0  0  0  0
 41 28  1  0  0  0  0
 42 51  1  0  0  0  0
 42 43  1  0  0  0  0
 43 44  1  0  0  0  0
 43 45  1  0  0  0  0
 44 54  1  0  0  0  0
 45 57  1  6  0  0  0
 45 47  1  0  0  0  0
 45 46  1  0  0  0  0
 46 58  1  0  0  0  0
 46 29  1  0  0  0  0
 47 48  1  0  0  0  0
 49 47  2  0  0  0  0
 50 42  1  0  0  0  0
 52 42  1  0  0  0  0
 53 43  1  0  0  0  0
 55 44  1  0  0  0  0
 56 44  1  0  0  0  0
M  END
$$$$
