KKC.pdb
 OpenBabel07022418513D

 55 54  0  0  1  0  0  0  0  0999 V2000
    0.1590   -1.9290    5.2660 N   0  0  0  0  0  0  0  0  0  0  0  0
    0.6240   -2.2330    3.8430 C   0  0  1  0  0  0  0  0  0  0  0  0
    0.2750   -3.6660    3.7110 C   0  0  0  0  0  0  0  0  0  0  0  0
    0.5710   -4.4170    2.4910 C   0  0  0  0  0  0  0  0  0  0  0  0
   -0.0850   -4.0060    1.2110 C   0  0  0  0  0  0  0  0  0  0  0  0
    0.3900   -4.9850    0.1260 C   0  0  0  0  0  0  0  0  0  0  0  0
    1.8170   -4.8620    0.0640 N   0  0  0  0  0  0  0  0  0  0  0  0
   -0.1710   -1.2770    3.0380 C   0  0  0  0  0  0  0  0  0  0  0  0
   -1.3800   -1.0180    3.3880 O   0  0  0  0  0  0  0  0  0  0  0  0
   -0.8900   -2.0030    5.1470 H   0  0  0  0  0  0  0  0  0  0  0  0
    0.3590   -0.9140    5.4030 H   0  0  0  0  0  0  0  0  0  0  0  0
    1.7010   -2.0070    3.8810 H   0  0  0  0  0  0  0  0  0  0  0  0
   -0.8680   -3.7160    3.8450 H   0  0  0  0  0  0  0  0  0  0  0  0
    0.6030   -4.2510    4.6430 H   0  0  0  0  0  0  0  0  0  0  0  0
    0.2590   -5.5020    2.6820 H   0  0  0  0  0  0  0  0  0  0  0  0
    1.6900   -4.5370    2.3090 H   0  0  0  0  0  0  0  0  0  0  0  0
    0.1530   -3.0220    0.8350 H   0  0  0  0  0  0  0  0  0  0  0  0
   -1.1950   -4.0650    1.3150 H   0  0  0  0  0  0  0  0  0  0  0  0
   -0.0360   -4.7330   -0.8520 H   0  0  0  0  0  0  0  0  0  0  0  0
    0.0600   -5.9930    0.4900 H   0  0  0  0  0  0  0  0  0  0  0  0
    2.1510   -3.9440    0.4140 H   0  0  0  0  0  0  0  0  0  0  0  0
    2.2310   -5.0230   -0.8680 H   0  0  0  0  0  0  0  0  0  0  0  0
    0.3440   -0.6210    1.9020 N   0  0  0  0  0  0  0  0  0  0  0  0
   -0.5140    0.3670    1.1320 C   0  0  1  0  0  0  0  0  0  0  0  0
    0.1340    1.6530    1.4740 C   0  0  0  0  0  0  0  0  0  0  0  0
   -0.2940    2.9500    1.0220 C   0  0  0  0  0  0  0  0  0  0  0  0
   -0.2510    3.3990   -0.3780 C   0  0  0  0  0  0  0  0  0  0  0  0
    1.1210    3.4620   -1.0040 C   0  0  0  0  0  0  0  0  0  0  0  0
    1.7330    2.1810   -0.9830 N   0  0  0  0  0  0  0  0  0  0  0  0
   -0.4630   -0.0050   -0.2540 C   0  0  0  0  0  0  0  0  0  0  0  0
    0.4970   -0.7770   -0.6250 O   0  0  0  0  0  0  0  0  0  0  0  0
    1.3100   -0.8050    1.5780 H   0  0  0  0  0  0  0  0  0  0  0  0
   -1.5140    0.2450    1.6150 H   0  0  0  0  0  0  0  0  0  0  0  0
    1.2680    1.5420    1.2620 H   0  0  0  0  0  0  0  0  0  0  0  0
    0.1910    1.7140    2.6320 H   0  0  0  0  0  0  0  0  0  0  0  0
    0.3280    3.7280    1.6080 H   0  0  0  0  0  0  0  0  0  0  0  0
   -1.3300    3.1810    1.4710 H   0  0  0  0  0  0  0  0  0  0  0  0
   -0.5530    4.5270   -0.3170 H   0  0  0  0  0  0  0  0  0  0  0  0
   -0.9500    2.9870   -1.0900 H   0  0  0  0  0  0  0  0  0  0  0  0
    1.0270    3.9010   -2.0220 H   0  0  0  0  0  0  0  0  0  0  0  0
    1.7220    4.1980   -0.4130 H   0  0  0  0  0  0  0  0  0  0  0  0
    1.5620    1.5870   -1.8130 H   0  0  0  0  0  0  0  0  0  0  0  0
    2.6980    2.1460   -0.6250 H   0  0  0  0  0  0  0  0  0  0  0  0
   -1.3440    0.3490   -1.3150 N   0  0  0  0  0  0  0  0  0  0  0  0
   -1.1390   -0.1450   -2.6460 C   0  0  1  0  0  0  0  0  0  0  0  0
   -2.1540   -1.2790   -2.9270 C   0  0  0  0  0  0  0  0  0  0  0  0
   -1.9520   -2.6320   -1.7700 S   0  0  0  0  0  0  0  0  0  0  0  0
   -1.2290    0.8210   -3.7220 C   0  0  0  0  0  0  0  0  0  0  0  0
   -1.0250    0.4590   -4.9250 O   0  0  0  0  0  0  0  0  0  0  0  0
   -1.5300    2.1460   -3.5390 O   0  0  0  0  0  0  0  0  0  0  0  0
   -2.1290    0.9600   -1.0770 H   0  0  0  0  0  0  0  0  0  0  0  0
   -0.1500   -0.6840   -2.7190 H   0  0  0  0  0  0  0  0  0  0  0  0
   -1.9420   -1.6390   -3.9450 H   0  0  0  0  0  0  0  0  0  0  0  0
   -3.1720   -0.8620   -2.9150 H   0  0  0  0  0  0  0  0  0  0  0  0
   -2.9170   -2.5980   -0.7560 H   0  0  0  0  0  0  0  0  0  0  0  0
  1 11  1  0  0  0  0
  2 12  1  6  0  0  0
  2  1  1  0  0  0  0
  3  2  1  0  0  0  0
  3 13  1  0  0  0  0
  3 14  1  0  0  0  0
  4 15  1  0  0  0  0
  4  3  1  0  0  0  0
  5 18  1  0  0  0  0
  5  4  1  0  0  0  0
  6 20  1  0  0  0  0
  6  5  1  0  0  0  0
  7  6  1  0  0  0  0
  7 21  1  0  0  0  0
  8  9  2  0  0  0  0
  8  2  1  0  0  0  0
 10  1  1  0  0  0  0
 16  4  1  0  0  0  0
 17  5  1  0  0  0  0
 19  6  1  0  0  0  0
 22  7  1  0  0  0  0
 23  8  1  0  0  0  0
 24 25  1  0  0  0  0
 24 33  1  1  0  0  0
 24 23  1  0  0  0  0
 25 35  1  0  0  0  0
 26 37  1  0  0  0  0
 26 25  1  0  0  0  0
 26 36  1  0  0  0  0
 27 38  1  0  0  0  0
 27 26  1  0  0  0  0
 28 29  1  0  0  0  0
 28 41  1  0  0  0  0
 28 27  1  0  0  0  0
 29 43  1  0  0  0  0
 30 24  1  0  0  0  0
 31 30  2  0  0  0  0
 32 23  1  0  0  0  0
 34 25  1  0  0  0  0
 39 27  1  0  0  0  0
 40 28  1  0  0  0  0
 42 29  1  0  0  0  0
 44 51  1  0  0  0  0
 44 30  1  0  0  0  0
 45 52  1  6  0  0  0
 45 44  1  0  0  0  0
 46 54  1  0  0  0  0
 46 45  1  0  0  0  0
 46 47  1  0  0  0  0
 47 55  1  0  0  0  0
 48 50  1  0  0  0  0
 48 45  1  0  0  0  0
 49 48  2  0  0  0  0
 53 46  1  0  0  0  0
M  END
$$$$
