KKD.pdb
 OpenBabel07022418513D

 57 56  0  0  1  0  0  0  0  0999 V2000
    1.4990   -1.6520    3.3830 N   0  0  0  0  0  0  0  0  0  0  0  0
    1.2360   -0.2160    3.3030 C   0  0  1  0  0  0  0  0  0  0  0  0
    2.5740    0.4820    3.3410 C   0  0  0  0  0  0  0  0  0  0  0  0
    2.4990    1.9630    3.2680 C   0  0  0  0  0  0  0  0  0  0  0  0
    1.7150    2.6140    4.3740 C   0  0  0  0  0  0  0  0  0  0  0  0
    2.2760    2.3260    5.7360 C   0  0  0  0  0  0  0  0  0  0  0  0
    3.6410    2.8060    5.8240 N   0  0  0  0  0  0  0  0  0  0  0  0
    0.5400    0.1100    2.0220 C   0  0  0  0  0  0  0  0  0  0  0  0
    0.0680    1.2460    1.8210 O   0  0  0  0  0  0  0  0  0  0  0  0
    0.5540   -2.1340    3.3600 H   0  0  0  0  0  0  0  0  0  0  0  0
    1.9370   -1.8220    4.3180 H   0  0  0  0  0  0  0  0  0  0  0  0
    0.5950    0.1150    4.1450 H   0  0  0  0  0  0  0  0  0  0  0  0
    3.1770    0.1070    2.4720 H   0  0  0  0  0  0  0  0  0  0  0  0
    3.1160    0.1040    4.2340 H   0  0  0  0  0  0  0  0  0  0  0  0
    3.5350    2.4270    3.2350 H   0  0  0  0  0  0  0  0  0  0  0  0
    2.0500    2.2700    2.3060 H   0  0  0  0  0  0  0  0  0  0  0  0
    0.6390    2.4300    4.3170 H   0  0  0  0  0  0  0  0  0  0  0  0
    1.8430    3.7270    4.2250 H   0  0  0  0  0  0  0  0  0  0  0  0
    2.1320    1.3020    6.0930 H   0  0  0  0  0  0  0  0  0  0  0  0
    1.6890    2.9800    6.4480 H   0  0  0  0  0  0  0  0  0  0  0  0
    4.3330    2.0040    5.7730 H   0  0  0  0  0  0  0  0  0  0  0  0
    3.8070    3.4580    5.0070 H   0  0  0  0  0  0  0  0  0  0  0  0
    0.4030   -0.8560    1.0210 N   0  0  0  0  0  0  0  0  0  0  0  0
   -0.2650   -0.6380   -0.2700 C   0  0  1  0  0  0  0  0  0  0  0  0
    0.7690   -0.7160   -1.3710 C   0  0  0  0  0  0  0  0  0  0  0  0
    0.1060   -0.5080   -2.6960 C   0  0  0  0  0  0  0  0  0  0  0  0
    1.1330   -0.5210   -3.8310 C   0  0  0  0  0  0  0  0  0  0  0  0
    1.8840   -1.8110   -3.9150 C   0  0  0  0  0  0  0  0  0  0  0  0
    1.0290   -2.9410   -4.1430 N   0  0  0  0  0  0  0  0  0  0  0  0
   -1.2140   -1.7480   -0.4390 C   0  0  0  0  0  0  0  0  0  0  0  0
   -1.0410   -2.8070    0.2600 O   0  0  0  0  0  0  0  0  0  0  0  0
    0.7940   -1.8040    1.1710 H   0  0  0  0  0  0  0  0  0  0  0  0
   -0.6840    0.3640   -0.2830 H   0  0  0  0  0  0  0  0  0  0  0  0
    1.5520    0.0740   -1.2760 H   0  0  0  0  0  0  0  0  0  0  0  0
    1.3240   -1.6800   -1.3380 H   0  0  0  0  0  0  0  0  0  0  0  0
   -0.5740   -1.3620   -2.9270 H   0  0  0  0  0  0  0  0  0  0  0  0
   -0.4260    0.4510   -2.7500 H   0  0  0  0  0  0  0  0  0  0  0  0
    1.8200    0.3250   -3.7720 H   0  0  0  0  0  0  0  0  0  0  0  0
    0.5400   -0.4070   -4.7630 H   0  0  0  0  0  0  0  0  0  0  0  0
    2.5590   -1.9610   -3.0430 H   0  0  0  0  0  0  0  0  0  0  0  0
    2.5460   -1.7260   -4.8180 H   0  0  0  0  0  0  0  0  0  0  0  0
    0.0560   -2.6970   -4.3570 H   0  0  0  0  0  0  0  0  0  0  0  0
    1.1470   -3.6560   -3.4030 H   0  0  0  0  0  0  0  0  0  0  0  0
   -2.3340   -1.7710   -1.3100 N   0  0  0  0  0  0  0  0  0  0  0  0
   -3.2380   -2.8980   -1.4380 C   0  0  1  0  0  0  0  0  0  0  0  0
   -4.6640   -2.5640   -1.0670 C   0  0  0  0  0  0  0  0  0  0  0  0
   -4.8430   -2.0990    0.3130 C   0  0  0  0  0  0  0  0  0  0  0  0
   -3.8610   -2.0060    1.0770 O   0  0  0  0  0  0  0  0  0  0  0  0
   -3.2820   -3.4770   -2.7890 C   0  0  0  0  0  0  0  0  0  0  0  0
   -2.5950   -2.9890   -3.7090 O   0  0  0  0  0  0  0  0  0  0  0  0
   -6.0830   -1.7490    0.8210 O   0  0  0  0  0  0  0  0  0  0  0  0
   -4.0840   -4.5700   -3.0650 O   0  0  0  0  0  0  0  0  0  0  0  0
   -2.5110   -0.8970   -1.8670 H   0  0  0  0  0  0  0  0  0  0  0  0
   -2.8840   -3.6550   -0.6810 H   0  0  0  0  0  0  0  0  0  0  0  0
   -5.2270   -3.5380   -1.1890 H   0  0  0  0  0  0  0  0  0  0  0  0
   -5.1380   -1.8910   -1.8160 H   0  0  0  0  0  0  0  0  0  0  0  0
   -6.1960   -1.0570    1.5740 H   0  0  0  0  0  0  0  0  0  0  0  0
  1 11  1  0  0  0  0
  2  3  1  0  0  0  0
  2  1  1  0  0  0  0
  2 12  1  1  0  0  0
  3 14  1  0  0  0  0
  4  3  1  0  0  0  0
  4  5  1  0  0  0  0
  5  6  1  0  0  0  0
  6  7  1  0  0  0  0
  6 19  1  0  0  0  0
  6 20  1  0  0  0  0
  8  2  1  0  0  0  0
  9  8  2  0  0  0  0
 10  1  1  0  0  0  0
 13  3  1  0  0  0  0
 15  4  1  0  0  0  0
 16  4  1  0  0  0  0
 17  5  1  0  0  0  0
 18  5  1  0  0  0  0
 21  7  1  0  0  0  0
 22  7  1  0  0  0  0
 23 32  1  0  0  0  0
 23  8  1  0  0  0  0
 24 33  1  6  0  0  0
 24 23  1  0  0  0  0
 25 35  1  0  0  0  0
 25 34  1  0  0  0  0
 25 24  1  0  0  0  0
 26 25  1  0  0  0  0
 27 38  1  0  0  0  0
 27 26  1  0  0  0  0
 28 27  1  0  0  0  0
 28 40  1  0  0  0  0
 29 28  1  0  0  0  0
 29 43  1  0  0  0  0
 30 24  1  0  0  0  0
 30 31  2  0  0  0  0
 36 26  1  0  0  0  0
 37 26  1  0  0  0  0
 39 27  1  0  0  0  0
 41 28  1  0  0  0  0
 42 29  1  0  0  0  0
 44 30  1  0  0  0  0
 45 44  1  0  0  0  0
 45 46  1  0  0  0  0
 45 54  1  1  0  0  0
 46 47  1  0  0  0  0
 47 51  1  0  0  0  0
 47 48  2  0  0  0  0
 49 45  1  0  0  0  0
 50 49  2  0  0  0  0
 51 57  1  0  0  0  0
 52 49  1  0  0  0  0
 53 44  1  0  0  0  0
 55 46  1  0  0  0  0
 56 46  1  0  0  0  0
M  END
$$$$
