KKF.pdb
 OpenBabel07022418513D

 64 64  0  0  1  0  0  0  0  0999 V2000
    2.1770   -0.3220    0.1080 N   0  0  0  0  0  0  0  0  0  0  0  0
    1.9460    0.5300    1.2400 C   0  0  1  0  0  0  0  0  0  0  0  0
    2.7610    1.7950    1.1910 C   0  0  0  0  0  0  0  0  0  0  0  0
    4.2120    1.4730    1.1570 C   0  0  0  0  0  0  0  0  0  0  0  0
    4.6600    0.7090    2.3600 C   0  0  0  0  0  0  0  0  0  0  0  0
    6.1520    0.4070    2.3060 C   0  0  0  0  0  0  0  0  0  0  0  0
    6.6020   -0.3230    3.4480 N   0  0  0  0  0  0  0  0  0  0  0  0
    0.4950    0.8220    1.4430 C   0  0  0  0  0  0  0  0  0  0  0  0
    0.2020    1.5660    2.4160 O   0  0  0  0  0  0  0  0  0  0  0  0
    1.8180    0.0190   -0.7850 H   0  0  0  0  0  0  0  0  0  0  0  0
    1.9020   -1.2980    0.2650 H   0  0  0  0  0  0  0  0  0  0  0  0
    2.2430   -0.0230    2.1490 H   0  0  0  0  0  0  0  0  0  0  0  0
    2.4100    2.3680    0.3080 H   0  0  0  0  0  0  0  0  0  0  0  0
    2.5770    2.3650    2.1390 H   0  0  0  0  0  0  0  0  0  0  0  0
    4.4830    0.8540    0.2550 H   0  0  0  0  0  0  0  0  0  0  0  0
    4.8170    2.4080    1.0430 H   0  0  0  0  0  0  0  0  0  0  0  0
    4.1760   -0.2760    2.4810 H   0  0  0  0  0  0  0  0  0  0  0  0
    4.4510    1.2960    3.2730 H   0  0  0  0  0  0  0  0  0  0  0  0
    6.3350   -0.2190    1.4080 H   0  0  0  0  0  0  0  0  0  0  0  0
    6.7280    1.3460    2.1890 H   0  0  0  0  0  0  0  0  0  0  0  0
    5.9200   -0.3400    4.2370 H   0  0  0  0  0  0  0  0  0  0  0  0
    6.9730   -1.2700    3.2180 H   0  0  0  0  0  0  0  0  0  0  0  0
   -0.4900    0.2720    0.5630 N   0  0  0  0  0  0  0  0  0  0  0  0
   -1.8630    0.5630    0.7750 C   0  0  1  0  0  0  0  0  0  0  0  0
   -2.6530    1.0310   -0.3850 C   0  0  0  0  0  0  0  0  0  0  0  0
   -2.2280    2.2770   -1.0580 C   0  0  0  0  0  0  0  0  0  0  0  0
   -0.8690    2.2840   -1.6690 C   0  0  0  0  0  0  0  0  0  0  0  0
   -0.7050    1.2320   -2.7440 C   0  0  0  0  0  0  0  0  0  0  0  0
    0.6340    1.2910   -3.2900 N   0  0  0  0  0  0  0  0  0  0  0  0
   -2.5960   -0.6470    1.3230 C   0  0  0  0  0  0  0  0  0  0  0  0
   -3.8180   -0.5050    1.5500 O   0  0  0  0  0  0  0  0  0  0  0  0
   -0.1050   -0.3290   -0.1990 H   0  0  0  0  0  0  0  0  0  0  0  0
   -1.9370    1.3030    1.6260 H   0  0  0  0  0  0  0  0  0  0  0  0
   -2.7930    0.2300   -1.1680 H   0  0  0  0  0  0  0  0  0  0  0  0
   -3.7140    1.2090   -0.0330 H   0  0  0  0  0  0  0  0  0  0  0  0
   -2.4100    3.1780   -0.4120 H   0  0  0  0  0  0  0  0  0  0  0  0
   -2.9510    2.4380   -1.9140 H   0  0  0  0  0  0  0  0  0  0  0  0
   -0.0220    2.2210   -0.9920 H   0  0  0  0  0  0  0  0  0  0  0  0
   -0.7860    3.2710   -2.2250 H   0  0  0  0  0  0  0  0  0  0  0  0
   -0.8820    0.2080   -2.3860 H   0  0  0  0  0  0  0  0  0  0  0  0
   -1.4130    1.3900   -3.5850 H   0  0  0  0  0  0  0  0  0  0  0  0
    1.0650    0.3510   -3.4200 H   0  0  0  0  0  0  0  0  0  0  0  0
    1.2500    1.8300   -2.6270 H   0  0  0  0  0  0  0  0  0  0  0  0
   -1.9420   -1.8790    1.5700 N   0  0  0  0  0  0  0  0  0  0  0  0
   -2.5970   -3.0370    2.0840 C   0  0  1  0  0  0  0  0  0  0  0  0
   -2.5140   -4.2170    1.1060 C   0  0  0  0  0  0  0  0  0  0  0  0
   -3.1680   -3.8260   -0.1700 C   0  0  0  0  0  0  0  0  0  0  0  0
   -4.5170   -4.0560   -0.3560 C   0  0  0  0  0  0  0  0  0  0  0  0
   -5.1190   -3.6820   -1.5620 C   0  0  0  0  0  0  0  0  0  0  0  0
   -4.4070   -3.0890   -2.5770 C   0  0  0  0  0  0  0  0  0  0  0  0
   -3.0560   -2.8650   -2.3750 C   0  0  0  0  0  0  0  0  0  0  0  0
   -2.4570   -3.2330   -1.1840 C   0  0  0  0  0  0  0  0  0  0  0  0
   -2.0650   -3.5150    3.3670 C   0  0  0  0  0  0  0  0  0  0  0  0
   -2.5980   -4.5340    3.8770 O   0  0  0  0  0  0  0  0  0  0  0  0
   -1.0190   -2.9350    4.0690 O   0  0  0  0  0  0  0  0  0  0  0  0
   -0.9260   -1.9230    1.3580 H   0  0  0  0  0  0  0  0  0  0  0  0
   -3.6690   -2.7870    2.2420 H   0  0  0  0  0  0  0  0  0  0  0  0
   -2.9060   -5.1320    1.5450 H   0  0  0  0  0  0  0  0  0  0  0  0
   -1.4120   -4.3080    0.8790 H   0  0  0  0  0  0  0  0  0  0  0  0
   -5.0640   -4.5190    0.4410 H   0  0  0  0  0  0  0  0  0  0  0  0
   -6.1700   -3.8570   -1.7180 H   0  0  0  0  0  0  0  0  0  0  0  0
   -4.8640   -2.8040   -3.4970 H   0  0  0  0  0  0  0  0  0  0  0  0
   -2.4500   -2.4020   -3.1400 H   0  0  0  0  0  0  0  0  0  0  0  0
   -1.3960   -3.0580   -1.0230 H   0  0  0  0  0  0  0  0  0  0  0  0
  1 11  1  0  0  0  0
  1  2  1  0  0  0  0
  2  8  1  0  0  0  0
  2 12  1  1  0  0  0
  3  2  1  0  0  0  0
  3 14  1  0  0  0  0
  4  3  1  0  0  0  0
  4  5  1  0  0  0  0
  5 17  1  0  0  0  0
  5 18  1  0  0  0  0
  6  5  1  0  0  0  0
  6  7  1  0  0  0  0
  7 21  1  0  0  0  0
  8  9  2  0  0  0  0
 10  1  1  0  0  0  0
 13  3  1  0  0  0  0
 15  4  1  0  0  0  0
 16  4  1  0  0  0  0
 19  6  1  0  0  0  0
 20  6  1  0  0  0  0
 22  7  1  0  0  0  0
 23 24  1  0  0  0  0
 23  8  1  0  0  0  0
 24 30  1  0  0  0  0
 24 33  1  1  0  0  0
 25 35  1  0  0  0  0
 25 24  1  0  0  0  0
 26 36  1  0  0  0  0
 26 25  1  0  0  0  0
 27 26  1  0  0  0  0
 27 38  1  0  0  0  0
 28 40  1  0  0  0  0
 28 27  1  0  0  0  0
 29 28  1  0  0  0  0
 29 43  1  0  0  0  0
 30 31  2  0  0  0  0
 30 44  1  0  0  0  0
 32 23  1  0  0  0  0
 34 25  1  0  0  0  0
 37 26  1  0  0  0  0
 39 27  1  0  0  0  0
 41 28  1  0  0  0  0
 42 29  1  0  0  0  0
 44 45  1  0  0  0  0
 45 57  1  1  0  0  0
 45 53  1  0  0  0  0
 46 58  1  0  0  0  0
 46 45  1  0  0  0  0
 47 46  1  0  0  0  0
 48 47  1  0  0  0  0
 48 60  1  0  0  0  0
 49 48  2  0  0  0  0
 50 51  2  0  0  0  0
 50 49  1  0  0  0  0
 51 52  1  0  0  0  0
 52 64  1  0  0  0  0
 52 47  2  0  0  0  0
 53 54  2  0  0  0  0
 53 55  1  0  0  0  0
 56 44  1  0  0  0  0
 59 46  1  0  0  0  0
 61 49  1  0  0  0  0
 62 50  1  0  0  0  0
 63 51  1  0  0  0  0
M  END
$$$$
