KKH.pdb
 OpenBabel07022418513D

 61 61  0  0  1  0  0  0  0  0999 V2000
    0.6150    2.0200    3.8330 N   0  0  0  0  0  0  0  0  0  0  0  0
    0.7820    1.3600    2.5570 C   0  0  1  0  0  0  0  0  0  0  0  0
    1.1830   -0.0490    2.7710 C   0  0  0  0  0  0  0  0  0  0  0  0
    2.4670   -0.2720    3.5120 C   0  0  0  0  0  0  0  0  0  0  0  0
    2.5220    0.2440    4.9030 C   0  0  0  0  0  0  0  0  0  0  0  0
    1.4880   -0.3670    5.8210 C   0  0  0  0  0  0  0  0  0  0  0  0
    1.6490   -1.8040    5.9220 N   0  0  0  0  0  0  0  0  0  0  0  0
   -0.4160    1.5670    1.7610 C   0  0  0  0  0  0  0  0  0  0  0  0
   -1.3640    2.2510    2.2130 O   0  0  0  0  0  0  0  0  0  0  0  0
   -0.3510    1.8420    4.2360 H   0  0  0  0  0  0  0  0  0  0  0  0
    0.6640    3.0760    3.7510 H   0  0  0  0  0  0  0  0  0  0  0  0
    1.6880    1.8740    2.0990 H   0  0  0  0  0  0  0  0  0  0  0  0
    0.3880   -0.5610    3.3960 H   0  0  0  0  0  0  0  0  0  0  0  0
    1.2250   -0.6630    1.8500 H   0  0  0  0  0  0  0  0  0  0  0  0
    3.3540    0.1040    2.9570 H   0  0  0  0  0  0  0  0  0  0  0  0
    2.6090   -1.3810    3.5510 H   0  0  0  0  0  0  0  0  0  0  0  0
    2.5660    1.3300    4.9150 H   0  0  0  0  0  0  0  0  0  0  0  0
    3.5180   -0.0970    5.3180 H   0  0  0  0  0  0  0  0  0  0  0  0
    1.6200    0.1080    6.8150 H   0  0  0  0  0  0  0  0  0  0  0  0
    0.4420   -0.1680    5.5180 H   0  0  0  0  0  0  0  0  0  0  0  0
    1.0830   -2.1110    6.7570 H   0  0  0  0  0  0  0  0  0  0  0  0
    1.1580   -2.2010    5.0700 H   0  0  0  0  0  0  0  0  0  0  0  0
   -0.5430    0.9910    0.4340 N   0  0  0  0  0  0  0  0  0  0  0  0
   -1.7170    1.1880   -0.3540 C   0  0  1  0  0  0  0  0  0  0  0  0
   -1.6590    2.0910   -1.5150 C   0  0  0  0  0  0  0  0  0  0  0  0
   -0.7580    1.8340   -2.6400 C   0  0  0  0  0  0  0  0  0  0  0  0
    0.7060    1.8040   -2.4380 C   0  0  0  0  0  0  0  0  0  0  0  0
    1.4080    1.5480   -3.8000 C   0  0  0  0  0  0  0  0  0  0  0  0
    2.8360    1.5400   -3.4910 N   0  0  0  0  0  0  0  0  0  0  0  0
   -2.3760   -0.1270   -0.6920 C   0  0  0  0  0  0  0  0  0  0  0  0
   -3.4190   -0.0960   -1.3700 O   0  0  0  0  0  0  0  0  0  0  0  0
    0.3010    0.4330    0.1870 H   0  0  0  0  0  0  0  0  0  0  0  0
   -2.4860    1.6600    0.3570 H   0  0  0  0  0  0  0  0  0  0  0  0
   -1.5150    3.1700   -1.1390 H   0  0  0  0  0  0  0  0  0  0  0  0
   -2.7050    2.1920   -1.9750 H   0  0  0  0  0  0  0  0  0  0  0  0
   -0.9460    2.6710   -3.3950 H   0  0  0  0  0  0  0  0  0  0  0  0
   -1.1120    0.9330   -3.2120 H   0  0  0  0  0  0  0  0  0  0  0  0
    1.1090    2.8000   -2.1240 H   0  0  0  0  0  0  0  0  0  0  0  0
    1.1240    1.0400   -1.7940 H   0  0  0  0  0  0  0  0  0  0  0  0
    1.1440    0.5460   -4.1720 H   0  0  0  0  0  0  0  0  0  0  0  0
    1.1530    2.3220   -4.5260 H   0  0  0  0  0  0  0  0  0  0  0  0
    3.1640    2.4870   -3.1920 H   0  0  0  0  0  0  0  0  0  0  0  0
    3.0610    0.8430   -2.7690 H   0  0  0  0  0  0  0  0  0  0  0  0
   -1.7750   -1.3100   -0.2230 N   0  0  0  0  0  0  0  0  0  0  0  0
   -2.3600   -2.6340   -0.5100 C   0  0  1  0  0  0  0  0  0  0  0  0
   -1.3360   -3.3790   -1.3240 C   0  0  0  0  0  0  0  0  0  0  0  0
   -1.7450   -4.7250   -1.7390 C   0  0  0  0  0  0  0  0  0  0  0  0
   -0.9360   -5.5920   -2.4920 C   0  0  0  0  0  0  0  0  0  0  0  0
   -1.5960   -6.7370   -2.7040 N   0  0  0  0  0  0  0  0  0  0  0  0
   -2.8020   -6.6450   -2.1160 C   0  0  0  0  0  0  0  0  0  0  0  0
   -2.8680   -5.4340   -1.5460 N   0  0  0  0  0  0  0  0  0  0  0  0
   -2.5320   -3.3590    0.7890 C   0  0  0  0  0  0  0  0  0  0  0  0
   -3.0320   -4.4940    0.8520 O   0  0  0  0  0  0  0  0  0  0  0  0
   -2.1360   -2.7880    1.9950 O   0  0  0  0  0  0  0  0  0  0  0  0
   -0.9120   -1.2550    0.3320 H   0  0  0  0  0  0  0  0  0  0  0  0
   -3.2890   -2.5680   -1.0760 H   0  0  0  0  0  0  0  0  0  0  0  0
   -0.3350   -3.3980   -0.8110 H   0  0  0  0  0  0  0  0  0  0  0  0
   -1.1440   -2.7830   -2.2660 H   0  0  0  0  0  0  0  0  0  0  0  0
    0.0670   -5.3710   -2.8480 H   0  0  0  0  0  0  0  0  0  0  0  0
   -1.2640   -7.5740   -3.2280 H   0  0  0  0  0  0  0  0  0  0  0  0
   -3.5630   -7.4290   -2.1200 H   0  0  0  0  0  0  0  0  0  0  0  0
  1 10  1  0  0  0  0
  2 12  1  6  0  0  0
  2  3  1  0  0  0  0
  2  1  1  0  0  0  0
  3 13  1  0  0  0  0
  3  4  1  0  0  0  0
  4 16  1  0  0  0  0
  4  5  1  0  0  0  0
  5 17  1  0  0  0  0
  5 18  1  0  0  0  0
  5  6  1  0  0  0  0
  6  7  1  0  0  0  0
  6 19  1  0  0  0  0
  7 21  1  0  0  0  0
  8  9  2  0  0  0  0
  8  2  1  0  0  0  0
 11  1  1  0  0  0  0
 14  3  1  0  0  0  0
 15  4  1  0  0  0  0
 20  6  1  0  0  0  0
 22  7  1  0  0  0  0
 23  8  1  0  0  0  0
 24 33  1  1  0  0  0
 24 23  1  0  0  0  0
 25 34  1  0  0  0  0
 25 24  1  0  0  0  0
 26 27  1  0  0  0  0
 26 25  1  0  0  0  0
 27 38  1  0  0  0  0
 27 39  1  0  0  0  0
 28 29  1  0  0  0  0
 28 27  1  0  0  0  0
 29 42  1  0  0  0  0
 29 43  1  0  0  0  0
 30 24  1  0  0  0  0
 30 44  1  0  0  0  0
 31 30  2  0  0  0  0
 32 23  1  0  0  0  0
 35 25  1  0  0  0  0
 36 26  1  0  0  0  0
 37 26  1  0  0  0  0
 40 28  1  0  0  0  0
 41 28  1  0  0  0  0
 44 55  1  0  0  0  0
 45 56  1  6  0  0  0
 45 44  1  0  0  0  0
 45 52  1  0  0  0  0
 46 57  1  0  0  0  0
 46 45  1  0  0  0  0
 47 51  1  0  0  0  0
 47 46  1  0  0  0  0
 48 47  2  0  0  0  0
 49 48  1  0  0  0  0
 49 50  1  0  0  0  0
 50 51  2  0  0  0  0
 52 53  2  0  0  0  0
 52 54  1  0  0  0  0
 58 46  1  0  0  0  0
 59 48  1  0  0  0  0
 60 49  1  0  0  0  0
 61 50  1  0  0  0  0
M  END
$$$$
