KKI.pdb
 OpenBabel07022418513D

 63 62  0  0  1  0  0  0  0  0999 V2000
    1.6060   -2.5580    1.2650 N   0  0  0  0  0  0  0  0  0  0  0  0
    1.9800   -1.3430    1.9800 C   0  0  1  0  0  0  0  0  0  0  0  0
    3.4810   -1.2200    1.8260 C   0  0  0  0  0  0  0  0  0  0  0  0
    4.0650   -0.0240    2.4960 C   0  0  0  0  0  0  0  0  0  0  0  0
    3.8310    0.0220    3.9750 C   0  0  0  0  0  0  0  0  0  0  0  0
    4.4150   -1.1560    4.7070 C   0  0  0  0  0  0  0  0  0  0  0  0
    5.8300   -1.2740    4.5500 N   0  0  0  0  0  0  0  0  0  0  0  0
    1.2470   -0.1890    1.4240 C   0  0  0  0  0  0  0  0  0  0  0  0
    1.4090    0.9570    1.9070 O   0  0  0  0  0  0  0  0  0  0  0  0
    1.3250   -3.3290    1.8840 H   0  0  0  0  0  0  0  0  0  0  0  0
    2.3230   -2.8200    0.5560 H   0  0  0  0  0  0  0  0  0  0  0  0
    1.6980   -1.5380    3.0490 H   0  0  0  0  0  0  0  0  0  0  0  0
    3.9790   -2.1220    2.1950 H   0  0  0  0  0  0  0  0  0  0  0  0
    3.7190   -1.1480    0.7420 H   0  0  0  0  0  0  0  0  0  0  0  0
    5.1700   -0.0620    2.2990 H   0  0  0  0  0  0  0  0  0  0  0  0
    3.7320    0.9350    2.0580 H   0  0  0  0  0  0  0  0  0  0  0  0
    2.7810    0.1680    4.2140 H   0  0  0  0  0  0  0  0  0  0  0  0
    4.3820    0.9280    4.3570 H   0  0  0  0  0  0  0  0  0  0  0  0
    3.9260   -2.1090    4.4900 H   0  0  0  0  0  0  0  0  0  0  0  0
    4.2280   -0.9590    5.8040 H   0  0  0  0  0  0  0  0  0  0  0  0
    6.1190   -2.0590    3.9250 H   0  0  0  0  0  0  0  0  0  0  0  0
    6.3140   -0.3850    4.3430 H   0  0  0  0  0  0  0  0  0  0  0  0
    0.3600   -0.3870    0.3430 N   0  0  0  0  0  0  0  0  0  0  0  0
   -0.4130    0.6840   -0.2790 C   0  0  1  0  0  0  0  0  0  0  0  0
    0.0340    0.7570   -1.7010 C   0  0  0  0  0  0  0  0  0  0  0  0
   -0.6470    1.8090   -2.5150 C   0  0  0  0  0  0  0  0  0  0  0  0
   -0.1490    1.8330   -3.9400 C   0  0  0  0  0  0  0  0  0  0  0  0
    1.3400    2.1170   -4.0100 C   0  0  0  0  0  0  0  0  0  0  0  0
    1.7860    2.1340   -5.3860 N   0  0  0  0  0  0  0  0  0  0  0  0
   -1.8520    0.3710   -0.1060 C   0  0  0  0  0  0  0  0  0  0  0  0
   -2.7460    1.1420   -0.5310 O   0  0  0  0  0  0  0  0  0  0  0  0
    0.2450   -1.3430   -0.0390 H   0  0  0  0  0  0  0  0  0  0  0  0
   -0.1970    1.6570    0.2150 H   0  0  0  0  0  0  0  0  0  0  0  0
   -0.1090   -0.2750   -2.1350 H   0  0  0  0  0  0  0  0  0  0  0  0
    1.1390    0.8920   -1.6830 H   0  0  0  0  0  0  0  0  0  0  0  0
   -0.3900    2.7930   -2.0640 H   0  0  0  0  0  0  0  0  0  0  0  0
   -1.7350    1.7360   -2.5210 H   0  0  0  0  0  0  0  0  0  0  0  0
   -0.3720    0.9050   -4.4860 H   0  0  0  0  0  0  0  0  0  0  0  0
   -0.6660    2.6570   -4.4720 H   0  0  0  0  0  0  0  0  0  0  0  0
    1.9400    1.3470   -3.4940 H   0  0  0  0  0  0  0  0  0  0  0  0
    1.5700    3.1180   -3.5900 H   0  0  0  0  0  0  0  0  0  0  0  0
    1.0250    1.8760   -6.0500 H   0  0  0  0  0  0  0  0  0  0  0  0
    2.6250    1.5550   -5.5430 H   0  0  0  0  0  0  0  0  0  0  0  0
   -6.4140   -1.8270   -0.1310 C   0  0  0  0  0  0  0  0  0  0  0  0
   -5.3830   -2.8760    0.1100 C   0  0  0  0  0  0  0  0  0  0  0  0
   -3.9660   -2.4180   -0.0560 C   0  0  2  0  0  0  0  0  0  0  0  0
   -3.0590   -3.5760    0.2150 C   0  0  0  0  0  0  0  0  0  0  0  0
   -3.6450   -1.1940    0.7580 C   0  0  2  0  0  0  0  0  0  0  0  0
   -2.2520   -0.8090    0.5440 N   0  0  0  0  0  0  0  0  0  0  0  0
   -3.9510   -1.3050    2.1840 C   0  0  0  0  0  0  0  0  0  0  0  0
   -5.0670   -1.6170    2.6610 O   0  0  0  0  0  0  0  0  0  0  0  0
   -2.9400   -1.0490    3.1020 O   0  0  0  0  0  0  0  0  0  0  0  0
   -7.0590   -1.6210    0.7740 H   0  0  0  0  0  0  0  0  0  0  0  0
   -7.1340   -2.1920   -0.8910 H   0  0  0  0  0  0  0  0  0  0  0  0
   -6.0110   -0.8770   -0.5450 H   0  0  0  0  0  0  0  0  0  0  0  0
   -5.5650   -3.2980    1.1240 H   0  0  0  0  0  0  0  0  0  0  0  0
   -5.5650   -3.7310   -0.5890 H   0  0  0  0  0  0  0  0  0  0  0  0
   -3.8430   -2.1310   -1.1260 H   0  0  0  0  0  0  0  0  0  0  0  0
   -1.9920   -3.3400    0.2160 H   0  0  0  0  0  0  0  0  0  0  0  0
   -3.4070   -4.1320    1.1140 H   0  0  0  0  0  0  0  0  0  0  0  0
   -3.2060   -4.3020   -0.6390 H   0  0  0  0  0  0  0  0  0  0  0  0
   -4.2470   -0.3630    0.3300 H   0  0  0  0  0  0  0  0  0  0  0  0
   -1.5460   -1.4810    0.9150 H   0  0  0  0  0  0  0  0  0  0  0  0
  1 10  1  0  0  0  0
  1  2  1  0  0  0  0
  2 12  1  1  0  0  0
  3  2  1  0  0  0  0
  3 13  1  0  0  0  0
  3  4  1  0  0  0  0
  4  5  1  0  0  0  0
  5 17  1  0  0  0  0
  5 18  1  0  0  0  0
  5  6  1  0  0  0  0
  6 20  1  0  0  0  0
  7  6  1  0  0  0  0
  8  9  2  0  0  0  0
  8  2  1  0  0  0  0
 11  1  1  0  0  0  0
 14  3  1  0  0  0  0
 15  4  1  0  0  0  0
 16  4  1  0  0  0  0
 19  6  1  0  0  0  0
 21  7  1  0  0  0  0
 22  7  1  0  0  0  0
 23  8  1  0  0  0  0
 24 30  1  0  0  0  0
 24 33  1  1  0  0  0
 24 23  1  0  0  0  0
 25 35  1  0  0  0  0
 25 24  1  0  0  0  0
 26 36  1  0  0  0  0
 26 25  1  0  0  0  0
 27 26  1  0  0  0  0
 28 27  1  0  0  0  0
 28 41  1  0  0  0  0
 28 40  1  0  0  0  0
 29 28  1  0  0  0  0
 30 49  1  0  0  0  0
 31 30  2  0  0  0  0
 32 23  1  0  0  0  0
 34 25  1  0  0  0  0
 37 26  1  0  0  0  0
 38 27  1  0  0  0  0
 39 27  1  0  0  0  0
 42 29  1  0  0  0  0
 43 29  1  0  0  0  0
 44 45  1  0  0  0  0
 44 53  1  0  0  0  0
 45 56  1  0  0  0  0
 46 58  1  6  0  0  0
 46 45  1  0  0  0  0
 46 47  1  0  0  0  0
 46 48  1  0  0  0  0
 47 59  1  0  0  0  0
 47 60  1  0  0  0  0
 48 62  1  6  0  0  0
 48 50  1  0  0  0  0
 49 48  1  0  0  0  0
 49 63  1  0  0  0  0
 50 51  2  0  0  0  0
 50 52  1  0  0  0  0
 54 44  1  0  0  0  0
 55 44  1  0  0  0  0
 57 45  1  0  0  0  0
 61 47  1  0  0  0  0
M  END
$$$$
