KKL.pdb
 OpenBabel07022418513D

 63 62  0  0  1  0  0  0  0  0999 V2000
    1.3340   -2.3350    3.0930 N   0  0  0  0  0  0  0  0  0  0  0  0
    1.8580   -1.1380    2.4150 C   0  0  1  0  0  0  0  0  0  0  0  0
    2.4710   -1.5690    1.1340 C   0  0  0  0  0  0  0  0  0  0  0  0
    3.0690   -0.4670    0.3230 C   0  0  0  0  0  0  0  0  0  0  0  0
    4.1730    0.2680    1.0430 C   0  0  0  0  0  0  0  0  0  0  0  0
    5.3120   -0.6520    1.4120 C   0  0  0  0  0  0  0  0  0  0  0  0
    5.8180   -1.2030    0.1570 N   0  0  0  0  0  0  0  0  0  0  0  0
    0.7200   -0.2130    2.3020 C   0  0  0  0  0  0  0  0  0  0  0  0
    0.4250    0.4980    3.2990 O   0  0  0  0  0  0  0  0  0  0  0  0
    1.3730   -2.2510    4.1160 H   0  0  0  0  0  0  0  0  0  0  0  0
    0.3350   -2.4980    2.8200 H   0  0  0  0  0  0  0  0  0  0  0  0
    2.6420   -0.7550    3.1030 H   0  0  0  0  0  0  0  0  0  0  0  0
    3.2320   -2.3420    1.3640 H   0  0  0  0  0  0  0  0  0  0  0  0
    1.7180   -2.0830    0.4870 H   0  0  0  0  0  0  0  0  0  0  0  0
    3.5340   -0.9220   -0.5840 H   0  0  0  0  0  0  0  0  0  0  0  0
    2.3370    0.2660   -0.0450 H   0  0  0  0  0  0  0  0  0  0  0  0
    3.8020    0.8360    1.9190 H   0  0  0  0  0  0  0  0  0  0  0  0
    4.5750    1.0200    0.3320 H   0  0  0  0  0  0  0  0  0  0  0  0
    5.0020   -1.4750    2.0760 H   0  0  0  0  0  0  0  0  0  0  0  0
    6.1250   -0.0350    1.8380 H   0  0  0  0  0  0  0  0  0  0  0  0
    5.5040   -2.1840    0.0160 H   0  0  0  0  0  0  0  0  0  0  0  0
    5.5590   -0.5990   -0.6530 H   0  0  0  0  0  0  0  0  0  0  0  0
   -0.0270   -0.1130    1.1240 N   0  0  0  0  0  0  0  0  0  0  0  0
   -1.1760    0.8020    0.9580 C   0  0  1  0  0  0  0  0  0  0  0  0
   -0.8900    1.7700   -0.1570 C   0  0  0  0  0  0  0  0  0  0  0  0
   -1.9370    2.7650   -0.4510 C   0  0  0  0  0  0  0  0  0  0  0  0
   -1.6760    3.7300   -1.5510 C   0  0  0  0  0  0  0  0  0  0  0  0
   -0.5040    4.6220   -1.4260 C   0  0  0  0  0  0  0  0  0  0  0  0
    0.7760    3.9970   -1.3410 N   0  0  0  0  0  0  0  0  0  0  0  0
   -2.3730   -0.0200    0.7990 C   0  0  0  0  0  0  0  0  0  0  0  0
   -3.5180    0.5410    0.6850 O   0  0  0  0  0  0  0  0  0  0  0  0
    0.2080   -0.6990    0.3050 H   0  0  0  0  0  0  0  0  0  0  0  0
   -1.2230    1.3780    1.9110 H   0  0  0  0  0  0  0  0  0  0  0  0
    0.0780    2.3100    0.0710 H   0  0  0  0  0  0  0  0  0  0  0  0
   -0.6170    1.1320   -1.0480 H   0  0  0  0  0  0  0  0  0  0  0  0
   -2.1670    3.3520    0.4890 H   0  0  0  0  0  0  0  0  0  0  0  0
   -2.9260    2.2470   -0.6480 H   0  0  0  0  0  0  0  0  0  0  0  0
   -1.6090    3.2270   -2.5590 H   0  0  0  0  0  0  0  0  0  0  0  0
   -2.6040    4.3690   -1.6640 H   0  0  0  0  0  0  0  0  0  0  0  0
   -0.6390    5.4000   -0.6170 H   0  0  0  0  0  0  0  0  0  0  0  0
   -0.4710    5.2570   -2.3630 H   0  0  0  0  0  0  0  0  0  0  0  0
    1.4800    4.5700   -0.8260 H   0  0  0  0  0  0  0  0  0  0  0  0
    1.1100    3.5640   -2.2040 H   0  0  0  0  0  0  0  0  0  0  0  0
   -1.2800   -3.5720   -1.1170 C   0  0  0  0  0  0  0  0  0  0  0  0
   -2.7020   -4.0570   -0.9580 C   0  0  0  0  0  0  0  0  0  0  0  0
   -2.7840   -5.2780   -0.0700 C   0  0  0  0  0  0  0  0  0  0  0  0
   -3.6630   -2.9960   -0.6320 C   0  0  0  0  0  0  0  0  0  0  0  0
   -3.5010   -2.2060    0.6050 C   0  0  2  0  0  0  0  0  0  0  0  0
   -2.3060   -1.4580    0.7640 N   0  0  0  0  0  0  0  0  0  0  0  0
   -3.8140   -3.0280    1.8370 C   0  0  0  0  0  0  0  0  0  0  0  0
   -4.8500   -3.7410    1.8310 O   0  0  0  0  0  0  0  0  0  0  0  0
   -3.0260   -3.0330    2.9530 O   0  0  0  0  0  0  0  0  0  0  0  0
   -1.2560   -2.5050   -1.4160 H   0  0  0  0  0  0  0  0  0  0  0  0
   -0.7740   -4.0970   -1.9870 H   0  0  0  0  0  0  0  0  0  0  0  0
   -0.6330   -3.8220   -0.2550 H   0  0  0  0  0  0  0  0  0  0  0  0
   -2.9950   -4.4380   -1.9860 H   0  0  0  0  0  0  0  0  0  0  0  0
   -2.2510   -6.0960   -0.5970 H   0  0  0  0  0  0  0  0  0  0  0  0
   -2.2910   -5.1390    0.9000 H   0  0  0  0  0  0  0  0  0  0  0  0
   -3.8390   -5.5750   -0.0050 H   0  0  0  0  0  0  0  0  0  0  0  0
   -3.6820   -2.2660   -1.4920 H   0  0  0  0  0  0  0  0  0  0  0  0
   -4.7180   -3.3990   -0.6220 H   0  0  0  0  0  0  0  0  0  0  0  0
   -4.3650   -1.4720    0.5910 H   0  0  0  0  0  0  0  0  0  0  0  0
   -1.3480   -1.8540    0.8690 H   0  0  0  0  0  0  0  0  0  0  0  0
  1 10  1  0  0  0  0
  2  1  1  0  0  0  0
  2 12  1  1  0  0  0
  3 13  1  0  0  0  0
  3  2  1  0  0  0  0
  4  5  1  0  0  0  0
  4  3  1  0  0  0  0
  5  6  1  0  0  0  0
  5 17  1  0  0  0  0
  6 20  1  0  0  0  0
  6 19  1  0  0  0  0
  7  6  1  0  0  0  0
  8  2  1  0  0  0  0
  8  9  2  0  0  0  0
 11  1  1  0  0  0  0
 14  3  1  0  0  0  0
 15  4  1  0  0  0  0
 16  4  1  0  0  0  0
 18  5  1  0  0  0  0
 21  7  1  0  0  0  0
 22  7  1  0  0  0  0
 23  8  1  0  0  0  0
 24 23  1  0  0  0  0
 24 33  1  1  0  0  0
 25 34  1  0  0  0  0
 25 24  1  0  0  0  0
 26 25  1  0  0  0  0
 26 36  1  0  0  0  0
 27 28  1  0  0  0  0
 27 26  1  0  0  0  0
 28 29  1  0  0  0  0
 28 40  1  0  0  0  0
 29 42  1  0  0  0  0
 30 24  1  0  0  0  0
 31 30  2  0  0  0  0
 32 23  1  0  0  0  0
 35 25  1  0  0  0  0
 37 26  1  0  0  0  0
 38 27  1  0  0  0  0
 39 27  1  0  0  0  0
 41 28  1  0  0  0  0
 43 29  1  0  0  0  0
 44 45  1  0  0  0  0
 44 55  1  0  0  0  0
 45 47  1  0  0  0  0
 45 46  1  0  0  0  0
 46 59  1  0  0  0  0
 46 58  1  0  0  0  0
 47 61  1  0  0  0  0
 47 48  1  0  0  0  0
 48 62  1  6  0  0  0
 48 49  1  0  0  0  0
 48 50  1  0  0  0  0
 49 30  1  0  0  0  0
 49 63  1  0  0  0  0
 50 52  1  0  0  0  0
 51 50  2  0  0  0  0
 53 44  1  0  0  0  0
 54 44  1  0  0  0  0
 56 45  1  0  0  0  0
 57 46  1  0  0  0  0
 60 47  1  0  0  0  0
M  END
$$$$
