KKP.pdb
 OpenBabel07022418513D

 58 58  0  0  1  0  0  0  0  0999 V2000
    1.7120   -1.6840    4.0310 N   0  0  0  0  0  0  0  0  0  0  0  0
    1.3950   -1.1670    2.6900 C   0  0  1  0  0  0  0  0  0  0  0  0
    1.6640   -2.2790    1.7350 C   0  0  0  0  0  0  0  0  0  0  0  0
    3.0960   -2.7520    1.7600 C   0  0  0  0  0  0  0  0  0  0  0  0
    4.0720   -1.6640    1.4060 C   0  0  0  0  0  0  0  0  0  0  0  0
    5.4650   -2.2580    1.4650 C   0  0  0  0  0  0  0  0  0  0  0  0
    6.4730   -1.2500    1.1300 N   0  0  0  0  0  0  0  0  0  0  0  0
    0.0010   -0.7270    2.6970 C   0  0  0  0  0  0  0  0  0  0  0  0
   -0.7180   -0.8250    3.7510 O   0  0  0  0  0  0  0  0  0  0  0  0
    1.0600   -2.5120    4.1480 H   0  0  0  0  0  0  0  0  0  0  0  0
    1.3830   -0.9660    4.7080 H   0  0  0  0  0  0  0  0  0  0  0  0
    2.0690   -0.2970    2.5580 H   0  0  0  0  0  0  0  0  0  0  0  0
    1.0230   -3.1550    1.9580 H   0  0  0  0  0  0  0  0  0  0  0  0
    1.3890   -1.9190    0.7290 H   0  0  0  0  0  0  0  0  0  0  0  0
    3.3740   -3.1560    2.7500 H   0  0  0  0  0  0  0  0  0  0  0  0
    3.1870   -3.5750    1.0190 H   0  0  0  0  0  0  0  0  0  0  0  0
    4.0300   -0.9080    2.2340 H   0  0  0  0  0  0  0  0  0  0  0  0
    3.9140   -1.2200    0.4220 H   0  0  0  0  0  0  0  0  0  0  0  0
    5.5700   -3.0440    0.6640 H   0  0  0  0  0  0  0  0  0  0  0  0
    5.6780   -2.6760    2.4500 H   0  0  0  0  0  0  0  0  0  0  0  0
    7.3430   -1.7880    0.9120 H   0  0  0  0  0  0  0  0  0  0  0  0
    6.1650   -0.7300    0.2920 H   0  0  0  0  0  0  0  0  0  0  0  0
   -0.6630   -0.1620    1.5560 N   0  0  0  0  0  0  0  0  0  0  0  0
   -2.0370    0.2820    1.5570 C   0  0  1  0  0  0  0  0  0  0  0  0
   -2.1330    1.7710    1.6290 C   0  0  0  0  0  0  0  0  0  0  0  0
   -1.5230    2.5800    0.5660 C   0  0  0  0  0  0  0  0  0  0  0  0
   -2.1360    2.2790   -0.7620 C   0  0  0  0  0  0  0  0  0  0  0  0
   -1.5500    3.0860   -1.8910 C   0  0  0  0  0  0  0  0  0  0  0  0
   -0.1470    2.8840   -2.0760 N   0  0  0  0  0  0  0  0  0  0  0  0
   -2.9450   -0.4130    0.6580 C   0  0  0  0  0  0  0  0  0  0  0  0
   -4.1560    0.0420    0.6430 O   0  0  0  0  0  0  0  0  0  0  0  0
   -0.0570   -0.0940    0.6950 H   0  0  0  0  0  0  0  0  0  0  0  0
   -2.4060   -0.0220    2.6060 H   0  0  0  0  0  0  0  0  0  0  0  0
   -1.6780    2.0740    2.6220 H   0  0  0  0  0  0  0  0  0  0  0  0
   -3.2090    2.0970    1.7420 H   0  0  0  0  0  0  0  0  0  0  0  0
   -1.7860    3.6620    0.7790 H   0  0  0  0  0  0  0  0  0  0  0  0
   -0.4150    2.5900    0.5500 H   0  0  0  0  0  0  0  0  0  0  0  0
   -2.1560    1.2110   -0.9500 H   0  0  0  0  0  0  0  0  0  0  0  0
   -3.2190    2.6000   -0.6930 H   0  0  0  0  0  0  0  0  0  0  0  0
   -1.7310    4.1710   -1.7450 H   0  0  0  0  0  0  0  0  0  0  0  0
   -2.0590    2.8170   -2.8390 H   0  0  0  0  0  0  0  0  0  0  0  0
    0.4210    3.7370   -2.1380 H   0  0  0  0  0  0  0  0  0  0  0  0
    0.0950    2.1520   -2.7740 H   0  0  0  0  0  0  0  0  0  0  0  0
   -2.7290   -1.4920   -0.1950 N   0  0  0  0  0  0  0  0  0  0  0  0
   -3.7230   -2.0930   -1.0490 C   0  0  0  0  0  0  0  0  0  0  0  0
   -3.1670   -3.3230   -1.6700 C   0  0  0  0  0  0  0  0  0  0  0  0
   -1.9960   -3.6480   -0.7690 C   0  0  0  0  0  0  0  0  0  0  0  0
   -1.5220   -2.2320   -0.3950 C   0  0  1  0  0  0  0  0  0  0  0  0
   -0.7030   -1.8120   -1.5420 C   0  0  0  0  0  0  0  0  0  0  0  0
   -1.0660   -0.8900   -2.2790 O   0  0  0  0  0  0  0  0  0  0  0  0
    0.4810   -2.4530   -1.7970 O   0  0  0  0  0  0  0  0  0  0  0  0
   -4.5470   -2.4270   -0.3490 H   0  0  0  0  0  0  0  0  0  0  0  0
   -4.1610   -1.3800   -1.7720 H   0  0  0  0  0  0  0  0  0  0  0  0
   -3.9100   -4.1470   -1.6540 H   0  0  0  0  0  0  0  0  0  0  0  0
   -2.8480   -3.1530   -2.7180 H   0  0  0  0  0  0  0  0  0  0  0  0
   -1.2410   -4.1720   -1.3680 H   0  0  0  0  0  0  0  0  0  0  0  0
   -2.3400   -4.1760    0.1210 H   0  0  0  0  0  0  0  0  0  0  0  0
   -0.9520   -2.3830    0.5430 H   0  0  0  0  0  0  0  0  0  0  0  0
  1 10  1  0  0  0  0
  1 11  1  0  0  0  0
  2 12  1  6  0  0  0
  2  8  1  0  0  0  0
  2  1  1  0  0  0  0
  3  4  1  0  0  0  0
  3 13  1  0  0  0  0
  3  2  1  0  0  0  0
  4 15  1  0  0  0  0
  5  6  1  0  0  0  0
  5  4  1  0  0  0  0
  5 17  1  0  0  0  0
  6 20  1  0  0  0  0
  7  6  1  0  0  0  0
  8  9  2  0  0  0  0
 14  3  1  0  0  0  0
 16  4  1  0  0  0  0
 18  5  1  0  0  0  0
 19  6  1  0  0  0  0
 21  7  1  0  0  0  0
 22  7  1  0  0  0  0
 23 24  1  0  0  0  0
 23  8  1  0  0  0  0
 24 25  1  0  0  0  0
 24 33  1  1  0  0  0
 25 35  1  0  0  0  0
 25 34  1  0  0  0  0
 26 36  1  0  0  0  0
 26 25  1  0  0  0  0
 27 39  1  0  0  0  0
 27 26  1  0  0  0  0
 28 40  1  0  0  0  0
 28 27  1  0  0  0  0
 29 28  1  0  0  0  0
 30 24  1  0  0  0  0
 31 30  2  0  0  0  0
 32 23  1  0  0  0  0
 37 26  1  0  0  0  0
 38 27  1  0  0  0  0
 41 28  1  0  0  0  0
 42 29  1  0  0  0  0
 43 29  1  0  0  0  0
 44 30  1  0  0  0  0
 45 52  1  0  0  0  0
 45 44  1  0  0  0  0
 46 54  1  0  0  0  0
 46 45  1  0  0  0  0
 46 47  1  0  0  0  0
 47 48  1  0  0  0  0
 47 57  1  0  0  0  0
 48 44  1  0  0  0  0
 48 58  1  1  0  0  0
 49 48  1  0  0  0  0
 50 49  2  0  0  0  0
 51 49  1  0  0  0  0
 53 45  1  0  0  0  0
 55 46  1  0  0  0  0
 56 47  1  0  0  0  0
M  END
$$$$
