KKQ.pdb
 OpenBabel07022418513D

 61 60  0  0  1  0  0  0  0  0999 V2000
    0.9990   -0.0420    5.1550 N   0  0  0  0  0  0  0  0  0  0  0  0
    0.9590    0.4810    3.8040 C   0  0  1  0  0  0  0  0  0  0  0  0
    2.3200    0.4490    3.1990 C   0  0  0  0  0  0  0  0  0  0  0  0
    2.9640   -0.8770    3.0870 C   0  0  0  0  0  0  0  0  0  0  0  0
    3.2010   -1.6240    4.3490 C   0  0  0  0  0  0  0  0  0  0  0  0
    4.1010   -0.8720    5.2950 C   0  0  0  0  0  0  0  0  0  0  0  0
    4.3000   -1.6420    6.5130 N   0  0  0  0  0  0  0  0  0  0  0  0
   -0.0850   -0.1510    2.9930 C   0  0  0  0  0  0  0  0  0  0  0  0
   -0.8060   -1.0290    3.5050 O   0  0  0  0  0  0  0  0  0  0  0  0
    0.2090   -0.7190    5.2470 H   0  0  0  0  0  0  0  0  0  0  0  0
    1.0040    0.6990    5.8870 H   0  0  0  0  0  0  0  0  0  0  0  0
    0.6920    1.5740    3.9280 H   0  0  0  0  0  0  0  0  0  0  0  0
    3.0100    1.1270    3.7570 H   0  0  0  0  0  0  0  0  0  0  0  0
    2.2970    0.8860    2.1580 H   0  0  0  0  0  0  0  0  0  0  0  0
    2.3850   -1.4910    2.3690 H   0  0  0  0  0  0  0  0  0  0  0  0
    3.9690   -0.7400    2.5940 H   0  0  0  0  0  0  0  0  0  0  0  0
    3.7820   -2.5540    4.0690 H   0  0  0  0  0  0  0  0  0  0  0  0
    2.3250   -1.9860    4.8790 H   0  0  0  0  0  0  0  0  0  0  0  0
    5.1050   -0.8440    4.8020 H   0  0  0  0  0  0  0  0  0  0  0  0
    3.7460    0.1170    5.5900 H   0  0  0  0  0  0  0  0  0  0  0  0
    5.2170   -2.0950    6.5750 H   0  0  0  0  0  0  0  0  0  0  0  0
    3.5430   -2.3570    6.5490 H   0  0  0  0  0  0  0  0  0  0  0  0
   -0.3050    0.1970    1.6550 N   0  0  0  0  0  0  0  0  0  0  0  0
   -1.3930   -0.4640    0.8170 C   0  0  1  0  0  0  0  0  0  0  0  0
   -2.3990    0.5760    0.7380 C   0  0  0  0  0  0  0  0  0  0  0  0
   -3.6770    0.5230    0.0580 C   0  0  0  0  0  0  0  0  0  0  0  0
   -3.7870    0.5310   -1.4200 C   0  0  0  0  0  0  0  0  0  0  0  0
   -3.2220    1.8260   -2.0010 C   0  0  0  0  0  0  0  0  0  0  0  0
   -3.4090    1.7960   -3.4290 N   0  0  0  0  0  0  0  0  0  0  0  0
   -0.7800   -1.2760   -0.1690 C   0  0  0  0  0  0  0  0  0  0  0  0
    0.5210   -1.2500   -0.2090 O   0  0  0  0  0  0  0  0  0  0  0  0
    0.2310    0.9110    1.1250 H   0  0  0  0  0  0  0  0  0  0  0  0
   -1.8620   -1.2220    1.6190 H   0  0  0  0  0  0  0  0  0  0  0  0
   -1.8400    1.5650    0.4770 H   0  0  0  0  0  0  0  0  0  0  0  0
   -2.6430    0.8450    1.8510 H   0  0  0  0  0  0  0  0  0  0  0  0
   -4.2890   -0.3430    0.4790 H   0  0  0  0  0  0  0  0  0  0  0  0
   -4.3370    1.4040    0.4000 H   0  0  0  0  0  0  0  0  0  0  0  0
   -4.8730    0.5570   -1.7250 H   0  0  0  0  0  0  0  0  0  0  0  0
   -3.3420   -0.2980   -1.9250 H   0  0  0  0  0  0  0  0  0  0  0  0
   -3.7940    2.7160   -1.6240 H   0  0  0  0  0  0  0  0  0  0  0  0
   -2.1390    1.9230   -1.8080 H   0  0  0  0  0  0  0  0  0  0  0  0
   -3.0180    2.6310   -3.9090 H   0  0  0  0  0  0  0  0  0  0  0  0
   -4.4380    1.7900   -3.6810 H   0  0  0  0  0  0  0  0  0  0  0  0
   -2.0660   -0.3400   -5.2180 N   0  0  0  0  0  0  0  0  0  0  0  0
   -1.1640   -0.8330   -4.2170 C   0  0  0  0  0  0  0  0  0  0  0  0
   -0.9910   -0.1610   -3.1940 O   0  0  0  0  0  0  0  0  0  0  0  0
   -0.4490   -2.1010   -4.3790 C   0  0  0  0  0  0  0  0  0  0  0  0
    0.2380   -2.5840   -3.1570 C   0  0  0  0  0  0  0  0  0  0  0  0
   -0.4820   -2.9470   -1.9670 C   0  0  2  0  0  0  0  0  0  0  0  0
   -1.3020   -2.1630   -1.1490 N   0  0  0  0  0  0  0  0  0  0  0  0
    0.4750   -3.7760   -1.0650 C   0  0  0  0  0  0  0  0  0  0  0  0
    1.3270   -4.4800   -1.6410 O   0  0  0  0  0  0  0  0  0  0  0  0
    0.3960   -3.7460    0.2870 O   0  0  0  0  0  0  0  0  0  0  0  0
   -3.0350   -0.7350   -5.2460 H   0  0  0  0  0  0  0  0  0  0  0  0
   -1.8200    0.3780   -5.9120 H   0  0  0  0  0  0  0  0  0  0  0  0
   -1.0820   -2.8850   -4.8650 H   0  0  0  0  0  0  0  0  0  0  0  0
    0.3740   -1.8920   -5.1360 H   0  0  0  0  0  0  0  0  0  0  0  0
    1.1010   -1.8690   -3.0010 H   0  0  0  0  0  0  0  0  0  0  0  0
    0.8170   -3.5230   -3.4990 H   0  0  0  0  0  0  0  0  0  0  0  0
   -1.1440   -3.8660   -2.2970 H   0  0  0  0  0  0  0  0  0  0  0  0
   -2.3410   -2.2010   -1.2000 H   0  0  0  0  0  0  0  0  0  0  0  0
  1 10  1  0  0  0  0
  1 11  1  0  0  0  0
  2 12  1  1  0  0  0
  2  1  1  0  0  0  0
  3 13  1  0  0  0  0
  3  2  1  0  0  0  0
  4  3  1  0  0  0  0
  4  5  1  0  0  0  0
  5 18  1  0  0  0  0
  5  6  1  0  0  0  0
  6 20  1  0  0  0  0
  6  7  1  0  0  0  0
  7 22  1  0  0  0  0
  7 21  1  0  0  0  0
  8  9  2  0  0  0  0
  8  2  1  0  0  0  0
 14  3  1  0  0  0  0
 15  4  1  0  0  0  0
 16  4  1  0  0  0  0
 17  5  1  0  0  0  0
 19  6  1  0  0  0  0
 23  8  1  0  0  0  0
 24 33  1  1  0  0  0
 24 23  1  0  0  0  0
 25 24  1  0  0  0  0
 25 35  1  0  0  0  0
 26 37  1  0  0  0  0
 26 36  1  0  0  0  0
 26 25  1  0  0  0  0
 27 26  1  0  0  0  0
 28 41  1  0  0  0  0
 28 40  1  0  0  0  0
 28 27  1  0  0  0  0
 29 28  1  0  0  0  0
 30 24  1  0  0  0  0
 31 30  2  0  0  0  0
 32 23  1  0  0  0  0
 34 25  1  0  0  0  0
 38 27  1  0  0  0  0
 39 27  1  0  0  0  0
 42 29  1  0  0  0  0
 43 29  1  0  0  0  0
 44 45  1  0  0  0  0
 45 46  2  0  0  0  0
 47 45  1  0  0  0  0
 47 48  1  0  0  0  0
 48 58  1  0  0  0  0
 48 49  1  0  0  0  0
 49 60  1  6  0  0  0
 49 50  1  0  0  0  0
 49 51  1  0  0  0  0
 50 30  1  0  0  0  0
 51 53  1  0  0  0  0
 52 51  2  0  0  0  0
 54 44  1  0  0  0  0
 55 44  1  0  0  0  0
 56 47  1  0  0  0  0
 57 47  1  0  0  0  0
 59 48  1  0  0  0  0
 61 50  1  0  0  0  0
M  END
$$$$
