KKR.pdb
 OpenBabel07022418513D

 67 66  0  0  1  0  0  0  0  0999 V2000
    2.4170    3.4880    2.0560 N   0  0  0  0  0  0  0  0  0  0  0  0
    2.8660    2.3540    1.2800 C   0  0  1  0  0  0  0  0  0  0  0  0
    3.7160    1.4730    2.1340 C   0  0  0  0  0  0  0  0  0  0  0  0
    4.9400    2.0810    2.7000 C   0  0  0  0  0  0  0  0  0  0  0  0
    4.7620    3.2400    3.6150 C   0  0  0  0  0  0  0  0  0  0  0  0
    3.9690    2.9490    4.8590 C   0  0  0  0  0  0  0  0  0  0  0  0
    4.5940    1.9170    5.6680 N   0  0  0  0  0  0  0  0  0  0  0  0
    1.6440    1.6320    0.8080 C   0  0  0  0  0  0  0  0  0  0  0  0
    0.4960    2.0430    1.1030 O   0  0  0  0  0  0  0  0  0  0  0  0
    2.2960    4.3570    1.4910 H   0  0  0  0  0  0  0  0  0  0  0  0
    1.6470    3.2890    2.7000 H   0  0  0  0  0  0  0  0  0  0  0  0
    3.4250    2.7840    0.4170 H   0  0  0  0  0  0  0  0  0  0  0  0
    4.0520    0.6200    1.4770 H   0  0  0  0  0  0  0  0  0  0  0  0
    3.1470    1.0000    2.9610 H   0  0  0  0  0  0  0  0  0  0  0  0
    5.7030    2.3540    1.9380 H   0  0  0  0  0  0  0  0  0  0  0  0
    5.4460    1.2760    3.3080 H   0  0  0  0  0  0  0  0  0  0  0  0
    4.3870    4.1650    3.1580 H   0  0  0  0  0  0  0  0  0  0  0  0
    5.7990    3.5080    3.9790 H   0  0  0  0  0  0  0  0  0  0  0  0
    2.9050    2.7380    4.6670 H   0  0  0  0  0  0  0  0  0  0  0  0
    3.9980    3.8850    5.4750 H   0  0  0  0  0  0  0  0  0  0  0  0
    4.6270    0.9980    5.2110 H   0  0  0  0  0  0  0  0  0  0  0  0
    4.1120    1.9230    6.5950 H   0  0  0  0  0  0  0  0  0  0  0  0
    1.7300    0.4580    0.0110 N   0  0  0  0  0  0  0  0  0  0  0  0
    0.5770   -0.2760   -0.4710 C   0  0  1  0  0  0  0  0  0  0  0  0
    0.5900   -0.4730   -1.9510 C   0  0  0  0  0  0  0  0  0  0  0  0
    0.5970    0.8130   -2.7290 C   0  0  0  0  0  0  0  0  0  0  0  0
   -0.6120    1.6710   -2.4440 C   0  0  0  0  0  0  0  0  0  0  0  0
   -1.8960    0.9900   -2.7830 C   0  0  0  0  0  0  0  0  0  0  0  0
   -2.9800    1.9110   -2.4650 N   0  0  0  0  0  0  0  0  0  0  0  0
    0.5310   -1.6340    0.1670 C   0  0  0  0  0  0  0  0  0  0  0  0
    1.4040   -1.9990    0.9960 O   0  0  0  0  0  0  0  0  0  0  0  0
    2.6920    0.1240   -0.2290 H   0  0  0  0  0  0  0  0  0  0  0  0
   -0.3430    0.2400   -0.1140 H   0  0  0  0  0  0  0  0  0  0  0  0
    1.5580   -0.9920   -2.2000 H   0  0  0  0  0  0  0  0  0  0  0  0
   -0.2050   -1.1570   -2.2390 H   0  0  0  0  0  0  0  0  0  0  0  0
    0.5650    0.5510   -3.8070 H   0  0  0  0  0  0  0  0  0  0  0  0
    1.5390    1.3680   -2.5630 H   0  0  0  0  0  0  0  0  0  0  0  0
   -0.5320    2.5710   -3.0920 H   0  0  0  0  0  0  0  0  0  0  0  0
   -0.6670    2.0300   -1.4080 H   0  0  0  0  0  0  0  0  0  0  0  0
   -1.9370    0.6430   -3.8360 H   0  0  0  0  0  0  0  0  0  0  0  0
   -2.0740    0.0780   -2.1550 H   0  0  0  0  0  0  0  0  0  0  0  0
   -3.4730    2.2530   -3.3090 H   0  0  0  0  0  0  0  0  0  0  0  0
   -2.6790    2.6460   -1.8050 H   0  0  0  0  0  0  0  0  0  0  0  0
   -6.8430   -4.5410   -1.8700 N   0  0  0  0  0  0  0  0  0  0  0  0
   -5.9120   -4.8430   -0.8630 C   0  0  0  0  0  0  0  0  0  0  0  0
   -5.3120   -5.9850   -0.8550 N   0  0  0  0  0  0  0  0  0  0  0  0
   -5.5750   -3.9370    0.1890 N   0  0  0  0  0  0  0  0  0  0  0  0
   -4.3770   -4.1050    0.9980 C   0  0  0  0  0  0  0  0  0  0  0  0
   -3.1250   -3.8730    0.2010 C   0  0  0  0  0  0  0  0  0  0  0  0
   -1.9380   -4.0700    1.1250 C   0  0  0  0  0  0  0  0  0  0  0  0
   -0.6320   -3.8560    0.4070 C   0  0  2  0  0  0  0  0  0  0  0  0
   -0.4960   -2.5420   -0.1450 N   0  0  0  0  0  0  0  0  0  0  0  0
   -0.5120   -4.9280   -0.6200 C   0  0  0  0  0  0  0  0  0  0  0  0
   -0.3130   -4.7240   -1.8330 O   0  0  0  0  0  0  0  0  0  0  0  0
   -0.6310   -6.2400   -0.1840 O   0  0  0  0  0  0  0  0  0  0  0  0
   -7.8240   -4.8520   -1.7850 H   0  0  0  0  0  0  0  0  0  0  0  0
   -6.5500   -4.0060   -2.7030 H   0  0  0  0  0  0  0  0  0  0  0  0
   -5.5110   -6.6860   -1.5880 H   0  0  0  0  0  0  0  0  0  0  0  0
   -6.2360   -3.1430    0.3500 H   0  0  0  0  0  0  0  0  0  0  0  0
   -4.4480   -3.4100    1.8690 H   0  0  0  0  0  0  0  0  0  0  0  0
   -4.3940   -5.1280    1.4400 H   0  0  0  0  0  0  0  0  0  0  0  0
   -3.1220   -4.5990   -0.6390 H   0  0  0  0  0  0  0  0  0  0  0  0
   -3.1480   -2.8350   -0.1850 H   0  0  0  0  0  0  0  0  0  0  0  0
   -2.0260   -3.3670    1.9540 H   0  0  0  0  0  0  0  0  0  0  0  0
   -1.9350   -5.1050    1.5210 H   0  0  0  0  0  0  0  0  0  0  0  0
    0.1940   -4.0290    1.1260 H   0  0  0  0  0  0  0  0  0  0  0  0
   -1.2260   -2.2320   -0.8400 H   0  0  0  0  0  0  0  0  0  0  0  0
  1 11  1  0  0  0  0
  2 12  1  6  0  0  0
  2  1  1  0  0  0  0
  2  3  1  0  0  0  0
  3  4  1  0  0  0  0
  3 14  1  0  0  0  0
  4 16  1  0  0  0  0
  4  5  1  0  0  0  0
  5 18  1  0  0  0  0
  5  6  1  0  0  0  0
  6 20  1  0  0  0  0
  6  7  1  0  0  0  0
  7 22  1  0  0  0  0
  8  9  2  0  0  0  0
  8  2  1  0  0  0  0
 10  1  1  0  0  0  0
 13  3  1  0  0  0  0
 15  4  1  0  0  0  0
 17  5  1  0  0  0  0
 19  6  1  0  0  0  0
 21  7  1  0  0  0  0
 23  8  1  0  0  0  0
 24 33  1  1  0  0  0
 24 23  1  0  0  0  0
 24 30  1  0  0  0  0
 25 24  1  0  0  0  0
 26 37  1  0  0  0  0
 26 27  1  0  0  0  0
 26 25  1  0  0  0  0
 27 39  1  0  0  0  0
 28 29  1  0  0  0  0
 28 27  1  0  0  0  0
 28 41  1  0  0  0  0
 29 43  1  0  0  0  0
 30 31  2  0  0  0  0
 32 23  1  0  0  0  0
 34 25  1  0  0  0  0
 35 25  1  0  0  0  0
 36 26  1  0  0  0  0
 38 27  1  0  0  0  0
 40 28  1  0  0  0  0
 42 29  1  0  0  0  0
 44 56  1  0  0  0  0
 44 45  1  0  0  0  0
 45 46  2  0  0  0  0
 45 47  1  0  0  0  0
 47 59  1  0  0  0  0
 47 48  1  0  0  0  0
 48 61  1  0  0  0  0
 48 60  1  0  0  0  0
 49 48  1  0  0  0  0
 49 50  1  0  0  0  0
 50 65  1  0  0  0  0
 50 64  1  0  0  0  0
 51 50  1  0  0  0  0
 51 66  1  1  0  0  0
 52 30  1  0  0  0  0
 52 51  1  0  0  0  0
 53 55  1  0  0  0  0
 53 51  1  0  0  0  0
 54 53  2  0  0  0  0
 57 44  1  0  0  0  0
 58 46  1  0  0  0  0
 62 49  1  0  0  0  0
 63 49  1  0  0  0  0
 67 52  1  0  0  0  0
M  END
$$$$
