KKS.pdb
 OpenBabel07022418513D

 55 54  0  0  1  0  0  0  0  0999 V2000
    2.8530    0.0770    1.1670 N   0  0  0  0  0  0  0  0  0  0  0  0
    2.7630   -1.3890    1.0200 C   0  0  1  0  0  0  0  0  0  0  0  0
    3.1010   -1.9390    2.3900 C   0  0  0  0  0  0  0  0  0  0  0  0
    3.0730   -3.4310    2.4710 C   0  0  0  0  0  0  0  0  0  0  0  0
    4.0130   -4.1070    1.5390 C   0  0  0  0  0  0  0  0  0  0  0  0
    5.4590   -3.7930    1.7250 C   0  0  0  0  0  0  0  0  0  0  0  0
    5.8220   -2.4140    1.5560 N   0  0  0  0  0  0  0  0  0  0  0  0
    1.3410   -1.6760    0.7270 C   0  0  0  0  0  0  0  0  0  0  0  0
    1.0060   -2.8650    0.5100 O   0  0  0  0  0  0  0  0  0  0  0  0
    2.4660    0.3110    2.1150 H   0  0  0  0  0  0  0  0  0  0  0  0
    3.8690    0.3230    1.2090 H   0  0  0  0  0  0  0  0  0  0  0  0
    3.4400   -1.7670    0.2600 H   0  0  0  0  0  0  0  0  0  0  0  0
    2.2810   -1.5890    3.1040 H   0  0  0  0  0  0  0  0  0  0  0  0
    4.0590   -1.5400    2.7710 H   0  0  0  0  0  0  0  0  0  0  0  0
    2.0280   -3.8190    2.3500 H   0  0  0  0  0  0  0  0  0  0  0  0
    3.4040   -3.7240    3.5140 H   0  0  0  0  0  0  0  0  0  0  0  0
    3.8600   -5.2240    1.5490 H   0  0  0  0  0  0  0  0  0  0  0  0
    3.7470   -3.7660    0.4960 H   0  0  0  0  0  0  0  0  0  0  0  0
    5.8100   -4.0960    2.7560 H   0  0  0  0  0  0  0  0  0  0  0  0
    6.0850   -4.3700    0.9970 H   0  0  0  0  0  0  0  0  0  0  0  0
    6.0310   -2.2420    0.5500 H   0  0  0  0  0  0  0  0  0  0  0  0
    6.6450   -2.1750    2.1180 H   0  0  0  0  0  0  0  0  0  0  0  0
    0.3330   -0.6760    0.6770 N   0  0  0  0  0  0  0  0  0  0  0  0
   -1.0490   -0.9930    0.3870 C   0  0  1  0  0  0  0  0  0  0  0  0
   -1.9590   -0.7850    1.5440 C   0  0  0  0  0  0  0  0  0  0  0  0
   -2.0220    0.5950    2.1090 C   0  0  0  0  0  0  0  0  0  0  0  0
   -2.4940    1.6040    1.1220 C   0  0  0  0  0  0  0  0  0  0  0  0
   -2.5670    3.0020    1.7110 C   0  0  0  0  0  0  0  0  0  0  0  0
   -3.0410    3.8730    0.6320 N   0  0  0  0  0  0  0  0  0  0  0  0
   -1.5000   -0.4780   -0.9070 C   0  0  0  0  0  0  0  0  0  0  0  0
   -0.6890    0.1500   -1.6760 O   0  0  0  0  0  0  0  0  0  0  0  0
    0.6360    0.3140    0.8620 H   0  0  0  0  0  0  0  0  0  0  0  0
   -1.0450   -2.1340    0.2360 H   0  0  0  0  0  0  0  0  0  0  0  0
   -1.7410   -1.5060    2.3880 H   0  0  0  0  0  0  0  0  0  0  0  0
   -2.9940   -1.1090    1.2170 H   0  0  0  0  0  0  0  0  0  0  0  0
   -2.6670    0.6430    3.0300 H   0  0  0  0  0  0  0  0  0  0  0  0
   -1.0080    0.9500    2.4600 H   0  0  0  0  0  0  0  0  0  0  0  0
   -1.8370    1.6660    0.2360 H   0  0  0  0  0  0  0  0  0  0  0  0
   -3.5190    1.3800    0.7550 H   0  0  0  0  0  0  0  0  0  0  0  0
   -1.5710    3.3270    2.0240 H   0  0  0  0  0  0  0  0  0  0  0  0
   -3.2460    3.0230    2.5760 H   0  0  0  0  0  0  0  0  0  0  0  0
   -4.0720    3.9370    0.6020 H   0  0  0  0  0  0  0  0  0  0  0  0
   -2.5340    4.7630    0.5850 H   0  0  0  0  0  0  0  0  0  0  0  0
   -2.2610   -2.0240   -3.6250 O   0  0  0  0  0  0  0  0  0  0  0  0
   -3.4730   -1.3200   -3.5840 C   0  0  0  0  0  0  0  0  0  0  0  0
   -3.2130   -0.0840   -2.7100 C   0  0  2  0  0  0  0  0  0  0  0  0
   -2.8140   -0.6150   -1.4120 N   0  0  0  0  0  0  0  0  0  0  0  0
   -4.4450    0.7280   -2.6060 C   0  0  0  0  0  0  0  0  0  0  0  0
   -5.0050    0.8760   -1.4940 O   0  0  0  0  0  0  0  0  0  0  0  0
   -5.0160    1.3430   -3.7060 O   0  0  0  0  0  0  0  0  0  0  0  0
   -2.1380   -2.5610   -2.8030 H   0  0  0  0  0  0  0  0  0  0  0  0
   -3.7820   -1.0110   -4.5920 H   0  0  0  0  0  0  0  0  0  0  0  0
   -4.2970   -1.9320   -3.1590 H   0  0  0  0  0  0  0  0  0  0  0  0
   -2.3710    0.4310   -3.1910 H   0  0  0  0  0  0  0  0  0  0  0  0
   -3.5090   -1.1160   -0.8230 H   0  0  0  0  0  0  0  0  0  0  0  0
  1 11  1  0  0  0  0
  1 10  1  0  0  0  0
  2 12  1  6  0  0  0
  2  1  1  0  0  0  0
  2  3  1  0  0  0  0
  3  4  1  0  0  0  0
  3 14  1  0  0  0  0
  3 13  1  0  0  0  0
  4 16  1  0  0  0  0
  5 17  1  0  0  0  0
  5  6  1  0  0  0  0
  5  4  1  0  0  0  0
  6 19  1  0  0  0  0
  7  6  1  0  0  0  0
  7 22  1  0  0  0  0
  8  2  1  0  0  0  0
  9  8  2  0  0  0  0
 15  4  1  0  0  0  0
 18  5  1  0  0  0  0
 20  6  1  0  0  0  0
 21  7  1  0  0  0  0
 23  8  1  0  0  0  0
 23 32  1  0  0  0  0
 24 33  1  6  0  0  0
 24 23  1  0  0  0  0
 24 25  1  0  0  0  0
 25 26  1  0  0  0  0
 25 34  1  0  0  0  0
 26 37  1  0  0  0  0
 26 36  1  0  0  0  0
 27 28  1  0  0  0  0
 27 26  1  0  0  0  0
 28 40  1  0  0  0  0
 28 41  1  0  0  0  0
 29 28  1  0  0  0  0
 30 24  1  0  0  0  0
 31 30  2  0  0  0  0
 35 25  1  0  0  0  0
 38 27  1  0  0  0  0
 39 27  1  0  0  0  0
 42 29  1  0  0  0  0
 43 29  1  0  0  0  0
 44 45  1  0  0  0  0
 44 51  1  0  0  0  0
 45 53  1  0  0  0  0
 45 46  1  0  0  0  0
 46 54  1  6  0  0  0
 46 48  1  0  0  0  0
 46 47  1  0  0  0  0
 47 30  1  0  0  0  0
 47 55  1  0  0  0  0
 48 49  1  0  0  0  0
 50 48  2  0  0  0  0
 52 45  1  0  0  0  0
M  END
$$$$
