KKV.pdb
 OpenBabel07022418513D

 60 59  0  0  1  0  0  0  0  0999 V2000
    4.0830    0.0450    1.7420 N   0  0  0  0  0  0  0  0  0  0  0  0
    3.2440   -0.5450    0.7350 C   0  0  1  0  0  0  0  0  0  0  0  0
    2.9890   -1.9870    0.8090 C   0  0  0  0  0  0  0  0  0  0  0  0
    2.3340   -2.6600    1.9010 C   0  0  0  0  0  0  0  0  0  0  0  0
    2.7320   -2.7610    3.2820 C   0  0  0  0  0  0  0  0  0  0  0  0
    2.8890   -1.6560    4.2160 C   0  0  0  0  0  0  0  0  0  0  0  0
    3.2640   -2.2640    5.5370 N   0  0  0  0  0  0  0  0  0  0  0  0
    2.0010    0.2810    0.5670 C   0  0  0  0  0  0  0  0  0  0  0  0
    1.7760    1.3000    1.2590 O   0  0  0  0  0  0  0  0  0  0  0  0
    4.5930    0.8870    1.3940 H   0  0  0  0  0  0  0  0  0  0  0  0
    4.8470   -0.6640    1.9550 H   0  0  0  0  0  0  0  0  0  0  0  0
    3.8370   -0.3430   -0.2230 H   0  0  0  0  0  0  0  0  0  0  0  0
    2.3670   -2.2330   -0.1320 H   0  0  0  0  0  0  0  0  0  0  0  0
    3.9670   -2.5160    0.4860 H   0  0  0  0  0  0  0  0  0  0  0  0
    2.1860   -3.7600    1.5470 H   0  0  0  0  0  0  0  0  0  0  0  0
    1.2120   -2.3490    1.8260 H   0  0  0  0  0  0  0  0  0  0  0  0
    3.6880   -3.3990    3.3950 H   0  0  0  0  0  0  0  0  0  0  0  0
    1.9870   -3.4880    3.7810 H   0  0  0  0  0  0  0  0  0  0  0  0
    1.8750   -1.2120    4.4420 H   0  0  0  0  0  0  0  0  0  0  0  0
    3.6680   -0.9200    4.0930 H   0  0  0  0  0  0  0  0  0  0  0  0
    3.1780   -1.5450    6.2740 H   0  0  0  0  0  0  0  0  0  0  0  0
    4.1780   -2.7210    5.4600 H   0  0  0  0  0  0  0  0  0  0  0  0
    1.0270   -0.0730   -0.3990 N   0  0  0  0  0  0  0  0  0  0  0  0
   -0.1810    0.7550   -0.5450 C   0  0  1  0  0  0  0  0  0  0  0  0
   -0.1850    1.4020   -1.9190 C   0  0  0  0  0  0  0  0  0  0  0  0
   -1.3790    2.2710   -2.1670 C   0  0  0  0  0  0  0  0  0  0  0  0
   -1.4870    3.4100   -1.1710 C   0  0  0  0  0  0  0  0  0  0  0  0
   -2.7420    4.2020   -1.5470 C   0  0  0  0  0  0  0  0  0  0  0  0
   -2.6000    4.7040   -2.8960 N   0  0  0  0  0  0  0  0  0  0  0  0
   -1.3810   -0.0820   -0.3020 C   0  0  0  0  0  0  0  0  0  0  0  0
   -2.5570    0.3590   -0.3380 O   0  0  0  0  0  0  0  0  0  0  0  0
    1.1170   -0.9050   -1.0280 H   0  0  0  0  0  0  0  0  0  0  0  0
   -0.1670    1.5720    0.1820 H   0  0  0  0  0  0  0  0  0  0  0  0
    0.7190    2.0320   -2.0350 H   0  0  0  0  0  0  0  0  0  0  0  0
   -0.1460    0.6500   -2.7270 H   0  0  0  0  0  0  0  0  0  0  0  0
   -2.3210    1.7060   -2.2020 H   0  0  0  0  0  0  0  0  0  0  0  0
   -1.1950    2.7520   -3.1750 H   0  0  0  0  0  0  0  0  0  0  0  0
   -1.5320    3.0670   -0.1320 H   0  0  0  0  0  0  0  0  0  0  0  0
   -0.6320    4.1080   -1.2790 H   0  0  0  0  0  0  0  0  0  0  0  0
   -2.9090    5.0310   -0.8420 H   0  0  0  0  0  0  0  0  0  0  0  0
   -3.6460    3.5680   -1.5300 H   0  0  0  0  0  0  0  0  0  0  0  0
   -2.9540    5.6870   -2.9720 H   0  0  0  0  0  0  0  0  0  0  0  0
   -3.1580    4.1410   -3.5860 H   0  0  0  0  0  0  0  0  0  0  0  0
   -3.7740   -4.2680   -0.4000 C   0  0  0  0  0  0  0  0  0  0  0  0
   -2.5260   -3.4670   -0.7280 C   0  0  0  0  0  0  0  0  0  0  0  0
   -1.3600   -4.3980   -0.6520 C   0  0  0  0  0  0  0  0  0  0  0  0
   -2.4390   -2.3120    0.2360 C   0  0  2  0  0  0  0  0  0  0  0  0
   -1.2760   -1.4890   -0.0010 N   0  0  0  0  0  0  0  0  0  0  0  0
   -2.3810   -2.7970    1.6400 C   0  0  0  0  0  0  0  0  0  0  0  0
   -1.4590   -2.5110    2.4430 O   0  0  0  0  0  0  0  0  0  0  0  0
   -3.3960   -3.6290    2.1500 O   0  0  0  0  0  0  0  0  0  0  0  0
   -3.5400   -5.1940    0.1650 H   0  0  0  0  0  0  0  0  0  0  0  0
   -4.5320   -3.6440    0.1050 H   0  0  0  0  0  0  0  0  0  0  0  0
   -4.1840   -4.6230   -1.3840 H   0  0  0  0  0  0  0  0  0  0  0  0
   -2.6190   -3.0450   -1.7540 H   0  0  0  0  0  0  0  0  0  0  0  0
   -1.1310   -4.7380   -1.7030 H   0  0  0  0  0  0  0  0  0  0  0  0
   -0.4370   -3.9640   -0.2680 H   0  0  0  0  0  0  0  0  0  0  0  0
   -1.6310   -5.3560   -0.1200 H   0  0  0  0  0  0  0  0  0  0  0  0
   -3.3810   -1.7320    0.1500 H   0  0  0  0  0  0  0  0  0  0  0  0
   -0.3450   -1.9530    0.0520 H   0  0  0  0  0  0  0  0  0  0  0  0
  1 11  1  0  0  0  0
  2 12  1  6  0  0  0
  2  3  1  0  0  0  0
  2  1  1  0  0  0  0
  3  4  1  0  0  0  0
  4  5  1  0  0  0  0
  5 17  1  0  0  0  0
  5 18  1  0  0  0  0
  5  6  1  0  0  0  0
  6 19  1  0  0  0  0
  6  7  1  0  0  0  0
  7 21  1  0  0  0  0
  8  2  1  0  0  0  0
  8  9  2  0  0  0  0
 10  1  1  0  0  0  0
 13  3  1  0  0  0  0
 14  3  1  0  0  0  0
 15  4  1  0  0  0  0
 16  4  1  0  0  0  0
 20  6  1  0  0  0  0
 22  7  1  0  0  0  0
 23  8  1  0  0  0  0
 24 23  1  0  0  0  0
 24 30  1  0  0  0  0
 24 33  1  1  0  0  0
 25 24  1  0  0  0  0
 26 25  1  0  0  0  0
 26 27  1  0  0  0  0
 27 38  1  0  0  0  0
 28 41  1  0  0  0  0
 28 27  1  0  0  0  0
 28 40  1  0  0  0  0
 29 28  1  0  0  0  0
 30 48  1  0  0  0  0
 31 30  2  0  0  0  0
 32 23  1  0  0  0  0
 34 25  1  0  0  0  0
 35 25  1  0  0  0  0
 36 26  1  0  0  0  0
 37 26  1  0  0  0  0
 39 27  1  0  0  0  0
 42 29  1  0  0  0  0
 43 29  1  0  0  0  0
 44 53  1  0  0  0  0
 44 52  1  0  0  0  0
 45 46  1  0  0  0  0
 45 44  1  0  0  0  0
 45 47  1  0  0  0  0
 46 57  1  0  0  0  0
 46 58  1  0  0  0  0
 47 59  1  6  0  0  0
 47 49  1  0  0  0  0
 48 60  1  0  0  0  0
 48 47  1  0  0  0  0
 49 51  2  0  0  0  0
 49 50  1  0  0  0  0
 54 44  1  0  0  0  0
 55 45  1  0  0  0  0
 56 46  1  0  0  0  0
M  END
$$$$
