KKW.pdb
 OpenBabel07022418513D

 68 69  0  0  1  0  0  0  0  0999 V2000
    2.1510    3.3990    2.6890 N   0  0  0  0  0  0  0  0  0  0  0  0
    2.1640    2.0600    2.1310 C   0  0  1  0  0  0  0  0  0  0  0  0
    1.7670    1.0910    3.2160 C   0  0  0  0  0  0  0  0  0  0  0  0
    2.7070    1.1350    4.3900 C   0  0  0  0  0  0  0  0  0  0  0  0
    2.2810    0.1530    5.4590 C   0  0  0  0  0  0  0  0  0  0  0  0
    0.9020    0.4290    5.9930 C   0  0  0  0  0  0  0  0  0  0  0  0
    0.5900   -0.5610    7.0080 N   0  0  0  0  0  0  0  0  0  0  0  0
    1.2110    1.9850    0.9990 C   0  0  0  0  0  0  0  0  0  0  0  0
    0.5640    3.0130    0.6370 O   0  0  0  0  0  0  0  0  0  0  0  0
    1.6380    4.0420    2.0270 H   0  0  0  0  0  0  0  0  0  0  0  0
    3.1280    3.7720    2.7300 H   0  0  0  0  0  0  0  0  0  0  0  0
    3.1990    1.8000    1.8230 H   0  0  0  0  0  0  0  0  0  0  0  0
    0.7260    1.2850    3.5370 H   0  0  0  0  0  0  0  0  0  0  0  0
    1.8010    0.0690    2.7820 H   0  0  0  0  0  0  0  0  0  0  0  0
    2.6310    2.1480    4.8680 H   0  0  0  0  0  0  0  0  0  0  0  0
    3.7490    0.9650    4.1250 H   0  0  0  0  0  0  0  0  0  0  0  0
    2.9910    0.1270    6.2990 H   0  0  0  0  0  0  0  0  0  0  0  0
    2.2170   -0.8510    4.9440 H   0  0  0  0  0  0  0  0  0  0  0  0
    0.8040    1.4270    6.4500 H   0  0  0  0  0  0  0  0  0  0  0  0
    0.1150    0.3350    5.2230 H   0  0  0  0  0  0  0  0  0  0  0  0
    0.4100   -1.5070    6.6170 H   0  0  0  0  0  0  0  0  0  0  0  0
    1.3010   -0.5590    7.7870 H   0  0  0  0  0  0  0  0  0  0  0  0
    0.9990    0.7700    0.2960 N   0  0  0  0  0  0  0  0  0  0  0  0
    0.0640    0.6560   -0.8320 C   0  0  1  0  0  0  0  0  0  0  0  0
    0.8270    0.0650   -1.9670 C   0  0  0  0  0  0  0  0  0  0  0  0
    0.0580   -0.1410   -3.2260 C   0  0  0  0  0  0  0  0  0  0  0  0
   -0.5230    1.0960   -3.8190 C   0  0  0  0  0  0  0  0  0  0  0  0
    0.5220    2.1280   -4.1800 C   0  0  0  0  0  0  0  0  0  0  0  0
    1.4690    1.6500   -5.1350 N   0  0  0  0  0  0  0  0  0  0  0  0
   -1.0870   -0.2020   -0.4720 C   0  0  0  0  0  0  0  0  0  0  0  0
   -2.0040   -0.4100   -1.3020 O   0  0  0  0  0  0  0  0  0  0  0  0
    1.5380   -0.0660    0.6060 H   0  0  0  0  0  0  0  0  0  0  0  0
   -0.3290    1.6580   -0.9910 H   0  0  0  0  0  0  0  0  0  0  0  0
    1.7530    0.6690   -2.1910 H   0  0  0  0  0  0  0  0  0  0  0  0
    1.2290   -0.9300   -1.6560 H   0  0  0  0  0  0  0  0  0  0  0  0
   -0.7160   -0.9150   -3.1750 H   0  0  0  0  0  0  0  0  0  0  0  0
    0.8000   -0.5330   -3.9850 H   0  0  0  0  0  0  0  0  0  0  0  0
   -1.3280    1.5480   -3.2050 H   0  0  0  0  0  0  0  0  0  0  0  0
   -1.0170    0.7990   -4.7780 H   0  0  0  0  0  0  0  0  0  0  0  0
    0.0350    3.0370   -4.5860 H   0  0  0  0  0  0  0  0  0  0  0  0
    1.0250    2.4230   -3.2400 H   0  0  0  0  0  0  0  0  0  0  0  0
    1.0320    1.3270   -6.0060 H   0  0  0  0  0  0  0  0  0  0  0  0
    2.2150    1.0460   -4.7620 H   0  0  0  0  0  0  0  0  0  0  0  0
   -1.2370   -0.8380    0.8060 N   0  0  0  0  0  0  0  0  0  0  0  0
   -2.3880   -1.6670    1.1030 C   0  0  1  0  0  0  0  0  0  0  0  0
   -2.0390   -3.1160    1.3280 C   0  0  0  0  0  0  0  0  0  0  0  0
   -1.3990   -3.6220    0.0770 C   0  0  0  0  0  0  0  0  0  0  0  0
   -0.0590   -3.8630   -0.1810 C   0  0  0  0  0  0  0  0  0  0  0  0
    0.0980   -4.3160   -1.4500 N   0  0  0  0  0  0  0  0  0  0  0  0
   -1.1210   -4.3650   -1.9960 C   0  0  0  0  0  0  0  0  0  0  0  0
   -1.4660   -4.7710   -3.2900 C   0  0  0  0  0  0  0  0  0  0  0  0
   -2.8060   -4.7270   -3.6060 C   0  0  0  0  0  0  0  0  0  0  0  0
   -3.7770   -4.3090   -2.7080 C   0  0  0  0  0  0  0  0  0  0  0  0
   -3.4170   -3.9120   -1.4320 C   0  0  0  0  0  0  0  0  0  0  0  0
   -2.0820   -3.9500   -1.1020 C   0  0  0  0  0  0  0  0  0  0  0  0
   -3.2130   -1.1020    2.1900 C   0  0  0  0  0  0  0  0  0  0  0  0
   -2.8500   -0.0260    2.7200 O   0  0  0  0  0  0  0  0  0  0  0  0
   -4.3680   -1.7110    2.6470 O   0  0  0  0  0  0  0  0  0  0  0  0
   -0.4950   -0.6910    1.5230 H   0  0  0  0  0  0  0  0  0  0  0  0
   -3.0510   -1.6600    0.1880 H   0  0  0  0  0  0  0  0  0  0  0  0
   -3.0180   -3.6510    1.4390 H   0  0  0  0  0  0  0  0  0  0  0  0
   -1.4120   -3.2960    2.2110 H   0  0  0  0  0  0  0  0  0  0  0  0
    0.7440   -3.7100    0.5290 H   0  0  0  0  0  0  0  0  0  0  0  0
    1.0370   -4.5620   -1.8520 H   0  0  0  0  0  0  0  0  0  0  0  0
   -0.6980   -5.0940   -3.9800 H   0  0  0  0  0  0  0  0  0  0  0  0
   -3.0700   -5.0470   -4.6260 H   0  0  0  0  0  0  0  0  0  0  0  0
   -4.8070   -4.3000   -3.0200 H   0  0  0  0  0  0  0  0  0  0  0  0
   -4.1400   -3.5860   -0.7160 H   0  0  0  0  0  0  0  0  0  0  0  0
  1 11  1  0  0  0  0
  2 12  1  6  0  0  0
  2  1  1  0  0  0  0
  2  3  1  0  0  0  0
  3 13  1  0  0  0  0
  3  4  1  0  0  0  0
  4 15  1  0  0  0  0
  4  5  1  0  0  0  0
  5  6  1  0  0  0  0
  5 17  1  0  0  0  0
  6 19  1  0  0  0  0
  6  7  1  0  0  0  0
  7 22  1  0  0  0  0
  8  2  1  0  0  0  0
  9  8  2  0  0  0  0
 10  1  1  0  0  0  0
 14  3  1  0  0  0  0
 16  4  1  0  0  0  0
 18  5  1  0  0  0  0
 20  6  1  0  0  0  0
 21  7  1  0  0  0  0
 23 32  1  0  0  0  0
 23  8  1  0  0  0  0
 24 33  1  6  0  0  0
 24 30  1  0  0  0  0
 24 23  1  0  0  0  0
 25 35  1  0  0  0  0
 25 24  1  0  0  0  0
 26 36  1  0  0  0  0
 26 25  1  0  0  0  0
 27 26  1  0  0  0  0
 27 38  1  0  0  0  0
 28 27  1  0  0  0  0
 28 41  1  0  0  0  0
 29 43  1  0  0  0  0
 29 28  1  0  0  0  0
 30 44  1  0  0  0  0
 31 30  2  0  0  0  0
 34 25  1  0  0  0  0
 37 26  1  0  0  0  0
 39 27  1  0  0  0  0
 40 28  1  0  0  0  0
 42 29  1  0  0  0  0
 44 45  1  0  0  0  0
 44 59  1  0  0  0  0
 45 60  1  6  0  0  0
 45 46  1  0  0  0  0
 45 56  1  0  0  0  0
 46 61  1  0  0  0  0
 46 62  1  0  0  0  0
 47 46  1  0  0  0  0
 48 47  2  0  0  0  0
 48 63  1  0  0  0  0
 49 48  1  0  0  0  0
 50 49  1  0  0  0  0
 50 55  1  0  0  0  0
 51 50  2  0  0  0  0
 52 51  1  0  0  0  0
 52 53  2  0  0  0  0
 53 54  1  0  0  0  0
 54 55  2  0  0  0  0
 54 68  1  0  0  0  0
 55 47  1  0  0  0  0
 56 58  2  0  0  0  0
 56 57  1  0  0  0  0
 64 49  1  0  0  0  0
 65 51  1  0  0  0  0
 66 52  1  0  0  0  0
 67 53  1  0  0  0  0
M  END
$$$$
