KKY.pdb
 OpenBabel07022418513D

 65 65  0  0  1  0  0  0  0  0999 V2000
   -2.6530    2.1330    2.6240 N   0  0  0  0  0  0  0  0  0  0  0  0
   -1.6950    2.1010    1.5380 C   0  0  1  0  0  0  0  0  0  0  0  0
   -0.3210    1.7320    2.0450 C   0  0  0  0  0  0  0  0  0  0  0  0
    0.0730    2.8130    3.0620 C   0  0  0  0  0  0  0  0  0  0  0  0
    1.4400    2.6550    3.6280 C   0  0  0  0  0  0  0  0  0  0  0  0
    1.7020    1.3820    4.3790 C   0  0  0  0  0  0  0  0  0  0  0  0
    1.5890    0.1890    3.5980 N   0  0  0  0  0  0  0  0  0  0  0  0
   -2.1620    1.3380    0.3860 C   0  0  0  0  0  0  0  0  0  0  0  0
   -3.4100    1.1520    0.2560 O   0  0  0  0  0  0  0  0  0  0  0  0
   -2.6370    1.2880    3.1950 H   0  0  0  0  0  0  0  0  0  0  0  0
   -2.5360    3.0100    3.1790 H   0  0  0  0  0  0  0  0  0  0  0  0
   -1.5840    3.2030    1.2390 H   0  0  0  0  0  0  0  0  0  0  0  0
   -0.4230    0.7400    2.5670 H   0  0  0  0  0  0  0  0  0  0  0  0
    0.4360    1.6620    1.2540 H   0  0  0  0  0  0  0  0  0  0  0  0
   -0.6480    2.7660    3.9340 H   0  0  0  0  0  0  0  0  0  0  0  0
   -0.0810    3.8040    2.6190 H   0  0  0  0  0  0  0  0  0  0  0  0
    1.5920    3.4850    4.3790 H   0  0  0  0  0  0  0  0  0  0  0  0
    2.2100    2.7880    2.8020 H   0  0  0  0  0  0  0  0  0  0  0  0
    2.7060    1.3910    4.8750 H   0  0  0  0  0  0  0  0  0  0  0  0
    0.9540    1.3490    5.2240 H   0  0  0  0  0  0  0  0  0  0  0  0
    2.1790   -0.5630    4.0680 H   0  0  0  0  0  0  0  0  0  0  0  0
    1.9590    0.3290    2.6170 H   0  0  0  0  0  0  0  0  0  0  0  0
   -1.2780    0.7990   -0.5960 N   0  0  0  0  0  0  0  0  0  0  0  0
   -1.7150    0.0700   -1.7390 C   0  0  1  0  0  0  0  0  0  0  0  0
   -0.9950    0.1620   -2.9950 C   0  0  0  0  0  0  0  0  0  0  0  0
    0.3870   -0.2570   -3.1770 C   0  0  0  0  0  0  0  0  0  0  0  0
    1.4990    0.3200   -2.4100 C   0  0  0  0  0  0  0  0  0  0  0  0
    2.7840   -0.3560   -2.9770 C   0  0  0  0  0  0  0  0  0  0  0  0
    3.9410    0.1390   -2.2900 N   0  0  0  0  0  0  0  0  0  0  0  0
   -2.1240   -1.3360   -1.3820 C   0  0  0  0  0  0  0  0  0  0  0  0
   -2.3690   -2.1850   -2.2760 O   0  0  0  0  0  0  0  0  0  0  0  0
   -0.2700    0.9720   -0.4480 H   0  0  0  0  0  0  0  0  0  0  0  0
   -2.7740    0.5200   -1.9390 H   0  0  0  0  0  0  0  0  0  0  0  0
   -1.0980    1.2310   -3.3660 H   0  0  0  0  0  0  0  0  0  0  0  0
   -1.6130   -0.4110   -3.7750 H   0  0  0  0  0  0  0  0  0  0  0  0
    0.5100   -1.3910   -3.1060 H   0  0  0  0  0  0  0  0  0  0  0  0
    0.6380   -0.0920   -4.2770 H   0  0  0  0  0  0  0  0  0  0  0  0
    1.6580    1.3980   -2.4530 H   0  0  0  0  0  0  0  0  0  0  0  0
    1.5480    0.0080   -1.3390 H   0  0  0  0  0  0  0  0  0  0  0  0
    2.9150   -0.1210   -4.0480 H   0  0  0  0  0  0  0  0  0  0  0  0
    2.7150   -1.4490   -2.8750 H   0  0  0  0  0  0  0  0  0  0  0  0
    3.6550    0.9030   -1.6370 H   0  0  0  0  0  0  0  0  0  0  0  0
    4.4440   -0.6420   -1.7760 H   0  0  0  0  0  0  0  0  0  0  0  0
    3.7400   -3.9530    0.1310 O   0  0  0  0  0  0  0  0  0  0  0  0
    2.3690   -3.8620    0.4470 C   0  0  0  0  0  0  0  0  0  0  0  0
    1.5200   -4.9180    0.1780 C   0  0  0  0  0  0  0  0  0  0  0  0
    0.1800   -4.8520    0.4770 C   0  0  0  0  0  0  0  0  0  0  0  0
   -0.4030   -3.7260    1.0660 C   0  0  0  0  0  0  0  0  0  0  0  0
   -1.8510   -3.7090    1.3640 C   0  0  0  0  0  0  0  0  0  0  0  0
   -2.6720   -3.1480    0.2300 C   0  0  2  0  0  0  0  0  0  0  0  0
   -2.2570   -1.7660   -0.0460 N   0  0  0  0  0  0  0  0  0  0  0  0
   -4.1280   -3.1770    0.5670 C   0  0  0  0  0  0  0  0  0  0  0  0
   -4.7660   -4.2350    0.7960 O   0  0  0  0  0  0  0  0  0  0  0  0
    0.4550   -2.6770    1.3290 C   0  0  0  0  0  0  0  0  0  0  0  0
    1.8180   -2.7440    1.0250 C   0  0  0  0  0  0  0  0  0  0  0  0
   -4.8560   -1.9930    0.6450 O   0  0  0  0  0  0  0  0  0  0  0  0
    4.0170   -4.7160   -0.5080 H   0  0  0  0  0  0  0  0  0  0  0  0
    1.9730   -5.8160   -0.2850 H   0  0  0  0  0  0  0  0  0  0  0  0
   -0.4870   -5.6890    0.2610 H   0  0  0  0  0  0  0  0  0  0  0  0
   -2.1140   -3.2110    2.3210 H   0  0  0  0  0  0  0  0  0  0  0  0
   -2.1340   -4.7990    1.4910 H   0  0  0  0  0  0  0  0  0  0  0  0
   -2.5820   -3.7950   -0.6640 H   0  0  0  0  0  0  0  0  0  0  0  0
   -2.0730   -1.1550    0.7600 H   0  0  0  0  0  0  0  0  0  0  0  0
    0.0290   -1.7990    1.7860 H   0  0  0  0  0  0  0  0  0  0  0  0
    2.4880   -1.9020    1.2430 H   0  0  0  0  0  0  0  0  0  0  0  0
  1 11  1  0  0  0  0
  1 10  1  0  0  0  0
  2 12  1  6  0  0  0
  2  3  1  0  0  0  0
  2  1  1  0  0  0  0
  3 13  1  0  0  0  0
  3  4  1  0  0  0  0
  4  5  1  0  0  0  0
  4 15  1  0  0  0  0
  5  6  1  0  0  0  0
  5 17  1  0  0  0  0
  6 19  1  0  0  0  0
  6 20  1  0  0  0  0
  7 21  1  0  0  0  0
  7  6  1  0  0  0  0
  8  2  1  0  0  0  0
  9  8  2  0  0  0  0
 14  3  1  0  0  0  0
 16  4  1  0  0  0  0
 18  5  1  0  0  0  0
 22  7  1  0  0  0  0
 23 32  1  0  0  0  0
 23  8  1  0  0  0  0
 24 33  1  6  0  0  0
 24 30  1  0  0  0  0
 24 23  1  0  0  0  0
 25 24  1  0  0  0  0
 26 36  1  0  0  0  0
 26 25  1  0  0  0  0
 26 27  1  0  0  0  0
 27 39  1  0  0  0  0
 28 41  1  0  0  0  0
 28 27  1  0  0  0  0
 28 29  1  0  0  0  0
 29 43  1  0  0  0  0
 29 42  1  0  0  0  0
 30 51  1  0  0  0  0
 31 30  2  0  0  0  0
 34 25  1  0  0  0  0
 35 25  1  0  0  0  0
 37 26  1  0  0  0  0
 38 27  1  0  0  0  0
 40 28  1  0  0  0  0
 44 45  1  0  0  0  0
 45 55  1  0  0  0  0
 46 45  2  0  0  0  0
 46 47  1  0  0  0  0
 47 48  2  0  0  0  0
 48 54  1  0  0  0  0
 48 49  1  0  0  0  0
 49 61  1  0  0  0  0
 49 60  1  0  0  0  0
 50 62  1  6  0  0  0
 50 52  1  0  0  0  0
 50 49  1  0  0  0  0
 51 50  1  0  0  0  0
 51 63  1  0  0  0  0
 52 56  2  0  0  0  0
 52 53  1  0  0  0  0
 54 64  1  0  0  0  0
 55 65  1  0  0  0  0
 55 54  2  0  0  0  0
 57 44  1  0  0  0  0
 58 46  1  0  0  0  0
 59 47  1  0  0  0  0
M  END
$$$$
