KLE.pdb
 OpenBabel07022418513D

 58 57  0  0  1  0  0  0  0  0999 V2000
    2.0440   -1.4570    3.5450 N   0  0  0  0  0  0  0  0  0  0  0  0
    1.8840   -0.1390    2.9190 C   0  0  1  0  0  0  0  0  0  0  0  0
    2.8870   -0.0240    1.8220 C   0  0  0  0  0  0  0  0  0  0  0  0
    2.8820    1.2810    1.0870 C   0  0  0  0  0  0  0  0  0  0  0  0
    3.1550    2.4170    2.0370 C   0  0  0  0  0  0  0  0  0  0  0  0
    4.5080    2.2250    2.6670 C   0  0  0  0  0  0  0  0  0  0  0  0
    5.4870    2.1850    1.5810 N   0  0  0  0  0  0  0  0  0  0  0  0
    0.4780   -0.0590    2.5090 C   0  0  0  0  0  0  0  0  0  0  0  0
   -0.4410    0.1950    3.3610 O   0  0  0  0  0  0  0  0  0  0  0  0
    2.0500   -2.2270    2.8590 H   0  0  0  0  0  0  0  0  0  0  0  0
    1.2540   -1.6460    4.2020 H   0  0  0  0  0  0  0  0  0  0  0  0
    2.1240    0.5870    3.7470 H   0  0  0  0  0  0  0  0  0  0  0  0
    3.8840   -0.2900    2.2250 H   0  0  0  0  0  0  0  0  0  0  0  0
    2.6610   -0.8770    1.0910 H   0  0  0  0  0  0  0  0  0  0  0  0
    3.6940    1.1990    0.3120 H   0  0  0  0  0  0  0  0  0  0  0  0
    1.9760    1.5160    0.5340 H   0  0  0  0  0  0  0  0  0  0  0  0
    2.3470    2.5210    2.7920 H   0  0  0  0  0  0  0  0  0  0  0  0
    3.1900    3.4010    1.5060 H   0  0  0  0  0  0  0  0  0  0  0  0
    4.5050    1.2790    3.2320 H   0  0  0  0  0  0  0  0  0  0  0  0
    4.7140    3.1020    3.3350 H   0  0  0  0  0  0  0  0  0  0  0  0
    5.7010    1.1800    1.3660 H   0  0  0  0  0  0  0  0  0  0  0  0
    5.1460    2.6460    0.7280 H   0  0  0  0  0  0  0  0  0  0  0  0
   -3.4540    0.2310   -1.7070 C   0  0  0  0  0  0  0  0  0  0  0  0
   -2.7120    1.2360   -0.9070 C   0  0  0  0  0  0  0  0  0  0  0  0
   -3.6470    1.8130    0.1700 C   0  0  0  0  0  0  0  0  0  0  0  0
   -1.4390    0.8770   -0.2810 C   0  0  0  0  0  0  0  0  0  0  0  0
   -1.3320   -0.1820    0.7380 C   0  0  2  0  0  0  0  0  0  0  0  0
    0.1080   -0.2640    1.1630 N   0  0  0  0  0  0  0  0  0  0  0  0
   -1.7930   -1.5240    0.3800 C   0  0  0  0  0  0  0  0  0  0  0  0
   -2.9570   -1.8710    0.1140 O   0  0  0  0  0  0  0  0  0  0  0  0
   -3.8620    0.7920   -2.6290 H   0  0  0  0  0  0  0  0  0  0  0  0
   -4.3950   -0.1500   -1.2530 H   0  0  0  0  0  0  0  0  0  0  0  0
   -2.8210   -0.5370   -2.1650 H   0  0  0  0  0  0  0  0  0  0  0  0
   -2.4730    2.1020   -1.6190 H   0  0  0  0  0  0  0  0  0  0  0  0
   -4.2250    0.9830    0.5820 H   0  0  0  0  0  0  0  0  0  0  0  0
   -4.2820    2.6220   -0.2820 H   0  0  0  0  0  0  0  0  0  0  0  0
   -2.9930    2.3270    0.9050 H   0  0  0  0  0  0  0  0  0  0  0  0
   -0.6780    0.6100   -1.0930 H   0  0  0  0  0  0  0  0  0  0  0  0
   -1.0180    1.8470    0.1630 H   0  0  0  0  0  0  0  0  0  0  0  0
   -1.8680    0.1070    1.6760 H   0  0  0  0  0  0  0  0  0  0  0  0
    0.7750   -0.4800    0.3990 H   0  0  0  0  0  0  0  0  0  0  0  0
   -0.8450   -2.5900    0.3140 N   0  0  0  0  0  0  0  0  0  0  0  0
   -1.1640   -3.9470   -0.0280 C   0  0  1  0  0  0  0  0  0  0  0  0
   -0.4870   -4.4570   -1.2520 C   0  0  0  0  0  0  0  0  0  0  0  0
   -0.8070   -3.6730   -2.4990 C   0  0  0  0  0  0  0  0  0  0  0  0
   -2.2360   -3.6730   -2.8690 C   0  0  0  0  0  0  0  0  0  0  0  0
   -3.1510   -4.2830   -2.2730 O   0  0  0  0  0  0  0  0  0  0  0  0
   -0.8830   -4.8960    1.0780 C   0  0  0  0  0  0  0  0  0  0  0  0
   -1.1300   -6.1120    0.8700 O   0  0  0  0  0  0  0  0  0  0  0  0
   -2.6090   -2.9300   -3.9770 O   0  0  0  0  0  0  0  0  0  0  0  0
   -0.3740   -4.5390    2.3070 O   0  0  0  0  0  0  0  0  0  0  0  0
    0.1450   -2.3750    0.5310 H   0  0  0  0  0  0  0  0  0  0  0  0
   -2.2580   -3.9850   -0.1910 H   0  0  0  0  0  0  0  0  0  0  0  0
   -0.9100   -5.4910   -1.4370 H   0  0  0  0  0  0  0  0  0  0  0  0
    0.5990   -4.6300   -1.1300 H   0  0  0  0  0  0  0  0  0  0  0  0
   -0.5560   -2.5890   -2.2960 H   0  0  0  0  0  0  0  0  0  0  0  0
   -0.2480   -4.0420   -3.3820 H   0  0  0  0  0  0  0  0  0  0  0  0
   -3.4520   -3.0820   -4.5070 H   0  0  0  0  0  0  0  0  0  0  0  0
  1 11  1  0  0  0  0
  2  1  1  0  0  0  0
  2 12  1  1  0  0  0
  3 13  1  0  0  0  0
  3  2  1  0  0  0  0
  4  3  1  0  0  0  0
  4  5  1  0  0  0  0
  5  6  1  0  0  0  0
  5 17  1  0  0  0  0
  6 19  1  0  0  0  0
  6 20  1  0  0  0  0
  7  6  1  0  0  0  0
  8  2  1  0  0  0  0
  8  9  2  0  0  0  0
 10  1  1  0  0  0  0
 14  3  1  0  0  0  0
 15  4  1  0  0  0  0
 16  4  1  0  0  0  0
 18  5  1  0  0  0  0
 21  7  1  0  0  0  0
 22  7  1  0  0  0  0
 23 32  1  0  0  0  0
 23 24  1  0  0  0  0
 24 26  1  0  0  0  0
 24 25  1  0  0  0  0
 25 35  1  0  0  0  0
 25 37  1  0  0  0  0
 26 39  1  0  0  0  0
 26 27  1  0  0  0  0
 27 28  1  0  0  0  0
 27 40  1  1  0  0  0
 28  8  1  0  0  0  0
 29 27  1  0  0  0  0
 30 29  2  0  0  0  0
 31 23  1  0  0  0  0
 33 23  1  0  0  0  0
 34 24  1  0  0  0  0
 36 25  1  0  0  0  0
 38 26  1  0  0  0  0
 41 28  1  0  0  0  0
 42 29  1  0  0  0  0
 42 52  1  0  0  0  0
 43 53  1  6  0  0  0
 43 42  1  0  0  0  0
 43 48  1  0  0  0  0
 44 55  1  0  0  0  0
 44 43  1  0  0  0  0
 45 56  1  0  0  0  0
 45 44  1  0  0  0  0
 46 45  1  0  0  0  0
 46 47  2  0  0  0  0
 48 51  1  0  0  0  0
 49 48  2  0  0  0  0
 50 46  1  0  0  0  0
 54 44  1  0  0  0  0
 57 45  1  0  0  0  0
 58 50  1  0  0  0  0
M  END
$$$$
