KLI.pdb
 OpenBabel07022418513D

 61 60  0  0  1  0  0  0  0  0999 V2000
   -0.2570   -0.2380    4.2130 N   0  0  0  0  0  0  0  0  0  0  0  0
    0.7270   -0.5540    3.1930 C   0  0  1  0  0  0  0  0  0  0  0  0
    0.8480   -2.0280    3.0990 C   0  0  0  0  0  0  0  0  0  0  0  0
    1.8310   -2.5380    2.1060 C   0  0  0  0  0  0  0  0  0  0  0  0
    3.2430   -2.0750    2.3760 C   0  0  0  0  0  0  0  0  0  0  0  0
    4.1840   -2.6310    1.3290 C   0  0  0  0  0  0  0  0  0  0  0  0
    5.5300   -2.2030    1.5670 N   0  0  0  0  0  0  0  0  0  0  0  0
    0.2730    0.1260    1.9460 C   0  0  0  0  0  0  0  0  0  0  0  0
    0.8760   -0.1200    0.9030 O   0  0  0  0  0  0  0  0  0  0  0  0
   -1.2020   -0.6230    3.9190 H   0  0  0  0  0  0  0  0  0  0  0  0
   -0.0370   -0.6440    5.1300 H   0  0  0  0  0  0  0  0  0  0  0  0
    1.6750   -0.0740    3.5720 H   0  0  0  0  0  0  0  0  0  0  0  0
    1.1830   -2.3850    4.1060 H   0  0  0  0  0  0  0  0  0  0  0  0
   -0.1310   -2.4960    2.9290 H   0  0  0  0  0  0  0  0  0  0  0  0
    1.8500   -3.6560    2.2050 H   0  0  0  0  0  0  0  0  0  0  0  0
    1.5620   -2.3450    1.0500 H   0  0  0  0  0  0  0  0  0  0  0  0
    3.6020   -2.3310    3.3710 H   0  0  0  0  0  0  0  0  0  0  0  0
    3.2520   -0.9740    2.2620 H   0  0  0  0  0  0  0  0  0  0  0  0
    3.8260   -2.2620    0.3300 H   0  0  0  0  0  0  0  0  0  0  0  0
    4.0710   -3.7290    1.3150 H   0  0  0  0  0  0  0  0  0  0  0  0
    5.7140   -1.3040    1.0650 H   0  0  0  0  0  0  0  0  0  0  0  0
    5.7090   -2.1400    2.5870 H   0  0  0  0  0  0  0  0  0  0  0  0
    1.2690    4.1870   -0.6400 C   0  0  0  0  0  0  0  0  0  0  0  0
    0.8200    2.7530   -0.2310 C   0  0  0  0  0  0  0  0  0  0  0  0
    1.0470    1.9850   -1.4990 C   0  0  0  0  0  0  0  0  0  0  0  0
   -0.5300    2.8680    0.2790 C   0  0  0  0  0  0  0  0  0  0  0  0
   -1.3310    1.7480    0.7890 C   0  0  2  0  0  0  0  0  0  0  0  0
   -0.8150    1.0350    1.9320 N   0  0  0  0  0  0  0  0  0  0  0  0
   -2.0270    0.9290   -0.2060 C   0  0  0  0  0  0  0  0  0  0  0  0
   -2.4600    1.4360   -1.2660 O   0  0  0  0  0  0  0  0  0  0  0  0
    2.2470    4.1070   -1.1260 H   0  0  0  0  0  0  0  0  0  0  0  0
    1.2360    4.8480    0.2300 H   0  0  0  0  0  0  0  0  0  0  0  0
    0.5220    4.4880   -1.4120 H   0  0  0  0  0  0  0  0  0  0  0  0
    1.5950    2.4650    0.5020 H   0  0  0  0  0  0  0  0  0  0  0  0
    0.8610    2.6150   -2.4210 H   0  0  0  0  0  0  0  0  0  0  0  0
    0.5480    1.0170   -1.5620 H   0  0  0  0  0  0  0  0  0  0  0  0
    2.1390    1.7730   -1.5440 H   0  0  0  0  0  0  0  0  0  0  0  0
   -0.4770    3.6310    1.1270 H   0  0  0  0  0  0  0  0  0  0  0  0
   -1.1370    3.4550   -0.4820 H   0  0  0  0  0  0  0  0  0  0  0  0
   -2.2450    2.2980    1.2690 H   0  0  0  0  0  0  0  0  0  0  0  0
   -1.2500    1.1580    2.9080 H   0  0  0  0  0  0  0  0  0  0  0  0
   -3.3440   -4.3150   -2.1400 C   0  0  0  0  0  0  0  0  0  0  0  0
   -2.4620   -3.1920   -2.5840 C   0  0  0  0  0  0  0  0  0  0  0  0
   -2.0150   -2.2490   -1.5290 C   0  0  2  0  0  0  0  0  0  0  0  0
   -1.2480   -2.9660   -0.4170 C   0  0  0  0  0  0  0  0  0  0  0  0
   -2.9550   -1.2380   -1.0300 C   0  0  2  0  0  0  0  0  0  0  0  0
   -2.2340   -0.4480   -0.0010 N   0  0  0  0  0  0  0  0  0  0  0  0
   -4.2520   -1.6720   -0.5260 C   0  0  0  0  0  0  0  0  0  0  0  0
   -5.1330   -2.2770   -1.1610 O   0  0  0  0  0  0  0  0  0  0  0  0
   -4.5650   -1.3860    0.8230 O   0  0  0  0  0  0  0  0  0  0  0  0
   -3.4920   -4.4000   -1.0500 H   0  0  0  0  0  0  0  0  0  0  0  0
   -2.8700   -5.3200   -2.4110 H   0  0  0  0  0  0  0  0  0  0  0  0
   -4.2900   -4.3040   -2.7150 H   0  0  0  0  0  0  0  0  0  0  0  0
   -1.5550   -3.6460   -3.0870 H   0  0  0  0  0  0  0  0  0  0  0  0
   -2.9500   -2.6190   -3.4200 H   0  0  0  0  0  0  0  0  0  0  0  0
   -1.1690   -1.6390   -2.0370 H   0  0  0  0  0  0  0  0  0  0  0  0
   -0.5710   -2.2480    0.0260 H   0  0  0  0  0  0  0  0  0  0  0  0
   -0.6560   -3.7800   -0.8600 H   0  0  0  0  0  0  0  0  0  0  0  0
   -1.9420   -3.3170    0.3740 H   0  0  0  0  0  0  0  0  0  0  0  0
   -3.1810   -0.5370   -1.8930 H   0  0  0  0  0  0  0  0  0  0  0  0
   -1.9200   -0.9800    0.8340 H   0  0  0  0  0  0  0  0  0  0  0  0
  1 11  1  0  0  0  0
  2 12  1  1  0  0  0
  2  1  1  0  0  0  0
  3  2  1  0  0  0  0
  3 13  1  0  0  0  0
  4 15  1  0  0  0  0
  4  5  1  0  0  0  0
  4  3  1  0  0  0  0
  5 17  1  0  0  0  0
  6  7  1  0  0  0  0
  6  5  1  0  0  0  0
  7 22  1  0  0  0  0
  8  2  1  0  0  0  0
  9  8  2  0  0  0  0
 10  1  1  0  0  0  0
 14  3  1  0  0  0  0
 16  4  1  0  0  0  0
 18  5  1  0  0  0  0
 19  6  1  0  0  0  0
 20  6  1  0  0  0  0
 21  7  1  0  0  0  0
 23 24  1  0  0  0  0
 23 32  1  0  0  0  0
 24 26  1  0  0  0  0
 24 34  1  0  0  0  0
 25 24  1  0  0  0  0
 26 27  1  0  0  0  0
 26 38  1  0  0  0  0
 27 40  1  1  0  0  0
 27 28  1  0  0  0  0
 28  8  1  0  0  0  0
 28 41  1  0  0  0  0
 29 47  1  0  0  0  0
 29 27  1  0  0  0  0
 30 29  2  0  0  0  0
 31 23  1  0  0  0  0
 33 23  1  0  0  0  0
 35 25  1  0  0  0  0
 36 25  1  0  0  0  0
 37 25  1  0  0  0  0
 39 26  1  0  0  0  0
 42 51  1  0  0  0  0
 43 42  1  0  0  0  0
 43 44  1  0  0  0  0
 44 56  1  6  0  0  0
 44 46  1  0  0  0  0
 44 45  1  0  0  0  0
 45 57  1  0  0  0  0
 45 59  1  0  0  0  0
 46 60  1  6  0  0  0
 46 48  1  0  0  0  0
 46 47  1  0  0  0  0
 47 61  1  0  0  0  0
 48 50  1  0  0  0  0
 49 48  2  0  0  0  0
 52 42  1  0  0  0  0
 53 42  1  0  0  0  0
 54 43  1  0  0  0  0
 55 43  1  0  0  0  0
 58 45  1  0  0  0  0
M  END
$$$$
