KLK.pdb
 OpenBabel07022418513D

 63 62  0  0  1  0  0  0  0  0999 V2000
   -1.7840   -0.3190    4.3580 N   0  0  0  0  0  0  0  0  0  0  0  0
   -0.3460   -0.0740    3.9490 C   0  0  1  0  0  0  0  0  0  0  0  0
    0.3980   -1.2230    4.4910 C   0  0  0  0  0  0  0  0  0  0  0  0
    1.8680   -1.1520    4.3060 C   0  0  0  0  0  0  0  0  0  0  0  0
    2.4650    0.0740    4.9940 C   0  0  0  0  0  0  0  0  0  0  0  0
    2.2070    0.0250    6.4880 C   0  0  0  0  0  0  0  0  0  0  0  0
    2.8310   -1.1680    7.0370 N   0  0  0  0  0  0  0  0  0  0  0  0
   -0.4730    0.0810    2.4960 C   0  0  0  0  0  0  0  0  0  0  0  0
   -1.2800    1.0260    2.1370 O   0  0  0  0  0  0  0  0  0  0  0  0
   -2.2380    0.5800    4.1190 H   0  0  0  0  0  0  0  0  0  0  0  0
   -2.0750   -1.0910    3.7250 H   0  0  0  0  0  0  0  0  0  0  0  0
   -0.0270    0.8690    4.4470 H   0  0  0  0  0  0  0  0  0  0  0  0
   -0.0400   -2.1820    4.1060 H   0  0  0  0  0  0  0  0  0  0  0  0
    0.1450   -1.2700    5.6000 H   0  0  0  0  0  0  0  0  0  0  0  0
    2.3330   -2.0340    4.8420 H   0  0  0  0  0  0  0  0  0  0  0  0
    2.2370   -1.1330    3.2970 H   0  0  0  0  0  0  0  0  0  0  0  0
    2.0550    0.9900    4.5750 H   0  0  0  0  0  0  0  0  0  0  0  0
    3.5420    0.0580    4.8190 H   0  0  0  0  0  0  0  0  0  0  0  0
    1.1440    0.0870    6.7510 H   0  0  0  0  0  0  0  0  0  0  0  0
    2.7270    0.8870    6.9480 H   0  0  0  0  0  0  0  0  0  0  0  0
    2.2970   -2.0360    6.8720 H   0  0  0  0  0  0  0  0  0  0  0  0
    3.8060   -1.2460    6.6480 H   0  0  0  0  0  0  0  0  0  0  0  0
    2.8210    0.5100    1.0120 C   0  0  0  0  0  0  0  0  0  0  0  0
    2.2740    0.5510   -0.3830 C   0  0  0  0  0  0  0  0  0  0  0  0
    1.9160    1.9590   -0.8100 C   0  0  0  0  0  0  0  0  0  0  0  0
    1.2270   -0.4450   -0.6670 C   0  0  0  0  0  0  0  0  0  0  0  0
   -0.0280   -0.4460    0.0780 C   0  0  2  0  0  0  0  0  0  0  0  0
    0.1480   -0.6520    1.5060 N   0  0  0  0  0  0  0  0  0  0  0  0
   -0.8930   -1.5360   -0.4840 C   0  0  0  0  0  0  0  0  0  0  0  0
   -1.4060   -2.3430    0.3090 O   0  0  0  0  0  0  0  0  0  0  0  0
    3.2360   -0.5070    1.2590 H   0  0  0  0  0  0  0  0  0  0  0  0
    3.7490    1.1680    1.0850 H   0  0  0  0  0  0  0  0  0  0  0  0
    2.1570    0.9040    1.7920 H   0  0  0  0  0  0  0  0  0  0  0  0
    3.1560    0.2770   -1.0470 H   0  0  0  0  0  0  0  0  0  0  0  0
    1.1670    1.9900   -1.6110 H   0  0  0  0  0  0  0  0  0  0  0  0
    1.6040    2.4950    0.1170 H   0  0  0  0  0  0  0  0  0  0  0  0
    2.8080    2.4950   -1.1810 H   0  0  0  0  0  0  0  0  0  0  0  0
    1.7100   -1.4650   -0.5040 H   0  0  0  0  0  0  0  0  0  0  0  0
    0.9710   -0.3510   -1.7620 H   0  0  0  0  0  0  0  0  0  0  0  0
   -0.6500    0.4730   -0.0430 H   0  0  0  0  0  0  0  0  0  0  0  0
    0.7800   -1.4450    1.7480 H   0  0  0  0  0  0  0  0  0  0  0  0
   -1.1620   -1.7120   -1.8630 N   0  0  0  0  0  0  0  0  0  0  0  0
   -1.9960   -2.7670   -2.3700 C   0  0  1  0  0  0  0  0  0  0  0  0
   -3.0690   -2.2880   -3.2220 C   0  0  0  0  0  0  0  0  0  0  0  0
   -2.8970   -1.5810   -4.4750 C   0  0  0  0  0  0  0  0  0  0  0  0
   -2.2140   -0.2960   -4.6010 C   0  0  0  0  0  0  0  0  0  0  0  0
   -2.7990    0.8150   -3.7510 C   0  0  0  0  0  0  0  0  0  0  0  0
   -4.1680    1.0870   -4.0480 N   0  0  0  0  0  0  0  0  0  0  0  0
   -1.2310   -3.9200   -2.8640 C   0  0  0  0  0  0  0  0  0  0  0  0
    0.0050   -3.9290   -2.7830 O   0  0  0  0  0  0  0  0  0  0  0  0
   -1.8710   -4.9920   -3.4170 O   0  0  0  0  0  0  0  0  0  0  0  0
   -0.7440   -1.0590   -2.5470 H   0  0  0  0  0  0  0  0  0  0  0  0
   -2.5020   -3.1880   -1.4270 H   0  0  0  0  0  0  0  0  0  0  0  0
   -3.7940   -3.1510   -3.4360 H   0  0  0  0  0  0  0  0  0  0  0  0
   -3.7600   -1.6290   -2.5700 H   0  0  0  0  0  0  0  0  0  0  0  0
   -3.9440   -1.4280   -4.9130 H   0  0  0  0  0  0  0  0  0  0  0  0
   -2.4530   -2.2600   -5.2940 H   0  0  0  0  0  0  0  0  0  0  0  0
   -2.4850    0.0650   -5.6720 H   0  0  0  0  0  0  0  0  0  0  0  0
   -1.1310   -0.2490   -4.6290 H   0  0  0  0  0  0  0  0  0  0  0  0
   -2.2350    1.7740   -3.9380 H   0  0  0  0  0  0  0  0  0  0  0  0
   -2.6190    0.5690   -2.6860 H   0  0  0  0  0  0  0  0  0  0  0  0
   -4.4730    0.8500   -5.0130 H   0  0  0  0  0  0  0  0  0  0  0  0
   -4.3730    2.0970   -3.9000 H   0  0  0  0  0  0  0  0  0  0  0  0
  2  1  1  0  0  0  0
  2 12  1  1  0  0  0
  2  3  1  0  0  0  0
  3 14  1  0  0  0  0
  4  3  1  0  0  0  0
  4 15  1  0  0  0  0
  4  5  1  0  0  0  0
  5  6  1  0  0  0  0
  6 19  1  0  0  0  0
  6 20  1  0  0  0  0
  6  7  1  0  0  0  0
  8  2  1  0  0  0  0
  9  8  2  0  0  0  0
 10  1  1  0  0  0  0
 11  1  1  0  0  0  0
 13  3  1  0  0  0  0
 16  4  1  0  0  0  0
 17  5  1  0  0  0  0
 18  5  1  0  0  0  0
 21  7  1  0  0  0  0
 22  7  1  0  0  0  0
 23 32  1  0  0  0  0
 23 31  1  0  0  0  0
 23 33  1  0  0  0  0
 24 23  1  0  0  0  0
 25 24  1  0  0  0  0
 25 36  1  0  0  0  0
 26 38  1  0  0  0  0
 26 24  1  0  0  0  0
 26 27  1  0  0  0  0
 27 40  1  6  0  0  0
 27 28  1  0  0  0  0
 28 41  1  0  0  0  0
 28  8  1  0  0  0  0
 29 27  1  0  0  0  0
 29 30  2  0  0  0  0
 34 24  1  0  0  0  0
 35 25  1  0  0  0  0
 37 25  1  0  0  0  0
 39 26  1  0  0  0  0
 42 29  1  0  0  0  0
 43 42  1  0  0  0  0
 43 53  1  1  0  0  0
 44 55  1  0  0  0  0
 44 43  1  0  0  0  0
 45 44  1  0  0  0  0
 46 45  1  0  0  0  0
 46 47  1  0  0  0  0
 47 61  1  0  0  0  0
 48 63  1  0  0  0  0
 48 47  1  0  0  0  0
 49 50  1  0  0  0  0
 49 43  1  0  0  0  0
 51 49  2  0  0  0  0
 52 42  1  0  0  0  0
 54 44  1  0  0  0  0
 56 45  1  0  0  0  0
 57 45  1  0  0  0  0
 58 46  1  0  0  0  0
 59 46  1  0  0  0  0
 60 47  1  0  0  0  0
 62 48  1  0  0  0  0
M  END
$$$$
