KLM.pdb
 OpenBabel07022418513D

 59 58  0  0  1  0  0  0  0  0999 V2000
    4.4770    0.4670   -1.1920 N   0  0  0  0  0  0  0  0  0  0  0  0
    3.0900    0.0180   -1.2780 C   0  0  1  0  0  0  0  0  0  0  0  0
    2.9740   -1.4580   -1.3510 C   0  0  0  0  0  0  0  0  0  0  0  0
    3.5350   -2.2330   -0.2380 C   0  0  0  0  0  0  0  0  0  0  0  0
    3.0230   -2.0060    1.1260 C   0  0  0  0  0  0  0  0  0  0  0  0
    3.7880   -2.9590    2.0600 C   0  0  0  0  0  0  0  0  0  0  0  0
    3.5800   -4.3330    1.6800 N   0  0  0  0  0  0  0  0  0  0  0  0
    2.1910    0.6940   -0.3350 C   0  0  0  0  0  0  0  0  0  0  0  0
    2.6350    1.4610    0.5560 O   0  0  0  0  0  0  0  0  0  0  0  0
    5.0540   -0.1860   -1.7450 H   0  0  0  0  0  0  0  0  0  0  0  0
    4.5150    1.4370   -1.5380 H   0  0  0  0  0  0  0  0  0  0  0  0
    2.7690    0.3930   -2.3020 H   0  0  0  0  0  0  0  0  0  0  0  0
    3.5150   -1.7800   -2.2890 H   0  0  0  0  0  0  0  0  0  0  0  0
    1.9100   -1.7100   -1.5560 H   0  0  0  0  0  0  0  0  0  0  0  0
    4.6610   -2.1470   -0.1970 H   0  0  0  0  0  0  0  0  0  0  0  0
    3.3760   -3.3270   -0.4750 H   0  0  0  0  0  0  0  0  0  0  0  0
    1.9730   -2.2930    1.1900 H   0  0  0  0  0  0  0  0  0  0  0  0
    3.2420   -1.0060    1.5470 H   0  0  0  0  0  0  0  0  0  0  0  0
    4.8860   -2.7370    2.0190 H   0  0  0  0  0  0  0  0  0  0  0  0
    3.4730   -2.8110    3.1090 H   0  0  0  0  0  0  0  0  0  0  0  0
    2.8240   -4.7210    2.2710 H   0  0  0  0  0  0  0  0  0  0  0  0
    4.4680   -4.8650    1.8850 H   0  0  0  0  0  0  0  0  0  0  0  0
   -0.9890    4.0470    1.6530 C   0  0  0  0  0  0  0  0  0  0  0  0
   -1.5630    3.2980    0.4730 C   0  0  0  0  0  0  0  0  0  0  0  0
   -2.9530    2.8480    0.7910 C   0  0  0  0  0  0  0  0  0  0  0  0
   -0.6610    2.3560   -0.1910 C   0  0  0  0  0  0  0  0  0  0  0  0
   -0.0480    1.2360    0.5950 C   0  0  2  0  0  0  0  0  0  0  0  0
    0.7830    0.5100   -0.3950 N   0  0  0  0  0  0  0  0  0  0  0  0
   -0.9900    0.3060    1.2100 C   0  0  0  0  0  0  0  0  0  0  0  0
   -1.6820    0.7190    2.1960 O   0  0  0  0  0  0  0  0  0  0  0  0
   -0.0050    4.5010    1.4300 H   0  0  0  0  0  0  0  0  0  0  0  0
   -1.6790    4.8960    1.8600 H   0  0  0  0  0  0  0  0  0  0  0  0
   -0.9830    3.4280    2.5800 H   0  0  0  0  0  0  0  0  0  0  0  0
   -1.7180    4.1600   -0.2990 H   0  0  0  0  0  0  0  0  0  0  0  0
   -3.2450    1.8780    0.3500 H   0  0  0  0  0  0  0  0  0  0  0  0
   -3.7290    3.5680    0.3580 H   0  0  0  0  0  0  0  0  0  0  0  0
   -3.2000    2.9030    1.8920 H   0  0  0  0  0  0  0  0  0  0  0  0
    0.2020    2.8910   -0.6810 H   0  0  0  0  0  0  0  0  0  0  0  0
   -1.1980    1.8920   -1.0670 H   0  0  0  0  0  0  0  0  0  0  0  0
    0.6120    1.6600    1.3850 H   0  0  0  0  0  0  0  0  0  0  0  0
    0.3240   -0.1030   -1.1020 H   0  0  0  0  0  0  0  0  0  0  0  0
   -5.4970   -4.2580   -1.0020 C   0  0  0  0  0  0  0  0  0  0  0  0
   -4.3140   -3.1020   -1.7210 S   0  0  0  0  0  0  0  0  0  0  0  0
   -2.9220   -2.7970   -0.6230 C   0  0  0  0  0  0  0  0  0  0  0  0
   -3.4170   -2.0730    0.6130 C   0  0  0  0  0  0  0  0  0  0  0  0
   -2.1970   -1.8370    1.5130 C   0  0  2  0  0  0  0  0  0  0  0  0
   -1.2170   -1.0330    0.8120 N   0  0  0  0  0  0  0  0  0  0  0  0
   -1.6820   -3.1440    1.9140 C   0  0  0  0  0  0  0  0  0  0  0  0
   -2.4090   -3.9780    2.5560 O   0  0  0  0  0  0  0  0  0  0  0  0
   -0.3930   -3.5400    1.6220 O   0  0  0  0  0  0  0  0  0  0  0  0
   -5.0020   -5.0000   -0.3250 H   0  0  0  0  0  0  0  0  0  0  0  0
   -5.9270   -4.8610   -1.8430 H   0  0  0  0  0  0  0  0  0  0  0  0
   -6.2890   -3.6920   -0.5020 H   0  0  0  0  0  0  0  0  0  0  0  0
   -2.4360   -3.7550   -0.3390 H   0  0  0  0  0  0  0  0  0  0  0  0
   -2.1690   -2.1870   -1.1540 H   0  0  0  0  0  0  0  0  0  0  0  0
   -4.1210   -2.6820    1.1910 H   0  0  0  0  0  0  0  0  0  0  0  0
   -3.9090   -1.1370    0.3280 H   0  0  0  0  0  0  0  0  0  0  0  0
   -2.6130   -1.2590    2.3780 H   0  0  0  0  0  0  0  0  0  0  0  0
   -0.6780   -1.4260    0.0220 H   0  0  0  0  0  0  0  0  0  0  0  0
  2 12  1  6  0  0  0
  2  1  1  0  0  0  0
  2  8  1  0  0  0  0
  3  2  1  0  0  0  0
  3  4  1  0  0  0  0
  4 15  1  0  0  0  0
  4  5  1  0  0  0  0
  5 17  1  0  0  0  0
  5 18  1  0  0  0  0
  5  6  1  0  0  0  0
  6 20  1  0  0  0  0
  7 22  1  0  0  0  0
  7  6  1  0  0  0  0
  7 21  1  0  0  0  0
  8  9  2  0  0  0  0
 10  1  1  0  0  0  0
 11  1  1  0  0  0  0
 13  3  1  0  0  0  0
 14  3  1  0  0  0  0
 16  4  1  0  0  0  0
 19  6  1  0  0  0  0
 23 32  1  0  0  0  0
 23 33  1  0  0  0  0
 24 25  1  0  0  0  0
 24 23  1  0  0  0  0
 25 37  1  0  0  0  0
 26 24  1  0  0  0  0
 26 27  1  0  0  0  0
 27 29  1  0  0  0  0
 27 40  1  1  0  0  0
 28  8  1  0  0  0  0
 28 27  1  0  0  0  0
 29 30  2  0  0  0  0
 31 23  1  0  0  0  0
 34 24  1  0  0  0  0
 35 25  1  0  0  0  0
 36 25  1  0  0  0  0
 38 26  1  0  0  0  0
 39 26  1  0  0  0  0
 41 28  1  0  0  0  0
 42 53  1  0  0  0  0
 42 51  1  0  0  0  0
 43 42  1  0  0  0  0
 43 44  1  0  0  0  0
 44 54  1  0  0  0  0
 44 45  1  0  0  0  0
 45 56  1  0  0  0  0
 45 46  1  0  0  0  0
 46 48  1  0  0  0  0
 46 58  1  1  0  0  0
 47 29  1  0  0  0  0
 47 46  1  0  0  0  0
 48 49  1  0  0  0  0
 50 48  2  0  0  0  0
 52 42  1  0  0  0  0
 55 44  1  0  0  0  0
 57 45  1  0  0  0  0
 59 47  1  0  0  0  0
M  END
$$$$
