KLN.pdb
 OpenBabel07022418513D

 56 55  0  0  1  0  0  0  0  0999 V2000
    1.6610   -0.8460    3.9850 N   0  0  0  0  0  0  0  0  0  0  0  0
    1.4320   -0.6910    2.5650 C   0  0  1  0  0  0  0  0  0  0  0  0
    1.3580   -2.0470    1.9250 C   0  0  0  0  0  0  0  0  0  0  0  0
    2.6020   -2.8540    2.1020 C   0  0  0  0  0  0  0  0  0  0  0  0
    3.8050   -2.1880    1.5220 C   0  0  0  0  0  0  0  0  0  0  0  0
    5.0390   -3.0460    1.7250 C   0  0  0  0  0  0  0  0  0  0  0  0
    6.1830   -2.3550    1.1480 N   0  0  0  0  0  0  0  0  0  0  0  0
    0.1630    0.0770    2.3670 C   0  0  0  0  0  0  0  0  0  0  0  0
   -0.4720    0.4940    3.3700 O   0  0  0  0  0  0  0  0  0  0  0  0
    1.0100   -1.5570    4.4020 H   0  0  0  0  0  0  0  0  0  0  0  0
    1.6040    0.0620    4.4980 H   0  0  0  0  0  0  0  0  0  0  0  0
    2.2970   -0.1180    2.1380 H   0  0  0  0  0  0  0  0  0  0  0  0
    0.4860   -2.6270    2.2620 H   0  0  0  0  0  0  0  0  0  0  0  0
    1.2340   -1.8850    0.8200 H   0  0  0  0  0  0  0  0  0  0  0  0
    2.7540   -3.1930    3.1530 H   0  0  0  0  0  0  0  0  0  0  0  0
    2.4460   -3.8020    1.5190 H   0  0  0  0  0  0  0  0  0  0  0  0
    3.9940   -1.2090    1.9960 H   0  0  0  0  0  0  0  0  0  0  0  0
    3.6650   -2.0960    0.4230 H   0  0  0  0  0  0  0  0  0  0  0  0
    4.9560   -4.0050    1.1370 H   0  0  0  0  0  0  0  0  0  0  0  0
    5.2590   -3.2440    2.7880 H   0  0  0  0  0  0  0  0  0  0  0  0
    5.8450   -1.6860    0.4280 H   0  0  0  0  0  0  0  0  0  0  0  0
    6.7140   -1.8240    1.8710 H   0  0  0  0  0  0  0  0  0  0  0  0
    0.5430    2.1490   -1.2120 C   0  0  0  0  0  0  0  0  0  0  0  0
   -0.8800    2.6170   -1.0480 C   0  0  0  0  0  0  0  0  0  0  0  0
   -0.9160    4.1150   -1.3850 C   0  0  0  0  0  0  0  0  0  0  0  0
   -1.4290    2.4320    0.3020 C   0  0  0  0  0  0  0  0  0  0  0  0
   -1.5330    1.0700    0.8740 C   0  0  2  0  0  0  0  0  0  0  0  0
   -0.3170    0.3290    1.0280 N   0  0  0  0  0  0  0  0  0  0  0  0
   -2.5790    0.2380    0.1700 C   0  0  0  0  0  0  0  0  0  0  0  0
   -3.7140    0.7080   -0.0670 O   0  0  0  0  0  0  0  0  0  0  0  0
    0.5530    1.1490   -1.6910 H   0  0  0  0  0  0  0  0  0  0  0  0
    1.0610    2.0690   -0.2450 H   0  0  0  0  0  0  0  0  0  0  0  0
    1.1190    2.8720   -1.8570 H   0  0  0  0  0  0  0  0  0  0  0  0
   -1.4590    2.1380   -1.8620 H   0  0  0  0  0  0  0  0  0  0  0  0
    0.1090    4.5340   -1.3820 H   0  0  0  0  0  0  0  0  0  0  0  0
   -1.3460    4.3170   -2.3710 H   0  0  0  0  0  0  0  0  0  0  0  0
   -1.4700    4.6720   -0.5970 H   0  0  0  0  0  0  0  0  0  0  0  0
   -2.4410    2.9080    0.4280 H   0  0  0  0  0  0  0  0  0  0  0  0
   -0.7950    3.0240    1.0340 H   0  0  0  0  0  0  0  0  0  0  0  0
   -1.9500    1.2290    1.9240 H   0  0  0  0  0  0  0  0  0  0  0  0
    0.2700   -0.0720    0.2830 H   0  0  0  0  0  0  0  0  0  0  0  0
   -4.9150   -3.3070   -2.6560 N   0  0  0  0  0  0  0  0  0  0  0  0
   -3.5460   -3.2140   -3.0130 C   0  0  0  0  0  0  0  0  0  0  0  0
   -3.1220   -3.8720   -3.9860 O   0  0  0  0  0  0  0  0  0  0  0  0
   -2.6340   -2.3550   -2.2540 C   0  0  0  0  0  0  0  0  0  0  0  0
   -3.2270   -1.9610   -0.9120 C   0  0  2  0  0  0  0  0  0  0  0  0
   -2.2690   -1.0650   -0.2170 N   0  0  0  0  0  0  0  0  0  0  0  0
   -3.3650   -3.1690   -0.0740 C   0  0  0  0  0  0  0  0  0  0  0  0
   -4.1040   -4.1310   -0.3480 O   0  0  0  0  0  0  0  0  0  0  0  0
   -2.6340   -3.2650    1.1010 O   0  0  0  0  0  0  0  0  0  0  0  0
   -5.4590   -2.5310   -2.2030 H   0  0  0  0  0  0  0  0  0  0  0  0
   -5.4850   -4.1800   -2.8270 H   0  0  0  0  0  0  0  0  0  0  0  0
   -2.4380   -1.4250   -2.8320 H   0  0  0  0  0  0  0  0  0  0  0  0
   -1.6390   -2.8420   -2.0600 H   0  0  0  0  0  0  0  0  0  0  0  0
   -4.1900   -1.4370   -1.0490 H   0  0  0  0  0  0  0  0  0  0  0  0
   -1.3220   -1.4510   -0.0170 H   0  0  0  0  0  0  0  0  0  0  0  0
  1 10  1  0  0  0  0
  1 11  1  0  0  0  0
  2 12  1  6  0  0  0
  2  1  1  0  0  0  0
  3  4  1  0  0  0  0
  3 13  1  0  0  0  0
  3  2  1  0  0  0  0
  4 15  1  0  0  0  0
  5  6  1  0  0  0  0
  5 17  1  0  0  0  0
  5  4  1  0  0  0  0
  6 20  1  0  0  0  0
  7  6  1  0  0  0  0
  7 22  1  0  0  0  0
  8  2  1  0  0  0  0
  8  9  2  0  0  0  0
 14  3  1  0  0  0  0
 16  4  1  0  0  0  0
 18  5  1  0  0  0  0
 19  6  1  0  0  0  0
 21  7  1  0  0  0  0
 23 24  1  0  0  0  0
 23 32  1  0  0  0  0
 24 26  1  0  0  0  0
 25 35  1  0  0  0  0
 25 24  1  0  0  0  0
 25 37  1  0  0  0  0
 26 38  1  0  0  0  0
 26 27  1  0  0  0  0
 26 39  1  0  0  0  0
 27 28  1  0  0  0  0
 27 40  1  1  0  0  0
 28  8  1  0  0  0  0
 29 27  1  0  0  0  0
 30 29  2  0  0  0  0
 31 23  1  0  0  0  0
 33 23  1  0  0  0  0
 34 24  1  0  0  0  0
 36 25  1  0  0  0  0
 41 28  1  0  0  0  0
 42 51  1  0  0  0  0
 43 42  1  0  0  0  0
 43 45  1  0  0  0  0
 44 43  2  0  0  0  0
 45 54  1  0  0  0  0
 45 46  1  0  0  0  0
 46 55  1  6  0  0  0
 46 47  1  0  0  0  0
 46 48  1  0  0  0  0
 47 56  1  0  0  0  0
 47 29  1  0  0  0  0
 48 50  1  0  0  0  0
 49 48  2  0  0  0  0
 52 42  1  0  0  0  0
 53 45  1  0  0  0  0
M  END
$$$$
