KLP.pdb
 OpenBabel07022418513D

 56 56  0  0  1  0  0  0  0  0999 V2000
   -1.6310   -2.4220    4.2940 N   0  0  0  0  0  0  0  0  0  0  0  0
   -1.8580   -1.0920    3.7570 C   0  0  1  0  0  0  0  0  0  0  0  0
   -0.8680   -0.1050    4.3190 C   0  0  0  0  0  0  0  0  0  0  0  0
   -1.1190    1.2570    3.7780 C   0  0  0  0  0  0  0  0  0  0  0  0
   -0.1660    2.3000    4.2900 C   0  0  0  0  0  0  0  0  0  0  0  0
    1.2600    2.0270    3.9710 C   0  0  0  0  0  0  0  0  0  0  0  0
    1.5230    1.9470    2.5500 N   0  0  0  0  0  0  0  0  0  0  0  0
   -1.7680   -1.1400    2.2540 C   0  0  0  0  0  0  0  0  0  0  0  0
   -2.7460   -1.5070    1.5560 O   0  0  0  0  0  0  0  0  0  0  0  0
   -2.4030   -3.0390    3.9360 H   0  0  0  0  0  0  0  0  0  0  0  0
   -0.6930   -2.7630    3.9700 H   0  0  0  0  0  0  0  0  0  0  0  0
   -2.8750   -0.7550    3.9990 H   0  0  0  0  0  0  0  0  0  0  0  0
   -0.9700   -0.1580    5.4260 H   0  0  0  0  0  0  0  0  0  0  0  0
    0.1410   -0.5010    4.0910 H   0  0  0  0  0  0  0  0  0  0  0  0
   -1.1420    1.2920    2.6860 H   0  0  0  0  0  0  0  0  0  0  0  0
   -2.1650    1.5420    4.1030 H   0  0  0  0  0  0  0  0  0  0  0  0
   -0.4270    3.3170    3.9360 H   0  0  0  0  0  0  0  0  0  0  0  0
   -0.2560    2.3430    5.4050 H   0  0  0  0  0  0  0  0  0  0  0  0
    1.8590    2.8910    4.3490 H   0  0  0  0  0  0  0  0  0  0  0  0
    1.6720    1.1340    4.4820 H   0  0  0  0  0  0  0  0  0  0  0  0
    2.4570    1.4470    2.4610 H   0  0  0  0  0  0  0  0  0  0  0  0
    1.5390    2.8910    2.1230 H   0  0  0  0  0  0  0  0  0  0  0  0
    0.3740    1.9990   -2.3140 C   0  0  0  0  0  0  0  0  0  0  0  0
   -0.1300    0.5610   -1.9700 C   0  0  0  0  0  0  0  0  0  0  0  0
   -1.5100    0.5360   -2.6020 C   0  0  0  0  0  0  0  0  0  0  0  0
   -0.1660    0.4500   -0.4890 C   0  0  0  0  0  0  0  0  0  0  0  0
   -0.5770   -0.8480    0.0840 C   0  0  2  0  0  0  0  0  0  0  0  0
   -0.6250   -0.7910    1.5460 N   0  0  0  0  0  0  0  0  0  0  0  0
    0.4490   -1.9080   -0.1530 C   0  0  0  0  0  0  0  0  0  0  0  0
    1.3080   -2.1510    0.7930 O   0  0  0  0  0  0  0  0  0  0  0  0
   -0.4020    2.6870   -1.9160 H   0  0  0  0  0  0  0  0  0  0  0  0
    0.3670    2.1060   -3.4150 H   0  0  0  0  0  0  0  0  0  0  0  0
    1.3430    2.1670   -1.8450 H   0  0  0  0  0  0  0  0  0  0  0  0
    0.5450   -0.1300   -2.4310 H   0  0  0  0  0  0  0  0  0  0  0  0
   -1.9560    1.5490   -2.5450 H   0  0  0  0  0  0  0  0  0  0  0  0
   -1.3680    0.3010   -3.6710 H   0  0  0  0  0  0  0  0  0  0  0  0
   -2.1830   -0.2110   -2.1130 H   0  0  0  0  0  0  0  0  0  0  0  0
   -0.6190    1.3400    0.0080 H   0  0  0  0  0  0  0  0  0  0  0  0
    0.9270    0.5740   -0.1780 H   0  0  0  0  0  0  0  0  0  0  0  0
   -1.5210   -1.1840   -0.2800 H   0  0  0  0  0  0  0  0  0  0  0  0
    0.2540   -0.4810    1.9890 H   0  0  0  0  0  0  0  0  0  0  0  0
    0.6020   -2.6920   -1.2870 N   0  0  0  0  0  0  0  0  0  0  0  0
    1.7290   -3.6620   -1.4130 C   0  0  0  0  0  0  0  0  0  0  0  0
    1.8230   -4.0230   -2.8530 C   0  0  0  0  0  0  0  0  0  0  0  0
    0.9720   -2.9450   -3.5340 C   0  0  0  0  0  0  0  0  0  0  0  0
   -0.1650   -2.8770   -2.5030 C   0  0  1  0  0  0  0  0  0  0  0  0
   -0.7480   -4.2540   -2.4240 C   0  0  0  0  0  0  0  0  0  0  0  0
   -0.5680   -5.0190   -1.4480 O   0  0  0  0  0  0  0  0  0  0  0  0
   -1.5260   -4.7190   -3.4740 O   0  0  0  0  0  0  0  0  0  0  0  0
    2.6820   -3.1270   -1.1390 H   0  0  0  0  0  0  0  0  0  0  0  0
    1.5860   -4.5200   -0.7400 H   0  0  0  0  0  0  0  0  0  0  0  0
    2.8420   -4.0500   -3.2590 H   0  0  0  0  0  0  0  0  0  0  0  0
    1.2620   -4.9810   -3.0370 H   0  0  0  0  0  0  0  0  0  0  0  0
    1.5420   -2.0200   -3.4790 H   0  0  0  0  0  0  0  0  0  0  0  0
    0.6220   -3.2470   -4.5180 H   0  0  0  0  0  0  0  0  0  0  0  0
   -0.9020   -2.1290   -2.7240 H   0  0  0  0  0  0  0  0  0  0  0  0
  2 12  1  1  0  0  0
  2  1  1  0  0  0  0
  2  3  1  0  0  0  0
  3 13  1  0  0  0  0
  4 16  1  0  0  0  0
  4  5  1  0  0  0  0
  4  3  1  0  0  0  0
  5 18  1  0  0  0  0
  6  5  1  0  0  0  0
  6 19  1  0  0  0  0
  6 20  1  0  0  0  0
  7  6  1  0  0  0  0
  8  2  1  0  0  0  0
  9  8  2  0  0  0  0
 10  1  1  0  0  0  0
 11  1  1  0  0  0  0
 14  3  1  0  0  0  0
 15  4  1  0  0  0  0
 17  5  1  0  0  0  0
 21  7  1  0  0  0  0
 22  7  1  0  0  0  0
 23 24  1  0  0  0  0
 23 31  1  0  0  0  0
 23 33  1  0  0  0  0
 24 26  1  0  0  0  0
 25 35  1  0  0  0  0
 25 37  1  0  0  0  0
 25 24  1  0  0  0  0
 26 39  1  0  0  0  0
 26 38  1  0  0  0  0
 26 27  1  0  0  0  0
 27 40  1  6  0  0  0
 27 28  1  0  0  0  0
 28 41  1  0  0  0  0
 28  8  1  0  0  0  0
 29 27  1  0  0  0  0
 29 30  2  0  0  0  0
 32 23  1  0  0  0  0
 34 24  1  0  0  0  0
 36 25  1  0  0  0  0
 42 29  1  0  0  0  0
 43 42  1  0  0  0  0
 43 50  1  0  0  0  0
 43 51  1  0  0  0  0
 44 43  1  0  0  0  0
 45 54  1  0  0  0  0
 45 44  1  0  0  0  0
 45 46  1  0  0  0  0
 46 56  1  6  0  0  0
 46 47  1  0  0  0  0
 46 42  1  0  0  0  0
 47 48  1  0  0  0  0
 49 47  2  0  0  0  0
 52 44  1  0  0  0  0
 53 44  1  0  0  0  0
 55 45  1  0  0  0  0
M  END
$$$$
