KLR.pdb
 OpenBabel07022418513D

 65 64  0  0  1  0  0  0  0  0999 V2000
    2.8340    2.7630    2.8850 N   0  0  0  0  0  0  0  0  0  0  0  0
    2.3210    2.0120    1.7070 C   0  0  1  0  0  0  0  0  0  0  0  0
    3.0850    0.7440    1.6910 C   0  0  0  0  0  0  0  0  0  0  0  0
    2.7750   -0.2120    0.5770 C   0  0  0  0  0  0  0  0  0  0  0  0
    3.6820   -1.4150    0.6830 C   0  0  0  0  0  0  0  0  0  0  0  0
    3.5170   -2.1980    1.9580 C   0  0  0  0  0  0  0  0  0  0  0  0
    4.4700   -3.3290    1.8740 N   0  0  0  0  0  0  0  0  0  0  0  0
    0.8860    1.9870    1.8090 C   0  0  0  0  0  0  0  0  0  0  0  0
    0.3560    2.4030    2.9060 O   0  0  0  0  0  0  0  0  0  0  0  0
    2.8980    2.1710    3.7170 H   0  0  0  0  0  0  0  0  0  0  0  0
    2.2250    3.5930    3.0720 H   0  0  0  0  0  0  0  0  0  0  0  0
    2.6740    2.6110    0.8130 H   0  0  0  0  0  0  0  0  0  0  0  0
    4.1700    1.0440    1.5420 H   0  0  0  0  0  0  0  0  0  0  0  0
    3.1100    0.2330    2.6850 H   0  0  0  0  0  0  0  0  0  0  0  0
    3.0700    0.2950   -0.3870 H   0  0  0  0  0  0  0  0  0  0  0  0
    1.7130   -0.5260    0.5520 H   0  0  0  0  0  0  0  0  0  0  0  0
    4.7700   -1.0780    0.6860 H   0  0  0  0  0  0  0  0  0  0  0  0
    3.6030   -2.0680   -0.2110 H   0  0  0  0  0  0  0  0  0  0  0  0
    3.7000   -1.6270    2.8730 H   0  0  0  0  0  0  0  0  0  0  0  0
    2.5090   -2.6460    1.9480 H   0  0  0  0  0  0  0  0  0  0  0  0
    5.2490   -3.1790    2.5780 H   0  0  0  0  0  0  0  0  0  0  0  0
    3.9910   -4.2030    2.1760 H   0  0  0  0  0  0  0  0  0  0  0  0
   -3.9610    3.5660    1.5770 C   0  0  0  0  0  0  0  0  0  0  0  0
   -3.3610    3.1810    0.2560 C   0  0  0  0  0  0  0  0  0  0  0  0
   -4.2100    2.2950   -0.5910 C   0  0  0  0  0  0  0  0  0  0  0  0
   -1.9620    2.7870    0.2710 C   0  0  0  0  0  0  0  0  0  0  0  0
   -1.5140    1.6310    1.1270 C   0  0  2  0  0  0  0  0  0  0  0  0
   -0.0670    1.5670    0.8510 N   0  0  0  0  0  0  0  0  0  0  0  0
   -2.1520    0.3510    0.8700 C   0  0  0  0  0  0  0  0  0  0  0  0
   -3.3900    0.1880    1.2070 O   0  0  0  0  0  0  0  0  0  0  0  0
   -4.2950    2.7180    2.1950 H   0  0  0  0  0  0  0  0  0  0  0  0
   -3.2950    4.2660    2.0800 H   0  0  0  0  0  0  0  0  0  0  0  0
   -4.8970    4.1520    1.3400 H   0  0  0  0  0  0  0  0  0  0  0  0
   -3.3780    4.1920   -0.3250 H   0  0  0  0  0  0  0  0  0  0  0  0
   -5.0670    1.9100   -0.0070 H   0  0  0  0  0  0  0  0  0  0  0  0
   -3.6170    1.5070   -1.1140 H   0  0  0  0  0  0  0  0  0  0  0  0
   -4.7030    2.8430   -1.4530 H   0  0  0  0  0  0  0  0  0  0  0  0
   -1.6020    2.5530   -0.7740 H   0  0  0  0  0  0  0  0  0  0  0  0
   -1.2960    3.6490    0.5720 H   0  0  0  0  0  0  0  0  0  0  0  0
   -1.6370    1.8780    2.2090 H   0  0  0  0  0  0  0  0  0  0  0  0
    0.2740    1.2190   -0.0510 H   0  0  0  0  0  0  0  0  0  0  0  0
    2.2240   -4.6070   -0.1060 N   0  0  0  0  0  0  0  0  0  0  0  0
    1.1600   -4.7240   -1.0140 C   0  0  0  0  0  0  0  0  0  0  0  0
    0.9240   -5.8100   -1.6770 N   0  0  0  0  0  0  0  0  0  0  0  0
    0.2650   -3.5990   -1.2460 N   0  0  0  0  0  0  0  0  0  0  0  0
   -0.6720   -3.6770   -2.3280 C   0  0  0  0  0  0  0  0  0  0  0  0
   -1.6450   -2.5790   -2.3950 C   0  0  0  0  0  0  0  0  0  0  0  0
   -2.6290   -2.3700   -1.3460 C   0  0  0  0  0  0  0  0  0  0  0  0
   -2.3080   -2.0380    0.0450 C   0  0  2  0  0  0  0  0  0  0  0  0
   -1.5860   -0.8060    0.2690 N   0  0  0  0  0  0  0  0  0  0  0  0
   -1.8670   -3.1590    0.9150 C   0  0  0  0  0  0  0  0  0  0  0  0
   -0.9550   -2.9500    1.7610 O   0  0  0  0  0  0  0  0  0  0  0  0
   -2.4430   -4.4080    0.7990 O   0  0  0  0  0  0  0  0  0  0  0  0
    3.1990   -4.3920   -0.3930 H   0  0  0  0  0  0  0  0  0  0  0  0
    2.0400   -4.7470    0.9210 H   0  0  0  0  0  0  0  0  0  0  0  0
    1.5640   -6.6120   -1.5100 H   0  0  0  0  0  0  0  0  0  0  0  0
    0.4150   -2.8060   -0.5950 H   0  0  0  0  0  0  0  0  0  0  0  0
   -0.0220   -3.6930   -3.2670 H   0  0  0  0  0  0  0  0  0  0  0  0
   -1.1540   -4.6980   -2.3800 H   0  0  0  0  0  0  0  0  0  0  0  0
   -1.1100   -1.6180   -2.6570 H   0  0  0  0  0  0  0  0  0  0  0  0
   -2.2470   -2.7470   -3.3560 H   0  0  0  0  0  0  0  0  0  0  0  0
   -3.3250   -1.5440   -1.7210 H   0  0  0  0  0  0  0  0  0  0  0  0
   -3.3260   -3.2680   -1.3040 H   0  0  0  0  0  0  0  0  0  0  0  0
   -3.3580   -1.8190    0.5060 H   0  0  0  0  0  0  0  0  0  0  0  0
   -0.5960   -0.7440   -0.0210 H   0  0  0  0  0  0  0  0  0  0  0  0
  1 11  1  0  0  0  0
  1 10  1  0  0  0  0
  2 12  1  6  0  0  0
  2  8  1  0  0  0  0
  2  1  1  0  0  0  0
  3  2  1  0  0  0  0
  3 14  1  0  0  0  0
  4  5  1  0  0  0  0
  4  3  1  0  0  0  0
  5 17  1  0  0  0  0
  5  6  1  0  0  0  0
  6 19  1  0  0  0  0
  7  6  1  0  0  0  0
  7 22  1  0  0  0  0
  7 21  1  0  0  0  0
  8  9  2  0  0  0  0
 13  3  1  0  0  0  0
 15  4  1  0  0  0  0
 16  4  1  0  0  0  0
 18  5  1  0  0  0  0
 20  6  1  0  0  0  0
 23 32  1  0  0  0  0
 23 31  1  0  0  0  0
 24 26  1  0  0  0  0
 24 23  1  0  0  0  0
 25 35  1  0  0  0  0
 25 24  1  0  0  0  0
 26 39  1  0  0  0  0
 26 27  1  0  0  0  0
 27 40  1  1  0  0  0
 28 27  1  0  0  0  0
 28  8  1  0  0  0  0
 29 27  1  0  0  0  0
 29 30  2  0  0  0  0
 33 23  1  0  0  0  0
 34 24  1  0  0  0  0
 36 25  1  0  0  0  0
 37 25  1  0  0  0  0
 38 26  1  0  0  0  0
 41 28  1  0  0  0  0
 42 55  1  0  0  0  0
 43 42  1  0  0  0  0
 44 56  1  0  0  0  0
 44 43  2  0  0  0  0
 45 43  1  0  0  0  0
 45 57  1  0  0  0  0
 46 45  1  0  0  0  0
 47 46  1  0  0  0  0
 47 48  1  0  0  0  0
 48 63  1  0  0  0  0
 48 49  1  0  0  0  0
 49 50  1  0  0  0  0
 49 64  1  1  0  0  0
 49 51  1  0  0  0  0
 50 29  1  0  0  0  0
 51 52  1  0  0  0  0
 53 51  2  0  0  0  0
 54 42  1  0  0  0  0
 58 46  1  0  0  0  0
 59 46  1  0  0  0  0
 60 47  1  0  0  0  0
 61 47  1  0  0  0  0
 62 48  1  0  0  0  0
 65 50  1  0  0  0  0
M  END
$$$$
