KLW.pdb
 OpenBabel07022418513D

 66 67  0  0  1  0  0  0  0  0999 V2000
    1.6530    2.5780    1.3810 N   0  0  0  0  0  0  0  0  0  0  0  0
    2.3080    1.4430    0.7970 C   0  0  1  0  0  0  0  0  0  0  0  0
    2.9400    0.5730    1.8550 C   0  0  0  0  0  0  0  0  0  0  0  0
    3.9670    1.2930    2.6640 C   0  0  0  0  0  0  0  0  0  0  0  0
    5.1060    1.8220    1.8460 C   0  0  0  0  0  0  0  0  0  0  0  0
    5.8690    0.7590    1.1060 C   0  0  0  0  0  0  0  0  0  0  0  0
    6.9320    1.4460    0.3680 N   0  0  0  0  0  0  0  0  0  0  0  0
    1.3920    0.6400   -0.0790 C   0  0  0  0  0  0  0  0  0  0  0  0
    1.9080   -0.3690   -0.6100 O   0  0  0  0  0  0  0  0  0  0  0  0
    0.8420    2.3410    1.9880 H   0  0  0  0  0  0  0  0  0  0  0  0
    1.3240    3.2720    0.6800 H   0  0  0  0  0  0  0  0  0  0  0  0
    3.1510    1.8480    0.1760 H   0  0  0  0  0  0  0  0  0  0  0  0
    3.3740   -0.3450    1.4550 H   0  0  0  0  0  0  0  0  0  0  0  0
    2.1370    0.2420    2.5770 H   0  0  0  0  0  0  0  0  0  0  0  0
    3.5410    2.1310    3.2370 H   0  0  0  0  0  0  0  0  0  0  0  0
    4.3780    0.5750    3.4040 H   0  0  0  0  0  0  0  0  0  0  0  0
    4.7820    2.6110    1.1480 H   0  0  0  0  0  0  0  0  0  0  0  0
    5.8320    2.2920    2.5640 H   0  0  0  0  0  0  0  0  0  0  0  0
    6.2770   -0.0060    1.7690 H   0  0  0  0  0  0  0  0  0  0  0  0
    5.2420    0.2540    0.3390 H   0  0  0  0  0  0  0  0  0  0  0  0
    6.6590    1.5900   -0.6310 H   0  0  0  0  0  0  0  0  0  0  0  0
    7.8260    0.9230    0.3860 H   0  0  0  0  0  0  0  0  0  0  0  0
   -1.0390   -1.8930   -3.6650 C   0  0  0  0  0  0  0  0  0  0  0  0
   -0.9990   -0.4100   -3.6760 C   0  0  0  0  0  0  0  0  0  0  0  0
   -2.3960    0.1810   -3.9180 C   0  0  0  0  0  0  0  0  0  0  0  0
   -0.3570    0.2770   -2.5500 C   0  0  0  0  0  0  0  0  0  0  0  0
   -0.8590    0.1810   -1.1720 C   0  0  2  0  0  0  0  0  0  0  0  0
    0.0540    0.9850   -0.2940 N   0  0  0  0  0  0  0  0  0  0  0  0
   -1.0750   -1.0990   -0.5410 C   0  0  0  0  0  0  0  0  0  0  0  0
   -0.2350   -1.4580    0.3650 O   0  0  0  0  0  0  0  0  0  0  0  0
   -0.3650   -2.2710   -2.8650 H   0  0  0  0  0  0  0  0  0  0  0  0
   -2.0610   -2.2730   -3.6440 H   0  0  0  0  0  0  0  0  0  0  0  0
   -0.5740   -2.2680   -4.6210 H   0  0  0  0  0  0  0  0  0  0  0  0
   -0.4320   -0.0880   -4.6100 H   0  0  0  0  0  0  0  0  0  0  0  0
   -2.2080    1.2580   -4.1870 H   0  0  0  0  0  0  0  0  0  0  0  0
   -2.7910   -0.3470   -4.8100 H   0  0  0  0  0  0  0  0  0  0  0  0
   -3.0320    0.0780   -3.0380 H   0  0  0  0  0  0  0  0  0  0  0  0
   -0.3080    1.3870   -2.8520 H   0  0  0  0  0  0  0  0  0  0  0  0
    0.7450   -0.0470   -2.5430 H   0  0  0  0  0  0  0  0  0  0  0  0
   -1.8400    0.7410   -1.1300 H   0  0  0  0  0  0  0  0  0  0  0  0
   -0.3050    1.8390    0.1820 H   0  0  0  0  0  0  0  0  0  0  0  0
   -2.1320   -2.0310   -0.7980 N   0  0  0  0  0  0  0  0  0  0  0  0
   -2.2020   -3.2590   -0.0730 C   0  0  1  0  0  0  0  0  0  0  0  0
   -3.4960   -3.3740    0.7260 C   0  0  0  0  0  0  0  0  0  0  0  0
   -3.6350   -2.2800    1.7150 C   0  0  0  0  0  0  0  0  0  0  0  0
   -4.4230   -1.1550    1.6720 C   0  0  0  0  0  0  0  0  0  0  0  0
   -4.2280   -0.4350    2.7910 N   0  0  0  0  0  0  0  0  0  0  0  0
   -3.3140   -1.0660    3.5880 C   0  0  0  0  0  0  0  0  0  0  0  0
   -2.7710   -0.7600    4.8180 C   0  0  0  0  0  0  0  0  0  0  0  0
   -1.8490   -1.6090    5.3860 C   0  0  0  0  0  0  0  0  0  0  0  0
   -1.4470   -2.7740    4.7510 C   0  0  0  0  0  0  0  0  0  0  0  0
   -2.0110   -3.0470    3.5250 C   0  0  0  0  0  0  0  0  0  0  0  0
   -2.9470   -2.2120    2.9170 C   0  0  0  0  0  0  0  0  0  0  0  0
   -2.1200   -4.4860   -0.8900 C   0  0  0  0  0  0  0  0  0  0  0  0
   -2.0050   -4.5430   -2.1230 O   0  0  0  0  0  0  0  0  0  0  0  0
   -2.1780   -5.6950   -0.1870 O   0  0  0  0  0  0  0  0  0  0  0  0
   -2.8480   -1.7620   -1.5080 H   0  0  0  0  0  0  0  0  0  0  0  0
   -1.3220   -3.3160    0.6240 H   0  0  0  0  0  0  0  0  0  0  0  0
   -3.5270   -4.3710    1.1900 H   0  0  0  0  0  0  0  0  0  0  0  0
   -4.3360   -3.3210    0.0070 H   0  0  0  0  0  0  0  0  0  0  0  0
   -5.0860   -0.9340    0.8300 H   0  0  0  0  0  0  0  0  0  0  0  0
   -4.6880    0.4670    3.0380 H   0  0  0  0  0  0  0  0  0  0  0  0
   -3.0540    0.1260    5.3360 H   0  0  0  0  0  0  0  0  0  0  0  0
   -1.3920   -1.4070    6.3590 H   0  0  0  0  0  0  0  0  0  0  0  0
   -0.7160   -3.4430    5.2060 H   0  0  0  0  0  0  0  0  0  0  0  0
   -1.7500   -3.9390    2.9610 H   0  0  0  0  0  0  0  0  0  0  0  0
  1 10  1  0  0  0  0
  2 12  1  6  0  0  0
  2  1  1  0  0  0  0
  2  3  1  0  0  0  0
  3 14  1  0  0  0  0
  3  4  1  0  0  0  0
  4 15  1  0  0  0  0
  4 16  1  0  0  0  0
  5 18  1  0  0  0  0
  5  4  1  0  0  0  0
  6 19  1  0  0  0  0
  6  5  1  0  0  0  0
  7 22  1  0  0  0  0
  7  6  1  0  0  0  0
  8  2  1  0  0  0  0
  9  8  2  0  0  0  0
 11  1  1  0  0  0  0
 13  3  1  0  0  0  0
 17  5  1  0  0  0  0
 20  6  1  0  0  0  0
 21  7  1  0  0  0  0
 23 32  1  0  0  0  0
 23 31  1  0  0  0  0
 24 23  1  0  0  0  0
 24 26  1  0  0  0  0
 25 24  1  0  0  0  0
 25 37  1  0  0  0  0
 26 39  1  0  0  0  0
 26 27  1  0  0  0  0
 27 40  1  1  0  0  0
 27 29  1  0  0  0  0
 27 28  1  0  0  0  0
 28  8  1  0  0  0  0
 28 41  1  0  0  0  0
 29 30  2  0  0  0  0
 33 23  1  0  0  0  0
 34 24  1  0  0  0  0
 35 25  1  0  0  0  0
 36 25  1  0  0  0  0
 38 26  1  0  0  0  0
 42 29  1  0  0  0  0
 42 43  1  0  0  0  0
 43 58  1  1  0  0  0
 43 44  1  0  0  0  0
 44 59  1  0  0  0  0
 44 45  1  0  0  0  0
 45 53  1  0  0  0  0
 46 45  2  0  0  0  0
 46 47  1  0  0  0  0
 47 62  1  0  0  0  0
 47 48  1  0  0  0  0
 48 49  1  0  0  0  0
 49 63  1  0  0  0  0
 49 50  2  0  0  0  0
 50 64  1  0  0  0  0
 51 65  1  0  0  0  0
 51 50  1  0  0  0  0
 52 51  2  0  0  0  0
 53 52  1  0  0  0  0
 53 48  2  0  0  0  0
 54 56  1  0  0  0  0
 54 43  1  0  0  0  0
 55 54  2  0  0  0  0
 57 42  1  0  0  0  0
 60 44  1  0  0  0  0
 61 46  1  0  0  0  0
 66 52  1  0  0  0  0
M  END
$$$$
