KLY.pdb
 OpenBabel07022418513D

 63 63  0  0  1  0  0  0  0  0999 V2000
   -3.5740   -1.3900    3.8120 N   0  0  0  0  0  0  0  0  0  0  0  0
   -3.3670   -1.3690    2.3820 C   0  0  1  0  0  0  0  0  0  0  0  0
   -3.6150    0.0190    1.8120 C   0  0  0  0  0  0  0  0  0  0  0  0
   -2.7000    1.0360    2.4100 C   0  0  0  0  0  0  0  0  0  0  0  0
   -2.9220    2.4090    1.8870 C   0  0  0  0  0  0  0  0  0  0  0  0
   -2.7050    2.4740    0.4070 C   0  0  0  0  0  0  0  0  0  0  0  0
   -2.9110    3.8210   -0.1150 N   0  0  0  0  0  0  0  0  0  0  0  0
   -2.0040   -1.8630    2.0700 C   0  0  0  0  0  0  0  0  0  0  0  0
   -1.2510   -2.1750    3.0250 O   0  0  0  0  0  0  0  0  0  0  0  0
   -4.3660   -0.7720    4.1060 H   0  0  0  0  0  0  0  0  0  0  0  0
   -3.6180   -2.3300    4.2110 H   0  0  0  0  0  0  0  0  0  0  0  0
   -4.1280   -2.0410    1.9230 H   0  0  0  0  0  0  0  0  0  0  0  0
   -3.5520   -0.0720    0.7280 H   0  0  0  0  0  0  0  0  0  0  0  0
   -4.6670    0.2800    2.0610 H   0  0  0  0  0  0  0  0  0  0  0  0
   -2.8510    1.0610    3.5190 H   0  0  0  0  0  0  0  0  0  0  0  0
   -1.6570    0.7280    2.1850 H   0  0  0  0  0  0  0  0  0  0  0  0
   -3.9600    2.7870    2.0780 H   0  0  0  0  0  0  0  0  0  0  0  0
   -2.2570    3.1620    2.3910 H   0  0  0  0  0  0  0  0  0  0  0  0
   -3.4010    1.7540   -0.0790 H   0  0  0  0  0  0  0  0  0  0  0  0
   -1.6590    2.1930    0.1200 H   0  0  0  0  0  0  0  0  0  0  0  0
   -2.1660    4.4170    0.2860 H   0  0  0  0  0  0  0  0  0  0  0  0
   -2.7540    3.8070   -1.1500 H   0  0  0  0  0  0  0  0  0  0  0  0
   -2.3910   -3.9410   -1.3580 C   0  0  0  0  0  0  0  0  0  0  0  0
   -0.9170   -4.1570   -1.3780 C   0  0  0  0  0  0  0  0  0  0  0  0
   -0.2730   -3.5460   -2.6290 C   0  0  0  0  0  0  0  0  0  0  0  0
   -0.1720   -3.8550   -0.1460 C   0  0  0  0  0  0  0  0  0  0  0  0
   -0.1980   -2.4760    0.3990 C   0  0  2  0  0  0  0  0  0  0  0  0
   -1.5220   -1.9980    0.7390 N   0  0  0  0  0  0  0  0  0  0  0  0
    0.5600   -1.4780   -0.3830 C   0  0  0  0  0  0  0  0  0  0  0  0
   -0.0100   -0.4020   -0.6710 O   0  0  0  0  0  0  0  0  0  0  0  0
   -2.7020   -3.0340   -1.9360 H   0  0  0  0  0  0  0  0  0  0  0  0
   -2.8260   -3.9840   -0.3390 H   0  0  0  0  0  0  0  0  0  0  0  0
   -2.9440   -4.7730   -1.9020 H   0  0  0  0  0  0  0  0  0  0  0  0
   -0.7840   -5.2740   -1.5430 H   0  0  0  0  0  0  0  0  0  0  0  0
    0.6540   -4.1120   -2.8220 H   0  0  0  0  0  0  0  0  0  0  0  0
   -0.9330   -3.7610   -3.5150 H   0  0  0  0  0  0  0  0  0  0  0  0
   -0.1660   -2.4650   -2.5640 H   0  0  0  0  0  0  0  0  0  0  0  0
    0.8790   -4.1970   -0.2920 H   0  0  0  0  0  0  0  0  0  0  0  0
   -0.5670   -4.5390    0.6580 H   0  0  0  0  0  0  0  0  0  0  0  0
    0.3370   -2.5580    1.4020 H   0  0  0  0  0  0  0  0  0  0  0  0
   -2.1620   -1.7270   -0.0310 H   0  0  0  0  0  0  0  0  0  0  0  0
    2.7680    2.1830    4.1320 O   0  0  0  0  0  0  0  0  0  0  0  0
    3.0360    1.6090    2.8970 C   0  0  0  0  0  0  0  0  0  0  0  0
    3.2960    0.2480    2.7870 C   0  0  0  0  0  0  0  0  0  0  0  0
    3.5640   -0.3370    1.5700 C   0  0  0  0  0  0  0  0  0  0  0  0
    3.5750    0.4390    0.4360 C   0  0  0  0  0  0  0  0  0  0  0  0
    3.8670   -0.1810   -0.8830 C   0  0  0  0  0  0  0  0  0  0  0  0
    2.6140   -0.6680   -1.5940 C   0  0  2  0  0  0  0  0  0  0  0  0
    1.8940   -1.6620   -0.8290 N   0  0  0  0  0  0  0  0  0  0  0  0
    3.0930   -1.2650   -2.8690 C   0  0  0  0  0  0  0  0  0  0  0  0
    2.8320   -2.4730   -3.0920 O   0  0  0  0  0  0  0  0  0  0  0  0
    3.3240    1.7830    0.5120 C   0  0  0  0  0  0  0  0  0  0  0  0
    3.0590    2.3470    1.7330 C   0  0  0  0  0  0  0  0  0  0  0  0
    3.8100   -0.5410   -3.8110 O   0  0  0  0  0  0  0  0  0  0  0  0
    2.1770    3.0150    4.1310 H   0  0  0  0  0  0  0  0  0  0  0  0
    3.2880   -0.3760    3.6950 H   0  0  0  0  0  0  0  0  0  0  0  0
    3.7690   -1.4190    1.4970 H   0  0  0  0  0  0  0  0  0  0  0  0
    4.5850   -0.9990   -0.8120 H   0  0  0  0  0  0  0  0  0  0  0  0
    4.2950    0.6190   -1.5320 H   0  0  0  0  0  0  0  0  0  0  0  0
    1.9370    0.2080   -1.7760 H   0  0  0  0  0  0  0  0  0  0  0  0
    2.4150   -2.5620   -0.6050 H   0  0  0  0  0  0  0  0  0  0  0  0
    3.3340    2.3970   -0.3840 H   0  0  0  0  0  0  0  0  0  0  0  0
    2.8550    3.4120    1.8430 H   0  0  0  0  0  0  0  0  0  0  0  0
  1 10  1  0  0  0  0
  1 11  1  0  0  0  0
  2 12  1  6  0  0  0
  2  1  1  0  0  0  0
  3 14  1  0  0  0  0
  3  2  1  0  0  0  0
  3  4  1  0  0  0  0
  4 15  1  0  0  0  0
  5 17  1  0  0  0  0
  5 18  1  0  0  0  0
  5  4  1  0  0  0  0
  6  5  1  0  0  0  0
  7 21  1  0  0  0  0
  7  6  1  0  0  0  0
  8  2  1  0  0  0  0
  8  9  2  0  0  0  0
 13  3  1  0  0  0  0
 16  4  1  0  0  0  0
 19  6  1  0  0  0  0
 20  6  1  0  0  0  0
 22  7  1  0  0  0  0
 23 32  1  0  0  0  0
 24 23  1  0  0  0  0
 24 26  1  0  0  0  0
 25 37  1  0  0  0  0
 25 24  1  0  0  0  0
 26 27  1  0  0  0  0
 26 39  1  0  0  0  0
 27 28  1  0  0  0  0
 27 40  1  1  0  0  0
 28  8  1  0  0  0  0
 29 27  1  0  0  0  0
 30 29  2  0  0  0  0
 31 23  1  0  0  0  0
 33 23  1  0  0  0  0
 34 24  1  0  0  0  0
 35 25  1  0  0  0  0
 36 25  1  0  0  0  0
 38 26  1  0  0  0  0
 41 28  1  0  0  0  0
 43 42  1  0  0  0  0
 44 43  1  0  0  0  0
 44 56  1  0  0  0  0
 45 44  2  0  0  0  0
 46 52  2  0  0  0  0
 46 45  1  0  0  0  0
 47 58  1  0  0  0  0
 47 46  1  0  0  0  0
 48 60  1  6  0  0  0
 48 47  1  0  0  0  0
 48 49  1  0  0  0  0
 49 61  1  0  0  0  0
 49 29  1  0  0  0  0
 50 48  1  0  0  0  0
 51 50  1  0  0  0  0
 52 53  1  0  0  0  0
 53 63  1  0  0  0  0
 53 43  2  0  0  0  0
 54 50  2  0  0  0  0
 55 42  1  0  0  0  0
 57 45  1  0  0  0  0
 59 47  1  0  0  0  0
 62 52  1  0  0  0  0
M  END
$$$$
