KMA.pdb
 OpenBabel07022418513D

 50 49  0  0  1  0  0  0  0  0999 V2000
    0.3300   -1.4080    5.1510 N   0  0  0  0  0  0  0  0  0  0  0  0
    0.7360   -1.5740    3.7280 C   0  0  1  0  0  0  0  0  0  0  0  0
    0.6470   -3.0390    3.3990 C   0  0  0  0  0  0  0  0  0  0  0  0
    1.0260   -3.4410    2.0280 C   0  0  0  0  0  0  0  0  0  0  0  0
    2.4620   -3.0940    1.6970 C   0  0  0  0  0  0  0  0  0  0  0  0
    2.8140   -3.5110    0.2980 C   0  0  0  0  0  0  0  0  0  0  0  0
    4.2010   -3.1500    0.0440 N   0  0  0  0  0  0  0  0  0  0  0  0
   -0.1640   -0.7040    2.9740 C   0  0  0  0  0  0  0  0  0  0  0  0
   -1.1780   -0.1430    3.5190 O   0  0  0  0  0  0  0  0  0  0  0  0
    1.0740   -1.8000    5.7590 H   0  0  0  0  0  0  0  0  0  0  0  0
   -0.6100   -1.8070    5.2950 H   0  0  0  0  0  0  0  0  0  0  0  0
    1.7970   -1.2750    3.6930 H   0  0  0  0  0  0  0  0  0  0  0  0
   -0.4260   -3.3290    3.6020 H   0  0  0  0  0  0  0  0  0  0  0  0
    1.2250   -3.6510    4.1210 H   0  0  0  0  0  0  0  0  0  0  0  0
    0.3800   -3.1300    1.2110 H   0  0  0  0  0  0  0  0  0  0  0  0
    1.0020   -4.5770    1.9850 H   0  0  0  0  0  0  0  0  0  0  0  0
    2.7150   -2.0420    1.8480 H   0  0  0  0  0  0  0  0  0  0  0  0
    3.1110   -3.7220    2.3780 H   0  0  0  0  0  0  0  0  0  0  0  0
    2.7210   -4.5950    0.1330 H   0  0  0  0  0  0  0  0  0  0  0  0
    2.2100   -2.9710   -0.4630 H   0  0  0  0  0  0  0  0  0  0  0  0
    4.2840   -2.1400    0.3240 H   0  0  0  0  0  0  0  0  0  0  0  0
    4.3880   -3.1880   -0.9730 H   0  0  0  0  0  0  0  0  0  0  0  0
    2.8320    3.2200    0.2040 C   0  0  0  0  0  0  0  0  0  0  0  0
    1.3830    3.8450    1.1390 S   0  0  0  0  0  0  0  0  0  0  0  0
    0.4460    2.3550    1.6510 C   0  0  0  0  0  0  0  0  0  0  0  0
   -0.1200    1.6540    0.4230 C   0  0  0  0  0  0  0  0  0  0  0  0
   -0.8820    0.4320    0.8980 C   0  0  2  0  0  0  0  0  0  0  0  0
    0.0270   -0.4260    1.6010 N   0  0  0  0  0  0  0  0  0  0  0  0
   -1.5600   -0.2580   -0.2280 C   0  0  0  0  0  0  0  0  0  0  0  0
   -1.3270   -1.4640   -0.5000 O   0  0  0  0  0  0  0  0  0  0  0  0
    3.3760    4.0450   -0.2900 H   0  0  0  0  0  0  0  0  0  0  0  0
    2.4860    2.4870   -0.5600 H   0  0  0  0  0  0  0  0  0  0  0  0
    3.5070    2.6240    0.8820 H   0  0  0  0  0  0  0  0  0  0  0  0
   -0.3430    2.6660    2.3480 H   0  0  0  0  0  0  0  0  0  0  0  0
    1.1680    1.7000    2.1600 H   0  0  0  0  0  0  0  0  0  0  0  0
   -0.7880    2.3870   -0.0750 H   0  0  0  0  0  0  0  0  0  0  0  0
    0.6900    1.4080   -0.2650 H   0  0  0  0  0  0  0  0  0  0  0  0
   -1.6560    0.7830    1.6020 H   0  0  0  0  0  0  0  0  0  0  0  0
    0.8350   -0.8220    1.0430 H   0  0  0  0  0  0  0  0  0  0  0  0
   -4.6560   -0.3370   -1.9490 C   0  0  0  0  0  0  0  0  0  0  0  0
   -3.1600   -0.2720   -2.1510 C   0  0  2  0  0  0  0  0  0  0  0  0
   -2.5020    0.4080   -1.0530 N   0  0  0  0  0  0  0  0  0  0  0  0
   -2.8940    0.3950   -3.4460 C   0  0  0  0  0  0  0  0  0  0  0  0
   -2.1830    1.4080   -3.5240 O   0  0  0  0  0  0  0  0  0  0  0  0
   -3.4580   -0.1360   -4.5930 O   0  0  0  0  0  0  0  0  0  0  0  0
   -4.9630    0.2480   -1.0550 H   0  0  0  0  0  0  0  0  0  0  0  0
   -4.9570   -1.3980   -1.8550 H   0  0  0  0  0  0  0  0  0  0  0  0
   -5.1840    0.0310   -2.8690 H   0  0  0  0  0  0  0  0  0  0  0  0
   -2.7750   -1.3160   -2.1600 H   0  0  0  0  0  0  0  0  0  0  0  0
   -2.7500    1.4020   -0.8960 H   0  0  0  0  0  0  0  0  0  0  0  0
  1 11  1  0  0  0  0
  1 10  1  0  0  0  0
  2 12  1  6  0  0  0
  2  1  1  0  0  0  0
  3 13  1  0  0  0  0
  3  2  1  0  0  0  0
  3 14  1  0  0  0  0
  4  3  1  0  0  0  0
  5 17  1  0  0  0  0
  5  4  1  0  0  0  0
  5 18  1  0  0  0  0
  6  5  1  0  0  0  0
  7  6  1  0  0  0  0
  7 21  1  0  0  0  0
  8  9  2  0  0  0  0
  8  2  1  0  0  0  0
 15  4  1  0  0  0  0
 16  4  1  0  0  0  0
 19  6  1  0  0  0  0
 20  6  1  0  0  0  0
 22  7  1  0  0  0  0
 23 33  1  0  0  0  0
 23 24  1  0  0  0  0
 24 25  1  0  0  0  0
 25 35  1  0  0  0  0
 25 34  1  0  0  0  0
 26 27  1  0  0  0  0
 26 25  1  0  0  0  0
 27 28  1  0  0  0  0
 27 38  1  1  0  0  0
 28  8  1  0  0  0  0
 29 27  1  0  0  0  0
 30 29  2  0  0  0  0
 31 23  1  0  0  0  0
 32 23  1  0  0  0  0
 36 26  1  0  0  0  0
 37 26  1  0  0  0  0
 39 28  1  0  0  0  0
 40 47  1  0  0  0  0
 40 46  1  0  0  0  0
 41 49  1  6  0  0  0
 41 40  1  0  0  0  0
 41 42  1  0  0  0  0
 42 50  1  0  0  0  0
 42 29  1  0  0  0  0
 43 41  1  0  0  0  0
 44 43  1  0  0  0  0
 45 43  2  0  0  0  0
 48 40  1  0  0  0  0
M  END
$$$$
