KMC.pdb
 OpenBabel07022418513D

 51 50  0  0  1  0  0  0  0  0999 V2000
    0.4590   -2.6360    0.2930 N   0  0  0  0  0  0  0  0  0  0  0  0
    0.4730   -2.0900    1.6200 C   0  0  1  0  0  0  0  0  0  0  0  0
    1.9480   -2.0290    2.0250 C   0  0  0  0  0  0  0  0  0  0  0  0
    2.5600   -3.4130    2.0060 C   0  0  0  0  0  0  0  0  0  0  0  0
    4.0140   -3.3880    2.3910 C   0  0  0  0  0  0  0  0  0  0  0  0
    4.2540   -2.8430    3.7730 C   0  0  0  0  0  0  0  0  0  0  0  0
    3.5750   -3.6380    4.7740 N   0  0  0  0  0  0  0  0  0  0  0  0
   -0.0960   -0.7270    1.6870 C   0  0  0  0  0  0  0  0  0  0  0  0
   -0.1760   -0.1290    2.7700 O   0  0  0  0  0  0  0  0  0  0  0  0
    0.2680   -3.6360    0.2270 H   0  0  0  0  0  0  0  0  0  0  0  0
    1.1680   -2.2510   -0.3400 H   0  0  0  0  0  0  0  0  0  0  0  0
   -0.0380   -2.7760    2.3010 H   0  0  0  0  0  0  0  0  0  0  0  0
    2.5270   -1.4090    1.3050 H   0  0  0  0  0  0  0  0  0  0  0  0
    2.0690   -1.5580    3.0210 H   0  0  0  0  0  0  0  0  0  0  0  0
    2.0420   -4.0490    2.7610 H   0  0  0  0  0  0  0  0  0  0  0  0
    2.4830   -3.8950    1.0220 H   0  0  0  0  0  0  0  0  0  0  0  0
    4.3780   -4.4440    2.3690 H   0  0  0  0  0  0  0  0  0  0  0  0
    4.6140   -2.8100    1.6480 H   0  0  0  0  0  0  0  0  0  0  0  0
    3.8970   -1.7990    3.8800 H   0  0  0  0  0  0  0  0  0  0  0  0
    5.3450   -2.8440    3.9900 H   0  0  0  0  0  0  0  0  0  0  0  0
    4.1600   -3.5970    5.6480 H   0  0  0  0  0  0  0  0  0  0  0  0
    3.4870   -4.6200    4.4020 H   0  0  0  0  0  0  0  0  0  0  0  0
    2.0170    2.9560   -2.6700 C   0  0  0  0  0  0  0  0  0  0  0  0
    1.9360    3.5680   -0.9670 S   0  0  0  0  0  0  0  0  0  0  0  0
    1.0660    2.3880    0.1000 C   0  0  0  0  0  0  0  0  0  0  0  0
   -0.3940    2.2740   -0.2780 C   0  0  0  0  0  0  0  0  0  0  0  0
   -1.1280    1.2910    0.6130 C   0  0  2  0  0  0  0  0  0  0  0  0
   -0.5750   -0.0380    0.5360 N   0  0  0  0  0  0  0  0  0  0  0  0
   -2.5100    1.2160    0.1060 C   0  0  0  0  0  0  0  0  0  0  0  0
   -3.2660    2.2270    0.0170 O   0  0  0  0  0  0  0  0  0  0  0  0
    0.9860    2.8210   -3.0680 H   0  0  0  0  0  0  0  0  0  0  0  0
    2.6000    2.0290   -2.7740 H   0  0  0  0  0  0  0  0  0  0  0  0
    2.5070    3.7150   -3.3020 H   0  0  0  0  0  0  0  0  0  0  0  0
    1.1630    2.6740    1.1460 H   0  0  0  0  0  0  0  0  0  0  0  0
    1.5790    1.3990   -0.0660 H   0  0  0  0  0  0  0  0  0  0  0  0
   -0.8250    3.2930   -0.2030 H   0  0  0  0  0  0  0  0  0  0  0  0
   -0.5460    1.9430   -1.3210 H   0  0  0  0  0  0  0  0  0  0  0  0
   -1.1080    1.6400    1.6840 H   0  0  0  0  0  0  0  0  0  0  0  0
   -0.4970   -0.5570   -0.3690 H   0  0  0  0  0  0  0  0  0  0  0  0
   -3.0360   -0.0300   -0.3060 N   0  0  0  0  0  0  0  0  0  0  0  0
   -4.3900   -0.1490   -0.8120 C   0  0  1  0  0  0  0  0  0  0  0  0
   -4.3740   -0.8200   -2.1800 C   0  0  0  0  0  0  0  0  0  0  0  0
   -3.3800    0.2200   -3.2810 S   0  0  0  0  0  0  0  0  0  0  0  0
   -5.1950   -1.0290    0.0730 C   0  0  0  0  0  0  0  0  0  0  0  0
   -6.3950   -1.2370   -0.2230 O   0  0  0  0  0  0  0  0  0  0  0  0
   -4.6370   -1.6100    1.1990 O   0  0  0  0  0  0  0  0  0  0  0  0
   -2.4860   -0.9350   -0.2710 H   0  0  0  0  0  0  0  0  0  0  0  0
   -4.8710    0.8330   -0.8320 H   0  0  0  0  0  0  0  0  0  0  0  0
   -5.3930   -0.8990   -2.6000 H   0  0  0  0  0  0  0  0  0  0  0  0
   -3.9500   -1.8330   -2.1220 H   0  0  0  0  0  0  0  0  0  0  0  0
   -3.7850    1.5650   -3.2220 H   0  0  0  0  0  0  0  0  0  0  0  0
  1  2  1  0  0  0  0
  2  8  1  0  0  0  0
  2  3  1  0  0  0  0
  2 12  1  1  0  0  0
  3 14  1  0  0  0  0
  4  3  1  0  0  0  0
  4  5  1  0  0  0  0
  4 15  1  0  0  0  0
  5  6  1  0  0  0  0
  6 19  1  0  0  0  0
  6 20  1  0  0  0  0
  6  7  1  0  0  0  0
  7 21  1  0  0  0  0
  8  9  2  0  0  0  0
 10  1  1  0  0  0  0
 11  1  1  0  0  0  0
 13  3  1  0  0  0  0
 16  4  1  0  0  0  0
 17  5  1  0  0  0  0
 18  5  1  0  0  0  0
 22  7  1  0  0  0  0
 23 24  1  0  0  0  0
 24 25  1  0  0  0  0
 25 34  1  0  0  0  0
 26 36  1  0  0  0  0
 26 25  1  0  0  0  0
 26 27  1  0  0  0  0
 27 38  1  1  0  0  0
 28 27  1  0  0  0  0
 28  8  1  0  0  0  0
 29 27  1  0  0  0  0
 30 29  2  0  0  0  0
 31 23  1  0  0  0  0
 32 23  1  0  0  0  0
 33 23  1  0  0  0  0
 35 25  1  0  0  0  0
 37 26  1  0  0  0  0
 39 28  1  0  0  0  0
 40 47  1  0  0  0  0
 40 29  1  0  0  0  0
 41 48  1  6  0  0  0
 41 40  1  0  0  0  0
 41 44  1  0  0  0  0
 42 50  1  0  0  0  0
 42 41  1  0  0  0  0
 43 51  1  0  0  0  0
 43 42  1  0  0  0  0
 44 46  1  0  0  0  0
 45 44  2  0  0  0  0
 49 42  1  0  0  0  0
M  END
$$$$
