KMD.pdb
 OpenBabel07022418513D

 53 52  0  0  1  0  0  0  0  0999 V2000
   -0.6660    1.6780    3.6110 N   0  0  0  0  0  0  0  0  0  0  0  0
    0.4280    0.8980    3.0830 C   0  0  1  0  0  0  0  0  0  0  0  0
    0.8060   -0.1280    4.1000 C   0  0  0  0  0  0  0  0  0  0  0  0
    1.9370   -1.0160    3.6850 C   0  0  0  0  0  0  0  0  0  0  0  0
    3.2070   -0.2550    3.4010 C   0  0  0  0  0  0  0  0  0  0  0  0
    4.2580   -1.2870    2.9930 C   0  0  0  0  0  0  0  0  0  0  0  0
    5.5180   -0.6510    2.7010 N   0  0  0  0  0  0  0  0  0  0  0  0
   -0.0730    0.2600    1.7990 C   0  0  0  0  0  0  0  0  0  0  0  0
    0.6910   -0.4980    1.1570 O   0  0  0  0  0  0  0  0  0  0  0  0
   -1.3430    0.9860    4.0370 H   0  0  0  0  0  0  0  0  0  0  0  0
   -0.2800    2.2050    4.4440 H   0  0  0  0  0  0  0  0  0  0  0  0
    1.3200    1.5250    2.8510 H   0  0  0  0  0  0  0  0  0  0  0  0
    1.1260    0.4190    5.0080 H   0  0  0  0  0  0  0  0  0  0  0  0
   -0.0410   -0.7630    4.4010 H   0  0  0  0  0  0  0  0  0  0  0  0
    2.1680   -1.6710    4.5760 H   0  0  0  0  0  0  0  0  0  0  0  0
    1.7390   -1.6950    2.8590 H   0  0  0  0  0  0  0  0  0  0  0  0
    3.5430    0.2830    4.2870 H   0  0  0  0  0  0  0  0  0  0  0  0
    3.0150    0.4200    2.5400 H   0  0  0  0  0  0  0  0  0  0  0  0
    3.9240   -1.8210    2.0700 H   0  0  0  0  0  0  0  0  0  0  0  0
    4.3720   -2.0460    3.7810 H   0  0  0  0  0  0  0  0  0  0  0  0
    5.6120   -0.5220    1.6640 H   0  0  0  0  0  0  0  0  0  0  0  0
    5.6630    0.2370    3.2190 H   0  0  0  0  0  0  0  0  0  0  0  0
    1.4240    1.6770   -2.8610 C   0  0  0  0  0  0  0  0  0  0  0  0
    0.0770    0.6370   -2.2280 S   0  0  0  0  0  0  0  0  0  0  0  0
   -1.1480    1.7260   -1.4460 C   0  0  0  0  0  0  0  0  0  0  0  0
   -2.3070    0.9730   -0.8830 C   0  0  0  0  0  0  0  0  0  0  0  0
   -1.9910   -0.0290    0.1620 C   0  0  2  0  0  0  0  0  0  0  0  0
   -1.3690    0.5030    1.3240 N   0  0  0  0  0  0  0  0  0  0  0  0
   -1.5870   -1.3620   -0.3010 C   0  0  0  0  0  0  0  0  0  0  0  0
   -0.8110   -2.1280    0.3030 O   0  0  0  0  0  0  0  0  0  0  0  0
    1.3460    2.7280   -2.5110 H   0  0  0  0  0  0  0  0  0  0  0  0
    2.4140    1.3070   -2.5120 H   0  0  0  0  0  0  0  0  0  0  0  0
    1.4090    1.7360   -3.9750 H   0  0  0  0  0  0  0  0  0  0  0  0
   -0.6820    2.4320   -0.7230 H   0  0  0  0  0  0  0  0  0  0  0  0
   -1.5430    2.3660   -2.2640 H   0  0  0  0  0  0  0  0  0  0  0  0
   -2.9620    1.7440   -0.3970 H   0  0  0  0  0  0  0  0  0  0  0  0
   -2.9210    0.5630   -1.6970 H   0  0  0  0  0  0  0  0  0  0  0  0
   -3.0560   -0.3000    0.5870 H   0  0  0  0  0  0  0  0  0  0  0  0
   -1.9530    1.1920    1.9420 H   0  0  0  0  0  0  0  0  0  0  0  0
   -2.0720   -1.9100   -1.5340 N   0  0  0  0  0  0  0  0  0  0  0  0
   -1.6640   -3.2360   -1.9880 C   0  0  1  0  0  0  0  0  0  0  0  0
   -2.9180   -4.0990   -1.9520 C   0  0  0  0  0  0  0  0  0  0  0  0
   -3.3860   -4.0980   -0.5310 C   0  0  0  0  0  0  0  0  0  0  0  0
   -2.7180   -4.7760    0.3090 O   0  0  0  0  0  0  0  0  0  0  0  0
   -1.0450   -3.1950   -3.3220 C   0  0  0  0  0  0  0  0  0  0  0  0
   -0.6350   -4.2480   -3.8680 O   0  0  0  0  0  0  0  0  0  0  0  0
   -4.4960   -3.4050   -0.0970 O   0  0  0  0  0  0  0  0  0  0  0  0
   -0.8810   -2.0080   -4.0390 O   0  0  0  0  0  0  0  0  0  0  0  0
   -2.7280   -1.3560   -2.1160 H   0  0  0  0  0  0  0  0  0  0  0  0
   -0.9660   -3.6890   -1.2540 H   0  0  0  0  0  0  0  0  0  0  0  0
   -2.6480   -5.1440   -2.1860 H   0  0  0  0  0  0  0  0  0  0  0  0
   -3.7140   -3.6920   -2.5730 H   0  0  0  0  0  0  0  0  0  0  0  0
   -4.4800   -2.9410    0.8210 H   0  0  0  0  0  0  0  0  0  0  0  0
  1 10  1  0  0  0  0
  1 11  1  0  0  0  0
  2 12  1  6  0  0  0
  2  1  1  0  0  0  0
  2  3  1  0  0  0  0
  3 14  1  0  0  0  0
  3 13  1  0  0  0  0
  4  3  1  0  0  0  0
  4 15  1  0  0  0  0
  5  4  1  0  0  0  0
  5 17  1  0  0  0  0
  6  5  1  0  0  0  0
  6 20  1  0  0  0  0
  7  6  1  0  0  0  0
  7 22  1  0  0  0  0
  8  2  1  0  0  0  0
  9  8  2  0  0  0  0
 16  4  1  0  0  0  0
 18  5  1  0  0  0  0
 19  6  1  0  0  0  0
 21  7  1  0  0  0  0
 23 32  1  0  0  0  0
 23 31  1  0  0  0  0
 23 24  1  0  0  0  0
 24 25  1  0  0  0  0
 25 26  1  0  0  0  0
 25 34  1  0  0  0  0
 26 36  1  0  0  0  0
 26 27  1  0  0  0  0
 27 38  1  1  0  0  0
 27 28  1  0  0  0  0
 28  8  1  0  0  0  0
 28 39  1  0  0  0  0
 29 27  1  0  0  0  0
 29 30  2  0  0  0  0
 33 23  1  0  0  0  0
 35 25  1  0  0  0  0
 37 26  1  0  0  0  0
 40 29  1  0  0  0  0
 41 42  1  0  0  0  0
 41 40  1  0  0  0  0
 41 50  1  1  0  0  0
 42 43  1  0  0  0  0
 43 47  1  0  0  0  0
 43 44  2  0  0  0  0
 45 41  1  0  0  0  0
 46 45  1  0  0  0  0
 47 53  1  0  0  0  0
 48 45  2  0  0  0  0
 49 40  1  0  0  0  0
 51 42  1  0  0  0  0
 52 42  1  0  0  0  0
M  END
$$$$
