KMF.pdb
 OpenBabel07022418513D

 60 60  0  0  1  0  0  0  0  0999 V2000
    0.3190    0.8910    4.1000 N   0  0  0  0  0  0  0  0  0  0  0  0
    0.4830    1.8460    3.0010 C   0  0  1  0  0  0  0  0  0  0  0  0
    1.8830    1.6010    2.4790 C   0  0  0  0  0  0  0  0  0  0  0  0
    2.2680    2.4700    1.3460 C   0  0  0  0  0  0  0  0  0  0  0  0
    3.6740    2.1730    0.9060 C   0  0  0  0  0  0  0  0  0  0  0  0
    3.8690    0.7530    0.4390 C   0  0  0  0  0  0  0  0  0  0  0  0
    5.2470    0.5440    0.0040 N   0  0  0  0  0  0  0  0  0  0  0  0
   -0.5650    1.5770    1.9670 C   0  0  0  0  0  0  0  0  0  0  0  0
   -0.6220    2.3330    0.9840 O   0  0  0  0  0  0  0  0  0  0  0  0
    0.4670    1.3140    5.0240 H   0  0  0  0  0  0  0  0  0  0  0  0
    0.9270    0.0550    3.9570 H   0  0  0  0  0  0  0  0  0  0  0  0
    0.3680    2.8510    3.4420 H   0  0  0  0  0  0  0  0  0  0  0  0
    2.5680    1.7970    3.3270 H   0  0  0  0  0  0  0  0  0  0  0  0
    1.9710    0.5230    2.2350 H   0  0  0  0  0  0  0  0  0  0  0  0
    2.1910    3.5450    1.6260 H   0  0  0  0  0  0  0  0  0  0  0  0
    1.6320    2.3530    0.4410 H   0  0  0  0  0  0  0  0  0  0  0  0
    4.4070    2.3060    1.7550 H   0  0  0  0  0  0  0  0  0  0  0  0
    3.9850    2.8860    0.1100 H   0  0  0  0  0  0  0  0  0  0  0  0
    3.6240    0.0650    1.2820 H   0  0  0  0  0  0  0  0  0  0  0  0
    3.1360    0.5590   -0.3680 H   0  0  0  0  0  0  0  0  0  0  0  0
    5.1940    0.5320   -1.0500 H   0  0  0  0  0  0  0  0  0  0  0  0
    5.4900   -0.4430    0.3100 H   0  0  0  0  0  0  0  0  0  0  0  0
   -2.2950    4.2220   -1.3460 C   0  0  0  0  0  0  0  0  0  0  0  0
   -3.7990    3.6570   -0.5300 S   0  0  0  0  0  0  0  0  0  0  0  0
   -3.4390    2.4740    0.7980 C   0  0  0  0  0  0  0  0  0  0  0  0
   -2.8810    1.2280    0.2160 C   0  0  0  0  0  0  0  0  0  0  0  0
   -2.4880    0.1650    1.2170 C   0  0  2  0  0  0  0  0  0  0  0  0
   -1.4460    0.4990    2.1230 N   0  0  0  0  0  0  0  0  0  0  0  0
   -2.3970   -1.1530    0.5780 C   0  0  0  0  0  0  0  0  0  0  0  0
   -3.2920   -1.5170   -0.2480 O   0  0  0  0  0  0  0  0  0  0  0  0
   -2.5990    4.9540   -2.1220 H   0  0  0  0  0  0  0  0  0  0  0  0
   -1.7630    3.4120   -1.8840 H   0  0  0  0  0  0  0  0  0  0  0  0
   -1.5980    4.7290   -0.6740 H   0  0  0  0  0  0  0  0  0  0  0  0
   -2.9950    2.9040    1.6820 H   0  0  0  0  0  0  0  0  0  0  0  0
   -4.4960    2.1750    1.1700 H   0  0  0  0  0  0  0  0  0  0  0  0
   -2.0600    1.3850   -0.4850 H   0  0  0  0  0  0  0  0  0  0  0  0
   -3.7130    0.7850   -0.4280 H   0  0  0  0  0  0  0  0  0  0  0  0
   -3.4490    0.1680    1.8880 H   0  0  0  0  0  0  0  0  0  0  0  0
   -1.3130   -0.1180    3.0090 H   0  0  0  0  0  0  0  0  0  0  0  0
   -1.3480   -2.0700    0.8300 N   0  0  0  0  0  0  0  0  0  0  0  0
   -1.3200   -3.3600    0.1580 C   0  0  1  0  0  0  0  0  0  0  0  0
   -0.1090   -3.5010   -0.7050 C   0  0  0  0  0  0  0  0  0  0  0  0
   -0.0900   -4.8110   -1.3760 C   0  0  0  0  0  0  0  0  0  0  0  0
    0.5690   -5.9210   -0.8620 C   0  0  0  0  0  0  0  0  0  0  0  0
    0.5820   -7.1450   -1.4910 C   0  0  0  0  0  0  0  0  0  0  0  0
   -0.0860   -7.3040   -2.6950 C   0  0  0  0  0  0  0  0  0  0  0  0
   -0.7460   -6.2250   -3.2280 C   0  0  0  0  0  0  0  0  0  0  0  0
   -0.7450   -5.0130   -2.5810 C   0  0  0  0  0  0  0  0  0  0  0  0
   -1.4520   -4.4440    1.1310 C   0  0  0  0  0  0  0  0  0  0  0  0
   -1.5040   -4.1450    2.3610 O   0  0  0  0  0  0  0  0  0  0  0  0
   -1.5290   -5.7850    0.8330 O   0  0  0  0  0  0  0  0  0  0  0  0
   -0.5800   -1.8270    1.5040 H   0  0  0  0  0  0  0  0  0  0  0  0
   -2.2140   -3.3970   -0.5120 H   0  0  0  0  0  0  0  0  0  0  0  0
    0.8110   -3.4460   -0.0500 H   0  0  0  0  0  0  0  0  0  0  0  0
    0.0130   -2.6550   -1.4180 H   0  0  0  0  0  0  0  0  0  0  0  0
    1.1030   -5.8300    0.0750 H   0  0  0  0  0  0  0  0  0  0  0  0
    1.1100   -7.9950   -1.0600 H   0  0  0  0  0  0  0  0  0  0  0  0
   -0.0530   -8.2820   -3.1600 H   0  0  0  0  0  0  0  0  0  0  0  0
   -1.2630   -6.3470   -4.1600 H   0  0  0  0  0  0  0  0  0  0  0  0
   -1.2630   -4.1520   -2.9900 H   0  0  0  0  0  0  0  0  0  0  0  0
  1 10  1  0  0  0  0
  2 12  1  1  0  0  0
  2  1  1  0  0  0  0
  3  2  1  0  0  0  0
  3 13  1  0  0  0  0
  4 15  1  0  0  0  0
  4  3  1  0  0  0  0
  5  4  1  0  0  0  0
  5 17  1  0  0  0  0
  6  5  1  0  0  0  0
  6 19  1  0  0  0  0
  7 22  1  0  0  0  0
  7  6  1  0  0  0  0
  8 28  1  0  0  0  0
  8  2  1  0  0  0  0
  9  8  2  0  0  0  0
 11  1  1  0  0  0  0
 14  3  1  0  0  0  0
 16  4  1  0  0  0  0
 18  5  1  0  0  0  0
 20  6  1  0  0  0  0
 21  7  1  0  0  0  0
 23 33  1  0  0  0  0
 23 24  1  0  0  0  0
 24 25  1  0  0  0  0
 25 35  1  0  0  0  0
 25 34  1  0  0  0  0
 26 25  1  0  0  0  0
 26 27  1  0  0  0  0
 27 38  1  1  0  0  0
 27 28  1  0  0  0  0
 28 39  1  0  0  0  0
 29 40  1  0  0  0  0
 29 27  1  0  0  0  0
 30 29  2  0  0  0  0
 31 23  1  0  0  0  0
 32 23  1  0  0  0  0
 36 26  1  0  0  0  0
 37 26  1  0  0  0  0
 40 52  1  0  0  0  0
 41 53  1  6  0  0  0
 41 40  1  0  0  0  0
 41 49  1  0  0  0  0
 42 54  1  0  0  0  0
 42 41  1  0  0  0  0
 43 44  1  0  0  0  0
 43 42  1  0  0  0  0
 44 56  1  0  0  0  0
 45 57  1  0  0  0  0
 45 44  2  0  0  0  0
 46 45  1  0  0  0  0
 47 46  2  0  0  0  0
 47 48  1  0  0  0  0
 48 43  2  0  0  0  0
 49 50  1  0  0  0  0
 51 49  2  0  0  0  0
 55 42  1  0  0  0  0
 58 46  1  0  0  0  0
 59 47  1  0  0  0  0
 60 48  1  0  0  0  0
M  END
$$$$
