KMH.pdb
 OpenBabel07022418513D

 57 57  0  0  1  0  0  0  0  0999 V2000
    1.4700   -1.7950    2.3170 N   0  0  0  0  0  0  0  0  0  0  0  0
    1.4560   -0.4240    2.8670 C   0  0  1  0  0  0  0  0  0  0  0  0
    2.8840   -0.0100    2.9810 C   0  0  0  0  0  0  0  0  0  0  0  0
    3.1240    1.3650    3.5190 C   0  0  0  0  0  0  0  0  0  0  0  0
    4.6140    1.6700    3.5930 C   0  0  0  0  0  0  0  0  0  0  0  0
    4.8810    3.0570    4.1340 C   0  0  0  0  0  0  0  0  0  0  0  0
    4.2800    4.0840    3.3060 N   0  0  0  0  0  0  0  0  0  0  0  0
    0.6820    0.4270    1.9240 C   0  0  0  0  0  0  0  0  0  0  0  0
    0.3560    1.5910    2.2340 O   0  0  0  0  0  0  0  0  0  0  0  0
    0.6840   -2.3450    2.6910 H   0  0  0  0  0  0  0  0  0  0  0  0
    2.3610   -2.2900    2.5800 H   0  0  0  0  0  0  0  0  0  0  0  0
    1.0080   -0.4270    3.8750 H   0  0  0  0  0  0  0  0  0  0  0  0
    3.4600   -0.1680    2.0300 H   0  0  0  0  0  0  0  0  0  0  0  0
    3.3620   -0.7310    3.7020 H   0  0  0  0  0  0  0  0  0  0  0  0
    2.7410    1.4180    4.5580 H   0  0  0  0  0  0  0  0  0  0  0  0
    2.6470    2.1050    2.8320 H   0  0  0  0  0  0  0  0  0  0  0  0
    5.0960    1.5710    2.5990 H   0  0  0  0  0  0  0  0  0  0  0  0
    5.1210    0.9520    4.2950 H   0  0  0  0  0  0  0  0  0  0  0  0
    4.5000    3.1830    5.1500 H   0  0  0  0  0  0  0  0  0  0  0  0
    5.9800    3.2250    4.1000 H   0  0  0  0  0  0  0  0  0  0  0  0
    4.8370    4.9710    3.4010 H   0  0  0  0  0  0  0  0  0  0  0  0
    4.2410    3.7740    2.2990 H   0  0  0  0  0  0  0  0  0  0  0  0
    0.3700   -1.7450   -2.8630 C   0  0  0  0  0  0  0  0  0  0  0  0
    0.8780   -0.1130   -3.4090 S   0  0  0  0  0  0  0  0  0  0  0  0
    1.3270    1.0300   -2.1410 C   0  0  0  0  0  0  0  0  0  0  0  0
    0.3160    1.5640   -1.2310 C   0  0  0  0  0  0  0  0  0  0  0  0
   -0.4700    0.7140   -0.3250 C   0  0  2  0  0  0  0  0  0  0  0  0
    0.2920   -0.0710    0.6300 N   0  0  0  0  0  0  0  0  0  0  0  0
   -1.6670    0.0480   -0.8480 C   0  0  0  0  0  0  0  0  0  0  0  0
   -2.3600    0.6120   -1.7110 O   0  0  0  0  0  0  0  0  0  0  0  0
    0.3070   -1.7990   -1.7750 H   0  0  0  0  0  0  0  0  0  0  0  0
    1.1970   -2.4470   -3.1760 H   0  0  0  0  0  0  0  0  0  0  0  0
   -0.5530   -2.0610   -3.3980 H   0  0  0  0  0  0  0  0  0  0  0  0
    1.7700    1.9400   -2.6760 H   0  0  0  0  0  0  0  0  0  0  0  0
    2.2530    0.6700   -1.5770 H   0  0  0  0  0  0  0  0  0  0  0  0
    0.8070    2.3670   -0.6160 H   0  0  0  0  0  0  0  0  0  0  0  0
   -0.4250    2.1710   -1.8550 H   0  0  0  0  0  0  0  0  0  0  0  0
   -0.9510    1.5170    0.3920 H   0  0  0  0  0  0  0  0  0  0  0  0
    0.6050   -1.0460    0.4400 H   0  0  0  0  0  0  0  0  0  0  0  0
   -2.0370   -1.2260   -0.3790 N   0  0  0  0  0  0  0  0  0  0  0  0
   -3.2080   -1.9770   -0.8220 C   0  0  1  0  0  0  0  0  0  0  0  0
   -2.8490   -3.3360   -1.3020 C   0  0  0  0  0  0  0  0  0  0  0  0
   -3.9820   -4.1480   -1.8000 C   0  0  0  0  0  0  0  0  0  0  0  0
   -3.8850   -5.4560   -2.3110 C   0  0  0  0  0  0  0  0  0  0  0  0
   -5.0870   -5.8790   -2.6760 N   0  0  0  0  0  0  0  0  0  0  0  0
   -5.9540   -4.8860   -2.4180 C   0  0  0  0  0  0  0  0  0  0  0  0
   -5.2720   -3.8490   -1.8900 N   0  0  0  0  0  0  0  0  0  0  0  0
   -4.0560   -2.1130    0.3980 C   0  0  0  0  0  0  0  0  0  0  0  0
   -3.6420   -1.5970    1.4830 O   0  0  0  0  0  0  0  0  0  0  0  0
   -5.2760   -2.7620    0.4480 O   0  0  0  0  0  0  0  0  0  0  0  0
   -1.4660   -1.7430    0.3600 H   0  0  0  0  0  0  0  0  0  0  0  0
   -3.7900   -1.4440   -1.5950 H   0  0  0  0  0  0  0  0  0  0  0  0
   -2.1210   -3.2660   -2.1520 H   0  0  0  0  0  0  0  0  0  0  0  0
   -2.3370   -3.9580   -0.5390 H   0  0  0  0  0  0  0  0  0  0  0  0
   -2.9480   -5.9830   -2.3730 H   0  0  0  0  0  0  0  0  0  0  0  0
   -5.2940   -6.8260   -3.0920 H   0  0  0  0  0  0  0  0  0  0  0  0
   -7.0060   -4.9040   -2.5950 H   0  0  0  0  0  0  0  0  0  0  0  0
  1 11  1  0  0  0  0
  1 10  1  0  0  0  0
  1  2  1  0  0  0  0
  2  3  1  0  0  0  0
  2 12  1  1  0  0  0
  3  4  1  0  0  0  0
  3 14  1  0  0  0  0
  4  5  1  0  0  0  0
  4 15  1  0  0  0  0
  5  6  1  0  0  0  0
  5 18  1  0  0  0  0
  6 19  1  0  0  0  0
  7 21  1  0  0  0  0
  7  6  1  0  0  0  0
  8  9  2  0  0  0  0
  8  2  1  0  0  0  0
 13  3  1  0  0  0  0
 16  4  1  0  0  0  0
 17  5  1  0  0  0  0
 20  6  1  0  0  0  0
 22  7  1  0  0  0  0
 23 31  1  0  0  0  0
 24 23  1  0  0  0  0
 24 25  1  0  0  0  0
 25 35  1  0  0  0  0
 25 26  1  0  0  0  0
 26 36  1  0  0  0  0
 26 27  1  0  0  0  0
 27 38  1  1  0  0  0
 27 28  1  0  0  0  0
 28  8  1  0  0  0  0
 29 40  1  0  0  0  0
 29 27  1  0  0  0  0
 30 29  2  0  0  0  0
 32 23  1  0  0  0  0
 33 23  1  0  0  0  0
 34 25  1  0  0  0  0
 37 26  1  0  0  0  0
 39 28  1  0  0  0  0
 40 51  1  0  0  0  0
 41 52  1  6  0  0  0
 41 40  1  0  0  0  0
 41 48  1  0  0  0  0
 42 41  1  0  0  0  0
 42 54  1  0  0  0  0
 43 42  1  0  0  0  0
 44 43  2  0  0  0  0
 45 46  1  0  0  0  0
 45 44  1  0  0  0  0
 46 47  2  0  0  0  0
 47 43  1  0  0  0  0
 48 50  2  0  0  0  0
 48 49  1  0  0  0  0
 53 42  1  0  0  0  0
 55 44  1  0  0  0  0
 56 45  1  0  0  0  0
 57 46  1  0  0  0  0
M  END
$$$$
