KMI.pdb
 OpenBabel07022418513D

 59 58  0  0  1  0  0  0  0  0999 V2000
    0.0790   -0.4800    5.0850 N   0  0  0  0  0  0  0  0  0  0  0  0
    0.6310   -0.1390    3.7320 C   0  0  1  0  0  0  0  0  0  0  0  0
    1.1990   -1.4170    3.2410 C   0  0  0  0  0  0  0  0  0  0  0  0
    1.8700   -1.4270    1.9210 C   0  0  0  0  0  0  0  0  0  0  0  0
    3.0690   -0.5030    1.8500 C   0  0  0  0  0  0  0  0  0  0  0  0
    4.1170   -0.9070    2.8770 C   0  0  0  0  0  0  0  0  0  0  0  0
    5.2430   -0.0000    2.7750 N   0  0  0  0  0  0  0  0  0  0  0  0
   -0.5350    0.3600    2.9430 C   0  0  0  0  0  0  0  0  0  0  0  0
   -1.7160    0.3140    3.4400 O   0  0  0  0  0  0  0  0  0  0  0  0
   -0.7480   -1.1160    4.8950 H   0  0  0  0  0  0  0  0  0  0  0  0
    0.8370   -1.0610    5.5370 H   0  0  0  0  0  0  0  0  0  0  0  0
    1.3240    0.6800    3.9010 H   0  0  0  0  0  0  0  0  0  0  0  0
    1.8590   -1.8980    3.9960 H   0  0  0  0  0  0  0  0  0  0  0  0
    0.3290   -2.1370    3.1560 H   0  0  0  0  0  0  0  0  0  0  0  0
    2.3330   -2.4670    1.8280 H   0  0  0  0  0  0  0  0  0  0  0  0
    1.2410   -1.3380    1.0430 H   0  0  0  0  0  0  0  0  0  0  0  0
    2.8490    0.5480    2.0270 H   0  0  0  0  0  0  0  0  0  0  0  0
    3.5300   -0.6360    0.8500 H   0  0  0  0  0  0  0  0  0  0  0  0
    4.5080   -1.9200    2.6270 H   0  0  0  0  0  0  0  0  0  0  0  0
    3.6920   -0.9010    3.8850 H   0  0  0  0  0  0  0  0  0  0  0  0
    4.9230    0.9530    3.0560 H   0  0  0  0  0  0  0  0  0  0  0  0
    5.6060    0.0150    1.8080 H   0  0  0  0  0  0  0  0  0  0  0  0
    0.7880    1.0490   -1.9340 C   0  0  0  0  0  0  0  0  0  0  0  0
    0.0370    2.6810   -1.9350 S   0  0  0  0  0  0  0  0  0  0  0  0
   -0.3220    3.3550   -0.3330 C   0  0  0  0  0  0  0  0  0  0  0  0
   -1.4280    2.8030    0.4560 C   0  0  0  0  0  0  0  0  0  0  0  0
   -1.4670    1.3930    0.8600 C   0  0  2  0  0  0  0  0  0  0  0  0
   -0.3820    0.8950    1.6420 N   0  0  0  0  0  0  0  0  0  0  0  0
   -2.0500    0.4600   -0.1310 C   0  0  0  0  0  0  0  0  0  0  0  0
   -2.9390    0.9100   -0.9230 O   0  0  0  0  0  0  0  0  0  0  0  0
    0.6200    0.4510   -1.0260 H   0  0  0  0  0  0  0  0  0  0  0  0
    1.9040    1.1750   -2.0370 H   0  0  0  0  0  0  0  0  0  0  0  0
    0.4230    0.4790   -2.8280 H   0  0  0  0  0  0  0  0  0  0  0  0
   -0.5320    4.4690   -0.5040 H   0  0  0  0  0  0  0  0  0  0  0  0
    0.6480    3.4050    0.2340 H   0  0  0  0  0  0  0  0  0  0  0  0
   -1.5000    3.4220    1.4180 H   0  0  0  0  0  0  0  0  0  0  0  0
   -2.4450    3.0270   -0.0090 H   0  0  0  0  0  0  0  0  0  0  0  0
   -2.3500    1.3900    1.6620 H   0  0  0  0  0  0  0  0  0  0  0  0
    0.6220    0.9080    1.2980 H   0  0  0  0  0  0  0  0  0  0  0  0
   -2.1390   -4.6160   -2.9020 C   0  0  0  0  0  0  0  0  0  0  0  0
   -1.9190   -3.1940   -3.2860 C   0  0  0  0  0  0  0  0  0  0  0  0
   -1.3780   -2.2900   -2.2420 C   0  0  2  0  0  0  0  0  0  0  0  0
   -0.0560   -2.7580   -1.6880 C   0  0  0  0  0  0  0  0  0  0  0  0
   -2.3590   -1.7600   -1.2820 C   0  0  2  0  0  0  0  0  0  0  0  0
   -1.7120   -0.8950   -0.2740 N   0  0  0  0  0  0  0  0  0  0  0  0
   -3.2770   -2.6990   -0.6320 C   0  0  0  0  0  0  0  0  0  0  0  0
   -3.2800   -2.7440    0.6490 O   0  0  0  0  0  0  0  0  0  0  0  0
   -4.1630   -3.5590   -1.2390 O   0  0  0  0  0  0  0  0  0  0  0  0
   -1.3960   -5.2590   -3.4950 H   0  0  0  0  0  0  0  0  0  0  0  0
   -3.1170   -5.0420   -3.2010 H   0  0  0  0  0  0  0  0  0  0  0  0
   -1.9330   -4.8790   -1.8590 H   0  0  0  0  0  0  0  0  0  0  0  0
   -2.9210   -2.7740   -3.6060 H   0  0  0  0  0  0  0  0  0  0  0  0
   -1.2800   -3.1550   -4.2060 H   0  0  0  0  0  0  0  0  0  0  0  0
   -1.0300   -1.3600   -2.8830 H   0  0  0  0  0  0  0  0  0  0  0  0
    0.6320   -1.9190   -1.4530 H   0  0  0  0  0  0  0  0  0  0  0  0
    0.4450   -3.3550   -2.4770 H   0  0  0  0  0  0  0  0  0  0  0  0
   -0.1680   -3.3470   -0.7580 H   0  0  0  0  0  0  0  0  0  0  0  0
   -3.0360   -1.0600   -1.8750 H   0  0  0  0  0  0  0  0  0  0  0  0
   -0.9980   -1.3330    0.3310 H   0  0  0  0  0  0  0  0  0  0  0  0
  1 11  1  0  0  0  0
  2 12  1  1  0  0  0
  2  1  1  0  0  0  0
  3  2  1  0  0  0  0
  3 13  1  0  0  0  0
  4  3  1  0  0  0  0
  5  4  1  0  0  0  0
  5 17  1  0  0  0  0
  5  6  1  0  0  0  0
  6 20  1  0  0  0  0
  7  6  1  0  0  0  0
  7 21  1  0  0  0  0
  8  9  2  0  0  0  0
  8  2  1  0  0  0  0
 10  1  1  0  0  0  0
 14  3  1  0  0  0  0
 15  4  1  0  0  0  0
 16  4  1  0  0  0  0
 18  5  1  0  0  0  0
 19  6  1  0  0  0  0
 22  7  1  0  0  0  0
 23 31  1  0  0  0  0
 24 23  1  0  0  0  0
 24 25  1  0  0  0  0
 25 35  1  0  0  0  0
 25 26  1  0  0  0  0
 26 27  1  0  0  0  0
 26 36  1  0  0  0  0
 27 28  1  0  0  0  0
 27 38  1  1  0  0  0
 28  8  1  0  0  0  0
 29 27  1  0  0  0  0
 30 29  2  0  0  0  0
 32 23  1  0  0  0  0
 33 23  1  0  0  0  0
 34 25  1  0  0  0  0
 37 26  1  0  0  0  0
 39 28  1  0  0  0  0
 40 51  1  0  0  0  0
 41 40  1  0  0  0  0
 41 42  1  0  0  0  0
 42 54  1  6  0  0  0
 42 43  1  0  0  0  0
 42 44  1  0  0  0  0
 43 55  1  0  0  0  0
 43 57  1  0  0  0  0
 44 58  1  6  0  0  0
 44 46  1  0  0  0  0
 44 45  1  0  0  0  0
 45 29  1  0  0  0  0
 45 59  1  0  0  0  0
 46 47  1  0  0  0  0
 48 46  2  0  0  0  0
 49 40  1  0  0  0  0
 50 40  1  0  0  0  0
 52 41  1  0  0  0  0
 53 41  1  0  0  0  0
 56 43  1  0  0  0  0
M  END
$$$$
