KMM.pdb
 OpenBabel07022418513D

 57 56  0  0  1  0  0  0  0  0999 V2000
   -0.1590   -1.0920    5.2990 N   0  0  0  0  0  0  0  0  0  0  0  0
    0.4890   -0.8000    3.9930 C   0  0  1  0  0  0  0  0  0  0  0  0
    1.3200   -2.0330    3.7100 C   0  0  0  0  0  0  0  0  0  0  0  0
    2.1090   -1.9960    2.4510 C   0  0  0  0  0  0  0  0  0  0  0  0
    3.1210   -0.8840    2.4120 C   0  0  0  0  0  0  0  0  0  0  0  0
    4.1300   -1.0250    3.5390 C   0  0  0  0  0  0  0  0  0  0  0  0
    5.0510    0.1050    3.3910 N   0  0  0  0  0  0  0  0  0  0  0  0
   -0.5850   -0.6000    2.9870 C   0  0  0  0  0  0  0  0  0  0  0  0
   -1.7710   -0.9400    3.2970 O   0  0  0  0  0  0  0  0  0  0  0  0
   -1.1070   -1.4720    5.1680 H   0  0  0  0  0  0  0  0  0  0  0  0
   -0.0870   -0.2690    5.9190 H   0  0  0  0  0  0  0  0  0  0  0  0
    1.1410    0.0580    4.1360 H   0  0  0  0  0  0  0  0  0  0  0  0
    2.0300   -2.1240    4.5690 H   0  0  0  0  0  0  0  0  0  0  0  0
    0.6370   -2.9100    3.7510 H   0  0  0  0  0  0  0  0  0  0  0  0
    2.7090   -2.9520    2.3250 H   0  0  0  0  0  0  0  0  0  0  0  0
    1.4660   -1.9270    1.5720 H   0  0  0  0  0  0  0  0  0  0  0  0
    2.6930    0.1180    2.4740 H   0  0  0  0  0  0  0  0  0  0  0  0
    3.6780   -0.9710    1.4720 H   0  0  0  0  0  0  0  0  0  0  0  0
    4.7360   -1.9420    3.4170 H   0  0  0  0  0  0  0  0  0  0  0  0
    3.6640   -0.9160    4.5280 H   0  0  0  0  0  0  0  0  0  0  0  0
    4.7230    0.9020    3.9710 H   0  0  0  0  0  0  0  0  0  0  0  0
    5.1560    0.3710    2.3990 H   0  0  0  0  0  0  0  0  0  0  0  0
    0.8650    4.5170   -1.2340 C   0  0  0  0  0  0  0  0  0  0  0  0
   -0.6650    3.9180   -0.4750 S   0  0  0  0  0  0  0  0  0  0  0  0
   -0.4330    2.1360   -0.1190 C   0  0  0  0  0  0  0  0  0  0  0  0
   -1.6690    1.5670    0.5180 C   0  0  0  0  0  0  0  0  0  0  0  0
   -1.4820    0.0970    0.8040 C   0  0  2  0  0  0  0  0  0  0  0  0
   -0.3510   -0.0520    1.7130 N   0  0  0  0  0  0  0  0  0  0  0  0
   -1.2050   -0.6620   -0.4480 C   0  0  0  0  0  0  0  0  0  0  0  0
   -0.1180   -1.3000   -0.5750 O   0  0  0  0  0  0  0  0  0  0  0  0
    0.9730    5.6240   -1.1240 H   0  0  0  0  0  0  0  0  0  0  0  0
    1.7590    4.0610   -0.7790 H   0  0  0  0  0  0  0  0  0  0  0  0
    0.8770    4.2520   -2.3120 H   0  0  0  0  0  0  0  0  0  0  0  0
    0.3920    2.0890    0.6300 H   0  0  0  0  0  0  0  0  0  0  0  0
   -0.1040    1.5820   -1.0060 H   0  0  0  0  0  0  0  0  0  0  0  0
   -1.7700    2.0640    1.5220 H   0  0  0  0  0  0  0  0  0  0  0  0
   -2.5790    1.7450   -0.0940 H   0  0  0  0  0  0  0  0  0  0  0  0
   -2.3710   -0.3180    1.2830 H   0  0  0  0  0  0  0  0  0  0  0  0
    0.6130    0.2520    1.4140 H   0  0  0  0  0  0  0  0  0  0  0  0
   -0.9000   -5.4290   -2.8650 C   0  0  0  0  0  0  0  0  0  0  0  0
   -1.3920   -4.3560   -1.5210 S   0  0  0  0  0  0  0  0  0  0  0  0
   -2.9430   -3.5020   -1.8190 C   0  0  0  0  0  0  0  0  0  0  0  0
   -2.8900   -2.5100   -2.9360 C   0  0  0  0  0  0  0  0  0  0  0  0
   -1.8680   -1.4130   -2.6970 C   0  0  2  0  0  0  0  0  0  0  0  0
   -2.1580   -0.6700   -1.4960 N   0  0  0  0  0  0  0  0  0  0  0  0
   -1.9130   -0.4910   -3.8500 C   0  0  0  0  0  0  0  0  0  0  0  0
   -1.6950   -0.8790   -5.0320 O   0  0  0  0  0  0  0  0  0  0  0  0
   -2.2030    0.8450   -3.6310 O   0  0  0  0  0  0  0  0  0  0  0  0
    0.2150   -5.5640   -2.9210 H   0  0  0  0  0  0  0  0  0  0  0  0
   -1.3190   -5.1290   -3.8550 H   0  0  0  0  0  0  0  0  0  0  0  0
   -1.3070   -6.4460   -2.6610 H   0  0  0  0  0  0  0  0  0  0  0  0
   -3.6870   -4.2890   -2.1410 H   0  0  0  0  0  0  0  0  0  0  0  0
   -3.3720   -3.0330   -0.9360 H   0  0  0  0  0  0  0  0  0  0  0  0
   -2.7740   -2.9560   -3.9400 H   0  0  0  0  0  0  0  0  0  0  0  0
   -3.8840   -1.9930   -2.9530 H   0  0  0  0  0  0  0  0  0  0  0  0
   -0.8830   -1.8980   -2.5780 H   0  0  0  0  0  0  0  0  0  0  0  0
   -3.0730   -0.1530   -1.4310 H   0  0  0  0  0  0  0  0  0  0  0  0
  1 11  1  0  0  0  0
  2 12  1  1  0  0  0
  2  1  1  0  0  0  0
  3 14  1  0  0  0  0
  3  2  1  0  0  0  0
  3 13  1  0  0  0  0
  4  3  1  0  0  0  0
  5  4  1  0  0  0  0
  5 17  1  0  0  0  0
  5  6  1  0  0  0  0
  6 20  1  0  0  0  0
  7  6  1  0  0  0  0
  7 21  1  0  0  0  0
  8  9  2  0  0  0  0
  8  2  1  0  0  0  0
 10  1  1  0  0  0  0
 15  4  1  0  0  0  0
 16  4  1  0  0  0  0
 18  5  1  0  0  0  0
 19  6  1  0  0  0  0
 22  7  1  0  0  0  0
 23 31  1  0  0  0  0
 23 32  1  0  0  0  0
 23 24  1  0  0  0  0
 24 25  1  0  0  0  0
 25 26  1  0  0  0  0
 25 34  1  0  0  0  0
 26 27  1  0  0  0  0
 26 36  1  0  0  0  0
 27 38  1  1  0  0  0
 27 28  1  0  0  0  0
 28  8  1  0  0  0  0
 29 27  1  0  0  0  0
 30 29  2  0  0  0  0
 33 23  1  0  0  0  0
 35 25  1  0  0  0  0
 37 26  1  0  0  0  0
 39 28  1  0  0  0  0
 40 51  1  0  0  0  0
 40 41  1  0  0  0  0
 42 41  1  0  0  0  0
 42 53  1  0  0  0  0
 43 44  1  0  0  0  0
 43 42  1  0  0  0  0
 44 56  1  1  0  0  0
 44 45  1  0  0  0  0
 45 57  1  0  0  0  0
 45 29  1  0  0  0  0
 46 48  1  0  0  0  0
 46 44  1  0  0  0  0
 47 46  2  0  0  0  0
 49 40  1  0  0  0  0
 50 40  1  0  0  0  0
 52 42  1  0  0  0  0
 54 43  1  0  0  0  0
 55 43  1  0  0  0  0
M  END
$$$$
