KMN.pdb
 OpenBabel07022418513D

 54 53  0  0  1  0  0  0  0  0999 V2000
    0.7800   -0.3390    4.5320 N   0  0  0  0  0  0  0  0  0  0  0  0
    0.7310   -0.2560    3.0920 C   0  0  1  0  0  0  0  0  0  0  0  0
    0.9400   -1.5610    2.3950 C   0  0  0  0  0  0  0  0  0  0  0  0
    2.2370   -2.2390    2.6380 C   0  0  0  0  0  0  0  0  0  0  0  0
    2.5550   -2.6150    4.0420 C   0  0  0  0  0  0  0  0  0  0  0  0
    3.9190   -3.3080    4.0150 C   0  0  0  0  0  0  0  0  0  0  0  0
    4.8810   -2.3630    3.4840 N   0  0  0  0  0  0  0  0  0  0  0  0
   -0.5040    0.4210    2.6200 C   0  0  0  0  0  0  0  0  0  0  0  0
   -1.4070    0.8020    3.4340 O   0  0  0  0  0  0  0  0  0  0  0  0
   -0.1540   -0.4950    4.9430 H   0  0  0  0  0  0  0  0  0  0  0  0
    1.1370    0.5610    4.9540 H   0  0  0  0  0  0  0  0  0  0  0  0
    1.6000    0.4030    2.7980 H   0  0  0  0  0  0  0  0  0  0  0  0
    0.0660   -2.2490    2.5550 H   0  0  0  0  0  0  0  0  0  0  0  0
    0.8970   -1.3490    1.2920 H   0  0  0  0  0  0  0  0  0  0  0  0
    2.2200   -3.1930    2.0300 H   0  0  0  0  0  0  0  0  0  0  0  0
    3.0390   -1.6330    2.1560 H   0  0  0  0  0  0  0  0  0  0  0  0
    2.6060   -1.7280    4.7280 H   0  0  0  0  0  0  0  0  0  0  0  0
    1.8260   -3.3630    4.3890 H   0  0  0  0  0  0  0  0  0  0  0  0
    4.1920   -3.6750    5.0290 H   0  0  0  0  0  0  0  0  0  0  0  0
    3.8580   -4.1570    3.3320 H   0  0  0  0  0  0  0  0  0  0  0  0
    4.5550   -1.4090    3.7220 H   0  0  0  0  0  0  0  0  0  0  0  0
    4.9030   -2.4700    2.4600 H   0  0  0  0  0  0  0  0  0  0  0  0
    1.3690    3.5170   -3.1300 C   0  0  0  0  0  0  0  0  0  0  0  0
    0.1490    3.9070   -1.8510 S   0  0  0  0  0  0  0  0  0  0  0  0
   -0.3620    2.3190   -1.0880 C   0  0  0  0  0  0  0  0  0  0  0  0
   -1.3860    2.5680   -0.0090 C   0  0  0  0  0  0  0  0  0  0  0  0
   -1.8350    1.2940    0.6540 C   0  0  2  0  0  0  0  0  0  0  0  0
   -0.6880    0.6510    1.2340 N   0  0  0  0  0  0  0  0  0  0  0  0
   -2.6320    0.4910   -0.2590 C   0  0  0  0  0  0  0  0  0  0  0  0
   -3.6060    1.0120   -0.8470 O   0  0  0  0  0  0  0  0  0  0  0  0
    2.2960    3.0840   -2.7470 H   0  0  0  0  0  0  0  0  0  0  0  0
    0.9240    2.7990   -3.8780 H   0  0  0  0  0  0  0  0  0  0  0  0
    1.5420    4.4690   -3.7010 H   0  0  0  0  0  0  0  0  0  0  0  0
   -0.7390    1.6440   -1.8660 H   0  0  0  0  0  0  0  0  0  0  0  0
    0.5670    1.8740   -0.6980 H   0  0  0  0  0  0  0  0  0  0  0  0
   -0.9060    3.1800    0.8080 H   0  0  0  0  0  0  0  0  0  0  0  0
   -2.2460    3.1300   -0.4460 H   0  0  0  0  0  0  0  0  0  0  0  0
   -2.4960    1.5430    1.5440 H   0  0  0  0  0  0  0  0  0  0  0  0
    0.0610    0.3360    0.5860 H   0  0  0  0  0  0  0  0  0  0  0  0
   -0.6430   -2.2190   -4.2630 N   0  0  0  0  0  0  0  0  0  0  0  0
   -1.5210   -1.6100   -3.3190 C   0  0  0  0  0  0  0  0  0  0  0  0
   -1.6410   -0.3830   -3.3550 O   0  0  0  0  0  0  0  0  0  0  0  0
   -2.2310   -2.4750   -2.3580 C   0  0  0  0  0  0  0  0  0  0  0  0
   -3.0600   -1.7630   -1.3510 C   0  0  2  0  0  0  0  0  0  0  0  0
   -2.3240   -0.8710   -0.4840 N   0  0  0  0  0  0  0  0  0  0  0  0
   -3.7860   -2.7970   -0.5610 C   0  0  0  0  0  0  0  0  0  0  0  0
   -3.7030   -2.8080    0.6790 O   0  0  0  0  0  0  0  0  0  0  0  0
   -4.5450   -3.7330   -1.2160 O   0  0  0  0  0  0  0  0  0  0  0  0
    0.1080   -1.6750   -4.7090 H   0  0  0  0  0  0  0  0  0  0  0  0
   -0.7560   -3.2270   -4.5110 H   0  0  0  0  0  0  0  0  0  0  0  0
   -1.4930   -3.1140   -1.8110 H   0  0  0  0  0  0  0  0  0  0  0  0
   -2.8590   -3.1730   -2.9760 H   0  0  0  0  0  0  0  0  0  0  0  0
   -3.8090   -1.0900   -1.8740 H   0  0  0  0  0  0  0  0  0  0  0  0
   -1.4830   -1.2460    0.0330 H   0  0  0  0  0  0  0  0  0  0  0  0
  1 10  1  0  0  0  0
  1 11  1  0  0  0  0
  2 12  1  6  0  0  0
  2  1  1  0  0  0  0
  3 13  1  0  0  0  0
  3  4  1  0  0  0  0
  3  2  1  0  0  0  0
  4  5  1  0  0  0  0
  5 18  1  0  0  0  0
  5 17  1  0  0  0  0
  6  5  1  0  0  0  0
  6 19  1  0  0  0  0
  7 21  1  0  0  0  0
  7  6  1  0  0  0  0
  8  2  1  0  0  0  0
  8  9  2  0  0  0  0
 14  3  1  0  0  0  0
 15  4  1  0  0  0  0
 16  4  1  0  0  0  0
 20  6  1  0  0  0  0
 22  7  1  0  0  0  0
 23 31  1  0  0  0  0
 23 24  1  0  0  0  0
 24 25  1  0  0  0  0
 25 35  1  0  0  0  0
 25 26  1  0  0  0  0
 26 27  1  0  0  0  0
 26 36  1  0  0  0  0
 27 28  1  0  0  0  0
 27 38  1  1  0  0  0
 28  8  1  0  0  0  0
 29 27  1  0  0  0  0
 30 29  2  0  0  0  0
 32 23  1  0  0  0  0
 33 23  1  0  0  0  0
 34 25  1  0  0  0  0
 37 26  1  0  0  0  0
 39 28  1  0  0  0  0
 40 41  1  0  0  0  0
 41 43  1  0  0  0  0
 42 41  2  0  0  0  0
 43 51  1  0  0  0  0
 43 44  1  0  0  0  0
 44 53  1  6  0  0  0
 44 46  1  0  0  0  0
 44 45  1  0  0  0  0
 45 29  1  0  0  0  0
 45 54  1  0  0  0  0
 46 47  1  0  0  0  0
 48 46  2  0  0  0  0
 49 40  1  0  0  0  0
 50 40  1  0  0  0  0
 52 43  1  0  0  0  0
M  END
$$$$
