KMR.pdb
 OpenBabel07022418513D

 63 62  0  0  1  0  0  0  0  0999 V2000
    2.0950   -1.5390    1.7090 N   0  0  0  0  0  0  0  0  0  0  0  0
    1.9240   -0.4100    2.5830 C   0  0  1  0  0  0  0  0  0  0  0  0
    3.2860    0.1390    2.9010 C   0  0  0  0  0  0  0  0  0  0  0  0
    4.0420    0.5940    1.6860 C   0  0  0  0  0  0  0  0  0  0  0  0
    5.3860    1.1210    2.1540 C   0  0  0  0  0  0  0  0  0  0  0  0
    6.1320    1.5730    0.9200 C   0  0  0  0  0  0  0  0  0  0  0  0
    7.4430    2.1030    1.2370 N   0  0  0  0  0  0  0  0  0  0  0  0
    0.9970    0.6070    2.0420 C   0  0  0  0  0  0  0  0  0  0  0  0
    0.7500    1.6500    2.7030 O   0  0  0  0  0  0  0  0  0  0  0  0
    1.2760   -2.1820    1.8770 H   0  0  0  0  0  0  0  0  0  0  0  0
    2.2240   -1.3080    0.7190 H   0  0  0  0  0  0  0  0  0  0  0  0
    1.5020   -0.7970    3.5350 H   0  0  0  0  0  0  0  0  0  0  0  0
    3.1840    0.9300    3.6580 H   0  0  0  0  0  0  0  0  0  0  0  0
    3.8690   -0.6810    3.3670 H   0  0  0  0  0  0  0  0  0  0  0  0
    3.5090    1.3500    1.1030 H   0  0  0  0  0  0  0  0  0  0  0  0
    4.2720   -0.3340    1.0930 H   0  0  0  0  0  0  0  0  0  0  0  0
    5.9370    0.2380    2.5500 H   0  0  0  0  0  0  0  0  0  0  0  0
    5.2930    1.9140    2.9090 H   0  0  0  0  0  0  0  0  0  0  0  0
    6.2800    0.6650    0.2950 H   0  0  0  0  0  0  0  0  0  0  0  0
    5.5100    2.2770    0.3520 H   0  0  0  0  0  0  0  0  0  0  0  0
    7.9730    2.1850    0.3460 H   0  0  0  0  0  0  0  0  0  0  0  0
    7.9410    1.3880    1.8170 H   0  0  0  0  0  0  0  0  0  0  0  0
   -0.6170    2.3860   -4.5140 C   0  0  0  0  0  0  0  0  0  0  0  0
   -0.5010    3.6440   -3.2430 S   0  0  0  0  0  0  0  0  0  0  0  0
   -1.0430    3.0430   -1.6150 C   0  0  0  0  0  0  0  0  0  0  0  0
   -0.1530    1.9940   -1.0650 C   0  0  0  0  0  0  0  0  0  0  0  0
   -0.5820    1.5310    0.2750 C   0  0  2  0  0  0  0  0  0  0  0  0
    0.3410    0.4980    0.7930 N   0  0  0  0  0  0  0  0  0  0  0  0
   -1.9140    0.8950    0.2390 C   0  0  0  0  0  0  0  0  0  0  0  0
   -2.9610    1.5420   -0.1180 O   0  0  0  0  0  0  0  0  0  0  0  0
   -1.4500    2.6790   -5.2070 H   0  0  0  0  0  0  0  0  0  0  0  0
   -0.9340    1.3880   -4.1040 H   0  0  0  0  0  0  0  0  0  0  0  0
    0.2890    2.3080   -5.1440 H   0  0  0  0  0  0  0  0  0  0  0  0
   -2.0910    2.7170   -1.7770 H   0  0  0  0  0  0  0  0  0  0  0  0
   -1.1020    3.9370   -0.9620 H   0  0  0  0  0  0  0  0  0  0  0  0
    0.8750    2.4510   -0.9500 H   0  0  0  0  0  0  0  0  0  0  0  0
    0.0020    1.1320   -1.7470 H   0  0  0  0  0  0  0  0  0  0  0  0
   -0.6190    2.3900    0.9810 H   0  0  0  0  0  0  0  0  0  0  0  0
    0.5020   -0.3290    0.1980 H   0  0  0  0  0  0  0  0  0  0  0  0
   -5.5050   -6.0800   -0.5540 N   0  0  0  0  0  0  0  0  0  0  0  0
   -4.1850   -5.7730   -0.1480 C   0  0  0  0  0  0  0  0  0  0  0  0
   -3.1430   -6.3960   -0.6380 N   0  0  0  0  0  0  0  0  0  0  0  0
   -3.8970   -4.7550    0.8330 N   0  0  0  0  0  0  0  0  0  0  0  0
   -2.5990   -4.1050    0.8500 C   0  0  0  0  0  0  0  0  0  0  0  0
   -2.4330   -3.2730   -0.3650 C   0  0  0  0  0  0  0  0  0  0  0  0
   -3.4190   -2.1790   -0.4770 C   0  0  0  0  0  0  0  0  0  0  0  0
   -3.4050   -1.1190    0.5700 C   0  0  2  0  0  0  0  0  0  0  0  0
   -2.0860   -0.4680    0.6020 N   0  0  0  0  0  0  0  0  0  0  0  0
   -3.9040   -1.4600    1.8980 C   0  0  0  0  0  0  0  0  0  0  0  0
   -5.0210   -1.9930    2.1120 O   0  0  0  0  0  0  0  0  0  0  0  0
   -3.1590   -1.2110    3.0750 O   0  0  0  0  0  0  0  0  0  0  0  0
   -5.8750   -7.0360   -0.6940 H   0  0  0  0  0  0  0  0  0  0  0  0
   -6.1510   -5.2620   -0.7250 H   0  0  0  0  0  0  0  0  0  0  0  0
   -3.2300   -7.1400   -1.3440 H   0  0  0  0  0  0  0  0  0  0  0  0
   -4.6680   -4.5550    1.4940 H   0  0  0  0  0  0  0  0  0  0  0  0
   -2.5540   -3.4840    1.7560 H   0  0  0  0  0  0  0  0  0  0  0  0
   -1.7920   -4.8800    0.9570 H   0  0  0  0  0  0  0  0  0  0  0  0
   -2.6190   -3.9670   -1.2470 H   0  0  0  0  0  0  0  0  0  0  0  0
   -1.3760   -2.8960   -0.4900 H   0  0  0  0  0  0  0  0  0  0  0  0
   -3.3560   -1.6440   -1.4680 H   0  0  0  0  0  0  0  0  0  0  0  0
   -4.4800   -2.5930   -0.4880 H   0  0  0  0  0  0  0  0  0  0  0  0
   -4.1410   -0.3200    0.1820 H   0  0  0  0  0  0  0  0  0  0  0  0
   -1.2550   -1.0090    0.8970 H   0  0  0  0  0  0  0  0  0  0  0  0
  1 10  1  0  0  0  0
  1  2  1  0  0  0  0
  2  3  1  0  0  0  0
  2 12  1  1  0  0  0
  3 14  1  0  0  0  0
  3 13  1  0  0  0  0
  4  5  1  0  0  0  0
  4  3  1  0  0  0  0
  5 17  1  0  0  0  0
  5 18  1  0  0  0  0
  6  7  1  0  0  0  0
  6  5  1  0  0  0  0
  7 22  1  0  0  0  0
  8  2  1  0  0  0  0
  8  9  2  0  0  0  0
 11  1  1  0  0  0  0
 15  4  1  0  0  0  0
 16  4  1  0  0  0  0
 19  6  1  0  0  0  0
 20  6  1  0  0  0  0
 21  7  1  0  0  0  0
 23 32  1  0  0  0  0
 23 24  1  0  0  0  0
 24 25  1  0  0  0  0
 25 26  1  0  0  0  0
 25 35  1  0  0  0  0
 26 36  1  0  0  0  0
 26 27  1  0  0  0  0
 27 28  1  0  0  0  0
 27 38  1  1  0  0  0
 28  8  1  0  0  0  0
 29 27  1  0  0  0  0
 29 48  1  0  0  0  0
 30 29  2  0  0  0  0
 31 23  1  0  0  0  0
 33 23  1  0  0  0  0
 34 25  1  0  0  0  0
 37 26  1  0  0  0  0
 39 28  1  0  0  0  0
 40 41  1  0  0  0  0
 41 43  1  0  0  0  0
 42 41  2  0  0  0  0
 43 44  1  0  0  0  0
 43 55  1  0  0  0  0
 44 57  1  0  0  0  0
 44 56  1  0  0  0  0
 45 44  1  0  0  0  0
 46 45  1  0  0  0  0
 46 47  1  0  0  0  0
 47 62  1  6  0  0  0
 47 48  1  0  0  0  0
 47 49  1  0  0  0  0
 48 63  1  0  0  0  0
 49 50  2  0  0  0  0
 49 51  1  0  0  0  0
 52 40  1  0  0  0  0
 53 40  1  0  0  0  0
 54 42  1  0  0  0  0
 58 45  1  0  0  0  0
 59 45  1  0  0  0  0
 60 46  1  0  0  0  0
 61 46  1  0  0  0  0
M  END
$$$$
