KMS.pdb
 OpenBabel07022418513D

 51 50  0  0  1  0  0  0  0  0999 V2000
   -0.6310   -2.9740    1.3590 N   0  0  0  0  0  0  0  0  0  0  0  0
   -0.3310   -2.0590    2.4170 C   0  0  1  0  0  0  0  0  0  0  0  0
    0.9470   -2.4840    3.1090 C   0  0  0  0  0  0  0  0  0  0  0  0
    2.1180   -2.5060    2.1530 C   0  0  0  0  0  0  0  0  0  0  0  0
    3.3950   -2.9200    2.7970 C   0  0  0  0  0  0  0  0  0  0  0  0
    3.8160   -2.0060    3.9280 C   0  0  0  0  0  0  0  0  0  0  0  0
    5.0800   -2.5560    4.4410 N   0  0  0  0  0  0  0  0  0  0  0  0
   -0.2690   -0.6480    1.9570 C   0  0  0  0  0  0  0  0  0  0  0  0
   -0.0240    0.3070    2.7370 O   0  0  0  0  0  0  0  0  0  0  0  0
   -1.5540   -2.8690    0.9320 H   0  0  0  0  0  0  0  0  0  0  0  0
   -0.2890   -3.9270    1.5100 H   0  0  0  0  0  0  0  0  0  0  0  0
   -1.1450   -2.1200    3.1690 H   0  0  0  0  0  0  0  0  0  0  0  0
    1.1520   -1.8700    4.0070 H   0  0  0  0  0  0  0  0  0  0  0  0
    0.8030   -3.5250    3.4660 H   0  0  0  0  0  0  0  0  0  0  0  0
    1.9300   -3.1730    1.2950 H   0  0  0  0  0  0  0  0  0  0  0  0
    2.2390   -1.4880    1.7570 H   0  0  0  0  0  0  0  0  0  0  0  0
    3.3770   -3.9780    3.0990 H   0  0  0  0  0  0  0  0  0  0  0  0
    4.1950   -2.8460    2.0150 H   0  0  0  0  0  0  0  0  0  0  0  0
    3.0650   -1.8880    4.7090 H   0  0  0  0  0  0  0  0  0  0  0  0
    4.0730   -1.0050    3.5360 H   0  0  0  0  0  0  0  0  0  0  0  0
    5.7720   -2.3800    3.6540 H   0  0  0  0  0  0  0  0  0  0  0  0
    5.0250   -3.6140    4.5020 H   0  0  0  0  0  0  0  0  0  0  0  0
    2.8470    0.2740   -3.1840 C   0  0  0  0  0  0  0  0  0  0  0  0
    3.1580    1.4090   -1.8010 S   0  0  0  0  0  0  0  0  0  0  0  0
    2.0120    1.0490   -0.4390 C   0  0  0  0  0  0  0  0  0  0  0  0
    0.5950    1.3830   -0.9080 C   0  0  0  0  0  0  0  0  0  0  0  0
   -0.4190    1.1140    0.1600 C   0  0  2  0  0  0  0  0  0  0  0  0
   -0.4770   -0.2450    0.6090 N   0  0  0  0  0  0  0  0  0  0  0  0
   -1.7530    1.4650   -0.3980 C   0  0  0  0  0  0  0  0  0  0  0  0
   -1.9870    2.6280   -0.8700 O   0  0  0  0  0  0  0  0  0  0  0  0
    1.9430    0.5490   -3.7540 H   0  0  0  0  0  0  0  0  0  0  0  0
    2.6410   -0.7480   -2.7510 H   0  0  0  0  0  0  0  0  0  0  0  0
    3.7320    0.1400   -3.8290 H   0  0  0  0  0  0  0  0  0  0  0  0
    2.1180   -0.0260   -0.2050 H   0  0  0  0  0  0  0  0  0  0  0  0
    2.2530    1.6470    0.4390 H   0  0  0  0  0  0  0  0  0  0  0  0
    0.6240    2.4860   -1.0600 H   0  0  0  0  0  0  0  0  0  0  0  0
    0.3610    0.9530   -1.8830 H   0  0  0  0  0  0  0  0  0  0  0  0
   -0.1980    1.8000    1.0040 H   0  0  0  0  0  0  0  0  0  0  0  0
   -0.6870   -0.9710   -0.1130 H   0  0  0  0  0  0  0  0  0  0  0  0
   -4.2640   -1.2560   -2.0520 O   0  0  0  0  0  0  0  0  0  0  0  0
   -4.3060    0.1050   -2.2840 C   0  0  0  0  0  0  0  0  0  0  0  0
   -4.1450    0.9210   -1.0010 C   0  0  2  0  0  0  0  0  0  0  0  0
   -2.8430    0.5510   -0.4470 N   0  0  0  0  0  0  0  0  0  0  0  0
   -5.2400    0.6680   -0.0760 C   0  0  0  0  0  0  0  0  0  0  0  0
   -5.0120    0.1840    1.0540 O   0  0  0  0  0  0  0  0  0  0  0  0
   -6.5380    0.9610   -0.4400 O   0  0  0  0  0  0  0  0  0  0  0  0
   -4.8340   -1.4900   -1.2880 H   0  0  0  0  0  0  0  0  0  0  0  0
   -5.3000    0.3440   -2.7320 H   0  0  0  0  0  0  0  0  0  0  0  0
   -3.5420    0.3740   -3.0300 H   0  0  0  0  0  0  0  0  0  0  0  0
   -4.1070    1.9810   -1.3400 H   0  0  0  0  0  0  0  0  0  0  0  0
   -2.6610   -0.4020   -0.0630 H   0  0  0  0  0  0  0  0  0  0  0  0
  1 11  1  0  0  0  0
  1  2  1  0  0  0  0
  2  3  1  0  0  0  0
  2 12  1  1  0  0  0
  3 14  1  0  0  0  0
  3 13  1  0  0  0  0
  4  5  1  0  0  0  0
  4  3  1  0  0  0  0
  5 17  1  0  0  0  0
  5  6  1  0  0  0  0
  6  7  1  0  0  0  0
  6 19  1  0  0  0  0
  7 22  1  0  0  0  0
  8  2  1  0  0  0  0
  8  9  2  0  0  0  0
 10  1  1  0  0  0  0
 15  4  1  0  0  0  0
 16  4  1  0  0  0  0
 18  5  1  0  0  0  0
 20  6  1  0  0  0  0
 21  7  1  0  0  0  0
 23 32  1  0  0  0  0
 23 24  1  0  0  0  0
 24 25  1  0  0  0  0
 25 34  1  0  0  0  0
 25 35  1  0  0  0  0
 26 25  1  0  0  0  0
 26 27  1  0  0  0  0
 27 28  1  0  0  0  0
 27 38  1  1  0  0  0
 28  8  1  0  0  0  0
 29 27  1  0  0  0  0
 30 29  2  0  0  0  0
 31 23  1  0  0  0  0
 33 23  1  0  0  0  0
 36 26  1  0  0  0  0
 37 26  1  0  0  0  0
 39 28  1  0  0  0  0
 40 47  1  0  0  0  0
 41 40  1  0  0  0  0
 41 42  1  0  0  0  0
 42 50  1  6  0  0  0
 42 43  1  0  0  0  0
 42 44  1  0  0  0  0
 43 29  1  0  0  0  0
 43 51  1  0  0  0  0
 44 45  1  0  0  0  0
 46 44  2  0  0  0  0
 48 41  1  0  0  0  0
 49 41  1  0  0  0  0
M  END
$$$$
