KMT.pdb
 OpenBabel07022418513D

 54 53  0  0  1  0  0  0  0  0999 V2000
   -1.2760    2.3140    4.0550 N   0  0  0  0  0  0  0  0  0  0  0  0
   -0.5000    1.1740    3.5130 C   0  0  1  0  0  0  0  0  0  0  0  0
   -1.0880   -0.0380    4.1590 C   0  0  0  0  0  0  0  0  0  0  0  0
   -0.4810   -1.3450    3.7960 C   0  0  0  0  0  0  0  0  0  0  0  0
    0.9960   -1.4450    4.1480 C   0  0  0  0  0  0  0  0  0  0  0  0
    1.4370   -2.8330    3.7070 C   0  0  0  0  0  0  0  0  0  0  0  0
    0.5960   -3.7620    4.4730 N   0  0  0  0  0  0  0  0  0  0  0  0
   -0.7170    1.2290    2.0440 C   0  0  0  0  0  0  0  0  0  0  0  0
   -1.5960    2.0080    1.5600 O   0  0  0  0  0  0  0  0  0  0  0  0
   -2.1750    2.0030    4.4740 H   0  0  0  0  0  0  0  0  0  0  0  0
   -0.7430    2.8220    4.7770 H   0  0  0  0  0  0  0  0  0  0  0  0
    0.5390    1.3610    3.8000 H   0  0  0  0  0  0  0  0  0  0  0  0
   -2.1720   -0.0970    3.9300 H   0  0  0  0  0  0  0  0  0  0  0  0
   -0.9370    0.0930    5.2640 H   0  0  0  0  0  0  0  0  0  0  0  0
   -0.5960   -1.6690    2.7560 H   0  0  0  0  0  0  0  0  0  0  0  0
   -1.0590   -2.1240    4.3890 H   0  0  0  0  0  0  0  0  0  0  0  0
    1.6080   -0.6690    3.6680 H   0  0  0  0  0  0  0  0  0  0  0  0
    1.0560   -1.3380    5.2490 H   0  0  0  0  0  0  0  0  0  0  0  0
    2.5000   -2.9820    3.8970 H   0  0  0  0  0  0  0  0  0  0  0  0
    1.2540   -2.9700    2.6250 H   0  0  0  0  0  0  0  0  0  0  0  0
    0.8020   -3.5240    5.4870 H   0  0  0  0  0  0  0  0  0  0  0  0
    1.0610   -4.7070    4.3390 H   0  0  0  0  0  0  0  0  0  0  0  0
    4.4110    1.5340   -0.9930 C   0  0  0  0  0  0  0  0  0  0  0  0
    3.0780    2.6770   -1.4110 S   0  0  0  0  0  0  0  0  0  0  0  0
    1.5510    2.2690   -0.5200 C   0  0  0  0  0  0  0  0  0  0  0  0
    1.0490    0.9420   -1.0070 C   0  0  0  0  0  0  0  0  0  0  0  0
   -0.2310    0.5340   -0.3040 C   0  0  2  0  0  0  0  0  0  0  0  0
    0.0280    0.4380    1.1350 N   0  0  0  0  0  0  0  0  0  0  0  0
   -0.6040   -0.8320   -0.7570 C   0  0  0  0  0  0  0  0  0  0  0  0
   -0.6630   -1.8270    0.0190 O   0  0  0  0  0  0  0  0  0  0  0  0
    5.3770    1.9990   -1.3000 H   0  0  0  0  0  0  0  0  0  0  0  0
    4.3060    0.6000   -1.5830 H   0  0  0  0  0  0  0  0  0  0  0  0
    4.4080    1.2450    0.0820 H   0  0  0  0  0  0  0  0  0  0  0  0
    0.8090    3.0700   -0.7890 H   0  0  0  0  0  0  0  0  0  0  0  0
    1.7880    2.2730    0.5530 H   0  0  0  0  0  0  0  0  0  0  0  0
    1.8140    0.1680   -0.7910 H   0  0  0  0  0  0  0  0  0  0  0  0
    0.8150    1.0350   -2.0870 H   0  0  0  0  0  0  0  0  0  0  0  0
   -1.0470    1.2630   -0.5050 H   0  0  0  0  0  0  0  0  0  0  0  0
    0.7560   -0.2000    1.4990 H   0  0  0  0  0  0  0  0  0  0  0  0
   -3.6800   -1.6740   -2.3500 C   0  0  0  0  0  0  0  0  0  0  0  0
   -2.6380   -2.2600   -3.2890 C   0  0  1  0  0  0  0  0  0  0  0  0
   -2.4660   -1.3350   -4.3230 O   0  0  0  0  0  0  0  0  0  0  0  0
   -1.2880   -2.3960   -2.6140 C   0  0  2  0  0  0  0  0  0  0  0  0
   -0.9220   -1.1060   -2.1210 N   0  0  0  0  0  0  0  0  0  0  0  0
   -0.3440   -2.8890   -3.6700 C   0  0  0  0  0  0  0  0  0  0  0  0
    0.6430   -2.2000   -4.0360 O   0  0  0  0  0  0  0  0  0  0  0  0
   -0.5220   -4.1200   -4.2810 O   0  0  0  0  0  0  0  0  0  0  0  0
   -4.6220   -1.6100   -2.9400 H   0  0  0  0  0  0  0  0  0  0  0  0
   -3.8300   -2.3620   -1.4870 H   0  0  0  0  0  0  0  0  0  0  0  0
   -3.3950   -0.6530   -2.0490 H   0  0  0  0  0  0  0  0  0  0  0  0
   -2.9770   -3.1950   -3.7480 H   0  0  0  0  0  0  0  0  0  0  0  0
   -2.2960   -1.7690   -5.1880 H   0  0  0  0  0  0  0  0  0  0  0  0
   -1.3030   -3.1380   -1.7720 H   0  0  0  0  0  0  0  0  0  0  0  0
   -0.8780   -0.2950   -2.7820 H   0  0  0  0  0  0  0  0  0  0  0  0
  1 10  1  0  0  0  0
  1 11  1  0  0  0  0
  2 12  1  1  0  0  0
  2  1  1  0  0  0  0
  2  3  1  0  0  0  0
  3 14  1  0  0  0  0
  4  5  1  0  0  0  0
  4  3  1  0  0  0  0
  4 16  1  0  0  0  0
  5 18  1  0  0  0  0
  6 19  1  0  0  0  0
  6  5  1  0  0  0  0
  6  7  1  0  0  0  0
  7 21  1  0  0  0  0
  8  2  1  0  0  0  0
  9  8  2  0  0  0  0
 13  3  1  0  0  0  0
 15  4  1  0  0  0  0
 17  5  1  0  0  0  0
 20  6  1  0  0  0  0
 22  7  1  0  0  0  0
 23 33  1  0  0  0  0
 24 23  1  0  0  0  0
 24 25  1  0  0  0  0
 25 35  1  0  0  0  0
 26 36  1  0  0  0  0
 26 25  1  0  0  0  0
 26 27  1  0  0  0  0
 27 38  1  6  0  0  0
 27 28  1  0  0  0  0
 28 39  1  0  0  0  0
 28  8  1  0  0  0  0
 29 27  1  0  0  0  0
 29 30  2  0  0  0  0
 31 23  1  0  0  0  0
 32 23  1  0  0  0  0
 34 25  1  0  0  0  0
 37 26  1  0  0  0  0
 40 50  1  0  0  0  0
 40 49  1  0  0  0  0
 41 51  1  6  0  0  0
 41 43  1  0  0  0  0
 41 40  1  0  0  0  0
 42 41  1  0  0  0  0
 43 44  1  0  0  0  0
 43 53  1  1  0  0  0
 44 29  1  0  0  0  0
 45 43  1  0  0  0  0
 46 45  1  0  0  0  0
 47 45  2  0  0  0  0
 48 40  1  0  0  0  0
 52 42  1  0  0  0  0
 54 44  1  0  0  0  0
M  END
$$$$
