KMW.pdb
 OpenBabel07022418513D

 64 65  0  0  1  0  0  0  0  0999 V2000
    0.1940    0.4780    5.5920 N   0  0  0  0  0  0  0  0  0  0  0  0
    0.4830    1.5670    4.6650 C   0  0  1  0  0  0  0  0  0  0  0  0
    1.9590    1.7710    4.4910 C   0  0  0  0  0  0  0  0  0  0  0  0
    2.3260    2.9130    3.5860 C   0  0  0  0  0  0  0  0  0  0  0  0
    3.7980    3.0620    3.3960 C   0  0  0  0  0  0  0  0  0  0  0  0
    4.5160    3.3160    4.6780 C   0  0  0  0  0  0  0  0  0  0  0  0
    5.9490    3.4650    4.4710 N   0  0  0  0  0  0  0  0  0  0  0  0
   -0.1870    1.1770    3.3700 C   0  0  0  0  0  0  0  0  0  0  0  0
   -1.4460    1.2660    3.2980 O   0  0  0  0  0  0  0  0  0  0  0  0
   -0.8460    0.4450    5.6780 H   0  0  0  0  0  0  0  0  0  0  0  0
    0.5420   -0.4320    5.2180 H   0  0  0  0  0  0  0  0  0  0  0  0
    0.0320    2.4950    5.0530 H   0  0  0  0  0  0  0  0  0  0  0  0
    2.4750    0.8560    4.1130 H   0  0  0  0  0  0  0  0  0  0  0  0
    2.4000    1.9630    5.5140 H   0  0  0  0  0  0  0  0  0  0  0  0
    1.8060    2.8190    2.6270 H   0  0  0  0  0  0  0  0  0  0  0  0
    1.9880    3.8940    4.0680 H   0  0  0  0  0  0  0  0  0  0  0  0
    4.1710    2.1450    2.8880 H   0  0  0  0  0  0  0  0  0  0  0  0
    4.0050    3.9240    2.7040 H   0  0  0  0  0  0  0  0  0  0  0  0
    4.1480    4.2560    5.1210 H   0  0  0  0  0  0  0  0  0  0  0  0
    4.2980    2.5040    5.4080 H   0  0  0  0  0  0  0  0  0  0  0  0
    6.1220    3.5280    3.4500 H   0  0  0  0  0  0  0  0  0  0  0  0
    6.4910    2.6950    4.9240 H   0  0  0  0  0  0  0  0  0  0  0  0
   -3.6020    0.9590   -2.4100 C   0  0  0  0  0  0  0  0  0  0  0  0
   -2.6870    1.1740   -0.8820 S   0  0  0  0  0  0  0  0  0  0  0  0
   -0.9140    1.3710   -1.2070 C   0  0  0  0  0  0  0  0  0  0  0  0
   -0.1470    1.5360    0.0670 C   0  0  0  0  0  0  0  0  0  0  0  0
   -0.2820    0.3630    1.0330 C   0  0  2  0  0  0  0  0  0  0  0  0
    0.5200    0.7150    2.2380 N   0  0  0  0  0  0  0  0  0  0  0  0
    0.2370   -0.8700    0.4420 C   0  0  0  0  0  0  0  0  0  0  0  0
    1.3980   -1.2410    0.8850 O   0  0  0  0  0  0  0  0  0  0  0  0
   -4.3510    0.1300   -2.2510 H   0  0  0  0  0  0  0  0  0  0  0  0
   -4.1860    1.8810   -2.6770 H   0  0  0  0  0  0  0  0  0  0  0  0
   -2.9930    0.6800   -3.2650 H   0  0  0  0  0  0  0  0  0  0  0  0
   -0.5540    0.5140   -1.7830 H   0  0  0  0  0  0  0  0  0  0  0  0
   -0.7870    2.2950   -1.8600 H   0  0  0  0  0  0  0  0  0  0  0  0
   -0.4730    2.4820    0.5520 H   0  0  0  0  0  0  0  0  0  0  0  0
    0.9400    1.6970   -0.1620 H   0  0  0  0  0  0  0  0  0  0  0  0
   -1.3240    0.2710    1.3310 H   0  0  0  0  0  0  0  0  0  0  0  0
    1.5510    0.5950    2.2230 H   0  0  0  0  0  0  0  0  0  0  0  0
   -0.3760   -1.6830   -0.5360 N   0  0  0  0  0  0  0  0  0  0  0  0
    0.2510   -2.8760   -1.0590 C   0  0  1  0  0  0  0  0  0  0  0  0
   -0.5220   -4.1140   -0.7690 C   0  0  0  0  0  0  0  0  0  0  0  0
   -1.8940   -4.1730   -1.2600 C   0  0  0  0  0  0  0  0  0  0  0  0
   -2.9980   -3.8400   -0.4630 C   0  0  0  0  0  0  0  0  0  0  0  0
   -4.0850   -3.9600   -1.1970 N   0  0  0  0  0  0  0  0  0  0  0  0
   -3.8000   -4.3600   -2.4630 C   0  0  0  0  0  0  0  0  0  0  0  0
   -4.6070   -4.6180   -3.5480 C   0  0  0  0  0  0  0  0  0  0  0  0
   -4.0120   -5.0280   -4.7190 C   0  0  0  0  0  0  0  0  0  0  0  0
   -2.6530   -5.1630   -4.7630 C   0  0  0  0  0  0  0  0  0  0  0  0
   -1.8640   -4.9080   -3.6920 C   0  0  0  0  0  0  0  0  0  0  0  0
   -2.4190   -4.4870   -2.4770 C   0  0  0  0  0  0  0  0  0  0  0  0
    0.6280   -2.7920   -2.4770 C   0  0  0  0  0  0  0  0  0  0  0  0
    1.3000   -3.6590   -3.0780 O   0  0  0  0  0  0  0  0  0  0  0  0
    0.2360   -1.6900   -3.2680 O   0  0  0  0  0  0  0  0  0  0  0  0
   -1.3140   -1.4300   -0.8750 H   0  0  0  0  0  0  0  0  0  0  0  0
    1.2570   -2.9280   -0.5150 H   0  0  0  0  0  0  0  0  0  0  0  0
    0.0560   -5.0400   -1.1010 H   0  0  0  0  0  0  0  0  0  0  0  0
   -0.5040   -4.2370    0.3540 H   0  0  0  0  0  0  0  0  0  0  0  0
   -2.9660   -3.5330    0.5790 H   0  0  0  0  0  0  0  0  0  0  0  0
   -5.0680   -3.7810   -0.8860 H   0  0  0  0  0  0  0  0  0  0  0  0
   -5.6570   -4.5060   -3.4900 H   0  0  0  0  0  0  0  0  0  0  0  0
   -4.6620   -5.2330   -5.5800 H   0  0  0  0  0  0  0  0  0  0  0  0
   -2.1860   -5.4890   -5.6980 H   0  0  0  0  0  0  0  0  0  0  0  0
   -0.8040   -5.0350   -3.7450 H   0  0  0  0  0  0  0  0  0  0  0  0
  1 10  1  0  0  0  0
  2 12  1  1  0  0  0
  2  1  1  0  0  0  0
  3  2  1  0  0  0  0
  3 14  1  0  0  0  0
  4 16  1  0  0  0  0
  4  3  1  0  0  0  0
  5  4  1  0  0  0  0
  5  6  1  0  0  0  0
  6 19  1  0  0  0  0
  6 20  1  0  0  0  0
  7  6  1  0  0  0  0
  7 22  1  0  0  0  0
  8  2  1  0  0  0  0
  9  8  2  0  0  0  0
 11  1  1  0  0  0  0
 13  3  1  0  0  0  0
 15  4  1  0  0  0  0
 17  5  1  0  0  0  0
 18  5  1  0  0  0  0
 21  7  1  0  0  0  0
 23 31  1  0  0  0  0
 23 24  1  0  0  0  0
 25 24  1  0  0  0  0
 25 26  1  0  0  0  0
 26 36  1  0  0  0  0
 26 27  1  0  0  0  0
 27 38  1  1  0  0  0
 27 28  1  0  0  0  0
 28  8  1  0  0  0  0
 29 30  2  0  0  0  0
 29 27  1  0  0  0  0
 32 23  1  0  0  0  0
 33 23  1  0  0  0  0
 34 25  1  0  0  0  0
 35 25  1  0  0  0  0
 37 26  1  0  0  0  0
 39 28  1  0  0  0  0
 40 29  1  0  0  0  0
 41 42  1  0  0  0  0
 41 40  1  0  0  0  0
 41 56  1  1  0  0  0
 42 58  1  0  0  0  0
 43 42  1  0  0  0  0
 43 44  2  0  0  0  0
 44 59  1  0  0  0  0
 45 60  1  0  0  0  0
 45 44  1  0  0  0  0
 46 45  1  0  0  0  0
 47 61  1  0  0  0  0
 47 46  2  0  0  0  0
 48 47  1  0  0  0  0
 49 48  2  0  0  0  0
 49 50  1  0  0  0  0
 50 51  2  0  0  0  0
 51 46  1  0  0  0  0
 51 43  1  0  0  0  0
 52 41  1  0  0  0  0
 53 52  1  0  0  0  0
 54 52  2  0  0  0  0
 55 40  1  0  0  0  0
 57 42  1  0  0  0  0
 62 48  1  0  0  0  0
 63 49  1  0  0  0  0
 64 50  1  0  0  0  0
M  END
$$$$
