KMY.pdb
 OpenBabel07022418513D

 61 61  0  0  1  0  0  0  0  0999 V2000
   -1.5510    0.7120    4.9540 N   0  0  0  0  0  0  0  0  0  0  0  0
   -0.6720    1.0860    3.8670 C   0  0  1  0  0  0  0  0  0  0  0  0
    0.6330    0.4010    4.0000 C   0  0  0  0  0  0  0  0  0  0  0  0
    0.6130   -1.0890    3.9910 C   0  0  0  0  0  0  0  0  0  0  0  0
    2.0660   -1.5380    4.1320 C   0  0  0  0  0  0  0  0  0  0  0  0
    2.2150   -3.0260    4.1410 C   0  0  0  0  0  0  0  0  0  0  0  0
    3.6530   -3.3020    4.2830 N   0  0  0  0  0  0  0  0  0  0  0  0
   -1.3180    0.8060    2.5550 C   0  0  0  0  0  0  0  0  0  0  0  0
   -2.4800    0.3570    2.4280 O   0  0  0  0  0  0  0  0  0  0  0  0
   -2.5600    0.8570    4.6510 H   0  0  0  0  0  0  0  0  0  0  0  0
   -1.4830   -0.2630    5.2580 H   0  0  0  0  0  0  0  0  0  0  0  0
   -0.4810    2.1800    3.9740 H   0  0  0  0  0  0  0  0  0  0  0  0
    1.0840    0.7320    4.9800 H   0  0  0  0  0  0  0  0  0  0  0  0
    1.3230    0.8230    3.2250 H   0  0  0  0  0  0  0  0  0  0  0  0
    0.1170   -1.5630    3.1480 H   0  0  0  0  0  0  0  0  0  0  0  0
    0.1160   -1.4650    4.9260 H   0  0  0  0  0  0  0  0  0  0  0  0
    2.6700   -1.1440    3.2710 H   0  0  0  0  0  0  0  0  0  0  0  0
    2.5170   -1.1270    5.0450 H   0  0  0  0  0  0  0  0  0  0  0  0
    1.8270   -3.5330    3.2540 H   0  0  0  0  0  0  0  0  0  0  0  0
    1.7110   -3.4740    5.0310 H   0  0  0  0  0  0  0  0  0  0  0  0
    4.2000   -2.7390    3.6060 H   0  0  0  0  0  0  0  0  0  0  0  0
    3.8120   -4.2990    4.0530 H   0  0  0  0  0  0  0  0  0  0  0  0
    1.5160    4.8780    0.2220 C   0  0  0  0  0  0  0  0  0  0  0  0
    0.2310    3.6640    0.5440 S   0  0  0  0  0  0  0  0  0  0  0  0
   -0.5720    3.0570   -0.9280 C   0  0  0  0  0  0  0  0  0  0  0  0
   -1.6170    2.0610   -0.6230 C   0  0  0  0  0  0  0  0  0  0  0  0
   -1.2040    0.7880    0.0500 C   0  0  2  0  0  0  0  0  0  0  0  0
   -0.5960    1.0510    1.3280 N   0  0  0  0  0  0  0  0  0  0  0  0
   -0.3770   -0.0790   -0.8080 C   0  0  0  0  0  0  0  0  0  0  0  0
    0.7140   -0.5470   -0.4290 O   0  0  0  0  0  0  0  0  0  0  0  0
    2.4800    4.5590    0.6970 H   0  0  0  0  0  0  0  0  0  0  0  0
    1.7010    4.9970   -0.8710 H   0  0  0  0  0  0  0  0  0  0  0  0
    1.2340    5.8840    0.6260 H   0  0  0  0  0  0  0  0  0  0  0  0
   -1.1070    3.9460   -1.3870 H   0  0  0  0  0  0  0  0  0  0  0  0
    0.1350    2.7510   -1.7320 H   0  0  0  0  0  0  0  0  0  0  0  0
   -2.4050    2.6040   -0.0080 H   0  0  0  0  0  0  0  0  0  0  0  0
   -2.1690    1.8630   -1.5850 H   0  0  0  0  0  0  0  0  0  0  0  0
   -2.1940    0.2490    0.2420 H   0  0  0  0  0  0  0  0  0  0  0  0
    0.3730    1.4050    1.4720 H   0  0  0  0  0  0  0  0  0  0  0  0
   -2.9090   -6.1080    0.0160 O   0  0  0  0  0  0  0  0  0  0  0  0
   -2.3300   -5.2150   -0.8820 C   0  0  0  0  0  0  0  0  0  0  0  0
   -3.0520   -4.1480   -1.3760 C   0  0  0  0  0  0  0  0  0  0  0  0
   -2.4910   -3.2540   -2.2670 C   0  0  0  0  0  0  0  0  0  0  0  0
   -1.1780   -3.3850   -2.7090 C   0  0  0  0  0  0  0  0  0  0  0  0
   -0.5910   -2.4100   -3.6780 C   0  0  0  0  0  0  0  0  0  0  0  0
    0.0240   -1.2880   -2.9780 C   0  0  2  0  0  0  0  0  0  0  0  0
   -0.7340   -0.4620   -2.1290 N   0  0  0  0  0  0  0  0  0  0  0  0
    0.6510   -0.3840   -4.0140 C   0  0  0  0  0  0  0  0  0  0  0  0
    1.3900   -0.8620   -4.9200 O   0  0  0  0  0  0  0  0  0  0  0  0
   -0.4640   -4.4540   -2.2110 C   0  0  0  0  0  0  0  0  0  0  0  0
   -1.0270   -5.3540   -1.3130 C   0  0  0  0  0  0  0  0  0  0  0  0
    0.4640    0.9820   -4.0370 O   0  0  0  0  0  0  0  0  0  0  0  0
   -3.8880   -6.4020   -0.0660 H   0  0  0  0  0  0  0  0  0  0  0  0
   -4.0760   -4.0220   -1.0490 H   0  0  0  0  0  0  0  0  0  0  0  0
   -3.0420   -2.4040   -2.6700 H   0  0  0  0  0  0  0  0  0  0  0  0
    0.2180   -3.0050   -4.2020 H   0  0  0  0  0  0  0  0  0  0  0  0
   -1.3410   -2.2230   -4.4300 H   0  0  0  0  0  0  0  0  0  0  0  0
    0.9130   -1.6360   -2.3970 H   0  0  0  0  0  0  0  0  0  0  0  0
   -1.6420   -0.0940   -2.5000 H   0  0  0  0  0  0  0  0  0  0  0  0
    0.5670   -4.5920   -2.5320 H   0  0  0  0  0  0  0  0  0  0  0  0
   -0.4640   -6.2000   -0.9210 H   0  0  0  0  0  0  0  0  0  0  0  0
  1 11  1  0  0  0  0
  2 12  1  1  0  0  0
  2  3  1  0  0  0  0
  2  1  1  0  0  0  0
  3 13  1  0  0  0  0
  4  3  1  0  0  0  0
  4  5  1  0  0  0  0
  4 16  1  0  0  0  0
  5  6  1  0  0  0  0
  5 18  1  0  0  0  0
  6  7  1  0  0  0  0
  6 20  1  0  0  0  0
  8  2  1  0  0  0  0
  9  8  2  0  0  0  0
 10  1  1  0  0  0  0
 14  3  1  0  0  0  0
 15  4  1  0  0  0  0
 17  5  1  0  0  0  0
 19  6  1  0  0  0  0
 21  7  1  0  0  0  0
 22  7  1  0  0  0  0
 23 24  1  0  0  0  0
 23 33  1  0  0  0  0
 23 31  1  0  0  0  0
 25 26  1  0  0  0  0
 25 24  1  0  0  0  0
 26 36  1  0  0  0  0
 26 27  1  0  0  0  0
 27 38  1  1  0  0  0
 27 28  1  0  0  0  0
 28 39  1  0  0  0  0
 28  8  1  0  0  0  0
 29 30  2  0  0  0  0
 29 27  1  0  0  0  0
 32 23  1  0  0  0  0
 34 25  1  0  0  0  0
 35 25  1  0  0  0  0
 37 26  1  0  0  0  0
 41 40  1  0  0  0  0
 42 54  1  0  0  0  0
 42 41  2  0  0  0  0
 43 42  1  0  0  0  0
 44 43  2  0  0  0  0
 44 50  1  0  0  0  0
 45 46  1  0  0  0  0
 45 44  1  0  0  0  0
 46 58  1  1  0  0  0
 46 47  1  0  0  0  0
 47 29  1  0  0  0  0
 48 46  1  0  0  0  0
 49 48  2  0  0  0  0
 50 51  2  0  0  0  0
 51 61  1  0  0  0  0
 51 41  1  0  0  0  0
 52 48  1  0  0  0  0
 53 40  1  0  0  0  0
 55 43  1  0  0  0  0
 56 45  1  0  0  0  0
 57 45  1  0  0  0  0
 59 47  1  0  0  0  0
 60 50  1  0  0  0  0
M  END
$$$$
