KNA.pdb
 OpenBabel07022418493D

 47 46  0  0  1  0  0  0  0  0999 V2000
   -0.9380   -2.2020    3.1040 N   0  0  0  0  0  0  0  0  0  0  0  0
   -0.2080   -1.0030    2.7760 C   0  0  1  0  0  0  0  0  0  0  0  0
    1.1520   -0.9640    3.3650 C   0  0  0  0  0  0  0  0  0  0  0  0
    2.0820   -2.0570    3.0100 C   0  0  0  0  0  0  0  0  0  0  0  0
    2.4160   -2.2330    1.5740 C   0  0  0  0  0  0  0  0  0  0  0  0
    3.3850   -3.3990    1.3550 C   0  0  0  0  0  0  0  0  0  0  0  0
    4.6290   -3.2290    2.0390 N   0  0  0  0  0  0  0  0  0  0  0  0
   -0.3220   -0.6160    1.3580 C   0  0  0  0  0  0  0  0  0  0  0  0
   -0.9030   -1.3740    0.5460 O   0  0  0  0  0  0  0  0  0  0  0  0
   -0.3760   -2.9210    3.5770 H   0  0  0  0  0  0  0  0  0  0  0  0
   -1.8810   -2.0240    3.4570 H   0  0  0  0  0  0  0  0  0  0  0  0
   -0.7860   -0.1770    3.3290 H   0  0  0  0  0  0  0  0  0  0  0  0
    1.0130   -1.0050    4.4870 H   0  0  0  0  0  0  0  0  0  0  0  0
    1.6020    0.0350    3.1640 H   0  0  0  0  0  0  0  0  0  0  0  0
    1.7410   -3.0250    3.4880 H   0  0  0  0  0  0  0  0  0  0  0  0
    3.0480   -1.8490    3.5620 H   0  0  0  0  0  0  0  0  0  0  0  0
    1.4990   -2.5350    1.0470 H   0  0  0  0  0  0  0  0  0  0  0  0
    2.9280   -1.3540    1.1950 H   0  0  0  0  0  0  0  0  0  0  0  0
    2.8680   -4.3580    1.5690 H   0  0  0  0  0  0  0  0  0  0  0  0
    3.5870   -3.4120    0.2620 H   0  0  0  0  0  0  0  0  0  0  0  0
    4.6910   -2.2720    2.4280 H   0  0  0  0  0  0  0  0  0  0  0  0
    4.7460   -3.9760    2.7710 H   0  0  0  0  0  0  0  0  0  0  0  0
    3.3360   -0.4330   -1.8720 N   0  0  0  0  0  0  0  0  0  0  0  0
    2.3430    0.2610   -1.1380 C   0  0  0  0  0  0  0  0  0  0  0  0
    2.7150    0.9850   -0.1790 O   0  0  0  0  0  0  0  0  0  0  0  0
    0.8810    0.1600   -1.4670 C   0  0  0  0  0  0  0  0  0  0  0  0
    0.0760    0.9920   -0.5110 C   0  0  2  0  0  0  0  0  0  0  0  0
    0.2030    0.6030    0.8510 N   0  0  0  0  0  0  0  0  0  0  0  0
   -1.3200    1.0870   -1.0160 C   0  0  0  0  0  0  0  0  0  0  0  0
   -1.4500    1.2800   -2.2540 O   0  0  0  0  0  0  0  0  0  0  0  0
    4.1640   -0.8120   -1.3640 H   0  0  0  0  0  0  0  0  0  0  0  0
    3.2800   -0.5850   -2.9130 H   0  0  0  0  0  0  0  0  0  0  0  0
    0.5780   -0.9010   -1.4600 H   0  0  0  0  0  0  0  0  0  0  0  0
    0.7720    0.4950   -2.5170 H   0  0  0  0  0  0  0  0  0  0  0  0
    0.4340    2.0840   -0.5660 H   0  0  0  0  0  0  0  0  0  0  0  0
    0.7010    1.2180    1.5470 H   0  0  0  0  0  0  0  0  0  0  0  0
   -4.6790   -0.1330   -0.4660 C   0  0  0  0  0  0  0  0  0  0  0  0
   -3.8260    1.0710   -0.7450 C   0  0  2  0  0  0  0  0  0  0  0  0
   -2.4820    0.9800   -0.2250 N   0  0  0  0  0  0  0  0  0  0  0  0
   -4.4990    2.3280   -0.3090 C   0  0  0  0  0  0  0  0  0  0  0  0
   -3.8700    3.1920    0.3980 O   0  0  0  0  0  0  0  0  0  0  0  0
   -5.8070    2.6460   -0.6200 O   0  0  0  0  0  0  0  0  0  0  0  0
   -4.1700   -0.7030    0.3520 H   0  0  0  0  0  0  0  0  0  0  0  0
   -5.6900    0.1480   -0.1380 H   0  0  0  0  0  0  0  0  0  0  0  0
   -4.7300   -0.7650   -1.3920 H   0  0  0  0  0  0  0  0  0  0  0  0
   -3.7450    1.1730   -1.8620 H   0  0  0  0  0  0  0  0  0  0  0  0
   -2.3670    0.8380    0.8260 H   0  0  0  0  0  0  0  0  0  0  0  0
  1 11  1  0  0  0  0
  1 10  1  0  0  0  0
  2  1  1  0  0  0  0
  2 12  1  1  0  0  0
  2  3  1  0  0  0  0
  3 13  1  0  0  0  0
  4  3  1  0  0  0  0
  4 15  1  0  0  0  0
  4 16  1  0  0  0  0
  5  4  1  0  0  0  0
  6 19  1  0  0  0  0
  6  5  1  0  0  0  0
  6  7  1  0  0  0  0
  7 21  1  0  0  0  0
  7 22  1  0  0  0  0
  8  2  1  0  0  0  0
  9  8  2  0  0  0  0
 14  3  1  0  0  0  0
 17  5  1  0  0  0  0
 18  5  1  0  0  0  0
 20  6  1  0  0  0  0
 23 31  1  0  0  0  0
 23 24  1  0  0  0  0
 24 25  2  0  0  0  0
 26 33  1  0  0  0  0
 26 24  1  0  0  0  0
 26 27  1  0  0  0  0
 27 35  1  6  0  0  0
 27 28  1  0  0  0  0
 28  8  1  0  0  0  0
 28 36  1  0  0  0  0
 29 27  1  0  0  0  0
 29 39  1  0  0  0  0
 30 29  2  0  0  0  0
 32 23  1  0  0  0  0
 34 26  1  0  0  0  0
 37 44  1  0  0  0  0
 37 43  1  0  0  0  0
 38 46  1  6  0  0  0
 38 37  1  0  0  0  0
 38 40  1  0  0  0  0
 38 39  1  0  0  0  0
 39 47  1  0  0  0  0
 40 41  1  0  0  0  0
 42 40  2  0  0  0  0
 45 37  1  0  0  0  0
M  END
$$$$
