KNC.pdb
 OpenBabel07022418493D

 48 47  0  0  1  0  0  0  0  0999 V2000
    1.5410   -4.0460    0.9430 N   0  0  0  0  0  0  0  0  0  0  0  0
    1.9300   -2.6210    0.7770 C   0  0  1  0  0  0  0  0  0  0  0  0
    2.7620   -2.5780   -0.4670 C   0  0  0  0  0  0  0  0  0  0  0  0
    3.3190   -1.2980   -0.8980 C   0  0  0  0  0  0  0  0  0  0  0  0
    4.2430   -0.5720   -0.0130 C   0  0  0  0  0  0  0  0  0  0  0  0
    5.5080   -1.2730    0.3640 C   0  0  0  0  0  0  0  0  0  0  0  0
    6.3560   -1.6370   -0.7100 N   0  0  0  0  0  0  0  0  0  0  0  0
    0.6590   -1.8720    0.5990 C   0  0  0  0  0  0  0  0  0  0  0  0
   -0.3960   -2.5720    0.4340 O   0  0  0  0  0  0  0  0  0  0  0  0
    2.2870   -4.5750    1.4190 H   0  0  0  0  0  0  0  0  0  0  0  0
    0.6440   -4.1310    1.4420 H   0  0  0  0  0  0  0  0  0  0  0  0
    2.4620   -2.3760    1.7000 H   0  0  0  0  0  0  0  0  0  0  0  0
    3.5180   -3.4200   -0.4190 H   0  0  0  0  0  0  0  0  0  0  0  0
    2.0700   -2.9280   -1.2960 H   0  0  0  0  0  0  0  0  0  0  0  0
    3.8820   -1.5110   -1.8630 H   0  0  0  0  0  0  0  0  0  0  0  0
    2.5140   -0.6160   -1.2290 H   0  0  0  0  0  0  0  0  0  0  0  0
    4.5120    0.3920   -0.4970 H   0  0  0  0  0  0  0  0  0  0  0  0
    3.7430   -0.2980    0.9380 H   0  0  0  0  0  0  0  0  0  0  0  0
    5.2790   -2.1240    1.0580 H   0  0  0  0  0  0  0  0  0  0  0  0
    6.0860   -0.5560    1.0150 H   0  0  0  0  0  0  0  0  0  0  0  0
    5.9300   -1.6810   -1.6310 H   0  0  0  0  0  0  0  0  0  0  0  0
    7.3550   -1.4680   -0.6230 H   0  0  0  0  0  0  0  0  0  0  0  0
   -2.6180    2.1290   -1.4030 N   0  0  0  0  0  0  0  0  0  0  0  0
   -2.5030    0.7250   -1.2290 C   0  0  0  0  0  0  0  0  0  0  0  0
   -3.5520    0.0360   -1.3090 O   0  0  0  0  0  0  0  0  0  0  0  0
   -1.2260    0.0840   -0.9670 C   0  0  0  0  0  0  0  0  0  0  0  0
   -0.7250    0.2250    0.4260 C   0  0  2  0  0  0  0  0  0  0  0  0
    0.5560   -0.4540    0.6040 N   0  0  0  0  0  0  0  0  0  0  0  0
   -1.6380   -0.1350    1.5090 C   0  0  0  0  0  0  0  0  0  0  0  0
   -1.2460   -1.0230    2.3450 O   0  0  0  0  0  0  0  0  0  0  0  0
   -2.6100    2.4910   -2.3790 H   0  0  0  0  0  0  0  0  0  0  0  0
   -2.7060    2.7410   -0.5570 H   0  0  0  0  0  0  0  0  0  0  0  0
   -0.4720    0.5930   -1.6440 H   0  0  0  0  0  0  0  0  0  0  0  0
   -1.2190   -0.9690   -1.3340 H   0  0  0  0  0  0  0  0  0  0  0  0
   -0.5120    1.3300    0.5830 H   0  0  0  0  0  0  0  0  0  0  0  0
    1.4230    0.0890    0.7440 H   0  0  0  0  0  0  0  0  0  0  0  0
   -2.9180    0.3860    1.7520 N   0  0  0  0  0  0  0  0  0  0  0  0
   -3.7220   -0.0710    2.8800 C   0  0  1  0  0  0  0  0  0  0  0  0
   -3.9790    1.1010    3.8350 C   0  0  0  0  0  0  0  0  0  0  0  0
   -4.8600    2.3840    2.9250 S   0  0  0  0  0  0  0  0  0  0  0  0
   -5.0400   -0.5120    2.3890 C   0  0  0  0  0  0  0  0  0  0  0  0
   -5.3100   -0.4560    1.1740 O   0  0  0  0  0  0  0  0  0  0  0  0
   -6.0330   -1.0040    3.2280 O   0  0  0  0  0  0  0  0  0  0  0  0
   -3.2890    1.1070    1.1310 H   0  0  0  0  0  0  0  0  0  0  0  0
   -3.1710   -0.8480    3.4540 H   0  0  0  0  0  0  0  0  0  0  0  0
   -4.6200    0.7150    4.6460 H   0  0  0  0  0  0  0  0  0  0  0  0
   -2.9870    1.4640    4.2020 H   0  0  0  0  0  0  0  0  0  0  0  0
   -3.9160    3.2280    2.2820 H   0  0  0  0  0  0  0  0  0  0  0  0
  1 10  1  0  0  0  0
  1 11  1  0  0  0  0
  2  1  1  0  0  0  0
  2 12  1  1  0  0  0
  3 13  1  0  0  0  0
  3  2  1  0  0  0  0
  4  3  1  0  0  0  0
  4  5  1  0  0  0  0
  5  6  1  0  0  0  0
  5 18  1  0  0  0  0
  6 20  1  0  0  0  0
  6 19  1  0  0  0  0
  7 22  1  0  0  0  0
  7  6  1  0  0  0  0
  8 28  1  0  0  0  0
  8  2  1  0  0  0  0
  9  8  2  0  0  0  0
 14  3  1  0  0  0  0
 15  4  1  0  0  0  0
 16  4  1  0  0  0  0
 17  5  1  0  0  0  0
 21  7  1  0  0  0  0
 23 24  1  0  0  0  0
 23 32  1  0  0  0  0
 24 26  1  0  0  0  0
 25 24  2  0  0  0  0
 26 27  1  0  0  0  0
 27 35  1  1  0  0  0
 27 28  1  0  0  0  0
 27 29  1  0  0  0  0
 28 36  1  0  0  0  0
 29 37  1  0  0  0  0
 29 30  2  0  0  0  0
 31 23  1  0  0  0  0
 33 26  1  0  0  0  0
 34 26  1  0  0  0  0
 37 38  1  0  0  0  0
 38 45  1  1  0  0  0
 38 39  1  0  0  0  0
 39 47  1  0  0  0  0
 39 46  1  0  0  0  0
 40 39  1  0  0  0  0
 41 38  1  0  0  0  0
 41 43  1  0  0  0  0
 42 41  2  0  0  0  0
 44 37  1  0  0  0  0
 48 40  1  0  0  0  0
M  END
$$$$
