KND.pdb
 OpenBabel07022418493D

 50 49  0  0  1  0  0  0  0  0999 V2000
    0.5920    0.6160    5.3520 N   0  0  0  0  0  0  0  0  0  0  0  0
    1.1810    0.3160    4.0190 C   0  0  1  0  0  0  0  0  0  0  0  0
    1.7070   -1.0780    4.1570 C   0  0  0  0  0  0  0  0  0  0  0  0
    2.3750   -1.6480    2.9530 C   0  0  0  0  0  0  0  0  0  0  0  0
    3.5700   -0.8410    2.5000 C   0  0  0  0  0  0  0  0  0  0  0  0
    4.1420   -1.5310    1.2780 C   0  0  0  0  0  0  0  0  0  0  0  0
    5.3030   -0.8260    0.7660 N   0  0  0  0  0  0  0  0  0  0  0  0
    0.0340    0.4300    3.0860 C   0  0  0  0  0  0  0  0  0  0  0  0
   -1.1580    0.5650    3.4630 O   0  0  0  0  0  0  0  0  0  0  0  0
   -0.2770    0.0460    5.4440 H   0  0  0  0  0  0  0  0  0  0  0  0
    1.3030    0.3080    6.0760 H   0  0  0  0  0  0  0  0  0  0  0  0
    1.9420    1.0690    3.8310 H   0  0  0  0  0  0  0  0  0  0  0  0
    2.3440   -1.1930    5.0680 H   0  0  0  0  0  0  0  0  0  0  0  0
    0.8260   -1.7490    4.3770 H   0  0  0  0  0  0  0  0  0  0  0  0
    2.7920   -2.6570    3.2150 H   0  0  0  0  0  0  0  0  0  0  0  0
    1.7210   -1.8280    2.0860 H   0  0  0  0  0  0  0  0  0  0  0  0
    4.3700   -0.8540    3.2700 H   0  0  0  0  0  0  0  0  0  0  0  0
    3.3380    0.1900    2.2210 H   0  0  0  0  0  0  0  0  0  0  0  0
    3.3280   -1.4760    0.4980 H   0  0  0  0  0  0  0  0  0  0  0  0
    4.3310   -2.6000    1.4660 H   0  0  0  0  0  0  0  0  0  0  0  0
    6.0890   -0.9460    1.4530 H   0  0  0  0  0  0  0  0  0  0  0  0
    5.0630    0.1840    0.7210 H   0  0  0  0  0  0  0  0  0  0  0  0
    0.2960    1.2830   -2.4140 N   0  0  0  0  0  0  0  0  0  0  0  0
    0.3210    1.6640   -1.0560 C   0  0  0  0  0  0  0  0  0  0  0  0
    1.4360    2.0290   -0.6110 O   0  0  0  0  0  0  0  0  0  0  0  0
   -0.8510    1.6590   -0.1530 C   0  0  0  0  0  0  0  0  0  0  0  0
   -0.8890    0.5110    0.7900 C   0  0  2  0  0  0  0  0  0  0  0  0
    0.2110    0.3970    1.6870 N   0  0  0  0  0  0  0  0  0  0  0  0
   -1.0310   -0.7790    0.0670 C   0  0  0  0  0  0  0  0  0  0  0  0
   -0.2730   -1.7680    0.2320 O   0  0  0  0  0  0  0  0  0  0  0  0
   -0.1230    1.9010   -3.1280 H   0  0  0  0  0  0  0  0  0  0  0  0
    0.7000    0.3770   -2.7020 H   0  0  0  0  0  0  0  0  0  0  0  0
   -0.9700    2.6150    0.3950 H   0  0  0  0  0  0  0  0  0  0  0  0
   -1.7510    1.5840   -0.7980 H   0  0  0  0  0  0  0  0  0  0  0  0
   -1.8200    0.6180    1.3850 H   0  0  0  0  0  0  0  0  0  0  0  0
    1.1590    0.2950    1.2350 H   0  0  0  0  0  0  0  0  0  0  0  0
   -2.0740   -0.9680   -0.8870 N   0  0  0  0  0  0  0  0  0  0  0  0
   -2.2350   -2.2310   -1.6140 C   0  0  1  0  0  0  0  0  0  0  0  0
   -3.5270   -2.8800   -1.1960 C   0  0  0  0  0  0  0  0  0  0  0  0
   -4.7190   -2.0580   -1.4700 C   0  0  0  0  0  0  0  0  0  0  0  0
   -5.8320   -2.5460   -1.1280 O   0  0  0  0  0  0  0  0  0  0  0  0
   -2.2410   -2.0280   -3.0640 C   0  0  0  0  0  0  0  0  0  0  0  0
   -2.3680   -3.0070   -3.8360 O   0  0  0  0  0  0  0  0  0  0  0  0
   -4.7220   -0.8240   -2.0570 O   0  0  0  0  0  0  0  0  0  0  0  0
   -2.1100   -0.7700   -3.6270 O   0  0  0  0  0  0  0  0  0  0  0  0
   -2.7240   -0.1700   -1.0480 H   0  0  0  0  0  0  0  0  0  0  0  0
   -1.4210   -2.9140   -1.2620 H   0  0  0  0  0  0  0  0  0  0  0  0
   -3.5400   -3.1580   -0.1280 H   0  0  0  0  0  0  0  0  0  0  0  0
   -3.6400   -3.8200   -1.7900 H   0  0  0  0  0  0  0  0  0  0  0  0
   -5.4140   -0.0960   -1.8520 H   0  0  0  0  0  0  0  0  0  0  0  0
  1 10  1  0  0  0  0
  1 11  1  0  0  0  0
  2 12  1  6  0  0  0
  2  3  1  0  0  0  0
  2  1  1  0  0  0  0
  3 14  1  0  0  0  0
  3 13  1  0  0  0  0
  4 15  1  0  0  0  0
  4  3  1  0  0  0  0
  5  4  1  0  0  0  0
  5 17  1  0  0  0  0
  6 20  1  0  0  0  0
  6  5  1  0  0  0  0
  7  6  1  0  0  0  0
  7 21  1  0  0  0  0
  8  9  2  0  0  0  0
  8  2  1  0  0  0  0
 16  4  1  0  0  0  0
 18  5  1  0  0  0  0
 19  6  1  0  0  0  0
 22  7  1  0  0  0  0
 23 24  1  0  0  0  0
 24 25  2  0  0  0  0
 24 26  1  0  0  0  0
 26 33  1  0  0  0  0
 26 27  1  0  0  0  0
 27 35  1  1  0  0  0
 27 28  1  0  0  0  0
 28  8  1  0  0  0  0
 29 30  2  0  0  0  0
 29 27  1  0  0  0  0
 31 23  1  0  0  0  0
 32 23  1  0  0  0  0
 34 26  1  0  0  0  0
 36 28  1  0  0  0  0
 37 29  1  0  0  0  0
 38 47  1  1  0  0  0
 38 39  1  0  0  0  0
 38 37  1  0  0  0  0
 39 48  1  0  0  0  0
 40 39  1  0  0  0  0
 40 41  2  0  0  0  0
 42 38  1  0  0  0  0
 43 42  2  0  0  0  0
 44 50  1  0  0  0  0
 44 40  1  0  0  0  0
 45 42  1  0  0  0  0
 46 37  1  0  0  0  0
 49 39  1  0  0  0  0
M  END
$$$$
