KNE.pdb
 OpenBabel07022418493D

 53 52  0  0  1  0  0  0  0  0999 V2000
   -1.9570   -1.1870   -2.1650 N   0  0  0  0  0  0  0  0  0  0  0  0
   -0.8120   -0.3250   -2.3660 C   0  0  1  0  0  0  0  0  0  0  0  0
   -1.3460    0.9990   -2.9130 C   0  0  0  0  0  0  0  0  0  0  0  0
   -2.0790    0.8320   -4.2130 C   0  0  0  0  0  0  0  0  0  0  0  0
   -2.5300    2.2340   -4.6260 C   0  0  0  0  0  0  0  0  0  0  0  0
   -3.2880    2.1840   -5.9430 C   0  0  0  0  0  0  0  0  0  0  0  0
   -3.6770    3.5460   -6.2590 N   0  0  0  0  0  0  0  0  0  0  0  0
   -0.1460   -0.0720   -1.0690 C   0  0  0  0  0  0  0  0  0  0  0  0
    0.9350    0.6000   -1.0130 O   0  0  0  0  0  0  0  0  0  0  0  0
   -2.3460   -1.5460   -3.0670 H   0  0  0  0  0  0  0  0  0  0  0  0
   -1.7180   -2.0250   -1.5870 H   0  0  0  0  0  0  0  0  0  0  0  0
   -0.1470   -0.8050   -3.1060 H   0  0  0  0  0  0  0  0  0  0  0  0
   -2.0400    1.4680   -2.1840 H   0  0  0  0  0  0  0  0  0  0  0  0
   -0.4780    1.6830   -3.0660 H   0  0  0  0  0  0  0  0  0  0  0  0
   -2.9780    0.1970   -4.0580 H   0  0  0  0  0  0  0  0  0  0  0  0
   -1.4390    0.4200   -5.0000 H   0  0  0  0  0  0  0  0  0  0  0  0
   -1.6470    2.8910   -4.7120 H   0  0  0  0  0  0  0  0  0  0  0  0
   -3.1860    2.6200   -3.8090 H   0  0  0  0  0  0  0  0  0  0  0  0
   -4.1400    1.5010   -5.8040 H   0  0  0  0  0  0  0  0  0  0  0  0
   -2.5840    1.8410   -6.7350 H   0  0  0  0  0  0  0  0  0  0  0  0
   -4.6670    3.7410   -5.9940 H   0  0  0  0  0  0  0  0  0  0  0  0
   -3.0550    4.2420   -5.7950 H   0  0  0  0  0  0  0  0  0  0  0  0
    1.0810    1.8410    3.4680 N   0  0  0  0  0  0  0  0  0  0  0  0
   -0.1110    1.0290    3.5140 C   0  0  0  0  0  0  0  0  0  0  0  0
   -0.5110    0.6520    4.6240 O   0  0  0  0  0  0  0  0  0  0  0  0
   -0.7440    0.7240    2.2290 C   0  0  0  0  0  0  0  0  0  0  0  0
    0.0370   -0.2810    1.4500 C   0  0  2  0  0  0  0  0  0  0  0  0
   -0.6440   -0.5430    0.1660 N   0  0  0  0  0  0  0  0  0  0  0  0
    0.1870   -1.5550    2.1510 C   0  0  0  0  0  0  0  0  0  0  0  0
   -0.3880   -2.6130    1.7480 O   0  0  0  0  0  0  0  0  0  0  0  0
    1.9840    1.5300    3.8780 H   0  0  0  0  0  0  0  0  0  0  0  0
    1.0350    2.7790    3.0040 H   0  0  0  0  0  0  0  0  0  0  0  0
   -1.7650    0.3140    2.4590 H   0  0  0  0  0  0  0  0  0  0  0  0
   -0.8260    1.6940    1.6840 H   0  0  0  0  0  0  0  0  0  0  0  0
    0.9940    0.2150    1.1660 H   0  0  0  0  0  0  0  0  0  0  0  0
   -1.5150   -1.0960    0.2210 H   0  0  0  0  0  0  0  0  0  0  0  0
    0.9870   -1.6780    3.3110 N   0  0  0  0  0  0  0  0  0  0  0  0
    1.1180   -2.9890    3.9780 C   0  0  1  0  0  0  0  0  0  0  0  0
    2.5250   -3.4920    3.6590 C   0  0  0  0  0  0  0  0  0  0  0  0
    2.8340   -4.8240    4.2580 C   0  0  0  0  0  0  0  0  0  0  0  0
    4.2230   -5.2720    3.8920 C   0  0  0  0  0  0  0  0  0  0  0  0
    4.9840   -4.5920    3.1830 O   0  0  0  0  0  0  0  0  0  0  0  0
    0.8940   -2.8710    5.4180 C   0  0  0  0  0  0  0  0  0  0  0  0
    0.8770   -3.9080    6.1780 O   0  0  0  0  0  0  0  0  0  0  0  0
    4.6900   -6.4970    4.3570 O   0  0  0  0  0  0  0  0  0  0  0  0
    0.6820   -1.6830    6.1120 O   0  0  0  0  0  0  0  0  0  0  0  0
    1.5190   -0.9000    3.7510 H   0  0  0  0  0  0  0  0  0  0  0  0
    0.3990   -3.7050    3.5340 H   0  0  0  0  0  0  0  0  0  0  0  0
    2.7310   -3.4470    2.5790 H   0  0  0  0  0  0  0  0  0  0  0  0
    3.2290   -2.7450    4.1290 H   0  0  0  0  0  0  0  0  0  0  0  0
    2.8240   -4.7740    5.3680 H   0  0  0  0  0  0  0  0  0  0  0  0
    2.1090   -5.5940    3.9300 H   0  0  0  0  0  0  0  0  0  0  0  0
    5.6710   -6.6640    4.5560 H   0  0  0  0  0  0  0  0  0  0  0  0
  1 11  1  0  0  0  0
  2 12  1  6  0  0  0
  2  1  1  0  0  0  0
  2  8  1  0  0  0  0
  3  2  1  0  0  0  0
  3 13  1  0  0  0  0
  4 15  1  0  0  0  0
  4  3  1  0  0  0  0
  5  4  1  0  0  0  0
  5 18  1  0  0  0  0
  6 19  1  0  0  0  0
  6  5  1  0  0  0  0
  7 21  1  0  0  0  0
  7  6  1  0  0  0  0
  7 22  1  0  0  0  0
  8  9  2  0  0  0  0
  8 28  1  0  0  0  0
 10  1  1  0  0  0  0
 14  3  1  0  0  0  0
 16  4  1  0  0  0  0
 17  5  1  0  0  0  0
 20  6  1  0  0  0  0
 23 24  1  0  0  0  0
 23 31  1  0  0  0  0
 24 25  2  0  0  0  0
 26 33  1  0  0  0  0
 26 24  1  0  0  0  0
 27 35  1  6  0  0  0
 27 29  1  0  0  0  0
 27 26  1  0  0  0  0
 28 36  1  0  0  0  0
 28 27  1  0  0  0  0
 29 37  1  0  0  0  0
 30 29  2  0  0  0  0
 32 23  1  0  0  0  0
 34 26  1  0  0  0  0
 37 47  1  0  0  0  0
 37 38  1  0  0  0  0
 38 48  1  6  0  0  0
 38 43  1  0  0  0  0
 39 38  1  0  0  0  0
 39 50  1  0  0  0  0
 39 40  1  0  0  0  0
 40 51  1  0  0  0  0
 41 40  1  0  0  0  0
 41 45  1  0  0  0  0
 42 41  2  0  0  0  0
 43 46  2  0  0  0  0
 43 44  1  0  0  0  0
 45 53  1  0  0  0  0
 49 39  1  0  0  0  0
 52 40  1  0  0  0  0
M  END
$$$$
