KNH.pdb
 OpenBabel07022418493D

 54 54  0  0  1  0  0  0  0  0999 V2000
   -0.2480    1.0530    4.0430 N   0  0  0  0  0  0  0  0  0  0  0  0
    0.4770    1.0240    2.7930 C   0  0  1  0  0  0  0  0  0  0  0  0
    1.5200   -0.0240    2.7300 C   0  0  0  0  0  0  0  0  0  0  0  0
    2.6220    0.0320    3.7170 C   0  0  0  0  0  0  0  0  0  0  0  0
    2.1620   -0.0620    5.1450 C   0  0  0  0  0  0  0  0  0  0  0  0
    3.4540   -0.0200    5.9840 C   0  0  0  0  0  0  0  0  0  0  0  0
    4.3010   -1.1200    5.6350 N   0  0  0  0  0  0  0  0  0  0  0  0
   -0.5480    0.8020    1.7210 C   0  0  0  0  0  0  0  0  0  0  0  0
   -1.7610    0.6510    1.9250 O   0  0  0  0  0  0  0  0  0  0  0  0
   -0.6680    0.1250    4.2750 H   0  0  0  0  0  0  0  0  0  0  0  0
   -1.0260    1.7380    3.9960 H   0  0  0  0  0  0  0  0  0  0  0  0
    0.9380    2.0290    2.6680 H   0  0  0  0  0  0  0  0  0  0  0  0
    2.0140    0.0540    1.7100 H   0  0  0  0  0  0  0  0  0  0  0  0
    1.0750   -1.0680    2.6800 H   0  0  0  0  0  0  0  0  0  0  0  0
    3.2460    0.9440    3.5830 H   0  0  0  0  0  0  0  0  0  0  0  0
    3.3560   -0.8180    3.5900 H   0  0  0  0  0  0  0  0  0  0  0  0
    1.6080   -0.9800    5.3640 H   0  0  0  0  0  0  0  0  0  0  0  0
    1.5730    0.8620    5.3990 H   0  0  0  0  0  0  0  0  0  0  0  0
    3.9750    0.9260    5.8340 H   0  0  0  0  0  0  0  0  0  0  0  0
    3.1410   -0.1490    7.0350 H   0  0  0  0  0  0  0  0  0  0  0  0
    5.0620   -0.7730    4.9870 H   0  0  0  0  0  0  0  0  0  0  0  0
    4.7930   -1.5310    6.4560 H   0  0  0  0  0  0  0  0  0  0  0  0
    0.3970    2.9870   -3.2990 N   0  0  0  0  0  0  0  0  0  0  0  0
    0.2450    1.9530   -2.3460 C   0  0  0  0  0  0  0  0  0  0  0  0
    1.2680    1.2820   -2.0870 O   0  0  0  0  0  0  0  0  0  0  0  0
   -1.0290    1.6790   -1.6980 C   0  0  0  0  0  0  0  0  0  0  0  0
   -1.0100    0.5530   -0.7170 C   0  0  2  0  0  0  0  0  0  0  0  0
   -0.0860    0.7640    0.3800 N   0  0  0  0  0  0  0  0  0  0  0  0
   -0.7120   -0.7610   -1.3150 C   0  0  0  0  0  0  0  0  0  0  0  0
    0.2120   -1.4570   -0.8430 O   0  0  0  0  0  0  0  0  0  0  0  0
   -0.4670    3.3490   -3.7580 H   0  0  0  0  0  0  0  0  0  0  0  0
    1.2970    3.4000   -3.5630 H   0  0  0  0  0  0  0  0  0  0  0  0
   -1.4280    2.5760   -1.1530 H   0  0  0  0  0  0  0  0  0  0  0  0
   -1.7870    1.4530   -2.4750 H   0  0  0  0  0  0  0  0  0  0  0  0
   -2.0300    0.4430   -0.2560 H   0  0  0  0  0  0  0  0  0  0  0  0
    0.9580    0.8940    0.1950 H   0  0  0  0  0  0  0  0  0  0  0  0
   -1.4670   -1.2320   -2.4160 N   0  0  0  0  0  0  0  0  0  0  0  0
   -1.2530   -2.4980   -3.0680 C   0  0  1  0  0  0  0  0  0  0  0  0
   -2.4480   -3.4200   -2.9690 C   0  0  0  0  0  0  0  0  0  0  0  0
   -2.7240   -3.6750   -1.5440 C   0  0  0  0  0  0  0  0  0  0  0  0
   -3.5530   -2.9270   -0.7510 C   0  0  0  0  0  0  0  0  0  0  0  0
   -3.5220   -3.5020    0.4800 N   0  0  0  0  0  0  0  0  0  0  0  0
   -2.7070   -4.5660    0.4580 C   0  0  0  0  0  0  0  0  0  0  0  0
   -2.2250   -4.6570   -0.7940 N   0  0  0  0  0  0  0  0  0  0  0  0
   -0.8480   -2.2820   -4.4790 C   0  0  0  0  0  0  0  0  0  0  0  0
   -0.7490   -1.1060   -4.9010 O   0  0  0  0  0  0  0  0  0  0  0  0
   -0.5750   -3.3150   -5.3540 O   0  0  0  0  0  0  0  0  0  0  0  0
   -2.2160   -0.5910   -2.7460 H   0  0  0  0  0  0  0  0  0  0  0  0
   -0.4090   -3.0340   -2.5750 H   0  0  0  0  0  0  0  0  0  0  0  0
   -3.2950   -2.9090   -3.4560 H   0  0  0  0  0  0  0  0  0  0  0  0
   -2.1670   -4.3650   -3.4780 H   0  0  0  0  0  0  0  0  0  0  0  0
   -4.1380   -2.0540   -0.9850 H   0  0  0  0  0  0  0  0  0  0  0  0
   -4.0460   -3.1710    1.3100 H   0  0  0  0  0  0  0  0  0  0  0  0
   -2.4740   -5.2290    1.2800 H   0  0  0  0  0  0  0  0  0  0  0  0
  1 10  1  0  0  0  0
  2 12  1  6  0  0  0
  2  1  1  0  0  0  0
  3  2  1  0  0  0  0
  3  4  1  0  0  0  0
  4  5  1  0  0  0  0
  5 17  1  0  0  0  0
  5 18  1  0  0  0  0
  5  6  1  0  0  0  0
  6 20  1  0  0  0  0
  7  6  1  0  0  0  0
  7 22  1  0  0  0  0
  8  9  2  0  0  0  0
  8  2  1  0  0  0  0
 11  1  1  0  0  0  0
 13  3  1  0  0  0  0
 14  3  1  0  0  0  0
 15  4  1  0  0  0  0
 16  4  1  0  0  0  0
 19  6  1  0  0  0  0
 21  7  1  0  0  0  0
 23 24  1  0  0  0  0
 24 25  2  0  0  0  0
 24 26  1  0  0  0  0
 26 33  1  0  0  0  0
 26 27  1  0  0  0  0
 27 35  1  1  0  0  0
 27 28  1  0  0  0  0
 28  8  1  0  0  0  0
 29 30  2  0  0  0  0
 29 27  1  0  0  0  0
 31 23  1  0  0  0  0
 32 23  1  0  0  0  0
 34 26  1  0  0  0  0
 36 28  1  0  0  0  0
 37 29  1  0  0  0  0
 38 39  1  0  0  0  0
 38 49  1  1  0  0  0
 38 37  1  0  0  0  0
 39 40  1  0  0  0  0
 40 44  1  0  0  0  0
 40 41  2  0  0  0  0
 41 42  1  0  0  0  0
 42 53  1  0  0  0  0
 43 42  1  0  0  0  0
 43 54  1  0  0  0  0
 44 43  2  0  0  0  0
 45 38  1  0  0  0  0
 46 45  1  0  0  0  0
 47 45  2  0  0  0  0
 48 37  1  0  0  0  0
 50 39  1  0  0  0  0
 51 39  1  0  0  0  0
 52 41  1  0  0  0  0
M  END
$$$$
