KNI.pdb
 OpenBabel07022418493D

 56 55  0  0  1  0  0  0  0  0999 V2000
    0.3910   -1.5530    4.1990 N   0  0  0  0  0  0  0  0  0  0  0  0
    1.2610   -0.5940    3.4970 C   0  0  1  0  0  0  0  0  0  0  0  0
    2.6450   -0.8560    3.9740 C   0  0  0  0  0  0  0  0  0  0  0  0
    3.7150   -0.0020    3.3970 C   0  0  0  0  0  0  0  0  0  0  0  0
    3.5150    1.4720    3.6680 C   0  0  0  0  0  0  0  0  0  0  0  0
    4.6360    2.2990    3.0600 C   0  0  0  0  0  0  0  0  0  0  0  0
    4.3800    3.6910    3.3500 N   0  0  0  0  0  0  0  0  0  0  0  0
    1.0890   -0.8350    2.0380 C   0  0  0  0  0  0  0  0  0  0  0  0
    1.7030   -0.0980    1.2280 O   0  0  0  0  0  0  0  0  0  0  0  0
    0.6580   -2.5090    3.8790 H   0  0  0  0  0  0  0  0  0  0  0  0
    0.6050   -1.5000    5.2200 H   0  0  0  0  0  0  0  0  0  0  0  0
    0.9360    0.4360    3.7300 H   0  0  0  0  0  0  0  0  0  0  0  0
    2.6150   -0.8690    5.0940 H   0  0  0  0  0  0  0  0  0  0  0  0
    2.8900   -1.9210    3.6960 H   0  0  0  0  0  0  0  0  0  0  0  0
    4.6760   -0.2880    3.8770 H   0  0  0  0  0  0  0  0  0  0  0  0
    3.8190   -0.2190    2.3300 H   0  0  0  0  0  0  0  0  0  0  0  0
    3.3740    1.6940    4.7300 H   0  0  0  0  0  0  0  0  0  0  0  0
    2.5850    1.7710    3.1080 H   0  0  0  0  0  0  0  0  0  0  0  0
    4.5640    2.1580    1.9640 H   0  0  0  0  0  0  0  0  0  0  0  0
    5.6290    1.9740    3.4460 H   0  0  0  0  0  0  0  0  0  0  0  0
    3.6650    3.8470    4.0710 H   0  0  0  0  0  0  0  0  0  0  0  0
    4.0890    4.1650    2.4730 H   0  0  0  0  0  0  0  0  0  0  0  0
    1.1970   -4.9150   -2.1750 N   0  0  0  0  0  0  0  0  0  0  0  0
    0.8370   -3.5880   -1.7230 C   0  0  0  0  0  0  0  0  0  0  0  0
    0.6060   -2.7810   -2.6270 O   0  0  0  0  0  0  0  0  0  0  0  0
    0.7780   -3.3180   -0.3140 C   0  0  0  0  0  0  0  0  0  0  0  0
    0.1840   -1.9760    0.0350 C   0  0  2  0  0  0  0  0  0  0  0  0
    0.2730   -1.8440    1.5140 N   0  0  0  0  0  0  0  0  0  0  0  0
   -1.2910   -1.9100   -0.1890 C   0  0  0  0  0  0  0  0  0  0  0  0
   -2.0940   -2.1310    0.8010 O   0  0  0  0  0  0  0  0  0  0  0  0
    0.4550   -5.5560   -2.5040 H   0  0  0  0  0  0  0  0  0  0  0  0
    2.1790   -5.2520   -2.1820 H   0  0  0  0  0  0  0  0  0  0  0  0
    1.8250   -3.2890    0.0750 H   0  0  0  0  0  0  0  0  0  0  0  0
    0.1830   -4.1070    0.2080 H   0  0  0  0  0  0  0  0  0  0  0  0
    0.7470   -1.1840   -0.4280 H   0  0  0  0  0  0  0  0  0  0  0  0
   -0.2770   -2.5130    2.0590 H   0  0  0  0  0  0  0  0  0  0  0  0
   -4.0400    1.3550   -3.7700 C   0  0  0  0  0  0  0  0  0  0  0  0
   -3.3610    0.0670   -3.2910 C   0  0  0  0  0  0  0  0  0  0  0  0
   -3.9210   -0.2640   -1.9290 C   0  0  2  0  0  0  0  0  0  0  0  0
   -3.6460    0.8330   -0.9520 C   0  0  0  0  0  0  0  0  0  0  0  0
   -3.3930   -1.5990   -1.4930 C   0  0  2  0  0  0  0  0  0  0  0  0
   -1.9230   -1.6170   -1.4080 N   0  0  0  0  0  0  0  0  0  0  0  0
   -3.8590   -2.6860   -2.3930 C   0  0  0  0  0  0  0  0  0  0  0  0
   -5.0910   -2.8190   -2.5860 O   0  0  0  0  0  0  0  0  0  0  0  0
   -2.9890   -3.5560   -3.0260 O   0  0  0  0  0  0  0  0  0  0  0  0
   -3.5780    2.1940   -3.2280 H   0  0  0  0  0  0  0  0  0  0  0  0
   -5.1110    1.2710   -3.4750 H   0  0  0  0  0  0  0  0  0  0  0  0
   -3.9260    1.4230   -4.8800 H   0  0  0  0  0  0  0  0  0  0  0  0
   -3.5320   -0.7070   -4.0430 H   0  0  0  0  0  0  0  0  0  0  0  0
   -2.2710    0.2390   -3.1730 H   0  0  0  0  0  0  0  0  0  0  0  0
   -5.0470   -0.3030   -2.0390 H   0  0  0  0  0  0  0  0  0  0  0  0
   -3.3070    0.4110    0.0280 H   0  0  0  0  0  0  0  0  0  0  0  0
   -4.5530    1.4400   -0.7160 H   0  0  0  0  0  0  0  0  0  0  0  0
   -2.9180    1.5610   -1.3760 H   0  0  0  0  0  0  0  0  0  0  0  0
   -3.7970   -1.8350   -0.4950 H   0  0  0  0  0  0  0  0  0  0  0  0
   -1.4130   -1.3790   -2.2700 H   0  0  0  0  0  0  0  0  0  0  0  0
  1 11  1  0  0  0  0
  2 12  1  1  0  0  0
  2  3  1  0  0  0  0
  2  1  1  0  0  0  0
  3 13  1  0  0  0  0
  4  5  1  0  0  0  0
  4 15  1  0  0  0  0
  4  3  1  0  0  0  0
  5 17  1  0  0  0  0
  6  7  1  0  0  0  0
  6 20  1  0  0  0  0
  6  5  1  0  0  0  0
  7 21  1  0  0  0  0
  8  2  1  0  0  0  0
  9  8  2  0  0  0  0
 10  1  1  0  0  0  0
 14  3  1  0  0  0  0
 16  4  1  0  0  0  0
 18  5  1  0  0  0  0
 19  6  1  0  0  0  0
 22  7  1  0  0  0  0
 23 24  1  0  0  0  0
 24 26  1  0  0  0  0
 25 24  2  0  0  0  0
 26 27  1  0  0  0  0
 26 33  1  0  0  0  0
 26 34  1  0  0  0  0
 27 35  1  6  0  0  0
 27 28  1  0  0  0  0
 28  8  1  0  0  0  0
 28 36  1  0  0  0  0
 29 27  1  0  0  0  0
 29 30  2  0  0  0  0
 31 23  1  0  0  0  0
 32 23  1  0  0  0  0
 37 47  1  0  0  0  0
 37 38  1  0  0  0  0
 37 46  1  0  0  0  0
 38 50  1  0  0  0  0
 38 39  1  0  0  0  0
 39 51  1  6  0  0  0
 39 41  1  0  0  0  0
 39 40  1  0  0  0  0
 40 53  1  0  0  0  0
 40 52  1  0  0  0  0
 41 42  1  0  0  0  0
 41 55  1  1  0  0  0
 42 29  1  0  0  0  0
 43 41  1  0  0  0  0
 44 43  1  0  0  0  0
 45 43  2  0  0  0  0
 48 37  1  0  0  0  0
 49 38  1  0  0  0  0
 54 40  1  0  0  0  0
 56 42  1  0  0  0  0
M  END
$$$$
