KNK.pdb
 OpenBabel07022418493D

 58 57  0  0  1  0  0  0  0  0999 V2000
   -0.7210   -1.5380    3.6840 N   0  0  0  0  0  0  0  0  0  0  0  0
    0.1170   -0.3460    3.5090 C   0  0  1  0  0  0  0  0  0  0  0  0
    1.4610   -0.7010    2.9590 C   0  0  0  0  0  0  0  0  0  0  0  0
    2.3630    0.4700    2.7710 C   0  0  0  0  0  0  0  0  0  0  0  0
    3.7100    0.1180    2.2170 C   0  0  0  0  0  0  0  0  0  0  0  0
    4.4840   -0.8320    3.0870 C   0  0  0  0  0  0  0  0  0  0  0  0
    5.7560   -1.0810    2.4320 N   0  0  0  0  0  0  0  0  0  0  0  0
   -0.6070    0.6920    2.7450 C   0  0  0  0  0  0  0  0  0  0  0  0
   -1.3890    1.4470    3.4220 O   0  0  0  0  0  0  0  0  0  0  0  0
   -0.1640   -2.3820    3.3950 H   0  0  0  0  0  0  0  0  0  0  0  0
   -1.5830   -1.4770    3.0920 H   0  0  0  0  0  0  0  0  0  0  0  0
    0.2860    0.0250    4.5630 H   0  0  0  0  0  0  0  0  0  0  0  0
    1.2700   -1.2050    1.9650 H   0  0  0  0  0  0  0  0  0  0  0  0
    1.9070   -1.4980    3.5870 H   0  0  0  0  0  0  0  0  0  0  0  0
    1.9030    1.2130    2.0940 H   0  0  0  0  0  0  0  0  0  0  0  0
    2.4940    0.9290    3.7980 H   0  0  0  0  0  0  0  0  0  0  0  0
    4.3030    1.0610    2.1570 H   0  0  0  0  0  0  0  0  0  0  0  0
    3.6330   -0.3110    1.2130 H   0  0  0  0  0  0  0  0  0  0  0  0
    3.9800   -1.8170    3.1760 H   0  0  0  0  0  0  0  0  0  0  0  0
    4.6830   -0.3860    4.0980 H   0  0  0  0  0  0  0  0  0  0  0  0
    5.5490   -1.7990    1.6730 H   0  0  0  0  0  0  0  0  0  0  0  0
    6.0280   -0.2150    1.8890 H   0  0  0  0  0  0  0  0  0  0  0  0
    0.6760    1.1890   -1.3380 N   0  0  0  0  0  0  0  0  0  0  0  0
    0.5780    2.5390   -0.9230 C   0  0  0  0  0  0  0  0  0  0  0  0
    1.3360    3.3780   -1.4660 O   0  0  0  0  0  0  0  0  0  0  0  0
   -0.3600    2.9850    0.0980 C   0  0  0  0  0  0  0  0  0  0  0  0
   -1.2250    1.9180    0.6980 C   0  0  2  0  0  0  0  0  0  0  0  0
   -0.4750    0.8750    1.3480 N   0  0  0  0  0  0  0  0  0  0  0  0
   -2.2220    1.3680   -0.2340 C   0  0  0  0  0  0  0  0  0  0  0  0
   -2.9970    2.0660   -0.9240 O   0  0  0  0  0  0  0  0  0  0  0  0
   -0.0980    0.7700   -1.8640 H   0  0  0  0  0  0  0  0  0  0  0  0
    1.5020    0.5780   -1.1410 H   0  0  0  0  0  0  0  0  0  0  0  0
    0.1920    3.4800    0.9300 H   0  0  0  0  0  0  0  0  0  0  0  0
   -1.0360    3.7560   -0.3310 H   0  0  0  0  0  0  0  0  0  0  0  0
   -1.8310    2.4360    1.4990 H   0  0  0  0  0  0  0  0  0  0  0  0
    0.1610    0.2440    0.8160 H   0  0  0  0  0  0  0  0  0  0  0  0
   -2.3000   -0.0440   -0.3470 N   0  0  0  0  0  0  0  0  0  0  0  0
   -3.2400   -0.7000   -1.2300 C   0  0  1  0  0  0  0  0  0  0  0  0
   -2.4550   -1.4800   -2.2510 C   0  0  0  0  0  0  0  0  0  0  0  0
   -1.5710   -2.5240   -1.6450 C   0  0  0  0  0  0  0  0  0  0  0  0
   -0.8450   -3.2270   -2.7810 C   0  0  0  0  0  0  0  0  0  0  0  0
    0.0780   -4.3110   -2.2100 C   0  0  0  0  0  0  0  0  0  0  0  0
   -0.6910   -5.2820   -1.4720 N   0  0  0  0  0  0  0  0  0  0  0  0
   -4.1220   -1.6230   -0.5070 C   0  0  0  0  0  0  0  0  0  0  0  0
   -4.9870   -2.2560   -1.1680 O   0  0  0  0  0  0  0  0  0  0  0  0
   -4.0490   -1.8330    0.8820 O   0  0  0  0  0  0  0  0  0  0  0  0
   -1.6720   -0.6800    0.2100 H   0  0  0  0  0  0  0  0  0  0  0  0
   -3.8680    0.0250   -1.7820 H   0  0  0  0  0  0  0  0  0  0  0  0
   -3.1290   -1.9850   -2.9750 H   0  0  0  0  0  0  0  0  0  0  0  0
   -1.8240   -0.7710   -2.7990 H   0  0  0  0  0  0  0  0  0  0  0  0
   -0.7790   -2.0250   -1.0390 H   0  0  0  0  0  0  0  0  0  0  0  0
   -2.1020   -3.2550   -1.0060 H   0  0  0  0  0  0  0  0  0  0  0  0
   -1.5790   -3.6740   -3.4780 H   0  0  0  0  0  0  0  0  0  0  0  0
   -0.1790   -2.5270   -3.3250 H   0  0  0  0  0  0  0  0  0  0  0  0
    0.8210   -3.7850   -1.5730 H   0  0  0  0  0  0  0  0  0  0  0  0
    0.5790   -4.7780   -3.0890 H   0  0  0  0  0  0  0  0  0  0  0  0
   -0.4830   -6.2340   -1.8700 H   0  0  0  0  0  0  0  0  0  0  0  0
   -0.4010   -5.2310   -0.4580 H   0  0  0  0  0  0  0  0  0  0  0  0
  2  1  1  0  0  0  0
  2 12  1  1  0  0  0
  3  2  1  0  0  0  0
  3 14  1  0  0  0  0
  4  3  1  0  0  0  0
  4 16  1  0  0  0  0
  5  4  1  0  0  0  0
  5  6  1  0  0  0  0
  6 19  1  0  0  0  0
  6 20  1  0  0  0  0
  7  6  1  0  0  0  0
  8  9  2  0  0  0  0
  8  2  1  0  0  0  0
 10  1  1  0  0  0  0
 11  1  1  0  0  0  0
 13  3  1  0  0  0  0
 15  4  1  0  0  0  0
 17  5  1  0  0  0  0
 18  5  1  0  0  0  0
 21  7  1  0  0  0  0
 22  7  1  0  0  0  0
 23 32  1  0  0  0  0
 23 24  1  0  0  0  0
 24 26  1  0  0  0  0
 25 24  2  0  0  0  0
 26 27  1  0  0  0  0
 26 33  1  0  0  0  0
 27 28  1  0  0  0  0
 27 35  1  1  0  0  0
 28  8  1  0  0  0  0
 29 27  1  0  0  0  0
 30 29  2  0  0  0  0
 31 23  1  0  0  0  0
 34 26  1  0  0  0  0
 36 28  1  0  0  0  0
 37 29  1  0  0  0  0
 37 47  1  0  0  0  0
 38 48  1  6  0  0  0
 38 44  1  0  0  0  0
 38 37  1  0  0  0  0
 39 40  1  0  0  0  0
 39 38  1  0  0  0  0
 40 51  1  0  0  0  0
 40 52  1  0  0  0  0
 41 42  1  0  0  0  0
 41 40  1  0  0  0  0
 42 55  1  0  0  0  0
 42 43  1  0  0  0  0
 43 58  1  0  0  0  0
 44 46  1  0  0  0  0
 45 44  2  0  0  0  0
 49 39  1  0  0  0  0
 50 39  1  0  0  0  0
 53 41  1  0  0  0  0
 54 41  1  0  0  0  0
 56 42  1  0  0  0  0
 57 43  1  0  0  0  0
M  END
$$$$
