KNM.pdb
 OpenBabel07022418493D

 54 53  0  0  1  0  0  0  0  0999 V2000
   -1.5950   -0.5870    3.6030 N   0  0  0  0  0  0  0  0  0  0  0  0
   -0.1590   -0.4590    3.3230 C   0  0  1  0  0  0  0  0  0  0  0  0
    0.3430   -1.7740    2.8670 C   0  0  0  0  0  0  0  0  0  0  0  0
    1.8090   -1.8130    2.5540 C   0  0  0  0  0  0  0  0  0  0  0  0
    2.6730   -1.4650    3.7460 C   0  0  0  0  0  0  0  0  0  0  0  0
    4.1140   -1.5440    3.2840 C   0  0  0  0  0  0  0  0  0  0  0  0
    4.9990   -1.2220    4.3780 N   0  0  0  0  0  0  0  0  0  0  0  0
   -0.0700    0.6030    2.2870 C   0  0  0  0  0  0  0  0  0  0  0  0
   -0.1150    1.8160    2.6190 O   0  0  0  0  0  0  0  0  0  0  0  0
   -1.8200   -1.5740    3.8100 H   0  0  0  0  0  0  0  0  0  0  0  0
   -1.8880    0.0490    4.3750 H   0  0  0  0  0  0  0  0  0  0  0  0
    0.3740   -0.1680    4.2540 H   0  0  0  0  0  0  0  0  0  0  0  0
    0.1600   -2.5130    3.6820 H   0  0  0  0  0  0  0  0  0  0  0  0
   -0.1900   -2.1800    1.9800 H   0  0  0  0  0  0  0  0  0  0  0  0
    2.1010   -1.1090    1.7540 H   0  0  0  0  0  0  0  0  0  0  0  0
    2.0960   -2.8300    2.2170 H   0  0  0  0  0  0  0  0  0  0  0  0
    2.5020   -2.2440    4.5310 H   0  0  0  0  0  0  0  0  0  0  0  0
    2.4350   -0.4610    4.1010 H   0  0  0  0  0  0  0  0  0  0  0  0
    4.2450   -0.7850    2.4610 H   0  0  0  0  0  0  0  0  0  0  0  0
    4.3280   -2.5280    2.8320 H   0  0  0  0  0  0  0  0  0  0  0  0
    5.9240   -0.9850    3.9840 H   0  0  0  0  0  0  0  0  0  0  0  0
    4.6070   -0.3830    4.8590 H   0  0  0  0  0  0  0  0  0  0  0  0
    2.6810    1.9640   -2.9270 N   0  0  0  0  0  0  0  0  0  0  0  0
    1.5930    2.1040   -1.9820 C   0  0  0  0  0  0  0  0  0  0  0  0
    0.8990    3.1350   -2.1630 O   0  0  0  0  0  0  0  0  0  0  0  0
    1.3800    1.0900   -0.9310 C   0  0  0  0  0  0  0  0  0  0  0  0
    0.1540    1.2890   -0.0890 C   0  0  2  0  0  0  0  0  0  0  0  0
    0.0620    0.2540    0.9420 N   0  0  0  0  0  0  0  0  0  0  0  0
   -1.0470    1.1140   -0.9220 C   0  0  0  0  0  0  0  0  0  0  0  0
   -1.2620    1.8580   -1.8900 O   0  0  0  0  0  0  0  0  0  0  0  0
    3.6470    2.0520   -2.5480 H   0  0  0  0  0  0  0  0  0  0  0  0
    2.5480    1.7890   -3.9250 H   0  0  0  0  0  0  0  0  0  0  0  0
    2.2580    1.1930   -0.2250 H   0  0  0  0  0  0  0  0  0  0  0  0
    1.3990    0.1020   -1.4320 H   0  0  0  0  0  0  0  0  0  0  0  0
    0.1290    2.2590    0.4230 H   0  0  0  0  0  0  0  0  0  0  0  0
    0.1000   -0.7290    0.5610 H   0  0  0  0  0  0  0  0  0  0  0  0
   -2.0620   -4.5730   -2.1520 C   0  0  0  0  0  0  0  0  0  0  0  0
   -2.1360   -3.4200   -3.5570 S   0  0  0  0  0  0  0  0  0  0  0  0
   -2.0020   -1.7420   -2.8810 C   0  0  0  0  0  0  0  0  0  0  0  0
   -3.2480   -1.4490   -2.0380 C   0  0  0  0  0  0  0  0  0  0  0  0
   -3.1450   -0.0520   -1.4690 C   0  0  2  0  0  0  0  0  0  0  0  0
   -1.9710    0.0940   -0.6280 N   0  0  0  0  0  0  0  0  0  0  0  0
   -4.3520    0.1840   -0.6300 C   0  0  0  0  0  0  0  0  0  0  0  0
   -5.4770    0.1000   -1.1810 O   0  0  0  0  0  0  0  0  0  0  0  0
   -4.2780    0.4880    0.7150 O   0  0  0  0  0  0  0  0  0  0  0  0
   -1.4850   -4.1350   -1.3160 H   0  0  0  0  0  0  0  0  0  0  0  0
   -1.5260   -5.5060   -2.4700 H   0  0  0  0  0  0  0  0  0  0  0  0
   -3.1020   -4.7820   -1.8300 H   0  0  0  0  0  0  0  0  0  0  0  0
   -1.9560   -1.0070   -3.6860 H   0  0  0  0  0  0  0  0  0  0  0  0
   -1.1070   -1.7020   -2.2550 H   0  0  0  0  0  0  0  0  0  0  0  0
   -3.3710   -2.2130   -1.2450 H   0  0  0  0  0  0  0  0  0  0  0  0
   -4.1010   -1.5390   -2.7220 H   0  0  0  0  0  0  0  0  0  0  0  0
   -3.1840    0.6800   -2.2940 H   0  0  0  0  0  0  0  0  0  0  0  0
   -1.8850   -0.5790    0.1570 H   0  0  0  0  0  0  0  0  0  0  0  0
  1 10  1  0  0  0  0
  1 11  1  0  0  0  0
  2  1  1  0  0  0  0
  2 12  1  1  0  0  0
  3  2  1  0  0  0  0
  3 13  1  0  0  0  0
  4  3  1  0  0  0  0
  4  5  1  0  0  0  0
  5 18  1  0  0  0  0
  5 17  1  0  0  0  0
  6  5  1  0  0  0  0
  6  7  1  0  0  0  0
  7 22  1  0  0  0  0
  8  9  2  0  0  0  0
  8  2  1  0  0  0  0
 14  3  1  0  0  0  0
 15  4  1  0  0  0  0
 16  4  1  0  0  0  0
 19  6  1  0  0  0  0
 20  6  1  0  0  0  0
 21  7  1  0  0  0  0
 23 31  1  0  0  0  0
 23 24  1  0  0  0  0
 24 26  1  0  0  0  0
 25 24  2  0  0  0  0
 26 33  1  0  0  0  0
 26 27  1  0  0  0  0
 27 35  1  1  0  0  0
 27 28  1  0  0  0  0
 28  8  1  0  0  0  0
 29 42  1  0  0  0  0
 29 27  1  0  0  0  0
 30 29  2  0  0  0  0
 32 23  1  0  0  0  0
 34 26  1  0  0  0  0
 36 28  1  0  0  0  0
 37 48  1  0  0  0  0
 37 46  1  0  0  0  0
 38 39  1  0  0  0  0
 38 37  1  0  0  0  0
 39 50  1  0  0  0  0
 39 40  1  0  0  0  0
 40 41  1  0  0  0  0
 40 51  1  0  0  0  0
 41 53  1  6  0  0  0
 41 43  1  0  0  0  0
 41 42  1  0  0  0  0
 42 54  1  0  0  0  0
 43 45  1  0  0  0  0
 44 43  2  0  0  0  0
 47 37  1  0  0  0  0
 49 39  1  0  0  0  0
 52 40  1  0  0  0  0
M  END
$$$$
