KNN.pdb
 OpenBabel07022418493D

 51 50  0  0  1  0  0  0  0  0999 V2000
   -1.1570   -2.5040    3.2930 N   0  0  0  0  0  0  0  0  0  0  0  0
    0.0670   -1.7110    3.1870 C   0  0  1  0  0  0  0  0  0  0  0  0
    1.1540   -2.6330    2.7010 C   0  0  0  0  0  0  0  0  0  0  0  0
    2.4800   -1.9560    2.5490 C   0  0  0  0  0  0  0  0  0  0  0  0
    2.9760   -1.3790    3.8580 C   0  0  0  0  0  0  0  0  0  0  0  0
    4.3000   -0.7020    3.7190 C   0  0  0  0  0  0  0  0  0  0  0  0
    4.2960    0.3980    2.7890 N   0  0  0  0  0  0  0  0  0  0  0  0
   -0.1690   -0.5520    2.3150 C   0  0  0  0  0  0  0  0  0  0  0  0
   -0.6470    0.5480    2.7580 O   0  0  0  0  0  0  0  0  0  0  0  0
   -1.2060   -3.1550    2.4650 H   0  0  0  0  0  0  0  0  0  0  0  0
   -1.1250   -3.1070    4.1420 H   0  0  0  0  0  0  0  0  0  0  0  0
    0.2880   -1.3680    4.2220 H   0  0  0  0  0  0  0  0  0  0  0  0
    1.1890   -3.5400    3.3220 H   0  0  0  0  0  0  0  0  0  0  0  0
    0.8520   -2.9870    1.6790 H   0  0  0  0  0  0  0  0  0  0  0  0
    3.2290   -2.6870    2.1830 H   0  0  0  0  0  0  0  0  0  0  0  0
    2.4370   -1.1430    1.8290 H   0  0  0  0  0  0  0  0  0  0  0  0
    2.2280   -0.6210    4.1710 H   0  0  0  0  0  0  0  0  0  0  0  0
    3.0500   -2.1540    4.6220 H   0  0  0  0  0  0  0  0  0  0  0  0
    5.1210   -1.3910    3.4610 H   0  0  0  0  0  0  0  0  0  0  0  0
    4.5460   -0.2630    4.7230 H   0  0  0  0  0  0  0  0  0  0  0  0
    4.0860    0.1170    1.8150 H   0  0  0  0  0  0  0  0  0  0  0  0
    3.8350    1.2480    3.1220 H   0  0  0  0  0  0  0  0  0  0  0  0
    1.9310    2.4310   -2.5950 N   0  0  0  0  0  0  0  0  0  0  0  0
    0.9390    2.1090   -1.6270 C   0  0  0  0  0  0  0  0  0  0  0  0
   -0.0380    2.9140   -1.5570 O   0  0  0  0  0  0  0  0  0  0  0  0
    1.0500    0.9180   -0.7670 C   0  0  0  0  0  0  0  0  0  0  0  0
   -0.1300    0.6040    0.0810 C   0  0  2  0  0  0  0  0  0  0  0  0
    0.1130   -0.5600    0.9230 N   0  0  0  0  0  0  0  0  0  0  0  0
   -1.2750    0.2160   -0.8340 C   0  0  0  0  0  0  0  0  0  0  0  0
   -1.6780    1.0420   -1.6810 O   0  0  0  0  0  0  0  0  0  0  0  0
    2.3480    1.6990   -3.1820 H   0  0  0  0  0  0  0  0  0  0  0  0
    2.2210    3.4140   -2.6950 H   0  0  0  0  0  0  0  0  0  0  0  0
    1.9500    1.0510   -0.0970 H   0  0  0  0  0  0  0  0  0  0  0  0
    1.3460    0.0800   -1.4370 H   0  0  0  0  0  0  0  0  0  0  0  0
   -0.4800    1.4830    0.6310 H   0  0  0  0  0  0  0  0  0  0  0  0
    0.5080   -1.4010    0.4520 H   0  0  0  0  0  0  0  0  0  0  0  0
   -4.3610    0.6060   -0.3130 N   0  0  0  0  0  0  0  0  0  0  0  0
   -4.1870    0.5130   -1.7140 C   0  0  0  0  0  0  0  0  0  0  0  0
   -4.6040    1.4910   -2.4210 O   0  0  0  0  0  0  0  0  0  0  0  0
   -3.5680   -0.6210   -2.4140 C   0  0  0  0  0  0  0  0  0  0  0  0
   -2.9400   -1.6000   -1.4430 C   0  0  2  0  0  0  0  0  0  0  0  0
   -1.8540   -1.0340   -0.7200 N   0  0  0  0  0  0  0  0  0  0  0  0
   -2.6410   -2.9120   -2.0370 C   0  0  0  0  0  0  0  0  0  0  0  0
   -3.4890   -3.5480   -2.7080 O   0  0  0  0  0  0  0  0  0  0  0  0
   -1.3800   -3.5010   -1.8700 O   0  0  0  0  0  0  0  0  0  0  0  0
   -4.7500   -0.1900    0.2370 H   0  0  0  0  0  0  0  0  0  0  0  0
   -4.0930    1.4920    0.1670 H   0  0  0  0  0  0  0  0  0  0  0  0
   -4.3250   -1.1960   -3.0100 H   0  0  0  0  0  0  0  0  0  0  0  0
   -2.8580   -0.2340   -3.1670 H   0  0  0  0  0  0  0  0  0  0  0  0
   -3.7940   -1.7610   -0.6390 H   0  0  0  0  0  0  0  0  0  0  0  0
   -1.4310   -1.6890    0.0300 H   0  0  0  0  0  0  0  0  0  0  0  0
  1 11  1  0  0  0  0
  2  1  1  0  0  0  0
  2 12  1  1  0  0  0
  3  2  1  0  0  0  0
  3 13  1  0  0  0  0
  4  3  1  0  0  0  0
  4  5  1  0  0  0  0
  5 17  1  0  0  0  0
  5 18  1  0  0  0  0
  6  5  1  0  0  0  0
  6 20  1  0  0  0  0
  7 22  1  0  0  0  0
  7  6  1  0  0  0  0
  8  9  2  0  0  0  0
  8  2  1  0  0  0  0
 10  1  1  0  0  0  0
 14  3  1  0  0  0  0
 15  4  1  0  0  0  0
 16  4  1  0  0  0  0
 19  6  1  0  0  0  0
 21  7  1  0  0  0  0
 23 24  1  0  0  0  0
 24 25  2  0  0  0  0
 24 26  1  0  0  0  0
 26 33  1  0  0  0  0
 26 27  1  0  0  0  0
 27 35  1  1  0  0  0
 27 28  1  0  0  0  0
 28  8  1  0  0  0  0
 29 42  1  0  0  0  0
 29 27  1  0  0  0  0
 30 29  2  0  0  0  0
 31 23  1  0  0  0  0
 32 23  1  0  0  0  0
 34 26  1  0  0  0  0
 36 28  1  0  0  0  0
 37 47  1  0  0  0  0
 37 46  1  0  0  0  0
 38 37  1  0  0  0  0
 39 38  2  0  0  0  0
 40 38  1  0  0  0  0
 40 41  1  0  0  0  0
 41 42  1  0  0  0  0
 41 50  1  1  0  0  0
 42 51  1  0  0  0  0
 43 45  1  0  0  0  0
 43 41  1  0  0  0  0
 44 43  2  0  0  0  0
 48 40  1  0  0  0  0
 49 40  1  0  0  0  0
M  END
$$$$
