KNP.pdb
 OpenBabel07022418493D

 51 51  0  0  1  0  0  0  0  0999 V2000
    0.8440   -1.1280    5.0220 N   0  0  0  0  0  0  0  0  0  0  0  0
    1.2930   -1.3090    3.6210 C   0  0  1  0  0  0  0  0  0  0  0  0
    1.0980   -2.7600    3.3340 C   0  0  0  0  0  0  0  0  0  0  0  0
    1.4740   -3.2380    1.9840 C   0  0  0  0  0  0  0  0  0  0  0  0
    2.9080   -3.0340    1.6140 C   0  0  0  0  0  0  0  0  0  0  0  0
    3.8530   -3.7560    2.5610 C   0  0  0  0  0  0  0  0  0  0  0  0
    5.2090   -3.4840    2.0990 N   0  0  0  0  0  0  0  0  0  0  0  0
    0.3730   -0.4220    2.8210 C   0  0  0  0  0  0  0  0  0  0  0  0
   -0.6290    0.1500    3.3560 O   0  0  0  0  0  0  0  0  0  0  0  0
   -0.1960   -1.0400    5.0580 H   0  0  0  0  0  0  0  0  0  0  0  0
    1.0920   -1.9730    5.5740 H   0  0  0  0  0  0  0  0  0  0  0  0
    2.3200   -0.9480    3.5820 H   0  0  0  0  0  0  0  0  0  0  0  0
   -0.0090   -2.9530    3.4490 H   0  0  0  0  0  0  0  0  0  0  0  0
    1.5600   -3.3350    4.1620 H   0  0  0  0  0  0  0  0  0  0  0  0
    0.8350   -2.8870    1.1670 H   0  0  0  0  0  0  0  0  0  0  0  0
    1.3250   -4.3640    1.9890 H   0  0  0  0  0  0  0  0  0  0  0  0
    3.2260   -1.9990    1.4970 H   0  0  0  0  0  0  0  0  0  0  0  0
    3.0590   -3.5300    0.6140 H   0  0  0  0  0  0  0  0  0  0  0  0
    3.7160   -4.8530    2.5170 H   0  0  0  0  0  0  0  0  0  0  0  0
    3.7350   -3.3510    3.5830 H   0  0  0  0  0  0  0  0  0  0  0  0
    5.7900   -3.1060    2.8920 H   0  0  0  0  0  0  0  0  0  0  0  0
    5.2230   -2.8080    1.2940 H   0  0  0  0  0  0  0  0  0  0  0  0
    0.9610    3.9230   -0.8810 N   0  0  0  0  0  0  0  0  0  0  0  0
    0.0370    2.9630   -0.3860 C   0  0  0  0  0  0  0  0  0  0  0  0
   -1.1570    3.1900   -0.6070 O   0  0  0  0  0  0  0  0  0  0  0  0
    0.5450    1.8280    0.3160 C   0  0  0  0  0  0  0  0  0  0  0  0
   -0.3870    0.7100    0.7350 C   0  0  2  0  0  0  0  0  0  0  0  0
    0.5950   -0.1950    1.4510 N   0  0  0  0  0  0  0  0  0  0  0  0
   -0.9640   -0.0580   -0.3690 C   0  0  0  0  0  0  0  0  0  0  0  0
   -0.2410   -1.0590   -0.7620 O   0  0  0  0  0  0  0  0  0  0  0  0
    1.5620    4.4270   -0.2220 H   0  0  0  0  0  0  0  0  0  0  0  0
    1.0100    4.0960   -1.8900 H   0  0  0  0  0  0  0  0  0  0  0  0
    1.3350    1.2880   -0.3150 H   0  0  0  0  0  0  0  0  0  0  0  0
    1.1440    2.0930    1.2360 H   0  0  0  0  0  0  0  0  0  0  0  0
   -1.1390    1.0520    1.4250 H   0  0  0  0  0  0  0  0  0  0  0  0
    1.3820   -0.6020    0.9170 H   0  0  0  0  0  0  0  0  0  0  0  0
   -2.1640    0.1020   -1.0640 N   0  0  0  0  0  0  0  0  0  0  0  0
   -3.2700    1.0310   -0.9180 C   0  0  0  0  0  0  0  0  0  0  0  0
   -4.5170    0.1960   -1.2350 C   0  0  0  0  0  0  0  0  0  0  0  0
   -3.9920   -1.0730   -1.8590 C   0  0  0  0  0  0  0  0  0  0  0  0
   -2.5810   -0.7450   -2.2060 C   0  0  1  0  0  0  0  0  0  0  0  0
   -2.4230   -0.0280   -3.4730 C   0  0  0  0  0  0  0  0  0  0  0  0
   -1.9850    1.1500   -3.5400 O   0  0  0  0  0  0  0  0  0  0  0  0
   -2.7590   -0.6420   -4.6710 O   0  0  0  0  0  0  0  0  0  0  0  0
   -3.2540    1.8360   -1.7040 H   0  0  0  0  0  0  0  0  0  0  0  0
   -3.3760    1.4320    0.1050 H   0  0  0  0  0  0  0  0  0  0  0  0
   -5.2160    0.7380   -1.8940 H   0  0  0  0  0  0  0  0  0  0  0  0
   -5.0370   -0.0870   -0.2780 H   0  0  0  0  0  0  0  0  0  0  0  0
   -4.0670   -1.9270   -1.1470 H   0  0  0  0  0  0  0  0  0  0  0  0
   -4.5310   -1.2860   -2.8100 H   0  0  0  0  0  0  0  0  0  0  0  0
   -1.9910   -1.6650   -2.2090 H   0  0  0  0  0  0  0  0  0  0  0  0
  1 10  1  0  0  0  0
  1 11  1  0  0  0  0
  2 12  1  6  0  0  0
  2  1  1  0  0  0  0
  3 13  1  0  0  0  0
  3  2  1  0  0  0  0
  3 14  1  0  0  0  0
  4 16  1  0  0  0  0
  4  3  1  0  0  0  0
  5  4  1  0  0  0  0
  5  6  1  0  0  0  0
  6 20  1  0  0  0  0
  7  6  1  0  0  0  0
  7 21  1  0  0  0  0
  8  9  2  0  0  0  0
  8  2  1  0  0  0  0
 15  4  1  0  0  0  0
 17  5  1  0  0  0  0
 18  5  1  0  0  0  0
 19  6  1  0  0  0  0
 22  7  1  0  0  0  0
 23 24  1  0  0  0  0
 23 31  1  0  0  0  0
 24 26  1  0  0  0  0
 25 24  2  0  0  0  0
 26 27  1  0  0  0  0
 26 34  1  0  0  0  0
 27 35  1  1  0  0  0
 27 28  1  0  0  0  0
 28  8  1  0  0  0  0
 29 27  1  0  0  0  0
 30 29  2  0  0  0  0
 32 23  1  0  0  0  0
 33 26  1  0  0  0  0
 36 28  1  0  0  0  0
 37 38  1  0  0  0  0
 37 29  1  0  0  0  0
 38 46  1  0  0  0  0
 39 38  1  0  0  0  0
 39 48  1  0  0  0  0
 40 39  1  0  0  0  0
 40 49  1  0  0  0  0
 41 51  1  6  0  0  0
 41 40  1  0  0  0  0
 41 37  1  0  0  0  0
 42 41  1  0  0  0  0
 43 42  1  0  0  0  0
 44 42  2  0  0  0  0
 45 38  1  0  0  0  0
 47 39  1  0  0  0  0
 50 40  1  0  0  0  0
M  END
$$$$
