KNQ.pdb
 OpenBabel07022418493D

 54 53  0  0  1  0  0  0  0  0999 V2000
    0.0830    1.9010   -4.1430 N   0  0  0  0  0  0  0  0  0  0  0  0
   -0.4310    1.1410   -2.9870 C   0  0  1  0  0  0  0  0  0  0  0  0
   -0.2510   -0.3130   -3.3150 C   0  0  0  0  0  0  0  0  0  0  0  0
    1.1240   -0.7530   -3.6050 C   0  0  0  0  0  0  0  0  0  0  0  0
    2.1780   -0.6440   -2.5980 C   0  0  0  0  0  0  0  0  0  0  0  0
    1.9490   -1.4220   -1.3250 C   0  0  0  0  0  0  0  0  0  0  0  0
    1.8240   -2.8460   -1.5930 N   0  0  0  0  0  0  0  0  0  0  0  0
    0.0500    1.6200   -1.7130 C   0  0  0  0  0  0  0  0  0  0  0  0
    0.9830    2.4590   -1.6410 O   0  0  0  0  0  0  0  0  0  0  0  0
    1.0560    2.2400   -3.8810 H   0  0  0  0  0  0  0  0  0  0  0  0
   -0.5170    2.6990   -4.3790 H   0  0  0  0  0  0  0  0  0  0  0  0
   -1.5690    1.3120   -3.0830 H   0  0  0  0  0  0  0  0  0  0  0  0
   -0.8030   -0.9750   -2.6050 H   0  0  0  0  0  0  0  0  0  0  0  0
   -0.8370   -0.4550   -4.2800 H   0  0  0  0  0  0  0  0  0  0  0  0
    1.1320   -1.7970   -4.0570 H   0  0  0  0  0  0  0  0  0  0  0  0
    1.4650   -0.1310   -4.4980 H   0  0  0  0  0  0  0  0  0  0  0  0
    2.5110    0.3690   -2.3270 H   0  0  0  0  0  0  0  0  0  0  0  0
    3.1190   -1.1180   -3.0370 H   0  0  0  0  0  0  0  0  0  0  0  0
    2.8970   -1.2990   -0.7440 H   0  0  0  0  0  0  0  0  0  0  0  0
    1.1550   -1.0390   -0.6870 H   0  0  0  0  0  0  0  0  0  0  0  0
    2.4040   -3.3550   -0.8960 H   0  0  0  0  0  0  0  0  0  0  0  0
    2.2680   -3.0050   -2.5260 H   0  0  0  0  0  0  0  0  0  0  0  0
   -2.8410    1.2930    1.2410 N   0  0  0  0  0  0  0  0  0  0  0  0
   -2.2480    2.5490    1.4160 C   0  0  0  0  0  0  0  0  0  0  0  0
   -3.0170    3.4960    1.7840 O   0  0  0  0  0  0  0  0  0  0  0  0
   -0.8420    2.9040    1.2230 C   0  0  0  0  0  0  0  0  0  0  0  0
    0.0040    1.6960    0.7810 C   0  0  2  0  0  0  0  0  0  0  0  0
   -0.5040    1.1800   -0.4700 N   0  0  0  0  0  0  0  0  0  0  0  0
    0.1250    0.7280    1.8650 C   0  0  0  0  0  0  0  0  0  0  0  0
    0.5980    1.1270    2.9920 O   0  0  0  0  0  0  0  0  0  0  0  0
   -2.7850    0.4920    1.9080 H   0  0  0  0  0  0  0  0  0  0  0  0
   -3.4000    1.1170    0.3660 H   0  0  0  0  0  0  0  0  0  0  0  0
   -0.7820    3.6620    0.4140 H   0  0  0  0  0  0  0  0  0  0  0  0
   -0.4100    3.2520    2.1780 H   0  0  0  0  0  0  0  0  0  0  0  0
    0.9960    2.1440    0.5750 H   0  0  0  0  0  0  0  0  0  0  0  0
   -1.2770    0.4800   -0.5480 H   0  0  0  0  0  0  0  0  0  0  0  0
   -0.5160   -5.0460    5.4690 N   0  0  0  0  0  0  0  0  0  0  0  0
   -1.0440   -4.2470    4.4570 C   0  0  0  0  0  0  0  0  0  0  0  0
   -1.0950   -4.7690    3.2850 O   0  0  0  0  0  0  0  0  0  0  0  0
   -1.5500   -2.8870    4.5850 C   0  0  0  0  0  0  0  0  0  0  0  0
   -1.4090   -1.9730    3.4450 C   0  0  0  0  0  0  0  0  0  0  0  0
   -0.0610   -1.5150    3.0240 C   0  0  2  0  0  0  0  0  0  0  0  0
   -0.2300   -0.6440    1.8270 N   0  0  0  0  0  0  0  0  0  0  0  0
    0.8470   -2.5910    2.6820 C   0  0  0  0  0  0  0  0  0  0  0  0
    1.1370   -2.8060    1.4700 O   0  0  0  0  0  0  0  0  0  0  0  0
    1.4520   -3.4320    3.6290 O   0  0  0  0  0  0  0  0  0  0  0  0
    0.2750   -4.7110    6.0460 H   0  0  0  0  0  0  0  0  0  0  0  0
   -0.9070   -5.9840    5.6570 H   0  0  0  0  0  0  0  0  0  0  0  0
   -2.6640   -2.9900    4.7820 H   0  0  0  0  0  0  0  0  0  0  0  0
   -1.1730   -2.4250    5.5400 H   0  0  0  0  0  0  0  0  0  0  0  0
   -1.9830   -1.0260    3.7230 H   0  0  0  0  0  0  0  0  0  0  0  0
   -2.0150   -2.3510    2.5640 H   0  0  0  0  0  0  0  0  0  0  0  0
    0.3980   -0.8730    3.8390 H   0  0  0  0  0  0  0  0  0  0  0  0
   -0.6120   -1.0200    0.9360 H   0  0  0  0  0  0  0  0  0  0  0  0
  1 10  1  0  0  0  0
  1  2  1  0  0  0  0
  2 12  1  1  0  0  0
  2  8  1  0  0  0  0
  3  2  1  0  0  0  0
  3 13  1  0  0  0  0
  4  3  1  0  0  0  0
  4  5  1  0  0  0  0
  5 17  1  0  0  0  0
  5  6  1  0  0  0  0
  6 19  1  0  0  0  0
  6 20  1  0  0  0  0
  7  6  1  0  0  0  0
  7 21  1  0  0  0  0
  8  9  2  0  0  0  0
  8 28  1  0  0  0  0
 11  1  1  0  0  0  0
 14  3  1  0  0  0  0
 15  4  1  0  0  0  0
 16  4  1  0  0  0  0
 18  5  1  0  0  0  0
 22  7  1  0  0  0  0
 23 24  1  0  0  0  0
 23 31  1  0  0  0  0
 24 25  2  0  0  0  0
 26 24  1  0  0  0  0
 26 34  1  0  0  0  0
 27 35  1  6  0  0  0
 27 26  1  0  0  0  0
 27 29  1  0  0  0  0
 28 27  1  0  0  0  0
 29 30  2  0  0  0  0
 32 23  1  0  0  0  0
 33 26  1  0  0  0  0
 36 28  1  0  0  0  0
 37 48  1  0  0  0  0
 37 47  1  0  0  0  0
 38 40  1  0  0  0  0
 38 37  1  0  0  0  0
 39 38  2  0  0  0  0
 40 49  1  0  0  0  0
 40 50  1  0  0  0  0
 41 51  1  0  0  0  0
 41 40  1  0  0  0  0
 42 41  1  0  0  0  0
 42 53  1  1  0  0  0
 43 29  1  0  0  0  0
 43 42  1  0  0  0  0
 44 42  1  0  0  0  0
 44 46  1  0  0  0  0
 45 44  2  0  0  0  0
 52 41  1  0  0  0  0
 54 43  1  0  0  0  0
M  END
$$$$
