KNT.pdb
 OpenBabel07022418493D

 51 50  0  0  1  0  0  0  0  0999 V2000
    0.7460   -3.5750    2.4960 N   0  0  0  0  0  0  0  0  0  0  0  0
    1.8450   -2.5650    2.1190 C   0  0  1  0  0  0  0  0  0  0  0  0
    2.1130   -2.8370    0.7020 C   0  0  0  0  0  0  0  0  0  0  0  0
    3.1590   -2.2660   -0.1050 C   0  0  0  0  0  0  0  0  0  0  0  0
    3.5180   -0.8860   -0.3360 C   0  0  0  0  0  0  0  0  0  0  0  0
    4.1580   -0.0700    0.7280 C   0  0  0  0  0  0  0  0  0  0  0  0
    3.5350    0.1670    1.9510 N   0  0  0  0  0  0  0  0  0  0  0  0
    1.0110   -1.3130    2.3700 C   0  0  0  0  0  0  0  0  0  0  0  0
    0.7510   -0.9840    3.5680 O   0  0  0  0  0  0  0  0  0  0  0  0
    0.1180   -3.6600    1.6670 H   0  0  0  0  0  0  0  0  0  0  0  0
    1.2180   -4.4570    2.7210 H   0  0  0  0  0  0  0  0  0  0  0  0
    2.6080   -2.7280    2.8530 H   0  0  0  0  0  0  0  0  0  0  0  0
    1.1140   -2.6040    0.1510 H   0  0  0  0  0  0  0  0  0  0  0  0
    2.1440   -4.0010    0.5690 H   0  0  0  0  0  0  0  0  0  0  0  0
    2.9580   -2.7000   -1.1890 H   0  0  0  0  0  0  0  0  0  0  0  0
    4.1480   -2.8940    0.0730 H   0  0  0  0  0  0  0  0  0  0  0  0
    4.2460   -0.7910   -1.2430 H   0  0  0  0  0  0  0  0  0  0  0  0
    2.6520   -0.2820   -0.7400 H   0  0  0  0  0  0  0  0  0  0  0  0
    4.4640    0.9570    0.2960 H   0  0  0  0  0  0  0  0  0  0  0  0
    5.1900   -0.5350    0.8770 H   0  0  0  0  0  0  0  0  0  0  0  0
    3.5880    1.1500    2.2940 H   0  0  0  0  0  0  0  0  0  0  0  0
    3.8910   -0.4180    2.7590 H   0  0  0  0  0  0  0  0  0  0  0  0
    0.4400    4.3100    0.6890 N   0  0  0  0  0  0  0  0  0  0  0  0
   -0.1930    3.1920    1.2950 C   0  0  0  0  0  0  0  0  0  0  0  0
   -1.2450    3.3610    1.9760 O   0  0  0  0  0  0  0  0  0  0  0  0
    0.4210    1.8580    1.0940 C   0  0  0  0  0  0  0  0  0  0  0  0
   -0.3110    0.7060    1.6630 C   0  0  2  0  0  0  0  0  0  0  0  0
    0.4960   -0.4890    1.3630 N   0  0  0  0  0  0  0  0  0  0  0  0
   -1.6860    0.5010    1.1520 C   0  0  0  0  0  0  0  0  0  0  0  0
   -2.6020    1.3340    1.2730 O   0  0  0  0  0  0  0  0  0  0  0  0
    1.3390    4.6400    1.0600 H   0  0  0  0  0  0  0  0  0  0  0  0
   -0.0050    4.7780   -0.1100 H   0  0  0  0  0  0  0  0  0  0  0  0
    1.4520    1.9490    1.5490 H   0  0  0  0  0  0  0  0  0  0  0  0
    0.6230    1.7810    0.0060 H   0  0  0  0  0  0  0  0  0  0  0  0
   -0.3540    0.7850    2.7590 H   0  0  0  0  0  0  0  0  0  0  0  0
    0.6620   -0.6990    0.3630 H   0  0  0  0  0  0  0  0  0  0  0  0
   -4.7750   -1.5700   -1.9470 C   0  0  0  0  0  0  0  0  0  0  0  0
   -3.3430   -1.3030   -1.5370 C   0  0  1  0  0  0  0  0  0  0  0  0
   -2.8220   -0.2530   -2.2860 O   0  0  0  0  0  0  0  0  0  0  0  0
   -3.3590   -0.9820   -0.0560 C   0  0  2  0  0  0  0  0  0  0  0  0
   -2.0520   -0.7150    0.4640 N   0  0  0  0  0  0  0  0  0  0  0  0
   -3.9090   -2.1820    0.6350 C   0  0  0  0  0  0  0  0  0  0  0  0
   -5.0470   -2.6600    0.3880 O   0  0  0  0  0  0  0  0  0  0  0  0
   -3.1690   -2.8450    1.6090 O   0  0  0  0  0  0  0  0  0  0  0  0
   -5.4950   -1.0690   -1.2680 H   0  0  0  0  0  0  0  0  0  0  0  0
   -5.0280   -2.6510   -1.9460 H   0  0  0  0  0  0  0  0  0  0  0  0
   -4.9510   -1.2080   -2.9970 H   0  0  0  0  0  0  0  0  0  0  0  0
   -2.7570   -2.2170   -1.7180 H   0  0  0  0  0  0  0  0  0  0  0  0
   -3.4690    0.4660   -2.3590 H   0  0  0  0  0  0  0  0  0  0  0  0
   -4.0820   -0.1780    0.1000 H   0  0  0  0  0  0  0  0  0  0  0  0
   -1.2910   -1.4200    0.3590 H   0  0  0  0  0  0  0  0  0  0  0  0
  1 11  1  0  0  0  0
  2  8  1  0  0  0  0
  2  1  1  0  0  0  0
  2 12  1  1  0  0  0
  3  2  1  0  0  0  0
  4 16  1  0  0  0  0
  4  3  1  0  0  0  0
  5  4  1  0  0  0  0
  5  6  1  0  0  0  0
  6 20  1  0  0  0  0
  6  7  1  0  0  0  0
  7 21  1  0  0  0  0
  7 22  1  0  0  0  0
  8  9  2  0  0  0  0
 10  1  1  0  0  0  0
 13  3  1  0  0  0  0
 14  3  1  0  0  0  0
 15  4  1  0  0  0  0
 17  5  1  0  0  0  0
 18  5  1  0  0  0  0
 19  6  1  0  0  0  0
 23 31  1  0  0  0  0
 23 24  1  0  0  0  0
 24 25  2  0  0  0  0
 26 24  1  0  0  0  0
 26 33  1  0  0  0  0
 26 27  1  0  0  0  0
 27 35  1  1  0  0  0
 28 27  1  0  0  0  0
 28  8  1  0  0  0  0
 29 30  2  0  0  0  0
 29 27  1  0  0  0  0
 32 23  1  0  0  0  0
 34 26  1  0  0  0  0
 36 28  1  0  0  0  0
 37 46  1  0  0  0  0
 37 38  1  0  0  0  0
 37 45  1  0  0  0  0
 38 48  1  6  0  0  0
 38 40  1  0  0  0  0
 39 38  1  0  0  0  0
 40 50  1  1  0  0  0
 40 41  1  0  0  0  0
 40 42  1  0  0  0  0
 41 29  1  0  0  0  0
 42 44  1  0  0  0  0
 43 42  2  0  0  0  0
 47 37  1  0  0  0  0
 49 39  1  0  0  0  0
 51 41  1  0  0  0  0
M  END
$$$$
