KNW.pdb
 OpenBabel07022418493D

 61 62  0  0  1  0  0  0  0  0999 V2000
    1.2300   -1.7070    1.5950 N   0  0  0  0  0  0  0  0  0  0  0  0
    1.6470   -0.3660    2.0430 C   0  0  1  0  0  0  0  0  0  0  0  0
    3.1640   -0.3340    2.1100 C   0  0  0  0  0  0  0  0  0  0  0  0
    3.6490    0.9860    2.5590 C   0  0  0  0  0  0  0  0  0  0  0  0
    5.1080    1.1730    2.7200 C   0  0  0  0  0  0  0  0  0  0  0  0
    5.9810    0.9920    1.5450 C   0  0  0  0  0  0  0  0  0  0  0  0
    5.8980   -0.3480    1.0090 N   0  0  0  0  0  0  0  0  0  0  0  0
    1.0350    0.6700    1.2180 C   0  0  0  0  0  0  0  0  0  0  0  0
    1.0690    1.8970    1.4560 O   0  0  0  0  0  0  0  0  0  0  0  0
    1.4200   -2.3460    2.4230 H   0  0  0  0  0  0  0  0  0  0  0  0
    0.1780   -1.6640    1.5520 H   0  0  0  0  0  0  0  0  0  0  0  0
    1.2880   -0.2850    3.0970 H   0  0  0  0  0  0  0  0  0  0  0  0
    3.6100   -0.7110    1.1640 H   0  0  0  0  0  0  0  0  0  0  0  0
    3.4260   -1.1310    2.8700 H   0  0  0  0  0  0  0  0  0  0  0  0
    3.1760    1.2310    3.5390 H   0  0  0  0  0  0  0  0  0  0  0  0
    3.2630    1.8110    1.8790 H   0  0  0  0  0  0  0  0  0  0  0  0
    5.2530    2.2090    3.1490 H   0  0  0  0  0  0  0  0  0  0  0  0
    5.4840    0.5090    3.5550 H   0  0  0  0  0  0  0  0  0  0  0  0
    7.0520    1.1230    1.8890 H   0  0  0  0  0  0  0  0  0  0  0  0
    5.8700    1.7600    0.7550 H   0  0  0  0  0  0  0  0  0  0  0  0
    6.1250   -0.4320    0.0110 H   0  0  0  0  0  0  0  0  0  0  0  0
    6.5310   -0.9510    1.5770 H   0  0  0  0  0  0  0  0  0  0  0  0
    0.3500    3.6610   -3.1910 N   0  0  0  0  0  0  0  0  0  0  0  0
   -0.2470    2.3660   -3.0650 C   0  0  0  0  0  0  0  0  0  0  0  0
   -1.2900    2.1910   -3.7670 O   0  0  0  0  0  0  0  0  0  0  0  0
    0.3320    1.3550   -2.1830 C   0  0  0  0  0  0  0  0  0  0  0  0
   -0.3030    1.3450   -0.8190 C   0  0  2  0  0  0  0  0  0  0  0  0
    0.3140    0.3230    0.0130 N   0  0  0  0  0  0  0  0  0  0  0  0
   -1.7620    1.1200   -0.8690 C   0  0  0  0  0  0  0  0  0  0  0  0
   -2.5440    1.9030   -1.4990 O   0  0  0  0  0  0  0  0  0  0  0  0
   -0.1270    4.4810   -3.6050 H   0  0  0  0  0  0  0  0  0  0  0  0
    1.3250    3.7880   -2.8450 H   0  0  0  0  0  0  0  0  0  0  0  0
    1.4240    1.5330   -2.0240 H   0  0  0  0  0  0  0  0  0  0  0  0
    0.2330    0.3690   -2.7060 H   0  0  0  0  0  0  0  0  0  0  0  0
   -0.1070    2.3360   -0.3640 H   0  0  0  0  0  0  0  0  0  0  0  0
    0.2550   -0.6850   -0.2380 H   0  0  0  0  0  0  0  0  0  0  0  0
   -2.3120   -0.0070   -0.1950 N   0  0  0  0  0  0  0  0  0  0  0  0
   -3.7620   -0.2650   -0.2250 C   0  0  1  0  0  0  0  0  0  0  0  0
   -3.9540   -1.4530   -1.1360 C   0  0  0  0  0  0  0  0  0  0  0  0
   -3.2150   -2.6390   -0.6860 C   0  0  0  0  0  0  0  0  0  0  0  0
   -1.9270   -2.9300   -1.1710 C   0  0  0  0  0  0  0  0  0  0  0  0
   -1.5370   -4.0280   -0.5320 N   0  0  0  0  0  0  0  0  0  0  0  0
   -2.4750   -4.4580    0.3200 C   0  0  0  0  0  0  0  0  0  0  0  0
   -2.5330   -5.5390    1.1790 C   0  0  0  0  0  0  0  0  0  0  0  0
   -3.6540   -5.7510    1.9450 C   0  0  0  0  0  0  0  0  0  0  0  0
   -4.7370   -4.8970    1.8750 C   0  0  0  0  0  0  0  0  0  0  0  0
   -4.6800   -3.8240    1.0240 C   0  0  0  0  0  0  0  0  0  0  0  0
   -3.5640   -3.5850    0.2410 C   0  0  0  0  0  0  0  0  0  0  0  0
   -4.3530   -0.4870    1.0750 C   0  0  0  0  0  0  0  0  0  0  0  0
   -5.6120   -0.5710    1.1750 O   0  0  0  0  0  0  0  0  0  0  0  0
   -3.6480   -0.6220    2.2670 O   0  0  0  0  0  0  0  0  0  0  0  0
   -1.6930   -0.6610    0.3270 H   0  0  0  0  0  0  0  0  0  0  0  0
   -4.2430    0.6050   -0.7720 H   0  0  0  0  0  0  0  0  0  0  0  0
   -3.6410   -1.1260   -2.1580 H   0  0  0  0  0  0  0  0  0  0  0  0
   -5.0640   -1.6410   -1.1760 H   0  0  0  0  0  0  0  0  0  0  0  0
   -1.3700   -2.3700   -1.9150 H   0  0  0  0  0  0  0  0  0  0  0  0
   -0.6040   -4.5240   -0.6600 H   0  0  0  0  0  0  0  0  0  0  0  0
   -1.6720   -6.2000    1.2220 H   0  0  0  0  0  0  0  0  0  0  0  0
   -3.6940   -6.6000    2.6160 H   0  0  0  0  0  0  0  0  0  0  0  0
   -5.6150   -5.1010    2.5030 H   0  0  0  0  0  0  0  0  0  0  0  0
   -5.5180   -3.1610    0.9440 H   0  0  0  0  0  0  0  0  0  0  0  0
  1  2  1  0  0  0  0
  1 10  1  0  0  0  0
  2  3  1  0  0  0  0
  2 12  1  1  0  0  0
  3  4  1  0  0  0  0
  3 14  1  0  0  0  0
  4  5  1  0  0  0  0
  4 15  1  0  0  0  0
  5 17  1  0  0  0  0
  5 18  1  0  0  0  0
  6 19  1  0  0  0  0
  6  5  1  0  0  0  0
  7  6  1  0  0  0  0
  7 22  1  0  0  0  0
  8  9  2  0  0  0  0
  8  2  1  0  0  0  0
 11  1  1  0  0  0  0
 13  3  1  0  0  0  0
 16  4  1  0  0  0  0
 20  6  1  0  0  0  0
 21  7  1  0  0  0  0
 23 24  1  0  0  0  0
 23 32  1  0  0  0  0
 24 26  1  0  0  0  0
 25 24  2  0  0  0  0
 26 33  1  0  0  0  0
 26 27  1  0  0  0  0
 27 35  1  1  0  0  0
 27 28  1  0  0  0  0
 28  8  1  0  0  0  0
 29 27  1  0  0  0  0
 29 37  1  0  0  0  0
 30 29  2  0  0  0  0
 31 23  1  0  0  0  0
 34 26  1  0  0  0  0
 36 28  1  0  0  0  0
 37 52  1  0  0  0  0
 38 53  1  6  0  0  0
 38 37  1  0  0  0  0
 38 49  1  0  0  0  0
 39 40  1  0  0  0  0
 39 38  1  0  0  0  0
 40 48  1  0  0  0  0
 41 40  2  0  0  0  0
 41 42  1  0  0  0  0
 42 43  1  0  0  0  0
 43 44  1  0  0  0  0
 44 58  1  0  0  0  0
 44 45  2  0  0  0  0
 45 59  1  0  0  0  0
 46 45  1  0  0  0  0
 46 60  1  0  0  0  0
 47 46  2  0  0  0  0
 48 43  2  0  0  0  0
 48 47  1  0  0  0  0
 49 50  2  0  0  0  0
 49 51  1  0  0  0  0
 54 39  1  0  0  0  0
 55 39  1  0  0  0  0
 56 41  1  0  0  0  0
 57 42  1  0  0  0  0
 61 47  1  0  0  0  0
M  END
$$$$
