KPA.pdb
 OpenBabel07022418523D

 47 47  0  0  1  0  0  0  0  0999 V2000
    0.4620   -4.2040    2.3940 N   0  0  0  0  0  0  0  0  0  0  0  0
    1.2330   -2.9590    2.2330 C   0  0  1  0  0  0  0  0  0  0  0  0
    2.2690   -3.0770    1.1870 C   0  0  0  0  0  0  0  0  0  0  0  0
    1.8340   -3.4080   -0.1880 C   0  0  0  0  0  0  0  0  0  0  0  0
    0.8970   -2.4870   -0.8650 C   0  0  0  0  0  0  0  0  0  0  0  0
    0.6410   -3.0750   -2.2660 C   0  0  0  0  0  0  0  0  0  0  0  0
    1.8720   -3.1740   -3.0110 N   0  0  0  0  0  0  0  0  0  0  0  0
    0.3620   -1.7830    2.2050 C   0  0  0  0  0  0  0  0  0  0  0  0
   -0.9180   -1.9610    2.1500 O   0  0  0  0  0  0  0  0  0  0  0  0
    0.8200   -4.9030    1.6950 H   0  0  0  0  0  0  0  0  0  0  0  0
   -0.5110   -3.9520    2.0460 H   0  0  0  0  0  0  0  0  0  0  0  0
    1.7890   -2.8960    3.2210 H   0  0  0  0  0  0  0  0  0  0  0  0
    3.0230   -3.8890    1.4600 H   0  0  0  0  0  0  0  0  0  0  0  0
    2.9060   -2.1600    1.1980 H   0  0  0  0  0  0  0  0  0  0  0  0
    1.4400   -4.4440   -0.2370 H   0  0  0  0  0  0  0  0  0  0  0  0
    2.7720   -3.4420   -0.8180 H   0  0  0  0  0  0  0  0  0  0  0  0
    1.2470   -1.4700   -1.0140 H   0  0  0  0  0  0  0  0  0  0  0  0
   -0.1150   -2.4520   -0.4080 H   0  0  0  0  0  0  0  0  0  0  0  0
    0.2120   -4.0960   -2.1900 H   0  0  0  0  0  0  0  0  0  0  0  0
   -0.0730   -2.4610   -2.8340 H   0  0  0  0  0  0  0  0  0  0  0  0
    1.7310   -3.0730   -4.0400 H   0  0  0  0  0  0  0  0  0  0  0  0
    2.6190   -2.5450   -2.6440 H   0  0  0  0  0  0  0  0  0  0  0  0
    0.7960   -0.4410    2.2360 N   0  0  0  0  0  0  0  0  0  0  0  0
    2.1850   -0.0160    2.3040 C   0  0  0  0  0  0  0  0  0  0  0  0
    2.0860    1.4050    2.9180 C   0  0  0  0  0  0  0  0  0  0  0  0
    0.8950    1.8980    2.1290 C   0  0  0  0  0  0  0  0  0  0  0  0
   -0.0450    0.7220    2.2310 C   0  0  1  0  0  0  0  0  0  0  0  0
   -1.0910    0.7490    1.2060 C   0  0  0  0  0  0  0  0  0  0  0  0
   -1.2670   -0.1140    0.3500 O   0  0  0  0  0  0  0  0  0  0  0  0
    2.6320    0.1850    1.3090 H   0  0  0  0  0  0  0  0  0  0  0  0
    2.8050   -0.6190    2.9800 H   0  0  0  0  0  0  0  0  0  0  0  0
    1.8770    1.3270    3.9910 H   0  0  0  0  0  0  0  0  0  0  0  0
    3.0030    1.9780    2.7100 H   0  0  0  0  0  0  0  0  0  0  0  0
    0.5090    2.8010    2.6200 H   0  0  0  0  0  0  0  0  0  0  0  0
    1.2210    2.0730    1.0840 H   0  0  0  0  0  0  0  0  0  0  0  0
   -0.4890    0.7890    3.2550 H   0  0  0  0  0  0  0  0  0  0  0  0
   -4.3510    1.8740    0.9810 C   0  0  0  0  0  0  0  0  0  0  0  0
   -3.0340    1.9440    0.2060 C   0  0  2  0  0  0  0  0  0  0  0  0
   -1.9730    1.8780    1.2150 N   0  0  0  0  0  0  0  0  0  0  0  0
   -2.9200    3.2180   -0.5470 C   0  0  0  0  0  0  0  0  0  0  0  0
   -2.0340    4.0630   -0.3110 O   0  0  0  0  0  0  0  0  0  0  0  0
   -3.8410    3.4660   -1.5520 O   0  0  0  0  0  0  0  0  0  0  0  0
   -4.1840    1.4200    2.0000 H   0  0  0  0  0  0  0  0  0  0  0  0
   -4.7680    2.8770    1.1570 H   0  0  0  0  0  0  0  0  0  0  0  0
   -5.0850    1.2650    0.4270 H   0  0  0  0  0  0  0  0  0  0  0  0
   -3.0190    1.0820   -0.4590 H   0  0  0  0  0  0  0  0  0  0  0  0
   -1.8590    2.6340    1.9250 H   0  0  0  0  0  0  0  0  0  0  0  0
  2  1  1  0  0  0  0
  2 12  1  1  0  0  0
  3 14  1  0  0  0  0
  3 13  1  0  0  0  0
  3  2  1  0  0  0  0
  4  3  1  0  0  0  0
  5 18  1  0  0  0  0
  5  4  1  0  0  0  0
  6 19  1  0  0  0  0
  6  5  1  0  0  0  0
  7 22  1  0  0  0  0
  7  6  1  0  0  0  0
  8  2  1  0  0  0  0
  8 23  1  0  0  0  0
  9  8  2  0  0  0  0
 10  1  1  0  0  0  0
 11  1  1  0  0  0  0
 15  4  1  0  0  0  0
 16  4  1  0  0  0  0
 17  5  1  0  0  0  0
 20  6  1  0  0  0  0
 21  7  1  0  0  0  0
 23 24  1  0  0  0  0
 24 25  1  0  0  0  0
 24 31  1  0  0  0  0
 25 32  1  0  0  0  0
 26 27  1  0  0  0  0
 26 34  1  0  0  0  0
 26 25  1  0  0  0  0
 27 23  1  0  0  0  0
 27 36  1  1  0  0  0
 28 39  1  0  0  0  0
 28 27  1  0  0  0  0
 29 28  2  0  0  0  0
 30 24  1  0  0  0  0
 33 25  1  0  0  0  0
 35 26  1  0  0  0  0
 37 44  1  0  0  0  0
 37 43  1  0  0  0  0
 38 46  1  6  0  0  0
 38 37  1  0  0  0  0
 38 39  1  0  0  0  0
 39 47  1  0  0  0  0
 40 41  1  0  0  0  0
 40 38  1  0  0  0  0
 42 40  2  0  0  0  0
 45 37  1  0  0  0  0
M  END
$$$$
