KPE.pdb
 OpenBabel07022418523D

 53 53  0  0  1  0  0  0  0  0999 V2000
    2.7100    0.9170   -2.4810 N   0  0  0  0  0  0  0  0  0  0  0  0
    2.5510   -0.1780   -1.5240 C   0  0  1  0  0  0  0  0  0  0  0  0
    3.1230    0.2590   -0.1720 C   0  0  0  0  0  0  0  0  0  0  0  0
    4.5670    0.5880   -0.3410 C   0  0  0  0  0  0  0  0  0  0  0  0
    5.2910    1.0510    0.8660 C   0  0  0  0  0  0  0  0  0  0  0  0
    5.3510    0.1210    2.0230 C   0  0  0  0  0  0  0  0  0  0  0  0
    4.0270   -0.1760    2.5040 N   0  0  0  0  0  0  0  0  0  0  0  0
    1.1000   -0.3930   -1.3380 C   0  0  0  0  0  0  0  0  0  0  0  0
    0.2520    0.4530   -1.7770 O   0  0  0  0  0  0  0  0  0  0  0  0
    2.6230    1.8450   -2.0550 H   0  0  0  0  0  0  0  0  0  0  0  0
    3.5100    0.7820   -3.1130 H   0  0  0  0  0  0  0  0  0  0  0  0
    3.0640   -1.0600   -1.9410 H   0  0  0  0  0  0  0  0  0  0  0  0
    2.9240   -0.5670    0.5130 H   0  0  0  0  0  0  0  0  0  0  0  0
    2.5300    1.1350    0.1410 H   0  0  0  0  0  0  0  0  0  0  0  0
    4.6250    1.4360   -1.0890 H   0  0  0  0  0  0  0  0  0  0  0  0
    5.1010   -0.2480   -0.8540 H   0  0  0  0  0  0  0  0  0  0  0  0
    4.9180    2.0700    1.1790 H   0  0  0  0  0  0  0  0  0  0  0  0
    6.3520    1.2720    0.5310 H   0  0  0  0  0  0  0  0  0  0  0  0
    5.8750    0.6340    2.8830 H   0  0  0  0  0  0  0  0  0  0  0  0
    5.9540   -0.7870    1.8390 H   0  0  0  0  0  0  0  0  0  0  0  0
    3.4850    0.6990    2.6030 H   0  0  0  0  0  0  0  0  0  0  0  0
    4.0220   -0.7580    3.3630 H   0  0  0  0  0  0  0  0  0  0  0  0
    0.6430   -1.5570   -0.6650 N   0  0  0  0  0  0  0  0  0  0  0  0
    1.5110   -2.5860   -0.1280 C   0  0  0  0  0  0  0  0  0  0  0  0
    0.6020   -3.8470   -0.1990 C   0  0  0  0  0  0  0  0  0  0  0  0
   -0.6590   -3.2040    0.3580 C   0  0  0  0  0  0  0  0  0  0  0  0
   -0.7390   -1.9280   -0.4180 C   0  0  1  0  0  0  0  0  0  0  0  0
   -1.4850   -0.8670    0.2810 C   0  0  0  0  0  0  0  0  0  0  0  0
   -0.8860    0.1940    0.5820 O   0  0  0  0  0  0  0  0  0  0  0  0
    2.4450   -2.7260   -0.6570 H   0  0  0  0  0  0  0  0  0  0  0  0
    1.6440   -2.4490    0.9790 H   0  0  0  0  0  0  0  0  0  0  0  0
    0.4090   -4.0870   -1.2490 H   0  0  0  0  0  0  0  0  0  0  0  0
    0.9940   -4.6500    0.4190 H   0  0  0  0  0  0  0  0  0  0  0  0
   -1.5420   -3.8600    0.2140 H   0  0  0  0  0  0  0  0  0  0  0  0
   -0.4760   -2.9850    1.4360 H   0  0  0  0  0  0  0  0  0  0  0  0
   -1.1710   -2.1590   -1.4180 H   0  0  0  0  0  0  0  0  0  0  0  0
   -2.8540   -1.0120    0.6220 N   0  0  0  0  0  0  0  0  0  0  0  0
   -3.5960    0.0390    1.3150 C   0  0  1  0  0  0  0  0  0  0  0  0
   -4.7340    0.5010    0.4850 C   0  0  0  0  0  0  0  0  0  0  0  0
   -5.7250   -0.5390    0.1280 C   0  0  0  0  0  0  0  0  0  0  0  0
   -6.4290   -1.2010    1.2250 C   0  0  0  0  0  0  0  0  0  0  0  0
   -6.1800   -2.3090    1.7300 O   0  0  0  0  0  0  0  0  0  0  0  0
   -4.0470   -0.3690    2.6620 C   0  0  0  0  0  0  0  0  0  0  0  0
   -4.7740    0.3590    3.3500 O   0  0  0  0  0  0  0  0  0  0  0  0
   -7.5210   -0.5140    1.7870 O   0  0  0  0  0  0  0  0  0  0  0  0
   -3.6310   -1.6180    3.1670 O   0  0  0  0  0  0  0  0  0  0  0  0
   -3.3020   -1.9130    0.3480 H   0  0  0  0  0  0  0  0  0  0  0  0
   -2.8740    0.9030    1.4860 H   0  0  0  0  0  0  0  0  0  0  0  0
   -5.2580    1.3310    1.0310 H   0  0  0  0  0  0  0  0  0  0  0  0
   -4.3070    1.0170   -0.4170 H   0  0  0  0  0  0  0  0  0  0  0  0
   -5.2430   -1.3700   -0.4780 H   0  0  0  0  0  0  0  0  0  0  0  0
   -6.4890   -0.1010   -0.5600 H   0  0  0  0  0  0  0  0  0  0  0  0
   -8.2170   -1.0190    2.3290 H   0  0  0  0  0  0  0  0  0  0  0  0
  1 10  1  0  0  0  0
  1  2  1  0  0  0  0
  2 12  1  6  0  0  0
  2  8  1  0  0  0  0
  2  3  1  0  0  0  0
  3 14  1  0  0  0  0
  3 13  1  0  0  0  0
  4  3  1  0  0  0  0
  4  5  1  0  0  0  0
  5 17  1  0  0  0  0
  5  6  1  0  0  0  0
  6  7  1  0  0  0  0
  6 19  1  0  0  0  0
  7 21  1  0  0  0  0
  7 22  1  0  0  0  0
  8 23  1  0  0  0  0
  9  8  2  0  0  0  0
 11  1  1  0  0  0  0
 15  4  1  0  0  0  0
 16  4  1  0  0  0  0
 18  5  1  0  0  0  0
 20  6  1  0  0  0  0
 23 27  1  0  0  0  0
 23 24  1  0  0  0  0
 24 31  1  0  0  0  0
 25 24  1  0  0  0  0
 25 26  1  0  0  0  0
 25 33  1  0  0  0  0
 26 35  1  0  0  0  0
 27 36  1  6  0  0  0
 27 28  1  0  0  0  0
 27 26  1  0  0  0  0
 28 29  2  0  0  0  0
 28 37  1  0  0  0  0
 30 24  1  0  0  0  0
 32 25  1  0  0  0  0
 34 26  1  0  0  0  0
 37 38  1  0  0  0  0
 38 48  1  1  0  0  0
 38 43  1  0  0  0  0
 39 49  1  0  0  0  0
 39 38  1  0  0  0  0
 40 39  1  0  0  0  0
 40 41  1  0  0  0  0
 41 42  2  0  0  0  0
 41 45  1  0  0  0  0
 43 46  2  0  0  0  0
 43 44  1  0  0  0  0
 45 53  1  0  0  0  0
 47 37  1  0  0  0  0
 50 39  1  0  0  0  0
 51 40  1  0  0  0  0
 52 40  1  0  0  0  0
M  END
$$$$
