KPF.pdb
 OpenBabel07022418523D

 57 58  0  0  1  0  0  0  0  0999 V2000
    0.9160    0.2670    0.6320 N   0  0  0  0  0  0  0  0  0  0  0  0
    1.5500    0.4960   -0.6400 C   0  0  1  0  0  0  0  0  0  0  0  0
    2.3000   -0.7260   -1.1140 C   0  0  0  0  0  0  0  0  0  0  0  0
    3.3860   -1.1300   -0.1410 C   0  0  0  0  0  0  0  0  0  0  0  0
    4.0510   -2.3630   -0.7360 C   0  0  0  0  0  0  0  0  0  0  0  0
    5.1670   -2.8650    0.1490 C   0  0  0  0  0  0  0  0  0  0  0  0
    6.1300   -1.7820    0.2550 N   0  0  0  0  0  0  0  0  0  0  0  0
    0.6580    1.0670   -1.6670 C   0  0  0  0  0  0  0  0  0  0  0  0
    1.1950    1.2390   -2.8170 O   0  0  0  0  0  0  0  0  0  0  0  0
    1.4360    0.7190    1.3890 H   0  0  0  0  0  0  0  0  0  0  0  0
    0.8580   -0.7760    0.8360 H   0  0  0  0  0  0  0  0  0  0  0  0
    2.3470    1.2790   -0.4710 H   0  0  0  0  0  0  0  0  0  0  0  0
    1.5700   -1.5710   -1.1290 H   0  0  0  0  0  0  0  0  0  0  0  0
    2.7760   -0.5810   -2.0880 H   0  0  0  0  0  0  0  0  0  0  0  0
    2.8590   -1.4560    0.7890 H   0  0  0  0  0  0  0  0  0  0  0  0
    4.1140   -0.3160    0.0360 H   0  0  0  0  0  0  0  0  0  0  0  0
    4.4730   -2.0800   -1.7010 H   0  0  0  0  0  0  0  0  0  0  0  0
    3.2540   -3.1460   -0.8210 H   0  0  0  0  0  0  0  0  0  0  0  0
    4.8370   -3.2330    1.1190 H   0  0  0  0  0  0  0  0  0  0  0  0
    5.6600   -3.7020   -0.3850 H   0  0  0  0  0  0  0  0  0  0  0  0
    6.5260   -1.5910   -0.6920 H   0  0  0  0  0  0  0  0  0  0  0  0
    6.9280   -2.0710    0.8550 H   0  0  0  0  0  0  0  0  0  0  0  0
   -0.6880    1.4260   -1.4910 N   0  0  0  0  0  0  0  0  0  0  0  0
   -1.5320    1.9830   -2.5220 C   0  0  0  0  0  0  0  0  0  0  0  0
   -2.1430    3.1520   -1.7310 C   0  0  0  0  0  0  0  0  0  0  0  0
   -2.6210    2.3790   -0.5050 C   0  0  0  0  0  0  0  0  0  0  0  0
   -1.5260    1.3480   -0.3240 C   0  0  1  0  0  0  0  0  0  0  0  0
   -2.0850   -0.0090   -0.1180 C   0  0  0  0  0  0  0  0  0  0  0  0
   -1.7430   -0.9190   -0.9120 O   0  0  0  0  0  0  0  0  0  0  0  0
   -2.3900    1.3330   -2.7740 H   0  0  0  0  0  0  0  0  0  0  0  0
   -0.9920    2.3410   -3.4020 H   0  0  0  0  0  0  0  0  0  0  0  0
   -1.3610    3.8420   -1.3850 H   0  0  0  0  0  0  0  0  0  0  0  0
   -2.9660    3.6150   -2.2860 H   0  0  0  0  0  0  0  0  0  0  0  0
   -3.5820    1.8920   -0.8310 H   0  0  0  0  0  0  0  0  0  0  0  0
   -2.7630    3.0310    0.3600 H   0  0  0  0  0  0  0  0  0  0  0  0
   -1.0020    1.6390    0.6100 H   0  0  0  0  0  0  0  0  0  0  0  0
   -2.9820   -0.3380    0.9190 N   0  0  0  0  0  0  0  0  0  0  0  0
   -3.4930   -1.6780    1.0690 C   0  0  1  0  0  0  0  0  0  0  0  0
   -3.1730   -2.2540    2.4320 C   0  0  0  0  0  0  0  0  0  0  0  0
   -1.7350   -2.3340    2.7120 C   0  0  0  0  0  0  0  0  0  0  0  0
   -1.1070   -1.2750    3.3200 C   0  0  0  0  0  0  0  0  0  0  0  0
    0.2290   -1.2790    3.6120 C   0  0  0  0  0  0  0  0  0  0  0  0
    0.9510   -2.4000    3.2730 C   0  0  0  0  0  0  0  0  0  0  0  0
    0.3660   -3.4850    2.6630 C   0  0  0  0  0  0  0  0  0  0  0  0
   -0.9900   -3.4400    2.3840 C   0  0  0  0  0  0  0  0  0  0  0  0
   -4.9580   -1.7390    0.8310 C   0  0  0  0  0  0  0  0  0  0  0  0
   -5.5800   -2.8210    0.9110 O   0  0  0  0  0  0  0  0  0  0  0  0
   -5.6580   -0.5930    0.5130 O   0  0  0  0  0  0  0  0  0  0  0  0
   -3.2910    0.3820    1.5940 H   0  0  0  0  0  0  0  0  0  0  0  0
   -3.0480   -2.3760    0.3120 H   0  0  0  0  0  0  0  0  0  0  0  0
   -3.6540   -1.5580    3.1790 H   0  0  0  0  0  0  0  0  0  0  0  0
   -3.6430   -3.2290    2.5960 H   0  0  0  0  0  0  0  0  0  0  0  0
   -1.6930   -0.4070    3.5760 H   0  0  0  0  0  0  0  0  0  0  0  0
    0.7020   -0.4260    4.0950 H   0  0  0  0  0  0  0  0  0  0  0  0
    2.0190   -2.3850    3.5140 H   0  0  0  0  0  0  0  0  0  0  0  0
    0.9820   -4.3440    2.4170 H   0  0  0  0  0  0  0  0  0  0  0  0
   -1.4350   -4.3140    1.8990 H   0  0  0  0  0  0  0  0  0  0  0  0
  1 11  1  0  0  0  0
  1 10  1  0  0  0  0
  2 12  1  1  0  0  0
  2  1  1  0  0  0  0
  3  2  1  0  0  0  0
  3  4  1  0  0  0  0
  4 16  1  0  0  0  0
  4 15  1  0  0  0  0
  5  4  1  0  0  0  0
  5  6  1  0  0  0  0
  6  7  1  0  0  0  0
  6 19  1  0  0  0  0
  7 22  1  0  0  0  0
  8 23  1  0  0  0  0
  8  2  1  0  0  0  0
  9  8  2  0  0  0  0
 13  3  1  0  0  0  0
 14  3  1  0  0  0  0
 17  5  1  0  0  0  0
 18  5  1  0  0  0  0
 20  6  1  0  0  0  0
 21  7  1  0  0  0  0
 23 27  1  0  0  0  0
 24 25  1  0  0  0  0
 24 23  1  0  0  0  0
 25 32  1  0  0  0  0
 25 26  1  0  0  0  0
 26 27  1  0  0  0  0
 26 35  1  0  0  0  0
 27 28  1  0  0  0  0
 27 36  1  1  0  0  0
 28 37  1  0  0  0  0
 29 28  2  0  0  0  0
 30 24  1  0  0  0  0
 31 24  1  0  0  0  0
 33 25  1  0  0  0  0
 34 26  1  0  0  0  0
 37 38  1  0  0  0  0
 37 49  1  0  0  0  0
 38 50  1  6  0  0  0
 38 39  1  0  0  0  0
 39 52  1  0  0  0  0
 39 40  1  0  0  0  0
 39 51  1  0  0  0  0
 40 41  1  0  0  0  0
 41 53  1  0  0  0  0
 41 42  2  0  0  0  0
 42 54  1  0  0  0  0
 43 55  1  0  0  0  0
 43 42  1  0  0  0  0
 44 43  2  0  0  0  0
 45 44  1  0  0  0  0
 45 40  2  0  0  0  0
 46 47  1  0  0  0  0
 46 38  1  0  0  0  0
 48 46  2  0  0  0  0
 56 44  1  0  0  0  0
 57 45  1  0  0  0  0
M  END
$$$$
