KPG.pdb
 OpenBabel07022418523D

 44 44  0  0  1  0  0  0  0  0999 V2000
   -0.2020   -1.8550    3.2830 N   0  0  0  0  0  0  0  0  0  0  0  0
    1.1230   -2.1800    2.6510 C   0  0  1  0  0  0  0  0  0  0  0  0
    0.9210   -3.2660    1.7040 C   0  0  0  0  0  0  0  0  0  0  0  0
    1.9790   -3.8550    0.8910 C   0  0  0  0  0  0  0  0  0  0  0  0
    2.6670   -3.0210   -0.1360 C   0  0  0  0  0  0  0  0  0  0  0  0
    1.6640   -2.4770   -1.1690 C   0  0  0  0  0  0  0  0  0  0  0  0
    2.4160   -1.6840   -2.1120 N   0  0  0  0  0  0  0  0  0  0  0  0
    1.6940   -0.9090    2.2750 C   0  0  0  0  0  0  0  0  0  0  0  0
    2.9910   -0.9000    2.3110 O   0  0  0  0  0  0  0  0  0  0  0  0
   -0.0350   -1.2110    4.0780 H   0  0  0  0  0  0  0  0  0  0  0  0
   -0.6490   -2.7550    3.5880 H   0  0  0  0  0  0  0  0  0  0  0  0
    1.6880   -2.5920    3.5430 H   0  0  0  0  0  0  0  0  0  0  0  0
    0.4290   -4.1220    2.2980 H   0  0  0  0  0  0  0  0  0  0  0  0
    0.0690   -2.9800    1.0170 H   0  0  0  0  0  0  0  0  0  0  0  0
    1.5730   -4.7540    0.3090 H   0  0  0  0  0  0  0  0  0  0  0  0
    2.7540   -4.3490    1.5430 H   0  0  0  0  0  0  0  0  0  0  0  0
    3.3260   -2.2380    0.1740 H   0  0  0  0  0  0  0  0  0  0  0  0
    3.2880   -3.7520   -0.7780 H   0  0  0  0  0  0  0  0  0  0  0  0
    0.8500   -1.9200   -0.7010 H   0  0  0  0  0  0  0  0  0  0  0  0
    1.2230   -3.3310   -1.7370 H   0  0  0  0  0  0  0  0  0  0  0  0
    1.8870   -1.4830   -2.9820 H   0  0  0  0  0  0  0  0  0  0  0  0
    3.3720   -2.0240   -2.2680 H   0  0  0  0  0  0  0  0  0  0  0  0
    1.0280    0.2870    1.8860 N   0  0  0  0  0  0  0  0  0  0  0  0
    1.7440    1.5080    1.5410 C   0  0  0  0  0  0  0  0  0  0  0  0
    1.0170    2.5260    2.4010 C   0  0  0  0  0  0  0  0  0  0  0  0
   -0.3920    2.0270    2.3720 C   0  0  0  0  0  0  0  0  0  0  0  0
   -0.3510    0.6310    1.7280 C   0  0  1  0  0  0  0  0  0  0  0  0
   -0.7660    0.8220    0.3180 C   0  0  0  0  0  0  0  0  0  0  0  0
    0.0230    0.6830   -0.6510 O   0  0  0  0  0  0  0  0  0  0  0  0
    2.7880    1.4870    1.9250 H   0  0  0  0  0  0  0  0  0  0  0  0
    1.7200    1.7580    0.4840 H   0  0  0  0  0  0  0  0  0  0  0  0
    1.3760    2.5150    3.4290 H   0  0  0  0  0  0  0  0  0  0  0  0
    1.1160    3.5520    1.9870 H   0  0  0  0  0  0  0  0  0  0  0  0
   -0.8720    2.0070    3.3700 H   0  0  0  0  0  0  0  0  0  0  0  0
   -0.9840    2.7280    1.7480 H   0  0  0  0  0  0  0  0  0  0  0  0
   -1.0720    0.0400    2.3110 H   0  0  0  0  0  0  0  0  0  0  0  0
   -2.1090    1.1800   -0.0340 N   0  0  0  0  0  0  0  0  0  0  0  0
   -2.5260    1.3690   -1.4050 C   0  0  0  0  0  0  0  0  0  0  0  0
   -3.9590    1.7290   -1.4080 C   0  0  0  0  0  0  0  0  0  0  0  0
   -4.5730    1.9490   -2.4800 O   0  0  0  0  0  0  0  0  0  0  0  0
   -4.6660    1.8330   -0.2250 O   0  0  0  0  0  0  0  0  0  0  0  0
   -2.7710    1.2990    0.7350 H   0  0  0  0  0  0  0  0  0  0  0  0
   -1.9300    2.1450   -1.9260 H   0  0  0  0  0  0  0  0  0  0  0  0
   -2.3530    0.4270   -2.0020 H   0  0  0  0  0  0  0  0  0  0  0  0
  1 11  1  0  0  0  0
  1 10  1  0  0  0  0
  2  1  1  0  0  0  0
  2 12  1  1  0  0  0
  3 13  1  0  0  0  0
  3  2  1  0  0  0  0
  4 16  1  0  0  0  0
  4  3  1  0  0  0  0
  5 17  1  0  0  0  0
  5  4  1  0  0  0  0
  6 19  1  0  0  0  0
  6  5  1  0  0  0  0
  7  6  1  0  0  0  0
  8  9  2  0  0  0  0
  8  2  1  0  0  0  0
 14  3  1  0  0  0  0
 15  4  1  0  0  0  0
 18  5  1  0  0  0  0
 20  6  1  0  0  0  0
 21  7  1  0  0  0  0
 22  7  1  0  0  0  0
 23  8  1  0  0  0  0
 24 23  1  0  0  0  0
 24 30  1  0  0  0  0
 24 25  1  0  0  0  0
 25 32  1  0  0  0  0
 26 25  1  0  0  0  0
 26 34  1  0  0  0  0
 27 23  1  0  0  0  0
 27 36  1  1  0  0  0
 27 26  1  0  0  0  0
 28 27  1  0  0  0  0
 29 28  2  0  0  0  0
 31 24  1  0  0  0  0
 33 25  1  0  0  0  0
 35 26  1  0  0  0  0
 37 28  1  0  0  0  0
 37 42  1  0  0  0  0
 38 37  1  0  0  0  0
 39 38  1  0  0  0  0
 39 41  1  0  0  0  0
 40 39  2  0  0  0  0
 43 38  1  0  0  0  0
 44 38  1  0  0  0  0
M  END
$$$$
