KPK.pdb
 OpenBabel07022418523D

 58 58  0  0  1  0  0  0  0  0999 V2000
   -0.3310   -0.0450    3.3300 N   0  0  0  0  0  0  0  0  0  0  0  0
    1.1000   -0.1830    3.2010 C   0  0  1  0  0  0  0  0  0  0  0  0
    1.4400   -1.6150    3.2940 C   0  0  0  0  0  0  0  0  0  0  0  0
    2.8730   -1.9940    3.1860 C   0  0  0  0  0  0  0  0  0  0  0  0
    3.0250   -3.5200    3.3290 C   0  0  0  0  0  0  0  0  0  0  0  0
    4.4830   -3.9090    3.2190 C   0  0  0  0  0  0  0  0  0  0  0  0
    5.2570   -3.2630    4.2640 N   0  0  0  0  0  0  0  0  0  0  0  0
    1.6250    0.5670    2.0550 C   0  0  0  0  0  0  0  0  0  0  0  0
    2.8910    0.4300    1.8730 O   0  0  0  0  0  0  0  0  0  0  0  0
   -0.7980   -0.9720    3.4020 H   0  0  0  0  0  0  0  0  0  0  0  0
   -0.5750    0.5300    4.1420 H   0  0  0  0  0  0  0  0  0  0  0  0
    1.5470    0.3250    4.1140 H   0  0  0  0  0  0  0  0  0  0  0  0
    1.1020   -1.9530    4.3230 H   0  0  0  0  0  0  0  0  0  0  0  0
    0.8170   -2.2480    2.6140 H   0  0  0  0  0  0  0  0  0  0  0  0
    3.2250   -1.8050    2.1290 H   0  0  0  0  0  0  0  0  0  0  0  0
    3.5270   -1.4470    3.8570 H   0  0  0  0  0  0  0  0  0  0  0  0
    2.6230   -3.8460    4.2970 H   0  0  0  0  0  0  0  0  0  0  0  0
    2.4880   -4.0120    2.5000 H   0  0  0  0  0  0  0  0  0  0  0  0
    4.8720   -3.6070    2.2350 H   0  0  0  0  0  0  0  0  0  0  0  0
    4.5440   -5.0000    3.3800 H   0  0  0  0  0  0  0  0  0  0  0  0
    5.6930   -2.3970    3.8790 H   0  0  0  0  0  0  0  0  0  0  0  0
    4.6790   -3.1000    5.1130 H   0  0  0  0  0  0  0  0  0  0  0  0
    0.9510    1.3890    1.1620 N   0  0  0  0  0  0  0  0  0  0  0  0
    1.5600    2.0990    0.0340 C   0  0  0  0  0  0  0  0  0  0  0  0
    0.8730    3.4570    0.0990 C   0  0  0  0  0  0  0  0  0  0  0  0
   -0.5280    3.0910    0.4600 C   0  0  0  0  0  0  0  0  0  0  0  0
   -0.4470    1.7310    1.1630 C   0  0  1  0  0  0  0  0  0  0  0  0
   -1.3050    0.7850    0.4180 C   0  0  0  0  0  0  0  0  0  0  0  0
   -2.5310    1.0620    0.4000 O   0  0  0  0  0  0  0  0  0  0  0  0
    2.6310    2.2360    0.1510 H   0  0  0  0  0  0  0  0  0  0  0  0
    1.3470    1.6250   -0.9280 H   0  0  0  0  0  0  0  0  0  0  0  0
    0.9080    3.9770   -0.8890 H   0  0  0  0  0  0  0  0  0  0  0  0
    1.2890    4.0910    0.9080 H   0  0  0  0  0  0  0  0  0  0  0  0
   -1.0890    2.9270   -0.4830 H   0  0  0  0  0  0  0  0  0  0  0  0
   -1.0320    3.8580    1.0880 H   0  0  0  0  0  0  0  0  0  0  0  0
   -0.8570    1.9270    2.1820 H   0  0  0  0  0  0  0  0  0  0  0  0
   -0.8900   -0.3700   -0.2600 N   0  0  0  0  0  0  0  0  0  0  0  0
   -1.7740   -1.2620   -0.9880 C   0  0  1  0  0  0  0  0  0  0  0  0
   -1.3580   -1.4850   -2.3900 C   0  0  0  0  0  0  0  0  0  0  0  0
   -2.2260   -2.3900   -3.2130 C   0  0  0  0  0  0  0  0  0  0  0  0
   -3.6470   -1.9730   -3.3680 C   0  0  0  0  0  0  0  0  0  0  0  0
   -3.8450   -0.6390   -4.0420 C   0  0  0  0  0  0  0  0  0  0  0  0
   -3.2230    0.4550   -3.3330 N   0  0  0  0  0  0  0  0  0  0  0  0
   -1.8300   -2.5290   -0.2280 C   0  0  0  0  0  0  0  0  0  0  0  0
   -1.1540   -2.7440    0.8090 O   0  0  0  0  0  0  0  0  0  0  0  0
   -2.6550   -3.5560   -0.6380 O   0  0  0  0  0  0  0  0  0  0  0  0
    0.1180   -0.6060   -0.2430 H   0  0  0  0  0  0  0  0  0  0  0  0
   -2.7920   -0.8180   -0.9050 H   0  0  0  0  0  0  0  0  0  0  0  0
   -1.1260   -0.5590   -2.9550 H   0  0  0  0  0  0  0  0  0  0  0  0
   -0.3490   -2.0130   -2.3860 H   0  0  0  0  0  0  0  0  0  0  0  0
   -2.1560   -3.4130   -2.8240 H   0  0  0  0  0  0  0  0  0  0  0  0
   -1.7780   -2.4110   -4.2510 H   0  0  0  0  0  0  0  0  0  0  0  0
   -4.2220   -1.9850   -2.4200 H   0  0  0  0  0  0  0  0  0  0  0  0
   -4.1420   -2.7290   -4.0230 H   0  0  0  0  0  0  0  0  0  0  0  0
   -4.9480   -0.3980   -4.0530 H   0  0  0  0  0  0  0  0  0  0  0  0
   -3.5160   -0.6520   -5.1030 H   0  0  0  0  0  0  0  0  0  0  0  0
   -2.7440    1.0570   -4.0170 H   0  0  0  0  0  0  0  0  0  0  0  0
   -3.9210    0.9960   -2.7440 H   0  0  0  0  0  0  0  0  0  0  0  0
  1 10  1  0  0  0  0
  1 11  1  0  0  0  0
  2  3  1  0  0  0  0
  2  1  1  0  0  0  0
  2 12  1  1  0  0  0
  3 13  1  0  0  0  0
  4  3  1  0  0  0  0
  4  5  1  0  0  0  0
  4 16  1  0  0  0  0
  5 17  1  0  0  0  0
  6  5  1  0  0  0  0
  6 20  1  0  0  0  0
  6  7  1  0  0  0  0
  7 22  1  0  0  0  0
  8  2  1  0  0  0  0
  9  8  2  0  0  0  0
 14  3  1  0  0  0  0
 15  4  1  0  0  0  0
 18  5  1  0  0  0  0
 19  6  1  0  0  0  0
 21  7  1  0  0  0  0
 23 27  1  0  0  0  0
 23  8  1  0  0  0  0
 24 25  1  0  0  0  0
 24 30  1  0  0  0  0
 24 23  1  0  0  0  0
 25 26  1  0  0  0  0
 25 33  1  0  0  0  0
 26 35  1  0  0  0  0
 26 27  1  0  0  0  0
 27 36  1  1  0  0  0
 28 27  1  0  0  0  0
 29 28  2  0  0  0  0
 31 24  1  0  0  0  0
 32 25  1  0  0  0  0
 34 26  1  0  0  0  0
 37 47  1  0  0  0  0
 37 28  1  0  0  0  0
 38 48  1  6  0  0  0
 38 37  1  0  0  0  0
 38 44  1  0  0  0  0
 39 50  1  0  0  0  0
 39 38  1  0  0  0  0
 40 51  1  0  0  0  0
 40 39  1  0  0  0  0
 41 40  1  0  0  0  0
 41 53  1  0  0  0  0
 42 41  1  0  0  0  0
 42 43  1  0  0  0  0
 43 58  1  0  0  0  0
 44 45  1  0  0  0  0
 46 44  2  0  0  0  0
 49 39  1  0  0  0  0
 52 40  1  0  0  0  0
 54 41  1  0  0  0  0
 55 42  1  0  0  0  0
 56 42  1  0  0  0  0
 57 43  1  0  0  0  0
M  END
$$$$
