KPL.pdb
 OpenBabel07022418523D

 56 56  0  0  1  0  0  0  0  0999 V2000
    0.7700    3.4690   -2.6680 N   0  0  0  0  0  0  0  0  0  0  0  0
    1.3810    2.4480   -1.7990 C   0  0  1  0  0  0  0  0  0  0  0  0
    1.6200    3.1020   -0.4760 C   0  0  0  0  0  0  0  0  0  0  0  0
    2.2330    2.2570    0.5830 C   0  0  0  0  0  0  0  0  0  0  0  0
    2.4360    3.0710    1.8750 C   0  0  0  0  0  0  0  0  0  0  0  0
    3.0620    2.1850    2.9340 C   0  0  0  0  0  0  0  0  0  0  0  0
    2.2090    1.0610    3.2090 N   0  0  0  0  0  0  0  0  0  0  0  0
    0.4760    1.3040   -1.7960 C   0  0  0  0  0  0  0  0  0  0  0  0
   -0.7520    1.4780   -2.1210 O   0  0  0  0  0  0  0  0  0  0  0  0
    1.1040    4.4180   -2.4360 H   0  0  0  0  0  0  0  0  0  0  0  0
   -0.2680    3.3950   -2.6560 H   0  0  0  0  0  0  0  0  0  0  0  0
    2.3650    2.2140   -2.2500 H   0  0  0  0  0  0  0  0  0  0  0  0
    2.3260    3.9660   -0.6480 H   0  0  0  0  0  0  0  0  0  0  0  0
    0.7100    3.5700   -0.0470 H   0  0  0  0  0  0  0  0  0  0  0  0
    3.2060    1.8900    0.2590 H   0  0  0  0  0  0  0  0  0  0  0  0
    1.5840    1.4030    0.8850 H   0  0  0  0  0  0  0  0  0  0  0  0
    1.4590    3.4300    2.2630 H   0  0  0  0  0  0  0  0  0  0  0  0
    3.1040    3.9200    1.6820 H   0  0  0  0  0  0  0  0  0  0  0  0
    3.2310    2.7740    3.8530 H   0  0  0  0  0  0  0  0  0  0  0  0
    4.0180    1.8150    2.5100 H   0  0  0  0  0  0  0  0  0  0  0  0
    2.3600    0.3190    2.4950 H   0  0  0  0  0  0  0  0  0  0  0  0
    1.2170    1.3050    3.3100 H   0  0  0  0  0  0  0  0  0  0  0  0
    0.8180   -0.0410   -1.4610 N   0  0  0  0  0  0  0  0  0  0  0  0
    2.1260   -0.5800   -1.0680 C   0  0  0  0  0  0  0  0  0  0  0  0
    2.1720   -1.9500   -1.7530 C   0  0  0  0  0  0  0  0  0  0  0  0
    0.7520   -2.2230   -2.1830 C   0  0  0  0  0  0  0  0  0  0  0  0
   -0.0450   -1.2060   -1.4410 C   0  0  1  0  0  0  0  0  0  0  0  0
   -0.3620   -1.5550   -0.0630 C   0  0  0  0  0  0  0  0  0  0  0  0
    0.0860   -0.8790    0.8880 O   0  0  0  0  0  0  0  0  0  0  0  0
    2.2300   -0.7340    0.0010 H   0  0  0  0  0  0  0  0  0  0  0  0
    2.9530    0.0410   -1.4620 H   0  0  0  0  0  0  0  0  0  0  0  0
    2.5600   -2.7320   -1.0880 H   0  0  0  0  0  0  0  0  0  0  0  0
    2.7810   -1.8730   -2.7010 H   0  0  0  0  0  0  0  0  0  0  0  0
    0.4820   -3.2370   -1.8050 H   0  0  0  0  0  0  0  0  0  0  0  0
    0.6350   -2.1550   -3.2840 H   0  0  0  0  0  0  0  0  0  0  0  0
   -0.9460   -0.9710   -2.0570 H   0  0  0  0  0  0  0  0  0  0  0  0
   -5.2180   -3.6520    2.1050 C   0  0  0  0  0  0  0  0  0  0  0  0
   -3.8680   -3.8980    1.3970 C   0  0  0  0  0  0  0  0  0  0  0  0
   -4.0820   -3.5960   -0.0430 C   0  0  0  0  0  0  0  0  0  0  0  0
   -2.9030   -2.9860    2.1100 C   0  0  0  0  0  0  0  0  0  0  0  0
   -1.5010   -3.0110    1.6550 C   0  0  2  0  0  0  0  0  0  0  0  0
   -1.1910   -2.6690    0.3190 N   0  0  0  0  0  0  0  0  0  0  0  0
   -0.9630   -4.3840    1.9240 C   0  0  0  0  0  0  0  0  0  0  0  0
   -1.1030   -4.9320    3.0480 O   0  0  0  0  0  0  0  0  0  0  0  0
   -0.2920   -5.0970    0.9450 O   0  0  0  0  0  0  0  0  0  0  0  0
   -4.9910   -3.6800    3.1910 H   0  0  0  0  0  0  0  0  0  0  0  0
   -5.9470   -4.4170    1.8480 H   0  0  0  0  0  0  0  0  0  0  0  0
   -5.5050   -2.6180    1.8470 H   0  0  0  0  0  0  0  0  0  0  0  0
   -3.5850   -4.9500    1.5910 H   0  0  0  0  0  0  0  0  0  0  0  0
   -5.1910   -3.6700   -0.2500 H   0  0  0  0  0  0  0  0  0  0  0  0
   -3.6050   -4.3670   -0.6880 H   0  0  0  0  0  0  0  0  0  0  0  0
   -3.8190   -2.5660   -0.2740 H   0  0  0  0  0  0  0  0  0  0  0  0
   -2.8810   -3.3850    3.1740 H   0  0  0  0  0  0  0  0  0  0  0  0
   -3.3280   -1.9650    2.2470 H   0  0  0  0  0  0  0  0  0  0  0  0
   -0.9280   -2.3530    2.3930 H   0  0  0  0  0  0  0  0  0  0  0  0
   -1.5530   -3.2330   -0.4710 H   0  0  0  0  0  0  0  0  0  0  0  0
  1 11  1  0  0  0  0
  1 10  1  0  0  0  0
  1  2  1  0  0  0  0
  2 12  1  6  0  0  0
  2  8  1  0  0  0  0
  2  3  1  0  0  0  0
  3 14  1  0  0  0  0
  3  4  1  0  0  0  0
  4 16  1  0  0  0  0
  4  5  1  0  0  0  0
  5 17  1  0  0  0  0
  5  6  1  0  0  0  0
  6  7  1  0  0  0  0
  6 19  1  0  0  0  0
  7 22  1  0  0  0  0
  8 23  1  0  0  0  0
  9  8  2  0  0  0  0
 13  3  1  0  0  0  0
 15  4  1  0  0  0  0
 18  5  1  0  0  0  0
 20  6  1  0  0  0  0
 21  7  1  0  0  0  0
 23 27  1  0  0  0  0
 23 24  1  0  0  0  0
 24 30  1  0  0  0  0
 25 32  1  0  0  0  0
 25 24  1  0  0  0  0
 26 34  1  0  0  0  0
 26 25  1  0  0  0  0
 26 27  1  0  0  0  0
 27 36  1  6  0  0  0
 27 28  1  0  0  0  0
 28 42  1  0  0  0  0
 28 29  2  0  0  0  0
 31 24  1  0  0  0  0
 33 25  1  0  0  0  0
 35 26  1  0  0  0  0
 37 46  1  0  0  0  0
 38 49  1  0  0  0  0
 38 37  1  0  0  0  0
 38 40  1  0  0  0  0
 39 38  1  0  0  0  0
 40 54  1  0  0  0  0
 40 53  1  0  0  0  0
 41 43  1  0  0  0  0
 41 40  1  0  0  0  0
 41 55  1  1  0  0  0
 42 41  1  0  0  0  0
 43 44  1  0  0  0  0
 45 43  2  0  0  0  0
 47 37  1  0  0  0  0
 48 37  1  0  0  0  0
 50 39  1  0  0  0  0
 51 39  1  0  0  0  0
 52 39  1  0  0  0  0
 56 42  1  0  0  0  0
M  END
$$$$
