KPM.pdb
 OpenBabel07022418523D

 54 54  0  0  1  0  0  0  0  0999 V2000
    0.4180   -1.4120   -2.3800 N   0  0  0  0  0  0  0  0  0  0  0  0
    0.4600   -0.9320   -0.9480 C   0  0  1  0  0  0  0  0  0  0  0  0
    1.2970   -2.0210   -0.3130 C   0  0  0  0  0  0  0  0  0  0  0  0
    1.5870   -1.9260    1.1170 C   0  0  0  0  0  0  0  0  0  0  0  0
    2.4510   -3.0830    1.5700 C   0  0  0  0  0  0  0  0  0  0  0  0
    3.7830   -3.1680    0.8880 C   0  0  0  0  0  0  0  0  0  0  0  0
    4.5210   -4.3180    1.4360 N   0  0  0  0  0  0  0  0  0  0  0  0
    1.1620    0.3510   -1.0280 C   0  0  0  0  0  0  0  0  0  0  0  0
    2.2660    0.3170   -1.7560 O   0  0  0  0  0  0  0  0  0  0  0  0
   -0.0460   -2.3490   -2.3820 H   0  0  0  0  0  0  0  0  0  0  0  0
    1.4380   -1.4980   -2.6650 H   0  0  0  0  0  0  0  0  0  0  0  0
   -0.5650   -0.9520   -0.6500 H   0  0  0  0  0  0  0  0  0  0  0  0
    0.7430   -2.9820   -0.5060 H   0  0  0  0  0  0  0  0  0  0  0  0
    2.2530   -2.1440   -0.9000 H   0  0  0  0  0  0  0  0  0  0  0  0
    2.1640   -0.9960    1.3650 H   0  0  0  0  0  0  0  0  0  0  0  0
    0.6850   -1.9820    1.7690 H   0  0  0  0  0  0  0  0  0  0  0  0
    2.6660   -3.0130    2.6740 H   0  0  0  0  0  0  0  0  0  0  0  0
    1.9070   -4.0590    1.4630 H   0  0  0  0  0  0  0  0  0  0  0  0
    4.3590   -2.2360    0.9340 H   0  0  0  0  0  0  0  0  0  0  0  0
    3.6040   -3.3960   -0.1970 H   0  0  0  0  0  0  0  0  0  0  0  0
    4.0190   -5.1710    1.1260 H   0  0  0  0  0  0  0  0  0  0  0  0
    4.5050   -4.2420    2.4830 H   0  0  0  0  0  0  0  0  0  0  0  0
    0.8860    1.6000   -0.4880 N   0  0  0  0  0  0  0  0  0  0  0  0
    1.8860    2.7280   -0.7350 C   0  0  0  0  0  0  0  0  0  0  0  0
    0.9310    3.7200   -1.3910 C   0  0  0  0  0  0  0  0  0  0  0  0
   -0.4140    3.5020   -0.7410 C   0  0  0  0  0  0  0  0  0  0  0  0
   -0.0840    2.3370    0.2340 C   0  0  1  0  0  0  0  0  0  0  0  0
   -1.2320    1.8270    0.8720 C   0  0  0  0  0  0  0  0  0  0  0  0
   -2.3030    2.5580    0.9330 O   0  0  0  0  0  0  0  0  0  0  0  0
    2.6710    2.4070   -1.4040 H   0  0  0  0  0  0  0  0  0  0  0  0
    2.1890    3.1510    0.2230 H   0  0  0  0  0  0  0  0  0  0  0  0
    1.2600    4.7690   -1.2260 H   0  0  0  0  0  0  0  0  0  0  0  0
    0.8710    3.5190   -2.4680 H   0  0  0  0  0  0  0  0  0  0  0  0
   -1.2010    3.1670   -1.4300 H   0  0  0  0  0  0  0  0  0  0  0  0
   -0.7060    4.3780   -0.1310 H   0  0  0  0  0  0  0  0  0  0  0  0
    0.5310    2.8730    1.0830 H   0  0  0  0  0  0  0  0  0  0  0  0
   -3.9160   -3.2870   -0.9970 C   0  0  0  0  0  0  0  0  0  0  0  0
   -3.5650   -3.6130    0.7400 S   0  0  0  0  0  0  0  0  0  0  0  0
   -2.5360   -2.3200    1.4880 C   0  0  0  0  0  0  0  0  0  0  0  0
   -3.2760   -1.0380    1.5430 C   0  0  0  0  0  0  0  0  0  0  0  0
   -2.5990    0.1310    2.1230 C   0  0  2  0  0  0  0  0  0  0  0  0
   -1.3820    0.5760    1.4890 N   0  0  0  0  0  0  0  0  0  0  0  0
   -2.3330    0.0150    3.5820 C   0  0  0  0  0  0  0  0  0  0  0  0
   -1.2060    0.2890    4.0460 O   0  0  0  0  0  0  0  0  0  0  0  0
   -3.3010   -0.3920    4.4860 O   0  0  0  0  0  0  0  0  0  0  0  0
   -4.3280   -2.2750   -1.1730 H   0  0  0  0  0  0  0  0  0  0  0  0
   -4.7040   -4.0010   -1.3150 H   0  0  0  0  0  0  0  0  0  0  0  0
   -3.0250   -3.5030   -1.6330 H   0  0  0  0  0  0  0  0  0  0  0  0
   -2.3760   -2.6530    2.5570 H   0  0  0  0  0  0  0  0  0  0  0  0
   -1.5500   -2.3080    1.0330 H   0  0  0  0  0  0  0  0  0  0  0  0
   -3.7160   -0.7310    0.5630 H   0  0  0  0  0  0  0  0  0  0  0  0
   -4.1880   -1.2240    2.1880 H   0  0  0  0  0  0  0  0  0  0  0  0
   -3.3260    0.9920    2.0400 H   0  0  0  0  0  0  0  0  0  0  0  0
   -0.5990   -0.1040    1.5410 H   0  0  0  0  0  0  0  0  0  0  0  0
  1  2  1  0  0  0  0
  2 12  1  1  0  0  0
  2  3  1  0  0  0  0
  3  4  1  0  0  0  0
  4 15  1  0  0  0  0
  4  5  1  0  0  0  0
  4 16  1  0  0  0  0
  5 17  1  0  0  0  0
  6 19  1  0  0  0  0
  6  7  1  0  0  0  0
  6  5  1  0  0  0  0
  7 22  1  0  0  0  0
  8  2  1  0  0  0  0
  8 23  1  0  0  0  0
  9  8  2  0  0  0  0
 10  1  1  0  0  0  0
 11  1  1  0  0  0  0
 13  3  1  0  0  0  0
 14  3  1  0  0  0  0
 18  5  1  0  0  0  0
 20  6  1  0  0  0  0
 21  7  1  0  0  0  0
 23 27  1  0  0  0  0
 24 23  1  0  0  0  0
 24 31  1  0  0  0  0
 25 32  1  0  0  0  0
 25 26  1  0  0  0  0
 25 24  1  0  0  0  0
 26 35  1  0  0  0  0
 26 27  1  0  0  0  0
 27 28  1  0  0  0  0
 27 36  1  1  0  0  0
 28 29  2  0  0  0  0
 28 42  1  0  0  0  0
 30 24  1  0  0  0  0
 33 25  1  0  0  0  0
 34 26  1  0  0  0  0
 37 38  1  0  0  0  0
 38 39  1  0  0  0  0
 39 40  1  0  0  0  0
 39 49  1  0  0  0  0
 40 41  1  0  0  0  0
 40 52  1  0  0  0  0
 41 53  1  6  0  0  0
 41 43  1  0  0  0  0
 42 54  1  0  0  0  0
 42 41  1  0  0  0  0
 43 44  2  0  0  0  0
 43 45  1  0  0  0  0
 46 37  1  0  0  0  0
 47 37  1  0  0  0  0
 48 37  1  0  0  0  0
 50 39  1  0  0  0  0
 51 40  1  0  0  0  0
M  END
$$$$
