KPR.pdb
 OpenBabel07022418523D

 60 60  0  0  1  0  0  0  0  0999 V2000
    3.8510   -2.1300    1.5320 N   0  0  0  0  0  0  0  0  0  0  0  0
    2.6110   -1.8370    0.8040 C   0  0  1  0  0  0  0  0  0  0  0  0
    2.9690   -0.7760   -0.1900 C   0  0  0  0  0  0  0  0  0  0  0  0
    3.4680    0.5000    0.3940 C   0  0  0  0  0  0  0  0  0  0  0  0
    4.6890    0.4100    1.2470 C   0  0  0  0  0  0  0  0  0  0  0  0
    5.0230    1.8430    1.6800 C   0  0  0  0  0  0  0  0  0  0  0  0
    5.2730    2.6160    0.5030 N   0  0  0  0  0  0  0  0  0  0  0  0
    2.1360   -3.1020    0.2010 C   0  0  0  0  0  0  0  0  0  0  0  0
    2.9870   -4.0790    0.1800 O   0  0  0  0  0  0  0  0  0  0  0  0
    3.6640   -2.4250    2.5150 H   0  0  0  0  0  0  0  0  0  0  0  0
    4.4070   -2.8580    0.9850 H   0  0  0  0  0  0  0  0  0  0  0  0
    1.8920   -1.5080    1.5590 H   0  0  0  0  0  0  0  0  0  0  0  0
    3.8010   -1.1650   -0.8590 H   0  0  0  0  0  0  0  0  0  0  0  0
    2.1590   -0.5280   -0.9130 H   0  0  0  0  0  0  0  0  0  0  0  0
    2.6470    1.0340    0.9460 H   0  0  0  0  0  0  0  0  0  0  0  0
    3.7470    1.1780   -0.4730 H   0  0  0  0  0  0  0  0  0  0  0  0
    5.5250   -0.0420    0.6850 H   0  0  0  0  0  0  0  0  0  0  0  0
    4.5420   -0.1390    2.2100 H   0  0  0  0  0  0  0  0  0  0  0  0
    4.1780    2.2380    2.2810 H   0  0  0  0  0  0  0  0  0  0  0  0
    5.9170    1.8460    2.3480 H   0  0  0  0  0  0  0  0  0  0  0  0
    4.4600    3.1110    0.1270 H   0  0  0  0  0  0  0  0  0  0  0  0
    5.8190    2.0520   -0.1740 H   0  0  0  0  0  0  0  0  0  0  0  0
    0.8480   -3.3200   -0.3410 N   0  0  0  0  0  0  0  0  0  0  0  0
    0.4980   -4.6370   -0.9220 C   0  0  0  0  0  0  0  0  0  0  0  0
   -0.6750   -4.4260   -1.8110 C   0  0  0  0  0  0  0  0  0  0  0  0
   -1.2300   -3.0860   -1.4580 C   0  0  0  0  0  0  0  0  0  0  0  0
   -0.2830   -2.4610   -0.4400 C   0  0  1  0  0  0  0  0  0  0  0  0
   -0.9710   -2.2150    0.8440 C   0  0  0  0  0  0  0  0  0  0  0  0
   -0.5600   -2.5430    1.9790 O   0  0  0  0  0  0  0  0  0  0  0  0
    1.3880   -5.0460   -1.4200 H   0  0  0  0  0  0  0  0  0  0  0  0
    0.2100   -5.2690   -0.0390 H   0  0  0  0  0  0  0  0  0  0  0  0
   -0.3550   -4.4640   -2.8690 H   0  0  0  0  0  0  0  0  0  0  0  0
   -1.4300   -5.2380   -1.6200 H   0  0  0  0  0  0  0  0  0  0  0  0
   -2.2280   -3.2290   -0.9960 H   0  0  0  0  0  0  0  0  0  0  0  0
   -1.2980   -2.4820   -2.3750 H   0  0  0  0  0  0  0  0  0  0  0  0
   -0.0120   -1.4760   -0.8470 H   0  0  0  0  0  0  0  0  0  0  0  0
   -3.7260    0.3870   -2.4250 N   0  0  0  0  0  0  0  0  0  0  0  0
   -3.6770    1.1030   -1.2010 C   0  0  0  0  0  0  0  0  0  0  0  0
   -4.7470    1.6820   -0.7870 N   0  0  0  0  0  0  0  0  0  0  0  0
   -2.4530    1.1860   -0.4490 N   0  0  0  0  0  0  0  0  0  0  0  0
   -2.3430    1.8920    0.7650 C   0  0  0  0  0  0  0  0  0  0  0  0
   -3.0570    1.3640    1.9360 C   0  0  0  0  0  0  0  0  0  0  0  0
   -2.8040    0.0830    2.5600 C   0  0  0  0  0  0  0  0  0  0  0  0
   -2.9950   -1.2400    1.9730 C   0  0  2  0  0  0  0  0  0  0  0  0
   -2.2370   -1.5390    0.8210 N   0  0  0  0  0  0  0  0  0  0  0  0
   -4.3880   -1.7030    1.9290 C   0  0  0  0  0  0  0  0  0  0  0  0
   -4.8250   -2.3000    0.9300 O   0  0  0  0  0  0  0  0  0  0  0  0
   -5.2200   -1.4810    2.9900 O   0  0  0  0  0  0  0  0  0  0  0  0
   -3.9520   -0.6330   -2.4760 H   0  0  0  0  0  0  0  0  0  0  0  0
   -3.5310    0.8850   -3.3180 H   0  0  0  0  0  0  0  0  0  0  0  0
   -5.6130    1.6110   -1.3540 H   0  0  0  0  0  0  0  0  0  0  0  0
   -1.6150    0.6810   -0.8760 H   0  0  0  0  0  0  0  0  0  0  0  0
   -2.7060    2.9740    0.5760 H   0  0  0  0  0  0  0  0  0  0  0  0
   -1.2270    2.0260    0.9930 H   0  0  0  0  0  0  0  0  0  0  0  0
   -2.9890    2.1810    2.7660 H   0  0  0  0  0  0  0  0  0  0  0  0
   -4.1750    1.4850    1.6790 H   0  0  0  0  0  0  0  0  0  0  0  0
   -1.6970    0.1120    2.9060 H   0  0  0  0  0  0  0  0  0  0  0  0
   -3.3410    0.0490    3.6000 H   0  0  0  0  0  0  0  0  0  0  0  0
   -2.5240   -1.9520    2.7870 H   0  0  0  0  0  0  0  0  0  0  0  0
   -2.6200   -1.3170   -0.1170 H   0  0  0  0  0  0  0  0  0  0  0  0
  1 10  1  0  0  0  0
  2  1  1  0  0  0  0
  2 12  1  1  0  0  0
  3  4  1  0  0  0  0
  3  2  1  0  0  0  0
  4 15  1  0  0  0  0
  4  5  1  0  0  0  0
  5  6  1  0  0  0  0
  5 18  1  0  0  0  0
  6 19  1  0  0  0  0
  6 20  1  0  0  0  0
  7  6  1  0  0  0  0
  8  2  1  0  0  0  0
  9  8  2  0  0  0  0
 11  1  1  0  0  0  0
 13  3  1  0  0  0  0
 14  3  1  0  0  0  0
 16  4  1  0  0  0  0
 17  5  1  0  0  0  0
 21  7  1  0  0  0  0
 22  7  1  0  0  0  0
 23  8  1  0  0  0  0
 24 23  1  0  0  0  0
 24 31  1  0  0  0  0
 25 33  1  0  0  0  0
 25 26  1  0  0  0  0
 25 24  1  0  0  0  0
 26 34  1  0  0  0  0
 26 27  1  0  0  0  0
 27 36  1  6  0  0  0
 27 23  1  0  0  0  0
 27 28  1  0  0  0  0
 28 29  2  0  0  0  0
 30 24  1  0  0  0  0
 32 25  1  0  0  0  0
 35 26  1  0  0  0  0
 37 38  1  0  0  0  0
 38 39  2  0  0  0  0
 38 40  1  0  0  0  0
 40 41  1  0  0  0  0
 41 54  1  0  0  0  0
 41 42  1  0  0  0  0
 42 43  1  0  0  0  0
 42 55  1  0  0  0  0
 43 57  1  0  0  0  0
 43 58  1  0  0  0  0
 44 43  1  0  0  0  0
 44 59  1  1  0  0  0
 45 28  1  0  0  0  0
 45 44  1  0  0  0  0
 46 44  1  0  0  0  0
 46 48  1  0  0  0  0
 47 46  2  0  0  0  0
 49 37  1  0  0  0  0
 50 37  1  0  0  0  0
 51 39  1  0  0  0  0
 52 40  1  0  0  0  0
 53 41  1  0  0  0  0
 56 42  1  0  0  0  0
 60 45  1  0  0  0  0
M  END
$$$$
