KPS.pdb
 OpenBabel07022418523D

 48 48  0  0  1  0  0  0  0  0999 V2000
   -0.3610   -1.8580    0.2570 N   0  0  0  0  0  0  0  0  0  0  0  0
    0.2960   -2.2420    1.4620 C   0  0  1  0  0  0  0  0  0  0  0  0
    1.4950   -3.1120    1.1420 C   0  0  0  0  0  0  0  0  0  0  0  0
    2.5700   -2.5180    0.3450 C   0  0  0  0  0  0  0  0  0  0  0  0
    2.2830   -2.0000   -1.0120 C   0  0  0  0  0  0  0  0  0  0  0  0
    3.6320   -1.4730   -1.5660 C   0  0  0  0  0  0  0  0  0  0  0  0
    4.5440   -2.6010   -1.5880 N   0  0  0  0  0  0  0  0  0  0  0  0
    0.6520   -1.1860    2.4140 C   0  0  0  0  0  0  0  0  0  0  0  0
    1.4610   -1.6430    3.3660 O   0  0  0  0  0  0  0  0  0  0  0  0
   -0.0280   -2.5660   -0.4880 H   0  0  0  0  0  0  0  0  0  0  0  0
   -1.4030   -2.1580    0.2980 H   0  0  0  0  0  0  0  0  0  0  0  0
   -0.4010   -2.9470    2.0100 H   0  0  0  0  0  0  0  0  0  0  0  0
    1.0770   -3.9850    0.5590 H   0  0  0  0  0  0  0  0  0  0  0  0
    1.9110   -3.5480    2.0560 H   0  0  0  0  0  0  0  0  0  0  0  0
    3.1630   -1.7330    0.8830 H   0  0  0  0  0  0  0  0  0  0  0  0
    3.3470   -3.3390    0.2010 H   0  0  0  0  0  0  0  0  0  0  0  0
    1.6560   -1.0670   -1.0020 H   0  0  0  0  0  0  0  0  0  0  0  0
    1.9660   -2.7410   -1.7540 H   0  0  0  0  0  0  0  0  0  0  0  0
    3.4900   -1.1410   -2.6240 H   0  0  0  0  0  0  0  0  0  0  0  0
    4.0160   -0.6650   -0.9410 H   0  0  0  0  0  0  0  0  0  0  0  0
    5.4080   -2.4110   -2.1040 H   0  0  0  0  0  0  0  0  0  0  0  0
    4.0340   -3.3980   -2.0720 H   0  0  0  0  0  0  0  0  0  0  0  0
    0.3560    0.1480    2.5480 N   0  0  0  0  0  0  0  0  0  0  0  0
    1.0870    0.9260    3.6490 C   0  0  0  0  0  0  0  0  0  0  0  0
    1.7010    1.9960    2.7570 C   0  0  0  0  0  0  0  0  0  0  0  0
    0.7190    2.1470    1.5720 C   0  0  0  0  0  0  0  0  0  0  0  0
   -0.4070    1.1970    2.0330 C   0  0  1  0  0  0  0  0  0  0  0  0
   -1.5290    1.1500    1.1770 C   0  0  0  0  0  0  0  0  0  0  0  0
   -1.6900    2.1400    0.3450 O   0  0  0  0  0  0  0  0  0  0  0  0
    1.7980    0.2850    4.1380 H   0  0  0  0  0  0  0  0  0  0  0  0
    0.2670    1.3020    4.2830 H   0  0  0  0  0  0  0  0  0  0  0  0
    2.6710    1.5890    2.4060 H   0  0  0  0  0  0  0  0  0  0  0  0
    1.8390    2.9550    3.2780 H   0  0  0  0  0  0  0  0  0  0  0  0
    1.2100    1.8080    0.6640 H   0  0  0  0  0  0  0  0  0  0  0  0
    0.3620    3.1860    1.4750 H   0  0  0  0  0  0  0  0  0  0  0  0
   -0.7420    1.8050    3.0130 H   0  0  0  0  0  0  0  0  0  0  0  0
   -2.5060   -0.6960   -1.7200 O   0  0  0  0  0  0  0  0  0  0  0  0
   -3.6330   -0.7970   -0.9060 C   0  0  0  0  0  0  0  0  0  0  0  0
   -3.6570    0.2480    0.1720 C   0  0  2  0  0  0  0  0  0  0  0  0
   -2.5310    0.1830    1.0840 N   0  0  0  0  0  0  0  0  0  0  0  0
   -4.9140    0.1740    0.9300 C   0  0  0  0  0  0  0  0  0  0  0  0
   -4.8970    0.0710    2.1690 O   0  0  0  0  0  0  0  0  0  0  0  0
   -6.1170    0.2180    0.2660 O   0  0  0  0  0  0  0  0  0  0  0  0
   -2.2640    0.2550   -1.8570 H   0  0  0  0  0  0  0  0  0  0  0  0
   -4.5090   -0.6680   -1.5730 H   0  0  0  0  0  0  0  0  0  0  0  0
   -3.7130   -1.8280   -0.4980 H   0  0  0  0  0  0  0  0  0  0  0  0
   -3.6640    1.2340   -0.3790 H   0  0  0  0  0  0  0  0  0  0  0  0
   -2.4720   -0.6370    1.7220 H   0  0  0  0  0  0  0  0  0  0  0  0
  1 11  1  0  0  0  0
  1  2  1  0  0  0  0
  2 12  1  1  0  0  0
  2  8  1  0  0  0  0
  3  2  1  0  0  0  0
  3 14  1  0  0  0  0
  4 15  1  0  0  0  0
  4  3  1  0  0  0  0
  5 17  1  0  0  0  0
  5  4  1  0  0  0  0
  6  5  1  0  0  0  0
  6 20  1  0  0  0  0
  7  6  1  0  0  0  0
  8 23  1  0  0  0  0
  8  9  2  0  0  0  0
 10  1  1  0  0  0  0
 13  3  1  0  0  0  0
 16  4  1  0  0  0  0
 18  5  1  0  0  0  0
 19  6  1  0  0  0  0
 21  7  1  0  0  0  0
 22  7  1  0  0  0  0
 23 24  1  0  0  0  0
 24 30  1  0  0  0  0
 24 31  1  0  0  0  0
 25 33  1  0  0  0  0
 25 24  1  0  0  0  0
 26 27  1  0  0  0  0
 26 25  1  0  0  0  0
 27 23  1  0  0  0  0
 27 36  1  1  0  0  0
 28 27  1  0  0  0  0
 29 28  2  0  0  0  0
 32 25  1  0  0  0  0
 34 26  1  0  0  0  0
 35 26  1  0  0  0  0
 37 38  1  0  0  0  0
 38 46  1  0  0  0  0
 38 39  1  0  0  0  0
 39 47  1  6  0  0  0
 39 41  1  0  0  0  0
 39 40  1  0  0  0  0
 40 28  1  0  0  0  0
 40 48  1  0  0  0  0
 41 42  1  0  0  0  0
 43 41  2  0  0  0  0
 44 37  1  0  0  0  0
 45 38  1  0  0  0  0
M  END
$$$$
