KPT.pdb
 OpenBabel07022418523D

 51 51  0  0  1  0  0  0  0  0999 V2000
    2.0260   -2.2940    3.9870 N   0  0  0  0  0  0  0  0  0  0  0  0
    2.0430   -1.1650    3.0110 C   0  0  1  0  0  0  0  0  0  0  0  0
    2.8400   -1.7390    1.8450 C   0  0  0  0  0  0  0  0  0  0  0  0
    3.0370   -0.8230    0.6980 C   0  0  0  0  0  0  0  0  0  0  0  0
    3.8230   -1.5670   -0.3910 C   0  0  0  0  0  0  0  0  0  0  0  0
    5.1660   -2.0230    0.0830 C   0  0  0  0  0  0  0  0  0  0  0  0
    5.7920   -2.7030   -1.0600 N   0  0  0  0  0  0  0  0  0  0  0  0
    0.6520   -0.8410    2.6430 C   0  0  0  0  0  0  0  0  0  0  0  0
   -0.1900   -1.7710    2.6570 O   0  0  0  0  0  0  0  0  0  0  0  0
    1.4220   -1.9460    4.7590 H   0  0  0  0  0  0  0  0  0  0  0  0
    1.5460   -3.1170    3.5730 H   0  0  0  0  0  0  0  0  0  0  0  0
    2.5730   -0.3480    3.4570 H   0  0  0  0  0  0  0  0  0  0  0  0
    3.8320   -2.0060    2.2860 H   0  0  0  0  0  0  0  0  0  0  0  0
    2.3730   -2.7040    1.5730 H   0  0  0  0  0  0  0  0  0  0  0  0
    3.5960    0.0990    0.9870 H   0  0  0  0  0  0  0  0  0  0  0  0
    2.0610   -0.5640    0.2450 H   0  0  0  0  0  0  0  0  0  0  0  0
    3.1940   -2.4600   -0.6550 H   0  0  0  0  0  0  0  0  0  0  0  0
    3.9320   -0.8970   -1.2620 H   0  0  0  0  0  0  0  0  0  0  0  0
    5.0560   -2.7870    0.8880 H   0  0  0  0  0  0  0  0  0  0  0  0
    5.7510   -1.1420    0.4020 H   0  0  0  0  0  0  0  0  0  0  0  0
    5.6160   -2.0750   -1.8820 H   0  0  0  0  0  0  0  0  0  0  0  0
    5.1930   -3.5710   -1.2020 H   0  0  0  0  0  0  0  0  0  0  0  0
    0.1790    0.4710    2.2680 N   0  0  0  0  0  0  0  0  0  0  0  0
    0.9760    1.6620    2.2590 C   0  0  0  0  0  0  0  0  0  0  0  0
    0.2630    2.5340    1.2280 C   0  0  0  0  0  0  0  0  0  0  0  0
   -1.2140    2.1760    1.4830 C   0  0  0  0  0  0  0  0  0  0  0  0
   -1.1710    0.7370    1.8540 C   0  0  1  0  0  0  0  0  0  0  0  0
   -1.5260   -0.1530    0.7160 C   0  0  0  0  0  0  0  0  0  0  0  0
   -0.6590   -0.9220    0.2480 O   0  0  0  0  0  0  0  0  0  0  0  0
    0.9530    2.1620    3.2630 H   0  0  0  0  0  0  0  0  0  0  0  0
    2.0220    1.4780    2.0240 H   0  0  0  0  0  0  0  0  0  0  0  0
    0.4820    3.5790    1.4830 H   0  0  0  0  0  0  0  0  0  0  0  0
    0.5860    2.2860    0.2200 H   0  0  0  0  0  0  0  0  0  0  0  0
   -1.7360    2.3830    0.5330 H   0  0  0  0  0  0  0  0  0  0  0  0
   -1.5550    2.8500    2.2930 H   0  0  0  0  0  0  0  0  0  0  0  0
   -1.8950    0.5020    2.6740 H   0  0  0  0  0  0  0  0  0  0  0  0
   -5.6310   -1.1440   -0.4530 C   0  0  0  0  0  0  0  0  0  0  0  0
   -4.3510   -1.9200   -0.6870 C   0  0  1  0  0  0  0  0  0  0  0  0
   -4.5680   -2.6700   -1.8670 O   0  0  0  0  0  0  0  0  0  0  0  0
   -3.1850   -1.0180   -0.9660 C   0  0  2  0  0  0  0  0  0  0  0  0
   -2.8160   -0.1760    0.1250 N   0  0  0  0  0  0  0  0  0  0  0  0
   -3.5600   -0.1550   -2.1240 C   0  0  0  0  0  0  0  0  0  0  0  0
   -3.5420    1.0810   -2.1040 O   0  0  0  0  0  0  0  0  0  0  0  0
   -3.9520   -0.8010   -3.2900 O   0  0  0  0  0  0  0  0  0  0  0  0
   -5.7960   -0.9290    0.6220 H   0  0  0  0  0  0  0  0  0  0  0  0
   -5.5810   -0.2200   -1.0710 H   0  0  0  0  0  0  0  0  0  0  0  0
   -6.5250   -1.7150   -0.8010 H   0  0  0  0  0  0  0  0  0  0  0  0
   -4.1550   -2.6690    0.1070 H   0  0  0  0  0  0  0  0  0  0  0  0
   -3.8740   -3.3790   -1.8490 H   0  0  0  0  0  0  0  0  0  0  0  0
   -2.3190   -1.6260   -1.2530 H   0  0  0  0  0  0  0  0  0  0  0  0
   -3.5340    0.4680    0.5220 H   0  0  0  0  0  0  0  0  0  0  0  0
  1 10  1  0  0  0  0
  2 12  1  1  0  0  0
  2  1  1  0  0  0  0
  3 13  1  0  0  0  0
  3  2  1  0  0  0  0
  4 15  1  0  0  0  0
  4  3  1  0  0  0  0
  5  6  1  0  0  0  0
  5  4  1  0  0  0  0
  6 20  1  0  0  0  0
  6 19  1  0  0  0  0
  7  6  1  0  0  0  0
  8  9  2  0  0  0  0
  8  2  1  0  0  0  0
 11  1  1  0  0  0  0
 14  3  1  0  0  0  0
 16  4  1  0  0  0  0
 17  5  1  0  0  0  0
 18  5  1  0  0  0  0
 21  7  1  0  0  0  0
 22  7  1  0  0  0  0
 23  8  1  0  0  0  0
 24 23  1  0  0  0  0
 24 30  1  0  0  0  0
 25 26  1  0  0  0  0
 25 32  1  0  0  0  0
 25 24  1  0  0  0  0
 26 27  1  0  0  0  0
 26 35  1  0  0  0  0
 27 23  1  0  0  0  0
 27 36  1  1  0  0  0
 28 27  1  0  0  0  0
 29 28  2  0  0  0  0
 31 24  1  0  0  0  0
 33 25  1  0  0  0  0
 34 26  1  0  0  0  0
 37 45  1  0  0  0  0
 38 37  1  0  0  0  0
 38 48  1  1  0  0  0
 39 49  1  0  0  0  0
 39 38  1  0  0  0  0
 40 50  1  6  0  0  0
 40 38  1  0  0  0  0
 40 41  1  0  0  0  0
 41 51  1  0  0  0  0
 41 28  1  0  0  0  0
 42 43  1  0  0  0  0
 42 40  1  0  0  0  0
 44 42  2  0  0  0  0
 46 37  1  0  0  0  0
 47 37  1  0  0  0  0
M  END
$$$$
