KPV.pdb
 OpenBabel07022418523D

 53 53  0  0  1  0  0  0  0  0999 V2000
    0.6510   -1.2760    4.6130 N   0  0  0  0  0  0  0  0  0  0  0  0
    1.2160   -0.9130    3.3040 C   0  0  1  0  0  0  0  0  0  0  0  0
    1.8600   -2.1910    2.8130 C   0  0  0  0  0  0  0  0  0  0  0  0
    2.5310   -2.1650    1.5090 C   0  0  0  0  0  0  0  0  0  0  0  0
    3.7010   -1.2670    1.3340 C   0  0  0  0  0  0  0  0  0  0  0  0
    4.8230   -1.5960    2.3140 C   0  0  0  0  0  0  0  0  0  0  0  0
    5.2630   -2.9620    2.1030 N   0  0  0  0  0  0  0  0  0  0  0  0
    0.1210   -0.4810    2.4090 C   0  0  0  0  0  0  0  0  0  0  0  0
   -0.9110   -1.1750    2.3320 O   0  0  0  0  0  0  0  0  0  0  0  0
   -0.0930   -1.9880    4.5190 H   0  0  0  0  0  0  0  0  0  0  0  0
    1.3780   -1.4790    5.3040 H   0  0  0  0  0  0  0  0  0  0  0  0
    1.9770   -0.1640    3.4600 H   0  0  0  0  0  0  0  0  0  0  0  0
    1.0370   -2.9650    2.7610 H   0  0  0  0  0  0  0  0  0  0  0  0
    2.5080   -2.5540    3.6490 H   0  0  0  0  0  0  0  0  0  0  0  0
    2.8480   -3.1960    1.1830 H   0  0  0  0  0  0  0  0  0  0  0  0
    1.7760   -1.8760    0.7350 H   0  0  0  0  0  0  0  0  0  0  0  0
    4.1510   -1.5510    0.3240 H   0  0  0  0  0  0  0  0  0  0  0  0
    3.5310   -0.2050    1.2730 H   0  0  0  0  0  0  0  0  0  0  0  0
    4.5520   -1.3780    3.3470 H   0  0  0  0  0  0  0  0  0  0  0  0
    5.6730   -0.9430    2.0280 H   0  0  0  0  0  0  0  0  0  0  0  0
    5.2860   -3.1160    1.0670 H   0  0  0  0  0  0  0  0  0  0  0  0
    4.6740   -3.6530    2.6040 H   0  0  0  0  0  0  0  0  0  0  0  0
    0.1890    0.7170    1.6180 N   0  0  0  0  0  0  0  0  0  0  0  0
    1.2590    1.6940    1.6690 C   0  0  0  0  0  0  0  0  0  0  0  0
    1.3950    2.0320    0.1930 C   0  0  0  0  0  0  0  0  0  0  0  0
   -0.0910    2.1820   -0.1940 C   0  0  0  0  0  0  0  0  0  0  0  0
   -0.7780    1.1430    0.6460 C   0  0  1  0  0  0  0  0  0  0  0  0
   -1.2670    0.0300   -0.2340 C   0  0  0  0  0  0  0  0  0  0  0  0
   -0.7600   -1.1100   -0.2060 O   0  0  0  0  0  0  0  0  0  0  0  0
    0.7920    2.6040    2.1320 H   0  0  0  0  0  0  0  0  0  0  0  0
    2.1630    1.3920    2.1630 H   0  0  0  0  0  0  0  0  0  0  0  0
    1.9610    2.9490    0.0250 H   0  0  0  0  0  0  0  0  0  0  0  0
    1.8650    1.1810   -0.3070 H   0  0  0  0  0  0  0  0  0  0  0  0
   -0.4020    3.2080    0.0690 H   0  0  0  0  0  0  0  0  0  0  0  0
   -0.1400    1.9760   -1.2790 H   0  0  0  0  0  0  0  0  0  0  0  0
   -1.6310    1.6540    1.1430 H   0  0  0  0  0  0  0  0  0  0  0  0
   -4.3180   -1.5370   -0.2140 C   0  0  0  0  0  0  0  0  0  0  0  0
   -4.3220   -1.0220   -1.6550 C   0  0  0  0  0  0  0  0  0  0  0  0
   -4.7660   -2.1830   -2.5230 C   0  0  0  0  0  0  0  0  0  0  0  0
   -2.8840   -0.7200   -2.0130 C   0  0  2  0  0  0  0  0  0  0  0  0
   -2.3310    0.2950   -1.1130 N   0  0  0  0  0  0  0  0  0  0  0  0
   -2.7210   -0.3400   -3.4200 C   0  0  0  0  0  0  0  0  0  0  0  0
   -2.1680    0.7330   -3.7150 O   0  0  0  0  0  0  0  0  0  0  0  0
   -3.1840   -1.1800   -4.4160 O   0  0  0  0  0  0  0  0  0  0  0  0
   -4.0550   -0.7320    0.4940 H   0  0  0  0  0  0  0  0  0  0  0  0
   -3.6180   -2.3910   -0.1780 H   0  0  0  0  0  0  0  0  0  0  0  0
   -5.3390   -1.9300   -0.0320 H   0  0  0  0  0  0  0  0  0  0  0  0
   -4.9740   -0.1340   -1.7660 H   0  0  0  0  0  0  0  0  0  0  0  0
   -5.4900   -2.7980   -1.9490 H   0  0  0  0  0  0  0  0  0  0  0  0
   -5.2190   -1.8410   -3.4750 H   0  0  0  0  0  0  0  0  0  0  0  0
   -3.8730   -2.8250   -2.6870 H   0  0  0  0  0  0  0  0  0  0  0  0
   -2.3010   -1.6460   -1.8330 H   0  0  0  0  0  0  0  0  0  0  0  0
   -2.7440    1.2560   -1.1230 H   0  0  0  0  0  0  0  0  0  0  0  0
  1 11  1  0  0  0  0
  2 12  1  1  0  0  0
  2  1  1  0  0  0  0
  3  2  1  0  0  0  0
  3 14  1  0  0  0  0
  4  3  1  0  0  0  0
  5  4  1  0  0  0  0
  5  6  1  0  0  0  0
  6 19  1  0  0  0  0
  7  6  1  0  0  0  0
  7 22  1  0  0  0  0
  8  2  1  0  0  0  0
  9  8  2  0  0  0  0
 10  1  1  0  0  0  0
 13  3  1  0  0  0  0
 15  4  1  0  0  0  0
 16  4  1  0  0  0  0
 17  5  1  0  0  0  0
 18  5  1  0  0  0  0
 20  6  1  0  0  0  0
 21  7  1  0  0  0  0
 23 24  1  0  0  0  0
 23  8  1  0  0  0  0
 24 30  1  0  0  0  0
 24 31  1  0  0  0  0
 25 24  1  0  0  0  0
 26 34  1  0  0  0  0
 26 25  1  0  0  0  0
 26 27  1  0  0  0  0
 27 36  1  1  0  0  0
 27 23  1  0  0  0  0
 28 29  2  0  0  0  0
 28 27  1  0  0  0  0
 32 25  1  0  0  0  0
 33 25  1  0  0  0  0
 35 26  1  0  0  0  0
 37 46  1  0  0  0  0
 37 47  1  0  0  0  0
 37 45  1  0  0  0  0
 38 37  1  0  0  0  0
 39 49  1  0  0  0  0
 39 38  1  0  0  0  0
 40 52  1  1  0  0  0
 40 38  1  0  0  0  0
 40 41  1  0  0  0  0
 41 28  1  0  0  0  0
 42 40  1  0  0  0  0
 43 42  1  0  0  0  0
 44 42  2  0  0  0  0
 48 38  1  0  0  0  0
 50 39  1  0  0  0  0
 51 39  1  0  0  0  0
 53 41  1  0  0  0  0
M  END
$$$$
