KPY.pdb
 OpenBabel07022418523D

 58 59  0  0  1  0  0  0  0  0999 V2000
    0.9650    1.8980    0.8200 N   0  0  0  0  0  0  0  0  0  0  0  0
    0.9110    1.4230   -0.5250 C   0  0  1  0  0  0  0  0  0  0  0  0
    1.9270    0.3330   -0.7930 C   0  0  0  0  0  0  0  0  0  0  0  0
    3.3370    0.8140   -0.5560 C   0  0  0  0  0  0  0  0  0  0  0  0
    4.2890   -0.3150   -0.8140 C   0  0  0  0  0  0  0  0  0  0  0  0
    4.2150   -0.8340   -2.2160 C   0  0  0  0  0  0  0  0  0  0  0  0
    5.1880   -1.9290   -2.4000 N   0  0  0  0  0  0  0  0  0  0  0  0
   -0.4470    1.0470   -0.9940 C   0  0  0  0  0  0  0  0  0  0  0  0
   -0.5580    0.5330   -2.1400 O   0  0  0  0  0  0  0  0  0  0  0  0
    1.1540    2.9220    0.9040 H   0  0  0  0  0  0  0  0  0  0  0  0
    1.6070    1.3150    1.3690 H   0  0  0  0  0  0  0  0  0  0  0  0
    1.2620    2.2880   -1.1670 H   0  0  0  0  0  0  0  0  0  0  0  0
    1.8710    0.0640   -1.8940 H   0  0  0  0  0  0  0  0  0  0  0  0
    1.7720   -0.5930   -0.2600 H   0  0  0  0  0  0  0  0  0  0  0  0
    3.4570    1.2540    0.4540 H   0  0  0  0  0  0  0  0  0  0  0  0
    3.5520    1.5920   -1.3340 H   0  0  0  0  0  0  0  0  0  0  0  0
    4.0870   -1.1960   -0.1460 H   0  0  0  0  0  0  0  0  0  0  0  0
    5.3110    0.0160   -0.5320 H   0  0  0  0  0  0  0  0  0  0  0  0
    3.2200   -1.3020   -2.3980 H   0  0  0  0  0  0  0  0  0  0  0  0
    4.4150    0.0020   -2.9130 H   0  0  0  0  0  0  0  0  0  0  0  0
    5.9650   -1.5160   -2.9690 H   0  0  0  0  0  0  0  0  0  0  0  0
    5.5710   -2.1940   -1.4430 H   0  0  0  0  0  0  0  0  0  0  0  0
   -1.6190    1.2350   -0.2270 N   0  0  0  0  0  0  0  0  0  0  0  0
   -2.9530    0.8420   -0.7480 C   0  0  0  0  0  0  0  0  0  0  0  0
   -3.7450    2.0750   -0.2970 C   0  0  0  0  0  0  0  0  0  0  0  0
   -3.2670    2.2300    1.1160 C   0  0  0  0  0  0  0  0  0  0  0  0
   -1.8210    1.7960    1.0760 C   0  0  1  0  0  0  0  0  0  0  0  0
   -1.5470    0.8760    2.2020 C   0  0  0  0  0  0  0  0  0  0  0  0
   -1.7130    1.3580    3.3590 O   0  0  0  0  0  0  0  0  0  0  0  0
   -2.9480    0.7170   -1.8300 H   0  0  0  0  0  0  0  0  0  0  0  0
   -3.3460   -0.0170   -0.1710 H   0  0  0  0  0  0  0  0  0  0  0  0
   -4.8330    1.8910   -0.3710 H   0  0  0  0  0  0  0  0  0  0  0  0
   -3.4130    2.9270   -0.8920 H   0  0  0  0  0  0  0  0  0  0  0  0
   -3.3710    3.3010    1.4330 H   0  0  0  0  0  0  0  0  0  0  0  0
   -3.8740    1.5690    1.7800 H   0  0  0  0  0  0  0  0  0  0  0  0
   -1.2130    2.7170    1.2580 H   0  0  0  0  0  0  0  0  0  0  0  0
   -1.2380   -5.9880   -1.1670 O   0  0  0  0  0  0  0  0  0  0  0  0
   -1.3680   -5.1270   -0.0610 C   0  0  0  0  0  0  0  0  0  0  0  0
   -2.2840   -4.0920   -0.0830 C   0  0  0  0  0  0  0  0  0  0  0  0
   -2.4380   -3.2200    0.9950 C   0  0  0  0  0  0  0  0  0  0  0  0
   -1.6560   -3.3980    2.1100 C   0  0  0  0  0  0  0  0  0  0  0  0
   -1.7910   -2.5060    3.2520 C   0  0  0  0  0  0  0  0  0  0  0  0
   -0.8910   -1.2910    3.1980 C   0  0  2  0  0  0  0  0  0  0  0  0
   -1.1250   -0.4690    2.0580 N   0  0  0  0  0  0  0  0  0  0  0  0
    0.5290   -1.6810    3.3150 C   0  0  0  0  0  0  0  0  0  0  0  0
    0.9660   -2.4060    4.2490 O   0  0  0  0  0  0  0  0  0  0  0  0
   -0.7470   -4.4230    2.1330 C   0  0  0  0  0  0  0  0  0  0  0  0
   -0.5870   -5.2970    1.0620 C   0  0  0  0  0  0  0  0  0  0  0  0
    1.4240   -1.2350    2.3630 O   0  0  0  0  0  0  0  0  0  0  0  0
   -1.2100   -5.5570   -2.0630 H   0  0  0  0  0  0  0  0  0  0  0  0
   -2.8890   -3.9700   -0.9690 H   0  0  0  0  0  0  0  0  0  0  0  0
   -3.1830   -2.4120    0.9260 H   0  0  0  0  0  0  0  0  0  0  0  0
   -1.6000   -3.0070    4.2390 H   0  0  0  0  0  0  0  0  0  0  0  0
   -2.8490   -2.1680    3.3030 H   0  0  0  0  0  0  0  0  0  0  0  0
   -1.1010   -0.6700    4.1190 H   0  0  0  0  0  0  0  0  0  0  0  0
   -0.9980   -0.8160    1.0850 H   0  0  0  0  0  0  0  0  0  0  0  0
   -0.1200   -4.5890    2.9900 H   0  0  0  0  0  0  0  0  0  0  0  0
    0.1280   -6.1090    1.0730 H   0  0  0  0  0  0  0  0  0  0  0  0
  1 10  1  0  0  0  0
  1 11  1  0  0  0  0
  2 12  1  6  0  0  0
  2  1  1  0  0  0  0
  3  4  1  0  0  0  0
  3  2  1  0  0  0  0
  3 14  1  0  0  0  0
  4 15  1  0  0  0  0
  5  4  1  0  0  0  0
  5 18  1  0  0  0  0
  5 17  1  0  0  0  0
  6  5  1  0  0  0  0
  7  6  1  0  0  0  0
  7 22  1  0  0  0  0
  8  2  1  0  0  0  0
  8 23  1  0  0  0  0
  9  8  2  0  0  0  0
 13  3  1  0  0  0  0
 16  4  1  0  0  0  0
 19  6  1  0  0  0  0
 20  6  1  0  0  0  0
 21  7  1  0  0  0  0
 23 27  1  0  0  0  0
 24 25  1  0  0  0  0
 24 23  1  0  0  0  0
 24 31  1  0  0  0  0
 25 26  1  0  0  0  0
 26 34  1  0  0  0  0
 26 35  1  0  0  0  0
 27 26  1  0  0  0  0
 27 36  1  1  0  0  0
 27 28  1  0  0  0  0
 28 29  2  0  0  0  0
 30 24  1  0  0  0  0
 32 25  1  0  0  0  0
 33 25  1  0  0  0  0
 37 38  1  0  0  0  0
 38 48  1  0  0  0  0
 39 38  2  0  0  0  0
 39 40  1  0  0  0  0
 40 41  2  0  0  0  0
 41 47  1  0  0  0  0
 41 42  1  0  0  0  0
 42 54  1  0  0  0  0
 42 53  1  0  0  0  0
 43 42  1  0  0  0  0
 43 45  1  0  0  0  0
 43 55  1  1  0  0  0
 44 28  1  0  0  0  0
 44 43  1  0  0  0  0
 45 46  1  0  0  0  0
 47 57  1  0  0  0  0
 48 58  1  0  0  0  0
 48 47  2  0  0  0  0
 49 45  2  0  0  0  0
 50 37  1  0  0  0  0
 51 39  1  0  0  0  0
 52 40  1  0  0  0  0
 56 44  1  0  0  0  0
M  END
$$$$
