KQA.pdb
 OpenBabel07022418503D

 50 49  0  0  1  0  0  0  0  0999 V2000
    0.4140    1.0400    3.7580 N   0  0  0  0  0  0  0  0  0  0  0  0
   -0.4790    0.5160    2.7610 C   0  0  1  0  0  0  0  0  0  0  0  0
   -0.7780    1.4750    1.6720 C   0  0  0  0  0  0  0  0  0  0  0  0
    0.3490    1.9670    0.8530 C   0  0  0  0  0  0  0  0  0  0  0  0
    1.4130    2.7070    1.6110 C   0  0  0  0  0  0  0  0  0  0  0  0
    2.5160    3.1860    0.6420 C   0  0  0  0  0  0  0  0  0  0  0  0
    1.9250    4.0620   -0.3370 N   0  0  0  0  0  0  0  0  0  0  0  0
   -0.0190   -0.8120    2.2520 C   0  0  0  0  0  0  0  0  0  0  0  0
    1.0430   -1.3590    2.6770 O   0  0  0  0  0  0  0  0  0  0  0  0
    0.8520    0.2920    4.3400 H   0  0  0  0  0  0  0  0  0  0  0  0
   -0.1300    1.6460    4.4110 H   0  0  0  0  0  0  0  0  0  0  0  0
   -1.4500    0.3240    3.3100 H   0  0  0  0  0  0  0  0  0  0  0  0
   -1.5600    1.0360    0.9820 H   0  0  0  0  0  0  0  0  0  0  0  0
   -1.3060    2.3840    2.0960 H   0  0  0  0  0  0  0  0  0  0  0  0
    0.8650    1.1780    0.2650 H   0  0  0  0  0  0  0  0  0  0  0  0
   -0.0260    2.6840    0.0670 H   0  0  0  0  0  0  0  0  0  0  0  0
    1.9310    2.0790    2.3720 H   0  0  0  0  0  0  0  0  0  0  0  0
    1.0440    3.6200    2.1160 H   0  0  0  0  0  0  0  0  0  0  0  0
    3.0320    2.3200    0.1940 H   0  0  0  0  0  0  0  0  0  0  0  0
    3.2460    3.7200    1.3020 H   0  0  0  0  0  0  0  0  0  0  0  0
    2.5440    4.8570   -0.6120 H   0  0  0  0  0  0  0  0  0  0  0  0
    1.6530    3.4930   -1.1840 H   0  0  0  0  0  0  0  0  0  0  0  0
   -0.9380   -4.8030    4.6470 N   0  0  0  0  0  0  0  0  0  0  0  0
   -0.6660   -4.6110    3.2660 C   0  0  0  0  0  0  0  0  0  0  0  0
    0.4700   -4.8190    2.7820 O   0  0  0  0  0  0  0  0  0  0  0  0
   -1.7500   -4.1540    2.3710 C   0  0  0  0  0  0  0  0  0  0  0  0
   -1.3530   -3.8890    0.9680 C   0  0  0  0  0  0  0  0  0  0  0  0
   -0.3170   -2.8200    0.7650 C   0  0  2  0  0  0  0  0  0  0  0  0
   -0.7450   -1.5340    1.2670 N   0  0  0  0  0  0  0  0  0  0  0  0
   -0.0770   -2.6880   -0.6950 C   0  0  0  0  0  0  0  0  0  0  0  0
    0.2910   -3.7280   -1.2990 O   0  0  0  0  0  0  0  0  0  0  0  0
   -0.3530   -4.2430    5.3220 H   0  0  0  0  0  0  0  0  0  0  0  0
   -1.6560   -5.4440    5.0190 H   0  0  0  0  0  0  0  0  0  0  0  0
   -2.4810   -5.0180    2.3330 H   0  0  0  0  0  0  0  0  0  0  0  0
   -2.3420   -3.3340    2.8340 H   0  0  0  0  0  0  0  0  0  0  0  0
   -2.2950   -3.6170    0.4070 H   0  0  0  0  0  0  0  0  0  0  0  0
   -1.0320   -4.8470    0.5120 H   0  0  0  0  0  0  0  0  0  0  0  0
    0.6300   -3.1600    1.2070 H   0  0  0  0  0  0  0  0  0  0  0  0
   -1.6250   -1.1320    0.8790 H   0  0  0  0  0  0  0  0  0  0  0  0
   -1.1640   -0.9610   -3.6510 C   0  0  0  0  0  0  0  0  0  0  0  0
    0.0150   -1.4230   -2.8680 C   0  0  2  0  0  0  0  0  0  0  0  0
   -0.2270   -1.5100   -1.4420 N   0  0  0  0  0  0  0  0  0  0  0  0
    1.1590   -0.5090   -3.0870 C   0  0  0  0  0  0  0  0  0  0  0  0
    1.5760   -0.2540   -4.2660 O   0  0  0  0  0  0  0  0  0  0  0  0
    1.8410    0.1170   -2.0640 O   0  0  0  0  0  0  0  0  0  0  0  0
   -0.9700   -1.1910   -4.7250 H   0  0  0  0  0  0  0  0  0  0  0  0
   -2.0980   -1.4850   -3.3900 H   0  0  0  0  0  0  0  0  0  0  0  0
   -1.2860    0.1550   -3.6170 H   0  0  0  0  0  0  0  0  0  0  0  0
    0.2960   -2.4440   -3.2050 H   0  0  0  0  0  0  0  0  0  0  0  0
   -0.5270   -0.6500   -0.9530 H   0  0  0  0  0  0  0  0  0  0  0  0
  1 10  1  0  0  0  0
  1 11  1  0  0  0  0
  2 12  1  1  0  0  0
  2  1  1  0  0  0  0
  3 14  1  0  0  0  0
  3  2  1  0  0  0  0
  4  5  1  0  0  0  0
  4  3  1  0  0  0  0
  5 18  1  0  0  0  0
  5 17  1  0  0  0  0
  6 20  1  0  0  0  0
  6  5  1  0  0  0  0
  7  6  1  0  0  0  0
  8  9  2  0  0  0  0
  8  2  1  0  0  0  0
 13  3  1  0  0  0  0
 15  4  1  0  0  0  0
 16  4  1  0  0  0  0
 19  6  1  0  0  0  0
 21  7  1  0  0  0  0
 22  7  1  0  0  0  0
 23 33  1  0  0  0  0
 23 32  1  0  0  0  0
 24 23  1  0  0  0  0
 25 24  2  0  0  0  0
 26 35  1  0  0  0  0
 26 24  1  0  0  0  0
 27 26  1  0  0  0  0
 28 27  1  0  0  0  0
 28 38  1  1  0  0  0
 28 29  1  0  0  0  0
 29  8  1  0  0  0  0
 30 28  1  0  0  0  0
 31 30  2  0  0  0  0
 34 26  1  0  0  0  0
 36 27  1  0  0  0  0
 37 27  1  0  0  0  0
 39 29  1  0  0  0  0
 40 48  1  0  0  0  0
 40 47  1  0  0  0  0
 40 41  1  0  0  0  0
 41 49  1  6  0  0  0
 41 42  1  0  0  0  0
 42 50  1  0  0  0  0
 42 30  1  0  0  0  0
 43 41  1  0  0  0  0
 43 45  1  0  0  0  0
 44 43  2  0  0  0  0
 46 40  1  0  0  0  0
M  END
$$$$
