KQC.pdb
 OpenBabel07022418503D

 51 50  0  0  1  0  0  0  0  0999 V2000
    0.7240   -2.4810    4.9420 N   0  0  0  0  0  0  0  0  0  0  0  0
    1.2320   -2.0380    3.5740 C   0  0  1  0  0  0  0  0  0  0  0  0
    1.7450   -3.2720    2.9740 C   0  0  0  0  0  0  0  0  0  0  0  0
    2.3710   -3.4150    1.6920 C   0  0  0  0  0  0  0  0  0  0  0  0
    1.7730   -3.1010    0.4020 C   0  0  0  0  0  0  0  0  0  0  0  0
    2.7920   -3.4410   -0.7200 C   0  0  0  0  0  0  0  0  0  0  0  0
    3.9900   -2.6420   -0.5120 N   0  0  0  0  0  0  0  0  0  0  0  0
   -0.0080   -1.4970    2.9680 C   0  0  0  0  0  0  0  0  0  0  0  0
   -1.1710   -1.8580    3.3930 O   0  0  0  0  0  0  0  0  0  0  0  0
   -0.1130   -3.0810    4.7800 H   0  0  0  0  0  0  0  0  0  0  0  0
    1.4820   -3.1090    5.3150 H   0  0  0  0  0  0  0  0  0  0  0  0
    1.9570   -1.2790    3.8620 H   0  0  0  0  0  0  0  0  0  0  0  0
    0.8750   -4.0210    3.0780 H   0  0  0  0  0  0  0  0  0  0  0  0
    2.4540   -3.7440    3.7480 H   0  0  0  0  0  0  0  0  0  0  0  0
    2.7200   -4.5050    1.6000 H   0  0  0  0  0  0  0  0  0  0  0  0
    3.4010   -2.9080    1.6870 H   0  0  0  0  0  0  0  0  0  0  0  0
    0.8770   -3.7030    0.1590 H   0  0  0  0  0  0  0  0  0  0  0  0
    1.5410   -2.0540    0.1840 H   0  0  0  0  0  0  0  0  0  0  0  0
    2.3400   -3.2930   -1.7000 H   0  0  0  0  0  0  0  0  0  0  0  0
    3.0860   -4.5020   -0.5730 H   0  0  0  0  0  0  0  0  0  0  0  0
    3.7000   -1.7740    0.0130 H   0  0  0  0  0  0  0  0  0  0  0  0
    4.4610   -2.3850   -1.4000 H   0  0  0  0  0  0  0  0  0  0  0  0
    0.5230    4.6510    1.2200 N   0  0  0  0  0  0  0  0  0  0  0  0
   -0.4240    3.6670    1.6080 C   0  0  0  0  0  0  0  0  0  0  0  0
   -1.4060    4.0170    2.2850 O   0  0  0  0  0  0  0  0  0  0  0  0
   -0.2490    2.2460    1.2150 C   0  0  0  0  0  0  0  0  0  0  0  0
   -1.3890    1.4140    1.7540 C   0  0  0  0  0  0  0  0  0  0  0  0
   -1.2400   -0.0490    1.3680 C   0  0  2  0  0  0  0  0  0  0  0  0
   -0.0110   -0.5550    1.9050 N   0  0  0  0  0  0  0  0  0  0  0  0
   -1.4620   -0.2680   -0.0620 C   0  0  0  0  0  0  0  0  0  0  0  0
   -0.6360   -0.8480   -0.7770 O   0  0  0  0  0  0  0  0  0  0  0  0
    1.3060    4.8280    1.8960 H   0  0  0  0  0  0  0  0  0  0  0  0
    0.4770    5.1860    0.3260 H   0  0  0  0  0  0  0  0  0  0  0  0
    0.7010    1.9050    1.6680 H   0  0  0  0  0  0  0  0  0  0  0  0
   -0.1440    2.1970    0.1320 H   0  0  0  0  0  0  0  0  0  0  0  0
   -1.3820    1.4720    2.8510 H   0  0  0  0  0  0  0  0  0  0  0  0
   -2.3560    1.7610    1.3510 H   0  0  0  0  0  0  0  0  0  0  0  0
   -2.0890   -0.5590    1.8990 H   0  0  0  0  0  0  0  0  0  0  0  0
    0.9290   -0.2420    1.5400 H   0  0  0  0  0  0  0  0  0  0  0  0
   -2.6680    0.1890   -0.7110 N   0  0  0  0  0  0  0  0  0  0  0  0
   -2.8170   -0.0630   -2.1220 C   0  0  1  0  0  0  0  0  0  0  0  0
   -1.7920    0.7270   -2.8940 C   0  0  0  0  0  0  0  0  0  0  0  0
   -2.0590    2.4890   -2.5460 S   0  0  0  0  0  0  0  0  0  0  0  0
   -2.7490   -1.5190   -2.4390 C   0  0  0  0  0  0  0  0  0  0  0  0
   -2.5910   -2.4060   -1.5640 O   0  0  0  0  0  0  0  0  0  0  0  0
   -2.8640   -1.9290   -3.7590 O   0  0  0  0  0  0  0  0  0  0  0  0
   -3.3760    0.6830   -0.1190 H   0  0  0  0  0  0  0  0  0  0  0  0
   -3.8130    0.3250   -2.4600 H   0  0  0  0  0  0  0  0  0  0  0  0
   -0.7540    0.4490   -2.7080 H   0  0  0  0  0  0  0  0  0  0  0  0
   -1.9690    0.5980   -3.9870 H   0  0  0  0  0  0  0  0  0  0  0  0
   -3.4370    2.7410   -2.3590 H   0  0  0  0  0  0  0  0  0  0  0  0
  1 11  1  0  0  0  0
  2 12  1  1  0  0  0
  2  1  1  0  0  0  0
  3 13  1  0  0  0  0
  3  2  1  0  0  0  0
  3 14  1  0  0  0  0
  4  3  1  0  0  0  0
  5  4  1  0  0  0  0
  6 20  1  0  0  0  0
  6  7  1  0  0  0  0
  6  5  1  0  0  0  0
  7 21  1  0  0  0  0
  8  9  2  0  0  0  0
  8  2  1  0  0  0  0
 10  1  1  0  0  0  0
 15  4  1  0  0  0  0
 16  4  1  0  0  0  0
 17  5  1  0  0  0  0
 18  5  1  0  0  0  0
 19  6  1  0  0  0  0
 22  7  1  0  0  0  0
 23 24  1  0  0  0  0
 23 32  1  0  0  0  0
 24 25  2  0  0  0  0
 26 24  1  0  0  0  0
 26 34  1  0  0  0  0
 26 27  1  0  0  0  0
 27 36  1  0  0  0  0
 28 27  1  0  0  0  0
 28 38  1  1  0  0  0
 28 29  1  0  0  0  0
 29  8  1  0  0  0  0
 30 28  1  0  0  0  0
 31 30  2  0  0  0  0
 33 23  1  0  0  0  0
 35 26  1  0  0  0  0
 37 27  1  0  0  0  0
 39 29  1  0  0  0  0
 40 47  1  0  0  0  0
 40 30  1  0  0  0  0
 41 48  1  6  0  0  0
 41 40  1  0  0  0  0
 42 49  1  0  0  0  0
 42 43  1  0  0  0  0
 42 41  1  0  0  0  0
 43 51  1  0  0  0  0
 44 41  1  0  0  0  0
 44 45  1  0  0  0  0
 46 44  2  0  0  0  0
 50 42  1  0  0  0  0
M  END
$$$$
