KQF.pdb
 OpenBabel07022418503D

 60 60  0  0  1  0  0  0  0  0999 V2000
    1.3680   -0.0050    4.6280 N   0  0  0  0  0  0  0  0  0  0  0  0
    0.4210    1.0790    4.3800 C   0  0  1  0  0  0  0  0  0  0  0  0
    0.9160    2.3900    4.8540 C   0  0  0  0  0  0  0  0  0  0  0  0
    2.1860    2.9020    4.2790 C   0  0  0  0  0  0  0  0  0  0  0  0
    2.2020    3.1300    2.8040 C   0  0  0  0  0  0  0  0  0  0  0  0
    3.5550    3.6730    2.3490 C   0  0  0  0  0  0  0  0  0  0  0  0
    3.5500    3.8870    0.9250 N   0  0  0  0  0  0  0  0  0  0  0  0
    0.0080    1.0720    2.9640 C   0  0  0  0  0  0  0  0  0  0  0  0
   -0.7090    1.9870    2.4780 O   0  0  0  0  0  0  0  0  0  0  0  0
    0.8480   -0.8930    4.4410 H   0  0  0  0  0  0  0  0  0  0  0  0
    2.1120    0.0860    3.9020 H   0  0  0  0  0  0  0  0  0  0  0  0
   -0.5200    0.7710    4.9450 H   0  0  0  0  0  0  0  0  0  0  0  0
    0.1200    3.1660    4.7000 H   0  0  0  0  0  0  0  0  0  0  0  0
    1.0550    2.2920    5.9770 H   0  0  0  0  0  0  0  0  0  0  0  0
    2.3690    3.9160    4.7530 H   0  0  0  0  0  0  0  0  0  0  0  0
    3.0830    2.3110    4.6220 H   0  0  0  0  0  0  0  0  0  0  0  0
    2.0090    2.2410    2.1960 H   0  0  0  0  0  0  0  0  0  0  0  0
    1.4420    3.8850    2.5170 H   0  0  0  0  0  0  0  0  0  0  0  0
    3.7880    4.6410    2.8380 H   0  0  0  0  0  0  0  0  0  0  0  0
    4.3490    2.9190    2.5600 H   0  0  0  0  0  0  0  0  0  0  0  0
    4.5030    3.9440    0.5390 H   0  0  0  0  0  0  0  0  0  0  0  0
    2.9420    3.1630    0.4910 H   0  0  0  0  0  0  0  0  0  0  0  0
    2.1260    0.3490   -3.8630 N   0  0  0  0  0  0  0  0  0  0  0  0
    2.2020    0.3420   -2.4500 C   0  0  0  0  0  0  0  0  0  0  0  0
    3.2550    0.4940   -1.8060 O   0  0  0  0  0  0  0  0  0  0  0  0
    0.9220    0.1390   -1.6570 C   0  0  0  0  0  0  0  0  0  0  0  0
    1.1940    0.1610   -0.2010 C   0  0  0  0  0  0  0  0  0  0  0  0
   -0.0150    0.0240    0.6700 C   0  0  2  0  0  0  0  0  0  0  0  0
    0.3940    0.0370    2.0790 N   0  0  0  0  0  0  0  0  0  0  0  0
   -0.8210   -1.1950    0.4470 C   0  0  0  0  0  0  0  0  0  0  0  0
   -0.7890   -2.0820    1.3380 O   0  0  0  0  0  0  0  0  0  0  0  0
    3.0100    0.2560   -4.4000 H   0  0  0  0  0  0  0  0  0  0  0  0
    1.1980    0.4460   -4.3240 H   0  0  0  0  0  0  0  0  0  0  0  0
    0.2100    0.8780   -2.0430 H   0  0  0  0  0  0  0  0  0  0  0  0
    0.5500   -0.8750   -1.9670 H   0  0  0  0  0  0  0  0  0  0  0  0
    1.6090    1.1880    0.0330 H   0  0  0  0  0  0  0  0  0  0  0  0
    1.9720   -0.6030    0.0130 H   0  0  0  0  0  0  0  0  0  0  0  0
   -0.6280    0.9420    0.5250 H   0  0  0  0  0  0  0  0  0  0  0  0
    0.9830   -0.7500    2.4060 H   0  0  0  0  0  0  0  0  0  0  0  0
   -1.6240   -1.4170   -0.6990 N   0  0  0  0  0  0  0  0  0  0  0  0
   -2.4330   -2.5710   -0.9810 C   0  0  1  0  0  0  0  0  0  0  0  0
   -1.7250   -3.6230   -1.7530 C   0  0  0  0  0  0  0  0  0  0  0  0
   -2.4880   -4.8300   -2.0740 C   0  0  0  0  0  0  0  0  0  0  0  0
   -2.4510   -5.9140   -1.2340 C   0  0  0  0  0  0  0  0  0  0  0  0
   -3.1530   -7.0500   -1.5100 C   0  0  0  0  0  0  0  0  0  0  0  0
   -3.9280   -7.1560   -2.6430 C   0  0  0  0  0  0  0  0  0  0  0  0
   -3.9550   -6.0590   -3.4780 C   0  0  0  0  0  0  0  0  0  0  0  0
   -3.2520   -4.9040   -3.2140 C   0  0  0  0  0  0  0  0  0  0  0  0
   -3.2410   -3.0390    0.1600 C   0  0  0  0  0  0  0  0  0  0  0  0
   -3.2530   -2.4220    1.2500 O   0  0  0  0  0  0  0  0  0  0  0  0
   -4.0360   -4.1760    0.1120 O   0  0  0  0  0  0  0  0  0  0  0  0
   -1.6180   -0.6080   -1.3950 H   0  0  0  0  0  0  0  0  0  0  0  0
   -3.2550   -2.1550   -1.6840 H   0  0  0  0  0  0  0  0  0  0  0  0
   -1.3490   -3.2310   -2.7470 H   0  0  0  0  0  0  0  0  0  0  0  0
   -0.7690   -3.8520   -1.2060 H   0  0  0  0  0  0  0  0  0  0  0  0
   -1.8550   -5.9110   -0.3050 H   0  0  0  0  0  0  0  0  0  0  0  0
   -3.1190   -7.9120   -0.8350 H   0  0  0  0  0  0  0  0  0  0  0  0
   -4.5010   -8.0630   -2.8840 H   0  0  0  0  0  0  0  0  0  0  0  0
   -4.5830   -6.1740   -4.3750 H   0  0  0  0  0  0  0  0  0  0  0  0
   -3.3350   -4.1010   -3.9250 H   0  0  0  0  0  0  0  0  0  0  0  0
  2  1  1  0  0  0  0
  2  3  1  0  0  0  0
  2 12  1  1  0  0  0
  3 14  1  0  0  0  0
  4 16  1  0  0  0  0
  4 15  1  0  0  0  0
  4  3  1  0  0  0  0
  5  4  1  0  0  0  0
  6 20  1  0  0  0  0
  6  5  1  0  0  0  0
  6 19  1  0  0  0  0
  7  6  1  0  0  0  0
  8  2  1  0  0  0  0
  9  8  2  0  0  0  0
 10  1  1  0  0  0  0
 11  1  1  0  0  0  0
 13  3  1  0  0  0  0
 17  5  1  0  0  0  0
 18  5  1  0  0  0  0
 21  7  1  0  0  0  0
 22  7  1  0  0  0  0
 23 24  1  0  0  0  0
 24 25  2  0  0  0  0
 24 26  1  0  0  0  0
 26 27  1  0  0  0  0
 27 37  1  0  0  0  0
 27 36  1  0  0  0  0
 27 28  1  0  0  0  0
 28 38  1  6  0  0  0
 28 29  1  0  0  0  0
 29 39  1  0  0  0  0
 29  8  1  0  0  0  0
 30 28  1  0  0  0  0
 30 31  2  0  0  0  0
 32 23  1  0  0  0  0
 33 23  1  0  0  0  0
 34 26  1  0  0  0  0
 35 26  1  0  0  0  0
 40 30  1  0  0  0  0
 41 53  1  6  0  0  0
 41 40  1  0  0  0  0
 41 49  1  0  0  0  0
 42 55  1  0  0  0  0
 42 41  1  0  0  0  0
 43 42  1  0  0  0  0
 43 44  1  0  0  0  0
 44 56  1  0  0  0  0
 45 44  2  0  0  0  0
 45 57  1  0  0  0  0
 46 45  1  0  0  0  0
 47 48  1  0  0  0  0
 47 46  2  0  0  0  0
 48 43  2  0  0  0  0
 49 50  1  0  0  0  0
 51 49  2  0  0  0  0
 52 40  1  0  0  0  0
 54 42  1  0  0  0  0
 58 46  1  0  0  0  0
 59 47  1  0  0  0  0
 60 48  1  0  0  0  0
M  END
$$$$
