KQG.pdb
 OpenBabel07022418503D

 47 46  0  0  1  0  0  0  0  0999 V2000
   -0.2460   -4.6600    1.2360 N   0  0  0  0  0  0  0  0  0  0  0  0
    0.7280   -3.6150    0.8240 C   0  0  1  0  0  0  0  0  0  0  0  0
    1.1050   -3.8430   -0.5830 C   0  0  0  0  0  0  0  0  0  0  0  0
    0.0460   -3.7900   -1.6100 C   0  0  0  0  0  0  0  0  0  0  0  0
   -0.5780   -2.4870   -1.9240 C   0  0  0  0  0  0  0  0  0  0  0  0
    0.3450   -1.5240   -2.6150 C   0  0  0  0  0  0  0  0  0  0  0  0
    1.5540   -1.1880   -1.9690 N   0  0  0  0  0  0  0  0  0  0  0  0
    0.3020   -2.3500    1.3440 C   0  0  0  0  0  0  0  0  0  0  0  0
   -0.8090   -2.3350    2.0170 O   0  0  0  0  0  0  0  0  0  0  0  0
   -0.2830   -4.5610    2.2930 H   0  0  0  0  0  0  0  0  0  0  0  0
    0.2680   -5.5600    1.0650 H   0  0  0  0  0  0  0  0  0  0  0  0
    1.6450   -3.9180    1.4410 H   0  0  0  0  0  0  0  0  0  0  0  0
    1.4960   -4.9170   -0.6150 H   0  0  0  0  0  0  0  0  0  0  0  0
    2.0220   -3.2570   -0.8150 H   0  0  0  0  0  0  0  0  0  0  0  0
   -0.7530   -4.5040   -1.3080 H   0  0  0  0  0  0  0  0  0  0  0  0
    0.4640   -4.2060   -2.5570 H   0  0  0  0  0  0  0  0  0  0  0  0
   -1.0340   -1.9770   -1.0440 H   0  0  0  0  0  0  0  0  0  0  0  0
   -1.4210   -2.6740   -2.6230 H   0  0  0  0  0  0  0  0  0  0  0  0
    0.5600   -1.8600   -3.6760 H   0  0  0  0  0  0  0  0  0  0  0  0
   -0.2460   -0.5730   -2.7850 H   0  0  0  0  0  0  0  0  0  0  0  0
    1.6900   -0.1270   -1.9460 H   0  0  0  0  0  0  0  0  0  0  0  0
    2.4080   -1.6100   -2.4360 H   0  0  0  0  0  0  0  0  0  0  0  0
   -0.1420    2.8450    5.3880 N   0  0  0  0  0  0  0  0  0  0  0  0
    0.2430    1.7870    4.5360 C   0  0  0  0  0  0  0  0  0  0  0  0
   -0.2560    0.6520    4.7200 O   0  0  0  0  0  0  0  0  0  0  0  0
    1.2160    1.9500    3.4290 C   0  0  0  0  0  0  0  0  0  0  0  0
    1.4580    0.7280    2.6360 C   0  0  0  0  0  0  0  0  0  0  0  0
    0.3240    0.1130    1.8980 C   0  0  2  0  0  0  0  0  0  0  0  0
    0.9070   -1.0930    1.2500 N   0  0  0  0  0  0  0  0  0  0  0  0
   -0.3430    0.9520    0.9040 C   0  0  0  0  0  0  0  0  0  0  0  0
   -0.3160    0.6780   -0.3450 O   0  0  0  0  0  0  0  0  0  0  0  0
    0.5600    3.3480    5.9650 H   0  0  0  0  0  0  0  0  0  0  0  0
   -1.1420    3.1110    5.4250 H   0  0  0  0  0  0  0  0  0  0  0  0
    1.0570    2.8750    2.8300 H   0  0  0  0  0  0  0  0  0  0  0  0
    2.1990    2.1690    3.9650 H   0  0  0  0  0  0  0  0  0  0  0  0
    2.2560    0.9590    1.8820 H   0  0  0  0  0  0  0  0  0  0  0  0
    1.9270   -0.0350    3.3070 H   0  0  0  0  0  0  0  0  0  0  0  0
   -0.4310   -0.2630    2.5940 H   0  0  0  0  0  0  0  0  0  0  0  0
    1.7840   -0.9810    0.7340 H   0  0  0  0  0  0  0  0  0  0  0  0
   -1.0700    2.1240    1.2280 N   0  0  0  0  0  0  0  0  0  0  0  0
   -1.7180    2.9350    0.2090 C   0  0  0  0  0  0  0  0  0  0  0  0
   -2.7310    2.1390   -0.5400 C   0  0  0  0  0  0  0  0  0  0  0  0
   -3.3700    2.7060   -1.4500 O   0  0  0  0  0  0  0  0  0  0  0  0
   -2.9960    0.8050   -0.2740 O   0  0  0  0  0  0  0  0  0  0  0  0
   -1.1710    2.4320    2.2110 H   0  0  0  0  0  0  0  0  0  0  0  0
   -2.2750    3.7440    0.7160 H   0  0  0  0  0  0  0  0  0  0  0  0
   -0.9890    3.4130   -0.4680 H   0  0  0  0  0  0  0  0  0  0  0  0
  1 10  1  0  0  0  0
  2  1  1  0  0  0  0
  2  8  1  0  0  0  0
  2 12  1  1  0  0  0
  3  2  1  0  0  0  0
  4 15  1  0  0  0  0
  4  3  1  0  0  0  0
  5  4  1  0  0  0  0
  5 17  1  0  0  0  0
  6  7  1  0  0  0  0
  6  5  1  0  0  0  0
  7 21  1  0  0  0  0
  8  9  2  0  0  0  0
 11  1  1  0  0  0  0
 13  3  1  0  0  0  0
 14  3  1  0  0  0  0
 16  4  1  0  0  0  0
 18  5  1  0  0  0  0
 19  6  1  0  0  0  0
 20  6  1  0  0  0  0
 22  7  1  0  0  0  0
 23 33  1  0  0  0  0
 23 32  1  0  0  0  0
 24 25  2  0  0  0  0
 24 23  1  0  0  0  0
 26 35  1  0  0  0  0
 26 24  1  0  0  0  0
 27 37  1  0  0  0  0
 27 26  1  0  0  0  0
 28 38  1  1  0  0  0
 28 27  1  0  0  0  0
 29  8  1  0  0  0  0
 29 28  1  0  0  0  0
 30 40  1  0  0  0  0
 30 28  1  0  0  0  0
 31 30  2  0  0  0  0
 34 26  1  0  0  0  0
 36 27  1  0  0  0  0
 39 29  1  0  0  0  0
 40 45  1  0  0  0  0
 41 46  1  0  0  0  0
 41 40  1  0  0  0  0
 42 44  1  0  0  0  0
 42 41  1  0  0  0  0
 43 42  2  0  0  0  0
 47 41  1  0  0  0  0
M  END
$$$$
