KQI.pdb
 OpenBabel07022418503D

 59 58  0  0  1  0  0  0  0  0999 V2000
   -0.5280   -2.2230    4.5130 N   0  0  0  0  0  0  0  0  0  0  0  0
    0.0640   -0.9370    4.1480 C   0  0  1  0  0  0  0  0  0  0  0  0
    1.4190   -1.1030    3.5540 C   0  0  0  0  0  0  0  0  0  0  0  0
    2.1280    0.1580    3.1730 C   0  0  0  0  0  0  0  0  0  0  0  0
    3.5050   -0.1140    2.6070 C   0  0  0  0  0  0  0  0  0  0  0  0
    3.5350   -0.9750    1.4010 C   0  0  0  0  0  0  0  0  0  0  0  0
    2.8360   -0.5090    0.2550 N   0  0  0  0  0  0  0  0  0  0  0  0
   -0.8740   -0.1490    3.3270 C   0  0  0  0  0  0  0  0  0  0  0  0
   -1.8740    0.4160    3.9050 O   0  0  0  0  0  0  0  0  0  0  0  0
    0.1110   -3.0190    4.3170 H   0  0  0  0  0  0  0  0  0  0  0  0
   -0.8830   -2.2120    5.4850 H   0  0  0  0  0  0  0  0  0  0  0  0
    0.2110   -0.3620    5.1100 H   0  0  0  0  0  0  0  0  0  0  0  0
    1.2800   -1.7320    2.6230 H   0  0  0  0  0  0  0  0  0  0  0  0
    2.0760   -1.6910    4.2420 H   0  0  0  0  0  0  0  0  0  0  0  0
    1.5340    0.8740    2.6030 H   0  0  0  0  0  0  0  0  0  0  0  0
    2.3560    0.6720    4.1680 H   0  0  0  0  0  0  0  0  0  0  0  0
    3.9530    0.8770    2.3300 H   0  0  0  0  0  0  0  0  0  0  0  0
    4.1020   -0.5710    3.3960 H   0  0  0  0  0  0  0  0  0  0  0  0
    3.2290   -2.0230    1.6110 H   0  0  0  0  0  0  0  0  0  0  0  0
    4.6210   -1.0610    1.1040 H   0  0  0  0  0  0  0  0  0  0  0  0
    2.0300   -1.0900   -0.0430 H   0  0  0  0  0  0  0  0  0  0  0  0
    3.4020   -0.1240   -0.5040 H   0  0  0  0  0  0  0  0  0  0  0  0
    1.4770    3.3350   -1.8750 N   0  0  0  0  0  0  0  0  0  0  0  0
    0.4300    3.1990   -0.9490 C   0  0  0  0  0  0  0  0  0  0  0  0
   -0.1660    4.2270   -0.5460 O   0  0  0  0  0  0  0  0  0  0  0  0
   -0.0240    1.8710   -0.4050 C   0  0  0  0  0  0  0  0  0  0  0  0
   -1.1550    2.0500    0.5590 C   0  0  0  0  0  0  0  0  0  0  0  0
   -1.6930    0.8030    1.1610 C   0  0  2  0  0  0  0  0  0  0  0  0
   -0.7420    0.0210    1.9280 N   0  0  0  0  0  0  0  0  0  0  0  0
   -2.3280   -0.0560    0.1390 C   0  0  0  0  0  0  0  0  0  0  0  0
   -3.1810    0.3990   -0.6620 O   0  0  0  0  0  0  0  0  0  0  0  0
    1.3740    3.7280   -2.8360 H   0  0  0  0  0  0  0  0  0  0  0  0
    2.4310    3.0210   -1.5870 H   0  0  0  0  0  0  0  0  0  0  0  0
    0.8580    1.3940    0.0250 H   0  0  0  0  0  0  0  0  0  0  0  0
   -0.3250    1.2920   -1.3140 H   0  0  0  0  0  0  0  0  0  0  0  0
   -1.9890    2.5400   -0.0180 H   0  0  0  0  0  0  0  0  0  0  0  0
   -0.8430    2.8130    1.2980 H   0  0  0  0  0  0  0  0  0  0  0  0
   -2.5140    1.0790    1.8980 H   0  0  0  0  0  0  0  0  0  0  0  0
    0.0480   -0.4430    1.4500 H   0  0  0  0  0  0  0  0  0  0  0  0
    0.4410   -2.2330   -3.2970 C   0  0  0  0  0  0  0  0  0  0  0  0
   -0.7460   -1.7240   -2.4740 C   0  0  0  0  0  0  0  0  0  0  0  0
   -1.4300   -2.8860   -1.7790 C   0  0  2  0  0  0  0  0  0  0  0  0
   -1.9390   -3.8910   -2.7910 C   0  0  0  0  0  0  0  0  0  0  0  0
   -2.5530   -2.3380   -0.9280 C   0  0  2  0  0  0  0  0  0  0  0  0
   -1.9840   -1.4330    0.0360 N   0  0  0  0  0  0  0  0  0  0  0  0
   -3.2970   -3.3920   -0.2270 C   0  0  0  0  0  0  0  0  0  0  0  0
   -3.3660   -3.4110    1.0220 O   0  0  0  0  0  0  0  0  0  0  0  0
   -3.9380   -4.3870   -0.9380 O   0  0  0  0  0  0  0  0  0  0  0  0
    0.0800   -2.5200   -4.3090 H   0  0  0  0  0  0  0  0  0  0  0  0
    0.9110   -3.0740   -2.7790 H   0  0  0  0  0  0  0  0  0  0  0  0
    1.1830   -1.4110   -3.4410 H   0  0  0  0  0  0  0  0  0  0  0  0
   -1.4610   -1.1650   -3.0860 H   0  0  0  0  0  0  0  0  0  0  0  0
   -0.3130   -1.0720   -1.6800 H   0  0  0  0  0  0  0  0  0  0  0  0
   -0.6580   -3.3970   -1.1690 H   0  0  0  0  0  0  0  0  0  0  0  0
   -1.8410   -4.9160   -2.3580 H   0  0  0  0  0  0  0  0  0  0  0  0
   -3.0000   -3.7250   -3.0250 H   0  0  0  0  0  0  0  0  0  0  0  0
   -1.3240   -3.8790   -3.7160 H   0  0  0  0  0  0  0  0  0  0  0  0
   -3.2600   -1.7670   -1.5630 H   0  0  0  0  0  0  0  0  0  0  0  0
   -1.2750   -1.8100    0.7010 H   0  0  0  0  0  0  0  0  0  0  0  0
  1 11  1  0  0  0  0
  2  1  1  0  0  0  0
  2 12  1  1  0  0  0
  3  2  1  0  0  0  0
  3 14  1  0  0  0  0
  4  3  1  0  0  0  0
  4 16  1  0  0  0  0
  5  4  1  0  0  0  0
  5 18  1  0  0  0  0
  6 19  1  0  0  0  0
  6  5  1  0  0  0  0
  7  6  1  0  0  0  0
  8  9  2  0  0  0  0
  8  2  1  0  0  0  0
 10  1  1  0  0  0  0
 13  3  1  0  0  0  0
 15  4  1  0  0  0  0
 17  5  1  0  0  0  0
 20  6  1  0  0  0  0
 21  7  1  0  0  0  0
 22  7  1  0  0  0  0
 23 33  1  0  0  0  0
 23 24  1  0  0  0  0
 24 25  2  0  0  0  0
 24 26  1  0  0  0  0
 26 34  1  0  0  0  0
 26 27  1  0  0  0  0
 27 28  1  0  0  0  0
 27 37  1  0  0  0  0
 28 38  1  1  0  0  0
 28 29  1  0  0  0  0
 29  8  1  0  0  0  0
 30 28  1  0  0  0  0
 31 30  2  0  0  0  0
 32 23  1  0  0  0  0
 35 26  1  0  0  0  0
 36 27  1  0  0  0  0
 39 29  1  0  0  0  0
 40 50  1  0  0  0  0
 40 41  1  0  0  0  0
 41 42  1  0  0  0  0
 41 53  1  0  0  0  0
 42 54  1  1  0  0  0
 42 44  1  0  0  0  0
 43 55  1  0  0  0  0
 43 42  1  0  0  0  0
 44 58  1  6  0  0  0
 44 46  1  0  0  0  0
 44 45  1  0  0  0  0
 45 30  1  0  0  0  0
 45 59  1  0  0  0  0
 46 47  1  0  0  0  0
 48 46  2  0  0  0  0
 49 40  1  0  0  0  0
 51 40  1  0  0  0  0
 52 41  1  0  0  0  0
 56 43  1  0  0  0  0
 57 43  1  0  0  0  0
M  END
$$$$
