KQK.pdb
 OpenBabel07022418503D

 61 60  0  0  1  0  0  0  0  0999 V2000
    1.6830   -2.0060    0.4090 N   0  0  0  0  0  0  0  0  0  0  0  0
    1.8790   -1.2840    1.6770 C   0  0  1  0  0  0  0  0  0  0  0  0
    3.3380   -1.0450    1.8430 C   0  0  0  0  0  0  0  0  0  0  0  0
    3.7010   -0.3150    3.0940 C   0  0  0  0  0  0  0  0  0  0  0  0
    3.2540   -1.0850    4.3360 C   0  0  0  0  0  0  0  0  0  0  0  0
    3.6880   -0.2250    5.5250 C   0  0  0  0  0  0  0  0  0  0  0  0
    5.1220   -0.0820    5.4520 N   0  0  0  0  0  0  0  0  0  0  0  0
    1.0340   -0.0930    1.6060 C   0  0  0  0  0  0  0  0  0  0  0  0
    0.9880    0.7040    2.5770 O   0  0  0  0  0  0  0  0  0  0  0  0
    0.6780   -2.3490    0.4330 H   0  0  0  0  0  0  0  0  0  0  0  0
    2.2570   -2.8980    0.4160 H   0  0  0  0  0  0  0  0  0  0  0  0
    1.5360   -1.9220    2.5200 H   0  0  0  0  0  0  0  0  0  0  0  0
    3.8140   -2.0670    1.9190 H   0  0  0  0  0  0  0  0  0  0  0  0
    3.8250   -0.5730    0.9740 H   0  0  0  0  0  0  0  0  0  0  0  0
    3.2550    0.6830    3.0900 H   0  0  0  0  0  0  0  0  0  0  0  0
    4.8170   -0.2470    3.1580 H   0  0  0  0  0  0  0  0  0  0  0  0
    3.7320   -2.0650    4.3990 H   0  0  0  0  0  0  0  0  0  0  0  0
    2.1490   -1.1870    4.3700 H   0  0  0  0  0  0  0  0  0  0  0  0
    3.2230    0.7670    5.3560 H   0  0  0  0  0  0  0  0  0  0  0  0
    3.3860   -0.7110    6.4590 H   0  0  0  0  0  0  0  0  0  0  0  0
    5.3490    0.7960    4.9090 H   0  0  0  0  0  0  0  0  0  0  0  0
    5.6080   -0.8890    5.0260 H   0  0  0  0  0  0  0  0  0  0  0  0
    1.3210    0.7630   -3.4170 N   0  0  0  0  0  0  0  0  0  0  0  0
    1.2660    1.3770   -2.1420 C   0  0  0  0  0  0  0  0  0  0  0  0
    2.1430    1.0940   -1.2970 O   0  0  0  0  0  0  0  0  0  0  0  0
    0.2070    2.3290   -1.8200 C   0  0  0  0  0  0  0  0  0  0  0  0
   -0.0790    2.5560   -0.3880 C   0  0  0  0  0  0  0  0  0  0  0  0
   -0.6000    1.4100    0.4090 C   0  0  2  0  0  0  0  0  0  0  0  0
    0.2210    0.2490    0.4700 N   0  0  0  0  0  0  0  0  0  0  0  0
   -2.0150    1.0690    0.0580 C   0  0  0  0  0  0  0  0  0  0  0  0
   -2.8520    2.0040   -0.0250 O   0  0  0  0  0  0  0  0  0  0  0  0
    0.5390    0.1350   -3.7680 H   0  0  0  0  0  0  0  0  0  0  0  0
    2.1110    0.8770   -4.0890 H   0  0  0  0  0  0  0  0  0  0  0  0
    0.5510    3.3280   -2.2330 H   0  0  0  0  0  0  0  0  0  0  0  0
   -0.7280    2.1330   -2.4080 H   0  0  0  0  0  0  0  0  0  0  0  0
    0.8830    2.8830    0.0990 H   0  0  0  0  0  0  0  0  0  0  0  0
   -0.7320    3.4650   -0.2990 H   0  0  0  0  0  0  0  0  0  0  0  0
   -0.6830    1.8450    1.4710 H   0  0  0  0  0  0  0  0  0  0  0  0
    0.2650   -0.4500   -0.3120 H   0  0  0  0  0  0  0  0  0  0  0  0
   -2.4520   -0.2540   -0.1840 N   0  0  0  0  0  0  0  0  0  0  0  0
   -3.7650   -0.6620   -0.5200 C   0  0  1  0  0  0  0  0  0  0  0  0
   -4.0680   -1.0950   -1.8740 C   0  0  0  0  0  0  0  0  0  0  0  0
   -3.4470   -2.1360   -2.6450 C   0  0  0  0  0  0  0  0  0  0  0  0
   -3.3250   -3.5530   -2.3170 C   0  0  0  0  0  0  0  0  0  0  0  0
   -2.4620   -4.0150   -1.2180 C   0  0  0  0  0  0  0  0  0  0  0  0
   -2.7930   -3.5680    0.0620 N   0  0  0  0  0  0  0  0  0  0  0  0
   -4.5860   -1.2690    0.5500 C   0  0  0  0  0  0  0  0  0  0  0  0
   -5.7340   -1.6710    0.2580 O   0  0  0  0  0  0  0  0  0  0  0  0
   -4.1500   -1.4130    1.8520 O   0  0  0  0  0  0  0  0  0  0  0  0
   -1.7060   -1.0010   -0.1010 H   0  0  0  0  0  0  0  0  0  0  0  0
   -4.3130    0.4400   -0.5130 H   0  0  0  0  0  0  0  0  0  0  0  0
   -4.1360   -0.1520   -2.5690 H   0  0  0  0  0  0  0  0  0  0  0  0
   -5.2130   -1.3410   -1.8730 H   0  0  0  0  0  0  0  0  0  0  0  0
   -3.9430   -2.1340   -3.7120 H   0  0  0  0  0  0  0  0  0  0  0  0
   -2.3790   -1.8270   -2.9950 H   0  0  0  0  0  0  0  0  0  0  0  0
   -4.3940   -3.9890   -2.2000 H   0  0  0  0  0  0  0  0  0  0  0  0
   -2.9920   -4.1630   -3.2360 H   0  0  0  0  0  0  0  0  0  0  0  0
   -1.4160   -3.5930   -1.4500 H   0  0  0  0  0  0  0  0  0  0  0  0
   -2.3160   -5.1410   -1.2490 H   0  0  0  0  0  0  0  0  0  0  0  0
   -3.5890   -4.0110    0.5350 H   0  0  0  0  0  0  0  0  0  0  0  0
   -1.9830   -3.3990    0.7090 H   0  0  0  0  0  0  0  0  0  0  0  0
  1 11  1  0  0  0  0
  1 10  1  0  0  0  0
  1  2  1  0  0  0  0
  2  3  1  0  0  0  0
  2 12  1  1  0  0  0
  3 13  1  0  0  0  0
  3  4  1  0  0  0  0
  4 16  1  0  0  0  0
  4  5  1  0  0  0  0
  5 18  1  0  0  0  0
  5 17  1  0  0  0  0
  5  6  1  0  0  0  0
  6 20  1  0  0  0  0
  7  6  1  0  0  0  0
  8  2  1  0  0  0  0
  8  9  2  0  0  0  0
 14  3  1  0  0  0  0
 15  4  1  0  0  0  0
 19  6  1  0  0  0  0
 21  7  1  0  0  0  0
 22  7  1  0  0  0  0
 23 24  1  0  0  0  0
 24 26  1  0  0  0  0
 24 25  2  0  0  0  0
 26 27  1  0  0  0  0
 27 37  1  0  0  0  0
 27 36  1  0  0  0  0
 27 28  1  0  0  0  0
 28 29  1  0  0  0  0
 28 38  1  1  0  0  0
 29  8  1  0  0  0  0
 30 28  1  0  0  0  0
 31 30  2  0  0  0  0
 32 23  1  0  0  0  0
 33 23  1  0  0  0  0
 34 26  1  0  0  0  0
 35 26  1  0  0  0  0
 39 29  1  0  0  0  0
 40 50  1  0  0  0  0
 40 30  1  0  0  0  0
 41 51  1  6  0  0  0
 41 40  1  0  0  0  0
 41 47  1  0  0  0  0
 42 53  1  0  0  0  0
 42 41  1  0  0  0  0
 43 44  1  0  0  0  0
 43 42  1  0  0  0  0
 44 56  1  0  0  0  0
 44 45  1  0  0  0  0
 45 46  1  0  0  0  0
 46 60  1  0  0  0  0
 46 61  1  0  0  0  0
 47 49  1  0  0  0  0
 48 47  2  0  0  0  0
 52 42  1  0  0  0  0
 54 43  1  0  0  0  0
 55 43  1  0  0  0  0
 57 44  1  0  0  0  0
 58 45  1  0  0  0  0
 59 45  1  0  0  0  0
M  END
$$$$
