KQL.pdb
 OpenBabel07022418503D

 59 58  0  0  1  0  0  0  0  0999 V2000
    2.1450   -0.7090    3.9990 N   0  0  0  0  0  0  0  0  0  0  0  0
    1.5360   -0.4050    2.7250 C   0  0  1  0  0  0  0  0  0  0  0  0
    1.5010   -1.7110    1.9430 C   0  0  0  0  0  0  0  0  0  0  0  0
    2.8830   -2.2490    1.7470 C   0  0  0  0  0  0  0  0  0  0  0  0
    3.7910   -1.3070    0.9830 C   0  0  0  0  0  0  0  0  0  0  0  0
    5.1400   -2.0100    0.8790 C   0  0  0  0  0  0  0  0  0  0  0  0
    4.9660   -3.2560    0.1750 N   0  0  0  0  0  0  0  0  0  0  0  0
    0.1660    0.1270    2.8880 C   0  0  0  0  0  0  0  0  0  0  0  0
   -0.2840    0.2410    4.0620 O   0  0  0  0  0  0  0  0  0  0  0  0
    2.6870    0.1060    4.3640 H   0  0  0  0  0  0  0  0  0  0  0  0
    1.4720   -1.0960    4.6710 H   0  0  0  0  0  0  0  0  0  0  0  0
    2.1050    0.3440    2.1490 H   0  0  0  0  0  0  0  0  0  0  0  0
    1.0260   -1.4940    0.9720 H   0  0  0  0  0  0  0  0  0  0  0  0
    0.9310   -2.4240    2.5460 H   0  0  0  0  0  0  0  0  0  0  0  0
    3.2950   -2.4930    2.7420 H   0  0  0  0  0  0  0  0  0  0  0  0
    2.7950   -3.1730    1.1050 H   0  0  0  0  0  0  0  0  0  0  0  0
    3.9010   -0.3240    1.4600 H   0  0  0  0  0  0  0  0  0  0  0  0
    3.4040   -1.1450   -0.0280 H   0  0  0  0  0  0  0  0  0  0  0  0
    5.4470   -2.2470    1.9190 H   0  0  0  0  0  0  0  0  0  0  0  0
    5.8870   -1.3780    0.3630 H   0  0  0  0  0  0  0  0  0  0  0  0
    4.6800   -3.9920    0.8750 H   0  0  0  0  0  0  0  0  0  0  0  0
    4.1690   -3.1420   -0.4840 H   0  0  0  0  0  0  0  0  0  0  0  0
    0.2290    3.3000   -1.1590 N   0  0  0  0  0  0  0  0  0  0  0  0
   -0.2550    3.0800    0.1530 C   0  0  0  0  0  0  0  0  0  0  0  0
    0.5680    2.8530    1.0660 O   0  0  0  0  0  0  0  0  0  0  0  0
   -1.6880    3.1190    0.4440 C   0  0  0  0  0  0  0  0  0  0  0  0
   -2.1070    2.4690    1.6960 C   0  0  0  0  0  0  0  0  0  0  0  0
   -1.9180    1.0060    1.8500 C   0  0  2  0  0  0  0  0  0  0  0  0
   -0.5990    0.4910    1.7450 N   0  0  0  0  0  0  0  0  0  0  0  0
   -2.8690    0.1860    1.0900 C   0  0  0  0  0  0  0  0  0  0  0  0
   -4.1010    0.3970    0.9910 O   0  0  0  0  0  0  0  0  0  0  0  0
    0.9450    2.6260   -1.5260 H   0  0  0  0  0  0  0  0  0  0  0  0
   -0.0890    4.0850   -1.7600 H   0  0  0  0  0  0  0  0  0  0  0  0
   -1.9390    4.2210    0.5580 H   0  0  0  0  0  0  0  0  0  0  0  0
   -2.3130    2.8300   -0.4460 H   0  0  0  0  0  0  0  0  0  0  0  0
   -1.5150    2.9530    2.5320 H   0  0  0  0  0  0  0  0  0  0  0  0
   -3.1580    2.7350    1.9280 H   0  0  0  0  0  0  0  0  0  0  0  0
   -2.2100    0.8160    2.9520 H   0  0  0  0  0  0  0  0  0  0  0  0
   -0.1170    0.3290    0.8080 H   0  0  0  0  0  0  0  0  0  0  0  0
   -0.5020   -1.6850   -1.9760 C   0  0  0  0  0  0  0  0  0  0  0  0
   -1.7050   -2.4740   -2.3030 C   0  0  0  0  0  0  0  0  0  0  0  0
   -1.8370   -2.6300   -3.8270 C   0  0  0  0  0  0  0  0  0  0  0  0
   -3.0210   -1.9700   -1.8150 C   0  0  0  0  0  0  0  0  0  0  0  0
   -3.2200   -1.8210   -0.3740 C   0  0  2  0  0  0  0  0  0  0  0  0
   -2.3920   -0.9550    0.3930 N   0  0  0  0  0  0  0  0  0  0  0  0
   -3.2160   -3.1670    0.2560 C   0  0  0  0  0  0  0  0  0  0  0  0
   -3.8850   -4.0980   -0.2550 O   0  0  0  0  0  0  0  0  0  0  0  0
   -2.4910   -3.4340    1.4040 O   0  0  0  0  0  0  0  0  0  0  0  0
    0.1380   -2.1320   -1.1600 H   0  0  0  0  0  0  0  0  0  0  0  0
    0.1850   -1.7260   -2.8780 H   0  0  0  0  0  0  0  0  0  0  0  0
   -0.6260   -0.6350   -1.7530 H   0  0  0  0  0  0  0  0  0  0  0  0
   -1.5070   -3.5340   -1.9560 H   0  0  0  0  0  0  0  0  0  0  0  0
   -2.5790   -1.9080   -4.2310 H   0  0  0  0  0  0  0  0  0  0  0  0
   -0.8590   -2.4490   -4.3210 H   0  0  0  0  0  0  0  0  0  0  0  0
   -2.1750   -3.6310   -4.1090 H   0  0  0  0  0  0  0  0  0  0  0  0
   -3.7670   -2.7680   -2.1380 H   0  0  0  0  0  0  0  0  0  0  0  0
   -3.3840   -1.0870   -2.4270 H   0  0  0  0  0  0  0  0  0  0  0  0
   -4.2800   -1.4380   -0.2230 H   0  0  0  0  0  0  0  0  0  0  0  0
   -1.3700   -1.2080    0.4310 H   0  0  0  0  0  0  0  0  0  0  0  0
  1 10  1  0  0  0  0
  1 11  1  0  0  0  0
  2 12  1  6  0  0  0
  2  8  1  0  0  0  0
  2  1  1  0  0  0  0
  3 14  1  0  0  0  0
  3  2  1  0  0  0  0
  4  3  1  0  0  0  0
  4 15  1  0  0  0  0
  5 17  1  0  0  0  0
  5  4  1  0  0  0  0
  6  5  1  0  0  0  0
  6 19  1  0  0  0  0
  7 21  1  0  0  0  0
  7  6  1  0  0  0  0
  8  9  2  0  0  0  0
 13  3  1  0  0  0  0
 16  4  1  0  0  0  0
 18  5  1  0  0  0  0
 20  6  1  0  0  0  0
 22  7  1  0  0  0  0
 23 24  1  0  0  0  0
 24 26  1  0  0  0  0
 24 25  2  0  0  0  0
 26 34  1  0  0  0  0
 26 27  1  0  0  0  0
 27 28  1  0  0  0  0
 27 37  1  0  0  0  0
 27 36  1  0  0  0  0
 28 38  1  1  0  0  0
 29 28  1  0  0  0  0
 29  8  1  0  0  0  0
 30 28  1  0  0  0  0
 31 30  2  0  0  0  0
 32 23  1  0  0  0  0
 33 23  1  0  0  0  0
 35 26  1  0  0  0  0
 39 29  1  0  0  0  0
 40 51  1  0  0  0  0
 40 49  1  0  0  0  0
 41 40  1  0  0  0  0
 41 52  1  0  0  0  0
 41 43  1  0  0  0  0
 42 41  1  0  0  0  0
 43 44  1  0  0  0  0
 44 58  1  1  0  0  0
 44 46  1  0  0  0  0
 44 45  1  0  0  0  0
 45 59  1  0  0  0  0
 45 30  1  0  0  0  0
 46 48  1  0  0  0  0
 47 46  2  0  0  0  0
 50 40  1  0  0  0  0
 53 42  1  0  0  0  0
 54 42  1  0  0  0  0
 55 42  1  0  0  0  0
 56 43  1  0  0  0  0
 57 43  1  0  0  0  0
M  END
$$$$
