KQM.pdb
 OpenBabel07022418503D

 57 56  0  0  1  0  0  0  0  0999 V2000
    0.1320    1.8330    4.6050 N   0  0  0  0  0  0  0  0  0  0  0  0
    0.6280    0.8250    3.5620 C   0  0  1  0  0  0  0  0  0  0  0  0
    0.1070   -0.4490    4.0670 C   0  0  0  0  0  0  0  0  0  0  0  0
    0.3980   -1.7440    3.4600 C   0  0  0  0  0  0  0  0  0  0  0  0
    1.7630   -2.3050    3.5050 C   0  0  0  0  0  0  0  0  0  0  0  0
    2.8990   -1.6000    2.8830 C   0  0  0  0  0  0  0  0  0  0  0  0
    2.7460   -1.4230    1.4740 N   0  0  0  0  0  0  0  0  0  0  0  0
    0.0010    1.3700    2.3320 C   0  0  0  0  0  0  0  0  0  0  0  0
   -0.6760    2.4590    2.4330 O   0  0  0  0  0  0  0  0  0  0  0  0
    0.3450    1.4280    5.5290 H   0  0  0  0  0  0  0  0  0  0  0  0
    0.6410    2.7210    4.4340 H   0  0  0  0  0  0  0  0  0  0  0  0
    1.6840    0.9510    3.5850 H   0  0  0  0  0  0  0  0  0  0  0  0
   -1.0190   -0.4030    4.2180 H   0  0  0  0  0  0  0  0  0  0  0  0
    0.4460   -0.5020    5.1690 H   0  0  0  0  0  0  0  0  0  0  0  0
   -0.3350   -2.4900    3.9500 H   0  0  0  0  0  0  0  0  0  0  0  0
    0.0460   -1.7970    2.3850 H   0  0  0  0  0  0  0  0  0  0  0  0
    2.0330   -2.6690    4.5530 H   0  0  0  0  0  0  0  0  0  0  0  0
    1.6940   -3.3130    2.9580 H   0  0  0  0  0  0  0  0  0  0  0  0
    3.8030   -2.3000    2.9970 H   0  0  0  0  0  0  0  0  0  0  0  0
    3.2600   -0.6860    3.4010 H   0  0  0  0  0  0  0  0  0  0  0  0
    3.6830   -1.2350    1.0050 H   0  0  0  0  0  0  0  0  0  0  0  0
    2.4180   -2.3520    1.0770 H   0  0  0  0  0  0  0  0  0  0  0  0
    3.3840    0.2520   -1.3420 N   0  0  0  0  0  0  0  0  0  0  0  0
    2.4700    1.1850   -0.7940 C   0  0  0  0  0  0  0  0  0  0  0  0
    2.6100    1.5220    0.4030 O   0  0  0  0  0  0  0  0  0  0  0  0
    1.3920    1.7320   -1.6390 C   0  0  0  0  0  0  0  0  0  0  0  0
    0.2500    2.3410   -0.9440 C   0  0  0  0  0  0  0  0  0  0  0  0
   -0.6260    1.5140   -0.0880 C   0  0  2  0  0  0  0  0  0  0  0  0
    0.0440    0.8450    1.0230 N   0  0  0  0  0  0  0  0  0  0  0  0
   -1.4950    0.5800   -0.7830 C   0  0  0  0  0  0  0  0  0  0  0  0
   -2.1940    0.8870   -1.8000 O   0  0  0  0  0  0  0  0  0  0  0  0
    3.2100   -0.7650   -1.3190 H   0  0  0  0  0  0  0  0  0  0  0  0
    4.2550    0.6130   -1.7810 H   0  0  0  0  0  0  0  0  0  0  0  0
    1.8900    2.5750   -2.2180 H   0  0  0  0  0  0  0  0  0  0  0  0
    1.1090    1.0220   -2.4550 H   0  0  0  0  0  0  0  0  0  0  0  0
   -0.3650    2.9200   -1.6660 H   0  0  0  0  0  0  0  0  0  0  0  0
    0.6760    3.1480   -0.2680 H   0  0  0  0  0  0  0  0  0  0  0  0
   -1.3490    2.2930    0.3710 H   0  0  0  0  0  0  0  0  0  0  0  0
    0.5550   -0.0480    0.8940 H   0  0  0  0  0  0  0  0  0  0  0  0
   -2.0180   -2.6740   -5.0140 C   0  0  0  0  0  0  0  0  0  0  0  0
   -3.1780   -3.2740   -3.7860 S   0  0  0  0  0  0  0  0  0  0  0  0
   -2.3270   -3.8860   -2.3150 C   0  0  0  0  0  0  0  0  0  0  0  0
   -1.6200   -2.8090   -1.5620 C   0  0  0  0  0  0  0  0  0  0  0  0
   -2.5030   -1.7110   -1.0640 C   0  0  2  0  0  0  0  0  0  0  0  0
   -1.6190   -0.7610   -0.3580 N   0  0  0  0  0  0  0  0  0  0  0  0
   -3.4560   -2.2520   -0.0810 C   0  0  0  0  0  0  0  0  0  0  0  0
   -4.3220   -3.0870   -0.4460 O   0  0  0  0  0  0  0  0  0  0  0  0
   -3.4690   -1.8940    1.2680 O   0  0  0  0  0  0  0  0  0  0  0  0
   -2.1120   -3.2830   -5.9250 H   0  0  0  0  0  0  0  0  0  0  0  0
   -2.2710   -1.6230   -5.2450 H   0  0  0  0  0  0  0  0  0  0  0  0
   -0.9830   -2.8010   -4.6470 H   0  0  0  0  0  0  0  0  0  0  0  0
   -1.5180   -4.5800   -2.6930 H   0  0  0  0  0  0  0  0  0  0  0  0
   -2.9870   -4.5220   -1.7150 H   0  0  0  0  0  0  0  0  0  0  0  0
   -0.8660   -2.3600   -2.2520 H   0  0  0  0  0  0  0  0  0  0  0  0
   -1.0660   -3.2980   -0.7290 H   0  0  0  0  0  0  0  0  0  0  0  0
   -2.9770   -1.1940   -1.8990 H   0  0  0  0  0  0  0  0  0  0  0  0
   -1.0950   -1.1170    0.4620 H   0  0  0  0  0  0  0  0  0  0  0  0
  1 10  1  0  0  0  0
  2 12  1  6  0  0  0
  2  3  1  0  0  0  0
  2  1  1  0  0  0  0
  3 13  1  0  0  0  0
  3 14  1  0  0  0  0
  4  5  1  0  0  0  0
  4 15  1  0  0  0  0
  4  3  1  0  0  0  0
  5 17  1  0  0  0  0
  6 19  1  0  0  0  0
  6 20  1  0  0  0  0
  6  5  1  0  0  0  0
  7  6  1  0  0  0  0
  8  9  2  0  0  0  0
  8  2  1  0  0  0  0
 11  1  1  0  0  0  0
 16  4  1  0  0  0  0
 18  5  1  0  0  0  0
 21  7  1  0  0  0  0
 22  7  1  0  0  0  0
 23 32  1  0  0  0  0
 23 24  1  0  0  0  0
 24 25  2  0  0  0  0
 26 27  1  0  0  0  0
 26 24  1  0  0  0  0
 27 37  1  0  0  0  0
 27 28  1  0  0  0  0
 28 38  1  1  0  0  0
 28 29  1  0  0  0  0
 29  8  1  0  0  0  0
 30 45  1  0  0  0  0
 30 28  1  0  0  0  0
 31 30  2  0  0  0  0
 33 23  1  0  0  0  0
 34 26  1  0  0  0  0
 35 26  1  0  0  0  0
 36 27  1  0  0  0  0
 39 29  1  0  0  0  0
 40 51  1  0  0  0  0
 40 41  1  0  0  0  0
 41 42  1  0  0  0  0
 42 53  1  0  0  0  0
 42 43  1  0  0  0  0
 43 44  1  0  0  0  0
 43 55  1  0  0  0  0
 44 56  1  6  0  0  0
 44 45  1  0  0  0  0
 44 46  1  0  0  0  0
 45 57  1  0  0  0  0
 46 48  1  0  0  0  0
 47 46  2  0  0  0  0
 49 40  1  0  0  0  0
 50 40  1  0  0  0  0
 52 42  1  0  0  0  0
 54 43  1  0  0  0  0
M  END
$$$$
