KQP.pdb
 OpenBabel07022418503D

 54 54  0  0  1  0  0  0  0  0999 V2000
   -0.6160   -2.2500    3.1750 N   0  0  0  0  0  0  0  0  0  0  0  0
    0.4290   -1.2960    2.8070 C   0  0  1  0  0  0  0  0  0  0  0  0
    1.4570   -2.0000    1.9940 C   0  0  0  0  0  0  0  0  0  0  0  0
    2.5940   -1.1480    1.5500 C   0  0  0  0  0  0  0  0  0  0  0  0
    3.3790   -0.5310    2.6840 C   0  0  0  0  0  0  0  0  0  0  0  0
    3.9800   -1.5870    3.5860 C   0  0  0  0  0  0  0  0  0  0  0  0
    4.7120   -0.9060    4.6390 N   0  0  0  0  0  0  0  0  0  0  0  0
   -0.1640   -0.1030    2.1760 C   0  0  0  0  0  0  0  0  0  0  0  0
   -0.5610    0.8530    2.9140 O   0  0  0  0  0  0  0  0  0  0  0  0
   -0.7330   -2.9250    2.3690 H   0  0  0  0  0  0  0  0  0  0  0  0
   -0.3360   -2.7490    4.0460 H   0  0  0  0  0  0  0  0  0  0  0  0
    0.9350   -0.9710    3.7610 H   0  0  0  0  0  0  0  0  0  0  0  0
    1.8560   -2.8330    2.6170 H   0  0  0  0  0  0  0  0  0  0  0  0
    1.0450   -2.4950    1.0880 H   0  0  0  0  0  0  0  0  0  0  0  0
    3.3230   -1.8340    1.0250 H   0  0  0  0  0  0  0  0  0  0  0  0
    2.3160   -0.4010    0.7890 H   0  0  0  0  0  0  0  0  0  0  0  0
    2.7970    0.1880    3.2780 H   0  0  0  0  0  0  0  0  0  0  0  0
    4.2580   -0.0150    2.1980 H   0  0  0  0  0  0  0  0  0  0  0  0
    4.6510   -2.2510    3.0130 H   0  0  0  0  0  0  0  0  0  0  0  0
    3.1660   -2.1950    4.0370 H   0  0  0  0  0  0  0  0  0  0  0  0
    4.0710   -0.6970    5.4330 H   0  0  0  0  0  0  0  0  0  0  0  0
    5.2450   -0.0920    4.2910 H   0  0  0  0  0  0  0  0  0  0  0  0
    2.1800    0.8590   -3.8790 N   0  0  0  0  0  0  0  0  0  0  0  0
    1.5800    1.4910   -2.7530 C   0  0  0  0  0  0  0  0  0  0  0  0
    1.9420    2.6900   -2.5370 O   0  0  0  0  0  0  0  0  0  0  0  0
    0.5940    0.8030   -1.8800 C   0  0  0  0  0  0  0  0  0  0  0  0
    0.1660    1.7420   -0.8000 C   0  0  0  0  0  0  0  0  0  0  0  0
   -0.8500    1.1040    0.1400 C   0  0  2  0  0  0  0  0  0  0  0  0
   -0.2760   -0.0530    0.7590 N   0  0  0  0  0  0  0  0  0  0  0  0
   -2.1270    0.8880   -0.5570 C   0  0  0  0  0  0  0  0  0  0  0  0
   -2.5840    1.9280   -1.1560 O   0  0  0  0  0  0  0  0  0  0  0  0
    2.2170    1.3180   -4.8130 H   0  0  0  0  0  0  0  0  0  0  0  0
    2.5890   -0.0830   -3.7580 H   0  0  0  0  0  0  0  0  0  0  0  0
    1.1010   -0.0680   -1.4370 H   0  0  0  0  0  0  0  0  0  0  0  0
   -0.2670    0.5290   -2.5200 H   0  0  0  0  0  0  0  0  0  0  0  0
   -0.3180    2.6520   -1.2150 H   0  0  0  0  0  0  0  0  0  0  0  0
    1.0730    2.0270   -0.2220 H   0  0  0  0  0  0  0  0  0  0  0  0
   -1.0910    1.8580    0.9550 H   0  0  0  0  0  0  0  0  0  0  0  0
    0.0660   -0.8540    0.1450 H   0  0  0  0  0  0  0  0  0  0  0  0
   -2.8920   -0.2880   -0.6490 N   0  0  0  0  0  0  0  0  0  0  0  0
   -4.1580   -0.3460   -1.4240 C   0  0  0  0  0  0  0  0  0  0  0  0
   -5.0670   -1.0130   -0.4140 C   0  0  0  0  0  0  0  0  0  0  0  0
   -4.1580   -1.9410    0.3640 C   0  0  0  0  0  0  0  0  0  0  0  0
   -2.7540   -1.6080   -0.1170 C   0  0  1  0  0  0  0  0  0  0  0  0
   -2.3690   -2.6360   -1.1100 C   0  0  0  0  0  0  0  0  0  0  0  0
   -2.2620   -3.8170   -0.6930 O   0  0  0  0  0  0  0  0  0  0  0  0
   -2.1220   -2.3830   -2.4440 O   0  0  0  0  0  0  0  0  0  0  0  0
   -4.5100    0.6660   -1.6950 H   0  0  0  0  0  0  0  0  0  0  0  0
   -3.9690   -0.9870   -2.2970 H   0  0  0  0  0  0  0  0  0  0  0  0
   -5.4520   -0.1830    0.2450 H   0  0  0  0  0  0  0  0  0  0  0  0
   -5.9010   -1.5360   -0.9060 H   0  0  0  0  0  0  0  0  0  0  0  0
   -4.4290   -2.9680    0.0930 H   0  0  0  0  0  0  0  0  0  0  0  0
   -4.2650   -1.7690    1.4490 H   0  0  0  0  0  0  0  0  0  0  0  0
   -2.0260   -1.7060    0.7170 H   0  0  0  0  0  0  0  0  0  0  0  0
  1 11  1  0  0  0  0
  2  1  1  0  0  0  0
  2 12  1  1  0  0  0
  3 13  1  0  0  0  0
  3  2  1  0  0  0  0
  4  3  1  0  0  0  0
  4  5  1  0  0  0  0
  5 17  1  0  0  0  0
  5  6  1  0  0  0  0
  6 20  1  0  0  0  0
  6  7  1  0  0  0  0
  7 21  1  0  0  0  0
  8  2  1  0  0  0  0
  8  9  2  0  0  0  0
 10  1  1  0  0  0  0
 14  3  1  0  0  0  0
 15  4  1  0  0  0  0
 16  4  1  0  0  0  0
 18  5  1  0  0  0  0
 19  6  1  0  0  0  0
 22  7  1  0  0  0  0
 23 33  1  0  0  0  0
 23 24  1  0  0  0  0
 24 25  2  0  0  0  0
 24 26  1  0  0  0  0
 26 34  1  0  0  0  0
 26 27  1  0  0  0  0
 27 37  1  0  0  0  0
 27 28  1  0  0  0  0
 28 29  1  0  0  0  0
 28 38  1  1  0  0  0
 29  8  1  0  0  0  0
 30 28  1  0  0  0  0
 31 30  2  0  0  0  0
 32 23  1  0  0  0  0
 35 26  1  0  0  0  0
 36 27  1  0  0  0  0
 39 29  1  0  0  0  0
 40 30  1  0  0  0  0
 40 44  1  0  0  0  0
 41 40  1  0  0  0  0
 41 42  1  0  0  0  0
 42 50  1  0  0  0  0
 42 43  1  0  0  0  0
 43 53  1  0  0  0  0
 44 43  1  0  0  0  0
 44 54  1  1  0  0  0
 45 46  1  0  0  0  0
 45 44  1  0  0  0  0
 47 45  2  0  0  0  0
 48 41  1  0  0  0  0
 49 41  1  0  0  0  0
 51 42  1  0  0  0  0
 52 43  1  0  0  0  0
M  END
$$$$
