KQT.pdb
 OpenBabel07022418503D

 54 53  0  0  1  0  0  0  0  0999 V2000
    0.6360    0.6290    5.4410 N   0  0  0  0  0  0  0  0  0  0  0  0
    0.0090   -0.2890    4.4680 C   0  0  1  0  0  0  0  0  0  0  0  0
   -1.4390    0.0620    4.4650 C   0  0  0  0  0  0  0  0  0  0  0  0
   -2.3180   -0.7290    3.5650 C   0  0  0  0  0  0  0  0  0  0  0  0
   -2.2670   -2.2030    3.9340 C   0  0  0  0  0  0  0  0  0  0  0  0
   -3.1740   -2.9950    3.0010 C   0  0  0  0  0  0  0  0  0  0  0  0
   -2.7620   -2.8560    1.6170 N   0  0  0  0  0  0  0  0  0  0  0  0
    0.6060    0.0040    3.1160 C   0  0  0  0  0  0  0  0  0  0  0  0
    1.3480    1.0070    2.9650 O   0  0  0  0  0  0  0  0  0  0  0  0
    1.6740    0.5940    5.3610 H   0  0  0  0  0  0  0  0  0  0  0  0
    0.3280    1.5850    5.1530 H   0  0  0  0  0  0  0  0  0  0  0  0
    0.2160   -1.3020    4.8200 H   0  0  0  0  0  0  0  0  0  0  0  0
   -1.8420   -0.0710    5.5120 H   0  0  0  0  0  0  0  0  0  0  0  0
   -1.5570    1.1400    4.2240 H   0  0  0  0  0  0  0  0  0  0  0  0
   -2.2370   -0.5290    2.4970 H   0  0  0  0  0  0  0  0  0  0  0  0
   -3.3810   -0.4260    3.8300 H   0  0  0  0  0  0  0  0  0  0  0  0
   -2.7030   -2.2970    4.9470 H   0  0  0  0  0  0  0  0  0  0  0  0
   -1.2430   -2.5750    3.9590 H   0  0  0  0  0  0  0  0  0  0  0  0
   -3.1560   -4.0640    3.2820 H   0  0  0  0  0  0  0  0  0  0  0  0
   -4.2010   -2.5690    3.1300 H   0  0  0  0  0  0  0  0  0  0  0  0
   -3.6200   -2.9130    1.0110 H   0  0  0  0  0  0  0  0  0  0  0  0
   -2.1730   -3.6750    1.3840 H   0  0  0  0  0  0  0  0  0  0  0  0
    4.5960   -2.8950   -1.8500 N   0  0  0  0  0  0  0  0  0  0  0  0
    3.6940   -2.6960   -0.7760 C   0  0  0  0  0  0  0  0  0  0  0  0
    3.6420   -3.5090    0.1670 O   0  0  0  0  0  0  0  0  0  0  0  0
    2.7820   -1.4950   -0.7580 C   0  0  0  0  0  0  0  0  0  0  0  0
    1.9700   -1.5660    0.4750 C   0  0  0  0  0  0  0  0  0  0  0  0
    1.0000   -0.4360    0.7180 C   0  0  2  0  0  0  0  0  0  0  0  0
    0.3660   -0.8110    1.9970 N   0  0  0  0  0  0  0  0  0  0  0  0
   -0.0020   -0.2340   -0.3260 C   0  0  0  0  0  0  0  0  0  0  0  0
   -1.2090   -0.5670   -0.0370 O   0  0  0  0  0  0  0  0  0  0  0  0
    4.9560   -2.0390   -2.3320 H   0  0  0  0  0  0  0  0  0  0  0  0
    4.9200   -3.8160   -2.1870 H   0  0  0  0  0  0  0  0  0  0  0  0
    2.1760   -1.5060   -1.6940 H   0  0  0  0  0  0  0  0  0  0  0  0
    3.3820   -0.5640   -0.7830 H   0  0  0  0  0  0  0  0  0  0  0  0
    1.4230   -2.5570    0.5020 H   0  0  0  0  0  0  0  0  0  0  0  0
    2.6280   -1.6150    1.3910 H   0  0  0  0  0  0  0  0  0  0  0  0
    1.5920    0.5010    0.8350 H   0  0  0  0  0  0  0  0  0  0  0  0
   -0.2140   -1.6580    1.9940 H   0  0  0  0  0  0  0  0  0  0  0  0
   -0.0250    2.5430   -3.5630 C   0  0  0  0  0  0  0  0  0  0  0  0
   -1.1690    1.8580   -2.8980 C   0  0  1  0  0  0  0  0  0  0  0  0
   -2.2700    1.8240   -3.7710 O   0  0  0  0  0  0  0  0  0  0  0  0
   -0.8830    0.4230   -2.5180 C   0  0  2  0  0  0  0  0  0  0  0  0
    0.2260    0.2960   -1.6230 N   0  0  0  0  0  0  0  0  0  0  0  0
   -0.6270   -0.4070   -3.7220 C   0  0  0  0  0  0  0  0  0  0  0  0
   -1.5030   -0.4350   -4.6420 O   0  0  0  0  0  0  0  0  0  0  0  0
    0.5410   -1.1350   -3.8400 O   0  0  0  0  0  0  0  0  0  0  0  0
   -0.4310    3.1860   -4.3750 H   0  0  0  0  0  0  0  0  0  0  0  0
    0.6960    1.8470   -4.0460 H   0  0  0  0  0  0  0  0  0  0  0  0
    0.5010    3.2610   -2.8690 H   0  0  0  0  0  0  0  0  0  0  0  0
   -1.5010    2.4510   -2.0230 H   0  0  0  0  0  0  0  0  0  0  0  0
   -2.1020    2.4410   -4.5070 H   0  0  0  0  0  0  0  0  0  0  0  0
   -1.8010    0.0460   -2.0520 H   0  0  0  0  0  0  0  0  0  0  0  0
    1.2040    0.5870   -1.8660 H   0  0  0  0  0  0  0  0  0  0  0  0
  2 12  1  1  0  0  0
  2  1  1  0  0  0  0
  3  2  1  0  0  0  0
  3 13  1  0  0  0  0
  4 16  1  0  0  0  0
  4  5  1  0  0  0  0
  4  3  1  0  0  0  0
  5 18  1  0  0  0  0
  5 17  1  0  0  0  0
  6 20  1  0  0  0  0
  6 19  1  0  0  0  0
  6  5  1  0  0  0  0
  7  6  1  0  0  0  0
  8  2  1  0  0  0  0
  9  8  2  0  0  0  0
 10  1  1  0  0  0  0
 11  1  1  0  0  0  0
 14  3  1  0  0  0  0
 15  4  1  0  0  0  0
 21  7  1  0  0  0  0
 22  7  1  0  0  0  0
 23 24  1  0  0  0  0
 24 26  1  0  0  0  0
 24 25  2  0  0  0  0
 26 27  1  0  0  0  0
 27 36  1  0  0  0  0
 27 28  1  0  0  0  0
 27 37  1  0  0  0  0
 28 38  1  1  0  0  0
 28 29  1  0  0  0  0
 29  8  1  0  0  0  0
 30 31  2  0  0  0  0
 30 28  1  0  0  0  0
 32 23  1  0  0  0  0
 33 23  1  0  0  0  0
 34 26  1  0  0  0  0
 35 26  1  0  0  0  0
 39 29  1  0  0  0  0
 40 41  1  0  0  0  0
 40 50  1  0  0  0  0
 41 43  1  0  0  0  0
 41 51  1  1  0  0  0
 42 41  1  0  0  0  0
 43 53  1  1  0  0  0
 43 44  1  0  0  0  0
 44 30  1  0  0  0  0
 45 43  1  0  0  0  0
 46 45  2  0  0  0  0
 47 45  1  0  0  0  0
 48 40  1  0  0  0  0
 49 40  1  0  0  0  0
 52 42  1  0  0  0  0
 54 44  1  0  0  0  0
M  END
$$$$
