KQV.pdb
 OpenBabel07022418503D

 56 55  0  0  1  0  0  0  0  0999 V2000
    0.1340   -0.5550    4.7530 N   0  0  0  0  0  0  0  0  0  0  0  0
    0.7450   -0.6020    3.3850 C   0  0  1  0  0  0  0  0  0  0  0  0
    0.9380   -2.0310    3.1190 C   0  0  0  0  0  0  0  0  0  0  0  0
    1.5540   -2.4990    1.8750 C   0  0  0  0  0  0  0  0  0  0  0  0
    2.9480   -1.9990    1.6140 C   0  0  0  0  0  0  0  0  0  0  0  0
    3.8540   -2.4590    2.7580 C   0  0  0  0  0  0  0  0  0  0  0  0
    5.1880   -1.9930    2.5270 N   0  0  0  0  0  0  0  0  0  0  0  0
   -0.2270    0.1330    2.5600 C   0  0  0  0  0  0  0  0  0  0  0  0
   -1.2830    0.6610    3.0650 O   0  0  0  0  0  0  0  0  0  0  0  0
   -0.8950   -0.7020    4.6340 H   0  0  0  0  0  0  0  0  0  0  0  0
    0.5740   -1.3020    5.3360 H   0  0  0  0  0  0  0  0  0  0  0  0
    1.6880   -0.0270    3.5450 H   0  0  0  0  0  0  0  0  0  0  0  0
    1.4400   -2.4720    4.0390 H   0  0  0  0  0  0  0  0  0  0  0  0
   -0.0920   -2.5150    3.1770 H   0  0  0  0  0  0  0  0  0  0  0  0
    1.6350   -3.6360    1.9800 H   0  0  0  0  0  0  0  0  0  0  0  0
    0.9640   -2.3800    0.9650 H   0  0  0  0  0  0  0  0  0  0  0  0
    3.0300   -0.9220    1.5280 H   0  0  0  0  0  0  0  0  0  0  0  0
    3.3760   -2.4560    0.6980 H   0  0  0  0  0  0  0  0  0  0  0  0
    3.8170   -3.5880    2.7600 H   0  0  0  0  0  0  0  0  0  0  0  0
    3.4310   -2.1240    3.7240 H   0  0  0  0  0  0  0  0  0  0  0  0
    5.3980   -1.2180    3.1730 H   0  0  0  0  0  0  0  0  0  0  0  0
    5.2820   -1.7160    1.5300 H   0  0  0  0  0  0  0  0  0  0  0  0
   -0.8440    5.1170   -2.6440 N   0  0  0  0  0  0  0  0  0  0  0  0
   -0.3360    4.1140   -1.7870 C   0  0  0  0  0  0  0  0  0  0  0  0
    0.8940    4.1070   -1.5520 O   0  0  0  0  0  0  0  0  0  0  0  0
   -1.2200    3.0680   -1.1560 C   0  0  0  0  0  0  0  0  0  0  0  0
   -0.3670    2.1920   -0.3300 C   0  0  0  0  0  0  0  0  0  0  0  0
   -1.0490    1.0790    0.4120 C   0  0  2  0  0  0  0  0  0  0  0  0
   -0.0690    0.3120    1.1830 N   0  0  0  0  0  0  0  0  0  0  0  0
   -1.8810    0.1900   -0.3990 C   0  0  0  0  0  0  0  0  0  0  0  0
   -2.7710    0.6720   -1.1490 O   0  0  0  0  0  0  0  0  0  0  0  0
   -1.0610    6.0530   -2.2640 H   0  0  0  0  0  0  0  0  0  0  0  0
   -1.0020    4.9310   -3.6490 H   0  0  0  0  0  0  0  0  0  0  0  0
   -1.8270    2.5710   -1.9410 H   0  0  0  0  0  0  0  0  0  0  0  0
   -1.9520    3.6390   -0.5200 H   0  0  0  0  0  0  0  0  0  0  0  0
    0.1880    2.8390    0.3870 H   0  0  0  0  0  0  0  0  0  0  0  0
    0.4160    1.7460   -1.0130 H   0  0  0  0  0  0  0  0  0  0  0  0
   -1.7080    1.5820    1.1690 H   0  0  0  0  0  0  0  0  0  0  0  0
    0.7480   -0.0760    0.6310 H   0  0  0  0  0  0  0  0  0  0  0  0
   -0.8270   -3.7610   -1.6330 C   0  0  0  0  0  0  0  0  0  0  0  0
   -1.8270   -2.8440   -2.2570 C   0  0  0  0  0  0  0  0  0  0  0  0
   -1.1980   -1.9330   -3.2860 C   0  0  0  0  0  0  0  0  0  0  0  0
   -2.6310   -2.0550   -1.2520 C   0  0  2  0  0  0  0  0  0  0  0  0
   -1.7760   -1.2220   -0.4210 N   0  0  0  0  0  0  0  0  0  0  0  0
   -3.4100   -2.9930   -0.4120 C   0  0  0  0  0  0  0  0  0  0  0  0
   -3.2510   -2.9600    0.8330 O   0  0  0  0  0  0  0  0  0  0  0  0
   -4.3080   -3.9070   -0.9300 O   0  0  0  0  0  0  0  0  0  0  0  0
   -0.8260   -4.7670   -2.1450 H   0  0  0  0  0  0  0  0  0  0  0  0
   -0.9260   -3.8870   -0.5500 H   0  0  0  0  0  0  0  0  0  0  0  0
    0.1880   -3.3440   -1.8520 H   0  0  0  0  0  0  0  0  0  0  0  0
   -2.5620   -3.4820   -2.8110 H   0  0  0  0  0  0  0  0  0  0  0  0
   -0.1980   -1.6300   -2.9510 H   0  0  0  0  0  0  0  0  0  0  0  0
   -1.8990   -1.0930   -3.4420 H   0  0  0  0  0  0  0  0  0  0  0  0
   -1.0900   -2.5100   -4.2330 H   0  0  0  0  0  0  0  0  0  0  0  0
   -3.3360   -1.4180   -1.8280 H   0  0  0  0  0  0  0  0  0  0  0  0
   -1.0830   -1.7210    0.1650 H   0  0  0  0  0  0  0  0  0  0  0  0
  1 11  1  0  0  0  0
  2 12  1  6  0  0  0
  2  1  1  0  0  0  0
  3 14  1  0  0  0  0
  3  2  1  0  0  0  0
  3 13  1  0  0  0  0
  4 15  1  0  0  0  0
  4  3  1  0  0  0  0
  5  4  1  0  0  0  0
  5  6  1  0  0  0  0
  6 19  1  0  0  0  0
  6 20  1  0  0  0  0
  7  6  1  0  0  0  0
  7 21  1  0  0  0  0
  8  9  2  0  0  0  0
  8  2  1  0  0  0  0
 10  1  1  0  0  0  0
 16  4  1  0  0  0  0
 17  5  1  0  0  0  0
 18  5  1  0  0  0  0
 22  7  1  0  0  0  0
 23 32  1  0  0  0  0
 23 24  1  0  0  0  0
 24 25  2  0  0  0  0
 24 26  1  0  0  0  0
 26 35  1  0  0  0  0
 26 27  1  0  0  0  0
 27 36  1  0  0  0  0
 27 28  1  0  0  0  0
 28 38  1  1  0  0  0
 28 29  1  0  0  0  0
 29  8  1  0  0  0  0
 30 28  1  0  0  0  0
 31 30  2  0  0  0  0
 33 23  1  0  0  0  0
 34 26  1  0  0  0  0
 37 27  1  0  0  0  0
 39 29  1  0  0  0  0
 40 49  1  0  0  0  0
 41 40  1  0  0  0  0
 41 43  1  0  0  0  0
 42 52  1  0  0  0  0
 42 41  1  0  0  0  0
 43 55  1  6  0  0  0
 43 44  1  0  0  0  0
 43 45  1  0  0  0  0
 44 30  1  0  0  0  0
 44 56  1  0  0  0  0
 45 46  1  0  0  0  0
 47 45  2  0  0  0  0
 48 40  1  0  0  0  0
 50 40  1  0  0  0  0
 51 41  1  0  0  0  0
 53 42  1  0  0  0  0
 54 42  1  0  0  0  0
M  END
$$$$
