KQY.pdb
 OpenBabel07022418503D

 61 61  0  0  1  0  0  0  0  0999 V2000
    1.6600   -1.7890    3.1040 N   0  0  0  0  0  0  0  0  0  0  0  0
    1.9310   -0.3010    3.2280 C   0  0  1  0  0  0  0  0  0  0  0  0
    3.3680   -0.1250    2.8720 C   0  0  0  0  0  0  0  0  0  0  0  0
    4.0230    1.1750    2.9010 C   0  0  0  0  0  0  0  0  0  0  0  0
    3.5860    2.2820    2.0340 C   0  0  0  0  0  0  0  0  0  0  0  0
    3.6290    1.9200    0.5460 C   0  0  0  0  0  0  0  0  0  0  0  0
    3.1750    3.0930   -0.1790 N   0  0  0  0  0  0  0  0  0  0  0  0
    0.9520    0.3570    2.3220 C   0  0  0  0  0  0  0  0  0  0  0  0
    0.5270    1.5290    2.4470 O   0  0  0  0  0  0  0  0  0  0  0  0
    2.1680   -2.1430    2.2600 H   0  0  0  0  0  0  0  0  0  0  0  0
    2.1130   -2.1950    3.9390 H   0  0  0  0  0  0  0  0  0  0  0  0
    1.7580   -0.0590    4.2660 H   0  0  0  0  0  0  0  0  0  0  0  0
    3.9820   -0.8140    3.5550 H   0  0  0  0  0  0  0  0  0  0  0  0
    3.5750   -0.5820    1.8510 H   0  0  0  0  0  0  0  0  0  0  0  0
    4.0220    1.5930    3.9620 H   0  0  0  0  0  0  0  0  0  0  0  0
    5.1290    1.0060    2.7210 H   0  0  0  0  0  0  0  0  0  0  0  0
    4.4100    3.0990    2.1600 H   0  0  0  0  0  0  0  0  0  0  0  0
    2.6870    2.8210    2.2400 H   0  0  0  0  0  0  0  0  0  0  0  0
    2.9650    1.0550    0.3540 H   0  0  0  0  0  0  0  0  0  0  0  0
    4.6570    1.6130    0.2400 H   0  0  0  0  0  0  0  0  0  0  0  0
    2.9460    2.8740   -1.1760 H   0  0  0  0  0  0  0  0  0  0  0  0
    3.9970    3.7490   -0.2160 H   0  0  0  0  0  0  0  0  0  0  0  0
   -2.3660    3.0110   -2.5190 N   0  0  0  0  0  0  0  0  0  0  0  0
   -1.3760    2.3140   -1.7750 C   0  0  0  0  0  0  0  0  0  0  0  0
   -0.8640    2.9560   -0.8230 O   0  0  0  0  0  0  0  0  0  0  0  0
   -0.9590    0.9400   -2.0760 C   0  0  0  0  0  0  0  0  0  0  0  0
   -0.0010    0.3310   -1.0990 C   0  0  0  0  0  0  0  0  0  0  0  0
   -0.5210    0.2290    0.3020 C   0  0  2  0  0  0  0  0  0  0  0  0
    0.4210   -0.3550    1.2040 N   0  0  0  0  0  0  0  0  0  0  0  0
   -1.7900   -0.5180    0.4340 C   0  0  0  0  0  0  0  0  0  0  0  0
   -2.7780   -0.1950   -0.2280 O   0  0  0  0  0  0  0  0  0  0  0  0
   -2.1990    3.9030   -3.0260 H   0  0  0  0  0  0  0  0  0  0  0  0
   -3.3190    2.6020   -2.5580 H   0  0  0  0  0  0  0  0  0  0  0  0
   -1.8730    0.3030   -2.2640 H   0  0  0  0  0  0  0  0  0  0  0  0
   -0.4890    0.9780   -3.1160 H   0  0  0  0  0  0  0  0  0  0  0  0
    0.9400    0.9120   -1.1450 H   0  0  0  0  0  0  0  0  0  0  0  0
    0.1800   -0.7320   -1.4360 H   0  0  0  0  0  0  0  0  0  0  0  0
   -0.7300    1.2540    0.6760 H   0  0  0  0  0  0  0  0  0  0  0  0
    0.7410   -1.3270    1.0550 H   0  0  0  0  0  0  0  0  0  0  0  0
   -1.7330   -4.5350   -4.2590 O   0  0  0  0  0  0  0  0  0  0  0  0
   -2.0110   -4.3690   -2.9030 C   0  0  0  0  0  0  0  0  0  0  0  0
   -1.0130   -4.2420   -1.9460 C   0  0  0  0  0  0  0  0  0  0  0  0
   -1.2600   -4.0780   -0.6070 C   0  0  0  0  0  0  0  0  0  0  0  0
   -2.5600   -4.0350   -0.1710 C   0  0  0  0  0  0  0  0  0  0  0  0
   -2.9180   -3.8550    1.2670 C   0  0  0  0  0  0  0  0  0  0  0  0
   -3.0490   -2.4080    1.5370 C   0  0  2  0  0  0  0  0  0  0  0  0
   -1.9020   -1.6030    1.3090 N   0  0  0  0  0  0  0  0  0  0  0  0
   -3.5320   -2.2060    2.9170 C   0  0  0  0  0  0  0  0  0  0  0  0
   -4.5310   -2.8120    3.3510 O   0  0  0  0  0  0  0  0  0  0  0  0
   -3.5770   -4.1550   -1.0750 C   0  0  0  0  0  0  0  0  0  0  0  0
   -3.3000   -4.3190   -2.4130 C   0  0  0  0  0  0  0  0  0  0  0  0
   -2.8660   -1.3280    3.7460 O   0  0  0  0  0  0  0  0  0  0  0  0
   -2.4310   -5.0920   -4.7690 H   0  0  0  0  0  0  0  0  0  0  0  0
   -0.0010   -4.2820   -2.3370 H   0  0  0  0  0  0  0  0  0  0  0  0
   -0.4440   -3.9830    0.1010 H   0  0  0  0  0  0  0  0  0  0  0  0
   -3.9100   -4.3280    1.4010 H   0  0  0  0  0  0  0  0  0  0  0  0
   -2.2270   -4.3960    1.9350 H   0  0  0  0  0  0  0  0  0  0  0  0
   -3.8680   -2.0130    0.8690 H   0  0  0  0  0  0  0  0  0  0  0  0
   -1.0410   -1.8720    1.8770 H   0  0  0  0  0  0  0  0  0  0  0  0
   -4.6400   -4.1250   -0.7620 H   0  0  0  0  0  0  0  0  0  0  0  0
   -4.1310   -4.4150   -3.1240 H   0  0  0  0  0  0  0  0  0  0  0  0
  1  2  1  0  0  0  0
  1 11  1  0  0  0  0
  2 12  1  1  0  0  0
  3  4  1  0  0  0  0
  3  2  1  0  0  0  0
  3 13  1  0  0  0  0
  4 15  1  0  0  0  0
  5 17  1  0  0  0  0
  5 18  1  0  0  0  0
  5  4  1  0  0  0  0
  6  5  1  0  0  0  0
  7  6  1  0  0  0  0
  8  9  2  0  0  0  0
  8  2  1  0  0  0  0
 10  1  1  0  0  0  0
 14  3  1  0  0  0  0
 16  4  1  0  0  0  0
 19  6  1  0  0  0  0
 20  6  1  0  0  0  0
 21  7  1  0  0  0  0
 22  7  1  0  0  0  0
 23 24  1  0  0  0  0
 24 25  2  0  0  0  0
 26 24  1  0  0  0  0
 26 27  1  0  0  0  0
 27 28  1  0  0  0  0
 28 30  1  0  0  0  0
 28 38  1  1  0  0  0
 28 29  1  0  0  0  0
 29  8  1  0  0  0  0
 30 47  1  0  0  0  0
 31 30  2  0  0  0  0
 32 23  1  0  0  0  0
 33 23  1  0  0  0  0
 34 26  1  0  0  0  0
 35 26  1  0  0  0  0
 36 27  1  0  0  0  0
 37 27  1  0  0  0  0
 39 29  1  0  0  0  0
 40 41  1  0  0  0  0
 41 51  2  0  0  0  0
 41 42  1  0  0  0  0
 42 43  2  0  0  0  0
 43 44  1  0  0  0  0
 43 55  1  0  0  0  0
 44 45  1  0  0  0  0
 45 56  1  0  0  0  0
 45 46  1  0  0  0  0
 45 57  1  0  0  0  0
 46 58  1  6  0  0  0
 46 48  1  0  0  0  0
 47 46  1  0  0  0  0
 47 59  1  0  0  0  0
 48 49  2  0  0  0  0
 48 52  1  0  0  0  0
 50 60  1  0  0  0  0
 50 44  2  0  0  0  0
 51 50  1  0  0  0  0
 53 40  1  0  0  0  0
 54 42  1  0  0  0  0
 61 51  1  0  0  0  0
M  END
$$$$
