KRA.pdb
 OpenBabel07022418483D

 56 55  0  0  1  0  0  0  0  0999 V2000
    0.7400   -3.3420    3.8880 N   0  0  0  0  0  0  0  0  0  0  0  0
    0.8800   -2.2400    2.9040 C   0  0  1  0  0  0  0  0  0  0  0  0
    1.7970   -2.7450    1.8720 C   0  0  0  0  0  0  0  0  0  0  0  0
    2.1730   -1.8990    0.7350 C   0  0  0  0  0  0  0  0  0  0  0  0
    2.8580   -0.6080    1.0770 C   0  0  0  0  0  0  0  0  0  0  0  0
    4.1530   -0.8300    1.8350 C   0  0  0  0  0  0  0  0  0  0  0  0
    4.6970    0.5100    2.0940 N   0  0  0  0  0  0  0  0  0  0  0  0
   -0.4760   -1.8700    2.5060 C   0  0  0  0  0  0  0  0  0  0  0  0
   -1.4430   -2.5160    3.0150 O   0  0  0  0  0  0  0  0  0  0  0  0
    0.3090   -4.1600    3.4510 H   0  0  0  0  0  0  0  0  0  0  0  0
    1.6490   -3.5180    4.3610 H   0  0  0  0  0  0  0  0  0  0  0  0
    1.3070   -1.4180    3.5340 H   0  0  0  0  0  0  0  0  0  0  0  0
    2.7450   -3.0570    2.4020 H   0  0  0  0  0  0  0  0  0  0  0  0
    1.3850   -3.7020    1.4810 H   0  0  0  0  0  0  0  0  0  0  0  0
    2.9510   -2.4850    0.1460 H   0  0  0  0  0  0  0  0  0  0  0  0
    1.3730   -1.7410   -0.0080 H   0  0  0  0  0  0  0  0  0  0  0  0
    2.2190    0.1350    1.5520 H   0  0  0  0  0  0  0  0  0  0  0  0
    3.1830   -0.1550    0.0930 H   0  0  0  0  0  0  0  0  0  0  0  0
    4.8930   -1.3480    1.2130 H   0  0  0  0  0  0  0  0  0  0  0  0
    3.9810   -1.2920    2.8260 H   0  0  0  0  0  0  0  0  0  0  0  0
    4.2310    0.9050    2.9430 H   0  0  0  0  0  0  0  0  0  0  0  0
    4.4550    1.1050    1.2460 H   0  0  0  0  0  0  0  0  0  0  0  0
    0.8800    0.8600   -2.0300 N   0  0  0  0  0  0  0  0  0  0  0  0
    0.0700    1.5090   -1.0780 C   0  0  0  0  0  0  0  0  0  0  0  0
    0.6260    2.0900   -0.0700 N   0  0  0  0  0  0  0  0  0  0  0  0
   -1.3640    1.5670   -1.1640 N   0  0  0  0  0  0  0  0  0  0  0  0
   -2.1450    2.3870   -0.2750 C   0  0  0  0  0  0  0  0  0  0  0  0
   -2.1960    2.0150    1.1380 C   0  0  0  0  0  0  0  0  0  0  0  0
   -2.7380    0.7710    1.6250 C   0  0  0  0  0  0  0  0  0  0  0  0
   -2.2270   -0.5550    1.2790 C   0  0  2  0  0  0  0  0  0  0  0  0
   -0.8650   -0.8520    1.6000 N   0  0  0  0  0  0  0  0  0  0  0  0
   -2.6440   -0.9700   -0.0680 C   0  0  0  0  0  0  0  0  0  0  0  0
   -3.8290   -0.6720   -0.4130 O   0  0  0  0  0  0  0  0  0  0  0  0
    1.7370    0.3680   -1.7400 H   0  0  0  0  0  0  0  0  0  0  0  0
    0.6120    0.8780   -3.0260 H   0  0  0  0  0  0  0  0  0  0  0  0
    1.6350    2.1250    0.1090 H   0  0  0  0  0  0  0  0  0  0  0  0
   -1.7860    0.9860   -1.9180 H   0  0  0  0  0  0  0  0  0  0  0  0
   -1.6420    3.4080   -0.3350 H   0  0  0  0  0  0  0  0  0  0  0  0
   -3.1400    2.6060   -0.7400 H   0  0  0  0  0  0  0  0  0  0  0  0
   -1.1500    2.1670    1.5670 H   0  0  0  0  0  0  0  0  0  0  0  0
   -2.7590    2.8540    1.6760 H   0  0  0  0  0  0  0  0  0  0  0  0
   -3.8550    0.7560    1.4120 H   0  0  0  0  0  0  0  0  0  0  0  0
   -2.7390    0.8230    2.7690 H   0  0  0  0  0  0  0  0  0  0  0  0
   -2.8890   -1.2710    1.9380 H   0  0  0  0  0  0  0  0  0  0  0  0
   -0.1090   -0.3010    1.1590 H   0  0  0  0  0  0  0  0  0  0  0  0
   -1.5380   -1.4710   -3.4190 C   0  0  0  0  0  0  0  0  0  0  0  0
   -2.3770   -2.0330   -2.3070 C   0  0  2  0  0  0  0  0  0  0  0  0
   -1.8550   -1.6690   -1.0070 N   0  0  0  0  0  0  0  0  0  0  0  0
   -2.5070   -3.5210   -2.4260 C   0  0  0  0  0  0  0  0  0  0  0  0
   -2.9530   -3.9620   -3.5110 O   0  0  0  0  0  0  0  0  0  0  0  0
   -2.1370   -4.3170   -1.3550 O   0  0  0  0  0  0  0  0  0  0  0  0
   -0.4850   -1.3200   -3.1040 H   0  0  0  0  0  0  0  0  0  0  0  0
   -1.8990   -0.4860   -3.7980 H   0  0  0  0  0  0  0  0  0  0  0  0
   -1.6000   -2.2120   -4.2560 H   0  0  0  0  0  0  0  0  0  0  0  0
   -3.4090   -1.6030   -2.3760 H   0  0  0  0  0  0  0  0  0  0  0  0
   -0.8640   -1.9330   -0.7570 H   0  0  0  0  0  0  0  0  0  0  0  0
  1 11  1  0  0  0  0
  2 12  1  1  0  0  0
  2  1  1  0  0  0  0
  3 13  1  0  0  0  0
  3  2  1  0  0  0  0
  4  5  1  0  0  0  0
  4  3  1  0  0  0  0
  5 17  1  0  0  0  0
  5  6  1  0  0  0  0
  6  7  1  0  0  0  0
  6 20  1  0  0  0  0
  7 21  1  0  0  0  0
  8  2  1  0  0  0  0
  8  9  2  0  0  0  0
 10  1  1  0  0  0  0
 14  3  1  0  0  0  0
 15  4  1  0  0  0  0
 16  4  1  0  0  0  0
 18  5  1  0  0  0  0
 19  6  1  0  0  0  0
 22  7  1  0  0  0  0
 23 34  1  0  0  0  0
 23 24  1  0  0  0  0
 24 25  2  0  0  0  0
 25 36  1  0  0  0  0
 26 24  1  0  0  0  0
 26 27  1  0  0  0  0
 27 28  1  0  0  0  0
 28 40  1  0  0  0  0
 28 29  1  0  0  0  0
 28 41  1  0  0  0  0
 29 43  1  0  0  0  0
 30 31  1  0  0  0  0
 30 29  1  0  0  0  0
 30 44  1  1  0  0  0
 31  8  1  0  0  0  0
 32 30  1  0  0  0  0
 33 32  2  0  0  0  0
 35 23  1  0  0  0  0
 37 26  1  0  0  0  0
 38 27  1  0  0  0  0
 39 27  1  0  0  0  0
 42 29  1  0  0  0  0
 45 31  1  0  0  0  0
 46 52  1  0  0  0  0
 46 47  1  0  0  0  0
 47 55  1  6  0  0  0
 47 48  1  0  0  0  0
 48 56  1  0  0  0  0
 48 32  1  0  0  0  0
 49 47  1  0  0  0  0
 49 51  1  0  0  0  0
 50 49  2  0  0  0  0
 53 46  1  0  0  0  0
 54 46  1  0  0  0  0
M  END
$$$$
