KRC.pdb
 OpenBabel07022418493D

 57 56  0  0  1  0  0  0  0  0999 V2000
   -0.3130    1.1560   -2.2580 N   0  0  0  0  0  0  0  0  0  0  0  0
    0.8670    1.5840   -1.5670 C   0  0  1  0  0  0  0  0  0  0  0  0
    0.7790    3.0220   -1.1050 C   0  0  0  0  0  0  0  0  0  0  0  0
    0.5880    3.9660   -2.2760 C   0  0  0  0  0  0  0  0  0  0  0  0
    0.5010    5.3990   -1.8110 C   0  0  0  0  0  0  0  0  0  0  0  0
    1.7580    5.8260   -1.0800 C   0  0  0  0  0  0  0  0  0  0  0  0
    2.9220    5.7150   -1.9270 N   0  0  0  0  0  0  0  0  0  0  0  0
    1.1480    0.7400   -0.3640 C   0  0  0  0  0  0  0  0  0  0  0  0
    2.1430    0.9510    0.3740 O   0  0  0  0  0  0  0  0  0  0  0  0
   -0.2570    1.3010   -3.2910 H   0  0  0  0  0  0  0  0  0  0  0  0
   -1.1570    1.6620   -1.9380 H   0  0  0  0  0  0  0  0  0  0  0  0
    1.7170    1.5350   -2.2910 H   0  0  0  0  0  0  0  0  0  0  0  0
   -0.0750    3.0750   -0.4030 H   0  0  0  0  0  0  0  0  0  0  0  0
    1.7120    3.3280   -0.5920 H   0  0  0  0  0  0  0  0  0  0  0  0
   -0.4170    3.7130   -2.7060 H   0  0  0  0  0  0  0  0  0  0  0  0
    1.3150    3.7950   -3.0680 H   0  0  0  0  0  0  0  0  0  0  0  0
   -0.3870    5.5300   -1.1840 H   0  0  0  0  0  0  0  0  0  0  0  0
    0.4170    6.0280   -2.7160 H   0  0  0  0  0  0  0  0  0  0  0  0
    1.6330    6.9090   -0.8340 H   0  0  0  0  0  0  0  0  0  0  0  0
    1.8660    5.3020   -0.1070 H   0  0  0  0  0  0  0  0  0  0  0  0
    2.6630    5.5100   -2.9360 H   0  0  0  0  0  0  0  0  0  0  0  0
    3.5660    4.9690   -1.5670 H   0  0  0  0  0  0  0  0  0  0  0  0
   -5.7930   -3.8040    1.7090 N   0  0  0  0  0  0  0  0  0  0  0  0
   -4.5160   -3.2180    2.0360 C   0  0  0  0  0  0  0  0  0  0  0  0
   -4.2750   -2.7550    3.2110 N   0  0  0  0  0  0  0  0  0  0  0  0
   -3.4750   -3.1320    1.0720 N   0  0  0  0  0  0  0  0  0  0  0  0
   -2.0990   -2.8390    1.3900 C   0  0  0  0  0  0  0  0  0  0  0  0
   -1.8740   -1.4520    1.8610 C   0  0  0  0  0  0  0  0  0  0  0  0
   -0.4820   -1.0940    2.2130 C   0  0  0  0  0  0  0  0  0  0  0  0
    0.5560   -1.1760    1.1660 C   0  0  2  0  0  0  0  0  0  0  0  0
    0.3050   -0.3450    0.0060 N   0  0  0  0  0  0  0  0  0  0  0  0
    0.9100   -2.5430    0.7570 C   0  0  0  0  0  0  0  0  0  0  0  0
    0.9830   -2.9080   -0.4510 O   0  0  0  0  0  0  0  0  0  0  0  0
   -6.6180   -3.2730    1.4200 H   0  0  0  0  0  0  0  0  0  0  0  0
   -5.8300   -4.8550    1.7880 H   0  0  0  0  0  0  0  0  0  0  0  0
   -4.9730   -2.7730    3.9910 H   0  0  0  0  0  0  0  0  0  0  0  0
   -3.7510   -3.2950    0.0680 H   0  0  0  0  0  0  0  0  0  0  0  0
   -1.5140   -3.0390    0.4730 H   0  0  0  0  0  0  0  0  0  0  0  0
   -1.6900   -3.5300    2.1600 H   0  0  0  0  0  0  0  0  0  0  0  0
   -2.4910   -1.2780    2.7950 H   0  0  0  0  0  0  0  0  0  0  0  0
   -2.2420   -0.7280    1.0890 H   0  0  0  0  0  0  0  0  0  0  0  0
   -0.4070   -0.1030    2.7360 H   0  0  0  0  0  0  0  0  0  0  0  0
   -0.1670   -1.8200    3.0290 H   0  0  0  0  0  0  0  0  0  0  0  0
    1.5180   -0.7930    1.6810 H   0  0  0  0  0  0  0  0  0  0  0  0
   -0.5330   -0.5610   -0.5740 H   0  0  0  0  0  0  0  0  0  0  0  0
    1.2040   -3.5750    1.7080 N   0  0  0  0  0  0  0  0  0  0  0  0
    1.5530   -4.9070    1.2870 C   0  0  1  0  0  0  0  0  0  0  0  0
    3.0430   -5.1340    1.5750 C   0  0  0  0  0  0  0  0  0  0  0  0
    3.4330   -6.8160    1.0310 S   0  0  0  0  0  0  0  0  0  0  0  0
    0.8040   -5.8820    2.1050 C   0  0  0  0  0  0  0  0  0  0  0  0
    0.9080   -7.1300    1.9200 O   0  0  0  0  0  0  0  0  0  0  0  0
   -0.0470   -5.4680    3.1130 O   0  0  0  0  0  0  0  0  0  0  0  0
    1.1590   -3.3340    2.7140 H   0  0  0  0  0  0  0  0  0  0  0  0
    1.4470   -5.0600    0.2080 H   0  0  0  0  0  0  0  0  0  0  0  0
    3.1470   -5.0870    2.6780 H   0  0  0  0  0  0  0  0  0  0  0  0
    3.6710   -4.4190    1.0330 H   0  0  0  0  0  0  0  0  0  0  0  0
    3.1750   -6.8580   -0.3700 H   0  0  0  0  0  0  0  0  0  0  0  0
  1 11  1  0  0  0  0
  1  2  1  0  0  0  0
  2 12  1  6  0  0  0
  2  3  1  0  0  0  0
  2  8  1  0  0  0  0
  3 14  1  0  0  0  0
  3 13  1  0  0  0  0
  4  5  1  0  0  0  0
  4  3  1  0  0  0  0
  5 17  1  0  0  0  0
  5  6  1  0  0  0  0
  6 19  1  0  0  0  0
  6 20  1  0  0  0  0
  7 22  1  0  0  0  0
  7  6  1  0  0  0  0
  8 31  1  0  0  0  0
  8  9  2  0  0  0  0
 10  1  1  0  0  0  0
 15  4  1  0  0  0  0
 16  4  1  0  0  0  0
 18  5  1  0  0  0  0
 21  7  1  0  0  0  0
 23 35  1  0  0  0  0
 23 24  1  0  0  0  0
 24 25  2  0  0  0  0
 25 36  1  0  0  0  0
 26 27  1  0  0  0  0
 26 24  1  0  0  0  0
 27 28  1  0  0  0  0
 27 39  1  0  0  0  0
 28 29  1  0  0  0  0
 28 40  1  0  0  0  0
 29 42  1  0  0  0  0
 29 43  1  0  0  0  0
 30 44  1  1  0  0  0
 30 29  1  0  0  0  0
 31 30  1  0  0  0  0
 32 30  1  0  0  0  0
 32 46  1  0  0  0  0
 33 32  2  0  0  0  0
 34 23  1  0  0  0  0
 37 26  1  0  0  0  0
 38 27  1  0  0  0  0
 41 28  1  0  0  0  0
 45 31  1  0  0  0  0
 46 53  1  0  0  0  0
 47 54  1  6  0  0  0
 47 48  1  0  0  0  0
 47 46  1  0  0  0  0
 47 50  1  0  0  0  0
 48 55  1  0  0  0  0
 49 48  1  0  0  0  0
 50 52  1  0  0  0  0
 51 50  2  0  0  0  0
 56 48  1  0  0  0  0
 57 49  1  0  0  0  0
M  END
$$$$
