KRD.pdb
 OpenBabel07022418493D

 59 58  0  0  1  0  0  0  0  0999 V2000
   -0.4120   -1.7540    4.0910 N   0  0  0  0  0  0  0  0  0  0  0  0
    0.0800   -0.7790    3.0670 C   0  0  1  0  0  0  0  0  0  0  0  0
    1.3500   -1.3160    2.5480 C   0  0  0  0  0  0  0  0  0  0  0  0
    2.1130   -0.4950    1.5780 C   0  0  0  0  0  0  0  0  0  0  0  0
    2.4700    0.8380    2.2330 C   0  0  0  0  0  0  0  0  0  0  0  0
    3.3160    0.6260    3.4660 C   0  0  0  0  0  0  0  0  0  0  0  0
    4.5360   -0.0720    3.0650 N   0  0  0  0  0  0  0  0  0  0  0  0
   -1.0480   -0.5820    2.1940 C   0  0  0  0  0  0  0  0  0  0  0  0
   -2.1580   -0.2710    2.7800 O   0  0  0  0  0  0  0  0  0  0  0  0
   -0.5080   -2.6480    3.5970 H   0  0  0  0  0  0  0  0  0  0  0  0
   -1.3640   -1.4300    4.4050 H   0  0  0  0  0  0  0  0  0  0  0  0
    0.2770    0.1550    3.6560 H   0  0  0  0  0  0  0  0  0  0  0  0
    1.1720   -2.3630    2.1500 H   0  0  0  0  0  0  0  0  0  0  0  0
    2.0000   -1.5300    3.4550 H   0  0  0  0  0  0  0  0  0  0  0  0
    1.6570   -0.2560    0.6290 H   0  0  0  0  0  0  0  0  0  0  0  0
    3.1160   -0.9830    1.3880 H   0  0  0  0  0  0  0  0  0  0  0  0
    1.5250    1.3090    2.5350 H   0  0  0  0  0  0  0  0  0  0  0  0
    3.0210    1.4670    1.5070 H   0  0  0  0  0  0  0  0  0  0  0  0
    2.7870    0.1150    4.2880 H   0  0  0  0  0  0  0  0  0  0  0  0
    3.5750    1.6440    3.8600 H   0  0  0  0  0  0  0  0  0  0  0  0
    4.5220   -1.0100    3.5340 H   0  0  0  0  0  0  0  0  0  0  0  0
    5.3840    0.4750    3.3760 H   0  0  0  0  0  0  0  0  0  0  0  0
    1.9400    1.7230   -2.2710 N   0  0  0  0  0  0  0  0  0  0  0  0
    0.9560    2.5100   -1.6070 C   0  0  0  0  0  0  0  0  0  0  0  0
    1.3120    3.1340   -0.5420 N   0  0  0  0  0  0  0  0  0  0  0  0
   -0.3700    2.6000   -2.1060 N   0  0  0  0  0  0  0  0  0  0  0  0
   -1.4140    3.0080   -1.1990 C   0  0  0  0  0  0  0  0  0  0  0  0
   -1.6600    1.9530   -0.1510 C   0  0  0  0  0  0  0  0  0  0  0  0
   -2.0710    0.6910   -0.8720 C   0  0  0  0  0  0  0  0  0  0  0  0
   -2.3500   -0.4440    0.0720 C   0  0  2  0  0  0  0  0  0  0  0  0
   -1.0930   -0.6890    0.8210 N   0  0  0  0  0  0  0  0  0  0  0  0
   -2.7450   -1.6330   -0.7020 C   0  0  0  0  0  0  0  0  0  0  0  0
   -3.7750   -1.6040   -1.4130 O   0  0  0  0  0  0  0  0  0  0  0  0
    2.7070    2.1240   -2.8350 H   0  0  0  0  0  0  0  0  0  0  0  0
    1.9000    0.6750   -2.1930 H   0  0  0  0  0  0  0  0  0  0  0  0
    0.6610    3.7240   -0.0020 H   0  0  0  0  0  0  0  0  0  0  0  0
   -0.5560    2.3690   -3.1150 H   0  0  0  0  0  0  0  0  0  0  0  0
   -1.2230    4.0010   -0.7470 H   0  0  0  0  0  0  0  0  0  0  0  0
   -2.3710    3.1240   -1.7790 H   0  0  0  0  0  0  0  0  0  0  0  0
   -2.5130    2.2750    0.4880 H   0  0  0  0  0  0  0  0  0  0  0  0
   -0.7630    1.8210    0.4840 H   0  0  0  0  0  0  0  0  0  0  0  0
   -2.9700    0.9480   -1.4700 H   0  0  0  0  0  0  0  0  0  0  0  0
   -1.2680    0.3900   -1.5900 H   0  0  0  0  0  0  0  0  0  0  0  0
   -3.1530   -0.1620    0.7800 H   0  0  0  0  0  0  0  0  0  0  0  0
   -0.3060   -0.9580    0.2080 H   0  0  0  0  0  0  0  0  0  0  0  0
   -1.9510   -2.8130   -0.6370 N   0  0  0  0  0  0  0  0  0  0  0  0
   -2.3390   -3.9820   -1.3980 C   0  0  1  0  0  0  0  0  0  0  0  0
   -1.2880   -4.3390   -2.4060 C   0  0  0  0  0  0  0  0  0  0  0  0
   -0.0060   -4.6460   -1.7570 C   0  0  0  0  0  0  0  0  0  0  0  0
    0.1610   -4.6360   -0.5120 O   0  0  0  0  0  0  0  0  0  0  0  0
   -2.5310   -5.1140   -0.4510 C   0  0  0  0  0  0  0  0  0  0  0  0
   -2.8720   -6.2420   -0.8780 O   0  0  0  0  0  0  0  0  0  0  0  0
    1.1040   -4.9720   -2.5600 O   0  0  0  0  0  0  0  0  0  0  0  0
   -2.3380   -4.9470    0.9110 O   0  0  0  0  0  0  0  0  0  0  0  0
   -1.1180   -2.7860   -0.0350 H   0  0  0  0  0  0  0  0  0  0  0  0
   -3.2830   -3.7630   -1.9560 H   0  0  0  0  0  0  0  0  0  0  0  0
   -1.6550   -5.2110   -2.9850 H   0  0  0  0  0  0  0  0  0  0  0  0
   -1.1660   -3.4980   -3.1230 H   0  0  0  0  0  0  0  0  0  0  0  0
    1.8120   -5.6290   -2.2150 H   0  0  0  0  0  0  0  0  0  0  0  0
  1 11  1  0  0  0  0
  2 12  1  1  0  0  0
  2  1  1  0  0  0  0
  3  2  1  0  0  0  0
  3 14  1  0  0  0  0
  4  5  1  0  0  0  0
  4  3  1  0  0  0  0
  5 17  1  0  0  0  0
  5  6  1  0  0  0  0
  6 20  1  0  0  0  0
  6 19  1  0  0  0  0
  7 22  1  0  0  0  0
  7  6  1  0  0  0  0
  7 21  1  0  0  0  0
  8  9  2  0  0  0  0
  8  2  1  0  0  0  0
 10  1  1  0  0  0  0
 13  3  1  0  0  0  0
 15  4  1  0  0  0  0
 16  4  1  0  0  0  0
 18  5  1  0  0  0  0
 23 35  1  0  0  0  0
 23 24  1  0  0  0  0
 24 25  2  0  0  0  0
 25 36  1  0  0  0  0
 26 24  1  0  0  0  0
 26 27  1  0  0  0  0
 27 38  1  0  0  0  0
 27 28  1  0  0  0  0
 28 41  1  0  0  0  0
 28 40  1  0  0  0  0
 29 28  1  0  0  0  0
 29 30  1  0  0  0  0
 30 44  1  1  0  0  0
 30 31  1  0  0  0  0
 31  8  1  0  0  0  0
 32 46  1  0  0  0  0
 32 30  1  0  0  0  0
 33 32  2  0  0  0  0
 34 23  1  0  0  0  0
 37 26  1  0  0  0  0
 39 27  1  0  0  0  0
 42 29  1  0  0  0  0
 43 29  1  0  0  0  0
 45 31  1  0  0  0  0
 46 55  1  0  0  0  0
 47 56  1  6  0  0  0
 47 46  1  0  0  0  0
 47 51  1  0  0  0  0
 48 49  1  0  0  0  0
 48 47  1  0  0  0  0
 49 50  2  0  0  0  0
 51 54  1  0  0  0  0
 52 51  2  0  0  0  0
 53 59  1  0  0  0  0
 53 49  1  0  0  0  0
 57 48  1  0  0  0  0
 58 48  1  0  0  0  0
M  END
$$$$
