KRE.pdb
 OpenBabel07022418493D

 62 61  0  0  1  0  0  0  0  0999 V2000
    1.3230    0.9030    4.7490 N   0  0  0  0  0  0  0  0  0  0  0  0
    1.4060    1.1470    3.3300 C   0  0  1  0  0  0  0  0  0  0  0  0
    2.6560    0.7800    2.6620 C   0  0  0  0  0  0  0  0  0  0  0  0
    3.0960   -0.6470    2.7050 C   0  0  0  0  0  0  0  0  0  0  0  0
    3.3690   -1.1960    4.0690 C   0  0  0  0  0  0  0  0  0  0  0  0
    3.8130   -2.6430    4.0040 C   0  0  0  0  0  0  0  0  0  0  0  0
    2.8740   -3.5290    3.4100 N   0  0  0  0  0  0  0  0  0  0  0  0
    0.1680    0.6940    2.6990 C   0  0  0  0  0  0  0  0  0  0  0  0
   -0.8050    0.3770    3.4250 O   0  0  0  0  0  0  0  0  0  0  0  0
    0.3660    0.7420    5.1130 H   0  0  0  0  0  0  0  0  0  0  0  0
    1.8770    1.6080    5.2890 H   0  0  0  0  0  0  0  0  0  0  0  0
    1.3190    2.3020    3.2750 H   0  0  0  0  0  0  0  0  0  0  0  0
    2.7440    1.0910    1.6000 H   0  0  0  0  0  0  0  0  0  0  0  0
    3.5100    1.3570    3.1470 H   0  0  0  0  0  0  0  0  0  0  0  0
    4.0710   -0.6830    2.1320 H   0  0  0  0  0  0  0  0  0  0  0  0
    2.4250   -1.3160    2.1100 H   0  0  0  0  0  0  0  0  0  0  0  0
    4.2710   -0.6500    4.4760 H   0  0  0  0  0  0  0  0  0  0  0  0
    2.5880   -1.0710    4.8150 H   0  0  0  0  0  0  0  0  0  0  0  0
    4.7570   -2.6750    3.4350 H   0  0  0  0  0  0  0  0  0  0  0  0
    3.9450   -2.9720    5.0710 H   0  0  0  0  0  0  0  0  0  0  0  0
    2.7590   -4.4500    3.8860 H   0  0  0  0  0  0  0  0  0  0  0  0
    2.9820   -3.6590    2.3690 H   0  0  0  0  0  0  0  0  0  0  0  0
    0.7120    2.0990   -3.5390 N   0  0  0  0  0  0  0  0  0  0  0  0
   -0.6240    2.3830   -3.1920 C   0  0  0  0  0  0  0  0  0  0  0  0
   -1.5870    1.6450   -3.6780 N   0  0  0  0  0  0  0  0  0  0  0  0
   -0.9650    3.4470   -2.3430 N   0  0  0  0  0  0  0  0  0  0  0  0
   -1.9950    3.3800   -1.3500 C   0  0  0  0  0  0  0  0  0  0  0  0
   -1.6600    2.5150   -0.1750 C   0  0  0  0  0  0  0  0  0  0  0  0
   -1.4240    1.1090   -0.5730 C   0  0  0  0  0  0  0  0  0  0  0  0
   -1.1410    0.1780    0.5720 C   0  0  2  0  0  0  0  0  0  0  0  0
    0.0340    0.6010    1.2860 N   0  0  0  0  0  0  0  0  0  0  0  0
   -0.9510   -1.1890   -0.0340 C   0  0  0  0  0  0  0  0  0  0  0  0
    0.0970   -1.8080    0.3170 O   0  0  0  0  0  0  0  0  0  0  0  0
    1.4450    2.8370   -3.4860 H   0  0  0  0  0  0  0  0  0  0  0  0
    1.0180    1.1560   -3.8630 H   0  0  0  0  0  0  0  0  0  0  0  0
   -2.5850    1.8070   -3.4560 H   0  0  0  0  0  0  0  0  0  0  0  0
   -0.4010    4.3430   -2.4730 H   0  0  0  0  0  0  0  0  0  0  0  0
   -2.2150    4.4370   -1.0260 H   0  0  0  0  0  0  0  0  0  0  0  0
   -2.9530    3.0540   -1.8310 H   0  0  0  0  0  0  0  0  0  0  0  0
   -0.7050    2.9710    0.2450 H   0  0  0  0  0  0  0  0  0  0  0  0
   -2.4780    2.6200    0.5740 H   0  0  0  0  0  0  0  0  0  0  0  0
   -0.4810    1.1130   -1.2040 H   0  0  0  0  0  0  0  0  0  0  0  0
   -2.2230    0.6860   -1.1740 H   0  0  0  0  0  0  0  0  0  0  0  0
   -2.0070    0.1420    1.2870 H   0  0  0  0  0  0  0  0  0  0  0  0
    0.9190    0.8900    0.7600 H   0  0  0  0  0  0  0  0  0  0  0  0
   -1.8500   -1.7590   -0.9290 N   0  0  0  0  0  0  0  0  0  0  0  0
   -1.6200   -3.0880   -1.4830 C   0  0  1  0  0  0  0  0  0  0  0  0
   -2.8510   -3.7340   -1.9830 C   0  0  0  0  0  0  0  0  0  0  0  0
   -3.9650   -3.9500   -1.0240 C   0  0  0  0  0  0  0  0  0  0  0  0
   -3.5900   -4.8140    0.0810 C   0  0  0  0  0  0  0  0  0  0  0  0
   -2.4590   -5.3130    0.1670 O   0  0  0  0  0  0  0  0  0  0  0  0
   -0.7150   -2.9350   -2.7090 C   0  0  0  0  0  0  0  0  0  0  0  0
   -0.3730   -1.7980   -3.0190 O   0  0  0  0  0  0  0  0  0  0  0  0
   -4.4830   -5.1350    1.1190 O   0  0  0  0  0  0  0  0  0  0  0  0
   -0.2990   -4.0240   -3.4380 O   0  0  0  0  0  0  0  0  0  0  0  0
   -2.7250   -1.2340   -1.2150 H   0  0  0  0  0  0  0  0  0  0  0  0
   -1.0590   -3.6960   -0.7870 H   0  0  0  0  0  0  0  0  0  0  0  0
   -3.2440   -3.2250   -2.9150 H   0  0  0  0  0  0  0  0  0  0  0  0
   -2.5650   -4.7620   -2.3630 H   0  0  0  0  0  0  0  0  0  0  0  0
   -4.8150   -4.3710   -1.6430 H   0  0  0  0  0  0  0  0  0  0  0  0
   -4.3670   -2.9740   -0.6590 H   0  0  0  0  0  0  0  0  0  0  0  0
   -4.4900   -6.0570    1.5220 H   0  0  0  0  0  0  0  0  0  0  0  0
  1 10  1  0  0  0  0
  1 11  1  0  0  0  0
  2 12  1  6  0  0  0
  2  1  1  0  0  0  0
  3  4  1  0  0  0  0
  3 14  1  0  0  0  0
  3  2  1  0  0  0  0
  4  5  1  0  0  0  0
  5 17  1  0  0  0  0
  5 18  1  0  0  0  0
  6  5  1  0  0  0  0
  6 20  1  0  0  0  0
  7 21  1  0  0  0  0
  7  6  1  0  0  0  0
  8  2  1  0  0  0  0
  8  9  2  0  0  0  0
 13  3  1  0  0  0  0
 15  4  1  0  0  0  0
 16  4  1  0  0  0  0
 19  6  1  0  0  0  0
 22  7  1  0  0  0  0
 23 34  1  0  0  0  0
 23 24  1  0  0  0  0
 24 26  1  0  0  0  0
 25 36  1  0  0  0  0
 25 24  2  0  0  0  0
 26 27  1  0  0  0  0
 27 38  1  0  0  0  0
 27 28  1  0  0  0  0
 28 40  1  0  0  0  0
 28 41  1  0  0  0  0
 29 28  1  0  0  0  0
 29 30  1  0  0  0  0
 30 31  1  0  0  0  0
 30 44  1  1  0  0  0
 31  8  1  0  0  0  0
 32 33  2  0  0  0  0
 32 30  1  0  0  0  0
 35 23  1  0  0  0  0
 37 26  1  0  0  0  0
 39 27  1  0  0  0  0
 42 29  1  0  0  0  0
 43 29  1  0  0  0  0
 45 31  1  0  0  0  0
 46 32  1  0  0  0  0
 47 46  1  0  0  0  0
 47 57  1  1  0  0  0
 48 47  1  0  0  0  0
 48 49  1  0  0  0  0
 49 61  1  0  0  0  0
 49 50  1  0  0  0  0
 50 51  2  0  0  0  0
 50 54  1  0  0  0  0
 52 47  1  0  0  0  0
 53 52  1  0  0  0  0
 54 62  1  0  0  0  0
 55 52  2  0  0  0  0
 56 46  1  0  0  0  0
 58 48  1  0  0  0  0
 59 48  1  0  0  0  0
 60 49  1  0  0  0  0
M  END
$$$$
