KRF.pdb
 OpenBabel07022418493D

 66 66  0  0  1  0  0  0  0  0999 V2000
    0.6890    0.2120    3.8810 N   0  0  0  0  0  0  0  0  0  0  0  0
    1.4570    0.8870    2.7420 C   0  0  1  0  0  0  0  0  0  0  0  0
    2.8510    0.6180    2.9880 C   0  0  0  0  0  0  0  0  0  0  0  0
    3.8550    1.1650    2.0370 C   0  0  0  0  0  0  0  0  0  0  0  0
    3.8600    0.6170    0.6620 C   0  0  0  0  0  0  0  0  0  0  0  0
    4.2100   -0.8750    0.7270 C   0  0  0  0  0  0  0  0  0  0  0  0
    4.1830   -1.3740   -0.6180 N   0  0  0  0  0  0  0  0  0  0  0  0
    0.6670    0.5910    1.5980 C   0  0  0  0  0  0  0  0  0  0  0  0
   -0.1630    1.5310    1.2280 O   0  0  0  0  0  0  0  0  0  0  0  0
    1.2970    0.2890    4.7180 H   0  0  0  0  0  0  0  0  0  0  0  0
   -0.2300    0.6770    3.9660 H   0  0  0  0  0  0  0  0  0  0  0  0
    1.2480    1.9800    3.0410 H   0  0  0  0  0  0  0  0  0  0  0  0
    3.1030   -0.4610    3.2090 H   0  0  0  0  0  0  0  0  0  0  0  0
    3.1260    1.0980    3.9960 H   0  0  0  0  0  0  0  0  0  0  0  0
    3.6570    2.2830    1.9420 H   0  0  0  0  0  0  0  0  0  0  0  0
    4.8820    1.0640    2.4730 H   0  0  0  0  0  0  0  0  0  0  0  0
    2.9240    0.7710    0.1540 H   0  0  0  0  0  0  0  0  0  0  0  0
    4.6470    1.1330    0.0660 H   0  0  0  0  0  0  0  0  0  0  0  0
    5.2610   -0.9100    1.1330 H   0  0  0  0  0  0  0  0  0  0  0  0
    3.5050   -1.3740    1.3910 H   0  0  0  0  0  0  0  0  0  0  0  0
    3.3480   -1.9290   -0.8500 H   0  0  0  0  0  0  0  0  0  0  0  0
    4.3850   -0.6060   -1.2970 H   0  0  0  0  0  0  0  0  0  0  0  0
   -2.2130    1.1860   -4.9530 N   0  0  0  0  0  0  0  0  0  0  0  0
   -1.0310    1.7480   -4.3590 C   0  0  0  0  0  0  0  0  0  0  0  0
   -1.0120    2.9570   -3.9290 N   0  0  0  0  0  0  0  0  0  0  0  0
    0.1460    0.9830   -4.2330 N   0  0  0  0  0  0  0  0  0  0  0  0
    1.1620    1.2960   -3.2540 C   0  0  0  0  0  0  0  0  0  0  0  0
    0.6060    1.0210   -1.8760 C   0  0  0  0  0  0  0  0  0  0  0  0
    0.1980   -0.4120   -1.7000 C   0  0  0  0  0  0  0  0  0  0  0  0
   -0.3200   -0.6930   -0.3360 C   0  0  2  0  0  0  0  0  0  0  0  0
    0.5830   -0.5330    0.7670 N   0  0  0  0  0  0  0  0  0  0  0  0
   -1.1430   -1.9230   -0.2200 C   0  0  0  0  0  0  0  0  0  0  0  0
   -1.9570   -2.3020   -1.0760 O   0  0  0  0  0  0  0  0  0  0  0  0
   -2.9540    1.8000   -5.3100 H   0  0  0  0  0  0  0  0  0  0  0  0
   -2.3260    0.1560   -5.0260 H   0  0  0  0  0  0  0  0  0  0  0  0
   -1.7980    3.6190   -3.9600 H   0  0  0  0  0  0  0  0  0  0  0  0
    0.3200    0.1560   -4.8540 H   0  0  0  0  0  0  0  0  0  0  0  0
    2.1080    0.7760   -3.4390 H   0  0  0  0  0  0  0  0  0  0  0  0
    1.3160    2.4120   -3.3080 H   0  0  0  0  0  0  0  0  0  0  0  0
   -0.3640    1.6330   -1.8360 H   0  0  0  0  0  0  0  0  0  0  0  0
    1.2450    1.4430   -1.1280 H   0  0  0  0  0  0  0  0  0  0  0  0
   -0.5660   -0.6290   -2.4750 H   0  0  0  0  0  0  0  0  0  0  0  0
    1.0770   -1.0740   -1.9600 H   0  0  0  0  0  0  0  0  0  0  0  0
   -1.1340    0.1360   -0.1640 H   0  0  0  0  0  0  0  0  0  0  0  0
    1.2300   -1.3130    0.9770 H   0  0  0  0  0  0  0  0  0  0  0  0
   -0.9890   -2.7190    0.9540 N   0  0  0  0  0  0  0  0  0  0  0  0
   -1.7120   -3.9190    1.1990 C   0  0  1  0  0  0  0  0  0  0  0  0
   -3.2020   -3.6160    1.3250 C   0  0  0  0  0  0  0  0  0  0  0  0
   -3.4390   -2.6780    2.4580 C   0  0  0  0  0  0  0  0  0  0  0  0
   -3.4790   -1.3150    2.2940 C   0  0  0  0  0  0  0  0  0  0  0  0
   -3.6920   -0.4510    3.3510 C   0  0  0  0  0  0  0  0  0  0  0  0
   -3.8730   -0.9360    4.6310 C   0  0  0  0  0  0  0  0  0  0  0  0
   -3.8350   -2.2990    4.8060 C   0  0  0  0  0  0  0  0  0  0  0  0
   -3.6240   -3.1580    3.7560 C   0  0  0  0  0  0  0  0  0  0  0  0
   -1.4410   -5.0040    0.2610 C   0  0  0  0  0  0  0  0  0  0  0  0
   -1.9980   -6.1260    0.3410 O   0  0  0  0  0  0  0  0  0  0  0  0
   -0.5330   -4.8070   -0.7670 O   0  0  0  0  0  0  0  0  0  0  0  0
   -0.3000   -2.3990    1.6830 H   0  0  0  0  0  0  0  0  0  0  0  0
   -1.4390   -4.2820    2.2360 H   0  0  0  0  0  0  0  0  0  0  0  0
   -3.5500   -3.1400    0.4100 H   0  0  0  0  0  0  0  0  0  0  0  0
   -3.7720   -4.5510    1.5720 H   0  0  0  0  0  0  0  0  0  0  0  0
   -3.3440   -0.9080    1.2850 H   0  0  0  0  0  0  0  0  0  0  0  0
   -3.7150    0.6310    3.1650 H   0  0  0  0  0  0  0  0  0  0  0  0
   -4.0410   -0.2410    5.4600 H   0  0  0  0  0  0  0  0  0  0  0  0
   -3.9750   -2.6860    5.7990 H   0  0  0  0  0  0  0  0  0  0  0  0
   -3.5870   -4.2410    3.8580 H   0  0  0  0  0  0  0  0  0  0  0  0
  1 11  1  0  0  0  0
  1 10  1  0  0  0  0
  2  3  1  0  0  0  0
  2 12  1  1  0  0  0
  2  1  1  0  0  0  0
  3 13  1  0  0  0  0
  3 14  1  0  0  0  0
  4 16  1  0  0  0  0
  4  3  1  0  0  0  0
  5  6  1  0  0  0  0
  5  4  1  0  0  0  0
  6 19  1  0  0  0  0
  6 20  1  0  0  0  0
  7  6  1  0  0  0  0
  8  2  1  0  0  0  0
  9  8  2  0  0  0  0
 15  4  1  0  0  0  0
 17  5  1  0  0  0  0
 18  5  1  0  0  0  0
 21  7  1  0  0  0  0
 22  7  1  0  0  0  0
 23 24  1  0  0  0  0
 24 26  1  0  0  0  0
 24 25  2  0  0  0  0
 26 27  1  0  0  0  0
 27 28  1  0  0  0  0
 28 40  1  0  0  0  0
 28 29  1  0  0  0  0
 28 41  1  0  0  0  0
 29 30  1  0  0  0  0
 30 32  1  0  0  0  0
 30 44  1  1  0  0  0
 30 31  1  0  0  0  0
 31 45  1  0  0  0  0
 31  8  1  0  0  0  0
 32 46  1  0  0  0  0
 33 32  2  0  0  0  0
 34 23  1  0  0  0  0
 35 23  1  0  0  0  0
 36 25  1  0  0  0  0
 37 26  1  0  0  0  0
 38 27  1  0  0  0  0
 39 27  1  0  0  0  0
 42 29  1  0  0  0  0
 43 29  1  0  0  0  0
 46 47  1  0  0  0  0
 46 58  1  0  0  0  0
 47 48  1  0  0  0  0
 47 59  1  1  0  0  0
 48 61  1  0  0  0  0
 48 49  1  0  0  0  0
 49 54  1  0  0  0  0
 50 49  2  0  0  0  0
 50 51  1  0  0  0  0
 51 52  2  0  0  0  0
 52 53  1  0  0  0  0
 52 64  1  0  0  0  0
 53 65  1  0  0  0  0
 54 66  1  0  0  0  0
 54 53  2  0  0  0  0
 55 56  1  0  0  0  0
 55 47  1  0  0  0  0
 57 55  2  0  0  0  0
 60 48  1  0  0  0  0
 62 50  1  0  0  0  0
 63 51  1  0  0  0  0
M  END
$$$$
