KRG.pdb
 OpenBabel07022418493D

 53 52  0  0  1  0  0  0  0  0999 V2000
    0.2520   -2.0990    4.0240 N   0  0  0  0  0  0  0  0  0  0  0  0
    0.4620   -1.6260    2.6110 C   0  0  1  0  0  0  0  0  0  0  0  0
    1.0240   -2.8040    1.9210 C   0  0  0  0  0  0  0  0  0  0  0  0
    1.4080   -2.6990    0.5040 C   0  0  0  0  0  0  0  0  0  0  0  0
    2.4630   -1.6710    0.2070 C   0  0  0  0  0  0  0  0  0  0  0  0
    3.7650   -1.9620    0.9520 C   0  0  0  0  0  0  0  0  0  0  0  0
    4.7570   -0.9270    0.6160 N   0  0  0  0  0  0  0  0  0  0  0  0
   -0.8610   -1.1520    2.2070 C   0  0  0  0  0  0  0  0  0  0  0  0
   -1.8540   -1.2500    3.0210 O   0  0  0  0  0  0  0  0  0  0  0  0
   -0.6640   -2.6090    4.0260 H   0  0  0  0  0  0  0  0  0  0  0  0
    0.9950   -2.7890    4.2670 H   0  0  0  0  0  0  0  0  0  0  0  0
    1.1980   -0.7940    2.7420 H   0  0  0  0  0  0  0  0  0  0  0  0
    0.3250   -3.6770    2.1200 H   0  0  0  0  0  0  0  0  0  0  0  0
    1.9540   -3.1320    2.4830 H   0  0  0  0  0  0  0  0  0  0  0  0
    0.5480   -2.5470   -0.1540 H   0  0  0  0  0  0  0  0  0  0  0  0
    1.8660   -3.6780    0.1420 H   0  0  0  0  0  0  0  0  0  0  0  0
    2.7020   -1.7000   -0.8740 H   0  0  0  0  0  0  0  0  0  0  0  0
    2.1880   -0.6580    0.4760 H   0  0  0  0  0  0  0  0  0  0  0  0
    4.2130   -2.9210    0.6570 H   0  0  0  0  0  0  0  0  0  0  0  0
    3.5390   -1.9600    2.0250 H   0  0  0  0  0  0  0  0  0  0  0  0
    4.3930   -0.0350    1.0630 H   0  0  0  0  0  0  0  0  0  0  0  0
    5.6070   -1.1660    1.1960 H   0  0  0  0  0  0  0  0  0  0  0  0
    2.7070    1.8310   -0.8600 N   0  0  0  0  0  0  0  0  0  0  0  0
    1.8240    2.1650    0.2130 C   0  0  0  0  0  0  0  0  0  0  0  0
    2.3790    2.4360    1.3570 N   0  0  0  0  0  0  0  0  0  0  0  0
    0.4430    2.1910    0.0130 N   0  0  0  0  0  0  0  0  0  0  0  0
   -0.4570    2.2920    1.1400 C   0  0  0  0  0  0  0  0  0  0  0  0
   -1.8810    2.3590    0.7370 C   0  0  0  0  0  0  0  0  0  0  0  0
   -2.4610    1.2370   -0.0220 C   0  0  0  0  0  0  0  0  0  0  0  0
   -2.5060   -0.1030    0.6370 C   0  0  2  0  0  0  0  0  0  0  0  0
   -1.1940   -0.5620    0.9590 N   0  0  0  0  0  0  0  0  0  0  0  0
   -3.1870   -1.1160   -0.2200 C   0  0  0  0  0  0  0  0  0  0  0  0
   -4.3270   -0.8070   -0.6830 O   0  0  0  0  0  0  0  0  0  0  0  0
    3.7120    1.5760   -0.6980 H   0  0  0  0  0  0  0  0  0  0  0  0
    2.3880    1.8280   -1.8400 H   0  0  0  0  0  0  0  0  0  0  0  0
    1.7630    2.6820    2.1520 H   0  0  0  0  0  0  0  0  0  0  0  0
    0.0540    2.1390   -0.9470 H   0  0  0  0  0  0  0  0  0  0  0  0
   -0.2040    1.5970    1.9530 H   0  0  0  0  0  0  0  0  0  0  0  0
   -0.2180    3.3160    1.5840 H   0  0  0  0  0  0  0  0  0  0  0  0
   -2.4950    2.5260    1.6610 H   0  0  0  0  0  0  0  0  0  0  0  0
   -1.9950    3.3410    0.1820 H   0  0  0  0  0  0  0  0  0  0  0  0
   -3.5130    1.5150   -0.2940 H   0  0  0  0  0  0  0  0  0  0  0  0
   -1.9680    1.1270   -1.0450 H   0  0  0  0  0  0  0  0  0  0  0  0
   -3.1150   -0.0310    1.6030 H   0  0  0  0  0  0  0  0  0  0  0  0
   -0.4440   -0.4530    0.2470 H   0  0  0  0  0  0  0  0  0  0  0  0
   -2.6540   -2.3770   -0.5430 N   0  0  0  0  0  0  0  0  0  0  0  0
   -3.3780   -3.3310   -1.4010 C   0  0  0  0  0  0  0  0  0  0  0  0
   -3.5760   -2.6630   -2.7080 C   0  0  0  0  0  0  0  0  0  0  0  0
   -3.1540   -1.5000   -2.9280 O   0  0  0  0  0  0  0  0  0  0  0  0
   -4.2360   -3.2750   -3.7680 O   0  0  0  0  0  0  0  0  0  0  0  0
   -1.7290   -2.6120   -0.1410 H   0  0  0  0  0  0  0  0  0  0  0  0
   -4.3360   -3.6050   -0.9080 H   0  0  0  0  0  0  0  0  0  0  0  0
   -2.7220   -4.2070   -1.5330 H   0  0  0  0  0  0  0  0  0  0  0  0
  1 10  1  0  0  0  0
  1 11  1  0  0  0  0
  2 12  1  6  0  0  0
  2  1  1  0  0  0  0
  3 13  1  0  0  0  0
  3 14  1  0  0  0  0
  3  2  1  0  0  0  0
  4  3  1  0  0  0  0
  5 18  1  0  0  0  0
  5  4  1  0  0  0  0
  5  6  1  0  0  0  0
  6 20  1  0  0  0  0
  7  6  1  0  0  0  0
  7 21  1  0  0  0  0
  7 22  1  0  0  0  0
  8  2  1  0  0  0  0
  8  9  2  0  0  0  0
 15  4  1  0  0  0  0
 16  4  1  0  0  0  0
 17  5  1  0  0  0  0
 19  6  1  0  0  0  0
 23 34  1  0  0  0  0
 23 24  1  0  0  0  0
 24 25  2  0  0  0  0
 25 36  1  0  0  0  0
 26 24  1  0  0  0  0
 26 27  1  0  0  0  0
 27 39  1  0  0  0  0
 27 38  1  0  0  0  0
 28 27  1  0  0  0  0
 28 40  1  0  0  0  0
 29 30  1  0  0  0  0
 29 28  1  0  0  0  0
 30 31  1  0  0  0  0
 30 44  1  1  0  0  0
 31  8  1  0  0  0  0
 32 30  1  0  0  0  0
 33 32  2  0  0  0  0
 35 23  1  0  0  0  0
 37 26  1  0  0  0  0
 41 28  1  0  0  0  0
 42 29  1  0  0  0  0
 43 29  1  0  0  0  0
 45 31  1  0  0  0  0
 46 32  1  0  0  0  0
 46 51  1  0  0  0  0
 47 52  1  0  0  0  0
 47 46  1  0  0  0  0
 48 47  1  0  0  0  0
 49 48  1  0  0  0  0
 50 48  2  0  0  0  0
 53 47  1  0  0  0  0
M  END
$$$$
