KRH.pdb
 OpenBabel07022418493D

 63 63  0  0  1  0  0  0  0  0999 V2000
   -2.4360    2.4720    2.4640 N   0  0  0  0  0  0  0  0  0  0  0  0
   -1.3080    2.2650    1.5860 C   0  0  1  0  0  0  0  0  0  0  0  0
   -0.0540    2.2340    2.3940 C   0  0  0  0  0  0  0  0  0  0  0  0
   -0.0640    1.1140    3.4350 C   0  0  0  0  0  0  0  0  0  0  0  0
    1.2620    1.2130    4.1550 C   0  0  0  0  0  0  0  0  0  0  0  0
    1.4370    0.1760    5.2360 C   0  0  0  0  0  0  0  0  0  0  0  0
    1.3780   -1.1640    4.7180 N   0  0  0  0  0  0  0  0  0  0  0  0
   -1.5000    1.0300    0.7720 C   0  0  0  0  0  0  0  0  0  0  0  0
   -2.5990    0.4340    0.8970 O   0  0  0  0  0  0  0  0  0  0  0  0
   -3.3160    2.5940    1.8820 H   0  0  0  0  0  0  0  0  0  0  0  0
   -2.6230    1.6270    3.0520 H   0  0  0  0  0  0  0  0  0  0  0  0
   -1.3000    3.1670    0.9050 H   0  0  0  0  0  0  0  0  0  0  0  0
    0.8620    2.0940    1.7950 H   0  0  0  0  0  0  0  0  0  0  0  0
    0.0340    3.1960    2.9370 H   0  0  0  0  0  0  0  0  0  0  0  0
   -0.2190    0.1570    2.9250 H   0  0  0  0  0  0  0  0  0  0  0  0
   -0.9080    1.3770    4.1220 H   0  0  0  0  0  0  0  0  0  0  0  0
    1.3030    2.2170    4.6690 H   0  0  0  0  0  0  0  0  0  0  0  0
    2.1170    1.1530    3.4430 H   0  0  0  0  0  0  0  0  0  0  0  0
    0.7230    0.3470    6.0780 H   0  0  0  0  0  0  0  0  0  0  0  0
    2.4560    0.2670    5.7120 H   0  0  0  0  0  0  0  0  0  0  0  0
    2.3060   -1.6450    4.6960 H   0  0  0  0  0  0  0  0  0  0  0  0
    0.9710   -1.2200    3.7750 H   0  0  0  0  0  0  0  0  0  0  0  0
   -2.4730    2.3410   -4.0150 N   0  0  0  0  0  0  0  0  0  0  0  0
   -1.3390    2.4580   -3.1900 C   0  0  0  0  0  0  0  0  0  0  0  0
   -1.4090    2.8240   -1.9560 N   0  0  0  0  0  0  0  0  0  0  0  0
   -0.0580    2.1770   -3.7090 N   0  0  0  0  0  0  0  0  0  0  0  0
    0.9520    1.3520   -3.0810 C   0  0  0  0  0  0  0  0  0  0  0  0
    0.5480   -0.0830   -3.0990 C   0  0  0  0  0  0  0  0  0  0  0  0
   -0.6110   -0.5550   -2.3490 C   0  0  0  0  0  0  0  0  0  0  0  0
   -0.6280   -0.5900   -0.8780 C   0  0  2  0  0  0  0  0  0  0  0  0
   -0.4650    0.5610   -0.1070 N   0  0  0  0  0  0  0  0  0  0  0  0
    0.2800   -1.7040   -0.3660 C   0  0  0  0  0  0  0  0  0  0  0  0
    1.0530   -1.4870    0.6140 O   0  0  0  0  0  0  0  0  0  0  0  0
   -3.0550    1.4730   -4.0990 H   0  0  0  0  0  0  0  0  0  0  0  0
   -2.7560    3.1580   -4.5760 H   0  0  0  0  0  0  0  0  0  0  0  0
   -2.2770    3.0600   -1.4650 H   0  0  0  0  0  0  0  0  0  0  0  0
    0.2100    2.5970   -4.6540 H   0  0  0  0  0  0  0  0  0  0  0  0
    1.9230    1.4230   -3.6560 H   0  0  0  0  0  0  0  0  0  0  0  0
    1.1540    1.8010   -2.1060 H   0  0  0  0  0  0  0  0  0  0  0  0
    0.3120   -0.2830   -4.2070 H   0  0  0  0  0  0  0  0  0  0  0  0
    1.4570   -0.7590   -2.9740 H   0  0  0  0  0  0  0  0  0  0  0  0
   -0.9110   -1.6000   -2.6960 H   0  0  0  0  0  0  0  0  0  0  0  0
   -1.5130    0.0400   -2.7500 H   0  0  0  0  0  0  0  0  0  0  0  0
   -1.6610   -1.0210   -0.6070 H   0  0  0  0  0  0  0  0  0  0  0  0
    0.3910    1.1330   -0.0950 H   0  0  0  0  0  0  0  0  0  0  0  0
    0.3030   -2.9920   -0.9410 N   0  0  0  0  0  0  0  0  0  0  0  0
    1.2080   -4.0140   -0.3880 C   0  0  1  0  0  0  0  0  0  0  0  0
    0.4010   -5.1860    0.1410 C   0  0  0  0  0  0  0  0  0  0  0  0
   -0.5270   -4.7300    1.2160 C   0  0  0  0  0  0  0  0  0  0  0  0
   -0.2810   -4.6680    2.5700 C   0  0  0  0  0  0  0  0  0  0  0  0
   -1.3720   -4.2020    3.2020 N   0  0  0  0  0  0  0  0  0  0  0  0
   -2.3110   -3.9660    2.2600 C   0  0  0  0  0  0  0  0  0  0  0  0
   -1.7870   -4.2910    1.0510 N   0  0  0  0  0  0  0  0  0  0  0  0
    2.0660   -4.5140   -1.4920 C   0  0  0  0  0  0  0  0  0  0  0  0
    2.9300   -5.4010   -1.2590 O   0  0  0  0  0  0  0  0  0  0  0  0
    1.9520   -4.0390   -2.7780 O   0  0  0  0  0  0  0  0  0  0  0  0
   -0.3050   -3.2420   -1.7460 H   0  0  0  0  0  0  0  0  0  0  0  0
    1.7810   -3.6030    0.4410 H   0  0  0  0  0  0  0  0  0  0  0  0
    1.1220   -5.8900    0.5940 H   0  0  0  0  0  0  0  0  0  0  0  0
   -0.1130   -5.7090   -0.6680 H   0  0  0  0  0  0  0  0  0  0  0  0
    0.6180   -4.9370    3.0850 H   0  0  0  0  0  0  0  0  0  0  0  0
   -1.5410   -4.0290    4.2160 H   0  0  0  0  0  0  0  0  0  0  0  0
   -3.3180   -3.5800    2.4400 H   0  0  0  0  0  0  0  0  0  0  0  0
  1 11  1  0  0  0  0
  2 12  1  6  0  0  0
  2  3  1  0  0  0  0
  2  1  1  0  0  0  0
  3 14  1  0  0  0  0
  3  4  1  0  0  0  0
  4 16  1  0  0  0  0
  4  5  1  0  0  0  0
  5 17  1  0  0  0  0
  5  6  1  0  0  0  0
  6 20  1  0  0  0  0
  6 19  1  0  0  0  0
  7  6  1  0  0  0  0
  8  9  2  0  0  0  0
  8  2  1  0  0  0  0
 10  1  1  0  0  0  0
 13  3  1  0  0  0  0
 15  4  1  0  0  0  0
 18  5  1  0  0  0  0
 21  7  1  0  0  0  0
 22  7  1  0  0  0  0
 23 24  1  0  0  0  0
 24 25  2  0  0  0  0
 25 36  1  0  0  0  0
 26 24  1  0  0  0  0
 26 27  1  0  0  0  0
 27 39  1  0  0  0  0
 28 27  1  0  0  0  0
 28 41  1  0  0  0  0
 28 29  1  0  0  0  0
 29 30  1  0  0  0  0
 30 44  1  1  0  0  0
 30 32  1  0  0  0  0
 30 31  1  0  0  0  0
 31 45  1  0  0  0  0
 31  8  1  0  0  0  0
 32 33  2  0  0  0  0
 34 23  1  0  0  0  0
 35 23  1  0  0  0  0
 37 26  1  0  0  0  0
 38 27  1  0  0  0  0
 40 28  1  0  0  0  0
 42 29  1  0  0  0  0
 43 29  1  0  0  0  0
 46 47  1  0  0  0  0
 46 32  1  0  0  0  0
 47 48  1  0  0  0  0
 47 58  1  1  0  0  0
 48 59  1  0  0  0  0
 48 49  1  0  0  0  0
 49 50  2  0  0  0  0
 50 61  1  0  0  0  0
 50 51  1  0  0  0  0
 51 62  1  0  0  0  0
 52 63  1  0  0  0  0
 52 51  1  0  0  0  0
 53 49  1  0  0  0  0
 53 52  2  0  0  0  0
 54 55  1  0  0  0  0
 54 47  1  0  0  0  0
 56 54  2  0  0  0  0
 57 46  1  0  0  0  0
 60 48  1  0  0  0  0
M  END
$$$$
