KRM.pdb
 OpenBabel07022418493D

 63 62  0  0  1  0  0  0  0  0999 V2000
    1.2490    1.4460    2.6390 N   0  0  0  0  0  0  0  0  0  0  0  0
    1.1900    0.7040    1.4290 C   0  0  1  0  0  0  0  0  0  0  0  0
    1.9470   -0.5770    1.4830 C   0  0  0  0  0  0  0  0  0  0  0  0
    3.4070   -0.4370    1.7580 C   0  0  0  0  0  0  0  0  0  0  0  0
    3.8210    0.1280    3.0630 C   0  0  0  0  0  0  0  0  0  0  0  0
    3.4620   -0.6420    4.2830 C   0  0  0  0  0  0  0  0  0  0  0  0
    2.0840   -0.8630    4.5010 N   0  0  0  0  0  0  0  0  0  0  0  0
   -0.2360    0.5000    1.0420 C   0  0  0  0  0  0  0  0  0  0  0  0
   -1.1190    0.9760    1.7940 O   0  0  0  0  0  0  0  0  0  0  0  0
    0.3810    1.3930    3.2220 H   0  0  0  0  0  0  0  0  0  0  0  0
    1.4040    2.4780    2.4790 H   0  0  0  0  0  0  0  0  0  0  0  0
    1.6670    1.3420    0.6320 H   0  0  0  0  0  0  0  0  0  0  0  0
    1.7880   -1.1860    0.5490 H   0  0  0  0  0  0  0  0  0  0  0  0
    1.4970   -1.2210    2.2840 H   0  0  0  0  0  0  0  0  0  0  0  0
    3.8730    0.2110    0.9460 H   0  0  0  0  0  0  0  0  0  0  0  0
    3.8770   -1.4450    1.6100 H   0  0  0  0  0  0  0  0  0  0  0  0
    3.4810    1.1830    3.2140 H   0  0  0  0  0  0  0  0  0  0  0  0
    4.9500    0.2100    3.0520 H   0  0  0  0  0  0  0  0  0  0  0  0
    3.8750   -0.1120    5.1800 H   0  0  0  0  0  0  0  0  0  0  0  0
    4.0400   -1.6070    4.2330 H   0  0  0  0  0  0  0  0  0  0  0  0
    1.8430   -1.8770    4.6570 H   0  0  0  0  0  0  0  0  0  0  0  0
    1.7530   -0.3360    5.3310 H   0  0  0  0  0  0  0  0  0  0  0  0
   -0.6810    5.6360   -1.5510 N   0  0  0  0  0  0  0  0  0  0  0  0
   -1.1370    4.3590   -1.1350 C   0  0  0  0  0  0  0  0  0  0  0  0
   -0.3550    3.5540   -0.4860 N   0  0  0  0  0  0  0  0  0  0  0  0
   -2.4530    3.8930   -1.3990 N   0  0  0  0  0  0  0  0  0  0  0  0
   -2.8320    2.5270   -1.0840 C   0  0  0  0  0  0  0  0  0  0  0  0
   -2.0870    1.6140   -2.0080 C   0  0  0  0  0  0  0  0  0  0  0  0
   -2.3800    0.1620   -1.7960 C   0  0  0  0  0  0  0  0  0  0  0  0
   -2.0410   -0.3510   -0.4260 C   0  0  2  0  0  0  0  0  0  0  0  0
   -0.6430   -0.1970   -0.1220 N   0  0  0  0  0  0  0  0  0  0  0  0
   -2.5100   -1.7530   -0.3590 C   0  0  0  0  0  0  0  0  0  0  0  0
   -3.7230   -1.9900   -0.5830 O   0  0  0  0  0  0  0  0  0  0  0  0
   -1.2870    6.2000   -2.1770 H   0  0  0  0  0  0  0  0  0  0  0  0
    0.2320    6.0000   -1.2400 H   0  0  0  0  0  0  0  0  0  0  0  0
    0.6110    3.8650   -0.2780 H   0  0  0  0  0  0  0  0  0  0  0  0
   -3.1390    4.5380   -1.8190 H   0  0  0  0  0  0  0  0  0  0  0  0
   -3.9290    2.4070   -1.2560 H   0  0  0  0  0  0  0  0  0  0  0  0
   -2.6270    2.3680   -0.0190 H   0  0  0  0  0  0  0  0  0  0  0  0
   -0.9940    1.7640   -1.9110 H   0  0  0  0  0  0  0  0  0  0  0  0
   -2.4270    1.8540   -3.0490 H   0  0  0  0  0  0  0  0  0  0  0  0
   -3.4300   -0.0880   -1.9990 H   0  0  0  0  0  0  0  0  0  0  0  0
   -1.7730   -0.4070   -2.5400 H   0  0  0  0  0  0  0  0  0  0  0  0
   -2.6510    0.2020    0.3430 H   0  0  0  0  0  0  0  0  0  0  0  0
    0.0790   -0.5830   -0.7350 H   0  0  0  0  0  0  0  0  0  0  0  0
    1.4300   -3.6610   -1.2110 C   0  0  0  0  0  0  0  0  0  0  0  0
    0.4160   -4.5410   -2.3790 S   0  0  0  0  0  0  0  0  0  0  0  0
   -0.8380   -5.5860   -1.7160 C   0  0  0  0  0  0  0  0  0  0  0  0
   -2.0670   -5.0760   -1.1470 C   0  0  0  0  0  0  0  0  0  0  0  0
   -2.2010   -4.1830    0.0010 C   0  0  2  0  0  0  0  0  0  0  0  0
   -1.6490   -2.8680   -0.0480 N   0  0  0  0  0  0  0  0  0  0  0  0
   -1.8400   -4.8160    1.3000 C   0  0  0  0  0  0  0  0  0  0  0  0
   -2.2280   -5.9670    1.5400 O   0  0  0  0  0  0  0  0  0  0  0  0
   -1.0900   -4.1160    2.2000 O   0  0  0  0  0  0  0  0  0  0  0  0
    1.2350   -3.9810   -0.1620 H   0  0  0  0  0  0  0  0  0  0  0  0
    1.2210   -2.5810   -1.3110 H   0  0  0  0  0  0  0  0  0  0  0  0
    2.5220   -3.8660   -1.3950 H   0  0  0  0  0  0  0  0  0  0  0  0
   -0.3420   -6.3800   -1.0490 H   0  0  0  0  0  0  0  0  0  0  0  0
   -1.1630   -6.2760   -2.5910 H   0  0  0  0  0  0  0  0  0  0  0  0
   -2.6080   -4.5230   -2.0190 H   0  0  0  0  0  0  0  0  0  0  0  0
   -2.8440   -5.9310   -1.0080 H   0  0  0  0  0  0  0  0  0  0  0  0
   -3.3470   -4.0140    0.1270 H   0  0  0  0  0  0  0  0  0  0  0  0
   -0.6640   -2.5990    0.1470 H   0  0  0  0  0  0  0  0  0  0  0  0
  1 10  1  0  0  0  0
  2 12  1  6  0  0  0
  2  3  1  0  0  0  0
  2  1  1  0  0  0  0
  3  4  1  0  0  0  0
  3 14  1  0  0  0  0
  4  5  1  0  0  0  0
  5 17  1  0  0  0  0
  5  6  1  0  0  0  0
  6  7  1  0  0  0  0
  6 19  1  0  0  0  0
  7 21  1  0  0  0  0
  7 22  1  0  0  0  0
  8  2  1  0  0  0  0
  8  9  2  0  0  0  0
 11  1  1  0  0  0  0
 13  3  1  0  0  0  0
 15  4  1  0  0  0  0
 16  4  1  0  0  0  0
 18  5  1  0  0  0  0
 20  6  1  0  0  0  0
 23 35  1  0  0  0  0
 23 24  1  0  0  0  0
 24 25  2  0  0  0  0
 25 36  1  0  0  0  0
 26 24  1  0  0  0  0
 26 27  1  0  0  0  0
 27 39  1  0  0  0  0
 28 40  1  0  0  0  0
 28 29  1  0  0  0  0
 28 27  1  0  0  0  0
 29 30  1  0  0  0  0
 30 32  1  0  0  0  0
 30 31  1  0  0  0  0
 30 44  1  1  0  0  0
 31  8  1  0  0  0  0
 32 51  1  0  0  0  0
 33 32  2  0  0  0  0
 34 23  1  0  0  0  0
 37 26  1  0  0  0  0
 38 27  1  0  0  0  0
 41 28  1  0  0  0  0
 42 29  1  0  0  0  0
 43 29  1  0  0  0  0
 45 31  1  0  0  0  0
 46 55  1  0  0  0  0
 47 48  1  0  0  0  0
 47 46  1  0  0  0  0
 48 49  1  0  0  0  0
 48 58  1  0  0  0  0
 49 61  1  0  0  0  0
 49 50  1  0  0  0  0
 50 62  1  1  0  0  0
 50 52  1  0  0  0  0
 51 50  1  0  0  0  0
 51 63  1  0  0  0  0
 52 53  2  0  0  0  0
 52 54  1  0  0  0  0
 56 46  1  0  0  0  0
 57 46  1  0  0  0  0
 59 48  1  0  0  0  0
 60 49  1  0  0  0  0
M  END
$$$$
