KRN.pdb
 OpenBabel07022418493D

 60 59  0  0  1  0  0  0  0  0999 V2000
    0.6760   -0.9440    2.7980 N   0  0  0  0  0  0  0  0  0  0  0  0
   -0.0460    0.2950    2.6240 C   0  0  1  0  0  0  0  0  0  0  0  0
    0.8700    1.3290    2.0310 C   0  0  0  0  0  0  0  0  0  0  0  0
    2.0790    1.7060    2.7760 C   0  0  0  0  0  0  0  0  0  0  0  0
    3.0990    0.6600    3.0400 C   0  0  0  0  0  0  0  0  0  0  0  0
    3.6720    0.0200    1.7910 C   0  0  0  0  0  0  0  0  0  0  0  0
    4.3170    1.0310    0.9650 N   0  0  0  0  0  0  0  0  0  0  0  0
   -1.1320    0.0580    1.6210 C   0  0  0  0  0  0  0  0  0  0  0  0
   -2.2030    0.7480    1.6520 O   0  0  0  0  0  0  0  0  0  0  0  0
    0.7960   -1.1310    3.8600 H   0  0  0  0  0  0  0  0  0  0  0  0
   -0.0150   -1.7360    2.5740 H   0  0  0  0  0  0  0  0  0  0  0  0
   -0.4960    0.6460    3.5880 H   0  0  0  0  0  0  0  0  0  0  0  0
    1.2110    0.8870    1.0390 H   0  0  0  0  0  0  0  0  0  0  0  0
    0.2770    2.2310    1.6820 H   0  0  0  0  0  0  0  0  0  0  0  0
    1.7830    2.1200    3.7780 H   0  0  0  0  0  0  0  0  0  0  0  0
    2.5560    2.6090    2.2740 H   0  0  0  0  0  0  0  0  0  0  0  0
    2.7930   -0.0520    3.7930 H   0  0  0  0  0  0  0  0  0  0  0  0
    3.9880    1.2170    3.4970 H   0  0  0  0  0  0  0  0  0  0  0  0
    4.4770   -0.6690    2.1310 H   0  0  0  0  0  0  0  0  0  0  0  0
    2.9410   -0.5730    1.2170 H   0  0  0  0  0  0  0  0  0  0  0  0
    5.1730    0.6240    0.5010 H   0  0  0  0  0  0  0  0  0  0  0  0
    4.5410    1.9050    1.4680 H   0  0  0  0  0  0  0  0  0  0  0  0
   -0.1460    4.3860   -1.7220 N   0  0  0  0  0  0  0  0  0  0  0  0
   -1.2060    3.5690   -1.2650 C   0  0  0  0  0  0  0  0  0  0  0  0
   -1.5250    3.4740    0.0060 N   0  0  0  0  0  0  0  0  0  0  0  0
   -2.0170    2.7940   -2.1310 N   0  0  0  0  0  0  0  0  0  0  0  0
   -2.4110    1.4370   -1.8680 C   0  0  0  0  0  0  0  0  0  0  0  0
   -1.1640    0.5490   -2.0020 C   0  0  0  0  0  0  0  0  0  0  0  0
   -1.4810   -0.8770   -1.7670 C   0  0  0  0  0  0  0  0  0  0  0  0
   -1.9820   -1.2260   -0.3670 C   0  0  2  0  0  0  0  0  0  0  0  0
   -0.9690   -0.9350    0.6310 N   0  0  0  0  0  0  0  0  0  0  0  0
   -2.2400   -2.6610   -0.4290 C   0  0  0  0  0  0  0  0  0  0  0  0
   -3.1210   -3.1470   -1.2070 O   0  0  0  0  0  0  0  0  0  0  0  0
    0.8060    4.3110   -1.3140 H   0  0  0  0  0  0  0  0  0  0  0  0
   -0.3000    5.0800   -2.4770 H   0  0  0  0  0  0  0  0  0  0  0  0
   -1.0090    3.9990    0.7350 H   0  0  0  0  0  0  0  0  0  0  0  0
   -2.3350    3.2550   -3.0210 H   0  0  0  0  0  0  0  0  0  0  0  0
   -2.9260    1.3110   -0.9170 H   0  0  0  0  0  0  0  0  0  0  0  0
   -3.0850    1.0650   -2.6940 H   0  0  0  0  0  0  0  0  0  0  0  0
   -0.3280    0.9500   -1.4120 H   0  0  0  0  0  0  0  0  0  0  0  0
   -0.8670    0.6400   -3.0680 H   0  0  0  0  0  0  0  0  0  0  0  0
   -2.2460   -1.2080   -2.4720 H   0  0  0  0  0  0  0  0  0  0  0  0
   -0.5640   -1.4720   -1.9240 H   0  0  0  0  0  0  0  0  0  0  0  0
   -2.8970   -0.6240   -0.1330 H   0  0  0  0  0  0  0  0  0  0  0  0
   -0.0430   -1.4660    0.6340 H   0  0  0  0  0  0  0  0  0  0  0  0
    1.4060   -5.7950   -1.6570 N   0  0  0  0  0  0  0  0  0  0  0  0
    0.1680   -5.2820   -1.1930 C   0  0  0  0  0  0  0  0  0  0  0  0
   -0.4070   -4.4370   -1.9220 O   0  0  0  0  0  0  0  0  0  0  0  0
   -0.4370   -5.7000    0.0770 C   0  0  0  0  0  0  0  0  0  0  0  0
   -1.7580   -5.0100    0.3290 C   0  0  2  0  0  0  0  0  0  0  0  0
   -1.5230   -3.5680    0.3710 N   0  0  0  0  0  0  0  0  0  0  0  0
   -2.2930   -5.4090    1.6580 C   0  0  0  0  0  0  0  0  0  0  0  0
   -2.5850   -6.6080    1.9100 O   0  0  0  0  0  0  0  0  0  0  0  0
   -2.4880   -4.4730    2.6630 O   0  0  0  0  0  0  0  0  0  0  0  0
    1.4440   -6.8270   -1.8590 H   0  0  0  0  0  0  0  0  0  0  0  0
    2.2640   -5.2510   -1.8140 H   0  0  0  0  0  0  0  0  0  0  0  0
   -0.5050   -6.7950    0.1780 H   0  0  0  0  0  0  0  0  0  0  0  0
    0.2470   -5.3640    0.9030 H   0  0  0  0  0  0  0  0  0  0  0  0
   -2.5210   -5.2920   -0.4110 H   0  0  0  0  0  0  0  0  0  0  0  0
   -0.7780   -3.2910    1.0430 H   0  0  0  0  0  0  0  0  0  0  0  0
  1 10  1  0  0  0  0
  2  1  1  0  0  0  0
  2 12  1  1  0  0  0
  3  2  1  0  0  0  0
  3  4  1  0  0  0  0
  4  5  1  0  0  0  0
  4 15  1  0  0  0  0
  5 18  1  0  0  0  0
  5 17  1  0  0  0  0
  6 19  1  0  0  0  0
  6  5  1  0  0  0  0
  7 22  1  0  0  0  0
  7  6  1  0  0  0  0
  8  9  2  0  0  0  0
  8  2  1  0  0  0  0
 11  1  1  0  0  0  0
 13  3  1  0  0  0  0
 14  3  1  0  0  0  0
 16  4  1  0  0  0  0
 20  6  1  0  0  0  0
 21  7  1  0  0  0  0
 23 34  1  0  0  0  0
 23 24  1  0  0  0  0
 24 25  2  0  0  0  0
 25 36  1  0  0  0  0
 26 27  1  0  0  0  0
 26 24  1  0  0  0  0
 27 38  1  0  0  0  0
 28 27  1  0  0  0  0
 28 29  1  0  0  0  0
 28 40  1  0  0  0  0
 29 30  1  0  0  0  0
 30 44  1  1  0  0  0
 30 31  1  0  0  0  0
 31 45  1  0  0  0  0
 31  8  1  0  0  0  0
 32 30  1  0  0  0  0
 32 51  1  0  0  0  0
 33 32  2  0  0  0  0
 35 23  1  0  0  0  0
 37 26  1  0  0  0  0
 39 27  1  0  0  0  0
 41 28  1  0  0  0  0
 42 29  1  0  0  0  0
 43 29  1  0  0  0  0
 46 47  1  0  0  0  0
 47 49  1  0  0  0  0
 48 47  2  0  0  0  0
 49 57  1  0  0  0  0
 49 50  1  0  0  0  0
 49 58  1  0  0  0  0
 50 59  1  6  0  0  0
 50 51  1  0  0  0  0
 50 52  1  0  0  0  0
 51 60  1  0  0  0  0
 52 53  2  0  0  0  0
 52 54  1  0  0  0  0
 55 46  1  0  0  0  0
 56 46  1  0  0  0  0
M  END
$$$$
