KRP.pdb
 OpenBabel07022418493D

 60 60  0  0  1  0  0  0  0  0999 V2000
    0.1650   -0.7420    3.4180 N   0  0  0  0  0  0  0  0  0  0  0  0
    0.6480    0.1600    2.3570 C   0  0  1  0  0  0  0  0  0  0  0  0
    2.0420   -0.3030    2.0540 C   0  0  0  0  0  0  0  0  0  0  0  0
    2.6650    0.5330    0.9840 C   0  0  0  0  0  0  0  0  0  0  0  0
    4.1020    0.0960    0.6770 C   0  0  0  0  0  0  0  0  0  0  0  0
    4.9720    0.2170    1.8950 C   0  0  0  0  0  0  0  0  0  0  0  0
    6.3160   -0.2060    1.5130 N   0  0  0  0  0  0  0  0  0  0  0  0
   -0.2130    0.0950    1.1840 C   0  0  0  0  0  0  0  0  0  0  0  0
   -0.1100    0.8300    0.1740 O   0  0  0  0  0  0  0  0  0  0  0  0
   -0.7880   -0.4970    3.7290 H   0  0  0  0  0  0  0  0  0  0  0  0
    0.3160   -1.7290    3.1920 H   0  0  0  0  0  0  0  0  0  0  0  0
    0.6670    1.1710    2.8370 H   0  0  0  0  0  0  0  0  0  0  0  0
    2.6730   -0.3170    2.9900 H   0  0  0  0  0  0  0  0  0  0  0  0
    2.0000   -1.3770    1.7120 H   0  0  0  0  0  0  0  0  0  0  0  0
    2.6040    1.6110    1.2210 H   0  0  0  0  0  0  0  0  0  0  0  0
    2.0550    0.3750    0.0430 H   0  0  0  0  0  0  0  0  0  0  0  0
    4.5080    0.6740   -0.1580 H   0  0  0  0  0  0  0  0  0  0  0  0
    4.0500   -0.9710    0.3760 H   0  0  0  0  0  0  0  0  0  0  0  0
    4.9450    1.2050    2.3570 H   0  0  0  0  0  0  0  0  0  0  0  0
    4.6380   -0.5100    2.6790 H   0  0  0  0  0  0  0  0  0  0  0  0
    6.4510    0.0440    0.5100 H   0  0  0  0  0  0  0  0  0  0  0  0
    6.3470   -1.2390    1.5630 H   0  0  0  0  0  0  0  0  0  0  0  0
    0.1100    3.7500   -1.5790 N   0  0  0  0  0  0  0  0  0  0  0  0
   -1.1700    3.5970   -1.0000 C   0  0  0  0  0  0  0  0  0  0  0  0
   -1.4570    4.0820    0.1760 N   0  0  0  0  0  0  0  0  0  0  0  0
   -2.2170    2.9010   -1.6710 N   0  0  0  0  0  0  0  0  0  0  0  0
   -3.3470    2.3820   -0.9880 C   0  0  0  0  0  0  0  0  0  0  0  0
   -3.0520    1.2210   -0.0890 C   0  0  0  0  0  0  0  0  0  0  0  0
   -2.4880    0.0350   -0.8230 C   0  0  0  0  0  0  0  0  0  0  0  0
   -2.2270   -1.0940    0.1680 C   0  0  2  0  0  0  0  0  0  0  0  0
   -1.2700   -0.8750    1.1580 N   0  0  0  0  0  0  0  0  0  0  0  0
   -2.2400   -2.4090   -0.4310 C   0  0  0  0  0  0  0  0  0  0  0  0
   -3.1190   -2.6650   -1.3710 O   0  0  0  0  0  0  0  0  0  0  0  0
    0.9660    3.9260   -1.0110 H   0  0  0  0  0  0  0  0  0  0  0  0
    0.2230    3.6880   -2.6170 H   0  0  0  0  0  0  0  0  0  0  0  0
   -0.7310    4.6070    0.7310 H   0  0  0  0  0  0  0  0  0  0  0  0
   -2.1270    2.7810   -2.7040 H   0  0  0  0  0  0  0  0  0  0  0  0
   -4.0890    2.0180   -1.7600 H   0  0  0  0  0  0  0  0  0  0  0  0
   -3.9240    3.1810   -0.4490 H   0  0  0  0  0  0  0  0  0  0  0  0
   -4.0990    0.9210    0.3060 H   0  0  0  0  0  0  0  0  0  0  0  0
   -2.5090    1.4420    0.8140 H   0  0  0  0  0  0  0  0  0  0  0  0
   -3.3220   -0.3540   -1.4780 H   0  0  0  0  0  0  0  0  0  0  0  0
   -1.6570    0.2590   -1.4800 H   0  0  0  0  0  0  0  0  0  0  0  0
   -3.2480   -1.0380    0.7930 H   0  0  0  0  0  0  0  0  0  0  0  0
   -1.3370   -1.5020    2.0190 H   0  0  0  0  0  0  0  0  0  0  0  0
   -1.4150   -3.5370   -0.1590 N   0  0  0  0  0  0  0  0  0  0  0  0
   -0.3490   -3.5180    0.8110 C   0  0  0  0  0  0  0  0  0  0  0  0
    0.5470   -4.6990    0.4360 C   0  0  0  0  0  0  0  0  0  0  0  0
   -0.4950   -5.6930   -0.0110 C   0  0  0  0  0  0  0  0  0  0  0  0
   -1.4710   -4.8410   -0.7550 C   0  0  1  0  0  0  0  0  0  0  0  0
   -2.8420   -5.4220   -0.7320 C   0  0  0  0  0  0  0  0  0  0  0  0
   -3.0180   -6.5270   -1.3020 O   0  0  0  0  0  0  0  0  0  0  0  0
   -3.8920   -4.8080   -0.1240 O   0  0  0  0  0  0  0  0  0  0  0  0
    0.2840   -2.6350    0.7040 H   0  0  0  0  0  0  0  0  0  0  0  0
   -0.6780   -3.7460    1.8470 H   0  0  0  0  0  0  0  0  0  0  0  0
    1.1770   -4.4520   -0.4350 H   0  0  0  0  0  0  0  0  0  0  0  0
    1.1350   -5.0400    1.2920 H   0  0  0  0  0  0  0  0  0  0  0  0
   -0.9440   -6.1370    0.9040 H   0  0  0  0  0  0  0  0  0  0  0  0
   -0.0560   -6.5010   -0.6380 H   0  0  0  0  0  0  0  0  0  0  0  0
   -1.1320   -4.7300   -1.8060 H   0  0  0  0  0  0  0  0  0  0  0  0
  1 10  1  0  0  0  0
  2 12  1  1  0  0  0
  2  1  1  0  0  0  0
  3  2  1  0  0  0  0
  3 13  1  0  0  0  0
  4 15  1  0  0  0  0
  4  3  1  0  0  0  0
  5  4  1  0  0  0  0
  5  6  1  0  0  0  0
  6 19  1  0  0  0  0
  6 20  1  0  0  0  0
  7 22  1  0  0  0  0
  7  6  1  0  0  0  0
  8  2  1  0  0  0  0
  9  8  2  0  0  0  0
 11  1  1  0  0  0  0
 14  3  1  0  0  0  0
 16  4  1  0  0  0  0
 17  5  1  0  0  0  0
 18  5  1  0  0  0  0
 21  7  1  0  0  0  0
 23 34  1  0  0  0  0
 23 24  1  0  0  0  0
 24 25  2  0  0  0  0
 25 36  1  0  0  0  0
 26 24  1  0  0  0  0
 26 27  1  0  0  0  0
 27 39  1  0  0  0  0
 27 28  1  0  0  0  0
 28 40  1  0  0  0  0
 28 41  1  0  0  0  0
 29 28  1  0  0  0  0
 29 30  1  0  0  0  0
 30 44  1  1  0  0  0
 30 31  1  0  0  0  0
 31  8  1  0  0  0  0
 31 45  1  0  0  0  0
 32 46  1  0  0  0  0
 32 30  1  0  0  0  0
 33 32  2  0  0  0  0
 35 23  1  0  0  0  0
 37 26  1  0  0  0  0
 38 27  1  0  0  0  0
 42 29  1  0  0  0  0
 43 29  1  0  0  0  0
 46 47  1  0  0  0  0
 47 55  1  0  0  0  0
 48 47  1  0  0  0  0
 48 57  1  0  0  0  0
 49 48  1  0  0  0  0
 49 58  1  0  0  0  0
 50 60  1  6  0  0  0
 50 51  1  0  0  0  0
 50 46  1  0  0  0  0
 50 49  1  0  0  0  0
 51 53  1  0  0  0  0
 52 51  2  0  0  0  0
 54 47  1  0  0  0  0
 56 48  1  0  0  0  0
 59 49  1  0  0  0  0
M  END
$$$$
