KRQ.pdb
 OpenBabel07022418493D

 63 62  0  0  1  0  0  0  0  0999 V2000
    0.5490    2.5280    3.3530 N   0  0  0  0  0  0  0  0  0  0  0  0
    0.9390    1.8140    2.1800 C   0  0  1  0  0  0  0  0  0  0  0  0
    1.7730    0.6100    2.4600 C   0  0  0  0  0  0  0  0  0  0  0  0
    1.1210   -0.4270    3.3200 C   0  0  0  0  0  0  0  0  0  0  0  0
    2.1260   -1.5570    3.4780 C   0  0  0  0  0  0  0  0  0  0  0  0
    1.6000   -2.6800    4.3280 C   0  0  0  0  0  0  0  0  0  0  0  0
    1.2700   -2.2350    5.6520 N   0  0  0  0  0  0  0  0  0  0  0  0
   -0.2100    1.5170    1.2850 C   0  0  0  0  0  0  0  0  0  0  0  0
   -1.3410    1.9380    1.6600 O   0  0  0  0  0  0  0  0  0  0  0  0
    1.3880    3.0190    3.7590 H   0  0  0  0  0  0  0  0  0  0  0  0
    0.1530    1.9430    4.1130 H   0  0  0  0  0  0  0  0  0  0  0  0
    1.5990    2.5150    1.5870 H   0  0  0  0  0  0  0  0  0  0  0  0
    2.6820    0.9640    3.0200 H   0  0  0  0  0  0  0  0  0  0  0  0
    2.1610    0.1830    1.5180 H   0  0  0  0  0  0  0  0  0  0  0  0
    0.1410   -0.7690    2.9700 H   0  0  0  0  0  0  0  0  0  0  0  0
    0.9650   -0.0180    4.3460 H   0  0  0  0  0  0  0  0  0  0  0  0
    3.0050   -1.1300    4.0000 H   0  0  0  0  0  0  0  0  0  0  0  0
    2.4780   -1.9240    2.5060 H   0  0  0  0  0  0  0  0  0  0  0  0
    0.7460   -3.1600    3.8080 H   0  0  0  0  0  0  0  0  0  0  0  0
    2.3900   -3.4460    4.4110 H   0  0  0  0  0  0  0  0  0  0  0  0
    1.6290   -1.2910    5.8270 H   0  0  0  0  0  0  0  0  0  0  0  0
    0.2600   -2.3750    5.8300 H   0  0  0  0  0  0  0  0  0  0  0  0
   -4.2870    1.6640   -3.9100 N   0  0  0  0  0  0  0  0  0  0  0  0
   -3.9050    2.2420   -2.6850 C   0  0  0  0  0  0  0  0  0  0  0  0
   -4.3420    1.8090   -1.5230 N   0  0  0  0  0  0  0  0  0  0  0  0
   -3.0180    3.3470   -2.6520 N   0  0  0  0  0  0  0  0  0  0  0  0
   -1.8730    3.4780   -1.8200 C   0  0  0  0  0  0  0  0  0  0  0  0
   -0.7850    2.5530   -2.2210 C   0  0  0  0  0  0  0  0  0  0  0  0
   -1.0290    1.0990   -2.1160 C   0  0  0  0  0  0  0  0  0  0  0  0
   -1.2560    0.5530   -0.7500 C   0  0  2  0  0  0  0  0  0  0  0  0
   -0.0870    0.8080    0.0760 N   0  0  0  0  0  0  0  0  0  0  0  0
   -1.5160   -0.9070   -0.8680 C   0  0  0  0  0  0  0  0  0  0  0  0
   -2.4800   -1.3270   -1.5560 O   0  0  0  0  0  0  0  0  0  0  0  0
   -4.4770    2.2390   -4.7520 H   0  0  0  0  0  0  0  0  0  0  0  0
   -4.3830    0.6370   -3.9790 H   0  0  0  0  0  0  0  0  0  0  0  0
   -4.9960    1.0070   -1.4940 H   0  0  0  0  0  0  0  0  0  0  0  0
   -3.2440    4.1460   -3.3290 H   0  0  0  0  0  0  0  0  0  0  0  0
   -1.4630    4.5230   -1.9480 H   0  0  0  0  0  0  0  0  0  0  0  0
   -2.1150    3.4290   -0.7300 H   0  0  0  0  0  0  0  0  0  0  0  0
   -0.5830    2.7630   -3.3170 H   0  0  0  0  0  0  0  0  0  0  0  0
    0.1440    2.8860   -1.6990 H   0  0  0  0  0  0  0  0  0  0  0  0
   -0.1180    0.5760   -2.5250 H   0  0  0  0  0  0  0  0  0  0  0  0
   -1.8450    0.8060   -2.8090 H   0  0  0  0  0  0  0  0  0  0  0  0
   -2.1130    1.0200   -0.2710 H   0  0  0  0  0  0  0  0  0  0  0  0
    0.8420    0.4620   -0.2320 H   0  0  0  0  0  0  0  0  0  0  0  0
    3.8900   -4.6840   -0.6740 N   0  0  0  0  0  0  0  0  0  0  0  0
    2.5260   -4.6160   -1.0820 C   0  0  0  0  0  0  0  0  0  0  0  0
    2.2300   -5.2300   -2.1520 O   0  0  0  0  0  0  0  0  0  0  0  0
    1.4890   -3.8750   -0.3200 C   0  0  0  0  0  0  0  0  0  0  0  0
    0.1750   -4.0100   -1.0320 C   0  0  0  0  0  0  0  0  0  0  0  0
   -0.9520   -3.2930   -0.3360 C   0  0  2  0  0  0  0  0  0  0  0  0
   -0.6990   -1.8720   -0.2190 N   0  0  0  0  0  0  0  0  0  0  0  0
   -1.2780   -3.8540    0.9770 C   0  0  0  0  0  0  0  0  0  0  0  0
   -1.3120   -3.1160    1.9880 O   0  0  0  0  0  0  0  0  0  0  0  0
   -1.5570   -5.1970    1.1600 O   0  0  0  0  0  0  0  0  0  0  0  0
    4.0640   -4.5600    0.3620 H   0  0  0  0  0  0  0  0  0  0  0  0
    4.6530   -4.8450   -1.3530 H   0  0  0  0  0  0  0  0  0  0  0  0
    1.8290   -2.8350   -0.2180 H   0  0  0  0  0  0  0  0  0  0  0  0
    1.4550   -4.3050    0.7010 H   0  0  0  0  0  0  0  0  0  0  0  0
    0.2490   -3.6070   -2.0610 H   0  0  0  0  0  0  0  0  0  0  0  0
   -0.0690   -5.0870   -1.1150 H   0  0  0  0  0  0  0  0  0  0  0  0
   -1.8440   -3.3930   -1.0230 H   0  0  0  0  0  0  0  0  0  0  0  0
    0.1010   -1.5180    0.3540 H   0  0  0  0  0  0  0  0  0  0  0  0
  1 10  1  0  0  0  0
  1 11  1  0  0  0  0
  2 12  1  6  0  0  0
  2  3  1  0  0  0  0
  2  1  1  0  0  0  0
  3 13  1  0  0  0  0
  3  4  1  0  0  0  0
  4  5  1  0  0  0  0
  4 16  1  0  0  0  0
  5 17  1  0  0  0  0
  5  6  1  0  0  0  0
  6 20  1  0  0  0  0
  6  7  1  0  0  0  0
  7 21  1  0  0  0  0
  7 22  1  0  0  0  0
  8  9  2  0  0  0  0
  8  2  1  0  0  0  0
 14  3  1  0  0  0  0
 15  4  1  0  0  0  0
 18  5  1  0  0  0  0
 19  6  1  0  0  0  0
 23 24  1  0  0  0  0
 24 26  1  0  0  0  0
 24 25  2  0  0  0  0
 25 36  1  0  0  0  0
 26 27  1  0  0  0  0
 27 39  1  0  0  0  0
 28 29  1  0  0  0  0
 28 27  1  0  0  0  0
 28 41  1  0  0  0  0
 29 30  1  0  0  0  0
 30 44  1  1  0  0  0
 30 31  1  0  0  0  0
 31  8  1  0  0  0  0
 32 30  1  0  0  0  0
 32 52  1  0  0  0  0
 33 32  2  0  0  0  0
 34 23  1  0  0  0  0
 35 23  1  0  0  0  0
 37 26  1  0  0  0  0
 38 27  1  0  0  0  0
 40 28  1  0  0  0  0
 42 29  1  0  0  0  0
 43 29  1  0  0  0  0
 45 31  1  0  0  0  0
 46 56  1  0  0  0  0
 47 46  1  0  0  0  0
 47 49  1  0  0  0  0
 48 47  2  0  0  0  0
 49 58  1  0  0  0  0
 49 59  1  0  0  0  0
 50 51  1  0  0  0  0
 50 49  1  0  0  0  0
 51 62  1  6  0  0  0
 51 52  1  0  0  0  0
 51 53  1  0  0  0  0
 52 63  1  0  0  0  0
 53 55  2  0  0  0  0
 53 54  1  0  0  0  0
 57 46  1  0  0  0  0
 60 50  1  0  0  0  0
 61 50  1  0  0  0  0
M  END
$$$$
