KRR.pdb
 OpenBabel07022418493D

 69 68  0  0  1  0  0  0  0  0999 V2000
    3.0210   -2.8100    3.0180 N   0  0  0  0  0  0  0  0  0  0  0  0
    3.4830   -1.4110    2.6880 C   0  0  1  0  0  0  0  0  0  0  0  0
    4.9100   -1.4480    2.3910 C   0  0  0  0  0  0  0  0  0  0  0  0
    5.6350   -0.2420    1.9920 C   0  0  0  0  0  0  0  0  0  0  0  0
    5.3140    0.4070    0.6940 C   0  0  0  0  0  0  0  0  0  0  0  0
    5.5430   -0.4730   -0.5220 C   0  0  0  0  0  0  0  0  0  0  0  0
    4.7590   -1.6710   -0.5050 N   0  0  0  0  0  0  0  0  0  0  0  0
    2.5090   -0.7810    1.8250 C   0  0  0  0  0  0  0  0  0  0  0  0
    2.2120    0.4440    2.0180 O   0  0  0  0  0  0  0  0  0  0  0  0
    3.6040   -3.1680    3.8110 H   0  0  0  0  0  0  0  0  0  0  0  0
    2.0130   -2.7510    3.2940 H   0  0  0  0  0  0  0  0  0  0  0  0
    3.3740   -0.9250    3.7160 H   0  0  0  0  0  0  0  0  0  0  0  0
    5.2110   -2.2930    1.7030 H   0  0  0  0  0  0  0  0  0  0  0  0
    5.4220   -1.7940    3.3740 H   0  0  0  0  0  0  0  0  0  0  0  0
    5.4530    0.5530    2.7890 H   0  0  0  0  0  0  0  0  0  0  0  0
    6.7570   -0.3800    2.0010 H   0  0  0  0  0  0  0  0  0  0  0  0
    4.3160    0.8280    0.6160 H   0  0  0  0  0  0  0  0  0  0  0  0
    6.0190    1.2940    0.6020 H   0  0  0  0  0  0  0  0  0  0  0  0
    5.2440    0.1250   -1.4270 H   0  0  0  0  0  0  0  0  0  0  0  0
    6.6350   -0.6670   -0.6890 H   0  0  0  0  0  0  0  0  0  0  0  0
    5.3640   -2.5380   -0.6410 H   0  0  0  0  0  0  0  0  0  0  0  0
    4.1130   -1.6870   -1.3170 H   0  0  0  0  0  0  0  0  0  0  0  0
   -2.0720    1.9960    0.7110 N   0  0  0  0  0  0  0  0  0  0  0  0
   -1.5810    2.0550   -0.6110 C   0  0  0  0  0  0  0  0  0  0  0  0
   -2.4320    2.0330   -1.6020 N   0  0  0  0  0  0  0  0  0  0  0  0
   -0.2040    2.1480   -0.9090 N   0  0  0  0  0  0  0  0  0  0  0  0
    0.3950    1.7180   -2.1200 C   0  0  0  0  0  0  0  0  0  0  0  0
    0.5340    0.2720   -2.4260 C   0  0  0  0  0  0  0  0  0  0  0  0
    1.3520   -0.5160   -1.4600 C   0  0  0  0  0  0  0  0  0  0  0  0
    0.8170   -0.6850   -0.0850 C   0  0  2  0  0  0  0  0  0  0  0  0
    1.8220   -1.3870    0.7530 N   0  0  0  0  0  0  0  0  0  0  0  0
   -0.2860   -1.6920   -0.1550 C   0  0  0  0  0  0  0  0  0  0  0  0
   -0.0340   -2.8700    0.3340 O   0  0  0  0  0  0  0  0  0  0  0  0
   -3.0620    2.3010    0.9210 H   0  0  0  0  0  0  0  0  0  0  0  0
   -1.5130    1.6630    1.5190 H   0  0  0  0  0  0  0  0  0  0  0  0
   -3.4500    1.9740   -1.4390 H   0  0  0  0  0  0  0  0  0  0  0  0
    0.3760    2.5890   -0.1170 H   0  0  0  0  0  0  0  0  0  0  0  0
   -0.2740    2.1380   -2.9490 H   0  0  0  0  0  0  0  0  0  0  0  0
    1.3520    2.2850   -2.3110 H   0  0  0  0  0  0  0  0  0  0  0  0
    1.1500    0.2520   -3.4120 H   0  0  0  0  0  0  0  0  0  0  0  0
   -0.4200   -0.1720   -2.7340 H   0  0  0  0  0  0  0  0  0  0  0  0
    2.3860   -0.0790   -1.4750 H   0  0  0  0  0  0  0  0  0  0  0  0
    1.5060   -1.5270   -1.9550 H   0  0  0  0  0  0  0  0  0  0  0  0
    0.4740    0.2480    0.3240 H   0  0  0  0  0  0  0  0  0  0  0  0
    2.0250   -2.3720    0.5380 H   0  0  0  0  0  0  0  0  0  0  0  0
   -6.0470   -0.0100    4.1090 N   0  0  0  0  0  0  0  0  0  0  0  0
   -6.2730    0.0030    2.7170 C   0  0  0  0  0  0  0  0  0  0  0  0
   -7.4210    0.3450    2.2890 N   0  0  0  0  0  0  0  0  0  0  0  0
   -5.2340   -0.3610    1.8190 N   0  0  0  0  0  0  0  0  0  0  0  0
   -5.5950   -0.6630    0.4520 C   0  0  0  0  0  0  0  0  0  0  0  0
   -4.3940   -1.0570   -0.3750 C   0  0  0  0  0  0  0  0  0  0  0  0
   -3.6990   -2.2670    0.1660 C   0  0  0  0  0  0  0  0  0  0  0  0
   -2.5160   -2.6860   -0.6630 C   0  0  2  0  0  0  0  0  0  0  0  0
   -1.5670   -1.5510   -0.6760 N   0  0  0  0  0  0  0  0  0  0  0  0
   -2.9930   -2.9490   -2.0440 C   0  0  0  0  0  0  0  0  0  0  0  0
   -3.8090   -3.8900   -2.2260 O   0  0  0  0  0  0  0  0  0  0  0  0
   -2.5350   -2.1650   -3.0770 O   0  0  0  0  0  0  0  0  0  0  0  0
   -6.2470    0.8530    4.6470 H   0  0  0  0  0  0  0  0  0  0  0  0
   -5.6900   -0.8880    4.5400 H   0  0  0  0  0  0  0  0  0  0  0  0
   -7.6020    0.3590    1.2650 H   0  0  0  0  0  0  0  0  0  0  0  0
   -4.2670   -0.4000    2.1580 H   0  0  0  0  0  0  0  0  0  0  0  0
   -6.0260    0.2810    0.0070 H   0  0  0  0  0  0  0  0  0  0  0  0
   -6.4150   -1.4120    0.3930 H   0  0  0  0  0  0  0  0  0  0  0  0
   -4.7620   -1.2690   -1.3970 H   0  0  0  0  0  0  0  0  0  0  0  0
   -3.7280   -0.1740   -0.4320 H   0  0  0  0  0  0  0  0  0  0  0  0
   -3.3990   -2.0940    1.2400 H   0  0  0  0  0  0  0  0  0  0  0  0
   -4.4420   -3.1110    0.2390 H   0  0  0  0  0  0  0  0  0  0  0  0
   -2.0440   -3.5720   -0.2260 H   0  0  0  0  0  0  0  0  0  0  0  0
   -1.8550   -0.6380   -1.0620 H   0  0  0  0  0  0  0  0  0  0  0  0
  1 11  1  0  0  0  0
  1 10  1  0  0  0  0
  2  1  1  0  0  0  0
  2 12  1  1  0  0  0
  3  2  1  0  0  0  0
  3 14  1  0  0  0  0
  4 16  1  0  0  0  0
  4  3  1  0  0  0  0
  4 15  1  0  0  0  0
  5  4  1  0  0  0  0
  6  7  1  0  0  0  0
  6  5  1  0  0  0  0
  8  9  2  0  0  0  0
  8  2  1  0  0  0  0
 13  3  1  0  0  0  0
 17  5  1  0  0  0  0
 18  5  1  0  0  0  0
 19  6  1  0  0  0  0
 20  6  1  0  0  0  0
 21  7  1  0  0  0  0
 22  7  1  0  0  0  0
 23 34  1  0  0  0  0
 23 35  1  0  0  0  0
 24 23  1  0  0  0  0
 25 36  1  0  0  0  0
 25 24  2  0  0  0  0
 26 24  1  0  0  0  0
 26 37  1  0  0  0  0
 27 26  1  0  0  0  0
 28 27  1  0  0  0  0
 28 29  1  0  0  0  0
 29 30  1  0  0  0  0
 30 44  1  1  0  0  0
 30 31  1  0  0  0  0
 31  8  1  0  0  0  0
 32 30  1  0  0  0  0
 32 33  2  0  0  0  0
 38 27  1  0  0  0  0
 39 27  1  0  0  0  0
 40 28  1  0  0  0  0
 41 28  1  0  0  0  0
 42 29  1  0  0  0  0
 43 29  1  0  0  0  0
 45 31  1  0  0  0  0
 46 59  1  0  0  0  0
 46 58  1  0  0  0  0
 47 46  1  0  0  0  0
 48 47  2  0  0  0  0
 49 61  1  0  0  0  0
 49 47  1  0  0  0  0
 50 49  1  0  0  0  0
 51 52  1  0  0  0  0
 51 50  1  0  0  0  0
 52 67  1  0  0  0  0
 52 66  1  0  0  0  0
 53 68  1  1  0  0  0
 53 52  1  0  0  0  0
 54 53  1  0  0  0  0
 54 32  1  0  0  0  0
 55 53  1  0  0  0  0
 56 55  1  0  0  0  0
 57 55  2  0  0  0  0
 60 48  1  0  0  0  0
 62 50  1  0  0  0  0
 63 50  1  0  0  0  0
 64 51  1  0  0  0  0
 65 51  1  0  0  0  0
 69 54  1  0  0  0  0
M  END
$$$$
