KRS.pdb
 OpenBabel07022418493D

 57 56  0  0  1  0  0  0  0  0999 V2000
    0.2800   -0.1900    4.5320 N   0  0  0  0  0  0  0  0  0  0  0  0
    0.9210   -0.3660    3.1680 C   0  0  1  0  0  0  0  0  0  0  0  0
    1.5350   -1.7180    3.2670 C   0  0  0  0  0  0  0  0  0  0  0  0
    2.3540   -2.2630    2.1860 C   0  0  0  0  0  0  0  0  0  0  0  0
    3.7350   -1.7790    1.9760 C   0  0  0  0  0  0  0  0  0  0  0  0
    3.9390   -0.3400    1.7830 C   0  0  0  0  0  0  0  0  0  0  0  0
    3.1970    0.1700    0.6670 N   0  0  0  0  0  0  0  0  0  0  0  0
   -0.3050   -0.4270    2.2880 C   0  0  0  0  0  0  0  0  0  0  0  0
   -1.4280   -0.4640    2.8620 O   0  0  0  0  0  0  0  0  0  0  0  0
    1.0510   -0.4110    5.1850 H   0  0  0  0  0  0  0  0  0  0  0  0
   -0.0920    0.7620    4.6020 H   0  0  0  0  0  0  0  0  0  0  0  0
    1.5600    0.4500    3.0040 H   0  0  0  0  0  0  0  0  0  0  0  0
    0.6890   -2.4090    3.5690 H   0  0  0  0  0  0  0  0  0  0  0  0
    2.1780   -1.7360    4.2140 H   0  0  0  0  0  0  0  0  0  0  0  0
    2.4300   -3.4050    2.3400 H   0  0  0  0  0  0  0  0  0  0  0  0
    1.7720   -2.2580    1.1900 H   0  0  0  0  0  0  0  0  0  0  0  0
    4.2410   -2.3820    1.1490 H   0  0  0  0  0  0  0  0  0  0  0  0
    4.3420   -2.0510    2.9210 H   0  0  0  0  0  0  0  0  0  0  0  0
    5.0670   -0.1410    1.5910 H   0  0  0  0  0  0  0  0  0  0  0  0
    3.6870    0.2260    2.6960 H   0  0  0  0  0  0  0  0  0  0  0  0
    3.4480   -0.2630   -0.2400 H   0  0  0  0  0  0  0  0  0  0  0  0
    3.3990    1.2110    0.5520 H   0  0  0  0  0  0  0  0  0  0  0  0
    2.8970    2.1900   -2.0030 N   0  0  0  0  0  0  0  0  0  0  0  0
    1.8470    2.7650   -1.2230 C   0  0  0  0  0  0  0  0  0  0  0  0
    2.0580    3.7790   -0.4570 N   0  0  0  0  0  0  0  0  0  0  0  0
    0.5590    2.1850   -1.3230 N   0  0  0  0  0  0  0  0  0  0  0  0
   -0.4460    2.3460   -0.2610 C   0  0  0  0  0  0  0  0  0  0  0  0
   -1.7510    1.7620   -0.6840 C   0  0  0  0  0  0  0  0  0  0  0  0
   -1.8000    0.3080   -0.9580 C   0  0  0  0  0  0  0  0  0  0  0  0
   -1.5660   -0.5540    0.2030 C   0  0  2  0  0  0  0  0  0  0  0  0
   -0.3150   -0.4550    0.8820 N   0  0  0  0  0  0  0  0  0  0  0  0
   -1.7180   -2.0230   -0.1420 C   0  0  0  0  0  0  0  0  0  0  0  0
   -0.8520   -2.8780    0.1470 O   0  0  0  0  0  0  0  0  0  0  0  0
    2.8140    1.2320   -2.3870 H   0  0  0  0  0  0  0  0  0  0  0  0
    3.7800    2.7170   -2.2110 H   0  0  0  0  0  0  0  0  0  0  0  0
    1.3740    4.2520    0.1310 H   0  0  0  0  0  0  0  0  0  0  0  0
    0.2950    1.6290   -2.1580 H   0  0  0  0  0  0  0  0  0  0  0  0
   -0.5580    3.4510   -0.1450 H   0  0  0  0  0  0  0  0  0  0  0  0
   -0.0820    1.9500    0.6890 H   0  0  0  0  0  0  0  0  0  0  0  0
   -2.5000    2.0750    0.1080 H   0  0  0  0  0  0  0  0  0  0  0  0
   -2.0580    2.3510   -1.6100 H   0  0  0  0  0  0  0  0  0  0  0  0
   -0.9660    0.0890   -1.7060 H   0  0  0  0  0  0  0  0  0  0  0  0
   -2.7580    0.0530   -1.4840 H   0  0  0  0  0  0  0  0  0  0  0  0
   -2.3980   -0.3840    0.9570 H   0  0  0  0  0  0  0  0  0  0  0  0
    0.5550   -0.4030    0.3460 H   0  0  0  0  0  0  0  0  0  0  0  0
   -4.1140   -4.1810    0.9410 O   0  0  0  0  0  0  0  0  0  0  0  0
   -4.3950   -4.2550   -0.4060 C   0  0  0  0  0  0  0  0  0  0  0  0
   -3.1710   -3.8160   -1.2010 C   0  0  2  0  0  0  0  0  0  0  0  0
   -2.8830   -2.4640   -0.8170 N   0  0  0  0  0  0  0  0  0  0  0  0
   -3.3560   -4.0120   -2.6300 C   0  0  0  0  0  0  0  0  0  0  0  0
   -3.6040   -5.1490   -3.0840 O   0  0  0  0  0  0  0  0  0  0  0  0
   -3.2650   -2.9570   -3.5120 O   0  0  0  0  0  0  0  0  0  0  0  0
   -3.2240   -3.8340    1.0840 H   0  0  0  0  0  0  0  0  0  0  0  0
   -5.1920   -3.5090   -0.6660 H   0  0  0  0  0  0  0  0  0  0  0  0
   -4.6880   -5.2740   -0.7240 H   0  0  0  0  0  0  0  0  0  0  0  0
   -2.3150   -4.4350   -0.7980 H   0  0  0  0  0  0  0  0  0  0  0  0
   -3.6170   -1.7510   -1.0700 H   0  0  0  0  0  0  0  0  0  0  0  0
  1 11  1  0  0  0  0
  1 10  1  0  0  0  0
  2 12  1  6  0  0  0
  2  3  1  0  0  0  0
  2  1  1  0  0  0  0
  3 13  1  0  0  0  0
  3 14  1  0  0  0  0
  4 15  1  0  0  0  0
  4  3  1  0  0  0  0
  5  4  1  0  0  0  0
  5 18  1  0  0  0  0
  6  5  1  0  0  0  0
  6 20  1  0  0  0  0
  7  6  1  0  0  0  0
  8  9  2  0  0  0  0
  8  2  1  0  0  0  0
 16  4  1  0  0  0  0
 17  5  1  0  0  0  0
 19  6  1  0  0  0  0
 21  7  1  0  0  0  0
 22  7  1  0  0  0  0
 23 24  1  0  0  0  0
 24 25  2  0  0  0  0
 25 36  1  0  0  0  0
 26 24  1  0  0  0  0
 26 27  1  0  0  0  0
 27 38  1  0  0  0  0
 27 39  1  0  0  0  0
 28 27  1  0  0  0  0
 28 40  1  0  0  0  0
 29 28  1  0  0  0  0
 29 30  1  0  0  0  0
 30 31  1  0  0  0  0
 30 44  1  1  0  0  0
 31  8  1  0  0  0  0
 32 33  2  0  0  0  0
 32 30  1  0  0  0  0
 34 23  1  0  0  0  0
 35 23  1  0  0  0  0
 37 26  1  0  0  0  0
 41 28  1  0  0  0  0
 42 29  1  0  0  0  0
 43 29  1  0  0  0  0
 45 31  1  0  0  0  0
 46 53  1  0  0  0  0
 47 46  1  0  0  0  0
 48 49  1  0  0  0  0
 48 56  1  1  0  0  0
 48 47  1  0  0  0  0
 49 32  1  0  0  0  0
 50 48  1  0  0  0  0
 51 50  1  0  0  0  0
 52 50  2  0  0  0  0
 54 47  1  0  0  0  0
 55 47  1  0  0  0  0
 57 49  1  0  0  0  0
M  END
$$$$
