KRT.pdb
 OpenBabel07022418493D

 60 59  0  0  1  0  0  0  0  0999 V2000
    0.2970   -4.0630    3.1140 N   0  0  0  0  0  0  0  0  0  0  0  0
    0.8350   -2.6980    3.1660 C   0  0  1  0  0  0  0  0  0  0  0  0
    2.0000   -2.6190    2.2420 C   0  0  0  0  0  0  0  0  0  0  0  0
    2.6860   -1.2930    2.1800 C   0  0  0  0  0  0  0  0  0  0  0  0
    3.2010   -0.9710    3.5880 C   0  0  0  0  0  0  0  0  0  0  0  0
    3.9040    0.3730    3.5400 C   0  0  0  0  0  0  0  0  0  0  0  0
    4.9990    0.2410    2.5920 N   0  0  0  0  0  0  0  0  0  0  0  0
   -0.2850   -1.7920    2.8290 C   0  0  0  0  0  0  0  0  0  0  0  0
   -1.1520   -1.4400    3.6660 O   0  0  0  0  0  0  0  0  0  0  0  0
   -0.3210   -4.2750    3.9060 H   0  0  0  0  0  0  0  0  0  0  0  0
   -0.1420   -4.2530    2.1790 H   0  0  0  0  0  0  0  0  0  0  0  0
    1.1590   -2.5700    4.2300 H   0  0  0  0  0  0  0  0  0  0  0  0
    2.7570   -3.3610    2.6140 H   0  0  0  0  0  0  0  0  0  0  0  0
    1.7080   -2.9980    1.2390 H   0  0  0  0  0  0  0  0  0  0  0  0
    2.0720   -0.4580    1.8130 H   0  0  0  0  0  0  0  0  0  0  0  0
    3.6060   -1.4320    1.5620 H   0  0  0  0  0  0  0  0  0  0  0  0
    3.8550   -1.7940    3.8940 H   0  0  0  0  0  0  0  0  0  0  0  0
    2.3270   -0.9100    4.2480 H   0  0  0  0  0  0  0  0  0  0  0  0
    4.2650    0.5840    4.5540 H   0  0  0  0  0  0  0  0  0  0  0  0
    3.1580    1.1150    3.2140 H   0  0  0  0  0  0  0  0  0  0  0  0
    4.5800    0.4090    1.6440 H   0  0  0  0  0  0  0  0  0  0  0  0
    5.3290   -0.7500    2.5940 H   0  0  0  0  0  0  0  0  0  0  0  0
    1.0330    3.5630   -3.2250 N   0  0  0  0  0  0  0  0  0  0  0  0
   -0.0590    3.8750   -2.3860 C   0  0  0  0  0  0  0  0  0  0  0  0
   -0.4970    5.0870   -2.2680 N   0  0  0  0  0  0  0  0  0  0  0  0
   -0.6960    2.8350   -1.6510 N   0  0  0  0  0  0  0  0  0  0  0  0
   -1.4800    3.0900   -0.4700 C   0  0  0  0  0  0  0  0  0  0  0  0
   -2.0330    1.7910    0.1140 C   0  0  0  0  0  0  0  0  0  0  0  0
   -0.9310    0.8560    0.5040 C   0  0  0  0  0  0  0  0  0  0  0  0
   -1.4860   -0.3900    1.1190 C   0  0  2  0  0  0  0  0  0  0  0  0
   -0.3940   -1.2950    1.5080 N   0  0  0  0  0  0  0  0  0  0  0  0
   -2.3640   -1.0920    0.1630 C   0  0  0  0  0  0  0  0  0  0  0  0
   -3.4330   -0.6400   -0.3200 O   0  0  0  0  0  0  0  0  0  0  0  0
    1.9710    3.4430   -2.8150 H   0  0  0  0  0  0  0  0  0  0  0  0
    0.8800    3.4580   -4.2430 H   0  0  0  0  0  0  0  0  0  0  0  0
   -1.2950    5.3430   -1.6600 H   0  0  0  0  0  0  0  0  0  0  0  0
   -0.5580    1.8730   -2.0280 H   0  0  0  0  0  0  0  0  0  0  0  0
   -2.2920    3.7920   -0.7230 H   0  0  0  0  0  0  0  0  0  0  0  0
   -0.8470    3.5440    0.3130 H   0  0  0  0  0  0  0  0  0  0  0  0
   -2.5610    1.3270   -0.7760 H   0  0  0  0  0  0  0  0  0  0  0  0
   -2.8000    1.9660    0.8700 H   0  0  0  0  0  0  0  0  0  0  0  0
   -0.3650    0.6260   -0.4490 H   0  0  0  0  0  0  0  0  0  0  0  0
   -0.1630    1.3430    1.1480 H   0  0  0  0  0  0  0  0  0  0  0  0
   -2.0800   -0.1920    2.0320 H   0  0  0  0  0  0  0  0  0  0  0  0
    0.2670   -1.5280    0.7360 H   0  0  0  0  0  0  0  0  0  0  0  0
   -1.3960   -2.3500   -3.1080 C   0  0  0  0  0  0  0  0  0  0  0  0
   -1.9760   -3.5470   -2.4100 C   0  0  1  0  0  0  0  0  0  0  0  0
   -0.9230   -4.3450   -1.9910 O   0  0  0  0  0  0  0  0  0  0  0  0
   -2.8220   -3.1470   -1.2160 C   0  0  2  0  0  0  0  0  0  0  0  0
   -1.9960   -2.4070   -0.2750 N   0  0  0  0  0  0  0  0  0  0  0  0
   -3.2920   -4.3720   -0.5200 C   0  0  0  0  0  0  0  0  0  0  0  0
   -4.0420   -5.2120   -1.1130 O   0  0  0  0  0  0  0  0  0  0  0  0
   -2.9490   -4.6610    0.7840 O   0  0  0  0  0  0  0  0  0  0  0  0
   -0.4010   -2.5540   -3.5590 H   0  0  0  0  0  0  0  0  0  0  0  0
   -2.1350   -1.9910   -3.8800 H   0  0  0  0  0  0  0  0  0  0  0  0
   -1.2490   -1.4870   -2.4240 H   0  0  0  0  0  0  0  0  0  0  0  0
   -2.6640   -4.1050   -3.0950 H   0  0  0  0  0  0  0  0  0  0  0  0
   -0.1500   -4.2040   -2.5830 H   0  0  0  0  0  0  0  0  0  0  0  0
   -3.6930   -2.5540   -1.4950 H   0  0  0  0  0  0  0  0  0  0  0  0
   -1.1250   -2.8340    0.0910 H   0  0  0  0  0  0  0  0  0  0  0  0
  1  2  1  0  0  0  0
  1 10  1  0  0  0  0
  2 12  1  1  0  0  0
  3 13  1  0  0  0  0
  3  2  1  0  0  0  0
  4  3  1  0  0  0  0
  4  5  1  0  0  0  0
  5 17  1  0  0  0  0
  5 18  1  0  0  0  0
  6  5  1  0  0  0  0
  6 19  1  0  0  0  0
  7 22  1  0  0  0  0
  7  6  1  0  0  0  0
  8  2  1  0  0  0  0
  8  9  2  0  0  0  0
 11  1  1  0  0  0  0
 14  3  1  0  0  0  0
 15  4  1  0  0  0  0
 16  4  1  0  0  0  0
 20  6  1  0  0  0  0
 21  7  1  0  0  0  0
 23 34  1  0  0  0  0
 23 24  1  0  0  0  0
 24 25  2  0  0  0  0
 24 26  1  0  0  0  0
 25 36  1  0  0  0  0
 26 27  1  0  0  0  0
 27 28  1  0  0  0  0
 27 39  1  0  0  0  0
 28 29  1  0  0  0  0
 28 41  1  0  0  0  0
 29 30  1  0  0  0  0
 29 43  1  0  0  0  0
 30 31  1  0  0  0  0
 30 44  1  1  0  0  0
 31  8  1  0  0  0  0
 32 30  1  0  0  0  0
 33 32  2  0  0  0  0
 35 23  1  0  0  0  0
 37 26  1  0  0  0  0
 38 27  1  0  0  0  0
 40 28  1  0  0  0  0
 42 29  1  0  0  0  0
 45 31  1  0  0  0  0
 46 56  1  0  0  0  0
 46 47  1  0  0  0  0
 47 57  1  6  0  0  0
 47 48  1  0  0  0  0
 47 49  1  0  0  0  0
 49 59  1  6  0  0  0
 49 51  1  0  0  0  0
 49 50  1  0  0  0  0
 50 60  1  0  0  0  0
 50 32  1  0  0  0  0
 51 53  1  0  0  0  0
 52 51  2  0  0  0  0
 54 46  1  0  0  0  0
 55 46  1  0  0  0  0
 58 48  1  0  0  0  0
M  END
$$$$
