KSD.pdb
 OpenBabel07022418523D

 47 46  0  0  1  0  0  0  0  0999 V2000
    0.0490   -2.9610    3.6920 N   0  0  0  0  0  0  0  0  0  0  0  0
    1.2680   -2.4940    2.8630 C   0  0  1  0  0  0  0  0  0  0  0  0
    1.1430   -3.1790    1.5850 C   0  0  0  0  0  0  0  0  0  0  0  0
    2.1190   -3.1990    0.5220 C   0  0  0  0  0  0  0  0  0  0  0  0
    2.7450   -2.0880   -0.1650 C   0  0  0  0  0  0  0  0  0  0  0  0
    3.6470   -1.1820    0.6080 C   0  0  0  0  0  0  0  0  0  0  0  0
    4.7850   -1.9020    1.1730 N   0  0  0  0  0  0  0  0  0  0  0  0
    0.8910   -1.0290    2.8490 C   0  0  0  0  0  0  0  0  0  0  0  0
    0.8860   -0.4360    3.9810 O   0  0  0  0  0  0  0  0  0  0  0  0
   -0.7790   -2.8150    3.0410 H   0  0  0  0  0  0  0  0  0  0  0  0
    0.2160   -4.0110    3.6620 H   0  0  0  0  0  0  0  0  0  0  0  0
    2.0900   -2.6920    3.5240 H   0  0  0  0  0  0  0  0  0  0  0  0
    0.9140   -4.2970    1.8170 H   0  0  0  0  0  0  0  0  0  0  0  0
    0.0870   -2.8930    1.1780 H   0  0  0  0  0  0  0  0  0  0  0  0
    2.9640   -3.9460    0.8460 H   0  0  0  0  0  0  0  0  0  0  0  0
    1.6440   -3.8930   -0.2960 H   0  0  0  0  0  0  0  0  0  0  0  0
    3.4310   -2.5230   -0.9850 H   0  0  0  0  0  0  0  0  0  0  0  0
    2.0750   -1.4420   -0.7760 H   0  0  0  0  0  0  0  0  0  0  0  0
    3.2290   -0.5630    1.3710 H   0  0  0  0  0  0  0  0  0  0  0  0
    4.1290   -0.4670   -0.1330 H   0  0  0  0  0  0  0  0  0  0  0  0
    5.2500   -2.4260    0.4280 H   0  0  0  0  0  0  0  0  0  0  0  0
    4.5230   -2.4670    2.0120 H   0  0  0  0  0  0  0  0  0  0  0  0
    2.4550    1.8040    2.3070 O   0  0  0  0  0  0  0  0  0  0  0  0
    1.3530    2.0040    1.4850 C   0  0  0  0  0  0  0  0  0  0  0  0
    0.1760    1.1130    1.8750 C   0  0  2  0  0  0  0  0  0  0  0  0
    0.5400   -0.2630    1.7350 N   0  0  0  0  0  0  0  0  0  0  0  0
   -1.0460    1.4860    1.1540 C   0  0  0  0  0  0  0  0  0  0  0  0
   -1.4880    2.6750    1.2200 O   0  0  0  0  0  0  0  0  0  0  0  0
    2.6260    2.5830    2.8970 H   0  0  0  0  0  0  0  0  0  0  0  0
    1.0480    3.0730    1.6080 H   0  0  0  0  0  0  0  0  0  0  0  0
    1.6770    1.8230    0.4530 H   0  0  0  0  0  0  0  0  0  0  0  0
    0.0360    1.3210    2.9650 H   0  0  0  0  0  0  0  0  0  0  0  0
    0.5140   -0.6830    0.7730 H   0  0  0  0  0  0  0  0  0  0  0  0
   -1.8110    0.5990    0.3540 N   0  0  0  0  0  0  0  0  0  0  0  0
   -3.0370    1.0700   -0.3400 C   0  0  1  0  0  0  0  0  0  0  0  0
   -2.7480    0.8850   -1.8090 C   0  0  0  0  0  0  0  0  0  0  0  0
   -3.8180    1.3080   -2.7080 C   0  0  0  0  0  0  0  0  0  0  0  0
   -3.7430    1.0440   -3.9480 O   0  0  0  0  0  0  0  0  0  0  0  0
   -4.1620    0.1600    0.0270 C   0  0  0  0  0  0  0  0  0  0  0  0
   -3.9460   -0.8290    0.8120 O   0  0  0  0  0  0  0  0  0  0  0  0
   -4.9320    1.9980   -2.2660 O   0  0  0  0  0  0  0  0  0  0  0  0
   -5.4490    0.2920   -0.4150 O   0  0  0  0  0  0  0  0  0  0  0  0
   -1.4870   -0.3860    0.2680 H   0  0  0  0  0  0  0  0  0  0  0  0
   -3.2310    2.1150   -0.1000 H   0  0  0  0  0  0  0  0  0  0  0  0
   -1.7540    1.3370   -2.0710 H   0  0  0  0  0  0  0  0  0  0  0  0
   -2.5990   -0.2260   -1.9540 H   0  0  0  0  0  0  0  0  0  0  0  0
   -5.7840    1.9470   -2.8330 H   0  0  0  0  0  0  0  0  0  0  0  0
  2 12  1  1  0  0  0
  2  1  1  0  0  0  0
  3 13  1  0  0  0  0
  3  2  1  0  0  0  0
  4 15  1  0  0  0  0
  4  3  1  0  0  0  0
  5  4  1  0  0  0  0
  5  6  1  0  0  0  0
  6  7  1  0  0  0  0
  6 19  1  0  0  0  0
  7 22  1  0  0  0  0
  8  2  1  0  0  0  0
  8  9  2  0  0  0  0
 10  1  1  0  0  0  0
 11  1  1  0  0  0  0
 14  3  1  0  0  0  0
 16  4  1  0  0  0  0
 17  5  1  0  0  0  0
 18  5  1  0  0  0  0
 20  6  1  0  0  0  0
 21  7  1  0  0  0  0
 23 29  1  0  0  0  0
 24 30  1  0  0  0  0
 24 25  1  0  0  0  0
 24 23  1  0  0  0  0
 25 32  1  1  0  0  0
 26 25  1  0  0  0  0
 26  8  1  0  0  0  0
 27 28  2  0  0  0  0
 27 25  1  0  0  0  0
 31 24  1  0  0  0  0
 33 26  1  0  0  0  0
 34 27  1  0  0  0  0
 35 44  1  1  0  0  0
 35 39  1  0  0  0  0
 35 34  1  0  0  0  0
 36 35  1  0  0  0  0
 37 41  1  0  0  0  0
 37 36  1  0  0  0  0
 38 37  2  0  0  0  0
 39 40  1  0  0  0  0
 42 39  2  0  0  0  0
 43 34  1  0  0  0  0
 45 36  1  0  0  0  0
 46 36  1  0  0  0  0
 47 41  1  0  0  0  0
M  END
$$$$
