KSE.pdb
 OpenBabel07022418523D

 50 49  0  0  1  0  0  0  0  0999 V2000
    1.6120   -1.0750    5.0770 N   0  0  0  0  0  0  0  0  0  0  0  0
    1.4200   -1.1920    3.5940 C   0  0  1  0  0  0  0  0  0  0  0  0
    0.6490   -2.4600    3.4420 C   0  0  0  0  0  0  0  0  0  0  0  0
    0.3120   -2.8920    2.0690 C   0  0  0  0  0  0  0  0  0  0  0  0
    1.4480   -3.1780    1.1500 C   0  0  0  0  0  0  0  0  0  0  0  0
    2.3690   -4.2740    1.5770 C   0  0  0  0  0  0  0  0  0  0  0  0
    2.9680   -3.9570    2.8320 N   0  0  0  0  0  0  0  0  0  0  0  0
    0.7590    0.0250    3.1140 C   0  0  0  0  0  0  0  0  0  0  0  0
    0.3180    0.8510    3.9610 O   0  0  0  0  0  0  0  0  0  0  0  0
    0.6500   -0.9880    5.4730 H   0  0  0  0  0  0  0  0  0  0  0  0
    1.9560   -2.0270    5.4020 H   0  0  0  0  0  0  0  0  0  0  0  0
    2.4380   -1.2420    3.1820 H   0  0  0  0  0  0  0  0  0  0  0  0
   -0.3430   -2.2690    3.9690 H   0  0  0  0  0  0  0  0  0  0  0  0
    1.1260   -3.2250    4.0900 H   0  0  0  0  0  0  0  0  0  0  0  0
   -0.4000   -2.1800    1.6430 H   0  0  0  0  0  0  0  0  0  0  0  0
   -0.2910   -3.8540    2.1580 H   0  0  0  0  0  0  0  0  0  0  0  0
    2.0740   -2.3190    0.8730 H   0  0  0  0  0  0  0  0  0  0  0  0
    0.9860   -3.5120    0.1720 H   0  0  0  0  0  0  0  0  0  0  0  0
    3.1940   -4.3100    0.8160 H   0  0  0  0  0  0  0  0  0  0  0  0
    1.9030   -5.2800    1.5440 H   0  0  0  0  0  0  0  0  0  0  0  0
    3.7040   -3.2110    2.6510 H   0  0  0  0  0  0  0  0  0  0  0  0
    3.3900   -4.7930    3.3180 H   0  0  0  0  0  0  0  0  0  0  0  0
    1.7230    2.1330   -0.1520 O   0  0  0  0  0  0  0  0  0  0  0  0
    0.9920    2.5860    0.9190 C   0  0  0  0  0  0  0  0  0  0  0  0
   -0.0640    1.5550    1.3630 C   0  0  2  0  0  0  0  0  0  0  0  0
    0.5930    0.3230    1.7480 N   0  0  0  0  0  0  0  0  0  0  0  0
   -1.0940    1.4010    0.3230 C   0  0  0  0  0  0  0  0  0  0  0  0
   -1.7570    2.4500   -0.0170 O   0  0  0  0  0  0  0  0  0  0  0  0
    2.1520    2.9300   -0.5720 H   0  0  0  0  0  0  0  0  0  0  0  0
    0.4460    3.5130    0.7430 H   0  0  0  0  0  0  0  0  0  0  0  0
    1.6360    2.7400    1.8070 H   0  0  0  0  0  0  0  0  0  0  0  0
   -0.4890    2.0060    2.2820 H   0  0  0  0  0  0  0  0  0  0  0  0
    0.9150   -0.2880    0.9750 H   0  0  0  0  0  0  0  0  0  0  0  0
   -1.4020    0.1840   -0.3280 N   0  0  0  0  0  0  0  0  0  0  0  0
   -2.4210    0.1360   -1.3230 C   0  0  1  0  0  0  0  0  0  0  0  0
   -1.9450   -0.3690   -2.6560 C   0  0  0  0  0  0  0  0  0  0  0  0
   -0.8630    0.4380   -3.2810 C   0  0  0  0  0  0  0  0  0  0  0  0
   -1.1940    1.8360   -3.5580 C   0  0  0  0  0  0  0  0  0  0  0  0
   -2.2700    2.4120   -3.3330 O   0  0  0  0  0  0  0  0  0  0  0  0
   -3.5050   -0.7900   -0.8810 C   0  0  0  0  0  0  0  0  0  0  0  0
   -4.5350   -1.0280   -1.5620 O   0  0  0  0  0  0  0  0  0  0  0  0
   -0.1780    2.6100   -4.1430 O   0  0  0  0  0  0  0  0  0  0  0  0
   -3.4030   -1.4390    0.3410 O   0  0  0  0  0  0  0  0  0  0  0  0
   -0.8770   -0.6680   -0.0760 H   0  0  0  0  0  0  0  0  0  0  0  0
   -2.8740    1.1600   -1.4640 H   0  0  0  0  0  0  0  0  0  0  0  0
   -2.8250   -0.3860   -3.3340 H   0  0  0  0  0  0  0  0  0  0  0  0
   -1.5990   -1.4090   -2.5670 H   0  0  0  0  0  0  0  0  0  0  0  0
   -0.6330   -0.0460   -4.2700 H   0  0  0  0  0  0  0  0  0  0  0  0
    0.1000    0.3400   -2.7060 H   0  0  0  0  0  0  0  0  0  0  0  0
   -0.3390    3.5370   -4.5050 H   0  0  0  0  0  0  0  0  0  0  0  0
  1 11  1  0  0  0  0
  1 10  1  0  0  0  0
  2 12  1  6  0  0  0
  2  1  1  0  0  0  0
  3  2  1  0  0  0  0
  3 13  1  0  0  0  0
  3 14  1  0  0  0  0
  4 16  1  0  0  0  0
  4  3  1  0  0  0  0
  5  6  1  0  0  0  0
  5  4  1  0  0  0  0
  6  7  1  0  0  0  0
  7 22  1  0  0  0  0
  8  2  1  0  0  0  0
  8  9  2  0  0  0  0
 15  4  1  0  0  0  0
 17  5  1  0  0  0  0
 18  5  1  0  0  0  0
 19  6  1  0  0  0  0
 20  6  1  0  0  0  0
 21  7  1  0  0  0  0
 23 24  1  0  0  0  0
 24 25  1  0  0  0  0
 24 31  1  0  0  0  0
 25 26  1  0  0  0  0
 25 32  1  1  0  0  0
 26  8  1  0  0  0  0
 27 25  1  0  0  0  0
 28 27  2  0  0  0  0
 29 23  1  0  0  0  0
 30 24  1  0  0  0  0
 33 26  1  0  0  0  0
 34 44  1  0  0  0  0
 34 27  1  0  0  0  0
 35 45  1  6  0  0  0
 35 40  1  0  0  0  0
 35 34  1  0  0  0  0
 36 47  1  0  0  0  0
 36 35  1  0  0  0  0
 37 49  1  0  0  0  0
 37 36  1  0  0  0  0
 38 39  2  0  0  0  0
 38 37  1  0  0  0  0
 40 43  1  0  0  0  0
 41 40  2  0  0  0  0
 42 38  1  0  0  0  0
 46 36  1  0  0  0  0
 48 37  1  0  0  0  0
 50 42  1  0  0  0  0
M  END
$$$$
