KSK.pdb
 OpenBabel07022418523D

 55 54  0  0  1  0  0  0  0  0999 V2000
    2.0980   -0.2030    4.7280 N   0  0  0  0  0  0  0  0  0  0  0  0
    1.6810   -0.4030    3.3030 C   0  0  1  0  0  0  0  0  0  0  0  0
    1.6760   -1.9010    3.1610 C   0  0  0  0  0  0  0  0  0  0  0  0
    1.3250   -2.4490    1.8440 C   0  0  0  0  0  0  0  0  0  0  0  0
    2.1910   -2.0910    0.6970 C   0  0  0  0  0  0  0  0  0  0  0  0
    3.6240   -2.5140    0.8190 C   0  0  0  0  0  0  0  0  0  0  0  0
    4.3840   -2.1170   -0.3540 N   0  0  0  0  0  0  0  0  0  0  0  0
    0.3680    0.2340    3.1430 C   0  0  0  0  0  0  0  0  0  0  0  0
   -0.2680    0.6480    4.1750 O   0  0  0  0  0  0  0  0  0  0  0  0
    1.7820    0.7820    4.9590 H   0  0  0  0  0  0  0  0  0  0  0  0
    1.4790   -0.8210    5.3260 H   0  0  0  0  0  0  0  0  0  0  0  0
    2.4170    0.1250    2.7040 H   0  0  0  0  0  0  0  0  0  0  0  0
    0.8800   -2.2610    3.8830 H   0  0  0  0  0  0  0  0  0  0  0  0
    2.6170   -2.2920    3.6000 H   0  0  0  0  0  0  0  0  0  0  0  0
    0.2740   -2.1930    1.6190 H   0  0  0  0  0  0  0  0  0  0  0  0
    1.3000   -3.5760    1.9590 H   0  0  0  0  0  0  0  0  0  0  0  0
    2.2090   -0.9990    0.5110 H   0  0  0  0  0  0  0  0  0  0  0  0
    1.7660   -2.5510   -0.2200 H   0  0  0  0  0  0  0  0  0  0  0  0
    3.7040   -3.6390    0.8560 H   0  0  0  0  0  0  0  0  0  0  0  0
    4.1420   -2.1370    1.6940 H   0  0  0  0  0  0  0  0  0  0  0  0
    3.7390   -1.8130   -1.1380 H   0  0  0  0  0  0  0  0  0  0  0  0
    5.1170   -1.4170   -0.1500 H   0  0  0  0  0  0  0  0  0  0  0  0
   -0.4280    3.0650    2.3440 O   0  0  0  0  0  0  0  0  0  0  0  0
   -1.2650    2.5210    1.3740 C   0  0  0  0  0  0  0  0  0  0  0  0
   -1.5190    1.0630    1.8310 C   0  0  2  0  0  0  0  0  0  0  0  0
   -0.2220    0.4140    1.8850 N   0  0  0  0  0  0  0  0  0  0  0  0
   -2.4710    0.4030    0.9500 C   0  0  0  0  0  0  0  0  0  0  0  0
   -3.6720    0.8330    0.8560 O   0  0  0  0  0  0  0  0  0  0  0  0
    0.2500    3.6880    1.9310 H   0  0  0  0  0  0  0  0  0  0  0  0
   -2.2320    3.0600    1.4180 H   0  0  0  0  0  0  0  0  0  0  0  0
   -0.7850    2.5420    0.3890 H   0  0  0  0  0  0  0  0  0  0  0  0
   -1.9530    1.2020    2.8550 H   0  0  0  0  0  0  0  0  0  0  0  0
    0.1930    0.1190    0.9790 H   0  0  0  0  0  0  0  0  0  0  0  0
   -2.1980   -0.7380    0.1280 N   0  0  0  0  0  0  0  0  0  0  0  0
   -3.1800   -1.3350   -0.7100 C   0  0  1  0  0  0  0  0  0  0  0  0
   -3.0910   -1.0980   -2.1760 C   0  0  0  0  0  0  0  0  0  0  0  0
   -1.9150   -1.5290   -2.9330 C   0  0  0  0  0  0  0  0  0  0  0  0
   -0.5950   -0.9620   -2.5980 C   0  0  0  0  0  0  0  0  0  0  0  0
   -0.5510    0.5500   -2.7050 C   0  0  0  0  0  0  0  0  0  0  0  0
    0.8210    0.9360   -2.3410 N   0  0  0  0  0  0  0  0  0  0  0  0
   -3.2990   -2.8090   -0.4170 C   0  0  0  0  0  0  0  0  0  0  0  0
   -4.1320   -3.4790   -1.0830 O   0  0  0  0  0  0  0  0  0  0  0  0
   -2.5340   -3.4300    0.5430 O   0  0  0  0  0  0  0  0  0  0  0  0
   -1.2380   -1.1060    0.2030 H   0  0  0  0  0  0  0  0  0  0  0  0
   -4.2270   -0.9390   -0.4400 H   0  0  0  0  0  0  0  0  0  0  0  0
   -3.3620   -0.0160   -2.3550 H   0  0  0  0  0  0  0  0  0  0  0  0
   -4.0010   -1.6340   -2.6160 H   0  0  0  0  0  0  0  0  0  0  0  0
   -1.8270   -2.6570   -2.8110 H   0  0  0  0  0  0  0  0  0  0  0  0
   -2.1160   -1.3310   -4.0300 H   0  0  0  0  0  0  0  0  0  0  0  0
    0.1110   -1.2900   -3.4540 H   0  0  0  0  0  0  0  0  0  0  0  0
   -0.1080   -1.3280   -1.6990 H   0  0  0  0  0  0  0  0  0  0  0  0
   -1.2470    1.0540   -2.0290 H   0  0  0  0  0  0  0  0  0  0  0  0
   -0.7140    0.8340   -3.7550 H   0  0  0  0  0  0  0  0  0  0  0  0
    1.4820    0.6270   -3.0930 H   0  0  0  0  0  0  0  0  0  0  0  0
    0.9130    1.9570   -2.2090 H   0  0  0  0  0  0  0  0  0  0  0  0
  1 10  1  0  0  0  0
  1 11  1  0  0  0  0
  2 12  1  6  0  0  0
  2  1  1  0  0  0  0
  3  2  1  0  0  0  0
  3 14  1  0  0  0  0
  3 13  1  0  0  0  0
  4 16  1  0  0  0  0
  4  3  1  0  0  0  0
  5  6  1  0  0  0  0
  5  4  1  0  0  0  0
  6 19  1  0  0  0  0
  6 20  1  0  0  0  0
  7 22  1  0  0  0  0
  7  6  1  0  0  0  0
  8  2  1  0  0  0  0
  8  9  2  0  0  0  0
 15  4  1  0  0  0  0
 17  5  1  0  0  0  0
 18  5  1  0  0  0  0
 21  7  1  0  0  0  0
 24 30  1  0  0  0  0
 24 25  1  0  0  0  0
 24 23  1  0  0  0  0
 25 26  1  0  0  0  0
 25 32  1  1  0  0  0
 26  8  1  0  0  0  0
 27 25  1  0  0  0  0
 28 27  2  0  0  0  0
 29 23  1  0  0  0  0
 31 24  1  0  0  0  0
 33 26  1  0  0  0  0
 34 44  1  0  0  0  0
 34 27  1  0  0  0  0
 35 45  1  1  0  0  0
 35 41  1  0  0  0  0
 35 34  1  0  0  0  0
 36 35  1  0  0  0  0
 37 48  1  0  0  0  0
 37 38  1  0  0  0  0
 37 36  1  0  0  0  0
 38 51  1  0  0  0  0
 39 38  1  0  0  0  0
 39 40  1  0  0  0  0
 39 52  1  0  0  0  0
 40 55  1  0  0  0  0
 41 43  1  0  0  0  0
 42 41  2  0  0  0  0
 46 36  1  0  0  0  0
 47 36  1  0  0  0  0
 49 37  1  0  0  0  0
 50 38  1  0  0  0  0
 53 39  1  0  0  0  0
 54 40  1  0  0  0  0
M  END
$$$$
