KSM.pdb
 OpenBabel07022418523D

 51 50  0  0  1  0  0  0  0  0999 V2000
    3.3290   -2.4090    0.1940 N   0  0  0  0  0  0  0  0  0  0  0  0
    2.3970   -1.3740    0.6760 C   0  0  1  0  0  0  0  0  0  0  0  0
    1.6900   -0.7280   -0.4630 C   0  0  0  0  0  0  0  0  0  0  0  0
    2.4880   -0.0510   -1.4960 C   0  0  0  0  0  0  0  0  0  0  0  0
    3.3180    1.1200   -1.1920 C   0  0  0  0  0  0  0  0  0  0  0  0
    4.4250    0.9940   -0.1980 C   0  0  0  0  0  0  0  0  0  0  0  0
    5.3580   -0.0440   -0.5800 N   0  0  0  0  0  0  0  0  0  0  0  0
    1.4340   -2.0820    1.5800 C   0  0  0  0  0  0  0  0  0  0  0  0
    1.5590   -3.3140    1.7370 O   0  0  0  0  0  0  0  0  0  0  0  0
    4.1990   -2.3950    0.7520 H   0  0  0  0  0  0  0  0  0  0  0  0
    2.8620   -3.3430    0.1490 H   0  0  0  0  0  0  0  0  0  0  0  0
    2.9670   -0.7140    1.3370 H   0  0  0  0  0  0  0  0  0  0  0  0
    1.1390   -1.5760   -0.9940 H   0  0  0  0  0  0  0  0  0  0  0  0
    0.8300   -0.0880   -0.1110 H   0  0  0  0  0  0  0  0  0  0  0  0
    3.1020   -0.8380   -2.0410 H   0  0  0  0  0  0  0  0  0  0  0  0
    1.7490    0.2410   -2.3280 H   0  0  0  0  0  0  0  0  0  0  0  0
    3.8420    1.3970   -2.1730 H   0  0  0  0  0  0  0  0  0  0  0  0
    2.7040    2.0440   -0.9940 H   0  0  0  0  0  0  0  0  0  0  0  0
    4.1730    1.0570    0.8500 H   0  0  0  0  0  0  0  0  0  0  0  0
    5.0690    1.9590   -0.3450 H   0  0  0  0  0  0  0  0  0  0  0  0
    5.3100   -0.2760   -1.5750 H   0  0  0  0  0  0  0  0  0  0  0  0
    6.2910    0.0600   -0.1620 H   0  0  0  0  0  0  0  0  0  0  0  0
   -0.6350   -0.2390    4.4890 O   0  0  0  0  0  0  0  0  0  0  0  0
   -0.3230   -1.5870    4.5190 C   0  0  0  0  0  0  0  0  0  0  0  0
   -0.5040   -2.1480    3.1170 C   0  0  2  0  0  0  0  0  0  0  0  0
    0.3980   -1.4180    2.2560 N   0  0  0  0  0  0  0  0  0  0  0  0
   -1.9190   -2.0080    2.6670 C   0  0  0  0  0  0  0  0  0  0  0  0
   -2.8530   -2.5600    3.2790 O   0  0  0  0  0  0  0  0  0  0  0  0
    0.1500    0.3450    4.6930 H   0  0  0  0  0  0  0  0  0  0  0  0
   -0.9030   -2.1600    5.2660 H   0  0  0  0  0  0  0  0  0  0  0  0
    0.7580   -1.6640    4.7690 H   0  0  0  0  0  0  0  0  0  0  0  0
   -0.2650   -3.2350    3.1350 H   0  0  0  0  0  0  0  0  0  0  0  0
    0.2500   -0.3940    2.1600 H   0  0  0  0  0  0  0  0  0  0  0  0
   -2.3110    0.0710   -2.1280 C   0  0  0  0  0  0  0  0  0  0  0  0
   -3.4660    1.2510   -1.4710 S   0  0  0  0  0  0  0  0  0  0  0  0
   -3.6040    1.3660    0.2840 C   0  0  0  0  0  0  0  0  0  0  0  0
   -4.1980    0.2520    1.0430 C   0  0  0  0  0  0  0  0  0  0  0  0
   -3.6270   -1.0800    1.0530 C   0  0  2  0  0  0  0  0  0  0  0  0
   -2.2980   -1.2550    1.5360 N   0  0  0  0  0  0  0  0  0  0  0  0
   -3.8240   -1.9260   -0.1460 C   0  0  0  0  0  0  0  0  0  0  0  0
   -2.9500   -2.6940   -0.6110 O   0  0  0  0  0  0  0  0  0  0  0  0
   -5.0460   -1.8670   -0.7930 O   0  0  0  0  0  0  0  0  0  0  0  0
   -1.6660    0.5700   -2.8920 H   0  0  0  0  0  0  0  0  0  0  0  0
   -2.8910   -0.7700   -2.6080 H   0  0  0  0  0  0  0  0  0  0  0  0
   -1.7050   -0.3570   -1.3270 H   0  0  0  0  0  0  0  0  0  0  0  0
   -2.5740    1.6620    0.6750 H   0  0  0  0  0  0  0  0  0  0  0  0
   -4.1650    2.3390    0.4870 H   0  0  0  0  0  0  0  0  0  0  0  0
   -5.2640    0.1600    0.6430 H   0  0  0  0  0  0  0  0  0  0  0  0
   -4.4270    0.5380    2.1190 H   0  0  0  0  0  0  0  0  0  0  0  0
   -4.2450   -1.6700    1.8340 H   0  0  0  0  0  0  0  0  0  0  0  0
   -1.5190   -0.7730    1.0000 H   0  0  0  0  0  0  0  0  0  0  0  0
  1  2  1  0  0  0  0
  1 10  1  0  0  0  0
  2 12  1  1  0  0  0
  2  8  1  0  0  0  0
  3 14  1  0  0  0  0
  3  2  1  0  0  0  0
  4  5  1  0  0  0  0
  4  3  1  0  0  0  0
  5 18  1  0  0  0  0
  5  6  1  0  0  0  0
  6 19  1  0  0  0  0
  7  6  1  0  0  0  0
  7 22  1  0  0  0  0
  8  9  2  0  0  0  0
  8 26  1  0  0  0  0
 11  1  1  0  0  0  0
 13  3  1  0  0  0  0
 15  4  1  0  0  0  0
 16  4  1  0  0  0  0
 17  5  1  0  0  0  0
 20  6  1  0  0  0  0
 21  7  1  0  0  0  0
 23 24  1  0  0  0  0
 23 29  1  0  0  0  0
 24 31  1  0  0  0  0
 24 30  1  0  0  0  0
 25 32  1  6  0  0  0
 25 24  1  0  0  0  0
 26 25  1  0  0  0  0
 27 25  1  0  0  0  0
 27 28  2  0  0  0  0
 33 26  1  0  0  0  0
 34 35  1  0  0  0  0
 34 45  1  0  0  0  0
 35 36  1  0  0  0  0
 36 47  1  0  0  0  0
 36 46  1  0  0  0  0
 36 37  1  0  0  0  0
 37 38  1  0  0  0  0
 37 49  1  0  0  0  0
 38 39  1  0  0  0  0
 38 50  1  1  0  0  0
 39 27  1  0  0  0  0
 40 38  1  0  0  0  0
 41 40  1  0  0  0  0
 42 40  2  0  0  0  0
 43 34  1  0  0  0  0
 44 34  1  0  0  0  0
 48 37  1  0  0  0  0
 51 39  1  0  0  0  0
M  END
$$$$
