KSN.pdb
 OpenBabel07022418523D

 48 47  0  0  1  0  0  0  0  0999 V2000
    1.3090   -3.7900    1.8240 N   0  0  0  0  0  0  0  0  0  0  0  0
    2.1910   -2.7220    1.2250 C   0  0  1  0  0  0  0  0  0  0  0  0
    3.0710   -3.4480    0.3020 C   0  0  0  0  0  0  0  0  0  0  0  0
    4.0710   -2.8400   -0.5450 C   0  0  0  0  0  0  0  0  0  0  0  0
    5.2540   -2.0890   -0.1320 C   0  0  0  0  0  0  0  0  0  0  0  0
    5.1860   -0.8180    0.6030 C   0  0  0  0  0  0  0  0  0  0  0  0
    4.6220   -0.8520    1.8960 N   0  0  0  0  0  0  0  0  0  0  0  0
    1.2890   -1.7490    0.6060 C   0  0  0  0  0  0  0  0  0  0  0  0
    1.8130   -0.7490    0.0420 O   0  0  0  0  0  0  0  0  0  0  0  0
    1.0980   -4.4810    1.0710 H   0  0  0  0  0  0  0  0  0  0  0  0
    1.8450   -4.2830    2.5740 H   0  0  0  0  0  0  0  0  0  0  0  0
    2.6340   -2.3070    2.1490 H   0  0  0  0  0  0  0  0  0  0  0  0
    2.3740   -4.1090   -0.3490 H   0  0  0  0  0  0  0  0  0  0  0  0
    3.5820   -4.2690    0.9190 H   0  0  0  0  0  0  0  0  0  0  0  0
    3.5800   -2.1720   -1.3610 H   0  0  0  0  0  0  0  0  0  0  0  0
    4.5040   -3.6900   -1.2300 H   0  0  0  0  0  0  0  0  0  0  0  0
    6.0520   -2.7820    0.3260 H   0  0  0  0  0  0  0  0  0  0  0  0
    5.8050   -1.8310   -1.1220 H   0  0  0  0  0  0  0  0  0  0  0  0
    6.2250   -0.3510    0.7210 H   0  0  0  0  0  0  0  0  0  0  0  0
    4.6820   -0.0580   -0.0620 H   0  0  0  0  0  0  0  0  0  0  0  0
    4.8420    0.0280    2.4230 H   0  0  0  0  0  0  0  0  0  0  0  0
    4.9110   -1.6450    2.4870 H   0  0  0  0  0  0  0  0  0  0  0  0
   -2.6110   -0.6840   -1.6830 O   0  0  0  0  0  0  0  0  0  0  0  0
   -1.7560   -1.6240   -1.1300 C   0  0  0  0  0  0  0  0  0  0  0  0
   -1.0330   -0.9690    0.0320 C   0  0  2  0  0  0  0  0  0  0  0  0
   -0.1080   -1.9300    0.6430 N   0  0  0  0  0  0  0  0  0  0  0  0
   -1.9330   -0.4390    1.0590 C   0  0  0  0  0  0  0  0  0  0  0  0
   -1.8460   -0.8930    2.2370 O   0  0  0  0  0  0  0  0  0  0  0  0
   -2.1220    0.0260   -2.1790 H   0  0  0  0  0  0  0  0  0  0  0  0
   -0.9930   -1.8610   -1.8990 H   0  0  0  0  0  0  0  0  0  0  0  0
   -2.3130   -2.5140   -0.8380 H   0  0  0  0  0  0  0  0  0  0  0  0
   -0.4060   -0.1620   -0.3960 H   0  0  0  0  0  0  0  0  0  0  0  0
   -0.4930   -2.7660    1.1160 H   0  0  0  0  0  0  0  0  0  0  0  0
   -3.4720    4.7640    1.0270 N   0  0  0  0  0  0  0  0  0  0  0  0
   -3.7280    3.3520    0.9880 C   0  0  0  0  0  0  0  0  0  0  0  0
   -4.1720    2.9210   -0.1000 O   0  0  0  0  0  0  0  0  0  0  0  0
   -3.4750    2.4940    2.1690 C   0  0  0  0  0  0  0  0  0  0  0  0
   -3.7760    1.0370    1.9190 C   0  0  2  0  0  0  0  0  0  0  0  0
   -2.9270    0.5740    0.8430 N   0  0  0  0  0  0  0  0  0  0  0  0
   -5.2080    0.8990    1.6200 C   0  0  0  0  0  0  0  0  0  0  0  0
   -6.1030    1.2450    2.4340 O   0  0  0  0  0  0  0  0  0  0  0  0
   -5.6960    0.3730    0.4070 O   0  0  0  0  0  0  0  0  0  0  0  0
   -2.5340    5.1020    0.6730 H   0  0  0  0  0  0  0  0  0  0  0  0
   -4.1520    5.4490    1.3800 H   0  0  0  0  0  0  0  0  0  0  0  0
   -4.1400    2.8510    2.9860 H   0  0  0  0  0  0  0  0  0  0  0  0
   -2.4050    2.5910    2.4470 H   0  0  0  0  0  0  0  0  0  0  0  0
   -3.5310    0.4690    2.8380 H   0  0  0  0  0  0  0  0  0  0  0  0
   -2.9860    0.9440   -0.1260 H   0  0  0  0  0  0  0  0  0  0  0  0
  1 11  1  0  0  0  0
  2  1  1  0  0  0  0
  2 12  1  1  0  0  0
  3 14  1  0  0  0  0
  3  2  1  0  0  0  0
  4  5  1  0  0  0  0
  4  3  1  0  0  0  0
  5 17  1  0  0  0  0
  5  6  1  0  0  0  0
  6 19  1  0  0  0  0
  6  7  1  0  0  0  0
  7 21  1  0  0  0  0
  7 22  1  0  0  0  0
  8 26  1  0  0  0  0
  8  2  1  0  0  0  0
  9  8  2  0  0  0  0
 10  1  1  0  0  0  0
 13  3  1  0  0  0  0
 15  4  1  0  0  0  0
 16  4  1  0  0  0  0
 18  5  1  0  0  0  0
 20  6  1  0  0  0  0
 23 24  1  0  0  0  0
 24 31  1  0  0  0  0
 24 25  1  0  0  0  0
 25 32  1  6  0  0  0
 25 26  1  0  0  0  0
 25 27  1  0  0  0  0
 26 33  1  0  0  0  0
 27 28  2  0  0  0  0
 29 23  1  0  0  0  0
 30 24  1  0  0  0  0
 34 44  1  0  0  0  0
 35 34  1  0  0  0  0
 35 37  1  0  0  0  0
 36 35  2  0  0  0  0
 37 46  1  0  0  0  0
 37 45  1  0  0  0  0
 38 37  1  0  0  0  0
 38 47  1  1  0  0  0
 39 27  1  0  0  0  0
 39 38  1  0  0  0  0
 40 38  1  0  0  0  0
 40 41  1  0  0  0  0
 42 40  2  0  0  0  0
 43 34  1  0  0  0  0
 48 39  1  0  0  0  0
M  END
$$$$
