KSP.pdb
 OpenBabel07022418523D

 48 48  0  0  1  0  0  0  0  0999 V2000
    1.0760   -4.1940    2.0620 N   0  0  0  0  0  0  0  0  0  0  0  0
    1.2410   -2.8430    2.5510 C   0  0  1  0  0  0  0  0  0  0  0  0
    2.7070   -2.4790    2.3230 C   0  0  0  0  0  0  0  0  0  0  0  0
    3.0100   -2.5680    0.8400 C   0  0  0  0  0  0  0  0  0  0  0  0
    4.4250   -2.2290    0.5180 C   0  0  0  0  0  0  0  0  0  0  0  0
    4.8160   -0.8350    0.9260 C   0  0  0  0  0  0  0  0  0  0  0  0
    6.2080   -0.6250    0.5620 N   0  0  0  0  0  0  0  0  0  0  0  0
    0.4480   -1.9350    1.6800 C   0  0  0  0  0  0  0  0  0  0  0  0
   -0.1910   -2.4270    0.7340 O   0  0  0  0  0  0  0  0  0  0  0  0
    0.5820   -4.1990    1.1250 H   0  0  0  0  0  0  0  0  0  0  0  0
    1.9590   -4.7300    2.0290 H   0  0  0  0  0  0  0  0  0  0  0  0
    0.9610   -2.7590    3.6030 H   0  0  0  0  0  0  0  0  0  0  0  0
    3.3370   -3.1820    2.8940 H   0  0  0  0  0  0  0  0  0  0  0  0
    2.8800   -1.4520    2.6520 H   0  0  0  0  0  0  0  0  0  0  0  0
    2.3140   -1.9110    0.3050 H   0  0  0  0  0  0  0  0  0  0  0  0
    2.8250   -3.6120    0.5390 H   0  0  0  0  0  0  0  0  0  0  0  0
    4.5540   -2.3000   -0.5760 H   0  0  0  0  0  0  0  0  0  0  0  0
    5.1160   -2.9570    0.9810 H   0  0  0  0  0  0  0  0  0  0  0  0
    4.2270   -0.1100    0.3260 H   0  0  0  0  0  0  0  0  0  0  0  0
    4.7040   -0.6840    2.0120 H   0  0  0  0  0  0  0  0  0  0  0  0
    6.7950   -1.1120    1.2750 H   0  0  0  0  0  0  0  0  0  0  0  0
    6.3490   -0.9900   -0.4000 H   0  0  0  0  0  0  0  0  0  0  0  0
    1.4490    0.6150   -0.4080 O   0  0  0  0  0  0  0  0  0  0  0  0
    0.1190    0.1890   -0.4260 C   0  0  0  0  0  0  0  0  0  0  0  0
   -0.3960    0.2900    1.0030 C   0  0  2  0  0  0  0  0  0  0  0  0
    0.3960   -0.5400    1.8910 N   0  0  0  0  0  0  0  0  0  0  0  0
   -1.8390   -0.0340    1.0930 C   0  0  0  0  0  0  0  0  0  0  0  0
   -2.1180   -1.0330    1.8570 O   0  0  0  0  0  0  0  0  0  0  0  0
    1.6070    1.2390    0.3210 H   0  0  0  0  0  0  0  0  0  0  0  0
   -0.4390    0.9320   -1.0280 H   0  0  0  0  0  0  0  0  0  0  0  0
    0.0390   -0.7990   -0.8670 H   0  0  0  0  0  0  0  0  0  0  0  0
   -0.2120    1.3450    1.2940 H   0  0  0  0  0  0  0  0  0  0  0  0
    0.9440   -0.1310    2.7040 H   0  0  0  0  0  0  0  0  0  0  0  0
   -2.8770    0.6510    0.4280 N   0  0  0  0  0  0  0  0  0  0  0  0
   -2.8070    1.7880   -0.4480 C   0  0  0  0  0  0  0  0  0  0  0  0
   -4.1600    2.4910   -0.3250 C   0  0  0  0  0  0  0  0  0  0  0  0
   -4.8860    1.6980    0.7390 C   0  0  0  0  0  0  0  0  0  0  0  0
   -4.2740    0.3080    0.5170 C   0  0  1  0  0  0  0  0  0  0  0  0
   -4.8310   -0.2010   -0.7480 C   0  0  0  0  0  0  0  0  0  0  0  0
   -4.1910   -0.3370   -1.8120 O   0  0  0  0  0  0  0  0  0  0  0  0
   -6.1700   -0.5570   -0.7550 O   0  0  0  0  0  0  0  0  0  0  0  0
   -2.6870    1.4850   -1.5020 H   0  0  0  0  0  0  0  0  0  0  0  0
   -1.9980    2.5040   -0.2050 H   0  0  0  0  0  0  0  0  0  0  0  0
   -4.0180    3.5480   -0.0560 H   0  0  0  0  0  0  0  0  0  0  0  0
   -4.7310    2.3860   -1.2700 H   0  0  0  0  0  0  0  0  0  0  0  0
   -5.9710    1.6690    0.5850 H   0  0  0  0  0  0  0  0  0  0  0  0
   -4.5930    2.0860    1.7310 H   0  0  0  0  0  0  0  0  0  0  0  0
   -4.5150   -0.3550    1.3570 H   0  0  0  0  0  0  0  0  0  0  0  0
  1  2  1  0  0  0  0
  2 12  1  1  0  0  0
  3  2  1  0  0  0  0
  3 14  1  0  0  0  0
  3 13  1  0  0  0  0
  4  3  1  0  0  0  0
  5  4  1  0  0  0  0
  5  6  1  0  0  0  0
  5 18  1  0  0  0  0
  6 20  1  0  0  0  0
  7  6  1  0  0  0  0
  7 21  1  0  0  0  0
  8 26  1  0  0  0  0
  8  2  1  0  0  0  0
  9  8  2  0  0  0  0
 10  1  1  0  0  0  0
 11  1  1  0  0  0  0
 15  4  1  0  0  0  0
 16  4  1  0  0  0  0
 17  5  1  0  0  0  0
 19  6  1  0  0  0  0
 22  7  1  0  0  0  0
 23 29  1  0  0  0  0
 24 23  1  0  0  0  0
 24 25  1  0  0  0  0
 25 27  1  0  0  0  0
 25 32  1  1  0  0  0
 25 26  1  0  0  0  0
 26 33  1  0  0  0  0
 27 28  2  0  0  0  0
 30 24  1  0  0  0  0
 31 24  1  0  0  0  0
 34 38  1  0  0  0  0
 34 27  1  0  0  0  0
 35 36  1  0  0  0  0
 35 43  1  0  0  0  0
 35 34  1  0  0  0  0
 36 44  1  0  0  0  0
 36 37  1  0  0  0  0
 37 47  1  0  0  0  0
 38 37  1  0  0  0  0
 38 48  1  1  0  0  0
 39 38  1  0  0  0  0
 40 39  2  0  0  0  0
 41 39  1  0  0  0  0
 42 35  1  0  0  0  0
 45 36  1  0  0  0  0
 46 37  1  0  0  0  0
M  END
$$$$
