KSV.pdb
 OpenBabel07022418523D

 50 49  0  0  1  0  0  0  0  0999 V2000
    0.9170   -1.1550   -1.5060 N   0  0  0  0  0  0  0  0  0  0  0  0
    1.7850   -0.2640   -0.7610 C   0  0  1  0  0  0  0  0  0  0  0  0
    2.7080    0.4950   -1.6530 C   0  0  0  0  0  0  0  0  0  0  0  0
    3.6230   -0.3650   -2.4670 C   0  0  0  0  0  0  0  0  0  0  0  0
    4.5310   -1.2380   -1.6750 C   0  0  0  0  0  0  0  0  0  0  0  0
    5.4260   -0.3830   -0.7720 C   0  0  0  0  0  0  0  0  0  0  0  0
    6.3190   -1.2200    0.0060 N   0  0  0  0  0  0  0  0  0  0  0  0
    0.9650    0.6550    0.0680 C   0  0  0  0  0  0  0  0  0  0  0  0
    1.5060    1.5330    0.8140 O   0  0  0  0  0  0  0  0  0  0  0  0
    0.2600   -0.5630   -2.0610 H   0  0  0  0  0  0  0  0  0  0  0  0
    0.3620   -1.7430   -0.8710 H   0  0  0  0  0  0  0  0  0  0  0  0
    2.4190   -0.8370   -0.0270 H   0  0  0  0  0  0  0  0  0  0  0  0
    3.3250    1.1660   -1.0140 H   0  0  0  0  0  0  0  0  0  0  0  0
    2.1130    1.1750   -2.3010 H   0  0  0  0  0  0  0  0  0  0  0  0
    2.9850   -1.0040   -3.1170 H   0  0  0  0  0  0  0  0  0  0  0  0
    4.2420    0.2520   -3.1490 H   0  0  0  0  0  0  0  0  0  0  0  0
    4.0460   -2.0060   -1.0780 H   0  0  0  0  0  0  0  0  0  0  0  0
    5.2350   -1.7510   -2.3660 H   0  0  0  0  0  0  0  0  0  0  0  0
    5.9730    0.3690   -1.3500 H   0  0  0  0  0  0  0  0  0  0  0  0
    4.8040    0.1700   -0.0310 H   0  0  0  0  0  0  0  0  0  0  0  0
    7.0490   -1.5670   -0.6550 H   0  0  0  0  0  0  0  0  0  0  0  0
    5.7850   -2.0130    0.4110 H   0  0  0  0  0  0  0  0  0  0  0  0
   -1.3600    3.2080   -0.7610 O   0  0  0  0  0  0  0  0  0  0  0  0
   -2.1310    2.4390    0.0860 C   0  0  0  0  0  0  0  0  0  0  0  0
   -1.2440    1.5320    0.9080 C   0  0  2  0  0  0  0  0  0  0  0  0
   -0.4640    0.6370    0.1010 N   0  0  0  0  0  0  0  0  0  0  0  0
   -2.0490    0.8170    1.9320 C   0  0  0  0  0  0  0  0  0  0  0  0
   -2.7810    1.4720    2.7270 O   0  0  0  0  0  0  0  0  0  0  0  0
   -1.6810    4.1290   -0.8020 H   0  0  0  0  0  0  0  0  0  0  0  0
   -2.6370    3.1230    0.8010 H   0  0  0  0  0  0  0  0  0  0  0  0
   -2.9370    1.8880   -0.4340 H   0  0  0  0  0  0  0  0  0  0  0  0
   -0.5380    2.1910    1.4560 H   0  0  0  0  0  0  0  0  0  0  0  0
   -0.9620   -0.0640   -0.4930 H   0  0  0  0  0  0  0  0  0  0  0  0
   -3.3180   -3.2370    1.6350 C   0  0  0  0  0  0  0  0  0  0  0  0
   -3.9010   -2.1540    2.4830 C   0  0  0  0  0  0  0  0  0  0  0  0
   -4.6640   -2.8010    3.6250 C   0  0  0  0  0  0  0  0  0  0  0  0
   -2.8500   -1.2490    3.0950 C   0  0  2  0  0  0  0  0  0  0  0  0
   -2.0560   -0.5920    2.0880 N   0  0  0  0  0  0  0  0  0  0  0  0
   -1.9560   -2.0520    3.9560 C   0  0  0  0  0  0  0  0  0  0  0  0
   -2.4330   -2.7020    4.9180 O   0  0  0  0  0  0  0  0  0  0  0  0
   -0.6000   -2.0910    3.7060 O   0  0  0  0  0  0  0  0  0  0  0  0
   -3.7900   -4.2150    1.8560 H   0  0  0  0  0  0  0  0  0  0  0  0
   -2.2070   -3.2780    1.7230 H   0  0  0  0  0  0  0  0  0  0  0  0
   -3.5310   -3.0150    0.5740 H   0  0  0  0  0  0  0  0  0  0  0  0
   -4.5860   -1.5210    1.8650 H   0  0  0  0  0  0  0  0  0  0  0  0
   -4.6740   -2.1850    4.5310 H   0  0  0  0  0  0  0  0  0  0  0  0
   -5.7100   -3.0430    3.3160 H   0  0  0  0  0  0  0  0  0  0  0  0
   -4.2200   -3.7910    3.9000 H   0  0  0  0  0  0  0  0  0  0  0  0
   -3.4230   -0.5170    3.7200 H   0  0  0  0  0  0  0  0  0  0  0  0
   -1.4710   -1.1720    1.4580 H   0  0  0  0  0  0  0  0  0  0  0  0
  1 11  1  0  0  0  0
  1  2  1  0  0  0  0
  2 12  1  1  0  0  0
  2  8  1  0  0  0  0
  3 13  1  0  0  0  0
  3  2  1  0  0  0  0
  4  5  1  0  0  0  0
  4  3  1  0  0  0  0
  5 17  1  0  0  0  0
  5  6  1  0  0  0  0
  6 20  1  0  0  0  0
  6  7  1  0  0  0  0
  7 22  1  0  0  0  0
  8 26  1  0  0  0  0
  8  9  2  0  0  0  0
 10  1  1  0  0  0  0
 14  3  1  0  0  0  0
 15  4  1  0  0  0  0
 16  4  1  0  0  0  0
 18  5  1  0  0  0  0
 19  6  1  0  0  0  0
 21  7  1  0  0  0  0
 23 24  1  0  0  0  0
 24 30  1  0  0  0  0
 24 25  1  0  0  0  0
 25 32  1  1  0  0  0
 25 27  1  0  0  0  0
 26 25  1  0  0  0  0
 27 38  1  0  0  0  0
 27 28  2  0  0  0  0
 29 23  1  0  0  0  0
 31 24  1  0  0  0  0
 33 26  1  0  0  0  0
 34 43  1  0  0  0  0
 34 42  1  0  0  0  0
 34 35  1  0  0  0  0
 35 37  1  0  0  0  0
 35 36  1  0  0  0  0
 36 48  1  0  0  0  0
 36 46  1  0  0  0  0
 37 49  1  1  0  0  0
 37 39  1  0  0  0  0
 38 37  1  0  0  0  0
 39 40  1  0  0  0  0
 41 39  2  0  0  0  0
 44 34  1  0  0  0  0
 45 35  1  0  0  0  0
 47 36  1  0  0  0  0
 50 38  1  0  0  0  0
M  END
$$$$
