KSW.pdb
 OpenBabel07022418523D

 58 59  0  0  1  0  0  0  0  0999 V2000
    1.6440   -0.0060   -0.0720 N   0  0  0  0  0  0  0  0  0  0  0  0
    1.8780    0.5900    1.2070 C   0  0  1  0  0  0  0  0  0  0  0  0
    3.0960    1.4510    1.2670 C   0  0  0  0  0  0  0  0  0  0  0  0
    4.3380    0.6870    0.9510 C   0  0  0  0  0  0  0  0  0  0  0  0
    5.5790    1.5890    1.0190 C   0  0  0  0  0  0  0  0  0  0  0  0
    6.7490    0.6800    0.6780 C   0  0  0  0  0  0  0  0  0  0  0  0
    6.6220    0.0980   -0.6360 N   0  0  0  0  0  0  0  0  0  0  0  0
    0.6700    1.2810    1.7410 C   0  0  0  0  0  0  0  0  0  0  0  0
    0.7350    1.8420    2.8640 O   0  0  0  0  0  0  0  0  0  0  0  0
    1.1380   -0.9080    0.0700 H   0  0  0  0  0  0  0  0  0  0  0  0
    2.4610   -0.1870   -0.6520 H   0  0  0  0  0  0  0  0  0  0  0  0
    2.0630   -0.2640    1.9240 H   0  0  0  0  0  0  0  0  0  0  0  0
    3.2150    1.9240    2.2630 H   0  0  0  0  0  0  0  0  0  0  0  0
    3.0500    2.3080    0.5440 H   0  0  0  0  0  0  0  0  0  0  0  0
    4.3530    0.2730   -0.0780 H   0  0  0  0  0  0  0  0  0  0  0  0
    4.5400   -0.1140    1.7180 H   0  0  0  0  0  0  0  0  0  0  0  0
    5.5000    2.3810    0.2440 H   0  0  0  0  0  0  0  0  0  0  0  0
    5.7460    1.9810    2.0240 H   0  0  0  0  0  0  0  0  0  0  0  0
    6.6980   -0.1630    1.4260 H   0  0  0  0  0  0  0  0  0  0  0  0
    7.7220    1.1790    0.7960 H   0  0  0  0  0  0  0  0  0  0  0  0
    6.3020   -0.8960   -0.6050 H   0  0  0  0  0  0  0  0  0  0  0  0
    6.0650    0.6840   -1.2850 H   0  0  0  0  0  0  0  0  0  0  0  0
   -2.4220    2.4800   -0.7060 O   0  0  0  0  0  0  0  0  0  0  0  0
   -2.1430    3.0710    0.5250 C   0  0  0  0  0  0  0  0  0  0  0  0
   -1.7380    1.9930    1.5270 C   0  0  2  0  0  0  0  0  0  0  0  0
   -0.5510    1.3200    1.0120 N   0  0  0  0  0  0  0  0  0  0  0  0
   -2.8570    0.9980    1.6310 C   0  0  0  0  0  0  0  0  0  0  0  0
   -3.9830    1.3560    2.0590 O   0  0  0  0  0  0  0  0  0  0  0  0
   -1.7000    2.6000   -1.3630 H   0  0  0  0  0  0  0  0  0  0  0  0
   -2.9950    3.6370    0.9350 H   0  0  0  0  0  0  0  0  0  0  0  0
   -1.2580    3.7520    0.4040 H   0  0  0  0  0  0  0  0  0  0  0  0
   -1.5340    2.4230    2.5050 H   0  0  0  0  0  0  0  0  0  0  0  0
   -0.5500    0.8380    0.0860 H   0  0  0  0  0  0  0  0  0  0  0  0
   -2.6900   -0.3570    1.2590 N   0  0  0  0  0  0  0  0  0  0  0  0
   -3.7840   -1.3330    1.3590 C   0  0  1  0  0  0  0  0  0  0  0  0
   -4.1500   -1.8340   -0.0000 C   0  0  0  0  0  0  0  0  0  0  0  0
   -3.0050   -2.4620   -0.7130 C   0  0  0  0  0  0  0  0  0  0  0  0
   -2.1880   -1.7530   -1.6080 C   0  0  0  0  0  0  0  0  0  0  0  0
   -1.2310   -2.5660   -2.0440 N   0  0  0  0  0  0  0  0  0  0  0  0
   -1.3990   -3.7730   -1.4660 C   0  0  0  0  0  0  0  0  0  0  0  0
   -0.6930   -4.9270   -1.5940 C   0  0  0  0  0  0  0  0  0  0  0  0
   -1.0630   -6.0730   -0.8990 C   0  0  0  0  0  0  0  0  0  0  0  0
   -2.1620   -6.0180   -0.0740 C   0  0  0  0  0  0  0  0  0  0  0  0
   -2.8820   -4.8420    0.0580 C   0  0  0  0  0  0  0  0  0  0  0  0
   -2.5110   -3.7240   -0.6270 C   0  0  0  0  0  0  0  0  0  0  0  0
   -3.4950   -2.4060    2.3040 C   0  0  0  0  0  0  0  0  0  0  0  0
   -2.3510   -2.5640    2.8340 O   0  0  0  0  0  0  0  0  0  0  0  0
   -4.4980   -3.2980    2.6560 O   0  0  0  0  0  0  0  0  0  0  0  0
   -1.7890   -0.6950    0.9040 H   0  0  0  0  0  0  0  0  0  0  0  0
   -4.6700   -0.7640    1.7790 H   0  0  0  0  0  0  0  0  0  0  0  0
   -4.9790   -2.5880    0.0340 H   0  0  0  0  0  0  0  0  0  0  0  0
   -4.5430   -1.0300   -0.6630 H   0  0  0  0  0  0  0  0  0  0  0  0
   -2.3430   -0.7310   -1.8680 H   0  0  0  0  0  0  0  0  0  0  0  0
   -0.4600   -2.3600   -2.7140 H   0  0  0  0  0  0  0  0  0  0  0  0
    0.1840   -4.9660   -2.2540 H   0  0  0  0  0  0  0  0  0  0  0  0
   -0.4880   -6.9870   -1.0120 H   0  0  0  0  0  0  0  0  0  0  0  0
   -2.4810   -6.8940    0.4840 H   0  0  0  0  0  0  0  0  0  0  0  0
   -3.7420   -4.8050    0.6820 H   0  0  0  0  0  0  0  0  0  0  0  0
  1 10  1  0  0  0  0
  1  2  1  0  0  0  0
  2  3  1  0  0  0  0
  2  8  1  0  0  0  0
  2 12  1  1  0  0  0
  3 13  1  0  0  0  0
  4  5  1  0  0  0  0
  4  3  1  0  0  0  0
  4 16  1  0  0  0  0
  5 18  1  0  0  0  0
  6 20  1  0  0  0  0
  6  5  1  0  0  0  0
  6 19  1  0  0  0  0
  7 21  1  0  0  0  0
  7  6  1  0  0  0  0
  8  9  2  0  0  0  0
 11  1  1  0  0  0  0
 14  3  1  0  0  0  0
 15  4  1  0  0  0  0
 17  5  1  0  0  0  0
 22  7  1  0  0  0  0
 23 24  1  0  0  0  0
 24 30  1  0  0  0  0
 24 25  1  0  0  0  0
 25 27  1  0  0  0  0
 25 32  1  1  0  0  0
 26 25  1  0  0  0  0
 26  8  1  0  0  0  0
 27 28  2  0  0  0  0
 29 23  1  0  0  0  0
 31 24  1  0  0  0  0
 33 26  1  0  0  0  0
 34 35  1  0  0  0  0
 34 27  1  0  0  0  0
 35 50  1  1  0  0  0
 35 46  1  0  0  0  0
 36 51  1  0  0  0  0
 36 35  1  0  0  0  0
 37 45  1  0  0  0  0
 37 36  1  0  0  0  0
 38 37  2  0  0  0  0
 39 38  1  0  0  0  0
 39 40  1  0  0  0  0
 40 45  1  0  0  0  0
 41 40  2  0  0  0  0
 41 42  1  0  0  0  0
 42 43  2  0  0  0  0
 43 44  1  0  0  0  0
 43 57  1  0  0  0  0
 44 58  1  0  0  0  0
 45 44  2  0  0  0  0
 46 48  2  0  0  0  0
 46 47  1  0  0  0  0
 49 34  1  0  0  0  0
 52 36  1  0  0  0  0
 53 38  1  0  0  0  0
 54 39  1  0  0  0  0
 55 41  1  0  0  0  0
 56 42  1  0  0  0  0
M  END
$$$$
