KTA.pdb
 OpenBabel07022418523D

 47 46  0  0  1  0  0  0  0  0999 V2000
   -0.3060   -1.7710   -1.3380 N   0  0  0  0  0  0  0  0  0  0  0  0
   -0.1380   -2.6790   -0.2370 C   0  0  1  0  0  0  0  0  0  0  0  0
    0.9930   -3.6020   -0.5120 C   0  0  0  0  0  0  0  0  0  0  0  0
    2.3270   -3.0060   -0.7200 C   0  0  0  0  0  0  0  0  0  0  0  0
    2.4850   -2.0510   -1.8450 C   0  0  0  0  0  0  0  0  0  0  0  0
    3.9550   -1.5990   -1.8320 C   0  0  0  0  0  0  0  0  0  0  0  0
    4.1550   -0.9690   -0.5200 N   0  0  0  0  0  0  0  0  0  0  0  0
   -0.0900   -2.0270    1.0750 C   0  0  0  0  0  0  0  0  0  0  0  0
    0.0510   -2.7650    2.0930 O   0  0  0  0  0  0  0  0  0  0  0  0
   -0.5200   -2.2560   -2.2370 H   0  0  0  0  0  0  0  0  0  0  0  0
   -0.9600   -0.9890   -1.1430 H   0  0  0  0  0  0  0  0  0  0  0  0
   -1.0720   -3.3220   -0.2310 H   0  0  0  0  0  0  0  0  0  0  0  0
    0.7150   -4.2110   -1.4130 H   0  0  0  0  0  0  0  0  0  0  0  0
    1.0650   -4.3170    0.3340 H   0  0  0  0  0  0  0  0  0  0  0  0
    3.0370   -3.8640   -0.9130 H   0  0  0  0  0  0  0  0  0  0  0  0
    2.7230   -2.5240    0.1980 H   0  0  0  0  0  0  0  0  0  0  0  0
    1.9350   -1.0900   -1.6170 H   0  0  0  0  0  0  0  0  0  0  0  0
    2.2730   -2.4400   -2.8390 H   0  0  0  0  0  0  0  0  0  0  0  0
    4.1570   -0.8580   -2.6110 H   0  0  0  0  0  0  0  0  0  0  0  0
    4.5840   -2.5060   -1.8850 H   0  0  0  0  0  0  0  0  0  0  0  0
    5.1180   -0.5290   -0.4880 H   0  0  0  0  0  0  0  0  0  0  0  0
    3.4930   -0.1780   -0.3840 H   0  0  0  0  0  0  0  0  0  0  0  0
    2.2540    0.1520    2.2160 C   0  0  0  0  0  0  0  0  0  0  0  0
    1.0210    0.9010    2.6760 C   0  0  1  0  0  0  0  0  0  0  0  0
    0.7450    1.8800    1.7190 O   0  0  0  0  0  0  0  0  0  0  0  0
   -0.1300   -0.0830    2.6480 C   0  0  2  0  0  0  0  0  0  0  0  0
   -0.1870   -0.6410    1.3110 N   0  0  0  0  0  0  0  0  0  0  0  0
   -1.3920    0.6840    2.8780 C   0  0  0  0  0  0  0  0  0  0  0  0
   -1.6020    1.2810    3.9800 O   0  0  0  0  0  0  0  0  0  0  0  0
    1.9660   -0.5920    1.4300 H   0  0  0  0  0  0  0  0  0  0  0  0
    2.7090   -0.4440    3.0370 H   0  0  0  0  0  0  0  0  0  0  0  0
    3.0260    0.8130    1.7890 H   0  0  0  0  0  0  0  0  0  0  0  0
    1.1630    1.3410    3.6840 H   0  0  0  0  0  0  0  0  0  0  0  0
    1.3470    1.8190    0.9310 H   0  0  0  0  0  0  0  0  0  0  0  0
   -0.0010   -0.8780    3.4160 H   0  0  0  0  0  0  0  0  0  0  0  0
   -0.3010   -0.0100    0.5170 H   0  0  0  0  0  0  0  0  0  0  0  0
   -3.7850    2.7050    1.1800 C   0  0  0  0  0  0  0  0  0  0  0  0
   -3.6390    1.5350    2.1270 C   0  0  2  0  0  0  0  0  0  0  0  0
   -2.4210    0.7960    1.9070 N   0  0  0  0  0  0  0  0  0  0  0  0
   -4.8390    0.6740    2.0710 C   0  0  0  0  0  0  0  0  0  0  0  0
   -4.6850   -0.5510    1.8480 O   0  0  0  0  0  0  0  0  0  0  0  0
   -6.1270    1.1440    2.2500 O   0  0  0  0  0  0  0  0  0  0  0  0
   -3.1980    3.5400    1.5780 H   0  0  0  0  0  0  0  0  0  0  0  0
   -3.5120    2.4500    0.1470 H   0  0  0  0  0  0  0  0  0  0  0  0
   -4.8630    2.9710    1.1670 H   0  0  0  0  0  0  0  0  0  0  0  0
   -3.5750    1.9600    3.1620 H   0  0  0  0  0  0  0  0  0  0  0  0
   -2.2600    0.3010    0.9790 H   0  0  0  0  0  0  0  0  0  0  0  0
  1 11  1  0  0  0  0
  1  2  1  0  0  0  0
  2 12  1  1  0  0  0
  2  8  1  0  0  0  0
  3  2  1  0  0  0  0
  3 14  1  0  0  0  0
  4  3  1  0  0  0  0
  4 16  1  0  0  0  0
  5  6  1  0  0  0  0
  5 17  1  0  0  0  0
  5  4  1  0  0  0  0
  6  7  1  0  0  0  0
  7 21  1  0  0  0  0
  7 22  1  0  0  0  0
  8 27  1  0  0  0  0
  8  9  2  0  0  0  0
 10  1  1  0  0  0  0
 13  3  1  0  0  0  0
 15  4  1  0  0  0  0
 18  5  1  0  0  0  0
 19  6  1  0  0  0  0
 20  6  1  0  0  0  0
 23 24  1  0  0  0  0
 23 31  1  0  0  0  0
 24 33  1  1  0  0  0
 25 24  1  0  0  0  0
 26 24  1  0  0  0  0
 26 28  1  0  0  0  0
 26 35  1  1  0  0  0
 27 26  1  0  0  0  0
 28 29  2  0  0  0  0
 30 23  1  0  0  0  0
 32 23  1  0  0  0  0
 34 25  1  0  0  0  0
 36 27  1  0  0  0  0
 37 43  1  0  0  0  0
 37 38  1  0  0  0  0
 38 46  1  1  0  0  0
 39 38  1  0  0  0  0
 39 28  1  0  0  0  0
 40 38  1  0  0  0  0
 40 42  1  0  0  0  0
 41 40  2  0  0  0  0
 44 37  1  0  0  0  0
 45 37  1  0  0  0  0
 47 39  1  0  0  0  0
M  END
$$$$
