KTC.pdb
 OpenBabel07022418523D

 48 47  0  0  1  0  0  0  0  0999 V2000
    1.5000   -2.3640    1.9700 N   0  0  0  0  0  0  0  0  0  0  0  0
    1.1190   -1.7950    0.7090 C   0  0  1  0  0  0  0  0  0  0  0  0
   -0.0900   -2.4430    0.1160 C   0  0  0  0  0  0  0  0  0  0  0  0
   -0.0670   -3.8770   -0.1880 C   0  0  0  0  0  0  0  0  0  0  0  0
    0.8390   -4.4650   -1.1720 C   0  0  0  0  0  0  0  0  0  0  0  0
    2.3120   -4.3890   -1.0040 C   0  0  0  0  0  0  0  0  0  0  0  0
    2.8040   -4.9840    0.2270 N   0  0  0  0  0  0  0  0  0  0  0  0
    0.7920   -0.3320    0.8340 C   0  0  0  0  0  0  0  0  0  0  0  0
    0.3950    0.1840   -0.2390 O   0  0  0  0  0  0  0  0  0  0  0  0
    0.9070   -2.0600    2.7760 H   0  0  0  0  0  0  0  0  0  0  0  0
    1.2730   -3.4050    1.9000 H   0  0  0  0  0  0  0  0  0  0  0  0
    1.9600   -1.8220    0.0100 H   0  0  0  0  0  0  0  0  0  0  0  0
   -0.4090   -1.9000   -0.8260 H   0  0  0  0  0  0  0  0  0  0  0  0
   -0.9670   -2.2540    0.8110 H   0  0  0  0  0  0  0  0  0  0  0  0
   -0.0150   -4.4980    0.7690 H   0  0  0  0  0  0  0  0  0  0  0  0
   -1.1320   -4.1360   -0.5460 H   0  0  0  0  0  0  0  0  0  0  0  0
    0.6120   -4.1220   -2.2360 H   0  0  0  0  0  0  0  0  0  0  0  0
    0.6150   -5.5880   -1.2770 H   0  0  0  0  0  0  0  0  0  0  0  0
    2.7390   -5.0580   -1.8620 H   0  0  0  0  0  0  0  0  0  0  0  0
    2.8130   -3.4520   -1.1860 H   0  0  0  0  0  0  0  0  0  0  0  0
    3.2520   -4.2460    0.8400 H   0  0  0  0  0  0  0  0  0  0  0  0
    3.5570   -5.6650    0.0260 H   0  0  0  0  0  0  0  0  0  0  0  0
    2.9480    2.4640    1.9580 C   0  0  0  0  0  0  0  0  0  0  0  0
    1.5760    2.6350    1.2890 C   0  0  1  0  0  0  0  0  0  0  0  0
    1.7470    2.3330   -0.0310 O   0  0  0  0  0  0  0  0  0  0  0  0
    0.5600    1.8220    2.0180 C   0  0  2  0  0  0  0  0  0  0  0  0
    0.9020    0.4250    1.9970 N   0  0  0  0  0  0  0  0  0  0  0  0
   -0.8410    2.1110    1.6250 C   0  0  0  0  0  0  0  0  0  0  0  0
   -1.1790    3.3310    1.4700 O   0  0  0  0  0  0  0  0  0  0  0  0
    3.4240    1.5370    1.5730 H   0  0  0  0  0  0  0  0  0  0  0  0
    3.5950    3.3070    1.6550 H   0  0  0  0  0  0  0  0  0  0  0  0
    2.8620    2.4950    3.0550 H   0  0  0  0  0  0  0  0  0  0  0  0
    1.3490    3.7220    1.4260 H   0  0  0  0  0  0  0  0  0  0  0  0
    2.4630    2.8980   -0.3920 H   0  0  0  0  0  0  0  0  0  0  0  0
    0.6680    2.1070    3.1360 H   0  0  0  0  0  0  0  0  0  0  0  0
    1.2490   -0.0890    2.8480 H   0  0  0  0  0  0  0  0  0  0  0  0
   -1.8170    1.1180    1.4150 N   0  0  0  0  0  0  0  0  0  0  0  0
   -3.1850    1.4260    1.0240 C   0  0  1  0  0  0  0  0  0  0  0  0
   -3.5140    0.7800   -0.3200 C   0  0  0  0  0  0  0  0  0  0  0  0
   -2.4080    1.3800   -1.6280 S   0  0  0  0  0  0  0  0  0  0  0  0
   -4.0900    0.8310    2.0290 C   0  0  0  0  0  0  0  0  0  0  0  0
   -3.6140    0.2000    2.9940 O   0  0  0  0  0  0  0  0  0  0  0  0
   -5.4720    0.9460    1.9430 O   0  0  0  0  0  0  0  0  0  0  0  0
   -1.5650    0.1180    1.5570 H   0  0  0  0  0  0  0  0  0  0  0  0
   -3.3550    2.5040    0.9160 H   0  0  0  0  0  0  0  0  0  0  0  0
   -3.5080   -0.3250   -0.2430 H   0  0  0  0  0  0  0  0  0  0  0  0
   -4.5410    1.0750   -0.6150 H   0  0  0  0  0  0  0  0  0  0  0  0
   -2.4060    0.4320   -2.6680 H   0  0  0  0  0  0  0  0  0  0  0  0
  1 10  1  0  0  0  0
  2 12  1  6  0  0  0
  2  8  1  0  0  0  0
  2  1  1  0  0  0  0
  3  2  1  0  0  0  0
  3 14  1  0  0  0  0
  4  3  1  0  0  0  0
  4 15  1  0  0  0  0
  5  6  1  0  0  0  0
  5  4  1  0  0  0  0
  6  7  1  0  0  0  0
  7 21  1  0  0  0  0
  8 27  1  0  0  0  0
  9  8  2  0  0  0  0
 11  1  1  0  0  0  0
 13  3  1  0  0  0  0
 16  4  1  0  0  0  0
 17  5  1  0  0  0  0
 18  5  1  0  0  0  0
 19  6  1  0  0  0  0
 20  6  1  0  0  0  0
 22  7  1  0  0  0  0
 23 32  1  0  0  0  0
 24 33  1  1  0  0  0
 24 23  1  0  0  0  0
 24 26  1  0  0  0  0
 25 24  1  0  0  0  0
 26 35  1  1  0  0  0
 27 26  1  0  0  0  0
 27 36  1  0  0  0  0
 28 26  1  0  0  0  0
 29 28  2  0  0  0  0
 30 23  1  0  0  0  0
 31 23  1  0  0  0  0
 34 25  1  0  0  0  0
 37 44  1  0  0  0  0
 37 28  1  0  0  0  0
 38 45  1  6  0  0  0
 38 37  1  0  0  0  0
 38 41  1  0  0  0  0
 39 46  1  0  0  0  0
 39 38  1  0  0  0  0
 40 39  1  0  0  0  0
 41 42  1  0  0  0  0
 43 41  2  0  0  0  0
 47 39  1  0  0  0  0
 48 40  1  0  0  0  0
M  END
$$$$
