KTD.pdb
 OpenBabel07022418523D

 50 49  0  0  1  0  0  0  0  0999 V2000
    1.4270   -1.2160    3.8600 N   0  0  0  0  0  0  0  0  0  0  0  0
    1.2460   -0.8370    2.4740 C   0  0  1  0  0  0  0  0  0  0  0  0
    0.9830   -2.0240    1.5860 C   0  0  0  0  0  0  0  0  0  0  0  0
    2.1020   -3.0260    1.6000 C   0  0  0  0  0  0  0  0  0  0  0  0
    3.4120   -2.4340    1.1370 C   0  0  0  0  0  0  0  0  0  0  0  0
    4.5100   -3.5040    1.1810 C   0  0  0  0  0  0  0  0  0  0  0  0
    4.6990   -4.0230    2.5180 N   0  0  0  0  0  0  0  0  0  0  0  0
    0.1970    0.1840    2.3890 C   0  0  0  0  0  0  0  0  0  0  0  0
   -0.3850    0.5850    3.4240 O   0  0  0  0  0  0  0  0  0  0  0  0
    0.5160   -1.2970    4.3570 H   0  0  0  0  0  0  0  0  0  0  0  0
    2.0380   -2.0560    3.9850 H   0  0  0  0  0  0  0  0  0  0  0  0
    2.2100   -0.3380    2.1660 H   0  0  0  0  0  0  0  0  0  0  0  0
    0.6870   -1.7520    0.5700 H   0  0  0  0  0  0  0  0  0  0  0  0
    0.0930   -2.5520    2.0270 H   0  0  0  0  0  0  0  0  0  0  0  0
    1.8200   -3.8480    0.8990 H   0  0  0  0  0  0  0  0  0  0  0  0
    2.2480   -3.5060    2.5740 H   0  0  0  0  0  0  0  0  0  0  0  0
    3.3200   -2.1240    0.0710 H   0  0  0  0  0  0  0  0  0  0  0  0
    3.7550   -1.6020    1.7560 H   0  0  0  0  0  0  0  0  0  0  0  0
    5.4620   -2.9590    0.9250 H   0  0  0  0  0  0  0  0  0  0  0  0
    4.3420   -4.2710    0.4260 H   0  0  0  0  0  0  0  0  0  0  0  0
    4.6500   -3.2180    3.1830 H   0  0  0  0  0  0  0  0  0  0  0  0
    3.9260   -4.7230    2.7440 H   0  0  0  0  0  0  0  0  0  0  0  0
    0.5420    3.4770    1.0790 C   0  0  0  0  0  0  0  0  0  0  0  0
   -0.7140    2.9770    0.3610 C   0  0  1  0  0  0  0  0  0  0  0  0
   -0.3460    2.5470   -0.9110 O   0  0  0  0  0  0  0  0  0  0  0  0
   -1.2620    1.7820    1.1000 C   0  0  2  0  0  0  0  0  0  0  0  0
   -0.2270    0.7790    1.1670 N   0  0  0  0  0  0  0  0  0  0  0  0
   -2.4400    1.2890    0.3220 C   0  0  0  0  0  0  0  0  0  0  0  0
   -3.4310    2.0320    0.1380 O   0  0  0  0  0  0  0  0  0  0  0  0
    0.2750    4.0340    1.9770 H   0  0  0  0  0  0  0  0  0  0  0  0
    1.1110    2.5630    1.3370 H   0  0  0  0  0  0  0  0  0  0  0  0
    1.1380    4.0860    0.3460 H   0  0  0  0  0  0  0  0  0  0  0  0
   -1.4570    3.7960    0.2790 H   0  0  0  0  0  0  0  0  0  0  0  0
    0.5980    2.1940   -0.9100 H   0  0  0  0  0  0  0  0  0  0  0  0
   -1.6220    2.0500    2.1320 H   0  0  0  0  0  0  0  0  0  0  0  0
    0.2350    0.4670    0.2990 H   0  0  0  0  0  0  0  0  0  0  0  0
   -2.4110   -0.0220   -0.1940 N   0  0  0  0  0  0  0  0  0  0  0  0
   -3.5000   -0.6180   -0.9700 C   0  0  1  0  0  0  0  0  0  0  0  0
   -2.8860   -1.1540   -2.2320 C   0  0  0  0  0  0  0  0  0  0  0  0
   -2.2250   -0.1510   -3.0690 C   0  0  0  0  0  0  0  0  0  0  0  0
   -2.8280    0.8990   -3.4250 O   0  0  0  0  0  0  0  0  0  0  0  0
   -3.9810   -1.8100   -0.1950 C   0  0  0  0  0  0  0  0  0  0  0  0
   -4.9270   -2.4660   -0.6900 O   0  0  0  0  0  0  0  0  0  0  0  0
   -0.9100   -0.3380   -3.4860 O   0  0  0  0  0  0  0  0  0  0  0  0
   -3.4340   -2.1900    1.0010 O   0  0  0  0  0  0  0  0  0  0  0  0
   -1.5800   -0.6150   -0.0220 H   0  0  0  0  0  0  0  0  0  0  0  0
   -4.2940    0.1030   -1.1090 H   0  0  0  0  0  0  0  0  0  0  0  0
   -3.7170   -1.6400   -2.8170 H   0  0  0  0  0  0  0  0  0  0  0  0
   -2.1970   -1.9890   -1.9810 H   0  0  0  0  0  0  0  0  0  0  0  0
   -0.5710    0.0560   -4.3650 H   0  0  0  0  0  0  0  0  0  0  0  0
  1 11  1  0  0  0  0
  1 10  1  0  0  0  0
  2 12  1  6  0  0  0
  2  1  1  0  0  0  0
  3  4  1  0  0  0  0
  3 14  1  0  0  0  0
  3  2  1  0  0  0  0
  4 16  1  0  0  0  0
  5  6  1  0  0  0  0
  5  4  1  0  0  0  0
  5 18  1  0  0  0  0
  6  7  1  0  0  0  0
  7 22  1  0  0  0  0
  7 21  1  0  0  0  0
  8  2  1  0  0  0  0
  8  9  2  0  0  0  0
 13  3  1  0  0  0  0
 15  4  1  0  0  0  0
 17  5  1  0  0  0  0
 19  6  1  0  0  0  0
 20  6  1  0  0  0  0
 23 31  1  0  0  0  0
 23 30  1  0  0  0  0
 24 33  1  6  0  0  0
 24 23  1  0  0  0  0
 24 26  1  0  0  0  0
 25 34  1  0  0  0  0
 25 24  1  0  0  0  0
 26 27  1  0  0  0  0
 26 35  1  1  0  0  0
 27  8  1  0  0  0  0
 28 26  1  0  0  0  0
 29 28  2  0  0  0  0
 32 23  1  0  0  0  0
 36 27  1  0  0  0  0
 37 46  1  0  0  0  0
 37 28  1  0  0  0  0
 38 47  1  6  0  0  0
 38 42  1  0  0  0  0
 38 37  1  0  0  0  0
 39 49  1  0  0  0  0
 39 38  1  0  0  0  0
 40 39  1  0  0  0  0
 41 40  2  0  0  0  0
 42 45  1  0  0  0  0
 43 42  2  0  0  0  0
 44 40  1  0  0  0  0
 48 39  1  0  0  0  0
 50 44  1  0  0  0  0
M  END
$$$$
