KTE.pdb
 OpenBabel07022418523D

 53 52  0  0  1  0  0  0  0  0999 V2000
   -0.0250    0.6860    3.8890 N   0  0  0  0  0  0  0  0  0  0  0  0
    0.5590    0.3960    2.5970 C   0  0  1  0  0  0  0  0  0  0  0  0
    0.5970   -1.1030    2.4210 C   0  0  0  0  0  0  0  0  0  0  0  0
    1.4060   -1.7990    3.4680 C   0  0  0  0  0  0  0  0  0  0  0  0
    2.8260   -1.3390    3.4580 C   0  0  0  0  0  0  0  0  0  0  0  0
    3.6360   -2.0580    4.5240 C   0  0  0  0  0  0  0  0  0  0  0  0
    3.6420   -3.4900    4.3240 N   0  0  0  0  0  0  0  0  0  0  0  0
   -0.2710    1.0440    1.5450 C   0  0  0  0  0  0  0  0  0  0  0  0
   -1.3050    1.7250    1.8170 O   0  0  0  0  0  0  0  0  0  0  0  0
   -0.8390    1.3250    3.7680 H   0  0  0  0  0  0  0  0  0  0  0  0
   -0.3230   -0.1380    4.4180 H   0  0  0  0  0  0  0  0  0  0  0  0
    1.5850    0.8300    2.6090 H   0  0  0  0  0  0  0  0  0  0  0  0
   -0.4190   -1.4900    2.3140 H   0  0  0  0  0  0  0  0  0  0  0  0
    1.1270   -1.2790    1.4410 H   0  0  0  0  0  0  0  0  0  0  0  0
    0.9370   -1.7390    4.4770 H   0  0  0  0  0  0  0  0  0  0  0  0
    1.4080   -2.8860    3.2100 H   0  0  0  0  0  0  0  0  0  0  0  0
    2.9080   -0.2510    3.7040 H   0  0  0  0  0  0  0  0  0  0  0  0
    3.2710   -1.5940    2.4820 H   0  0  0  0  0  0  0  0  0  0  0  0
    4.6700   -1.6910    4.4610 H   0  0  0  0  0  0  0  0  0  0  0  0
    3.2100   -1.8270    5.5130 H   0  0  0  0  0  0  0  0  0  0  0  0
    4.2050   -3.7770    3.5060 H   0  0  0  0  0  0  0  0  0  0  0  0
    2.7140   -3.9220    4.4010 H   0  0  0  0  0  0  0  0  0  0  0  0
    1.3160    2.1500   -2.2340 C   0  0  0  0  0  0  0  0  0  0  0  0
    0.0380    2.6230   -1.6160 C   0  0  1  0  0  0  0  0  0  0  0  0
   -0.7540    3.1790   -2.6150 O   0  0  0  0  0  0  0  0  0  0  0  0
   -0.7170    1.5450   -0.8940 C   0  0  2  0  0  0  0  0  0  0  0  0
    0.0580    0.9320    0.1580 N   0  0  0  0  0  0  0  0  0  0  0  0
   -1.2760    0.5130   -1.7720 C   0  0  0  0  0  0  0  0  0  0  0  0
   -1.9780    0.7600   -2.7820 O   0  0  0  0  0  0  0  0  0  0  0  0
    1.1520    1.3300   -2.9700 H   0  0  0  0  0  0  0  0  0  0  0  0
    2.0910    1.8780   -1.4810 H   0  0  0  0  0  0  0  0  0  0  0  0
    1.7430    2.9980   -2.8090 H   0  0  0  0  0  0  0  0  0  0  0  0
    0.2830    3.4110   -0.8860 H   0  0  0  0  0  0  0  0  0  0  0  0
   -1.6270    3.4670   -2.2960 H   0  0  0  0  0  0  0  0  0  0  0  0
   -1.5740    2.0690   -0.3750 H   0  0  0  0  0  0  0  0  0  0  0  0
    0.9260    0.3580   -0.0510 H   0  0  0  0  0  0  0  0  0  0  0  0
   -1.0070   -0.8620   -1.4670 N   0  0  0  0  0  0  0  0  0  0  0  0
   -1.4600   -1.9750   -2.2280 C   0  0  1  0  0  0  0  0  0  0  0  0
   -2.7860   -2.4790   -1.8700 C   0  0  0  0  0  0  0  0  0  0  0  0
   -2.9800   -2.9850   -0.5030 C   0  0  0  0  0  0  0  0  0  0  0  0
   -2.8660   -2.0770    0.6290 C   0  0  0  0  0  0  0  0  0  0  0  0
   -2.7510   -0.8370    0.6260 O   0  0  0  0  0  0  0  0  0  0  0  0
   -1.2620   -1.8280   -3.7080 C   0  0  0  0  0  0  0  0  0  0  0  0
   -0.6440   -0.8440   -4.1370 O   0  0  0  0  0  0  0  0  0  0  0  0
   -2.8850   -2.6360    1.9380 O   0  0  0  0  0  0  0  0  0  0  0  0
   -1.7520   -2.7610   -4.6020 O   0  0  0  0  0  0  0  0  0  0  0  0
   -0.4030   -1.0880   -0.6030 H   0  0  0  0  0  0  0  0  0  0  0  0
   -0.7250   -2.8650   -2.0160 H   0  0  0  0  0  0  0  0  0  0  0  0
   -3.5590   -1.6610   -2.0690 H   0  0  0  0  0  0  0  0  0  0  0  0
   -3.0850   -3.2640   -2.6440 H   0  0  0  0  0  0  0  0  0  0  0  0
   -2.3610   -3.9260   -0.3400 H   0  0  0  0  0  0  0  0  0  0  0  0
   -4.0470   -3.4010   -0.4590 H   0  0  0  0  0  0  0  0  0  0  0  0
   -3.2460   -2.0780    2.7100 H   0  0  0  0  0  0  0  0  0  0  0  0
  1 11  1  0  0  0  0
  2 12  1  6  0  0  0
  2  1  1  0  0  0  0
  3  2  1  0  0  0  0
  3  4  1  0  0  0  0
  4 15  1  0  0  0  0
  5  4  1  0  0  0  0
  5 17  1  0  0  0  0
  5  6  1  0  0  0  0
  6 20  1  0  0  0  0
  7 22  1  0  0  0  0
  7  6  1  0  0  0  0
  8  9  2  0  0  0  0
  8  2  1  0  0  0  0
 10  1  1  0  0  0  0
 13  3  1  0  0  0  0
 14  3  1  0  0  0  0
 16  4  1  0  0  0  0
 18  5  1  0  0  0  0
 19  6  1  0  0  0  0
 21  7  1  0  0  0  0
 23 24  1  0  0  0  0
 23 31  1  0  0  0  0
 24 26  1  0  0  0  0
 24 33  1  1  0  0  0
 25 34  1  0  0  0  0
 25 24  1  0  0  0  0
 26 35  1  1  0  0  0
 26 27  1  0  0  0  0
 27  8  1  0  0  0  0
 28 37  1  0  0  0  0
 28 26  1  0  0  0  0
 29 28  2  0  0  0  0
 30 23  1  0  0  0  0
 32 23  1  0  0  0  0
 36 27  1  0  0  0  0
 37 47  1  0  0  0  0
 38 48  1  1  0  0  0
 38 39  1  0  0  0  0
 38 37  1  0  0  0  0
 39 40  1  0  0  0  0
 40 52  1  0  0  0  0
 40 51  1  0  0  0  0
 40 41  1  0  0  0  0
 41 45  1  0  0  0  0
 42 41  2  0  0  0  0
 43 38  1  0  0  0  0
 44 43  1  0  0  0  0
 45 53  1  0  0  0  0
 46 43  2  0  0  0  0
 49 39  1  0  0  0  0
 50 39  1  0  0  0  0
M  END
$$$$
