KTG.pdb
 OpenBabel07022418523D

 44 43  0  0  1  0  0  0  0  0999 V2000
    0.8730   -3.1250    4.0300 N   0  0  0  0  0  0  0  0  0  0  0  0
    0.9850   -2.7720    2.5600 C   0  0  1  0  0  0  0  0  0  0  0  0
    0.1040   -3.7640    1.9250 C   0  0  0  0  0  0  0  0  0  0  0  0
   -0.1230   -3.8210    0.4870 C   0  0  0  0  0  0  0  0  0  0  0  0
   -0.7710   -2.6820   -0.2000 C   0  0  0  0  0  0  0  0  0  0  0  0
   -2.1590   -2.3740    0.3310 C   0  0  0  0  0  0  0  0  0  0  0  0
   -2.6810   -1.2490   -0.4190 N   0  0  0  0  0  0  0  0  0  0  0  0
    0.7030   -1.3580    2.4410 C   0  0  0  0  0  0  0  0  0  0  0  0
   -0.1720   -0.8200    3.1720 O   0  0  0  0  0  0  0  0  0  0  0  0
    1.2760   -2.3070    4.5630 H   0  0  0  0  0  0  0  0  0  0  0  0
   -0.1650   -3.0800    4.2220 H   0  0  0  0  0  0  0  0  0  0  0  0
    2.0780   -2.9320    2.3700 H   0  0  0  0  0  0  0  0  0  0  0  0
    0.5240   -4.7860    2.2330 H   0  0  0  0  0  0  0  0  0  0  0  0
   -0.8880   -3.7390    2.4850 H   0  0  0  0  0  0  0  0  0  0  0  0
   -0.7880   -4.7240    0.2860 H   0  0  0  0  0  0  0  0  0  0  0  0
    0.8080   -4.0740   -0.0820 H   0  0  0  0  0  0  0  0  0  0  0  0
   -0.1910   -1.7830   -0.1950 H   0  0  0  0  0  0  0  0  0  0  0  0
   -0.9330   -2.9720   -1.2720 H   0  0  0  0  0  0  0  0  0  0  0  0
   -2.1350   -2.0720    1.3890 H   0  0  0  0  0  0  0  0  0  0  0  0
   -2.8400   -3.2280    0.1470 H   0  0  0  0  0  0  0  0  0  0  0  0
   -3.5680   -1.4840   -0.9230 H   0  0  0  0  0  0  0  0  0  0  0  0
   -2.0060   -0.9060   -1.1090 H   0  0  0  0  0  0  0  0  0  0  0  0
    1.7700    3.1500    2.3320 C   0  0  0  0  0  0  0  0  0  0  0  0
    2.1130    1.6800    2.2480 C   0  0  1  0  0  0  0  0  0  0  0  0
    2.0580    1.1800    3.5540 O   0  0  0  0  0  0  0  0  0  0  0  0
    1.0440    0.9180    1.4660 C   0  0  2  0  0  0  0  0  0  0  0  0
    1.3760   -0.4920    1.5240 N   0  0  0  0  0  0  0  0  0  0  0  0
    0.8560    1.4540    0.1260 C   0  0  0  0  0  0  0  0  0  0  0  0
    0.4870    2.6730   -0.0070 O   0  0  0  0  0  0  0  0  0  0  0  0
    2.3310    3.5860    3.1990 H   0  0  0  0  0  0  0  0  0  0  0  0
    2.0860    3.6370    1.3990 H   0  0  0  0  0  0  0  0  0  0  0  0
    0.6760    3.2710    2.5100 H   0  0  0  0  0  0  0  0  0  0  0  0
    3.1170    1.5200    1.8660 H   0  0  0  0  0  0  0  0  0  0  0  0
    1.3680    1.6780    4.0440 H   0  0  0  0  0  0  0  0  0  0  0  0
    0.1210    1.0660    2.0620 H   0  0  0  0  0  0  0  0  0  0  0  0
    2.1200   -0.8530    0.8750 H   0  0  0  0  0  0  0  0  0  0  0  0
    1.0400    0.7590   -1.1000 N   0  0  0  0  0  0  0  0  0  0  0  0
    0.8230    1.3810   -2.3890 C   0  0  0  0  0  0  0  0  0  0  0  0
   -0.5480    1.8650   -2.5690 C   0  0  0  0  0  0  0  0  0  0  0  0
   -1.4340    1.7450   -1.6860 O   0  0  0  0  0  0  0  0  0  0  0  0
   -0.9170    2.4860   -3.7520 O   0  0  0  0  0  0  0  0  0  0  0  0
    1.3440   -0.2180   -1.0520 H   0  0  0  0  0  0  0  0  0  0  0  0
    1.1880    0.7100   -3.1760 H   0  0  0  0  0  0  0  0  0  0  0  0
    1.5120    2.2770   -2.4070 H   0  0  0  0  0  0  0  0  0  0  0  0
  1 11  1  0  0  0  0
  1 10  1  0  0  0  0
  2 12  1  6  0  0  0
  2  1  1  0  0  0  0
  3 13  1  0  0  0  0
  3 14  1  0  0  0  0
  3  2  1  0  0  0  0
  4  3  1  0  0  0  0
  5 17  1  0  0  0  0
  5  6  1  0  0  0  0
  5  4  1  0  0  0  0
  6 19  1  0  0  0  0
  7  6  1  0  0  0  0
  8  2  1  0  0  0  0
  8  9  2  0  0  0  0
 15  4  1  0  0  0  0
 16  4  1  0  0  0  0
 18  5  1  0  0  0  0
 20  6  1  0  0  0  0
 21  7  1  0  0  0  0
 22  7  1  0  0  0  0
 23 32  1  0  0  0  0
 23 30  1  0  0  0  0
 24 33  1  6  0  0  0
 24 23  1  0  0  0  0
 24 25  1  0  0  0  0
 25 34  1  0  0  0  0
 26 27  1  0  0  0  0
 26 35  1  1  0  0  0
 26 24  1  0  0  0  0
 27  8  1  0  0  0  0
 28 26  1  0  0  0  0
 29 28  2  0  0  0  0
 31 23  1  0  0  0  0
 36 27  1  0  0  0  0
 37 42  1  0  0  0  0
 37 28  1  0  0  0  0
 38 37  1  0  0  0  0
 39 38  1  0  0  0  0
 39 40  1  0  0  0  0
 41 39  2  0  0  0  0
 43 38  1  0  0  0  0
 44 38  1  0  0  0  0
M  END
$$$$
