KTH.pdb
 OpenBabel07022418523D

 54 54  0  0  1  0  0  0  0  0999 V2000
    1.9980    3.0640    2.7950 N   0  0  0  0  0  0  0  0  0  0  0  0
    1.7210    1.7740    2.1750 C   0  0  1  0  0  0  0  0  0  0  0  0
    1.6400    0.7390    3.2650 C   0  0  0  0  0  0  0  0  0  0  0  0
    1.3410   -0.6360    2.7340 C   0  0  0  0  0  0  0  0  0  0  0  0
    1.2920   -1.6590    3.8590 C   0  0  0  0  0  0  0  0  0  0  0  0
    0.2340   -1.3320    4.8860 C   0  0  0  0  0  0  0  0  0  0  0  0
   -1.0800   -1.2890    4.3290 N   0  0  0  0  0  0  0  0  0  0  0  0
    0.4500    1.7930    1.4180 C   0  0  0  0  0  0  0  0  0  0  0  0
   -0.4540    2.6410    1.6500 O   0  0  0  0  0  0  0  0  0  0  0  0
    2.4210    2.9770    3.7370 H   0  0  0  0  0  0  0  0  0  0  0  0
    2.5260    3.6820    2.1460 H   0  0  0  0  0  0  0  0  0  0  0  0
    2.5780    1.5150    1.5280 H   0  0  0  0  0  0  0  0  0  0  0  0
    0.8240    1.0580    3.9480 H   0  0  0  0  0  0  0  0  0  0  0  0
    2.6100    0.6790    3.8150 H   0  0  0  0  0  0  0  0  0  0  0  0
    0.2810   -0.6270    2.3390 H   0  0  0  0  0  0  0  0  0  0  0  0
    2.0740   -0.9770    2.0030 H   0  0  0  0  0  0  0  0  0  0  0  0
    2.2880   -1.8040    4.3230 H   0  0  0  0  0  0  0  0  0  0  0  0
    1.0140   -2.6350    3.4050 H   0  0  0  0  0  0  0  0  0  0  0  0
    0.4340   -0.3630    5.3960 H   0  0  0  0  0  0  0  0  0  0  0  0
    0.2960   -2.1190    5.6640 H   0  0  0  0  0  0  0  0  0  0  0  0
   -1.6280   -0.4470    4.6130 H   0  0  0  0  0  0  0  0  0  0  0  0
   -1.5940   -2.1510    4.6120 H   0  0  0  0  0  0  0  0  0  0  0  0
   -0.4450    2.9480   -1.4630 C   0  0  0  0  0  0  0  0  0  0  0  0
   -0.6780    1.4960   -1.7190 C   0  0  1  0  0  0  0  0  0  0  0  0
    0.3540    0.9300   -2.4200 O   0  0  0  0  0  0  0  0  0  0  0  0
   -0.9630    0.7710   -0.3990 C   0  0  2  0  0  0  0  0  0  0  0  0
    0.2340    0.8360    0.3960 N   0  0  0  0  0  0  0  0  0  0  0  0
   -1.5110   -0.5490   -0.6480 C   0  0  0  0  0  0  0  0  0  0  0  0
   -2.6030   -0.6540   -1.3120 O   0  0  0  0  0  0  0  0  0  0  0  0
    0.4810    3.1530   -0.8950 H   0  0  0  0  0  0  0  0  0  0  0  0
   -1.3400    3.4070   -1.0130 H   0  0  0  0  0  0  0  0  0  0  0  0
   -0.3070    3.4420   -2.4650 H   0  0  0  0  0  0  0  0  0  0  0  0
   -1.6100    1.4010   -2.3090 H   0  0  0  0  0  0  0  0  0  0  0  0
    1.2340    1.3520   -2.2600 H   0  0  0  0  0  0  0  0  0  0  0  0
   -1.7170    1.4450    0.0990 H   0  0  0  0  0  0  0  0  0  0  0  0
    0.9820    0.1470    0.2050 H   0  0  0  0  0  0  0  0  0  0  0  0
   -0.9690   -1.7920   -0.2340 N   0  0  0  0  0  0  0  0  0  0  0  0
   -1.6110   -3.0760   -0.5450 C   0  0  1  0  0  0  0  0  0  0  0  0
   -0.6920   -3.9270   -1.3980 C   0  0  0  0  0  0  0  0  0  0  0  0
   -0.3640   -3.2510   -2.6780 C   0  0  0  0  0  0  0  0  0  0  0  0
   -1.0480   -3.3370   -3.8710 C   0  0  0  0  0  0  0  0  0  0  0  0
   -0.4340   -2.5760   -4.7910 N   0  0  0  0  0  0  0  0  0  0  0  0
    0.6280   -2.0090   -4.2020 C   0  0  0  0  0  0  0  0  0  0  0  0
    0.6650   -2.4210   -2.9240 N   0  0  0  0  0  0  0  0  0  0  0  0
   -2.0230   -3.7520    0.6860 C   0  0  0  0  0  0  0  0  0  0  0  0
   -2.5930   -4.8710    0.6380 O   0  0  0  0  0  0  0  0  0  0  0  0
   -1.8060   -3.1970    1.9360 O   0  0  0  0  0  0  0  0  0  0  0  0
   -0.0800   -1.7640    0.3050 H   0  0  0  0  0  0  0  0  0  0  0  0
   -2.5050   -2.8400   -1.1560 H   0  0  0  0  0  0  0  0  0  0  0  0
    0.2440   -4.0610   -0.7910 H   0  0  0  0  0  0  0  0  0  0  0  0
   -1.0860   -4.9280   -1.5750 H   0  0  0  0  0  0  0  0  0  0  0  0
   -1.9500   -3.9440   -4.0090 H   0  0  0  0  0  0  0  0  0  0  0  0
   -0.7560   -2.4700   -5.7790 H   0  0  0  0  0  0  0  0  0  0  0  0
    1.3430   -1.3240   -4.6810 H   0  0  0  0  0  0  0  0  0  0  0  0
  1 10  1  0  0  0  0
  2 12  1  6  0  0  0
  2  1  1  0  0  0  0
  2  3  1  0  0  0  0
  3 14  1  0  0  0  0
  3 13  1  0  0  0  0
  4  3  1  0  0  0  0
  4  5  1  0  0  0  0
  5 17  1  0  0  0  0
  5  6  1  0  0  0  0
  6 19  1  0  0  0  0
  6 20  1  0  0  0  0
  7 22  1  0  0  0  0
  7 21  1  0  0  0  0
  7  6  1  0  0  0  0
  8  9  2  0  0  0  0
  8  2  1  0  0  0  0
 11  1  1  0  0  0  0
 15  4  1  0  0  0  0
 16  4  1  0  0  0  0
 18  5  1  0  0  0  0
 23 31  1  0  0  0  0
 23 30  1  0  0  0  0
 24 33  1  6  0  0  0
 24 23  1  0  0  0  0
 24 26  1  0  0  0  0
 25 34  1  0  0  0  0
 25 24  1  0  0  0  0
 26 35  1  1  0  0  0
 26 27  1  0  0  0  0
 27  8  1  0  0  0  0
 28 26  1  0  0  0  0
 28 37  1  0  0  0  0
 29 28  2  0  0  0  0
 32 23  1  0  0  0  0
 36 27  1  0  0  0  0
 37 48  1  0  0  0  0
 38 49  1  6  0  0  0
 38 37  1  0  0  0  0
 38 45  1  0  0  0  0
 39 50  1  0  0  0  0
 39 38  1  0  0  0  0
 40 39  1  0  0  0  0
 41 40  2  0  0  0  0
 42 43  1  0  0  0  0
 42 41  1  0  0  0  0
 43 44  2  0  0  0  0
 44 40  1  0  0  0  0
 45 47  1  0  0  0  0
 46 45  2  0  0  0  0
 51 39  1  0  0  0  0
 52 41  1  0  0  0  0
 53 42  1  0  0  0  0
 54 43  1  0  0  0  0
M  END
$$$$
