KTI.pdb
 OpenBabel07022418523D

 56 55  0  0  1  0  0  0  0  0999 V2000
    0.1750   -3.0400    1.8780 N   0  0  0  0  0  0  0  0  0  0  0  0
    1.0410   -1.9840    2.5340 C   0  0  1  0  0  0  0  0  0  0  0  0
    2.4020   -2.5470    2.4230 C   0  0  0  0  0  0  0  0  0  0  0  0
    3.5840   -1.8930    2.9610 C   0  0  0  0  0  0  0  0  0  0  0  0
    4.0110   -0.5560    2.4940 C   0  0  0  0  0  0  0  0  0  0  0  0
    5.3340   -0.1800    3.2160 C   0  0  0  0  0  0  0  0  0  0  0  0
    5.1510   -0.1480    4.6360 N   0  0  0  0  0  0  0  0  0  0  0  0
    0.8530   -0.8030    1.6770 C   0  0  0  0  0  0  0  0  0  0  0  0
    0.9400    0.3980    2.0190 O   0  0  0  0  0  0  0  0  0  0  0  0
    0.7150   -3.5290    1.1480 H   0  0  0  0  0  0  0  0  0  0  0  0
   -0.0050   -3.7480    2.6340 H   0  0  0  0  0  0  0  0  0  0  0  0
    0.6430   -1.8880    3.5400 H   0  0  0  0  0  0  0  0  0  0  0  0
    2.6280   -2.7900    1.3220 H   0  0  0  0  0  0  0  0  0  0  0  0
    2.3960   -3.6160    2.8520 H   0  0  0  0  0  0  0  0  0  0  0  0
    4.4820   -2.5810    2.7620 H   0  0  0  0  0  0  0  0  0  0  0  0
    3.5460   -1.9400    4.1000 H   0  0  0  0  0  0  0  0  0  0  0  0
    4.2140   -0.4890    1.4170 H   0  0  0  0  0  0  0  0  0  0  0  0
    3.3500    0.2920    2.7680 H   0  0  0  0  0  0  0  0  0  0  0  0
    5.5580    0.8490    2.8710 H   0  0  0  0  0  0  0  0  0  0  0  0
    6.1310   -0.8790    2.9500 H   0  0  0  0  0  0  0  0  0  0  0  0
    5.2660   -1.0790    5.0920 H   0  0  0  0  0  0  0  0  0  0  0  0
    4.2720    0.3340    4.8930 H   0  0  0  0  0  0  0  0  0  0  0  0
    2.7370    0.1390   -1.3260 C   0  0  0  0  0  0  0  0  0  0  0  0
    1.2930    0.0710   -1.7700 C   0  0  1  0  0  0  0  0  0  0  0  0
    1.1460   -1.0890   -2.5300 O   0  0  0  0  0  0  0  0  0  0  0  0
    0.3420    0.1010   -0.6000 C   0  0  2  0  0  0  0  0  0  0  0  0
    0.5370   -1.0040    0.2970 N   0  0  0  0  0  0  0  0  0  0  0  0
   -1.0570    0.0860   -1.1870 C   0  0  0  0  0  0  0  0  0  0  0  0
   -1.3990    0.9800   -1.9980 O   0  0  0  0  0  0  0  0  0  0  0  0
    3.2590   -0.8350   -1.4600 H   0  0  0  0  0  0  0  0  0  0  0  0
    3.3220    0.8720   -1.9320 H   0  0  0  0  0  0  0  0  0  0  0  0
    2.8240    0.4970   -0.2730 H   0  0  0  0  0  0  0  0  0  0  0  0
    1.1320    0.9190   -2.4630 H   0  0  0  0  0  0  0  0  0  0  0  0
    1.2600   -0.9170   -3.4830 H   0  0  0  0  0  0  0  0  0  0  0  0
    0.4810    1.0690   -0.0780 H   0  0  0  0  0  0  0  0  0  0  0  0
    0.4340   -1.9670   -0.1240 H   0  0  0  0  0  0  0  0  0  0  0  0
   -4.8400    0.5590    0.6060 C   0  0  0  0  0  0  0  0  0  0  0  0
   -4.1190    1.1570   -0.5930 C   0  0  0  0  0  0  0  0  0  0  0  0
   -4.0240    0.1810   -1.7280 C   0  0  2  0  0  0  0  0  0  0  0  0
   -5.4620   -0.2000   -2.1200 C   0  0  0  0  0  0  0  0  0  0  0  0
   -3.3350   -1.0720   -1.2750 C   0  0  2  0  0  0  0  0  0  0  0  0
   -1.9790   -0.9200   -0.8340 N   0  0  0  0  0  0  0  0  0  0  0  0
   -3.5510   -2.2620   -2.0990 C   0  0  0  0  0  0  0  0  0  0  0  0
   -2.5780   -3.0570   -2.3930 O   0  0  0  0  0  0  0  0  0  0  0  0
   -4.7550   -2.6760   -2.6460 O   0  0  0  0  0  0  0  0  0  0  0  0
   -5.6480   -0.1200    0.3360 H   0  0  0  0  0  0  0  0  0  0  0  0
   -4.1480    0.0230    1.2880 H   0  0  0  0  0  0  0  0  0  0  0  0
   -5.2990    1.3750    1.2330 H   0  0  0  0  0  0  0  0  0  0  0  0
   -3.1750    1.5250   -0.2270 H   0  0  0  0  0  0  0  0  0  0  0  0
   -4.7320    2.0520   -0.8870 H   0  0  0  0  0  0  0  0  0  0  0  0
   -3.5680    0.6790   -2.5940 H   0  0  0  0  0  0  0  0  0  0  0  0
   -6.1320    0.6840   -1.9850 H   0  0  0  0  0  0  0  0  0  0  0  0
   -5.8400   -1.0190   -1.4830 H   0  0  0  0  0  0  0  0  0  0  0  0
   -5.4560   -0.5490   -3.1650 H   0  0  0  0  0  0  0  0  0  0  0  0
   -3.8980   -1.2660   -0.2720 H   0  0  0  0  0  0  0  0  0  0  0  0
   -1.5750   -1.6440   -0.1430 H   0  0  0  0  0  0  0  0  0  0  0  0
  1  2  1  0  0  0  0
  1 11  1  0  0  0  0
  2 12  1  1  0  0  0
  3  2  1  0  0  0  0
  3 14  1  0  0  0  0
  3  4  1  0  0  0  0
  4 16  1  0  0  0  0
  5 18  1  0  0  0  0
  5  4  1  0  0  0  0
  5  6  1  0  0  0  0
  6  7  1  0  0  0  0
  7 22  1  0  0  0  0
  7 21  1  0  0  0  0
  8  9  2  0  0  0  0
  8  2  1  0  0  0  0
 10  1  1  0  0  0  0
 13  3  1  0  0  0  0
 15  4  1  0  0  0  0
 17  5  1  0  0  0  0
 19  6  1  0  0  0  0
 20  6  1  0  0  0  0
 23 32  1  0  0  0  0
 24 33  1  6  0  0  0
 24 23  1  0  0  0  0
 24 26  1  0  0  0  0
 25 24  1  0  0  0  0
 26 35  1  1  0  0  0
 26 27  1  0  0  0  0
 27  8  1  0  0  0  0
 28 42  1  0  0  0  0
 28 26  1  0  0  0  0
 29 28  2  0  0  0  0
 30 23  1  0  0  0  0
 31 23  1  0  0  0  0
 34 25  1  0  0  0  0
 36 27  1  0  0  0  0
 37 48  1  0  0  0  0
 37 47  1  0  0  0  0
 38 49  1  0  0  0  0
 38 37  1  0  0  0  0
 39 51  1  6  0  0  0
 39 41  1  0  0  0  0
 39 38  1  0  0  0  0
 40 52  1  0  0  0  0
 40 39  1  0  0  0  0
 40 53  1  0  0  0  0
 41 42  1  0  0  0  0
 41 55  1  1  0  0  0
 42 56  1  0  0  0  0
 43 41  1  0  0  0  0
 44 43  1  0  0  0  0
 45 43  2  0  0  0  0
 46 37  1  0  0  0  0
 50 38  1  0  0  0  0
 54 40  1  0  0  0  0
M  END
$$$$
