KTK.pdb
 OpenBabel07022418523D

 58 57  0  0  1  0  0  0  0  0999 V2000
    0.3150   -0.2620    5.3350 N   0  0  0  0  0  0  0  0  0  0  0  0
    0.8330   -0.1980    3.9370 C   0  0  1  0  0  0  0  0  0  0  0  0
    1.2580   -1.5670    3.6210 C   0  0  0  0  0  0  0  0  0  0  0  0
    1.8860   -1.8430    2.3030 C   0  0  0  0  0  0  0  0  0  0  0  0
    3.1460   -1.0330    2.0840 C   0  0  0  0  0  0  0  0  0  0  0  0
    3.7160   -1.3850    0.7330 C   0  0  0  0  0  0  0  0  0  0  0  0
    4.9520   -0.6060    0.5260 N   0  0  0  0  0  0  0  0  0  0  0  0
   -0.1780    0.3830    3.0820 C   0  0  0  0  0  0  0  0  0  0  0  0
   -1.2640    0.7570    3.6560 O   0  0  0  0  0  0  0  0  0  0  0  0
   -0.4590   -0.9580    5.3770 H   0  0  0  0  0  0  0  0  0  0  0  0
    1.1040   -0.6740    5.8870 H   0  0  0  0  0  0  0  0  0  0  0  0
    1.7030    0.5100    4.0240 H   0  0  0  0  0  0  0  0  0  0  0  0
    1.8740   -2.0280    4.4430 H   0  0  0  0  0  0  0  0  0  0  0  0
    0.3170   -2.2120    3.6450 H   0  0  0  0  0  0  0  0  0  0  0  0
    2.2820   -2.9160    2.3880 H   0  0  0  0  0  0  0  0  0  0  0  0
    1.1890   -1.8580    1.4910 H   0  0  0  0  0  0  0  0  0  0  0  0
    3.8470   -1.1920    2.9050 H   0  0  0  0  0  0  0  0  0  0  0  0
    2.9260    0.0620    2.0570 H   0  0  0  0  0  0  0  0  0  0  0  0
    3.0060   -0.9670   -0.0330 H   0  0  0  0  0  0  0  0  0  0  0  0
    3.8790   -2.4570    0.6470 H   0  0  0  0  0  0  0  0  0  0  0  0
    5.3880   -0.8800   -0.3830 H   0  0  0  0  0  0  0  0  0  0  0  0
    4.6890    0.3970    0.4320 H   0  0  0  0  0  0  0  0  0  0  0  0
    0.1070    2.2210   -0.8640 C   0  0  0  0  0  0  0  0  0  0  0  0
   -0.8940    2.4680    0.2070 C   0  0  1  0  0  0  0  0  0  0  0  0
   -2.0320    2.9860   -0.4250 O   0  0  0  0  0  0  0  0  0  0  0  0
   -1.2730    1.2480    1.0020 C   0  0  2  0  0  0  0  0  0  0  0  0
   -0.1910    0.6300    1.6910 N   0  0  0  0  0  0  0  0  0  0  0  0
   -2.1400    0.3180    0.3150 C   0  0  0  0  0  0  0  0  0  0  0  0
   -3.2390    0.6610   -0.2400 O   0  0  0  0  0  0  0  0  0  0  0  0
    1.0020    2.8460   -0.6580 H   0  0  0  0  0  0  0  0  0  0  0  0
    0.4850    1.1830   -0.9140 H   0  0  0  0  0  0  0  0  0  0  0  0
   -0.2380    2.5650   -1.8810 H   0  0  0  0  0  0  0  0  0  0  0  0
   -0.5510    3.3010    0.8700 H   0  0  0  0  0  0  0  0  0  0  0  0
   -1.7400    3.6200   -1.1280 H   0  0  0  0  0  0  0  0  0  0  0  0
   -1.9370    1.6880    1.8300 H   0  0  0  0  0  0  0  0  0  0  0  0
    0.6590    0.3460    1.1640 H   0  0  0  0  0  0  0  0  0  0  0  0
   -1.8360   -1.0700    0.2030 N   0  0  0  0  0  0  0  0  0  0  0  0
   -2.6520   -2.0290   -0.4300 C   0  0  1  0  0  0  0  0  0  0  0  0
   -2.2850   -2.6970   -1.6780 C   0  0  0  0  0  0  0  0  0  0  0  0
   -2.0740   -1.8840   -2.9100 C   0  0  0  0  0  0  0  0  0  0  0  0
   -0.9680   -0.9090   -2.9370 C   0  0  0  0  0  0  0  0  0  0  0  0
    0.4010   -1.5480   -2.7750 C   0  0  0  0  0  0  0  0  0  0  0  0
    0.5630   -2.2640   -1.5490 N   0  0  0  0  0  0  0  0  0  0  0  0
   -3.1540   -3.0780    0.5190 C   0  0  0  0  0  0  0  0  0  0  0  0
   -3.8900   -3.9670    0.0190 O   0  0  0  0  0  0  0  0  0  0  0  0
   -2.8510   -3.1000    1.8510 O   0  0  0  0  0  0  0  0  0  0  0  0
   -0.9400   -1.3770    0.6360 H   0  0  0  0  0  0  0  0  0  0  0  0
   -3.6280   -1.4640   -0.6850 H   0  0  0  0  0  0  0  0  0  0  0  0
   -1.4660   -3.4600   -1.5690 H   0  0  0  0  0  0  0  0  0  0  0  0
   -3.1750   -3.3770   -1.9370 H   0  0  0  0  0  0  0  0  0  0  0  0
   -3.0340   -1.3410   -3.1570 H   0  0  0  0  0  0  0  0  0  0  0  0
   -1.9410   -2.5490   -3.8190 H   0  0  0  0  0  0  0  0  0  0  0  0
   -0.9420   -0.4550   -3.9710 H   0  0  0  0  0  0  0  0  0  0  0  0
   -1.0570   -0.0990   -2.2270 H   0  0  0  0  0  0  0  0  0  0  0  0
    1.1390   -0.7150   -2.8230 H   0  0  0  0  0  0  0  0  0  0  0  0
    0.6080   -2.1820   -3.6640 H   0  0  0  0  0  0  0  0  0  0  0  0
    0.8970   -1.6070   -0.8330 H   0  0  0  0  0  0  0  0  0  0  0  0
    1.2890   -2.9980   -1.6850 H   0  0  0  0  0  0  0  0  0  0  0  0
  1 10  1  0  0  0  0
  1 11  1  0  0  0  0
  2 12  1  6  0  0  0
  2  1  1  0  0  0  0
  3 14  1  0  0  0  0
  3  2  1  0  0  0  0
  3 13  1  0  0  0  0
  4 15  1  0  0  0  0
  4  3  1  0  0  0  0
  5  4  1  0  0  0  0
  5 17  1  0  0  0  0
  6  5  1  0  0  0  0
  7  6  1  0  0  0  0
  8  9  2  0  0  0  0
  8  2  1  0  0  0  0
 16  4  1  0  0  0  0
 18  5  1  0  0  0  0
 19  6  1  0  0  0  0
 20  6  1  0  0  0  0
 21  7  1  0  0  0  0
 22  7  1  0  0  0  0
 23 30  1  0  0  0  0
 23 24  1  0  0  0  0
 24 33  1  1  0  0  0
 24 26  1  0  0  0  0
 25 24  1  0  0  0  0
 26 27  1  0  0  0  0
 26 35  1  1  0  0  0
 27  8  1  0  0  0  0
 28 26  1  0  0  0  0
 29 28  2  0  0  0  0
 31 23  1  0  0  0  0
 32 23  1  0  0  0  0
 34 25  1  0  0  0  0
 36 27  1  0  0  0  0
 37 28  1  0  0  0  0
 37 47  1  0  0  0  0
 38 48  1  6  0  0  0
 38 37  1  0  0  0  0
 38 44  1  0  0  0  0
 39 49  1  0  0  0  0
 39 38  1  0  0  0  0
 40 39  1  0  0  0  0
 41 40  1  0  0  0  0
 41 42  1  0  0  0  0
 41 54  1  0  0  0  0
 42 43  1  0  0  0  0
 43 57  1  0  0  0  0
 44 46  1  0  0  0  0
 45 44  2  0  0  0  0
 50 39  1  0  0  0  0
 51 40  1  0  0  0  0
 52 40  1  0  0  0  0
 53 41  1  0  0  0  0
 55 42  1  0  0  0  0
 56 42  1  0  0  0  0
 58 43  1  0  0  0  0
M  END
$$$$
