KTL.pdb
 OpenBabel07022418523D

 56 55  0  0  1  0  0  0  0  0999 V2000
   -0.2940   -2.0510    2.6770 N   0  0  0  0  0  0  0  0  0  0  0  0
    0.8810   -1.1300    2.9570 C   0  0  1  0  0  0  0  0  0  0  0  0
    1.9600   -2.0700    3.3060 C   0  0  0  0  0  0  0  0  0  0  0  0
    3.2900   -1.6580    3.7170 C   0  0  0  0  0  0  0  0  0  0  0  0
    4.1900   -0.8500    2.8890 C   0  0  0  0  0  0  0  0  0  0  0  0
    5.5290   -0.7200    3.6860 C   0  0  0  0  0  0  0  0  0  0  0  0
    5.1880   -0.0980    4.9370 N   0  0  0  0  0  0  0  0  0  0  0  0
    1.0030   -0.4010    1.6780 C   0  0  0  0  0  0  0  0  0  0  0  0
    1.7170    0.6090    1.5690 O   0  0  0  0  0  0  0  0  0  0  0  0
    0.0980   -2.8430    2.1310 H   0  0  0  0  0  0  0  0  0  0  0  0
   -0.5730   -2.4560    3.6140 H   0  0  0  0  0  0  0  0  0  0  0  0
    0.5510   -0.5450    3.8120 H   0  0  0  0  0  0  0  0  0  0  0  0
    2.0110   -2.9170    2.5190 H   0  0  0  0  0  0  0  0  0  0  0  0
    1.5350   -2.6830    4.1860 H   0  0  0  0  0  0  0  0  0  0  0  0
    3.8680   -2.6190    3.9650 H   0  0  0  0  0  0  0  0  0  0  0  0
    3.2650   -1.1870    4.7740 H   0  0  0  0  0  0  0  0  0  0  0  0
    4.4720   -1.2980    1.9210 H   0  0  0  0  0  0  0  0  0  0  0  0
    3.9320    0.2130    2.7330 H   0  0  0  0  0  0  0  0  0  0  0  0
    6.1860   -0.0290    3.0990 H   0  0  0  0  0  0  0  0  0  0  0  0
    5.9610   -1.7210    3.8260 H   0  0  0  0  0  0  0  0  0  0  0  0
    5.9370   -0.1430    5.6480 H   0  0  0  0  0  0  0  0  0  0  0  0
    4.9250    0.8970    4.7320 H   0  0  0  0  0  0  0  0  0  0  0  0
    1.2430   -0.4370   -3.1180 C   0  0  0  0  0  0  0  0  0  0  0  0
    1.0610   -1.0840   -1.7640 C   0  0  1  0  0  0  0  0  0  0  0  0
    2.3140   -1.4870   -1.3100 O   0  0  0  0  0  0  0  0  0  0  0  0
    0.4420   -0.0990   -0.7700 C   0  0  2  0  0  0  0  0  0  0  0  0
    0.3250   -0.7950    0.4900 N   0  0  0  0  0  0  0  0  0  0  0  0
   -0.8640    0.3490   -1.2950 C   0  0  0  0  0  0  0  0  0  0  0  0
   -0.9240    0.9000   -2.4190 O   0  0  0  0  0  0  0  0  0  0  0  0
    1.3480    0.6760   -2.9510 H   0  0  0  0  0  0  0  0  0  0  0  0
    2.2250   -0.7440   -3.5160 H   0  0  0  0  0  0  0  0  0  0  0  0
    0.4160   -0.6740   -3.8210 H   0  0  0  0  0  0  0  0  0  0  0  0
    0.4300   -2.0100   -1.8300 H   0  0  0  0  0  0  0  0  0  0  0  0
    3.0460   -0.9640   -1.7050 H   0  0  0  0  0  0  0  0  0  0  0  0
    1.1630    0.7660   -0.7130 H   0  0  0  0  0  0  0  0  0  0  0  0
   -0.3030   -1.6210    0.5010 H   0  0  0  0  0  0  0  0  0  0  0  0
   -5.1730   -2.6600   -1.8380 C   0  0  0  0  0  0  0  0  0  0  0  0
   -4.0460   -1.6260   -1.9140 C   0  0  0  0  0  0  0  0  0  0  0  0
   -3.7380   -1.3440   -3.3480 C   0  0  0  0  0  0  0  0  0  0  0  0
   -4.4340   -0.3810   -1.1450 C   0  0  0  0  0  0  0  0  0  0  0  0
   -3.3650    0.6640   -1.1750 C   0  0  2  0  0  0  0  0  0  0  0  0
   -2.1020    0.2030   -0.6050 N   0  0  0  0  0  0  0  0  0  0  0  0
   -3.8130    1.9140   -0.4830 C   0  0  0  0  0  0  0  0  0  0  0  0
   -4.8690    2.5050   -0.7880 O   0  0  0  0  0  0  0  0  0  0  0  0
   -3.0090    2.4070    0.5270 O   0  0  0  0  0  0  0  0  0  0  0  0
   -4.7220   -3.6460   -1.7570 H   0  0  0  0  0  0  0  0  0  0  0  0
   -5.7270   -2.4220   -0.9120 H   0  0  0  0  0  0  0  0  0  0  0  0
   -5.8110   -2.6310   -2.7390 H   0  0  0  0  0  0  0  0  0  0  0  0
   -3.1550   -2.0980   -1.4520 H   0  0  0  0  0  0  0  0  0  0  0  0
   -3.9620   -2.2750   -3.9310 H   0  0  0  0  0  0  0  0  0  0  0  0
   -2.6550   -1.1160   -3.4710 H   0  0  0  0  0  0  0  0  0  0  0  0
   -4.3120   -0.4660   -3.7450 H   0  0  0  0  0  0  0  0  0  0  0  0
   -4.8030   -0.6060   -0.1390 H   0  0  0  0  0  0  0  0  0  0  0  0
   -5.3200    0.0450   -1.7000 H   0  0  0  0  0  0  0  0  0  0  0  0
   -3.1570    0.9370   -2.2290 H   0  0  0  0  0  0  0  0  0  0  0  0
   -2.1110   -0.2380    0.3190 H   0  0  0  0  0  0  0  0  0  0  0  0
  1  2  1  0  0  0  0
  1 11  1  0  0  0  0
  2  3  1  0  0  0  0
  2 12  1  1  0  0  0
  3  4  1  0  0  0  0
  3 14  1  0  0  0  0
  4 15  1  0  0  0  0
  4 16  1  0  0  0  0
  5  6  1  0  0  0  0
  5  4  1  0  0  0  0
  6 20  1  0  0  0  0
  6  7  1  0  0  0  0
  7 21  1  0  0  0  0
  8  2  1  0  0  0  0
  9  8  2  0  0  0  0
 10  1  1  0  0  0  0
 13  3  1  0  0  0  0
 17  5  1  0  0  0  0
 18  5  1  0  0  0  0
 19  6  1  0  0  0  0
 22  7  1  0  0  0  0
 23 30  1  0  0  0  0
 23 24  1  0  0  0  0
 24 33  1  6  0  0  0
 24 25  1  0  0  0  0
 24 26  1  0  0  0  0
 26 35  1  1  0  0  0
 26 27  1  0  0  0  0
 27 36  1  0  0  0  0
 27  8  1  0  0  0  0
 28 26  1  0  0  0  0
 28 42  1  0  0  0  0
 29 28  2  0  0  0  0
 31 23  1  0  0  0  0
 32 23  1  0  0  0  0
 34 25  1  0  0  0  0
 37 46  1  0  0  0  0
 37 47  1  0  0  0  0
 38 37  1  0  0  0  0
 38 49  1  0  0  0  0
 38 40  1  0  0  0  0
 39 38  1  0  0  0  0
 40 53  1  0  0  0  0
 41 55  1  6  0  0  0
 41 40  1  0  0  0  0
 41 42  1  0  0  0  0
 41 43  1  0  0  0  0
 42 56  1  0  0  0  0
 43 45  1  0  0  0  0
 44 43  2  0  0  0  0
 48 37  1  0  0  0  0
 50 39  1  0  0  0  0
 51 39  1  0  0  0  0
 52 39  1  0  0  0  0
 54 40  1  0  0  0  0
M  END
$$$$
