KTM.pdb
 OpenBabel07022418523D

 54 53  0  0  1  0  0  0  0  0999 V2000
    1.8130   -0.2870    5.0190 N   0  0  0  0  0  0  0  0  0  0  0  0
    1.9540    0.1680    3.6570 C   0  0  1  0  0  0  0  0  0  0  0  0
    2.7060   -0.8790    2.8390 C   0  0  0  0  0  0  0  0  0  0  0  0
    1.9890   -2.1830    2.8200 C   0  0  0  0  0  0  0  0  0  0  0  0
    2.6220   -3.2470    2.0050 C   0  0  0  0  0  0  0  0  0  0  0  0
    3.9970   -3.6080    2.4500 C   0  0  0  0  0  0  0  0  0  0  0  0
    4.9180   -2.5200    2.3530 N   0  0  0  0  0  0  0  0  0  0  0  0
    0.6180    0.4350    3.0910 C   0  0  0  0  0  0  0  0  0  0  0  0
   -0.3840    0.2490    3.8190 O   0  0  0  0  0  0  0  0  0  0  0  0
    0.9200   -0.7990    5.1760 H   0  0  0  0  0  0  0  0  0  0  0  0
    2.6360   -0.8280    5.3490 H   0  0  0  0  0  0  0  0  0  0  0  0
    2.5400    1.1070    3.6380 H   0  0  0  0  0  0  0  0  0  0  0  0
    3.0010   -0.4810    1.8750 H   0  0  0  0  0  0  0  0  0  0  0  0
    3.6590   -1.0240    3.4380 H   0  0  0  0  0  0  0  0  0  0  0  0
    0.9300   -1.9800    2.5270 H   0  0  0  0  0  0  0  0  0  0  0  0
    1.8760   -2.6040    3.8710 H   0  0  0  0  0  0  0  0  0  0  0  0
    2.0240   -4.1930    1.9870 H   0  0  0  0  0  0  0  0  0  0  0  0
    2.7020   -2.9250    0.9310 H   0  0  0  0  0  0  0  0  0  0  0  0
    4.4370   -4.4440    1.8370 H   0  0  0  0  0  0  0  0  0  0  0  0
    4.0170   -3.9490    3.5230 H   0  0  0  0  0  0  0  0  0  0  0  0
    5.2920   -2.3980    1.3830 H   0  0  0  0  0  0  0  0  0  0  0  0
    5.6470   -2.5020    3.0890 H   0  0  0  0  0  0  0  0  0  0  0  0
   -0.1870    3.0240   -0.1100 C   0  0  0  0  0  0  0  0  0  0  0  0
   -1.1590    2.5820    0.9680 C   0  0  1  0  0  0  0  0  0  0  0  0
   -2.4560    2.7760    0.5380 O   0  0  0  0  0  0  0  0  0  0  0  0
   -0.9530    1.1200    1.3120 C   0  0  2  0  0  0  0  0  0  0  0  0
    0.3970    0.8880    1.7740 N   0  0  0  0  0  0  0  0  0  0  0  0
   -1.1980    0.2330    0.1400 C   0  0  0  0  0  0  0  0  0  0  0  0
   -0.2660   -0.5100   -0.2740 O   0  0  0  0  0  0  0  0  0  0  0  0
    0.7710    3.2810    0.3670 H   0  0  0  0  0  0  0  0  0  0  0  0
   -0.1200    2.2430   -0.8830 H   0  0  0  0  0  0  0  0  0  0  0  0
   -0.6140    3.9580   -0.5540 H   0  0  0  0  0  0  0  0  0  0  0  0
   -0.9910    3.2260    1.8530 H   0  0  0  0  0  0  0  0  0  0  0  0
   -2.4950    3.5060   -0.1420 H   0  0  0  0  0  0  0  0  0  0  0  0
   -1.6440    0.8840    2.1390 H   0  0  0  0  0  0  0  0  0  0  0  0
    1.1910    1.0520    1.1480 H   0  0  0  0  0  0  0  0  0  0  0  0
   -4.9190   -1.7760   -3.9340 C   0  0  0  0  0  0  0  0  0  0  0  0
   -3.5870   -1.0590   -4.8810 S   0  0  0  0  0  0  0  0  0  0  0  0
   -1.9640   -1.1720   -4.1260 C   0  0  0  0  0  0  0  0  0  0  0  0
   -1.8020   -0.3660   -2.8740 C   0  0  0  0  0  0  0  0  0  0  0  0
   -2.6190   -0.7380   -1.7060 C   0  0  2  0  0  0  0  0  0  0  0  0
   -2.4200    0.1510   -0.5640 N   0  0  0  0  0  0  0  0  0  0  0  0
   -2.3040   -2.1290   -1.2040 C   0  0  0  0  0  0  0  0  0  0  0  0
   -2.3090   -3.0670   -2.0070 O   0  0  0  0  0  0  0  0  0  0  0  0
   -2.0130   -2.3770    0.1220 O   0  0  0  0  0  0  0  0  0  0  0  0
   -4.5860   -2.5650   -3.2440 H   0  0  0  0  0  0  0  0  0  0  0  0
   -5.6660   -2.2990   -4.6020 H   0  0  0  0  0  0  0  0  0  0  0  0
   -5.5010   -0.9560   -3.4310 H   0  0  0  0  0  0  0  0  0  0  0  0
   -1.2160   -0.7640   -4.8690 H   0  0  0  0  0  0  0  0  0  0  0  0
   -1.6480   -2.2380   -4.0220 H   0  0  0  0  0  0  0  0  0  0  0  0
   -2.0030    0.7060   -3.1970 H   0  0  0  0  0  0  0  0  0  0  0  0
   -0.7010   -0.3380   -2.6680 H   0  0  0  0  0  0  0  0  0  0  0  0
   -3.6820   -0.7730   -1.9530 H   0  0  0  0  0  0  0  0  0  0  0  0
   -3.2040    0.7480   -0.2480 H   0  0  0  0  0  0  0  0  0  0  0  0
  1 10  1  0  0  0  0
  1 11  1  0  0  0  0
  2 12  1  6  0  0  0
  2  1  1  0  0  0  0
  3 14  1  0  0  0  0
  3  2  1  0  0  0  0
  4  3  1  0  0  0  0
  4 16  1  0  0  0  0
  5  6  1  0  0  0  0
  5  4  1  0  0  0  0
  6 20  1  0  0  0  0
  7  6  1  0  0  0  0
  7 22  1  0  0  0  0
  8  2  1  0  0  0  0
  8  9  2  0  0  0  0
 13  3  1  0  0  0  0
 15  4  1  0  0  0  0
 17  5  1  0  0  0  0
 18  5  1  0  0  0  0
 19  6  1  0  0  0  0
 21  7  1  0  0  0  0
 23 30  1  0  0  0  0
 23 24  1  0  0  0  0
 24 26  1  0  0  0  0
 24 33  1  1  0  0  0
 25 24  1  0  0  0  0
 26 27  1  0  0  0  0
 26 35  1  1  0  0  0
 27  8  1  0  0  0  0
 28 26  1  0  0  0  0
 29 28  2  0  0  0  0
 31 23  1  0  0  0  0
 32 23  1  0  0  0  0
 34 25  1  0  0  0  0
 36 27  1  0  0  0  0
 37 48  1  0  0  0  0
 37 46  1  0  0  0  0
 38 39  1  0  0  0  0
 38 37  1  0  0  0  0
 39 50  1  0  0  0  0
 39 40  1  0  0  0  0
 40 52  1  0  0  0  0
 40 41  1  0  0  0  0
 41 53  1  6  0  0  0
 41 43  1  0  0  0  0
 41 42  1  0  0  0  0
 42 54  1  0  0  0  0
 42 28  1  0  0  0  0
 43 45  1  0  0  0  0
 44 43  2  0  0  0  0
 47 37  1  0  0  0  0
 49 39  1  0  0  0  0
 51 40  1  0  0  0  0
M  END
$$$$
