KTN.pdb
 OpenBabel07022418523D

 51 50  0  0  1  0  0  0  0  0999 V2000
   -0.7780   -1.9530    3.1230 N   0  0  0  0  0  0  0  0  0  0  0  0
    0.5750   -1.6860    2.5890 C   0  0  1  0  0  0  0  0  0  0  0  0
    0.8230   -2.6840    1.5260 C   0  0  0  0  0  0  0  0  0  0  0  0
    2.1260   -2.6530    0.8310 C   0  0  0  0  0  0  0  0  0  0  0  0
    3.3540   -2.8400    1.6340 C   0  0  0  0  0  0  0  0  0  0  0  0
    3.4800   -4.1490    2.3590 C   0  0  0  0  0  0  0  0  0  0  0  0
    2.3860   -4.2840    3.2900 N   0  0  0  0  0  0  0  0  0  0  0  0
    0.6180   -0.2670    2.1620 C   0  0  0  0  0  0  0  0  0  0  0  0
    0.8300    0.6170    3.0310 O   0  0  0  0  0  0  0  0  0  0  0  0
   -1.3600   -2.4430    2.4270 H   0  0  0  0  0  0  0  0  0  0  0  0
   -0.7280   -2.5660    3.9680 H   0  0  0  0  0  0  0  0  0  0  0  0
    1.2310   -1.7700    3.4770 H   0  0  0  0  0  0  0  0  0  0  0  0
    0.0390   -2.5100    0.7320 H   0  0  0  0  0  0  0  0  0  0  0  0
    0.6200   -3.7010    1.9070 H   0  0  0  0  0  0  0  0  0  0  0  0
    2.2520   -1.8030    0.0960 H   0  0  0  0  0  0  0  0  0  0  0  0
    2.0980   -3.5440    0.1180 H   0  0  0  0  0  0  0  0  0  0  0  0
    4.2380   -2.7680    0.9450 H   0  0  0  0  0  0  0  0  0  0  0  0
    3.5340   -2.0500    2.3920 H   0  0  0  0  0  0  0  0  0  0  0  0
    4.4130   -4.1350    2.9910 H   0  0  0  0  0  0  0  0  0  0  0  0
    3.5430   -5.0110    1.6590 H   0  0  0  0  0  0  0  0  0  0  0  0
    2.1970   -5.3160    3.4230 H   0  0  0  0  0  0  0  0  0  0  0  0
    2.6110   -3.8970    4.2380 H   0  0  0  0  0  0  0  0  0  0  0  0
    2.9210    1.4480    0.2060 C   0  0  0  0  0  0  0  0  0  0  0  0
    1.6470    1.7250   -0.5240 C   0  0  1  0  0  0  0  0  0  0  0  0
    1.5890    0.9650   -1.6730 O   0  0  0  0  0  0  0  0  0  0  0  0
    0.4680    1.4830    0.4020 C   0  0  2  0  0  0  0  0  0  0  0  0
    0.4220    0.0890    0.8030 N   0  0  0  0  0  0  0  0  0  0  0  0
   -0.8150    1.9180   -0.2100 C   0  0  0  0  0  0  0  0  0  0  0  0
   -0.9360    3.1000   -0.6100 O   0  0  0  0  0  0  0  0  0  0  0  0
    2.9180    0.4310    0.6370 H   0  0  0  0  0  0  0  0  0  0  0  0
    3.7860    1.5380   -0.5090 H   0  0  0  0  0  0  0  0  0  0  0  0
    3.1170    2.2000    1.0010 H   0  0  0  0  0  0  0  0  0  0  0  0
    1.6590    2.8130   -0.7800 H   0  0  0  0  0  0  0  0  0  0  0  0
    2.1320    0.1350   -1.5010 H   0  0  0  0  0  0  0  0  0  0  0  0
    0.6480    2.1170    1.2980 H   0  0  0  0  0  0  0  0  0  0  0  0
    0.2330   -0.5960    0.0390 H   0  0  0  0  0  0  0  0  0  0  0  0
   -3.5190   -1.3620   -0.9780 N   0  0  0  0  0  0  0  0  0  0  0  0
   -3.6030   -0.6000   -2.1490 C   0  0  0  0  0  0  0  0  0  0  0  0
   -3.8580   -1.2300   -3.2270 O   0  0  0  0  0  0  0  0  0  0  0  0
   -3.4300    0.8470   -2.2760 C   0  0  0  0  0  0  0  0  0  0  0  0
   -3.1280    1.5350   -0.9640 C   0  0  2  0  0  0  0  0  0  0  0  0
   -1.9160    1.0430   -0.3620 N   0  0  0  0  0  0  0  0  0  0  0  0
   -4.2770    1.5160   -0.0420 C   0  0  0  0  0  0  0  0  0  0  0  0
   -4.2120    1.1150    1.1380 O   0  0  0  0  0  0  0  0  0  0  0  0
   -5.4950    1.9660   -0.5090 O   0  0  0  0  0  0  0  0  0  0  0  0
   -4.2430   -1.2590   -0.2450 H   0  0  0  0  0  0  0  0  0  0  0  0
   -2.7460   -2.0320   -0.8210 H   0  0  0  0  0  0  0  0  0  0  0  0
   -4.3380    1.2910   -2.7260 H   0  0  0  0  0  0  0  0  0  0  0  0
   -2.5800    1.0510   -2.9610 H   0  0  0  0  0  0  0  0  0  0  0  0
   -2.9740    2.6030   -1.2260 H   0  0  0  0  0  0  0  0  0  0  0  0
   -1.8280    0.0340   -0.0260 H   0  0  0  0  0  0  0  0  0  0  0  0
  1 11  1  0  0  0  0
  2  1  1  0  0  0  0
  2 12  1  1  0  0  0
  3 14  1  0  0  0  0
  3  2  1  0  0  0  0
  4  3  1  0  0  0  0
  4  5  1  0  0  0  0
  5  6  1  0  0  0  0
  5 18  1  0  0  0  0
  6 19  1  0  0  0  0
  6  7  1  0  0  0  0
  7 21  1  0  0  0  0
  7 22  1  0  0  0  0
  8  2  1  0  0  0  0
  8  9  2  0  0  0  0
 10  1  1  0  0  0  0
 13  3  1  0  0  0  0
 15  4  1  0  0  0  0
 16  4  1  0  0  0  0
 17  5  1  0  0  0  0
 20  6  1  0  0  0  0
 23 30  1  0  0  0  0
 23 32  1  0  0  0  0
 24 33  1  6  0  0  0
 24 23  1  0  0  0  0
 24 26  1  0  0  0  0
 25 34  1  0  0  0  0
 25 24  1  0  0  0  0
 26 27  1  0  0  0  0
 26 35  1  1  0  0  0
 27  8  1  0  0  0  0
 28 26  1  0  0  0  0
 29 28  2  0  0  0  0
 31 23  1  0  0  0  0
 36 27  1  0  0  0  0
 37 47  1  0  0  0  0
 37 46  1  0  0  0  0
 38 37  1  0  0  0  0
 39 38  2  0  0  0  0
 40 38  1  0  0  0  0
 40 41  1  0  0  0  0
 41 50  1  6  0  0  0
 41 42  1  0  0  0  0
 41 43  1  0  0  0  0
 42 28  1  0  0  0  0
 42 51  1  0  0  0  0
 43 44  1  0  0  0  0
 45 43  2  0  0  0  0
 48 40  1  0  0  0  0
 49 40  1  0  0  0  0
M  END
$$$$
