KTP.pdb
 OpenBabel07022418523D

 51 51  0  0  1  0  0  0  0  0999 V2000
    2.3470   -0.2570    4.5710 N   0  0  0  0  0  0  0  0  0  0  0  0
    2.3150   -0.1990    3.1000 C   0  0  1  0  0  0  0  0  0  0  0  0
    2.7550   -1.5810    2.6600 C   0  0  0  0  0  0  0  0  0  0  0  0
    2.8060   -1.7940    1.1920 C   0  0  0  0  0  0  0  0  0  0  0  0
    3.2700   -3.2040    0.8890 C   0  0  0  0  0  0  0  0  0  0  0  0
    4.6320   -3.5120    1.4200 C   0  0  0  0  0  0  0  0  0  0  0  0
    4.9460   -4.9000    1.0440 N   0  0  0  0  0  0  0  0  0  0  0  0
    0.9130    0.0930    2.7310 C   0  0  0  0  0  0  0  0  0  0  0  0
   -0.0410    0.0240    3.5730 O   0  0  0  0  0  0  0  0  0  0  0  0
    1.8580    0.5820    4.9400 H   0  0  0  0  0  0  0  0  0  0  0  0
    1.7520   -1.0810    4.8220 H   0  0  0  0  0  0  0  0  0  0  0  0
    3.0290    0.5740    2.7900 H   0  0  0  0  0  0  0  0  0  0  0  0
    3.7760   -1.7100    3.0900 H   0  0  0  0  0  0  0  0  0  0  0  0
    2.0770   -2.3140    3.1080 H   0  0  0  0  0  0  0  0  0  0  0  0
    3.4880   -1.1130    0.6530 H   0  0  0  0  0  0  0  0  0  0  0  0
    1.7640   -1.7400    0.7800 H   0  0  0  0  0  0  0  0  0  0  0  0
    2.5100   -3.9530    1.1670 H   0  0  0  0  0  0  0  0  0  0  0  0
    3.3450   -3.2790   -0.2350 H   0  0  0  0  0  0  0  0  0  0  0  0
    4.6870   -3.4060    2.5270 H   0  0  0  0  0  0  0  0  0  0  0  0
    5.4300   -2.8990    0.9880 H   0  0  0  0  0  0  0  0  0  0  0  0
    5.2750   -4.8580    0.0580 H   0  0  0  0  0  0  0  0  0  0  0  0
    4.0470   -5.4390    1.0330 H   0  0  0  0  0  0  0  0  0  0  0  0
   -1.9590    2.8490    0.1280 C   0  0  0  0  0  0  0  0  0  0  0  0
   -0.7710    2.2330    0.7210 C   0  0  1  0  0  0  0  0  0  0  0  0
   -0.3150    2.9250    1.8410 O   0  0  0  0  0  0  0  0  0  0  0  0
   -0.8440    0.7550    1.0810 C   0  0  2  0  0  0  0  0  0  0  0  0
    0.5760    0.4680    1.4150 N   0  0  0  0  0  0  0  0  0  0  0  0
   -1.2480   -0.1200   -0.0060 C   0  0  0  0  0  0  0  0  0  0  0  0
   -0.2990   -0.6780   -0.6650 O   0  0  0  0  0  0  0  0  0  0  0  0
   -2.7470    3.0530    0.8870 H   0  0  0  0  0  0  0  0  0  0  0  0
   -2.3520    2.2900   -0.7440 H   0  0  0  0  0  0  0  0  0  0  0  0
   -1.6730    3.8480   -0.2730 H   0  0  0  0  0  0  0  0  0  0  0  0
    0.0700    2.3690   -0.0340 H   0  0  0  0  0  0  0  0  0  0  0  0
   -0.0410    3.8500    1.6330 H   0  0  0  0  0  0  0  0  0  0  0  0
   -1.4220    0.5760    1.9920 H   0  0  0  0  0  0  0  0  0  0  0  0
    1.3060    0.5610    0.6560 H   0  0  0  0  0  0  0  0  0  0  0  0
   -2.5630   -0.4480   -0.4390 N   0  0  0  0  0  0  0  0  0  0  0  0
   -3.8360   -0.0630    0.1020 C   0  0  0  0  0  0  0  0  0  0  0  0
   -4.8200   -0.2570   -1.0700 C   0  0  0  0  0  0  0  0  0  0  0  0
   -4.2360   -1.4990   -1.7490 C   0  0  0  0  0  0  0  0  0  0  0  0
   -2.7980   -1.2830   -1.5860 C   0  0  1  0  0  0  0  0  0  0  0  0
   -2.1270   -0.7420   -2.8050 C   0  0  0  0  0  0  0  0  0  0  0  0
   -1.4560    0.3020   -2.8170 O   0  0  0  0  0  0  0  0  0  0  0  0
   -2.2740   -1.4600   -3.9780 O   0  0  0  0  0  0  0  0  0  0  0  0
   -3.9370    0.9560    0.4620 H   0  0  0  0  0  0  0  0  0  0  0  0
   -4.1660   -0.7550    0.9210 H   0  0  0  0  0  0  0  0  0  0  0  0
   -4.7970    0.5760   -1.7720 H   0  0  0  0  0  0  0  0  0  0  0  0
   -5.8230   -0.5460   -0.7030 H   0  0  0  0  0  0  0  0  0  0  0  0
   -4.5600   -2.4200   -1.2390 H   0  0  0  0  0  0  0  0  0  0  0  0
   -4.5610   -1.5600   -2.8060 H   0  0  0  0  0  0  0  0  0  0  0  0
   -2.3290   -2.2810   -1.3290 H   0  0  0  0  0  0  0  0  0  0  0  0
  1 11  1  0  0  0  0
  1 10  1  0  0  0  0
  2 12  1  6  0  0  0
  2  1  1  0  0  0  0
  3 13  1  0  0  0  0
  3  2  1  0  0  0  0
  3 14  1  0  0  0  0
  4  3  1  0  0  0  0
  5 17  1  0  0  0  0
  5  4  1  0  0  0  0
  5  6  1  0  0  0  0
  6 19  1  0  0  0  0
  7  6  1  0  0  0  0
  8  2  1  0  0  0  0
  8  9  2  0  0  0  0
 15  4  1  0  0  0  0
 16  4  1  0  0  0  0
 18  5  1  0  0  0  0
 20  6  1  0  0  0  0
 21  7  1  0  0  0  0
 22  7  1  0  0  0  0
 23 24  1  0  0  0  0
 23 30  1  0  0  0  0
 24 33  1  6  0  0  0
 24 26  1  0  0  0  0
 24 25  1  0  0  0  0
 26 27  1  0  0  0  0
 26 35  1  1  0  0  0
 27  8  1  0  0  0  0
 28 26  1  0  0  0  0
 29 28  2  0  0  0  0
 31 23  1  0  0  0  0
 32 23  1  0  0  0  0
 34 25  1  0  0  0  0
 36 27  1  0  0  0  0
 37 28  1  0  0  0  0
 37 38  1  0  0  0  0
 38 45  1  0  0  0  0
 38 46  1  0  0  0  0
 39 48  1  0  0  0  0
 39 38  1  0  0  0  0
 40 41  1  0  0  0  0
 40 49  1  0  0  0  0
 40 39  1  0  0  0  0
 41 51  1  1  0  0  0
 41 37  1  0  0  0  0
 42 41  1  0  0  0  0
 43 42  1  0  0  0  0
 44 42  2  0  0  0  0
 47 39  1  0  0  0  0
 50 40  1  0  0  0  0
M  END
$$$$
