KTQ.pdb
 OpenBabel07022418523D

 54 53  0  0  1  0  0  0  0  0999 V2000
   -0.4600   -1.9650    3.5550 N   0  0  0  0  0  0  0  0  0  0  0  0
    0.7980   -1.3540    3.0750 C   0  0  1  0  0  0  0  0  0  0  0  0
    1.4590   -2.3180    2.1720 C   0  0  0  0  0  0  0  0  0  0  0  0
    2.7480   -1.9180    1.5840 C   0  0  0  0  0  0  0  0  0  0  0  0
    3.8550   -1.6180    2.5350 C   0  0  0  0  0  0  0  0  0  0  0  0
    4.2350   -2.7720    3.4220 C   0  0  0  0  0  0  0  0  0  0  0  0
    5.3200   -2.3100    4.2800 N   0  0  0  0  0  0  0  0  0  0  0  0
    0.4600   -0.0420    2.4960 C   0  0  0  0  0  0  0  0  0  0  0  0
    0.3380    0.9670    3.2230 O   0  0  0  0  0  0  0  0  0  0  0  0
   -1.0820   -2.1070    2.7240 H   0  0  0  0  0  0  0  0  0  0  0  0
   -0.8970   -1.3560    4.2860 H   0  0  0  0  0  0  0  0  0  0  0  0
    1.3830   -1.2210    4.0380 H   0  0  0  0  0  0  0  0  0  0  0  0
    1.4900   -3.3110    2.6920 H   0  0  0  0  0  0  0  0  0  0  0  0
    0.7490   -2.4990    1.3090 H   0  0  0  0  0  0  0  0  0  0  0  0
    3.0900   -2.7630    0.9170 H   0  0  0  0  0  0  0  0  0  0  0  0
    2.6100   -1.0590    0.9040 H   0  0  0  0  0  0  0  0  0  0  0  0
    3.6210   -0.7170    3.1380 H   0  0  0  0  0  0  0  0  0  0  0  0
    4.7530   -1.3520    1.9370 H   0  0  0  0  0  0  0  0  0  0  0  0
    4.6520   -3.6190    2.8390 H   0  0  0  0  0  0  0  0  0  0  0  0
    3.4210   -3.1630    4.0300 H   0  0  0  0  0  0  0  0  0  0  0  0
    6.2470   -2.3960    3.8540 H   0  0  0  0  0  0  0  0  0  0  0  0
    5.2280   -2.6040    5.2550 H   0  0  0  0  0  0  0  0  0  0  0  0
    1.0580    1.1240   -1.6450 C   0  0  0  0  0  0  0  0  0  0  0  0
    0.8960    1.9730   -0.4250 C   0  0  1  0  0  0  0  0  0  0  0  0
    0.4120    3.2220   -0.8300 O   0  0  0  0  0  0  0  0  0  0  0  0
   -0.0680    1.4280    0.5830 C   0  0  2  0  0  0  0  0  0  0  0  0
    0.2540    0.1570    1.1140 N   0  0  0  0  0  0  0  0  0  0  0  0
   -1.4650    1.3550    0.0360 C   0  0  0  0  0  0  0  0  0  0  0  0
   -1.9490    2.3890   -0.4870 O   0  0  0  0  0  0  0  0  0  0  0  0
    0.6350    1.6070   -2.5740 H   0  0  0  0  0  0  0  0  0  0  0  0
    2.1440    0.9580   -1.9090 H   0  0  0  0  0  0  0  0  0  0  0  0
    0.5250    0.1530   -1.5580 H   0  0  0  0  0  0  0  0  0  0  0  0
    1.8500    2.1720    0.1030 H   0  0  0  0  0  0  0  0  0  0  0  0
    0.8790    3.9700   -0.3710 H   0  0  0  0  0  0  0  0  0  0  0  0
   -0.1200    2.1610    1.4140 H   0  0  0  0  0  0  0  0  0  0  0  0
    0.3300   -0.6480    0.4220 H   0  0  0  0  0  0  0  0  0  0  0  0
   -2.0360   -1.6870   -4.8650 N   0  0  0  0  0  0  0  0  0  0  0  0
   -2.7930   -1.7110   -3.6680 C   0  0  0  0  0  0  0  0  0  0  0  0
   -3.5620   -2.7010   -3.5050 O   0  0  0  0  0  0  0  0  0  0  0  0
   -2.6910   -0.6300   -2.6540 C   0  0  0  0  0  0  0  0  0  0  0  0
   -3.6150   -0.9570   -1.5230 C   0  0  0  0  0  0  0  0  0  0  0  0
   -3.5900    0.0840   -0.4300 C   0  0  2  0  0  0  0  0  0  0  0  0
   -2.2280    0.1690    0.0980 N   0  0  0  0  0  0  0  0  0  0  0  0
   -4.5280   -0.3950    0.6340 C   0  0  0  0  0  0  0  0  0  0  0  0
   -4.0510   -0.6440    1.7710 O   0  0  0  0  0  0  0  0  0  0  0  0
   -5.8660   -0.5710    0.4280 O   0  0  0  0  0  0  0  0  0  0  0  0
   -1.6230   -2.5750   -5.2090 H   0  0  0  0  0  0  0  0  0  0  0  0
   -1.8890   -0.8120   -5.3960 H   0  0  0  0  0  0  0  0  0  0  0  0
   -1.6490   -0.4850   -2.3470 H   0  0  0  0  0  0  0  0  0  0  0  0
   -3.0640    0.3130   -3.1520 H   0  0  0  0  0  0  0  0  0  0  0  0
   -3.4050   -1.9670   -1.1160 H   0  0  0  0  0  0  0  0  0  0  0  0
   -4.6540   -0.9730   -1.9430 H   0  0  0  0  0  0  0  0  0  0  0  0
   -3.9130    1.0370   -0.8610 H   0  0  0  0  0  0  0  0  0  0  0  0
   -1.7740   -0.6580    0.5430 H   0  0  0  0  0  0  0  0  0  0  0  0
  1 11  1  0  0  0  0
  2  1  1  0  0  0  0
  2 12  1  1  0  0  0
  3 13  1  0  0  0  0
  3  2  1  0  0  0  0
  4  3  1  0  0  0  0
  4  5  1  0  0  0  0
  5 17  1  0  0  0  0
  5  6  1  0  0  0  0
  6 20  1  0  0  0  0
  6  7  1  0  0  0  0
  7 22  1  0  0  0  0
  8  2  1  0  0  0  0
  8  9  2  0  0  0  0
 10  1  1  0  0  0  0
 14  3  1  0  0  0  0
 15  4  1  0  0  0  0
 16  4  1  0  0  0  0
 18  5  1  0  0  0  0
 19  6  1  0  0  0  0
 21  7  1  0  0  0  0
 23 32  1  0  0  0  0
 23 24  1  0  0  0  0
 24 33  1  1  0  0  0
 24 26  1  0  0  0  0
 25 24  1  0  0  0  0
 25 34  1  0  0  0  0
 26 27  1  0  0  0  0
 26 35  1  1  0  0  0
 27  8  1  0  0  0  0
 28 43  1  0  0  0  0
 28 26  1  0  0  0  0
 29 28  2  0  0  0  0
 30 23  1  0  0  0  0
 31 23  1  0  0  0  0
 36 27  1  0  0  0  0
 37 38  1  0  0  0  0
 38 39  2  0  0  0  0
 38 40  1  0  0  0  0
 40 49  1  0  0  0  0
 40 41  1  0  0  0  0
 41 51  1  0  0  0  0
 41 42  1  0  0  0  0
 42 53  1  6  0  0  0
 42 43  1  0  0  0  0
 42 44  1  0  0  0  0
 43 54  1  0  0  0  0
 44 45  1  0  0  0  0
 46 44  2  0  0  0  0
 47 37  1  0  0  0  0
 48 37  1  0  0  0  0
 50 40  1  0  0  0  0
 52 41  1  0  0  0  0
M  END
$$$$
