KTR.pdb
 OpenBabel07022418523D

 60 59  0  0  1  0  0  0  0  0999 V2000
   -1.2220   -1.3500    4.4940 N   0  0  0  0  0  0  0  0  0  0  0  0
   -0.1370   -0.3720    4.3170 C   0  0  1  0  0  0  0  0  0  0  0  0
    1.0950   -1.0890    3.8810 C   0  0  0  0  0  0  0  0  0  0  0  0
    2.2820   -0.2050    3.6840 C   0  0  0  0  0  0  0  0  0  0  0  0
    3.5060   -0.9870    3.2340 C   0  0  0  0  0  0  0  0  0  0  0  0
    4.6610   -0.0180    3.0570 C   0  0  0  0  0  0  0  0  0  0  0  0
    5.8450   -0.7450    2.6260 N   0  0  0  0  0  0  0  0  0  0  0  0
   -0.5740    0.7200    3.4230 C   0  0  0  0  0  0  0  0  0  0  0  0
   -1.2700    1.6370    3.9520 O   0  0  0  0  0  0  0  0  0  0  0  0
   -1.9320   -0.9670    5.1870 H   0  0  0  0  0  0  0  0  0  0  0  0
   -0.8590   -2.2220    4.9170 H   0  0  0  0  0  0  0  0  0  0  0  0
    0.0520    0.0120    5.3490 H   0  0  0  0  0  0  0  0  0  0  0  0
    1.3520   -1.8100    4.6940 H   0  0  0  0  0  0  0  0  0  0  0  0
    0.8680   -1.7140    2.9860 H   0  0  0  0  0  0  0  0  0  0  0  0
    2.5760    0.2320    4.6830 H   0  0  0  0  0  0  0  0  0  0  0  0
    2.0650    0.6380    3.0320 H   0  0  0  0  0  0  0  0  0  0  0  0
    3.3100   -1.4420    2.2410 H   0  0  0  0  0  0  0  0  0  0  0  0
    3.7780   -1.7500    3.9680 H   0  0  0  0  0  0  0  0  0  0  0  0
    4.8630    0.4840    4.0280 H   0  0  0  0  0  0  0  0  0  0  0  0
    4.4070    0.7360    2.2720 H   0  0  0  0  0  0  0  0  0  0  0  0
    6.0640   -0.5040    1.6170 H   0  0  0  0  0  0  0  0  0  0  0  0
    5.6880   -1.7770    2.6440 H   0  0  0  0  0  0  0  0  0  0  0  0
    1.5700    1.8380    0.1290 C   0  0  0  0  0  0  0  0  0  0  0  0
    0.5170    2.6680    0.7800 C   0  0  1  0  0  0  0  0  0  0  0  0
    0.1550    3.7410   -0.0590 O   0  0  0  0  0  0  0  0  0  0  0  0
   -0.7070    1.8800    1.1930 C   0  0  2  0  0  0  0  0  0  0  0  0
   -0.2730    0.8040    2.0440 N   0  0  0  0  0  0  0  0  0  0  0  0
   -1.4600    1.3810    0.0110 C   0  0  0  0  0  0  0  0  0  0  0  0
   -1.9230    2.1820   -0.8490 O   0  0  0  0  0  0  0  0  0  0  0  0
    1.1610    0.9760   -0.4140 H   0  0  0  0  0  0  0  0  0  0  0  0
    2.3940    1.5390    0.8250 H   0  0  0  0  0  0  0  0  0  0  0  0
    2.0750    2.4800   -0.6410 H   0  0  0  0  0  0  0  0  0  0  0  0
    0.9450    3.1150    1.7030 H   0  0  0  0  0  0  0  0  0  0  0  0
    0.8830    3.9640   -0.6660 H   0  0  0  0  0  0  0  0  0  0  0  0
   -1.3140    2.5700    1.8200 H   0  0  0  0  0  0  0  0  0  0  0  0
    0.2880    0.0450    1.6130 H   0  0  0  0  0  0  0  0  0  0  0  0
   -1.4580   -5.8210   -2.2800 N   0  0  0  0  0  0  0  0  0  0  0  0
   -1.8770   -4.9190   -3.2870 C   0  0  0  0  0  0  0  0  0  0  0  0
   -3.0580   -5.0540   -3.8480 N   0  0  0  0  0  0  0  0  0  0  0  0
   -1.0040   -3.8720   -3.6810 N   0  0  0  0  0  0  0  0  0  0  0  0
   -1.4910   -2.7120   -4.3450 C   0  0  0  0  0  0  0  0  0  0  0  0
   -2.3580   -1.8390   -3.4490 C   0  0  0  0  0  0  0  0  0  0  0  0
   -1.6100   -1.3520   -2.2500 C   0  0  0  0  0  0  0  0  0  0  0  0
   -2.4460   -0.4750   -1.3950 C   0  0  2  0  0  0  0  0  0  0  0  0
   -1.7030    0.0060   -0.2260 N   0  0  0  0  0  0  0  0  0  0  0  0
   -3.7030   -1.0600   -0.8930 C   0  0  0  0  0  0  0  0  0  0  0  0
   -3.9510   -1.1600    0.3580 O   0  0  0  0  0  0  0  0  0  0  0  0
   -4.6520   -1.5160   -1.7750 O   0  0  0  0  0  0  0  0  0  0  0  0
   -1.9500   -6.7220   -2.1320 H   0  0  0  0  0  0  0  0  0  0  0  0
   -0.6530   -5.5990   -1.6690 H   0  0  0  0  0  0  0  0  0  0  0  0
   -3.4100   -4.4320   -4.5790 H   0  0  0  0  0  0  0  0  0  0  0  0
    0.0080   -3.9680   -3.4730 H   0  0  0  0  0  0  0  0  0  0  0  0
   -2.0960   -3.0160   -5.2240 H   0  0  0  0  0  0  0  0  0  0  0  0
   -0.6910   -2.0560   -4.7380 H   0  0  0  0  0  0  0  0  0  0  0  0
   -2.7810   -0.9890   -4.0050 H   0  0  0  0  0  0  0  0  0  0  0  0
   -3.2290   -2.5020   -3.1720 H   0  0  0  0  0  0  0  0  0  0  0  0
   -1.3690   -2.2790   -1.6450 H   0  0  0  0  0  0  0  0  0  0  0  0
   -0.6610   -0.8750   -2.5700 H   0  0  0  0  0  0  0  0  0  0  0  0
   -2.7320    0.4460   -1.9720 H   0  0  0  0  0  0  0  0  0  0  0  0
   -1.3380   -0.6810    0.4610 H   0  0  0  0  0  0  0  0  0  0  0  0
  1 11  1  0  0  0  0
  1 10  1  0  0  0  0
  2  1  1  0  0  0  0
  2 12  1  1  0  0  0
  3  2  1  0  0  0  0
  3 13  1  0  0  0  0
  4  3  1  0  0  0  0
  4 15  1  0  0  0  0
  5  4  1  0  0  0  0
  5 18  1  0  0  0  0
  6  5  1  0  0  0  0
  6 19  1  0  0  0  0
  7 22  1  0  0  0  0
  7  6  1  0  0  0  0
  8  9  2  0  0  0  0
  8  2  1  0  0  0  0
 14  3  1  0  0  0  0
 16  4  1  0  0  0  0
 17  5  1  0  0  0  0
 20  6  1  0  0  0  0
 21  7  1  0  0  0  0
 23 24  1  0  0  0  0
 23 31  1  0  0  0  0
 24 26  1  0  0  0  0
 24 33  1  1  0  0  0
 25 24  1  0  0  0  0
 26 35  1  1  0  0  0
 26 27  1  0  0  0  0
 27  8  1  0  0  0  0
 28 26  1  0  0  0  0
 29 28  2  0  0  0  0
 30 23  1  0  0  0  0
 32 23  1  0  0  0  0
 34 25  1  0  0  0  0
 36 27  1  0  0  0  0
 37 49  1  0  0  0  0
 37 50  1  0  0  0  0
 38 37  1  0  0  0  0
 39 38  2  0  0  0  0
 40 52  1  0  0  0  0
 40 38  1  0  0  0  0
 41 40  1  0  0  0  0
 41 42  1  0  0  0  0
 42 56  1  0  0  0  0
 42 43  1  0  0  0  0
 43 57  1  0  0  0  0
 43 44  1  0  0  0  0
 44 59  1  6  0  0  0
 44 46  1  0  0  0  0
 44 45  1  0  0  0  0
 45 28  1  0  0  0  0
 45 60  1  0  0  0  0
 46 47  1  0  0  0  0
 48 46  2  0  0  0  0
 51 39  1  0  0  0  0
 53 41  1  0  0  0  0
 54 41  1  0  0  0  0
 55 42  1  0  0  0  0
 58 43  1  0  0  0  0
M  END
$$$$
