KTT.pdb
 OpenBabel07022418523D

 51 50  0  0  1  0  0  0  0  0999 V2000
    3.2720    1.3410   -0.4610 N   0  0  0  0  0  0  0  0  0  0  0  0
    1.8720    1.3460   -0.2440 C   0  0  1  0  0  0  0  0  0  0  0  0
    1.0630    0.4960   -1.1600 C   0  0  0  0  0  0  0  0  0  0  0  0
    1.1200    0.7860   -2.6070 C   0  0  0  0  0  0  0  0  0  0  0  0
    2.5010    0.6730   -3.2250 C   0  0  0  0  0  0  0  0  0  0  0  0
    3.0680   -0.7170   -3.0620 C   0  0  0  0  0  0  0  0  0  0  0  0
    2.2370   -1.7230   -3.6920 N   0  0  0  0  0  0  0  0  0  0  0  0
    1.6050    0.8790    1.1410 C   0  0  0  0  0  0  0  0  0  0  0  0
    2.5710    0.5680    1.8780 O   0  0  0  0  0  0  0  0  0  0  0  0
    3.7620    2.2300   -0.2390 H   0  0  0  0  0  0  0  0  0  0  0  0
    3.7310    0.6060    0.1560 H   0  0  0  0  0  0  0  0  0  0  0  0
    1.5380    2.4220   -0.3530 H   0  0  0  0  0  0  0  0  0  0  0  0
    1.2720   -0.5940   -1.0160 H   0  0  0  0  0  0  0  0  0  0  0  0
   -0.0150    0.6050   -0.8490 H   0  0  0  0  0  0  0  0  0  0  0  0
    0.5170   -0.0290   -3.1130 H   0  0  0  0  0  0  0  0  0  0  0  0
    0.6100    1.7220   -2.9090 H   0  0  0  0  0  0  0  0  0  0  0  0
    2.4430    0.8710   -4.3170 H   0  0  0  0  0  0  0  0  0  0  0  0
    3.2320    1.3850   -2.8190 H   0  0  0  0  0  0  0  0  0  0  0  0
    3.2620   -0.9930   -2.0180 H   0  0  0  0  0  0  0  0  0  0  0  0
    4.0480   -0.7280   -3.5860 H   0  0  0  0  0  0  0  0  0  0  0  0
    2.7870   -2.4180   -4.2340 H   0  0  0  0  0  0  0  0  0  0  0  0
    1.5480   -2.1490   -3.0330 H   0  0  0  0  0  0  0  0  0  0  0  0
   -0.9920    0.8170    5.2190 C   0  0  0  0  0  0  0  0  0  0  0  0
   -0.6850    1.3730    3.8450 C   0  0  1  0  0  0  0  0  0  0  0  0
    0.0830    2.5310    3.9430 O   0  0  0  0  0  0  0  0  0  0  0  0
    0.0320    0.3070    3.0420 C   0  0  2  0  0  0  0  0  0  0  0  0
    0.3150    0.7590    1.6950 N   0  0  0  0  0  0  0  0  0  0  0  0
   -0.7680   -0.9430    2.9660 C   0  0  0  0  0  0  0  0  0  0  0  0
   -1.1450   -1.5440    4.0100 O   0  0  0  0  0  0  0  0  0  0  0  0
   -2.0130    0.3860    5.1810 H   0  0  0  0  0  0  0  0  0  0  0  0
   -0.9980    1.6030    5.9960 H   0  0  0  0  0  0  0  0  0  0  0  0
   -0.2340    0.0270    5.4790 H   0  0  0  0  0  0  0  0  0  0  0  0
   -1.6330    1.6640    3.3770 H   0  0  0  0  0  0  0  0  0  0  0  0
    0.9550    2.4270    3.4830 H   0  0  0  0  0  0  0  0  0  0  0  0
    0.9540    0.0600    3.6040 H   0  0  0  0  0  0  0  0  0  0  0  0
   -0.4990    1.0130    1.0970 H   0  0  0  0  0  0  0  0  0  0  0  0
   -4.0120   -3.8140    0.9180 C   0  0  0  0  0  0  0  0  0  0  0  0
   -3.2340   -2.5150    0.8830 C   0  0  1  0  0  0  0  0  0  0  0  0
   -3.9790   -1.5860    1.6280 O   0  0  0  0  0  0  0  0  0  0  0  0
   -1.9200   -2.7320    1.5970 C   0  0  2  0  0  0  0  0  0  0  0  0
   -1.1520   -1.5310    1.7280 N   0  0  0  0  0  0  0  0  0  0  0  0
   -1.1610   -3.7780    0.8670 C   0  0  0  0  0  0  0  0  0  0  0  0
   -0.0060   -3.5130    0.4720 O   0  0  0  0  0  0  0  0  0  0  0  0
   -1.6670   -5.0260    0.6050 O   0  0  0  0  0  0  0  0  0  0  0  0
   -5.0830   -3.6230    1.1530 H   0  0  0  0  0  0  0  0  0  0  0  0
   -3.6460   -4.4890    1.7260 H   0  0  0  0  0  0  0  0  0  0  0  0
   -3.9930   -4.3420   -0.0590 H   0  0  0  0  0  0  0  0  0  0  0  0
   -3.1060   -2.2260   -0.1600 H   0  0  0  0  0  0  0  0  0  0  0  0
   -4.5860   -2.0540    2.2550 H   0  0  0  0  0  0  0  0  0  0  0  0
   -2.1860   -3.1710    2.5960 H   0  0  0  0  0  0  0  0  0  0  0  0
   -0.8500   -1.0490    0.8570 H   0  0  0  0  0  0  0  0  0  0  0  0
  1  2  1  0  0  0  0
  1 10  1  0  0  0  0
  1 11  1  0  0  0  0
  2 12  1  6  0  0  0
  2  8  1  0  0  0  0
  3 13  1  0  0  0  0
  3 14  1  0  0  0  0
  3  2  1  0  0  0  0
  4  3  1  0  0  0  0
  5  6  1  0  0  0  0
  5 18  1  0  0  0  0
  5  4  1  0  0  0  0
  6 19  1  0  0  0  0
  7  6  1  0  0  0  0
  7 22  1  0  0  0  0
  8 27  1  0  0  0  0
  8  9  2  0  0  0  0
 15  4  1  0  0  0  0
 16  4  1  0  0  0  0
 17  5  1  0  0  0  0
 20  6  1  0  0  0  0
 21  7  1  0  0  0  0
 23 32  1  0  0  0  0
 23 31  1  0  0  0  0
 24 33  1  6  0  0  0
 24 25  1  0  0  0  0
 24 23  1  0  0  0  0
 26 35  1  1  0  0  0
 26 24  1  0  0  0  0
 27 26  1  0  0  0  0
 28 26  1  0  0  0  0
 28 29  2  0  0  0  0
 30 23  1  0  0  0  0
 34 25  1  0  0  0  0
 36 27  1  0  0  0  0
 37 45  1  0  0  0  0
 37 46  1  0  0  0  0
 38 48  1  6  0  0  0
 38 37  1  0  0  0  0
 38 40  1  0  0  0  0
 38 39  1  0  0  0  0
 39 49  1  0  0  0  0
 40 41  1  0  0  0  0
 40 50  1  1  0  0  0
 41 28  1  0  0  0  0
 42 40  1  0  0  0  0
 43 42  2  0  0  0  0
 44 42  1  0  0  0  0
 47 37  1  0  0  0  0
 51 41  1  0  0  0  0
M  END
$$$$
