KTV.pdb
 OpenBabel07022418523D

 53 52  0  0  1  0  0  0  0  0999 V2000
    2.1740    0.6980    4.2990 N   0  0  0  0  0  0  0  0  0  0  0  0
    2.2490    0.3810    2.8530 C   0  0  1  0  0  0  0  0  0  0  0  0
    2.6120   -1.0690    2.8050 C   0  0  0  0  0  0  0  0  0  0  0  0
    2.7660   -1.6700    1.4570 C   0  0  0  0  0  0  0  0  0  0  0  0
    3.8360   -1.0230    0.6100 C   0  0  0  0  0  0  0  0  0  0  0  0
    5.1630   -1.1610    1.3250 C   0  0  0  0  0  0  0  0  0  0  0  0
    5.5400   -2.5260    1.5570 N   0  0  0  0  0  0  0  0  0  0  0  0
    0.8820    0.6720    2.3100 C   0  0  0  0  0  0  0  0  0  0  0  0
   -0.0720    0.9870    3.1010 O   0  0  0  0  0  0  0  0  0  0  0  0
    1.4340    0.0740    4.7190 H   0  0  0  0  0  0  0  0  0  0  0  0
    3.0710    0.4220    4.7650 H   0  0  0  0  0  0  0  0  0  0  0  0
    2.9870    1.0630    2.4340 H   0  0  0  0  0  0  0  0  0  0  0  0
    3.5520   -1.2090    3.3650 H   0  0  0  0  0  0  0  0  0  0  0  0
    1.8360   -1.6430    3.3490 H   0  0  0  0  0  0  0  0  0  0  0  0
    3.1580   -2.7210    1.6400 H   0  0  0  0  0  0  0  0  0  0  0  0
    1.8140   -1.8500    0.9190 H   0  0  0  0  0  0  0  0  0  0  0  0
    3.8750   -1.5720   -0.3530 H   0  0  0  0  0  0  0  0  0  0  0  0
    3.6890    0.0360    0.4130 H   0  0  0  0  0  0  0  0  0  0  0  0
    5.1570   -0.6020    2.2680 H   0  0  0  0  0  0  0  0  0  0  0  0
    5.9200   -0.6810    0.6520 H   0  0  0  0  0  0  0  0  0  0  0  0
    5.2950   -3.1540    0.7600 H   0  0  0  0  0  0  0  0  0  0  0  0
    5.2350   -2.9050    2.4750 H   0  0  0  0  0  0  0  0  0  0  0  0
    0.1790    2.1110   -1.4850 C   0  0  0  0  0  0  0  0  0  0  0  0
   -0.8090    2.1580   -0.3600 C   0  0  1  0  0  0  0  0  0  0  0  0
   -2.0910    2.4240   -0.7530 O   0  0  0  0  0  0  0  0  0  0  0  0
   -0.7790    0.9160    0.4980 C   0  0  2  0  0  0  0  0  0  0  0  0
    0.5690    0.6200    0.9310 N   0  0  0  0  0  0  0  0  0  0  0  0
   -1.3520   -0.2640   -0.1330 C   0  0  0  0  0  0  0  0  0  0  0  0
   -0.6110   -1.2990   -0.2430 O   0  0  0  0  0  0  0  0  0  0  0  0
   -0.2320    2.7430   -2.3100 H   0  0  0  0  0  0  0  0  0  0  0  0
    0.3520    1.1040   -1.8880 H   0  0  0  0  0  0  0  0  0  0  0  0
    1.1440    2.5820   -1.1990 H   0  0  0  0  0  0  0  0  0  0  0  0
   -0.4850    3.0030    0.3160 H   0  0  0  0  0  0  0  0  0  0  0  0
   -2.6390    2.8130   -0.0480 H   0  0  0  0  0  0  0  0  0  0  0  0
   -1.3880    1.1480    1.3910 H   0  0  0  0  0  0  0  0  0  0  0  0
    1.3280    0.3700    0.2380 H   0  0  0  0  0  0  0  0  0  0  0  0
   -3.6970   -2.3810    0.9830 C   0  0  0  0  0  0  0  0  0  0  0  0
   -4.2440   -2.1480   -0.4190 C   0  0  0  0  0  0  0  0  0  0  0  0
   -4.7640   -3.4600   -0.9350 C   0  0  0  0  0  0  0  0  0  0  0  0
   -3.1120   -1.6070   -1.2480 C   0  0  2  0  0  0  0  0  0  0  0  0
   -2.6670   -0.3660   -0.6380 N   0  0  0  0  0  0  0  0  0  0  0  0
   -3.5030   -1.4010   -2.6670 C   0  0  0  0  0  0  0  0  0  0  0  0
   -3.4360   -0.2750   -3.2120 O   0  0  0  0  0  0  0  0  0  0  0  0
   -3.9500   -2.4750   -3.3970 O   0  0  0  0  0  0  0  0  0  0  0  0
   -3.2350   -3.3780    1.0270 H   0  0  0  0  0  0  0  0  0  0  0  0
   -2.9380   -1.5920    1.2220 H   0  0  0  0  0  0  0  0  0  0  0  0
   -4.5530   -2.2750    1.6770 H   0  0  0  0  0  0  0  0  0  0  0  0
   -5.0460   -1.4050   -0.4090 H   0  0  0  0  0  0  0  0  0  0  0  0
   -5.4120   -3.9130   -0.1390 H   0  0  0  0  0  0  0  0  0  0  0  0
   -5.4490   -3.2700   -1.7900 H   0  0  0  0  0  0  0  0  0  0  0  0
   -3.9740   -4.1900   -1.1510 H   0  0  0  0  0  0  0  0  0  0  0  0
   -2.2880   -2.3480   -1.2240 H   0  0  0  0  0  0  0  0  0  0  0  0
   -3.2800    0.4690   -0.5480 H   0  0  0  0  0  0  0  0  0  0  0  0
  1 10  1  0  0  0  0
  1 11  1  0  0  0  0
  2 12  1  6  0  0  0
  2  1  1  0  0  0  0
  3  2  1  0  0  0  0
  3 14  1  0  0  0  0
  3 13  1  0  0  0  0
  4 15  1  0  0  0  0
  4  3  1  0  0  0  0
  5  6  1  0  0  0  0
  5  4  1  0  0  0  0
  6  7  1  0  0  0  0
  6 19  1  0  0  0  0
  7 22  1  0  0  0  0
  8  2  1  0  0  0  0
  8  9  2  0  0  0  0
 16  4  1  0  0  0  0
 17  5  1  0  0  0  0
 18  5  1  0  0  0  0
 20  6  1  0  0  0  0
 21  7  1  0  0  0  0
 23 32  1  0  0  0  0
 23 24  1  0  0  0  0
 24 33  1  1  0  0  0
 24 26  1  0  0  0  0
 25 24  1  0  0  0  0
 25 34  1  0  0  0  0
 26 27  1  0  0  0  0
 26 35  1  1  0  0  0
 27  8  1  0  0  0  0
 28 26  1  0  0  0  0
 29 28  2  0  0  0  0
 30 23  1  0  0  0  0
 31 23  1  0  0  0  0
 36 27  1  0  0  0  0
 37 45  1  0  0  0  0
 37 46  1  0  0  0  0
 37 47  1  0  0  0  0
 38 48  1  0  0  0  0
 38 37  1  0  0  0  0
 39 38  1  0  0  0  0
 39 49  1  0  0  0  0
 40 52  1  1  0  0  0
 40 41  1  0  0  0  0
 40 38  1  0  0  0  0
 41 53  1  0  0  0  0
 41 28  1  0  0  0  0
 42 40  1  0  0  0  0
 43 42  1  0  0  0  0
 44 42  2  0  0  0  0
 50 39  1  0  0  0  0
 51 39  1  0  0  0  0
M  END
$$$$
