KTW.pdb
 OpenBabel07022418523D

 61 62  0  0  1  0  0  0  0  0999 V2000
    0.8010   -1.2320    2.4000 N   0  0  0  0  0  0  0  0  0  0  0  0
    1.4490    0.0930    2.7660 C   0  0  1  0  0  0  0  0  0  0  0  0
    2.8880   -0.2100    2.7160 C   0  0  0  0  0  0  0  0  0  0  0  0
    3.8640    0.8290    3.0650 C   0  0  0  0  0  0  0  0  0  0  0  0
    3.9070    2.0410    2.2280 C   0  0  0  0  0  0  0  0  0  0  0  0
    4.1760    1.6980    0.7870 C   0  0  0  0  0  0  0  0  0  0  0  0
    4.2060    2.9200    0.0190 N   0  0  0  0  0  0  0  0  0  0  0  0
    0.9260    0.9700    1.6890 C   0  0  0  0  0  0  0  0  0  0  0  0
    0.7000    2.1960    1.8260 O   0  0  0  0  0  0  0  0  0  0  0  0
   -0.2210   -1.1050    2.4520 H   0  0  0  0  0  0  0  0  0  0  0  0
    1.1830   -1.9400    3.0590 H   0  0  0  0  0  0  0  0  0  0  0  0
    1.0180    0.3800    3.7200 H   0  0  0  0  0  0  0  0  0  0  0  0
    3.0420   -1.1450    3.3770 H   0  0  0  0  0  0  0  0  0  0  0  0
    3.1010   -0.5840    1.6580 H   0  0  0  0  0  0  0  0  0  0  0  0
    4.9020    0.3490    3.0910 H   0  0  0  0  0  0  0  0  0  0  0  0
    3.7050    1.1210    4.1570 H   0  0  0  0  0  0  0  0  0  0  0  0
    4.8720    2.6030    2.5860 H   0  0  0  0  0  0  0  0  0  0  0  0
    3.0670    2.7090    2.3940 H   0  0  0  0  0  0  0  0  0  0  0  0
    5.1870    1.2300    0.7330 H   0  0  0  0  0  0  0  0  0  0  0  0
    3.4680    0.9760    0.3480 H   0  0  0  0  0  0  0  0  0  0  0  0
    4.3450    2.6740   -0.9780 H   0  0  0  0  0  0  0  0  0  0  0  0
    3.2740    3.3920    0.1790 H   0  0  0  0  0  0  0  0  0  0  0  0
    1.5750    0.0530   -2.3320 C   0  0  0  0  0  0  0  0  0  0  0  0
    1.1190    1.3860   -1.7790 C   0  0  1  0  0  0  0  0  0  0  0  0
    0.6360    2.2110   -2.8160 O   0  0  0  0  0  0  0  0  0  0  0  0
    0.1300    1.2840   -0.6720 C   0  0  2  0  0  0  0  0  0  0  0  0
    0.6360    0.4460    0.3750 N   0  0  0  0  0  0  0  0  0  0  0  0
   -1.2270    0.8870   -1.1180 C   0  0  0  0  0  0  0  0  0  0  0  0
   -1.7790    1.5470   -2.0360 O   0  0  0  0  0  0  0  0  0  0  0  0
    1.7950   -0.6780   -1.5380 H   0  0  0  0  0  0  0  0  0  0  0  0
    2.5420    0.1650   -2.8970 H   0  0  0  0  0  0  0  0  0  0  0  0
    0.8400   -0.3090   -3.0780 H   0  0  0  0  0  0  0  0  0  0  0  0
    2.0230    1.9010   -1.3930 H   0  0  0  0  0  0  0  0  0  0  0  0
    0.6370    3.1520   -2.4900 H   0  0  0  0  0  0  0  0  0  0  0  0
    0.0100    2.3380   -0.2780 H   0  0  0  0  0  0  0  0  0  0  0  0
    0.8070   -0.5580    0.2240 H   0  0  0  0  0  0  0  0  0  0  0  0
   -1.9120   -0.2040   -0.5460 N   0  0  0  0  0  0  0  0  0  0  0  0
   -3.2460   -0.6100   -0.9710 C   0  0  1  0  0  0  0  0  0  0  0  0
   -3.1360   -1.9790   -1.5950 C   0  0  0  0  0  0  0  0  0  0  0  0
   -2.5890   -3.0200   -0.7290 C   0  0  0  0  0  0  0  0  0  0  0  0
   -1.2390   -3.3880   -0.7750 C   0  0  0  0  0  0  0  0  0  0  0  0
   -1.0540   -4.3270    0.1490 N   0  0  0  0  0  0  0  0  0  0  0  0
   -2.2030   -4.5810    0.7790 C   0  0  0  0  0  0  0  0  0  0  0  0
   -2.5020   -5.4690    1.7930 C   0  0  0  0  0  0  0  0  0  0  0  0
   -3.7950   -5.5290    2.2560 C   0  0  0  0  0  0  0  0  0  0  0  0
   -4.7810   -4.7290    1.7310 C   0  0  0  0  0  0  0  0  0  0  0  0
   -4.4960   -3.8450    0.7260 C   0  0  0  0  0  0  0  0  0  0  0  0
   -3.2080   -3.7610    0.2420 C   0  0  0  0  0  0  0  0  0  0  0  0
   -4.2730   -0.4780    0.0490 C   0  0  0  0  0  0  0  0  0  0  0  0
   -4.0130   -0.1580    1.2610 O   0  0  0  0  0  0  0  0  0  0  0  0
   -5.6200   -0.6850   -0.2160 O   0  0  0  0  0  0  0  0  0  0  0  0
   -1.4320   -0.7340    0.2110 H   0  0  0  0  0  0  0  0  0  0  0  0
   -3.5470    0.1080   -1.8050 H   0  0  0  0  0  0  0  0  0  0  0  0
   -4.1760   -2.2290   -1.9560 H   0  0  0  0  0  0  0  0  0  0  0  0
   -2.5120   -1.8370   -2.5260 H   0  0  0  0  0  0  0  0  0  0  0  0
   -0.4700   -2.9840   -1.4420 H   0  0  0  0  0  0  0  0  0  0  0  0
   -0.1440   -4.8170    0.3710 H   0  0  0  0  0  0  0  0  0  0  0  0
   -1.7290   -6.0940    2.2030 H   0  0  0  0  0  0  0  0  0  0  0  0
   -4.0180   -6.2260    3.0480 H   0  0  0  0  0  0  0  0  0  0  0  0
   -5.7870   -4.8340    2.1510 H   0  0  0  0  0  0  0  0  0  0  0  0
   -5.2490   -3.2370    0.3110 H   0  0  0  0  0  0  0  0  0  0  0  0
  1 10  1  0  0  0  0
  1  2  1  0  0  0  0
  1 11  1  0  0  0  0
  2 12  1  1  0  0  0
  3  2  1  0  0  0  0
  3  4  1  0  0  0  0
  3 13  1  0  0  0  0
  4 15  1  0  0  0  0
  4 16  1  0  0  0  0
  5 18  1  0  0  0  0
  5 17  1  0  0  0  0
  5  4  1  0  0  0  0
  6  5  1  0  0  0  0
  7 22  1  0  0  0  0
  7  6  1  0  0  0  0
  8  9  2  0  0  0  0
  8  2  1  0  0  0  0
 14  3  1  0  0  0  0
 19  6  1  0  0  0  0
 20  6  1  0  0  0  0
 21  7  1  0  0  0  0
 23 24  1  0  0  0  0
 23 30  1  0  0  0  0
 24 33  1  1  0  0  0
 24 26  1  0  0  0  0
 25 34  1  0  0  0  0
 25 24  1  0  0  0  0
 26 35  1  1  0  0  0
 26 27  1  0  0  0  0
 27  8  1  0  0  0  0
 28 26  1  0  0  0  0
 28 37  1  0  0  0  0
 29 28  2  0  0  0  0
 31 23  1  0  0  0  0
 32 23  1  0  0  0  0
 36 27  1  0  0  0  0
 37 52  1  0  0  0  0
 38 53  1  6  0  0  0
 38 37  1  0  0  0  0
 38 49  1  0  0  0  0
 39 38  1  0  0  0  0
 39 40  1  0  0  0  0
 40 48  1  0  0  0  0
 41 40  2  0  0  0  0
 41 42  1  0  0  0  0
 42 57  1  0  0  0  0
 42 43  1  0  0  0  0
 43 44  1  0  0  0  0
 44 58  1  0  0  0  0
 44 45  2  0  0  0  0
 45 59  1  0  0  0  0
 46 60  1  0  0  0  0
 46 45  1  0  0  0  0
 47 46  2  0  0  0  0
 48 47  1  0  0  0  0
 48 43  2  0  0  0  0
 49 50  1  0  0  0  0
 51 49  2  0  0  0  0
 54 39  1  0  0  0  0
 55 39  1  0  0  0  0
 56 41  1  0  0  0  0
 61 47  1  0  0  0  0
M  END
$$$$
