KVA.pdb
 OpenBabel07022418533D

 49 48  0  0  1  0  0  0  0  0999 V2000
    1.9830   -2.3780    3.1190 N   0  0  0  0  0  0  0  0  0  0  0  0
    1.4050   -1.8840    1.8800 C   0  0  1  0  0  0  0  0  0  0  0  0
    0.0060   -2.3980    1.6750 C   0  0  0  0  0  0  0  0  0  0  0  0
   -0.0680   -3.9020    1.6120 C   0  0  0  0  0  0  0  0  0  0  0  0
    0.7440   -4.4860    0.4860 C   0  0  0  0  0  0  0  0  0  0  0  0
    0.6420   -5.9970    0.4490 C   0  0  0  0  0  0  0  0  0  0  0  0
    1.4320   -6.5190   -0.6410 N   0  0  0  0  0  0  0  0  0  0  0  0
    1.4120   -0.3850    1.8860 C   0  0  0  0  0  0  0  0  0  0  0  0
    1.8660    0.2760    2.8560 O   0  0  0  0  0  0  0  0  0  0  0  0
    1.2800   -2.7490    3.7700 H   0  0  0  0  0  0  0  0  0  0  0  0
    2.8210   -2.9540    2.9800 H   0  0  0  0  0  0  0  0  0  0  0  0
    2.0350   -2.2770    1.0570 H   0  0  0  0  0  0  0  0  0  0  0  0
   -0.4270   -1.9820    0.7530 H   0  0  0  0  0  0  0  0  0  0  0  0
   -0.6360   -2.0890    2.5380 H   0  0  0  0  0  0  0  0  0  0  0  0
   -1.1260   -4.2010    1.5720 H   0  0  0  0  0  0  0  0  0  0  0  0
    0.4030   -4.2780    2.5580 H   0  0  0  0  0  0  0  0  0  0  0  0
    1.8000   -4.2210    0.5700 H   0  0  0  0  0  0  0  0  0  0  0  0
    0.3670   -4.1240   -0.4980 H   0  0  0  0  0  0  0  0  0  0  0  0
   -0.4260   -6.2880    0.2320 H   0  0  0  0  0  0  0  0  0  0  0  0
    0.8950   -6.4700    1.4050 H   0  0  0  0  0  0  0  0  0  0  0  0
    1.7330   -5.7980   -1.3170 H   0  0  0  0  0  0  0  0  0  0  0  0
    2.2180   -7.1130   -0.2980 H   0  0  0  0  0  0  0  0  0  0  0  0
    3.1980    1.6960   -0.1930 C   0  0  0  0  0  0  0  0  0  0  0  0
    1.7840    2.1470   -0.4750 C   0  0  0  0  0  0  0  0  0  0  0  0
    1.8100    3.6460   -0.6630 C   0  0  0  0  0  0  0  0  0  0  0  0
    0.8510    1.7570    0.6720 C   0  0  2  0  0  0  0  0  0  0  0  0
    0.9000    0.3130    0.7850 N   0  0  0  0  0  0  0  0  0  0  0  0
   -0.5170    2.2510    0.4350 C   0  0  0  0  0  0  0  0  0  0  0  0
   -0.7120    3.4870    0.3180 O   0  0  0  0  0  0  0  0  0  0  0  0
    3.2540    0.6190   -0.4110 H   0  0  0  0  0  0  0  0  0  0  0  0
    3.4800    1.9030    0.8650 H   0  0  0  0  0  0  0  0  0  0  0  0
    3.9010    2.2060   -0.8720 H   0  0  0  0  0  0  0  0  0  0  0  0
    1.4270    1.6140   -1.3860 H   0  0  0  0  0  0  0  0  0  0  0  0
    1.1260    3.8790   -1.4980 H   0  0  0  0  0  0  0  0  0  0  0  0
    2.8180    4.0110   -0.9460 H   0  0  0  0  0  0  0  0  0  0  0  0
    1.5320    4.1900    0.2660 H   0  0  0  0  0  0  0  0  0  0  0  0
    1.2830    2.1950    1.5900 H   0  0  0  0  0  0  0  0  0  0  0  0
    0.5190   -0.2240   -0.0300 H   0  0  0  0  0  0  0  0  0  0  0  0
   -3.5930    1.3230   -1.1570 C   0  0  0  0  0  0  0  0  0  0  0  0
   -2.9960    1.8730    0.0970 C   0  0  2  0  0  0  0  0  0  0  0  0
   -1.6470    1.3960    0.3300 N   0  0  0  0  0  0  0  0  0  0  0  0
   -3.8960    1.5310    1.2270 C   0  0  0  0  0  0  0  0  0  0  0  0
   -3.4070    0.9040    2.1980 O   0  0  0  0  0  0  0  0  0  0  0  0
   -5.2370    1.8610    1.2740 O   0  0  0  0  0  0  0  0  0  0  0  0
   -3.7800    2.1550   -1.8610 H   0  0  0  0  0  0  0  0  0  0  0  0
   -2.8410    0.6700   -1.6600 H   0  0  0  0  0  0  0  0  0  0  0  0
   -4.5500    0.7900   -0.9840 H   0  0  0  0  0  0  0  0  0  0  0  0
   -2.9660    2.9790    0.0230 H   0  0  0  0  0  0  0  0  0  0  0  0
   -1.4790    0.3550    0.4300 H   0  0  0  0  0  0  0  0  0  0  0  0
  1 10  1  0  0  0  0
  2 12  1  6  0  0  0
  2  8  1  0  0  0  0
  2  1  1  0  0  0  0
  3  2  1  0  0  0  0
  3 14  1  0  0  0  0
  4  3  1  0  0  0  0
  4 16  1  0  0  0  0
  5 17  1  0  0  0  0
  5  4  1  0  0  0  0
  6  5  1  0  0  0  0
  6 20  1  0  0  0  0
  7 22  1  0  0  0  0
  7  6  1  0  0  0  0
  8  9  2  0  0  0  0
 11  1  1  0  0  0  0
 13  3  1  0  0  0  0
 15  4  1  0  0  0  0
 18  5  1  0  0  0  0
 19  6  1  0  0  0  0
 21  7  1  0  0  0  0
 23 31  1  0  0  0  0
 24 23  1  0  0  0  0
 24 26  1  0  0  0  0
 25 24  1  0  0  0  0
 25 36  1  0  0  0  0
 26 27  1  0  0  0  0
 26 37  1  1  0  0  0
 27  8  1  0  0  0  0
 28 26  1  0  0  0  0
 29 28  2  0  0  0  0
 30 23  1  0  0  0  0
 32 23  1  0  0  0  0
 33 24  1  0  0  0  0
 34 25  1  0  0  0  0
 35 25  1  0  0  0  0
 38 27  1  0  0  0  0
 39 47  1  0  0  0  0
 39 40  1  0  0  0  0
 40 48  1  6  0  0  0
 40 41  1  0  0  0  0
 40 42  1  0  0  0  0
 41 49  1  0  0  0  0
 41 28  1  0  0  0  0
 42 44  2  0  0  0  0
 42 43  1  0  0  0  0
 45 39  1  0  0  0  0
 46 39  1  0  0  0  0
M  END
$$$$
