KVC.pdb
 OpenBabel07022418533D

 50 49  0  0  1  0  0  0  0  0999 V2000
   -0.0690   -2.9650   -0.9580 N   0  0  0  0  0  0  0  0  0  0  0  0
    0.1880   -2.2480    0.2530 C   0  0  1  0  0  0  0  0  0  0  0  0
    1.6470   -2.2930    0.6590 C   0  0  0  0  0  0  0  0  0  0  0  0
    2.1160   -3.7100    0.8840 C   0  0  0  0  0  0  0  0  0  0  0  0
    3.5620   -3.7730    1.2860 C   0  0  0  0  0  0  0  0  0  0  0  0
    3.8630   -3.0410    2.5510 C   0  0  0  0  0  0  0  0  0  0  0  0
    5.2970   -3.1930    2.8080 N   0  0  0  0  0  0  0  0  0  0  0  0
   -0.1760   -0.8230    0.0600 C   0  0  0  0  0  0  0  0  0  0  0  0
   -0.6150   -0.4760   -1.0620 O   0  0  0  0  0  0  0  0  0  0  0  0
   -0.0640   -2.3270   -1.7860 H   0  0  0  0  0  0  0  0  0  0  0  0
   -1.0340   -3.3650   -0.9050 H   0  0  0  0  0  0  0  0  0  0  0  0
   -0.4380   -2.6700    1.0860 H   0  0  0  0  0  0  0  0  0  0  0  0
    1.7710   -1.7390    1.6100 H   0  0  0  0  0  0  0  0  0  0  0  0
    2.2890   -1.7980   -0.0880 H   0  0  0  0  0  0  0  0  0  0  0  0
    1.9850   -4.2730   -0.0470 H   0  0  0  0  0  0  0  0  0  0  0  0
    1.5290   -4.2080    1.6770 H   0  0  0  0  0  0  0  0  0  0  0  0
    4.2130   -3.3240    0.4850 H   0  0  0  0  0  0  0  0  0  0  0  0
    3.9160   -4.8180    1.3880 H   0  0  0  0  0  0  0  0  0  0  0  0
    3.7080   -1.9340    2.4340 H   0  0  0  0  0  0  0  0  0  0  0  0
    3.3380   -3.4460    3.4300 H   0  0  0  0  0  0  0  0  0  0  0  0
    5.6720   -2.3770    3.3610 H   0  0  0  0  0  0  0  0  0  0  0  0
    5.7840   -3.1790    1.8650 H   0  0  0  0  0  0  0  0  0  0  0  0
    0.9140    2.0220   -1.1390 C   0  0  0  0  0  0  0  0  0  0  0  0
    0.5960    2.3400    0.2660 C   0  0  0  0  0  0  0  0  0  0  0  0
    1.9230    2.3050    1.0420 C   0  0  0  0  0  0  0  0  0  0  0  0
   -0.3600    1.4920    0.9990 C   0  0  2  0  0  0  0  0  0  0  0  0
   -0.0200    0.1040    1.1390 N   0  0  0  0  0  0  0  0  0  0  0  0
   -1.7760    1.6510    0.6990 C   0  0  0  0  0  0  0  0  0  0  0  0
   -2.3120    2.7630    0.3790 O   0  0  0  0  0  0  0  0  0  0  0  0
    1.5760    1.1310   -1.2370 H   0  0  0  0  0  0  0  0  0  0  0  0
    0.0660    2.0390   -1.8460 H   0  0  0  0  0  0  0  0  0  0  0  0
    1.5780    2.8660   -1.5120 H   0  0  0  0  0  0  0  0  0  0  0  0
    0.2610    3.4000    0.3300 H   0  0  0  0  0  0  0  0  0  0  0  0
    2.3840    1.3370    0.7940 H   0  0  0  0  0  0  0  0  0  0  0  0
    2.5430    3.1820    0.7980 H   0  0  0  0  0  0  0  0  0  0  0  0
    1.7020    2.2950    2.1300 H   0  0  0  0  0  0  0  0  0  0  0  0
   -0.2960    1.8890    2.0940 H   0  0  0  0  0  0  0  0  0  0  0  0
    0.3620   -0.3300    2.0320 H   0  0  0  0  0  0  0  0  0  0  0  0
   -2.6410    0.5370    0.7590 N   0  0  0  0  0  0  0  0  0  0  0  0
   -4.0630    0.6400    0.4670 C   0  0  1  0  0  0  0  0  0  0  0  0
   -4.5010   -0.2060   -0.6870 C   0  0  0  0  0  0  0  0  0  0  0  0
   -3.6640    0.2180   -2.2380 S   0  0  0  0  0  0  0  0  0  0  0  0
   -4.8400    0.2520    1.6540 C   0  0  0  0  0  0  0  0  0  0  0  0
   -6.0840    0.2670    1.6250 O   0  0  0  0  0  0  0  0  0  0  0  0
   -4.1950   -0.1300    2.8030 O   0  0  0  0  0  0  0  0  0  0  0  0
   -2.3320   -0.4240    1.0270 H   0  0  0  0  0  0  0  0  0  0  0  0
   -4.3360    1.7000    0.2100 H   0  0  0  0  0  0  0  0  0  0  0  0
   -5.5830   -0.0160   -0.8530 H   0  0  0  0  0  0  0  0  0  0  0  0
   -4.4260   -1.2980   -0.4710 H   0  0  0  0  0  0  0  0  0  0  0  0
   -4.0110   -0.7720   -3.1830 H   0  0  0  0  0  0  0  0  0  0  0  0
  1 11  1  0  0  0  0
  1  2  1  0  0  0  0
  2  3  1  0  0  0  0
  2 12  1  1  0  0  0
  3  4  1  0  0  0  0
  3 13  1  0  0  0  0
  4  5  1  0  0  0  0
  4 16  1  0  0  0  0
  5 18  1  0  0  0  0
  5  6  1  0  0  0  0
  6  7  1  0  0  0  0
  6 20  1  0  0  0  0
  7 21  1  0  0  0  0
  8  2  1  0  0  0  0
  8 27  1  0  0  0  0
  9  8  2  0  0  0  0
 10  1  1  0  0  0  0
 14  3  1  0  0  0  0
 15  4  1  0  0  0  0
 17  5  1  0  0  0  0
 19  6  1  0  0  0  0
 22  7  1  0  0  0  0
 23 24  1  0  0  0  0
 24 33  1  0  0  0  0
 24 26  1  0  0  0  0
 24 25  1  0  0  0  0
 25 36  1  0  0  0  0
 26 27  1  0  0  0  0
 26 37  1  1  0  0  0
 27 38  1  0  0  0  0
 28 39  1  0  0  0  0
 28 26  1  0  0  0  0
 29 28  2  0  0  0  0
 30 23  1  0  0  0  0
 31 23  1  0  0  0  0
 32 23  1  0  0  0  0
 34 25  1  0  0  0  0
 35 25  1  0  0  0  0
 39 46  1  0  0  0  0
 40 47  1  6  0  0  0
 40 39  1  0  0  0  0
 40 43  1  0  0  0  0
 41 49  1  0  0  0  0
 41 40  1  0  0  0  0
 42 41  1  0  0  0  0
 43 45  1  0  0  0  0
 44 43  2  0  0  0  0
 48 41  1  0  0  0  0
 50 42  1  0  0  0  0
M  END
$$$$
