KVF.pdb
 OpenBabel07022418533D

 59 59  0  0  1  0  0  0  0  0999 V2000
   -1.6160    0.7480    3.9920 N   0  0  0  0  0  0  0  0  0  0  0  0
   -0.3200    1.4180    3.8490 C   0  0  1  0  0  0  0  0  0  0  0  0
    0.7560    0.5780    4.4790 C   0  0  0  0  0  0  0  0  0  0  0  0
    2.1170    1.1970    4.3830 C   0  0  0  0  0  0  0  0  0  0  0  0
    3.1640    0.3050    5.0700 C   0  0  0  0  0  0  0  0  0  0  0  0
    4.5090    1.0120    4.9220 C   0  0  0  0  0  0  0  0  0  0  0  0
    5.5370    0.2070    5.5580 N   0  0  0  0  0  0  0  0  0  0  0  0
   -0.0370    1.5620    2.3730 C   0  0  0  0  0  0  0  0  0  0  0  0
    0.9160    2.3060    2.0850 O   0  0  0  0  0  0  0  0  0  0  0  0
   -1.6660    0.3870    4.9700 H   0  0  0  0  0  0  0  0  0  0  0  0
   -2.3290    1.5260    3.9490 H   0  0  0  0  0  0  0  0  0  0  0  0
   -0.3480    2.4480    4.2570 H   0  0  0  0  0  0  0  0  0  0  0  0
    0.5150    0.3090    5.5320 H   0  0  0  0  0  0  0  0  0  0  0  0
    0.8040   -0.3700    3.8660 H   0  0  0  0  0  0  0  0  0  0  0  0
    2.1350    2.1760    4.8850 H   0  0  0  0  0  0  0  0  0  0  0  0
    2.4760    1.2670    3.3170 H   0  0  0  0  0  0  0  0  0  0  0  0
    3.2250   -0.6850    4.6080 H   0  0  0  0  0  0  0  0  0  0  0  0
    2.9170    0.2710    6.1380 H   0  0  0  0  0  0  0  0  0  0  0  0
    4.7910    1.1320    3.8600 H   0  0  0  0  0  0  0  0  0  0  0  0
    4.4700    2.0230    5.3680 H   0  0  0  0  0  0  0  0  0  0  0  0
    6.4220    0.2990    5.0310 H   0  0  0  0  0  0  0  0  0  0  0  0
    5.2370   -0.7780    5.6510 H   0  0  0  0  0  0  0  0  0  0  0  0
    0.5500    1.5630   -1.9940 C   0  0  0  0  0  0  0  0  0  0  0  0
    0.4210    1.6550   -0.4610 C   0  0  0  0  0  0  0  0  0  0  0  0
    0.0360    3.1570   -0.2990 C   0  0  0  0  0  0  0  0  0  0  0  0
   -0.7700    0.8790    0.0390 C   0  0  2  0  0  0  0  0  0  0  0  0
   -0.8360    0.8740    1.4740 N   0  0  0  0  0  0  0  0  0  0  0  0
   -0.9310   -0.4790   -0.4260 C   0  0  0  0  0  0  0  0  0  0  0  0
   -0.9160   -1.4050    0.4740 O   0  0  0  0  0  0  0  0  0  0  0  0
    0.9790    0.6000   -2.3070 H   0  0  0  0  0  0  0  0  0  0  0  0
    1.3440    2.3200   -2.3110 H   0  0  0  0  0  0  0  0  0  0  0  0
   -0.3510    1.8880   -2.4970 H   0  0  0  0  0  0  0  0  0  0  0  0
    1.3700    1.4580   -0.0200 H   0  0  0  0  0  0  0  0  0  0  0  0
    0.8850    3.7880   -0.0790 H   0  0  0  0  0  0  0  0  0  0  0  0
   -0.4110    3.5320   -1.2810 H   0  0  0  0  0  0  0  0  0  0  0  0
   -0.7970    3.2900    0.4080 H   0  0  0  0  0  0  0  0  0  0  0  0
   -1.6310    1.5900   -0.2580 H   0  0  0  0  0  0  0  0  0  0  0  0
   -1.6050    0.2540    1.8880 H   0  0  0  0  0  0  0  0  0  0  0  0
   -1.1080   -0.9660   -1.7320 N   0  0  0  0  0  0  0  0  0  0  0  0
   -1.2530   -2.3780   -2.0640 C   0  0  1  0  0  0  0  0  0  0  0  0
   -2.5470   -2.6680   -2.7350 C   0  0  0  0  0  0  0  0  0  0  0  0
   -2.7430   -4.0850   -3.0950 C   0  0  0  0  0  0  0  0  0  0  0  0
   -3.2810   -4.9690   -2.1520 C   0  0  0  0  0  0  0  0  0  0  0  0
   -3.5040   -6.2990   -2.4410 C   0  0  0  0  0  0  0  0  0  0  0  0
   -3.2000   -6.8050   -3.6880 C   0  0  0  0  0  0  0  0  0  0  0  0
   -2.6710   -5.9590   -4.6340 C   0  0  0  0  0  0  0  0  0  0  0  0
   -2.4580   -4.6410   -4.3230 C   0  0  0  0  0  0  0  0  0  0  0  0
   -0.1250   -2.7880   -2.9190 C   0  0  0  0  0  0  0  0  0  0  0  0
    0.7480   -1.9760   -3.3230 O   0  0  0  0  0  0  0  0  0  0  0  0
   -0.0000   -4.1050   -3.3010 O   0  0  0  0  0  0  0  0  0  0  0  0
   -1.1540   -0.2790   -2.5020 H   0  0  0  0  0  0  0  0  0  0  0  0
   -1.2010   -3.0080   -1.1390 H   0  0  0  0  0  0  0  0  0  0  0  0
   -3.4350   -2.3330   -2.1570 H   0  0  0  0  0  0  0  0  0  0  0  0
   -2.6350   -2.0850   -3.7030 H   0  0  0  0  0  0  0  0  0  0  0  0
   -3.5270   -4.6130   -1.1800 H   0  0  0  0  0  0  0  0  0  0  0  0
   -3.9180   -6.9910   -1.7220 H   0  0  0  0  0  0  0  0  0  0  0  0
   -3.3690   -7.8520   -3.9350 H   0  0  0  0  0  0  0  0  0  0  0  0
   -2.4420   -6.3850   -5.6040 H   0  0  0  0  0  0  0  0  0  0  0  0
   -2.0450   -4.0010   -5.0960 H   0  0  0  0  0  0  0  0  0  0  0  0
  1 10  1  0  0  0  0
  2  1  1  0  0  0  0
  2 12  1  1  0  0  0
  2  3  1  0  0  0  0
  3 13  1  0  0  0  0
  4  3  1  0  0  0  0
  4 15  1  0  0  0  0
  4  5  1  0  0  0  0
  5 18  1  0  0  0  0
  6  5  1  0  0  0  0
  6 20  1  0  0  0  0
  6  7  1  0  0  0  0
  7 22  1  0  0  0  0
  8  2  1  0  0  0  0
  9  8  2  0  0  0  0
 11  1  1  0  0  0  0
 14  3  1  0  0  0  0
 16  4  1  0  0  0  0
 17  5  1  0  0  0  0
 19  6  1  0  0  0  0
 21  7  1  0  0  0  0
 23 24  1  0  0  0  0
 24 25  1  0  0  0  0
 24 33  1  0  0  0  0
 24 26  1  0  0  0  0
 25 34  1  0  0  0  0
 25 36  1  0  0  0  0
 26 37  1  6  0  0  0
 26 27  1  0  0  0  0
 27 38  1  0  0  0  0
 27  8  1  0  0  0  0
 28 26  1  0  0  0  0
 28 29  2  0  0  0  0
 30 23  1  0  0  0  0
 31 23  1  0  0  0  0
 32 23  1  0  0  0  0
 35 25  1  0  0  0  0
 39 28  1  0  0  0  0
 40 39  1  0  0  0  0
 40 52  1  1  0  0  0
 41 53  1  0  0  0  0
 41 40  1  0  0  0  0
 42 41  1  0  0  0  0
 42 43  1  0  0  0  0
 43 55  1  0  0  0  0
 44 43  2  0  0  0  0
 44 56  1  0  0  0  0
 45 44  1  0  0  0  0
 46 47  1  0  0  0  0
 46 45  2  0  0  0  0
 47 42  2  0  0  0  0
 48 40  1  0  0  0  0
 49 48  2  0  0  0  0
 50 48  1  0  0  0  0
 51 39  1  0  0  0  0
 54 41  1  0  0  0  0
 57 45  1  0  0  0  0
 58 46  1  0  0  0  0
 59 47  1  0  0  0  0
M  END
$$$$
