KVG.pdb
 OpenBabel07022418533D

 46 45  0  0  1  0  0  0  0  0999 V2000
   -1.5880   -1.7110    3.1430 N   0  0  0  0  0  0  0  0  0  0  0  0
   -0.0920   -1.5270    3.1210 C   0  0  1  0  0  0  0  0  0  0  0  0
    0.5190   -2.8790    3.0270 C   0  0  0  0  0  0  0  0  0  0  0  0
    1.9420   -3.1140    3.0520 C   0  0  0  0  0  0  0  0  0  0  0  0
    2.9240   -2.6140    2.1130 C   0  0  0  0  0  0  0  0  0  0  0  0
    2.7370   -2.9540    0.6610 C   0  0  0  0  0  0  0  0  0  0  0  0
    3.8410   -2.3450   -0.0650 N   0  0  0  0  0  0  0  0  0  0  0  0
    0.1990   -0.7180    1.9240 C   0  0  0  0  0  0  0  0  0  0  0  0
    1.2950   -0.2420    1.6840 O   0  0  0  0  0  0  0  0  0  0  0  0
   -1.8130   -2.1670    4.0530 H   0  0  0  0  0  0  0  0  0  0  0  0
   -1.7980   -2.4460    2.4040 H   0  0  0  0  0  0  0  0  0  0  0  0
    0.1610   -1.0160    4.0530 H   0  0  0  0  0  0  0  0  0  0  0  0
    0.0700   -3.4680    3.9130 H   0  0  0  0  0  0  0  0  0  0  0  0
   -0.0240   -3.3780    2.1620 H   0  0  0  0  0  0  0  0  0  0  0  0
    2.1520   -4.2470    3.1920 H   0  0  0  0  0  0  0  0  0  0  0  0
    2.3020   -2.7560    4.0940 H   0  0  0  0  0  0  0  0  0  0  0  0
    3.3320   -1.6030    2.2020 H   0  0  0  0  0  0  0  0  0  0  0  0
    3.8990   -3.2320    2.3620 H   0  0  0  0  0  0  0  0  0  0  0  0
    2.7910   -4.0560    0.5640 H   0  0  0  0  0  0  0  0  0  0  0  0
    1.8160   -2.5790    0.2270 H   0  0  0  0  0  0  0  0  0  0  0  0
    4.7600   -2.7440    0.1910 H   0  0  0  0  0  0  0  0  0  0  0  0
    3.6950   -2.3490   -1.0880 H   0  0  0  0  0  0  0  0  0  0  0  0
   -0.7860    0.8110   -2.5930 C   0  0  0  0  0  0  0  0  0  0  0  0
   -1.1240   -0.2010   -1.5070 C   0  0  0  0  0  0  0  0  0  0  0  0
   -0.5360   -1.5150   -1.9350 C   0  0  0  0  0  0  0  0  0  0  0  0
   -0.6270    0.3270   -0.2250 C   0  0  2  0  0  0  0  0  0  0  0  0
   -0.8160   -0.4370    0.9490 N   0  0  0  0  0  0  0  0  0  0  0  0
   -1.2550    1.6820    0.0160 C   0  0  0  0  0  0  0  0  0  0  0  0
   -1.2350    2.5890   -0.8550 O   0  0  0  0  0  0  0  0  0  0  0  0
    0.1310    1.3990   -2.3250 H   0  0  0  0  0  0  0  0  0  0  0  0
   -1.6420    1.4620   -2.8580 H   0  0  0  0  0  0  0  0  0  0  0  0
   -0.5090    0.2780   -3.5280 H   0  0  0  0  0  0  0  0  0  0  0  0
   -2.2570   -0.2400   -1.5270 H   0  0  0  0  0  0  0  0  0  0  0  0
   -0.1020   -2.0760   -1.0830 H   0  0  0  0  0  0  0  0  0  0  0  0
    0.1690   -1.4140   -2.7960 H   0  0  0  0  0  0  0  0  0  0  0  0
   -1.3350   -2.2150   -2.3270 H   0  0  0  0  0  0  0  0  0  0  0  0
    0.4640    0.5670   -0.3260 H   0  0  0  0  0  0  0  0  0  0  0  0
   -1.7620   -0.8360    1.1400 H   0  0  0  0  0  0  0  0  0  0  0  0
   -1.8970    1.9870    1.2470 N   0  0  0  0  0  0  0  0  0  0  0  0
   -2.4850    3.3050    1.4390 C   0  0  0  0  0  0  0  0  0  0  0  0
   -1.4580    4.3700    1.3200 C   0  0  0  0  0  0  0  0  0  0  0  0
   -1.7530    5.5810    1.4500 O   0  0  0  0  0  0  0  0  0  0  0  0
   -0.1390    4.0430    1.0610 O   0  0  0  0  0  0  0  0  0  0  0  0
   -1.9500    1.2630    2.0200 H   0  0  0  0  0  0  0  0  0  0  0  0
   -2.9710    3.3300    2.4490 H   0  0  0  0  0  0  0  0  0  0  0  0
   -3.3040    3.4800    0.7180 H   0  0  0  0  0  0  0  0  0  0  0  0
  1 10  1  0  0  0  0
  2  1  1  0  0  0  0
  2 12  1  1  0  0  0
  3  4  1  0  0  0  0
  3  2  1  0  0  0  0
  3 13  1  0  0  0  0
  4 15  1  0  0  0  0
  4 16  1  0  0  0  0
  5 17  1  0  0  0  0
  5 18  1  0  0  0  0
  5  4  1  0  0  0  0
  6  5  1  0  0  0  0
  7 21  1  0  0  0  0
  7  6  1  0  0  0  0
  8  2  1  0  0  0  0
  9  8  2  0  0  0  0
 11  1  1  0  0  0  0
 14  3  1  0  0  0  0
 19  6  1  0  0  0  0
 20  6  1  0  0  0  0
 22  7  1  0  0  0  0
 23 30  1  0  0  0  0
 23 24  1  0  0  0  0
 24 26  1  0  0  0  0
 25 24  1  0  0  0  0
 25 34  1  0  0  0  0
 26 37  1  6  0  0  0
 26 28  1  0  0  0  0
 26 27  1  0  0  0  0
 27 38  1  0  0  0  0
 27  8  1  0  0  0  0
 28 39  1  0  0  0  0
 29 28  2  0  0  0  0
 31 23  1  0  0  0  0
 32 23  1  0  0  0  0
 33 24  1  0  0  0  0
 35 25  1  0  0  0  0
 36 25  1  0  0  0  0
 39 40  1  0  0  0  0
 39 44  1  0  0  0  0
 40 45  1  0  0  0  0
 41 40  1  0  0  0  0
 41 42  1  0  0  0  0
 43 41  2  0  0  0  0
 46 40  1  0  0  0  0
M  END
$$$$
