KVH.pdb
 OpenBabel07022418533D

 56 56  0  0  1  0  0  0  0  0999 V2000
   -0.5760    1.5400    3.8090 N   0  0  0  0  0  0  0  0  0  0  0  0
    0.5030    1.8790    2.8900 C   0  0  1  0  0  0  0  0  0  0  0  0
    1.7830    1.5620    3.6210 C   0  0  0  0  0  0  0  0  0  0  0  0
    3.0280    1.8470    2.8420 C   0  0  0  0  0  0  0  0  0  0  0  0
    4.2310    1.4980    3.7010 C   0  0  0  0  0  0  0  0  0  0  0  0
    4.2460    0.0420    4.1060 C   0  0  0  0  0  0  0  0  0  0  0  0
    4.2850   -0.8480    2.9560 N   0  0  0  0  0  0  0  0  0  0  0  0
    0.4390    1.0330    1.6720 C   0  0  0  0  0  0  0  0  0  0  0  0
    1.2080    1.2020    0.7180 O   0  0  0  0  0  0  0  0  0  0  0  0
   -0.3950    0.6540    4.2880 H   0  0  0  0  0  0  0  0  0  0  0  0
   -1.5110    1.6760    3.4170 H   0  0  0  0  0  0  0  0  0  0  0  0
    0.4960    2.9240    2.5890 H   0  0  0  0  0  0  0  0  0  0  0  0
    1.7890    0.4960    3.9780 H   0  0  0  0  0  0  0  0  0  0  0  0
    1.8020    2.2230    4.5240 H   0  0  0  0  0  0  0  0  0  0  0  0
    3.1460    1.2370    1.9220 H   0  0  0  0  0  0  0  0  0  0  0  0
    3.0820    2.9330    2.6530 H   0  0  0  0  0  0  0  0  0  0  0  0
    4.3030    2.1010    4.6080 H   0  0  0  0  0  0  0  0  0  0  0  0
    5.1430    1.6570    3.0630 H   0  0  0  0  0  0  0  0  0  0  0  0
    3.4860   -0.2330    4.8340 H   0  0  0  0  0  0  0  0  0  0  0  0
    5.2390   -0.1080    4.6210 H   0  0  0  0  0  0  0  0  0  0  0  0
    3.4820   -0.7350    2.3230 H   0  0  0  0  0  0  0  0  0  0  0  0
    5.1900   -0.6890    2.4600 H   0  0  0  0  0  0  0  0  0  0  0  0
    1.0960   -2.3590    1.3200 C   0  0  0  0  0  0  0  0  0  0  0  0
   -0.3050   -2.3000    0.7390 C   0  0  0  0  0  0  0  0  0  0  0  0
   -1.2260   -2.8110    1.8170 C   0  0  0  0  0  0  0  0  0  0  0  0
   -0.6010   -0.8650    0.3610 C   0  0  2  0  0  0  0  0  0  0  0  0
   -0.5160   -0.0250    1.5360 N   0  0  0  0  0  0  0  0  0  0  0  0
   -1.9200   -0.7300   -0.3150 C   0  0  0  0  0  0  0  0  0  0  0  0
   -2.8050    0.0460    0.1450 O   0  0  0  0  0  0  0  0  0  0  0  0
    1.1780   -3.1670    2.0770 H   0  0  0  0  0  0  0  0  0  0  0  0
    1.2140   -1.3980    1.9030 H   0  0  0  0  0  0  0  0  0  0  0  0
    1.8760   -2.3730    0.5570 H   0  0  0  0  0  0  0  0  0  0  0  0
   -0.2990   -2.9610   -0.1510 H   0  0  0  0  0  0  0  0  0  0  0  0
   -1.0430   -3.9020    1.9080 H   0  0  0  0  0  0  0  0  0  0  0  0
   -0.9580   -2.3170    2.7800 H   0  0  0  0  0  0  0  0  0  0  0  0
   -2.2940   -2.6870    1.5790 H   0  0  0  0  0  0  0  0  0  0  0  0
    0.1600   -0.5750   -0.3940 H   0  0  0  0  0  0  0  0  0  0  0  0
   -1.1630   -0.1770    2.3260 H   0  0  0  0  0  0  0  0  0  0  0  0
   -2.2410   -1.4550   -1.4910 N   0  0  0  0  0  0  0  0  0  0  0  0
   -3.5170   -1.3360   -2.1610 C   0  0  1  0  0  0  0  0  0  0  0  0
   -3.3730   -0.7510   -3.5460 C   0  0  0  0  0  0  0  0  0  0  0  0
   -2.5100   -1.5790   -4.4180 C   0  0  0  0  0  0  0  0  0  0  0  0
   -2.2250   -1.2590   -5.7240 C   0  0  0  0  0  0  0  0  0  0  0  0
   -1.4260   -2.2020   -6.2300 N   0  0  0  0  0  0  0  0  0  0  0  0
   -1.2140   -3.0960   -5.2560 C   0  0  0  0  0  0  0  0  0  0  0  0
   -1.8700   -2.7240   -4.1530 N   0  0  0  0  0  0  0  0  0  0  0  0
   -4.2650   -2.6120   -2.1630 C   0  0  0  0  0  0  0  0  0  0  0  0
   -5.3960   -2.7350   -2.6900 O   0  0  0  0  0  0  0  0  0  0  0  0
   -3.7130   -3.7320   -1.5620 O   0  0  0  0  0  0  0  0  0  0  0  0
   -1.4810   -2.0940   -1.8500 H   0  0  0  0  0  0  0  0  0  0  0  0
   -4.1210   -0.6020   -1.5740 H   0  0  0  0  0  0  0  0  0  0  0  0
   -4.3610   -0.6180   -4.0250 H   0  0  0  0  0  0  0  0  0  0  0  0
   -2.9090    0.2480   -3.4330 H   0  0  0  0  0  0  0  0  0  0  0  0
   -2.5700   -0.3990   -6.2870 H   0  0  0  0  0  0  0  0  0  0  0  0
   -1.0520   -2.2060   -7.2160 H   0  0  0  0  0  0  0  0  0  0  0  0
   -0.5860   -3.9710   -5.4230 H   0  0  0  0  0  0  0  0  0  0  0  0
  1 10  1  0  0  0  0
  2 12  1  6  0  0  0
  2  3  1  0  0  0  0
  2  1  1  0  0  0  0
  3 13  1  0  0  0  0
  3 14  1  0  0  0  0
  4  3  1  0  0  0  0
  4  5  1  0  0  0  0
  5  6  1  0  0  0  0
  5 17  1  0  0  0  0
  6 20  1  0  0  0  0
  6 19  1  0  0  0  0
  7  6  1  0  0  0  0
  8  2  1  0  0  0  0
  9  8  2  0  0  0  0
 11  1  1  0  0  0  0
 15  4  1  0  0  0  0
 16  4  1  0  0  0  0
 18  5  1  0  0  0  0
 21  7  1  0  0  0  0
 22  7  1  0  0  0  0
 23 31  1  0  0  0  0
 23 30  1  0  0  0  0
 24 23  1  0  0  0  0
 24 25  1  0  0  0  0
 25 34  1  0  0  0  0
 25 35  1  0  0  0  0
 26 37  1  6  0  0  0
 26 24  1  0  0  0  0
 26 27  1  0  0  0  0
 27  8  1  0  0  0  0
 27 38  1  0  0  0  0
 28 29  2  0  0  0  0
 28 26  1  0  0  0  0
 32 23  1  0  0  0  0
 33 24  1  0  0  0  0
 36 25  1  0  0  0  0
 39 28  1  0  0  0  0
 40 51  1  1  0  0  0
 40 39  1  0  0  0  0
 41 53  1  0  0  0  0
 41 40  1  0  0  0  0
 42 46  1  0  0  0  0
 42 41  1  0  0  0  0
 43 42  2  0  0  0  0
 44 43  1  0  0  0  0
 44 45  1  0  0  0  0
 45 46  2  0  0  0  0
 47 40  1  0  0  0  0
 47 49  1  0  0  0  0
 48 47  2  0  0  0  0
 50 39  1  0  0  0  0
 52 41  1  0  0  0  0
 54 43  1  0  0  0  0
 55 44  1  0  0  0  0
 56 45  1  0  0  0  0
M  END
$$$$
