KVI.pdb
 OpenBabel07022418533D

 58 57  0  0  1  0  0  0  0  0999 V2000
    1.7210   -2.1830    4.6150 N   0  0  0  0  0  0  0  0  0  0  0  0
    1.6090   -1.6400    3.2230 C   0  0  1  0  0  0  0  0  0  0  0  0
    1.9280   -2.8050    2.3550 C   0  0  0  0  0  0  0  0  0  0  0  0
    1.9340   -2.5930    0.8920 C   0  0  0  0  0  0  0  0  0  0  0  0
    2.9500   -1.5700    0.4310 C   0  0  0  0  0  0  0  0  0  0  0  0
    4.3620   -1.9870    0.8020 C   0  0  0  0  0  0  0  0  0  0  0  0
    5.2460   -0.9310    0.3100 N   0  0  0  0  0  0  0  0  0  0  0  0
    0.2280   -1.1290    3.1360 C   0  0  0  0  0  0  0  0  0  0  0  0
   -0.6160   -1.3300    4.0920 O   0  0  0  0  0  0  0  0  0  0  0  0
    2.6450   -2.7000    4.6910 H   0  0  0  0  0  0  0  0  0  0  0  0
    0.9960   -2.9540    4.6930 H   0  0  0  0  0  0  0  0  0  0  0  0
    2.3690   -0.8310    3.1940 H   0  0  0  0  0  0  0  0  0  0  0  0
    1.2060   -3.6180    2.6110 H   0  0  0  0  0  0  0  0  0  0  0  0
    2.9240   -3.1870    2.6640 H   0  0  0  0  0  0  0  0  0  0  0  0
    0.9880   -2.3880    0.4060 H   0  0  0  0  0  0  0  0  0  0  0  0
    2.2970   -3.5670    0.4300 H   0  0  0  0  0  0  0  0  0  0  0  0
    2.9060   -1.5420   -0.6780 H   0  0  0  0  0  0  0  0  0  0  0  0
    2.7210   -0.5760    0.8090 H   0  0  0  0  0  0  0  0  0  0  0  0
    4.5060   -2.0950    1.8760 H   0  0  0  0  0  0  0  0  0  0  0  0
    4.6140   -2.8940    0.2120 H   0  0  0  0  0  0  0  0  0  0  0  0
    5.1360   -0.1250    0.9960 H   0  0  0  0  0  0  0  0  0  0  0  0
    6.2490   -1.2140    0.3580 H   0  0  0  0  0  0  0  0  0  0  0  0
   -0.7900    2.2910    0.9810 C   0  0  0  0  0  0  0  0  0  0  0  0
   -1.5680    1.6190    2.0660 C   0  0  0  0  0  0  0  0  0  0  0  0
   -0.9820    2.0590    3.3990 C   0  0  0  0  0  0  0  0  0  0  0  0
   -1.5620    0.1040    1.9490 C   0  0  2  0  0  0  0  0  0  0  0  0
   -0.2200   -0.4010    2.0160 N   0  0  0  0  0  0  0  0  0  0  0  0
   -2.3330   -0.2390    0.7590 C   0  0  0  0  0  0  0  0  0  0  0  0
   -3.5420    0.1950    0.7370 O   0  0  0  0  0  0  0  0  0  0  0  0
    0.3100    2.3210    1.1920 H   0  0  0  0  0  0  0  0  0  0  0  0
   -1.1010    3.3720    0.9790 H   0  0  0  0  0  0  0  0  0  0  0  0
   -1.0210    1.9010   -0.0110 H   0  0  0  0  0  0  0  0  0  0  0  0
   -2.6070    2.0080    2.0360 H   0  0  0  0  0  0  0  0  0  0  0  0
   -0.0470    1.4830    3.6280 H   0  0  0  0  0  0  0  0  0  0  0  0
   -0.7320    3.1400    3.2930 H   0  0  0  0  0  0  0  0  0  0  0  0
   -1.6920    1.9350    4.2210 H   0  0  0  0  0  0  0  0  0  0  0  0
   -2.1330   -0.2550    2.8570 H   0  0  0  0  0  0  0  0  0  0  0  0
    0.4270   -0.2250    1.2300 H   0  0  0  0  0  0  0  0  0  0  0  0
    0.1250   -0.4610   -2.5250 C   0  0  0  0  0  0  0  0  0  0  0  0
   -1.0360   -1.0140   -3.2770 C   0  0  0  0  0  0  0  0  0  0  0  0
   -2.3790   -0.6110   -2.7580 C   0  0  2  0  0  0  0  0  0  0  0  0
   -2.5330    0.8830   -2.7890 C   0  0  0  0  0  0  0  0  0  0  0  0
   -2.7780   -1.2470   -1.4610 C   0  0  2  0  0  0  0  0  0  0  0  0
   -1.9110   -0.9830   -0.3560 N   0  0  0  0  0  0  0  0  0  0  0  0
   -3.0210   -2.6910   -1.6660 C   0  0  0  0  0  0  0  0  0  0  0  0
   -3.7600   -3.0620   -2.5970 O   0  0  0  0  0  0  0  0  0  0  0  0
   -2.4190   -3.5950   -0.8160 O   0  0  0  0  0  0  0  0  0  0  0  0
    0.7460   -1.2740   -2.0460 H   0  0  0  0  0  0  0  0  0  0  0  0
   -0.1220    0.3530   -1.8160 H   0  0  0  0  0  0  0  0  0  0  0  0
    0.8270    0.0060   -3.2700 H   0  0  0  0  0  0  0  0  0  0  0  0
   -0.9270   -2.1300   -3.2870 H   0  0  0  0  0  0  0  0  0  0  0  0
   -1.0050   -0.7070   -4.3510 H   0  0  0  0  0  0  0  0  0  0  0  0
   -3.1290   -0.9990   -3.5180 H   0  0  0  0  0  0  0  0  0  0  0  0
   -1.7830    1.4460   -2.2380 H   0  0  0  0  0  0  0  0  0  0  0  0
   -3.5810    1.1510   -2.4860 H   0  0  0  0  0  0  0  0  0  0  0  0
   -2.4680    1.1960   -3.8630 H   0  0  0  0  0  0  0  0  0  0  0  0
   -3.7950   -0.8160   -1.2040 H   0  0  0  0  0  0  0  0  0  0  0  0
   -0.9520   -1.3510   -0.3810 H   0  0  0  0  0  0  0  0  0  0  0  0
  1 10  1  0  0  0  0
  1 11  1  0  0  0  0
  2 12  1  6  0  0  0
  2  1  1  0  0  0  0
  3 13  1  0  0  0  0
  3 14  1  0  0  0  0
  3  2  1  0  0  0  0
  4  3  1  0  0  0  0
  5  6  1  0  0  0  0
  5 18  1  0  0  0  0
  5  4  1  0  0  0  0
  6 19  1  0  0  0  0
  7 22  1  0  0  0  0
  7  6  1  0  0  0  0
  7 21  1  0  0  0  0
  8  2  1  0  0  0  0
  8  9  2  0  0  0  0
 15  4  1  0  0  0  0
 16  4  1  0  0  0  0
 17  5  1  0  0  0  0
 20  6  1  0  0  0  0
 23 30  1  0  0  0  0
 23 24  1  0  0  0  0
 24 25  1  0  0  0  0
 25 34  1  0  0  0  0
 25 36  1  0  0  0  0
 26 27  1  0  0  0  0
 26 24  1  0  0  0  0
 26 37  1  1  0  0  0
 27  8  1  0  0  0  0
 28 26  1  0  0  0  0
 29 28  2  0  0  0  0
 31 23  1  0  0  0  0
 32 23  1  0  0  0  0
 33 24  1  0  0  0  0
 35 25  1  0  0  0  0
 38 27  1  0  0  0  0
 39 48  1  0  0  0  0
 39 49  1  0  0  0  0
 40 41  1  0  0  0  0
 40 39  1  0  0  0  0
 41 53  1  6  0  0  0
 41 43  1  0  0  0  0
 42 41  1  0  0  0  0
 42 55  1  0  0  0  0
 42 54  1  0  0  0  0
 43 57  1  1  0  0  0
 43 44  1  0  0  0  0
 44 28  1  0  0  0  0
 45 43  1  0  0  0  0
 45 47  1  0  0  0  0
 46 45  2  0  0  0  0
 50 39  1  0  0  0  0
 51 40  1  0  0  0  0
 52 40  1  0  0  0  0
 56 42  1  0  0  0  0
 58 44  1  0  0  0  0
M  END
$$$$
