KVM.pdb
 OpenBabel07022418533D

 56 55  0  0  1  0  0  0  0  0999 V2000
   -0.3000    0.3050    4.2720 N   0  0  0  0  0  0  0  0  0  0  0  0
    0.2250   -0.0650    2.9720 C   0  0  1  0  0  0  0  0  0  0  0  0
   -0.2030   -1.4740    2.6970 C   0  0  0  0  0  0  0  0  0  0  0  0
    0.2850   -2.4790    3.7070 C   0  0  0  0  0  0  0  0  0  0  0  0
    1.7770   -2.4630    3.7170 C   0  0  0  0  0  0  0  0  0  0  0  0
    2.3670   -3.4510    4.7020 C   0  0  0  0  0  0  0  0  0  0  0  0
    3.8240   -3.3140    4.5900 N   0  0  0  0  0  0  0  0  0  0  0  0
   -0.4310    0.8600    1.9790 C   0  0  0  0  0  0  0  0  0  0  0  0
   -1.2560    1.7470    2.3310 O   0  0  0  0  0  0  0  0  0  0  0  0
   -1.3460    0.2830    4.1930 H   0  0  0  0  0  0  0  0  0  0  0  0
    0.0030   -0.3210    5.0360 H   0  0  0  0  0  0  0  0  0  0  0  0
    1.3240    0.0520    2.9240 H   0  0  0  0  0  0  0  0  0  0  0  0
    0.1800   -1.8430    1.7010 H   0  0  0  0  0  0  0  0  0  0  0  0
   -1.3090   -1.5750    2.6580 H   0  0  0  0  0  0  0  0  0  0  0  0
   -0.1660   -2.3300    4.7100 H   0  0  0  0  0  0  0  0  0  0  0  0
   -0.0300   -3.4920    3.3420 H   0  0  0  0  0  0  0  0  0  0  0  0
    2.1480   -2.7280    2.7230 H   0  0  0  0  0  0  0  0  0  0  0  0
    2.1450   -1.4420    3.9980 H   0  0  0  0  0  0  0  0  0  0  0  0
    2.0360   -3.2770    5.7400 H   0  0  0  0  0  0  0  0  0  0  0  0
    2.1200   -4.4900    4.4310 H   0  0  0  0  0  0  0  0  0  0  0  0
    4.0820   -2.2990    4.4310 H   0  0  0  0  0  0  0  0  0  0  0  0
    4.1730   -3.8340    3.7480 H   0  0  0  0  0  0  0  0  0  0  0  0
    1.4120    1.4660   -1.8780 C   0  0  0  0  0  0  0  0  0  0  0  0
    0.3830    2.3190   -1.2080 C   0  0  0  0  0  0  0  0  0  0  0  0
    1.0180    3.3920   -0.3540 C   0  0  0  0  0  0  0  0  0  0  0  0
   -0.6540    1.5330   -0.4420 C   0  0  2  0  0  0  0  0  0  0  0  0
   -0.1100    0.7270    0.6030 N   0  0  0  0  0  0  0  0  0  0  0  0
   -1.4640    0.6890   -1.3540 C   0  0  0  0  0  0  0  0  0  0  0  0
   -2.0230    1.2270   -2.3430 O   0  0  0  0  0  0  0  0  0  0  0  0
    2.4510    1.7900   -1.5970 H   0  0  0  0  0  0  0  0  0  0  0  0
    1.2280    0.4100   -1.6240 H   0  0  0  0  0  0  0  0  0  0  0  0
    1.3850    1.5440   -2.9910 H   0  0  0  0  0  0  0  0  0  0  0  0
   -0.1790    2.8580   -2.0200 H   0  0  0  0  0  0  0  0  0  0  0  0
    1.9250    2.9770    0.1760 H   0  0  0  0  0  0  0  0  0  0  0  0
    1.4080    4.2360   -0.9560 H   0  0  0  0  0  0  0  0  0  0  0  0
    0.3040    3.8190    0.3780 H   0  0  0  0  0  0  0  0  0  0  0  0
   -1.3780    2.3070   -0.0490 H   0  0  0  0  0  0  0  0  0  0  0  0
    0.5750   -0.0150    0.3440 H   0  0  0  0  0  0  0  0  0  0  0  0
   -0.4390   -0.7860   -4.5770 C   0  0  0  0  0  0  0  0  0  0  0  0
   -0.2010   -2.5300   -4.3130 S   0  0  0  0  0  0  0  0  0  0  0  0
   -0.3580   -2.9970   -2.5970 C   0  0  0  0  0  0  0  0  0  0  0  0
   -1.7390   -2.9220   -2.0480 C   0  0  0  0  0  0  0  0  0  0  0  0
   -2.4000   -1.5870   -1.9950 C   0  0  2  0  0  0  0  0  0  0  0  0
   -1.6230   -0.6850   -1.1460 N   0  0  0  0  0  0  0  0  0  0  0  0
   -3.7300   -1.7270   -1.2580 C   0  0  0  0  0  0  0  0  0  0  0  0
   -3.9520   -1.1400   -0.1770 O   0  0  0  0  0  0  0  0  0  0  0  0
   -4.7360   -2.5230   -1.7840 O   0  0  0  0  0  0  0  0  0  0  0  0
   -1.4720   -0.4880   -4.8380 H   0  0  0  0  0  0  0  0  0  0  0  0
   -0.1220   -0.1840   -3.6970 H   0  0  0  0  0  0  0  0  0  0  0  0
    0.2240   -0.5020   -5.4670 H   0  0  0  0  0  0  0  0  0  0  0  0
    0.3300   -2.3930   -1.9350 H   0  0  0  0  0  0  0  0  0  0  0  0
    0.0020   -4.0610   -2.4190 H   0  0  0  0  0  0  0  0  0  0  0  0
   -1.7020   -3.3880   -1.0130 H   0  0  0  0  0  0  0  0  0  0  0  0
   -2.4370   -3.5990   -2.6300 H   0  0  0  0  0  0  0  0  0  0  0  0
   -2.6630   -1.1280   -2.9440 H   0  0  0  0  0  0  0  0  0  0  0  0
   -1.1460   -1.1260   -0.3060 H   0  0  0  0  0  0  0  0  0  0  0  0
  1 11  1  0  0  0  0
  2 12  1  6  0  0  0
  2  1  1  0  0  0  0
  3  2  1  0  0  0  0
  3  4  1  0  0  0  0
  4  5  1  0  0  0  0
  4 15  1  0  0  0  0
  5 18  1  0  0  0  0
  5  6  1  0  0  0  0
  6 19  1  0  0  0  0
  7  6  1  0  0  0  0
  8  9  2  0  0  0  0
  8  2  1  0  0  0  0
 10  1  1  0  0  0  0
 13  3  1  0  0  0  0
 14  3  1  0  0  0  0
 16  4  1  0  0  0  0
 17  5  1  0  0  0  0
 20  6  1  0  0  0  0
 21  7  1  0  0  0  0
 22  7  1  0  0  0  0
 23 31  1  0  0  0  0
 23 30  1  0  0  0  0
 23 24  1  0  0  0  0
 24 26  1  0  0  0  0
 24 25  1  0  0  0  0
 25 34  1  0  0  0  0
 25 36  1  0  0  0  0
 26 37  1  1  0  0  0
 26 27  1  0  0  0  0
 27  8  1  0  0  0  0
 28 44  1  0  0  0  0
 28 26  1  0  0  0  0
 29 28  2  0  0  0  0
 32 23  1  0  0  0  0
 33 24  1  0  0  0  0
 35 25  1  0  0  0  0
 38 27  1  0  0  0  0
 39 40  1  0  0  0  0
 39 49  1  0  0  0  0
 40 41  1  0  0  0  0
 41 52  1  0  0  0  0
 41 42  1  0  0  0  0
 41 51  1  0  0  0  0
 42 43  1  0  0  0  0
 42 53  1  0  0  0  0
 43 55  1  6  0  0  0
 43 45  1  0  0  0  0
 43 44  1  0  0  0  0
 44 56  1  0  0  0  0
 45 46  1  0  0  0  0
 47 45  2  0  0  0  0
 48 39  1  0  0  0  0
 50 39  1  0  0  0  0
 54 42  1  0  0  0  0
M  END
$$$$
