KVR.pdb
 OpenBabel07022418533D

 62 61  0  0  1  0  0  0  0  0999 V2000
   -3.0760    1.5120    2.9050 N   0  0  0  0  0  0  0  0  0  0  0  0
   -1.6330    1.1970    2.6600 C   0  0  1  0  0  0  0  0  0  0  0  0
   -1.4040   -0.1200    3.2570 C   0  0  0  0  0  0  0  0  0  0  0  0
   -0.0070   -0.6640    3.1480 C   0  0  0  0  0  0  0  0  0  0  0  0
    0.1180   -1.9810    3.9010 C   0  0  0  0  0  0  0  0  0  0  0  0
    1.5370   -2.4650    3.8100 C   0  0  0  0  0  0  0  0  0  0  0  0
    1.9240   -2.6950    2.4580 N   0  0  0  0  0  0  0  0  0  0  0  0
   -1.3280    1.5080    1.2910 C   0  0  0  0  0  0  0  0  0  0  0  0
   -2.3260    1.8960    0.5510 O   0  0  0  0  0  0  0  0  0  0  0  0
   -3.4670    2.0310    2.1060 H   0  0  0  0  0  0  0  0  0  0  0  0
   -3.1960    1.9880    3.8060 H   0  0  0  0  0  0  0  0  0  0  0  0
   -1.0780    1.9500    3.3340 H   0  0  0  0  0  0  0  0  0  0  0  0
   -1.5770   -0.0030    4.3790 H   0  0  0  0  0  0  0  0  0  0  0  0
   -2.1670   -0.8900    2.9830 H   0  0  0  0  0  0  0  0  0  0  0  0
    0.7310    0.0500    3.4970 H   0  0  0  0  0  0  0  0  0  0  0  0
    0.1210   -0.8970    2.0480 H   0  0  0  0  0  0  0  0  0  0  0  0
   -0.5630   -2.7420    3.5250 H   0  0  0  0  0  0  0  0  0  0  0  0
   -0.0750   -1.7790    4.9870 H   0  0  0  0  0  0  0  0  0  0  0  0
    2.2020   -1.7010    4.3040 H   0  0  0  0  0  0  0  0  0  0  0  0
    1.6570   -3.4100    4.4240 H   0  0  0  0  0  0  0  0  0  0  0  0
    1.8490   -1.8770    1.8600 H   0  0  0  0  0  0  0  0  0  0  0  0
    1.6510   -3.6110    2.0990 H   0  0  0  0  0  0  0  0  0  0  0  0
    2.6240    2.1500   -0.4100 C   0  0  0  0  0  0  0  0  0  0  0  0
    1.3150    2.7520   -0.8750 C   0  0  0  0  0  0  0  0  0  0  0  0
    1.1090    4.0700   -0.1770 C   0  0  0  0  0  0  0  0  0  0  0  0
    0.1570    1.8030   -0.6660 C   0  0  2  0  0  0  0  0  0  0  0  0
   -0.0410    1.4360    0.6880 N   0  0  0  0  0  0  0  0  0  0  0  0
    0.2750    0.7120   -1.6450 C   0  0  0  0  0  0  0  0  0  0  0  0
    0.6380    1.1150   -2.8270 O   0  0  0  0  0  0  0  0  0  0  0  0
    2.9590    2.6600    0.5400 H   0  0  0  0  0  0  0  0  0  0  0  0
    2.5530    1.0820   -0.1800 H   0  0  0  0  0  0  0  0  0  0  0  0
    3.4550    2.3750   -1.1360 H   0  0  0  0  0  0  0  0  0  0  0  0
    1.4360    2.9730   -1.9550 H   0  0  0  0  0  0  0  0  0  0  0  0
    0.6530    3.9650    0.8190 H   0  0  0  0  0  0  0  0  0  0  0  0
    2.1160    4.5220   -0.0300 H   0  0  0  0  0  0  0  0  0  0  0  0
    0.5510    4.8010   -0.8280 H   0  0  0  0  0  0  0  0  0  0  0  0
   -0.7690    2.4260   -0.9560 H   0  0  0  0  0  0  0  0  0  0  0  0
    0.7660    1.1240    1.2780 H   0  0  0  0  0  0  0  0  0  0  0  0
   -3.0540   -1.8550   -0.1440 N   0  0  0  0  0  0  0  0  0  0  0  0
   -2.3200   -3.0440   -0.0070 C   0  0  0  0  0  0  0  0  0  0  0  0
   -2.0710   -3.5210    1.1750 N   0  0  0  0  0  0  0  0  0  0  0  0
   -1.8190   -3.8030   -1.1260 N   0  0  0  0  0  0  0  0  0  0  0  0
   -0.5700   -4.4850   -1.0870 C   0  0  0  0  0  0  0  0  0  0  0  0
    0.6610   -3.6730   -1.0280 C   0  0  0  0  0  0  0  0  0  0  0  0
    1.0250   -2.7710   -2.1190 C   0  0  0  0  0  0  0  0  0  0  0  0
    0.2030   -1.6120   -2.4850 C   0  0  2  0  0  0  0  0  0  0  0  0
    0.0400   -0.6650   -1.4310 N   0  0  0  0  0  0  0  0  0  0  0  0
   -1.0060   -1.9280   -3.2580 C   0  0  0  0  0  0  0  0  0  0  0  0
   -0.8620   -2.8100   -4.1660 O   0  0  0  0  0  0  0  0  0  0  0  0
   -2.2510   -1.3910   -3.1190 O   0  0  0  0  0  0  0  0  0  0  0  0
   -2.8760   -0.9680    0.3830 H   0  0  0  0  0  0  0  0  0  0  0  0
   -3.8690   -1.7970   -0.8250 H   0  0  0  0  0  0  0  0  0  0  0  0
   -2.3940   -3.0580    2.0400 H   0  0  0  0  0  0  0  0  0  0  0  0
   -2.4360   -3.8540   -1.9590 H   0  0  0  0  0  0  0  0  0  0  0  0
   -0.4930   -5.2150   -1.9660 H   0  0  0  0  0  0  0  0  0  0  0  0
   -0.6050   -5.2240   -0.2110 H   0  0  0  0  0  0  0  0  0  0  0  0
    1.5350   -4.4090   -0.9190 H   0  0  0  0  0  0  0  0  0  0  0  0
    0.7020   -3.1590   -0.0120 H   0  0  0  0  0  0  0  0  0  0  0  0
    2.1090   -2.4470   -1.9180 H   0  0  0  0  0  0  0  0  0  0  0  0
    1.1750   -3.4170   -3.0430 H   0  0  0  0  0  0  0  0  0  0  0  0
    0.8470   -1.0270   -3.2720 H   0  0  0  0  0  0  0  0  0  0  0  0
   -0.2550   -0.9840   -0.4940 H   0  0  0  0  0  0  0  0  0  0  0  0
  1 11  1  0  0  0  0
  2  1  1  0  0  0  0
  2  3  1  0  0  0  0
  2 12  1  1  0  0  0
  3 13  1  0  0  0  0
  4  3  1  0  0  0  0
  4 15  1  0  0  0  0
  4  5  1  0  0  0  0
  5 18  1  0  0  0  0
  6  5  1  0  0  0  0
  6 19  1  0  0  0  0
  6 20  1  0  0  0  0
  7  6  1  0  0  0  0
  8  2  1  0  0  0  0
  9  8  2  0  0  0  0
 10  1  1  0  0  0  0
 14  3  1  0  0  0  0
 16  4  1  0  0  0  0
 17  5  1  0  0  0  0
 21  7  1  0  0  0  0
 22  7  1  0  0  0  0
 23 31  1  0  0  0  0
 23 30  1  0  0  0  0
 24 26  1  0  0  0  0
 24 23  1  0  0  0  0
 24 25  1  0  0  0  0
 25 35  1  0  0  0  0
 25 34  1  0  0  0  0
 26 37  1  6  0  0  0
 26 27  1  0  0  0  0
 27 38  1  0  0  0  0
 27  8  1  0  0  0  0
 28 47  1  0  0  0  0
 28 26  1  0  0  0  0
 29 28  2  0  0  0  0
 32 23  1  0  0  0  0
 33 24  1  0  0  0  0
 36 25  1  0  0  0  0
 39 40  1  0  0  0  0
 39 51  1  0  0  0  0
 40 41  2  0  0  0  0
 41 53  1  0  0  0  0
 42 43  1  0  0  0  0
 42 40  1  0  0  0  0
 43 44  1  0  0  0  0
 43 56  1  0  0  0  0
 44 57  1  0  0  0  0
 44 58  1  0  0  0  0
 45 59  1  0  0  0  0
 45 44  1  0  0  0  0
 46 61  1  6  0  0  0
 46 45  1  0  0  0  0
 46 47  1  0  0  0  0
 47 62  1  0  0  0  0
 48 50  1  0  0  0  0
 48 46  1  0  0  0  0
 49 48  2  0  0  0  0
 52 39  1  0  0  0  0
 54 42  1  0  0  0  0
 55 43  1  0  0  0  0
 60 45  1  0  0  0  0
M  END
$$$$
