KVS.pdb
 OpenBabel07022418533D

 50 49  0  0  1  0  0  0  0  0999 V2000
   -0.2880   -2.7300    4.3650 N   0  0  0  0  0  0  0  0  0  0  0  0
    0.4430   -2.0170    3.3380 C   0  0  1  0  0  0  0  0  0  0  0  0
    0.6670   -2.8640    2.1140 C   0  0  0  0  0  0  0  0  0  0  0  0
   -0.5800   -3.3410    1.4540 C   0  0  0  0  0  0  0  0  0  0  0  0
   -0.2140   -4.1850    0.2620 C   0  0  0  0  0  0  0  0  0  0  0  0
    0.5900   -3.4790   -0.7770 C   0  0  0  0  0  0  0  0  0  0  0  0
    0.8600   -4.4370   -1.8620 N   0  0  0  0  0  0  0  0  0  0  0  0
   -0.1470   -0.6960    3.0410 C   0  0  0  0  0  0  0  0  0  0  0  0
   -1.1960   -0.2750    3.6430 O   0  0  0  0  0  0  0  0  0  0  0  0
   -0.3750   -3.7510    4.1740 H   0  0  0  0  0  0  0  0  0  0  0  0
   -1.2420   -2.3140    4.4100 H   0  0  0  0  0  0  0  0  0  0  0  0
    1.4730   -1.8020    3.7470 H   0  0  0  0  0  0  0  0  0  0  0  0
    1.3030   -3.7330    2.3510 H   0  0  0  0  0  0  0  0  0  0  0  0
    1.2280   -2.2540    1.3580 H   0  0  0  0  0  0  0  0  0  0  0  0
   -1.2820   -2.5480    1.1800 H   0  0  0  0  0  0  0  0  0  0  0  0
   -1.0890   -4.0360    2.1810 H   0  0  0  0  0  0  0  0  0  0  0  0
   -1.1610   -4.5320   -0.2450 H   0  0  0  0  0  0  0  0  0  0  0  0
    0.3300   -5.1080    0.5650 H   0  0  0  0  0  0  0  0  0  0  0  0
    0.0450   -2.6360   -1.2060 H   0  0  0  0  0  0  0  0  0  0  0  0
    1.5910   -3.1670   -0.4230 H   0  0  0  0  0  0  0  0  0  0  0  0
    1.7480   -4.2390   -2.3460 H   0  0  0  0  0  0  0  0  0  0  0  0
    0.0520   -4.3770   -2.5020 H   0  0  0  0  0  0  0  0  0  0  0  0
    0.3190    3.8700    1.7870 C   0  0  0  0  0  0  0  0  0  0  0  0
    0.9060    2.5190    2.1160 C   0  0  0  0  0  0  0  0  0  0  0  0
    1.2730    2.5090    3.5720 C   0  0  0  0  0  0  0  0  0  0  0  0
   -0.0510    1.4030    1.7500 C   0  0  2  0  0  0  0  0  0  0  0  0
    0.4880    0.1100    2.0600 N   0  0  0  0  0  0  0  0  0  0  0  0
   -0.4680    1.5290    0.3350 C   0  0  0  0  0  0  0  0  0  0  0  0
   -0.9680    2.6040   -0.0790 O   0  0  0  0  0  0  0  0  0  0  0  0
    0.7020    4.6660    2.4630 H   0  0  0  0  0  0  0  0  0  0  0  0
    0.5960    4.1100    0.7410 H   0  0  0  0  0  0  0  0  0  0  0  0
   -0.7930    3.7750    1.9200 H   0  0  0  0  0  0  0  0  0  0  0  0
    1.8510    2.4270    1.5420 H   0  0  0  0  0  0  0  0  0  0  0  0
    2.0590    1.7540    3.8080 H   0  0  0  0  0  0  0  0  0  0  0  0
    0.4210    2.3200    4.2480 H   0  0  0  0  0  0  0  0  0  0  0  0
    1.6950    3.4950    3.8570 H   0  0  0  0  0  0  0  0  0  0  0  0
   -0.9480    1.5650    2.3800 H   0  0  0  0  0  0  0  0  0  0  0  0
    1.3510   -0.2040    1.5400 H   0  0  0  0  0  0  0  0  0  0  0  0
    1.0030   -0.7320   -2.9340 O   0  0  0  0  0  0  0  0  0  0  0  0
    0.3770    0.4900   -2.9790 C   0  0  0  0  0  0  0  0  0  0  0  0
   -0.7580    0.6440   -1.9980 C   0  0  2  0  0  0  0  0  0  0  0  0
   -0.3410    0.4880   -0.6240 N   0  0  0  0  0  0  0  0  0  0  0  0
   -1.8130   -0.3320   -2.3750 C   0  0  0  0  0  0  0  0  0  0  0  0
   -2.3010   -0.3670   -3.5240 O   0  0  0  0  0  0  0  0  0  0  0  0
   -2.3190   -1.2700   -1.4610 O   0  0  0  0  0  0  0  0  0  0  0  0
    0.4940   -1.4650   -3.3170 H   0  0  0  0  0  0  0  0  0  0  0  0
   -0.0710    0.5910   -3.9980 H   0  0  0  0  0  0  0  0  0  0  0  0
    1.1140    1.3130   -2.8750 H   0  0  0  0  0  0  0  0  0  0  0  0
   -1.1700    1.6790   -2.1800 H   0  0  0  0  0  0  0  0  0  0  0  0
    0.0630   -0.4100   -0.3280 H   0  0  0  0  0  0  0  0  0  0  0  0
  1 11  1  0  0  0  0
  2 12  1  1  0  0  0
  2  1  1  0  0  0  0
  3 13  1  0  0  0  0
  3  2  1  0  0  0  0
  4  3  1  0  0  0  0
  4 16  1  0  0  0  0
  5 18  1  0  0  0  0
  5  4  1  0  0  0  0
  6 20  1  0  0  0  0
  6  5  1  0  0  0  0
  7  6  1  0  0  0  0
  8  2  1  0  0  0  0
  8  9  2  0  0  0  0
 10  1  1  0  0  0  0
 14  3  1  0  0  0  0
 15  4  1  0  0  0  0
 17  5  1  0  0  0  0
 19  6  1  0  0  0  0
 21  7  1  0  0  0  0
 22  7  1  0  0  0  0
 23 32  1  0  0  0  0
 23 24  1  0  0  0  0
 23 30  1  0  0  0  0
 24 25  1  0  0  0  0
 25 34  1  0  0  0  0
 25 36  1  0  0  0  0
 25 35  1  0  0  0  0
 26 27  1  0  0  0  0
 26 24  1  0  0  0  0
 26 37  1  1  0  0  0
 27  8  1  0  0  0  0
 28 26  1  0  0  0  0
 29 28  2  0  0  0  0
 31 23  1  0  0  0  0
 33 24  1  0  0  0  0
 38 27  1  0  0  0  0
 40 39  1  0  0  0  0
 40 48  1  0  0  0  0
 40 41  1  0  0  0  0
 41 49  1  6  0  0  0
 41 42  1  0  0  0  0
 42 50  1  0  0  0  0
 42 28  1  0  0  0  0
 43 41  1  0  0  0  0
 43 45  1  0  0  0  0
 44 43  2  0  0  0  0
 46 39  1  0  0  0  0
 47 40  1  0  0  0  0
M  END
$$$$
