KVT.pdb
 OpenBabel07022418533D

 53 52  0  0  1  0  0  0  0  0999 V2000
   -4.0270   -3.0890    1.8020 N   0  0  0  0  0  0  0  0  0  0  0  0
   -2.5560   -2.9510    1.8570 C   0  0  1  0  0  0  0  0  0  0  0  0
   -2.0360   -3.9570    0.8700 C   0  0  0  0  0  0  0  0  0  0  0  0
   -0.5540   -3.9530    0.7850 C   0  0  0  0  0  0  0  0  0  0  0  0
   -0.0250   -4.9850   -0.1920 C   0  0  0  0  0  0  0  0  0  0  0  0
    1.5030   -4.8480   -0.1580 C   0  0  0  0  0  0  0  0  0  0  0  0
    2.1470   -5.7720   -1.0440 N   0  0  0  0  0  0  0  0  0  0  0  0
   -2.2400   -1.5480    1.5310 C   0  0  0  0  0  0  0  0  0  0  0  0
   -3.1110   -0.7830    1.0490 O   0  0  0  0  0  0  0  0  0  0  0  0
   -4.3380   -3.4940    0.9090 H   0  0  0  0  0  0  0  0  0  0  0  0
   -4.4700   -2.1420    1.8870 H   0  0  0  0  0  0  0  0  0  0  0  0
   -2.2300   -3.2540    2.8710 H   0  0  0  0  0  0  0  0  0  0  0  0
   -2.3670   -4.9750    1.1580 H   0  0  0  0  0  0  0  0  0  0  0  0
   -2.4510   -3.7800   -0.1550 H   0  0  0  0  0  0  0  0  0  0  0  0
   -0.0820   -4.1060    1.7700 H   0  0  0  0  0  0  0  0  0  0  0  0
   -0.2680   -2.9650    0.3120 H   0  0  0  0  0  0  0  0  0  0  0  0
   -0.2720   -6.0130    0.0840 H   0  0  0  0  0  0  0  0  0  0  0  0
   -0.3840   -4.7140   -1.1890 H   0  0  0  0  0  0  0  0  0  0  0  0
    1.8790   -4.9560    0.8800 H   0  0  0  0  0  0  0  0  0  0  0  0
    1.7910   -3.8080   -0.4800 H   0  0  0  0  0  0  0  0  0  0  0  0
    2.6280   -5.2880   -1.8330 H   0  0  0  0  0  0  0  0  0  0  0  0
    2.8560   -6.3380   -0.5590 H   0  0  0  0  0  0  0  0  0  0  0  0
   -0.1350    2.5250    2.6420 C   0  0  0  0  0  0  0  0  0  0  0  0
   -0.4210    1.0750    2.7060 C   0  0  0  0  0  0  0  0  0  0  0  0
   -1.5890    0.8430    3.6290 C   0  0  0  0  0  0  0  0  0  0  0  0
   -0.7150    0.3880    1.3990 C   0  0  2  0  0  0  0  0  0  0  0  0
   -0.9600   -0.9960    1.7430 N   0  0  0  0  0  0  0  0  0  0  0  0
    0.3560    0.5160    0.3900 C   0  0  0  0  0  0  0  0  0  0  0  0
    0.9660   -0.5300   -0.0200 O   0  0  0  0  0  0  0  0  0  0  0  0
   -0.8570    3.1230    2.0670 H   0  0  0  0  0  0  0  0  0  0  0  0
   -0.2490    2.9100    3.7050 H   0  0  0  0  0  0  0  0  0  0  0  0
    0.9030    2.8020    2.3820 H   0  0  0  0  0  0  0  0  0  0  0  0
    0.4610    0.5650    3.1710 H   0  0  0  0  0  0  0  0  0  0  0  0
   -2.0020   -0.1800    3.5680 H   0  0  0  0  0  0  0  0  0  0  0  0
   -1.3050    0.9930    4.7010 H   0  0  0  0  0  0  0  0  0  0  0  0
   -2.4140    1.5450    3.3640 H   0  0  0  0  0  0  0  0  0  0  0  0
   -1.6380    0.8210    0.9950 H   0  0  0  0  0  0  0  0  0  0  0  0
   -0.1570   -1.5230    2.1500 H   0  0  0  0  0  0  0  0  0  0  0  0
    0.1740    1.2710   -2.8860 C   0  0  0  0  0  0  0  0  0  0  0  0
    1.2620    2.2530   -2.5130 C   0  0  1  0  0  0  0  0  0  0  0  0
    0.7070    3.5120   -2.3230 O   0  0  0  0  0  0  0  0  0  0  0  0
    1.8450    1.7920   -1.1760 C   0  0  2  0  0  0  0  0  0  0  0  0
    0.7860    1.7330   -0.1910 N   0  0  0  0  0  0  0  0  0  0  0  0
    2.9710    2.6260   -0.7620 C   0  0  0  0  0  0  0  0  0  0  0  0
    3.9560    2.7590   -1.5290 O   0  0  0  0  0  0  0  0  0  0  0  0
    3.0070    3.2870    0.4520 O   0  0  0  0  0  0  0  0  0  0  0  0
   -0.7750    1.5330   -2.3930 H   0  0  0  0  0  0  0  0  0  0  0  0
    0.4250    0.2260   -2.6080 H   0  0  0  0  0  0  0  0  0  0  0  0
   -0.0050    1.2580   -3.9890 H   0  0  0  0  0  0  0  0  0  0  0  0
    2.0840    2.2570   -3.2620 H   0  0  0  0  0  0  0  0  0  0  0  0
    1.3870    4.0580   -1.8550 H   0  0  0  0  0  0  0  0  0  0  0  0
    2.1940    0.7520   -1.3430 H   0  0  0  0  0  0  0  0  0  0  0  0
    0.3430    2.6220    0.0780 H   0  0  0  0  0  0  0  0  0  0  0  0
  1  2  1  0  0  0  0
  1 11  1  0  0  0  0
  2 12  1  1  0  0  0
  3 13  1  0  0  0  0
  3  2  1  0  0  0  0
  4  3  1  0  0  0  0
  4 15  1  0  0  0  0
  5  6  1  0  0  0  0
  5 17  1  0  0  0  0
  5  4  1  0  0  0  0
  6 19  1  0  0  0  0
  7 22  1  0  0  0  0
  7  6  1  0  0  0  0
  8 27  1  0  0  0  0
  8  2  1  0  0  0  0
  9  8  2  0  0  0  0
 10  1  1  0  0  0  0
 14  3  1  0  0  0  0
 16  4  1  0  0  0  0
 18  5  1  0  0  0  0
 20  6  1  0  0  0  0
 21  7  1  0  0  0  0
 23 24  1  0  0  0  0
 23 31  1  0  0  0  0
 24 33  1  0  0  0  0
 24 25  1  0  0  0  0
 25 35  1  0  0  0  0
 26 37  1  6  0  0  0
 26 27  1  0  0  0  0
 26 24  1  0  0  0  0
 27 38  1  0  0  0  0
 28 26  1  0  0  0  0
 29 28  2  0  0  0  0
 30 23  1  0  0  0  0
 32 23  1  0  0  0  0
 34 25  1  0  0  0  0
 36 25  1  0  0  0  0
 39 48  1  0  0  0  0
 39 40  1  0  0  0  0
 39 47  1  0  0  0  0
 40 50  1  6  0  0  0
 40 41  1  0  0  0  0
 40 42  1  0  0  0  0
 41 51  1  0  0  0  0
 42 52  1  6  0  0  0
 42 44  1  0  0  0  0
 42 43  1  0  0  0  0
 43 53  1  0  0  0  0
 43 28  1  0  0  0  0
 44 46  1  0  0  0  0
 45 44  2  0  0  0  0
 49 39  1  0  0  0  0
M  END
$$$$
