KVV.pdb
 OpenBabel07022418533D

 55 54  0  0  1  0  0  0  0  0999 V2000
    0.3660    0.8510   -3.5550 N   0  0  0  0  0  0  0  0  0  0  0  0
    0.6590    0.9500   -2.1380 C   0  0  1  0  0  0  0  0  0  0  0  0
   -0.2460    1.9440   -1.4520 C   0  0  0  0  0  0  0  0  0  0  0  0
   -0.0870    3.3040   -2.0490 C   0  0  0  0  0  0  0  0  0  0  0  0
    1.2930    3.8670   -1.9510 C   0  0  0  0  0  0  0  0  0  0  0  0
    1.3690    5.2630   -2.5770 C   0  0  0  0  0  0  0  0  0  0  0  0
    1.0040    5.1980   -3.9710 N   0  0  0  0  0  0  0  0  0  0  0  0
    0.5130   -0.4140   -1.5610 C   0  0  0  0  0  0  0  0  0  0  0  0
    0.1880   -1.3940   -2.2810 O   0  0  0  0  0  0  0  0  0  0  0  0
   -0.6780    0.8260   -3.6440 H   0  0  0  0  0  0  0  0  0  0  0  0
    0.7260   -0.0870   -3.8620 H   0  0  0  0  0  0  0  0  0  0  0  0
    1.6990    1.3230   -2.0480 H   0  0  0  0  0  0  0  0  0  0  0  0
    0.0770    2.0280   -0.3750 H   0  0  0  0  0  0  0  0  0  0  0  0
   -1.2700    1.5760   -1.4350 H   0  0  0  0  0  0  0  0  0  0  0  0
   -0.3420    3.2510   -3.1360 H   0  0  0  0  0  0  0  0  0  0  0  0
   -0.8500    3.9810   -1.6080 H   0  0  0  0  0  0  0  0  0  0  0  0
    2.0090    3.2510   -2.5410 H   0  0  0  0  0  0  0  0  0  0  0  0
    1.5860    3.9800   -0.8920 H   0  0  0  0  0  0  0  0  0  0  0  0
    0.7990    6.0050   -2.0110 H   0  0  0  0  0  0  0  0  0  0  0  0
    2.4480    5.5700   -2.5250 H   0  0  0  0  0  0  0  0  0  0  0  0
    1.5510    5.8200   -4.5740 H   0  0  0  0  0  0  0  0  0  0  0  0
    1.0860    4.2260   -4.2850 H   0  0  0  0  0  0  0  0  0  0  0  0
    2.4810   -1.3900    1.9190 C   0  0  0  0  0  0  0  0  0  0  0  0
    1.9970   -2.3700    0.8860 C   0  0  0  0  0  0  0  0  0  0  0  0
    2.1560   -3.8090    1.2930 C   0  0  0  0  0  0  0  0  0  0  0  0
    0.5850   -2.0330    0.3940 C   0  0  2  0  0  0  0  0  0  0  0  0
    0.7250   -0.6970   -0.1910 N   0  0  0  0  0  0  0  0  0  0  0  0
   -0.3900   -2.0260    1.4870 C   0  0  0  0  0  0  0  0  0  0  0  0
   -0.9150   -0.9260    1.8730 O   0  0  0  0  0  0  0  0  0  0  0  0
    1.5960   -0.9080    2.4010 H   0  0  0  0  0  0  0  0  0  0  0  0
    3.1280   -1.8890    2.6780 H   0  0  0  0  0  0  0  0  0  0  0  0
    3.0740   -0.5540    1.4800 H   0  0  0  0  0  0  0  0  0  0  0  0
    2.7160   -2.2380    0.0100 H   0  0  0  0  0  0  0  0  0  0  0  0
    3.1940   -4.1800    1.0970 H   0  0  0  0  0  0  0  0  0  0  0  0
    1.8680   -3.9950    2.3420 H   0  0  0  0  0  0  0  0  0  0  0  0
    1.5150   -4.4450    0.6490 H   0  0  0  0  0  0  0  0  0  0  0  0
    0.2990   -2.7900   -0.3480 H   0  0  0  0  0  0  0  0  0  0  0  0
    0.9950    0.0750    0.4520 H   0  0  0  0  0  0  0  0  0  0  0  0
   -3.5840   -3.2900    1.6140 C   0  0  0  0  0  0  0  0  0  0  0  0
   -3.0000   -3.9000    2.8490 C   0  0  0  0  0  0  0  0  0  0  0  0
   -3.9780   -4.0810    3.9620 C   0  0  0  0  0  0  0  0  0  0  0  0
   -1.7790   -3.1230    3.2500 C   0  0  2  0  0  0  0  0  0  0  0  0
   -0.7990   -3.1750    2.1540 N   0  0  0  0  0  0  0  0  0  0  0  0
   -1.1660   -3.6210    4.5110 C   0  0  0  0  0  0  0  0  0  0  0  0
   -1.8430   -3.6570    5.5690 O   0  0  0  0  0  0  0  0  0  0  0  0
    0.1500   -4.0570    4.5720 O   0  0  0  0  0  0  0  0  0  0  0  0
   -4.3670   -2.5320    1.8160 H   0  0  0  0  0  0  0  0  0  0  0  0
   -2.7700   -2.7840    1.0550 H   0  0  0  0  0  0  0  0  0  0  0  0
   -3.9970   -4.0610    0.9130 H   0  0  0  0  0  0  0  0  0  0  0  0
   -2.6360   -4.9280    2.5570 H   0  0  0  0  0  0  0  0  0  0  0  0
   -3.6120   -4.9280    4.5960 H   0  0  0  0  0  0  0  0  0  0  0  0
   -4.9310   -4.4730    3.5030 H   0  0  0  0  0  0  0  0  0  0  0  0
   -4.1980   -3.1800    4.5390 H   0  0  0  0  0  0  0  0  0  0  0  0
   -2.0660   -2.0620    3.3800 H   0  0  0  0  0  0  0  0  0  0  0  0
   -0.4450   -4.1180    1.9110 H   0  0  0  0  0  0  0  0  0  0  0  0
  1  2  1  0  0  0  0
  2 12  1  1  0  0  0
  2  8  1  0  0  0  0
  2  3  1  0  0  0  0
  3 14  1  0  0  0  0
  3 13  1  0  0  0  0
  4  5  1  0  0  0  0
  4 16  1  0  0  0  0
  4  3  1  0  0  0  0
  5 18  1  0  0  0  0
  6 20  1  0  0  0  0
  6 19  1  0  0  0  0
  6  5  1  0  0  0  0
  7  6  1  0  0  0  0
  8 27  1  0  0  0  0
  9  8  2  0  0  0  0
 10  1  1  0  0  0  0
 11  1  1  0  0  0  0
 15  4  1  0  0  0  0
 17  5  1  0  0  0  0
 21  7  1  0  0  0  0
 22  7  1  0  0  0  0
 23 30  1  0  0  0  0
 23 31  1  0  0  0  0
 24 25  1  0  0  0  0
 24 23  1  0  0  0  0
 25 35  1  0  0  0  0
 26 37  1  6  0  0  0
 26 24  1  0  0  0  0
 26 28  1  0  0  0  0
 27 26  1  0  0  0  0
 27 38  1  0  0  0  0
 28 29  2  0  0  0  0
 28 43  1  0  0  0  0
 32 23  1  0  0  0  0
 33 24  1  0  0  0  0
 34 25  1  0  0  0  0
 36 25  1  0  0  0  0
 39 47  1  0  0  0  0
 39 40  1  0  0  0  0
 40 42  1  0  0  0  0
 40 41  1  0  0  0  0
 41 53  1  0  0  0  0
 41 51  1  0  0  0  0
 42 54  1  1  0  0  0
 42 44  1  0  0  0  0
 43 42  1  0  0  0  0
 44 46  2  0  0  0  0
 44 45  1  0  0  0  0
 48 39  1  0  0  0  0
 49 39  1  0  0  0  0
 50 40  1  0  0  0  0
 52 41  1  0  0  0  0
 55 43  1  0  0  0  0
M  END
$$$$
