KVW.pdb
 OpenBabel07022418533D

 63 64  0  0  1  0  0  0  0  0999 V2000
   -0.1480   -3.6450    2.0820 N   0  0  0  0  0  0  0  0  0  0  0  0
    0.0520   -2.8290    3.2480 C   0  0  1  0  0  0  0  0  0  0  0  0
    1.4230   -2.9310    3.8270 C   0  0  0  0  0  0  0  0  0  0  0  0
    2.5210   -2.5200    2.8800 C   0  0  0  0  0  0  0  0  0  0  0  0
    3.8540   -2.6780    3.6200 C   0  0  0  0  0  0  0  0  0  0  0  0
    4.9590   -2.2630    2.6620 C   0  0  0  0  0  0  0  0  0  0  0  0
    4.7840   -0.8860    2.2510 N   0  0  0  0  0  0  0  0  0  0  0  0
   -0.2690   -1.3880    2.8860 C   0  0  0  0  0  0  0  0  0  0  0  0
   -0.1490   -0.5450    3.7960 O   0  0  0  0  0  0  0  0  0  0  0  0
   -0.1480   -4.6520    2.2480 H   0  0  0  0  0  0  0  0  0  0  0  0
    0.5920   -3.4090    1.3880 H   0  0  0  0  0  0  0  0  0  0  0  0
   -0.6710   -3.1110    4.0630 H   0  0  0  0  0  0  0  0  0  0  0  0
    1.4640   -2.3590    4.7700 H   0  0  0  0  0  0  0  0  0  0  0  0
    1.5960   -4.0070    4.0680 H   0  0  0  0  0  0  0  0  0  0  0  0
    2.5150   -3.1260    1.9710 H   0  0  0  0  0  0  0  0  0  0  0  0
    2.3700   -1.4430    2.6630 H   0  0  0  0  0  0  0  0  0  0  0  0
    4.0260   -3.7380    3.8850 H   0  0  0  0  0  0  0  0  0  0  0  0
    3.8520   -1.9950    4.4850 H   0  0  0  0  0  0  0  0  0  0  0  0
    4.9470   -2.9320    1.7830 H   0  0  0  0  0  0  0  0  0  0  0  0
    5.9410   -2.3210    3.1930 H   0  0  0  0  0  0  0  0  0  0  0  0
    4.2190   -0.7840    1.3890 H   0  0  0  0  0  0  0  0  0  0  0  0
    5.7000   -0.4100    2.1920 H   0  0  0  0  0  0  0  0  0  0  0  0
   -1.1310    2.6970    1.4130 C   0  0  0  0  0  0  0  0  0  0  0  0
   -0.8280    1.3420    2.0850 C   0  0  0  0  0  0  0  0  0  0  0  0
   -2.0010    1.2760    3.1040 C   0  0  0  0  0  0  0  0  0  0  0  0
   -1.0420    0.2190    1.0690 C   0  0  2  0  0  0  0  0  0  0  0  0
   -0.6700   -1.0850    1.5930 N   0  0  0  0  0  0  0  0  0  0  0  0
   -0.4480    0.4130   -0.2310 C   0  0  0  0  0  0  0  0  0  0  0  0
    0.5050   -0.3860   -0.6000 O   0  0  0  0  0  0  0  0  0  0  0  0
   -2.1810    2.6730    1.0880 H   0  0  0  0  0  0  0  0  0  0  0  0
   -0.3790    3.0050    0.7030 H   0  0  0  0  0  0  0  0  0  0  0  0
   -1.1520    3.4020    2.3180 H   0  0  0  0  0  0  0  0  0  0  0  0
    0.1380    1.3520    2.5540 H   0  0  0  0  0  0  0  0  0  0  0  0
   -2.4760    0.3070    3.1510 H   0  0  0  0  0  0  0  0  0  0  0  0
   -2.7760    1.9990    2.7300 H   0  0  0  0  0  0  0  0  0  0  0  0
   -1.5870    1.6440    4.0550 H   0  0  0  0  0  0  0  0  0  0  0  0
   -2.1910    0.1850    1.0520 H   0  0  0  0  0  0  0  0  0  0  0  0
   -0.7130   -1.9170    0.8800 H   0  0  0  0  0  0  0  0  0  0  0  0
   -0.7510    1.3790   -1.2250 N   0  0  0  0  0  0  0  0  0  0  0  0
   -0.0560    1.4600   -2.4840 C   0  0  1  0  0  0  0  0  0  0  0  0
   -0.9730    1.0440   -3.6070 C   0  0  0  0  0  0  0  0  0  0  0  0
   -1.4250   -0.3350   -3.4220 C   0  0  0  0  0  0  0  0  0  0  0  0
   -0.8550   -1.4610   -4.0090 C   0  0  0  0  0  0  0  0  0  0  0  0
   -1.4990   -2.5630   -3.5910 N   0  0  0  0  0  0  0  0  0  0  0  0
   -2.4620   -2.1970   -2.7590 C   0  0  0  0  0  0  0  0  0  0  0  0
   -3.3890   -2.9710   -2.0850 C   0  0  0  0  0  0  0  0  0  0  0  0
   -4.3230   -2.3780   -1.2650 C   0  0  0  0  0  0  0  0  0  0  0  0
   -4.3150   -1.0170   -1.1340 C   0  0  0  0  0  0  0  0  0  0  0  0
   -3.3820   -0.2580   -1.8150 C   0  0  0  0  0  0  0  0  0  0  0  0
   -2.4420   -0.8020   -2.6320 C   0  0  0  0  0  0  0  0  0  0  0  0
    0.4720    2.8020   -2.7670 C   0  0  0  0  0  0  0  0  0  0  0  0
    0.2940    3.7390   -1.9520 O   0  0  0  0  0  0  0  0  0  0  0  0
    1.1750    3.0710   -3.9270 O   0  0  0  0  0  0  0  0  0  0  0  0
   -1.5270    2.0370   -1.0150 H   0  0  0  0  0  0  0  0  0  0  0  0
    0.8020    0.7440   -2.5300 H   0  0  0  0  0  0  0  0  0  0  0  0
   -1.8450    1.7380   -3.6150 H   0  0  0  0  0  0  0  0  0  0  0  0
   -0.4380    1.0930   -4.6010 H   0  0  0  0  0  0  0  0  0  0  0  0
   -0.0200   -1.4080   -4.6930 H   0  0  0  0  0  0  0  0  0  0  0  0
   -1.2550   -3.5280   -3.8910 H   0  0  0  0  0  0  0  0  0  0  0  0
   -3.3990   -4.0620   -2.1880 H   0  0  0  0  0  0  0  0  0  0  0  0
   -5.0370   -3.0060   -0.7490 H   0  0  0  0  0  0  0  0  0  0  0  0
   -5.0470   -0.5400   -0.4920 H   0  0  0  0  0  0  0  0  0  0  0  0
   -3.4020    0.8100   -1.7090 H   0  0  0  0  0  0  0  0  0  0  0  0
  1 10  1  0  0  0  0
  1  2  1  0  0  0  0
  2  3  1  0  0  0  0
  2 12  1  1  0  0  0
  3 14  1  0  0  0  0
  3 13  1  0  0  0  0
  4  5  1  0  0  0  0
  4  3  1  0  0  0  0
  5 17  1  0  0  0  0
  5 18  1  0  0  0  0
  6 20  1  0  0  0  0
  6  5  1  0  0  0  0
  7  6  1  0  0  0  0
  8  2  1  0  0  0  0
  8  9  2  0  0  0  0
 11  1  1  0  0  0  0
 15  4  1  0  0  0  0
 16  4  1  0  0  0  0
 19  6  1  0  0  0  0
 21  7  1  0  0  0  0
 22  7  1  0  0  0  0
 23 24  1  0  0  0  0
 23 32  1  0  0  0  0
 24 33  1  0  0  0  0
 24 25  1  0  0  0  0
 25 34  1  0  0  0  0
 25 36  1  0  0  0  0
 26 37  1  6  0  0  0
 26 27  1  0  0  0  0
 26 24  1  0  0  0  0
 27  8  1  0  0  0  0
 28 26  1  0  0  0  0
 29 28  2  0  0  0  0
 30 23  1  0  0  0  0
 31 23  1  0  0  0  0
 35 25  1  0  0  0  0
 38 27  1  0  0  0  0
 39 54  1  0  0  0  0
 39 28  1  0  0  0  0
 40 55  1  1  0  0  0
 40 39  1  0  0  0  0
 41 42  1  0  0  0  0
 41 40  1  0  0  0  0
 42 50  1  0  0  0  0
 43 44  1  0  0  0  0
 43 42  2  0  0  0  0
 44 45  1  0  0  0  0
 45 50  2  0  0  0  0
 45 46  1  0  0  0  0
 46 47  2  0  0  0  0
 47 48  1  0  0  0  0
 47 61  1  0  0  0  0
 48 62  1  0  0  0  0
 49 63  1  0  0  0  0
 49 48  2  0  0  0  0
 50 49  1  0  0  0  0
 51 40  1  0  0  0  0
 51 52  1  0  0  0  0
 53 51  2  0  0  0  0
 56 41  1  0  0  0  0
 57 41  1  0  0  0  0
 58 43  1  0  0  0  0
 59 44  1  0  0  0  0
 60 46  1  0  0  0  0
M  END
$$$$
