KVY.pdb
 OpenBabel07022418533D

 60 60  0  0  1  0  0  0  0  0999 V2000
    2.9140    1.3880    0.3150 N   0  0  0  0  0  0  0  0  0  0  0  0
    2.9660   -0.0290    0.7150 C   0  0  1  0  0  0  0  0  0  0  0  0
    3.6530   -0.0440    2.0580 C   0  0  0  0  0  0  0  0  0  0  0  0
    3.8030   -1.4170    2.6250 C   0  0  0  0  0  0  0  0  0  0  0  0
    4.4860   -1.4370    3.9600 C   0  0  0  0  0  0  0  0  0  0  0  0
    3.7130   -0.6330    4.9840 C   0  0  0  0  0  0  0  0  0  0  0  0
    4.3660   -0.6480    6.2790 N   0  0  0  0  0  0  0  0  0  0  0  0
    1.5420   -0.4740    0.7880 C   0  0  0  0  0  0  0  0  0  0  0  0
    1.2070   -1.6530    1.1350 O   0  0  0  0  0  0  0  0  0  0  0  0
    3.8810    1.7140    0.0470 H   0  0  0  0  0  0  0  0  0  0  0  0
    2.6780    1.9640    1.1760 H   0  0  0  0  0  0  0  0  0  0  0  0
    3.5340   -0.5340   -0.0770 H   0  0  0  0  0  0  0  0  0  0  0  0
    4.6380    0.4410    1.9160 H   0  0  0  0  0  0  0  0  0  0  0  0
    3.0780    0.6380    2.7290 H   0  0  0  0  0  0  0  0  0  0  0  0
    4.4770   -1.9930    1.9260 H   0  0  0  0  0  0  0  0  0  0  0  0
    2.8830   -1.9890    2.7010 H   0  0  0  0  0  0  0  0  0  0  0  0
    4.5940   -2.4610    4.3620 H   0  0  0  0  0  0  0  0  0  0  0  0
    5.5220   -1.0070    3.9240 H   0  0  0  0  0  0  0  0  0  0  0  0
    3.7450    0.4300    4.6410 H   0  0  0  0  0  0  0  0  0  0  0  0
    2.6800   -1.0060    5.0980 H   0  0  0  0  0  0  0  0  0  0  0  0
    4.1130   -1.5750    6.7300 H   0  0  0  0  0  0  0  0  0  0  0  0
    5.4050   -0.7360    6.0700 H   0  0  0  0  0  0  0  0  0  0  0  0
   -1.5090    2.2900    1.2070 C   0  0  0  0  0  0  0  0  0  0  0  0
   -1.5800    0.8240    1.5800 C   0  0  0  0  0  0  0  0  0  0  0  0
   -2.9350    0.3990    2.0550 C   0  0  0  0  0  0  0  0  0  0  0  0
   -0.9540   -0.0620    0.5510 C   0  0  2  0  0  0  0  0  0  0  0  0
    0.4510    0.3780    0.4770 N   0  0  0  0  0  0  0  0  0  0  0  0
   -1.5880   -0.0420   -0.7670 C   0  0  0  0  0  0  0  0  0  0  0  0
   -0.8960    0.3570   -1.7410 O   0  0  0  0  0  0  0  0  0  0  0  0
   -0.9080    2.8990    1.9130 H   0  0  0  0  0  0  0  0  0  0  0  0
   -1.0960    2.4540    0.2050 H   0  0  0  0  0  0  0  0  0  0  0  0
   -2.5610    2.6860    1.3040 H   0  0  0  0  0  0  0  0  0  0  0  0
   -0.9100    0.7260    2.4910 H   0  0  0  0  0  0  0  0  0  0  0  0
   -2.9720   -0.6970    2.1080 H   0  0  0  0  0  0  0  0  0  0  0  0
   -3.7650    0.8690    1.4900 H   0  0  0  0  0  0  0  0  0  0  0  0
   -3.1240    0.7340    3.1210 H   0  0  0  0  0  0  0  0  0  0  0  0
   -1.0140   -1.1050    0.9190 H   0  0  0  0  0  0  0  0  0  0  0  0
    0.6430    1.3580    0.1830 H   0  0  0  0  0  0  0  0  0  0  0  0
    0.7330   -5.2090   -2.6640 O   0  0  0  0  0  0  0  0  0  0  0  0
   -0.3710   -4.3720   -2.7420 C   0  0  0  0  0  0  0  0  0  0  0  0
   -1.1430   -4.1960   -1.6160 C   0  0  0  0  0  0  0  0  0  0  0  0
   -2.2520   -3.3760   -1.6330 C   0  0  0  0  0  0  0  0  0  0  0  0
   -2.6380   -2.6920   -2.7870 C   0  0  0  0  0  0  0  0  0  0  0  0
   -3.8370   -1.8200   -2.7680 C   0  0  0  0  0  0  0  0  0  0  0  0
   -3.5010   -0.3930   -2.3760 C   0  0  2  0  0  0  0  0  0  0  0  0
   -2.9190   -0.4330   -1.0470 N   0  0  0  0  0  0  0  0  0  0  0  0
   -4.7470    0.3940   -2.4150 C   0  0  0  0  0  0  0  0  0  0  0  0
   -5.3630    0.5180   -3.4890 O   0  0  0  0  0  0  0  0  0  0  0  0
   -1.8630   -2.8710   -3.9140 C   0  0  0  0  0  0  0  0  0  0  0  0
   -0.7460   -3.7020   -3.8810 C   0  0  0  0  0  0  0  0  0  0  0  0
   -5.2180    0.9820   -1.2680 O   0  0  0  0  0  0  0  0  0  0  0  0
    0.6860   -6.2190   -2.7470 H   0  0  0  0  0  0  0  0  0  0  0  0
   -0.8610   -4.7220   -0.6950 H   0  0  0  0  0  0  0  0  0  0  0  0
   -2.8640   -3.2340   -0.7430 H   0  0  0  0  0  0  0  0  0  0  0  0
   -4.5350   -2.2210   -2.0140 H   0  0  0  0  0  0  0  0  0  0  0  0
   -4.3010   -1.7800   -3.7650 H   0  0  0  0  0  0  0  0  0  0  0  0
   -2.7650   -0.0240   -3.1200 H   0  0  0  0  0  0  0  0  0  0  0  0
   -3.4710   -0.7620   -0.2260 H   0  0  0  0  0  0  0  0  0  0  0  0
   -2.1290   -2.3580   -4.8290 H   0  0  0  0  0  0  0  0  0  0  0  0
   -0.1320   -3.8500   -4.7570 H   0  0  0  0  0  0  0  0  0  0  0  0
  1  2  1  0  0  0  0
  1 11  1  0  0  0  0
  2 12  1  6  0  0  0
  2  8  1  0  0  0  0
  2  3  1  0  0  0  0
  3  4  1  0  0  0  0
  3 14  1  0  0  0  0
  4 16  1  0  0  0  0
  4  5  1  0  0  0  0
  5 17  1  0  0  0  0
  5  6  1  0  0  0  0
  6 20  1  0  0  0  0
  6  7  1  0  0  0  0
  7 21  1  0  0  0  0
  8  9  2  0  0  0  0
 10  1  1  0  0  0  0
 13  3  1  0  0  0  0
 15  4  1  0  0  0  0
 18  5  1  0  0  0  0
 19  6  1  0  0  0  0
 22  7  1  0  0  0  0
 23 32  1  0  0  0  0
 23 24  1  0  0  0  0
 23 30  1  0  0  0  0
 24 25  1  0  0  0  0
 24 33  1  0  0  0  0
 25 34  1  0  0  0  0
 25 36  1  0  0  0  0
 26 37  1  1  0  0  0
 26 24  1  0  0  0  0
 27 26  1  0  0  0  0
 27  8  1  0  0  0  0
 28 26  1  0  0  0  0
 29 28  2  0  0  0  0
 31 23  1  0  0  0  0
 35 25  1  0  0  0  0
 38 27  1  0  0  0  0
 40 39  1  0  0  0  0
 40 41  1  0  0  0  0
 41 53  1  0  0  0  0
 42 41  2  0  0  0  0
 42 54  1  0  0  0  0
 43 44  1  0  0  0  0
 43 42  1  0  0  0  0
 44 45  1  0  0  0  0
 44 55  1  0  0  0  0
 45 57  1  6  0  0  0
 45 46  1  0  0  0  0
 46 28  1  0  0  0  0
 46 58  1  0  0  0  0
 47 45  1  0  0  0  0
 47 51  1  0  0  0  0
 48 47  2  0  0  0  0
 49 50  1  0  0  0  0
 49 43  2  0  0  0  0
 50 40  2  0  0  0  0
 52 39  1  0  0  0  0
 56 44  1  0  0  0  0
 59 49  1  0  0  0  0
 60 50  1  0  0  0  0
M  END
$$$$
