KWA.pdb
 OpenBabel07022418523D

 57 58  0  0  1  0  0  0  0  0999 V2000
   -1.0090   -3.4660    2.0260 N   0  0  0  0  0  0  0  0  0  0  0  0
   -0.1690   -2.3770    2.5210 C   0  0  1  0  0  0  0  0  0  0  0  0
    1.2560   -2.8120    2.5540 C   0  0  0  0  0  0  0  0  0  0  0  0
    2.2170   -1.7670    3.0530 C   0  0  0  0  0  0  0  0  0  0  0  0
    3.6400   -2.3170    3.0590 C   0  0  0  0  0  0  0  0  0  0  0  0
    4.5930   -1.2440    3.5660 C   0  0  0  0  0  0  0  0  0  0  0  0
    4.5580   -0.0700    2.7280 N   0  0  0  0  0  0  0  0  0  0  0  0
   -0.4290   -1.1440    1.7560 C   0  0  0  0  0  0  0  0  0  0  0  0
    0.1260   -0.0490    2.0090 O   0  0  0  0  0  0  0  0  0  0  0  0
   -0.7390   -4.3060    2.5830 H   0  0  0  0  0  0  0  0  0  0  0  0
   -2.0090   -3.1810    2.2100 H   0  0  0  0  0  0  0  0  0  0  0  0
   -0.4900   -2.2050    3.5830 H   0  0  0  0  0  0  0  0  0  0  0  0
    1.5860   -3.2310    1.5600 H   0  0  0  0  0  0  0  0  0  0  0  0
    1.3640   -3.6880    3.2480 H   0  0  0  0  0  0  0  0  0  0  0  0
    1.9060   -1.4380    4.0450 H   0  0  0  0  0  0  0  0  0  0  0  0
    2.2230   -0.8890    2.3660 H   0  0  0  0  0  0  0  0  0  0  0  0
    3.7220   -3.2290    3.6820 H   0  0  0  0  0  0  0  0  0  0  0  0
    3.9080   -2.5480    2.0210 H   0  0  0  0  0  0  0  0  0  0  0  0
    5.6240   -1.6500    3.5430 H   0  0  0  0  0  0  0  0  0  0  0  0
    4.3790   -0.9380    4.6000 H   0  0  0  0  0  0  0  0  0  0  0  0
    5.1020   -0.2270    1.8410 H   0  0  0  0  0  0  0  0  0  0  0  0
    4.8770    0.7800    3.2140 H   0  0  0  0  0  0  0  0  0  0  0  0
   -1.3600   -1.1490    0.6510 N   0  0  0  0  0  0  0  0  0  0  0  0
   -1.6220    0.0290   -0.0960 C   0  0  1  0  0  0  0  0  0  0  0  0
   -1.1510   -0.0100   -1.5080 C   0  0  0  0  0  0  0  0  0  0  0  0
    0.2970   -0.2100   -1.5870 C   0  0  0  0  0  0  0  0  0  0  0  0
    1.2310    0.7730   -1.7340 C   0  0  0  0  0  0  0  0  0  0  0  0
    2.4540    0.2300   -1.7310 N   0  0  0  0  0  0  0  0  0  0  0  0
    2.3070   -1.1130   -1.5820 C   0  0  0  0  0  0  0  0  0  0  0  0
    3.2350   -2.1270   -1.5250 C   0  0  0  0  0  0  0  0  0  0  0  0
    2.8350   -3.4500   -1.3770 C   0  0  0  0  0  0  0  0  0  0  0  0
    1.4890   -3.7150   -1.2900 C   0  0  0  0  0  0  0  0  0  0  0  0
    0.5460   -2.7310   -1.3430 C   0  0  0  0  0  0  0  0  0  0  0  0
    0.9600   -1.4070   -1.4910 C   0  0  0  0  0  0  0  0  0  0  0  0
   -3.0570    0.4550   -0.0010 C   0  0  0  0  0  0  0  0  0  0  0  0
   -3.8120   -0.2540    0.7020 O   0  0  0  0  0  0  0  0  0  0  0  0
   -1.8100   -2.0800    0.4760 H   0  0  0  0  0  0  0  0  0  0  0  0
   -1.0420    0.8740    0.3910 H   0  0  0  0  0  0  0  0  0  0  0  0
   -1.7070   -0.8650   -2.0000 H   0  0  0  0  0  0  0  0  0  0  0  0
   -1.4040    0.9380   -2.0260 H   0  0  0  0  0  0  0  0  0  0  0  0
    1.0970    1.8480   -1.8420 H   0  0  0  0  0  0  0  0  0  0  0  0
    3.4020    0.6860   -1.8220 H   0  0  0  0  0  0  0  0  0  0  0  0
    4.2870   -1.9190   -1.5940 H   0  0  0  0  0  0  0  0  0  0  0  0
    3.5880   -4.2300   -1.3340 H   0  0  0  0  0  0  0  0  0  0  0  0
    1.1700   -4.7490   -1.1740 H   0  0  0  0  0  0  0  0  0  0  0  0
   -0.5260   -2.9510   -1.2850 H   0  0  0  0  0  0  0  0  0  0  0  0
   -4.9930    3.4090   -0.0170 C   0  0  0  0  0  0  0  0  0  0  0  0
   -4.9820    1.9880   -0.5470 C   0  0  2  0  0  0  0  0  0  0  0  0
   -3.5860    1.5860   -0.6470 N   0  0  0  0  0  0  0  0  0  0  0  0
   -5.6360    2.0210   -1.8750 C   0  0  0  0  0  0  0  0  0  0  0  0
   -6.8440    2.3570   -1.9130 O   0  0  0  0  0  0  0  0  0  0  0  0
   -5.0110    1.7090   -3.0700 O   0  0  0  0  0  0  0  0  0  0  0  0
   -4.5280    4.0420   -0.8140 H   0  0  0  0  0  0  0  0  0  0  0  0
   -6.0140    3.7650    0.2270 H   0  0  0  0  0  0  0  0  0  0  0  0
   -4.3260    3.4810    0.8700 H   0  0  0  0  0  0  0  0  0  0  0  0
   -5.5240    1.2810    0.1140 H   0  0  0  0  0  0  0  0  0  0  0  0
   -2.9390    2.1640   -1.2290 H   0  0  0  0  0  0  0  0  0  0  0  0
  1 11  1  0  0  0  0
  1  2  1  0  0  0  0
  1 10  1  0  0  0  0
  2  3  1  0  0  0  0
  2 12  1  1  0  0  0
  3  4  1  0  0  0  0
  3 14  1  0  0  0  0
  4  5  1  0  0  0  0
  4 15  1  0  0  0  0
  5  6  1  0  0  0  0
  5 17  1  0  0  0  0
  6 20  1  0  0  0  0
  7 22  1  0  0  0  0
  7  6  1  0  0  0  0
  8  9  2  0  0  0  0
  8  2  1  0  0  0  0
 13  3  1  0  0  0  0
 16  4  1  0  0  0  0
 18  5  1  0  0  0  0
 19  6  1  0  0  0  0
 21  7  1  0  0  0  0
 23  8  1  0  0  0  0
 24 35  1  0  0  0  0
 24 38  1  1  0  0  0
 24 23  1  0  0  0  0
 25 24  1  0  0  0  0
 26 25  1  0  0  0  0
 26 34  1  0  0  0  0
 27 28  1  0  0  0  0
 27 26  2  0  0  0  0
 28 29  1  0  0  0  0
 29 30  2  0  0  0  0
 29 34  1  0  0  0  0
 30 31  1  0  0  0  0
 31 44  1  0  0  0  0
 31 32  2  0  0  0  0
 32 45  1  0  0  0  0
 33 32  1  0  0  0  0
 33 46  1  0  0  0  0
 34 33  2  0  0  0  0
 35 36  2  0  0  0  0
 37 23  1  0  0  0  0
 39 25  1  0  0  0  0
 40 25  1  0  0  0  0
 41 27  1  0  0  0  0
 42 28  1  0  0  0  0
 43 30  1  0  0  0  0
 47 54  1  0  0  0  0
 47 55  1  0  0  0  0
 48 47  1  0  0  0  0
 48 56  1  1  0  0  0
 49 48  1  0  0  0  0
 49 35  1  0  0  0  0
 50 48  1  0  0  0  0
 51 50  1  0  0  0  0
 52 50  2  0  0  0  0
 53 47  1  0  0  0  0
 57 49  1  0  0  0  0
M  END
$$$$
