KWC.pdb
 OpenBabel07022418523D

 58 59  0  0  1  0  0  0  0  0999 V2000
    1.9100    2.5310    3.7220 N   0  0  0  0  0  0  0  0  0  0  0  0
    1.2420    2.1990    2.4810 C   0  0  1  0  0  0  0  0  0  0  0  0
    2.2400    2.1360    1.3410 C   0  0  0  0  0  0  0  0  0  0  0  0
    3.2790    1.0690    1.6570 C   0  0  0  0  0  0  0  0  0  0  0  0
    4.2620    1.0150    0.5160 C   0  0  0  0  0  0  0  0  0  0  0  0
    5.3370   -0.0260    0.7560 C   0  0  0  0  0  0  0  0  0  0  0  0
    4.6870   -1.3170    0.8910 N   0  0  0  0  0  0  0  0  0  0  0  0
    0.5230    0.9260    2.6600 C   0  0  0  0  0  0  0  0  0  0  0  0
    0.5860    0.3230    3.7470 O   0  0  0  0  0  0  0  0  0  0  0  0
    2.0180    1.6760    4.3270 H   0  0  0  0  0  0  0  0  0  0  0  0
    1.2950    3.1760    4.2910 H   0  0  0  0  0  0  0  0  0  0  0  0
    0.4800    2.9960    2.2890 H   0  0  0  0  0  0  0  0  0  0  0  0
    2.7190    3.1280    1.2510 H   0  0  0  0  0  0  0  0  0  0  0  0
    1.7670    1.8920    0.3850 H   0  0  0  0  0  0  0  0  0  0  0  0
    2.8150    0.0990    1.8790 H   0  0  0  0  0  0  0  0  0  0  0  0
    3.8420    1.3490    2.5960 H   0  0  0  0  0  0  0  0  0  0  0  0
    3.7020    0.6760   -0.3960 H   0  0  0  0  0  0  0  0  0  0  0  0
    4.6700    2.0130    0.3460 H   0  0  0  0  0  0  0  0  0  0  0  0
    5.9970   -0.0330   -0.1340 H   0  0  0  0  0  0  0  0  0  0  0  0
    5.8920    0.2350    1.6820 H   0  0  0  0  0  0  0  0  0  0  0  0
    5.3830   -1.9450    1.3760 H   0  0  0  0  0  0  0  0  0  0  0  0
    4.4440   -1.7140   -0.0410 H   0  0  0  0  0  0  0  0  0  0  0  0
   -0.2290    0.4080    1.5940 N   0  0  0  0  0  0  0  0  0  0  0  0
   -0.9790   -0.8640    1.6910 C   0  0  1  0  0  0  0  0  0  0  0  0
   -2.4220   -0.4890    1.6670 C   0  0  0  0  0  0  0  0  0  0  0  0
   -2.8730    0.2680    0.4880 C   0  0  0  0  0  0  0  0  0  0  0  0
   -3.0480    1.6720    0.4380 C   0  0  0  0  0  0  0  0  0  0  0  0
   -3.4440    2.0190   -0.7900 N   0  0  0  0  0  0  0  0  0  0  0  0
   -3.5520    0.9440   -1.5830 C   0  0  0  0  0  0  0  0  0  0  0  0
   -3.9290    0.8370   -2.9030 C   0  0  0  0  0  0  0  0  0  0  0  0
   -3.9590   -0.4180   -3.4750 C   0  0  0  0  0  0  0  0  0  0  0  0
   -3.6140   -1.5140   -2.7140 C   0  0  0  0  0  0  0  0  0  0  0  0
   -3.2390   -1.3830   -1.3900 C   0  0  0  0  0  0  0  0  0  0  0  0
   -3.1980   -0.1370   -0.7880 C   0  0  0  0  0  0  0  0  0  0  0  0
   -0.4890   -1.7680    0.6650 C   0  0  0  0  0  0  0  0  0  0  0  0
    0.2760   -1.3540   -0.2310 O   0  0  0  0  0  0  0  0  0  0  0  0
   -0.2670    0.9260    0.7020 H   0  0  0  0  0  0  0  0  0  0  0  0
   -0.7830   -1.2820    2.7250 H   0  0  0  0  0  0  0  0  0  0  0  0
   -3.0900   -1.3660    1.8550 H   0  0  0  0  0  0  0  0  0  0  0  0
   -2.5920    0.1650    2.5680 H   0  0  0  0  0  0  0  0  0  0  0  0
   -2.8670    2.3020    1.3080 H   0  0  0  0  0  0  0  0  0  0  0  0
   -3.6360    3.0240   -1.0570 H   0  0  0  0  0  0  0  0  0  0  0  0
   -4.2050    1.6730   -3.5260 H   0  0  0  0  0  0  0  0  0  0  0  0
   -4.2450   -0.5690   -4.5060 H   0  0  0  0  0  0  0  0  0  0  0  0
   -3.6330   -2.5080   -3.1540 H   0  0  0  0  0  0  0  0  0  0  0  0
   -2.9740   -2.2070   -0.7700 H   0  0  0  0  0  0  0  0  0  0  0  0
   -0.8580   -3.1370    0.6590 N   0  0  0  0  0  0  0  0  0  0  0  0
   -0.4010   -4.0910   -0.3220 C   0  0  1  0  0  0  0  0  0  0  0  0
    0.6590   -5.0160    0.2600 C   0  0  0  0  0  0  0  0  0  0  0  0
   -0.0250   -5.9330    1.6740 S   0  0  0  0  0  0  0  0  0  0  0  0
   -1.4340   -4.9430   -0.9010 C   0  0  0  0  0  0  0  0  0  0  0  0
   -2.6230   -4.8710   -0.5410 O   0  0  0  0  0  0  0  0  0  0  0  0
   -1.0850   -5.8560   -1.8790 O   0  0  0  0  0  0  0  0  0  0  0  0
   -1.5080   -3.5240    1.4020 H   0  0  0  0  0  0  0  0  0  0  0  0
    0.1130   -3.5280   -1.1260 H   0  0  0  0  0  0  0  0  0  0  0  0
    1.5960   -4.5130    0.4960 H   0  0  0  0  0  0  0  0  0  0  0  0
    0.8720   -5.7730   -0.5240 H   0  0  0  0  0  0  0  0  0  0  0  0
    0.9720   -6.0820    2.6580 H   0  0  0  0  0  0  0  0  0  0  0  0
  1 11  1  0  0  0  0
  1 10  1  0  0  0  0
  2 12  1  6  0  0  0
  2  8  1  0  0  0  0
  2  1  1  0  0  0  0
  3  4  1  0  0  0  0
  3  2  1  0  0  0  0
  4 15  1  0  0  0  0
  4 16  1  0  0  0  0
  5  6  1  0  0  0  0
  5  4  1  0  0  0  0
  6  7  1  0  0  0  0
  6 20  1  0  0  0  0
  7 21  1  0  0  0  0
  8  9  2  0  0  0  0
 13  3  1  0  0  0  0
 14  3  1  0  0  0  0
 17  5  1  0  0  0  0
 18  5  1  0  0  0  0
 19  6  1  0  0  0  0
 22  7  1  0  0  0  0
 23 24  1  0  0  0  0
 23  8  1  0  0  0  0
 24 38  1  1  0  0  0
 25 24  1  0  0  0  0
 25 39  1  0  0  0  0
 25 40  1  0  0  0  0
 26 25  1  0  0  0  0
 27 26  2  0  0  0  0
 27 41  1  0  0  0  0
 28 27  1  0  0  0  0
 29 28  1  0  0  0  0
 29 34  1  0  0  0  0
 30 29  2  0  0  0  0
 31 30  1  0  0  0  0
 31 32  2  0  0  0  0
 32 33  1  0  0  0  0
 33 34  2  0  0  0  0
 33 46  1  0  0  0  0
 34 26  1  0  0  0  0
 35 24  1  0  0  0  0
 36 35  2  0  0  0  0
 37 23  1  0  0  0  0
 42 28  1  0  0  0  0
 43 30  1  0  0  0  0
 44 31  1  0  0  0  0
 45 32  1  0  0  0  0
 47 35  1  0  0  0  0
 47 54  1  0  0  0  0
 48 55  1  6  0  0  0
 48 49  1  0  0  0  0
 48 47  1  0  0  0  0
 49 56  1  0  0  0  0
 49 50  1  0  0  0  0
 50 58  1  0  0  0  0
 51 52  1  0  0  0  0
 51 48  1  0  0  0  0
 53 51  2  0  0  0  0
 57 49  1  0  0  0  0
M  END
$$$$
