KWD.pdb
 OpenBabel07022418523D

 60 61  0  0  1  0  0  0  0  0999 V2000
    0.0530    1.3390    3.7430 N   0  0  0  0  0  0  0  0  0  0  0  0
    0.9430    0.7220    2.6340 C   0  0  1  0  0  0  0  0  0  0  0  0
    2.0090    0.1060    3.3650 C   0  0  0  0  0  0  0  0  0  0  0  0
    3.1540   -0.5940    2.7620 C   0  0  0  0  0  0  0  0  0  0  0  0
    2.9480   -1.8340    1.9860 C   0  0  0  0  0  0  0  0  0  0  0  0
    2.2990   -2.8710    2.8940 C   0  0  0  0  0  0  0  0  0  0  0  0
    2.1300   -4.0760    2.1300 N   0  0  0  0  0  0  0  0  0  0  0  0
    0.0120    0.2200    1.7080 C   0  0  0  0  0  0  0  0  0  0  0  0
   -1.2270    0.1180    2.1160 O   0  0  0  0  0  0  0  0  0  0  0  0
    0.7260    1.9190    4.3190 H   0  0  0  0  0  0  0  0  0  0  0  0
   -0.6120    1.9800    3.2640 H   0  0  0  0  0  0  0  0  0  0  0  0
    1.3560    1.7090    2.1930 H   0  0  0  0  0  0  0  0  0  0  0  0
    1.6560   -0.5770    4.2170 H   0  0  0  0  0  0  0  0  0  0  0  0
    2.5070    0.9290    4.0250 H   0  0  0  0  0  0  0  0  0  0  0  0
    3.8360   -0.8970    3.6380 H   0  0  0  0  0  0  0  0  0  0  0  0
    3.8480    0.1240    2.2070 H   0  0  0  0  0  0  0  0  0  0  0  0
    2.3440   -1.6740    1.1200 H   0  0  0  0  0  0  0  0  0  0  0  0
    3.9590   -2.2660    1.7410 H   0  0  0  0  0  0  0  0  0  0  0  0
    2.9050   -3.0460    3.8030 H   0  0  0  0  0  0  0  0  0  0  0  0
    1.2990   -2.5320    3.2390 H   0  0  0  0  0  0  0  0  0  0  0  0
    2.5740   -4.0110    1.1930 H   0  0  0  0  0  0  0  0  0  0  0  0
    2.5500   -4.8720    2.6770 H   0  0  0  0  0  0  0  0  0  0  0  0
    0.1290   -0.2090    0.3440 N   0  0  0  0  0  0  0  0  0  0  0  0
   -0.9960   -0.6300   -0.4200 C   0  0  1  0  0  0  0  0  0  0  0  0
   -1.1740    0.2340   -1.6780 C   0  0  0  0  0  0  0  0  0  0  0  0
   -1.3790    1.6600   -1.3440 C   0  0  0  0  0  0  0  0  0  0  0  0
   -0.4520    2.7010   -1.4380 C   0  0  0  0  0  0  0  0  0  0  0  0
   -1.0330    3.8440   -1.0370 N   0  0  0  0  0  0  0  0  0  0  0  0
   -2.3170    3.6000   -0.6790 C   0  0  0  0  0  0  0  0  0  0  0  0
   -3.3430    4.4080   -0.2040 C   0  0  0  0  0  0  0  0  0  0  0  0
   -4.5780    3.8670    0.0810 C   0  0  0  0  0  0  0  0  0  0  0  0
   -4.7900    2.5180   -0.1100 C   0  0  0  0  0  0  0  0  0  0  0  0
   -3.7720    1.7110   -0.5820 C   0  0  0  0  0  0  0  0  0  0  0  0
   -2.5290    2.2480   -0.8700 C   0  0  0  0  0  0  0  0  0  0  0  0
   -1.0390   -2.0310   -0.8320 C   0  0  0  0  0  0  0  0  0  0  0  0
   -2.0050   -2.4290   -1.6140 O   0  0  0  0  0  0  0  0  0  0  0  0
    1.0970   -0.1660   -0.0370 H   0  0  0  0  0  0  0  0  0  0  0  0
   -1.9680   -0.4570    0.1410 H   0  0  0  0  0  0  0  0  0  0  0  0
   -0.2470    0.1670   -2.2850 H   0  0  0  0  0  0  0  0  0  0  0  0
   -1.9770   -0.1990   -2.3030 H   0  0  0  0  0  0  0  0  0  0  0  0
    0.5470    2.5580   -1.7800 H   0  0  0  0  0  0  0  0  0  0  0  0
   -0.6140    4.8010   -0.9860 H   0  0  0  0  0  0  0  0  0  0  0  0
   -3.1480    5.4610   -0.0640 H   0  0  0  0  0  0  0  0  0  0  0  0
   -5.4070    4.4810    0.4570 H   0  0  0  0  0  0  0  0  0  0  0  0
   -5.7510    2.0530    0.1030 H   0  0  0  0  0  0  0  0  0  0  0  0
   -3.8960    0.6500   -0.7460 H   0  0  0  0  0  0  0  0  0  0  0  0
   -0.1410   -3.0370   -0.4800 N   0  0  0  0  0  0  0  0  0  0  0  0
   -0.2890   -4.4190   -0.9710 C   0  0  1  0  0  0  0  0  0  0  0  0
    0.9780   -4.9020   -1.5980 C   0  0  0  0  0  0  0  0  0  0  0  0
    1.3820   -4.0560   -2.7590 C   0  0  0  0  0  0  0  0  0  0  0  0
    2.4290   -4.3300   -3.3960 O   0  0  0  0  0  0  0  0  0  0  0  0
   -0.6370   -5.2840    0.1840 C   0  0  0  0  0  0  0  0  0  0  0  0
   -0.7900   -4.8300    1.3420 O   0  0  0  0  0  0  0  0  0  0  0  0
    0.6280   -2.9750   -3.1500 O   0  0  0  0  0  0  0  0  0  0  0  0
   -0.8090   -6.6530    0.0240 O   0  0  0  0  0  0  0  0  0  0  0  0
    0.6500   -2.8130    0.1440 H   0  0  0  0  0  0  0  0  0  0  0  0
   -1.1100   -4.4030   -1.7230 H   0  0  0  0  0  0  0  0  0  0  0  0
    0.8130   -5.9370   -1.9480 H   0  0  0  0  0  0  0  0  0  0  0  0
    1.8190   -4.9260   -0.8860 H   0  0  0  0  0  0  0  0  0  0  0  0
    0.7410   -2.6380   -4.1110 H   0  0  0  0  0  0  0  0  0  0  0  0
  1 10  1  0  0  0  0
  2 12  1  6  0  0  0
  2  3  1  0  0  0  0
  2  1  1  0  0  0  0
  3 14  1  0  0  0  0
  3 13  1  0  0  0  0
  4  3  1  0  0  0  0
  4 15  1  0  0  0  0
  5  4  1  0  0  0  0
  5  6  1  0  0  0  0
  6 20  1  0  0  0  0
  6 19  1  0  0  0  0
  7 22  1  0  0  0  0
  7  6  1  0  0  0  0
  8  9  2  0  0  0  0
  8  2  1  0  0  0  0
 11  1  1  0  0  0  0
 16  4  1  0  0  0  0
 17  5  1  0  0  0  0
 18  5  1  0  0  0  0
 21  7  1  0  0  0  0
 23  8  1  0  0  0  0
 24 38  1  1  0  0  0
 24 23  1  0  0  0  0
 25 26  1  0  0  0  0
 25 24  1  0  0  0  0
 26 34  1  0  0  0  0
 27 26  2  0  0  0  0
 27 28  1  0  0  0  0
 28 42  1  0  0  0  0
 28 29  1  0  0  0  0
 29 30  1  0  0  0  0
 30 43  1  0  0  0  0
 30 31  2  0  0  0  0
 31 44  1  0  0  0  0
 32 31  1  0  0  0  0
 32 45  1  0  0  0  0
 33 32  2  0  0  0  0
 34 29  2  0  0  0  0
 34 33  1  0  0  0  0
 35 47  1  0  0  0  0
 35 24  1  0  0  0  0
 36 35  2  0  0  0  0
 37 23  1  0  0  0  0
 39 25  1  0  0  0  0
 40 25  1  0  0  0  0
 41 27  1  0  0  0  0
 46 33  1  0  0  0  0
 47 56  1  0  0  0  0
 48 57  1  6  0  0  0
 48 47  1  0  0  0  0
 48 52  1  0  0  0  0
 49 48  1  0  0  0  0
 49 59  1  0  0  0  0
 50 49  1  0  0  0  0
 51 50  2  0  0  0  0
 52 53  1  0  0  0  0
 54 50  1  0  0  0  0
 55 52  2  0  0  0  0
 58 49  1  0  0  0  0
 60 54  1  0  0  0  0
M  END
$$$$
