KWF.pdb
 OpenBabel07022418523D

 67 69  0  0  1  0  0  0  0  0999 V2000
    3.2950   -2.8230   -0.3360 N   0  0  0  0  0  0  0  0  0  0  0  0
    2.6510   -2.6320    0.9300 C   0  0  1  0  0  0  0  0  0  0  0  0
    3.5440   -1.8600    1.8770 C   0  0  0  0  0  0  0  0  0  0  0  0
    4.8550   -2.5480    2.1570 C   0  0  0  0  0  0  0  0  0  0  0  0
    4.6450   -3.9070    2.7840 C   0  0  0  0  0  0  0  0  0  0  0  0
    6.0090   -4.5310    3.0360 C   0  0  0  0  0  0  0  0  0  0  0  0
    6.6810   -4.6490    1.7630 N   0  0  0  0  0  0  0  0  0  0  0  0
    1.3820   -1.8800    0.8250 C   0  0  0  0  0  0  0  0  0  0  0  0
    0.7510   -1.6640    1.9020 O   0  0  0  0  0  0  0  0  0  0  0  0
    2.6960   -3.4380   -0.9420 H   0  0  0  0  0  0  0  0  0  0  0  0
    4.1710   -3.3790   -0.1530 H   0  0  0  0  0  0  0  0  0  0  0  0
    2.5000   -3.6430    1.3840 H   0  0  0  0  0  0  0  0  0  0  0  0
    3.6940   -0.8260    1.5100 H   0  0  0  0  0  0  0  0  0  0  0  0
    3.0450   -1.7370    2.8820 H   0  0  0  0  0  0  0  0  0  0  0  0
    5.4730   -2.6740    1.2470 H   0  0  0  0  0  0  0  0  0  0  0  0
    5.3750   -1.9300    2.9200 H   0  0  0  0  0  0  0  0  0  0  0  0
    4.1450   -4.6200    2.0650 H   0  0  0  0  0  0  0  0  0  0  0  0
    4.0910   -3.8370    3.7410 H   0  0  0  0  0  0  0  0  0  0  0  0
    6.6030   -3.9010    3.7220 H   0  0  0  0  0  0  0  0  0  0  0  0
    5.8550   -5.5490    3.4910 H   0  0  0  0  0  0  0  0  0  0  0  0
    5.9830   -4.7890    1.0090 H   0  0  0  0  0  0  0  0  0  0  0  0
    7.4090   -5.4030    1.8060 H   0  0  0  0  0  0  0  0  0  0  0  0
    0.8160   -1.3850   -0.3730 N   0  0  0  0  0  0  0  0  0  0  0  0
   -0.4330   -0.6540   -0.4180 C   0  0  1  0  0  0  0  0  0  0  0  0
   -0.2620    0.7080   -1.0540 C   0  0  0  0  0  0  0  0  0  0  0  0
    0.6900    1.5730   -0.3460 C   0  0  0  0  0  0  0  0  0  0  0  0
    1.9900    1.9150   -0.6650 C   0  0  0  0  0  0  0  0  0  0  0  0
    2.4960    2.7380    0.2710 N   0  0  0  0  0  0  0  0  0  0  0  0
    1.5640    2.9670    1.2270 C   0  0  0  0  0  0  0  0  0  0  0  0
    1.5660    3.7290    2.3940 C   0  0  0  0  0  0  0  0  0  0  0  0
    0.4400    3.7720    3.1910 C   0  0  0  0  0  0  0  0  0  0  0  0
   -0.6900    3.0640    2.8370 C   0  0  0  0  0  0  0  0  0  0  0  0
   -0.6610    2.3190    1.6760 C   0  0  0  0  0  0  0  0  0  0  0  0
    0.4470    2.2500    0.8520 C   0  0  0  0  0  0  0  0  0  0  0  0
   -1.3880   -1.4160   -1.2650 C   0  0  0  0  0  0  0  0  0  0  0  0
   -1.0780   -2.5050   -1.8150 O   0  0  0  0  0  0  0  0  0  0  0  0
    1.3400   -1.5660   -1.2570 H   0  0  0  0  0  0  0  0  0  0  0  0
   -0.8910   -0.5190    0.5600 H   0  0  0  0  0  0  0  0  0  0  0  0
    0.0980    0.6260   -2.1130 H   0  0  0  0  0  0  0  0  0  0  0  0
   -1.2420    1.2230   -1.1130 H   0  0  0  0  0  0  0  0  0  0  0  0
    2.5030    1.5460   -1.5630 H   0  0  0  0  0  0  0  0  0  0  0  0
    3.4570    3.1620    0.2980 H   0  0  0  0  0  0  0  0  0  0  0  0
    2.4620    4.2700    2.6440 H   0  0  0  0  0  0  0  0  0  0  0  0
    0.4720    4.3820    4.1060 H   0  0  0  0  0  0  0  0  0  0  0  0
   -1.5740    3.0980    3.4650 H   0  0  0  0  0  0  0  0  0  0  0  0
   -1.5270    1.7360    1.3430 H   0  0  0  0  0  0  0  0  0  0  0  0
   -2.7160   -0.9330   -1.4900 N   0  0  0  0  0  0  0  0  0  0  0  0
   -3.6820   -1.6140   -2.2930 C   0  0  1  0  0  0  0  0  0  0  0  0
   -4.8240   -2.0520   -1.4020 C   0  0  0  0  0  0  0  0  0  0  0  0
   -5.4770   -0.8900   -0.7420 C   0  0  0  0  0  0  0  0  0  0  0  0
   -5.0090   -0.4600    0.4940 C   0  0  0  0  0  0  0  0  0  0  0  0
   -5.6050    0.6160    1.1180 C   0  0  0  0  0  0  0  0  0  0  0  0
   -6.6640    1.2790    0.5360 C   0  0  0  0  0  0  0  0  0  0  0  0
   -7.1390    0.8630   -0.6890 C   0  0  0  0  0  0  0  0  0  0  0  0
   -6.5290   -0.2110   -1.2910 C   0  0  0  0  0  0  0  0  0  0  0  0
   -4.1480   -0.8440   -3.4480 C   0  0  0  0  0  0  0  0  0  0  0  0
   -4.9960   -1.3510   -4.2160 O   0  0  0  0  0  0  0  0  0  0  0  0
   -3.6810    0.4290   -3.7220 O   0  0  0  0  0  0  0  0  0  0  0  0
   -2.9470   -0.0250   -1.0210 H   0  0  0  0  0  0  0  0  0  0  0  0
   -3.1940   -2.5480   -2.6780 H   0  0  0  0  0  0  0  0  0  0  0  0
   -4.3890   -2.6810   -0.5970 H   0  0  0  0  0  0  0  0  0  0  0  0
   -5.5510   -2.6730   -1.9520 H   0  0  0  0  0  0  0  0  0  0  0  0
   -4.1740   -0.9480    0.9990 H   0  0  0  0  0  0  0  0  0  0  0  0
   -5.2720    0.9900    2.0890 H   0  0  0  0  0  0  0  0  0  0  0  0
   -7.1420    2.1390    1.0330 H   0  0  0  0  0  0  0  0  0  0  0  0
   -7.9760    1.3900   -1.1440 H   0  0  0  0  0  0  0  0  0  0  0  0
   -6.9000   -0.5430   -2.2560 H   0  0  0  0  0  0  0  0  0  0  0  0
  1 11  1  0  0  0  0
  1  2  1  0  0  0  0
  2 12  1  1  0  0  0
  2  3  1  0  0  0  0
  3  4  1  0  0  0  0
  3 14  1  0  0  0  0
  4  5  1  0  0  0  0
  4 16  1  0  0  0  0
  5  6  1  0  0  0  0
  5 18  1  0  0  0  0
  6 20  1  0  0  0  0
  6 19  1  0  0  0  0
  7 22  1  0  0  0  0
  7  6  1  0  0  0  0
  8  2  1  0  0  0  0
  8  9  2  0  0  0  0
 10  1  1  0  0  0  0
 13  3  1  0  0  0  0
 15  4  1  0  0  0  0
 17  5  1  0  0  0  0
 21  7  1  0  0  0  0
 23  8  1  0  0  0  0
 24 23  1  0  0  0  0
 24 38  1  1  0  0  0
 25 24  1  0  0  0  0
 25 26  1  0  0  0  0
 26 34  1  0  0  0  0
 27 26  2  0  0  0  0
 27 28  1  0  0  0  0
 28 42  1  0  0  0  0
 28 29  1  0  0  0  0
 29 30  1  0  0  0  0
 30 43  1  0  0  0  0
 30 31  2  0  0  0  0
 31 44  1  0  0  0  0
 32 31  1  0  0  0  0
 32 45  1  0  0  0  0
 33 32  2  0  0  0  0
 34 29  2  0  0  0  0
 34 33  1  0  0  0  0
 35 24  1  0  0  0  0
 36 35  2  0  0  0  0
 37 23  1  0  0  0  0
 39 25  1  0  0  0  0
 40 25  1  0  0  0  0
 41 27  1  0  0  0  0
 46 33  1  0  0  0  0
 47 35  1  0  0  0  0
 47 59  1  0  0  0  0
 48 60  1  6  0  0  0
 48 47  1  0  0  0  0
 48 49  1  0  0  0  0
 49 50  1  0  0  0  0
 49 61  1  0  0  0  0
 50 51  1  0  0  0  0
 51 63  1  0  0  0  0
 51 52  2  0  0  0  0
 52 64  1  0  0  0  0
 53 65  1  0  0  0  0
 53 52  1  0  0  0  0
 54 53  2  0  0  0  0
 55 50  2  0  0  0  0
 55 54  1  0  0  0  0
 56 48  1  0  0  0  0
 57 56  2  0  0  0  0
 58 56  1  0  0  0  0
 62 49  1  0  0  0  0
 66 54  1  0  0  0  0
 67 55  1  0  0  0  0
M  END
$$$$
