KWG.pdb
 OpenBabel07022418523D

 54 55  0  0  1  0  0  0  0  0999 V2000
    1.8400   -2.4330    1.7100 N   0  0  0  0  0  0  0  0  0  0  0  0
    0.4520   -2.4370    2.0980 C   0  0  1  0  0  0  0  0  0  0  0  0
    0.1750   -1.7520    3.3790 C   0  0  0  0  0  0  0  0  0  0  0  0
    0.5290   -0.3190    3.4780 C   0  0  0  0  0  0  0  0  0  0  0  0
    1.9640    0.0200    3.2770 C   0  0  0  0  0  0  0  0  0  0  0  0
    2.0870    1.5440    3.4300 C   0  0  0  0  0  0  0  0  0  0  0  0
    3.4790    1.9010    3.2390 N   0  0  0  0  0  0  0  0  0  0  0  0
   -0.4210   -2.0360    0.9730 C   0  0  0  0  0  0  0  0  0  0  0  0
   -1.6600   -2.0200    1.1540 O   0  0  0  0  0  0  0  0  0  0  0  0
    2.4020   -2.6090    2.5860 H   0  0  0  0  0  0  0  0  0  0  0  0
    2.0040   -3.2640    1.1000 H   0  0  0  0  0  0  0  0  0  0  0  0
    0.2030   -3.5290    2.2750 H   0  0  0  0  0  0  0  0  0  0  0  0
   -0.9170   -1.8460    3.5890 H   0  0  0  0  0  0  0  0  0  0  0  0
    0.6760   -2.3250    4.1940 H   0  0  0  0  0  0  0  0  0  0  0  0
    0.2490    0.0240    4.5070 H   0  0  0  0  0  0  0  0  0  0  0  0
   -0.0670    0.3310    2.7910 H   0  0  0  0  0  0  0  0  0  0  0  0
    2.3260   -0.1760    2.2420 H   0  0  0  0  0  0  0  0  0  0  0  0
    2.6290   -0.4010    4.0530 H   0  0  0  0  0  0  0  0  0  0  0  0
    1.4070    2.0680    2.7610 H   0  0  0  0  0  0  0  0  0  0  0  0
    1.8310    1.7590    4.4880 H   0  0  0  0  0  0  0  0  0  0  0  0
    4.0530    1.0800    3.5410 H   0  0  0  0  0  0  0  0  0  0  0  0
    3.6790    2.0880    2.2490 H   0  0  0  0  0  0  0  0  0  0  0  0
    0.0530   -1.6620   -0.3140 N   0  0  0  0  0  0  0  0  0  0  0  0
   -0.8230   -1.2760   -1.4000 C   0  0  1  0  0  0  0  0  0  0  0  0
   -0.6190    0.1400   -1.8690 C   0  0  0  0  0  0  0  0  0  0  0  0
   -0.8640    1.1260   -0.7850 C   0  0  0  0  0  0  0  0  0  0  0  0
    0.0260    1.8490   -0.0200 C   0  0  0  0  0  0  0  0  0  0  0  0
   -0.6520    2.6220    0.8460 N   0  0  0  0  0  0  0  0  0  0  0  0
   -1.9770    2.4490    0.6950 C   0  0  0  0  0  0  0  0  0  0  0  0
   -3.0670    3.0020    1.3320 C   0  0  0  0  0  0  0  0  0  0  0  0
   -4.3340    2.6170    0.9460 C   0  0  0  0  0  0  0  0  0  0  0  0
   -4.4640    1.6850   -0.0700 C   0  0  0  0  0  0  0  0  0  0  0  0
   -3.3830    1.1230   -0.7160 C   0  0  0  0  0  0  0  0  0  0  0  0
   -2.1230    1.5170   -0.3200 C   0  0  0  0  0  0  0  0  0  0  0  0
   -0.6700   -2.2540   -2.5060 C   0  0  0  0  0  0  0  0  0  0  0  0
   -1.3120   -2.1640   -3.5860 O   0  0  0  0  0  0  0  0  0  0  0  0
    1.0890   -1.6810   -0.4400 H   0  0  0  0  0  0  0  0  0  0  0  0
   -1.9040   -1.3380   -1.0830 H   0  0  0  0  0  0  0  0  0  0  0  0
   -1.3130    0.3320   -2.7010 H   0  0  0  0  0  0  0  0  0  0  0  0
    0.4070    0.2630   -2.2830 H   0  0  0  0  0  0  0  0  0  0  0  0
    1.1000    1.7940   -0.1110 H   0  0  0  0  0  0  0  0  0  0  0  0
   -0.2690    3.2960    1.5710 H   0  0  0  0  0  0  0  0  0  0  0  0
   -2.9830    3.7290    2.1250 H   0  0  0  0  0  0  0  0  0  0  0  0
   -5.2400    3.0130    1.4050 H   0  0  0  0  0  0  0  0  0  0  0  0
   -5.4500    1.3500   -0.4090 H   0  0  0  0  0  0  0  0  0  0  0  0
   -3.4920    0.3940   -1.5130 H   0  0  0  0  0  0  0  0  0  0  0  0
    0.2220   -3.3590   -2.3990 N   0  0  0  0  0  0  0  0  0  0  0  0
    0.3700   -4.3000   -3.4610 C   0  0  0  0  0  0  0  0  0  0  0  0
    1.3600   -5.3310   -3.0610 C   0  0  0  0  0  0  0  0  0  0  0  0
    1.6610   -6.2830   -3.8540 O   0  0  0  0  0  0  0  0  0  0  0  0
    2.0010   -5.3170   -1.8290 O   0  0  0  0  0  0  0  0  0  0  0  0
    0.7670   -3.4640   -1.5220 H   0  0  0  0  0  0  0  0  0  0  0  0
    0.6500   -3.8120   -4.4210 H   0  0  0  0  0  0  0  0  0  0  0  0
   -0.6140   -4.8420   -3.5610 H   0  0  0  0  0  0  0  0  0  0  0  0
  1  2  1  0  0  0  0
  1 10  1  0  0  0  0
  2 12  1  1  0  0  0
  2  3  1  0  0  0  0
  3  4  1  0  0  0  0
  3 13  1  0  0  0  0
  3 14  1  0  0  0  0
  4 15  1  0  0  0  0
  5  6  1  0  0  0  0
  5  4  1  0  0  0  0
  5 18  1  0  0  0  0
  6 20  1  0  0  0  0
  7  6  1  0  0  0  0
  7 21  1  0  0  0  0
  8  9  2  0  0  0  0
  8  2  1  0  0  0  0
 11  1  1  0  0  0  0
 16  4  1  0  0  0  0
 17  5  1  0  0  0  0
 19  6  1  0  0  0  0
 22  7  1  0  0  0  0
 23  8  1  0  0  0  0
 24 38  1  1  0  0  0
 24 23  1  0  0  0  0
 25 24  1  0  0  0  0
 25 26  1  0  0  0  0
 26 34  1  0  0  0  0
 26 27  2  0  0  0  0
 27 28  1  0  0  0  0
 28 42  1  0  0  0  0
 29 28  1  0  0  0  0
 29 30  1  0  0  0  0
 30 43  1  0  0  0  0
 31 30  2  0  0  0  0
 31 44  1  0  0  0  0
 32 31  1  0  0  0  0
 33 34  1  0  0  0  0
 33 32  2  0  0  0  0
 34 29  2  0  0  0  0
 35 47  1  0  0  0  0
 35 24  1  0  0  0  0
 36 35  2  0  0  0  0
 37 23  1  0  0  0  0
 39 25  1  0  0  0  0
 40 25  1  0  0  0  0
 41 27  1  0  0  0  0
 45 32  1  0  0  0  0
 46 33  1  0  0  0  0
 47 52  1  0  0  0  0
 48 49  1  0  0  0  0
 48 47  1  0  0  0  0
 49 51  1  0  0  0  0
 50 49  2  0  0  0  0
 53 48  1  0  0  0  0
 54 48  1  0  0  0  0
M  END
$$$$
