KWH.pdb
 OpenBabel07022418523D

 64 66  0  0  1  0  0  0  0  0999 V2000
    5.4540   -0.6670    1.7310 N   0  0  0  0  0  0  0  0  0  0  0  0
    4.3280   -1.4900    1.3010 C   0  0  1  0  0  0  0  0  0  0  0  0
    4.2240   -2.6320    2.2390 C   0  0  0  0  0  0  0  0  0  0  0  0
    4.0510   -2.3450    3.6740 C   0  0  0  0  0  0  0  0  0  0  0  0
    2.8600   -1.6520    4.1740 C   0  0  0  0  0  0  0  0  0  0  0  0
    1.5450   -2.3250    4.0160 C   0  0  0  0  0  0  0  0  0  0  0  0
    1.1170   -2.6400    2.7060 N   0  0  0  0  0  0  0  0  0  0  0  0
    3.1390   -0.7500    0.9240 C   0  0  0  0  0  0  0  0  0  0  0  0
    2.9450    0.4220    1.3350 O   0  0  0  0  0  0  0  0  0  0  0  0
    6.3580   -1.1320    1.5040 H   0  0  0  0  0  0  0  0  0  0  0  0
    5.4610    0.2630    1.3010 H   0  0  0  0  0  0  0  0  0  0  0  0
    4.7170   -1.9380    0.3110 H   0  0  0  0  0  0  0  0  0  0  0  0
    3.4800   -3.3550    1.8280 H   0  0  0  0  0  0  0  0  0  0  0  0
    5.2030   -3.2030    2.1490 H   0  0  0  0  0  0  0  0  0  0  0  0
    4.1360   -3.3300    4.2180 H   0  0  0  0  0  0  0  0  0  0  0  0
    4.9980   -1.8050    4.0110 H   0  0  0  0  0  0  0  0  0  0  0  0
    2.7390   -0.6040    3.8260 H   0  0  0  0  0  0  0  0  0  0  0  0
    3.0110   -1.5200    5.2980 H   0  0  0  0  0  0  0  0  0  0  0  0
    0.7320   -1.7130    4.5080 H   0  0  0  0  0  0  0  0  0  0  0  0
    1.5330   -3.2830    4.6200 H   0  0  0  0  0  0  0  0  0  0  0  0
    0.0680   -2.4750    2.6180 H   0  0  0  0  0  0  0  0  0  0  0  0
    1.2180   -3.6650    2.5340 H   0  0  0  0  0  0  0  0  0  0  0  0
    2.1420   -1.2990    0.0730 N   0  0  0  0  0  0  0  0  0  0  0  0
    0.9660   -0.4930   -0.2790 C   0  0  1  0  0  0  0  0  0  0  0  0
    1.2110    0.1150   -1.6450 C   0  0  0  0  0  0  0  0  0  0  0  0
    0.1430    0.9360   -2.1950 C   0  0  0  0  0  0  0  0  0  0  0  0
    0.0400    2.3320   -2.1280 C   0  0  0  0  0  0  0  0  0  0  0  0
   -1.0820    2.7400   -2.7480 N   0  0  0  0  0  0  0  0  0  0  0  0
   -1.7480    1.6770   -3.2360 C   0  0  0  0  0  0  0  0  0  0  0  0
   -2.9220    1.5980   -3.9510 C   0  0  0  0  0  0  0  0  0  0  0  0
   -3.3940    0.3700   -4.3600 C   0  0  0  0  0  0  0  0  0  0  0  0
   -2.6590   -0.7500   -4.0310 C   0  0  0  0  0  0  0  0  0  0  0  0
   -1.4880   -0.6520   -3.3150 C   0  0  0  0  0  0  0  0  0  0  0  0
   -0.9990    0.5570   -2.8980 C   0  0  0  0  0  0  0  0  0  0  0  0
   -0.2730   -1.2630   -0.1460 C   0  0  0  0  0  0  0  0  0  0  0  0
   -0.2560   -2.5460   -0.0910 O   0  0  0  0  0  0  0  0  0  0  0  0
    2.1910   -2.2580   -0.3280 H   0  0  0  0  0  0  0  0  0  0  0  0
    0.9500    0.3680    0.4180 H   0  0  0  0  0  0  0  0  0  0  0  0
    2.1370    0.7570   -1.5130 H   0  0  0  0  0  0  0  0  0  0  0  0
    1.5410   -0.6610   -2.3780 H   0  0  0  0  0  0  0  0  0  0  0  0
    0.7960    2.9410   -1.6300 H   0  0  0  0  0  0  0  0  0  0  0  0
   -1.4120    3.7380   -2.8510 H   0  0  0  0  0  0  0  0  0  0  0  0
   -3.5030    2.4670   -4.2130 H   0  0  0  0  0  0  0  0  0  0  0  0
   -4.3270    0.2620   -4.9340 H   0  0  0  0  0  0  0  0  0  0  0  0
   -3.0220   -1.7190   -4.3480 H   0  0  0  0  0  0  0  0  0  0  0  0
   -0.8930   -1.5280   -3.0450 H   0  0  0  0  0  0  0  0  0  0  0  0
   -1.5640   -0.6670   -0.0590 N   0  0  0  0  0  0  0  0  0  0  0  0
   -2.7750   -1.4480    0.0820 C   0  0  1  0  0  0  0  0  0  0  0  0
   -3.1550   -1.4230    1.5930 C   0  0  0  0  0  0  0  0  0  0  0  0
   -3.3770   -0.0030    2.0040 C   0  0  0  0  0  0  0  0  0  0  0  0
   -4.5800    0.6720    1.9530 C   0  0  0  0  0  0  0  0  0  0  0  0
   -4.3940    1.9280    2.4020 N   0  0  0  0  0  0  0  0  0  0  0  0
   -3.0970    2.0560    2.7340 C   0  0  0  0  0  0  0  0  0  0  0  0
   -2.4900    0.8830    2.4900 N   0  0  0  0  0  0  0  0  0  0  0  0
   -3.9470   -0.8720   -0.5940 C   0  0  0  0  0  0  0  0  0  0  0  0
   -3.8400    0.2280   -1.1780 O   0  0  0  0  0  0  0  0  0  0  0  0
   -5.1690   -1.5130   -0.6030 O   0  0  0  0  0  0  0  0  0  0  0  0
   -1.6130    0.3680   -0.0960 H   0  0  0  0  0  0  0  0  0  0  0  0
   -2.6350   -2.5260   -0.1120 H   0  0  0  0  0  0  0  0  0  0  0  0
   -4.0790   -1.9860    1.7320 H   0  0  0  0  0  0  0  0  0  0  0  0
   -2.2710   -1.8650    2.0980 H   0  0  0  0  0  0  0  0  0  0  0  0
   -5.5120    0.2620    1.6110 H   0  0  0  0  0  0  0  0  0  0  0  0
   -5.0950    2.7050    2.4970 H   0  0  0  0  0  0  0  0  0  0  0  0
   -2.5760    2.9180    3.1300 H   0  0  0  0  0  0  0  0  0  0  0  0
  2 12  1  6  0  0  0
  2  1  1  0  0  0  0
  2  3  1  0  0  0  0
  3  4  1  0  0  0  0
  4 16  1  0  0  0  0
  4  5  1  0  0  0  0
  4 15  1  0  0  0  0
  5 18  1  0  0  0  0
  6  5  1  0  0  0  0
  6 19  1  0  0  0  0
  6 20  1  0  0  0  0
  7  6  1  0  0  0  0
  8  2  1  0  0  0  0
  8  9  2  0  0  0  0
 10  1  1  0  0  0  0
 11  1  1  0  0  0  0
 13  3  1  0  0  0  0
 14  3  1  0  0  0  0
 17  5  1  0  0  0  0
 21  7  1  0  0  0  0
 22  7  1  0  0  0  0
 23  8  1  0  0  0  0
 24 35  1  0  0  0  0
 24 23  1  0  0  0  0
 24 38  1  1  0  0  0
 25 39  1  0  0  0  0
 25 24  1  0  0  0  0
 26 27  2  0  0  0  0
 26 25  1  0  0  0  0
 27 41  1  0  0  0  0
 28 27  1  0  0  0  0
 29 34  1  0  0  0  0
 29 28  1  0  0  0  0
 30 29  2  0  0  0  0
 31 32  2  0  0  0  0
 31 30  1  0  0  0  0
 32 33  1  0  0  0  0
 33 46  1  0  0  0  0
 33 34  2  0  0  0  0
 34 26  1  0  0  0  0
 35 36  2  0  0  0  0
 35 47  1  0  0  0  0
 37 23  1  0  0  0  0
 40 25  1  0  0  0  0
 42 28  1  0  0  0  0
 43 30  1  0  0  0  0
 44 31  1  0  0  0  0
 45 32  1  0  0  0  0
 47 48  1  0  0  0  0
 48 59  1  6  0  0  0
 48 49  1  0  0  0  0
 49 60  1  0  0  0  0
 49 50  1  0  0  0  0
 49 61  1  0  0  0  0
 50 54  1  0  0  0  0
 51 50  2  0  0  0  0
 51 52  1  0  0  0  0
 52 63  1  0  0  0  0
 52 53  1  0  0  0  0
 53 64  1  0  0  0  0
 54 53  2  0  0  0  0
 55 48  1  0  0  0  0
 56 55  2  0  0  0  0
 57 55  1  0  0  0  0
 58 47  1  0  0  0  0
 62 51  1  0  0  0  0
M  END
$$$$
