KWI.pdb
 OpenBabel07022418523D

 66 67  0  0  1  0  0  0  0  0999 V2000
    3.6860    1.5550    2.9270 N   0  0  0  0  0  0  0  0  0  0  0  0
    3.0740    0.7490    1.8870 C   0  0  1  0  0  0  0  0  0  0  0  0
    3.2890   -0.6750    2.2390 C   0  0  0  0  0  0  0  0  0  0  0  0
    4.7480   -1.0070    2.3410 C   0  0  0  0  0  0  0  0  0  0  0  0
    5.4420   -0.7520    1.0340 C   0  0  0  0  0  0  0  0  0  0  0  0
    4.7850   -1.6180   -0.0310 C   0  0  0  0  0  0  0  0  0  0  0  0
    5.4710   -1.3700   -1.2940 N   0  0  0  0  0  0  0  0  0  0  0  0
    1.6660    1.1580    1.7690 C   0  0  0  0  0  0  0  0  0  0  0  0
    1.2400    2.0480    2.5430 O   0  0  0  0  0  0  0  0  0  0  0  0
    3.2140    1.3110    3.8250 H   0  0  0  0  0  0  0  0  0  0  0  0
    3.4320    2.5740    2.7570 H   0  0  0  0  0  0  0  0  0  0  0  0
    3.5590    1.0230    0.9320 H   0  0  0  0  0  0  0  0  0  0  0  0
    2.8070   -1.4200    1.6080 H   0  0  0  0  0  0  0  0  0  0  0  0
    2.8710   -0.8750    3.2770 H   0  0  0  0  0  0  0  0  0  0  0  0
    4.7880   -2.1130    2.5710 H   0  0  0  0  0  0  0  0  0  0  0  0
    5.2460   -0.4860    3.1910 H   0  0  0  0  0  0  0  0  0  0  0  0
    5.3910    0.3070    0.7460 H   0  0  0  0  0  0  0  0  0  0  0  0
    6.5080   -1.0730    1.1760 H   0  0  0  0  0  0  0  0  0  0  0  0
    4.8230   -2.6840    0.2190 H   0  0  0  0  0  0  0  0  0  0  0  0
    3.7240   -1.3380   -0.1800 H   0  0  0  0  0  0  0  0  0  0  0  0
    4.8710   -1.6470   -2.1170 H   0  0  0  0  0  0  0  0  0  0  0  0
    5.6110   -0.3260   -1.4130 H   0  0  0  0  0  0  0  0  0  0  0  0
    0.7550    0.6180    0.8390 N   0  0  0  0  0  0  0  0  0  0  0  0
   -0.6510    1.0470    0.7440 C   0  0  1  0  0  0  0  0  0  0  0  0
   -0.9080    1.6860   -0.5720 C   0  0  0  0  0  0  0  0  0  0  0  0
   -2.3110    2.1050   -0.7320 C   0  0  0  0  0  0  0  0  0  0  0  0
   -2.8560    3.3530   -0.3850 C   0  0  0  0  0  0  0  0  0  0  0  0
   -4.1650    3.3510   -0.6360 N   0  0  0  0  0  0  0  0  0  0  0  0
   -4.5570    2.1510   -1.1460 C   0  0  0  0  0  0  0  0  0  0  0  0
   -5.7810    1.6780   -1.5730 C   0  0  0  0  0  0  0  0  0  0  0  0
   -5.8620    0.4060   -2.0720 C   0  0  0  0  0  0  0  0  0  0  0  0
   -4.7180   -0.3640   -2.1340 C   0  0  0  0  0  0  0  0  0  0  0  0
   -3.5010    0.0950   -1.7140 C   0  0  0  0  0  0  0  0  0  0  0  0
   -3.4010    1.3820   -1.2040 C   0  0  0  0  0  0  0  0  0  0  0  0
   -1.4960   -0.0800    1.0860 C   0  0  0  0  0  0  0  0  0  0  0  0
   -2.7560    0.0110    1.2600 O   0  0  0  0  0  0  0  0  0  0  0  0
    1.0850   -0.1050    0.2010 H   0  0  0  0  0  0  0  0  0  0  0  0
   -0.8250    1.8320    1.5410 H   0  0  0  0  0  0  0  0  0  0  0  0
   -0.2080    2.5610   -0.7520 H   0  0  0  0  0  0  0  0  0  0  0  0
   -0.6600    0.9960   -1.4160 H   0  0  0  0  0  0  0  0  0  0  0  0
   -2.2530    4.1530    0.0210 H   0  0  0  0  0  0  0  0  0  0  0  0
   -4.8230    4.1330   -0.4780 H   0  0  0  0  0  0  0  0  0  0  0  0
   -6.6520    2.3050   -1.5090 H   0  0  0  0  0  0  0  0  0  0  0  0
   -6.8040   -0.0200   -2.4240 H   0  0  0  0  0  0  0  0  0  0  0  0
   -4.7600   -1.3920   -2.5340 H   0  0  0  0  0  0  0  0  0  0  0  0
   -2.5900   -0.4860   -1.7510 H   0  0  0  0  0  0  0  0  0  0  0  0
    0.4700   -3.5320   -0.4330 C   0  0  0  0  0  0  0  0  0  0  0  0
   -0.5390   -4.3040    0.3310 C   0  0  0  0  0  0  0  0  0  0  0  0
   -1.8360   -3.6450    0.6080 C   0  0  2  0  0  0  0  0  0  0  0  0
   -2.5930   -3.2390   -0.6340 C   0  0  0  0  0  0  0  0  0  0  0  0
   -1.8170   -2.5300    1.5980 C   0  0  2  0  0  0  0  0  0  0  0  0
   -0.9850   -1.4220    1.2630 N   0  0  0  0  0  0  0  0  0  0  0  0
   -1.4550   -3.1130    2.9390 C   0  0  0  0  0  0  0  0  0  0  0  0
   -2.1270   -4.0970    3.3440 O   0  0  0  0  0  0  0  0  0  0  0  0
   -0.4420   -2.6250    3.7210 O   0  0  0  0  0  0  0  0  0  0  0  0
    0.8460   -4.2220   -1.2510 H   0  0  0  0  0  0  0  0  0  0  0  0
    1.3840   -3.2540    0.1170 H   0  0  0  0  0  0  0  0  0  0  0  0
    0.0920   -2.6540   -0.9850 H   0  0  0  0  0  0  0  0  0  0  0  0
   -0.0790   -4.5390    1.3370 H   0  0  0  0  0  0  0  0  0  0  0  0
   -0.7330   -5.3320   -0.0950 H   0  0  0  0  0  0  0  0  0  0  0  0
   -2.4900   -4.4480    1.0790 H   0  0  0  0  0  0  0  0  0  0  0  0
   -3.3570   -2.4960   -0.3210 H   0  0  0  0  0  0  0  0  0  0  0  0
   -3.1430   -4.1210   -1.0540 H   0  0  0  0  0  0  0  0  0  0  0  0
   -1.9670   -2.7750   -1.3950 H   0  0  0  0  0  0  0  0  0  0  0  0
   -2.8680   -2.1340    1.7250 H   0  0  0  0  0  0  0  0  0  0  0  0
    0.0380   -1.5740    1.1410 H   0  0  0  0  0  0  0  0  0  0  0  0
  1 10  1  0  0  0  0
  2 12  1  6  0  0  0
  2  3  1  0  0  0  0
  2  1  1  0  0  0  0
  3  4  1  0  0  0  0
  3 14  1  0  0  0  0
  4 15  1  0  0  0  0
  4 16  1  0  0  0  0
  5 18  1  0  0  0  0
  5  4  1  0  0  0  0
  6 19  1  0  0  0  0
  6  5  1  0  0  0  0
  7  6  1  0  0  0  0
  8  2  1  0  0  0  0
  8  9  2  0  0  0  0
 11  1  1  0  0  0  0
 13  3  1  0  0  0  0
 17  5  1  0  0  0  0
 20  6  1  0  0  0  0
 21  7  1  0  0  0  0
 22  7  1  0  0  0  0
 23  8  1  0  0  0  0
 24 23  1  0  0  0  0
 24 35  1  0  0  0  0
 24 38  1  1  0  0  0
 25 24  1  0  0  0  0
 26 25  1  0  0  0  0
 26 27  2  0  0  0  0
 27 41  1  0  0  0  0
 28 42  1  0  0  0  0
 28 27  1  0  0  0  0
 29 28  1  0  0  0  0
 30 43  1  0  0  0  0
 30 29  2  0  0  0  0
 31 30  1  0  0  0  0
 32 31  2  0  0  0  0
 32 33  1  0  0  0  0
 33 34  2  0  0  0  0
 34 29  1  0  0  0  0
 34 26  1  0  0  0  0
 35 36  2  0  0  0  0
 35 52  1  0  0  0  0
 37 23  1  0  0  0  0
 39 25  1  0  0  0  0
 40 25  1  0  0  0  0
 44 31  1  0  0  0  0
 45 32  1  0  0  0  0
 46 33  1  0  0  0  0
 47 57  1  0  0  0  0
 47 48  1  0  0  0  0
 48 49  1  0  0  0  0
 48 59  1  0  0  0  0
 49 61  1  1  0  0  0
 49 51  1  0  0  0  0
 50 62  1  0  0  0  0
 50 49  1  0  0  0  0
 51 65  1  1  0  0  0
 51 53  1  0  0  0  0
 52 51  1  0  0  0  0
 53 54  2  0  0  0  0
 53 55  1  0  0  0  0
 56 47  1  0  0  0  0
 58 47  1  0  0  0  0
 60 48  1  0  0  0  0
 63 50  1  0  0  0  0
 64 50  1  0  0  0  0
 66 52  1  0  0  0  0
M  END
$$$$
