KWK.pdb
 OpenBabel07022418523D

 68 69  0  0  1  0  0  0  0  0999 V2000
    1.5240    2.8850    2.8740 N   0  0  0  0  0  0  0  0  0  0  0  0
    2.6670    2.0060    2.6410 C   0  0  1  0  0  0  0  0  0  0  0  0
    2.9780    1.2540    3.9160 C   0  0  0  0  0  0  0  0  0  0  0  0
    4.1280    0.3220    3.8130 C   0  0  0  0  0  0  0  0  0  0  0  0
    4.3330   -0.3400    5.1820 C   0  0  0  0  0  0  0  0  0  0  0  0
    3.1010   -1.1110    5.5970 C   0  0  0  0  0  0  0  0  0  0  0  0
    3.4170   -1.7000    6.8960 N   0  0  0  0  0  0  0  0  0  0  0  0
    2.3400    1.0010    1.5890 C   0  0  0  0  0  0  0  0  0  0  0  0
    3.2230    0.2470    1.1170 O   0  0  0  0  0  0  0  0  0  0  0  0
    0.7900    2.3390    3.3350 H   0  0  0  0  0  0  0  0  0  0  0  0
    1.8600    3.5960    3.5670 H   0  0  0  0  0  0  0  0  0  0  0  0
    3.5610    2.5670    2.3470 H   0  0  0  0  0  0  0  0  0  0  0  0
    2.0580    0.6190    4.0940 H   0  0  0  0  0  0  0  0  0  0  0  0
    3.1230    1.9340    4.7760 H   0  0  0  0  0  0  0  0  0  0  0  0
    5.0740    0.7730    3.5030 H   0  0  0  0  0  0  0  0  0  0  0  0
    3.9490   -0.5410    3.1290 H   0  0  0  0  0  0  0  0  0  0  0  0
    4.4550    0.4800    5.9360 H   0  0  0  0  0  0  0  0  0  0  0  0
    5.1780   -1.0360    5.1470 H   0  0  0  0  0  0  0  0  0  0  0  0
    2.2300   -0.4300    5.7970 H   0  0  0  0  0  0  0  0  0  0  0  0
    2.8500   -1.9410    4.9250 H   0  0  0  0  0  0  0  0  0  0  0  0
    2.6360   -2.3360    7.1760 H   0  0  0  0  0  0  0  0  0  0  0  0
    4.2740   -2.2880    6.8490 H   0  0  0  0  0  0  0  0  0  0  0  0
    1.0310    0.8440    1.0740 N   0  0  0  0  0  0  0  0  0  0  0  0
    0.6760   -0.1370    0.0370 C   0  0  1  0  0  0  0  0  0  0  0  0
   -0.0450   -1.2900    0.6130 C   0  0  0  0  0  0  0  0  0  0  0  0
   -1.2960   -1.0660    1.3210 C   0  0  0  0  0  0  0  0  0  0  0  0
   -1.3680   -0.7820    2.6960 C   0  0  0  0  0  0  0  0  0  0  0  0
   -2.6480   -0.5770    3.0480 N   0  0  0  0  0  0  0  0  0  0  0  0
   -3.4160   -0.7190    1.9420 C   0  0  0  0  0  0  0  0  0  0  0  0
   -4.7830   -0.6280    1.7830 C   0  0  0  0  0  0  0  0  0  0  0  0
   -5.3650   -0.8380    0.5570 C   0  0  0  0  0  0  0  0  0  0  0  0
   -4.5380   -1.1460   -0.5290 C   0  0  0  0  0  0  0  0  0  0  0  0
   -3.1760   -1.2300   -0.3460 C   0  0  0  0  0  0  0  0  0  0  0  0
   -2.5810   -1.0220    0.8750 C   0  0  0  0  0  0  0  0  0  0  0  0
    0.1320    0.4740   -1.1440 C   0  0  0  0  0  0  0  0  0  0  0  0
    0.0820    1.7340   -1.2170 O   0  0  0  0  0  0  0  0  0  0  0  0
    0.2830    1.4560    1.4490 H   0  0  0  0  0  0  0  0  0  0  0  0
    1.7260   -0.6130   -0.2430 H   0  0  0  0  0  0  0  0  0  0  0  0
    0.7030   -1.8450    1.2610 H   0  0  0  0  0  0  0  0  0  0  0  0
   -0.1870   -2.0300   -0.2460 H   0  0  0  0  0  0  0  0  0  0  0  0
   -0.5290   -0.7360    3.3690 H   0  0  0  0  0  0  0  0  0  0  0  0
   -3.0010   -0.3460    4.0090 H   0  0  0  0  0  0  0  0  0  0  0  0
   -5.4370   -0.3860    2.6320 H   0  0  0  0  0  0  0  0  0  0  0  0
   -6.4130   -0.7820    0.3710 H   0  0  0  0  0  0  0  0  0  0  0  0
   -4.9520   -1.3210   -1.5170 H   0  0  0  0  0  0  0  0  0  0  0  0
   -2.5690   -1.4750   -1.2050 H   0  0  0  0  0  0  0  0  0  0  0  0
   -0.3620   -0.2240   -2.2790 N   0  0  0  0  0  0  0  0  0  0  0  0
   -0.8390    0.4130   -3.4530 C   0  0  1  0  0  0  0  0  0  0  0  0
   -0.6590   -0.3620   -4.6760 C   0  0  0  0  0  0  0  0  0  0  0  0
   -1.3090   -1.6460   -4.9290 C   0  0  0  0  0  0  0  0  0  0  0  0
   -1.1140   -2.8060   -4.0200 C   0  0  0  0  0  0  0  0  0  0  0  0
   -1.8870   -3.9750   -4.7270 C   0  0  0  0  0  0  0  0  0  0  0  0
   -1.7620   -5.1550   -3.9290 N   0  0  0  0  0  0  0  0  0  0  0  0
   -2.1480    1.1000   -3.3510 C   0  0  0  0  0  0  0  0  0  0  0  0
   -2.6490    1.5720   -4.3910 O   0  0  0  0  0  0  0  0  0  0  0  0
   -2.8050    1.2310   -2.1740 O   0  0  0  0  0  0  0  0  0  0  0  0
   -0.3360   -1.2490   -2.2090 H   0  0  0  0  0  0  0  0  0  0  0  0
   -0.1250    1.3340   -3.5570 H   0  0  0  0  0  0  0  0  0  0  0  0
   -0.7620    0.3500   -5.5600 H   0  0  0  0  0  0  0  0  0  0  0  0
    0.4770   -0.5790   -4.7400 H   0  0  0  0  0  0  0  0  0  0  0  0
   -0.9460   -2.0000   -5.9570 H   0  0  0  0  0  0  0  0  0  0  0  0
   -2.4300   -1.5610   -5.0640 H   0  0  0  0  0  0  0  0  0  0  0  0
   -1.6680   -2.6890   -3.0480 H   0  0  0  0  0  0  0  0  0  0  0  0
   -0.0900   -3.1280   -3.9400 H   0  0  0  0  0  0  0  0  0  0  0  0
   -1.4690   -4.0810   -5.7490 H   0  0  0  0  0  0  0  0  0  0  0  0
   -2.9520   -3.6910   -4.8420 H   0  0  0  0  0  0  0  0  0  0  0  0
   -0.7550   -5.3460   -3.7580 H   0  0  0  0  0  0  0  0  0  0  0  0
   -2.2820   -5.0110   -3.0410 H   0  0  0  0  0  0  0  0  0  0  0  0
  1 10  1  0  0  0  0
  1 11  1  0  0  0  0
  2 12  1  6  0  0  0
  2  1  1  0  0  0  0
  2  3  1  0  0  0  0
  3 13  1  0  0  0  0
  3 14  1  0  0  0  0
  4  3  1  0  0  0  0
  4  5  1  0  0  0  0
  5  6  1  0  0  0  0
  5 17  1  0  0  0  0
  6 19  1  0  0  0  0
  6  7  1  0  0  0  0
  7 21  1  0  0  0  0
  8  2  1  0  0  0  0
  9  8  2  0  0  0  0
 15  4  1  0  0  0  0
 16  4  1  0  0  0  0
 18  5  1  0  0  0  0
 20  6  1  0  0  0  0
 22  7  1  0  0  0  0
 23 37  1  0  0  0  0
 23  8  1  0  0  0  0
 24 38  1  6  0  0  0
 24 25  1  0  0  0  0
 24 23  1  0  0  0  0
 25 39  1  0  0  0  0
 25 26  1  0  0  0  0
 26 27  2  0  0  0  0
 27 28  1  0  0  0  0
 27 41  1  0  0  0  0
 28 42  1  0  0  0  0
 29 28  1  0  0  0  0
 30 29  1  0  0  0  0
 30 43  1  0  0  0  0
 31 30  2  0  0  0  0
 32 33  2  0  0  0  0
 32 31  1  0  0  0  0
 33 34  1  0  0  0  0
 34 26  1  0  0  0  0
 34 29  2  0  0  0  0
 35 24  1  0  0  0  0
 36 35  2  0  0  0  0
 40 25  1  0  0  0  0
 44 31  1  0  0  0  0
 45 32  1  0  0  0  0
 46 33  1  0  0  0  0
 47 57  1  0  0  0  0
 47 35  1  0  0  0  0
 48 58  1  6  0  0  0
 48 54  1  0  0  0  0
 48 47  1  0  0  0  0
 49 48  1  0  0  0  0
 50 49  1  0  0  0  0
 50 51  1  0  0  0  0
 51 64  1  0  0  0  0
 51 63  1  0  0  0  0
 52 51  1  0  0  0  0
 52 53  1  0  0  0  0
 53 67  1  0  0  0  0
 53 68  1  0  0  0  0
 54 56  1  0  0  0  0
 55 54  2  0  0  0  0
 59 49  1  0  0  0  0
 60 49  1  0  0  0  0
 61 50  1  0  0  0  0
 62 50  1  0  0  0  0
 65 52  1  0  0  0  0
 66 52  1  0  0  0  0
M  END
$$$$
