KWM.pdb
 OpenBabel07022418523D

 64 65  0  0  1  0  0  0  0  0999 V2000
    3.0030    1.5760    3.8420 N   0  0  0  0  0  0  0  0  0  0  0  0
    2.5840    0.6610    2.7990 C   0  0  1  0  0  0  0  0  0  0  0  0
    2.3760   -0.6790    3.3630 C   0  0  0  0  0  0  0  0  0  0  0  0
    3.6110   -1.2570    3.9990 C   0  0  0  0  0  0  0  0  0  0  0  0
    4.7230   -1.3780    2.9900 C   0  0  0  0  0  0  0  0  0  0  0  0
    4.3110   -2.2780    1.8350 C   0  0  0  0  0  0  0  0  0  0  0  0
    5.4590   -2.3200    0.9290 N   0  0  0  0  0  0  0  0  0  0  0  0
    1.4560    1.2540    2.0800 C   0  0  0  0  0  0  0  0  0  0  0  0
    1.0590    2.3930    2.4250 O   0  0  0  0  0  0  0  0  0  0  0  0
    2.9740    1.1240    4.8020 H   0  0  0  0  0  0  0  0  0  0  0  0
    2.3310    2.3940    3.9420 H   0  0  0  0  0  0  0  0  0  0  0  0
    3.4350    0.6360    2.0560 H   0  0  0  0  0  0  0  0  0  0  0  0
    1.9720   -1.4400    2.6740 H   0  0  0  0  0  0  0  0  0  0  0  0
    1.6140   -0.6170    4.1970 H   0  0  0  0  0  0  0  0  0  0  0  0
    3.3720   -2.3030    4.3510 H   0  0  0  0  0  0  0  0  0  0  0  0
    3.9410   -0.6670    4.8790 H   0  0  0  0  0  0  0  0  0  0  0  0
    5.0540   -0.3890    2.6360 H   0  0  0  0  0  0  0  0  0  0  0  0
    5.6250   -1.8470    3.4880 H   0  0  0  0  0  0  0  0  0  0  0  0
    4.0520   -3.2750    2.2110 H   0  0  0  0  0  0  0  0  0  0  0  0
    3.4360   -1.8520    1.3160 H   0  0  0  0  0  0  0  0  0  0  0  0
    5.1810   -2.7990    0.0420 H   0  0  0  0  0  0  0  0  0  0  0  0
    5.8710   -1.3820    0.7950 H   0  0  0  0  0  0  0  0  0  0  0  0
    0.7720    0.6320    1.0100 N   0  0  0  0  0  0  0  0  0  0  0  0
   -0.3530    1.2300    0.2920 C   0  0  1  0  0  0  0  0  0  0  0  0
   -0.0440    1.3890   -1.1470 C   0  0  0  0  0  0  0  0  0  0  0  0
   -1.1510    1.9540   -1.9320 C   0  0  0  0  0  0  0  0  0  0  0  0
   -1.3890    3.3180   -2.1710 C   0  0  0  0  0  0  0  0  0  0  0  0
   -2.5090    3.4560   -2.8860 N   0  0  0  0  0  0  0  0  0  0  0  0
   -3.0550    2.2370   -3.1520 C   0  0  0  0  0  0  0  0  0  0  0  0
   -4.1810    1.8630   -3.8610 C   0  0  0  0  0  0  0  0  0  0  0  0
   -4.5040    0.5410   -4.0050 C   0  0  0  0  0  0  0  0  0  0  0  0
   -3.6640   -0.3870   -3.4180 C   0  0  0  0  0  0  0  0  0  0  0  0
   -2.5500   -0.0210   -2.7150 C   0  0  0  0  0  0  0  0  0  0  0  0
   -2.2130    1.3230   -2.5620 C   0  0  0  0  0  0  0  0  0  0  0  0
   -1.5450    0.4420    0.5720 C   0  0  0  0  0  0  0  0  0  0  0  0
   -2.7030    0.7970    0.2300 O   0  0  0  0  0  0  0  0  0  0  0  0
    1.0940   -0.3000    0.7270 H   0  0  0  0  0  0  0  0  0  0  0  0
   -0.5550    2.2620    0.6930 H   0  0  0  0  0  0  0  0  0  0  0  0
    0.1500    0.3450   -1.5460 H   0  0  0  0  0  0  0  0  0  0  0  0
    0.9110    1.9450   -1.3220 H   0  0  0  0  0  0  0  0  0  0  0  0
   -0.7330    4.1030   -1.8100 H   0  0  0  0  0  0  0  0  0  0  0  0
   -2.9230    4.3550   -3.2050 H   0  0  0  0  0  0  0  0  0  0  0  0
   -4.8170    2.6030   -4.3080 H   0  0  0  0  0  0  0  0  0  0  0  0
   -5.3960    0.2210   -4.5650 H   0  0  0  0  0  0  0  0  0  0  0  0
   -3.9010   -1.4570   -3.5200 H   0  0  0  0  0  0  0  0  0  0  0  0
   -1.8700   -0.7330   -2.2420 H   0  0  0  0  0  0  0  0  0  0  0  0
   -1.5440   -5.0390   -2.5280 C   0  0  0  0  0  0  0  0  0  0  0  0
   -1.9310   -4.9020   -0.7760 S   0  0  0  0  0  0  0  0  0  0  0  0
   -2.1450   -3.1500   -0.3450 C   0  0  0  0  0  0  0  0  0  0  0  0
   -2.4600   -2.9900    1.1280 C   0  0  0  0  0  0  0  0  0  0  0  0
   -2.6410   -1.5620    1.5270 C   0  0  2  0  0  0  0  0  0  0  0  0
   -1.4460   -0.7960    1.2610 N   0  0  0  0  0  0  0  0  0  0  0  0
   -2.8370   -1.5470    3.0210 C   0  0  0  0  0  0  0  0  0  0  0  0
   -3.8240   -2.1460    3.5150 O   0  0  0  0  0  0  0  0  0  0  0  0
   -1.9690   -0.8970    3.8750 O   0  0  0  0  0  0  0  0  0  0  0  0
   -2.4930   -5.0390   -3.1120 H   0  0  0  0  0  0  0  0  0  0  0  0
   -0.9780   -5.9780   -2.7610 H   0  0  0  0  0  0  0  0  0  0  0  0
   -0.9750   -4.1350   -2.8900 H   0  0  0  0  0  0  0  0  0  0  0  0
   -1.2420   -2.6170   -0.6650 H   0  0  0  0  0  0  0  0  0  0  0  0
   -2.9910   -2.7810   -0.9730 H   0  0  0  0  0  0  0  0  0  0  0  0
   -1.6940   -3.4430    1.7710 H   0  0  0  0  0  0  0  0  0  0  0  0
   -3.4530   -3.4940    1.2830 H   0  0  0  0  0  0  0  0  0  0  0  0
   -3.5500   -1.0740    1.1140 H   0  0  0  0  0  0  0  0  0  0  0  0
   -0.5480   -1.1940    1.5930 H   0  0  0  0  0  0  0  0  0  0  0  0
  1 11  1  0  0  0  0
  1 10  1  0  0  0  0
  2 12  1  6  0  0  0
  2  3  1  0  0  0  0
  2  1  1  0  0  0  0
  3  4  1  0  0  0  0
  3 14  1  0  0  0  0
  4 15  1  0  0  0  0
  4 16  1  0  0  0  0
  5 18  1  0  0  0  0
  5  4  1  0  0  0  0
  6 19  1  0  0  0  0
  6  5  1  0  0  0  0
  7  6  1  0  0  0  0
  8  9  2  0  0  0  0
  8  2  1  0  0  0  0
 13  3  1  0  0  0  0
 17  5  1  0  0  0  0
 20  6  1  0  0  0  0
 21  7  1  0  0  0  0
 22  7  1  0  0  0  0
 23  8  1  0  0  0  0
 24 35  1  0  0  0  0
 24 38  1  1  0  0  0
 24 23  1  0  0  0  0
 25 24  1  0  0  0  0
 26 25  1  0  0  0  0
 27 26  2  0  0  0  0
 27 41  1  0  0  0  0
 28 27  1  0  0  0  0
 29 28  1  0  0  0  0
 29 34  1  0  0  0  0
 30 29  2  0  0  0  0
 31 30  1  0  0  0  0
 31 32  2  0  0  0  0
 32 33  1  0  0  0  0
 33 34  2  0  0  0  0
 33 46  1  0  0  0  0
 34 26  1  0  0  0  0
 35 52  1  0  0  0  0
 36 35  2  0  0  0  0
 37 23  1  0  0  0  0
 39 25  1  0  0  0  0
 40 25  1  0  0  0  0
 42 28  1  0  0  0  0
 43 30  1  0  0  0  0
 44 31  1  0  0  0  0
 45 32  1  0  0  0  0
 47 48  1  0  0  0  0
 48 49  1  0  0  0  0
 49 50  1  0  0  0  0
 50 62  1  0  0  0  0
 50 51  1  0  0  0  0
 50 61  1  0  0  0  0
 51 63  1  6  0  0  0
 51 53  1  0  0  0  0
 52 51  1  0  0  0  0
 52 64  1  0  0  0  0
 53 54  2  0  0  0  0
 53 55  1  0  0  0  0
 56 47  1  0  0  0  0
 57 47  1  0  0  0  0
 58 47  1  0  0  0  0
 59 49  1  0  0  0  0
 60 49  1  0  0  0  0
M  END
$$$$
