KWN.pdb
 OpenBabel07022418523D

 61 62  0  0  1  0  0  0  0  0999 V2000
    3.0410    1.0060    3.5540 N   0  0  0  0  0  0  0  0  0  0  0  0
    2.6120    0.2280    2.4090 C   0  0  1  0  0  0  0  0  0  0  0  0
    2.6010   -1.2010    2.7910 C   0  0  0  0  0  0  0  0  0  0  0  0
    3.9640   -1.6610    3.2210 C   0  0  0  0  0  0  0  0  0  0  0  0
    4.9690   -1.5010    2.1220 C   0  0  0  0  0  0  0  0  0  0  0  0
    4.5640   -2.3010    0.9060 C   0  0  0  0  0  0  0  0  0  0  0  0
    5.5880   -2.0960   -0.1220 N   0  0  0  0  0  0  0  0  0  0  0  0
    1.3020    0.7560    1.9720 C   0  0  0  0  0  0  0  0  0  0  0  0
    0.8040    1.7370    2.5730 O   0  0  0  0  0  0  0  0  0  0  0  0
    2.3470    0.8450    4.3150 H   0  0  0  0  0  0  0  0  0  0  0  0
    3.0680    2.0320    3.3740 H   0  0  0  0  0  0  0  0  0  0  0  0
    3.3580    0.4280    1.6040 H   0  0  0  0  0  0  0  0  0  0  0  0
    2.2330   -1.8950    2.0150 H   0  0  0  0  0  0  0  0  0  0  0  0
    1.9200   -1.3940    3.6740 H   0  0  0  0  0  0  0  0  0  0  0  0
    3.9250   -2.7520    3.4590 H   0  0  0  0  0  0  0  0  0  0  0  0
    4.2920   -1.1700    4.1640 H   0  0  0  0  0  0  0  0  0  0  0  0
    5.1220   -0.4460    1.8550 H   0  0  0  0  0  0  0  0  0  0  0  0
    5.9890   -1.8570    2.4470 H   0  0  0  0  0  0  0  0  0  0  0  0
    4.5090   -3.3850    1.1310 H   0  0  0  0  0  0  0  0  0  0  0  0
    3.5930   -1.9730    0.5090 H   0  0  0  0  0  0  0  0  0  0  0  0
    5.3590   -2.7390   -0.9350 H   0  0  0  0  0  0  0  0  0  0  0  0
    5.4930   -1.1230   -0.5340 H   0  0  0  0  0  0  0  0  0  0  0  0
    0.5650    0.2120    0.8980 N   0  0  0  0  0  0  0  0  0  0  0  0
   -0.7350    0.7600    0.4820 C   0  0  1  0  0  0  0  0  0  0  0  0
   -0.6700    1.2790   -0.8990 C   0  0  0  0  0  0  0  0  0  0  0  0
   -1.9150    1.8370   -1.4390 C   0  0  0  0  0  0  0  0  0  0  0  0
   -2.3020    3.1840   -1.3160 C   0  0  0  0  0  0  0  0  0  0  0  0
   -3.5070    3.3690   -1.8710 N   0  0  0  0  0  0  0  0  0  0  0  0
   -3.9610    2.1870   -2.3730 C   0  0  0  0  0  0  0  0  0  0  0  0
   -5.1230    1.8670   -3.0460 C   0  0  0  0  0  0  0  0  0  0  0  0
   -5.2900    0.5650   -3.4590 C   0  0  0  0  0  0  0  0  0  0  0  0
   -4.3190   -0.3750   -3.2010 C   0  0  0  0  0  0  0  0  0  0  0  0
   -3.1670   -0.0450   -2.5290 C   0  0  0  0  0  0  0  0  0  0  0  0
   -2.9750    1.2600   -2.1010 C   0  0  0  0  0  0  0  0  0  0  0  0
   -1.7540   -0.2630    0.7440 C   0  0  0  0  0  0  0  0  0  0  0  0
   -2.9860   -0.1000    0.5680 O   0  0  0  0  0  0  0  0  0  0  0  0
    0.9590   -0.5910    0.3990 H   0  0  0  0  0  0  0  0  0  0  0  0
   -0.9660    1.6450    1.1440 H   0  0  0  0  0  0  0  0  0  0  0  0
   -0.3400    0.4410   -1.5710 H   0  0  0  0  0  0  0  0  0  0  0  0
    0.1070    2.0940   -0.9190 H   0  0  0  0  0  0  0  0  0  0  0  0
   -1.7270    3.9580   -0.8510 H   0  0  0  0  0  0  0  0  0  0  0  0
   -4.0770    4.2440   -1.9480 H   0  0  0  0  0  0  0  0  0  0  0  0
   -5.9010    2.5800   -3.2640 H   0  0  0  0  0  0  0  0  0  0  0  0
   -6.1950    0.2550   -4.0010 H   0  0  0  0  0  0  0  0  0  0  0  0
   -4.4700   -1.3960   -3.5370 H   0  0  0  0  0  0  0  0  0  0  0  0
   -2.3780   -0.7600   -2.3140 H   0  0  0  0  0  0  0  0  0  0  0  0
   -0.6640   -3.9850   -1.2800 N   0  0  0  0  0  0  0  0  0  0  0  0
   -1.8390   -3.6570   -0.5940 C   0  0  0  0  0  0  0  0  0  0  0  0
   -2.8190   -3.1860   -1.2190 O   0  0  0  0  0  0  0  0  0  0  0  0
   -1.9600   -3.8500    0.8630 C   0  0  0  0  0  0  0  0  0  0  0  0
   -2.3890   -2.5410    1.5040 C   0  0  2  0  0  0  0  0  0  0  0  0
   -1.3800   -1.5490    1.2370 N   0  0  0  0  0  0  0  0  0  0  0  0
   -2.3200   -2.8170    2.9930 C   0  0  0  0  0  0  0  0  0  0  0  0
   -3.1120   -3.6490    3.5130 O   0  0  0  0  0  0  0  0  0  0  0  0
   -1.4160   -2.1900    3.8200 O   0  0  0  0  0  0  0  0  0  0  0  0
   -0.4390   -3.6770   -2.2590 H   0  0  0  0  0  0  0  0  0  0  0  0
    0.0790   -4.5790   -0.8320 H   0  0  0  0  0  0  0  0  0  0  0  0
   -2.6900   -4.6640    1.0830 H   0  0  0  0  0  0  0  0  0  0  0  0
   -1.0100   -4.1690    1.3050 H   0  0  0  0  0  0  0  0  0  0  0  0
   -3.4030   -2.2220    1.2290 H   0  0  0  0  0  0  0  0  0  0  0  0
   -0.3970   -1.8080    1.4160 H   0  0  0  0  0  0  0  0  0  0  0  0
  1 10  1  0  0  0  0
  2 12  1  6  0  0  0
  2  3  1  0  0  0  0
  2  1  1  0  0  0  0
  3  4  1  0  0  0  0
  3 14  1  0  0  0  0
  4 15  1  0  0  0  0
  4 16  1  0  0  0  0
  5 18  1  0  0  0  0
  5  4  1  0  0  0  0
  6 19  1  0  0  0  0
  6  5  1  0  0  0  0
  7  6  1  0  0  0  0
  8  2  1  0  0  0  0
  8  9  2  0  0  0  0
 11  1  1  0  0  0  0
 13  3  1  0  0  0  0
 17  5  1  0  0  0  0
 20  6  1  0  0  0  0
 21  7  1  0  0  0  0
 22  7  1  0  0  0  0
 23  8  1  0  0  0  0
 24 35  1  0  0  0  0
 24 23  1  0  0  0  0
 24 38  1  1  0  0  0
 25 24  1  0  0  0  0
 26 27  2  0  0  0  0
 26 25  1  0  0  0  0
 27 41  1  0  0  0  0
 28 27  1  0  0  0  0
 29 34  1  0  0  0  0
 29 28  1  0  0  0  0
 30 29  2  0  0  0  0
 31 32  2  0  0  0  0
 31 30  1  0  0  0  0
 32 33  1  0  0  0  0
 33 46  1  0  0  0  0
 33 34  2  0  0  0  0
 34 26  1  0  0  0  0
 35 52  1  0  0  0  0
 36 35  2  0  0  0  0
 37 23  1  0  0  0  0
 39 25  1  0  0  0  0
 40 25  1  0  0  0  0
 42 28  1  0  0  0  0
 43 30  1  0  0  0  0
 44 31  1  0  0  0  0
 45 32  1  0  0  0  0
 47 57  1  0  0  0  0
 47 48  1  0  0  0  0
 48 50  1  0  0  0  0
 49 48  2  0  0  0  0
 50 58  1  0  0  0  0
 50 59  1  0  0  0  0
 50 51  1  0  0  0  0
 51 60  1  6  0  0  0
 51 53  1  0  0  0  0
 52 61  1  0  0  0  0
 52 51  1  0  0  0  0
 53 54  2  0  0  0  0
 53 55  1  0  0  0  0
 56 47  1  0  0  0  0
M  END
$$$$
