KWV.pdb
 OpenBabel07022418523D

 63 64  0  0  1  0  0  0  0  0999 V2000
    0.6710    1.2540    4.8680 N   0  0  0  0  0  0  0  0  0  0  0  0
    0.7500    1.0980    3.4370 C   0  0  1  0  0  0  0  0  0  0  0  0
    1.6300   -0.1120    3.1350 C   0  0  0  0  0  0  0  0  0  0  0  0
    2.9870    0.1570    3.7240 C   0  0  0  0  0  0  0  0  0  0  0  0
    3.9770   -0.9290    3.4650 C   0  0  0  0  0  0  0  0  0  0  0  0
    3.6360   -2.2670    4.0070 C   0  0  0  0  0  0  0  0  0  0  0  0
    2.4360   -2.8710    3.4940 N   0  0  0  0  0  0  0  0  0  0  0  0
   -0.5740    1.0320    2.8190 C   0  0  0  0  0  0  0  0  0  0  0  0
   -1.5860    1.1340    3.6000 O   0  0  0  0  0  0  0  0  0  0  0  0
   -0.2190    1.7280    5.1350 H   0  0  0  0  0  0  0  0  0  0  0  0
    0.8630    0.3860    5.4000 H   0  0  0  0  0  0  0  0  0  0  0  0
    1.3250    1.9760    3.0500 H   0  0  0  0  0  0  0  0  0  0  0  0
    1.6420   -0.2520    2.0460 H   0  0  0  0  0  0  0  0  0  0  0  0
    1.2030   -0.9990    3.6940 H   0  0  0  0  0  0  0  0  0  0  0  0
    2.8660    0.2600    4.8490 H   0  0  0  0  0  0  0  0  0  0  0  0
    3.4080    1.1300    3.3760 H   0  0  0  0  0  0  0  0  0  0  0  0
    4.9590   -0.5800    3.9080 H   0  0  0  0  0  0  0  0  0  0  0  0
    4.1140   -1.0120    2.3500 H   0  0  0  0  0  0  0  0  0  0  0  0
    4.5250   -2.9580    3.8770 H   0  0  0  0  0  0  0  0  0  0  0  0
    3.5130   -2.2340    5.1330 H   0  0  0  0  0  0  0  0  0  0  0  0
    2.4830   -3.9190    3.6110 H   0  0  0  0  0  0  0  0  0  0  0  0
    2.3580   -2.6990    2.4500 H   0  0  0  0  0  0  0  0  0  0  0  0
   -0.7600    0.8650    1.4200 N   0  0  0  0  0  0  0  0  0  0  0  0
   -2.0980    0.8080    0.8450 C   0  0  1  0  0  0  0  0  0  0  0  0
   -2.3290    1.9900   -0.0580 C   0  0  0  0  0  0  0  0  0  0  0  0
   -1.3830    2.1150   -1.1790 C   0  0  0  0  0  0  0  0  0  0  0  0
   -0.2050    2.8790   -1.1890 C   0  0  0  0  0  0  0  0  0  0  0  0
    0.4050    2.7130   -2.3490 N   0  0  0  0  0  0  0  0  0  0  0  0
   -0.2980    1.8630   -3.1560 C   0  0  0  0  0  0  0  0  0  0  0  0
   -0.0590    1.4110   -4.4390 C   0  0  0  0  0  0  0  0  0  0  0  0
   -0.9530    0.5580   -5.0350 C   0  0  0  0  0  0  0  0  0  0  0  0
   -2.0660    0.1840   -4.3180 C   0  0  0  0  0  0  0  0  0  0  0  0
   -2.2900    0.6420   -3.0400 C   0  0  0  0  0  0  0  0  0  0  0  0
   -1.4110    1.5010   -2.4090 C   0  0  0  0  0  0  0  0  0  0  0  0
   -2.4560   -0.5080    0.3070 C   0  0  0  0  0  0  0  0  0  0  0  0
   -3.6200   -0.6800   -0.1310 O   0  0  0  0  0  0  0  0  0  0  0  0
    0.1040    0.7870    0.8390 H   0  0  0  0  0  0  0  0  0  0  0  0
   -2.7950    0.9510    1.7360 H   0  0  0  0  0  0  0  0  0  0  0  0
   -2.1880    2.9060    0.5860 H   0  0  0  0  0  0  0  0  0  0  0  0
   -3.3570    1.9700   -0.4780 H   0  0  0  0  0  0  0  0  0  0  0  0
    0.0690    3.4800   -0.3200 H   0  0  0  0  0  0  0  0  0  0  0  0
    1.3100    3.1670   -2.6280 H   0  0  0  0  0  0  0  0  0  0  0  0
    0.8160    1.7140   -4.9850 H   0  0  0  0  0  0  0  0  0  0  0  0
   -0.7830    0.1860   -6.0550 H   0  0  0  0  0  0  0  0  0  0  0  0
   -2.7640   -0.4870   -4.7970 H   0  0  0  0  0  0  0  0  0  0  0  0
   -3.1740    0.3500   -2.5020 H   0  0  0  0  0  0  0  0  0  0  0  0
   -0.8470   -2.3960   -2.4890 C   0  0  0  0  0  0  0  0  0  0  0  0
   -0.9010   -3.3230   -1.2940 C   0  0  0  0  0  0  0  0  0  0  0  0
   -1.4350   -4.6430   -1.8040 C   0  0  0  0  0  0  0  0  0  0  0  0
   -1.8350   -2.8280   -0.2240 C   0  0  2  0  0  0  0  0  0  0  0  0
   -1.4770   -1.5400    0.3000 N   0  0  0  0  0  0  0  0  0  0  0  0
   -1.7750   -3.8130    0.9100 C   0  0  0  0  0  0  0  0  0  0  0  0
   -2.0520   -5.0100    0.7110 O   0  0  0  0  0  0  0  0  0  0  0  0
   -1.4150   -3.3940    2.1680 O   0  0  0  0  0  0  0  0  0  0  0  0
   -0.4190   -1.4230   -2.2550 H   0  0  0  0  0  0  0  0  0  0  0  0
   -1.8720   -2.3530   -2.9420 H   0  0  0  0  0  0  0  0  0  0  0  0
   -0.2320   -2.9330   -3.2700 H   0  0  0  0  0  0  0  0  0  0  0  0
    0.1270   -3.4920   -0.9180 H   0  0  0  0  0  0  0  0  0  0  0  0
   -1.3490   -4.7240   -2.9100 H   0  0  0  0  0  0  0  0  0  0  0  0
   -2.5210   -4.6710   -1.5900 H   0  0  0  0  0  0  0  0  0  0  0  0
   -0.9720   -5.5100   -1.2890 H   0  0  0  0  0  0  0  0  0  0  0  0
   -2.8660   -2.7900   -0.6260 H   0  0  0  0  0  0  0  0  0  0  0  0
   -0.5070   -1.4050    0.6600 H   0  0  0  0  0  0  0  0  0  0  0  0
  1 10  1  0  0  0  0
  1 11  1  0  0  0  0
  2 12  1  6  0  0  0
  2  1  1  0  0  0  0
  3  2  1  0  0  0  0
  3 14  1  0  0  0  0
  3  4  1  0  0  0  0
  4 15  1  0  0  0  0
  5  4  1  0  0  0  0
  5 17  1  0  0  0  0
  5  6  1  0  0  0  0
  6 20  1  0  0  0  0
  7 21  1  0  0  0  0
  7  6  1  0  0  0  0
  8  2  1  0  0  0  0
  8  9  2  0  0  0  0
 13  3  1  0  0  0  0
 16  4  1  0  0  0  0
 18  5  1  0  0  0  0
 19  6  1  0  0  0  0
 22  7  1  0  0  0  0
 23  8  1  0  0  0  0
 24 23  1  0  0  0  0
 24 38  1  1  0  0  0
 25 39  1  0  0  0  0
 25 24  1  0  0  0  0
 26 25  1  0  0  0  0
 27 26  2  0  0  0  0
 27 41  1  0  0  0  0
 28 27  1  0  0  0  0
 29 34  1  0  0  0  0
 29 28  1  0  0  0  0
 30 29  2  0  0  0  0
 31 30  1  0  0  0  0
 31 32  2  0  0  0  0
 32 33  1  0  0  0  0
 33 46  1  0  0  0  0
 33 34  2  0  0  0  0
 34 26  1  0  0  0  0
 35 24  1  0  0  0  0
 36 35  2  0  0  0  0
 37 23  1  0  0  0  0
 40 25  1  0  0  0  0
 42 28  1  0  0  0  0
 43 30  1  0  0  0  0
 44 31  1  0  0  0  0
 45 32  1  0  0  0  0
 47 55  1  0  0  0  0
 47 48  1  0  0  0  0
 48 58  1  0  0  0  0
 48 50  1  0  0  0  0
 49 60  1  0  0  0  0
 49 48  1  0  0  0  0
 49 61  1  0  0  0  0
 50 62  1  6  0  0  0
 50 51  1  0  0  0  0
 50 52  1  0  0  0  0
 51 35  1  0  0  0  0
 51 63  1  0  0  0  0
 52 54  1  0  0  0  0
 53 52  2  0  0  0  0
 56 47  1  0  0  0  0
 57 47  1  0  0  0  0
 59 49  1  0  0  0  0
M  END
$$$$
