KWW.pdb
 OpenBabel07022418523D

 71 74  0  0  1  0  0  0  0  0999 V2000
    1.8180   -0.1060    4.1520 N   0  0  0  0  0  0  0  0  0  0  0  0
    2.1720   -1.3810    3.4830 C   0  0  1  0  0  0  0  0  0  0  0  0
    1.9520   -2.5140    4.4110 C   0  0  0  0  0  0  0  0  0  0  0  0
    2.2890   -3.8590    3.8350 C   0  0  0  0  0  0  0  0  0  0  0  0
    2.0130   -4.8820    4.9430 C   0  0  0  0  0  0  0  0  0  0  0  0
    2.3420   -6.2640    4.4140 C   0  0  0  0  0  0  0  0  0  0  0  0
    1.5420   -6.5920    3.2590 N   0  0  0  0  0  0  0  0  0  0  0  0
    1.5390   -1.4600    2.1660 C   0  0  0  0  0  0  0  0  0  0  0  0
    1.7400   -2.4350    1.4030 O   0  0  0  0  0  0  0  0  0  0  0  0
    2.2390   -0.1840    5.1080 H   0  0  0  0  0  0  0  0  0  0  0  0
    2.3220    0.6800    3.6850 H   0  0  0  0  0  0  0  0  0  0  0  0
    3.2750   -1.2910    3.3130 H   0  0  0  0  0  0  0  0  0  0  0  0
    2.6230   -2.3890    5.3080 H   0  0  0  0  0  0  0  0  0  0  0  0
    0.9300   -2.5800    4.8300 H   0  0  0  0  0  0  0  0  0  0  0  0
    3.3390   -3.9240    3.4960 H   0  0  0  0  0  0  0  0  0  0  0  0
    1.6520   -4.1100    2.9480 H   0  0  0  0  0  0  0  0  0  0  0  0
    2.6380   -4.6320    5.8110 H   0  0  0  0  0  0  0  0  0  0  0  0
    0.9440   -4.8070    5.1930 H   0  0  0  0  0  0  0  0  0  0  0  0
    2.1630   -7.0010    5.2290 H   0  0  0  0  0  0  0  0  0  0  0  0
    3.4230   -6.2960    4.1880 H   0  0  0  0  0  0  0  0  0  0  0  0
    2.1090   -7.0550    2.5040 H   0  0  0  0  0  0  0  0  0  0  0  0
    0.7410   -7.1930    3.5460 H   0  0  0  0  0  0  0  0  0  0  0  0
    0.6580   -0.4490    1.6600 N   0  0  0  0  0  0  0  0  0  0  0  0
    0.0230   -0.4920    0.3830 C   0  0  1  0  0  0  0  0  0  0  0  0
   -1.4440   -0.6770    0.5260 C   0  0  0  0  0  0  0  0  0  0  0  0
   -2.1610    0.3640    1.2900 C   0  0  0  0  0  0  0  0  0  0  0  0
   -2.8460    1.4530    0.7390 C   0  0  0  0  0  0  0  0  0  0  0  0
   -3.3600    2.2120    1.7150 N   0  0  0  0  0  0  0  0  0  0  0  0
   -3.0360    1.6580    2.8860 C   0  0  0  0  0  0  0  0  0  0  0  0
   -3.3000    1.9970    4.1940 C   0  0  0  0  0  0  0  0  0  0  0  0
   -2.8630    1.2530    5.2720 C   0  0  0  0  0  0  0  0  0  0  0  0
   -2.1270    0.1150    5.0380 C   0  0  0  0  0  0  0  0  0  0  0  0
   -1.8600   -0.2280    3.7220 C   0  0  0  0  0  0  0  0  0  0  0  0
   -2.2970    0.5180    2.6470 C   0  0  0  0  0  0  0  0  0  0  0  0
    0.4060    0.6420   -0.4920 C   0  0  0  0  0  0  0  0  0  0  0  0
    1.2160    1.4870   -0.0450 O   0  0  0  0  0  0  0  0  0  0  0  0
    0.5140    0.3600    2.3000 H   0  0  0  0  0  0  0  0  0  0  0  0
    0.3710   -1.4080   -0.2100 H   0  0  0  0  0  0  0  0  0  0  0  0
   -1.9570   -0.9200   -0.4330 H   0  0  0  0  0  0  0  0  0  0  0  0
   -1.5780   -1.6240    1.1330 H   0  0  0  0  0  0  0  0  0  0  0  0
   -2.9650    1.6800   -0.3100 H   0  0  0  0  0  0  0  0  0  0  0  0
   -3.9250    3.0950    1.6460 H   0  0  0  0  0  0  0  0  0  0  0  0
   -3.8770    2.8850    4.4230 H   0  0  0  0  0  0  0  0  0  0  0  0
   -3.0630    1.5080    6.2930 H   0  0  0  0  0  0  0  0  0  0  0  0
   -1.7440   -0.5270    5.8080 H   0  0  0  0  0  0  0  0  0  0  0  0
   -1.2820   -1.1270    3.5270 H   0  0  0  0  0  0  0  0  0  0  0  0
   -0.1090    0.7850   -1.7820 N   0  0  0  0  0  0  0  0  0  0  0  0
    0.2350    1.8750   -2.6850 C   0  0  1  0  0  0  0  0  0  0  0  0
    1.0280    1.2880   -3.8310 C   0  0  0  0  0  0  0  0  0  0  0  0
    0.3230    0.2390   -4.5870 C   0  0  0  0  0  0  0  0  0  0  0  0
    0.4640   -1.1510   -4.3790 C   0  0  0  0  0  0  0  0  0  0  0  0
   -0.3450   -1.8160   -5.2090 N   0  0  0  0  0  0  0  0  0  0  0  0
   -1.0200   -0.9260   -5.9640 C   0  0  0  0  0  0  0  0  0  0  0  0
   -1.9430   -1.0760   -6.9510 C   0  0  0  0  0  0  0  0  0  0  0  0
   -2.4760    0.0110   -7.5780 C   0  0  0  0  0  0  0  0  0  0  0  0
   -2.0880    1.2800   -7.2240 C   0  0  0  0  0  0  0  0  0  0  0  0
   -1.1650    1.4400   -6.2370 C   0  0  0  0  0  0  0  0  0  0  0  0
   -0.6110    0.3480   -5.5850 C   0  0  0  0  0  0  0  0  0  0  0  0
   -0.8880    2.7160   -3.0810 C   0  0  0  0  0  0  0  0  0  0  0  0
   -2.0650    2.4170   -2.7900 O   0  0  0  0  0  0  0  0  0  0  0  0
   -0.6590    3.8790   -3.7920 O   0  0  0  0  0  0  0  0  0  0  0  0
   -0.7800    0.0820   -2.1400 H   0  0  0  0  0  0  0  0  0  0  0  0
    0.9710    2.5730   -2.1660 H   0  0  0  0  0  0  0  0  0  0  0  0
    1.2350    2.1350   -4.5510 H   0  0  0  0  0  0  0  0  0  0  0  0
    2.0350    0.9550   -3.5090 H   0  0  0  0  0  0  0  0  0  0  0  0
    1.1240   -1.6100   -3.6580 H   0  0  0  0  0  0  0  0  0  0  0  0
   -0.4670   -2.8440   -5.2960 H   0  0  0  0  0  0  0  0  0  0  0  0
   -2.2500   -2.0850   -7.2320 H   0  0  0  0  0  0  0  0  0  0  0  0
   -3.2050   -0.1140   -8.3580 H   0  0  0  0  0  0  0  0  0  0  0  0
   -2.5300    2.1450   -7.7430 H   0  0  0  0  0  0  0  0  0  0  0  0
   -0.8530    2.4310   -5.9690 H   0  0  0  0  0  0  0  0  0  0  0  0
  1 10  1  0  0  0  0
  2 12  1  6  0  0  0
  2  1  1  0  0  0  0
  2  3  1  0  0  0  0
  3 14  1  0  0  0  0
  3 13  1  0  0  0  0
  4  3  1  0  0  0  0
  4  5  1  0  0  0  0
  5 18  1  0  0  0  0
  5 17  1  0  0  0  0
  6  5  1  0  0  0  0
  6 19  1  0  0  0  0
  7 22  1  0  0  0  0
  7  6  1  0  0  0  0
  8  2  1  0  0  0  0
  9  8  2  0  0  0  0
 11  1  1  0  0  0  0
 15  4  1  0  0  0  0
 16  4  1  0  0  0  0
 20  6  1  0  0  0  0
 21  7  1  0  0  0  0
 23  8  1  0  0  0  0
 23 37  1  0  0  0  0
 24 38  1  6  0  0  0
 24 25  1  0  0  0  0
 24 23  1  0  0  0  0
 25 40  1  0  0  0  0
 25 26  1  0  0  0  0
 26 34  1  0  0  0  0
 27 26  2  0  0  0  0
 27 28  1  0  0  0  0
 28 29  1  0  0  0  0
 29 30  1  0  0  0  0
 30 43  1  0  0  0  0
 30 31  2  0  0  0  0
 31 44  1  0  0  0  0
 32 31  1  0  0  0  0
 32 45  1  0  0  0  0
 33 32  2  0  0  0  0
 34 29  2  0  0  0  0
 34 33  1  0  0  0  0
 35 36  2  0  0  0  0
 35 24  1  0  0  0  0
 39 25  1  0  0  0  0
 41 27  1  0  0  0  0
 42 28  1  0  0  0  0
 46 33  1  0  0  0  0
 47 35  1  0  0  0  0
 48 63  1  1  0  0  0
 48 47  1  0  0  0  0
 49 65  1  0  0  0  0
 49 48  1  0  0  0  0
 50 51  2  0  0  0  0
 50 49  1  0  0  0  0
 51 66  1  0  0  0  0
 52 51  1  0  0  0  0
 53 58  1  0  0  0  0
 53 52  1  0  0  0  0
 54 53  2  0  0  0  0
 55 56  2  0  0  0  0
 55 54  1  0  0  0  0
 56 57  1  0  0  0  0
 57 71  1  0  0  0  0
 57 58  2  0  0  0  0
 58 50  1  0  0  0  0
 59 60  1  0  0  0  0
 59 48  1  0  0  0  0
 61 59  2  0  0  0  0
 62 47  1  0  0  0  0
 64 49  1  0  0  0  0
 67 52  1  0  0  0  0
 68 54  1  0  0  0  0
 69 55  1  0  0  0  0
 70 56  1  0  0  0  0
M  END
$$$$
