KWY.pdb
 OpenBabel07022418523D

 68 70  0  0  1  0  0  0  0  0999 V2000
    1.4460   -3.4650    2.4230 N   0  0  0  0  0  0  0  0  0  0  0  0
    0.9870   -2.4360    3.3470 C   0  0  1  0  0  0  0  0  0  0  0  0
    2.0770   -1.9300    4.2250 C   0  0  0  0  0  0  0  0  0  0  0  0
    3.2330   -1.2940    3.5540 C   0  0  0  0  0  0  0  0  0  0  0  0
    3.9960   -2.1340    2.5930 C   0  0  0  0  0  0  0  0  0  0  0  0
    5.1480   -1.2930    2.0320 C   0  0  0  0  0  0  0  0  0  0  0  0
    4.6600   -0.1260    1.3600 N   0  0  0  0  0  0  0  0  0  0  0  0
    0.3370   -1.3150    2.5710 C   0  0  0  0  0  0  0  0  0  0  0  0
   -0.1520   -0.3860    3.2740 O   0  0  0  0  0  0  0  0  0  0  0  0
    0.6380   -3.8100    1.8800 H   0  0  0  0  0  0  0  0  0  0  0  0
    1.7710   -4.2710    3.0040 H   0  0  0  0  0  0  0  0  0  0  0  0
    0.2080   -2.9020    3.9810 H   0  0  0  0  0  0  0  0  0  0  0  0
    1.6310   -1.1960    4.9290 H   0  0  0  0  0  0  0  0  0  0  0  0
    2.4460   -2.7830    4.8390 H   0  0  0  0  0  0  0  0  0  0  0  0
    2.8770   -0.3580    3.0350 H   0  0  0  0  0  0  0  0  0  0  0  0
    3.9310   -0.9360    4.3440 H   0  0  0  0  0  0  0  0  0  0  0  0
    4.4440   -3.0260    3.0650 H   0  0  0  0  0  0  0  0  0  0  0  0
    3.3680   -2.3740    1.6990 H   0  0  0  0  0  0  0  0  0  0  0  0
    5.6310   -1.9370    1.2470 H   0  0  0  0  0  0  0  0  0  0  0  0
    5.8830   -1.0310    2.8210 H   0  0  0  0  0  0  0  0  0  0  0  0
    5.2530    0.1740    0.5480 H   0  0  0  0  0  0  0  0  0  0  0  0
    3.6910   -0.2420    0.9780 H   0  0  0  0  0  0  0  0  0  0  0  0
    0.2700   -1.2850    1.1780 N   0  0  0  0  0  0  0  0  0  0  0  0
   -0.3420   -0.2280    0.4350 C   0  0  1  0  0  0  0  0  0  0  0  0
    0.5300    0.6670   -0.2910 C   0  0  0  0  0  0  0  0  0  0  0  0
    1.4570    0.2710   -1.3120 C   0  0  0  0  0  0  0  0  0  0  0  0
    2.5070    1.1450   -1.6810 C   0  0  0  0  0  0  0  0  0  0  0  0
    3.2350    0.6020   -2.6250 N   0  0  0  0  0  0  0  0  0  0  0  0
    2.7660   -0.5910   -2.9420 C   0  0  0  0  0  0  0  0  0  0  0  0
    3.1720   -1.5390   -3.8530 C   0  0  0  0  0  0  0  0  0  0  0  0
    2.4700   -2.7190   -3.9620 C   0  0  0  0  0  0  0  0  0  0  0  0
    1.3560   -2.9310   -3.1410 C   0  0  0  0  0  0  0  0  0  0  0  0
    0.9530   -1.9800   -2.2300 C   0  0  0  0  0  0  0  0  0  0  0  0
    1.6480   -0.8130   -2.1240 C   0  0  0  0  0  0  0  0  0  0  0  0
   -1.6480   -0.5870   -0.1950 C   0  0  0  0  0  0  0  0  0  0  0  0
   -2.1210   -1.7680   -0.0640 O   0  0  0  0  0  0  0  0  0  0  0  0
    0.6940   -2.0820    0.6620 H   0  0  0  0  0  0  0  0  0  0  0  0
   -0.7810    0.4320    1.3000 H   0  0  0  0  0  0  0  0  0  0  0  0
   -0.0980    1.5450   -0.6660 H   0  0  0  0  0  0  0  0  0  0  0  0
    1.1380    1.2310    0.5060 H   0  0  0  0  0  0  0  0  0  0  0  0
    2.7070    2.1360   -1.2560 H   0  0  0  0  0  0  0  0  0  0  0  0
    4.0750    1.0570   -3.0660 H   0  0  0  0  0  0  0  0  0  0  0  0
    4.0310   -1.4100   -4.5030 H   0  0  0  0  0  0  0  0  0  0  0  0
    2.7850   -3.4690   -4.6800 H   0  0  0  0  0  0  0  0  0  0  0  0
    0.8050   -3.8440   -3.2160 H   0  0  0  0  0  0  0  0  0  0  0  0
    0.1070   -2.1540   -1.6140 H   0  0  0  0  0  0  0  0  0  0  0  0
   -5.9690    1.0280    4.3320 O   0  0  0  0  0  0  0  0  0  0  0  0
   -5.6820    0.9960    2.9630 C   0  0  0  0  0  0  0  0  0  0  0  0
   -4.7530    1.8600    2.4180 C   0  0  0  0  0  0  0  0  0  0  0  0
   -4.4960    1.8010    1.0680 C   0  0  0  0  0  0  0  0  0  0  0  0
   -5.1410    0.9030    0.2470 C   0  0  0  0  0  0  0  0  0  0  0  0
   -4.8040    0.9140   -1.1840 C   0  0  0  0  0  0  0  0  0  0  0  0
   -3.6760    0.0200   -1.5750 C   0  0  2  0  0  0  0  0  0  0  0  0
   -2.4250    0.3050   -0.9490 N   0  0  0  0  0  0  0  0  0  0  0  0
   -3.4910    0.1330   -3.0430 C   0  0  0  0  0  0  0  0  0  0  0  0
   -4.4320   -0.0740   -3.8590 O   0  0  0  0  0  0  0  0  0  0  0  0
   -6.0570    0.0590    0.8190 C   0  0  0  0  0  0  0  0  0  0  0  0
   -6.3410    0.0900    2.1700 C   0  0  0  0  0  0  0  0  0  0  0  0
   -2.2490    0.4740   -3.5400 O   0  0  0  0  0  0  0  0  0  0  0  0
   -6.1820    0.1260    4.7650 H   0  0  0  0  0  0  0  0  0  0  0  0
   -4.2640    2.5490    3.0700 H   0  0  0  0  0  0  0  0  0  0  0  0
   -3.7580    2.4970    0.6710 H   0  0  0  0  0  0  0  0  0  0  0  0
   -4.5850    1.9380   -1.5460 H   0  0  0  0  0  0  0  0  0  0  0  0
   -5.7060    0.5800   -1.7360 H   0  0  0  0  0  0  0  0  0  0  0  0
   -3.8990   -1.0620   -1.3860 H   0  0  0  0  0  0  0  0  0  0  0  0
   -2.0750    1.2790   -1.0790 H   0  0  0  0  0  0  0  0  0  0  0  0
   -6.5660   -0.6420    0.2080 H   0  0  0  0  0  0  0  0  0  0  0  0
   -7.0790   -0.6030    2.5800 H   0  0  0  0  0  0  0  0  0  0  0  0
  1 11  1  0  0  0  0
  1  2  1  0  0  0  0
  2 12  1  1  0  0  0
  2  3  1  0  0  0  0
  3 14  1  0  0  0  0
  3 13  1  0  0  0  0
  4  3  1  0  0  0  0
  4 16  1  0  0  0  0
  5 17  1  0  0  0  0
  5  4  1  0  0  0  0
  6  5  1  0  0  0  0
  6 20  1  0  0  0  0
  7  6  1  0  0  0  0
  8  9  2  0  0  0  0
  8  2  1  0  0  0  0
 10  1  1  0  0  0  0
 15  4  1  0  0  0  0
 18  5  1  0  0  0  0
 19  6  1  0  0  0  0
 21  7  1  0  0  0  0
 22  7  1  0  0  0  0
 23  8  1  0  0  0  0
 24 23  1  0  0  0  0
 24 38  1  1  0  0  0
 25 24  1  0  0  0  0
 25 40  1  0  0  0  0
 26 25  1  0  0  0  0
 27 26  2  0  0  0  0
 27 41  1  0  0  0  0
 28 27  1  0  0  0  0
 29 28  1  0  0  0  0
 29 34  1  0  0  0  0
 30 29  2  0  0  0  0
 31 30  1  0  0  0  0
 31 32  2  0  0  0  0
 32 33  1  0  0  0  0
 33 34  2  0  0  0  0
 33 46  1  0  0  0  0
 34 26  1  0  0  0  0
 35 36  2  0  0  0  0
 35 24  1  0  0  0  0
 37 23  1  0  0  0  0
 39 25  1  0  0  0  0
 42 28  1  0  0  0  0
 43 30  1  0  0  0  0
 44 31  1  0  0  0  0
 45 32  1  0  0  0  0
 47 60  1  0  0  0  0
 48 47  1  0  0  0  0
 49 48  1  0  0  0  0
 49 61  1  0  0  0  0
 50 49  2  0  0  0  0
 51 57  2  0  0  0  0
 51 50  1  0  0  0  0
 52 51  1  0  0  0  0
 53 65  1  1  0  0  0
 53 52  1  0  0  0  0
 53 54  1  0  0  0  0
 54 35  1  0  0  0  0
 55 53  1  0  0  0  0
 56 55  2  0  0  0  0
 57 58  1  0  0  0  0
 58 68  1  0  0  0  0
 58 48  2  0  0  0  0
 59 55  1  0  0  0  0
 62 50  1  0  0  0  0
 63 52  1  0  0  0  0
 64 52  1  0  0  0  0
 66 54  1  0  0  0  0
 67 57  1  0  0  0  0
M  END
$$$$
