KYA.pdb
 OpenBabel07022418523D

 54 54  0  0  1  0  0  0  0  0999 V2000
    0.5930    0.5450    4.8760 N   0  0  0  0  0  0  0  0  0  0  0  0
    0.7120    0.1330    3.4480 C   0  0  1  0  0  0  0  0  0  0  0  0
    1.4420   -1.2110    3.5560 C   0  0  0  0  0  0  0  0  0  0  0  0
    1.6990   -1.8420    2.2250 C   0  0  0  0  0  0  0  0  0  0  0  0
    2.5630   -0.9660    1.3390 C   0  0  0  0  0  0  0  0  0  0  0  0
    3.9030   -0.7560    2.0570 C   0  0  0  0  0  0  0  0  0  0  0  0
    4.5010   -2.0590    2.2520 N   0  0  0  0  0  0  0  0  0  0  0  0
   -0.6670    0.0110    2.9720 C   0  0  0  0  0  0  0  0  0  0  0  0
   -1.6210   -0.0230    3.7820 O   0  0  0  0  0  0  0  0  0  0  0  0
    1.4660    0.2780    5.3820 H   0  0  0  0  0  0  0  0  0  0  0  0
   -0.1920   -0.0480    5.2590 H   0  0  0  0  0  0  0  0  0  0  0  0
    1.2900    0.8570    2.8760 H   0  0  0  0  0  0  0  0  0  0  0  0
    0.7500   -1.9090    4.1100 H   0  0  0  0  0  0  0  0  0  0  0  0
    2.3310   -1.0700    4.1810 H   0  0  0  0  0  0  0  0  0  0  0  0
    2.1850   -2.8480    2.3310 H   0  0  0  0  0  0  0  0  0  0  0  0
    0.7160   -2.0510    1.7740 H   0  0  0  0  0  0  0  0  0  0  0  0
    2.0800    0.0050    1.1950 H   0  0  0  0  0  0  0  0  0  0  0  0
    2.7150   -1.4400    0.3680 H   0  0  0  0  0  0  0  0  0  0  0  0
    3.7440   -0.2070    2.9920 H   0  0  0  0  0  0  0  0  0  0  0  0
    4.5680   -0.1360    1.4030 H   0  0  0  0  0  0  0  0  0  0  0  0
    4.0470   -2.4910    3.0850 H   0  0  0  0  0  0  0  0  0  0  0  0
    4.3010   -2.6840    1.4430 H   0  0  0  0  0  0  0  0  0  0  0  0
    0.3990    2.6350   -3.9090 O   0  0  0  0  0  0  0  0  0  0  0  0
   -0.3850    2.2700   -2.8250 C   0  0  0  0  0  0  0  0  0  0  0  0
   -0.1110    2.6470   -1.5260 C   0  0  0  0  0  0  0  0  0  0  0  0
   -0.8750    2.2930   -0.4570 C   0  0  0  0  0  0  0  0  0  0  0  0
   -1.9940    1.5130   -0.6580 C   0  0  0  0  0  0  0  0  0  0  0  0
   -2.8260    1.1300    0.5080 C   0  0  0  0  0  0  0  0  0  0  0  0
   -2.3620   -0.1800    1.1400 C   0  0  2  0  0  0  0  0  0  0  0  0
   -0.9900   -0.0680    1.5980 N   0  0  0  0  0  0  0  0  0  0  0  0
   -2.5060   -1.2060    0.0960 C   0  0  0  0  0  0  0  0  0  0  0  0
   -3.6720   -1.5000   -0.3600 O   0  0  0  0  0  0  0  0  0  0  0  0
   -2.2940    1.1210   -1.9460 C   0  0  0  0  0  0  0  0  0  0  0  0
   -1.5120    1.4850   -3.0240 C   0  0  0  0  0  0  0  0  0  0  0  0
    1.0090    1.9800   -4.3800 H   0  0  0  0  0  0  0  0  0  0  0  0
    0.7630    3.2580   -1.3640 H   0  0  0  0  0  0  0  0  0  0  0  0
   -0.6050    2.6230    0.5390 H   0  0  0  0  0  0  0  0  0  0  0  0
   -3.8510    0.9310    0.1280 H   0  0  0  0  0  0  0  0  0  0  0  0
   -2.9140    1.9330    1.2520 H   0  0  0  0  0  0  0  0  0  0  0  0
   -3.0840   -0.3770    1.9460 H   0  0  0  0  0  0  0  0  0  0  0  0
   -0.2650   -0.0460    0.8510 H   0  0  0  0  0  0  0  0  0  0  0  0
   -3.1610    0.5090   -2.1570 H   0  0  0  0  0  0  0  0  0  0  0  0
   -1.7380    1.1830   -4.0380 H   0  0  0  0  0  0  0  0  0  0  0  0
   -1.0400   -2.5850   -2.8320 C   0  0  0  0  0  0  0  0  0  0  0  0
   -1.6760   -2.9340   -1.5120 C   0  0  2  0  0  0  0  0  0  0  0  0
   -1.4610   -1.9480   -0.5010 N   0  0  0  0  0  0  0  0  0  0  0  0
   -1.3000   -4.2930   -1.0500 C   0  0  0  0  0  0  0  0  0  0  0  0
   -1.3930   -5.3320   -1.7450 O   0  0  0  0  0  0  0  0  0  0  0  0
   -0.8130   -4.4190    0.2400 O   0  0  0  0  0  0  0  0  0  0  0  0
   -1.0650   -3.5080   -3.4550 H   0  0  0  0  0  0  0  0  0  0  0  0
   -0.0020   -2.2610   -2.7570 H   0  0  0  0  0  0  0  0  0  0  0  0
   -1.7030   -1.8500   -3.3370 H   0  0  0  0  0  0  0  0  0  0  0  0
   -2.7770   -2.9830   -1.7100 H   0  0  0  0  0  0  0  0  0  0  0  0
   -0.4880   -1.7630   -0.1970 H   0  0  0  0  0  0  0  0  0  0  0  0
  1 11  1  0  0  0  0
  1 10  1  0  0  0  0
  2 12  1  6  0  0  0
  2  3  1  0  0  0  0
  2  1  1  0  0  0  0
  3 13  1  0  0  0  0
  3 14  1  0  0  0  0
  4 15  1  0  0  0  0
  4  3  1  0  0  0  0
  5  6  1  0  0  0  0
  5  4  1  0  0  0  0
  6  7  1  0  0  0  0
  6 19  1  0  0  0  0
  7 21  1  0  0  0  0
  8  2  1  0  0  0  0
  8  9  2  0  0  0  0
 16  4  1  0  0  0  0
 17  5  1  0  0  0  0
 18  5  1  0  0  0  0
 20  6  1  0  0  0  0
 22  7  1  0  0  0  0
 23 24  1  0  0  0  0
 24 25  1  0  0  0  0
 25 36  1  0  0  0  0
 25 26  2  0  0  0  0
 26 37  1  0  0  0  0
 27 26  1  0  0  0  0
 27 28  1  0  0  0  0
 28 29  1  0  0  0  0
 28 39  1  0  0  0  0
 29 30  1  0  0  0  0
 29 40  1  1  0  0  0
 30  8  1  0  0  0  0
 31 29  1  0  0  0  0
 32 31  2  0  0  0  0
 33 27  2  0  0  0  0
 34 24  2  0  0  0  0
 34 33  1  0  0  0  0
 35 23  1  0  0  0  0
 38 28  1  0  0  0  0
 41 30  1  0  0  0  0
 42 33  1  0  0  0  0
 43 34  1  0  0  0  0
 44 51  1  0  0  0  0
 44 45  1  0  0  0  0
 45 53  1  6  0  0  0
 45 47  1  0  0  0  0
 45 46  1  0  0  0  0
 46 54  1  0  0  0  0
 46 31  1  0  0  0  0
 47 49  1  0  0  0  0
 48 47  2  0  0  0  0
 50 44  1  0  0  0  0
 52 44  1  0  0  0  0
M  END
$$$$
