KYC.pdb
 OpenBabel07022418533D

 55 55  0  0  1  0  0  0  0  0999 V2000
    0.6460   -1.4670    4.8120 N   0  0  0  0  0  0  0  0  0  0  0  0
    0.8340   -1.0990    3.3760 C   0  0  1  0  0  0  0  0  0  0  0  0
    1.5640   -2.2140    2.7500 C   0  0  0  0  0  0  0  0  0  0  0  0
    1.9250   -2.1280    1.3240 C   0  0  0  0  0  0  0  0  0  0  0  0
    2.8160   -0.9610    0.9720 C   0  0  0  0  0  0  0  0  0  0  0  0
    4.1330   -1.0110    1.7170 C   0  0  0  0  0  0  0  0  0  0  0  0
    4.8300   -2.2370    1.3760 N   0  0  0  0  0  0  0  0  0  0  0  0
   -0.4880   -0.7490    2.8960 C   0  0  0  0  0  0  0  0  0  0  0  0
   -1.4820   -0.8840    3.7020 O   0  0  0  0  0  0  0  0  0  0  0  0
    0.4160   -0.6050    5.3480 H   0  0  0  0  0  0  0  0  0  0  0  0
   -0.0850   -2.2110    4.8830 H   0  0  0  0  0  0  0  0  0  0  0  0
    1.4400   -0.1570    3.4250 H   0  0  0  0  0  0  0  0  0  0  0  0
    2.5340   -2.3670    3.3190 H   0  0  0  0  0  0  0  0  0  0  0  0
    1.0550   -3.2140    2.8960 H   0  0  0  0  0  0  0  0  0  0  0  0
    1.1130   -2.1640    0.5870 H   0  0  0  0  0  0  0  0  0  0  0  0
    2.5530   -3.0450    1.0660 H   0  0  0  0  0  0  0  0  0  0  0  0
    2.3140    0.0200    1.0880 H   0  0  0  0  0  0  0  0  0  0  0  0
    3.0620   -1.0630   -0.1070 H   0  0  0  0  0  0  0  0  0  0  0  0
    4.7210   -0.1300    1.3890 H   0  0  0  0  0  0  0  0  0  0  0  0
    4.0060   -1.0110    2.8150 H   0  0  0  0  0  0  0  0  0  0  0  0
    4.4170   -3.0430    1.8950 H   0  0  0  0  0  0  0  0  0  0  0  0
    4.7650   -2.3380    0.3370 H   0  0  0  0  0  0  0  0  0  0  0  0
    1.0360    3.0350   -3.2650 O   0  0  0  0  0  0  0  0  0  0  0  0
    0.2300    2.6800   -2.1800 C   0  0  0  0  0  0  0  0  0  0  0  0
    0.6820    2.6890   -0.8860 C   0  0  0  0  0  0  0  0  0  0  0  0
   -0.1570    2.3300    0.1370 C   0  0  0  0  0  0  0  0  0  0  0  0
   -1.4680    1.9510   -0.0760 C   0  0  0  0  0  0  0  0  0  0  0  0
   -2.3690    1.5720    1.0390 C   0  0  0  0  0  0  0  0  0  0  0  0
   -2.2110    0.0720    1.2620 C   0  0  2  0  0  0  0  0  0  0  0  0
   -0.8390   -0.2530    1.5980 N   0  0  0  0  0  0  0  0  0  0  0  0
   -2.7810   -0.7360    0.1790 C   0  0  0  0  0  0  0  0  0  0  0  0
   -3.9500   -0.5050   -0.1760 O   0  0  0  0  0  0  0  0  0  0  0  0
   -1.9210    1.9430   -1.3810 C   0  0  0  0  0  0  0  0  0  0  0  0
   -1.0810    2.3030   -2.4120 C   0  0  0  0  0  0  0  0  0  0  0  0
    1.8230    2.4440   -3.4890 H   0  0  0  0  0  0  0  0  0  0  0  0
    1.6900    2.9750   -0.6750 H   0  0  0  0  0  0  0  0  0  0  0  0
    0.1910    2.3320    1.1790 H   0  0  0  0  0  0  0  0  0  0  0  0
   -2.1790    2.1260    1.9550 H   0  0  0  0  0  0  0  0  0  0  0  0
   -3.4300    1.7320    0.7510 H   0  0  0  0  0  0  0  0  0  0  0  0
   -2.8300   -0.1320    2.1690 H   0  0  0  0  0  0  0  0  0  0  0  0
   -0.0510   -0.1430    0.9370 H   0  0  0  0  0  0  0  0  0  0  0  0
   -2.9630    1.6440   -1.5670 H   0  0  0  0  0  0  0  0  0  0  0  0
   -1.4560    2.2890   -3.4270 H   0  0  0  0  0  0  0  0  0  0  0  0
   -2.0590   -1.7440   -0.4550 N   0  0  0  0  0  0  0  0  0  0  0  0
   -2.5930   -2.5600   -1.5230 C   0  0  1  0  0  0  0  0  0  0  0  0
   -1.7350   -2.6220   -2.7430 C   0  0  0  0  0  0  0  0  0  0  0  0
   -1.4580   -0.9950   -3.4920 S   0  0  0  0  0  0  0  0  0  0  0  0
   -2.6760   -3.9610   -0.9720 C   0  0  0  0  0  0  0  0  0  0  0  0
   -3.1150   -4.8620   -1.7180 O   0  0  0  0  0  0  0  0  0  0  0  0
   -2.2860   -4.2800    0.3210 O   0  0  0  0  0  0  0  0  0  0  0  0
   -1.0820   -1.9480   -0.1710 H   0  0  0  0  0  0  0  0  0  0  0  0
   -3.6360   -2.2770   -1.7980 H   0  0  0  0  0  0  0  0  0  0  0  0
   -0.7970   -3.1810   -2.6000 H   0  0  0  0  0  0  0  0  0  0  0  0
   -2.3160   -3.2130   -3.5070 H   0  0  0  0  0  0  0  0  0  0  0  0
   -2.6310   -0.2290   -3.3650 H   0  0  0  0  0  0  0  0  0  0  0  0
  1 11  1  0  0  0  0
  1 10  1  0  0  0  0
  2 12  1  6  0  0  0
  2  1  1  0  0  0  0
  3 14  1  0  0  0  0
  3 13  1  0  0  0  0
  3  2  1  0  0  0  0
  4  3  1  0  0  0  0
  5 17  1  0  0  0  0
  5  4  1  0  0  0  0
  5  6  1  0  0  0  0
  6 20  1  0  0  0  0
  7  6  1  0  0  0  0
  7 21  1  0  0  0  0
  8  2  1  0  0  0  0
  8  9  2  0  0  0  0
 15  4  1  0  0  0  0
 16  4  1  0  0  0  0
 18  5  1  0  0  0  0
 19  6  1  0  0  0  0
 22  7  1  0  0  0  0
 23 24  1  0  0  0  0
 24 25  1  0  0  0  0
 25 36  1  0  0  0  0
 25 26  2  0  0  0  0
 26 37  1  0  0  0  0
 27 26  1  0  0  0  0
 27 28  1  0  0  0  0
 28 29  1  0  0  0  0
 28 38  1  0  0  0  0
 29 30  1  0  0  0  0
 29 40  1  1  0  0  0
 30  8  1  0  0  0  0
 31 29  1  0  0  0  0
 32 31  2  0  0  0  0
 33 27  2  0  0  0  0
 34 24  2  0  0  0  0
 34 33  1  0  0  0  0
 35 23  1  0  0  0  0
 39 28  1  0  0  0  0
 41 30  1  0  0  0  0
 42 33  1  0  0  0  0
 43 34  1  0  0  0  0
 44 51  1  0  0  0  0
 44 31  1  0  0  0  0
 45 52  1  6  0  0  0
 45 48  1  0  0  0  0
 45 44  1  0  0  0  0
 46 53  1  0  0  0  0
 46 45  1  0  0  0  0
 47 55  1  0  0  0  0
 47 46  1  0  0  0  0
 48 50  1  0  0  0  0
 49 48  2  0  0  0  0
 54 46  1  0  0  0  0
M  END
$$$$
