KYD.pdb
 OpenBabel07022418523D

 57 57  0  0  1  0  0  0  0  0999 V2000
    1.0430    1.5570    4.1250 N   0  0  0  0  0  0  0  0  0  0  0  0
    0.5650    1.6060    2.7310 C   0  0  1  0  0  0  0  0  0  0  0  0
    1.7360    2.1510    1.8750 C   0  0  0  0  0  0  0  0  0  0  0  0
    2.9180    1.2170    2.0130 C   0  0  0  0  0  0  0  0  0  0  0  0
    4.0680    1.7380    1.1910 C   0  0  0  0  0  0  0  0  0  0  0  0
    5.2690    0.7900    1.3330 C   0  0  0  0  0  0  0  0  0  0  0  0
    5.6380    0.7350    2.7520 N   0  0  0  0  0  0  0  0  0  0  0  0
    0.2610    0.2220    2.3150 C   0  0  0  0  0  0  0  0  0  0  0  0
    0.7150   -0.7170    3.0310 O   0  0  0  0  0  0  0  0  0  0  0  0
    0.1710    1.6810    4.7030 H   0  0  0  0  0  0  0  0  0  0  0  0
    1.4610    0.6120    4.2530 H   0  0  0  0  0  0  0  0  0  0  0  0
   -0.3260    2.2190    2.6480 H   0  0  0  0  0  0  0  0  0  0  0  0
    1.3710    2.2090    0.8360 H   0  0  0  0  0  0  0  0  0  0  0  0
    1.9550    3.1810    2.2150 H   0  0  0  0  0  0  0  0  0  0  0  0
    2.5840    0.2190    1.6350 H   0  0  0  0  0  0  0  0  0  0  0  0
    3.2680    1.1370    3.0540 H   0  0  0  0  0  0  0  0  0  0  0  0
    3.7770    1.8440    0.1350 H   0  0  0  0  0  0  0  0  0  0  0  0
    4.4100    2.7080    1.6430 H   0  0  0  0  0  0  0  0  0  0  0  0
    5.0190   -0.2270    1.0160 H   0  0  0  0  0  0  0  0  0  0  0  0
    6.1080    1.2670    0.8080 H   0  0  0  0  0  0  0  0  0  0  0  0
    5.4630    1.6940    3.1280 H   0  0  0  0  0  0  0  0  0  0  0  0
    5.0170    0.0030    3.2040 H   0  0  0  0  0  0  0  0  0  0  0  0
   -6.3520    1.1070   -0.4290 O   0  0  0  0  0  0  0  0  0  0  0  0
   -5.2890    0.3330    0.0510 C   0  0  0  0  0  0  0  0  0  0  0  0
   -4.5090    0.7510    1.1150 C   0  0  0  0  0  0  0  0  0  0  0  0
   -3.4520   -0.0060    1.5990 C   0  0  0  0  0  0  0  0  0  0  0  0
   -3.1570   -1.2090    1.0170 C   0  0  0  0  0  0  0  0  0  0  0  0
   -2.0300   -1.9950    1.5560 C   0  0  0  0  0  0  0  0  0  0  0  0
   -0.7070   -1.5760    0.9050 C   0  0  2  0  0  0  0  0  0  0  0  0
   -0.5000   -0.1490    1.1820 N   0  0  0  0  0  0  0  0  0  0  0  0
   -0.6450   -1.8820   -0.5100 C   0  0  0  0  0  0  0  0  0  0  0  0
   -0.5870   -0.9490   -1.3710 O   0  0  0  0  0  0  0  0  0  0  0  0
   -3.8990   -1.6590   -0.0320 C   0  0  0  0  0  0  0  0  0  0  0  0
   -4.9450   -0.8840   -0.4920 C   0  0  0  0  0  0  0  0  0  0  0  0
   -6.1780    1.5930   -1.3110 H   0  0  0  0  0  0  0  0  0  0  0  0
   -4.7610    1.7070    1.5550 H   0  0  0  0  0  0  0  0  0  0  0  0
   -2.8680    0.3830    2.4530 H   0  0  0  0  0  0  0  0  0  0  0  0
   -2.2360   -3.0590    1.3450 H   0  0  0  0  0  0  0  0  0  0  0  0
   -1.8860   -1.8880    2.6460 H   0  0  0  0  0  0  0  0  0  0  0  0
    0.0500   -2.1320    1.4690 H   0  0  0  0  0  0  0  0  0  0  0  0
   -0.8890    0.6080    0.5800 H   0  0  0  0  0  0  0  0  0  0  0  0
   -3.7120   -2.6140   -0.5310 H   0  0  0  0  0  0  0  0  0  0  0  0
   -5.5700   -1.2070   -1.3310 H   0  0  0  0  0  0  0  0  0  0  0  0
   -0.6430   -3.1950   -1.0670 N   0  0  0  0  0  0  0  0  0  0  0  0
   -0.5960   -3.4710   -2.4640 C   0  0  1  0  0  0  0  0  0  0  0  0
    0.8250   -3.7070   -2.9770 C   0  0  0  0  0  0  0  0  0  0  0  0
    1.6010   -2.5080   -2.7160 C   0  0  0  0  0  0  0  0  0  0  0  0
    2.1930   -2.3740   -1.6030 O   0  0  0  0  0  0  0  0  0  0  0  0
   -1.4560   -4.5610   -2.9210 C   0  0  0  0  0  0  0  0  0  0  0  0
   -1.5150   -4.8480   -4.1370 O   0  0  0  0  0  0  0  0  0  0  0  0
    1.7290   -1.4920   -3.6390 O   0  0  0  0  0  0  0  0  0  0  0  0
   -2.2190   -5.3010   -2.0320 O   0  0  0  0  0  0  0  0  0  0  0  0
   -0.6770   -3.9860   -0.3690 H   0  0  0  0  0  0  0  0  0  0  0  0
   -0.8990   -2.5320   -2.9930 H   0  0  0  0  0  0  0  0  0  0  0  0
    1.2650   -4.6470   -2.5980 H   0  0  0  0  0  0  0  0  0  0  0  0
    0.7150   -3.8430   -4.0750 H   0  0  0  0  0  0  0  0  0  0  0  0
    1.6890   -0.5000   -3.3720 H   0  0  0  0  0  0  0  0  0  0  0  0
  1 11  1  0  0  0  0
  1 10  1  0  0  0  0
  2 12  1  6  0  0  0
  2  1  1  0  0  0  0
  3  4  1  0  0  0  0
  3 14  1  0  0  0  0
  3  2  1  0  0  0  0
  4 16  1  0  0  0  0
  5  6  1  0  0  0  0
  5 18  1  0  0  0  0
  5  4  1  0  0  0  0
  6  7  1  0  0  0  0
  7 21  1  0  0  0  0
  7 22  1  0  0  0  0
  8  2  1  0  0  0  0
  8  9  2  0  0  0  0
 13  3  1  0  0  0  0
 15  4  1  0  0  0  0
 17  5  1  0  0  0  0
 19  6  1  0  0  0  0
 20  6  1  0  0  0  0
 23 24  1  0  0  0  0
 24 25  1  0  0  0  0
 25 36  1  0  0  0  0
 25 26  2  0  0  0  0
 26 37  1  0  0  0  0
 27 28  1  0  0  0  0
 27 26  1  0  0  0  0
 28 39  1  0  0  0  0
 29 30  1  0  0  0  0
 29 40  1  1  0  0  0
 29 28  1  0  0  0  0
 30  8  1  0  0  0  0
 31 29  1  0  0  0  0
 32 31  2  0  0  0  0
 33 27  2  0  0  0  0
 34 33  1  0  0  0  0
 34 24  2  0  0  0  0
 35 23  1  0  0  0  0
 38 28  1  0  0  0  0
 41 30  1  0  0  0  0
 42 33  1  0  0  0  0
 43 34  1  0  0  0  0
 44 31  1  0  0  0  0
 44 53  1  0  0  0  0
 45 54  1  6  0  0  0
 45 44  1  0  0  0  0
 46 47  1  0  0  0  0
 46 55  1  0  0  0  0
 46 45  1  0  0  0  0
 47 48  2  0  0  0  0
 49 45  1  0  0  0  0
 49 52  1  0  0  0  0
 50 49  2  0  0  0  0
 51 57  1  0  0  0  0
 51 47  1  0  0  0  0
 56 46  1  0  0  0  0
M  END
$$$$
