KYE.pdb
 OpenBabel07022418533D

 60 60  0  0  1  0  0  0  0  0999 V2000
   -0.2990    2.2500    2.5550 N   0  0  0  0  0  0  0  0  0  0  0  0
    0.3420    1.6640    1.3960 C   0  0  1  0  0  0  0  0  0  0  0  0
    1.7350    1.2160    1.8020 C   0  0  0  0  0  0  0  0  0  0  0  0
    2.4890    2.4320    2.2820 C   0  0  0  0  0  0  0  0  0  0  0  0
    3.8950    2.0950    2.7050 C   0  0  0  0  0  0  0  0  0  0  0  0
    3.9510    1.0960    3.8240 C   0  0  0  0  0  0  0  0  0  0  0  0
    5.3410    0.8220    4.1740 N   0  0  0  0  0  0  0  0  0  0  0  0
   -0.4650    0.5390    0.8890 C   0  0  0  0  0  0  0  0  0  0  0  0
   -1.5650    0.2730    1.4620 O   0  0  0  0  0  0  0  0  0  0  0  0
   -1.3060    2.4820    2.3230 H   0  0  0  0  0  0  0  0  0  0  0  0
   -0.3210    1.5450    3.3390 H   0  0  0  0  0  0  0  0  0  0  0  0
    0.3660    2.4410    0.6260 H   0  0  0  0  0  0  0  0  0  0  0  0
    2.2920    0.7790    0.9560 H   0  0  0  0  0  0  0  0  0  0  0  0
    1.6790    0.4890    2.6380 H   0  0  0  0  0  0  0  0  0  0  0  0
    1.9940    2.9000    3.1570 H   0  0  0  0  0  0  0  0  0  0  0  0
    2.5720    3.1660    1.4470 H   0  0  0  0  0  0  0  0  0  0  0  0
    4.3800    3.0390    3.0500 H   0  0  0  0  0  0  0  0  0  0  0  0
    4.5090    1.7220    1.8620 H   0  0  0  0  0  0  0  0  0  0  0  0
    3.4640    0.1420    3.5270 H   0  0  0  0  0  0  0  0  0  0  0  0
    3.4640    1.4630    4.7460 H   0  0  0  0  0  0  0  0  0  0  0  0
    5.7280    0.1050    3.5180 H   0  0  0  0  0  0  0  0  0  0  0  0
    5.9140    1.6960    4.1750 H   0  0  0  0  0  0  0  0  0  0  0  0
   -4.0630    3.7870   -2.5380 O   0  0  0  0  0  0  0  0  0  0  0  0
   -3.4030    2.5760   -2.4180 C   0  0  0  0  0  0  0  0  0  0  0  0
   -2.0380    2.4980   -2.5570 C   0  0  0  0  0  0  0  0  0  0  0  0
   -1.3680    1.3030   -2.4410 C   0  0  0  0  0  0  0  0  0  0  0  0
   -2.0640    0.1210   -2.1760 C   0  0  0  0  0  0  0  0  0  0  0  0
   -1.3450   -1.1750   -2.0520 C   0  0  0  0  0  0  0  0  0  0  0  0
   -0.9610   -1.3570   -0.6220 C   0  0  2  0  0  0  0  0  0  0  0  0
   -0.1000   -0.2740   -0.1980 N   0  0  0  0  0  0  0  0  0  0  0  0
   -0.2170   -2.6270   -0.3850 C   0  0  0  0  0  0  0  0  0  0  0  0
    0.9460   -2.6350    0.0790 O   0  0  0  0  0  0  0  0  0  0  0  0
   -3.4310    0.2110   -2.0390 C   0  0  0  0  0  0  0  0  0  0  0  0
   -4.1020    1.4290   -2.1580 C   0  0  0  0  0  0  0  0  0  0  0  0
   -3.8040    4.5930   -1.9910 H   0  0  0  0  0  0  0  0  0  0  0  0
   -1.5150    3.4430   -2.7650 H   0  0  0  0  0  0  0  0  0  0  0  0
   -0.3030    1.2730   -2.5550 H   0  0  0  0  0  0  0  0  0  0  0  0
   -0.4380   -1.2000   -2.6890 H   0  0  0  0  0  0  0  0  0  0  0  0
   -2.0770   -1.9660   -2.3150 H   0  0  0  0  0  0  0  0  0  0  0  0
   -1.9030   -1.3410   -0.0050 H   0  0  0  0  0  0  0  0  0  0  0  0
    0.7850   -0.1140   -0.7120 H   0  0  0  0  0  0  0  0  0  0  0  0
   -4.0330   -0.6700   -1.8330 H   0  0  0  0  0  0  0  0  0  0  0  0
   -5.1760    1.5060   -2.0520 H   0  0  0  0  0  0  0  0  0  0  0  0
   -0.7840   -3.9100   -0.6700 N   0  0  0  0  0  0  0  0  0  0  0  0
   -0.0960   -5.1450   -0.4490 C   0  0  1  0  0  0  0  0  0  0  0  0
   -0.7390   -5.9140    0.6690 C   0  0  0  0  0  0  0  0  0  0  0  0
   -0.7560   -5.2540    2.0030 C   0  0  0  0  0  0  0  0  0  0  0  0
   -1.5040   -4.0050    2.0410 C   0  0  0  0  0  0  0  0  0  0  0  0
   -1.0770   -2.9700    2.6680 O   0  0  0  0  0  0  0  0  0  0  0  0
    0.0530   -5.9580   -1.6690 C   0  0  0  0  0  0  0  0  0  0  0  0
    0.6420   -7.0550   -1.6130 O   0  0  0  0  0  0  0  0  0  0  0  0
   -2.7240   -3.8300    1.4140 O   0  0  0  0  0  0  0  0  0  0  0  0
   -0.4510   -5.5210   -2.8700 O   0  0  0  0  0  0  0  0  0  0  0  0
   -1.7620   -3.8960   -1.0790 H   0  0  0  0  0  0  0  0  0  0  0  0
    0.9400   -4.8700   -0.0560 H   0  0  0  0  0  0  0  0  0  0  0  0
   -1.7810   -6.2490    0.3760 H   0  0  0  0  0  0  0  0  0  0  0  0
   -0.2040   -6.9080    0.7920 H   0  0  0  0  0  0  0  0  0  0  0  0
   -1.2130   -5.9340    2.7760 H   0  0  0  0  0  0  0  0  0  0  0  0
    0.2990   -5.0810    2.3790 H   0  0  0  0  0  0  0  0  0  0  0  0
   -3.3060   -3.0240    1.4720 H   0  0  0  0  0  0  0  0  0  0  0  0
  1 11  1  0  0  0  0
  2 12  1  6  0  0  0
  2  3  1  0  0  0  0
  2  1  1  0  0  0  0
  3  4  1  0  0  0  0
  3 14  1  0  0  0  0
  4  5  1  0  0  0  0
  4 15  1  0  0  0  0
  5 17  1  0  0  0  0
  5  6  1  0  0  0  0
  6  7  1  0  0  0  0
  6 20  1  0  0  0  0
  7 22  1  0  0  0  0
  8  2  1  0  0  0  0
  8  9  2  0  0  0  0
 10  1  1  0  0  0  0
 13  3  1  0  0  0  0
 16  4  1  0  0  0  0
 18  5  1  0  0  0  0
 19  6  1  0  0  0  0
 21  7  1  0  0  0  0
 23 24  1  0  0  0  0
 23 35  1  0  0  0  0
 24 34  1  0  0  0  0
 25 26  1  0  0  0  0
 25 24  2  0  0  0  0
 26 27  2  0  0  0  0
 27 28  1  0  0  0  0
 27 33  1  0  0  0  0
 28 29  1  0  0  0  0
 29 31  1  0  0  0  0
 29 30  1  0  0  0  0
 29 40  1  1  0  0  0
 30  8  1  0  0  0  0
 31 32  2  0  0  0  0
 33 42  1  0  0  0  0
 34 43  1  0  0  0  0
 34 33  2  0  0  0  0
 36 25  1  0  0  0  0
 37 26  1  0  0  0  0
 38 28  1  0  0  0  0
 39 28  1  0  0  0  0
 41 30  1  0  0  0  0
 44 45  1  0  0  0  0
 44 31  1  0  0  0  0
 45 55  1  1  0  0  0
 45 46  1  0  0  0  0
 46 57  1  0  0  0  0
 46 47  1  0  0  0  0
 47 48  1  0  0  0  0
 47 59  1  0  0  0  0
 47 58  1  0  0  0  0
 48 49  2  0  0  0  0
 50 51  1  0  0  0  0
 50 45  1  0  0  0  0
 52 60  1  0  0  0  0
 52 48  1  0  0  0  0
 53 50  2  0  0  0  0
 54 44  1  0  0  0  0
 56 46  1  0  0  0  0
M  END
$$$$
