KYG.pdb
 OpenBabel07022418533D

 51 51  0  0  1  0  0  0  0  0999 V2000
   -0.2410   -1.6840    4.8500 N   0  0  0  0  0  0  0  0  0  0  0  0
    0.1580   -1.1590    3.4990 C   0  0  1  0  0  0  0  0  0  0  0  0
    0.9370   -2.2440    2.8890 C   0  0  0  0  0  0  0  0  0  0  0  0
    1.5280   -2.0280    1.5360 C   0  0  0  0  0  0  0  0  0  0  0  0
    2.4970   -0.8570    1.4940 C   0  0  0  0  0  0  0  0  0  0  0  0
    3.6460   -1.1210    2.4610 C   0  0  0  0  0  0  0  0  0  0  0  0
    4.3750   -2.3150    2.1420 N   0  0  0  0  0  0  0  0  0  0  0  0
   -1.0170   -0.6400    2.8300 C   0  0  0  0  0  0  0  0  0  0  0  0
   -2.1320   -0.6820    3.4640 O   0  0  0  0  0  0  0  0  0  0  0  0
   -0.7430   -2.5760    4.6290 H   0  0  0  0  0  0  0  0  0  0  0  0
    0.6790   -1.9880    5.2800 H   0  0  0  0  0  0  0  0  0  0  0  0
    0.8720   -0.3280    3.7720 H   0  0  0  0  0  0  0  0  0  0  0  0
    1.8160   -2.4890    3.5660 H   0  0  0  0  0  0  0  0  0  0  0  0
    0.3990   -3.2240    2.8370 H   0  0  0  0  0  0  0  0  0  0  0  0
    2.1870   -2.9590    1.3710 H   0  0  0  0  0  0  0  0  0  0  0  0
    0.8430   -2.0710    0.6850 H   0  0  0  0  0  0  0  0  0  0  0  0
    1.9790    0.0520    1.8540 H   0  0  0  0  0  0  0  0  0  0  0  0
    2.8740   -0.7790    0.4610 H   0  0  0  0  0  0  0  0  0  0  0  0
    3.2720   -1.0830    3.4960 H   0  0  0  0  0  0  0  0  0  0  0  0
    4.3850   -0.2730    2.3520 H   0  0  0  0  0  0  0  0  0  0  0  0
    4.7210   -2.7160    3.0480 H   0  0  0  0  0  0  0  0  0  0  0  0
    5.1200   -2.1710    1.4380 H   0  0  0  0  0  0  0  0  0  0  0  0
    1.9220    2.3910   -3.4410 O   0  0  0  0  0  0  0  0  0  0  0  0
    0.8520    2.2260   -2.5580 C   0  0  0  0  0  0  0  0  0  0  0  0
    1.1150    2.4120   -1.2140 C   0  0  0  0  0  0  0  0  0  0  0  0
    0.1380    2.2740   -0.2670 C   0  0  0  0  0  0  0  0  0  0  0  0
   -1.1420    1.9400   -0.6690 C   0  0  0  0  0  0  0  0  0  0  0  0
   -2.1640    1.8050    0.3990 C   0  0  0  0  0  0  0  0  0  0  0  0
   -2.2600    0.4280    0.9540 C   0  0  2  0  0  0  0  0  0  0  0  0
   -1.0710   -0.0850    1.5480 N   0  0  0  0  0  0  0  0  0  0  0  0
   -2.7870   -0.5200   -0.0530 C   0  0  0  0  0  0  0  0  0  0  0  0
   -3.8280   -0.2190   -0.7490 O   0  0  0  0  0  0  0  0  0  0  0  0
   -1.4050    1.7550   -2.0100 C   0  0  0  0  0  0  0  0  0  0  0  0
   -0.4150    1.8950   -2.9600 C   0  0  0  0  0  0  0  0  0  0  0  0
    1.9250    2.0240   -4.3820 H   0  0  0  0  0  0  0  0  0  0  0  0
    2.1340    2.6770   -0.8940 H   0  0  0  0  0  0  0  0  0  0  0  0
    0.3850    2.4280    0.7790 H   0  0  0  0  0  0  0  0  0  0  0  0
   -2.0050    2.5980    1.1200 H   0  0  0  0  0  0  0  0  0  0  0  0
   -3.1540    2.0220   -0.0980 H   0  0  0  0  0  0  0  0  0  0  0  0
   -3.0390    0.4280    1.7820 H   0  0  0  0  0  0  0  0  0  0  0  0
   -0.2130   -0.0150    0.9600 H   0  0  0  0  0  0  0  0  0  0  0  0
   -2.3870    1.4990   -2.3290 H   0  0  0  0  0  0  0  0  0  0  0  0
   -0.5900    1.7560   -4.0230 H   0  0  0  0  0  0  0  0  0  0  0  0
   -2.2510   -1.7890   -0.3550 N   0  0  0  0  0  0  0  0  0  0  0  0
   -2.8350   -2.6670   -1.3710 C   0  0  0  0  0  0  0  0  0  0  0  0
   -2.0640   -3.9310   -1.4720 C   0  0  0  0  0  0  0  0  0  0  0  0
   -1.0630   -4.0910   -0.7210 O   0  0  0  0  0  0  0  0  0  0  0  0
   -2.4410   -4.9120   -2.3740 O   0  0  0  0  0  0  0  0  0  0  0  0
   -1.4190   -2.1140    0.1640 H   0  0  0  0  0  0  0  0  0  0  0  0
   -3.9020   -2.8130   -1.2000 H   0  0  0  0  0  0  0  0  0  0  0  0
   -2.7270   -2.1060   -2.3350 H   0  0  0  0  0  0  0  0  0  0  0  0
  1 11  1  0  0  0  0
  2 12  1  1  0  0  0
  2  1  1  0  0  0  0
  3  2  1  0  0  0  0
  3 13  1  0  0  0  0
  4  3  1  0  0  0  0
  5  4  1  0  0  0  0
  5 17  1  0  0  0  0
  5  6  1  0  0  0  0
  6 19  1  0  0  0  0
  7  6  1  0  0  0  0
  7 21  1  0  0  0  0
  8  9  2  0  0  0  0
  8  2  1  0  0  0  0
 10  1  1  0  0  0  0
 14  3  1  0  0  0  0
 15  4  1  0  0  0  0
 16  4  1  0  0  0  0
 18  5  1  0  0  0  0
 20  6  1  0  0  0  0
 22  7  1  0  0  0  0
 23 24  1  0  0  0  0
 24 25  1  0  0  0  0
 25 36  1  0  0  0  0
 25 26  2  0  0  0  0
 26 37  1  0  0  0  0
 27 26  1  0  0  0  0
 27 28  1  0  0  0  0
 28 29  1  0  0  0  0
 28 38  1  0  0  0  0
 29 30  1  0  0  0  0
 29 40  1  1  0  0  0
 30  8  1  0  0  0  0
 31 29  1  0  0  0  0
 32 31  2  0  0  0  0
 33 27  2  0  0  0  0
 34 24  2  0  0  0  0
 34 33  1  0  0  0  0
 35 23  1  0  0  0  0
 39 28  1  0  0  0  0
 41 30  1  0  0  0  0
 42 33  1  0  0  0  0
 43 34  1  0  0  0  0
 44 31  1  0  0  0  0
 44 49  1  0  0  0  0
 45 50  1  0  0  0  0
 45 44  1  0  0  0  0
 46 45  1  0  0  0  0
 46 47  1  0  0  0  0
 48 46  2  0  0  0  0
 51 45  1  0  0  0  0
M  END
$$$$
