KYH.pdb
 OpenBabel07022418533D

 61 62  0  0  1  0  0  0  0  0999 V2000
    0.6340   -1.7420    3.4670 N   0  0  0  0  0  0  0  0  0  0  0  0
    0.4200   -0.2910    3.5770 C   0  0  1  0  0  0  0  0  0  0  0  0
    1.7860    0.2630    3.9680 C   0  0  0  0  0  0  0  0  0  0  0  0
    1.7840    1.7380    4.1340 C   0  0  0  0  0  0  0  0  0  0  0  0
    3.1490    2.2150    4.5450 C   0  0  0  0  0  0  0  0  0  0  0  0
    4.1640    1.8610    3.4940 C   0  0  0  0  0  0  0  0  0  0  0  0
    3.8100    2.4670    2.2120 N   0  0  0  0  0  0  0  0  0  0  0  0
    0.0160    0.2120    2.2410 C   0  0  0  0  0  0  0  0  0  0  0  0
   -0.3150    1.4070    2.1350 O   0  0  0  0  0  0  0  0  0  0  0  0
    1.3970   -1.9640    2.7990 H   0  0  0  0  0  0  0  0  0  0  0  0
   -0.2310   -2.2410    3.2320 H   0  0  0  0  0  0  0  0  0  0  0  0
   -0.3600   -0.1020    4.3090 H   0  0  0  0  0  0  0  0  0  0  0  0
    2.0640   -0.2010    4.9160 H   0  0  0  0  0  0  0  0  0  0  0  0
    2.4810   -0.0930    3.1650 H   0  0  0  0  0  0  0  0  0  0  0  0
    0.9980    2.0290    4.8610 H   0  0  0  0  0  0  0  0  0  0  0  0
    1.5750    2.2820    3.1630 H   0  0  0  0  0  0  0  0  0  0  0  0
    3.0980    3.3250    4.5740 H   0  0  0  0  0  0  0  0  0  0  0  0
    3.4470    1.7970    5.5370 H   0  0  0  0  0  0  0  0  0  0  0  0
    5.1960    2.1660    3.7950 H   0  0  0  0  0  0  0  0  0  0  0  0
    4.2190    0.7740    3.3280 H   0  0  0  0  0  0  0  0  0  0  0  0
    4.6750    2.3730    1.6130 H   0  0  0  0  0  0  0  0  0  0  0  0
    3.0670    1.9130    1.7290 H   0  0  0  0  0  0  0  0  0  0  0  0
   -0.6170    2.3430   -6.2030 O   0  0  0  0  0  0  0  0  0  0  0  0
   -0.2980    1.7750   -4.9740 C   0  0  0  0  0  0  0  0  0  0  0  0
    0.1380    2.5270   -3.9000 C   0  0  0  0  0  0  0  0  0  0  0  0
    0.4530    1.9640   -2.6840 C   0  0  0  0  0  0  0  0  0  0  0  0
    0.3430    0.5970   -2.4840 C   0  0  0  0  0  0  0  0  0  0  0  0
    0.6980    0.0330   -1.1710 C   0  0  0  0  0  0  0  0  0  0  0  0
   -0.4220   -0.0150   -0.1780 C   0  0  2  0  0  0  0  0  0  0  0  0
   -0.0140   -0.5840    1.0810 N   0  0  0  0  0  0  0  0  0  0  0  0
   -1.6080   -0.7580   -0.6350 C   0  0  0  0  0  0  0  0  0  0  0  0
   -2.1520   -0.3370   -1.7070 O   0  0  0  0  0  0  0  0  0  0  0  0
   -0.0900   -0.1630   -3.5440 C   0  0  0  0  0  0  0  0  0  0  0  0
   -0.4000    0.4170   -4.7510 C   0  0  0  0  0  0  0  0  0  0  0  0
    0.1020    2.6810   -6.8510 H   0  0  0  0  0  0  0  0  0  0  0  0
    0.2330    3.6140   -4.0380 H   0  0  0  0  0  0  0  0  0  0  0  0
    0.7930    2.6270   -1.8760 H   0  0  0  0  0  0  0  0  0  0  0  0
    1.1790   -0.9630   -1.3310 H   0  0  0  0  0  0  0  0  0  0  0  0
    1.4780    0.7020   -0.7540 H   0  0  0  0  0  0  0  0  0  0  0  0
   -0.7230    1.0330    0.0030 H   0  0  0  0  0  0  0  0  0  0  0  0
    0.2540   -1.5890    1.1050 H   0  0  0  0  0  0  0  0  0  0  0  0
   -0.1670   -1.2310   -3.3660 H   0  0  0  0  0  0  0  0  0  0  0  0
   -0.7420   -0.2280   -5.5750 H   0  0  0  0  0  0  0  0  0  0  0  0
   -2.1830   -1.8630   -0.0140 N   0  0  0  0  0  0  0  0  0  0  0  0
   -3.3530   -2.4990   -0.5690 C   0  0  1  0  0  0  0  0  0  0  0  0
   -3.0060   -3.8270   -1.2240 C   0  0  0  0  0  0  0  0  0  0  0  0
   -2.4020   -4.7930   -0.2760 C   0  0  0  0  0  0  0  0  0  0  0  0
   -3.0410   -5.7310    0.5080 C   0  0  0  0  0  0  0  0  0  0  0  0
   -2.1090   -6.3910    1.2110 N   0  0  0  0  0  0  0  0  0  0  0  0
   -0.9020   -5.8950    0.8900 C   0  0  0  0  0  0  0  0  0  0  0  0
   -1.0930   -4.9360   -0.0040 N   0  0  0  0  0  0  0  0  0  0  0  0
   -4.4350   -2.6590    0.4110 C   0  0  0  0  0  0  0  0  0  0  0  0
   -5.5470   -3.1760    0.1560 O   0  0  0  0  0  0  0  0  0  0  0  0
   -4.2660   -2.2200    1.7400 O   0  0  0  0  0  0  0  0  0  0  0  0
   -1.7240   -2.2130    0.8780 H   0  0  0  0  0  0  0  0  0  0  0  0
   -3.7180   -1.8650   -1.4140 H   0  0  0  0  0  0  0  0  0  0  0  0
   -3.9200   -4.3060   -1.6310 H   0  0  0  0  0  0  0  0  0  0  0  0
   -2.3430   -3.6290   -2.0800 H   0  0  0  0  0  0  0  0  0  0  0  0
   -4.1030   -5.9300    0.5730 H   0  0  0  0  0  0  0  0  0  0  0  0
   -2.2200   -7.1700    1.9080 H   0  0  0  0  0  0  0  0  0  0  0  0
    0.0700   -6.1940    1.2690 H   0  0  0  0  0  0  0  0  0  0  0  0
  1  2  1  0  0  0  0
  2  3  1  0  0  0  0
  2 12  1  1  0  0  0
  3  4  1  0  0  0  0
  3 13  1  0  0  0  0
  4  5  1  0  0  0  0
  4 15  1  0  0  0  0
  5 17  1  0  0  0  0
  5 18  1  0  0  0  0
  6 19  1  0  0  0  0
  6  5  1  0  0  0  0
  7  6  1  0  0  0  0
  8  2  1  0  0  0  0
  9  8  2  0  0  0  0
 10  1  1  0  0  0  0
 11  1  1  0  0  0  0
 14  3  1  0  0  0  0
 16  4  1  0  0  0  0
 20  6  1  0  0  0  0
 21  7  1  0  0  0  0
 22  7  1  0  0  0  0
 23 24  1  0  0  0  0
 24 34  2  0  0  0  0
 24 25  1  0  0  0  0
 25 26  2  0  0  0  0
 26 27  1  0  0  0  0
 26 37  1  0  0  0  0
 27 28  1  0  0  0  0
 28 39  1  0  0  0  0
 28 29  1  0  0  0  0
 29 40  1  1  0  0  0
 29 30  1  0  0  0  0
 30 41  1  0  0  0  0
 30  8  1  0  0  0  0
 31 29  1  0  0  0  0
 31 44  1  0  0  0  0
 32 31  2  0  0  0  0
 33 42  1  0  0  0  0
 33 27  2  0  0  0  0
 34 33  1  0  0  0  0
 35 23  1  0  0  0  0
 36 25  1  0  0  0  0
 38 28  1  0  0  0  0
 43 34  1  0  0  0  0
 44 55  1  0  0  0  0
 45 56  1  6  0  0  0
 45 44  1  0  0  0  0
 45 52  1  0  0  0  0
 46 45  1  0  0  0  0
 46 47  1  0  0  0  0
 47 51  1  0  0  0  0
 47 48  2  0  0  0  0
 48 59  1  0  0  0  0
 48 49  1  0  0  0  0
 49 60  1  0  0  0  0
 50 49  1  0  0  0  0
 50 61  1  0  0  0  0
 51 50  2  0  0  0  0
 52 54  1  0  0  0  0
 53 52  2  0  0  0  0
 57 46  1  0  0  0  0
 58 46  1  0  0  0  0
M  END
$$$$
