KYK.pdb
 OpenBabel07022418533D

 65 65  0  0  1  0  0  0  0  0999 V2000
    0.9130    1.7320    4.9880 N   0  0  0  0  0  0  0  0  0  0  0  0
    1.1270    1.5330    3.5270 C   0  0  1  0  0  0  0  0  0  0  0  0
    2.3820    0.7420    3.4320 C   0  0  0  0  0  0  0  0  0  0  0  0
    2.8640    0.4000    2.0690 C   0  0  0  0  0  0  0  0  0  0  0  0
    3.1370    1.6530    1.2340 C   0  0  0  0  0  0  0  0  0  0  0  0
    3.6330    1.2930   -0.1440 C   0  0  0  0  0  0  0  0  0  0  0  0
    2.7250    0.5020   -0.9140 N   0  0  0  0  0  0  0  0  0  0  0  0
   -0.0770    0.8350    3.0260 C   0  0  0  0  0  0  0  0  0  0  0  0
   -0.9640    0.4150    3.8510 O   0  0  0  0  0  0  0  0  0  0  0  0
    0.4880    0.8520    5.3740 H   0  0  0  0  0  0  0  0  0  0  0  0
    0.2460    2.5220    5.1280 H   0  0  0  0  0  0  0  0  0  0  0  0
    1.2240    2.5500    3.0660 H   0  0  0  0  0  0  0  0  0  0  0  0
    3.1730    1.2610    4.0150 H   0  0  0  0  0  0  0  0  0  0  0  0
    2.1910   -0.2270    3.9650 H   0  0  0  0  0  0  0  0  0  0  0  0
    3.8840   -0.0830    2.2090 H   0  0  0  0  0  0  0  0  0  0  0  0
    2.2740   -0.3470    1.5550 H   0  0  0  0  0  0  0  0  0  0  0  0
    3.9440    2.2310    1.7260 H   0  0  0  0  0  0  0  0  0  0  0  0
    2.2420    2.2960    1.1970 H   0  0  0  0  0  0  0  0  0  0  0  0
    4.5890    0.7160    0.0100 H   0  0  0  0  0  0  0  0  0  0  0  0
    3.8520    2.2210   -0.6990 H   0  0  0  0  0  0  0  0  0  0  0  0
    2.8260   -0.5130   -0.8170 H   0  0  0  0  0  0  0  0  0  0  0  0
    2.5840    0.8400   -1.8880 H   0  0  0  0  0  0  0  0  0  0  0  0
   -0.2990    3.2670   -3.9820 O   0  0  0  0  0  0  0  0  0  0  0  0
   -0.8630    2.6730   -2.8560 C   0  0  0  0  0  0  0  0  0  0  0  0
   -0.6940    3.2310   -1.6060 C   0  0  0  0  0  0  0  0  0  0  0  0
   -1.2460    2.6560   -0.4770 C   0  0  0  0  0  0  0  0  0  0  0  0
   -1.9930    1.4950   -0.5520 C   0  0  0  0  0  0  0  0  0  0  0  0
   -2.5750    0.8970    0.6750 C   0  0  0  0  0  0  0  0  0  0  0  0
   -1.5830   -0.1020    1.3050 C   0  0  2  0  0  0  0  0  0  0  0  0
   -0.3630    0.5750    1.6490 N   0  0  0  0  0  0  0  0  0  0  0  0
   -1.4470   -1.2370    0.3730 C   0  0  0  0  0  0  0  0  0  0  0  0
   -2.5310   -1.8570    0.1200 O   0  0  0  0  0  0  0  0  0  0  0  0
   -2.1560    0.9430   -1.8080 C   0  0  0  0  0  0  0  0  0  0  0  0
   -1.6060    1.5150   -2.9390 C   0  0  0  0  0  0  0  0  0  0  0  0
   -0.8360    3.8960   -4.5870 H   0  0  0  0  0  0  0  0  0  0  0  0
   -0.1100    4.1440   -1.5300 H   0  0  0  0  0  0  0  0  0  0  0  0
   -1.1130    3.0940    0.5010 H   0  0  0  0  0  0  0  0  0  0  0  0
   -3.4780    0.3050    0.4240 H   0  0  0  0  0  0  0  0  0  0  0  0
   -2.8430    1.6350    1.4320 H   0  0  0  0  0  0  0  0  0  0  0  0
   -2.1290   -0.4550    2.2080 H   0  0  0  0  0  0  0  0  0  0  0  0
    0.3200    0.8850    0.9270 H   0  0  0  0  0  0  0  0  0  0  0  0
   -2.7420    0.0240   -1.8980 H   0  0  0  0  0  0  0  0  0  0  0  0
   -1.7270    1.0920   -3.9330 H   0  0  0  0  0  0  0  0  0  0  0  0
   -0.2270   -1.6360   -0.2160 N   0  0  0  0  0  0  0  0  0  0  0  0
    0.0210   -2.7270   -1.1080 C   0  0  1  0  0  0  0  0  0  0  0  0
   -1.0430   -3.8130   -1.0350 C   0  0  0  0  0  0  0  0  0  0  0  0
   -1.0380   -4.4090    0.3450 C   0  0  0  0  0  0  0  0  0  0  0  0
   -2.1540   -5.4630    0.3690 C   0  0  0  0  0  0  0  0  0  0  0  0
   -2.2200   -6.1200    1.7370 C   0  0  0  0  0  0  0  0  0  0  0  0
   -2.4910   -5.1390    2.7640 N   0  0  0  0  0  0  0  0  0  0  0  0
    0.4230   -2.3750   -2.4590 C   0  0  0  0  0  0  0  0  0  0  0  0
    0.6770   -3.2090   -3.3620 O   0  0  0  0  0  0  0  0  0  0  0  0
    0.5410   -1.0200   -2.8000 O   0  0  0  0  0  0  0  0  0  0  0  0
    0.5930   -0.9940    0.0790 H   0  0  0  0  0  0  0  0  0  0  0  0
    0.9090   -3.2780   -0.6150 H   0  0  0  0  0  0  0  0  0  0  0  0
   -0.7380   -4.6060   -1.7900 H   0  0  0  0  0  0  0  0  0  0  0  0
   -2.0270   -3.4510   -1.3450 H   0  0  0  0  0  0  0  0  0  0  0  0
   -1.1140   -3.7070    1.1470 H   0  0  0  0  0  0  0  0  0  0  0  0
   -0.0690   -5.0180    0.4770 H   0  0  0  0  0  0  0  0  0  0  0  0
   -3.0870   -4.9000    0.1640 H   0  0  0  0  0  0  0  0  0  0  0  0
   -1.9360   -6.2360   -0.3790 H   0  0  0  0  0  0  0  0  0  0  0  0
   -1.2610   -6.6020    1.9670 H   0  0  0  0  0  0  0  0  0  0  0  0
   -3.0370   -6.8590    1.6940 H   0  0  0  0  0  0  0  0  0  0  0  0
   -3.4960   -5.1500    3.0510 H   0  0  0  0  0  0  0  0  0  0  0  0
   -1.8320   -5.2250    3.5690 H   0  0  0  0  0  0  0  0  0  0  0  0
  1 11  1  0  0  0  0
  1 10  1  0  0  0  0
  2 12  1  6  0  0  0
  2  1  1  0  0  0  0
  3  2  1  0  0  0  0
  3 14  1  0  0  0  0
  3 13  1  0  0  0  0
  4 15  1  0  0  0  0
  4  3  1  0  0  0  0
  5 17  1  0  0  0  0
  5  4  1  0  0  0  0
  6 19  1  0  0  0  0
  6  5  1  0  0  0  0
  7 21  1  0  0  0  0
  7  6  1  0  0  0  0
  8  2  1  0  0  0  0
  8  9  2  0  0  0  0
 16  4  1  0  0  0  0
 18  5  1  0  0  0  0
 20  6  1  0  0  0  0
 22  7  1  0  0  0  0
 23 24  1  0  0  0  0
 24 25  1  0  0  0  0
 25 36  1  0  0  0  0
 25 26  2  0  0  0  0
 26 37  1  0  0  0  0
 27 26  1  0  0  0  0
 27 28  1  0  0  0  0
 28 29  1  0  0  0  0
 28 39  1  0  0  0  0
 29 30  1  0  0  0  0
 29 40  1  1  0  0  0
 30  8  1  0  0  0  0
 31 29  1  0  0  0  0
 32 31  2  0  0  0  0
 33 27  2  0  0  0  0
 34 24  2  0  0  0  0
 34 33  1  0  0  0  0
 35 23  1  0  0  0  0
 38 28  1  0  0  0  0
 41 30  1  0  0  0  0
 42 33  1  0  0  0  0
 43 34  1  0  0  0  0
 44 54  1  0  0  0  0
 44 31  1  0  0  0  0
 45 46  1  0  0  0  0
 45 55  1  1  0  0  0
 45 44  1  0  0  0  0
 46 47  1  0  0  0  0
 47 48  1  0  0  0  0
 47 59  1  0  0  0  0
 47 58  1  0  0  0  0
 48 49  1  0  0  0  0
 49 62  1  0  0  0  0
 49 50  1  0  0  0  0
 50 64  1  0  0  0  0
 50 65  1  0  0  0  0
 51 45  1  0  0  0  0
 52 51  2  0  0  0  0
 53 51  1  0  0  0  0
 56 46  1  0  0  0  0
 57 46  1  0  0  0  0
 60 48  1  0  0  0  0
 61 48  1  0  0  0  0
 63 49  1  0  0  0  0
M  END
$$$$
