KYL.pdb
 OpenBabel07022418533D

 63 63  0  0  1  0  0  0  0  0999 V2000
    2.1070   -2.0680    4.3290 N   0  0  0  0  0  0  0  0  0  0  0  0
    1.4630   -1.1960    3.4000 C   0  0  1  0  0  0  0  0  0  0  0  0
    2.0220   -1.4580    2.0190 C   0  0  0  0  0  0  0  0  0  0  0  0
    3.5000   -1.2150    1.9500 C   0  0  0  0  0  0  0  0  0  0  0  0
    4.0230   -1.4870    0.5630 C   0  0  0  0  0  0  0  0  0  0  0  0
    5.5170   -1.2450    0.4720 C   0  0  0  0  0  0  0  0  0  0  0  0
    6.2500   -2.1010    1.3850 N   0  0  0  0  0  0  0  0  0  0  0  0
   -0.0260   -1.3590    3.4100 C   0  0  0  0  0  0  0  0  0  0  0  0
   -0.5800   -2.1910    4.1830 O   0  0  0  0  0  0  0  0  0  0  0  0
    2.7170   -2.7820    3.8810 H   0  0  0  0  0  0  0  0  0  0  0  0
    1.3740   -2.5270    4.9120 H   0  0  0  0  0  0  0  0  0  0  0  0
    1.6500   -0.1530    3.7250 H   0  0  0  0  0  0  0  0  0  0  0  0
    1.7760   -2.4600    1.6640 H   0  0  0  0  0  0  0  0  0  0  0  0
    1.5300   -0.7270    1.3260 H   0  0  0  0  0  0  0  0  0  0  0  0
    4.0720   -1.7880    2.6910 H   0  0  0  0  0  0  0  0  0  0  0  0
    3.7520   -0.1330    2.1560 H   0  0  0  0  0  0  0  0  0  0  0  0
    3.5050   -0.7840   -0.1210 H   0  0  0  0  0  0  0  0  0  0  0  0
    3.7690   -2.5040    0.1960 H   0  0  0  0  0  0  0  0  0  0  0  0
    5.9000   -1.4570   -0.5460 H   0  0  0  0  0  0  0  0  0  0  0  0
    5.6800   -0.1800    0.7120 H   0  0  0  0  0  0  0  0  0  0  0  0
    5.8530   -3.0730    1.2380 H   0  0  0  0  0  0  0  0  0  0  0  0
    6.0890   -1.8290    2.3790 H   0  0  0  0  0  0  0  0  0  0  0  0
   -1.6970    4.9610   -0.4650 O   0  0  0  0  0  0  0  0  0  0  0  0
   -2.0320    3.8780    0.3400 C   0  0  0  0  0  0  0  0  0  0  0  0
   -1.2980    3.6180    1.4780 C   0  0  0  0  0  0  0  0  0  0  0  0
   -1.6300    2.5320    2.2880 C   0  0  0  0  0  0  0  0  0  0  0  0
   -2.6810    1.7020    1.9850 C   0  0  0  0  0  0  0  0  0  0  0  0
   -3.0010    0.5770    2.8540 C   0  0  0  0  0  0  0  0  0  0  0  0
   -2.3100   -0.6990    2.5130 C   0  0  2  0  0  0  0  0  0  0  0  0
   -0.8670   -0.6020    2.5660 N   0  0  0  0  0  0  0  0  0  0  0  0
   -2.6940   -1.2500    1.1770 C   0  0  0  0  0  0  0  0  0  0  0  0
   -3.9070   -1.4130    0.8970 O   0  0  0  0  0  0  0  0  0  0  0  0
   -3.4080    1.9670    0.8510 C   0  0  0  0  0  0  0  0  0  0  0  0
   -3.0920    3.0470    0.0280 C   0  0  0  0  0  0  0  0  0  0  0  0
   -1.8000    4.8110   -1.4680 H   0  0  0  0  0  0  0  0  0  0  0  0
   -0.4720    4.2730    1.7150 H   0  0  0  0  0  0  0  0  0  0  0  0
   -1.0020    2.3960    3.1670 H   0  0  0  0  0  0  0  0  0  0  0  0
   -2.7810    0.7780    3.9350 H   0  0  0  0  0  0  0  0  0  0  0  0
   -4.0980    0.3750    2.8240 H   0  0  0  0  0  0  0  0  0  0  0  0
   -2.6800   -1.4700    3.2500 H   0  0  0  0  0  0  0  0  0  0  0  0
   -0.3740    0.0830    1.9320 H   0  0  0  0  0  0  0  0  0  0  0  0
   -4.2510    1.3690    0.5320 H   0  0  0  0  0  0  0  0  0  0  0  0
   -3.6650    3.2610   -0.8730 H   0  0  0  0  0  0  0  0  0  0  0  0
   -1.4480   -0.0530   -4.2160 C   0  0  0  0  0  0  0  0  0  0  0  0
   -1.9750   -1.3630   -3.5400 C   0  0  0  0  0  0  0  0  0  0  0  0
   -1.0650   -2.4280   -4.1750 C   0  0  0  0  0  0  0  0  0  0  0  0
   -1.7220   -1.1370   -2.1000 C   0  0  0  0  0  0  0  0  0  0  0  0
   -2.1280   -2.1390   -1.0980 C   0  0  2  0  0  0  0  0  0  0  0  0
   -1.7150   -1.5920    0.2220 N   0  0  0  0  0  0  0  0  0  0  0  0
   -1.6820   -3.5090   -1.2320 C   0  0  0  0  0  0  0  0  0  0  0  0
   -1.9650   -4.2990   -2.1530 O   0  0  0  0  0  0  0  0  0  0  0  0
   -0.8380   -4.0440   -0.2350 O   0  0  0  0  0  0  0  0  0  0  0  0
   -1.9220    0.7710   -3.6460 H   0  0  0  0  0  0  0  0  0  0  0  0
   -1.6640   -0.0640   -5.2810 H   0  0  0  0  0  0  0  0  0  0  0  0
   -0.3700   -0.0470   -3.9670 H   0  0  0  0  0  0  0  0  0  0  0  0
   -3.0270   -1.5200   -3.8230 H   0  0  0  0  0  0  0  0  0  0  0  0
   -0.5710   -2.0070   -5.1140 H   0  0  0  0  0  0  0  0  0  0  0  0
   -0.2580   -2.7350   -3.4850 H   0  0  0  0  0  0  0  0  0  0  0  0
   -1.6460   -3.2810   -4.5770 H   0  0  0  0  0  0  0  0  0  0  0  0
   -2.1350   -0.1290   -1.8310 H   0  0  0  0  0  0  0  0  0  0  0  0
   -0.5950   -0.9710   -2.0160 H   0  0  0  0  0  0  0  0  0  0  0  0
   -3.2590   -2.1450   -1.0570 H   0  0  0  0  0  0  0  0  0  0  0  0
   -0.6810   -1.4740    0.4070 H   0  0  0  0  0  0  0  0  0  0  0  0
  1 11  1  0  0  0  0
  2  8  1  0  0  0  0
  2 12  1  1  0  0  0
  2  1  1  0  0  0  0
  3  2  1  0  0  0  0
  4  3  1  0  0  0  0
  4 16  1  0  0  0  0
  4 15  1  0  0  0  0
  5  4  1  0  0  0  0
  6  5  1  0  0  0  0
  6 20  1  0  0  0  0
  6  7  1  0  0  0  0
  7 22  1  0  0  0  0
  8  9  2  0  0  0  0
 10  1  1  0  0  0  0
 13  3  1  0  0  0  0
 14  3  1  0  0  0  0
 17  5  1  0  0  0  0
 18  5  1  0  0  0  0
 19  6  1  0  0  0  0
 21  7  1  0  0  0  0
 23 24  1  0  0  0  0
 24 25  1  0  0  0  0
 25 36  1  0  0  0  0
 25 26  2  0  0  0  0
 26 37  1  0  0  0  0
 27 26  1  0  0  0  0
 27 28  1  0  0  0  0
 28 38  1  0  0  0  0
 29 30  1  0  0  0  0
 29 28  1  0  0  0  0
 29 40  1  1  0  0  0
 30  8  1  0  0  0  0
 31 29  1  0  0  0  0
 32 31  2  0  0  0  0
 33 27  2  0  0  0  0
 34 24  2  0  0  0  0
 34 33  1  0  0  0  0
 35 23  1  0  0  0  0
 39 28  1  0  0  0  0
 41 30  1  0  0  0  0
 42 33  1  0  0  0  0
 43 34  1  0  0  0  0
 44 55  1  0  0  0  0
 44 53  1  0  0  0  0
 44 45  1  0  0  0  0
 45 47  1  0  0  0  0
 46 45  1  0  0  0  0
 46 58  1  0  0  0  0
 47 61  1  0  0  0  0
 47 60  1  0  0  0  0
 47 48  1  0  0  0  0
 48 62  1  6  0  0  0
 48 49  1  0  0  0  0
 49 63  1  0  0  0  0
 49 31  1  0  0  0  0
 50 48  1  0  0  0  0
 50 52  1  0  0  0  0
 51 50  2  0  0  0  0
 54 44  1  0  0  0  0
 56 45  1  0  0  0  0
 57 46  1  0  0  0  0
 59 46  1  0  0  0  0
M  END
$$$$
