KYM.pdb
 OpenBabel07022418533D

 61 61  0  0  1  0  0  0  0  0999 V2000
    2.1320   -0.5280    0.9250 N   0  0  0  0  0  0  0  0  0  0  0  0
    1.8090   -0.6650    2.3040 C   0  0  1  0  0  0  0  0  0  0  0  0
    2.6910    0.0830    3.2320 C   0  0  0  0  0  0  0  0  0  0  0  0
    4.1230   -0.3320    3.1700 C   0  0  0  0  0  0  0  0  0  0  0  0
    4.8220   -0.1670    1.8710 C   0  0  0  0  0  0  0  0  0  0  0  0
    6.2830   -0.5980    1.9520 C   0  0  0  0  0  0  0  0  0  0  0  0
    6.4260   -1.9680    2.3200 N   0  0  0  0  0  0  0  0  0  0  0  0
    0.3630   -0.4650    2.5850 C   0  0  0  0  0  0  0  0  0  0  0  0
   -0.0510   -0.5320    3.7670 O   0  0  0  0  0  0  0  0  0  0  0  0
    1.8000   -1.2850    0.3200 H   0  0  0  0  0  0  0  0  0  0  0  0
    2.0040    0.4350    0.5430 H   0  0  0  0  0  0  0  0  0  0  0  0
    1.9710   -1.7680    2.5400 H   0  0  0  0  0  0  0  0  0  0  0  0
    2.5910    1.1810    2.9450 H   0  0  0  0  0  0  0  0  0  0  0  0
    2.3360    0.0560    4.2900 H   0  0  0  0  0  0  0  0  0  0  0  0
    4.6580    0.2680    3.9670 H   0  0  0  0  0  0  0  0  0  0  0  0
    4.1750   -1.3770    3.5660 H   0  0  0  0  0  0  0  0  0  0  0  0
    4.8290    0.9070    1.5980 H   0  0  0  0  0  0  0  0  0  0  0  0
    4.3800   -0.7160    1.0160 H   0  0  0  0  0  0  0  0  0  0  0  0
    6.7280   -0.4330    0.9530 H   0  0  0  0  0  0  0  0  0  0  0  0
    6.8560    0.0290    2.6770 H   0  0  0  0  0  0  0  0  0  0  0  0
    5.5550   -2.5320    2.2650 H   0  0  0  0  0  0  0  0  0  0  0  0
    7.1240   -2.4150    1.6870 H   0  0  0  0  0  0  0  0  0  0  0  0
   -1.3120    3.0680   -4.0320 O   0  0  0  0  0  0  0  0  0  0  0  0
   -1.5780    2.6480   -2.7330 C   0  0  0  0  0  0  0  0  0  0  0  0
   -0.6430    2.7730   -1.7290 C   0  0  0  0  0  0  0  0  0  0  0  0
   -0.9120    2.3550   -0.4460 C   0  0  0  0  0  0  0  0  0  0  0  0
   -2.1340    1.7870   -0.0900 C   0  0  0  0  0  0  0  0  0  0  0  0
   -2.3830    1.3740    1.2910 C   0  0  0  0  0  0  0  0  0  0  0  0
   -1.9480    0.0090    1.6720 C   0  0  2  0  0  0  0  0  0  0  0  0
   -0.5030   -0.2040    1.4970 N   0  0  0  0  0  0  0  0  0  0  0  0
   -2.7450   -1.1150    1.1330 C   0  0  0  0  0  0  0  0  0  0  0  0
   -3.9820   -1.0320    1.1820 O   0  0  0  0  0  0  0  0  0  0  0  0
   -3.0670    1.6640   -1.0970 C   0  0  0  0  0  0  0  0  0  0  0  0
   -2.7880    2.0860   -2.3790 C   0  0  0  0  0  0  0  0  0  0  0  0
   -0.4340    3.5320   -4.2020 H   0  0  0  0  0  0  0  0  0  0  0  0
    0.3250    3.2190   -1.9970 H   0  0  0  0  0  0  0  0  0  0  0  0
   -0.1230    2.4850    0.2980 H   0  0  0  0  0  0  0  0  0  0  0  0
   -1.8510    2.0880    1.9710 H   0  0  0  0  0  0  0  0  0  0  0  0
   -3.4770    1.4420    1.4930 H   0  0  0  0  0  0  0  0  0  0  0  0
   -2.0900   -0.0660    2.7920 H   0  0  0  0  0  0  0  0  0  0  0  0
   -0.0730   -0.1670    0.5490 H   0  0  0  0  0  0  0  0  0  0  0  0
   -4.0590    1.2300   -0.8920 H   0  0  0  0  0  0  0  0  0  0  0  0
   -3.5320    1.9830   -3.1660 H   0  0  0  0  0  0  0  0  0  0  0  0
   -4.4740   -1.5860   -2.2420 C   0  0  0  0  0  0  0  0  0  0  0  0
   -3.4600   -2.7140   -3.1860 S   0  0  0  0  0  0  0  0  0  0  0  0
   -1.9630   -3.2100   -2.3280 C   0  0  0  0  0  0  0  0  0  0  0  0
   -2.1660   -4.0310   -1.1100 C   0  0  0  0  0  0  0  0  0  0  0  0
   -2.8640   -3.4190    0.0410 C   0  0  2  0  0  0  0  0  0  0  0  0
   -2.1530   -2.2740    0.5740 N   0  0  0  0  0  0  0  0  0  0  0  0
   -2.9030   -4.5010    1.1220 C   0  0  0  0  0  0  0  0  0  0  0  0
   -3.4630   -5.5760    0.8880 O   0  0  0  0  0  0  0  0  0  0  0  0
   -2.3080   -4.2520    2.3400 O   0  0  0  0  0  0  0  0  0  0  0  0
   -5.3480   -2.1230   -1.7700 H   0  0  0  0  0  0  0  0  0  0  0  0
   -4.8870   -0.8280   -2.9720 H   0  0  0  0  0  0  0  0  0  0  0  0
   -3.8520   -1.0530   -1.5110 H   0  0  0  0  0  0  0  0  0  0  0  0
   -1.3200   -3.7290   -3.0920 H   0  0  0  0  0  0  0  0  0  0  0  0
   -1.3830   -2.2800   -2.0330 H   0  0  0  0  0  0  0  0  0  0  0  0
   -2.7470   -4.9600   -1.4250 H   0  0  0  0  0  0  0  0  0  0  0  0
   -1.1750   -4.4880   -0.7940 H   0  0  0  0  0  0  0  0  0  0  0  0
   -3.9070   -3.1480   -0.1740 H   0  0  0  0  0  0  0  0  0  0  0  0
   -1.0960   -2.2630    0.5640 H   0  0  0  0  0  0  0  0  0  0  0  0
  1  2  1  0  0  0  0
  2 12  1  1  0  0  0
  2  8  1  0  0  0  0
  2  3  1  0  0  0  0
  3 14  1  0  0  0  0
  4  3  1  0  0  0  0
  4 16  1  0  0  0  0
  4 15  1  0  0  0  0
  5  6  1  0  0  0  0
  5  4  1  0  0  0  0
  6  7  1  0  0  0  0
  6 20  1  0  0  0  0
  8  9  2  0  0  0  0
 10  1  1  0  0  0  0
 11  1  1  0  0  0  0
 13  3  1  0  0  0  0
 17  5  1  0  0  0  0
 18  5  1  0  0  0  0
 19  6  1  0  0  0  0
 21  7  1  0  0  0  0
 22  7  1  0  0  0  0
 23 24  1  0  0  0  0
 24 34  2  0  0  0  0
 24 25  1  0  0  0  0
 25 26  2  0  0  0  0
 26 27  1  0  0  0  0
 26 37  1  0  0  0  0
 27 28  1  0  0  0  0
 28 39  1  0  0  0  0
 28 29  1  0  0  0  0
 28 38  1  0  0  0  0
 29 40  1  1  0  0  0
 30 29  1  0  0  0  0
 30  8  1  0  0  0  0
 31 32  2  0  0  0  0
 31 29  1  0  0  0  0
 33 42  1  0  0  0  0
 33 27  2  0  0  0  0
 34 33  1  0  0  0  0
 35 23  1  0  0  0  0
 36 25  1  0  0  0  0
 41 30  1  0  0  0  0
 43 34  1  0  0  0  0
 44 53  1  0  0  0  0
 44 55  1  0  0  0  0
 45 46  1  0  0  0  0
 45 44  1  0  0  0  0
 46 57  1  0  0  0  0
 46 47  1  0  0  0  0
 47 59  1  0  0  0  0
 47 48  1  0  0  0  0
 48 60  1  6  0  0  0
 48 49  1  0  0  0  0
 48 50  1  0  0  0  0
 49 31  1  0  0  0  0
 50 52  1  0  0  0  0
 51 50  2  0  0  0  0
 54 44  1  0  0  0  0
 56 46  1  0  0  0  0
 58 47  1  0  0  0  0
 61 49  1  0  0  0  0
M  END
$$$$
