KYN.pdb
 OpenBabel07022418523D

 58 58  0  0  1  0  0  0  0  0999 V2000
    1.5590    0.8640    4.7140 N   0  0  0  0  0  0  0  0  0  0  0  0
    1.2410    0.9690    3.3020 C   0  0  1  0  0  0  0  0  0  0  0  0
    2.2990    0.3250    2.4470 C   0  0  0  0  0  0  0  0  0  0  0  0
    2.4820   -1.1440    2.7380 C   0  0  0  0  0  0  0  0  0  0  0  0
    3.5810   -1.6320    1.7900 C   0  0  0  0  0  0  0  0  0  0  0  0
    3.8040   -3.1060    2.0460 C   0  0  0  0  0  0  0  0  0  0  0  0
    4.2090   -3.2500    3.4380 N   0  0  0  0  0  0  0  0  0  0  0  0
   -0.1310    0.4970    3.0100 C   0  0  0  0  0  0  0  0  0  0  0  0
   -0.8230    0.0770    3.9810 O   0  0  0  0  0  0  0  0  0  0  0  0
    0.6930    1.2090    5.2260 H   0  0  0  0  0  0  0  0  0  0  0  0
    1.7320   -0.1150    4.9800 H   0  0  0  0  0  0  0  0  0  0  0  0
    1.3070    2.0760    3.0750 H   0  0  0  0  0  0  0  0  0  0  0  0
    2.0780    0.5280    1.4010 H   0  0  0  0  0  0  0  0  0  0  0  0
    3.2560    0.8330    2.6880 H   0  0  0  0  0  0  0  0  0  0  0  0
    1.5820   -1.7440    2.5090 H   0  0  0  0  0  0  0  0  0  0  0  0
    2.8160   -1.3380    3.7550 H   0  0  0  0  0  0  0  0  0  0  0  0
    3.3360   -1.4140    0.7380 H   0  0  0  0  0  0  0  0  0  0  0  0
    4.5410   -1.1200    2.0910 H   0  0  0  0  0  0  0  0  0  0  0  0
    2.8510   -3.6290    1.8450 H   0  0  0  0  0  0  0  0  0  0  0  0
    4.5490   -3.5230    1.3540 H   0  0  0  0  0  0  0  0  0  0  0  0
    3.6540   -3.9410    3.9500 H   0  0  0  0  0  0  0  0  0  0  0  0
    5.2350   -3.3220    3.5420 H   0  0  0  0  0  0  0  0  0  0  0  0
   -1.2040    3.5630   -3.8680 O   0  0  0  0  0  0  0  0  0  0  0  0
   -1.6440    2.9440   -2.6910 C   0  0  0  0  0  0  0  0  0  0  0  0
   -1.2540    3.4430   -1.4730 C   0  0  0  0  0  0  0  0  0  0  0  0
   -1.6870    2.8330   -0.3000 C   0  0  0  0  0  0  0  0  0  0  0  0
   -2.5040    1.7290   -0.3170 C   0  0  0  0  0  0  0  0  0  0  0  0
   -2.9450    1.1090    0.9250 C   0  0  0  0  0  0  0  0  0  0  0  0
   -2.0370    0.0320    1.4560 C   0  0  2  0  0  0  0  0  0  0  0  0
   -0.7150    0.4850    1.7400 N   0  0  0  0  0  0  0  0  0  0  0  0
   -2.0710   -1.1130    0.5480 C   0  0  0  0  0  0  0  0  0  0  0  0
   -3.2290   -1.5700    0.2570 O   0  0  0  0  0  0  0  0  0  0  0  0
   -2.8980    1.2250   -1.5310 C   0  0  0  0  0  0  0  0  0  0  0  0
   -2.4620    1.8390   -2.7130 C   0  0  0  0  0  0  0  0  0  0  0  0
   -0.3960    3.1800   -4.3300 H   0  0  0  0  0  0  0  0  0  0  0  0
   -0.6180    4.3000   -1.4250 H   0  0  0  0  0  0  0  0  0  0  0  0
   -1.3370    3.2850    0.6300 H   0  0  0  0  0  0  0  0  0  0  0  0
   -3.9570    0.6300    0.7950 H   0  0  0  0  0  0  0  0  0  0  0  0
   -3.0910    1.8460    1.7540 H   0  0  0  0  0  0  0  0  0  0  0  0
   -2.5150   -0.3110    2.4220 H   0  0  0  0  0  0  0  0  0  0  0  0
   -0.1300    0.8380    0.9320 H   0  0  0  0  0  0  0  0  0  0  0  0
   -3.5380    0.3650   -1.6610 H   0  0  0  0  0  0  0  0  0  0  0  0
   -2.7570    1.4620   -3.6830 H   0  0  0  0  0  0  0  0  0  0  0  0
   -1.9350   -3.8500   -3.8590 N   0  0  0  0  0  0  0  0  0  0  0  0
   -0.7140   -3.7330   -3.1350 C   0  0  0  0  0  0  0  0  0  0  0  0
    0.1270   -4.6500   -3.2800 O   0  0  0  0  0  0  0  0  0  0  0  0
   -0.5210   -2.5530   -2.2720 C   0  0  0  0  0  0  0  0  0  0  0  0
   -1.0810   -2.8540   -0.8980 C   0  0  2  0  0  0  0  0  0  0  0  0
   -0.9220   -1.7250   -0.0100 N   0  0  0  0  0  0  0  0  0  0  0  0
   -0.3960   -4.0180   -0.2880 C   0  0  0  0  0  0  0  0  0  0  0  0
   -0.3790   -5.1770   -0.8040 O   0  0  0  0  0  0  0  0  0  0  0  0
    0.2690   -3.8220    0.9290 O   0  0  0  0  0  0  0  0  0  0  0  0
   -2.8620   -3.8690   -3.4080 H   0  0  0  0  0  0  0  0  0  0  0  0
   -1.8800   -3.9200   -4.8940 H   0  0  0  0  0  0  0  0  0  0  0  0
    0.5820   -2.3930   -2.1280 H   0  0  0  0  0  0  0  0  0  0  0  0
   -0.9810   -1.6330   -2.6650 H   0  0  0  0  0  0  0  0  0  0  0  0
   -2.1860   -3.0490   -1.0010 H   0  0  0  0  0  0  0  0  0  0  0  0
    0.0030   -1.3540    0.2280 H   0  0  0  0  0  0  0  0  0  0  0  0
  1 11  1  0  0  0  0
  1 10  1  0  0  0  0
  2 12  1  6  0  0  0
  2  1  1  0  0  0  0
  3 14  1  0  0  0  0
  3  4  1  0  0  0  0
  3  2  1  0  0  0  0
  4 16  1  0  0  0  0
  5  6  1  0  0  0  0
  5 18  1  0  0  0  0
  5  4  1  0  0  0  0
  6  7  1  0  0  0  0
  7 22  1  0  0  0  0
  7 21  1  0  0  0  0
  8  2  1  0  0  0  0
  8  9  2  0  0  0  0
 13  3  1  0  0  0  0
 15  4  1  0  0  0  0
 17  5  1  0  0  0  0
 19  6  1  0  0  0  0
 20  6  1  0  0  0  0
 23 24  1  0  0  0  0
 24 25  1  0  0  0  0
 25 36  1  0  0  0  0
 25 26  2  0  0  0  0
 26 37  1  0  0  0  0
 27 26  1  0  0  0  0
 27 28  1  0  0  0  0
 28 29  1  0  0  0  0
 28 39  1  0  0  0  0
 29 30  1  0  0  0  0
 29 40  1  1  0  0  0
 30  8  1  0  0  0  0
 31 29  1  0  0  0  0
 32 31  2  0  0  0  0
 33 27  2  0  0  0  0
 34 24  2  0  0  0  0
 34 33  1  0  0  0  0
 35 23  1  0  0  0  0
 38 28  1  0  0  0  0
 41 30  1  0  0  0  0
 42 33  1  0  0  0  0
 43 34  1  0  0  0  0
 44 53  1  0  0  0  0
 44 45  1  0  0  0  0
 45 47  1  0  0  0  0
 46 45  2  0  0  0  0
 47 55  1  0  0  0  0
 47 48  1  0  0  0  0
 48 57  1  6  0  0  0
 48 50  1  0  0  0  0
 48 49  1  0  0  0  0
 49 58  1  0  0  0  0
 49 31  1  0  0  0  0
 50 52  1  0  0  0  0
 51 50  2  0  0  0  0
 54 44  1  0  0  0  0
 56 47  1  0  0  0  0
M  END
$$$$
