KYP.pdb
 OpenBabel07022418533D

 58 59  0  0  1  0  0  0  0  0999 V2000
    0.9930   -2.4910    1.7440 N   0  0  0  0  0  0  0  0  0  0  0  0
    0.4960   -1.5920    2.8050 C   0  0  1  0  0  0  0  0  0  0  0  0
    1.6690   -0.9520    3.5070 C   0  0  0  0  0  0  0  0  0  0  0  0
    1.2760   -0.0260    4.6020 C   0  0  0  0  0  0  0  0  0  0  0  0
    2.5150    0.5370    5.2710 C   0  0  0  0  0  0  0  0  0  0  0  0
    3.3760    1.3050    4.3020 C   0  0  0  0  0  0  0  0  0  0  0  0
    4.5290    1.8150    5.0440 N   0  0  0  0  0  0  0  0  0  0  0  0
   -0.3830   -0.5550    2.2090 C   0  0  0  0  0  0  0  0  0  0  0  0
   -1.0110    0.2390    2.9200 O   0  0  0  0  0  0  0  0  0  0  0  0
    1.3060   -3.3570    2.2460 H   0  0  0  0  0  0  0  0  0  0  0  0
    1.8560   -2.0940    1.3090 H   0  0  0  0  0  0  0  0  0  0  0  0
   -0.0480   -2.2270    3.5120 H   0  0  0  0  0  0  0  0  0  0  0  0
    2.3300   -1.7380    3.9130 H   0  0  0  0  0  0  0  0  0  0  0  0
    2.2500   -0.4380    2.7090 H   0  0  0  0  0  0  0  0  0  0  0  0
    0.7400    0.8820    4.1950 H   0  0  0  0  0  0  0  0  0  0  0  0
    0.6530   -0.5510    5.3350 H   0  0  0  0  0  0  0  0  0  0  0  0
    3.1230   -0.2570    5.7270 H   0  0  0  0  0  0  0  0  0  0  0  0
    2.2170    1.2760    6.0680 H   0  0  0  0  0  0  0  0  0  0  0  0
    3.7450    0.5940    3.5280 H   0  0  0  0  0  0  0  0  0  0  0  0
    2.8650    2.1780    3.8640 H   0  0  0  0  0  0  0  0  0  0  0  0
    4.5630    1.4010    5.9810 H   0  0  0  0  0  0  0  0  0  0  0  0
    5.4190    1.6170    4.5210 H   0  0  0  0  0  0  0  0  0  0  0  0
    2.3180   -0.8050   -5.0110 O   0  0  0  0  0  0  0  0  0  0  0  0
    1.5970   -0.2330   -3.9540 C   0  0  0  0  0  0  0  0  0  0  0  0
    0.2850    0.1490   -4.1300 C   0  0  0  0  0  0  0  0  0  0  0  0
   -0.3920    0.7120   -3.0560 C   0  0  0  0  0  0  0  0  0  0  0  0
    0.2110    0.9000   -1.8170 C   0  0  0  0  0  0  0  0  0  0  0  0
   -0.5860    1.4970   -0.7470 C   0  0  0  0  0  0  0  0  0  0  0  0
   -1.3330    0.4990    0.1080 C   0  0  2  0  0  0  0  0  0  0  0  0
   -0.5310   -0.4420    0.7770 N   0  0  0  0  0  0  0  0  0  0  0  0
   -2.4940   -0.0010   -0.6490 C   0  0  0  0  0  0  0  0  0  0  0  0
   -3.1900    0.9160   -1.1900 O   0  0  0  0  0  0  0  0  0  0  0  0
    1.5210    0.5040   -1.6890 C   0  0  0  0  0  0  0  0  0  0  0  0
    2.2170   -0.0520   -2.7220 C   0  0  0  0  0  0  0  0  0  0  0  0
    2.9440   -0.2120   -5.5330 H   0  0  0  0  0  0  0  0  0  0  0  0
   -0.1760   -0.0020   -5.1000 H   0  0  0  0  0  0  0  0  0  0  0  0
   -1.4150    0.9910   -3.2580 H   0  0  0  0  0  0  0  0  0  0  0  0
   -0.0070    2.2220   -0.1170 H   0  0  0  0  0  0  0  0  0  0  0  0
   -1.3650    2.1190   -1.2330 H   0  0  0  0  0  0  0  0  0  0  0  0
   -1.8050    1.1470    0.9170 H   0  0  0  0  0  0  0  0  0  0  0  0
    0.0320   -1.1440    0.2560 H   0  0  0  0  0  0  0  0  0  0  0  0
    2.0030    0.6400   -0.7460 H   0  0  0  0  0  0  0  0  0  0  0  0
    3.2600   -0.3740   -2.6430 H   0  0  0  0  0  0  0  0  0  0  0  0
   -2.8740   -1.3400   -0.8140 N   0  0  0  0  0  0  0  0  0  0  0  0
   -4.0440   -1.7570   -1.5820 C   0  0  0  0  0  0  0  0  0  0  0  0
   -4.1170   -3.2320   -1.5710 C   0  0  0  0  0  0  0  0  0  0  0  0
   -3.4370   -3.5740   -0.2650 C   0  0  0  0  0  0  0  0  0  0  0  0
   -2.2790   -2.5640   -0.3230 C   0  0  1  0  0  0  0  0  0  0  0  0
   -1.3310   -3.1380   -1.3220 C   0  0  0  0  0  0  0  0  0  0  0  0
   -1.1810   -2.5070   -2.3980 O   0  0  0  0  0  0  0  0  0  0  0  0
   -0.6370   -4.3090   -1.0950 O   0  0  0  0  0  0  0  0  0  0  0  0
   -4.9430   -1.3670   -1.0200 H   0  0  0  0  0  0  0  0  0  0  0  0
   -4.0730   -1.2800   -2.5740 H   0  0  0  0  0  0  0  0  0  0  0  0
   -5.1550   -3.6210   -1.5130 H   0  0  0  0  0  0  0  0  0  0  0  0
   -3.6490   -3.7310   -2.4400 H   0  0  0  0  0  0  0  0  0  0  0  0
   -4.1100   -3.3020    0.5630 H   0  0  0  0  0  0  0  0  0  0  0  0
   -3.0550   -4.6020   -0.2280 H   0  0  0  0  0  0  0  0  0  0  0  0
   -1.8860   -2.5110    0.6880 H   0  0  0  0  0  0  0  0  0  0  0  0
  1 10  1  0  0  0  0
  1  2  1  0  0  0  0
  2  3  1  0  0  0  0
  2 12  1  1  0  0  0
  3 13  1  0  0  0  0
  3  4  1  0  0  0  0
  4  5  1  0  0  0  0
  4 16  1  0  0  0  0
  5 17  1  0  0  0  0
  5 18  1  0  0  0  0
  6  7  1  0  0  0  0
  6  5  1  0  0  0  0
  7 21  1  0  0  0  0
  8  2  1  0  0  0  0
  8  9  2  0  0  0  0
 11  1  1  0  0  0  0
 14  3  1  0  0  0  0
 15  4  1  0  0  0  0
 19  6  1  0  0  0  0
 20  6  1  0  0  0  0
 22  7  1  0  0  0  0
 23 24  1  0  0  0  0
 24 34  1  0  0  0  0
 25 24  2  0  0  0  0
 25 26  1  0  0  0  0
 26 27  2  0  0  0  0
 27 33  1  0  0  0  0
 27 28  1  0  0  0  0
 28 38  1  0  0  0  0
 28 29  1  0  0  0  0
 29 30  1  0  0  0  0
 29 40  1  1  0  0  0
 30  8  1  0  0  0  0
 31 29  1  0  0  0  0
 32 31  2  0  0  0  0
 33 42  1  0  0  0  0
 34 43  1  0  0  0  0
 34 33  2  0  0  0  0
 35 23  1  0  0  0  0
 36 25  1  0  0  0  0
 37 26  1  0  0  0  0
 39 28  1  0  0  0  0
 41 30  1  0  0  0  0
 44 31  1  0  0  0  0
 44 48  1  0  0  0  0
 45 46  1  0  0  0  0
 45 52  1  0  0  0  0
 45 44  1  0  0  0  0
 46 54  1  0  0  0  0
 46 47  1  0  0  0  0
 47 57  1  0  0  0  0
 47 56  1  0  0  0  0
 48 47  1  0  0  0  0
 48 58  1  1  0  0  0
 49 51  1  0  0  0  0
 49 48  1  0  0  0  0
 50 49  2  0  0  0  0
 53 45  1  0  0  0  0
 55 46  1  0  0  0  0
M  END
$$$$
