KYS.pdb
 OpenBabel07022418533D

 55 55  0  0  1  0  0  0  0  0999 V2000
    0.1480   -2.3230    3.7940 N   0  0  0  0  0  0  0  0  0  0  0  0
    0.2100   -0.8480    3.7810 C   0  0  1  0  0  0  0  0  0  0  0  0
    1.6120   -0.4820    4.2500 C   0  0  0  0  0  0  0  0  0  0  0  0
    1.8620    0.9840    4.3070 C   0  0  0  0  0  0  0  0  0  0  0  0
    3.2430    1.3470    4.7690 C   0  0  0  0  0  0  0  0  0  0  0  0
    3.5300    0.8410    6.1420 C   0  0  0  0  0  0  0  0  0  0  0  0
    4.8590    1.1940    6.6010 N   0  0  0  0  0  0  0  0  0  0  0  0
   -0.0440   -0.4250    2.3780 C   0  0  0  0  0  0  0  0  0  0  0  0
   -0.1030    0.7930    2.0350 O   0  0  0  0  0  0  0  0  0  0  0  0
   -0.3100   -2.6690    4.6670 H   0  0  0  0  0  0  0  0  0  0  0  0
    1.1030   -2.7260    3.7000 H   0  0  0  0  0  0  0  0  0  0  0  0
   -0.5800   -0.4820    4.4290 H   0  0  0  0  0  0  0  0  0  0  0  0
    1.8430   -0.9520    5.2160 H   0  0  0  0  0  0  0  0  0  0  0  0
    2.3000   -0.9690    3.4990 H   0  0  0  0  0  0  0  0  0  0  0  0
    1.0960    1.4490    4.9940 H   0  0  0  0  0  0  0  0  0  0  0  0
    1.6790    1.4860    3.3240 H   0  0  0  0  0  0  0  0  0  0  0  0
    3.4030    2.4480    4.6720 H   0  0  0  0  0  0  0  0  0  0  0  0
    3.9470    0.9080    4.0040 H   0  0  0  0  0  0  0  0  0  0  0  0
    2.8060    1.2990    6.8370 H   0  0  0  0  0  0  0  0  0  0  0  0
    3.4950   -0.2730    6.1330 H   0  0  0  0  0  0  0  0  0  0  0  0
    5.4630    0.3850    6.7700 H   0  0  0  0  0  0  0  0  0  0  0  0
    5.2830    1.9760    6.0920 H   0  0  0  0  0  0  0  0  0  0  0  0
    0.5410   -0.2810   -6.4910 O   0  0  0  0  0  0  0  0  0  0  0  0
    0.5600   -0.5540   -5.1140 C   0  0  0  0  0  0  0  0  0  0  0  0
    1.0330    0.3660   -4.2040 C   0  0  0  0  0  0  0  0  0  0  0  0
    1.0560    0.1070   -2.8500 C   0  0  0  0  0  0  0  0  0  0  0  0
    0.5970   -1.1110   -2.3330 C   0  0  0  0  0  0  0  0  0  0  0  0
    0.6430   -1.4140   -0.8940 C   0  0  0  0  0  0  0  0  0  0  0  0
   -0.4930   -0.9490   -0.0650 C   0  0  2  0  0  0  0  0  0  0  0  0
   -0.2390   -1.3580    1.3350 N   0  0  0  0  0  0  0  0  0  0  0  0
   -1.8350   -1.3780   -0.3910 C   0  0  0  0  0  0  0  0  0  0  0  0
   -2.4890   -2.0830    0.4620 O   0  0  0  0  0  0  0  0  0  0  0  0
    0.1290   -2.0150   -3.2610 C   0  0  0  0  0  0  0  0  0  0  0  0
    0.1060   -1.7550   -4.6140 C   0  0  0  0  0  0  0  0  0  0  0  0
    1.3930   -0.0010   -6.9900 H   0  0  0  0  0  0  0  0  0  0  0  0
    1.3940    1.3160   -4.5750 H   0  0  0  0  0  0  0  0  0  0  0  0
    1.4210    0.8150   -2.1340 H   0  0  0  0  0  0  0  0  0  0  0  0
    1.5580   -0.8720   -0.4970 H   0  0  0  0  0  0  0  0  0  0  0  0
    0.9170   -2.4890   -0.7020 H   0  0  0  0  0  0  0  0  0  0  0  0
   -0.4850    0.1850   -0.0430 H   0  0  0  0  0  0  0  0  0  0  0  0
   -0.2030   -2.3680    1.5530 H   0  0  0  0  0  0  0  0  0  0  0  0
   -0.2350   -2.9670   -2.9030 H   0  0  0  0  0  0  0  0  0  0  0  0
   -0.2690   -2.4850   -5.3370 H   0  0  0  0  0  0  0  0  0  0  0  0
   -6.1750   -1.1160   -2.1460 O   0  0  0  0  0  0  0  0  0  0  0  0
   -4.9270   -0.4850   -1.9620 C   0  0  0  0  0  0  0  0  0  0  0  0
   -3.9240   -1.5990   -1.7750 C   0  0  2  0  0  0  0  0  0  0  0  0
   -2.5840   -1.1220   -1.5720 N   0  0  0  0  0  0  0  0  0  0  0  0
   -3.9710   -2.4300   -2.9970 C   0  0  0  0  0  0  0  0  0  0  0  0
   -2.9760   -2.6450   -3.7070 O   0  0  0  0  0  0  0  0  0  0  0  0
   -5.1750   -3.0190   -3.4070 O   0  0  0  0  0  0  0  0  0  0  0  0
   -6.2100   -1.8140   -1.4340 H   0  0  0  0  0  0  0  0  0  0  0  0
   -4.7490    0.1300   -2.8460 H   0  0  0  0  0  0  0  0  0  0  0  0
   -5.0570    0.1160   -1.0200 H   0  0  0  0  0  0  0  0  0  0  0  0
   -4.2980   -2.2080   -0.9320 H   0  0  0  0  0  0  0  0  0  0  0  0
   -2.1130   -0.5510   -2.3010 H   0  0  0  0  0  0  0  0  0  0  0  0
  1 10  1  0  0  0  0
  2  1  1  0  0  0  0
  2  3  1  0  0  0  0
  2 12  1  1  0  0  0
  3  4  1  0  0  0  0
  3 13  1  0  0  0  0
  4  5  1  0  0  0  0
  4 15  1  0  0  0  0
  5  6  1  0  0  0  0
  6  7  1  0  0  0  0
  6 19  1  0  0  0  0
  7 21  1  0  0  0  0
  8  2  1  0  0  0  0
  9  8  2  0  0  0  0
 11  1  1  0  0  0  0
 14  3  1  0  0  0  0
 16  4  1  0  0  0  0
 17  5  1  0  0  0  0
 18  5  1  0  0  0  0
 20  6  1  0  0  0  0
 22  7  1  0  0  0  0
 23 24  1  0  0  0  0
 24 34  2  0  0  0  0
 24 25  1  0  0  0  0
 25 26  2  0  0  0  0
 26 27  1  0  0  0  0
 26 37  1  0  0  0  0
 27 28  1  0  0  0  0
 28 39  1  0  0  0  0
 28 38  1  0  0  0  0
 28 29  1  0  0  0  0
 29 40  1  6  0  0  0
 29 30  1  0  0  0  0
 30 41  1  0  0  0  0
 30  8  1  0  0  0  0
 31 29  1  0  0  0  0
 31 32  2  0  0  0  0
 33 42  1  0  0  0  0
 33 27  2  0  0  0  0
 34 33  1  0  0  0  0
 35 23  1  0  0  0  0
 36 25  1  0  0  0  0
 43 34  1  0  0  0  0
 44 45  1  0  0  0  0
 44 51  1  0  0  0  0
 45 46  1  0  0  0  0
 45 53  1  0  0  0  0
 46 47  1  0  0  0  0
 46 54  1  1  0  0  0
 47 31  1  0  0  0  0
 48 46  1  0  0  0  0
 49 48  2  0  0  0  0
 50 48  1  0  0  0  0
 52 45  1  0  0  0  0
 55 47  1  0  0  0  0
M  END
$$$$
