KYT.pdb
 OpenBabel07022418533D

 58 58  0  0  1  0  0  0  0  0999 V2000
    0.6870   -1.0360    3.6620 N   0  0  0  0  0  0  0  0  0  0  0  0
   -0.4130   -0.0990    3.7980 C   0  0  1  0  0  0  0  0  0  0  0  0
   -0.0030    1.1610    4.4760 C   0  0  0  0  0  0  0  0  0  0  0  0
    1.0790    1.9110    3.7350 C   0  0  0  0  0  0  0  0  0  0  0  0
    1.4190    3.1410    4.5540 C   0  0  0  0  0  0  0  0  0  0  0  0
    2.4750    4.0010    3.9310 C   0  0  0  0  0  0  0  0  0  0  0  0
    2.7090    5.1300    4.8110 N   0  0  0  0  0  0  0  0  0  0  0  0
   -1.0290    0.1130    2.4480 C   0  0  0  0  0  0  0  0  0  0  0  0
   -1.9350    0.9560    2.2440 O   0  0  0  0  0  0  0  0  0  0  0  0
    1.5250   -0.7820    4.2130 H   0  0  0  0  0  0  0  0  0  0  0  0
    0.4220   -2.0270    3.6770 H   0  0  0  0  0  0  0  0  0  0  0  0
   -1.2030   -0.5970    4.3960 H   0  0  0  0  0  0  0  0  0  0  0  0
   -0.9100    1.7530    4.6480 H   0  0  0  0  0  0  0  0  0  0  0  0
    0.3960    0.9060    5.4900 H   0  0  0  0  0  0  0  0  0  0  0  0
    0.6860    2.2650    2.7430 H   0  0  0  0  0  0  0  0  0  0  0  0
    1.9810    1.3450    3.5530 H   0  0  0  0  0  0  0  0  0  0  0  0
    1.7620    2.8360    5.5830 H   0  0  0  0  0  0  0  0  0  0  0  0
    0.4630    3.6630    4.7280 H   0  0  0  0  0  0  0  0  0  0  0  0
    3.4120    3.4380    3.8630 H   0  0  0  0  0  0  0  0  0  0  0  0
    2.1390    4.4390    2.9670 H   0  0  0  0  0  0  0  0  0  0  0  0
    3.1820    4.7460    5.6740 H   0  0  0  0  0  0  0  0  0  0  0  0
    3.4240    5.7450    4.3510 H   0  0  0  0  0  0  0  0  0  0  0  0
    4.7740   -2.7290   -1.9290 O   0  0  0  0  0  0  0  0  0  0  0  0
    3.5400   -2.1250   -1.7390 C   0  0  0  0  0  0  0  0  0  0  0  0
    3.4130   -1.2140   -0.7040 C   0  0  0  0  0  0  0  0  0  0  0  0
    2.1750   -0.6170   -0.5320 C   0  0  0  0  0  0  0  0  0  0  0  0
    1.0830   -0.8910   -1.3330 C   0  0  0  0  0  0  0  0  0  0  0  0
   -0.1470   -0.1500   -1.0330 C   0  0  0  0  0  0  0  0  0  0  0  0
   -1.0780   -0.5680   -0.0190 C   0  0  2  0  0  0  0  0  0  0  0  0
   -0.5990   -0.6480    1.3420 N   0  0  0  0  0  0  0  0  0  0  0  0
   -2.0440   -1.6650   -0.3090 C   0  0  0  0  0  0  0  0  0  0  0  0
   -2.6190   -2.2050    0.6630 O   0  0  0  0  0  0  0  0  0  0  0  0
    1.2470   -1.7930   -2.3410 C   0  0  0  0  0  0  0  0  0  0  0  0
    2.4420   -2.4190   -2.5690 C   0  0  0  0  0  0  0  0  0  0  0  0
    5.5270   -2.2440   -2.4250 H   0  0  0  0  0  0  0  0  0  0  0  0
    4.2560   -0.9790   -0.0600 H   0  0  0  0  0  0  0  0  0  0  0  0
    2.0740    0.0970    0.3020 H   0  0  0  0  0  0  0  0  0  0  0  0
    0.1710    0.9120   -0.8430 H   0  0  0  0  0  0  0  0  0  0  0  0
   -0.6900   -0.0490   -2.0210 H   0  0  0  0  0  0  0  0  0  0  0  0
   -1.8050    0.3310    0.0680 H   0  0  0  0  0  0  0  0  0  0  0  0
    0.1810   -1.3690    1.5480 H   0  0  0  0  0  0  0  0  0  0  0  0
    0.4210   -2.0100   -2.9730 H   0  0  0  0  0  0  0  0  0  0  0  0
    2.6420   -3.1370   -3.3460 H   0  0  0  0  0  0  0  0  0  0  0  0
   -2.0830   -3.7020   -4.0410 C   0  0  0  0  0  0  0  0  0  0  0  0
   -3.4150   -3.3850   -3.3870 C   0  0  1  0  0  0  0  0  0  0  0  0
   -4.2880   -4.4050   -3.7410 O   0  0  0  0  0  0  0  0  0  0  0  0
   -3.2890   -3.1940   -1.9170 C   0  0  2  0  0  0  0  0  0  0  0  0
   -2.3370   -2.1340   -1.5970 N   0  0  0  0  0  0  0  0  0  0  0  0
   -2.8770   -4.4600   -1.2230 C   0  0  0  0  0  0  0  0  0  0  0  0
   -1.8140   -4.4260   -0.5850 O   0  0  0  0  0  0  0  0  0  0  0  0
   -3.5970   -5.6120   -1.2630 O   0  0  0  0  0  0  0  0  0  0  0  0
   -2.1090   -4.6510   -4.6210 H   0  0  0  0  0  0  0  0  0  0  0  0
   -1.2690   -3.6470   -3.2930 H   0  0  0  0  0  0  0  0  0  0  0  0
   -1.8710   -2.8960   -4.7650 H   0  0  0  0  0  0  0  0  0  0  0  0
   -3.8040   -2.4530   -3.8500 H   0  0  0  0  0  0  0  0  0  0  0  0
   -4.1240   -4.7030   -4.6650 H   0  0  0  0  0  0  0  0  0  0  0  0
   -4.2340   -2.9430   -1.4510 H   0  0  0  0  0  0  0  0  0  0  0  0
   -1.8010   -1.6690   -2.3900 H   0  0  0  0  0  0  0  0  0  0  0  0
  1 11  1  0  0  0  0
  1  2  1  0  0  0  0
  1 10  1  0  0  0  0
  2 12  1  1  0  0  0
  2  3  1  0  0  0  0
  3 13  1  0  0  0  0
  3 14  1  0  0  0  0
  4  3  1  0  0  0  0
  4  5  1  0  0  0  0
  5 18  1  0  0  0  0
  5 17  1  0  0  0  0
  6  5  1  0  0  0  0
  6  7  1  0  0  0  0
  7 21  1  0  0  0  0
  8  2  1  0  0  0  0
  9  8  2  0  0  0  0
 15  4  1  0  0  0  0
 16  4  1  0  0  0  0
 19  6  1  0  0  0  0
 20  6  1  0  0  0  0
 22  7  1  0  0  0  0
 23 24  1  0  0  0  0
 24 25  1  0  0  0  0
 25 26  2  0  0  0  0
 25 36  1  0  0  0  0
 26 37  1  0  0  0  0
 27 28  1  0  0  0  0
 27 26  1  0  0  0  0
 28 38  1  0  0  0  0
 28 29  1  0  0  0  0
 29 40  1  1  0  0  0
 29 30  1  0  0  0  0
 30 41  1  0  0  0  0
 30  8  1  0  0  0  0
 31 29  1  0  0  0  0
 31 32  2  0  0  0  0
 33 27  2  0  0  0  0
 34 33  1  0  0  0  0
 34 24  2  0  0  0  0
 35 23  1  0  0  0  0
 39 28  1  0  0  0  0
 42 33  1  0  0  0  0
 43 34  1  0  0  0  0
 44 45  1  0  0  0  0
 44 53  1  0  0  0  0
 45 55  1  6  0  0  0
 45 47  1  0  0  0  0
 46 45  1  0  0  0  0
 47 48  1  0  0  0  0
 47 57  1  1  0  0  0
 47 49  1  0  0  0  0
 48 31  1  0  0  0  0
 49 50  1  0  0  0  0
 51 49  2  0  0  0  0
 52 44  1  0  0  0  0
 54 44  1  0  0  0  0
 56 46  1  0  0  0  0
 58 48  1  0  0  0  0
M  END
$$$$
