KYV.pdb
 OpenBabel07022418533D

 60 60  0  0  1  0  0  0  0  0999 V2000
   -0.4040   -2.6020    3.7660 N   0  0  0  0  0  0  0  0  0  0  0  0
   -0.3140   -1.1240    3.7920 C   0  0  1  0  0  0  0  0  0  0  0  0
    1.0660   -0.7880    3.3530 C   0  0  0  0  0  0  0  0  0  0  0  0
    1.3490    0.6770    3.3290 C   0  0  0  0  0  0  0  0  0  0  0  0
    2.7680    0.9700    2.8900 C   0  0  0  0  0  0  0  0  0  0  0  0
    3.0710    0.4440    1.5270 C   0  0  0  0  0  0  0  0  0  0  0  0
    4.4640    0.8000    1.2320 N   0  0  0  0  0  0  0  0  0  0  0  0
   -1.3920   -0.6260    2.9320 C   0  0  0  0  0  0  0  0  0  0  0  0
   -2.5750   -0.4550    3.3520 O   0  0  0  0  0  0  0  0  0  0  0  0
   -1.2910   -2.9300    4.1870 H   0  0  0  0  0  0  0  0  0  0  0  0
   -0.2210   -2.9590    2.8110 H   0  0  0  0  0  0  0  0  0  0  0  0
   -0.4910   -0.8860    4.8740 H   0  0  0  0  0  0  0  0  0  0  0  0
    1.8460   -1.3440    3.9570 H   0  0  0  0  0  0  0  0  0  0  0  0
    1.2070   -1.2040    2.3240 H   0  0  0  0  0  0  0  0  0  0  0  0
    0.6420    1.1790    2.6550 H   0  0  0  0  0  0  0  0  0  0  0  0
    1.1510    1.0660    4.3510 H   0  0  0  0  0  0  0  0  0  0  0  0
    3.4330    0.4510    3.6080 H   0  0  0  0  0  0  0  0  0  0  0  0
    2.9350    2.0660    2.8760 H   0  0  0  0  0  0  0  0  0  0  0  0
    3.0610   -0.6730    1.4910 H   0  0  0  0  0  0  0  0  0  0  0  0
    2.4220    0.8100    0.7220 H   0  0  0  0  0  0  0  0  0  0  0  0
    5.1320    0.2330    1.7760 H   0  0  0  0  0  0  0  0  0  0  0  0
    4.6250    0.7690    0.2030 H   0  0  0  0  0  0  0  0  0  0  0  0
    2.3590    2.9830   -2.9620 O   0  0  0  0  0  0  0  0  0  0  0  0
    1.2470    2.6020   -2.2570 C   0  0  0  0  0  0  0  0  0  0  0  0
    1.1780    2.8200   -0.9090 C   0  0  0  0  0  0  0  0  0  0  0  0
    0.0770    2.4470   -0.1870 C   0  0  0  0  0  0  0  0  0  0  0  0
   -1.0250    1.8290   -0.7880 C   0  0  0  0  0  0  0  0  0  0  0  0
   -2.1300    1.4860    0.0910 C   0  0  0  0  0  0  0  0  0  0  0  0
   -2.2220    0.1730    0.7030 C   0  0  2  0  0  0  0  0  0  0  0  0
   -1.1960   -0.3040    1.5760 N   0  0  0  0  0  0  0  0  0  0  0  0
   -2.5450   -0.9130   -0.2940 C   0  0  0  0  0  0  0  0  0  0  0  0
   -3.4370   -0.7300   -1.1860 O   0  0  0  0  0  0  0  0  0  0  0  0
   -0.9530    1.6150   -2.1230 C   0  0  0  0  0  0  0  0  0  0  0  0
    0.1470    1.9890   -2.8370 C   0  0  0  0  0  0  0  0  0  0  0  0
    2.9000    3.7860   -2.6810 H   0  0  0  0  0  0  0  0  0  0  0  0
    2.0180    3.3010   -0.3960 H   0  0  0  0  0  0  0  0  0  0  0  0
    0.0870    2.6520    0.8740 H   0  0  0  0  0  0  0  0  0  0  0  0
   -2.2910    2.2580    0.9060 H   0  0  0  0  0  0  0  0  0  0  0  0
   -3.0700    1.6230   -0.5320 H   0  0  0  0  0  0  0  0  0  0  0  0
   -3.1690    0.2010    1.3360 H   0  0  0  0  0  0  0  0  0  0  0  0
   -0.2460   -0.4220    1.1680 H   0  0  0  0  0  0  0  0  0  0  0  0
   -1.7710    1.1460   -2.6250 H   0  0  0  0  0  0  0  0  0  0  0  0
    0.2220    1.8230   -3.9170 H   0  0  0  0  0  0  0  0  0  0  0  0
   -1.1930   -4.8220   -2.7860 C   0  0  0  0  0  0  0  0  0  0  0  0
   -0.8200   -3.6670   -1.8580 C   0  0  0  0  0  0  0  0  0  0  0  0
    0.2000   -4.2080   -0.8820 C   0  0  0  0  0  0  0  0  0  0  0  0
   -2.0920   -3.2460   -1.1490 C   0  0  2  0  0  0  0  0  0  0  0  0
   -1.8520   -2.1490   -0.2390 N   0  0  0  0  0  0  0  0  0  0  0  0
   -2.5630   -4.4250   -0.3840 C   0  0  0  0  0  0  0  0  0  0  0  0
   -2.8450   -5.5190   -0.9410 O   0  0  0  0  0  0  0  0  0  0  0  0
   -2.6960   -4.3200    0.9850 O   0  0  0  0  0  0  0  0  0  0  0  0
   -2.2580   -4.7780   -3.0780 H   0  0  0  0  0  0  0  0  0  0  0  0
   -0.5770   -4.7170   -3.7240 H   0  0  0  0  0  0  0  0  0  0  0  0
   -0.9640   -5.8060   -2.3350 H   0  0  0  0  0  0  0  0  0  0  0  0
   -0.3950   -2.8390   -2.4480 H   0  0  0  0  0  0  0  0  0  0  0  0
    1.1900   -3.6890   -1.0080 H   0  0  0  0  0  0  0  0  0  0  0  0
    0.4200   -5.2840   -1.0430 H   0  0  0  0  0  0  0  0  0  0  0  0
   -0.1660   -4.1120    0.1640 H   0  0  0  0  0  0  0  0  0  0  0  0
   -2.8850   -2.9760   -1.8750 H   0  0  0  0  0  0  0  0  0  0  0  0
   -1.1280   -2.2790    0.4950 H   0  0  0  0  0  0  0  0  0  0  0  0
  1  2  1  0  0  0  0
  1 10  1  0  0  0  0
  2 12  1  1  0  0  0
  3  2  1  0  0  0  0
  3 13  1  0  0  0  0
  4  3  1  0  0  0  0
  4 16  1  0  0  0  0
  5  4  1  0  0  0  0
  5 17  1  0  0  0  0
  6  5  1  0  0  0  0
  7  6  1  0  0  0  0
  7 21  1  0  0  0  0
  8  9  2  0  0  0  0
  8  2  1  0  0  0  0
 11  1  1  0  0  0  0
 14  3  1  0  0  0  0
 15  4  1  0  0  0  0
 18  5  1  0  0  0  0
 19  6  1  0  0  0  0
 20  6  1  0  0  0  0
 22  7  1  0  0  0  0
 23 35  1  0  0  0  0
 23 24  1  0  0  0  0
 24 25  1  0  0  0  0
 25 36  1  0  0  0  0
 25 26  2  0  0  0  0
 26 37  1  0  0  0  0
 27 26  1  0  0  0  0
 27 28  1  0  0  0  0
 28 29  1  0  0  0  0
 28 38  1  0  0  0  0
 29 40  1  1  0  0  0
 29 30  1  0  0  0  0
 30  8  1  0  0  0  0
 31 48  1  0  0  0  0
 31 29  1  0  0  0  0
 32 31  2  0  0  0  0
 33 27  2  0  0  0  0
 34 24  2  0  0  0  0
 34 33  1  0  0  0  0
 39 28  1  0  0  0  0
 41 30  1  0  0  0  0
 42 33  1  0  0  0  0
 43 34  1  0  0  0  0
 44 54  1  0  0  0  0
 44 45  1  0  0  0  0
 45 47  1  0  0  0  0
 45 46  1  0  0  0  0
 46 58  1  0  0  0  0
 47 59  1  6  0  0  0
 47 49  1  0  0  0  0
 47 48  1  0  0  0  0
 48 60  1  0  0  0  0
 49 51  1  0  0  0  0
 50 49  2  0  0  0  0
 52 44  1  0  0  0  0
 53 44  1  0  0  0  0
 55 45  1  0  0  0  0
 56 46  1  0  0  0  0
 57 46  1  0  0  0  0
M  END
$$$$
