KYW.pdb
 OpenBabel07022418533D

 68 70  0  0  1  0  0  0  0  0999 V2000
    1.0160    1.2470    4.0560 N   0  0  0  0  0  0  0  0  0  0  0  0
    1.3150    0.8230    2.6290 C   0  0  1  0  0  0  0  0  0  0  0  0
    2.2610   -0.2730    2.8040 C   0  0  0  0  0  0  0  0  0  0  0  0
    2.8820   -1.0280    1.7260 C   0  0  0  0  0  0  0  0  0  0  0  0
    1.9460   -1.8490    0.9110 C   0  0  0  0  0  0  0  0  0  0  0  0
    1.2240   -2.8800    1.7900 C   0  0  0  0  0  0  0  0  0  0  0  0
    2.1900   -3.7690    2.4190 N   0  0  0  0  0  0  0  0  0  0  0  0
    0.0300    0.7010    1.9810 C   0  0  0  0  0  0  0  0  0  0  0  0
   -0.1630    0.8010    0.7450 O   0  0  0  0  0  0  0  0  0  0  0  0
    0.8780    0.3650    4.5850 H   0  0  0  0  0  0  0  0  0  0  0  0
    0.2500    1.9170    4.0740 H   0  0  0  0  0  0  0  0  0  0  0  0
    1.8530    1.7480    2.2570 H   0  0  0  0  0  0  0  0  0  0  0  0
    3.1180    0.1680    3.4500 H   0  0  0  0  0  0  0  0  0  0  0  0
    1.8520   -1.0360    3.5730 H   0  0  0  0  0  0  0  0  0  0  0  0
    3.5990   -1.7750    2.2190 H   0  0  0  0  0  0  0  0  0  0  0  0
    3.5710   -0.4150    1.0750 H   0  0  0  0  0  0  0  0  0  0  0  0
    2.5570   -2.5150    0.2000 H   0  0  0  0  0  0  0  0  0  0  0  0
    1.1990   -1.3260    0.3250 H   0  0  0  0  0  0  0  0  0  0  0  0
    0.6400   -2.3240    2.5310 H   0  0  0  0  0  0  0  0  0  0  0  0
    0.5160   -3.4670    1.1830 H   0  0  0  0  0  0  0  0  0  0  0  0
    2.1990   -3.5500    3.4280 H   0  0  0  0  0  0  0  0  0  0  0  0
    3.1030   -3.7430    1.9490 H   0  0  0  0  0  0  0  0  0  0  0  0
   -0.3370    5.4020   -1.0820 O   0  0  0  0  0  0  0  0  0  0  0  0
   -1.0110    4.5050   -0.2760 C   0  0  0  0  0  0  0  0  0  0  0  0
   -1.9880    3.6660   -0.7800 C   0  0  0  0  0  0  0  0  0  0  0  0
   -2.6560    2.7750    0.0320 C   0  0  0  0  0  0  0  0  0  0  0  0
   -2.3950    2.6660    1.3780 C   0  0  0  0  0  0  0  0  0  0  0  0
   -3.1140    1.7260    2.2640 C   0  0  0  0  0  0  0  0  0  0  0  0
   -2.4660    0.3350    2.3110 C   0  0  2  0  0  0  0  0  0  0  0  0
   -1.1470    0.4530    2.7770 N   0  0  0  0  0  0  0  0  0  0  0  0
   -2.8020   -0.4860    1.1620 C   0  0  0  0  0  0  0  0  0  0  0  0
   -4.0050   -0.3220    0.7260 O   0  0  0  0  0  0  0  0  0  0  0  0
   -1.4040    3.5220    1.8760 C   0  0  0  0  0  0  0  0  0  0  0  0
   -0.7340    4.4140    1.0680 C   0  0  0  0  0  0  0  0  0  0  0  0
    0.4340    5.1860   -1.6740 H   0  0  0  0  0  0  0  0  0  0  0  0
   -2.2120    3.7350   -1.8470 H   0  0  0  0  0  0  0  0  0  0  0  0
   -3.4070    2.1440   -0.4050 H   0  0  0  0  0  0  0  0  0  0  0  0
   -3.1990    2.1130    3.3010 H   0  0  0  0  0  0  0  0  0  0  0  0
   -4.1250    1.5500    1.7990 H   0  0  0  0  0  0  0  0  0  0  0  0
   -3.0440   -0.1240    3.2350 H   0  0  0  0  0  0  0  0  0  0  0  0
   -0.9920    0.3490    3.8380 H   0  0  0  0  0  0  0  0  0  0  0  0
   -1.1500    3.4880    2.9240 H   0  0  0  0  0  0  0  0  0  0  0  0
    0.0310    5.0710    1.4640 H   0  0  0  0  0  0  0  0  0  0  0  0
   -2.0560   -1.4170    0.4570 N   0  0  0  0  0  0  0  0  0  0  0  0
   -2.4880   -2.1920   -0.6950 C   0  0  1  0  0  0  0  0  0  0  0  0
   -1.9260   -1.8050   -1.9740 C   0  0  0  0  0  0  0  0  0  0  0  0
   -0.5190   -1.7990   -2.2640 C   0  0  0  0  0  0  0  0  0  0  0  0
    0.2030   -0.6050   -2.2860 C   0  0  0  0  0  0  0  0  0  0  0  0
    1.4860   -0.8570   -2.5700 N   0  0  0  0  0  0  0  0  0  0  0  0
    1.6590   -2.1700   -2.7400 C   0  0  0  0  0  0  0  0  0  0  0  0
    2.7780   -2.9070   -3.0420 C   0  0  0  0  0  0  0  0  0  0  0  0
    2.6340   -4.2860   -3.1570 C   0  0  0  0  0  0  0  0  0  0  0  0
    1.3760   -4.8710   -2.9650 C   0  0  0  0  0  0  0  0  0  0  0  0
    0.2720   -4.1090   -2.6630 C   0  0  0  0  0  0  0  0  0  0  0  0
    0.4070   -2.7630   -2.5500 C   0  0  0  0  0  0  0  0  0  0  0  0
   -2.6420   -3.6240   -0.3920 C   0  0  0  0  0  0  0  0  0  0  0  0
   -2.3550   -4.0510    0.7410 O   0  0  0  0  0  0  0  0  0  0  0  0
   -3.1020   -4.4800   -1.3610 O   0  0  0  0  0  0  0  0  0  0  0  0
   -1.0920   -1.6200    0.7790 H   0  0  0  0  0  0  0  0  0  0  0  0
   -3.5820   -1.8620   -0.7680 H   0  0  0  0  0  0  0  0  0  0  0  0
   -2.3880   -2.5130   -2.7420 H   0  0  0  0  0  0  0  0  0  0  0  0
   -2.3760   -0.8310   -2.2690 H   0  0  0  0  0  0  0  0  0  0  0  0
   -0.1530    0.4020   -2.1100 H   0  0  0  0  0  0  0  0  0  0  0  0
    2.2590   -0.1230   -2.6500 H   0  0  0  0  0  0  0  0  0  0  0  0
    3.7600   -2.4800   -3.1950 H   0  0  0  0  0  0  0  0  0  0  0  0
    3.5130   -4.8580   -3.3930 H   0  0  0  0  0  0  0  0  0  0  0  0
    1.2870   -5.9330   -3.0580 H   0  0  0  0  0  0  0  0  0  0  0  0
   -0.6690   -4.5710   -2.5240 H   0  0  0  0  0  0  0  0  0  0  0  0
  1 11  1  0  0  0  0
  1 10  1  0  0  0  0
  2 12  1  6  0  0  0
  2  3  1  0  0  0  0
  2  1  1  0  0  0  0
  3 13  1  0  0  0  0
  3 14  1  0  0  0  0
  4 15  1  0  0  0  0
  4  3  1  0  0  0  0
  5  4  1  0  0  0  0
  5  6  1  0  0  0  0
  6  7  1  0  0  0  0
  6 19  1  0  0  0  0
  7 21  1  0  0  0  0
  8  2  1  0  0  0  0
  8 30  1  0  0  0  0
  9  8  2  0  0  0  0
 16  4  1  0  0  0  0
 17  5  1  0  0  0  0
 18  5  1  0  0  0  0
 20  6  1  0  0  0  0
 22  7  1  0  0  0  0
 23 24  1  0  0  0  0
 24 34  1  0  0  0  0
 25 24  2  0  0  0  0
 25 26  1  0  0  0  0
 26 27  2  0  0  0  0
 27 33  1  0  0  0  0
 27 28  1  0  0  0  0
 28 29  1  0  0  0  0
 28 38  1  0  0  0  0
 29 30  1  0  0  0  0
 29 40  1  1  0  0  0
 30 41  1  0  0  0  0
 31 29  1  0  0  0  0
 32 31  2  0  0  0  0
 33 42  1  0  0  0  0
 34 43  1  0  0  0  0
 34 33  2  0  0  0  0
 35 23  1  0  0  0  0
 36 25  1  0  0  0  0
 37 26  1  0  0  0  0
 39 28  1  0  0  0  0
 44 59  1  0  0  0  0
 44 31  1  0  0  0  0
 45 60  1  6  0  0  0
 45 56  1  0  0  0  0
 45 44  1  0  0  0  0
 46 45  1  0  0  0  0
 47 46  1  0  0  0  0
 48 47  2  0  0  0  0
 48 63  1  0  0  0  0
 49 48  1  0  0  0  0
 50 49  1  0  0  0  0
 50 55  1  0  0  0  0
 51 50  2  0  0  0  0
 52 51  1  0  0  0  0
 52 53  2  0  0  0  0
 53 54  1  0  0  0  0
 54 55  2  0  0  0  0
 54 68  1  0  0  0  0
 55 47  1  0  0  0  0
 56 57  1  0  0  0  0
 58 56  2  0  0  0  0
 61 46  1  0  0  0  0
 62 46  1  0  0  0  0
 64 49  1  0  0  0  0
 65 51  1  0  0  0  0
 66 52  1  0  0  0  0
 67 53  1  0  0  0  0
M  END
$$$$
