LAA.pdb
 OpenBabel07022418443D

 41 40  0  0  1  0  0  0  0  0999 V2000
   -1.5160   -4.6310    0.4530 C   0  0  0  0  0  0  0  0  0  0  0  0
   -0.9340   -4.1430   -0.8500 C   0  0  0  0  0  0  0  0  0  0  0  0
   -0.5330   -5.3860   -1.6460 C   0  0  0  0  0  0  0  0  0  0  0  0
    0.3360   -3.3750   -0.5470 C   0  0  0  0  0  0  0  0  0  0  0  0
    0.0120   -2.2030    0.3470 C   0  0  2  0  0  0  0  0  0  0  0  0
   -0.9220   -1.3280   -0.2990 N   0  0  0  0  0  0  0  0  0  0  0  0
    1.2560   -1.4420    0.6390 C   0  0  0  0  0  0  0  0  0  0  0  0
    2.2520   -1.9640    1.2070 O   0  0  0  0  0  0  0  0  0  0  0  0
   -2.0030   -5.6070    0.2640 H   0  0  0  0  0  0  0  0  0  0  0  0
   -2.2910   -3.9430    0.8490 H   0  0  0  0  0  0  0  0  0  0  0  0
   -0.6770   -4.7780    1.1630 H   0  0  0  0  0  0  0  0  0  0  0  0
   -1.6520   -3.5830   -1.4520 H   0  0  0  0  0  0  0  0  0  0  0  0
    0.2020   -5.1430   -2.4260 H   0  0  0  0  0  0  0  0  0  0  0  0
   -0.0280   -6.1110   -0.9560 H   0  0  0  0  0  0  0  0  0  0  0  0
   -1.4060   -5.8940   -2.0750 H   0  0  0  0  0  0  0  0  0  0  0  0
    0.8290   -3.0400   -1.4680 H   0  0  0  0  0  0  0  0  0  0  0  0
    1.0190   -4.0850   -0.0320 H   0  0  0  0  0  0  0  0  0  0  0  0
   -0.4140   -2.6170    1.3000 H   0  0  0  0  0  0  0  0  0  0  0  0
   -1.8270   -1.8440   -0.3980 H   0  0  0  0  0  0  0  0  0  0  0  0
   -1.1340   -0.5470    0.3870 H   0  0  0  0  0  0  0  0  0  0  0  0
    3.2240    1.1590   -0.7140 C   0  0  0  0  0  0  0  0  0  0  0  0
    2.6140    0.6690    0.5800 C   0  0  2  0  0  0  0  0  0  0  0  0
    1.3990   -0.0560    0.2900 N   0  0  0  0  0  0  0  0  0  0  0  0
    2.3420    1.8550    1.4460 C   0  0  0  0  0  0  0  0  0  0  0  0
    3.2410    2.6360    1.8260 O   0  0  0  0  0  0  0  0  0  0  0  0
    4.2870    1.4630   -0.5750 H   0  0  0  0  0  0  0  0  0  0  0  0
    3.1960    0.3410   -1.4590 H   0  0  0  0  0  0  0  0  0  0  0  0
    2.6080    2.0040   -1.0770 H   0  0  0  0  0  0  0  0  0  0  0  0
    3.3670    0.0110    1.0780 H   0  0  0  0  0  0  0  0  0  0  0  0
    0.5870    0.3940   -0.1820 H   0  0  0  0  0  0  0  0  0  0  0  0
   -0.2620    4.2060    1.9400 C   0  0  0  0  0  0  0  0  0  0  0  0
    0.6260    3.2130    2.6870 C   0  0  2  0  0  0  0  0  0  0  0  0
    1.0060    2.1020    1.8530 N   0  0  0  0  0  0  0  0  0  0  0  0
    0.0320    2.8050    3.9690 C   0  0  0  0  0  0  0  0  0  0  0  0
   -0.3470    3.6730    4.7980 O   0  0  0  0  0  0  0  0  0  0  0  0
   -0.1570    1.4870    4.3640 O   0  0  0  0  0  0  0  0  0  0  0  0
    0.3930    4.7320    1.2190 H   0  0  0  0  0  0  0  0  0  0  0  0
   -1.1210    3.7110    1.4680 H   0  0  0  0  0  0  0  0  0  0  0  0
   -0.5740    4.9580    2.7110 H   0  0  0  0  0  0  0  0  0  0  0  0
    1.5650    3.7780    2.9100 H   0  0  0  0  0  0  0  0  0  0  0  0
    0.2620    1.4430    1.5320 H   0  0  0  0  0  0  0  0  0  0  0  0
  1 10  1  0  0  0  0
  1 11  1  0  0  0  0
  2  4  1  0  0  0  0
  2  1  1  0  0  0  0
  3 14  1  0  0  0  0
  3  2  1  0  0  0  0
  4 17  1  0  0  0  0
  4  5  1  0  0  0  0
  5  7  1  0  0  0  0
  5 18  1  1  0  0  0
  6  5  1  0  0  0  0
  6 20  1  0  0  0  0
  7  8  2  0  0  0  0
  9  1  1  0  0  0  0
 12  2  1  0  0  0  0
 13  3  1  0  0  0  0
 15  3  1  0  0  0  0
 16  4  1  0  0  0  0
 19  6  1  0  0  0  0
 21 26  1  0  0  0  0
 21 22  1  0  0  0  0
 22 29  1  1  0  0  0
 22 24  1  0  0  0  0
 23 22  1  0  0  0  0
 23  7  1  0  0  0  0
 24 25  2  0  0  0  0
 24 33  1  0  0  0  0
 27 21  1  0  0  0  0
 28 21  1  0  0  0  0
 30 23  1  0  0  0  0
 31 32  1  0  0  0  0
 31 39  1  0  0  0  0
 32 40  1  1  0  0  0
 32 34  1  0  0  0  0
 33 32  1  0  0  0  0
 34 36  2  0  0  0  0
 34 35  1  0  0  0  0
 37 31  1  0  0  0  0
 38 31  1  0  0  0  0
 41 33  1  0  0  0  0
M  END
$$$$
