LAE.pdb
 OpenBabel07022418443D

 47 46  0  0  1  0  0  0  0  0999 V2000
    3.5310   -5.4190    2.0630 C   0  0  0  0  0  0  0  0  0  0  0  0
    3.3510   -4.0370    1.4370 C   0  0  0  0  0  0  0  0  0  0  0  0
    2.7740   -3.1380    2.4700 C   0  0  0  0  0  0  0  0  0  0  0  0
    2.5730   -4.2070    0.1930 C   0  0  0  0  0  0  0  0  0  0  0  0
    2.2710   -2.9860   -0.5970 C   0  0  2  0  0  0  0  0  0  0  0  0
    3.4140   -2.2670   -1.0510 N   0  0  0  0  0  0  0  0  0  0  0  0
    1.2430   -2.1830    0.0840 C   0  0  0  0  0  0  0  0  0  0  0  0
    0.2150   -2.8060    0.4860 O   0  0  0  0  0  0  0  0  0  0  0  0
    3.3180   -6.2290    1.3350 H   0  0  0  0  0  0  0  0  0  0  0  0
    2.7930   -5.5690    2.9020 H   0  0  0  0  0  0  0  0  0  0  0  0
    4.5450   -5.5710    2.4440 H   0  0  0  0  0  0  0  0  0  0  0  0
    4.4000   -3.7000    1.1950 H   0  0  0  0  0  0  0  0  0  0  0  0
    1.7290   -3.3170    2.7110 H   0  0  0  0  0  0  0  0  0  0  0  0
    3.3300   -3.2870    3.4430 H   0  0  0  0  0  0  0  0  0  0  0  0
    3.0100   -2.0770    2.1940 H   0  0  0  0  0  0  0  0  0  0  0  0
    1.6280   -4.7500    0.4360 H   0  0  0  0  0  0  0  0  0  0  0  0
    3.1440   -4.9350   -0.4540 H   0  0  0  0  0  0  0  0  0  0  0  0
    1.7580   -3.3570   -1.5420 H   0  0  0  0  0  0  0  0  0  0  0  0
    4.2050   -2.2080   -0.4050 H   0  0  0  0  0  0  0  0  0  0  0  0
    3.7880   -2.6760   -1.9570 H   0  0  0  0  0  0  0  0  0  0  0  0
    0.7830    0.4650    2.2750 C   0  0  0  0  0  0  0  0  0  0  0  0
    0.2290   -0.1220    0.9990 C   0  0  2  0  0  0  0  0  0  0  0  0
    1.3020   -0.8090    0.3210 N   0  0  0  0  0  0  0  0  0  0  0  0
   -0.3920    0.9190    0.1370 C   0  0  0  0  0  0  0  0  0  0  0  0
    0.0060    1.1400   -1.0370 O   0  0  0  0  0  0  0  0  0  0  0  0
   -0.0170    0.4960    3.0530 H   0  0  0  0  0  0  0  0  0  0  0  0
    1.2860    1.4330    2.1280 H   0  0  0  0  0  0  0  0  0  0  0  0
    1.5440   -0.2460    2.6560 H   0  0  0  0  0  0  0  0  0  0  0  0
   -0.5410   -0.8460    1.2640 H   0  0  0  0  0  0  0  0  0  0  0  0
    2.1200   -0.2610    0.0120 H   0  0  0  0  0  0  0  0  0  0  0  0
   -1.4720    1.7190    0.6030 N   0  0  0  0  0  0  0  0  0  0  0  0
   -2.0600    2.7300   -0.2620 C   0  0  1  0  0  0  0  0  0  0  0  0
   -3.4890    2.3340   -0.5450 C   0  0  0  0  0  0  0  0  0  0  0  0
   -4.3170    2.2340    0.7170 C   0  0  0  0  0  0  0  0  0  0  0  0
   -5.6990    1.8460    0.3580 C   0  0  0  0  0  0  0  0  0  0  0  0
   -6.5480    1.7060    1.2530 O   0  0  0  0  0  0  0  0  0  0  0  0
   -1.9670    4.0820    0.3470 C   0  0  0  0  0  0  0  0  0  0  0  0
   -2.4260    5.0780   -0.2670 O   0  0  0  0  0  0  0  0  0  0  0  0
   -6.0200    1.6460   -0.9670 O   0  0  0  0  0  0  0  0  0  0  0  0
   -1.3890    4.3120    1.5830 O   0  0  0  0  0  0  0  0  0  0  0  0
   -1.8290    1.5670    1.5710 H   0  0  0  0  0  0  0  0  0  0  0  0
   -1.5490    2.7630   -1.2490 H   0  0  0  0  0  0  0  0  0  0  0  0
   -3.9700    2.9860   -1.2930 H   0  0  0  0  0  0  0  0  0  0  0  0
   -3.4290    1.2790   -0.9450 H   0  0  0  0  0  0  0  0  0  0  0  0
   -3.8550    1.4890    1.4120 H   0  0  0  0  0  0  0  0  0  0  0  0
   -4.3990    3.2380    1.2170 H   0  0  0  0  0  0  0  0  0  0  0  0
   -6.8550    1.1480   -1.2550 H   0  0  0  0  0  0  0  0  0  0  0  0
  1 11  1  0  0  0  0
  1 10  1  0  0  0  0
  2  1  1  0  0  0  0
  2  3  1  0  0  0  0
  3 13  1  0  0  0  0
  3 14  1  0  0  0  0
  4 16  1  0  0  0  0
  4  2  1  0  0  0  0
  5 18  1  6  0  0  0
  5  7  1  0  0  0  0
  5  4  1  0  0  0  0
  6  5  1  0  0  0  0
  6 19  1  0  0  0  0
  7 23  1  0  0  0  0
  7  8  2  0  0  0  0
  9  1  1  0  0  0  0
 12  2  1  0  0  0  0
 15  3  1  0  0  0  0
 17  4  1  0  0  0  0
 20  6  1  0  0  0  0
 21 28  1  0  0  0  0
 21 26  1  0  0  0  0
 22 29  1  1  0  0  0
 22 21  1  0  0  0  0
 23 22  1  0  0  0  0
 24 31  1  0  0  0  0
 24 22  1  0  0  0  0
 25 24  2  0  0  0  0
 27 21  1  0  0  0  0
 30 23  1  0  0  0  0
 31 41  1  0  0  0  0
 32 42  1  6  0  0  0
 32 37  1  0  0  0  0
 32 31  1  0  0  0  0
 33 32  1  0  0  0  0
 33 34  1  0  0  0  0
 34 46  1  0  0  0  0
 34 45  1  0  0  0  0
 35 34  1  0  0  0  0
 35 36  2  0  0  0  0
 37 40  1  0  0  0  0
 38 37  2  0  0  0  0
 39 35  1  0  0  0  0
 43 33  1  0  0  0  0
 44 33  1  0  0  0  0
 47 39  1  0  0  0  0
M  END
$$$$
