LAH.pdb
 OpenBabel07022418443D

 48 48  0  0  1  0  0  0  0  0999 V2000
    1.7140   -4.8660    0.2290 C   0  0  0  0  0  0  0  0  0  0  0  0
    0.7530   -3.7750   -0.1910 C   0  0  0  0  0  0  0  0  0  0  0  0
   -0.5130   -4.4520   -0.6710 C   0  0  0  0  0  0  0  0  0  0  0  0
    1.3180   -2.9480   -1.3210 C   0  0  0  0  0  0  0  0  0  0  0  0
    2.6010   -2.2720   -0.9670 C   0  0  2  0  0  0  0  0  0  0  0  0
    3.5660   -3.3010   -0.6210 N   0  0  0  0  0  0  0  0  0  0  0  0
    2.4830   -1.3110    0.1350 C   0  0  0  0  0  0  0  0  0  0  0  0
    3.1590   -1.4400    1.1860 O   0  0  0  0  0  0  0  0  0  0  0  0
    1.0970   -5.7140    0.6310 H   0  0  0  0  0  0  0  0  0  0  0  0
    2.2650   -5.2940   -0.6330 H   0  0  0  0  0  0  0  0  0  0  0  0
    2.3850   -4.5530    1.0510 H   0  0  0  0  0  0  0  0  0  0  0  0
    0.5080   -3.1930    0.7030 H   0  0  0  0  0  0  0  0  0  0  0  0
   -1.3050   -4.4760    0.1070 H   0  0  0  0  0  0  0  0  0  0  0  0
   -0.3210   -5.5070   -0.9730 H   0  0  0  0  0  0  0  0  0  0  0  0
   -0.8860   -3.9290   -1.5820 H   0  0  0  0  0  0  0  0  0  0  0  0
    0.5360   -2.2710   -1.7140 H   0  0  0  0  0  0  0  0  0  0  0  0
    1.5380   -3.6640   -2.1510 H   0  0  0  0  0  0  0  0  0  0  0  0
    2.9770   -1.7590   -1.8710 H   0  0  0  0  0  0  0  0  0  0  0  0
    4.0620   -3.6240   -1.4710 H   0  0  0  0  0  0  0  0  0  0  0  0
    4.2770   -2.8180    0.0070 H   0  0  0  0  0  0  0  0  0  0  0  0
    1.9240    2.1240    0.7890 C   0  0  0  0  0  0  0  0  0  0  0  0
    1.5280    0.7190    1.1790 C   0  0  2  0  0  0  0  0  0  0  0  0
    1.6040   -0.1990    0.0610 N   0  0  0  0  0  0  0  0  0  0  0  0
    0.0980    0.6950    1.6710 C   0  0  0  0  0  0  0  0  0  0  0  0
   -0.7590   -0.0340    1.1180 O   0  0  0  0  0  0  0  0  0  0  0  0
    2.4700    2.6510    1.6100 H   0  0  0  0  0  0  0  0  0  0  0  0
    1.0770    2.7530    0.4970 H   0  0  0  0  0  0  0  0  0  0  0  0
    2.6450    2.0360   -0.0520 H   0  0  0  0  0  0  0  0  0  0  0  0
    2.2130    0.4050    1.9940 H   0  0  0  0  0  0  0  0  0  0  0  0
    1.0030   -0.0100   -0.7700 H   0  0  0  0  0  0  0  0  0  0  0  0
   -0.3070    1.4940    2.7680 N   0  0  0  0  0  0  0  0  0  0  0  0
   -1.6290    1.5530    3.3400 C   0  0  1  0  0  0  0  0  0  0  0  0
   -2.4980    2.5960    2.7250 C   0  0  0  0  0  0  0  0  0  0  0  0
   -2.7070    2.3980    1.2690 C   0  0  0  0  0  0  0  0  0  0  0  0
   -3.7010    1.6800    0.6460 C   0  0  0  0  0  0  0  0  0  0  0  0
   -3.5540    1.7360   -0.6860 N   0  0  0  0  0  0  0  0  0  0  0  0
   -2.4630    2.4930   -0.9010 C   0  0  0  0  0  0  0  0  0  0  0  0
   -1.9490    2.8940    0.2740 N   0  0  0  0  0  0  0  0  0  0  0  0
   -2.2860    0.2410    3.5230 C   0  0  0  0  0  0  0  0  0  0  0  0
   -3.4700    0.2240    3.9190 O   0  0  0  0  0  0  0  0  0  0  0  0
   -1.6420   -0.9360    3.2790 O   0  0  0  0  0  0  0  0  0  0  0  0
    0.4820    2.0970    3.1790 H   0  0  0  0  0  0  0  0  0  0  0  0
   -1.4620    1.8880    4.4280 H   0  0  0  0  0  0  0  0  0  0  0  0
   -3.5090    2.6260    3.1810 H   0  0  0  0  0  0  0  0  0  0  0  0
   -2.0730    3.6070    2.8700 H   0  0  0  0  0  0  0  0  0  0  0  0
   -4.4820    1.1510    1.1570 H   0  0  0  0  0  0  0  0  0  0  0  0
   -4.1520    1.2900   -1.4370 H   0  0  0  0  0  0  0  0  0  0  0  0
   -2.0660    2.7360   -1.8890 H   0  0  0  0  0  0  0  0  0  0  0  0
  1  9  1  0  0  0  0
  1 11  1  0  0  0  0
  2  1  1  0  0  0  0
  2 12  1  0  0  0  0
  3  2  1  0  0  0  0
  3 13  1  0  0  0  0
  4  5  1  0  0  0  0
  4  2  1  0  0  0  0
  5 18  1  6  0  0  0
  5  6  1  0  0  0  0
  5  7  1  0  0  0  0
  6 20  1  0  0  0  0
  7  8  2  0  0  0  0
 10  1  1  0  0  0  0
 14  3  1  0  0  0  0
 15  3  1  0  0  0  0
 16  4  1  0  0  0  0
 17  4  1  0  0  0  0
 19  6  1  0  0  0  0
 21 22  1  0  0  0  0
 21 26  1  0  0  0  0
 22 24  1  0  0  0  0
 22 29  1  1  0  0  0
 23  7  1  0  0  0  0
 23 22  1  0  0  0  0
 24 31  1  0  0  0  0
 25 24  2  0  0  0  0
 27 21  1  0  0  0  0
 28 21  1  0  0  0  0
 30 23  1  0  0  0  0
 31 42  1  0  0  0  0
 31 32  1  0  0  0  0
 32 39  1  0  0  0  0
 32 43  1  1  0  0  0
 33 45  1  0  0  0  0
 33 44  1  0  0  0  0
 33 32  1  0  0  0  0
 34 33  1  0  0  0  0
 35 46  1  0  0  0  0
 35 34  2  0  0  0  0
 36 35  1  0  0  0  0
 37 36  1  0  0  0  0
 37 38  2  0  0  0  0
 38 34  1  0  0  0  0
 39 40  1  0  0  0  0
 41 39  2  0  0  0  0
 47 36  1  0  0  0  0
 48 37  1  0  0  0  0
M  END
$$$$
