LAK.pdb
 OpenBabel07022418443D

 52 51  0  0  1  0  0  0  0  0999 V2000
    5.3940   -4.8150    1.5230 C   0  0  0  0  0  0  0  0  0  0  0  0
    4.7320   -3.5360    0.9940 C   0  0  0  0  0  0  0  0  0  0  0  0
    3.9710   -2.9560    2.1350 C   0  0  0  0  0  0  0  0  0  0  0  0
    3.9430   -3.9110   -0.2080 C   0  0  0  0  0  0  0  0  0  0  0  0
    3.2140   -2.7780   -0.8830 C   0  0  2  0  0  0  0  0  0  0  0  0
    4.1600   -1.7960   -1.2920 N   0  0  0  0  0  0  0  0  0  0  0  0
    2.0930   -2.3510   -0.0760 C   0  0  0  0  0  0  0  0  0  0  0  0
    1.2590   -3.2330    0.2840 O   0  0  0  0  0  0  0  0  0  0  0  0
    4.5830   -5.4550    1.9100 H   0  0  0  0  0  0  0  0  0  0  0  0
    5.9400   -5.3380    0.7230 H   0  0  0  0  0  0  0  0  0  0  0  0
    6.0380   -4.5500    2.3840 H   0  0  0  0  0  0  0  0  0  0  0  0
    5.5210   -2.7950    0.6970 H   0  0  0  0  0  0  0  0  0  0  0  0
    4.6040   -3.1240    3.0620 H   0  0  0  0  0  0  0  0  0  0  0  0
    3.8290   -1.8570    2.0870 H   0  0  0  0  0  0  0  0  0  0  0  0
    3.0230   -3.4740    2.3460 H   0  0  0  0  0  0  0  0  0  0  0  0
    4.6400   -4.4330   -0.9260 H   0  0  0  0  0  0  0  0  0  0  0  0
    3.2220   -4.7350    0.0750 H   0  0  0  0  0  0  0  0  0  0  0  0
    2.7740   -3.2490   -1.8250 H   0  0  0  0  0  0  0  0  0  0  0  0
    4.7490   -1.3980   -0.5700 H   0  0  0  0  0  0  0  0  0  0  0  0
    4.5310   -1.8790   -2.2370 H   0  0  0  0  0  0  0  0  0  0  0  0
    1.2180   -0.2140    2.5290 C   0  0  0  0  0  0  0  0  0  0  0  0
    0.6950   -0.6440    1.1630 C   0  0  2  0  0  0  0  0  0  0  0  0
    1.8150   -1.0310    0.3660 N   0  0  0  0  0  0  0  0  0  0  0  0
   -0.1830    0.3480    0.5640 C   0  0  0  0  0  0  0  0  0  0  0  0
    0.0120    0.8390   -0.5740 O   0  0  0  0  0  0  0  0  0  0  0  0
    2.3160    0.0070    2.4590 H   0  0  0  0  0  0  0  0  0  0  0  0
    0.6820    0.6890    2.8940 H   0  0  0  0  0  0  0  0  0  0  0  0
    1.1150   -1.0170    3.2850 H   0  0  0  0  0  0  0  0  0  0  0  0
    0.1020   -1.5860    1.3570 H   0  0  0  0  0  0  0  0  0  0  0  0
    2.4940   -0.2990    0.0760 H   0  0  0  0  0  0  0  0  0  0  0  0
   -1.3220    0.7960    1.2830 N   0  0  0  0  0  0  0  0  0  0  0  0
   -2.2140    1.8040    0.6720 C   0  0  1  0  0  0  0  0  0  0  0  0
   -3.6250    1.2660    0.6510 C   0  0  0  0  0  0  0  0  0  0  0  0
   -4.6380    2.1730    0.0520 C   0  0  0  0  0  0  0  0  0  0  0  0
   -6.0150    1.5270    0.0840 C   0  0  0  0  0  0  0  0  0  0  0  0
   -6.0530    0.2320   -0.6860 C   0  0  0  0  0  0  0  0  0  0  0  0
   -5.6960    0.4860   -2.0740 N   0  0  0  0  0  0  0  0  0  0  0  0
   -2.1780    2.9800    1.5730 C   0  0  0  0  0  0  0  0  0  0  0  0
   -1.4900    2.9530    2.6520 O   0  0  0  0  0  0  0  0  0  0  0  0
   -2.8490    4.1700    1.3570 O   0  0  0  0  0  0  0  0  0  0  0  0
   -1.5710    0.4490    2.2370 H   0  0  0  0  0  0  0  0  0  0  0  0
   -1.8400    2.0830   -0.3300 H   0  0  0  0  0  0  0  0  0  0  0  0
   -3.9070    1.0930    1.7140 H   0  0  0  0  0  0  0  0  0  0  0  0
   -3.6140    0.3010    0.0770 H   0  0  0  0  0  0  0  0  0  0  0  0
   -4.7040    3.1780    0.4650 H   0  0  0  0  0  0  0  0  0  0  0  0
   -4.4240    2.3070   -1.0510 H   0  0  0  0  0  0  0  0  0  0  0  0
   -6.1830    1.2530    1.1650 H   0  0  0  0  0  0  0  0  0  0  0  0
   -6.8220    2.2090   -0.1820 H   0  0  0  0  0  0  0  0  0  0  0  0
   -5.4260   -0.5470   -0.2260 H   0  0  0  0  0  0  0  0  0  0  0  0
   -7.1110   -0.1570   -0.7290 H   0  0  0  0  0  0  0  0  0  0  0  0
   -6.5140    0.8260   -2.5960 H   0  0  0  0  0  0  0  0  0  0  0  0
   -5.4120   -0.4220   -2.5470 H   0  0  0  0  0  0  0  0  0  0  0  0
  1  9  1  0  0  0  0
  1 11  1  0  0  0  0
  2  1  1  0  0  0  0
  2  3  1  0  0  0  0
  3 15  1  0  0  0  0
  3 13  1  0  0  0  0
  4 17  1  0  0  0  0
  4  2  1  0  0  0  0
  5 18  1  6  0  0  0
  5  4  1  0  0  0  0
  5  7  1  0  0  0  0
  6  5  1  0  0  0  0
  6 19  1  0  0  0  0
  7  8  2  0  0  0  0
  7 23  1  0  0  0  0
 10  1  1  0  0  0  0
 12  2  1  0  0  0  0
 14  3  1  0  0  0  0
 16  4  1  0  0  0  0
 20  6  1  0  0  0  0
 21 27  1  0  0  0  0
 21 28  1  0  0  0  0
 22 29  1  1  0  0  0
 22 21  1  0  0  0  0
 23 22  1  0  0  0  0
 24 22  1  0  0  0  0
 24 31  1  0  0  0  0
 25 24  2  0  0  0  0
 26 21  1  0  0  0  0
 30 23  1  0  0  0  0
 31 41  1  0  0  0  0
 32 42  1  6  0  0  0
 32 31  1  0  0  0  0
 32 38  1  0  0  0  0
 33 32  1  0  0  0  0
 33 43  1  0  0  0  0
 34 35  1  0  0  0  0
 34 45  1  0  0  0  0
 34 33  1  0  0  0  0
 35 47  1  0  0  0  0
 36 49  1  0  0  0  0
 36 35  1  0  0  0  0
 37 36  1  0  0  0  0
 38 39  1  0  0  0  0
 40 38  2  0  0  0  0
 44 33  1  0  0  0  0
 46 34  1  0  0  0  0
 48 35  1  0  0  0  0
 50 36  1  0  0  0  0
 51 37  1  0  0  0  0
 52 37  1  0  0  0  0
M  END
$$$$
