LAL.pdb
 OpenBabel07022418443D

 50 49  0  0  1  0  0  0  0  0999 V2000
    0.5430   -6.3020    0.2050 C   0  0  0  0  0  0  0  0  0  0  0  0
    1.9150   -5.6680    0.2630 C   0  0  0  0  0  0  0  0  0  0  0  0
    2.5020   -5.7740    1.6320 C   0  0  0  0  0  0  0  0  0  0  0  0
    1.9250   -4.2790   -0.3020 C   0  0  0  0  0  0  0  0  0  0  0  0
    1.0200   -3.3220    0.3950 C   0  0  2  0  0  0  0  0  0  0  0  0
   -0.3560   -3.6840    0.3830 N   0  0  0  0  0  0  0  0  0  0  0  0
    1.2520   -1.9700   -0.2270 C   0  0  0  0  0  0  0  0  0  0  0  0
    2.4100   -1.4850   -0.3030 O   0  0  0  0  0  0  0  0  0  0  0  0
    0.0000   -5.9570   -0.6940 H   0  0  0  0  0  0  0  0  0  0  0  0
   -0.0350   -6.1460    1.1370 H   0  0  0  0  0  0  0  0  0  0  0  0
    0.6550   -7.4110    0.0960 H   0  0  0  0  0  0  0  0  0  0  0  0
    2.5660   -6.2890   -0.4170 H   0  0  0  0  0  0  0  0  0  0  0  0
    2.4320   -4.8610    2.2370 H   0  0  0  0  0  0  0  0  0  0  0  0
    3.5600   -6.1400    1.6100 H   0  0  0  0  0  0  0  0  0  0  0  0
    1.9340   -6.5660    2.1760 H   0  0  0  0  0  0  0  0  0  0  0  0
    2.9540   -3.8770   -0.2790 H   0  0  0  0  0  0  0  0  0  0  0  0
    1.6440   -4.3610   -1.3810 H   0  0  0  0  0  0  0  0  0  0  0  0
    1.3480   -3.2260    1.4500 H   0  0  0  0  0  0  0  0  0  0  0  0
   -0.8250   -3.6630   -0.5270 H   0  0  0  0  0  0  0  0  0  0  0  0
   -0.8530   -3.1860    1.1500 H   0  0  0  0  0  0  0  0  0  0  0  0
   -0.0270    0.1490   -2.7930 C   0  0  0  0  0  0  0  0  0  0  0  0
    0.3830    0.1040   -1.3490 C   0  0  2  0  0  0  0  0  0  0  0  0
    0.1810   -1.1910   -0.7510 N   0  0  0  0  0  0  0  0  0  0  0  0
   -0.3080    1.1790   -0.5470 C   0  0  0  0  0  0  0  0  0  0  0  0
   -0.2200    2.3610   -0.9470 O   0  0  0  0  0  0  0  0  0  0  0  0
   -0.0350    1.2300   -3.0950 H   0  0  0  0  0  0  0  0  0  0  0  0
   -1.0400   -0.2360   -2.9830 H   0  0  0  0  0  0  0  0  0  0  0  0
    0.7470   -0.3420   -3.3880 H   0  0  0  0  0  0  0  0  0  0  0  0
    1.4700    0.3290   -1.3090 H   0  0  0  0  0  0  0  0  0  0  0  0
   -0.7860   -1.6130   -0.6800 H   0  0  0  0  0  0  0  0  0  0  0  0
    0.2710    3.1900    3.2350 C   0  0  0  0  0  0  0  0  0  0  0  0
   -0.1060    3.5980    1.7860 C   0  0  0  0  0  0  0  0  0  0  0  0
   -0.1550    5.1350    1.8390 C   0  0  0  0  0  0  0  0  0  0  0  0
   -1.4750    3.1450    1.4580 C   0  0  0  0  0  0  0  0  0  0  0  0
   -1.7220    1.6560    1.5180 C   0  0  2  0  0  0  0  0  0  0  0  0
   -1.0260    0.8350    0.6130 N   0  0  0  0  0  0  0  0  0  0  0  0
   -3.1370    1.3650    1.7480 C   0  0  0  0  0  0  0  0  0  0  0  0
   -3.6870    0.4110    1.1470 O   0  0  0  0  0  0  0  0  0  0  0  0
   -3.9150    2.1090    2.6180 O   0  0  0  0  0  0  0  0  0  0  0  0
    0.8490    2.2400    3.2220 H   0  0  0  0  0  0  0  0  0  0  0  0
   -0.6130    3.1700    3.8710 H   0  0  0  0  0  0  0  0  0  0  0  0
    0.9620    3.9630    3.6500 H   0  0  0  0  0  0  0  0  0  0  0  0
    0.7330    3.2720    1.2020 H   0  0  0  0  0  0  0  0  0  0  0  0
   -1.1900    5.5050    1.9110 H   0  0  0  0  0  0  0  0  0  0  0  0
    0.4170    5.5370    2.6810 H   0  0  0  0  0  0  0  0  0  0  0  0
    0.2440    5.5170    0.8570 H   0  0  0  0  0  0  0  0  0  0  0  0
   -2.1750    3.6390    2.1790 H   0  0  0  0  0  0  0  0  0  0  0  0
   -1.8180    3.4780    0.4580 H   0  0  0  0  0  0  0  0  0  0  0  0
   -1.1910    1.4310    2.5490 H   0  0  0  0  0  0  0  0  0  0  0  0
   -1.0330   -0.2150    0.8270 H   0  0  0  0  0  0  0  0  0  0  0  0
  1  2  1  0  0  0  0
  1 10  1  0  0  0  0
  2  3  1  0  0  0  0
  3 15  1  0  0  0  0
  3 13  1  0  0  0  0
  4 16  1  0  0  0  0
  4  2  1  0  0  0  0
  4  5  1  0  0  0  0
  5 18  1  1  0  0  0
  6  5  1  0  0  0  0
  6 20  1  0  0  0  0
  7  5  1  0  0  0  0
  8  7  2  0  0  0  0
  9  1  1  0  0  0  0
 11  1  1  0  0  0  0
 12  2  1  0  0  0  0
 14  3  1  0  0  0  0
 17  4  1  0  0  0  0
 19  6  1  0  0  0  0
 21 22  1  0  0  0  0
 22 29  1  1  0  0  0
 22 23  1  0  0  0  0
 22 24  1  0  0  0  0
 23 30  1  0  0  0  0
 23  7  1  0  0  0  0
 24 36  1  0  0  0  0
 25 24  2  0  0  0  0
 26 21  1  0  0  0  0
 27 21  1  0  0  0  0
 28 21  1  0  0  0  0
 31 42  1  0  0  0  0
 31 41  1  0  0  0  0
 32 33  1  0  0  0  0
 32 31  1  0  0  0  0
 33 44  1  0  0  0  0
 33 45  1  0  0  0  0
 34 35  1  0  0  0  0
 34 32  1  0  0  0  0
 34 47  1  0  0  0  0
 35 37  1  0  0  0  0
 35 49  1  1  0  0  0
 36 50  1  0  0  0  0
 36 35  1  0  0  0  0
 37 39  1  0  0  0  0
 38 37  2  0  0  0  0
 40 31  1  0  0  0  0
 43 32  1  0  0  0  0
 46 33  1  0  0  0  0
 48 34  1  0  0  0  0
M  END
$$$$
