LAN.pdb
 OpenBabel07022418443D

 45 44  0  0  1  0  0  0  0  0999 V2000
    1.6750   -5.7750    0.3170 C   0  0  0  0  0  0  0  0  0  0  0  0
    1.2990   -4.8390   -0.8110 C   0  0  0  0  0  0  0  0  0  0  0  0
    2.4970   -4.1150   -1.3240 C   0  0  0  0  0  0  0  0  0  0  0  0
    0.0620   -4.0650   -0.6040 C   0  0  0  0  0  0  0  0  0  0  0  0
   -0.0500   -3.1750    0.5760 C   0  0  2  0  0  0  0  0  0  0  0  0
   -1.3840   -2.5230    0.5450 N   0  0  0  0  0  0  0  0  0  0  0  0
    0.9200   -2.0670    0.5150 C   0  0  0  0  0  0  0  0  0  0  0  0
    2.1520   -2.2020    0.8120 O   0  0  0  0  0  0  0  0  0  0  0  0
    0.8270   -6.3520    0.6900 H   0  0  0  0  0  0  0  0  0  0  0  0
    2.2060   -5.2360    1.1320 H   0  0  0  0  0  0  0  0  0  0  0  0
    2.4170   -6.5000   -0.0970 H   0  0  0  0  0  0  0  0  0  0  0  0
    1.0240   -5.5720   -1.6760 H   0  0  0  0  0  0  0  0  0  0  0  0
    2.2520   -3.1140   -1.7080 H   0  0  0  0  0  0  0  0  0  0  0  0
    2.9330   -4.6420   -2.2420 H   0  0  0  0  0  0  0  0  0  0  0  0
    3.3300   -4.1480   -0.5880 H   0  0  0  0  0  0  0  0  0  0  0  0
   -0.1180   -3.4910   -1.5700 H   0  0  0  0  0  0  0  0  0  0  0  0
   -0.8330   -4.7590   -0.5830 H   0  0  0  0  0  0  0  0  0  0  0  0
    0.0200   -3.7360    1.5210 H   0  0  0  0  0  0  0  0  0  0  0  0
   -1.5670   -2.2200   -0.4250 H   0  0  0  0  0  0  0  0  0  0  0  0
   -1.4120   -1.7280    1.1980 H   0  0  0  0  0  0  0  0  0  0  0  0
    1.7530    0.8370   -1.3670 C   0  0  0  0  0  0  0  0  0  0  0  0
    1.5480    0.3330    0.0680 C   0  0  2  0  0  0  0  0  0  0  0  0
    0.5680   -0.7250    0.1140 N   0  0  0  0  0  0  0  0  0  0  0  0
    1.1370    1.5060    0.8830 C   0  0  0  0  0  0  0  0  0  0  0  0
    1.8820    2.5190    0.9470 O   0  0  0  0  0  0  0  0  0  0  0  0
    0.8710    1.3560   -1.7390 H   0  0  0  0  0  0  0  0  0  0  0  0
    2.0950   -0.0080   -1.9990 H   0  0  0  0  0  0  0  0  0  0  0  0
    2.6450    1.5240   -1.2930 H   0  0  0  0  0  0  0  0  0  0  0  0
    2.5300   -0.0790    0.3770 H   0  0  0  0  0  0  0  0  0  0  0  0
   -0.4330   -0.5660   -0.1400 H   0  0  0  0  0  0  0  0  0  0  0  0
   -3.4170    5.1200    2.2240 N   0  0  0  0  0  0  0  0  0  0  0  0
   -2.1340    4.5320    2.5040 C   0  0  0  0  0  0  0  0  0  0  0  0
   -1.4270    5.1400    3.3400 O   0  0  0  0  0  0  0  0  0  0  0  0
   -1.6980    3.2920    1.8390 C   0  0  0  0  0  0  0  0  0  0  0  0
   -0.4210    2.7760    2.4120 C   0  0  2  0  0  0  0  0  0  0  0  0
   -0.0730    1.5560    1.6110 N   0  0  0  0  0  0  0  0  0  0  0  0
   -0.6360    2.3320    3.8060 C   0  0  0  0  0  0  0  0  0  0  0  0
   -0.9070    3.1290    4.7070 O   0  0  0  0  0  0  0  0  0  0  0  0
   -0.5310    0.9880    4.1040 O   0  0  0  0  0  0  0  0  0  0  0  0
   -3.5080    6.1470    2.2010 H   0  0  0  0  0  0  0  0  0  0  0  0
   -4.2370    4.5220    2.0480 H   0  0  0  0  0  0  0  0  0  0  0  0
   -2.5200    2.5370    1.8760 H   0  0  0  0  0  0  0  0  0  0  0  0
   -1.5420    3.5770    0.7550 H   0  0  0  0  0  0  0  0  0  0  0  0
    0.3830    3.5170    2.3010 H   0  0  0  0  0  0  0  0  0  0  0  0
   -0.7140    0.7400    1.5840 H   0  0  0  0  0  0  0  0  0  0  0  0
  1  9  1  0  0  0  0
  1 10  1  0  0  0  0
  2  4  1  0  0  0  0
  2  1  1  0  0  0  0
  3  2  1  0  0  0  0
  3 15  1  0  0  0  0
  4 17  1  0  0  0  0
  4  5  1  0  0  0  0
  5 18  1  1  0  0  0
  6  5  1  0  0  0  0
  6 20  1  0  0  0  0
  7  5  1  0  0  0  0
  7  8  2  0  0  0  0
 11  1  1  0  0  0  0
 12  2  1  0  0  0  0
 13  3  1  0  0  0  0
 14  3  1  0  0  0  0
 16  4  1  0  0  0  0
 19  6  1  0  0  0  0
 21 28  1  0  0  0  0
 21 22  1  0  0  0  0
 22 23  1  0  0  0  0
 22 29  1  1  0  0  0
 22 24  1  0  0  0  0
 23  7  1  0  0  0  0
 24 25  2  0  0  0  0
 24 36  1  0  0  0  0
 26 21  1  0  0  0  0
 27 21  1  0  0  0  0
 30 23  1  0  0  0  0
 31 32  1  0  0  0  0
 32 33  2  0  0  0  0
 34 42  1  0  0  0  0
 34 35  1  0  0  0  0
 34 32  1  0  0  0  0
 35 44  1  6  0  0  0
 35 37  1  0  0  0  0
 36 35  1  0  0  0  0
 37 39  2  0  0  0  0
 37 38  1  0  0  0  0
 40 31  1  0  0  0  0
 41 31  1  0  0  0  0
 43 34  1  0  0  0  0
 45 36  1  0  0  0  0
M  END
$$$$
