LAQ.pdb
 OpenBabel07022418443D

 48 47  0  0  1  0  0  0  0  0999 V2000
    0.1580   -4.1160    2.8350 C   0  0  0  0  0  0  0  0  0  0  0  0
    1.4220   -3.6890    2.0830 C   0  0  0  0  0  0  0  0  0  0  0  0
    2.5070   -3.5530    3.1300 C   0  0  0  0  0  0  0  0  0  0  0  0
    1.1000   -2.3530    1.4320 C   0  0  0  0  0  0  0  0  0  0  0  0
    2.2960   -1.8820    0.6810 C   0  0  2  0  0  0  0  0  0  0  0  0
    3.4240   -1.7190    1.5770 N   0  0  0  0  0  0  0  0  0  0  0  0
    2.1170   -0.6920   -0.1240 C   0  0  0  0  0  0  0  0  0  0  0  0
    2.9000    0.2790    0.0190 O   0  0  0  0  0  0  0  0  0  0  0  0
    0.3520   -5.1500    3.1820 H   0  0  0  0  0  0  0  0  0  0  0  0
    0.1600   -3.4860    3.7700 H   0  0  0  0  0  0  0  0  0  0  0  0
   -0.7450   -3.9950    2.2420 H   0  0  0  0  0  0  0  0  0  0  0  0
    1.6790   -4.4590    1.3470 H   0  0  0  0  0  0  0  0  0  0  0  0
    3.5060   -3.8260    2.7260 H   0  0  0  0  0  0  0  0  0  0  0  0
    2.3400   -4.2710    3.9860 H   0  0  0  0  0  0  0  0  0  0  0  0
    2.4970   -2.5470    3.6060 H   0  0  0  0  0  0  0  0  0  0  0  0
    0.2850   -2.5550    0.7040 H   0  0  0  0  0  0  0  0  0  0  0  0
    0.7380   -1.6930    2.2100 H   0  0  0  0  0  0  0  0  0  0  0  0
    2.6030   -2.7190   -0.0160 H   0  0  0  0  0  0  0  0  0  0  0  0
    4.3310   -1.6240    1.0660 H   0  0  0  0  0  0  0  0  0  0  0  0
    3.2800   -0.8100    2.0840 H   0  0  0  0  0  0  0  0  0  0  0  0
    0.9300    0.2920   -3.3860 C   0  0  0  0  0  0  0  0  0  0  0  0
    0.8740    0.5990   -1.9050 C   0  0  2  0  0  0  0  0  0  0  0  0
    1.0650   -0.5840   -1.0910 N   0  0  0  0  0  0  0  0  0  0  0  0
   -0.4770    1.1870   -1.5870 C   0  0  0  0  0  0  0  0  0  0  0  0
   -0.8580    2.2170   -2.1910 O   0  0  0  0  0  0  0  0  0  0  0  0
    0.5840   -0.7470   -3.5850 H   0  0  0  0  0  0  0  0  0  0  0  0
    1.9560    0.4310   -3.7840 H   0  0  0  0  0  0  0  0  0  0  0  0
    0.2640    1.0150   -3.9060 H   0  0  0  0  0  0  0  0  0  0  0  0
    1.6140    1.3760   -1.6900 H   0  0  0  0  0  0  0  0  0  0  0  0
    0.4480   -1.4220   -1.1630 H   0  0  0  0  0  0  0  0  0  0  0  0
   -0.5120    0.2800    3.7430 N   0  0  0  0  0  0  0  0  0  0  0  0
   -0.9250    0.9580    2.5640 C   0  0  0  0  0  0  0  0  0  0  0  0
   -0.0110    1.3320    1.7930 O   0  0  0  0  0  0  0  0  0  0  0  0
   -2.3430    1.1610    2.3500 C   0  0  0  0  0  0  0  0  0  0  0  0
   -2.8190    1.6900    1.0600 C   0  0  0  0  0  0  0  0  0  0  0  0
   -2.5960    0.9470   -0.1770 C   0  0  2  0  0  0  0  0  0  0  0  0
   -1.3230    0.6170   -0.6340 N   0  0  0  0  0  0  0  0  0  0  0  0
   -3.4820    1.5840   -1.2220 C   0  0  0  0  0  0  0  0  0  0  0  0
   -4.6160    1.9830   -0.7870 O   0  0  0  0  0  0  0  0  0  0  0  0
   -3.2270    1.7730   -2.5280 O   0  0  0  0  0  0  0  0  0  0  0  0
   -0.8080   -0.7050    3.8900 H   0  0  0  0  0  0  0  0  0  0  0  0
    0.0780    0.7160    4.4800 H   0  0  0  0  0  0  0  0  0  0  0  0
   -2.8590    0.1990    2.6520 H   0  0  0  0  0  0  0  0  0  0  0  0
   -2.7130    1.8810    3.1440 H   0  0  0  0  0  0  0  0  0  0  0  0
   -2.6060    2.8030    0.9590 H   0  0  0  0  0  0  0  0  0  0  0  0
   -3.9560    1.7320    1.1770 H   0  0  0  0  0  0  0  0  0  0  0  0
   -3.1750   -0.0590   -0.0660 H   0  0  0  0  0  0  0  0  0  0  0  0
   -0.9050   -0.2690   -0.1620 H   0  0  0  0  0  0  0  0  0  0  0  0
  1  9  1  0  0  0  0
  1 10  1  0  0  0  0
  2  1  1  0  0  0  0
  2  3  1  0  0  0  0
  3 15  1  0  0  0  0
  3 14  1  0  0  0  0
  4  2  1  0  0  0  0
  4 17  1  0  0  0  0
  5 18  1  6  0  0  0
  5  4  1  0  0  0  0
  5  6  1  0  0  0  0
  6 20  1  0  0  0  0
  7  8  2  0  0  0  0
  7  5  1  0  0  0  0
 11  1  1  0  0  0  0
 12  2  1  0  0  0  0
 13  3  1  0  0  0  0
 16  4  1  0  0  0  0
 19  6  1  0  0  0  0
 21 22  1  0  0  0  0
 22 29  1  1  0  0  0
 22 24  1  0  0  0  0
 22 23  1  0  0  0  0
 23  7  1  0  0  0  0
 24 37  1  0  0  0  0
 25 24  2  0  0  0  0
 26 21  1  0  0  0  0
 27 21  1  0  0  0  0
 28 21  1  0  0  0  0
 30 23  1  0  0  0  0
 31 41  1  0  0  0  0
 31 42  1  0  0  0  0
 32 31  1  0  0  0  0
 33 32  2  0  0  0  0
 34 32  1  0  0  0  0
 34 43  1  0  0  0  0
 34 44  1  0  0  0  0
 35 46  1  0  0  0  0
 35 34  1  0  0  0  0
 36 47  1  1  0  0  0
 36 35  1  0  0  0  0
 37 36  1  0  0  0  0
 37 48  1  0  0  0  0
 38 39  1  0  0  0  0
 38 36  1  0  0  0  0
 40 38  2  0  0  0  0
 45 35  1  0  0  0  0
M  END
$$$$
