LAT.pdb
 OpenBabel07022418443D

 45 44  0  0  1  0  0  0  0  0999 V2000
    1.7050   -5.0480    0.2700 C   0  0  0  0  0  0  0  0  0  0  0  0
    0.7230   -4.6230   -0.8010 C   0  0  0  0  0  0  0  0  0  0  0  0
    1.0550   -5.4410   -2.0430 C   0  0  0  0  0  0  0  0  0  0  0  0
    0.9210   -3.1690   -1.1800 C   0  0  0  0  0  0  0  0  0  0  0  0
    0.7200   -2.2570    0.0170 C   0  0  2  0  0  0  0  0  0  0  0  0
   -0.6130   -2.4310    0.5120 N   0  0  0  0  0  0  0  0  0  0  0  0
    0.9990   -0.8710   -0.4180 C   0  0  0  0  0  0  0  0  0  0  0  0
    2.1520   -0.6310   -0.8700 O   0  0  0  0  0  0  0  0  0  0  0  0
    1.4380   -4.6600    1.2660 H   0  0  0  0  0  0  0  0  0  0  0  0
    1.7280   -6.1540    0.3020 H   0  0  0  0  0  0  0  0  0  0  0  0
    2.7170   -4.6790   -0.0260 H   0  0  0  0  0  0  0  0  0  0  0  0
   -0.2980   -4.8380   -0.4710 H   0  0  0  0  0  0  0  0  0  0  0  0
    0.7540   -4.9210   -2.9620 H   0  0  0  0  0  0  0  0  0  0  0  0
    2.1730   -5.5560   -2.0660 H   0  0  0  0  0  0  0  0  0  0  0  0
    0.6170   -6.4400   -2.0160 H   0  0  0  0  0  0  0  0  0  0  0  0
    0.1910   -2.9470   -1.9770 H   0  0  0  0  0  0  0  0  0  0  0  0
    1.9350   -3.0700   -1.6180 H   0  0  0  0  0  0  0  0  0  0  0  0
    1.4210   -2.4970    0.8350 H   0  0  0  0  0  0  0  0  0  0  0  0
   -0.6700   -2.6120    1.5330 H   0  0  0  0  0  0  0  0  0  0  0  0
   -1.2070   -3.0620   -0.0380 H   0  0  0  0  0  0  0  0  0  0  0  0
   -0.4940    1.9800   -1.9160 C   0  0  0  0  0  0  0  0  0  0  0  0
    0.3850    1.5270   -0.7950 C   0  0  2  0  0  0  0  0  0  0  0  0
    0.0830    0.1910   -0.3650 N   0  0  0  0  0  0  0  0  0  0  0  0
    0.3370    2.4480    0.3750 C   0  0  0  0  0  0  0  0  0  0  0  0
    0.5610    3.6760    0.2850 O   0  0  0  0  0  0  0  0  0  0  0  0
   -0.2850    3.0360   -2.1160 H   0  0  0  0  0  0  0  0  0  0  0  0
   -1.5750    1.8700   -1.6660 H   0  0  0  0  0  0  0  0  0  0  0  0
   -0.2980    1.3600   -2.7970 H   0  0  0  0  0  0  0  0  0  0  0  0
    1.4380    1.5230   -1.1550 H   0  0  0  0  0  0  0  0  0  0  0  0
   -0.8810   -0.0150    0.0150 H   0  0  0  0  0  0  0  0  0  0  0  0
   -2.0810    1.5140    3.6180 C   0  0  0  0  0  0  0  0  0  0  0  0
   -1.4530    2.8300    3.3690 C   0  0  1  0  0  0  0  0  0  0  0  0
   -1.5330    3.6150    4.5010 O   0  0  0  0  0  0  0  0  0  0  0  0
   -0.0390    2.7660    2.8500 C   0  0  2  0  0  0  0  0  0  0  0  0
    0.0270    1.9420    1.6680 N   0  0  0  0  0  0  0  0  0  0  0  0
    0.9490    2.4210    3.8650 C   0  0  0  0  0  0  0  0  0  0  0  0
    1.0270    3.0350    4.9470 O   0  0  0  0  0  0  0  0  0  0  0  0
    1.8320    1.3790    3.6260 O   0  0  0  0  0  0  0  0  0  0  0  0
   -3.1440    1.5090    3.2360 H   0  0  0  0  0  0  0  0  0  0  0  0
   -1.5960    0.6520    3.1500 H   0  0  0  0  0  0  0  0  0  0  0  0
   -2.1910    1.2880    4.7120 H   0  0  0  0  0  0  0  0  0  0  0  0
   -2.0470    3.3680    2.5730 H   0  0  0  0  0  0  0  0  0  0  0  0
   -1.2860    3.0480    5.2820 H   0  0  0  0  0  0  0  0  0  0  0  0
    0.1990    3.8160    2.5030 H   0  0  0  0  0  0  0  0  0  0  0  0
   -0.1600    0.8950    1.7210 H   0  0  0  0  0  0  0  0  0  0  0  0
  1 10  1  0  0  0  0
  1  9  1  0  0  0  0
  2 12  1  0  0  0  0
  2  1  1  0  0  0  0
  3 15  1  0  0  0  0
  3  2  1  0  0  0  0
  4  2  1  0  0  0  0
  4  5  1  0  0  0  0
  5  6  1  0  0  0  0
  5 18  1  1  0  0  0
  6 19  1  0  0  0  0
  7 23  1  0  0  0  0
  7  5  1  0  0  0  0
  8  7  2  0  0  0  0
 11  1  1  0  0  0  0
 13  3  1  0  0  0  0
 14  3  1  0  0  0  0
 16  4  1  0  0  0  0
 17  4  1  0  0  0  0
 20  6  1  0  0  0  0
 21 27  1  0  0  0  0
 21 22  1  0  0  0  0
 22 29  1  6  0  0  0
 22 23  1  0  0  0  0
 22 24  1  0  0  0  0
 23 30  1  0  0  0  0
 24 35  1  0  0  0  0
 25 24  2  0  0  0  0
 26 21  1  0  0  0  0
 28 21  1  0  0  0  0
 31 41  1  0  0  0  0
 32 42  1  6  0  0  0
 32 31  1  0  0  0  0
 32 33  1  0  0  0  0
 33 43  1  0  0  0  0
 34 44  1  6  0  0  0
 34 32  1  0  0  0  0
 34 36  1  0  0  0  0
 35 45  1  0  0  0  0
 35 34  1  0  0  0  0
 36 37  1  0  0  0  0
 38 36  2  0  0  0  0
 39 31  1  0  0  0  0
 40 31  1  0  0  0  0
M  END
$$$$
