LAV.pdb
 OpenBabel07022418443D

 47 46  0  0  1  0  0  0  0  0999 V2000
   -0.8320   -4.0490   -0.2530 C   0  0  0  0  0  0  0  0  0  0  0  0
   -0.2400   -2.7460   -0.8320 C   0  0  0  0  0  0  0  0  0  0  0  0
   -1.2710   -2.0760   -1.6910 C   0  0  0  0  0  0  0  0  0  0  0  0
    1.0050   -3.0810   -1.5980 C   0  0  0  0  0  0  0  0  0  0  0  0
    1.6970   -1.8990   -2.2270 C   0  0  2  0  0  0  0  0  0  0  0  0
    2.8750   -2.4910   -2.9130 N   0  0  0  0  0  0  0  0  0  0  0  0
    2.2350   -1.0140   -1.1810 C   0  0  0  0  0  0  0  0  0  0  0  0
    3.4590   -1.1210   -0.8760 O   0  0  0  0  0  0  0  0  0  0  0  0
   -1.7650   -3.8130    0.3010 H   0  0  0  0  0  0  0  0  0  0  0  0
   -1.0120   -4.7630   -1.0910 H   0  0  0  0  0  0  0  0  0  0  0  0
   -0.0970   -4.4030    0.4780 H   0  0  0  0  0  0  0  0  0  0  0  0
    0.0220   -2.1260    0.0480 H   0  0  0  0  0  0  0  0  0  0  0  0
   -1.7520   -2.7920   -2.3840 H   0  0  0  0  0  0  0  0  0  0  0  0
   -0.8050   -1.2210   -2.2140 H   0  0  0  0  0  0  0  0  0  0  0  0
   -2.0880   -1.7270   -1.0110 H   0  0  0  0  0  0  0  0  0  0  0  0
    1.7210   -3.5760   -0.8830 H   0  0  0  0  0  0  0  0  0  0  0  0
    0.8050   -3.8890   -2.3610 H   0  0  0  0  0  0  0  0  0  0  0  0
    1.0680   -1.3740   -2.9600 H   0  0  0  0  0  0  0  0  0  0  0  0
    3.2090   -3.3060   -2.3880 H   0  0  0  0  0  0  0  0  0  0  0  0
    2.6880   -2.6410   -3.9090 H   0  0  0  0  0  0  0  0  0  0  0  0
    2.3030    2.2300    0.0290 C   0  0  0  0  0  0  0  0  0  0  0  0
    2.0730    0.8110    0.5390 C   0  0  2  0  0  0  0  0  0  0  0  0
    1.4870   -0.0240   -0.4680 N   0  0  0  0  0  0  0  0  0  0  0  0
    1.2690    0.9560    1.7720 C   0  0  0  0  0  0  0  0  0  0  0  0
    1.7280    1.6330    2.7590 O   0  0  0  0  0  0  0  0  0  0  0  0
    3.1020    2.2630   -0.7410 H   0  0  0  0  0  0  0  0  0  0  0  0
    1.3700    2.7060   -0.2930 H   0  0  0  0  0  0  0  0  0  0  0  0
    2.6790    2.8080    0.8980 H   0  0  0  0  0  0  0  0  0  0  0  0
    3.1080    0.4250    0.7280 H   0  0  0  0  0  0  0  0  0  0  0  0
    0.4960    0.0840   -0.6980 H   0  0  0  0  0  0  0  0  0  0  0  0
   -2.7710    1.3830    4.3450 C   0  0  0  0  0  0  0  0  0  0  0  0
   -2.0910    1.2410    2.9990 C   0  0  0  0  0  0  0  0  0  0  0  0
   -1.9330    2.6400    2.4330 C   0  0  0  0  0  0  0  0  0  0  0  0
   -0.7490    0.5860    3.2360 C   0  0  2  0  0  0  0  0  0  0  0  0
   -0.0140    0.4040    1.9940 N   0  0  0  0  0  0  0  0  0  0  0  0
   -0.9940   -0.7490    3.8360 C   0  0  0  0  0  0  0  0  0  0  0  0
   -1.6210   -0.7970    4.9230 O   0  0  0  0  0  0  0  0  0  0  0  0
   -0.5790   -1.9480    3.2800 O   0  0  0  0  0  0  0  0  0  0  0  0
   -3.4860    0.5610    4.5500 H   0  0  0  0  0  0  0  0  0  0  0  0
   -2.0030    1.5080    5.1290 H   0  0  0  0  0  0  0  0  0  0  0  0
   -3.3630    2.3450    4.3630 H   0  0  0  0  0  0  0  0  0  0  0  0
   -2.7090    0.6240    2.2930 H   0  0  0  0  0  0  0  0  0  0  0  0
   -1.0900    3.1470    2.9670 H   0  0  0  0  0  0  0  0  0  0  0  0
   -2.8310    3.2590    2.6440 H   0  0  0  0  0  0  0  0  0  0  0  0
   -1.7760    2.6110    1.3370 H   0  0  0  0  0  0  0  0  0  0  0  0
   -0.2010    1.1900    3.9660 H   0  0  0  0  0  0  0  0  0  0  0  0
   -0.4480   -0.1500    1.2290 H   0  0  0  0  0  0  0  0  0  0  0  0
  1  9  1  0  0  0  0
  1 11  1  0  0  0  0
  2  1  1  0  0  0  0
  2 12  1  0  0  0  0
  3 15  1  0  0  0  0
  3  2  1  0  0  0  0
  4 16  1  0  0  0  0
  4  2  1  0  0  0  0
  5 18  1  6  0  0  0
  5  4  1  0  0  0  0
  5  7  1  0  0  0  0
  6 19  1  0  0  0  0
  6  5  1  0  0  0  0
  7  8  2  0  0  0  0
  7 23  1  0  0  0  0
 10  1  1  0  0  0  0
 13  3  1  0  0  0  0
 14  3  1  0  0  0  0
 17  4  1  0  0  0  0
 20  6  1  0  0  0  0
 21 22  1  0  0  0  0
 21 28  1  0  0  0  0
 22 29  1  1  0  0  0
 22 24  1  0  0  0  0
 23 22  1  0  0  0  0
 24 35  1  0  0  0  0
 24 25  2  0  0  0  0
 26 21  1  0  0  0  0
 27 21  1  0  0  0  0
 30 23  1  0  0  0  0
 31 41  1  0  0  0  0
 31 39  1  0  0  0  0
 31 40  1  0  0  0  0
 32 34  1  0  0  0  0
 32 31  1  0  0  0  0
 33 44  1  0  0  0  0
 33 43  1  0  0  0  0
 33 32  1  0  0  0  0
 34 36  1  0  0  0  0
 34 46  1  1  0  0  0
 35 34  1  0  0  0  0
 36 37  1  0  0  0  0
 38 36  2  0  0  0  0
 42 32  1  0  0  0  0
 45 33  1  0  0  0  0
 47 35  1  0  0  0  0
M  END
$$$$
