LAW.pdb
 OpenBabel07022418443D

 55 56  0  0  1  0  0  0  0  0999 V2000
    2.1330    0.9960    5.6690 C   0  0  0  0  0  0  0  0  0  0  0  0
    1.8600    1.9990    4.5580 C   0  0  0  0  0  0  0  0  0  0  0  0
    0.7130    2.8430    4.9930 C   0  0  0  0  0  0  0  0  0  0  0  0
    1.7090    1.2980    3.2630 C   0  0  0  0  0  0  0  0  0  0  0  0
    1.4420    2.0950    2.0620 C   0  0  2  0  0  0  0  0  0  0  0  0
    0.2720    2.8850    2.0280 N   0  0  0  0  0  0  0  0  0  0  0  0
    1.4390    1.1790    0.8750 C   0  0  0  0  0  0  0  0  0  0  0  0
    2.3850    0.3650    0.7300 O   0  0  0  0  0  0  0  0  0  0  0  0
    2.1810    1.4630    6.6630 H   0  0  0  0  0  0  0  0  0  0  0  0
    3.1640    0.5930    5.4480 H   0  0  0  0  0  0  0  0  0  0  0  0
    1.4490    0.1400    5.5970 H   0  0  0  0  0  0  0  0  0  0  0  0
    2.7620    2.6560    4.5280 H   0  0  0  0  0  0  0  0  0  0  0  0
   -0.2660    2.3120    4.9540 H   0  0  0  0  0  0  0  0  0  0  0  0
    0.8680    3.0480    6.0930 H   0  0  0  0  0  0  0  0  0  0  0  0
    0.6820    3.8450    4.5270 H   0  0  0  0  0  0  0  0  0  0  0  0
    2.6230    0.6880    3.0930 H   0  0  0  0  0  0  0  0  0  0  0  0
    0.8850    0.5370    3.3830 H   0  0  0  0  0  0  0  0  0  0  0  0
    2.3100    2.7940    1.8550 H   0  0  0  0  0  0  0  0  0  0  0  0
    0.4190    3.9100    2.1420 H   0  0  0  0  0  0  0  0  0  0  0  0
   -0.5440    2.5270    2.5600 H   0  0  0  0  0  0  0  0  0  0  0  0
    1.5570    0.6750   -2.1210 C   0  0  0  0  0  0  0  0  0  0  0  0
    0.4600    0.2730   -1.2270 C   0  0  2  0  0  0  0  0  0  0  0  0
    0.4100    1.1870   -0.1020 N   0  0  0  0  0  0  0  0  0  0  0  0
    0.4650   -1.0890   -0.7270 C   0  0  0  0  0  0  0  0  0  0  0  0
    0.3910   -1.2930    0.5100 O   0  0  0  0  0  0  0  0  0  0  0  0
    2.1520   -0.1250   -2.5700 H   0  0  0  0  0  0  0  0  0  0  0  0
    2.2960    1.3900   -1.6550 H   0  0  0  0  0  0  0  0  0  0  0  0
    1.1210    1.2600   -2.9820 H   0  0  0  0  0  0  0  0  0  0  0  0
   -0.5510    0.4050   -1.7360 H   0  0  0  0  0  0  0  0  0  0  0  0
   -0.3530    1.8810    0.0580 H   0  0  0  0  0  0  0  0  0  0  0  0
    0.5510   -2.2620   -1.5460 N   0  0  0  0  0  0  0  0  0  0  0  0
    0.5520   -3.5900   -1.0380 C   0  0  1  0  0  0  0  0  0  0  0  0
   -0.6010   -4.4570   -1.4510 C   0  0  0  0  0  0  0  0  0  0  0  0
   -1.9250   -3.9500   -1.0420 C   0  0  0  0  0  0  0  0  0  0  0  0
   -2.6790   -4.3350    0.0700 C   0  0  0  0  0  0  0  0  0  0  0  0
   -3.8020   -3.6150    0.0920 N   0  0  0  0  0  0  0  0  0  0  0  0
   -3.8030   -2.7790   -0.9610 C   0  0  0  0  0  0  0  0  0  0  0  0
   -4.7480   -1.8490   -1.3610 C   0  0  0  0  0  0  0  0  0  0  0  0
   -4.5400   -1.1010   -2.4900 C   0  0  0  0  0  0  0  0  0  0  0  0
   -3.3890   -1.2800   -3.2210 C   0  0  0  0  0  0  0  0  0  0  0  0
   -2.4520   -2.2120   -2.8130 C   0  0  0  0  0  0  0  0  0  0  0  0
   -2.6470   -2.9730   -1.6760 C   0  0  0  0  0  0  0  0  0  0  0  0
    1.7930   -4.2800   -1.4650 C   0  0  0  0  0  0  0  0  0  0  0  0
    2.0490   -5.4690   -1.1460 O   0  0  0  0  0  0  0  0  0  0  0  0
    2.7040   -3.6000   -2.2370 O   0  0  0  0  0  0  0  0  0  0  0  0
    0.6250   -2.0660   -2.5650 H   0  0  0  0  0  0  0  0  0  0  0  0
    0.5610   -3.6260    0.0820 H   0  0  0  0  0  0  0  0  0  0  0  0
   -0.4550   -5.4360   -0.9220 H   0  0  0  0  0  0  0  0  0  0  0  0
   -0.5750   -4.7140   -2.5310 H   0  0  0  0  0  0  0  0  0  0  0  0
   -2.3930   -5.0910    0.7860 H   0  0  0  0  0  0  0  0  0  0  0  0
   -4.5800   -3.6740    0.8120 H   0  0  0  0  0  0  0  0  0  0  0  0
   -5.6610   -1.7130   -0.7720 H   0  0  0  0  0  0  0  0  0  0  0  0
   -5.2360   -0.3640   -2.8490 H   0  0  0  0  0  0  0  0  0  0  0  0
   -3.1670   -0.7140   -4.1310 H   0  0  0  0  0  0  0  0  0  0  0  0
   -1.5460   -2.3800   -3.3750 H   0  0  0  0  0  0  0  0  0  0  0  0
  1  9  1  0  0  0  0
  2  3  1  0  0  0  0
  2  1  1  0  0  0  0
  3 14  1  0  0  0  0
  4 17  1  0  0  0  0
  4  2  1  0  0  0  0
  5 18  1  6  0  0  0
  5  4  1  0  0  0  0
  6  5  1  0  0  0  0
  6 19  1  0  0  0  0
  6 20  1  0  0  0  0
  7  5  1  0  0  0  0
  8  7  2  0  0  0  0
 10  1  1  0  0  0  0
 11  1  1  0  0  0  0
 12  2  1  0  0  0  0
 13  3  1  0  0  0  0
 15  3  1  0  0  0  0
 16  4  1  0  0  0  0
 21 27  1  0  0  0  0
 21 22  1  0  0  0  0
 22 29  1  6  0  0  0
 22 24  1  0  0  0  0
 22 23  1  0  0  0  0
 23 30  1  0  0  0  0
 23  7  1  0  0  0  0
 24 25  2  0  0  0  0
 26 21  1  0  0  0  0
 28 21  1  0  0  0  0
 31 32  1  0  0  0  0
 31 24  1  0  0  0  0
 32 47  1  1  0  0  0
 33 34  1  0  0  0  0
 33 32  1  0  0  0  0
 33 48  1  0  0  0  0
 34 35  2  0  0  0  0
 35 36  1  0  0  0  0
 35 50  1  0  0  0  0
 36 51  1  0  0  0  0
 37 36  1  0  0  0  0
 38 37  1  0  0  0  0
 38 52  1  0  0  0  0
 39 38  2  0  0  0  0
 40 41  2  0  0  0  0
 40 39  1  0  0  0  0
 41 42  1  0  0  0  0
 42 34  1  0  0  0  0
 42 37  2  0  0  0  0
 43 44  1  0  0  0  0
 43 32  1  0  0  0  0
 45 43  2  0  0  0  0
 46 31  1  0  0  0  0
 49 33  1  0  0  0  0
 53 39  1  0  0  0  0
 54 40  1  0  0  0  0
 55 41  1  0  0  0  0
M  END
$$$$
