LAY.pdb
 OpenBabel07022418443D

 52 52  0  0  1  0  0  0  0  0999 V2000
    1.4550    1.5990    3.8650 C   0  0  0  0  0  0  0  0  0  0  0  0
    1.3630    0.3570    3.0480 C   0  0  0  0  0  0  0  0  0  0  0  0
    0.0360    0.3240    2.3290 C   0  0  0  0  0  0  0  0  0  0  0  0
    2.5360   -0.0650    2.2840 C   0  0  0  0  0  0  0  0  0  0  0  0
    3.1620    0.7740    1.2710 C   0  0  2  0  0  0  0  0  0  0  0  0
    3.6630    2.0590    1.7470 N   0  0  0  0  0  0  0  0  0  0  0  0
    2.5390    0.9020   -0.0520 C   0  0  0  0  0  0  0  0  0  0  0  0
    2.5660    2.0150   -0.6910 O   0  0  0  0  0  0  0  0  0  0  0  0
    2.3630    1.6760    4.4870 H   0  0  0  0  0  0  0  0  0  0  0  0
    0.5930    1.5750    4.5910 H   0  0  0  0  0  0  0  0  0  0  0  0
    1.2820    2.5440    3.2710 H   0  0  0  0  0  0  0  0  0  0  0  0
    1.2250   -0.4740    3.8490 H   0  0  0  0  0  0  0  0  0  0  0  0
   -0.7910    0.5630    3.0670 H   0  0  0  0  0  0  0  0  0  0  0  0
   -0.1360   -0.7110    1.9480 H   0  0  0  0  0  0  0  0  0  0  0  0
   -0.0250    1.0960    1.5470 H   0  0  0  0  0  0  0  0  0  0  0  0
    2.2590   -1.0470    1.7760 H   0  0  0  0  0  0  0  0  0  0  0  0
    3.3420   -0.4240    3.0120 H   0  0  0  0  0  0  0  0  0  0  0  0
    4.1650    0.2390    1.0250 H   0  0  0  0  0  0  0  0  0  0  0  0
    3.9970    2.6290    0.9380 H   0  0  0  0  0  0  0  0  0  0  0  0
    4.5070    1.9150    2.3620 H   0  0  0  0  0  0  0  0  0  0  0  0
    2.1740   -0.8440   -2.9520 C   0  0  0  0  0  0  0  0  0  0  0  0
    1.3340    0.0310   -2.0070 C   0  0  2  0  0  0  0  0  0  0  0  0
    1.8820   -0.1650   -0.7100 N   0  0  0  0  0  0  0  0  0  0  0  0
   -0.0920   -0.1840   -2.1980 C   0  0  0  0  0  0  0  0  0  0  0  0
   -0.5990    0.0140   -3.3640 O   0  0  0  0  0  0  0  0  0  0  0  0
    3.0770   -1.2220   -2.4790 H   0  0  0  0  0  0  0  0  0  0  0  0
    1.4840   -1.6820   -3.2580 H   0  0  0  0  0  0  0  0  0  0  0  0
    2.4030   -0.2930   -3.8830 H   0  0  0  0  0  0  0  0  0  0  0  0
    1.5580    1.0870   -2.3540 H   0  0  0  0  0  0  0  0  0  0  0  0
    1.7910   -1.1040   -0.2620 H   0  0  0  0  0  0  0  0  0  0  0  0
   -1.7720   -4.2120    3.8390 O   0  0  0  0  0  0  0  0  0  0  0  0
   -2.0640   -3.7220    2.5730 C   0  0  0  0  0  0  0  0  0  0  0  0
   -3.2810   -3.1410    2.2460 C   0  0  0  0  0  0  0  0  0  0  0  0
   -3.5890   -2.6490    0.9980 C   0  0  0  0  0  0  0  0  0  0  0  0
   -2.6340   -2.7400    0.0160 C   0  0  0  0  0  0  0  0  0  0  0  0
   -2.8690   -2.2320   -1.3550 C   0  0  0  0  0  0  0  0  0  0  0  0
   -2.4500   -0.7850   -1.5130 C   0  0  2  0  0  0  0  0  0  0  0  0
   -1.0440   -0.5990   -1.2360 N   0  0  0  0  0  0  0  0  0  0  0  0
   -3.3300    0.1440   -0.7990 C   0  0  0  0  0  0  0  0  0  0  0  0
   -2.8830    1.0050   -0.0250 O   0  0  0  0  0  0  0  0  0  0  0  0
   -1.4110   -3.3160    0.3150 C   0  0  0  0  0  0  0  0  0  0  0  0
   -1.1140   -3.8040    1.5680 C   0  0  0  0  0  0  0  0  0  0  0  0
   -4.6940    0.0660   -0.9910 O   0  0  0  0  0  0  0  0  0  0  0  0
   -2.1520   -3.6970    4.6430 H   0  0  0  0  0  0  0  0  0  0  0  0
   -4.0150   -3.0900    3.0600 H   0  0  0  0  0  0  0  0  0  0  0  0
   -4.5640   -2.1990    0.7960 H   0  0  0  0  0  0  0  0  0  0  0  0
   -2.3380   -2.8560   -2.0970 H   0  0  0  0  0  0  0  0  0  0  0  0
   -3.9560   -2.2910   -1.5690 H   0  0  0  0  0  0  0  0  0  0  0  0
   -2.5760   -0.5560   -2.6070 H   0  0  0  0  0  0  0  0  0  0  0  0
   -0.7190   -0.7820   -0.2840 H   0  0  0  0  0  0  0  0  0  0  0  0
   -0.6410   -3.4000   -0.4480 H   0  0  0  0  0  0  0  0  0  0  0  0
   -0.1410   -4.2440    1.7440 H   0  0  0  0  0  0  0  0  0  0  0  0
  1  9  1  0  0  0  0
  1 10  1  0  0  0  0
  2 12  1  0  0  0  0
  2  1  1  0  0  0  0
  3  2  1  0  0  0  0
  3 13  1  0  0  0  0
  4 17  1  0  0  0  0
  4  2  1  0  0  0  0
  5 18  1  6  0  0  0
  5  6  1  0  0  0  0
  5  4  1  0  0  0  0
  6 20  1  0  0  0  0
  7  5  1  0  0  0  0
  8  7  2  0  0  0  0
 11  1  1  0  0  0  0
 14  3  1  0  0  0  0
 15  3  1  0  0  0  0
 16  4  1  0  0  0  0
 19  6  1  0  0  0  0
 21 26  1  0  0  0  0
 21 22  1  0  0  0  0
 22 29  1  6  0  0  0
 22 23  1  0  0  0  0
 23 30  1  0  0  0  0
 23  7  1  0  0  0  0
 24 22  1  0  0  0  0
 24 38  1  0  0  0  0
 25 24  2  0  0  0  0
 27 21  1  0  0  0  0
 28 21  1  0  0  0  0
 31 44  1  0  0  0  0
 32 31  1  0  0  0  0
 33 32  1  0  0  0  0
 33 45  1  0  0  0  0
 34 33  2  0  0  0  0
 35 41  2  0  0  0  0
 35 34  1  0  0  0  0
 36 35  1  0  0  0  0
 37 49  1  6  0  0  0
 37 36  1  0  0  0  0
 37 38  1  0  0  0  0
 37 39  1  0  0  0  0
 38 50  1  0  0  0  0
 39 40  1  0  0  0  0
 41 42  1  0  0  0  0
 42 52  1  0  0  0  0
 42 32  2  0  0  0  0
 43 39  2  0  0  0  0
 46 34  1  0  0  0  0
 47 36  1  0  0  0  0
 48 36  1  0  0  0  0
 51 41  1  0  0  0  0
M  END
$$$$
