LCA.pdb
 OpenBabel07022418453D

 42 41  0  0  1  0  0  0  0  0999 V2000
   -1.6880   -4.9450    1.5680 C   0  0  0  0  0  0  0  0  0  0  0  0
   -0.6310   -4.8580    0.5050 C   0  0  0  0  0  0  0  0  0  0  0  0
   -1.2440   -4.6030   -0.8530 C   0  0  0  0  0  0  0  0  0  0  0  0
    0.4370   -3.8420    0.8370 C   0  0  0  0  0  0  0  0  0  0  0  0
   -0.1060   -2.4600    0.9960 C   0  0  2  0  0  0  0  0  0  0  0  0
   -0.7360   -2.0400   -0.2180 N   0  0  0  0  0  0  0  0  0  0  0  0
    1.0190   -1.5690    1.3910 C   0  0  0  0  0  0  0  0  0  0  0  0
    1.6880   -1.7870    2.4330 O   0  0  0  0  0  0  0  0  0  0  0  0
   -1.3070   -4.5300    2.5150 H   0  0  0  0  0  0  0  0  0  0  0  0
   -1.9550   -6.0130    1.7060 H   0  0  0  0  0  0  0  0  0  0  0  0
   -2.6440   -4.4500    1.2360 H   0  0  0  0  0  0  0  0  0  0  0  0
   -0.1050   -5.8530    0.4270 H   0  0  0  0  0  0  0  0  0  0  0  0
   -1.5790   -5.6000   -1.2600 H   0  0  0  0  0  0  0  0  0  0  0  0
   -2.1070   -3.9120   -0.7450 H   0  0  0  0  0  0  0  0  0  0  0  0
   -0.4530   -4.2100   -1.5230 H   0  0  0  0  0  0  0  0  0  0  0  0
    1.0030   -4.1990    1.7190 H   0  0  0  0  0  0  0  0  0  0  0  0
    1.1720   -3.8760   -0.0150 H   0  0  0  0  0  0  0  0  0  0  0  0
   -0.8920   -2.4950    1.7860 H   0  0  0  0  0  0  0  0  0  0  0  0
   -1.3480   -1.2110   -0.0550 H   0  0  0  0  0  0  0  0  0  0  0  0
   -0.0650   -1.8990   -1.0050 H   0  0  0  0  0  0  0  0  0  0  0  0
    1.3970   -0.4320    0.6190 N   0  0  0  0  0  0  0  0  0  0  0  0
    2.4920    0.4370    1.0010 C   0  0  1  0  0  0  0  0  0  0  0  0
    3.5780    0.4010   -0.0560 C   0  0  0  0  0  0  0  0  0  0  0  0
    4.9690    1.4510    0.3440 S   0  0  0  0  0  0  0  0  0  0  0  0
    2.0320    1.8270    1.2420 C   0  0  0  0  0  0  0  0  0  0  0  0
    2.8670    2.6850    1.5780 O   0  0  0  0  0  0  0  0  0  0  0  0
    0.8660   -0.2210   -0.2500 H   0  0  0  0  0  0  0  0  0  0  0  0
    2.9580    0.0830    1.9450 H   0  0  0  0  0  0  0  0  0  0  0  0
    3.0890    0.7720   -1.0000 H   0  0  0  0  0  0  0  0  0  0  0  0
    3.9270   -0.6190   -0.2610 H   0  0  0  0  0  0  0  0  0  0  0  0
    5.2840    1.4720    1.7010 H   0  0  0  0  0  0  0  0  0  0  0  0
   -0.4650    4.1670    0.1310 C   0  0  0  0  0  0  0  0  0  0  0  0
    0.2240    3.5930    1.3420 C   0  0  2  0  0  0  0  0  0  0  0  0
    0.6810    2.2300    1.1070 N   0  0  0  0  0  0  0  0  0  0  0  0
   -0.7560    3.5430    2.4500 C   0  0  0  0  0  0  0  0  0  0  0  0
   -1.0810    2.4720    3.0300 O   0  0  0  0  0  0  0  0  0  0  0  0
   -1.3900    4.7010    2.9240 O   0  0  0  0  0  0  0  0  0  0  0  0
   -1.2310    4.8800    0.5020 H   0  0  0  0  0  0  0  0  0  0  0  0
    0.2300    4.7480   -0.5050 H   0  0  0  0  0  0  0  0  0  0  0  0
   -1.0220    3.3850   -0.4390 H   0  0  0  0  0  0  0  0  0  0  0  0
    1.0390    4.2590    1.6310 H   0  0  0  0  0  0  0  0  0  0  0  0
   -0.0090    1.5000    0.8240 H   0  0  0  0  0  0  0  0  0  0  0  0
  1 10  1  0  0  0  0
  1  9  1  0  0  0  0
  2  4  1  0  0  0  0
  2  1  1  0  0  0  0
  3 14  1  0  0  0  0
  3  2  1  0  0  0  0
  4  5  1  0  0  0  0
  4 16  1  0  0  0  0
  5  7  1  0  0  0  0
  5 18  1  1  0  0  0
  6 19  1  0  0  0  0
  6  5  1  0  0  0  0
  7  8  2  0  0  0  0
 11  1  1  0  0  0  0
 12  2  1  0  0  0  0
 13  3  1  0  0  0  0
 15  3  1  0  0  0  0
 17  4  1  0  0  0  0
 20  6  1  0  0  0  0
 21 22  1  0  0  0  0
 21  7  1  0  0  0  0
 22 25  1  0  0  0  0
 22 28  1  1  0  0  0
 23 24  1  0  0  0  0
 23 22  1  0  0  0  0
 24 31  1  0  0  0  0
 25 26  2  0  0  0  0
 27 21  1  0  0  0  0
 29 23  1  0  0  0  0
 30 23  1  0  0  0  0
 32 38  1  0  0  0  0
 32 33  1  0  0  0  0
 33 41  1  1  0  0  0
 33 35  1  0  0  0  0
 34 25  1  0  0  0  0
 34 33  1  0  0  0  0
 35 37  2  0  0  0  0
 35 36  1  0  0  0  0
 39 32  1  0  0  0  0
 40 32  1  0  0  0  0
 42 34  1  0  0  0  0
M  END
$$$$
