LCC.pdb
 OpenBabel07022418453D

 43 42  0  0  1  0  0  0  0  0999 V2000
   -2.5610   -2.9540    2.4010 C   0  0  0  0  0  0  0  0  0  0  0  0
   -1.2330   -3.4400    1.8300 C   0  0  0  0  0  0  0  0  0  0  0  0
   -0.6110   -4.4540    2.7510 C   0  0  0  0  0  0  0  0  0  0  0  0
   -0.3290   -2.2720    1.5100 C   0  0  0  0  0  0  0  0  0  0  0  0
    0.9610   -2.7490    0.9450 C   0  0  2  0  0  0  0  0  0  0  0  0
    1.6480   -3.5960    1.8840 N   0  0  0  0  0  0  0  0  0  0  0  0
    1.8590   -1.6520    0.5150 C   0  0  0  0  0  0  0  0  0  0  0  0
    3.0250   -1.5820    0.9810 O   0  0  0  0  0  0  0  0  0  0  0  0
   -2.8380   -2.0510    1.8420 H   0  0  0  0  0  0  0  0  0  0  0  0
   -3.2950   -3.7630    2.2310 H   0  0  0  0  0  0  0  0  0  0  0  0
   -2.4830   -2.7080    3.4790 H   0  0  0  0  0  0  0  0  0  0  0  0
   -1.5010   -3.9850    0.8850 H   0  0  0  0  0  0  0  0  0  0  0  0
   -1.4670   -5.0230    3.1940 H   0  0  0  0  0  0  0  0  0  0  0  0
   -0.0450   -5.2010    2.1580 H   0  0  0  0  0  0  0  0  0  0  0  0
    0.0210   -4.0050    3.5340 H   0  0  0  0  0  0  0  0  0  0  0  0
   -0.8490   -1.5330    0.8590 H   0  0  0  0  0  0  0  0  0  0  0  0
   -0.1520   -1.7280    2.4870 H   0  0  0  0  0  0  0  0  0  0  0  0
    0.7000   -3.4220    0.0740 H   0  0  0  0  0  0  0  0  0  0  0  0
    2.2860   -4.2830    1.4430 H   0  0  0  0  0  0  0  0  0  0  0  0
    2.1680   -3.0660    2.6190 H   0  0  0  0  0  0  0  0  0  0  0  0
    1.4800   -0.6460   -0.4150 N   0  0  0  0  0  0  0  0  0  0  0  0
    2.3330    0.4230   -0.8440 C   0  0  1  0  0  0  0  0  0  0  0  0
    2.6650    0.3590   -2.3150 C   0  0  0  0  0  0  0  0  0  0  0  0
    3.5090   -1.1700   -2.7190 S   0  0  0  0  0  0  0  0  0  0  0  0
    1.8040    1.7620   -0.4850 C   0  0  0  0  0  0  0  0  0  0  0  0
    2.4610    2.7890   -0.8020 O   0  0  0  0  0  0  0  0  0  0  0  0
    0.4930   -0.7280   -0.7930 H   0  0  0  0  0  0  0  0  0  0  0  0
    3.3020    0.3050   -0.3070 H   0  0  0  0  0  0  0  0  0  0  0  0
    3.3050    1.2250   -2.5610 H   0  0  0  0  0  0  0  0  0  0  0  0
    1.7230    0.4910   -2.8840 H   0  0  0  0  0  0  0  0  0  0  0  0
    4.8760   -0.9140   -2.8670 H   0  0  0  0  0  0  0  0  0  0  0  0
    0.5830    1.9760    0.2050 N   0  0  0  0  0  0  0  0  0  0  0  0
    0.1500    3.3420    0.5130 C   0  0  1  0  0  0  0  0  0  0  0  0
   -1.1620    3.5390   -0.2480 C   0  0  0  0  0  0  0  0  0  0  0  0
   -2.3140    2.2840    0.3770 S   0  0  0  0  0  0  0  0  0  0  0  0
   -0.1190    3.4730    1.9590 C   0  0  0  0  0  0  0  0  0  0  0  0
    0.0050    2.5430    2.7950 O   0  0  0  0  0  0  0  0  0  0  0  0
   -0.5370    4.7060    2.4360 O   0  0  0  0  0  0  0  0  0  0  0  0
    0.0270    1.1490    0.4750 H   0  0  0  0  0  0  0  0  0  0  0  0
    0.9010    4.0730    0.1370 H   0  0  0  0  0  0  0  0  0  0  0  0
   -1.5540    4.5540   -0.1560 H   0  0  0  0  0  0  0  0  0  0  0  0
   -0.8970    3.3180   -1.3220 H   0  0  0  0  0  0  0  0  0  0  0  0
   -2.0230    1.0720   -0.2680 H   0  0  0  0  0  0  0  0  0  0  0  0
  1 11  1  0  0  0  0
  2  1  1  0  0  0  0
  2  3  1  0  0  0  0
  3 13  1  0  0  0  0
  3 15  1  0  0  0  0
  4  2  1  0  0  0  0
  4 17  1  0  0  0  0
  5 18  1  6  0  0  0
  5  4  1  0  0  0  0
  5  6  1  0  0  0  0
  6 20  1  0  0  0  0
  7  5  1  0  0  0  0
  7  8  2  0  0  0  0
  9  1  1  0  0  0  0
 10  1  1  0  0  0  0
 12  2  1  0  0  0  0
 14  3  1  0  0  0  0
 16  4  1  0  0  0  0
 19  6  1  0  0  0  0
 21  7  1  0  0  0  0
 22 25  1  0  0  0  0
 22 21  1  0  0  0  0
 22 28  1  1  0  0  0
 23 22  1  0  0  0  0
 24 23  1  0  0  0  0
 25 32  1  0  0  0  0
 26 25  2  0  0  0  0
 27 21  1  0  0  0  0
 29 23  1  0  0  0  0
 30 23  1  0  0  0  0
 31 24  1  0  0  0  0
 32 39  1  0  0  0  0
 32 33  1  0  0  0  0
 33 40  1  6  0  0  0
 33 36  1  0  0  0  0
 34 41  1  0  0  0  0
 34 35  1  0  0  0  0
 34 33  1  0  0  0  0
 36 38  2  0  0  0  0
 36 37  1  0  0  0  0
 42 34  1  0  0  0  0
 43 35  1  0  0  0  0
M  END
$$$$
