LCD.pdb
 OpenBabel07022418453D

 45 44  0  0  1  0  0  0  0  0999 V2000
    0.6650   -4.2480   -0.6100 C   0  0  0  0  0  0  0  0  0  0  0  0
    1.2790   -3.6080    0.6290 C   0  0  0  0  0  0  0  0  0  0  0  0
    0.1880   -3.0120    1.4290 C   0  0  0  0  0  0  0  0  0  0  0  0
    2.3720   -2.7070    0.1740 C   0  0  0  0  0  0  0  0  0  0  0  0
    3.0960   -1.9830    1.2700 C   0  0  2  0  0  0  0  0  0  0  0  0
    3.7170   -2.9020    2.2110 N   0  0  0  0  0  0  0  0  0  0  0  0
    2.2850   -0.9550    1.9620 C   0  0  0  0  0  0  0  0  0  0  0  0
    2.1160   -1.0260    3.2060 O   0  0  0  0  0  0  0  0  0  0  0  0
    0.3920   -5.3110   -0.4070 H   0  0  0  0  0  0  0  0  0  0  0  0
   -0.2790   -3.7280   -0.8710 H   0  0  0  0  0  0  0  0  0  0  0  0
    1.3160   -4.1580   -1.4990 H   0  0  0  0  0  0  0  0  0  0  0  0
    1.7110   -4.4620    1.2190 H   0  0  0  0  0  0  0  0  0  0  0  0
    0.3490   -3.0350    2.5260 H   0  0  0  0  0  0  0  0  0  0  0  0
   -0.7270   -3.6620    1.2770 H   0  0  0  0  0  0  0  0  0  0  0  0
   -0.1240   -2.0120    1.0700 H   0  0  0  0  0  0  0  0  0  0  0  0
    1.9950   -1.9740   -0.5470 H   0  0  0  0  0  0  0  0  0  0  0  0
    3.1240   -3.3260   -0.3600 H   0  0  0  0  0  0  0  0  0  0  0  0
    3.9480   -1.4380    0.7930 H   0  0  0  0  0  0  0  0  0  0  0  0
    4.2580   -3.5810    1.6340 H   0  0  0  0  0  0  0  0  0  0  0  0
    4.4550   -2.3290    2.7100 H   0  0  0  0  0  0  0  0  0  0  0  0
    1.6680    0.1420    1.2910 N   0  0  0  0  0  0  0  0  0  0  0  0
    0.8950    1.0970    2.0450 C   0  0  1  0  0  0  0  0  0  0  0  0
    1.6120    2.4460    1.8910 C   0  0  0  0  0  0  0  0  0  0  0  0
    1.7030    2.9420    0.1560 S   0  0  0  0  0  0  0  0  0  0  0  0
   -0.4770    1.3360    1.4470 C   0  0  0  0  0  0  0  0  0  0  0  0
   -1.2550    2.1450    2.0270 O   0  0  0  0  0  0  0  0  0  0  0  0
    1.7910    0.2460    0.2520 H   0  0  0  0  0  0  0  0  0  0  0  0
    0.8460    0.8730    3.1120 H   0  0  0  0  0  0  0  0  0  0  0  0
    1.0600    3.2450    2.4390 H   0  0  0  0  0  0  0  0  0  0  0  0
    2.6550    2.3750    2.2660 H   0  0  0  0  0  0  0  0  0  0  0  0
    0.8460    4.0180   -0.1180 H   0  0  0  0  0  0  0  0  0  0  0  0
   -0.8960    0.6820    0.2730 N   0  0  0  0  0  0  0  0  0  0  0  0
   -2.1620    0.7930   -0.3810 C   0  0  1  0  0  0  0  0  0  0  0  0
   -3.2070    1.6260    0.3350 C   0  0  0  0  0  0  0  0  0  0  0  0
   -3.5410    0.9640    1.6140 C   0  0  0  0  0  0  0  0  0  0  0  0
   -3.0840   -0.1770    1.8650 O   0  0  0  0  0  0  0  0  0  0  0  0
   -2.1330    0.9830   -1.8280 C   0  0  0  0  0  0  0  0  0  0  0  0
   -3.1980    1.0880   -2.4830 O   0  0  0  0  0  0  0  0  0  0  0  0
   -4.3510    1.5910    2.5310 O   0  0  0  0  0  0  0  0  0  0  0  0
   -0.9250    1.0570   -2.5470 O   0  0  0  0  0  0  0  0  0  0  0  0
   -0.1420    0.0270   -0.1560 H   0  0  0  0  0  0  0  0  0  0  0  0
   -2.6050   -0.2890   -0.2170 H   0  0  0  0  0  0  0  0  0  0  0  0
   -2.8860    2.6730    0.4430 H   0  0  0  0  0  0  0  0  0  0  0  0
   -4.1150    1.5810   -0.3080 H   0  0  0  0  0  0  0  0  0  0  0  0
   -4.5160    1.2060    3.4320 H   0  0  0  0  0  0  0  0  0  0  0  0
  1  9  1  0  0  0  0
  1  2  1  0  0  0  0
  2 12  1  0  0  0  0
  2  3  1  0  0  0  0
  3 13  1  0  0  0  0
  4  2  1  0  0  0  0
  4  5  1  0  0  0  0
  5 18  1  6  0  0  0
  5  7  1  0  0  0  0
  5  6  1  0  0  0  0
  6 20  1  0  0  0  0
  7  8  2  0  0  0  0
 10  1  1  0  0  0  0
 11  1  1  0  0  0  0
 14  3  1  0  0  0  0
 15  3  1  0  0  0  0
 16  4  1  0  0  0  0
 17  4  1  0  0  0  0
 19  6  1  0  0  0  0
 21  7  1  0  0  0  0
 21 22  1  0  0  0  0
 22 28  1  1  0  0  0
 23 22  1  0  0  0  0
 23 30  1  0  0  0  0
 23 29  1  0  0  0  0
 24 23  1  0  0  0  0
 25 26  2  0  0  0  0
 25 22  1  0  0  0  0
 27 21  1  0  0  0  0
 31 24  1  0  0  0  0
 32 25  1  0  0  0  0
 33 42  1  1  0  0  0
 33 32  1  0  0  0  0
 33 34  1  0  0  0  0
 34 43  1  0  0  0  0
 34 35  1  0  0  0  0
 35 36  2  0  0  0  0
 35 39  1  0  0  0  0
 37 33  1  0  0  0  0
 38 37  1  0  0  0  0
 39 45  1  0  0  0  0
 40 37  2  0  0  0  0
 41 32  1  0  0  0  0
 44 34  1  0  0  0  0
M  END
$$$$
