LCE.pdb
 OpenBabel07022418453D

 48 47  0  0  1  0  0  0  0  0999 V2000
   -0.5160   -4.0910   -0.4010 C   0  0  0  0  0  0  0  0  0  0  0  0
    0.7740   -3.5490    0.2000 C   0  0  0  0  0  0  0  0  0  0  0  0
    0.5100   -2.9490    1.5260 C   0  0  0  0  0  0  0  0  0  0  0  0
    1.4580   -2.6170   -0.7330 C   0  0  0  0  0  0  0  0  0  0  0  0
    2.7160   -1.9990   -0.2590 C   0  0  2  0  0  0  0  0  0  0  0  0
    3.6330   -3.0920    0.0720 N   0  0  0  0  0  0  0  0  0  0  0  0
    2.6260   -0.9810    0.7860 C   0  0  0  0  0  0  0  0  0  0  0  0
    3.1860   -1.1780    1.8890 O   0  0  0  0  0  0  0  0  0  0  0  0
   -1.0420   -4.6380    0.4010 H   0  0  0  0  0  0  0  0  0  0  0  0
   -1.1230   -3.1930   -0.6940 H   0  0  0  0  0  0  0  0  0  0  0  0
   -0.3030   -4.7520   -1.2740 H   0  0  0  0  0  0  0  0  0  0  0  0
    1.4390   -4.4440    0.3550 H   0  0  0  0  0  0  0  0  0  0  0  0
    1.3460   -3.1860    2.2490 H   0  0  0  0  0  0  0  0  0  0  0  0
   -0.3970   -3.3740    2.0290 H   0  0  0  0  0  0  0  0  0  0  0  0
    0.3790   -1.8610    1.5050 H   0  0  0  0  0  0  0  0  0  0  0  0
    0.7260   -1.8080   -1.0360 H   0  0  0  0  0  0  0  0  0  0  0  0
    1.6510   -3.1740   -1.6820 H   0  0  0  0  0  0  0  0  0  0  0  0
    3.1770   -1.4820   -1.1740 H   0  0  0  0  0  0  0  0  0  0  0  0
    4.5360   -2.7410    0.4170 H   0  0  0  0  0  0  0  0  0  0  0  0
    3.6920   -3.7160   -0.7380 H   0  0  0  0  0  0  0  0  0  0  0  0
    1.9310    0.2510    0.6150 N   0  0  0  0  0  0  0  0  0  0  0  0
    1.8550    1.2700    1.6330 C   0  0  1  0  0  0  0  0  0  0  0  0
    2.5670    2.5400    1.1980 C   0  0  0  0  0  0  0  0  0  0  0  0
    2.4490    3.7780    2.4890 S   0  0  0  0  0  0  0  0  0  0  0  0
    0.4550    1.5600    2.0070 C   0  0  0  0  0  0  0  0  0  0  0  0
    0.1850    2.4480    2.8800 O   0  0  0  0  0  0  0  0  0  0  0  0
    1.4380    0.4300   -0.3060 H   0  0  0  0  0  0  0  0  0  0  0  0
    2.3920    0.9010    2.5360 H   0  0  0  0  0  0  0  0  0  0  0  0
    3.6340    2.2770    1.0300 H   0  0  0  0  0  0  0  0  0  0  0  0
    2.0770    2.9290    0.2910 H   0  0  0  0  0  0  0  0  0  0  0  0
    2.7210    3.2800    3.7720 H   0  0  0  0  0  0  0  0  0  0  0  0
   -0.6570    0.8950    1.4400 N   0  0  0  0  0  0  0  0  0  0  0  0
   -2.0140    1.1760    1.8040 C   0  0  1  0  0  0  0  0  0  0  0  0
   -2.9410    1.3360    0.6400 C   0  0  0  0  0  0  0  0  0  0  0  0
   -2.9960    0.0800   -0.2170 C   0  0  0  0  0  0  0  0  0  0  0  0
   -3.9180    0.2670   -1.3630 C   0  0  0  0  0  0  0  0  0  0  0  0
   -5.0910    0.6620   -1.1530 O   0  0  0  0  0  0  0  0  0  0  0  0
   -2.5080    0.0510    2.6600 C   0  0  0  0  0  0  0  0  0  0  0  0
   -3.6910    0.1150    3.0920 O   0  0  0  0  0  0  0  0  0  0  0  0
   -3.5470    0.0240   -2.6790 O   0  0  0  0  0  0  0  0  0  0  0  0
   -1.7240   -1.0110    2.9740 O   0  0  0  0  0  0  0  0  0  0  0  0
   -0.4840    0.1700    0.7180 H   0  0  0  0  0  0  0  0  0  0  0  0
   -2.0810    2.0770    2.4570 H   0  0  0  0  0  0  0  0  0  0  0  0
   -2.6360    2.1850   -0.0070 H   0  0  0  0  0  0  0  0  0  0  0  0
   -3.9710    1.4600    1.0400 H   0  0  0  0  0  0  0  0  0  0  0  0
   -3.3000   -0.8020    0.4180 H   0  0  0  0  0  0  0  0  0  0  0  0
   -2.0040   -0.1360   -0.5870 H   0  0  0  0  0  0  0  0  0  0  0  0
   -4.2210   -0.0010   -3.4470 H   0  0  0  0  0  0  0  0  0  0  0  0
  1  2  1  0  0  0  0
  1  9  1  0  0  0  0
  2 12  1  0  0  0  0
  2  3  1  0  0  0  0
  3 14  1  0  0  0  0
  3 13  1  0  0  0  0
  4  5  1  0  0  0  0
  4  2  1  0  0  0  0
  5 18  1  6  0  0  0
  5  6  1  0  0  0  0
  5  7  1  0  0  0  0
  6 19  1  0  0  0  0
  7  8  2  0  0  0  0
 10  1  1  0  0  0  0
 11  1  1  0  0  0  0
 15  3  1  0  0  0  0
 16  4  1  0  0  0  0
 17  4  1  0  0  0  0
 20  6  1  0  0  0  0
 21  7  1  0  0  0  0
 21 22  1  0  0  0  0
 22 25  1  0  0  0  0
 22 28  1  1  0  0  0
 23 22  1  0  0  0  0
 23 24  1  0  0  0  0
 24 31  1  0  0  0  0
 25 26  2  0  0  0  0
 27 21  1  0  0  0  0
 29 23  1  0  0  0  0
 30 23  1  0  0  0  0
 32 33  1  0  0  0  0
 32 25  1  0  0  0  0
 33 43  1  1  0  0  0
 33 38  1  0  0  0  0
 34 45  1  0  0  0  0
 34 33  1  0  0  0  0
 35 46  1  0  0  0  0
 35 34  1  0  0  0  0
 36 37  2  0  0  0  0
 36 35  1  0  0  0  0
 38 41  2  0  0  0  0
 38 39  1  0  0  0  0
 40 36  1  0  0  0  0
 42 32  1  0  0  0  0
 44 34  1  0  0  0  0
 47 35  1  0  0  0  0
 48 40  1  0  0  0  0
M  END
$$$$
