LCF.pdb
 OpenBabel07022418453D

 52 52  0  0  1  0  0  0  0  0999 V2000
    3.3810   -3.4850    1.7870 C   0  0  0  0  0  0  0  0  0  0  0  0
    2.5450   -2.8120    0.7320 C   0  0  0  0  0  0  0  0  0  0  0  0
    1.4800   -3.8290    0.3090 C   0  0  0  0  0  0  0  0  0  0  0  0
    1.8060   -1.6090    1.2480 C   0  0  0  0  0  0  0  0  0  0  0  0
    2.7180   -0.5410    1.7860 C   0  0  2  0  0  0  0  0  0  0  0  0
    3.5350   -0.9770    2.8780 N   0  0  0  0  0  0  0  0  0  0  0  0
    1.8580    0.5670    2.2800 C   0  0  0  0  0  0  0  0  0  0  0  0
    1.9120    0.9810    3.4840 O   0  0  0  0  0  0  0  0  0  0  0  0
    3.4390   -4.5960    1.6280 H   0  0  0  0  0  0  0  0  0  0  0  0
    4.4320   -3.1210    1.6390 H   0  0  0  0  0  0  0  0  0  0  0  0
    3.0000   -3.3300    2.7940 H   0  0  0  0  0  0  0  0  0  0  0  0
    3.0870   -2.5390   -0.1720 H   0  0  0  0  0  0  0  0  0  0  0  0
    1.8800   -4.8690    0.3890 H   0  0  0  0  0  0  0  0  0  0  0  0
    1.1150   -3.6000   -0.6940 H   0  0  0  0  0  0  0  0  0  0  0  0
    0.6200   -3.7270    1.0030 H   0  0  0  0  0  0  0  0  0  0  0  0
    1.0570   -1.8730    2.0080 H   0  0  0  0  0  0  0  0  0  0  0  0
    1.2580   -1.1690    0.3880 H   0  0  0  0  0  0  0  0  0  0  0  0
    3.3880   -0.1850    0.9760 H   0  0  0  0  0  0  0  0  0  0  0  0
    3.1250   -0.9040    3.8050 H   0  0  0  0  0  0  0  0  0  0  0  0
    4.5350   -0.7640    2.7870 H   0  0  0  0  0  0  0  0  0  0  0  0
    0.9200    1.2370    1.4430 N   0  0  0  0  0  0  0  0  0  0  0  0
    0.0780    2.3320    1.9510 C   0  0  1  0  0  0  0  0  0  0  0  0
    0.4780    3.5580    1.1200 C   0  0  0  0  0  0  0  0  0  0  0  0
    0.1760    3.2640   -0.6350 S   0  0  0  0  0  0  0  0  0  0  0  0
   -1.3500    2.0160    1.6870 C   0  0  0  0  0  0  0  0  0  0  0  0
   -2.2150    2.8500    2.0600 O   0  0  0  0  0  0  0  0  0  0  0  0
    0.8450    0.9280    0.4490 H   0  0  0  0  0  0  0  0  0  0  0  0
    0.2850    2.5210    3.0040 H   0  0  0  0  0  0  0  0  0  0  0  0
    1.5780    3.6770    1.2600 H   0  0  0  0  0  0  0  0  0  0  0  0
   -0.0060    4.4730    1.4870 H   0  0  0  0  0  0  0  0  0  0  0  0
    1.1960    2.5060   -1.2270 H   0  0  0  0  0  0  0  0  0  0  0  0
   -1.7950    0.8400    1.0440 N   0  0  0  0  0  0  0  0  0  0  0  0
   -3.1820    0.5370    0.7900 C   0  0  1  0  0  0  0  0  0  0  0  0
   -3.4460    0.3450   -0.6930 C   0  0  0  0  0  0  0  0  0  0  0  0
   -2.6530   -0.7560   -1.2720 C   0  0  0  0  0  0  0  0  0  0  0  0
   -3.1210   -2.0440   -1.3200 C   0  0  0  0  0  0  0  0  0  0  0  0
   -2.3520   -3.0410   -1.8660 C   0  0  0  0  0  0  0  0  0  0  0  0
   -1.0990   -2.7800   -2.3760 C   0  0  0  0  0  0  0  0  0  0  0  0
   -0.6300   -1.4890   -2.3280 C   0  0  0  0  0  0  0  0  0  0  0  0
   -1.3990   -0.4970   -1.7830 C   0  0  0  0  0  0  0  0  0  0  0  0
   -3.6050   -0.6930    1.4990 C   0  0  0  0  0  0  0  0  0  0  0  0
   -2.7880   -1.3560    2.2130 O   0  0  0  0  0  0  0  0  0  0  0  0
   -4.8980   -1.1870    1.4300 O   0  0  0  0  0  0  0  0  0  0  0  0
   -1.0900    0.1330    0.7260 H   0  0  0  0  0  0  0  0  0  0  0  0
   -3.8000    1.3640    1.1800 H   0  0  0  0  0  0  0  0  0  0  0  0
   -4.5180    0.1370   -0.8700 H   0  0  0  0  0  0  0  0  0  0  0  0
   -3.1950    1.3210   -1.1990 H   0  0  0  0  0  0  0  0  0  0  0  0
   -4.0900   -2.2940   -0.9380 H   0  0  0  0  0  0  0  0  0  0  0  0
   -2.7100   -4.0820   -1.9140 H   0  0  0  0  0  0  0  0  0  0  0  0
   -0.4740   -3.5440   -2.8110 H   0  0  0  0  0  0  0  0  0  0  0  0
    0.3590   -1.2560   -2.7260 H   0  0  0  0  0  0  0  0  0  0  0  0
   -0.9820    0.5250   -1.7650 H   0  0  0  0  0  0  0  0  0  0  0  0
  1 11  1  0  0  0  0
  2  4  1  0  0  0  0
  2  1  1  0  0  0  0
  3 13  1  0  0  0  0
  3  2  1  0  0  0  0
  3 15  1  0  0  0  0
  4  5  1  0  0  0  0
  4 16  1  0  0  0  0
  5 18  1  6  0  0  0
  5  7  1  0  0  0  0
  5  6  1  0  0  0  0
  6 19  1  0  0  0  0
  7  8  2  0  0  0  0
  9  1  1  0  0  0  0
 10  1  1  0  0  0  0
 12  2  1  0  0  0  0
 14  3  1  0  0  0  0
 17  4  1  0  0  0  0
 20  6  1  0  0  0  0
 21 22  1  0  0  0  0
 21  7  1  0  0  0  0
 22 28  1  1  0  0  0
 23 29  1  0  0  0  0
 23 30  1  0  0  0  0
 23 22  1  0  0  0  0
 24 23  1  0  0  0  0
 25 22  1  0  0  0  0
 25 26  2  0  0  0  0
 27 21  1  0  0  0  0
 31 24  1  0  0  0  0
 32 25  1  0  0  0  0
 33 32  1  0  0  0  0
 33 45  1  1  0  0  0
 33 41  1  0  0  0  0
 34 33  1  0  0  0  0
 35 34  1  0  0  0  0
 36 35  1  0  0  0  0
 36 48  1  0  0  0  0
 37 36  2  0  0  0  0
 38 39  2  0  0  0  0
 38 37  1  0  0  0  0
 39 40  1  0  0  0  0
 40 52  1  0  0  0  0
 40 35  2  0  0  0  0
 41 42  1  0  0  0  0
 43 41  2  0  0  0  0
 44 32  1  0  0  0  0
 46 34  1  0  0  0  0
 47 34  1  0  0  0  0
 49 37  1  0  0  0  0
 50 38  1  0  0  0  0
 51 39  1  0  0  0  0
M  END
$$$$
