LCH.pdb
 OpenBabel07022418453D

 49 49  0  0  1  0  0  0  0  0999 V2000
    1.3000   -3.9700   -2.4530 C   0  0  0  0  0  0  0  0  0  0  0  0
    1.2050   -3.9830   -0.9660 C   0  0  0  0  0  0  0  0  0  0  0  0
   -0.1380   -4.5380   -0.5500 C   0  0  0  0  0  0  0  0  0  0  0  0
    1.4590   -2.6400   -0.3360 C   0  0  0  0  0  0  0  0  0  0  0  0
    2.8100   -2.0890   -0.6350 C   0  0  2  0  0  0  0  0  0  0  0  0
    3.8730   -2.9570   -0.1620 N   0  0  0  0  0  0  0  0  0  0  0  0
    2.9610   -0.7690    0.0560 C   0  0  0  0  0  0  0  0  0  0  0  0
    3.8980   -0.5640    0.8890 O   0  0  0  0  0  0  0  0  0  0  0  0
    0.6230   -3.2250   -2.9220 H   0  0  0  0  0  0  0  0  0  0  0  0
    2.3410   -3.9000   -2.8290 H   0  0  0  0  0  0  0  0  0  0  0  0
    0.9210   -4.9690   -2.8120 H   0  0  0  0  0  0  0  0  0  0  0  0
    1.9750   -4.6780   -0.5710 H   0  0  0  0  0  0  0  0  0  0  0  0
   -0.2810   -4.2750    0.5320 H   0  0  0  0  0  0  0  0  0  0  0  0
   -0.9500   -4.1440   -1.1810 H   0  0  0  0  0  0  0  0  0  0  0  0
   -0.0920   -5.6420   -0.6400 H   0  0  0  0  0  0  0  0  0  0  0  0
    1.2560   -2.6530    0.7360 H   0  0  0  0  0  0  0  0  0  0  0  0
    0.7090   -1.9350   -0.7890 H   0  0  0  0  0  0  0  0  0  0  0  0
    2.8930   -1.9080   -1.7240 H   0  0  0  0  0  0  0  0  0  0  0  0
    3.8650   -3.8860   -0.5970 H   0  0  0  0  0  0  0  0  0  0  0  0
    3.9160   -2.9510    0.8640 H   0  0  0  0  0  0  0  0  0  0  0  0
    2.0890    0.3160   -0.1680 N   0  0  0  0  0  0  0  0  0  0  0  0
    2.2470    1.5710    0.5000 C   0  0  1  0  0  0  0  0  0  0  0  0
    2.4720    2.7280   -0.4400 C   0  0  0  0  0  0  0  0  0  0  0  0
    3.9710    2.4700   -1.4270 S   0  0  0  0  0  0  0  0  0  0  0  0
    1.0250    1.8200    1.3110 C   0  0  0  0  0  0  0  0  0  0  0  0
    0.9040    2.8800    2.0150 O   0  0  0  0  0  0  0  0  0  0  0  0
    1.3050    0.1900   -0.8450 H   0  0  0  0  0  0  0  0  0  0  0  0
    3.1310    1.5030    1.1730 H   0  0  0  0  0  0  0  0  0  0  0  0
    2.6890    3.6200    0.2180 H   0  0  0  0  0  0  0  0  0  0  0  0
    1.5990    2.9960   -1.0330 H   0  0  0  0  0  0  0  0  0  0  0  0
    3.6720    1.9490   -2.7030 H   0  0  0  0  0  0  0  0  0  0  0  0
   -0.0440    0.9150    1.3440 N   0  0  0  0  0  0  0  0  0  0  0  0
   -1.2640    1.1030    2.1170 C   0  0  1  0  0  0  0  0  0  0  0  0
   -2.4760    1.1170    1.2620 C   0  0  0  0  0  0  0  0  0  0  0  0
   -3.6840    1.3100    2.0820 C   0  0  0  0  0  0  0  0  0  0  0  0
   -4.5460    0.3960    2.6430 C   0  0  0  0  0  0  0  0  0  0  0  0
   -5.5530    1.0310    3.2990 N   0  0  0  0  0  0  0  0  0  0  0  0
   -5.3330    2.3450    3.1540 C   0  0  0  0  0  0  0  0  0  0  0  0
   -4.2160    2.5210    2.4260 N   0  0  0  0  0  0  0  0  0  0  0  0
   -1.3280    0.0100    3.1000 C   0  0  0  0  0  0  0  0  0  0  0  0
   -2.2250   -0.0860    3.9750 O   0  0  0  0  0  0  0  0  0  0  0  0
   -0.3680   -1.0140    3.1170 O   0  0  0  0  0  0  0  0  0  0  0  0
    0.0170    0.0410    0.7850 H   0  0  0  0  0  0  0  0  0  0  0  0
   -1.2360    2.0630    2.6840 H   0  0  0  0  0  0  0  0  0  0  0  0
   -2.6260    0.1540    0.7060 H   0  0  0  0  0  0  0  0  0  0  0  0
   -2.4680    1.9700    0.5180 H   0  0  0  0  0  0  0  0  0  0  0  0
   -4.4630   -0.6720    2.5820 H   0  0  0  0  0  0  0  0  0  0  0  0
   -6.3420    0.5690    3.8130 H   0  0  0  0  0  0  0  0  0  0  0  0
   -5.9560    3.1250    3.5590 H   0  0  0  0  0  0  0  0  0  0  0  0
  1  2  1  0  0  0  0
  2 12  1  0  0  0  0
  2  3  1  0  0  0  0
  2  4  1  0  0  0  0
  3 13  1  0  0  0  0
  4 16  1  0  0  0  0
  5 18  1  6  0  0  0
  5  4  1  0  0  0  0
  5  6  1  0  0  0  0
  5  7  1  0  0  0  0
  6 20  1  0  0  0  0
  7  8  2  0  0  0  0
  9  1  1  0  0  0  0
 10  1  1  0  0  0  0
 11  1  1  0  0  0  0
 14  3  1  0  0  0  0
 15  3  1  0  0  0  0
 17  4  1  0  0  0  0
 19  6  1  0  0  0  0
 21  7  1  0  0  0  0
 21 22  1  0  0  0  0
 22 28  1  1  0  0  0
 22 25  1  0  0  0  0
 23 29  1  0  0  0  0
 23 22  1  0  0  0  0
 24 23  1  0  0  0  0
 25 32  1  0  0  0  0
 25 26  2  0  0  0  0
 27 21  1  0  0  0  0
 30 23  1  0  0  0  0
 31 24  1  0  0  0  0
 32 33  1  0  0  0  0
 33 44  1  1  0  0  0
 33 40  1  0  0  0  0
 34 35  1  0  0  0  0
 34 33  1  0  0  0  0
 35 39  1  0  0  0  0
 35 36  2  0  0  0  0
 36 37  1  0  0  0  0
 37 48  1  0  0  0  0
 38 37  1  0  0  0  0
 38 49  1  0  0  0  0
 39 38  2  0  0  0  0
 40 42  2  0  0  0  0
 40 41  1  0  0  0  0
 43 32  1  0  0  0  0
 45 34  1  0  0  0  0
 46 34  1  0  0  0  0
 47 36  1  0  0  0  0
M  END
$$$$
