LCL.pdb
 OpenBabel07022418453D

 51 50  0  0  1  0  0  0  0  0999 V2000
    4.2800   -5.2510    2.0700 C   0  0  0  0  0  0  0  0  0  0  0  0
    3.6830   -4.1980    1.1240 C   0  0  0  0  0  0  0  0  0  0  0  0
    3.6990   -2.9060    1.8990 C   0  0  0  0  0  0  0  0  0  0  0  0
    2.3230   -4.6820    0.7660 C   0  0  0  0  0  0  0  0  0  0  0  0
    1.5400   -3.8070   -0.1630 C   0  0  2  0  0  0  0  0  0  0  0  0
    2.1630   -3.5970   -1.4280 N   0  0  0  0  0  0  0  0  0  0  0  0
    1.0580   -2.6140    0.5180 C   0  0  0  0  0  0  0  0  0  0  0  0
    0.5190   -2.7510    1.6470 O   0  0  0  0  0  0  0  0  0  0  0  0
    4.9750   -4.7790    2.8000 H   0  0  0  0  0  0  0  0  0  0  0  0
    3.4440   -5.6650    2.6720 H   0  0  0  0  0  0  0  0  0  0  0  0
    4.7640   -6.0620    1.4890 H   0  0  0  0  0  0  0  0  0  0  0  0
    4.3790   -4.1740    0.2460 H   0  0  0  0  0  0  0  0  0  0  0  0
    3.5200   -2.0230    1.2810 H   0  0  0  0  0  0  0  0  0  0  0  0
    3.0550   -3.0200    2.7700 H   0  0  0  0  0  0  0  0  0  0  0  0
    4.7420   -2.7690    2.3120 H   0  0  0  0  0  0  0  0  0  0  0  0
    1.7550   -4.8500    1.6990 H   0  0  0  0  0  0  0  0  0  0  0  0
    2.4470   -5.6990    0.3100 H   0  0  0  0  0  0  0  0  0  0  0  0
    0.6050   -4.4090   -0.4030 H   0  0  0  0  0  0  0  0  0  0  0  0
    1.4930   -3.4050   -2.2050 H   0  0  0  0  0  0  0  0  0  0  0  0
    2.9450   -2.9490   -1.4520 H   0  0  0  0  0  0  0  0  0  0  0  0
    1.1440   -1.2900    0.0150 N   0  0  0  0  0  0  0  0  0  0  0  0
    0.6590   -0.1340    0.7120 C   0  0  1  0  0  0  0  0  0  0  0  0
    1.7570    0.8330    1.1070 C   0  0  0  0  0  0  0  0  0  0  0  0
    2.6620    1.4600   -0.3120 S   0  0  0  0  0  0  0  0  0  0  0  0
   -0.4500    0.5440   -0.0070 C   0  0  0  0  0  0  0  0  0  0  0  0
   -0.8660    0.0910   -1.1060 O   0  0  0  0  0  0  0  0  0  0  0  0
    1.6030   -1.2040   -0.9360 H   0  0  0  0  0  0  0  0  0  0  0  0
    0.2240   -0.5050    1.6830 H   0  0  0  0  0  0  0  0  0  0  0  0
    2.4560    0.3100    1.7870 H   0  0  0  0  0  0  0  0  0  0  0  0
    1.2870    1.6370    1.7110 H   0  0  0  0  0  0  0  0  0  0  0  0
    2.1380    2.7290   -0.6350 H   0  0  0  0  0  0  0  0  0  0  0  0
   -4.2660    0.1900   -0.1310 C   0  0  0  0  0  0  0  0  0  0  0  0
   -3.9480    1.1050    1.0110 C   0  0  0  0  0  0  0  0  0  0  0  0
   -5.1170    1.3230    1.9440 C   0  0  0  0  0  0  0  0  0  0  0  0
   -3.4290    2.4420    0.5690 C   0  0  0  0  0  0  0  0  0  0  0  0
   -2.1560    2.3330   -0.2380 C   0  0  2  0  0  0  0  0  0  0  0  0
   -1.0860    1.7120    0.4950 N   0  0  0  0  0  0  0  0  0  0  0  0
   -1.8040    3.7180   -0.6690 C   0  0  0  0  0  0  0  0  0  0  0  0
   -0.6660    4.1420   -0.3470 O   0  0  0  0  0  0  0  0  0  0  0  0
   -2.6440    4.5230   -1.3800 O   0  0  0  0  0  0  0  0  0  0  0  0
   -4.6410    0.7260   -1.0290 H   0  0  0  0  0  0  0  0  0  0  0  0
   -5.1350   -0.4530    0.1980 H   0  0  0  0  0  0  0  0  0  0  0  0
   -3.4420   -0.4980   -0.3420 H   0  0  0  0  0  0  0  0  0  0  0  0
   -3.1160    0.6160    1.5940 H   0  0  0  0  0  0  0  0  0  0  0  0
   -6.0900    1.0220    1.4560 H   0  0  0  0  0  0  0  0  0  0  0  0
   -4.9720    0.7010    2.8730 H   0  0  0  0  0  0  0  0  0  0  0  0
   -5.2290    2.3890    2.2170 H   0  0  0  0  0  0  0  0  0  0  0  0
   -3.3160    3.1160    1.4170 H   0  0  0  0  0  0  0  0  0  0  0  0
   -4.1980    2.8850   -0.1130 H   0  0  0  0  0  0  0  0  0  0  0  0
   -2.3450    1.7620   -1.1560 H   0  0  0  0  0  0  0  0  0  0  0  0
   -0.7370    2.0980    1.4230 H   0  0  0  0  0  0  0  0  0  0  0  0
  1 10  1  0  0  0  0
  1  9  1  0  0  0  0
  2  3  1  0  0  0  0
  2  1  1  0  0  0  0
  3 15  1  0  0  0  0
  3 14  1  0  0  0  0
  4  2  1  0  0  0  0
  4 16  1  0  0  0  0
  5 18  1  6  0  0  0
  5  7  1  0  0  0  0
  5  4  1  0  0  0  0
  6  5  1  0  0  0  0
  7  8  2  0  0  0  0
 11  1  1  0  0  0  0
 12  2  1  0  0  0  0
 13  3  1  0  0  0  0
 17  4  1  0  0  0  0
 19  6  1  0  0  0  0
 20  6  1  0  0  0  0
 21  7  1  0  0  0  0
 21 22  1  0  0  0  0
 22 23  1  0  0  0  0
 22 28  1  1  0  0  0
 23 30  1  0  0  0  0
 23 29  1  0  0  0  0
 24 23  1  0  0  0  0
 25 37  1  0  0  0  0
 25 22  1  0  0  0  0
 26 25  2  0  0  0  0
 27 21  1  0  0  0  0
 31 24  1  0  0  0  0
 32 42  1  0  0  0  0
 32 33  1  0  0  0  0
 33 44  1  0  0  0  0
 33 34  1  0  0  0  0
 34 47  1  0  0  0  0
 34 46  1  0  0  0  0
 35 33  1  0  0  0  0
 35 48  1  0  0  0  0
 36 50  1  6  0  0  0
 36 37  1  0  0  0  0
 36 35  1  0  0  0  0
 37 51  1  0  0  0  0
 38 39  1  0  0  0  0
 38 36  1  0  0  0  0
 40 38  2  0  0  0  0
 41 32  1  0  0  0  0
 43 32  1  0  0  0  0
 45 34  1  0  0  0  0
 49 35  1  0  0  0  0
M  END
$$$$
