LCM.pdb
 OpenBabel07022418453D

 49 48  0  0  1  0  0  0  0  0999 V2000
    0.8250   -2.1140    4.2990 C   0  0  0  0  0  0  0  0  0  0  0  0
    2.0920   -1.6470    3.5660 C   0  0  0  0  0  0  0  0  0  0  0  0
    2.8000   -0.7420    4.5580 C   0  0  0  0  0  0  0  0  0  0  0  0
    1.6170   -0.9110    2.3410 C   0  0  0  0  0  0  0  0  0  0  0  0
    2.7020   -0.3760    1.4700 C   0  0  2  0  0  0  0  0  0  0  0  0
    3.5030    0.5640    2.2250 N   0  0  0  0  0  0  0  0  0  0  0  0
    2.2230    0.2690    0.2480 C   0  0  0  0  0  0  0  0  0  0  0  0
    2.6020    1.4420   -0.0180 O   0  0  0  0  0  0  0  0  0  0  0  0
    1.0790   -2.8850    5.0660 H   0  0  0  0  0  0  0  0  0  0  0  0
    0.3270   -1.2530    4.7770 H   0  0  0  0  0  0  0  0  0  0  0  0
    0.1250   -2.6070    3.5980 H   0  0  0  0  0  0  0  0  0  0  0  0
    2.7080   -2.5140    3.3130 H   0  0  0  0  0  0  0  0  0  0  0  0
    3.8510   -0.5900    4.2510 H   0  0  0  0  0  0  0  0  0  0  0  0
    2.2500    0.1780    4.7510 H   0  0  0  0  0  0  0  0  0  0  0  0
    2.8780   -1.2570    5.5620 H   0  0  0  0  0  0  0  0  0  0  0  0
    0.9500   -1.6300    1.7850 H   0  0  0  0  0  0  0  0  0  0  0  0
    0.9270   -0.1200    2.7020 H   0  0  0  0  0  0  0  0  0  0  0  0
    3.3880   -1.2390    1.2530 H   0  0  0  0  0  0  0  0  0  0  0  0
    2.9160    1.2680    2.7360 H   0  0  0  0  0  0  0  0  0  0  0  0
    4.1170    1.1470    1.6030 H   0  0  0  0  0  0  0  0  0  0  0  0
    1.3400   -0.3430   -0.6860 N   0  0  0  0  0  0  0  0  0  0  0  0
    0.9030    0.3400   -1.8740 C   0  0  1  0  0  0  0  0  0  0  0  0
    1.1500   -0.4120   -3.1410 C   0  0  0  0  0  0  0  0  0  0  0  0
    0.5390    0.5980   -4.5260 S   0  0  0  0  0  0  0  0  0  0  0  0
   -0.5530    0.6950   -1.7970 C   0  0  0  0  0  0  0  0  0  0  0  0
   -1.1480    1.2850   -2.7270 O   0  0  0  0  0  0  0  0  0  0  0  0
    1.0270   -1.3160   -0.4630 H   0  0  0  0  0  0  0  0  0  0  0  0
    1.4150    1.3420   -1.9740 H   0  0  0  0  0  0  0  0  0  0  0  0
    0.5630   -1.3330   -3.1270 H   0  0  0  0  0  0  0  0  0  0  0  0
    2.2310   -0.5800   -3.3240 H   0  0  0  0  0  0  0  0  0  0  0  0
    1.0890    0.2070   -5.7500 H   0  0  0  0  0  0  0  0  0  0  0  0
   -1.2860   -3.3710   -1.0060 C   0  0  0  0  0  0  0  0  0  0  0  0
   -1.6550   -2.4110    0.4590 S   0  0  0  0  0  0  0  0  0  0  0  0
   -3.2620   -1.6530    0.4740 C   0  0  0  0  0  0  0  0  0  0  0  0
   -3.5100   -0.5810   -0.5080 C   0  0  0  0  0  0  0  0  0  0  0  0
   -2.6800    0.6440   -0.4490 C   0  0  2  0  0  0  0  0  0  0  0  0
   -1.2950    0.3560   -0.6360 N   0  0  0  0  0  0  0  0  0  0  0  0
   -2.9710    1.5200    0.6830 C   0  0  0  0  0  0  0  0  0  0  0  0
   -4.1470    1.8480    0.9300 O   0  0  0  0  0  0  0  0  0  0  0  0
   -1.9570    1.9880    1.4810 O   0  0  0  0  0  0  0  0  0  0  0  0
   -0.6750   -4.2590   -0.6740 H   0  0  0  0  0  0  0  0  0  0  0  0
   -2.1720   -3.7720   -1.5080 H   0  0  0  0  0  0  0  0  0  0  0  0
   -0.6210   -2.7870   -1.6560 H   0  0  0  0  0  0  0  0  0  0  0  0
   -3.4910   -1.3610    1.5240 H   0  0  0  0  0  0  0  0  0  0  0  0
   -4.0180   -2.4710    0.2630 H   0  0  0  0  0  0  0  0  0  0  0  0
   -4.5760   -0.2690   -0.5210 H   0  0  0  0  0  0  0  0  0  0  0  0
   -3.3490   -1.0260   -1.5380 H   0  0  0  0  0  0  0  0  0  0  0  0
   -2.9810    1.2480   -1.3700 H   0  0  0  0  0  0  0  0  0  0  0  0
   -0.7690   -0.1230    0.1210 H   0  0  0  0  0  0  0  0  0  0  0  0
  1 10  1  0  0  0  0
  1  9  1  0  0  0  0
  2  1  1  0  0  0  0
  2  3  1  0  0  0  0
  3 14  1  0  0  0  0
  3 15  1  0  0  0  0
  4 17  1  0  0  0  0
  4  2  1  0  0  0  0
  5 18  1  6  0  0  0
  5  6  1  0  0  0  0
  5  4  1  0  0  0  0
  6 19  1  0  0  0  0
  7  5  1  0  0  0  0
  8  7  2  0  0  0  0
 11  1  1  0  0  0  0
 12  2  1  0  0  0  0
 13  3  1  0  0  0  0
 16  4  1  0  0  0  0
 20  6  1  0  0  0  0
 21 27  1  0  0  0  0
 21  7  1  0  0  0  0
 22 28  1  6  0  0  0
 22 25  1  0  0  0  0
 22 21  1  0  0  0  0
 23 29  1  0  0  0  0
 23 22  1  0  0  0  0
 24 23  1  0  0  0  0
 25 37  1  0  0  0  0
 26 25  2  0  0  0  0
 30 23  1  0  0  0  0
 31 24  1  0  0  0  0
 32 41  1  0  0  0  0
 32 33  1  0  0  0  0
 33 34  1  0  0  0  0
 34 44  1  0  0  0  0
 35 36  1  0  0  0  0
 35 34  1  0  0  0  0
 36 48  1  6  0  0  0
 36 38  1  0  0  0  0
 37 36  1  0  0  0  0
 37 49  1  0  0  0  0
 38 39  2  0  0  0  0
 38 40  1  0  0  0  0
 42 32  1  0  0  0  0
 43 32  1  0  0  0  0
 45 34  1  0  0  0  0
 46 35  1  0  0  0  0
 47 35  1  0  0  0  0
M  END
$$$$
