LCT.pdb
 OpenBabel07022418453D

 46 45  0  0  1  0  0  0  0  0999 V2000
    0.8860   -5.6480   -1.0500 C   0  0  0  0  0  0  0  0  0  0  0  0
    0.9530   -4.3260   -1.7480 C   0  0  0  0  0  0  0  0  0  0  0  0
    2.2920   -4.2290   -2.4390 C   0  0  0  0  0  0  0  0  0  0  0  0
    0.6970   -3.1610   -0.8360 C   0  0  0  0  0  0  0  0  0  0  0  0
    1.7020   -3.0900    0.2930 C   0  0  2  0  0  0  0  0  0  0  0  0
    1.6070   -4.3150    1.0620 N   0  0  0  0  0  0  0  0  0  0  0  0
    1.3910   -1.9610    1.2040 C   0  0  0  0  0  0  0  0  0  0  0  0
    1.1050   -2.1700    2.4260 O   0  0  0  0  0  0  0  0  0  0  0  0
    0.0860   -5.6130   -0.2860 H   0  0  0  0  0  0  0  0  0  0  0  0
    0.5680   -6.4190   -1.7980 H   0  0  0  0  0  0  0  0  0  0  0  0
    1.8700   -5.9740   -0.6240 H   0  0  0  0  0  0  0  0  0  0  0  0
    0.1840   -4.3280   -2.5450 H   0  0  0  0  0  0  0  0  0  0  0  0
    2.3360   -4.9170   -3.3080 H   0  0  0  0  0  0  0  0  0  0  0  0
    2.4740   -3.2120   -2.8430 H   0  0  0  0  0  0  0  0  0  0  0  0
    3.1050   -4.5260   -1.7470 H   0  0  0  0  0  0  0  0  0  0  0  0
    0.7950   -2.2280   -1.4290 H   0  0  0  0  0  0  0  0  0  0  0  0
   -0.3250   -3.2350   -0.4140 H   0  0  0  0  0  0  0  0  0  0  0  0
    2.7230   -2.9440   -0.1060 H   0  0  0  0  0  0  0  0  0  0  0  0
    2.3880   -4.4080    1.7530 H   0  0  0  0  0  0  0  0  0  0  0  0
    0.7180   -4.2950    1.6220 H   0  0  0  0  0  0  0  0  0  0  0  0
    1.3870   -0.6110    0.8010 N   0  0  0  0  0  0  0  0  0  0  0  0
    1.0770    0.5090    1.7060 C   0  0  1  0  0  0  0  0  0  0  0  0
    2.2740    1.4030    1.8270 C   0  0  0  0  0  0  0  0  0  0  0  0
    1.9750    2.7890    2.9300 S   0  0  0  0  0  0  0  0  0  0  0  0
   -0.1440    1.2010    1.2390 C   0  0  0  0  0  0  0  0  0  0  0  0
   -0.6760    0.8690    0.1180 O   0  0  0  0  0  0  0  0  0  0  0  0
    1.6130   -0.3820   -0.1870 H   0  0  0  0  0  0  0  0  0  0  0  0
    0.8700    0.0580    2.6880 H   0  0  0  0  0  0  0  0  0  0  0  0
    3.1110    0.7940    2.2470 H   0  0  0  0  0  0  0  0  0  0  0  0
    2.6180    1.7570    0.8300 H   0  0  0  0  0  0  0  0  0  0  0  0
    3.1680    3.3570    3.4040 H   0  0  0  0  0  0  0  0  0  0  0  0
   -3.4450    1.1800    2.5620 C   0  0  0  0  0  0  0  0  0  0  0  0
   -3.1100    2.6470    2.4550 C   0  0  1  0  0  0  0  0  0  0  0  0
   -2.7610    3.1730    3.6930 O   0  0  0  0  0  0  0  0  0  0  0  0
   -2.0020    2.8850    1.4400 C   0  0  2  0  0  0  0  0  0  0  0  0
   -0.8080    2.2280    1.9360 N   0  0  0  0  0  0  0  0  0  0  0  0
   -1.8260    4.3480    1.3210 C   0  0  0  0  0  0  0  0  0  0  0  0
   -0.7640    4.9500    1.6160 O   0  0  0  0  0  0  0  0  0  0  0  0
   -2.9110    5.0780    0.8540 O   0  0  0  0  0  0  0  0  0  0  0  0
   -2.5450    0.6000    2.7790 H   0  0  0  0  0  0  0  0  0  0  0  0
   -3.8820    0.8230    1.6240 H   0  0  0  0  0  0  0  0  0  0  0  0
   -4.2230    1.0900    3.3580 H   0  0  0  0  0  0  0  0  0  0  0  0
   -3.9970    3.1930    2.0840 H   0  0  0  0  0  0  0  0  0  0  0  0
   -2.2860    4.0200    3.6330 H   0  0  0  0  0  0  0  0  0  0  0  0
   -2.3280    2.4940    0.4680 H   0  0  0  0  0  0  0  0  0  0  0  0
   -0.4540    2.5400    2.8530 H   0  0  0  0  0  0  0  0  0  0  0  0
  1 11  1  0  0  0  0
  1  9  1  0  0  0  0
  2  1  1  0  0  0  0
  2  4  1  0  0  0  0
  3  2  1  0  0  0  0
  3 15  1  0  0  0  0
  4 17  1  0  0  0  0
  4  5  1  0  0  0  0
  5 18  1  6  0  0  0
  5  6  1  0  0  0  0
  5  7  1  0  0  0  0
  6 20  1  0  0  0  0
  6 19  1  0  0  0  0
  7  8  2  0  0  0  0
 10  1  1  0  0  0  0
 12  2  1  0  0  0  0
 13  3  1  0  0  0  0
 14  3  1  0  0  0  0
 16  4  1  0  0  0  0
 21  7  1  0  0  0  0
 21 22  1  0  0  0  0
 22 23  1  0  0  0  0
 22 28  1  1  0  0  0
 23 29  1  0  0  0  0
 23 24  1  0  0  0  0
 24 31  1  0  0  0  0
 25 22  1  0  0  0  0
 25 36  1  0  0  0  0
 26 25  2  0  0  0  0
 27 21  1  0  0  0  0
 30 23  1  0  0  0  0
 32 40  1  0  0  0  0
 32 42  1  0  0  0  0
 33 43  1  6  0  0  0
 33 32  1  0  0  0  0
 33 34  1  0  0  0  0
 35 45  1  6  0  0  0
 35 36  1  0  0  0  0
 35 33  1  0  0  0  0
 36 46  1  0  0  0  0
 37 35  1  0  0  0  0
 37 38  1  0  0  0  0
 39 37  2  0  0  0  0
 41 32  1  0  0  0  0
 44 34  1  0  0  0  0
M  END
$$$$
