LCV.pdb
 OpenBabel07022418453D

 48 47  0  0  1  0  0  0  0  0999 V2000
    2.0680   -3.8860   -2.6810 C   0  0  0  0  0  0  0  0  0  0  0  0
    1.5960   -2.4290   -2.6380 C   0  0  0  0  0  0  0  0  0  0  0  0
    2.6720   -1.5670   -3.2460 C   0  0  0  0  0  0  0  0  0  0  0  0
    1.2220   -2.0520   -1.2390 C   0  0  0  0  0  0  0  0  0  0  0  0
    2.3800   -2.1800   -0.2800 C   0  0  2  0  0  0  0  0  0  0  0  0
    2.9080   -3.5330   -0.2280 N   0  0  0  0  0  0  0  0  0  0  0  0
    2.0680   -1.7620    1.0730 C   0  0  0  0  0  0  0  0  0  0  0  0
    2.3050   -2.5190    2.0530 O   0  0  0  0  0  0  0  0  0  0  0  0
    1.7950   -4.2740   -3.6850 H   0  0  0  0  0  0  0  0  0  0  0  0
    3.1700   -3.9460   -2.6150 H   0  0  0  0  0  0  0  0  0  0  0  0
    1.5630   -4.4960   -1.9190 H   0  0  0  0  0  0  0  0  0  0  0  0
    0.6950   -2.3650   -3.2720 H   0  0  0  0  0  0  0  0  0  0  0  0
    2.4750   -1.4920   -4.3530 H   0  0  0  0  0  0  0  0  0  0  0  0
    2.7060   -0.5480   -2.8800 H   0  0  0  0  0  0  0  0  0  0  0  0
    3.6420   -2.1170   -3.1680 H   0  0  0  0  0  0  0  0  0  0  0  0
    0.9260   -0.9630   -1.1890 H   0  0  0  0  0  0  0  0  0  0  0  0
    0.3250   -2.6250   -0.9580 H   0  0  0  0  0  0  0  0  0  0  0  0
    3.1760   -1.5220   -0.6880 H   0  0  0  0  0  0  0  0  0  0  0  0
    3.9500   -3.4710   -0.2000 H   0  0  0  0  0  0  0  0  0  0  0  0
    2.6100   -3.9970    0.6560 H   0  0  0  0  0  0  0  0  0  0  0  0
    1.4880   -0.5040    1.3870 N   0  0  0  0  0  0  0  0  0  0  0  0
    1.1860   -0.1180    2.7530 C   0  0  1  0  0  0  0  0  0  0  0  0
    1.9720    1.1340    3.0870 C   0  0  0  0  0  0  0  0  0  0  0  0
    1.6590    1.6900    4.7720 S   0  0  0  0  0  0  0  0  0  0  0  0
   -0.2800    0.0730    2.8860 C   0  0  0  0  0  0  0  0  0  0  0  0
   -0.8020    0.3440    4.0160 O   0  0  0  0  0  0  0  0  0  0  0  0
    1.2830    0.1410    0.6270 H   0  0  0  0  0  0  0  0  0  0  0  0
    1.4740   -0.9110    3.4760 H   0  0  0  0  0  0  0  0  0  0  0  0
    3.0520    0.8220    3.0270 H   0  0  0  0  0  0  0  0  0  0  0  0
    1.8280    1.9300    2.3470 H   0  0  0  0  0  0  0  0  0  0  0  0
    1.2940    0.6590    5.6260 H   0  0  0  0  0  0  0  0  0  0  0  0
   -2.3360    2.6220    2.2540 C   0  0  0  0  0  0  0  0  0  0  0  0
   -3.0660    1.5280    1.4600 C   0  0  0  0  0  0  0  0  0  0  0  0
   -4.5340    1.7280    1.7540 C   0  0  0  0  0  0  0  0  0  0  0  0
   -2.6290    0.1590    1.9640 C   0  0  2  0  0  0  0  0  0  0  0  0
   -1.2000   -0.0280    1.7930 N   0  0  0  0  0  0  0  0  0  0  0  0
   -3.4080   -0.9380    1.3520 C   0  0  0  0  0  0  0  0  0  0  0  0
   -2.8310   -1.9030    0.7370 O   0  0  0  0  0  0  0  0  0  0  0  0
   -4.7870   -1.0190    1.3870 O   0  0  0  0  0  0  0  0  0  0  0  0
   -1.2630    2.6380    1.9950 H   0  0  0  0  0  0  0  0  0  0  0  0
   -2.4880    2.4580    3.3390 H   0  0  0  0  0  0  0  0  0  0  0  0
   -2.8570    3.5840    2.0090 H   0  0  0  0  0  0  0  0  0  0  0  0
   -2.8150    1.6940    0.4020 H   0  0  0  0  0  0  0  0  0  0  0  0
   -5.2080    1.2520    1.0390 H   0  0  0  0  0  0  0  0  0  0  0  0
   -4.7170    2.8380    1.6610 H   0  0  0  0  0  0  0  0  0  0  0  0
   -4.7130    1.4430    2.8180 H   0  0  0  0  0  0  0  0  0  0  0  0
   -2.8150    0.1860    3.0570 H   0  0  0  0  0  0  0  0  0  0  0  0
   -0.7990   -0.2480    0.8500 H   0  0  0  0  0  0  0  0  0  0  0  0
  1  2  1  0  0  0  0
  1 10  1  0  0  0  0
  1 11  1  0  0  0  0
  2  4  1  0  0  0  0
  3 15  1  0  0  0  0
  3 14  1  0  0  0  0
  3  2  1  0  0  0  0
  4 16  1  0  0  0  0
  4 17  1  0  0  0  0
  4  5  1  0  0  0  0
  5 18  1  6  0  0  0
  5  6  1  0  0  0  0
  5  7  1  0  0  0  0
  6 19  1  0  0  0  0
  6 20  1  0  0  0  0
  7 21  1  0  0  0  0
  7  8  2  0  0  0  0
  9  1  1  0  0  0  0
 12  2  1  0  0  0  0
 13  3  1  0  0  0  0
 21 22  1  0  0  0  0
 22 25  1  0  0  0  0
 22 23  1  0  0  0  0
 22 28  1  1  0  0  0
 23 24  1  0  0  0  0
 24 31  1  0  0  0  0
 25 26  2  0  0  0  0
 27 21  1  0  0  0  0
 29 23  1  0  0  0  0
 30 23  1  0  0  0  0
 32 41  1  0  0  0  0
 33 34  1  0  0  0  0
 33 35  1  0  0  0  0
 33 32  1  0  0  0  0
 34 46  1  0  0  0  0
 35 47  1  1  0  0  0
 36 35  1  0  0  0  0
 36 25  1  0  0  0  0
 37 39  1  0  0  0  0
 37 35  1  0  0  0  0
 38 37  2  0  0  0  0
 40 32  1  0  0  0  0
 42 32  1  0  0  0  0
 43 33  1  0  0  0  0
 44 34  1  0  0  0  0
 45 34  1  0  0  0  0
 48 36  1  0  0  0  0
M  END
$$$$
