LCW.pdb
 OpenBabel07022418453D

 56 57  0  0  1  0  0  0  0  0999 V2000
    0.4680   -0.1260    6.3750 C   0  0  0  0  0  0  0  0  0  0  0  0
    0.7010   -0.3440    4.8710 C   0  0  0  0  0  0  0  0  0  0  0  0
    1.4450   -1.6690    4.6620 C   0  0  0  0  0  0  0  0  0  0  0  0
    1.6080    0.7510    4.4240 C   0  0  0  0  0  0  0  0  0  0  0  0
    2.0190    0.7920    3.0290 C   0  0  2  0  0  0  0  0  0  0  0  0
    2.9270    1.9280    2.8290 N   0  0  0  0  0  0  0  0  0  0  0  0
    0.8790    0.9370    2.0540 C   0  0  0  0  0  0  0  0  0  0  0  0
   -0.2620    0.5440    2.2450 O   0  0  0  0  0  0  0  0  0  0  0  0
    0.8100    0.8690    6.7080 H   0  0  0  0  0  0  0  0  0  0  0  0
   -0.5840   -0.2620    6.6480 H   0  0  0  0  0  0  0  0  0  0  0  0
    1.0760   -0.8640    6.9610 H   0  0  0  0  0  0  0  0  0  0  0  0
   -0.2300   -0.3680    4.3240 H   0  0  0  0  0  0  0  0  0  0  0  0
    1.3290   -2.2930    5.5650 H   0  0  0  0  0  0  0  0  0  0  0  0
    1.0140   -2.2030    3.8070 H   0  0  0  0  0  0  0  0  0  0  0  0
    2.5280   -1.4880    4.4820 H   0  0  0  0  0  0  0  0  0  0  0  0
    2.5140    0.7040    5.0970 H   0  0  0  0  0  0  0  0  0  0  0  0
    1.1300    1.7330    4.7240 H   0  0  0  0  0  0  0  0  0  0  0  0
    2.5690   -0.1530    2.7770 H   0  0  0  0  0  0  0  0  0  0  0  0
    3.6190    1.7890    2.0940 H   0  0  0  0  0  0  0  0  0  0  0  0
    3.4340    2.1490    3.7070 H   0  0  0  0  0  0  0  0  0  0  0  0
    1.1490    1.5840    0.8140 N   0  0  0  0  0  0  0  0  0  0  0  0
    0.2720    1.8670   -0.2610 C   0  0  1  0  0  0  0  0  0  0  0  0
    0.6190    3.1190   -0.9950 C   0  0  0  0  0  0  0  0  0  0  0  0
    0.5390    4.5100    0.1540 S   0  0  0  0  0  0  0  0  0  0  0  0
    0.2270    0.6860   -1.1830 C   0  0  0  0  0  0  0  0  0  0  0  0
   -0.1970    0.8760   -2.3890 O   0  0  0  0  0  0  0  0  0  0  0  0
    2.1610    1.9040    0.6860 H   0  0  0  0  0  0  0  0  0  0  0  0
   -0.8060    1.9720    0.0890 H   0  0  0  0  0  0  0  0  0  0  0  0
   -0.1530    3.3150   -1.7990 H   0  0  0  0  0  0  0  0  0  0  0  0
    1.6520    3.1140   -1.4120 H   0  0  0  0  0  0  0  0  0  0  0  0
   -0.6200    4.3580    0.9550 H   0  0  0  0  0  0  0  0  0  0  0  0
    0.6130   -0.5910   -0.7850 N   0  0  0  0  0  0  0  0  0  0  0  0
    0.6000   -1.8020   -1.5890 C   0  0  1  0  0  0  0  0  0  0  0  0
   -0.2500   -1.8100   -2.8000 C   0  0  0  0  0  0  0  0  0  0  0  0
   -1.6870   -1.8410   -2.5380 C   0  0  0  0  0  0  0  0  0  0  0  0
   -2.5660   -1.0430   -1.8610 C   0  0  0  0  0  0  0  0  0  0  0  0
   -3.8120   -1.5960   -1.8460 N   0  0  0  0  0  0  0  0  0  0  0  0
   -3.7840   -2.7550   -2.5030 C   0  0  0  0  0  0  0  0  0  0  0  0
   -4.7590   -3.7030   -2.8290 C   0  0  0  0  0  0  0  0  0  0  0  0
   -4.4570   -4.8060   -3.5720 C   0  0  0  0  0  0  0  0  0  0  0  0
   -3.1560   -4.9670   -3.9980 C   0  0  0  0  0  0  0  0  0  0  0  0
   -2.1620   -4.0400   -3.6890 C   0  0  0  0  0  0  0  0  0  0  0  0
   -2.5080   -2.9380   -2.9370 C   0  0  0  0  0  0  0  0  0  0  0  0
    1.8350   -2.5400   -1.6690 C   0  0  0  0  0  0  0  0  0  0  0  0
    2.8930   -2.1270   -1.0910 O   0  0  0  0  0  0  0  0  0  0  0  0
    1.9820   -3.7350   -2.3640 O   0  0  0  0  0  0  0  0  0  0  0  0
    0.9710   -0.7410    0.2150 H   0  0  0  0  0  0  0  0  0  0  0  0
   -0.0870   -2.4900   -0.8850 H   0  0  0  0  0  0  0  0  0  0  0  0
    0.0690   -2.7570   -3.3530 H   0  0  0  0  0  0  0  0  0  0  0  0
   -0.0020   -1.0270   -3.5580 H   0  0  0  0  0  0  0  0  0  0  0  0
   -2.3760   -0.1150   -1.3810 H   0  0  0  0  0  0  0  0  0  0  0  0
   -4.6640   -1.1910   -1.3970 H   0  0  0  0  0  0  0  0  0  0  0  0
   -5.7530   -3.5060   -2.4590 H   0  0  0  0  0  0  0  0  0  0  0  0
   -5.2060   -5.5580   -3.8450 H   0  0  0  0  0  0  0  0  0  0  0  0
   -2.8340   -5.8170   -4.5960 H   0  0  0  0  0  0  0  0  0  0  0  0
   -1.1440   -4.2110   -4.0460 H   0  0  0  0  0  0  0  0  0  0  0  0
  1 10  1  0  0  0  0
  1  9  1  0  0  0  0
  1 11  1  0  0  0  0
  2  1  1  0  0  0  0
  3  2  1  0  0  0  0
  3 13  1  0  0  0  0
  4 17  1  0  0  0  0
  4  2  1  0  0  0  0
  4 16  1  0  0  0  0
  5 18  1  6  0  0  0
  5  4  1  0  0  0  0
  6  5  1  0  0  0  0
  6 20  1  0  0  0  0
  7  8  2  0  0  0  0
  7  5  1  0  0  0  0
 12  2  1  0  0  0  0
 14  3  1  0  0  0  0
 15  3  1  0  0  0  0
 19  6  1  0  0  0  0
 21  7  1  0  0  0  0
 22 28  1  1  0  0  0
 22 21  1  0  0  0  0
 23 22  1  0  0  0  0
 23 24  1  0  0  0  0
 24 31  1  0  0  0  0
 25 32  1  0  0  0  0
 25 22  1  0  0  0  0
 26 25  2  0  0  0  0
 27 21  1  0  0  0  0
 29 23  1  0  0  0  0
 30 23  1  0  0  0  0
 32 47  1  0  0  0  0
 33 48  1  1  0  0  0
 33 32  1  0  0  0  0
 34 35  1  0  0  0  0
 34 33  1  0  0  0  0
 35 36  2  0  0  0  0
 36 37  1  0  0  0  0
 36 51  1  0  0  0  0
 37 52  1  0  0  0  0
 38 37  1  0  0  0  0
 39 38  1  0  0  0  0
 39 53  1  0  0  0  0
 40 39  2  0  0  0  0
 41 42  2  0  0  0  0
 41 40  1  0  0  0  0
 42 43  1  0  0  0  0
 43 35  1  0  0  0  0
 43 38  2  0  0  0  0
 44 33  1  0  0  0  0
 44 45  1  0  0  0  0
 46 44  2  0  0  0  0
 49 34  1  0  0  0  0
 50 34  1  0  0  0  0
 54 40  1  0  0  0  0
 55 41  1  0  0  0  0
 56 42  1  0  0  0  0
M  END
$$$$
