LDC.pdb
 OpenBabel07022418443D

 45 44  0  0  1  0  0  0  0  0999 V2000
    3.2530   -5.3830    1.8190 C   0  0  0  0  0  0  0  0  0  0  0  0
    2.8920   -3.9730    1.3290 C   0  0  0  0  0  0  0  0  0  0  0  0
    2.0760   -3.3690    2.4460 C   0  0  0  0  0  0  0  0  0  0  0  0
    2.1670   -4.1550    0.0390 C   0  0  0  0  0  0  0  0  0  0  0  0
    1.7190   -2.8950   -0.6300 C   0  0  2  0  0  0  0  0  0  0  0  0
    2.8380   -2.0140   -0.9520 N   0  0  0  0  0  0  0  0  0  0  0  0
    0.6440   -2.1830    0.0720 C   0  0  0  0  0  0  0  0  0  0  0  0
   -0.3770   -2.8270    0.4360 O   0  0  0  0  0  0  0  0  0  0  0  0
    3.7780   -5.3770    2.7770 H   0  0  0  0  0  0  0  0  0  0  0  0
    2.2780   -5.9550    1.8640 H   0  0  0  0  0  0  0  0  0  0  0  0
    3.8440   -5.8690    1.0010 H   0  0  0  0  0  0  0  0  0  0  0  0
    3.8340   -3.4230    1.2220 H   0  0  0  0  0  0  0  0  0  0  0  0
    2.6330   -3.5510    3.3990 H   0  0  0  0  0  0  0  0  0  0  0  0
    1.0960   -3.8770    2.5550 H   0  0  0  0  0  0  0  0  0  0  0  0
    1.9370   -2.2880    2.3810 H   0  0  0  0  0  0  0  0  0  0  0  0
    1.2820   -4.8110    0.2320 H   0  0  0  0  0  0  0  0  0  0  0  0
    2.8560   -4.7170   -0.6310 H   0  0  0  0  0  0  0  0  0  0  0  0
    1.2940   -3.1670   -1.6450 H   0  0  0  0  0  0  0  0  0  0  0  0
    2.4080   -1.2130   -1.5010 H   0  0  0  0  0  0  0  0  0  0  0  0
    3.3980   -2.5330   -1.6650 H   0  0  0  0  0  0  0  0  0  0  0  0
    0.6800   -0.7970    0.3710 N   0  0  0  0  0  0  0  0  0  0  0  0
   -0.4010   -0.1430    1.0630 C   0  0  1  0  0  0  0  0  0  0  0  0
    0.0740    0.4600    2.3760 C   0  0  0  0  0  0  0  0  0  0  0  0
    1.1370    1.4780    2.1280 C   0  0  0  0  0  0  0  0  0  0  0  0
    0.9640    2.4380    1.3270 O   0  0  0  0  0  0  0  0  0  0  0  0
   -1.0020    0.9510    0.2660 C   0  0  0  0  0  0  0  0  0  0  0  0
   -0.5650    1.2190   -0.9060 O   0  0  0  0  0  0  0  0  0  0  0  0
    2.3860    1.4190    2.7690 O   0  0  0  0  0  0  0  0  0  0  0  0
    1.5200   -0.2530    0.0730 H   0  0  0  0  0  0  0  0  0  0  0  0
   -1.2080   -0.8540    1.3000 H   0  0  0  0  0  0  0  0  0  0  0  0
   -0.7890    1.0320    2.7870 H   0  0  0  0  0  0  0  0  0  0  0  0
    0.4260   -0.3030    3.0780 H   0  0  0  0  0  0  0  0  0  0  0  0
    3.2190    1.5480    2.1620 H   0  0  0  0  0  0  0  0  0  0  0  0
   -2.0730    1.7220    0.7810 N   0  0  0  0  0  0  0  0  0  0  0  0
   -2.6290    2.7710   -0.0440 C   0  0  1  0  0  0  0  0  0  0  0  0
   -4.1180    2.5300   -0.2820 C   0  0  0  0  0  0  0  0  0  0  0  0
   -4.8140    3.8310   -1.3110 S   0  0  0  0  0  0  0  0  0  0  0  0
   -2.4110    4.1210    0.5530 C   0  0  0  0  0  0  0  0  0  0  0  0
   -1.7720    4.2020    1.6270 O   0  0  0  0  0  0  0  0  0  0  0  0
   -2.8890    5.2680   -0.0370 O   0  0  0  0  0  0  0  0  0  0  0  0
   -2.4660    1.5410    1.7570 H   0  0  0  0  0  0  0  0  0  0  0  0
   -2.1360    2.7970   -1.0290 H   0  0  0  0  0  0  0  0  0  0  0  0
   -4.6580    2.4670    0.6930 H   0  0  0  0  0  0  0  0  0  0  0  0
   -4.2540    1.5550   -0.7890 H   0  0  0  0  0  0  0  0  0  0  0  0
   -6.0570    3.4230   -1.8460 H   0  0  0  0  0  0  0  0  0  0  0  0
  1 10  1  0  0  0  0
  1  9  1  0  0  0  0
  2  1  1  0  0  0  0
  2  3  1  0  0  0  0
  3 14  1  0  0  0  0
  3 13  1  0  0  0  0
  4 16  1  0  0  0  0
  4  2  1  0  0  0  0
  5 18  1  6  0  0  0
  5  4  1  0  0  0  0
  5  7  1  0  0  0  0
  6  5  1  0  0  0  0
  7 21  1  0  0  0  0
  7  8  2  0  0  0  0
 11  1  1  0  0  0  0
 12  2  1  0  0  0  0
 15  3  1  0  0  0  0
 17  4  1  0  0  0  0
 19  6  1  0  0  0  0
 20  6  1  0  0  0  0
 21 22  1  0  0  0  0
 22 30  1  1  0  0  0
 22 23  1  0  0  0  0
 23 31  1  0  0  0  0
 23 32  1  0  0  0  0
 24 23  1  0  0  0  0
 24 28  1  0  0  0  0
 25 24  2  0  0  0  0
 26 34  1  0  0  0  0
 26 22  1  0  0  0  0
 27 26  2  0  0  0  0
 29 21  1  0  0  0  0
 33 28  1  0  0  0  0
 34 41  1  0  0  0  0
 35 42  1  6  0  0  0
 35 38  1  0  0  0  0
 35 34  1  0  0  0  0
 36 35  1  0  0  0  0
 36 43  1  0  0  0  0
 37 36  1  0  0  0  0
 38 39  1  0  0  0  0
 40 38  2  0  0  0  0
 44 36  1  0  0  0  0
 45 37  1  0  0  0  0
M  END
$$$$
