LDE.pdb
 OpenBabel07022418443D

 50 49  0  0  1  0  0  0  0  0999 V2000
    3.1950   -3.9820    2.2790 C   0  0  0  0  0  0  0  0  0  0  0  0
    2.3850   -3.5870    1.0450 C   0  0  0  0  0  0  0  0  0  0  0  0
    1.2400   -4.6060    0.9830 C   0  0  0  0  0  0  0  0  0  0  0  0
    1.7570   -2.2450    1.2670 C   0  0  0  0  0  0  0  0  0  0  0  0
    2.7390   -1.1320    1.5240 C   0  0  2  0  0  0  0  0  0  0  0  0
    3.5560   -1.3830    2.6980 N   0  0  0  0  0  0  0  0  0  0  0  0
    1.9610    0.1120    1.8100 C   0  0  0  0  0  0  0  0  0  0  0  0
    1.9990    0.6930    2.9320 O   0  0  0  0  0  0  0  0  0  0  0  0
    3.1620   -5.0900    2.4440 H   0  0  0  0  0  0  0  0  0  0  0  0
    4.2170   -3.6310    2.1340 H   0  0  0  0  0  0  0  0  0  0  0  0
    2.6650   -3.5290    3.1450 H   0  0  0  0  0  0  0  0  0  0  0  0
    2.9540   -3.6680    0.1190 H   0  0  0  0  0  0  0  0  0  0  0  0
    1.5860   -5.5870    1.3860 H   0  0  0  0  0  0  0  0  0  0  0  0
    0.8430   -4.7100   -0.0300 H   0  0  0  0  0  0  0  0  0  0  0  0
    0.4370   -4.2230    1.6440 H   0  0  0  0  0  0  0  0  0  0  0  0
    0.9580   -2.3310    2.0080 H   0  0  0  0  0  0  0  0  0  0  0  0
    1.2700   -1.9800    0.2780 H   0  0  0  0  0  0  0  0  0  0  0  0
    3.3680   -0.9630    0.6610 H   0  0  0  0  0  0  0  0  0  0  0  0
    3.0400   -1.1460    3.5740 H   0  0  0  0  0  0  0  0  0  0  0  0
    4.4760   -0.8860    2.6370 H   0  0  0  0  0  0  0  0  0  0  0  0
    1.1320    0.7090    0.8280 N   0  0  0  0  0  0  0  0  0  0  0  0
    0.3870    1.9160    1.1570 C   0  0  1  0  0  0  0  0  0  0  0  0
    0.6690    3.0330    0.2100 C   0  0  0  0  0  0  0  0  0  0  0  0
   -0.0400    4.2970    0.5160 C   0  0  0  0  0  0  0  0  0  0  0  0
   -0.0780    5.2490   -0.3450 O   0  0  0  0  0  0  0  0  0  0  0  0
   -1.0380    1.5330    1.0500 C   0  0  0  0  0  0  0  0  0  0  0  0
   -1.9140    2.3800    1.3280 O   0  0  0  0  0  0  0  0  0  0  0  0
   -0.7000    4.5850    1.6940 O   0  0  0  0  0  0  0  0  0  0  0  0
    1.0420    0.3140   -0.1330 H   0  0  0  0  0  0  0  0  0  0  0  0
    0.5720    2.2170    2.2060 H   0  0  0  0  0  0  0  0  0  0  0  0
    1.7830    3.2210    0.1060 H   0  0  0  0  0  0  0  0  0  0  0  0
    0.3760    2.7610   -0.8350 H   0  0  0  0  0  0  0  0  0  0  0  0
   -1.1460    5.4530    1.9210 H   0  0  0  0  0  0  0  0  0  0  0  0
   -1.4380    0.2320    0.6390 N   0  0  0  0  0  0  0  0  0  0  0  0
   -2.8160   -0.1510    0.5340 C   0  0  1  0  0  0  0  0  0  0  0  0
   -3.4510   -0.1620   -0.8010 C   0  0  0  0  0  0  0  0  0  0  0  0
   -2.8850   -1.0270   -1.8550 C   0  0  0  0  0  0  0  0  0  0  0  0
   -1.5540   -0.6170   -2.2850 C   0  0  0  0  0  0  0  0  0  0  0  0
   -1.0570    0.4790   -1.9700 O   0  0  0  0  0  0  0  0  0  0  0  0
   -3.0310   -1.4440    1.2300 C   0  0  0  0  0  0  0  0  0  0  0  0
   -2.1210   -2.0820    1.8140 O   0  0  0  0  0  0  0  0  0  0  0  0
   -0.8000   -1.4790   -3.0800 O   0  0  0  0  0  0  0  0  0  0  0  0
   -4.2980   -1.9910    1.2460 O   0  0  0  0  0  0  0  0  0  0  0  0
   -0.6990   -0.4880    0.4300 H   0  0  0  0  0  0  0  0  0  0  0  0
   -3.4430    0.6180    1.1320 H   0  0  0  0  0  0  0  0  0  0  0  0
   -4.5320   -0.4500   -0.6250 H   0  0  0  0  0  0  0  0  0  0  0  0
   -3.5280    0.8880   -1.1890 H   0  0  0  0  0  0  0  0  0  0  0  0
   -3.5980   -0.9970   -2.7350 H   0  0  0  0  0  0  0  0  0  0  0  0
   -2.8720   -2.1150   -1.5710 H   0  0  0  0  0  0  0  0  0  0  0  0
   -0.0120   -1.1410   -3.6420 H   0  0  0  0  0  0  0  0  0  0  0  0
  1  9  1  0  0  0  0
  1 11  1  0  0  0  0
  2  4  1  0  0  0  0
  2  1  1  0  0  0  0
  3  2  1  0  0  0  0
  3 13  1  0  0  0  0
  3 15  1  0  0  0  0
  4  5  1  0  0  0  0
  4 16  1  0  0  0  0
  5 18  1  6  0  0  0
  5  7  1  0  0  0  0
  5  6  1  0  0  0  0
  6 19  1  0  0  0  0
  7  8  2  0  0  0  0
 10  1  1  0  0  0  0
 12  2  1  0  0  0  0
 14  3  1  0  0  0  0
 17  4  1  0  0  0  0
 20  6  1  0  0  0  0
 21 22  1  0  0  0  0
 21  7  1  0  0  0  0
 22 30  1  1  0  0  0
 23 24  1  0  0  0  0
 23 22  1  0  0  0  0
 24 28  1  0  0  0  0
 25 24  2  0  0  0  0
 26 22  1  0  0  0  0
 26 27  2  0  0  0  0
 28 33  1  0  0  0  0
 29 21  1  0  0  0  0
 31 23  1  0  0  0  0
 32 23  1  0  0  0  0
 34 26  1  0  0  0  0
 35 34  1  0  0  0  0
 35 45  1  1  0  0  0
 35 40  1  0  0  0  0
 36 46  1  0  0  0  0
 36 35  1  0  0  0  0
 37 49  1  0  0  0  0
 37 36  1  0  0  0  0
 38 39  2  0  0  0  0
 38 37  1  0  0  0  0
 40 43  2  0  0  0  0
 40 41  1  0  0  0  0
 42 38  1  0  0  0  0
 44 34  1  0  0  0  0
 47 36  1  0  0  0  0
 48 37  1  0  0  0  0
 50 42  1  0  0  0  0
M  END
$$$$
