LDG.pdb
 OpenBabel07022418443D

 41 40  0  0  1  0  0  0  0  0999 V2000
   -3.0730   -1.7620    2.6070 C   0  0  0  0  0  0  0  0  0  0  0  0
   -2.3010   -2.5510    1.5790 C   0  0  0  0  0  0  0  0  0  0  0  0
   -1.6500   -3.7160    2.2980 C   0  0  0  0  0  0  0  0  0  0  0  0
   -1.1990   -1.7420    0.9510 C   0  0  0  0  0  0  0  0  0  0  0  0
   -1.7150   -0.5080    0.2420 C   0  0  2  0  0  0  0  0  0  0  0  0
   -2.6350   -0.8360   -0.8180 N   0  0  0  0  0  0  0  0  0  0  0  0
   -0.5390    0.1780   -0.3410 C   0  0  0  0  0  0  0  0  0  0  0  0
   -0.4950    0.3710   -1.5800 O   0  0  0  0  0  0  0  0  0  0  0  0
   -3.5340   -0.8500    2.2060 H   0  0  0  0  0  0  0  0  0  0  0  0
   -3.8160   -2.4560    3.0630 H   0  0  0  0  0  0  0  0  0  0  0  0
   -2.3510   -1.5270    3.4310 H   0  0  0  0  0  0  0  0  0  0  0  0
   -3.0070   -2.9650    0.8320 H   0  0  0  0  0  0  0  0  0  0  0  0
   -1.6940   -4.6160    1.6490 H   0  0  0  0  0  0  0  0  0  0  0  0
   -0.5740   -3.5090    2.4830 H   0  0  0  0  0  0  0  0  0  0  0  0
   -2.1110   -3.8770    3.2930 H   0  0  0  0  0  0  0  0  0  0  0  0
   -0.5270   -1.4100    1.7510 H   0  0  0  0  0  0  0  0  0  0  0  0
   -0.6990   -2.3630    0.2010 H   0  0  0  0  0  0  0  0  0  0  0  0
   -2.2530    0.1650    0.9690 H   0  0  0  0  0  0  0  0  0  0  0  0
   -2.6660   -0.1300   -1.5740 H   0  0  0  0  0  0  0  0  0  0  0  0
   -2.2870   -1.7270   -1.2520 H   0  0  0  0  0  0  0  0  0  0  0  0
    0.5480    0.6270    0.4630 N   0  0  0  0  0  0  0  0  0  0  0  0
    1.7080    1.2940   -0.0390 C   0  0  1  0  0  0  0  0  0  0  0  0
    1.9630    2.6280    0.6100 C   0  0  0  0  0  0  0  0  0  0  0  0
    0.8320    3.5380    0.3970 C   0  0  0  0  0  0  0  0  0  0  0  0
   -0.1710    3.1540   -0.2560 O   0  0  0  0  0  0  0  0  0  0  0  0
    2.8950    0.3930    0.1820 C   0  0  0  0  0  0  0  0  0  0  0  0
    4.0460    0.7540   -0.1770 O   0  0  0  0  0  0  0  0  0  0  0  0
    0.8630    4.8250    0.9140 O   0  0  0  0  0  0  0  0  0  0  0  0
    0.4560    0.4370    1.4990 H   0  0  0  0  0  0  0  0  0  0  0  0
    1.6360    1.4140   -1.1360 H   0  0  0  0  0  0  0  0  0  0  0  0
    2.1830    2.4740    1.6930 H   0  0  0  0  0  0  0  0  0  0  0  0
    2.8820    3.0600    0.1660 H   0  0  0  0  0  0  0  0  0  0  0  0
    0.3760    5.5860    0.4310 H   0  0  0  0  0  0  0  0  0  0  0  0
    2.7610   -0.8820    0.7960 N   0  0  0  0  0  0  0  0  0  0  0  0
    3.8720   -1.7670    1.0220 C   0  0  0  0  0  0  0  0  0  0  0  0
    4.5590   -2.1560   -0.2220 C   0  0  0  0  0  0  0  0  0  0  0  0
    4.1430   -1.7080   -1.3140 O   0  0  0  0  0  0  0  0  0  0  0  0
    5.6530   -3.0000   -0.2300 O   0  0  0  0  0  0  0  0  0  0  0  0
    1.7700   -1.1400    1.0810 H   0  0  0  0  0  0  0  0  0  0  0  0
    4.5910   -1.3160    1.7540 H   0  0  0  0  0  0  0  0  0  0  0  0
    3.4800   -2.6930    1.4950 H   0  0  0  0  0  0  0  0  0  0  0  0
  1 10  1  0  0  0  0
  1 11  1  0  0  0  0
  2  3  1  0  0  0  0
  2  1  1  0  0  0  0
  3 14  1  0  0  0  0
  3 15  1  0  0  0  0
  4  2  1  0  0  0  0
  4 16  1  0  0  0  0
  5  4  1  0  0  0  0
  5 18  1  1  0  0  0
  6  5  1  0  0  0  0
  7  5  1  0  0  0  0
  7 21  1  0  0  0  0
  8  7  2  0  0  0  0
  9  1  1  0  0  0  0
 12  2  1  0  0  0  0
 13  3  1  0  0  0  0
 17  4  1  0  0  0  0
 19  6  1  0  0  0  0
 20  6  1  0  0  0  0
 21 29  1  0  0  0  0
 22 30  1  6  0  0  0
 22 26  1  0  0  0  0
 22 21  1  0  0  0  0
 22 23  1  0  0  0  0
 23 31  1  0  0  0  0
 24 23  1  0  0  0  0
 24 28  1  0  0  0  0
 25 24  2  0  0  0  0
 26 34  1  0  0  0  0
 27 26  2  0  0  0  0
 32 23  1  0  0  0  0
 33 28  1  0  0  0  0
 34 35  1  0  0  0  0
 34 39  1  0  0  0  0
 35 41  1  0  0  0  0
 35 40  1  0  0  0  0
 36 35  1  0  0  0  0
 37 36  2  0  0  0  0
 38 36  1  0  0  0  0
M  END
$$$$
