LDH.pdb
 OpenBabel07022418443D

 51 51  0  0  1  0  0  0  0  0999 V2000
    1.2750   -3.4310    2.8620 C   0  0  0  0  0  0  0  0  0  0  0  0
    1.3570   -1.9510    3.1620 C   0  0  0  0  0  0  0  0  0  0  0  0
    1.6510   -1.7770    4.6050 C   0  0  0  0  0  0  0  0  0  0  0  0
    2.3070   -1.2710    2.2300 C   0  0  0  0  0  0  0  0  0  0  0  0
    2.4460    0.2070    2.4650 C   0  0  2  0  0  0  0  0  0  0  0  0
    2.9290    0.4350    3.8130 N   0  0  0  0  0  0  0  0  0  0  0  0
    1.2280    0.9700    2.1820 C   0  0  0  0  0  0  0  0  0  0  0  0
    0.6740    1.6950    3.0490 O   0  0  0  0  0  0  0  0  0  0  0  0
    1.5320   -3.6870    1.8360 H   0  0  0  0  0  0  0  0  0  0  0  0
    0.2300   -3.7810    3.0570 H   0  0  0  0  0  0  0  0  0  0  0  0
    1.9040   -3.9860    3.6160 H   0  0  0  0  0  0  0  0  0  0  0  0
    0.3430   -1.5310    2.9650 H   0  0  0  0  0  0  0  0  0  0  0  0
    1.1710   -0.8640    5.0530 H   0  0  0  0  0  0  0  0  0  0  0  0
    1.1620   -2.6290    5.1570 H   0  0  0  0  0  0  0  0  0  0  0  0
    2.7240   -1.8320    4.8640 H   0  0  0  0  0  0  0  0  0  0  0  0
    2.0250   -1.4500    1.1720 H   0  0  0  0  0  0  0  0  0  0  0  0
    3.3130   -1.7210    2.3680 H   0  0  0  0  0  0  0  0  0  0  0  0
    3.2390    0.5730    1.7810 H   0  0  0  0  0  0  0  0  0  0  0  0
    3.9440    0.2320    3.9170 H   0  0  0  0  0  0  0  0  0  0  0  0
    2.6430    1.3510    4.1930 H   0  0  0  0  0  0  0  0  0  0  0  0
    0.6190    0.9210    0.9030 N   0  0  0  0  0  0  0  0  0  0  0  0
   -0.5860    1.6840    0.6450 C   0  0  1  0  0  0  0  0  0  0  0  0
   -0.3540    2.7910   -0.3760 C   0  0  0  0  0  0  0  0  0  0  0  0
    0.1000    2.2710   -1.6860 C   0  0  0  0  0  0  0  0  0  0  0  0
   -0.7020    1.8230   -2.5360 O   0  0  0  0  0  0  0  0  0  0  0  0
   -1.6720    0.7610    0.2350 C   0  0  0  0  0  0  0  0  0  0  0  0
   -2.8090    1.2050   -0.0710 O   0  0  0  0  0  0  0  0  0  0  0  0
    1.4480    2.2710   -1.9980 O   0  0  0  0  0  0  0  0  0  0  0  0
    0.9880    0.3560    0.1120 H   0  0  0  0  0  0  0  0  0  0  0  0
   -0.9280    2.2200    1.5710 H   0  0  0  0  0  0  0  0  0  0  0  0
    0.3410    3.5500    0.0370 H   0  0  0  0  0  0  0  0  0  0  0  0
   -1.3210    3.3300   -0.5250 H   0  0  0  0  0  0  0  0  0  0  0  0
    1.7690    1.9460   -2.9000 H   0  0  0  0  0  0  0  0  0  0  0  0
   -1.4820   -0.6350    0.1730 N   0  0  0  0  0  0  0  0  0  0  0  0
   -2.4500   -1.6070   -0.2040 C   0  0  1  0  0  0  0  0  0  0  0  0
   -2.0370   -2.6010   -1.2290 C   0  0  0  0  0  0  0  0  0  0  0  0
   -1.6640   -1.9000   -2.4960 C   0  0  0  0  0  0  0  0  0  0  0  0
   -0.4450   -1.4370   -2.8940 C   0  0  0  0  0  0  0  0  0  0  0  0
   -0.5810   -0.8850   -4.1030 N   0  0  0  0  0  0  0  0  0  0  0  0
   -1.8720   -1.0080   -4.4460 C   0  0  0  0  0  0  0  0  0  0  0  0
   -2.5330   -1.6310   -3.4590 N   0  0  0  0  0  0  0  0  0  0  0  0
   -2.9100   -2.3160    1.0380 C   0  0  0  0  0  0  0  0  0  0  0  0
   -2.4080   -1.9670    2.1280 O   0  0  0  0  0  0  0  0  0  0  0  0
   -3.8600   -3.3250    0.9880 O   0  0  0  0  0  0  0  0  0  0  0  0
   -0.5180   -0.9880    0.4350 H   0  0  0  0  0  0  0  0  0  0  0  0
   -3.3780   -1.0540   -0.5380 H   0  0  0  0  0  0  0  0  0  0  0  0
   -2.9040   -3.2490   -1.4600 H   0  0  0  0  0  0  0  0  0  0  0  0
   -1.2340   -3.2840   -0.8950 H   0  0  0  0  0  0  0  0  0  0  0  0
    0.4760   -1.5020   -2.3320 H   0  0  0  0  0  0  0  0  0  0  0  0
    0.1830   -0.4290   -4.6980 H   0  0  0  0  0  0  0  0  0  0  0  0
   -2.2740   -0.6450   -5.3870 H   0  0  0  0  0  0  0  0  0  0  0  0
  1 10  1  0  0  0  0
  1  2  1  0  0  0  0
  1 11  1  0  0  0  0
  2  3  1  0  0  0  0
  3 15  1  0  0  0  0
  3 13  1  0  0  0  0
  3 14  1  0  0  0  0
  4 17  1  0  0  0  0
  4  5  1  0  0  0  0
  4  2  1  0  0  0  0
  5 18  1  6  0  0  0
  5  6  1  0  0  0  0
  6 19  1  0  0  0  0
  6 20  1  0  0  0  0
  7  5  1  0  0  0  0
  7  8  2  0  0  0  0
  9  1  1  0  0  0  0
 12  2  1  0  0  0  0
 16  4  1  0  0  0  0
 21  7  1  0  0  0  0
 22 21  1  0  0  0  0
 22 30  1  1  0  0  0
 23 31  1  0  0  0  0
 23 22  1  0  0  0  0
 24 23  1  0  0  0  0
 25 24  2  0  0  0  0
 26 22  1  0  0  0  0
 27 26  2  0  0  0  0
 28 24  1  0  0  0  0
 29 21  1  0  0  0  0
 32 23  1  0  0  0  0
 33 28  1  0  0  0  0
 34 26  1  0  0  0  0
 34 45  1  0  0  0  0
 35 46  1  6  0  0  0
 35 34  1  0  0  0  0
 35 42  1  0  0  0  0
 36 48  1  0  0  0  0
 36 35  1  0  0  0  0
 37 36  1  0  0  0  0
 38 37  2  0  0  0  0
 38 49  1  0  0  0  0
 39 38  1  0  0  0  0
 40 39  1  0  0  0  0
 40 41  2  0  0  0  0
 41 37  1  0  0  0  0
 42 43  1  0  0  0  0
 44 42  2  0  0  0  0
 47 36  1  0  0  0  0
 50 39  1  0  0  0  0
 51 40  1  0  0  0  0
M  END
$$$$
