LDI.pdb
 OpenBabel07022418443D

 53 52  0  0  1  0  0  0  0  0999 V2000
    1.8380   -4.5970    0.3050 C   0  0  0  0  0  0  0  0  0  0  0  0
    2.5380   -3.4200    0.9840 C   0  0  0  0  0  0  0  0  0  0  0  0
    1.5390   -2.8410    1.9530 C   0  0  0  0  0  0  0  0  0  0  0  0
    3.0000   -2.4040   -0.0010 C   0  0  0  0  0  0  0  0  0  0  0  0
    3.6960   -1.2150    0.5580 C   0  0  2  0  0  0  0  0  0  0  0  0
    4.8760   -1.6100    1.3090 N   0  0  0  0  0  0  0  0  0  0  0  0
    2.8580   -0.2230    1.2360 C   0  0  0  0  0  0  0  0  0  0  0  0
    3.1510    0.0760    2.4400 O   0  0  0  0  0  0  0  0  0  0  0  0
    1.0310   -4.1590   -0.3120 H   0  0  0  0  0  0  0  0  0  0  0  0
    2.5540   -5.1890   -0.2840 H   0  0  0  0  0  0  0  0  0  0  0  0
    1.3620   -5.1740    1.1310 H   0  0  0  0  0  0  0  0  0  0  0  0
    3.4010   -3.7980    1.5830 H   0  0  0  0  0  0  0  0  0  0  0  0
    0.8100   -3.6250    2.3020 H   0  0  0  0  0  0  0  0  0  0  0  0
    0.9410   -2.1030    1.4280 H   0  0  0  0  0  0  0  0  0  0  0  0
    2.0600   -2.3990    2.8320 H   0  0  0  0  0  0  0  0  0  0  0  0
    3.7360   -2.9170   -0.6810 H   0  0  0  0  0  0  0  0  0  0  0  0
    2.1830   -2.0500   -0.6800 H   0  0  0  0  0  0  0  0  0  0  0  0
    4.1260   -0.6680   -0.3480 H   0  0  0  0  0  0  0  0  0  0  0  0
    5.7170   -1.0490    1.0780 H   0  0  0  0  0  0  0  0  0  0  0  0
    4.7290   -1.5540    2.3310 H   0  0  0  0  0  0  0  0  0  0  0  0
    1.7470    0.4300    0.6480 N   0  0  0  0  0  0  0  0  0  0  0  0
    0.9410    1.4060    1.3370 C   0  0  1  0  0  0  0  0  0  0  0  0
    1.2110    2.8110    0.8170 C   0  0  0  0  0  0  0  0  0  0  0  0
    0.9220    2.9550   -0.6080 C   0  0  0  0  0  0  0  0  0  0  0  0
   -0.2700    3.0660   -0.9850 O   0  0  0  0  0  0  0  0  0  0  0  0
   -0.5020    1.1090    1.3430 C   0  0  0  0  0  0  0  0  0  0  0  0
   -1.3370    1.8720    1.9430 O   0  0  0  0  0  0  0  0  0  0  0  0
    1.9090    2.9750   -1.5780 O   0  0  0  0  0  0  0  0  0  0  0  0
    1.5040    0.1890   -0.3310 H   0  0  0  0  0  0  0  0  0  0  0  0
    1.2870    1.4280    2.4030 H   0  0  0  0  0  0  0  0  0  0  0  0
    0.6520    3.5310    1.4230 H   0  0  0  0  0  0  0  0  0  0  0  0
    2.2920    3.0310    0.9740 H   0  0  0  0  0  0  0  0  0  0  0  0
    1.7690    2.5380   -2.4790 H   0  0  0  0  0  0  0  0  0  0  0  0
   -5.3940    0.6360    0.1010 C   0  0  0  0  0  0  0  0  0  0  0  0
   -4.6460   -0.4470   -0.6360 C   0  0  0  0  0  0  0  0  0  0  0  0
   -3.1540   -0.2210   -0.6220 C   0  0  2  0  0  0  0  0  0  0  0  0
   -2.5440   -1.3930   -1.3920 C   0  0  0  0  0  0  0  0  0  0  0  0
   -2.5650   -0.2370    0.7600 C   0  0  2  0  0  0  0  0  0  0  0  0
   -1.1160   -0.0070    0.7120 N   0  0  0  0  0  0  0  0  0  0  0  0
   -2.7650   -1.5130    1.4770 C   0  0  0  0  0  0  0  0  0  0  0  0
   -1.7580   -2.1840    1.8900 O   0  0  0  0  0  0  0  0  0  0  0  0
   -4.0060   -2.0710    1.7550 O   0  0  0  0  0  0  0  0  0  0  0  0
   -5.4950    0.2730    1.1660 H   0  0  0  0  0  0  0  0  0  0  0  0
   -4.8300    1.5810    0.1450 H   0  0  0  0  0  0  0  0  0  0  0  0
   -6.4310    0.7600   -0.2680 H   0  0  0  0  0  0  0  0  0  0  0  0
   -4.9550   -0.4250   -1.7250 H   0  0  0  0  0  0  0  0  0  0  0  0
   -4.8510   -1.4600   -0.2930 H   0  0  0  0  0  0  0  0  0  0  0  0
   -2.8750    0.6980   -1.1850 H   0  0  0  0  0  0  0  0  0  0  0  0
   -2.8070   -2.3070   -0.8040 H   0  0  0  0  0  0  0  0  0  0  0  0
   -1.4610   -1.3320   -1.4840 H   0  0  0  0  0  0  0  0  0  0  0  0
   -3.0580   -1.5270   -2.3770 H   0  0  0  0  0  0  0  0  0  0  0  0
   -3.0720    0.5590    1.3400 H   0  0  0  0  0  0  0  0  0  0  0  0
   -0.5140   -0.6810    0.1970 H   0  0  0  0  0  0  0  0  0  0  0  0
  1  2  1  0  0  0  0
  1 11  1  0  0  0  0
  2 12  1  0  0  0  0
  2  3  1  0  0  0  0
  3 13  1  0  0  0  0
  3 15  1  0  0  0  0
  4  5  1  0  0  0  0
  4  2  1  0  0  0  0
  5 18  1  6  0  0  0
  5  7  1  0  0  0  0
  5  6  1  0  0  0  0
  6 20  1  0  0  0  0
  7  8  2  0  0  0  0
  9  1  1  0  0  0  0
 10  1  1  0  0  0  0
 14  3  1  0  0  0  0
 16  4  1  0  0  0  0
 17  4  1  0  0  0  0
 19  6  1  0  0  0  0
 21  7  1  0  0  0  0
 21 22  1  0  0  0  0
 22 26  1  0  0  0  0
 22 30  1  1  0  0  0
 23 32  1  0  0  0  0
 23 22  1  0  0  0  0
 23 31  1  0  0  0  0
 24 23  1  0  0  0  0
 25 24  2  0  0  0  0
 26 27  2  0  0  0  0
 28 24  1  0  0  0  0
 29 21  1  0  0  0  0
 33 28  1  0  0  0  0
 34 44  1  0  0  0  0
 34 43  1  0  0  0  0
 35 36  1  0  0  0  0
 35 47  1  0  0  0  0
 35 34  1  0  0  0  0
 36 48  1  6  0  0  0
 36 38  1  0  0  0  0
 37 49  1  0  0  0  0
 37 36  1  0  0  0  0
 38 52  1  1  0  0  0
 38 40  1  0  0  0  0
 39 38  1  0  0  0  0
 39 26  1  0  0  0  0
 40 42  2  0  0  0  0
 40 41  1  0  0  0  0
 45 34  1  0  0  0  0
 46 35  1  0  0  0  0
 50 37  1  0  0  0  0
 51 37  1  0  0  0  0
 53 39  1  0  0  0  0
M  END
$$$$
