LDL.pdb
 OpenBabel07022418443D

 53 52  0  0  1  0  0  0  0  0999 V2000
    0.9380   -4.6990    1.6790 C   0  0  0  0  0  0  0  0  0  0  0  0
    1.2910   -3.3940    2.4070 C   0  0  0  0  0  0  0  0  0  0  0  0
    0.0310   -2.5780    2.4780 C   0  0  0  0  0  0  0  0  0  0  0  0
    2.4080   -2.7750    1.6440 C   0  0  0  0  0  0  0  0  0  0  0  0
    2.9370   -1.4860    2.1550 C   0  0  2  0  0  0  0  0  0  0  0  0
    3.4280   -1.5880    3.5220 N   0  0  0  0  0  0  0  0  0  0  0  0
    2.1210   -0.2900    1.9520 C   0  0  0  0  0  0  0  0  0  0  0  0
    1.7580    0.3920    2.9660 O   0  0  0  0  0  0  0  0  0  0  0  0
    0.1100   -4.5230    0.9520 H   0  0  0  0  0  0  0  0  0  0  0  0
    1.8420   -5.0900    1.1760 H   0  0  0  0  0  0  0  0  0  0  0  0
    0.5630   -5.3920    2.4370 H   0  0  0  0  0  0  0  0  0  0  0  0
    1.5980   -3.6640    3.4440 H   0  0  0  0  0  0  0  0  0  0  0  0
   -0.8830   -3.2080    2.2710 H   0  0  0  0  0  0  0  0  0  0  0  0
    0.1220   -1.7780    1.7450 H   0  0  0  0  0  0  0  0  0  0  0  0
   -0.1210   -2.1090    3.4780 H   0  0  0  0  0  0  0  0  0  0  0  0
    3.2500   -3.5170    1.5960 H   0  0  0  0  0  0  0  0  0  0  0  0
    2.0820   -2.6080    0.5890 H   0  0  0  0  0  0  0  0  0  0  0  0
    3.8940   -1.3010    1.5510 H   0  0  0  0  0  0  0  0  0  0  0  0
    4.3030   -2.1500    3.5310 H   0  0  0  0  0  0  0  0  0  0  0  0
    2.6890   -2.0010    4.1330 H   0  0  0  0  0  0  0  0  0  0  0  0
    1.6820    0.2070    0.6960 N   0  0  0  0  0  0  0  0  0  0  0  0
    0.8900    1.3980    0.5170 C   0  0  1  0  0  0  0  0  0  0  0  0
    1.7030    2.5050   -0.1280 C   0  0  0  0  0  0  0  0  0  0  0  0
    2.2280    2.1580   -1.4490 C   0  0  0  0  0  0  0  0  0  0  0  0
    1.5150    2.1440   -2.4850 O   0  0  0  0  0  0  0  0  0  0  0  0
   -0.3170    1.1070   -0.2900 C   0  0  0  0  0  0  0  0  0  0  0  0
   -1.1290    2.0360   -0.6130 O   0  0  0  0  0  0  0  0  0  0  0  0
    3.5650    1.8240   -1.6120 O   0  0  0  0  0  0  0  0  0  0  0  0
    1.9560   -0.3300   -0.1540 H   0  0  0  0  0  0  0  0  0  0  0  0
    0.6290    1.7960    1.5320 H   0  0  0  0  0  0  0  0  0  0  0  0
    2.5520    2.7220    0.5530 H   0  0  0  0  0  0  0  0  0  0  0  0
    1.0400    3.3920   -0.1870 H   0  0  0  0  0  0  0  0  0  0  0  0
    3.8350    1.1440   -2.3240 H   0  0  0  0  0  0  0  0  0  0  0  0
   -2.8190   -0.0060    1.3960 C   0  0  0  0  0  0  0  0  0  0  0  0
   -3.6390   -0.3810    0.2200 C   0  0  0  0  0  0  0  0  0  0  0  0
   -5.1020   -0.0060    0.4050 C   0  0  0  0  0  0  0  0  0  0  0  0
   -3.1340    0.0130   -1.1300 C   0  0  0  0  0  0  0  0  0  0  0  0
   -1.7990   -0.5440   -1.5310 C   0  0  2  0  0  0  0  0  0  0  0  0
   -0.6680   -0.1960   -0.7620 N   0  0  0  0  0  0  0  0  0  0  0  0
   -1.5870   -0.4790   -2.9970 C   0  0  0  0  0  0  0  0  0  0  0  0
   -2.5370   -0.7750   -3.7650 O   0  0  0  0  0  0  0  0  0  0  0  0
   -0.3920   -0.1070   -3.5990 O   0  0  0  0  0  0  0  0  0  0  0  0
   -1.8420   -0.5130    1.4500 H   0  0  0  0  0  0  0  0  0  0  0  0
   -2.6490    1.0850    1.3990 H   0  0  0  0  0  0  0  0  0  0  0  0
   -3.4240   -0.2860    2.3130 H   0  0  0  0  0  0  0  0  0  0  0  0
   -3.6620   -1.5230    0.2140 H   0  0  0  0  0  0  0  0  0  0  0  0
   -5.1760    1.0440    0.6860 H   0  0  0  0  0  0  0  0  0  0  0  0
   -5.6360   -0.2570   -0.5130 H   0  0  0  0  0  0  0  0  0  0  0  0
   -5.4990   -0.6390    1.2220 H   0  0  0  0  0  0  0  0  0  0  0  0
   -3.1250    1.1240   -1.1820 H   0  0  0  0  0  0  0  0  0  0  0  0
   -3.9120   -0.3710   -1.8750 H   0  0  0  0  0  0  0  0  0  0  0  0
   -1.9450   -1.6770   -1.3160 H   0  0  0  0  0  0  0  0  0  0  0  0
    0.0440   -0.9470   -0.4730 H   0  0  0  0  0  0  0  0  0  0  0  0
  1  2  1  0  0  0  0
  1 11  1  0  0  0  0
  2  3  1  0  0  0  0
  2 12  1  0  0  0  0
  3 15  1  0  0  0  0
  4  5  1  0  0  0  0
  4  2  1  0  0  0  0
  5 18  1  6  0  0  0
  5  6  1  0  0  0  0
  6 19  1  0  0  0  0
  6 20  1  0  0  0  0
  7  5  1  0  0  0  0
  7  8  2  0  0  0  0
  9  1  1  0  0  0  0
 10  1  1  0  0  0  0
 13  3  1  0  0  0  0
 14  3  1  0  0  0  0
 16  4  1  0  0  0  0
 17  4  1  0  0  0  0
 21  7  1  0  0  0  0
 22 21  1  0  0  0  0
 22 30  1  1  0  0  0
 23 22  1  0  0  0  0
 23 31  1  0  0  0  0
 24 23  1  0  0  0  0
 25 24  2  0  0  0  0
 26 22  1  0  0  0  0
 27 26  2  0  0  0  0
 28 24  1  0  0  0  0
 29 21  1  0  0  0  0
 32 23  1  0  0  0  0
 33 28  1  0  0  0  0
 34 44  1  0  0  0  0
 34 43  1  0  0  0  0
 34 45  1  0  0  0  0
 35 36  1  0  0  0  0
 35 34  1  0  0  0  0
 36 47  1  0  0  0  0
 36 49  1  0  0  0  0
 37 35  1  0  0  0  0
 38 52  1  1  0  0  0
 38 37  1  0  0  0  0
 38 39  1  0  0  0  0
 39 53  1  0  0  0  0
 39 26  1  0  0  0  0
 40 38  1  0  0  0  0
 41 40  2  0  0  0  0
 42 40  1  0  0  0  0
 46 35  1  0  0  0  0
 48 36  1  0  0  0  0
 50 37  1  0  0  0  0
 51 37  1  0  0  0  0
M  END
$$$$
