LDM.pdb
 OpenBabel07022418443D

 51 50  0  0  1  0  0  0  0  0999 V2000
    3.5410   -4.1690    2.6850 C   0  0  0  0  0  0  0  0  0  0  0  0
    3.1860   -3.8960    1.2400 C   0  0  0  0  0  0  0  0  0  0  0  0
    1.7070   -3.9200    1.0730 C   0  0  0  0  0  0  0  0  0  0  0  0
    3.9170   -2.7670    0.6250 C   0  0  0  0  0  0  0  0  0  0  0  0
    3.7770   -1.4210    1.2140 C   0  0  2  0  0  0  0  0  0  0  0  0
    4.1760   -1.3130    2.5770 N   0  0  0  0  0  0  0  0  0  0  0  0
    2.5100   -0.7210    0.8760 C   0  0  0  0  0  0  0  0  0  0  0  0
    2.1490   -0.7350   -0.3160 O   0  0  0  0  0  0  0  0  0  0  0  0
    2.6960   -3.8460    3.3560 H   0  0  0  0  0  0  0  0  0  0  0  0
    3.6080   -5.2810    2.8920 H   0  0  0  0  0  0  0  0  0  0  0  0
    4.5120   -3.7700    2.9820 H   0  0  0  0  0  0  0  0  0  0  0  0
    3.5540   -4.8280    0.6910 H   0  0  0  0  0  0  0  0  0  0  0  0
    1.1560   -3.3690    1.8610 H   0  0  0  0  0  0  0  0  0  0  0  0
    1.3530   -3.6270    0.0860 H   0  0  0  0  0  0  0  0  0  0  0  0
    1.3690   -4.9900    1.2090 H   0  0  0  0  0  0  0  0  0  0  0  0
    3.7380   -2.7120   -0.4860 H   0  0  0  0  0  0  0  0  0  0  0  0
    5.0180   -3.0350    0.6770 H   0  0  0  0  0  0  0  0  0  0  0  0
    4.5650   -0.7830    0.6530 H   0  0  0  0  0  0  0  0  0  0  0  0
    5.1650   -1.4930    2.7240 H   0  0  0  0  0  0  0  0  0  0  0  0
    3.5180   -1.6100    3.2870 H   0  0  0  0  0  0  0  0  0  0  0  0
    1.7250   -0.0540    1.8400 N   0  0  0  0  0  0  0  0  0  0  0  0
    0.4960    0.6490    1.5620 C   0  0  1  0  0  0  0  0  0  0  0  0
    0.8370    1.9700    0.9670 C   0  0  0  0  0  0  0  0  0  0  0  0
   -0.2580    2.8540    0.6150 C   0  0  0  0  0  0  0  0  0  0  0  0
   -0.9070    3.4410    1.5200 O   0  0  0  0  0  0  0  0  0  0  0  0
   -0.4370   -0.1900    0.8140 C   0  0  0  0  0  0  0  0  0  0  0  0
   -0.1240   -1.3570    0.5150 O   0  0  0  0  0  0  0  0  0  0  0  0
   -0.6390    3.0950   -0.6940 O   0  0  0  0  0  0  0  0  0  0  0  0
    2.0880   -0.0830    2.8450 H   0  0  0  0  0  0  0  0  0  0  0  0
   -0.0170    0.7830    2.5780 H   0  0  0  0  0  0  0  0  0  0  0  0
    1.5740    2.4470    1.6820 H   0  0  0  0  0  0  0  0  0  0  0  0
    1.4640    1.8170    0.0420 H   0  0  0  0  0  0  0  0  0  0  0  0
   -1.0540    3.9970   -0.9780 H   0  0  0  0  0  0  0  0  0  0  0  0
   -4.4620    2.2690   -1.3920 C   0  0  0  0  0  0  0  0  0  0  0  0
   -5.5290    1.0000   -0.7640 S   0  0  0  0  0  0  0  0  0  0  0  0
   -4.9070   -0.0260    0.5460 C   0  0  0  0  0  0  0  0  0  0  0  0
   -3.8860   -1.0220    0.1870 C   0  0  0  0  0  0  0  0  0  0  0  0
   -2.5950   -0.6350   -0.3560 C   0  0  2  0  0  0  0  0  0  0  0  0
   -1.7260    0.2180    0.3750 N   0  0  0  0  0  0  0  0  0  0  0  0
   -2.6690   -0.2220   -1.7670 C   0  0  0  0  0  0  0  0  0  0  0  0
   -1.8940    0.6890   -2.2130 O   0  0  0  0  0  0  0  0  0  0  0  0
   -3.5530   -0.7780   -2.6570 O   0  0  0  0  0  0  0  0  0  0  0  0
   -3.5270    2.3840   -0.8330 H   0  0  0  0  0  0  0  0  0  0  0  0
   -4.2530    2.0630   -2.4820 H   0  0  0  0  0  0  0  0  0  0  0  0
   -4.9450    3.2940   -1.3500 H   0  0  0  0  0  0  0  0  0  0  0  0
   -4.5800    0.6080    1.4430 H   0  0  0  0  0  0  0  0  0  0  0  0
   -5.8340   -0.5290    1.0050 H   0  0  0  0  0  0  0  0  0  0  0  0
   -3.8020   -1.8390    0.9890 H   0  0  0  0  0  0  0  0  0  0  0  0
   -4.3760   -1.6590   -0.6450 H   0  0  0  0  0  0  0  0  0  0  0  0
   -2.0250   -1.6790   -0.4760 H   0  0  0  0  0  0  0  0  0  0  0  0
   -2.0730    1.1750    0.5950 H   0  0  0  0  0  0  0  0  0  0  0  0
  1 10  1  0  0  0  0
  1 11  1  0  0  0  0
  1  9  1  0  0  0  0
  2  1  1  0  0  0  0
  3 15  1  0  0  0  0
  3  2  1  0  0  0  0
  3 13  1  0  0  0  0
  4 17  1  0  0  0  0
  4  5  1  0  0  0  0
  4  2  1  0  0  0  0
  5 18  1  6  0  0  0
  5  6  1  0  0  0  0
  6 19  1  0  0  0  0
  6 20  1  0  0  0  0
  7  5  1  0  0  0  0
  7 21  1  0  0  0  0
  8  7  2  0  0  0  0
 12  2  1  0  0  0  0
 14  3  1  0  0  0  0
 16  4  1  0  0  0  0
 21 29  1  0  0  0  0
 22 21  1  0  0  0  0
 22 30  1  1  0  0  0
 23 22  1  0  0  0  0
 23 31  1  0  0  0  0
 24 23  1  0  0  0  0
 24 25  2  0  0  0  0
 26 22  1  0  0  0  0
 27 26  2  0  0  0  0
 28 24  1  0  0  0  0
 32 23  1  0  0  0  0
 33 28  1  0  0  0  0
 34 45  1  0  0  0  0
 34 43  1  0  0  0  0
 34 35  1  0  0  0  0
 35 36  1  0  0  0  0
 36 47  1  0  0  0  0
 36 46  1  0  0  0  0
 37 36  1  0  0  0  0
 37 48  1  0  0  0  0
 38 50  1  6  0  0  0
 38 37  1  0  0  0  0
 38 39  1  0  0  0  0
 39 51  1  0  0  0  0
 39 26  1  0  0  0  0
 40 38  1  0  0  0  0
 41 40  1  0  0  0  0
 42 40  2  0  0  0  0
 44 34  1  0  0  0  0
 49 37  1  0  0  0  0
M  END
$$$$
