LDN.pdb
 OpenBabel07022418443D

 48 47  0  0  1  0  0  0  0  0999 V2000
    1.0160   -4.8460    0.6670 C   0  0  0  0  0  0  0  0  0  0  0  0
    1.8490   -3.6310    1.1140 C   0  0  0  0  0  0  0  0  0  0  0  0
    1.0550   -2.9190    2.1490 C   0  0  0  0  0  0  0  0  0  0  0  0
    2.2530   -2.8210   -0.0660 C   0  0  0  0  0  0  0  0  0  0  0  0
    3.0710   -1.6340    0.2700 C   0  0  2  0  0  0  0  0  0  0  0  0
    4.2580   -2.1390    0.9700 N   0  0  0  0  0  0  0  0  0  0  0  0
    2.4750   -0.5590    1.0380 C   0  0  0  0  0  0  0  0  0  0  0  0
    2.8980   -0.2710    2.1890 O   0  0  0  0  0  0  0  0  0  0  0  0
    0.1780   -4.4520    0.0810 H   0  0  0  0  0  0  0  0  0  0  0  0
    1.6170   -5.5200    0.0260 H   0  0  0  0  0  0  0  0  0  0  0  0
    0.7100   -5.3590    1.6070 H   0  0  0  0  0  0  0  0  0  0  0  0
    2.7740   -4.0580    1.5660 H   0  0  0  0  0  0  0  0  0  0  0  0
    1.7080   -2.5660    2.9760 H   0  0  0  0  0  0  0  0  0  0  0  0
    0.5320   -2.0730    1.7190 H   0  0  0  0  0  0  0  0  0  0  0  0
    0.2460   -3.5840    2.5700 H   0  0  0  0  0  0  0  0  0  0  0  0
    1.4010   -2.6020   -0.7530 H   0  0  0  0  0  0  0  0  0  0  0  0
    2.9220   -3.4970   -0.6880 H   0  0  0  0  0  0  0  0  0  0  0  0
    3.5020   -1.2530   -0.7160 H   0  0  0  0  0  0  0  0  0  0  0  0
    5.0120   -2.4040    0.3310 H   0  0  0  0  0  0  0  0  0  0  0  0
    4.5310   -1.4720    1.7200 H   0  0  0  0  0  0  0  0  0  0  0  0
    1.3840    0.2510    0.5660 N   0  0  0  0  0  0  0  0  0  0  0  0
    0.8430    1.3060    1.3860 C   0  0  1  0  0  0  0  0  0  0  0  0
    1.2210    2.6800    0.8420 C   0  0  0  0  0  0  0  0  0  0  0  0
    0.7020    2.8560   -0.5270 C   0  0  0  0  0  0  0  0  0  0  0  0
   -0.4890    3.2400   -0.7380 O   0  0  0  0  0  0  0  0  0  0  0  0
   -0.6130    1.1880    1.5980 C   0  0  0  0  0  0  0  0  0  0  0  0
   -1.2640    2.0270    2.2660 O   0  0  0  0  0  0  0  0  0  0  0  0
    1.5330    2.5960   -1.6080 O   0  0  0  0  0  0  0  0  0  0  0  0
    0.9980    0.0560   -0.3750 H   0  0  0  0  0  0  0  0  0  0  0  0
    1.3570    1.2770    2.3940 H   0  0  0  0  0  0  0  0  0  0  0  0
    2.3250    2.7790    0.8080 H   0  0  0  0  0  0  0  0  0  0  0  0
    0.8740    3.4840    1.5330 H   0  0  0  0  0  0  0  0  0  0  0  0
    1.1430    2.6090   -2.5440 H   0  0  0  0  0  0  0  0  0  0  0  0
   -4.2120    2.1580   -0.8870 N   0  0  0  0  0  0  0  0  0  0  0  0
   -3.3760    1.0200   -0.8650 C   0  0  0  0  0  0  0  0  0  0  0  0
   -2.3680    0.9690   -1.6370 O   0  0  0  0  0  0  0  0  0  0  0  0
   -3.6110   -0.1280    0.0170 C   0  0  0  0  0  0  0  0  0  0  0  0
   -2.8100    0.0160    1.2820 C   0  0  2  0  0  0  0  0  0  0  0  0
   -1.3820    0.0960    1.0510 N   0  0  0  0  0  0  0  0  0  0  0  0
   -3.1380   -1.1950    2.1130 C   0  0  0  0  0  0  0  0  0  0  0  0
   -2.2100   -1.9310    2.4730 O   0  0  0  0  0  0  0  0  0  0  0  0
   -4.4420   -1.4850    2.4680 O   0  0  0  0  0  0  0  0  0  0  0  0
   -5.0800    2.1860   -0.3150 H   0  0  0  0  0  0  0  0  0  0  0  0
   -3.9770    2.9910   -1.4760 H   0  0  0  0  0  0  0  0  0  0  0  0
   -4.6910   -0.2910    0.2360 H   0  0  0  0  0  0  0  0  0  0  0  0
   -3.3050   -1.0520   -0.5500 H   0  0  0  0  0  0  0  0  0  0  0  0
   -3.1520    0.9210    1.8270 H   0  0  0  0  0  0  0  0  0  0  0  0
   -0.9300   -0.6350    0.4910 H   0  0  0  0  0  0  0  0  0  0  0  0
  1  2  1  0  0  0  0
  1 11  1  0  0  0  0
  2 12  1  0  0  0  0
  2  3  1  0  0  0  0
  3 15  1  0  0  0  0
  3 13  1  0  0  0  0
  4  5  1  0  0  0  0
  4  2  1  0  0  0  0
  5 18  1  6  0  0  0
  5  6  1  0  0  0  0
  5  7  1  0  0  0  0
  6 20  1  0  0  0  0
  7  8  2  0  0  0  0
  9  1  1  0  0  0  0
 10  1  1  0  0  0  0
 14  3  1  0  0  0  0
 16  4  1  0  0  0  0
 17  4  1  0  0  0  0
 19  6  1  0  0  0  0
 21  7  1  0  0  0  0
 21 22  1  0  0  0  0
 22 26  1  0  0  0  0
 22 30  1  1  0  0  0
 23 22  1  0  0  0  0
 23 32  1  0  0  0  0
 24 23  1  0  0  0  0
 25 24  2  0  0  0  0
 26 27  2  0  0  0  0
 28 24  1  0  0  0  0
 29 21  1  0  0  0  0
 31 23  1  0  0  0  0
 33 28  1  0  0  0  0
 34 35  1  0  0  0  0
 34 43  1  0  0  0  0
 35 37  1  0  0  0  0
 36 35  2  0  0  0  0
 37 45  1  0  0  0  0
 37 38  1  0  0  0  0
 38 47  1  1  0  0  0
 38 40  1  0  0  0  0
 39 38  1  0  0  0  0
 39 26  1  0  0  0  0
 40 42  2  0  0  0  0
 40 41  1  0  0  0  0
 44 34  1  0  0  0  0
 46 37  1  0  0  0  0
 48 39  1  0  0  0  0
M  END
$$$$
