LDP.pdb
 OpenBabel07022418443D

 48 48  0  0  1  0  0  0  0  0999 V2000
    0.5440   -4.5230   -0.2750 C   0  0  0  0  0  0  0  0  0  0  0  0
    1.3250   -3.6770    0.7350 C   0  0  0  0  0  0  0  0  0  0  0  0
    0.3520   -3.2080    1.7740 C   0  0  0  0  0  0  0  0  0  0  0  0
    1.9390   -2.5570   -0.0430 C   0  0  0  0  0  0  0  0  0  0  0  0
    2.7580   -1.5980    0.7710 C   0  0  2  0  0  0  0  0  0  0  0  0
    3.8050   -2.3930    1.3920 N   0  0  0  0  0  0  0  0  0  0  0  0
    2.0110   -0.7510    1.7020 C   0  0  0  0  0  0  0  0  0  0  0  0
    2.0950   -0.9510    2.9630 O   0  0  0  0  0  0  0  0  0  0  0  0
   -0.2360   -5.1420    0.2510 H   0  0  0  0  0  0  0  0  0  0  0  0
   -0.0110   -3.8280   -0.9350 H   0  0  0  0  0  0  0  0  0  0  0  0
    1.2150   -5.1990   -0.8320 H   0  0  0  0  0  0  0  0  0  0  0  0
    2.0960   -4.3670    1.1600 H   0  0  0  0  0  0  0  0  0  0  0  0
    0.7890   -3.4130    2.7750 H   0  0  0  0  0  0  0  0  0  0  0  0
    0.0330   -2.1830    1.6300 H   0  0  0  0  0  0  0  0  0  0  0  0
   -0.5880   -3.8340    1.7490 H   0  0  0  0  0  0  0  0  0  0  0  0
    1.1410   -1.9940   -0.5480 H   0  0  0  0  0  0  0  0  0  0  0  0
    2.6220   -3.0510   -0.7990 H   0  0  0  0  0  0  0  0  0  0  0  0
    3.3060   -0.9500    0.0260 H   0  0  0  0  0  0  0  0  0  0  0  0
    4.6440   -1.8110    1.6200 H   0  0  0  0  0  0  0  0  0  0  0  0
    4.1060   -3.0960    0.6640 H   0  0  0  0  0  0  0  0  0  0  0  0
    1.1790    0.3200    1.1990 N   0  0  0  0  0  0  0  0  0  0  0  0
    0.4580    1.1590    2.0720 C   0  0  1  0  0  0  0  0  0  0  0  0
    1.1070    2.5550    2.1580 C   0  0  0  0  0  0  0  0  0  0  0  0
    1.1490    3.2010    0.8550 C   0  0  0  0  0  0  0  0  0  0  0  0
    0.0460    3.2810    0.2030 O   0  0  0  0  0  0  0  0  0  0  0  0
   -0.9690    1.3420    1.9210 C   0  0  0  0  0  0  0  0  0  0  0  0
   -1.4790    2.1620    2.7950 O   0  0  0  0  0  0  0  0  0  0  0  0
    2.2540    3.7470    0.2220 O   0  0  0  0  0  0  0  0  0  0  0  0
    1.1760    0.4320    0.1640 H   0  0  0  0  0  0  0  0  0  0  0  0
    0.6180    0.7640    3.1290 H   0  0  0  0  0  0  0  0  0  0  0  0
    2.0800    2.5150    2.6690 H   0  0  0  0  0  0  0  0  0  0  0  0
    0.4190    3.1480    2.8100 H   0  0  0  0  0  0  0  0  0  0  0  0
    2.4710    3.4740   -0.7550 H   0  0  0  0  0  0  0  0  0  0  0  0
   -1.8900    0.8050    1.0190 N   0  0  0  0  0  0  0  0  0  0  0  0
   -3.3060    1.1070    1.0000 C   0  0  0  0  0  0  0  0  0  0  0  0
   -3.9260   -0.2420    0.7030 C   0  0  0  0  0  0  0  0  0  0  0  0
   -2.8160   -1.1320    0.2120 C   0  0  0  0  0  0  0  0  0  0  0  0
   -1.6780   -0.1200   -0.0470 C   0  0  1  0  0  0  0  0  0  0  0  0
   -1.8560    0.4930   -1.3950 C   0  0  0  0  0  0  0  0  0  0  0  0
   -2.1710    1.6690   -1.6060 O   0  0  0  0  0  0  0  0  0  0  0  0
   -1.6440   -0.3450   -2.4960 O   0  0  0  0  0  0  0  0  0  0  0  0
   -3.5660    1.8630    0.2310 H   0  0  0  0  0  0  0  0  0  0  0  0
   -3.6690    1.4170    2.0110 H   0  0  0  0  0  0  0  0  0  0  0  0
   -4.7640   -0.1450   -0.0290 H   0  0  0  0  0  0  0  0  0  0  0  0
   -4.3720   -0.7220    1.6080 H   0  0  0  0  0  0  0  0  0  0  0  0
   -3.0970   -1.6540   -0.7160 H   0  0  0  0  0  0  0  0  0  0  0  0
   -2.4680   -1.8550    0.9860 H   0  0  0  0  0  0  0  0  0  0  0  0
   -0.7740   -0.7140   -0.0220 H   0  0  0  0  0  0  0  0  0  0  0  0
  1  9  1  0  0  0  0
  1  2  1  0  0  0  0
  2 12  1  0  0  0  0
  2  3  1  0  0  0  0
  3 13  1  0  0  0  0
  4  2  1  0  0  0  0
  4  5  1  0  0  0  0
  5 18  1  6  0  0  0
  5  6  1  0  0  0  0
  5  7  1  0  0  0  0
  6 19  1  0  0  0  0
  7  8  2  0  0  0  0
 10  1  1  0  0  0  0
 11  1  1  0  0  0  0
 14  3  1  0  0  0  0
 15  3  1  0  0  0  0
 16  4  1  0  0  0  0
 17  4  1  0  0  0  0
 20  6  1  0  0  0  0
 21  7  1  0  0  0  0
 21 22  1  0  0  0  0
 22 23  1  0  0  0  0
 22 30  1  1  0  0  0
 23 31  1  0  0  0  0
 23 32  1  0  0  0  0
 24 23  1  0  0  0  0
 25 24  2  0  0  0  0
 26 22  1  0  0  0  0
 26 27  2  0  0  0  0
 28 24  1  0  0  0  0
 29 21  1  0  0  0  0
 33 28  1  0  0  0  0
 34 26  1  0  0  0  0
 35 34  1  0  0  0  0
 35 43  1  0  0  0  0
 36 35  1  0  0  0  0
 36 45  1  0  0  0  0
 37 36  1  0  0  0  0
 37 47  1  0  0  0  0
 38 48  1  1  0  0  0
 38 37  1  0  0  0  0
 38 34  1  0  0  0  0
 39 38  1  0  0  0  0
 40 39  1  0  0  0  0
 41 39  2  0  0  0  0
 42 35  1  0  0  0  0
 44 36  1  0  0  0  0
 46 37  1  0  0  0  0
M  END
$$$$
