LDQ.pdb
 OpenBabel07022418443D

 51 50  0  0  1  0  0  0  0  0999 V2000
    2.6050   -2.5420    5.1420 C   0  0  0  0  0  0  0  0  0  0  0  0
    2.6110   -3.0030    3.7110 C   0  0  0  0  0  0  0  0  0  0  0  0
    1.9010   -4.3410    3.6320 C   0  0  0  0  0  0  0  0  0  0  0  0
    1.9250   -2.0640    2.7650 C   0  0  0  0  0  0  0  0  0  0  0  0
    2.5130   -0.7000    2.7080 C   0  0  2  0  0  0  0  0  0  0  0  0
    2.5270    0.0320    3.9210 N   0  0  0  0  0  0  0  0  0  0  0  0
    1.7550    0.0860    1.6890 C   0  0  0  0  0  0  0  0  0  0  0  0
    1.2710    1.2350    1.9710 O   0  0  0  0  0  0  0  0  0  0  0  0
    2.6420   -3.4110    5.8570 H   0  0  0  0  0  0  0  0  0  0  0  0
    3.5090   -1.9360    5.3950 H   0  0  0  0  0  0  0  0  0  0  0  0
    1.6670   -2.0120    5.3860 H   0  0  0  0  0  0  0  0  0  0  0  0
    3.6630   -3.1200    3.3210 H   0  0  0  0  0  0  0  0  0  0  0  0
    1.9090   -4.7430    2.5920 H   0  0  0  0  0  0  0  0  0  0  0  0
    0.8190   -4.1590    3.8610 H   0  0  0  0  0  0  0  0  0  0  0  0
    2.2490   -5.0720    4.3690 H   0  0  0  0  0  0  0  0  0  0  0  0
    0.8400   -1.9680    2.9770 H   0  0  0  0  0  0  0  0  0  0  0  0
    1.9930   -2.5220    1.7570 H   0  0  0  0  0  0  0  0  0  0  0  0
    3.5750   -0.7270    2.3260 H   0  0  0  0  0  0  0  0  0  0  0  0
    3.4390    0.3320    4.2730 H   0  0  0  0  0  0  0  0  0  0  0  0
    1.7310    0.6540    4.0970 H   0  0  0  0  0  0  0  0  0  0  0  0
    1.5390   -0.3990    0.3720 N   0  0  0  0  0  0  0  0  0  0  0  0
    0.7850    0.3940   -0.6290 C   0  0  1  0  0  0  0  0  0  0  0  0
    1.7520    0.6450   -1.7300 C   0  0  0  0  0  0  0  0  0  0  0  0
    1.1770    1.4230   -2.8220 C   0  0  0  0  0  0  0  0  0  0  0  0
    0.7260    0.8990   -3.8890 O   0  0  0  0  0  0  0  0  0  0  0  0
   -0.4230   -0.3520   -0.9560 C   0  0  0  0  0  0  0  0  0  0  0  0
   -0.5740   -1.5150   -0.4490 O   0  0  0  0  0  0  0  0  0  0  0  0
    1.1040    2.8040   -2.7270 O   0  0  0  0  0  0  0  0  0  0  0  0
    1.9190   -1.3310    0.1060 H   0  0  0  0  0  0  0  0  0  0  0  0
    0.5020    1.3630   -0.1620 H   0  0  0  0  0  0  0  0  0  0  0  0
    2.5810    1.2670   -1.2780 H   0  0  0  0  0  0  0  0  0  0  0  0
    2.2730   -0.2790   -2.0750 H   0  0  0  0  0  0  0  0  0  0  0  0
    0.4240    3.3400   -3.2790 H   0  0  0  0  0  0  0  0  0  0  0  0
   -3.2140    0.8370    2.0270 N   0  0  0  0  0  0  0  0  0  0  0  0
   -3.2490    0.9380    0.5780 C   0  0  0  0  0  0  0  0  0  0  0  0
   -2.5810    1.8120    0.0050 O   0  0  0  0  0  0  0  0  0  0  0  0
   -4.1010   -0.0350   -0.0970 C   0  0  0  0  0  0  0  0  0  0  0  0
   -3.9510   -0.2040   -1.5600 C   0  0  0  0  0  0  0  0  0  0  0  0
   -2.6480   -0.7000   -2.0750 C   0  0  2  0  0  0  0  0  0  0  0  0
   -1.4890    0.0900   -1.8040 N   0  0  0  0  0  0  0  0  0  0  0  0
   -2.7630   -1.0550   -3.5300 C   0  0  0  0  0  0  0  0  0  0  0  0
   -3.7400   -1.7550   -3.8970 O   0  0  0  0  0  0  0  0  0  0  0  0
   -1.8590   -0.6590   -4.4910 O   0  0  0  0  0  0  0  0  0  0  0  0
   -3.5920    1.5720    2.6340 H   0  0  0  0  0  0  0  0  0  0  0  0
   -2.7840   -0.0240    2.4080 H   0  0  0  0  0  0  0  0  0  0  0  0
   -5.1670    0.3260    0.0690 H   0  0  0  0  0  0  0  0  0  0  0  0
   -3.9900   -1.0330    0.4100 H   0  0  0  0  0  0  0  0  0  0  0  0
   -4.7190   -0.9840   -1.8620 H   0  0  0  0  0  0  0  0  0  0  0  0
   -4.2850    0.7370   -2.0870 H   0  0  0  0  0  0  0  0  0  0  0  0
   -2.4690   -1.6940   -1.5620 H   0  0  0  0  0  0  0  0  0  0  0  0
   -1.3930    1.0210   -2.2360 H   0  0  0  0  0  0  0  0  0  0  0  0
  1 11  1  0  0  0  0
  1 10  1  0  0  0  0
  1  9  1  0  0  0  0
  2  1  1  0  0  0  0
  3  2  1  0  0  0  0
  3 14  1  0  0  0  0
  3 15  1  0  0  0  0
  4 16  1  0  0  0  0
  4  2  1  0  0  0  0
  5 18  1  6  0  0  0
  5  4  1  0  0  0  0
  5  6  1  0  0  0  0
  6 20  1  0  0  0  0
  6 19  1  0  0  0  0
  7  8  2  0  0  0  0
  7  5  1  0  0  0  0
 12  2  1  0  0  0  0
 13  3  1  0  0  0  0
 17  4  1  0  0  0  0
 21  7  1  0  0  0  0
 22 30  1  1  0  0  0
 22 21  1  0  0  0  0
 23 31  1  0  0  0  0
 23 22  1  0  0  0  0
 24 28  1  0  0  0  0
 24 23  1  0  0  0  0
 25 24  2  0  0  0  0
 26 22  1  0  0  0  0
 26 27  2  0  0  0  0
 29 21  1  0  0  0  0
 32 23  1  0  0  0  0
 33 28  1  0  0  0  0
 34 45  1  0  0  0  0
 34 44  1  0  0  0  0
 35 34  1  0  0  0  0
 36 35  2  0  0  0  0
 37 46  1  0  0  0  0
 37 47  1  0  0  0  0
 37 35  1  0  0  0  0
 38 37  1  0  0  0  0
 39 40  1  0  0  0  0
 39 50  1  1  0  0  0
 39 38  1  0  0  0  0
 40 26  1  0  0  0  0
 41 39  1  0  0  0  0
 42 41  1  0  0  0  0
 43 41  2  0  0  0  0
 48 38  1  0  0  0  0
 49 38  1  0  0  0  0
 51 40  1  0  0  0  0
M  END
$$$$
