LDR.pdb
 OpenBabel07022418443D

 57 56  0  0  1  0  0  0  0  0999 V2000
    2.1170   -1.2750    3.2520 C   0  0  0  0  0  0  0  0  0  0  0  0
    3.4760   -1.7040    2.8240 C   0  0  0  0  0  0  0  0  0  0  0  0
    4.5170   -1.5040    3.9240 C   0  0  0  0  0  0  0  0  0  0  0  0
    3.9460   -1.2170    1.4980 C   0  0  0  0  0  0  0  0  0  0  0  0
    4.0400    0.2430    1.2910 C   0  0  2  0  0  0  0  0  0  0  0  0
    4.9620    0.8410    2.2750 N   0  0  0  0  0  0  0  0  0  0  0  0
    2.8290    1.0350    1.2850 C   0  0  0  0  0  0  0  0  0  0  0  0
    2.5090    1.9350    2.1030 O   0  0  0  0  0  0  0  0  0  0  0  0
    2.2180   -0.6080    4.1610 H   0  0  0  0  0  0  0  0  0  0  0  0
    1.5070   -0.8020    2.4740 H   0  0  0  0  0  0  0  0  0  0  0  0
    1.4900   -2.1350    3.6380 H   0  0  0  0  0  0  0  0  0  0  0  0
    3.4220   -2.8330    2.7090 H   0  0  0  0  0  0  0  0  0  0  0  0
    5.5380   -1.6920    3.5490 H   0  0  0  0  0  0  0  0  0  0  0  0
    4.4200   -0.4830    4.3810 H   0  0  0  0  0  0  0  0  0  0  0  0
    4.3660   -2.2120    4.7670 H   0  0  0  0  0  0  0  0  0  0  0  0
    3.3080   -1.6860    0.7190 H   0  0  0  0  0  0  0  0  0  0  0  0
    4.9640   -1.6450    1.3400 H   0  0  0  0  0  0  0  0  0  0  0  0
    4.5700    0.4040    0.3150 H   0  0  0  0  0  0  0  0  0  0  0  0
    5.8760    0.3830    2.2830 H   0  0  0  0  0  0  0  0  0  0  0  0
    5.0260    1.8780    2.1050 H   0  0  0  0  0  0  0  0  0  0  0  0
    1.8620    0.8070    0.2560 N   0  0  0  0  0  0  0  0  0  0  0  0
    0.6150    1.5880    0.2100 C   0  0  1  0  0  0  0  0  0  0  0  0
    0.7450    2.5310   -0.9770 C   0  0  0  0  0  0  0  0  0  0  0  0
   -0.4570    3.3530   -1.0970 C   0  0  0  0  0  0  0  0  0  0  0  0
   -1.4450    2.9880   -1.7730 O   0  0  0  0  0  0  0  0  0  0  0  0
   -0.4950    0.6340    0.0700 C   0  0  0  0  0  0  0  0  0  0  0  0
   -1.6680    1.1320    0.0360 O   0  0  0  0  0  0  0  0  0  0  0  0
   -0.5070    4.5800   -0.4410 O   0  0  0  0  0  0  0  0  0  0  0  0
    2.0230    0.0840   -0.4820 H   0  0  0  0  0  0  0  0  0  0  0  0
    0.4980    2.2060    1.1030 H   0  0  0  0  0  0  0  0  0  0  0  0
    0.9450    1.9360   -1.9100 H   0  0  0  0  0  0  0  0  0  0  0  0
    1.6210    3.1700   -0.8200 H   0  0  0  0  0  0  0  0  0  0  0  0
   -1.2230    5.2640   -0.6580 H   0  0  0  0  0  0  0  0  0  0  0  0
   -6.4590   -0.8850   -0.4970 N   0  0  0  0  0  0  0  0  0  0  0  0
   -5.8240   -1.6970   -1.4710 C   0  0  0  0  0  0  0  0  0  0  0  0
   -6.3470   -1.9250   -2.6290 N   0  0  0  0  0  0  0  0  0  0  0  0
   -4.5350   -2.2730   -1.1060 N   0  0  0  0  0  0  0  0  0  0  0  0
   -3.7950   -2.9110   -2.1460 C   0  0  0  0  0  0  0  0  0  0  0  0
   -2.4500   -3.4040   -1.8030 C   0  0  0  0  0  0  0  0  0  0  0  0
   -1.3940   -2.4510   -1.4070 C   0  0  0  0  0  0  0  0  0  0  0  0
   -1.5630   -1.6350   -0.1760 C   0  0  2  0  0  0  0  0  0  0  0  0
   -0.3700   -0.7580   -0.0290 N   0  0  0  0  0  0  0  0  0  0  0  0
   -1.5380   -2.5280    1.0060 C   0  0  0  0  0  0  0  0  0  0  0  0
   -0.6340   -2.3720    1.8740 O   0  0  0  0  0  0  0  0  0  0  0  0
   -2.4500   -3.5520    1.2470 O   0  0  0  0  0  0  0  0  0  0  0  0
   -6.6630   -1.2280    0.4870 H   0  0  0  0  0  0  0  0  0  0  0  0
   -6.7640    0.1040   -0.6970 H   0  0  0  0  0  0  0  0  0  0  0  0
   -5.8330   -2.5260   -3.2920 H   0  0  0  0  0  0  0  0  0  0  0  0
   -4.2730   -2.1900   -0.1130 H   0  0  0  0  0  0  0  0  0  0  0  0
   -3.8020   -2.2910   -3.0920 H   0  0  0  0  0  0  0  0  0  0  0  0
   -4.3930   -3.8280   -2.4790 H   0  0  0  0  0  0  0  0  0  0  0  0
   -2.5560   -4.2160   -1.0120 H   0  0  0  0  0  0  0  0  0  0  0  0
   -2.0120   -4.0120   -2.6670 H   0  0  0  0  0  0  0  0  0  0  0  0
   -0.4360   -3.0640   -1.3210 H   0  0  0  0  0  0  0  0  0  0  0  0
   -1.1360   -1.7480   -2.2510 H   0  0  0  0  0  0  0  0  0  0  0  0
   -2.4170   -0.9550   -0.1600 H   0  0  0  0  0  0  0  0  0  0  0  0
    0.5490   -1.2260   -0.0030 H   0  0  0  0  0  0  0  0  0  0  0  0
  1 11  1  0  0  0  0
  1  9  1  0  0  0  0
  2  1  1  0  0  0  0
  2  3  1  0  0  0  0
  3 14  1  0  0  0  0
  3 15  1  0  0  0  0
  4  2  1  0  0  0  0
  5 18  1  6  0  0  0
  5  4  1  0  0  0  0
  5  6  1  0  0  0  0
  6 19  1  0  0  0  0
  7  5  1  0  0  0  0
  7  8  2  0  0  0  0
 10  1  1  0  0  0  0
 12  2  1  0  0  0  0
 13  3  1  0  0  0  0
 16  4  1  0  0  0  0
 17  4  1  0  0  0  0
 20  6  1  0  0  0  0
 21  7  1  0  0  0  0
 22 21  1  0  0  0  0
 22 30  1  1  0  0  0
 23 32  1  0  0  0  0
 23 22  1  0  0  0  0
 24 23  1  0  0  0  0
 24 28  1  0  0  0  0
 25 24  2  0  0  0  0
 26 22  1  0  0  0  0
 27 26  2  0  0  0  0
 29 21  1  0  0  0  0
 31 23  1  0  0  0  0
 33 28  1  0  0  0  0
 34 46  1  0  0  0  0
 35 37  1  0  0  0  0
 35 34  1  0  0  0  0
 36 35  2  0  0  0  0
 37 49  1  0  0  0  0
 38 39  1  0  0  0  0
 38 37  1  0  0  0  0
 39 40  1  0  0  0  0
 39 52  1  0  0  0  0
 40 54  1  0  0  0  0
 40 41  1  0  0  0  0
 41 56  1  6  0  0  0
 41 42  1  0  0  0  0
 41 43  1  0  0  0  0
 42 57  1  0  0  0  0
 42 26  1  0  0  0  0
 43 45  2  0  0  0  0
 43 44  1  0  0  0  0
 47 34  1  0  0  0  0
 48 36  1  0  0  0  0
 50 38  1  0  0  0  0
 51 38  1  0  0  0  0
 53 39  1  0  0  0  0
 55 40  1  0  0  0  0
M  END
$$$$
