LDS.pdb
 OpenBabel07022418443D

 45 44  0  0  1  0  0  0  0  0999 V2000
   -0.2570   -2.5690   -2.9210 C   0  0  0  0  0  0  0  0  0  0  0  0
    0.7970   -2.3290   -1.8220 C   0  0  0  0  0  0  0  0  0  0  0  0
    0.2390   -2.8390   -0.5520 C   0  0  0  0  0  0  0  0  0  0  0  0
    1.1700   -0.9040   -1.9110 C   0  0  0  0  0  0  0  0  0  0  0  0
    2.1650   -0.3600   -0.9710 C   0  0  2  0  0  0  0  0  0  0  0  0
    3.4320   -1.0060   -0.9670 N   0  0  0  0  0  0  0  0  0  0  0  0
    1.5930    0.0250    0.3200 C   0  0  0  0  0  0  0  0  0  0  0  0
    0.5820    0.8080    0.2320 O   0  0  0  0  0  0  0  0  0  0  0  0
   -0.5790   -3.6320   -2.9080 H   0  0  0  0  0  0  0  0  0  0  0  0
   -1.0970   -1.8870   -2.6780 H   0  0  0  0  0  0  0  0  0  0  0  0
    0.1440   -2.2570   -3.9030 H   0  0  0  0  0  0  0  0  0  0  0  0
    1.6800   -2.9640   -2.1500 H   0  0  0  0  0  0  0  0  0  0  0  0
    0.7730   -2.5290    0.3520 H   0  0  0  0  0  0  0  0  0  0  0  0
   -0.8380   -2.5940   -0.4040 H   0  0  0  0  0  0  0  0  0  0  0  0
    0.2320   -3.9750   -0.6030 H   0  0  0  0  0  0  0  0  0  0  0  0
    0.2030   -0.3130   -1.8420 H   0  0  0  0  0  0  0  0  0  0  0  0
    1.4700   -0.7220   -2.9910 H   0  0  0  0  0  0  0  0  0  0  0  0
    2.4210    0.6860   -1.4390 H   0  0  0  0  0  0  0  0  0  0  0  0
    3.5050   -1.8290   -0.3320 H   0  0  0  0  0  0  0  0  0  0  0  0
    4.1570   -0.3280   -0.6320 H   0  0  0  0  0  0  0  0  0  0  0  0
    2.0530   -0.3730    1.5680 N   0  0  0  0  0  0  0  0  0  0  0  0
    1.5220    0.0200    2.8160 C   0  0  1  0  0  0  0  0  0  0  0  0
    2.1920    1.3240    3.2490 C   0  0  0  0  0  0  0  0  0  0  0  0
    1.9320    2.3770    2.2560 C   0  0  0  0  0  0  0  0  0  0  0  0
    0.8540    3.0600    2.2980 O   0  0  0  0  0  0  0  0  0  0  0  0
    0.0800    0.0790    3.0380 C   0  0  0  0  0  0  0  0  0  0  0  0
   -0.3010    0.7170    4.1010 O   0  0  0  0  0  0  0  0  0  0  0  0
    2.8190    2.6850    1.2380 O   0  0  0  0  0  0  0  0  0  0  0  0
    2.8980   -1.0460    1.5500 H   0  0  0  0  0  0  0  0  0  0  0  0
    1.9070   -0.7460    3.6260 H   0  0  0  0  0  0  0  0  0  0  0  0
    1.6900    1.6080    4.2030 H   0  0  0  0  0  0  0  0  0  0  0  0
    3.2460    1.0990    3.3970 H   0  0  0  0  0  0  0  0  0  0  0  0
    2.4910    2.9950    0.3390 H   0  0  0  0  0  0  0  0  0  0  0  0
   -2.4520    1.7120    1.3890 O   0  0  0  0  0  0  0  0  0  0  0  0
   -3.0310    0.4660    1.4960 C   0  0  0  0  0  0  0  0  0  0  0  0
   -2.3440   -0.3330    2.5780 C   0  0  2  0  0  0  0  0  0  0  0  0
   -0.9170   -0.4810    2.2310 N   0  0  0  0  0  0  0  0  0  0  0  0
   -2.9770   -1.6540    2.7550 C   0  0  0  0  0  0  0  0  0  0  0  0
   -2.3410   -2.7430    2.6200 O   0  0  0  0  0  0  0  0  0  0  0  0
   -4.3200   -1.7670    3.0810 O   0  0  0  0  0  0  0  0  0  0  0  0
   -2.8770    2.4060    1.9350 H   0  0  0  0  0  0  0  0  0  0  0  0
   -4.0910    0.6100    1.8150 H   0  0  0  0  0  0  0  0  0  0  0  0
   -2.9740   -0.0960    0.5390 H   0  0  0  0  0  0  0  0  0  0  0  0
   -2.4140    0.2550    3.5160 H   0  0  0  0  0  0  0  0  0  0  0  0
   -0.7530   -1.0390    1.3830 H   0  0  0  0  0  0  0  0  0  0  0  0
  1  9  1  0  0  0  0
  1 10  1  0  0  0  0
  1  2  1  0  0  0  0
  2  3  1  0  0  0  0
  3 14  1  0  0  0  0
  3 13  1  0  0  0  0
  4 16  1  0  0  0  0
  4  2  1  0  0  0  0
  4  5  1  0  0  0  0
  5 18  1  6  0  0  0
  5  6  1  0  0  0  0
  5  7  1  0  0  0  0
  6 20  1  0  0  0  0
  6 19  1  0  0  0  0
  7 21  1  0  0  0  0
  8  7  2  0  0  0  0
 11  1  1  0  0  0  0
 12  2  1  0  0  0  0
 15  3  1  0  0  0  0
 17  4  1  0  0  0  0
 21 22  1  0  0  0  0
 22 26  1  0  0  0  0
 22 23  1  0  0  0  0
 22 30  1  1  0  0  0
 23 32  1  0  0  0  0
 23 31  1  0  0  0  0
 24 25  2  0  0  0  0
 24 23  1  0  0  0  0
 26 27  2  0  0  0  0
 28 24  1  0  0  0  0
 29 21  1  0  0  0  0
 33 28  1  0  0  0  0
 34 35  1  0  0  0  0
 34 41  1  0  0  0  0
 35 42  1  0  0  0  0
 35 36  1  0  0  0  0
 36 38  1  0  0  0  0
 36 44  1  1  0  0  0
 37 36  1  0  0  0  0
 37 26  1  0  0  0  0
 38 40  1  0  0  0  0
 39 38  2  0  0  0  0
 43 35  1  0  0  0  0
 45 37  1  0  0  0  0
M  END
$$$$
