LDW.pdb
 OpenBabel07022418453D

 58 59  0  0  1  0  0  0  0  0999 V2000
    0.8950   -0.0450    3.4830 C   0  0  0  0  0  0  0  0  0  0  0  0
    2.2470   -0.6500    3.6020 C   0  0  0  0  0  0  0  0  0  0  0  0
    2.0780   -2.1680    3.4440 C   0  0  0  0  0  0  0  0  0  0  0  0
    3.2600   -0.2380    2.6010 C   0  0  0  0  0  0  0  0  0  0  0  0
    3.5780    1.2280    2.5600 C   0  0  2  0  0  0  0  0  0  0  0  0
    4.0680    1.7630    3.7720 N   0  0  0  0  0  0  0  0  0  0  0  0
    2.4320    1.9930    2.0190 C   0  0  0  0  0  0  0  0  0  0  0  0
    1.8510    2.9260    2.6440 O   0  0  0  0  0  0  0  0  0  0  0  0
    0.1790   -0.7760    3.9760 H   0  0  0  0  0  0  0  0  0  0  0  0
    0.5010    0.0700    2.4620 H   0  0  0  0  0  0  0  0  0  0  0  0
    0.7620    0.8760    4.1070 H   0  0  0  0  0  0  0  0  0  0  0  0
    2.5790   -0.5180    4.6540 H   0  0  0  0  0  0  0  0  0  0  0  0
    2.1670   -2.4970    2.4090 H   0  0  0  0  0  0  0  0  0  0  0  0
    2.7700   -2.7440    4.0480 H   0  0  0  0  0  0  0  0  0  0  0  0
    1.0440   -2.4740    3.7890 H   0  0  0  0  0  0  0  0  0  0  0  0
    2.9140   -0.5750    1.6060 H   0  0  0  0  0  0  0  0  0  0  0  0
    4.1820   -0.8300    2.8060 H   0  0  0  0  0  0  0  0  0  0  0  0
    4.4020    1.3450    1.7920 H   0  0  0  0  0  0  0  0  0  0  0  0
    4.3340    1.0690    4.4870 H   0  0  0  0  0  0  0  0  0  0  0  0
    3.7010    2.6550    4.0890 H   0  0  0  0  0  0  0  0  0  0  0  0
    1.9410    1.6600    0.6980 N   0  0  0  0  0  0  0  0  0  0  0  0
    0.8340    2.3540    0.1150 C   0  0  1  0  0  0  0  0  0  0  0  0
    1.3340    3.0610   -1.1590 C   0  0  0  0  0  0  0  0  0  0  0  0
    0.2560    3.8000   -1.8110 C   0  0  0  0  0  0  0  0  0  0  0  0
   -0.3910    4.6680   -1.1810 O   0  0  0  0  0  0  0  0  0  0  0  0
   -0.2260    1.4130   -0.4240 C   0  0  0  0  0  0  0  0  0  0  0  0
   -1.2380    1.8990   -0.9390 O   0  0  0  0  0  0  0  0  0  0  0  0
   -0.0980    3.5750   -3.1470 O   0  0  0  0  0  0  0  0  0  0  0  0
    2.4470    0.8940    0.2040 H   0  0  0  0  0  0  0  0  0  0  0  0
    0.4030    3.1250    0.7480 H   0  0  0  0  0  0  0  0  0  0  0  0
    1.7440    2.2570   -1.8020 H   0  0  0  0  0  0  0  0  0  0  0  0
    2.1830    3.7270   -0.9370 H   0  0  0  0  0  0  0  0  0  0  0  0
   -1.0880    3.4820   -3.3950 H   0  0  0  0  0  0  0  0  0  0  0  0
   -0.0860    0.0080   -0.3530 N   0  0  0  0  0  0  0  0  0  0  0  0
   -0.9740   -0.9960   -0.8240 C   0  0  1  0  0  0  0  0  0  0  0  0
   -1.9100   -1.5360    0.1880 C   0  0  0  0  0  0  0  0  0  0  0  0
   -2.8170   -2.5870   -0.3240 C   0  0  0  0  0  0  0  0  0  0  0  0
   -4.1770   -2.5030   -0.6370 C   0  0  0  0  0  0  0  0  0  0  0  0
   -4.6120   -3.7020   -1.0620 N   0  0  0  0  0  0  0  0  0  0  0  0
   -3.6010   -4.6020   -1.0520 C   0  0  0  0  0  0  0  0  0  0  0  0
   -3.5100   -5.9410   -1.3850 C   0  0  0  0  0  0  0  0  0  0  0  0
   -2.3280   -6.6420   -1.2790 C   0  0  0  0  0  0  0  0  0  0  0  0
   -1.2200   -5.9360   -0.8180 C   0  0  0  0  0  0  0  0  0  0  0  0
   -1.3130   -4.6050   -0.4890 C   0  0  0  0  0  0  0  0  0  0  0  0
   -2.4980   -3.9130   -0.5970 C   0  0  0  0  0  0  0  0  0  0  0  0
   -1.6630   -0.7380   -2.1000 C   0  0  0  0  0  0  0  0  0  0  0  0
   -2.5450   -1.5200   -2.5690 O   0  0  0  0  0  0  0  0  0  0  0  0
   -1.3800    0.3680   -2.8560 O   0  0  0  0  0  0  0  0  0  0  0  0
    0.8330   -0.2890    0.1340 H   0  0  0  0  0  0  0  0  0  0  0  0
   -0.2610   -1.8650   -1.1210 H   0  0  0  0  0  0  0  0  0  0  0  0
   -2.5610   -0.7200    0.6040 H   0  0  0  0  0  0  0  0  0  0  0  0
   -1.3750   -1.9490    1.0690 H   0  0  0  0  0  0  0  0  0  0  0  0
   -4.7530   -1.6010   -0.5390 H   0  0  0  0  0  0  0  0  0  0  0  0
   -5.5810   -3.9390   -1.3640 H   0  0  0  0  0  0  0  0  0  0  0  0
   -4.3770   -6.4860   -1.7430 H   0  0  0  0  0  0  0  0  0  0  0  0
   -2.2540   -7.6970   -1.5400 H   0  0  0  0  0  0  0  0  0  0  0  0
   -0.2800   -6.4560   -0.7240 H   0  0  0  0  0  0  0  0  0  0  0  0
   -0.4620   -4.0280   -0.1280 H   0  0  0  0  0  0  0  0  0  0  0  0
  1  2  1  0  0  0  0
  1  9  1  0  0  0  0
  1 11  1  0  0  0  0
  2 12  1  0  0  0  0
  3  2  1  0  0  0  0
  3 15  1  0  0  0  0
  3 14  1  0  0  0  0
  4 17  1  0  0  0  0
  4  2  1  0  0  0  0
  5 18  1  6  0  0  0
  5  4  1  0  0  0  0
  5  6  1  0  0  0  0
  6 20  1  0  0  0  0
  6 19  1  0  0  0  0
  7  5  1  0  0  0  0
  7  8  2  0  0  0  0
 10  1  1  0  0  0  0
 13  3  1  0  0  0  0
 16  4  1  0  0  0  0
 21  7  1  0  0  0  0
 22 21  1  0  0  0  0
 22 30  1  1  0  0  0
 23 32  1  0  0  0  0
 23 22  1  0  0  0  0
 24 25  2  0  0  0  0
 24 23  1  0  0  0  0
 26 34  1  0  0  0  0
 26 22  1  0  0  0  0
 27 26  2  0  0  0  0
 28 24  1  0  0  0  0
 29 21  1  0  0  0  0
 31 23  1  0  0  0  0
 33 28  1  0  0  0  0
 34 49  1  0  0  0  0
 35 50  1  6  0  0  0
 35 34  1  0  0  0  0
 35 36  1  0  0  0  0
 36 51  1  0  0  0  0
 36 52  1  0  0  0  0
 37 36  1  0  0  0  0
 38 53  1  0  0  0  0
 38 37  2  0  0  0  0
 39 40  1  0  0  0  0
 39 38  1  0  0  0  0
 40 45  1  0  0  0  0
 41 42  1  0  0  0  0
 41 40  2  0  0  0  0
 42 43  2  0  0  0  0
 43 57  1  0  0  0  0
 43 44  1  0  0  0  0
 44 58  1  0  0  0  0
 45 44  2  0  0  0  0
 45 37  1  0  0  0  0
 46 35  1  0  0  0  0
 47 46  1  0  0  0  0
 48 46  2  0  0  0  0
 54 39  1  0  0  0  0
 55 41  1  0  0  0  0
 56 42  1  0  0  0  0
M  END
$$$$
