LDY.pdb
 OpenBabel07022418453D

 55 55  0  0  1  0  0  0  0  0999 V2000
    1.1840   -1.9900    3.3030 C   0  0  0  0  0  0  0  0  0  0  0  0
    2.6320   -2.3290    3.0820 C   0  0  0  0  0  0  0  0  0  0  0  0
    2.7260   -3.2260    1.8660 C   0  0  0  0  0  0  0  0  0  0  0  0
    3.5780   -1.2030    3.1000 C   0  0  0  0  0  0  0  0  0  0  0  0
    3.4400   -0.1160    2.0920 C   0  0  2  0  0  0  0  0  0  0  0  0
    4.5160    0.8850    2.3770 N   0  0  0  0  0  0  0  0  0  0  0  0
    2.1370    0.5610    2.1150 C   0  0  0  0  0  0  0  0  0  0  0  0
    1.8290    1.5030    2.9020 O   0  0  0  0  0  0  0  0  0  0  0  0
    1.0800   -0.9650    3.7290 H   0  0  0  0  0  0  0  0  0  0  0  0
    0.5430   -2.1930    2.4380 H   0  0  0  0  0  0  0  0  0  0  0  0
    0.7470   -2.6460    4.1270 H   0  0  0  0  0  0  0  0  0  0  0  0
    2.9380   -3.0150    3.9430 H   0  0  0  0  0  0  0  0  0  0  0  0
    2.2120   -2.8170    0.9830 H   0  0  0  0  0  0  0  0  0  0  0  0
    3.7390   -3.5910    1.6730 H   0  0  0  0  0  0  0  0  0  0  0  0
    2.1230   -4.1410    2.1440 H   0  0  0  0  0  0  0  0  0  0  0  0
    4.6470   -1.5300    3.0880 H   0  0  0  0  0  0  0  0  0  0  0  0
    3.4820   -0.7120    4.1210 H   0  0  0  0  0  0  0  0  0  0  0  0
    3.6850   -0.5020    1.0970 H   0  0  0  0  0  0  0  0  0  0  0  0
    4.7680    1.3490    1.4630 H   0  0  0  0  0  0  0  0  0  0  0  0
    5.3650    0.2800    2.5870 H   0  0  0  0  0  0  0  0  0  0  0  0
    1.1280    0.1370    1.1740 N   0  0  0  0  0  0  0  0  0  0  0  0
   -0.1780    0.7100    1.1150 C   0  0  1  0  0  0  0  0  0  0  0  0
   -0.0890    1.9430    0.2040 C   0  0  0  0  0  0  0  0  0  0  0  0
    0.4030    1.6320   -1.1400 C   0  0  0  0  0  0  0  0  0  0  0  0
    0.2690    2.4980   -2.0390 O   0  0  0  0  0  0  0  0  0  0  0  0
   -1.2670   -0.1970    0.7780 C   0  0  0  0  0  0  0  0  0  0  0  0
   -2.4880    0.1480    0.9300 O   0  0  0  0  0  0  0  0  0  0  0  0
    1.0120    0.4380   -1.4820 O   0  0  0  0  0  0  0  0  0  0  0  0
    1.4160   -0.6350    0.5210 H   0  0  0  0  0  0  0  0  0  0  0  0
   -0.3860    1.1830    2.1250 H   0  0  0  0  0  0  0  0  0  0  0  0
    0.5700    2.6590    0.7330 H   0  0  0  0  0  0  0  0  0  0  0  0
   -1.1010    2.3500    0.1510 H   0  0  0  0  0  0  0  0  0  0  0  0
    1.5380    0.4090   -2.3440 H   0  0  0  0  0  0  0  0  0  0  0  0
   -4.3410    2.7330   -3.1570 O   0  0  0  0  0  0  0  0  0  0  0  0
   -3.8860    1.4770   -2.7440 C   0  0  0  0  0  0  0  0  0  0  0  0
   -4.7260    0.5910   -2.1020 C   0  0  0  0  0  0  0  0  0  0  0  0
   -4.2800   -0.6520   -1.6910 C   0  0  0  0  0  0  0  0  0  0  0  0
   -2.9600   -1.0560   -1.9120 C   0  0  0  0  0  0  0  0  0  0  0  0
   -2.5480   -2.4010   -1.4800 C   0  0  0  0  0  0  0  0  0  0  0  0
   -2.2070   -2.4110   -0.0120 C   0  0  2  0  0  0  0  0  0  0  0  0
   -1.1090   -1.5250    0.2640 N   0  0  0  0  0  0  0  0  0  0  0  0
   -1.8210   -3.7910    0.3670 C   0  0  0  0  0  0  0  0  0  0  0  0
   -2.6530   -4.7210    0.2340 O   0  0  0  0  0  0  0  0  0  0  0  0
   -2.1310   -0.1680   -2.5520 C   0  0  0  0  0  0  0  0  0  0  0  0
   -2.5870    1.0880   -2.9660 C   0  0  0  0  0  0  0  0  0  0  0  0
   -0.5660   -4.0560    0.8580 O   0  0  0  0  0  0  0  0  0  0  0  0
   -5.2960    3.0230   -2.9450 H   0  0  0  0  0  0  0  0  0  0  0  0
   -5.7520    0.8760   -1.9170 H   0  0  0  0  0  0  0  0  0  0  0  0
   -4.9290   -1.3610   -1.1840 H   0  0  0  0  0  0  0  0  0  0  0  0
   -3.3440   -3.1550   -1.7190 H   0  0  0  0  0  0  0  0  0  0  0  0
   -1.6790   -2.7030   -2.1070 H   0  0  0  0  0  0  0  0  0  0  0  0
   -3.1340   -2.0760    0.5530 H   0  0  0  0  0  0  0  0  0  0  0  0
   -0.1470   -1.8880    0.0730 H   0  0  0  0  0  0  0  0  0  0  0  0
   -1.1260   -0.4670   -2.7440 H   0  0  0  0  0  0  0  0  0  0  0  0
   -1.9340    1.7750   -3.4690 H   0  0  0  0  0  0  0  0  0  0  0  0
  1  9  1  0  0  0  0
  1 11  1  0  0  0  0
  2  4  1  0  0  0  0
  2  1  1  0  0  0  0
  2 12  1  0  0  0  0
  3 15  1  0  0  0  0
  3  2  1  0  0  0  0
  4 17  1  0  0  0  0
  5 18  1  6  0  0  0
  5  7  1  0  0  0  0
  5  6  1  0  0  0  0
  5  4  1  0  0  0  0
  6 20  1  0  0  0  0
  7  8  2  0  0  0  0
 10  1  1  0  0  0  0
 13  3  1  0  0  0  0
 14  3  1  0  0  0  0
 16  4  1  0  0  0  0
 19  6  1  0  0  0  0
 21  7  1  0  0  0  0
 22 21  1  0  0  0  0
 22 30  1  1  0  0  0
 23 31  1  0  0  0  0
 23 22  1  0  0  0  0
 24 23  1  0  0  0  0
 25 24  2  0  0  0  0
 26 27  2  0  0  0  0
 26 22  1  0  0  0  0
 28 24  1  0  0  0  0
 29 21  1  0  0  0  0
 32 23  1  0  0  0  0
 33 28  1  0  0  0  0
 34 47  1  0  0  0  0
 34 35  1  0  0  0  0
 35 36  1  0  0  0  0
 36 48  1  0  0  0  0
 36 37  2  0  0  0  0
 37 49  1  0  0  0  0
 38 37  1  0  0  0  0
 38 39  1  0  0  0  0
 39 40  1  0  0  0  0
 40 41  1  0  0  0  0
 40 42  1  0  0  0  0
 40 52  1  1  0  0  0
 41 26  1  0  0  0  0
 42 46  1  0  0  0  0
 43 42  2  0  0  0  0
 44 38  2  0  0  0  0
 45 35  2  0  0  0  0
 45 44  1  0  0  0  0
 50 39  1  0  0  0  0
 51 39  1  0  0  0  0
 53 41  1  0  0  0  0
 54 44  1  0  0  0  0
 55 45  1  0  0  0  0
M  END
$$$$
