LEA.pdb
 OpenBabel07022418453D

 47 46  0  0  1  0  0  0  0  0999 V2000
    0.3600   -3.8200    0.7320 C   0  0  0  0  0  0  0  0  0  0  0  0
    0.7970   -3.3420    2.0760 C   0  0  0  0  0  0  0  0  0  0  0  0
   -0.2900   -2.5660    2.7760 C   0  0  0  0  0  0  0  0  0  0  0  0
    2.1760   -2.9140    2.2670 C   0  0  0  0  0  0  0  0  0  0  0  0
    2.8050   -1.8490    1.4810 C   0  0  2  0  0  0  0  0  0  0  0  0
    4.1850   -1.7410    2.0340 N   0  0  0  0  0  0  0  0  0  0  0  0
    2.2360   -0.5100    1.5300 C   0  0  0  0  0  0  0  0  0  0  0  0
    2.7240    0.3860    2.3070 O   0  0  0  0  0  0  0  0  0  0  0  0
    0.6790   -4.8580    0.5090 H   0  0  0  0  0  0  0  0  0  0  0  0
   -0.7700   -3.8950    0.7630 H   0  0  0  0  0  0  0  0  0  0  0  0
    0.5800   -3.1450   -0.1140 H   0  0  0  0  0  0  0  0  0  0  0  0
    0.7630   -4.3580    2.6930 H   0  0  0  0  0  0  0  0  0  0  0  0
   -0.4660   -2.9010    3.8250 H   0  0  0  0  0  0  0  0  0  0  0  0
   -1.2900   -2.7840    2.2830 H   0  0  0  0  0  0  0  0  0  0  0  0
   -0.1710   -1.4720    2.7040 H   0  0  0  0  0  0  0  0  0  0  0  0
    2.8910   -3.7910    2.2730 H   0  0  0  0  0  0  0  0  0  0  0  0
    2.2560   -2.5720    3.3620 H   0  0  0  0  0  0  0  0  0  0  0  0
    3.0010   -2.1140    0.4140 H   0  0  0  0  0  0  0  0  0  0  0  0
    4.3490   -2.3340    2.8420 H   0  0  0  0  0  0  0  0  0  0  0  0
    4.8950   -1.6600    1.3090 H   0  0  0  0  0  0  0  0  0  0  0  0
    1.1170   -0.0480    0.7460 N   0  0  0  0  0  0  0  0  0  0  0  0
    0.6530    1.3250    0.8820 C   0  0  1  0  0  0  0  0  0  0  0  0
    1.1460    2.1630   -0.2980 C   0  0  0  0  0  0  0  0  0  0  0  0
    0.6370    1.6730   -1.6190 C   0  0  0  0  0  0  0  0  0  0  0  0
    1.1830    2.5300   -2.6790 C   0  0  0  0  0  0  0  0  0  0  0  0
    2.3860    2.8480   -2.6690 O   0  0  0  0  0  0  0  0  0  0  0  0
   -0.8260    1.3950    0.8270 C   0  0  0  0  0  0  0  0  0  0  0  0
   -1.4310    2.5200    0.8530 O   0  0  0  0  0  0  0  0  0  0  0  0
    0.3740    3.0010   -3.7020 O   0  0  0  0  0  0  0  0  0  0  0  0
    0.6750   -0.7250    0.0990 H   0  0  0  0  0  0  0  0  0  0  0  0
    1.0860    1.8180    1.7720 H   0  0  0  0  0  0  0  0  0  0  0  0
    0.7080    3.1910   -0.1550 H   0  0  0  0  0  0  0  0  0  0  0  0
    2.2320    2.2810   -0.3250 H   0  0  0  0  0  0  0  0  0  0  0  0
   -0.4580    1.5500   -1.6660 H   0  0  0  0  0  0  0  0  0  0  0  0
    1.0680    0.6360   -1.7750 H   0  0  0  0  0  0  0  0  0  0  0  0
    0.3880    4.0000   -3.9620 H   0  0  0  0  0  0  0  0  0  0  0  0
   -3.6000   -0.4040   -0.5340 C   0  0  0  0  0  0  0  0  0  0  0  0
   -3.1240    0.3600    0.6820 C   0  0  2  0  0  0  0  0  0  0  0  0
   -1.6820    0.2570    0.7440 N   0  0  0  0  0  0  0  0  0  0  0  0
   -3.7580   -0.2930    1.8770 C   0  0  0  0  0  0  0  0  0  0  0  0
   -3.0880   -0.8020    2.8080 O   0  0  0  0  0  0  0  0  0  0  0  0
   -5.1340   -0.3320    1.9450 O   0  0  0  0  0  0  0  0  0  0  0  0
   -4.5250   -0.0230   -0.9750 H   0  0  0  0  0  0  0  0  0  0  0  0
   -3.7960   -1.4610   -0.1760 H   0  0  0  0  0  0  0  0  0  0  0  0
   -2.8050   -0.4450   -1.3180 H   0  0  0  0  0  0  0  0  0  0  0  0
   -3.4590    1.4150    0.5930 H   0  0  0  0  0  0  0  0  0  0  0  0
   -1.2520   -0.6890    0.7330 H   0  0  0  0  0  0  0  0  0  0  0  0
  1 10  1  0  0  0  0
  1  2  1  0  0  0  0
  2  4  1  0  0  0  0
  2 12  1  0  0  0  0
  2  3  1  0  0  0  0
  3 13  1  0  0  0  0
  4 16  1  0  0  0  0
  4 17  1  0  0  0  0
  5 18  1  6  0  0  0
  5  7  1  0  0  0  0
  5  6  1  0  0  0  0
  5  4  1  0  0  0  0
  6 19  1  0  0  0  0
  7  8  2  0  0  0  0
  9  1  1  0  0  0  0
 11  1  1  0  0  0  0
 14  3  1  0  0  0  0
 15  3  1  0  0  0  0
 20  6  1  0  0  0  0
 21 22  1  0  0  0  0
 21  7  1  0  0  0  0
 22 31  1  1  0  0  0
 23 32  1  0  0  0  0
 23 22  1  0  0  0  0
 24 23  1  0  0  0  0
 25 26  2  0  0  0  0
 25 24  1  0  0  0  0
 27 28  2  0  0  0  0
 27 22  1  0  0  0  0
 29 25  1  0  0  0  0
 30 21  1  0  0  0  0
 33 23  1  0  0  0  0
 34 24  1  0  0  0  0
 35 24  1  0  0  0  0
 36 29  1  0  0  0  0
 37 44  1  0  0  0  0
 37 38  1  0  0  0  0
 38 46  1  6  0  0  0
 38 39  1  0  0  0  0
 38 40  1  0  0  0  0
 39 27  1  0  0  0  0
 40 42  2  0  0  0  0
 40 41  1  0  0  0  0
 43 37  1  0  0  0  0
 45 37  1  0  0  0  0
 47 39  1  0  0  0  0
M  END
$$$$
