LEC.pdb
 OpenBabel07022418453D

 48 47  0  0  1  0  0  0  0  0999 V2000
    1.3610   -5.0680    2.1370 C   0  0  0  0  0  0  0  0  0  0  0  0
    1.3980   -3.6330    2.6780 C   0  0  0  0  0  0  0  0  0  0  0  0
    0.0430   -3.0460    2.5110 C   0  0  0  0  0  0  0  0  0  0  0  0
    2.5050   -2.9380    1.9580 C   0  0  0  0  0  0  0  0  0  0  0  0
    2.7090   -1.5000    2.3450 C   0  0  2  0  0  0  0  0  0  0  0  0
    3.0020   -1.3930    3.7630 N   0  0  0  0  0  0  0  0  0  0  0  0
    1.6410   -0.5880    1.9270 C   0  0  0  0  0  0  0  0  0  0  0  0
    1.0000    0.0830    2.8060 O   0  0  0  0  0  0  0  0  0  0  0  0
    0.5820   -5.6720    2.6230 H   0  0  0  0  0  0  0  0  0  0  0  0
    1.1420   -4.9550    1.0460 H   0  0  0  0  0  0  0  0  0  0  0  0
    2.3610   -5.5330    2.2070 H   0  0  0  0  0  0  0  0  0  0  0  0
    1.6200   -3.7590    3.7690 H   0  0  0  0  0  0  0  0  0  0  0  0
   -0.1560   -2.3420    3.3720 H   0  0  0  0  0  0  0  0  0  0  0  0
   -0.1530   -2.6020    1.5380 H   0  0  0  0  0  0  0  0  0  0  0  0
   -0.7480   -3.8420    2.6450 H   0  0  0  0  0  0  0  0  0  0  0  0
    3.4670   -3.4630    2.1740 H   0  0  0  0  0  0  0  0  0  0  0  0
    2.3550   -2.9820    0.8590 H   0  0  0  0  0  0  0  0  0  0  0  0
    3.6690   -1.1920    1.8370 H   0  0  0  0  0  0  0  0  0  0  0  0
    3.5620   -0.5250    3.8950 H   0  0  0  0  0  0  0  0  0  0  0  0
    3.5340   -2.2490    4.0320 H   0  0  0  0  0  0  0  0  0  0  0  0
    1.2460   -0.3770    0.5850 N   0  0  0  0  0  0  0  0  0  0  0  0
    0.1850    0.5470    0.2680 C   0  0  1  0  0  0  0  0  0  0  0  0
    0.6970    1.7370   -0.5240 C   0  0  0  0  0  0  0  0  0  0  0  0
    1.7200    2.4670    0.2550 C   0  0  0  0  0  0  0  0  0  0  0  0
    1.2880    3.0490    1.5350 C   0  0  0  0  0  0  0  0  0  0  0  0
    2.1440    3.5860    2.2940 O   0  0  0  0  0  0  0  0  0  0  0  0
   -0.8150   -0.2210   -0.5510 C   0  0  0  0  0  0  0  0  0  0  0  0
   -0.6400   -1.4220   -0.8610 O   0  0  0  0  0  0  0  0  0  0  0  0
   -0.0160    3.0620    1.9990 O   0  0  0  0  0  0  0  0  0  0  0  0
    1.7140   -0.8850   -0.1840 H   0  0  0  0  0  0  0  0  0  0  0  0
   -0.2480    0.9400    1.1930 H   0  0  0  0  0  0  0  0  0  0  0  0
    1.1240    1.4440   -1.4890 H   0  0  0  0  0  0  0  0  0  0  0  0
   -0.1930    2.4140   -0.6470 H   0  0  0  0  0  0  0  0  0  0  0  0
    2.1210    3.3040   -0.3770 H   0  0  0  0  0  0  0  0  0  0  0  0
    2.5640    1.7780    0.4880 H   0  0  0  0  0  0  0  0  0  0  0  0
   -0.2490    3.2690    2.9580 H   0  0  0  0  0  0  0  0  0  0  0  0
   -2.0190    0.3890   -1.0170 N   0  0  0  0  0  0  0  0  0  0  0  0
   -3.0060   -0.3240   -1.8100 C   0  0  1  0  0  0  0  0  0  0  0  0
   -4.2900   -0.3510   -1.0060 C   0  0  0  0  0  0  0  0  0  0  0  0
   -4.7740    1.3850   -0.7230 S   0  0  0  0  0  0  0  0  0  0  0  0
   -3.2470    0.3220   -3.1120 C   0  0  0  0  0  0  0  0  0  0  0  0
   -2.6720    1.3700   -3.5040 O   0  0  0  0  0  0  0  0  0  0  0  0
   -4.1760   -0.2810   -3.9550 O   0  0  0  0  0  0  0  0  0  0  0  0
   -2.1500    1.3890   -0.7500 H   0  0  0  0  0  0  0  0  0  0  0  0
   -2.7120   -1.3680   -1.9980 H   0  0  0  0  0  0  0  0  0  0  0  0
   -4.1290   -0.8130   -0.0120 H   0  0  0  0  0  0  0  0  0  0  0  0
   -5.0650   -0.8890   -1.5820 H   0  0  0  0  0  0  0  0  0  0  0  0
   -4.5530    1.7550    0.6140 H   0  0  0  0  0  0  0  0  0  0  0  0
  1 11  1  0  0  0  0
  1  9  1  0  0  0  0
  1  2  1  0  0  0  0
  2 12  1  0  0  0  0
  3 15  1  0  0  0  0
  3  2  1  0  0  0  0
  3 13  1  0  0  0  0
  4 16  1  0  0  0  0
  4  5  1  0  0  0  0
  4  2  1  0  0  0  0
  5 18  1  6  0  0  0
  5  6  1  0  0  0  0
  6 19  1  0  0  0  0
  6 20  1  0  0  0  0
  7  5  1  0  0  0  0
  7  8  2  0  0  0  0
 10  1  1  0  0  0  0
 14  3  1  0  0  0  0
 17  4  1  0  0  0  0
 21  7  1  0  0  0  0
 22 21  1  0  0  0  0
 22 31  1  1  0  0  0
 23 24  1  0  0  0  0
 23 22  1  0  0  0  0
 24 35  1  0  0  0  0
 24 25  1  0  0  0  0
 25 29  1  0  0  0  0
 25 26  2  0  0  0  0
 27 22  1  0  0  0  0
 28 27  2  0  0  0  0
 29 36  1  0  0  0  0
 30 21  1  0  0  0  0
 32 23  1  0  0  0  0
 33 23  1  0  0  0  0
 34 24  1  0  0  0  0
 37 44  1  0  0  0  0
 37 27  1  0  0  0  0
 38 45  1  6  0  0  0
 38 37  1  0  0  0  0
 38 39  1  0  0  0  0
 39 40  1  0  0  0  0
 39 46  1  0  0  0  0
 40 48  1  0  0  0  0
 41 38  1  0  0  0  0
 42 41  1  0  0  0  0
 43 41  2  0  0  0  0
 47 39  1  0  0  0  0
M  END
$$$$
