LED.pdb
 OpenBabel07022418453D

 50 49  0  0  1  0  0  0  0  0999 V2000
    3.0220   -3.6670    3.4170 C   0  0  0  0  0  0  0  0  0  0  0  0
    2.3430   -2.3310    3.0840 C   0  0  0  0  0  0  0  0  0  0  0  0
    1.8730   -1.7680    4.4070 C   0  0  0  0  0  0  0  0  0  0  0  0
    3.3640   -1.4940    2.3920 C   0  0  0  0  0  0  0  0  0  0  0  0
    2.8630   -0.1290    1.9880 C   0  0  2  0  0  0  0  0  0  0  0  0
    2.4280    0.6380    3.1400 N   0  0  0  0  0  0  0  0  0  0  0  0
    1.8190   -0.1990    0.9450 C   0  0  0  0  0  0  0  0  0  0  0  0
    2.0450   -0.8240   -0.1190 O   0  0  0  0  0  0  0  0  0  0  0  0
    3.5210   -4.1000    2.5410 H   0  0  0  0  0  0  0  0  0  0  0  0
    3.7120   -3.4750    4.2650 H   0  0  0  0  0  0  0  0  0  0  0  0
    2.2450   -4.3690    3.8320 H   0  0  0  0  0  0  0  0  0  0  0  0
    1.5030   -2.5690    2.4330 H   0  0  0  0  0  0  0  0  0  0  0  0
    1.3320   -2.6210    4.9160 H   0  0  0  0  0  0  0  0  0  0  0  0
    1.1300   -0.9710    4.3100 H   0  0  0  0  0  0  0  0  0  0  0  0
    2.7210   -1.5330    5.0810 H   0  0  0  0  0  0  0  0  0  0  0  0
    4.2160   -1.3490    3.0820 H   0  0  0  0  0  0  0  0  0  0  0  0
    3.7230   -2.0320    1.5130 H   0  0  0  0  0  0  0  0  0  0  0  0
    3.7380    0.4150    1.5630 H   0  0  0  0  0  0  0  0  0  0  0  0
    2.3250    1.6350    2.8350 H   0  0  0  0  0  0  0  0  0  0  0  0
    3.1170    0.5220    3.9070 H   0  0  0  0  0  0  0  0  0  0  0  0
    0.5690    0.4500    1.1780 N   0  0  0  0  0  0  0  0  0  0  0  0
   -0.5470    0.4820    0.3180 C   0  0  1  0  0  0  0  0  0  0  0  0
   -0.7050    1.5440   -0.6790 C   0  0  0  0  0  0  0  0  0  0  0  0
   -0.7950    2.9420   -0.1530 C   0  0  0  0  0  0  0  0  0  0  0  0
    0.3700    3.4760    0.5270 C   0  0  0  0  0  0  0  0  0  0  0  0
    1.4640    2.8930    0.5490 O   0  0  0  0  0  0  0  0  0  0  0  0
   -0.8190   -0.9100   -0.2090 C   0  0  0  0  0  0  0  0  0  0  0  0
   -0.1540   -1.8870    0.2040 O   0  0  0  0  0  0  0  0  0  0  0  0
    0.3270    4.7110    1.2150 O   0  0  0  0  0  0  0  0  0  0  0  0
    0.5080    0.9480    2.1230 H   0  0  0  0  0  0  0  0  0  0  0  0
   -1.4580    0.6320    1.0410 H   0  0  0  0  0  0  0  0  0  0  0  0
    0.1010    1.5660   -1.4580 H   0  0  0  0  0  0  0  0  0  0  0  0
   -1.6470    1.4040   -1.2910 H   0  0  0  0  0  0  0  0  0  0  0  0
   -1.6240    2.9170    0.6250 H   0  0  0  0  0  0  0  0  0  0  0  0
   -1.2140    3.6440   -0.9240 H   0  0  0  0  0  0  0  0  0  0  0  0
    1.1090    5.0140    1.7670 H   0  0  0  0  0  0  0  0  0  0  0  0
   -1.8100   -1.1910   -1.1710 N   0  0  0  0  0  0  0  0  0  0  0  0
   -2.0590   -2.5440   -1.6710 C   0  0  1  0  0  0  0  0  0  0  0  0
   -3.5040   -2.8740   -1.2790 C   0  0  0  0  0  0  0  0  0  0  0  0
   -4.4410   -1.9140   -1.8870 C   0  0  0  0  0  0  0  0  0  0  0  0
   -4.7680   -2.0430   -3.0850 O   0  0  0  0  0  0  0  0  0  0  0  0
   -1.9950   -2.5100   -3.1400 C   0  0  0  0  0  0  0  0  0  0  0  0
   -2.1710   -3.5350   -3.8580 O   0  0  0  0  0  0  0  0  0  0  0  0
   -4.9710   -0.8680   -1.1620 O   0  0  0  0  0  0  0  0  0  0  0  0
   -1.7300   -1.3040   -3.7730 O   0  0  0  0  0  0  0  0  0  0  0  0
   -2.3860   -0.4160   -1.5370 H   0  0  0  0  0  0  0  0  0  0  0  0
   -1.3900   -3.2780   -1.2040 H   0  0  0  0  0  0  0  0  0  0  0  0
   -3.7470   -3.9260   -1.5270 H   0  0  0  0  0  0  0  0  0  0  0  0
   -3.5420   -2.7370   -0.1780 H   0  0  0  0  0  0  0  0  0  0  0  0
   -5.8510   -0.4300   -1.4070 H   0  0  0  0  0  0  0  0  0  0  0  0
  1 11  1  0  0  0  0
  1 10  1  0  0  0  0
  2  1  1  0  0  0  0
  2  3  1  0  0  0  0
  3 13  1  0  0  0  0
  3 15  1  0  0  0  0
  4 16  1  0  0  0  0
  4  2  1  0  0  0  0
  5 18  1  6  0  0  0
  5  4  1  0  0  0  0
  5  6  1  0  0  0  0
  6 20  1  0  0  0  0
  7 21  1  0  0  0  0
  7  5  1  0  0  0  0
  8  7  2  0  0  0  0
  9  1  1  0  0  0  0
 12  2  1  0  0  0  0
 14  3  1  0  0  0  0
 17  4  1  0  0  0  0
 19  6  1  0  0  0  0
 21 30  1  0  0  0  0
 22 31  1  1  0  0  0
 22 21  1  0  0  0  0
 23 24  1  0  0  0  0
 23 22  1  0  0  0  0
 24 25  1  0  0  0  0
 24 34  1  0  0  0  0
 25 26  2  0  0  0  0
 25 29  1  0  0  0  0
 27 28  2  0  0  0  0
 27 22  1  0  0  0  0
 29 36  1  0  0  0  0
 32 23  1  0  0  0  0
 33 23  1  0  0  0  0
 35 24  1  0  0  0  0
 37 27  1  0  0  0  0
 38 39  1  0  0  0  0
 38 47  1  1  0  0  0
 38 37  1  0  0  0  0
 39 49  1  0  0  0  0
 40 39  1  0  0  0  0
 40 44  1  0  0  0  0
 41 40  2  0  0  0  0
 42 38  1  0  0  0  0
 43 42  2  0  0  0  0
 45 42  1  0  0  0  0
 46 37  1  0  0  0  0
 48 39  1  0  0  0  0
 50 44  1  0  0  0  0
M  END
$$$$
