LEE.pdb
 OpenBabel07022418453D

 53 52  0  0  1  0  0  0  0  0999 V2000
    2.6730   -3.9490    0.7900 C   0  0  0  0  0  0  0  0  0  0  0  0
    2.4390   -2.7850    1.7270 C   0  0  0  0  0  0  0  0  0  0  0  0
    2.9070   -3.1790    3.0910 C   0  0  0  0  0  0  0  0  0  0  0  0
    3.1560   -1.5910    1.1520 C   0  0  0  0  0  0  0  0  0  0  0  0
    3.0020   -0.3550    2.0000 C   0  0  2  0  0  0  0  0  0  0  0  0
    3.5350   -0.5490    3.3390 N   0  0  0  0  0  0  0  0  0  0  0  0
    1.6010    0.1160    2.0840 C   0  0  0  0  0  0  0  0  0  0  0  0
    1.0430    0.2380    3.2150 O   0  0  0  0  0  0  0  0  0  0  0  0
    3.7510   -4.2450    0.7750 H   0  0  0  0  0  0  0  0  0  0  0  0
    2.1330   -4.8680    1.1340 H   0  0  0  0  0  0  0  0  0  0  0  0
    2.3410   -3.7340   -0.2440 H   0  0  0  0  0  0  0  0  0  0  0  0
    1.3350   -2.6220    1.7760 H   0  0  0  0  0  0  0  0  0  0  0  0
    3.9780   -3.0120    3.2860 H   0  0  0  0  0  0  0  0  0  0  0  0
    2.3490   -2.5600    3.8440 H   0  0  0  0  0  0  0  0  0  0  0  0
    2.6470   -4.2520    3.2770 H   0  0  0  0  0  0  0  0  0  0  0  0
    4.2140   -1.7950    0.9990 H   0  0  0  0  0  0  0  0  0  0  0  0
    2.6990   -1.3740    0.1670 H   0  0  0  0  0  0  0  0  0  0  0  0
    3.6000    0.4480    1.5300 H   0  0  0  0  0  0  0  0  0  0  0  0
    4.5560   -0.6840    3.3370 H   0  0  0  0  0  0  0  0  0  0  0  0
    3.2340    0.3130    3.8820 H   0  0  0  0  0  0  0  0  0  0  0  0
    0.8510    0.4380    0.9430 N   0  0  0  0  0  0  0  0  0  0  0  0
   -0.5350    0.8980    1.1210 C   0  0  1  0  0  0  0  0  0  0  0  0
   -0.6820    2.2950    0.6090 C   0  0  0  0  0  0  0  0  0  0  0  0
   -2.0560    2.8590    0.7390 C   0  0  0  0  0  0  0  0  0  0  0  0
   -2.5720    2.9370    2.1190 C   0  0  0  0  0  0  0  0  0  0  0  0
   -1.9270    2.6120    3.1370 O   0  0  0  0  0  0  0  0  0  0  0  0
   -1.4630   -0.0220    0.4320 C   0  0  0  0  0  0  0  0  0  0  0  0
   -2.7070    0.0390    0.4660 O   0  0  0  0  0  0  0  0  0  0  0  0
   -3.8780    3.4020    2.3650 O   0  0  0  0  0  0  0  0  0  0  0  0
    1.2120    0.3760   -0.0280 H   0  0  0  0  0  0  0  0  0  0  0  0
   -0.8080    0.8800    2.1940 H   0  0  0  0  0  0  0  0  0  0  0  0
    0.0580    2.9930    1.0650 H   0  0  0  0  0  0  0  0  0  0  0  0
   -0.4570    2.2650   -0.4960 H   0  0  0  0  0  0  0  0  0  0  0  0
   -2.7630    2.2580    0.1220 H   0  0  0  0  0  0  0  0  0  0  0  0
   -2.1050    3.8830    0.2520 H   0  0  0  0  0  0  0  0  0  0  0  0
   -4.1950    3.6740    3.2920 H   0  0  0  0  0  0  0  0  0  0  0  0
   -0.9690   -1.1080   -0.3670 N   0  0  0  0  0  0  0  0  0  0  0  0
   -1.8220   -2.0320   -1.0550 C   0  0  1  0  0  0  0  0  0  0  0  0
   -1.7480   -1.9460   -2.5490 C   0  0  0  0  0  0  0  0  0  0  0  0
   -2.1230   -0.6220   -3.1300 C   0  0  0  0  0  0  0  0  0  0  0  0
   -3.5120   -0.1920   -2.8520 C   0  0  0  0  0  0  0  0  0  0  0  0
   -4.3620   -0.8530   -2.2080 O   0  0  0  0  0  0  0  0  0  0  0  0
   -1.5830   -3.4510   -0.6890 C   0  0  0  0  0  0  0  0  0  0  0  0
   -2.2780   -4.3520   -1.2170 O   0  0  0  0  0  0  0  0  0  0  0  0
   -3.8910    1.0590   -3.3560 O   0  0  0  0  0  0  0  0  0  0  0  0
   -0.6040   -3.7530    0.2220 O   0  0  0  0  0  0  0  0  0  0  0  0
    0.0560   -1.2440   -0.4620 H   0  0  0  0  0  0  0  0  0  0  0  0
   -2.8610   -1.7890   -0.7620 H   0  0  0  0  0  0  0  0  0  0  0  0
   -0.8050   -2.3570   -2.9630 H   0  0  0  0  0  0  0  0  0  0  0  0
   -2.5400   -2.6670   -2.9260 H   0  0  0  0  0  0  0  0  0  0  0  0
   -1.4110    0.1410   -2.6970 H   0  0  0  0  0  0  0  0  0  0  0  0
   -2.0050   -0.5790   -4.2300 H   0  0  0  0  0  0  0  0  0  0  0  0
   -4.7220    1.5190   -3.0090 H   0  0  0  0  0  0  0  0  0  0  0  0
  1 10  1  0  0  0  0
  1  2  1  0  0  0  0
  2 12  1  0  0  0  0
  2  3  1  0  0  0  0
  3 15  1  0  0  0  0
  3 13  1  0  0  0  0
  3 14  1  0  0  0  0
  4  2  1  0  0  0  0
  4  5  1  0  0  0  0
  5 18  1  6  0  0  0
  5  7  1  0  0  0  0
  5  6  1  0  0  0  0
  6 20  1  0  0  0  0
  7  8  2  0  0  0  0
  9  1  1  0  0  0  0
 11  1  1  0  0  0  0
 16  4  1  0  0  0  0
 17  4  1  0  0  0  0
 19  6  1  0  0  0  0
 21 22  1  0  0  0  0
 21  7  1  0  0  0  0
 22 31  1  1  0  0  0
 23 24  1  0  0  0  0
 23 32  1  0  0  0  0
 23 22  1  0  0  0  0
 24 25  1  0  0  0  0
 25 29  1  0  0  0  0
 25 26  2  0  0  0  0
 27 28  2  0  0  0  0
 27 22  1  0  0  0  0
 29 36  1  0  0  0  0
 30 21  1  0  0  0  0
 33 23  1  0  0  0  0
 34 24  1  0  0  0  0
 35 24  1  0  0  0  0
 37 27  1  0  0  0  0
 38 48  1  1  0  0  0
 38 43  1  0  0  0  0
 38 37  1  0  0  0  0
 39 38  1  0  0  0  0
 40 41  1  0  0  0  0
 40 51  1  0  0  0  0
 40 39  1  0  0  0  0
 41 42  2  0  0  0  0
 43 46  1  0  0  0  0
 44 43  2  0  0  0  0
 45 53  1  0  0  0  0
 45 41  1  0  0  0  0
 47 37  1  0  0  0  0
 49 39  1  0  0  0  0
 50 39  1  0  0  0  0
 52 40  1  0  0  0  0
M  END
$$$$
