LEF.pdb
 OpenBabel07022418453D

 57 57  0  0  1  0  0  0  0  0999 V2000
   -0.2620    2.6810    6.1560 C   0  0  0  0  0  0  0  0  0  0  0  0
    0.0220    1.4470    5.3030 C   0  0  0  0  0  0  0  0  0  0  0  0
   -0.2180    0.1800    6.0940 C   0  0  0  0  0  0  0  0  0  0  0  0
    1.4130    1.4970    4.7700 C   0  0  0  0  0  0  0  0  0  0  0  0
    1.8210    0.3340    3.9170 C   0  0  2  0  0  0  0  0  0  0  0  0
    3.2200    0.5960    3.5250 N   0  0  0  0  0  0  0  0  0  0  0  0
    0.9880    0.1650    2.6960 C   0  0  0  0  0  0  0  0  0  0  0  0
   -0.2540    0.0040    2.7410 O   0  0  0  0  0  0  0  0  0  0  0  0
    0.5440    2.7830    6.9270 H   0  0  0  0  0  0  0  0  0  0  0  0
   -0.2650    3.5580    5.5010 H   0  0  0  0  0  0  0  0  0  0  0  0
   -1.2420    2.5500    6.6730 H   0  0  0  0  0  0  0  0  0  0  0  0
   -0.6970    1.4560    4.4650 H   0  0  0  0  0  0  0  0  0  0  0  0
   -1.2050    0.2490    6.5930 H   0  0  0  0  0  0  0  0  0  0  0  0
    0.5230    0.0470    6.9120 H   0  0  0  0  0  0  0  0  0  0  0  0
   -0.1360   -0.6710    5.3910 H   0  0  0  0  0  0  0  0  0  0  0  0
    2.1830    1.6080    5.5730 H   0  0  0  0  0  0  0  0  0  0  0  0
    1.5000    2.4390    4.1650 H   0  0  0  0  0  0  0  0  0  0  0  0
    1.7910   -0.6080    4.5110 H   0  0  0  0  0  0  0  0  0  0  0  0
    3.7240   -0.2890    3.3020 H   0  0  0  0  0  0  0  0  0  0  0  0
    3.6790    1.0390    4.3600 H   0  0  0  0  0  0  0  0  0  0  0  0
    1.5560    0.1770    1.3960 N   0  0  0  0  0  0  0  0  0  0  0  0
    0.7500    0.0130    0.1690 C   0  0  1  0  0  0  0  0  0  0  0  0
    0.9520    1.2330   -0.6810 C   0  0  0  0  0  0  0  0  0  0  0  0
    0.2320    1.3150   -1.9630 C   0  0  0  0  0  0  0  0  0  0  0  0
   -1.2420    1.2880   -1.8610 C   0  0  0  0  0  0  0  0  0  0  0  0
   -1.8300    1.1930   -0.7350 O   0  0  0  0  0  0  0  0  0  0  0  0
    1.1600   -1.2610   -0.4920 C   0  0  0  0  0  0  0  0  0  0  0  0
    2.1770   -1.8920   -0.0760 O   0  0  0  0  0  0  0  0  0  0  0  0
   -2.0100    1.3660   -3.0130 O   0  0  0  0  0  0  0  0  0  0  0  0
    2.5810    0.3030    1.2940 H   0  0  0  0  0  0  0  0  0  0  0  0
   -0.2950   -0.0380    0.5010 H   0  0  0  0  0  0  0  0  0  0  0  0
    0.6270    2.1160   -0.0550 H   0  0  0  0  0  0  0  0  0  0  0  0
    2.0650    1.3540   -0.8650 H   0  0  0  0  0  0  0  0  0  0  0  0
    0.5470    0.5860   -2.7380 H   0  0  0  0  0  0  0  0  0  0  0  0
    0.4530    2.3190   -2.4680 H   0  0  0  0  0  0  0  0  0  0  0  0
   -3.0190    1.1720   -3.0070 H   0  0  0  0  0  0  0  0  0  0  0  0
    0.4710   -1.8290   -1.5780 N   0  0  0  0  0  0  0  0  0  0  0  0
    0.9100   -3.0620   -2.1820 C   0  0  1  0  0  0  0  0  0  0  0  0
   -0.1020   -4.1810   -1.8840 C   0  0  0  0  0  0  0  0  0  0  0  0
   -1.4400   -3.8800   -2.4050 C   0  0  0  0  0  0  0  0  0  0  0  0
   -2.3330   -3.2060   -1.6010 C   0  0  0  0  0  0  0  0  0  0  0  0
   -3.5890   -2.9130   -2.0610 C   0  0  0  0  0  0  0  0  0  0  0  0
   -3.9760   -3.2840   -3.3210 C   0  0  0  0  0  0  0  0  0  0  0  0
   -3.0820   -3.9570   -4.1220 C   0  0  0  0  0  0  0  0  0  0  0  0
   -1.8120   -4.2600   -3.6730 C   0  0  0  0  0  0  0  0  0  0  0  0
    1.2130   -2.9410   -3.6030 C   0  0  0  0  0  0  0  0  0  0  0  0
    1.5920   -3.9280   -4.2700 O   0  0  0  0  0  0  0  0  0  0  0  0
    1.0870   -1.7260   -4.2460 O   0  0  0  0  0  0  0  0  0  0  0  0
   -0.3960   -1.4090   -1.9960 H   0  0  0  0  0  0  0  0  0  0  0  0
    1.8240   -3.3950   -1.6140 H   0  0  0  0  0  0  0  0  0  0  0  0
    0.3170   -5.1200   -2.2990 H   0  0  0  0  0  0  0  0  0  0  0  0
   -0.1190   -4.3020   -0.7910 H   0  0  0  0  0  0  0  0  0  0  0  0
   -2.0830   -2.8870   -0.5960 H   0  0  0  0  0  0  0  0  0  0  0  0
   -4.3160   -2.3840   -1.4540 H   0  0  0  0  0  0  0  0  0  0  0  0
   -4.9720   -3.0620   -3.7120 H   0  0  0  0  0  0  0  0  0  0  0  0
   -3.3690   -4.2520   -5.1050 H   0  0  0  0  0  0  0  0  0  0  0  0
   -1.1560   -4.7880   -4.3430 H   0  0  0  0  0  0  0  0  0  0  0  0
  1 11  1  0  0  0  0
  1  9  1  0  0  0  0
  2  3  1  0  0  0  0
  2  1  1  0  0  0  0
  3 13  1  0  0  0  0
  3 14  1  0  0  0  0
  4  2  1  0  0  0  0
  4 16  1  0  0  0  0
  5 18  1  1  0  0  0
  5  4  1  0  0  0  0
  6  5  1  0  0  0  0
  6 20  1  0  0  0  0
  7  8  2  0  0  0  0
  7  5  1  0  0  0  0
 10  1  1  0  0  0  0
 12  2  1  0  0  0  0
 15  3  1  0  0  0  0
 17  4  1  0  0  0  0
 19  6  1  0  0  0  0
 21  7  1  0  0  0  0
 22 31  1  1  0  0  0
 22 21  1  0  0  0  0
 23 32  1  0  0  0  0
 23 22  1  0  0  0  0
 24 25  1  0  0  0  0
 24 23  1  0  0  0  0
 25 26  2  0  0  0  0
 27 28  2  0  0  0  0
 27 22  1  0  0  0  0
 29 36  1  0  0  0  0
 29 25  1  0  0  0  0
 30 21  1  0  0  0  0
 33 23  1  0  0  0  0
 34 24  1  0  0  0  0
 35 24  1  0  0  0  0
 37 27  1  0  0  0  0
 38 39  1  0  0  0  0
 38 50  1  1  0  0  0
 38 37  1  0  0  0  0
 39 52  1  0  0  0  0
 40 39  1  0  0  0  0
 40 41  1  0  0  0  0
 41 53  1  0  0  0  0
 42 41  2  0  0  0  0
 42 54  1  0  0  0  0
 43 42  1  0  0  0  0
 44 45  1  0  0  0  0
 44 43  2  0  0  0  0
 45 40  2  0  0  0  0
 46 38  1  0  0  0  0
 47 46  2  0  0  0  0
 48 46  1  0  0  0  0
 49 37  1  0  0  0  0
 51 39  1  0  0  0  0
 55 43  1  0  0  0  0
 56 44  1  0  0  0  0
 57 45  1  0  0  0  0
M  END
$$$$
