LEG.pdb
 OpenBabel07022418453D

 44 43  0  0  1  0  0  0  0  0999 V2000
   -1.3740   -4.8690   -0.6430 C   0  0  0  0  0  0  0  0  0  0  0  0
   -0.1460   -4.1000   -1.0930 C   0  0  0  0  0  0  0  0  0  0  0  0
    0.9670   -4.3050   -0.1440 C   0  0  0  0  0  0  0  0  0  0  0  0
   -0.4260   -2.7320   -1.5710 C   0  0  0  0  0  0  0  0  0  0  0  0
   -1.0850   -1.7670   -0.6600 C   0  0  2  0  0  0  0  0  0  0  0  0
   -1.2310   -0.5070   -1.4130 N   0  0  0  0  0  0  0  0  0  0  0  0
   -0.2640   -1.4610    0.5220 C   0  0  0  0  0  0  0  0  0  0  0  0
   -0.1030   -2.2250    1.5090 O   0  0  0  0  0  0  0  0  0  0  0  0
   -1.9860   -5.2220   -1.4750 H   0  0  0  0  0  0  0  0  0  0  0  0
   -1.9230   -4.2730    0.1130 H   0  0  0  0  0  0  0  0  0  0  0  0
   -0.9870   -5.7670   -0.1010 H   0  0  0  0  0  0  0  0  0  0  0  0
    0.1630   -4.6760   -2.0500 H   0  0  0  0  0  0  0  0  0  0  0  0
    1.6930   -3.4540   -0.0740 H   0  0  0  0  0  0  0  0  0  0  0  0
    1.6280   -5.1440   -0.5440 H   0  0  0  0  0  0  0  0  0  0  0  0
    0.6700   -4.7070    0.8580 H   0  0  0  0  0  0  0  0  0  0  0  0
    0.5350   -2.3250   -1.9850 H   0  0  0  0  0  0  0  0  0  0  0  0
   -1.0890   -2.8330   -2.4890 H   0  0  0  0  0  0  0  0  0  0  0  0
   -2.1050   -2.1070   -0.4230 H   0  0  0  0  0  0  0  0  0  0  0  0
   -1.5330   -0.8070   -2.3750 H   0  0  0  0  0  0  0  0  0  0  0  0
   -2.0560    0.0080   -1.0180 H   0  0  0  0  0  0  0  0  0  0  0  0
    0.4470   -0.2060    0.6400 N   0  0  0  0  0  0  0  0  0  0  0  0
    1.2520    0.1070    1.7870 C   0  0  1  0  0  0  0  0  0  0  0  0
    2.7200    0.2260    1.4460 C   0  0  0  0  0  0  0  0  0  0  0  0
    3.0380    1.2800    0.4380 C   0  0  0  0  0  0  0  0  0  0  0  0
    2.6630    2.6520    0.8400 C   0  0  0  0  0  0  0  0  0  0  0  0
    3.2140    3.2680    1.7870 O   0  0  0  0  0  0  0  0  0  0  0  0
    0.6900    1.2650    2.4830 C   0  0  0  0  0  0  0  0  0  0  0  0
    1.1830    1.7520    3.5330 O   0  0  0  0  0  0  0  0  0  0  0  0
    1.6560    3.3350    0.1640 O   0  0  0  0  0  0  0  0  0  0  0  0
    0.3300    0.4520   -0.1710 H   0  0  0  0  0  0  0  0  0  0  0  0
    1.1970   -0.7700    2.4960 H   0  0  0  0  0  0  0  0  0  0  0  0
    3.3070    0.4700    2.3680 H   0  0  0  0  0  0  0  0  0  0  0  0
    3.0980   -0.7640    1.1220 H   0  0  0  0  0  0  0  0  0  0  0  0
    2.6640    1.0500   -0.5770 H   0  0  0  0  0  0  0  0  0  0  0  0
    4.1640    1.2860    0.3460 H   0  0  0  0  0  0  0  0  0  0  0  0
    1.0010    3.9470    0.6340 H   0  0  0  0  0  0  0  0  0  0  0  0
   -0.4930    1.9180    1.9770 N   0  0  0  0  0  0  0  0  0  0  0  0
   -1.0530    3.0650    2.6620 C   0  0  0  0  0  0  0  0  0  0  0  0
   -1.4360    2.6770    4.0650 C   0  0  0  0  0  0  0  0  0  0  0  0
   -1.9370    3.5290    4.8170 O   0  0  0  0  0  0  0  0  0  0  0  0
   -1.2420    1.3960    4.5330 O   0  0  0  0  0  0  0  0  0  0  0  0
   -0.9700    1.5890    1.1180 H   0  0  0  0  0  0  0  0  0  0  0  0
   -0.3420    3.9140    2.7020 H   0  0  0  0  0  0  0  0  0  0  0  0
   -2.0020    3.3670    2.1800 H   0  0  0  0  0  0  0  0  0  0  0  0
  1 11  1  0  0  0  0
  1 10  1  0  0  0  0
  2  1  1  0  0  0  0
  2  3  1  0  0  0  0
  3 13  1  0  0  0  0
  3 15  1  0  0  0  0
  4  2  1  0  0  0  0
  4  5  1  0  0  0  0
  5 18  1  1  0  0  0
  5  7  1  0  0  0  0
  6 20  1  0  0  0  0
  6  5  1  0  0  0  0
  7 21  1  0  0  0  0
  7  8  2  0  0  0  0
  9  1  1  0  0  0  0
 12  2  1  0  0  0  0
 14  3  1  0  0  0  0
 16  4  1  0  0  0  0
 17  4  1  0  0  0  0
 19  6  1  0  0  0  0
 21 22  1  0  0  0  0
 22 27  1  0  0  0  0
 22 31  1  1  0  0  0
 23 22  1  0  0  0  0
 23 32  1  0  0  0  0
 24 25  1  0  0  0  0
 24 23  1  0  0  0  0
 25 26  2  0  0  0  0
 27 28  2  0  0  0  0
 29 36  1  0  0  0  0
 29 25  1  0  0  0  0
 30 21  1  0  0  0  0
 33 23  1  0  0  0  0
 34 24  1  0  0  0  0
 35 24  1  0  0  0  0
 37 27  1  0  0  0  0
 37 38  1  0  0  0  0
 38 43  1  0  0  0  0
 38 39  1  0  0  0  0
 39 41  2  0  0  0  0
 39 40  1  0  0  0  0
 42 37  1  0  0  0  0
 44 38  1  0  0  0  0
M  END
$$$$
