LEH.pdb
 OpenBabel07022418453D

 54 54  0  0  1  0  0  0  0  0999 V2000
   -0.2690    1.2120    4.1820 C   0  0  0  0  0  0  0  0  0  0  0  0
    0.6560    0.2980    4.9140 C   0  0  0  0  0  0  0  0  0  0  0  0
    1.9500    1.0380    5.1730 C   0  0  0  0  0  0  0  0  0  0  0  0
    0.8440   -1.0430    4.3230 C   0  0  0  0  0  0  0  0  0  0  0  0
    1.3980   -1.1450    2.9610 C   0  0  2  0  0  0  0  0  0  0  0  0
    2.7180   -0.5700    2.8060 N   0  0  0  0  0  0  0  0  0  0  0  0
    0.4720   -0.8440    1.8610 C   0  0  0  0  0  0  0  0  0  0  0  0
   -0.7520   -1.0520    2.0480 O   0  0  0  0  0  0  0  0  0  0  0  0
   -0.2440    2.2230    4.6520 H   0  0  0  0  0  0  0  0  0  0  0  0
   -1.3260    0.8630    4.3020 H   0  0  0  0  0  0  0  0  0  0  0  0
   -0.0110    1.3450    3.1220 H   0  0  0  0  0  0  0  0  0  0  0  0
    0.1990    0.1390    5.9360 H   0  0  0  0  0  0  0  0  0  0  0  0
    2.2980    1.5850    4.2510 H   0  0  0  0  0  0  0  0  0  0  0  0
    1.7060    1.8480    5.9030 H   0  0  0  0  0  0  0  0  0  0  0  0
    2.7300    0.4200    5.6250 H   0  0  0  0  0  0  0  0  0  0  0  0
   -0.1740   -1.5390    4.2980 H   0  0  0  0  0  0  0  0  0  0  0  0
    1.4420   -1.6870    5.0100 H   0  0  0  0  0  0  0  0  0  0  0  0
    1.6090   -2.2780    2.8220 H   0  0  0  0  0  0  0  0  0  0  0  0
    3.2950   -0.9430    3.5930 H   0  0  0  0  0  0  0  0  0  0  0  0
    3.1420   -0.9610    1.9360 H   0  0  0  0  0  0  0  0  0  0  0  0
    0.8660   -0.3390    0.5950 N   0  0  0  0  0  0  0  0  0  0  0  0
   -0.0730   -0.0760   -0.4250 C   0  0  1  0  0  0  0  0  0  0  0  0
   -0.1310    1.2410   -1.0740 C   0  0  0  0  0  0  0  0  0  0  0  0
   -0.4370    2.4430   -0.2690 C   0  0  0  0  0  0  0  0  0  0  0  0
    0.4780    2.8460    0.7810 C   0  0  0  0  0  0  0  0  0  0  0  0
    1.5680    2.3020    1.0390 O   0  0  0  0  0  0  0  0  0  0  0  0
    0.0810   -1.1800   -1.4610 C   0  0  0  0  0  0  0  0  0  0  0  0
    0.9520   -2.0800   -1.3330 O   0  0  0  0  0  0  0  0  0  0  0  0
    0.1490    3.9480    1.6110 O   0  0  0  0  0  0  0  0  0  0  0  0
    1.8840   -0.1930    0.4290 H   0  0  0  0  0  0  0  0  0  0  0  0
   -1.1050   -0.2610    0.0260 H   0  0  0  0  0  0  0  0  0  0  0  0
    0.8490    1.4330   -1.6360 H   0  0  0  0  0  0  0  0  0  0  0  0
   -0.9130    1.1680   -1.8900 H   0  0  0  0  0  0  0  0  0  0  0  0
   -0.4720    3.3180   -1.0040 H   0  0  0  0  0  0  0  0  0  0  0  0
   -1.4810    2.4140    0.1570 H   0  0  0  0  0  0  0  0  0  0  0  0
    0.5410    3.9710    2.5420 H   0  0  0  0  0  0  0  0  0  0  0  0
   -0.7420   -1.2480   -2.6090 N   0  0  0  0  0  0  0  0  0  0  0  0
   -0.5570   -2.3340   -3.5880 C   0  0  1  0  0  0  0  0  0  0  0  0
   -1.8390   -3.1690   -3.5350 C   0  0  0  0  0  0  0  0  0  0  0  0
   -2.0510   -3.7190   -2.1790 C   0  0  0  0  0  0  0  0  0  0  0  0
   -2.7200   -3.2040   -1.1060 C   0  0  0  0  0  0  0  0  0  0  0  0
   -2.6470   -4.0660   -0.0780 N   0  0  0  0  0  0  0  0  0  0  0  0
   -1.9310   -5.1150   -0.5200 C   0  0  0  0  0  0  0  0  0  0  0  0
   -1.5620   -4.9190   -1.7960 N   0  0  0  0  0  0  0  0  0  0  0  0
   -0.3680   -1.7750   -4.9480 C   0  0  0  0  0  0  0  0  0  0  0  0
   -0.1970   -2.5540   -5.9180 O   0  0  0  0  0  0  0  0  0  0  0  0
   -0.3700   -0.4130   -5.2130 O   0  0  0  0  0  0  0  0  0  0  0  0
   -1.4840   -0.5350   -2.7700 H   0  0  0  0  0  0  0  0  0  0  0  0
    0.2680   -3.0000   -3.2670 H   0  0  0  0  0  0  0  0  0  0  0  0
   -1.7710   -3.9900   -4.2650 H   0  0  0  0  0  0  0  0  0  0  0  0
   -2.7210   -2.5590   -3.7960 H   0  0  0  0  0  0  0  0  0  0  0  0
   -3.2300   -2.2450   -1.0890 H   0  0  0  0  0  0  0  0  0  0  0  0
   -3.0630   -3.9560    0.8880 H   0  0  0  0  0  0  0  0  0  0  0  0
   -1.6820   -6.0050    0.0710 H   0  0  0  0  0  0  0  0  0  0  0  0
  1 10  1  0  0  0  0
  1  9  1  0  0  0  0
  1  2  1  0  0  0  0
  2  3  1  0  0  0  0
  2 12  1  0  0  0  0
  3 15  1  0  0  0  0
  3 14  1  0  0  0  0
  4  2  1  0  0  0  0
  4 17  1  0  0  0  0
  5 18  1  6  0  0  0
  5  4  1  0  0  0  0
  6  5  1  0  0  0  0
  6 19  1  0  0  0  0
  7  8  2  0  0  0  0
  7  5  1  0  0  0  0
 11  1  1  0  0  0  0
 13  3  1  0  0  0  0
 16  4  1  0  0  0  0
 20  6  1  0  0  0  0
 21  7  1  0  0  0  0
 22 31  1  1  0  0  0
 22 21  1  0  0  0  0
 23 22  1  0  0  0  0
 23 24  1  0  0  0  0
 24 35  1  0  0  0  0
 24 25  1  0  0  0  0
 25 26  2  0  0  0  0
 25 29  1  0  0  0  0
 27 28  2  0  0  0  0
 27 22  1  0  0  0  0
 29 36  1  0  0  0  0
 30 21  1  0  0  0  0
 32 23  1  0  0  0  0
 33 23  1  0  0  0  0
 34 24  1  0  0  0  0
 37 27  1  0  0  0  0
 38 39  1  0  0  0  0
 38 49  1  1  0  0  0
 38 37  1  0  0  0  0
 39 40  1  0  0  0  0
 40 44  1  0  0  0  0
 40 41  2  0  0  0  0
 41 52  1  0  0  0  0
 41 42  1  0  0  0  0
 42 53  1  0  0  0  0
 43 42  1  0  0  0  0
 43 54  1  0  0  0  0
 44 43  2  0  0  0  0
 45 38  1  0  0  0  0
 46 45  2  0  0  0  0
 47 45  1  0  0  0  0
 48 37  1  0  0  0  0
 50 39  1  0  0  0  0
 51 39  1  0  0  0  0
M  END
$$$$
