LEI.pdb
 OpenBabel07022418453D

 56 55  0  0  1  0  0  0  0  0999 V2000
    2.7470   -2.8700    3.9840 C   0  0  0  0  0  0  0  0  0  0  0  0
    1.2680   -2.5370    3.9160 C   0  0  0  0  0  0  0  0  0  0  0  0
    0.4880   -3.5020    4.8150 C   0  0  0  0  0  0  0  0  0  0  0  0
    0.9950   -1.1150    4.2950 C   0  0  0  0  0  0  0  0  0  0  0  0
    1.6570   -0.0830    3.4600 C   0  0  2  0  0  0  0  0  0  0  0  0
    1.2600    1.2210    4.0000 N   0  0  0  0  0  0  0  0  0  0  0  0
    1.3440   -0.1400    2.0120 C   0  0  0  0  0  0  0  0  0  0  0  0
    1.6740   -1.1740    1.3940 O   0  0  0  0  0  0  0  0  0  0  0  0
    3.1480   -3.1330    2.9660 H   0  0  0  0  0  0  0  0  0  0  0  0
    3.3240   -2.0060    4.3440 H   0  0  0  0  0  0  0  0  0  0  0  0
    2.8840   -3.7900    4.5950 H   0  0  0  0  0  0  0  0  0  0  0  0
    0.9140   -2.7250    2.9060 H   0  0  0  0  0  0  0  0  0  0  0  0
   -0.5960   -3.2090    4.7170 H   0  0  0  0  0  0  0  0  0  0  0  0
    0.7520   -3.3840    5.8690 H   0  0  0  0  0  0  0  0  0  0  0  0
    0.5900   -4.5130    4.4150 H   0  0  0  0  0  0  0  0  0  0  0  0
   -0.0870   -0.9050    4.4230 H   0  0  0  0  0  0  0  0  0  0  0  0
    1.4200   -0.9940    5.3380 H   0  0  0  0  0  0  0  0  0  0  0  0
    2.7590   -0.1600    3.5610 H   0  0  0  0  0  0  0  0  0  0  0  0
    0.2870    1.1520    4.4070 H   0  0  0  0  0  0  0  0  0  0  0  0
    1.8910    1.3790    4.8350 H   0  0  0  0  0  0  0  0  0  0  0  0
    0.6960    0.9210    1.3230 N   0  0  0  0  0  0  0  0  0  0  0  0
    0.3590    0.9070   -0.0610 C   0  0  1  0  0  0  0  0  0  0  0  0
    1.3570    1.3080   -1.0590 C   0  0  0  0  0  0  0  0  0  0  0  0
    1.8950    2.6960   -1.0120 C   0  0  0  0  0  0  0  0  0  0  0  0
    2.6500    3.0890    0.1830 C   0  0  0  0  0  0  0  0  0  0  0  0
    2.9760    2.3610    1.1460 O   0  0  0  0  0  0  0  0  0  0  0  0
   -0.3670   -0.3750   -0.3670 C   0  0  0  0  0  0  0  0  0  0  0  0
   -0.6520   -1.1990    0.5380 O   0  0  0  0  0  0  0  0  0  0  0  0
    3.0890    4.4320    0.3220 O   0  0  0  0  0  0  0  0  0  0  0  0
    0.4670    1.7540    1.9530 H   0  0  0  0  0  0  0  0  0  0  0  0
   -0.4810    1.7230   -0.1600 H   0  0  0  0  0  0  0  0  0  0  0  0
    0.8620    1.2220   -2.0820 H   0  0  0  0  0  0  0  0  0  0  0  0
    2.2650    0.6410   -1.0790 H   0  0  0  0  0  0  0  0  0  0  0  0
    1.0410    3.4190   -1.1140 H   0  0  0  0  0  0  0  0  0  0  0  0
    2.5600    2.7920   -1.9320 H   0  0  0  0  0  0  0  0  0  0  0  0
    3.3100    4.8080    1.2350 H   0  0  0  0  0  0  0  0  0  0  0  0
   -5.1820   -2.2680   -2.8290 C   0  0  0  0  0  0  0  0  0  0  0  0
   -3.7660   -2.8210   -2.6210 C   0  0  0  0  0  0  0  0  0  0  0  0
   -2.8890   -1.6480   -2.3270 C   0  0  2  0  0  0  0  0  0  0  0  0
   -2.9430   -0.7040   -3.5090 C   0  0  0  0  0  0  0  0  0  0  0  0
   -1.4840   -2.0150   -1.9200 C   0  0  2  0  0  0  0  0  0  0  0  0
   -0.7790   -0.7480   -1.6750 N   0  0  0  0  0  0  0  0  0  0  0  0
   -0.7820   -2.8460   -2.9000 C   0  0  0  0  0  0  0  0  0  0  0  0
   -1.2700   -3.9650   -3.2010 O   0  0  0  0  0  0  0  0  0  0  0  0
    0.4010   -2.4900   -3.5330 O   0  0  0  0  0  0  0  0  0  0  0  0
   -5.3520   -1.3800   -2.1710 H   0  0  0  0  0  0  0  0  0  0  0  0
   -5.3580   -1.9540   -3.8710 H   0  0  0  0  0  0  0  0  0  0  0  0
   -5.9410   -3.0210   -2.5310 H   0  0  0  0  0  0  0  0  0  0  0  0
   -3.7770   -3.5910   -1.8490 H   0  0  0  0  0  0  0  0  0  0  0  0
   -3.4620   -3.2800   -3.5930 H   0  0  0  0  0  0  0  0  0  0  0  0
   -3.4090   -1.0870   -1.4930 H   0  0  0  0  0  0  0  0  0  0  0  0
   -2.4000    0.2390   -3.3040 H   0  0  0  0  0  0  0  0  0  0  0  0
   -4.0090   -0.4180   -3.6370 H   0  0  0  0  0  0  0  0  0  0  0  0
   -2.6300   -1.1900   -4.4460 H   0  0  0  0  0  0  0  0  0  0  0  0
   -1.5840   -2.5890   -0.9780 H   0  0  0  0  0  0  0  0  0  0  0  0
   -0.5720   -0.1000   -2.4560 H   0  0  0  0  0  0  0  0  0  0  0  0
  1 10  1  0  0  0  0
  1 11  1  0  0  0  0
  2  1  1  0  0  0  0
  2  4  1  0  0  0  0
  2  3  1  0  0  0  0
  3 14  1  0  0  0  0
  4 16  1  0  0  0  0
  4 17  1  0  0  0  0
  5 18  1  1  0  0  0
  5  6  1  0  0  0  0
  5  4  1  0  0  0  0
  6 19  1  0  0  0  0
  6 20  1  0  0  0  0
  7  5  1  0  0  0  0
  8  7  2  0  0  0  0
  9  1  1  0  0  0  0
 12  2  1  0  0  0  0
 13  3  1  0  0  0  0
 15  3  1  0  0  0  0
 21 30  1  0  0  0  0
 21  7  1  0  0  0  0
 22 31  1  6  0  0  0
 22 21  1  0  0  0  0
 23 24  1  0  0  0  0
 23 22  1  0  0  0  0
 24 25  1  0  0  0  0
 25 29  1  0  0  0  0
 25 26  2  0  0  0  0
 27 22  1  0  0  0  0
 27 28  2  0  0  0  0
 29 36  1  0  0  0  0
 32 23  1  0  0  0  0
 33 23  1  0  0  0  0
 34 24  1  0  0  0  0
 35 24  1  0  0  0  0
 37 38  1  0  0  0  0
 37 48  1  0  0  0  0
 37 46  1  0  0  0  0
 38 39  1  0  0  0  0
 38 49  1  0  0  0  0
 39 41  1  0  0  0  0
 39 51  1  1  0  0  0
 40 52  1  0  0  0  0
 40 39  1  0  0  0  0
 41 42  1  0  0  0  0
 41 55  1  1  0  0  0
 42 27  1  0  0  0  0
 43 41  1  0  0  0  0
 44 43  1  0  0  0  0
 45 43  2  0  0  0  0
 47 37  1  0  0  0  0
 50 38  1  0  0  0  0
 53 40  1  0  0  0  0
 54 40  1  0  0  0  0
 56 42  1  0  0  0  0
M  END
$$$$
