LEK.pdb
 OpenBabel07022418453D

 58 57  0  0  1  0  0  0  0  0999 V2000
    1.6270   -3.8340    2.5900 C   0  0  0  0  0  0  0  0  0  0  0  0
    1.4670   -2.4170    3.1030 C   0  0  0  0  0  0  0  0  0  0  0  0
    1.4030   -2.4630    4.5790 C   0  0  0  0  0  0  0  0  0  0  0  0
    2.4910   -1.5250    2.5050 C   0  0  0  0  0  0  0  0  0  0  0  0
    2.4480   -0.0990    2.9260 C   0  0  2  0  0  0  0  0  0  0  0  0
    2.6290    0.0510    4.3680 N   0  0  0  0  0  0  0  0  0  0  0  0
    1.2460    0.6330    2.4970 C   0  0  0  0  0  0  0  0  0  0  0  0
    0.5260    1.2670    3.3420 O   0  0  0  0  0  0  0  0  0  0  0  0
    2.4630   -4.3340    3.1250 H   0  0  0  0  0  0  0  0  0  0  0  0
    0.6720   -4.3660    2.8440 H   0  0  0  0  0  0  0  0  0  0  0  0
    1.7530   -3.8740    1.5030 H   0  0  0  0  0  0  0  0  0  0  0  0
    0.4660   -2.0710    2.7290 H   0  0  0  0  0  0  0  0  0  0  0  0
    0.8210   -3.3900    4.8630 H   0  0  0  0  0  0  0  0  0  0  0  0
    0.8440   -1.6300    5.0490 H   0  0  0  0  0  0  0  0  0  0  0  0
    2.3900   -2.5950    5.0740 H   0  0  0  0  0  0  0  0  0  0  0  0
    2.4490   -1.5590    1.3970 H   0  0  0  0  0  0  0  0  0  0  0  0
    3.4970   -1.9230    2.7810 H   0  0  0  0  0  0  0  0  0  0  0  0
    3.3210    0.4110    2.4630 H   0  0  0  0  0  0  0  0  0  0  0  0
    3.6380    0.1010    4.6260 H   0  0  0  0  0  0  0  0  0  0  0  0
    2.0530    0.8220    4.7600 H   0  0  0  0  0  0  0  0  0  0  0  0
    0.8160    0.6810    1.1430 N   0  0  0  0  0  0  0  0  0  0  0  0
   -0.3880    1.4230    0.7540 C   0  0  1  0  0  0  0  0  0  0  0  0
   -0.0290    2.5330   -0.1960 C   0  0  0  0  0  0  0  0  0  0  0  0
   -1.1950    3.3400   -0.6450 C   0  0  0  0  0  0  0  0  0  0  0  0
   -1.8890    4.0260    0.4310 C   0  0  0  0  0  0  0  0  0  0  0  0
   -1.4850    3.9980    1.6110 O   0  0  0  0  0  0  0  0  0  0  0  0
   -1.4010    0.4800    0.2120 C   0  0  0  0  0  0  0  0  0  0  0  0
   -2.5180    0.8650   -0.1570 O   0  0  0  0  0  0  0  0  0  0  0  0
   -3.0670    4.7730    0.2280 O   0  0  0  0  0  0  0  0  0  0  0  0
    1.3780    0.1780    0.4390 H   0  0  0  0  0  0  0  0  0  0  0  0
   -0.8320    1.8620    1.6550 H   0  0  0  0  0  0  0  0  0  0  0  0
    0.6360    3.2250    0.3880 H   0  0  0  0  0  0  0  0  0  0  0  0
    0.5970    2.1650   -1.0410 H   0  0  0  0  0  0  0  0  0  0  0  0
   -1.9340    2.7670   -1.2700 H   0  0  0  0  0  0  0  0  0  0  0  0
   -0.8300    4.1650   -1.3500 H   0  0  0  0  0  0  0  0  0  0  0  0
   -3.7320    4.8100    0.9810 H   0  0  0  0  0  0  0  0  0  0  0  0
   -1.1380   -0.9160    0.0900 N   0  0  0  0  0  0  0  0  0  0  0  0
   -2.1120   -1.8440   -0.4370 C   0  0  1  0  0  0  0  0  0  0  0  0
   -1.5070   -2.4080   -1.7310 C   0  0  0  0  0  0  0  0  0  0  0  0
   -1.2850   -1.2410   -2.6310 C   0  0  0  0  0  0  0  0  0  0  0  0
   -0.7020   -1.5410   -3.9660 C   0  0  0  0  0  0  0  0  0  0  0  0
    0.6430   -2.1920   -3.9580 C   0  0  0  0  0  0  0  0  0  0  0  0
    0.7110   -3.4580   -3.3010 N   0  0  0  0  0  0  0  0  0  0  0  0
   -2.4660   -2.9080    0.5120 C   0  0  0  0  0  0  0  0  0  0  0  0
   -3.3050   -3.7840    0.1790 O   0  0  0  0  0  0  0  0  0  0  0  0
   -1.9300   -3.0230    1.7840 O   0  0  0  0  0  0  0  0  0  0  0  0
   -0.2210   -1.2890    0.3850 H   0  0  0  0  0  0  0  0  0  0  0  0
   -3.0070   -1.2680   -0.7000 H   0  0  0  0  0  0  0  0  0  0  0  0
   -0.5800   -2.9150   -1.3980 H   0  0  0  0  0  0  0  0  0  0  0  0
   -2.1580   -3.1630   -2.1800 H   0  0  0  0  0  0  0  0  0  0  0  0
   -2.2830   -0.7670   -2.8020 H   0  0  0  0  0  0  0  0  0  0  0  0
   -0.6860   -0.4740   -2.0980 H   0  0  0  0  0  0  0  0  0  0  0  0
   -1.4360   -2.0820   -4.5990 H   0  0  0  0  0  0  0  0  0  0  0  0
   -0.5640   -0.5480   -4.4820 H   0  0  0  0  0  0  0  0  0  0  0  0
    1.3610   -1.5100   -3.4570 H   0  0  0  0  0  0  0  0  0  0  0  0
    0.9600   -2.3080   -5.0160 H   0  0  0  0  0  0  0  0  0  0  0  0
    1.6300   -3.6810   -2.9030 H   0  0  0  0  0  0  0  0  0  0  0  0
    0.2650   -4.2430   -3.8190 H   0  0  0  0  0  0  0  0  0  0  0  0
  1 10  1  0  0  0  0
  1  2  1  0  0  0  0
  1  9  1  0  0  0  0
  2  3  1  0  0  0  0
  3 13  1  0  0  0  0
  3 14  1  0  0  0  0
  3 15  1  0  0  0  0
  4 17  1  0  0  0  0
  4  5  1  0  0  0  0
  4  2  1  0  0  0  0
  5 18  1  6  0  0  0
  5  6  1  0  0  0  0
  6 19  1  0  0  0  0
  6 20  1  0  0  0  0
  7  5  1  0  0  0  0
  7  8  2  0  0  0  0
 11  1  1  0  0  0  0
 12  2  1  0  0  0  0
 16  4  1  0  0  0  0
 21  7  1  0  0  0  0
 22 21  1  0  0  0  0
 22 31  1  1  0  0  0
 23 32  1  0  0  0  0
 23 22  1  0  0  0  0
 24 23  1  0  0  0  0
 24 25  1  0  0  0  0
 25 26  2  0  0  0  0
 27 22  1  0  0  0  0
 28 27  2  0  0  0  0
 29 25  1  0  0  0  0
 29 36  1  0  0  0  0
 30 21  1  0  0  0  0
 33 23  1  0  0  0  0
 34 24  1  0  0  0  0
 35 24  1  0  0  0  0
 37 27  1  0  0  0  0
 37 47  1  0  0  0  0
 38 48  1  6  0  0  0
 38 37  1  0  0  0  0
 38 44  1  0  0  0  0
 39 49  1  0  0  0  0
 39 38  1  0  0  0  0
 40 52  1  0  0  0  0
 40 39  1  0  0  0  0
 41 42  1  0  0  0  0
 41 40  1  0  0  0  0
 42 55  1  0  0  0  0
 42 43  1  0  0  0  0
 43 57  1  0  0  0  0
 44 46  1  0  0  0  0
 45 44  2  0  0  0  0
 50 39  1  0  0  0  0
 51 40  1  0  0  0  0
 53 41  1  0  0  0  0
 54 41  1  0  0  0  0
 56 42  1  0  0  0  0
 58 43  1  0  0  0  0
M  END
$$$$
