LEL.pdb
 OpenBabel07022418453D

 56 55  0  0  1  0  0  0  0  0999 V2000
    2.0170   -4.5130    4.8280 C   0  0  0  0  0  0  0  0  0  0  0  0
    0.6200   -4.1110    4.4150 C   0  0  0  0  0  0  0  0  0  0  0  0
   -0.2440   -3.6140    5.5180 C   0  0  0  0  0  0  0  0  0  0  0  0
    0.5820   -3.2320    3.2220 C   0  0  0  0  0  0  0  0  0  0  0  0
    1.2950   -1.9370    3.2920 C   0  0  2  0  0  0  0  0  0  0  0  0
    0.8790   -1.0190    4.2950 N   0  0  0  0  0  0  0  0  0  0  0  0
    1.1370   -1.2960    1.9330 C   0  0  0  0  0  0  0  0  0  0  0  0
    1.4270   -1.9330    0.8920 O   0  0  0  0  0  0  0  0  0  0  0  0
    2.3400   -5.4860    4.4040 H   0  0  0  0  0  0  0  0  0  0  0  0
    2.7760   -3.7700    4.5110 H   0  0  0  0  0  0  0  0  0  0  0  0
    2.0030   -4.6420    5.9370 H   0  0  0  0  0  0  0  0  0  0  0  0
    0.1460   -5.0940    4.0790 H   0  0  0  0  0  0  0  0  0  0  0  0
   -0.8440   -2.7540    5.1370 H   0  0  0  0  0  0  0  0  0  0  0  0
    0.3040   -3.2930    6.4300 H   0  0  0  0  0  0  0  0  0  0  0  0
   -1.0320   -4.3760    5.8080 H   0  0  0  0  0  0  0  0  0  0  0  0
   -0.5070   -3.0270    3.0010 H   0  0  0  0  0  0  0  0  0  0  0  0
    0.9850   -3.8240    2.3480 H   0  0  0  0  0  0  0  0  0  0  0  0
    2.4060   -2.0970    3.3840 H   0  0  0  0  0  0  0  0  0  0  0  0
    1.4870   -0.1420    4.2700 H   0  0  0  0  0  0  0  0  0  0  0  0
    1.1040   -1.4000    5.2660 H   0  0  0  0  0  0  0  0  0  0  0  0
    0.6550    0.0490    1.7840 N   0  0  0  0  0  0  0  0  0  0  0  0
    0.4770    0.6830    0.5150 C   0  0  1  0  0  0  0  0  0  0  0  0
    1.6460    1.3490   -0.1150 C   0  0  0  0  0  0  0  0  0  0  0  0
    2.2810    2.4820    0.6090 C   0  0  0  0  0  0  0  0  0  0  0  0
    2.9080    2.2390    1.8920 C   0  0  0  0  0  0  0  0  0  0  0  0
    3.0470    1.1210    2.4100 O   0  0  0  0  0  0  0  0  0  0  0  0
   -0.3100   -0.1670   -0.4540 C   0  0  0  0  0  0  0  0  0  0  0  0
   -0.7870   -1.2680   -0.0650 O   0  0  0  0  0  0  0  0  0  0  0  0
    3.4000    3.3570    2.6110 O   0  0  0  0  0  0  0  0  0  0  0  0
    0.4300    0.5310    2.7100 H   0  0  0  0  0  0  0  0  0  0  0  0
   -0.2340    1.5780    0.7660 H   0  0  0  0  0  0  0  0  0  0  0  0
    2.4460    0.6150   -0.4130 H   0  0  0  0  0  0  0  0  0  0  0  0
    1.2550    1.7990   -1.0840 H   0  0  0  0  0  0  0  0  0  0  0  0
    1.4840    3.2850    0.7700 H   0  0  0  0  0  0  0  0  0  0  0  0
    2.9900    2.9620   -0.1300 H   0  0  0  0  0  0  0  0  0  0  0  0
    4.0840    3.1710    3.3390 H   0  0  0  0  0  0  0  0  0  0  0  0
   -4.7320    0.6210   -3.8620 C   0  0  0  0  0  0  0  0  0  0  0  0
   -3.6030   -0.4600   -3.8910 C   0  0  0  0  0  0  0  0  0  0  0  0
   -3.1530   -0.4270   -5.3440 C   0  0  0  0  0  0  0  0  0  0  0  0
   -2.5640    0.0740   -2.9860 C   0  0  0  0  0  0  0  0  0  0  0  0
   -1.3400   -0.6970   -2.7050 C   0  0  2  0  0  0  0  0  0  0  0  0
   -0.5600    0.1760   -1.7790 N   0  0  0  0  0  0  0  0  0  0  0  0
   -0.5090   -1.1690   -3.7850 C   0  0  0  0  0  0  0  0  0  0  0  0
   -0.9030   -2.0220   -4.5980 O   0  0  0  0  0  0  0  0  0  0  0  0
    0.7750   -0.6680   -3.9420 O   0  0  0  0  0  0  0  0  0  0  0  0
   -5.2460    0.5800   -2.9040 H   0  0  0  0  0  0  0  0  0  0  0  0
   -4.2140    1.5970   -3.9530 H   0  0  0  0  0  0  0  0  0  0  0  0
   -5.3720    0.5180   -4.7420 H   0  0  0  0  0  0  0  0  0  0  0  0
   -4.0720   -1.3910   -3.5880 H   0  0  0  0  0  0  0  0  0  0  0  0
   -2.2050    0.1110   -5.4950 H   0  0  0  0  0  0  0  0  0  0  0  0
   -3.8860    0.1660   -5.9900 H   0  0  0  0  0  0  0  0  0  0  0  0
   -3.2210   -1.4370   -5.7550 H   0  0  0  0  0  0  0  0  0  0  0  0
   -3.1020    0.3260   -2.0110 H   0  0  0  0  0  0  0  0  0  0  0  0
   -2.3290    1.1240   -3.3740 H   0  0  0  0  0  0  0  0  0  0  0  0
   -1.6530   -1.6170   -2.1160 H   0  0  0  0  0  0  0  0  0  0  0  0
   -0.2180    1.0560   -2.1900 H   0  0  0  0  0  0  0  0  0  0  0  0
  1 11  1  0  0  0  0
  2  1  1  0  0  0  0
  2  3  1  0  0  0  0
  3 15  1  0  0  0  0
  3 14  1  0  0  0  0
  4  5  1  0  0  0  0
  4  2  1  0  0  0  0
  5 18  1  1  0  0  0
  5  6  1  0  0  0  0
  6 20  1  0  0  0  0
  7  5  1  0  0  0  0
  8  7  2  0  0  0  0
  9  1  1  0  0  0  0
 10  1  1  0  0  0  0
 12  2  1  0  0  0  0
 13  3  1  0  0  0  0
 16  4  1  0  0  0  0
 17  4  1  0  0  0  0
 19  6  1  0  0  0  0
 21  7  1  0  0  0  0
 21 30  1  0  0  0  0
 22 31  1  1  0  0  0
 22 21  1  0  0  0  0
 23 22  1  0  0  0  0
 23 24  1  0  0  0  0
 24 34  1  0  0  0  0
 24 25  1  0  0  0  0
 25 26  2  0  0  0  0
 25 29  1  0  0  0  0
 27 28  2  0  0  0  0
 27 22  1  0  0  0  0
 29 36  1  0  0  0  0
 32 23  1  0  0  0  0
 33 23  1  0  0  0  0
 35 24  1  0  0  0  0
 37 46  1  0  0  0  0
 38 37  1  0  0  0  0
 38 49  1  0  0  0  0
 38 40  1  0  0  0  0
 39 38  1  0  0  0  0
 40 41  1  0  0  0  0
 40 53  1  0  0  0  0
 41 55  1  1  0  0  0
 41 42  1  0  0  0  0
 42 27  1  0  0  0  0
 43 41  1  0  0  0  0
 44 43  2  0  0  0  0
 45 43  1  0  0  0  0
 47 37  1  0  0  0  0
 48 37  1  0  0  0  0
 50 39  1  0  0  0  0
 51 39  1  0  0  0  0
 52 39  1  0  0  0  0
 54 40  1  0  0  0  0
 56 42  1  0  0  0  0
M  END
$$$$
