LEP.pdb
 OpenBabel07022418453D

 51 51  0  0  1  0  0  0  0  0999 V2000
    2.3580   -4.7700    2.6690 C   0  0  0  0  0  0  0  0  0  0  0  0
    2.8920   -3.3730    2.4420 C   0  0  0  0  0  0  0  0  0  0  0  0
    2.4160   -2.4610    3.5220 C   0  0  0  0  0  0  0  0  0  0  0  0
    2.7880   -2.8810    1.0530 C   0  0  0  0  0  0  0  0  0  0  0  0
    1.4420   -2.8200    0.4170 C   0  0  2  0  0  0  0  0  0  0  0  0
    1.6830   -2.2960   -0.9400 N   0  0  0  0  0  0  0  0  0  0  0  0
    0.5240   -1.8790    1.1000 C   0  0  0  0  0  0  0  0  0  0  0  0
   -0.1050   -2.2000    2.1520 O   0  0  0  0  0  0  0  0  0  0  0  0
    1.2760   -4.8100    2.8360 H   0  0  0  0  0  0  0  0  0  0  0  0
    2.7300   -5.4540    1.8830 H   0  0  0  0  0  0  0  0  0  0  0  0
    2.8280   -5.1280    3.6310 H   0  0  0  0  0  0  0  0  0  0  0  0
    4.0210   -3.4850    2.6280 H   0  0  0  0  0  0  0  0  0  0  0  0
    1.5660   -2.8680    4.1280 H   0  0  0  0  0  0  0  0  0  0  0  0
    2.2430   -1.4210    3.1690 H   0  0  0  0  0  0  0  0  0  0  0  0
    3.2320   -2.3130    4.3120 H   0  0  0  0  0  0  0  0  0  0  0  0
    3.5050   -3.4650    0.4020 H   0  0  0  0  0  0  0  0  0  0  0  0
    3.2270   -1.8440    1.0250 H   0  0  0  0  0  0  0  0  0  0  0  0
    0.9690   -3.8150    0.3270 H   0  0  0  0  0  0  0  0  0  0  0  0
    1.7790   -3.0620   -1.6210 H   0  0  0  0  0  0  0  0  0  0  0  0
    2.5460   -1.7100   -0.9680 H   0  0  0  0  0  0  0  0  0  0  0  0
    0.2970   -0.5630    0.6120 N   0  0  0  0  0  0  0  0  0  0  0  0
   -0.6150    0.3090    1.3270 C   0  0  1  0  0  0  0  0  0  0  0  0
    0.1890    1.5340    1.6610 C   0  0  0  0  0  0  0  0  0  0  0  0
   -0.4860    2.6210    2.4030 C   0  0  0  0  0  0  0  0  0  0  0  0
    0.4610    3.7460    2.7140 C   0  0  0  0  0  0  0  0  0  0  0  0
    1.6450    3.6160    2.3160 O   0  0  0  0  0  0  0  0  0  0  0  0
   -1.8480    0.6520    0.6340 C   0  0  0  0  0  0  0  0  0  0  0  0
   -2.6370    1.3870    1.3680 O   0  0  0  0  0  0  0  0  0  0  0  0
    0.0800    4.8670    3.3960 O   0  0  0  0  0  0  0  0  0  0  0  0
    0.8170   -0.2740   -0.2370 H   0  0  0  0  0  0  0  0  0  0  0  0
   -0.9240   -0.1600    2.3000 H   0  0  0  0  0  0  0  0  0  0  0  0
    0.5630    1.9910    0.6860 H   0  0  0  0  0  0  0  0  0  0  0  0
    1.1660    1.2360    2.1550 H   0  0  0  0  0  0  0  0  0  0  0  0
   -0.9150    2.2300    3.3380 H   0  0  0  0  0  0  0  0  0  0  0  0
   -1.3320    3.0510    1.7880 H   0  0  0  0  0  0  0  0  0  0  0  0
    0.5760    5.7540    3.2920 H   0  0  0  0  0  0  0  0  0  0  0  0
   -2.2710    0.3070   -0.6680 N   0  0  0  0  0  0  0  0  0  0  0  0
   -3.5280    0.7850   -1.2340 C   0  0  0  0  0  0  0  0  0  0  0  0
   -4.1160   -0.5350   -1.6870 C   0  0  0  0  0  0  0  0  0  0  0  0
   -2.9310   -1.3640   -2.1200 C   0  0  0  0  0  0  0  0  0  0  0  0
   -1.7320   -0.4980   -1.7020 C   0  0  1  0  0  0  0  0  0  0  0  0
   -1.1670    0.2310   -2.8380 C   0  0  0  0  0  0  0  0  0  0  0  0
   -1.1650    1.4730   -2.8810 O   0  0  0  0  0  0  0  0  0  0  0  0
   -0.6200   -0.4790   -3.8930 O   0  0  0  0  0  0  0  0  0  0  0  0
   -3.3630    1.4760   -2.0820 H   0  0  0  0  0  0  0  0  0  0  0  0
   -4.2070    1.1960   -0.4660 H   0  0  0  0  0  0  0  0  0  0  0  0
   -4.7580   -0.3540   -2.5910 H   0  0  0  0  0  0  0  0  0  0  0  0
   -4.7120   -1.0240   -0.8950 H   0  0  0  0  0  0  0  0  0  0  0  0
   -2.8620   -1.4230   -3.2440 H   0  0  0  0  0  0  0  0  0  0  0  0
   -2.9080   -2.3540   -1.6570 H   0  0  0  0  0  0  0  0  0  0  0  0
   -1.0000   -1.2240   -1.2510 H   0  0  0  0  0  0  0  0  0  0  0  0
  1  9  1  0  0  0  0
  1 11  1  0  0  0  0
  2 12  1  0  0  0  0
  2  1  1  0  0  0  0
  2  3  1  0  0  0  0
  3 13  1  0  0  0  0
  3 15  1  0  0  0  0
  4  2  1  0  0  0  0
  5 18  1  6  0  0  0
  5  4  1  0  0  0  0
  5  7  1  0  0  0  0
  6  5  1  0  0  0  0
  7  8  2  0  0  0  0
 10  1  1  0  0  0  0
 14  3  1  0  0  0  0
 16  4  1  0  0  0  0
 17  4  1  0  0  0  0
 19  6  1  0  0  0  0
 20  6  1  0  0  0  0
 21  7  1  0  0  0  0
 21 22  1  0  0  0  0
 22 23  1  0  0  0  0
 22 31  1  1  0  0  0
 23 33  1  0  0  0  0
 23 24  1  0  0  0  0
 24 25  1  0  0  0  0
 24 34  1  0  0  0  0
 25 29  1  0  0  0  0
 26 25  2  0  0  0  0
 27 22  1  0  0  0  0
 27 28  2  0  0  0  0
 30 21  1  0  0  0  0
 32 23  1  0  0  0  0
 35 24  1  0  0  0  0
 36 29  1  0  0  0  0
 37 27  1  0  0  0  0
 38 37  1  0  0  0  0
 38 46  1  0  0  0  0
 39 38  1  0  0  0  0
 39 48  1  0  0  0  0
 40 41  1  0  0  0  0
 40 39  1  0  0  0  0
 40 50  1  0  0  0  0
 41 51  1  1  0  0  0
 41 37  1  0  0  0  0
 42 41  1  0  0  0  0
 43 42  1  0  0  0  0
 44 42  2  0  0  0  0
 45 38  1  0  0  0  0
 47 39  1  0  0  0  0
 49 40  1  0  0  0  0
M  END
$$$$
