LER.pdb
 OpenBabel07022418453D

 60 59  0  0  1  0  0  0  0  0999 V2000
    0.7190   -0.8890    5.5880 C   0  0  0  0  0  0  0  0  0  0  0  0
    1.2100   -0.0070    4.4140 C   0  0  0  0  0  0  0  0  0  0  0  0
    2.6940    0.2010    4.6650 C   0  0  0  0  0  0  0  0  0  0  0  0
    0.5000    1.3080    4.4320 C   0  0  0  0  0  0  0  0  0  0  0  0
    0.9610    2.2060    3.3200 C   0  0  2  0  0  0  0  0  0  0  0  0
    0.2290    3.5010    3.4250 N   0  0  0  0  0  0  0  0  0  0  0  0
    0.6590    1.6130    1.9940 C   0  0  0  0  0  0  0  0  0  0  0  0
   -0.3960    2.0340    1.3860 O   0  0  0  0  0  0  0  0  0  0  0  0
    1.1580   -0.4580    6.4960 H   0  0  0  0  0  0  0  0  0  0  0  0
   -0.3710   -0.9370    5.5430 H   0  0  0  0  0  0  0  0  0  0  0  0
    1.1310   -1.9070    5.3540 H   0  0  0  0  0  0  0  0  0  0  0  0
    1.0750   -0.5720    3.4780 H   0  0  0  0  0  0  0  0  0  0  0  0
    3.1350    0.8680    3.9030 H   0  0  0  0  0  0  0  0  0  0  0  0
    2.8680    0.6560    5.6620 H   0  0  0  0  0  0  0  0  0  0  0  0
    3.2210   -0.7890    4.6700 H   0  0  0  0  0  0  0  0  0  0  0  0
    0.5630    1.8090    5.4310 H   0  0  0  0  0  0  0  0  0  0  0  0
   -0.6030    1.1040    4.2050 H   0  0  0  0  0  0  0  0  0  0  0  0
    2.0130    2.4460    3.4620 H   0  0  0  0  0  0  0  0  0  0  0  0
    0.5400    4.0500    2.5960 H   0  0  0  0  0  0  0  0  0  0  0  0
    0.6320    3.9620    4.2680 H   0  0  0  0  0  0  0  0  0  0  0  0
    1.3970    0.6440    1.3050 N   0  0  0  0  0  0  0  0  0  0  0  0
    1.0530    0.1190   -0.0130 C   0  0  1  0  0  0  0  0  0  0  0  0
    2.1730    0.2200   -1.0060 C   0  0  0  0  0  0  0  0  0  0  0  0
    2.6780    1.5960   -1.2760 C   0  0  0  0  0  0  0  0  0  0  0  0
    1.6860    2.5490   -1.8220 C   0  0  0  0  0  0  0  0  0  0  0  0
    1.9600    3.7700   -1.9200 O   0  0  0  0  0  0  0  0  0  0  0  0
    0.4730   -1.2410    0.1040 C   0  0  0  0  0  0  0  0  0  0  0  0
    0.0640   -1.6010    1.2380 O   0  0  0  0  0  0  0  0  0  0  0  0
    0.4290    2.1470   -2.2470 O   0  0  0  0  0  0  0  0  0  0  0  0
    2.2800    0.2740    1.7480 H   0  0  0  0  0  0  0  0  0  0  0  0
    0.2080    0.7870   -0.4290 H   0  0  0  0  0  0  0  0  0  0  0  0
    3.0510   -0.3890   -0.6490 H   0  0  0  0  0  0  0  0  0  0  0  0
    1.8880   -0.2900   -1.9820 H   0  0  0  0  0  0  0  0  0  0  0  0
    3.5070    1.5660   -2.0560 H   0  0  0  0  0  0  0  0  0  0  0  0
    3.1910    2.0190   -0.3740 H   0  0  0  0  0  0  0  0  0  0  0  0
   -0.3320    2.8260   -2.0700 H   0  0  0  0  0  0  0  0  0  0  0  0
   -5.4760   -2.0330   -4.1640 N   0  0  0  0  0  0  0  0  0  0  0  0
   -4.9820   -2.8780   -3.1420 C   0  0  0  0  0  0  0  0  0  0  0  0
   -5.1730   -4.1530   -3.1690 N   0  0  0  0  0  0  0  0  0  0  0  0
   -4.2430   -2.3460   -2.0400 N   0  0  0  0  0  0  0  0  0  0  0  0
   -3.1540   -3.1180   -1.4510 C   0  0  0  0  0  0  0  0  0  0  0  0
   -2.0590   -3.1870   -2.5090 C   0  0  0  0  0  0  0  0  0  0  0  0
   -0.9140   -3.9850   -2.0220 C   0  0  0  0  0  0  0  0  0  0  0  0
   -0.2260   -3.4780   -0.8110 C   0  0  2  0  0  0  0  0  0  0  0  0
    0.3490   -2.1620   -0.9400 N   0  0  0  0  0  0  0  0  0  0  0  0
    0.8260   -4.4860   -0.4060 C   0  0  0  0  0  0  0  0  0  0  0  0
    0.5030   -5.6480   -0.2000 O   0  0  0  0  0  0  0  0  0  0  0  0
    2.1290   -4.0160   -0.2930 O   0  0  0  0  0  0  0  0  0  0  0  0
   -6.3970   -2.2410   -4.6040 H   0  0  0  0  0  0  0  0  0  0  0  0
   -4.9730   -1.1860   -4.5350 H   0  0  0  0  0  0  0  0  0  0  0  0
   -4.8240   -4.8020   -2.4330 H   0  0  0  0  0  0  0  0  0  0  0  0
   -4.4910   -1.4220   -1.6650 H   0  0  0  0  0  0  0  0  0  0  0  0
   -2.7930   -2.5620   -0.5670 H   0  0  0  0  0  0  0  0  0  0  0  0
   -3.4640   -4.1140   -1.1160 H   0  0  0  0  0  0  0  0  0  0  0  0
   -1.8170   -2.1440   -2.8360 H   0  0  0  0  0  0  0  0  0  0  0  0
   -2.5030   -3.7030   -3.4090 H   0  0  0  0  0  0  0  0  0  0  0  0
   -0.2010   -4.2860   -2.8360 H   0  0  0  0  0  0  0  0  0  0  0  0
   -1.3460   -4.9980   -1.7270 H   0  0  0  0  0  0  0  0  0  0  0  0
   -0.9110   -3.4640    0.0550 H   0  0  0  0  0  0  0  0  0  0  0  0
    0.6910   -1.8990   -1.8830 H   0  0  0  0  0  0  0  0  0  0  0  0
  1  9  1  0  0  0  0
  2  4  1  0  0  0  0
  2  3  1  0  0  0  0
  2  1  1  0  0  0  0
  3 15  1  0  0  0  0
  3 14  1  0  0  0  0
  4 16  1  0  0  0  0
  5  6  1  0  0  0  0
  5 18  1  1  0  0  0
  5  4  1  0  0  0  0
  6 20  1  0  0  0  0
  7  5  1  0  0  0  0
  8  7  2  0  0  0  0
 10  1  1  0  0  0  0
 11  1  1  0  0  0  0
 12  2  1  0  0  0  0
 13  3  1  0  0  0  0
 17  4  1  0  0  0  0
 19  6  1  0  0  0  0
 21 30  1  0  0  0  0
 21  7  1  0  0  0  0
 22 31  1  6  0  0  0
 22 27  1  0  0  0  0
 22 21  1  0  0  0  0
 23 32  1  0  0  0  0
 23 22  1  0  0  0  0
 24 23  1  0  0  0  0
 24 35  1  0  0  0  0
 25 24  1  0  0  0  0
 26 25  2  0  0  0  0
 27 28  2  0  0  0  0
 29 36  1  0  0  0  0
 29 25  1  0  0  0  0
 33 23  1  0  0  0  0
 34 24  1  0  0  0  0
 37 38  1  0  0  0  0
 38 40  1  0  0  0  0
 39 38  2  0  0  0  0
 39 51  1  0  0  0  0
 40 52  1  0  0  0  0
 40 41  1  0  0  0  0
 41 54  1  0  0  0  0
 41 53  1  0  0  0  0
 42 43  1  0  0  0  0
 42 41  1  0  0  0  0
 43 58  1  0  0  0  0
 43 44  1  0  0  0  0
 44 46  1  0  0  0  0
 44 59  1  1  0  0  0
 45 44  1  0  0  0  0
 45 27  1  0  0  0  0
 46 48  2  0  0  0  0
 46 47  1  0  0  0  0
 49 37  1  0  0  0  0
 50 37  1  0  0  0  0
 55 42  1  0  0  0  0
 56 42  1  0  0  0  0
 57 43  1  0  0  0  0
 60 45  1  0  0  0  0
M  END
$$$$
