LEV.pdb
 OpenBabel07022418453D

 53 52  0  0  1  0  0  0  0  0999 V2000
    1.8340   -4.7510    0.5300 C   0  0  0  0  0  0  0  0  0  0  0  0
    2.3350   -3.4330    1.0980 C   0  0  0  0  0  0  0  0  0  0  0  0
    1.2430   -2.8530    1.9520 C   0  0  0  0  0  0  0  0  0  0  0  0
    2.7980   -2.5300    0.0000 C   0  0  0  0  0  0  0  0  0  0  0  0
    3.3190   -1.2090    0.4210 C   0  0  2  0  0  0  0  0  0  0  0  0
    4.4470   -1.4610    1.3330 N   0  0  0  0  0  0  0  0  0  0  0  0
    2.3990   -0.2680    1.0310 C   0  0  0  0  0  0  0  0  0  0  0  0
    2.5440    0.0900    2.2510 O   0  0  0  0  0  0  0  0  0  0  0  0
    2.5470   -5.5760    0.7210 H   0  0  0  0  0  0  0  0  0  0  0  0
    1.6530   -4.6660   -0.5710 H   0  0  0  0  0  0  0  0  0  0  0  0
    0.8680   -5.0400    0.9830 H   0  0  0  0  0  0  0  0  0  0  0  0
    3.2170   -3.6950    1.7530 H   0  0  0  0  0  0  0  0  0  0  0  0
    1.7220   -2.4270    2.8790 H   0  0  0  0  0  0  0  0  0  0  0  0
    0.6420   -2.1130    1.4000 H   0  0  0  0  0  0  0  0  0  0  0  0
    0.5240   -3.6450    2.2870 H   0  0  0  0  0  0  0  0  0  0  0  0
    1.8850   -2.3380   -0.6440 H   0  0  0  0  0  0  0  0  0  0  0  0
    3.4780   -3.0820   -0.6840 H   0  0  0  0  0  0  0  0  0  0  0  0
    3.8170   -0.7630   -0.5010 H   0  0  0  0  0  0  0  0  0  0  0  0
    4.9100   -0.5100    1.4370 H   0  0  0  0  0  0  0  0  0  0  0  0
    3.9890   -1.6130    2.2770 H   0  0  0  0  0  0  0  0  0  0  0  0
    1.2920    0.3370    0.3780 N   0  0  0  0  0  0  0  0  0  0  0  0
    0.3960    1.2850    1.0390 C   0  0  1  0  0  0  0  0  0  0  0  0
    0.6110    2.6370    0.3890 C   0  0  0  0  0  0  0  0  0  0  0  0
   -0.2240    3.7370    0.9380 C   0  0  0  0  0  0  0  0  0  0  0  0
   -0.0130    4.0190    2.3740 C   0  0  0  0  0  0  0  0  0  0  0  0
    0.8010    3.4360    3.1180 O   0  0  0  0  0  0  0  0  0  0  0  0
   -0.9860    0.7960    0.8490 C   0  0  0  0  0  0  0  0  0  0  0  0
   -1.9640    1.4540    1.3480 O   0  0  0  0  0  0  0  0  0  0  0  0
   -0.7880    5.0200    2.9540 O   0  0  0  0  0  0  0  0  0  0  0  0
    1.0990    0.1060   -0.6120 H   0  0  0  0  0  0  0  0  0  0  0  0
    0.6350    1.3860    2.0990 H   0  0  0  0  0  0  0  0  0  0  0  0
    1.6880    2.9000    0.6060 H   0  0  0  0  0  0  0  0  0  0  0  0
    0.5400    2.5120   -0.6980 H   0  0  0  0  0  0  0  0  0  0  0  0
   -1.3220    3.5870    0.7190 H   0  0  0  0  0  0  0  0  0  0  0  0
    0.0790    4.6730    0.3920 H   0  0  0  0  0  0  0  0  0  0  0  0
   -0.6300    5.3840    3.8720 H   0  0  0  0  0  0  0  0  0  0  0  0
   -4.5760   -1.3550   -1.5490 C   0  0  0  0  0  0  0  0  0  0  0  0
   -3.1290   -0.9250   -1.4560 C   0  0  0  0  0  0  0  0  0  0  0  0
   -2.2820   -2.0320   -2.0470 C   0  0  0  0  0  0  0  0  0  0  0  0
   -2.7430   -0.7850   -0.0050 C   0  0  2  0  0  0  0  0  0  0  0  0
   -1.3560   -0.3720    0.1440 N   0  0  0  0  0  0  0  0  0  0  0  0
   -2.9350   -2.0420    0.7490 C   0  0  0  0  0  0  0  0  0  0  0  0
   -2.0360   -2.6270    1.4010 O   0  0  0  0  0  0  0  0  0  0  0  0
   -4.1910   -2.6790    0.7780 O   0  0  0  0  0  0  0  0  0  0  0  0
   -4.6040   -2.4600   -1.5250 H   0  0  0  0  0  0  0  0  0  0  0  0
   -5.0110   -1.0350   -2.5320 H   0  0  0  0  0  0  0  0  0  0  0  0
   -5.1820   -0.9450   -0.7110 H   0  0  0  0  0  0  0  0  0  0  0  0
   -2.9360    0.0220   -1.9840 H   0  0  0  0  0  0  0  0  0  0  0  0
   -1.2010   -1.7540   -2.0620 H   0  0  0  0  0  0  0  0  0  0  0  0
   -2.4510   -2.9360   -1.4300 H   0  0  0  0  0  0  0  0  0  0  0  0
   -2.6220   -2.2940   -3.0820 H   0  0  0  0  0  0  0  0  0  0  0  0
   -3.4080   -0.0300    0.5000 H   0  0  0  0  0  0  0  0  0  0  0  0
   -0.6030   -0.9490   -0.2800 H   0  0  0  0  0  0  0  0  0  0  0  0
  1  9  1  0  0  0  0
  1 11  1  0  0  0  0
  1  2  1  0  0  0  0
  2 12  1  0  0  0  0
  2  3  1  0  0  0  0
  3 15  1  0  0  0  0
  3 13  1  0  0  0  0
  4  5  1  0  0  0  0
  4  2  1  0  0  0  0
  5 18  1  6  0  0  0
  5  7  1  0  0  0  0
  5  6  1  0  0  0  0
  6 19  1  0  0  0  0
  6 20  1  0  0  0  0
  7  8  2  0  0  0  0
 10  1  1  0  0  0  0
 14  3  1  0  0  0  0
 16  4  1  0  0  0  0
 17  4  1  0  0  0  0
 21  7  1  0  0  0  0
 21 22  1  0  0  0  0
 22 31  1  1  0  0  0
 23 32  1  0  0  0  0
 23 24  1  0  0  0  0
 23 22  1  0  0  0  0
 24 25  1  0  0  0  0
 25 29  1  0  0  0  0
 25 26  2  0  0  0  0
 27 22  1  0  0  0  0
 27 28  2  0  0  0  0
 29 36  1  0  0  0  0
 30 21  1  0  0  0  0
 33 23  1  0  0  0  0
 34 24  1  0  0  0  0
 35 24  1  0  0  0  0
 37 45  1  0  0  0  0
 37 38  1  0  0  0  0
 37 47  1  0  0  0  0
 38 40  1  0  0  0  0
 39 38  1  0  0  0  0
 39 50  1  0  0  0  0
 40 41  1  0  0  0  0
 40 52  1  1  0  0  0
 40 42  1  0  0  0  0
 41 27  1  0  0  0  0
 42 44  2  0  0  0  0
 42 43  1  0  0  0  0
 46 37  1  0  0  0  0
 48 38  1  0  0  0  0
 49 39  1  0  0  0  0
 51 39  1  0  0  0  0
 53 41  1  0  0  0  0
M  END
$$$$
