LEY.pdb
 OpenBabel07022418453D

 58 58  0  0  1  0  0  0  0  0999 V2000
    1.7540    1.0830    4.7080 C   0  0  0  0  0  0  0  0  0  0  0  0
    2.6290    2.0960    4.0450 C   0  0  0  0  0  0  0  0  0  0  0  0
    4.0880    1.8000    4.3820 C   0  0  0  0  0  0  0  0  0  0  0  0
    2.3920    2.2670    2.6070 C   0  0  0  0  0  0  0  0  0  0  0  0
    2.6020    1.1640    1.6580 C   0  0  2  0  0  0  0  0  0  0  0  0
    2.2600    1.6550    0.2920 N   0  0  0  0  0  0  0  0  0  0  0  0
    1.9960   -0.1340    1.8940 C   0  0  0  0  0  0  0  0  0  0  0  0
    2.4130   -0.9710    2.7420 O   0  0  0  0  0  0  0  0  0  0  0  0
    0.9290    0.8170    4.0240 H   0  0  0  0  0  0  0  0  0  0  0  0
    2.3190    0.2100    5.1150 H   0  0  0  0  0  0  0  0  0  0  0  0
    1.2120    1.5910    5.5750 H   0  0  0  0  0  0  0  0  0  0  0  0
    2.4330    3.0940    4.5540 H   0  0  0  0  0  0  0  0  0  0  0  0
    4.1960    2.0070    5.4730 H   0  0  0  0  0  0  0  0  0  0  0  0
    4.3440    0.7340    4.2330 H   0  0  0  0  0  0  0  0  0  0  0  0
    4.7350    2.4980    3.8400 H   0  0  0  0  0  0  0  0  0  0  0  0
    1.3600    2.7250    2.5050 H   0  0  0  0  0  0  0  0  0  0  0  0
    3.0530    3.1340    2.2620 H   0  0  0  0  0  0  0  0  0  0  0  0
    3.7170    0.9890    1.5760 H   0  0  0  0  0  0  0  0  0  0  0  0
    2.9520    2.4170    0.0510 H   0  0  0  0  0  0  0  0  0  0  0  0
    2.3690    0.8810   -0.3910 H   0  0  0  0  0  0  0  0  0  0  0  0
    0.8330   -0.5920    1.1580 N   0  0  0  0  0  0  0  0  0  0  0  0
    0.2440   -1.8740    1.3920 C   0  0  1  0  0  0  0  0  0  0  0  0
   -1.0480   -1.7420    2.1350 C   0  0  0  0  0  0  0  0  0  0  0  0
   -2.1210   -0.9420    1.4730 C   0  0  0  0  0  0  0  0  0  0  0  0
   -1.7980    0.4680    1.2210 C   0  0  0  0  0  0  0  0  0  0  0  0
   -1.9960    1.0540    0.1040 O   0  0  0  0  0  0  0  0  0  0  0  0
    0.0200   -2.6500    0.1520 C   0  0  0  0  0  0  0  0  0  0  0  0
   -0.5070   -3.8120    0.1980 O   0  0  0  0  0  0  0  0  0  0  0  0
   -1.2390    1.2780    2.2170 O   0  0  0  0  0  0  0  0  0  0  0  0
    0.4900    0.0830    0.4570 H   0  0  0  0  0  0  0  0  0  0  0  0
    0.9030   -2.4810    2.1110 H   0  0  0  0  0  0  0  0  0  0  0  0
   -1.3940   -2.8080    2.3240 H   0  0  0  0  0  0  0  0  0  0  0  0
   -0.8810   -1.3630    3.1840 H   0  0  0  0  0  0  0  0  0  0  0  0
   -3.0430   -1.0280    2.1220 H   0  0  0  0  0  0  0  0  0  0  0  0
   -2.4510   -1.4050    0.5060 H   0  0  0  0  0  0  0  0  0  0  0  0
   -1.1810    2.2940    2.1170 H   0  0  0  0  0  0  0  0  0  0  0  0
   -6.1000   -2.2730   -1.6700 O   0  0  0  0  0  0  0  0  0  0  0  0
   -4.7740   -2.2720   -2.0900 C   0  0  0  0  0  0  0  0  0  0  0  0
   -3.9370   -1.1770   -1.9680 C   0  0  0  0  0  0  0  0  0  0  0  0
   -2.6260   -1.1710   -2.3820 C   0  0  0  0  0  0  0  0  0  0  0  0
   -2.0890   -2.2770   -2.9440 C   0  0  0  0  0  0  0  0  0  0  0  0
   -0.6880   -2.3870   -3.4280 C   0  0  0  0  0  0  0  0  0  0  0  0
    0.1800   -2.9010   -2.3710 C   0  0  2  0  0  0  0  0  0  0  0  0
    0.3470   -2.2250   -1.1520 N   0  0  0  0  0  0  0  0  0  0  0  0
    1.5190   -3.2100   -2.9810 C   0  0  0  0  0  0  0  0  0  0  0  0
    1.6500   -3.8060   -4.0740 O   0  0  0  0  0  0  0  0  0  0  0  0
   -2.8950   -3.4020   -3.0870 C   0  0  0  0  0  0  0  0  0  0  0  0
   -4.2030   -3.3870   -2.6670 C   0  0  0  0  0  0  0  0  0  0  0  0
    2.6710   -2.8220   -2.3110 O   0  0  0  0  0  0  0  0  0  0  0  0
   -6.2610   -2.2100   -0.6730 H   0  0  0  0  0  0  0  0  0  0  0  0
   -4.4060   -0.2990   -1.5070 H   0  0  0  0  0  0  0  0  0  0  0  0
   -2.0190   -0.2960   -2.2670 H   0  0  0  0  0  0  0  0  0  0  0  0
   -0.3480   -1.4520   -3.9250 H   0  0  0  0  0  0  0  0  0  0  0  0
   -0.7120   -3.1290   -4.2550 H   0  0  0  0  0  0  0  0  0  0  0  0
   -0.2310   -3.9250   -2.0970 H   0  0  0  0  0  0  0  0  0  0  0  0
    0.7830   -1.2510   -1.2060 H   0  0  0  0  0  0  0  0  0  0  0  0
   -2.5210   -4.3160   -3.5290 H   0  0  0  0  0  0  0  0  0  0  0  0
   -4.8530   -4.2700   -2.7740 H   0  0  0  0  0  0  0  0  0  0  0  0
  1 10  1  0  0  0  0
  1 11  1  0  0  0  0
  2  3  1  0  0  0  0
  2 12  1  0  0  0  0
  2  1  1  0  0  0  0
  3 13  1  0  0  0  0
  4  2  1  0  0  0  0
  5 18  1  6  0  0  0
  5  7  1  0  0  0  0
  5  4  1  0  0  0  0
  6  5  1  0  0  0  0
  7  8  2  0  0  0  0
  9  1  1  0  0  0  0
 14  3  1  0  0  0  0
 15  3  1  0  0  0  0
 16  4  1  0  0  0  0
 17  4  1  0  0  0  0
 19  6  1  0  0  0  0
 20  6  1  0  0  0  0
 21 22  1  0  0  0  0
 21  7  1  0  0  0  0
 22 31  1  1  0  0  0
 22 23  1  0  0  0  0
 23 32  1  0  0  0  0
 23 33  1  0  0  0  0
 24 34  1  0  0  0  0
 24 23  1  0  0  0  0
 25 24  1  0  0  0  0
 25 29  1  0  0  0  0
 26 25  2  0  0  0  0
 27 28  2  0  0  0  0
 27 22  1  0  0  0  0
 30 21  1  0  0  0  0
 35 24  1  0  0  0  0
 36 29  1  0  0  0  0
 37 50  1  0  0  0  0
 38 39  1  0  0  0  0
 38 37  1  0  0  0  0
 39 51  1  0  0  0  0
 40 52  1  0  0  0  0
 40 39  2  0  0  0  0
 41 40  1  0  0  0  0
 42 41  1  0  0  0  0
 42 43  1  0  0  0  0
 43 55  1  1  0  0  0
 43 44  1  0  0  0  0
 44 27  1  0  0  0  0
 45 43  1  0  0  0  0
 45 49  1  0  0  0  0
 46 45  2  0  0  0  0
 47 41  2  0  0  0  0
 47 48  1  0  0  0  0
 48 38  2  0  0  0  0
 53 42  1  0  0  0  0
 54 42  1  0  0  0  0
 56 44  1  0  0  0  0
 57 47  1  0  0  0  0
 58 48  1  0  0  0  0
M  END
$$$$
