LFA.pdb
 OpenBabel07022418473D

 51 51  0  0  1  0  0  0  0  0999 V2000
    3.6630   -4.3830    2.7290 C   0  0  0  0  0  0  0  0  0  0  0  0
    3.3080   -2.9610    3.1530 C   0  0  0  0  0  0  0  0  0  0  0  0
    2.0390   -2.8570    3.9130 C   0  0  0  0  0  0  0  0  0  0  0  0
    3.5860   -1.9350    2.1230 C   0  0  0  0  0  0  0  0  0  0  0  0
    2.9130   -2.0850    0.7910 C   0  0  2  0  0  0  0  0  0  0  0  0
    3.3540   -0.9390   -0.0360 N   0  0  0  0  0  0  0  0  0  0  0  0
    1.4590   -2.1040    0.9240 C   0  0  0  0  0  0  0  0  0  0  0  0
    0.8390   -3.0990    1.3480 O   0  0  0  0  0  0  0  0  0  0  0  0
    3.0470   -4.7030    1.8510 H   0  0  0  0  0  0  0  0  0  0  0  0
    4.7450   -4.3770    2.4910 H   0  0  0  0  0  0  0  0  0  0  0  0
    3.3890   -5.0460    3.5600 H   0  0  0  0  0  0  0  0  0  0  0  0
    4.1290   -2.7600    3.9580 H   0  0  0  0  0  0  0  0  0  0  0  0
    1.4690   -3.8200    3.8500 H   0  0  0  0  0  0  0  0  0  0  0  0
    1.4300   -1.9600    3.7010 H   0  0  0  0  0  0  0  0  0  0  0  0
    2.2240   -2.7730    5.0380 H   0  0  0  0  0  0  0  0  0  0  0  0
    4.6830   -1.7400    1.9970 H   0  0  0  0  0  0  0  0  0  0  0  0
    3.1980   -0.9510    2.5410 H   0  0  0  0  0  0  0  0  0  0  0  0
    3.3290   -2.9800    0.2790 H   0  0  0  0  0  0  0  0  0  0  0  0
    3.3600   -0.0690    0.5090 H   0  0  0  0  0  0  0  0  0  0  0  0
    2.7140   -0.8630   -0.8830 H   0  0  0  0  0  0  0  0  0  0  0  0
    0.6330   -0.9720    0.5750 N   0  0  0  0  0  0  0  0  0  0  0  0
   -0.7930   -0.9670    0.6960 C   0  0  1  0  0  0  0  0  0  0  0  0
   -1.3060    0.1200    1.6070 C   0  0  0  0  0  0  0  0  0  0  0  0
   -0.9180    1.4810    1.1430 C   0  0  0  0  0  0  0  0  0  0  0  0
    0.2950    2.0410    1.5650 C   0  0  0  0  0  0  0  0  0  0  0  0
    0.7030    3.2950    1.1720 C   0  0  0  0  0  0  0  0  0  0  0  0
   -0.0790    4.0600    0.3350 C   0  0  0  0  0  0  0  0  0  0  0  0
   -1.2730    3.5160   -0.0840 C   0  0  0  0  0  0  0  0  0  0  0  0
   -1.6860    2.2600    0.3080 C   0  0  0  0  0  0  0  0  0  0  0  0
   -1.4280   -0.7890   -0.6260 C   0  0  0  0  0  0  0  0  0  0  0  0
   -0.6730   -0.6130   -1.6380 O   0  0  0  0  0  0  0  0  0  0  0  0
    1.1560   -0.1470    0.2220 H   0  0  0  0  0  0  0  0  0  0  0  0
   -1.1700   -1.9550    1.0970 H   0  0  0  0  0  0  0  0  0  0  0  0
   -0.9700    0.0100    2.6480 H   0  0  0  0  0  0  0  0  0  0  0  0
   -2.4200    0.0610    1.5970 H   0  0  0  0  0  0  0  0  0  0  0  0
    0.8910    1.4120    2.2260 H   0  0  0  0  0  0  0  0  0  0  0  0
    1.6500    3.6790    1.5280 H   0  0  0  0  0  0  0  0  0  0  0  0
    0.2380    5.0620    0.0160 H   0  0  0  0  0  0  0  0  0  0  0  0
   -1.9030    4.1220   -0.7530 H   0  0  0  0  0  0  0  0  0  0  0  0
   -2.6390    1.8520   -0.0360 H   0  0  0  0  0  0  0  0  0  0  0  0
   -3.8320   -2.0180   -2.6200 C   0  0  0  0  0  0  0  0  0  0  0  0
   -3.3350   -0.6220   -2.1930 C   0  0  2  0  0  0  0  0  0  0  0  0
   -2.8310   -0.8030   -0.8490 N   0  0  0  0  0  0  0  0  0  0  0  0
   -4.4300    0.3540   -2.2940 C   0  0  0  0  0  0  0  0  0  0  0  0
   -4.8820    0.9510   -1.3030 O   0  0  0  0  0  0  0  0  0  0  0  0
   -4.9740    0.6150   -3.5390 O   0  0  0  0  0  0  0  0  0  0  0  0
   -4.7280   -2.3070   -2.0490 H   0  0  0  0  0  0  0  0  0  0  0  0
   -3.0070   -2.7100   -2.3250 H   0  0  0  0  0  0  0  0  0  0  0  0
   -3.9380   -2.0740   -3.7070 H   0  0  0  0  0  0  0  0  0  0  0  0
   -2.4980   -0.4140   -2.8950 H   0  0  0  0  0  0  0  0  0  0  0  0
   -3.4440   -0.9430   -0.0420 H   0  0  0  0  0  0  0  0  0  0  0  0
  1  2  1  0  0  0  0
  1 11  1  0  0  0  0
  2  3  1  0  0  0  0
  2 12  1  0  0  0  0
  3 15  1  0  0  0  0
  4 17  1  0  0  0  0
  4  2  1  0  0  0  0
  5 18  1  6  0  0  0
  5  7  1  0  0  0  0
  5  4  1  0  0  0  0
  6 19  1  0  0  0  0
  6  5  1  0  0  0  0
  7  8  2  0  0  0  0
  9  1  1  0  0  0  0
 10  1  1  0  0  0  0
 13  3  1  0  0  0  0
 14  3  1  0  0  0  0
 16  4  1  0  0  0  0
 20  6  1  0  0  0  0
 21 22  1  0  0  0  0
 21  7  1  0  0  0  0
 22 33  1  1  0  0  0
 22 23  1  0  0  0  0
 23 34  1  0  0  0  0
 24 25  1  0  0  0  0
 24 23  1  0  0  0  0
 25 36  1  0  0  0  0
 26 37  1  0  0  0  0
 26 25  2  0  0  0  0
 27 26  1  0  0  0  0
 28 29  1  0  0  0  0
 28 27  2  0  0  0  0
 29 24  2  0  0  0  0
 30 22  1  0  0  0  0
 31 30  2  0  0  0  0
 32 21  1  0  0  0  0
 35 23  1  0  0  0  0
 38 27  1  0  0  0  0
 39 28  1  0  0  0  0
 40 29  1  0  0  0  0
 41 48  1  0  0  0  0
 41 42  1  0  0  0  0
 41 47  1  0  0  0  0
 42 50  1  6  0  0  0
 42 43  1  0  0  0  0
 43 30  1  0  0  0  0
 43 51  1  0  0  0  0
 44 42  1  0  0  0  0
 44 45  1  0  0  0  0
 46 44  2  0  0  0  0
 49 41  1  0  0  0  0
M  END
$$$$
