LFC.pdb
 OpenBabel07022418473D

 52 52  0  0  1  0  0  0  0  0999 V2000
    2.7200   -4.5840    1.1840 C   0  0  0  0  0  0  0  0  0  0  0  0
    2.5900   -3.0690    0.8250 C   0  0  0  0  0  0  0  0  0  0  0  0
    1.6100   -3.0710   -0.3440 C   0  0  0  0  0  0  0  0  0  0  0  0
    2.0630   -2.4390    2.0580 C   0  0  0  0  0  0  0  0  0  0  0  0
    1.8540   -0.9840    2.1110 C   0  0  2  0  0  0  0  0  0  0  0  0
    1.3190   -0.7220    3.4810 N   0  0  0  0  0  0  0  0  0  0  0  0
    1.0070   -0.3450    1.1130 C   0  0  0  0  0  0  0  0  0  0  0  0
    1.4300   -0.2100   -0.0620 O   0  0  0  0  0  0  0  0  0  0  0  0
    2.8440   -5.1120    0.2370 H   0  0  0  0  0  0  0  0  0  0  0  0
    3.5520   -4.6990    1.8980 H   0  0  0  0  0  0  0  0  0  0  0  0
    1.7470   -4.8230    1.6610 H   0  0  0  0  0  0  0  0  0  0  0  0
    3.5360   -2.6610    0.4730 H   0  0  0  0  0  0  0  0  0  0  0  0
    1.9950   -2.5320   -1.2300 H   0  0  0  0  0  0  0  0  0  0  0  0
    1.4360   -4.1310   -0.7180 H   0  0  0  0  0  0  0  0  0  0  0  0
    0.6020   -2.7400   -0.0470 H   0  0  0  0  0  0  0  0  0  0  0  0
    1.1070   -3.0110    2.3200 H   0  0  0  0  0  0  0  0  0  0  0  0
    2.7520   -2.7630    2.9080 H   0  0  0  0  0  0  0  0  0  0  0  0
    2.8620   -0.4730    2.1500 H   0  0  0  0  0  0  0  0  0  0  0  0
    2.0810   -1.0400    4.1250 H   0  0  0  0  0  0  0  0  0  0  0  0
    0.5430   -1.4320    3.6080 H   0  0  0  0  0  0  0  0  0  0  0  0
   -0.3000    0.1480    1.3880 N   0  0  0  0  0  0  0  0  0  0  0  0
   -1.1680    0.7910    0.4720 C   0  0  1  0  0  0  0  0  0  0  0  0
   -0.4930    1.8550   -0.4140 C   0  0  0  0  0  0  0  0  0  0  0  0
    0.0760    2.9630    0.3910 C   0  0  0  0  0  0  0  0  0  0  0  0
   -0.7640    4.0330    0.7360 C   0  0  0  0  0  0  0  0  0  0  0  0
   -0.3290    5.1130    1.4690 C   0  0  0  0  0  0  0  0  0  0  0  0
    0.9750    5.1970    1.9070 C   0  0  0  0  0  0  0  0  0  0  0  0
    1.8120    4.1570    1.5770 C   0  0  0  0  0  0  0  0  0  0  0  0
    1.3710    3.0540    0.8290 C   0  0  0  0  0  0  0  0  0  0  0  0
   -2.0730   -0.0430   -0.2990 C   0  0  0  0  0  0  0  0  0  0  0  0
   -2.8380    0.5210   -1.1410 O   0  0  0  0  0  0  0  0  0  0  0  0
   -0.6000   -0.0100    2.3990 H   0  0  0  0  0  0  0  0  0  0  0  0
   -1.8560    1.4710    1.1180 H   0  0  0  0  0  0  0  0  0  0  0  0
    0.2100    1.4020   -1.1180 H   0  0  0  0  0  0  0  0  0  0  0  0
   -1.3290    2.3160   -1.0240 H   0  0  0  0  0  0  0  0  0  0  0  0
   -1.8030    3.9690    0.3890 H   0  0  0  0  0  0  0  0  0  0  0  0
   -1.0300    5.9260    1.7120 H   0  0  0  0  0  0  0  0  0  0  0  0
    1.3100    6.0480    2.4820 H   0  0  0  0  0  0  0  0  0  0  0  0
    2.8370    4.2130    1.9150 H   0  0  0  0  0  0  0  0  0  0  0  0
    2.0770    2.2800    0.5990 H   0  0  0  0  0  0  0  0  0  0  0  0
   -2.2090   -1.4560   -0.2230 N   0  0  0  0  0  0  0  0  0  0  0  0
   -3.1300   -2.2110   -1.0210 C   0  0  1  0  0  0  0  0  0  0  0  0
   -2.5350   -3.2240   -1.9290 C   0  0  0  0  0  0  0  0  0  0  0  0
   -1.5820   -4.4990   -1.0880 S   0  0  0  0  0  0  0  0  0  0  0  0
   -4.1990   -2.8550   -0.2160 C   0  0  0  0  0  0  0  0  0  0  0  0
   -4.3080   -2.7660    1.0200 O   0  0  0  0  0  0  0  0  0  0  0  0
   -5.1390   -3.6090   -0.9050 O   0  0  0  0  0  0  0  0  0  0  0  0
   -1.5960   -1.9520    0.4590 H   0  0  0  0  0  0  0  0  0  0  0  0
   -3.6650   -1.4630   -1.6760 H   0  0  0  0  0  0  0  0  0  0  0  0
   -1.9400   -2.7940   -2.7600 H   0  0  0  0  0  0  0  0  0  0  0  0
   -3.3960   -3.7460   -2.4320 H   0  0  0  0  0  0  0  0  0  0  0  0
   -0.5100   -4.9670   -1.8630 H   0  0  0  0  0  0  0  0  0  0  0  0
  1 11  1  0  0  0  0
  1 10  1  0  0  0  0
  2  1  1  0  0  0  0
  2  4  1  0  0  0  0
  3 15  1  0  0  0  0
  3  2  1  0  0  0  0
  4  5  1  0  0  0  0
  4 16  1  0  0  0  0
  4 17  1  0  0  0  0
  5 18  1  6  0  0  0
  5  6  1  0  0  0  0
  6 20  1  0  0  0  0
  6 19  1  0  0  0  0
  7 21  1  0  0  0  0
  7  5  1  0  0  0  0
  8  7  2  0  0  0  0
  9  1  1  0  0  0  0
 12  2  1  0  0  0  0
 13  3  1  0  0  0  0
 14  3  1  0  0  0  0
 21 32  1  0  0  0  0
 22 33  1  1  0  0  0
 22 21  1  0  0  0  0
 23 24  1  0  0  0  0
 23 22  1  0  0  0  0
 24 25  2  0  0  0  0
 24 29  1  0  0  0  0
 25 26  1  0  0  0  0
 26 37  1  0  0  0  0
 26 27  2  0  0  0  0
 27 38  1  0  0  0  0
 28 27  1  0  0  0  0
 28 39  1  0  0  0  0
 29 28  2  0  0  0  0
 30 41  1  0  0  0  0
 30 22  1  0  0  0  0
 31 30  2  0  0  0  0
 34 23  1  0  0  0  0
 35 23  1  0  0  0  0
 36 25  1  0  0  0  0
 40 29  1  0  0  0  0
 41 48  1  0  0  0  0
 42 49  1  6  0  0  0
 42 41  1  0  0  0  0
 42 45  1  0  0  0  0
 43 44  1  0  0  0  0
 43 42  1  0  0  0  0
 45 46  1  0  0  0  0
 47 45  2  0  0  0  0
 50 43  1  0  0  0  0
 51 43  1  0  0  0  0
 52 44  1  0  0  0  0
M  END
$$$$
