LFD.pdb
 OpenBabel07022418473D

 54 54  0  0  1  0  0  0  0  0999 V2000
    1.6510    1.4850    3.1570 C   0  0  0  0  0  0  0  0  0  0  0  0
    2.9790    1.8710    2.5920 C   0  0  0  0  0  0  0  0  0  0  0  0
    3.3230    3.2970    3.0690 C   0  0  0  0  0  0  0  0  0  0  0  0
    3.1000    1.8040    1.1080 C   0  0  0  0  0  0  0  0  0  0  0  0
    2.9480    0.5130    0.4230 C   0  0  2  0  0  0  0  0  0  0  0  0
    3.1140    0.7960   -1.0440 N   0  0  0  0  0  0  0  0  0  0  0  0
    1.7860   -0.3160    0.6360 C   0  0  0  0  0  0  0  0  0  0  0  0
    1.6650   -1.0080    1.6830 O   0  0  0  0  0  0  0  0  0  0  0  0
    1.2770    2.3630    3.7980 H   0  0  0  0  0  0  0  0  0  0  0  0
    1.6800    0.5810    3.7910 H   0  0  0  0  0  0  0  0  0  0  0  0
    0.8760    1.4090    2.3750 H   0  0  0  0  0  0  0  0  0  0  0  0
    3.8080    1.2470    3.0310 H   0  0  0  0  0  0  0  0  0  0  0  0
    3.0690    3.9620    2.2030 H   0  0  0  0  0  0  0  0  0  0  0  0
    4.3920    3.4130    3.2580 H   0  0  0  0  0  0  0  0  0  0  0  0
    2.6680    3.5500    3.9160 H   0  0  0  0  0  0  0  0  0  0  0  0
    4.1730    2.1460    0.8920 H   0  0  0  0  0  0  0  0  0  0  0  0
    2.4900    2.6280    0.6280 H   0  0  0  0  0  0  0  0  0  0  0  0
    3.8800   -0.0930    0.6390 H   0  0  0  0  0  0  0  0  0  0  0  0
    2.9650   -0.1060   -1.5650 H   0  0  0  0  0  0  0  0  0  0  0  0
    4.1300    1.0580   -1.2130 H   0  0  0  0  0  0  0  0  0  0  0  0
    0.6950   -0.4330   -0.2840 N   0  0  0  0  0  0  0  0  0  0  0  0
   -0.4470   -1.2750   -0.0290 C   0  0  1  0  0  0  0  0  0  0  0  0
   -1.7440   -0.5320   -0.0930 C   0  0  0  0  0  0  0  0  0  0  0  0
   -1.8150    0.5880    0.9130 C   0  0  0  0  0  0  0  0  0  0  0  0
   -1.3860    1.8400    0.5580 C   0  0  0  0  0  0  0  0  0  0  0  0
   -1.4510    2.8620    1.4660 C   0  0  0  0  0  0  0  0  0  0  0  0
   -1.9430    2.6580    2.7440 C   0  0  0  0  0  0  0  0  0  0  0  0
   -2.3700    1.3920    3.0880 C   0  0  0  0  0  0  0  0  0  0  0  0
   -2.3030    0.3770    2.1770 C   0  0  0  0  0  0  0  0  0  0  0  0
   -0.4610   -2.3510   -1.0820 C   0  0  0  0  0  0  0  0  0  0  0  0
    0.4220   -2.4030   -1.9750 O   0  0  0  0  0  0  0  0  0  0  0  0
    0.7610    0.1230   -1.1590 H   0  0  0  0  0  0  0  0  0  0  0  0
   -0.3610   -1.7350    0.9830 H   0  0  0  0  0  0  0  0  0  0  0  0
   -1.9040   -0.0890   -1.0890 H   0  0  0  0  0  0  0  0  0  0  0  0
   -2.5690   -1.2210    0.1730 H   0  0  0  0  0  0  0  0  0  0  0  0
   -0.9960    2.0300   -0.4360 H   0  0  0  0  0  0  0  0  0  0  0  0
   -1.1030    3.8480    1.1560 H   0  0  0  0  0  0  0  0  0  0  0  0
   -1.9930    3.4650    3.4600 H   0  0  0  0  0  0  0  0  0  0  0  0
   -2.7610    1.2250    4.0980 H   0  0  0  0  0  0  0  0  0  0  0  0
   -2.6450   -0.6350    2.4510 H   0  0  0  0  0  0  0  0  0  0  0  0
   -1.4660   -3.3470   -1.1100 N   0  0  0  0  0  0  0  0  0  0  0  0
   -1.4680   -4.3610   -2.1120 C   0  0  1  0  0  0  0  0  0  0  0  0
   -1.3460   -5.7580   -1.5660 C   0  0  0  0  0  0  0  0  0  0  0  0
   -2.4530   -6.1070   -0.6480 C   0  0  0  0  0  0  0  0  0  0  0  0
   -3.3930   -5.3570   -0.3410 O   0  0  0  0  0  0  0  0  0  0  0  0
   -2.6800   -4.1940   -2.9550 C   0  0  0  0  0  0  0  0  0  0  0  0
   -2.9070   -4.9740   -3.9140 O   0  0  0  0  0  0  0  0  0  0  0  0
   -2.4340   -7.3780   -0.0880 O   0  0  0  0  0  0  0  0  0  0  0  0
   -3.6020   -3.1840   -2.7240 O   0  0  0  0  0  0  0  0  0  0  0  0
   -2.2220   -3.3230   -0.3650 H   0  0  0  0  0  0  0  0  0  0  0  0
   -0.6000   -4.2020   -2.7830 H   0  0  0  0  0  0  0  0  0  0  0  0
   -0.3510   -5.8600   -1.1210 H   0  0  0  0  0  0  0  0  0  0  0  0
   -1.3950   -6.4680   -2.4180 H   0  0  0  0  0  0  0  0  0  0  0  0
   -2.7970   -7.5730    0.8530 H   0  0  0  0  0  0  0  0  0  0  0  0
  1 10  1  0  0  0  0
  1  9  1  0  0  0  0
  2 12  1  0  0  0  0
  2  3  1  0  0  0  0
  2  1  1  0  0  0  0
  3 14  1  0  0  0  0
  3 15  1  0  0  0  0
  4  2  1  0  0  0  0
  5  7  1  0  0  0  0
  5 18  1  1  0  0  0
  5  4  1  0  0  0  0
  6  5  1  0  0  0  0
  7  8  2  0  0  0  0
 11  1  1  0  0  0  0
 13  3  1  0  0  0  0
 16  4  1  0  0  0  0
 17  4  1  0  0  0  0
 19  6  1  0  0  0  0
 20  6  1  0  0  0  0
 21 22  1  0  0  0  0
 21  7  1  0  0  0  0
 22 33  1  1  0  0  0
 23 22  1  0  0  0  0
 23 35  1  0  0  0  0
 23 24  1  0  0  0  0
 24 29  1  0  0  0  0
 25 24  2  0  0  0  0
 25 26  1  0  0  0  0
 26 27  2  0  0  0  0
 27 28  1  0  0  0  0
 27 38  1  0  0  0  0
 28 39  1  0  0  0  0
 29 40  1  0  0  0  0
 29 28  2  0  0  0  0
 30 22  1  0  0  0  0
 31 30  2  0  0  0  0
 32 21  1  0  0  0  0
 34 23  1  0  0  0  0
 36 25  1  0  0  0  0
 37 26  1  0  0  0  0
 41 30  1  0  0  0  0
 41 50  1  0  0  0  0
 42 51  1  6  0  0  0
 42 43  1  0  0  0  0
 42 41  1  0  0  0  0
 43 52  1  0  0  0  0
 43 44  1  0  0  0  0
 44 45  2  0  0  0  0
 44 48  1  0  0  0  0
 46 49  1  0  0  0  0
 46 42  1  0  0  0  0
 47 46  2  0  0  0  0
 48 54  1  0  0  0  0
 53 43  1  0  0  0  0
M  END
$$$$
