LFE.pdb
 OpenBabel07022418473D

 57 57  0  0  1  0  0  0  0  0999 V2000
    0.6630   -2.6940    4.6260 C   0  0  0  0  0  0  0  0  0  0  0  0
    1.2930   -2.2040    3.3120 C   0  0  0  0  0  0  0  0  0  0  0  0
    1.7350   -3.4190    2.5290 C   0  0  0  0  0  0  0  0  0  0  0  0
    2.4560   -1.3460    3.7220 C   0  0  0  0  0  0  0  0  0  0  0  0
    3.2270   -0.7670    2.5310 C   0  0  2  0  0  0  0  0  0  0  0  0
    4.2870    0.0220    3.1700 N   0  0  0  0  0  0  0  0  0  0  0  0
    2.2980    0.1060    1.7890 C   0  0  0  0  0  0  0  0  0  0  0  0
    2.3120    1.3470    2.0600 O   0  0  0  0  0  0  0  0  0  0  0  0
   -0.2950   -3.1800    4.3760 H   0  0  0  0  0  0  0  0  0  0  0  0
    0.5860   -1.8950    5.3620 H   0  0  0  0  0  0  0  0  0  0  0  0
    1.3480   -3.4800    5.0050 H   0  0  0  0  0  0  0  0  0  0  0  0
    0.5280   -1.5920    2.7870 H   0  0  0  0  0  0  0  0  0  0  0  0
    2.4100   -3.1730    1.6990 H   0  0  0  0  0  0  0  0  0  0  0  0
    2.2240   -4.1330    3.2430 H   0  0  0  0  0  0  0  0  0  0  0  0
    0.7890   -3.9130    2.1740 H   0  0  0  0  0  0  0  0  0  0  0  0
    3.1480   -1.9280    4.3730 H   0  0  0  0  0  0  0  0  0  0  0  0
    2.0560   -0.5360    4.3610 H   0  0  0  0  0  0  0  0  0  0  0  0
    3.7000   -1.5450    1.9370 H   0  0  0  0  0  0  0  0  0  0  0  0
    3.8690    0.8600    3.6580 H   0  0  0  0  0  0  0  0  0  0  0  0
    4.7080   -0.5680    3.9480 H   0  0  0  0  0  0  0  0  0  0  0  0
    1.3870   -0.3170    0.7890 N   0  0  0  0  0  0  0  0  0  0  0  0
    0.5100    0.6310    0.1050 C   0  0  1  0  0  0  0  0  0  0  0  0
    1.0670    0.8750   -1.3130 C   0  0  0  0  0  0  0  0  0  0  0  0
    0.2030    1.8310   -2.0240 C   0  0  0  0  0  0  0  0  0  0  0  0
   -0.8260    1.4340   -2.8460 C   0  0  0  0  0  0  0  0  0  0  0  0
   -1.6340    2.3660   -3.5080 C   0  0  0  0  0  0  0  0  0  0  0  0
   -1.4230    3.7200   -3.3560 C   0  0  0  0  0  0  0  0  0  0  0  0
   -0.3870    4.1010   -2.5280 C   0  0  0  0  0  0  0  0  0  0  0  0
    0.4170    3.1940   -1.8700 C   0  0  0  0  0  0  0  0  0  0  0  0
   -0.8540    0.1130    0.0220 C   0  0  0  0  0  0  0  0  0  0  0  0
   -1.8130    0.8430   -0.4050 O   0  0  0  0  0  0  0  0  0  0  0  0
    1.3730   -1.3300    0.5610 H   0  0  0  0  0  0  0  0  0  0  0  0
    0.5040    1.6130    0.6220 H   0  0  0  0  0  0  0  0  0  0  0  0
    1.0980   -0.1070   -1.8260 H   0  0  0  0  0  0  0  0  0  0  0  0
    2.0900    1.2600   -1.2740 H   0  0  0  0  0  0  0  0  0  0  0  0
   -0.9910    0.3730   -2.9680 H   0  0  0  0  0  0  0  0  0  0  0  0
   -2.4330    1.9980   -4.1450 H   0  0  0  0  0  0  0  0  0  0  0  0
   -2.0490    4.4410   -3.8680 H   0  0  0  0  0  0  0  0  0  0  0  0
   -0.2260    5.1710   -2.4140 H   0  0  0  0  0  0  0  0  0  0  0  0
    1.2220    3.5170   -1.2270 H   0  0  0  0  0  0  0  0  0  0  0  0
   -1.2630   -1.2060    0.3860 N   0  0  0  0  0  0  0  0  0  0  0  0
   -2.6250   -1.6540    0.2830 C   0  0  1  0  0  0  0  0  0  0  0  0
   -2.9010   -2.7980   -0.6220 C   0  0  0  0  0  0  0  0  0  0  0  0
   -2.6140   -2.6680   -2.0590 C   0  0  0  0  0  0  0  0  0  0  0  0
   -1.2280   -2.4730   -2.4770 C   0  0  0  0  0  0  0  0  0  0  0  0
   -0.2460   -2.5070   -1.7270 O   0  0  0  0  0  0  0  0  0  0  0  0
   -3.0830   -2.0140    1.6730 C   0  0  0  0  0  0  0  0  0  0  0  0
   -2.3310   -1.9030    2.6470 O   0  0  0  0  0  0  0  0  0  0  0  0
   -0.9570   -2.2230   -3.8510 O   0  0  0  0  0  0  0  0  0  0  0  0
   -4.3790   -2.4850    1.8900 O   0  0  0  0  0  0  0  0  0  0  0  0
   -0.5600   -1.8620    0.7570 H   0  0  0  0  0  0  0  0  0  0  0  0
   -3.2990   -0.7640    0.0160 H   0  0  0  0  0  0  0  0  0  0  0  0
   -3.9740   -3.1290   -0.4290 H   0  0  0  0  0  0  0  0  0  0  0  0
   -2.3170   -3.6990   -0.2550 H   0  0  0  0  0  0  0  0  0  0  0  0
   -3.2250   -1.8620   -2.5590 H   0  0  0  0  0  0  0  0  0  0  0  0
   -2.9660   -3.6190   -2.5760 H   0  0  0  0  0  0  0  0  0  0  0  0
   -0.0370   -2.5140   -4.2030 H   0  0  0  0  0  0  0  0  0  0  0  0
  1 11  1  0  0  0  0
  1 10  1  0  0  0  0
  2  4  1  0  0  0  0
  2  1  1  0  0  0  0
  3 14  1  0  0  0  0
  3  2  1  0  0  0  0
  4 17  1  0  0  0  0
  4 16  1  0  0  0  0
  5 18  1  6  0  0  0
  5  6  1  0  0  0  0
  5  4  1  0  0  0  0
  6 19  1  0  0  0  0
  6 20  1  0  0  0  0
  7  8  2  0  0  0  0
  7  5  1  0  0  0  0
  9  1  1  0  0  0  0
 12  2  1  0  0  0  0
 13  3  1  0  0  0  0
 15  3  1  0  0  0  0
 21  7  1  0  0  0  0
 22 33  1  1  0  0  0
 22 21  1  0  0  0  0
 23 35  1  0  0  0  0
 23 22  1  0  0  0  0
 24 29  1  0  0  0  0
 24 23  1  0  0  0  0
 25 24  2  0  0  0  0
 26 27  2  0  0  0  0
 26 25  1  0  0  0  0
 27 28  1  0  0  0  0
 28 39  1  0  0  0  0
 28 29  2  0  0  0  0
 29 40  1  0  0  0  0
 30 22  1  0  0  0  0
 30 41  1  0  0  0  0
 31 30  2  0  0  0  0
 32 21  1  0  0  0  0
 34 23  1  0  0  0  0
 36 25  1  0  0  0  0
 37 26  1  0  0  0  0
 38 27  1  0  0  0  0
 41 51  1  0  0  0  0
 42 52  1  6  0  0  0
 42 41  1  0  0  0  0
 42 47  1  0  0  0  0
 43 53  1  0  0  0  0
 43 54  1  0  0  0  0
 43 42  1  0  0  0  0
 44 43  1  0  0  0  0
 45 44  1  0  0  0  0
 45 46  2  0  0  0  0
 47 50  2  0  0  0  0
 47 48  1  0  0  0  0
 49 45  1  0  0  0  0
 55 44  1  0  0  0  0
 56 44  1  0  0  0  0
 57 49  1  0  0  0  0
M  END
$$$$
