LFF.pdb
 OpenBabel07022418473D

 61 62  0  0  1  0  0  0  0  0999 V2000
    2.7440   -0.7860    2.3520 C   0  0  0  0  0  0  0  0  0  0  0  0
    4.0110   -0.2880    1.7520 C   0  0  0  0  0  0  0  0  0  0  0  0
    4.8140   -1.5210    1.3150 C   0  0  0  0  0  0  0  0  0  0  0  0
    3.8810    0.5830    0.5540 C   0  0  0  0  0  0  0  0  0  0  0  0
    3.1090    1.8470    0.7490 C   0  0  2  0  0  0  0  0  0  0  0  0
    3.6590    2.7100    1.7520 N   0  0  0  0  0  0  0  0  0  0  0  0
    1.6600    1.5760    0.9040 C   0  0  0  0  0  0  0  0  0  0  0  0
    0.9920    1.9860    1.8920 O   0  0  0  0  0  0  0  0  0  0  0  0
    2.0170   -1.1230    1.6140 H   0  0  0  0  0  0  0  0  0  0  0  0
    2.9840   -1.7050    2.9660 H   0  0  0  0  0  0  0  0  0  0  0  0
    2.3190   -0.0790    3.1170 H   0  0  0  0  0  0  0  0  0  0  0  0
    4.6220    0.1700    2.5650 H   0  0  0  0  0  0  0  0  0  0  0  0
    5.7950   -1.2090    0.9290 H   0  0  0  0  0  0  0  0  0  0  0  0
    4.9940   -2.1170    2.2270 H   0  0  0  0  0  0  0  0  0  0  0  0
    4.2250   -2.1230    0.5930 H   0  0  0  0  0  0  0  0  0  0  0  0
    4.8930    0.7540    0.1440 H   0  0  0  0  0  0  0  0  0  0  0  0
    3.3360   -0.0120   -0.2270 H   0  0  0  0  0  0  0  0  0  0  0  0
    3.1890    2.4060   -0.2320 H   0  0  0  0  0  0  0  0  0  0  0  0
    4.3100    2.2280    2.4090 H   0  0  0  0  0  0  0  0  0  0  0  0
    2.8540    3.0520    2.3510 H   0  0  0  0  0  0  0  0  0  0  0  0
    0.9510    0.8310   -0.0750 N   0  0  0  0  0  0  0  0  0  0  0  0
   -0.4750    0.5810    0.1000 C   0  0  1  0  0  0  0  0  0  0  0  0
   -1.2610    1.3850   -0.9350 C   0  0  0  0  0  0  0  0  0  0  0  0
   -0.9890    2.8300   -0.7580 C   0  0  0  0  0  0  0  0  0  0  0  0
    0.0290    3.5140   -1.3870 C   0  0  0  0  0  0  0  0  0  0  0  0
    0.2470    4.8570   -1.1950 C   0  0  0  0  0  0  0  0  0  0  0  0
   -0.5610    5.5800   -0.3500 C   0  0  0  0  0  0  0  0  0  0  0  0
   -1.5860    4.9240    0.2930 C   0  0  0  0  0  0  0  0  0  0  0  0
   -1.7830    3.5780    0.0830 C   0  0  0  0  0  0  0  0  0  0  0  0
   -0.6840   -0.8760   -0.0970 C   0  0  0  0  0  0  0  0  0  0  0  0
    0.2430   -1.6870   -0.3800 O   0  0  0  0  0  0  0  0  0  0  0  0
    1.4290    0.4550   -0.9230 H   0  0  0  0  0  0  0  0  0  0  0  0
   -0.8340    0.9600    1.0770 H   0  0  0  0  0  0  0  0  0  0  0  0
   -2.3160    1.1200   -0.9390 H   0  0  0  0  0  0  0  0  0  0  0  0
   -0.8300    1.0910   -1.9320 H   0  0  0  0  0  0  0  0  0  0  0  0
    0.6610    2.9280   -2.0540 H   0  0  0  0  0  0  0  0  0  0  0  0
    1.0690    5.3530   -1.7180 H   0  0  0  0  0  0  0  0  0  0  0  0
   -0.3710    6.6400   -0.2120 H   0  0  0  0  0  0  0  0  0  0  0  0
   -2.2210    5.5110    0.9620 H   0  0  0  0  0  0  0  0  0  0  0  0
   -2.6060    3.1210    0.6170 H   0  0  0  0  0  0  0  0  0  0  0  0
   -1.9830   -1.4740    0.0240 N   0  0  0  0  0  0  0  0  0  0  0  0
   -2.1930   -2.9190   -0.1710 C   0  0  1  0  0  0  0  0  0  0  0  0
   -2.7930   -3.5210    1.0550 C   0  0  0  0  0  0  0  0  0  0  0  0
   -3.0680   -4.9480    1.0200 C   0  0  0  0  0  0  0  0  0  0  0  0
   -2.0640   -5.8380    1.3790 C   0  0  0  0  0  0  0  0  0  0  0  0
   -2.3010   -7.1980    1.3660 C   0  0  0  0  0  0  0  0  0  0  0  0
   -3.5170   -7.7360    1.0030 C   0  0  0  0  0  0  0  0  0  0  0  0
   -4.5140   -6.8530    0.6460 C   0  0  0  0  0  0  0  0  0  0  0  0
   -4.2870   -5.4710    0.6560 C   0  0  0  0  0  0  0  0  0  0  0  0
   -3.1430   -3.0750   -1.2950 C   0  0  0  0  0  0  0  0  0  0  0  0
   -3.5210   -4.1820   -1.7580 O   0  0  0  0  0  0  0  0  0  0  0  0
   -3.7080   -1.9580   -1.9450 O   0  0  0  0  0  0  0  0  0  0  0  0
   -2.7660   -0.8270    0.2570 H   0  0  0  0  0  0  0  0  0  0  0  0
   -1.1920   -3.3650   -0.4090 H   0  0  0  0  0  0  0  0  0  0  0  0
   -2.0510   -3.3440    1.8890 H   0  0  0  0  0  0  0  0  0  0  0  0
   -3.7080   -2.9970    1.3960 H   0  0  0  0  0  0  0  0  0  0  0  0
   -1.0910   -5.4340    1.6710 H   0  0  0  0  0  0  0  0  0  0  0  0
   -1.5240   -7.9130    1.6450 H   0  0  0  0  0  0  0  0  0  0  0  0
   -3.7070   -8.8030    0.9910 H   0  0  0  0  0  0  0  0  0  0  0  0
   -5.4980   -7.2190    0.3500 H   0  0  0  0  0  0  0  0  0  0  0  0
   -5.0660   -4.7800    0.3850 H   0  0  0  0  0  0  0  0  0  0  0  0
  1 10  1  0  0  0  0
  1 11  1  0  0  0  0
  2  1  1  0  0  0  0
  2 12  1  0  0  0  0
  3  2  1  0  0  0  0
  3 14  1  0  0  0  0
  4  5  1  0  0  0  0
  4  2  1  0  0  0  0
  5 18  1  6  0  0  0
  5  7  1  0  0  0  0
  5  6  1  0  0  0  0
  6 20  1  0  0  0  0
  6 19  1  0  0  0  0
  7  8  2  0  0  0  0
  9  1  1  0  0  0  0
 13  3  1  0  0  0  0
 15  3  1  0  0  0  0
 16  4  1  0  0  0  0
 17  4  1  0  0  0  0
 21 22  1  0  0  0  0
 21  7  1  0  0  0  0
 22 33  1  1  0  0  0
 23 24  1  0  0  0  0
 23 22  1  0  0  0  0
 24 29  1  0  0  0  0
 25 26  1  0  0  0  0
 25 24  2  0  0  0  0
 26 27  2  0  0  0  0
 27 38  1  0  0  0  0
 27 28  1  0  0  0  0
 28 39  1  0  0  0  0
 29 28  2  0  0  0  0
 29 40  1  0  0  0  0
 30 41  1  0  0  0  0
 30 22  1  0  0  0  0
 31 30  2  0  0  0  0
 32 21  1  0  0  0  0
 34 23  1  0  0  0  0
 35 23  1  0  0  0  0
 36 25  1  0  0  0  0
 37 26  1  0  0  0  0
 41 53  1  0  0  0  0
 42 54  1  6  0  0  0
 42 41  1  0  0  0  0
 42 43  1  0  0  0  0
 43 56  1  0  0  0  0
 43 55  1  0  0  0  0
 44 43  1  0  0  0  0
 44 45  1  0  0  0  0
 45 57  1  0  0  0  0
 46 45  2  0  0  0  0
 46 58  1  0  0  0  0
 47 46  1  0  0  0  0
 48 49  1  0  0  0  0
 48 47  2  0  0  0  0
 49 44  2  0  0  0  0
 50 42  1  0  0  0  0
 51 50  1  0  0  0  0
 52 50  2  0  0  0  0
 59 47  1  0  0  0  0
 60 48  1  0  0  0  0
 61 49  1  0  0  0  0
M  END
$$$$
