LFG.pdb
 OpenBabel07022418473D

 48 48  0  0  1  0  0  0  0  0999 V2000
    2.1180   -4.7700    0.6800 C   0  0  0  0  0  0  0  0  0  0  0  0
    1.5690   -3.6720    1.5980 C   0  0  0  0  0  0  0  0  0  0  0  0
    0.0900   -3.6000    1.3720 C   0  0  0  0  0  0  0  0  0  0  0  0
    2.3180   -2.4250    1.2850 C   0  0  0  0  0  0  0  0  0  0  0  0
    1.9300   -1.2250    2.0770 C   0  0  2  0  0  0  0  0  0  0  0  0
    2.1110   -1.4240    3.5090 N   0  0  0  0  0  0  0  0  0  0  0  0
    0.6230   -0.6440    1.7550 C   0  0  0  0  0  0  0  0  0  0  0  0
   -0.2590   -0.4370    2.6600 O   0  0  0  0  0  0  0  0  0  0  0  0
    1.6410   -5.7520    0.9200 H   0  0  0  0  0  0  0  0  0  0  0  0
    1.7560   -4.5080   -0.3440 H   0  0  0  0  0  0  0  0  0  0  0  0
    3.2060   -4.8120    0.6850 H   0  0  0  0  0  0  0  0  0  0  0  0
    1.8090   -4.0180    2.6280 H   0  0  0  0  0  0  0  0  0  0  0  0
   -0.3700   -3.1900    2.3190 H   0  0  0  0  0  0  0  0  0  0  0  0
   -0.1990   -3.0290    0.4910 H   0  0  0  0  0  0  0  0  0  0  0  0
   -0.3750   -4.6080    1.2570 H   0  0  0  0  0  0  0  0  0  0  0  0
    2.2280   -2.1660    0.2100 H   0  0  0  0  0  0  0  0  0  0  0  0
    3.3940   -2.6180    1.4660 H   0  0  0  0  0  0  0  0  0  0  0  0
    2.6910   -0.4270    1.8170 H   0  0  0  0  0  0  0  0  0  0  0  0
    2.1660   -0.4580    3.9290 H   0  0  0  0  0  0  0  0  0  0  0  0
    3.0970   -1.8110    3.6070 H   0  0  0  0  0  0  0  0  0  0  0  0
    0.2370   -0.2680    0.4380 N   0  0  0  0  0  0  0  0  0  0  0  0
   -1.0710    0.3050    0.1830 C   0  0  1  0  0  0  0  0  0  0  0  0
   -0.8210    1.7050   -0.3520 C   0  0  0  0  0  0  0  0  0  0  0  0
   -0.0790    2.4410    0.7020 C   0  0  0  0  0  0  0  0  0  0  0  0
    1.2960    2.3920    0.6840 C   0  0  0  0  0  0  0  0  0  0  0  0
    2.0410    3.0700    1.6570 C   0  0  0  0  0  0  0  0  0  0  0  0
    1.4070    3.7950    2.6480 C   0  0  0  0  0  0  0  0  0  0  0  0
    0.0320    3.8370    2.6560 C   0  0  0  0  0  0  0  0  0  0  0  0
   -0.7120    3.1590    1.6820 C   0  0  0  0  0  0  0  0  0  0  0  0
   -1.6950   -0.4580   -0.9240 C   0  0  0  0  0  0  0  0  0  0  0  0
   -1.1310   -1.4170   -1.5090 O   0  0  0  0  0  0  0  0  0  0  0  0
    0.9130   -0.4120   -0.3480 H   0  0  0  0  0  0  0  0  0  0  0  0
   -1.6510    0.3180    1.1160 H   0  0  0  0  0  0  0  0  0  0  0  0
   -0.2650    1.6440   -1.2980 H   0  0  0  0  0  0  0  0  0  0  0  0
   -1.8050    2.2300   -0.4820 H   0  0  0  0  0  0  0  0  0  0  0  0
    1.8030    1.8370   -0.0730 H   0  0  0  0  0  0  0  0  0  0  0  0
    3.1070    3.0510    1.6700 H   0  0  0  0  0  0  0  0  0  0  0  0
    1.9620    4.3290    3.4130 H   0  0  0  0  0  0  0  0  0  0  0  0
   -0.5030    4.3880    3.4060 H   0  0  0  0  0  0  0  0  0  0  0  0
   -1.7980    3.2070    1.7100 H   0  0  0  0  0  0  0  0  0  0  0  0
   -3.0080   -0.1340   -1.3980 N   0  0  0  0  0  0  0  0  0  0  0  0
   -3.6150   -0.8880   -2.4870 C   0  0  0  0  0  0  0  0  0  0  0  0
   -3.7460   -2.3220   -2.1360 C   0  0  0  0  0  0  0  0  0  0  0  0
   -4.2450   -3.1510   -2.9320 O   0  0  0  0  0  0  0  0  0  0  0  0
   -3.3180   -2.7870   -0.9040 O   0  0  0  0  0  0  0  0  0  0  0  0
   -3.5440    0.6380   -0.9770 H   0  0  0  0  0  0  0  0  0  0  0  0
   -2.8890   -0.7960   -3.3430 H   0  0  0  0  0  0  0  0  0  0  0  0
   -4.5800   -0.4310   -2.7850 H   0  0  0  0  0  0  0  0  0  0  0  0
  1 11  1  0  0  0  0
  1  9  1  0  0  0  0
  1  2  1  0  0  0  0
  2 12  1  0  0  0  0
  3  2  1  0  0  0  0
  3 13  1  0  0  0  0
  4 17  1  0  0  0  0
  4  2  1  0  0  0  0
  4  5  1  0  0  0  0
  5 18  1  6  0  0  0
  5  6  1  0  0  0  0
  6 20  1  0  0  0  0
  6 19  1  0  0  0  0
  7  5  1  0  0  0  0
  7  8  2  0  0  0  0
 10  1  1  0  0  0  0
 14  3  1  0  0  0  0
 15  3  1  0  0  0  0
 16  4  1  0  0  0  0
 21  7  1  0  0  0  0
 22 21  1  0  0  0  0
 22 33  1  1  0  0  0
 23 22  1  0  0  0  0
 23 24  1  0  0  0  0
 24 29  1  0  0  0  0
 25 24  2  0  0  0  0
 25 26  1  0  0  0  0
 26 37  1  0  0  0  0
 26 27  2  0  0  0  0
 27 28  1  0  0  0  0
 27 38  1  0  0  0  0
 28 39  1  0  0  0  0
 29 40  1  0  0  0  0
 29 28  2  0  0  0  0
 30 22  1  0  0  0  0
 31 30  2  0  0  0  0
 32 21  1  0  0  0  0
 34 23  1  0  0  0  0
 35 23  1  0  0  0  0
 36 25  1  0  0  0  0
 41 46  1  0  0  0  0
 41 30  1  0  0  0  0
 42 43  1  0  0  0  0
 42 41  1  0  0  0  0
 43 45  1  0  0  0  0
 44 43  2  0  0  0  0
 47 42  1  0  0  0  0
 48 42  1  0  0  0  0
M  END
$$$$
