LFH.pdb
 OpenBabel07022418473D

 58 59  0  0  1  0  0  0  0  0999 V2000
    4.2510    1.0750    5.1660 C   0  0  0  0  0  0  0  0  0  0  0  0
    4.0010    0.1690    3.9230 C   0  0  0  0  0  0  0  0  0  0  0  0
    2.9310   -0.7820    4.3360 C   0  0  0  0  0  0  0  0  0  0  0  0
    3.7160    1.0760    2.7980 C   0  0  0  0  0  0  0  0  0  0  0  0
    3.4620    0.5480    1.4480 C   0  0  2  0  0  0  0  0  0  0  0  0
    3.2230    1.7650    0.6040 N   0  0  0  0  0  0  0  0  0  0  0  0
    2.3230   -0.3410    1.2440 C   0  0  0  0  0  0  0  0  0  0  0  0
    2.3930   -1.5410    1.6060 O   0  0  0  0  0  0  0  0  0  0  0  0
    5.0340    1.7830    4.8420 H   0  0  0  0  0  0  0  0  0  0  0  0
    3.3050    1.6100    5.3200 H   0  0  0  0  0  0  0  0  0  0  0  0
    4.5570    0.4440    6.0260 H   0  0  0  0  0  0  0  0  0  0  0  0
    4.9480   -0.3930    3.8130 H   0  0  0  0  0  0  0  0  0  0  0  0
    3.2350   -1.8380    4.1150 H   0  0  0  0  0  0  0  0  0  0  0  0
    1.9110   -0.5300    4.0430 H   0  0  0  0  0  0  0  0  0  0  0  0
    2.8960   -0.7720    5.4770 H   0  0  0  0  0  0  0  0  0  0  0  0
    2.9070    1.8020    3.0970 H   0  0  0  0  0  0  0  0  0  0  0  0
    4.6200    1.7630    2.7040 H   0  0  0  0  0  0  0  0  0  0  0  0
    4.3910    0.1060    1.0230 H   0  0  0  0  0  0  0  0  0  0  0  0
    4.1310    2.3010    0.6160 H   0  0  0  0  0  0  0  0  0  0  0  0
    3.1140    1.4390   -0.3860 H   0  0  0  0  0  0  0  0  0  0  0  0
    1.0990    0.0840    0.6410 N   0  0  0  0  0  0  0  0  0  0  0  0
    0.0310   -0.8570    0.4800 C   0  0  1  0  0  0  0  0  0  0  0  0
   -1.1690   -0.4800    1.3570 C   0  0  0  0  0  0  0  0  0  0  0  0
   -1.6950    0.8450    1.0450 C   0  0  0  0  0  0  0  0  0  0  0  0
   -2.6780    1.0160    0.1040 C   0  0  0  0  0  0  0  0  0  0  0  0
   -3.1810    2.2880   -0.1920 C   0  0  0  0  0  0  0  0  0  0  0  0
   -2.6790    3.3870    0.4730 C   0  0  0  0  0  0  0  0  0  0  0  0
   -1.6960    3.2160    1.4150 C   0  0  0  0  0  0  0  0  0  0  0  0
   -1.1980    1.9470    1.7070 C   0  0  0  0  0  0  0  0  0  0  0  0
   -0.4410   -0.9940   -0.8990 C   0  0  0  0  0  0  0  0  0  0  0  0
    0.0500   -0.2610   -1.8030 O   0  0  0  0  0  0  0  0  0  0  0  0
    1.0630    1.0770    0.3500 H   0  0  0  0  0  0  0  0  0  0  0  0
    0.3410   -1.8640    0.8820 H   0  0  0  0  0  0  0  0  0  0  0  0
   -1.9140   -1.3020    1.1860 H   0  0  0  0  0  0  0  0  0  0  0  0
   -0.8530   -0.5890    2.4290 H   0  0  0  0  0  0  0  0  0  0  0  0
   -3.1170    0.2080   -0.4540 H   0  0  0  0  0  0  0  0  0  0  0  0
   -3.9490    2.4530   -0.9230 H   0  0  0  0  0  0  0  0  0  0  0  0
   -3.0650    4.3940    0.2510 H   0  0  0  0  0  0  0  0  0  0  0  0
   -1.2910    4.0770    1.9470 H   0  0  0  0  0  0  0  0  0  0  0  0
   -0.4170    1.8780    2.4650 H   0  0  0  0  0  0  0  0  0  0  0  0
   -1.4380   -1.9190   -1.3130 N   0  0  0  0  0  0  0  0  0  0  0  0
   -1.8570   -2.0020   -2.7080 C   0  0  1  0  0  0  0  0  0  0  0  0
   -1.3370   -3.2920   -3.3350 C   0  0  0  0  0  0  0  0  0  0  0  0
   -1.8630   -4.4830   -2.6140 C   0  0  0  0  0  0  0  0  0  0  0  0
   -1.5390   -5.7620   -2.9890 C   0  0  0  0  0  0  0  0  0  0  0  0
   -2.1750   -6.5830   -2.1380 N   0  0  0  0  0  0  0  0  0  0  0  0
   -2.8780   -5.8530   -1.2560 C   0  0  0  0  0  0  0  0  0  0  0  0
   -2.6710   -4.5640   -1.5680 N   0  0  0  0  0  0  0  0  0  0  0  0
   -3.3300   -2.0380   -2.7510 C   0  0  0  0  0  0  0  0  0  0  0  0
   -4.0350   -2.0220   -1.7070 O   0  0  0  0  0  0  0  0  0  0  0  0
   -4.0300   -2.0910   -3.9710 O   0  0  0  0  0  0  0  0  0  0  0  0
   -1.8520   -2.5300   -0.5770 H   0  0  0  0  0  0  0  0  0  0  0  0
   -1.3790   -1.1930   -3.2580 H   0  0  0  0  0  0  0  0  0  0  0  0
   -0.2390   -3.2690   -3.3840 H   0  0  0  0  0  0  0  0  0  0  0  0
   -1.7480   -3.3240   -4.3580 H   0  0  0  0  0  0  0  0  0  0  0  0
   -0.8890   -6.0760   -3.8170 H   0  0  0  0  0  0  0  0  0  0  0  0
   -2.1600   -7.6300   -2.1210 H   0  0  0  0  0  0  0  0  0  0  0  0
   -3.4970   -6.2530   -0.4410 H   0  0  0  0  0  0  0  0  0  0  0  0
  1 10  1  0  0  0  0
  1 11  1  0  0  0  0
  2  3  1  0  0  0  0
  2  1  1  0  0  0  0
  3 15  1  0  0  0  0
  4 16  1  0  0  0  0
  4  2  1  0  0  0  0
  5 18  1  6  0  0  0
  5  4  1  0  0  0  0
  6 19  1  0  0  0  0
  6  5  1  0  0  0  0
  7  5  1  0  0  0  0
  7  8  2  0  0  0  0
  9  1  1  0  0  0  0
 12  2  1  0  0  0  0
 13  3  1  0  0  0  0
 14  3  1  0  0  0  0
 17  4  1  0  0  0  0
 20  6  1  0  0  0  0
 21  7  1  0  0  0  0
 22 21  1  0  0  0  0
 22 33  1  1  0  0  0
 22 23  1  0  0  0  0
 23 35  1  0  0  0  0
 24 23  1  0  0  0  0
 24 29  1  0  0  0  0
 25 24  2  0  0  0  0
 26 25  1  0  0  0  0
 26 27  2  0  0  0  0
 27 28  1  0  0  0  0
 28 29  2  0  0  0  0
 28 39  1  0  0  0  0
 29 40  1  0  0  0  0
 30 22  1  0  0  0  0
 31 30  2  0  0  0  0
 32 21  1  0  0  0  0
 34 23  1  0  0  0  0
 36 25  1  0  0  0  0
 37 26  1  0  0  0  0
 38 27  1  0  0  0  0
 41 30  1  0  0  0  0
 41 52  1  0  0  0  0
 42 53  1  6  0  0  0
 42 41  1  0  0  0  0
 43 42  1  0  0  0  0
 43 44  1  0  0  0  0
 44 48  1  0  0  0  0
 45 44  2  0  0  0  0
 45 46  1  0  0  0  0
 46 57  1  0  0  0  0
 46 47  1  0  0  0  0
 47 58  1  0  0  0  0
 48 47  2  0  0  0  0
 49 42  1  0  0  0  0
 49 50  1  0  0  0  0
 51 49  2  0  0  0  0
 54 43  1  0  0  0  0
 55 43  1  0  0  0  0
 56 45  1  0  0  0  0
M  END
$$$$
