LFI.pdb
 OpenBabel07022418473D

 60 60  0  0  1  0  0  0  0  0999 V2000
    1.4270    1.8890    5.5270 C   0  0  0  0  0  0  0  0  0  0  0  0
    1.7340    1.1320    4.2680 C   0  0  0  0  0  0  0  0  0  0  0  0
    2.9660    1.7280    3.6220 C   0  0  0  0  0  0  0  0  0  0  0  0
    1.9610   -0.3380    4.5170 C   0  0  0  0  0  0  0  0  0  0  0  0
    2.2690   -1.0980    3.2610 C   0  0  2  0  0  0  0  0  0  0  0  0
    3.4530   -0.6270    2.5920 N   0  0  0  0  0  0  0  0  0  0  0  0
    1.0800   -1.1080    2.3880 C   0  0  0  0  0  0  0  0  0  0  0  0
   -0.0100   -1.4680    2.9000 O   0  0  0  0  0  0  0  0  0  0  0  0
    1.8220    2.9260    5.5060 H   0  0  0  0  0  0  0  0  0  0  0  0
    1.8940    1.4100    6.4300 H   0  0  0  0  0  0  0  0  0  0  0  0
    0.3190    1.9980    5.6840 H   0  0  0  0  0  0  0  0  0  0  0  0
    0.8980    1.1840    3.5270 H   0  0  0  0  0  0  0  0  0  0  0  0
    3.0460    2.7910    3.9800 H   0  0  0  0  0  0  0  0  0  0  0  0
    3.8540    1.2180    4.0380 H   0  0  0  0  0  0  0  0  0  0  0  0
    2.9100    1.6860    2.5150 H   0  0  0  0  0  0  0  0  0  0  0  0
    2.8460   -0.4780    5.2040 H   0  0  0  0  0  0  0  0  0  0  0  0
    1.1050   -0.7760    5.0670 H   0  0  0  0  0  0  0  0  0  0  0  0
    2.5160   -2.1500    3.5920 H   0  0  0  0  0  0  0  0  0  0  0  0
    3.5170   -1.1820    1.6870 H   0  0  0  0  0  0  0  0  0  0  0  0
    4.2820   -0.9700    3.1510 H   0  0  0  0  0  0  0  0  0  0  0  0
    1.0660   -0.7460    1.0240 N   0  0  0  0  0  0  0  0  0  0  0  0
   -0.1260   -0.7720    0.2040 C   0  0  1  0  0  0  0  0  0  0  0  0
   -0.3950    0.5470   -0.4570 C   0  0  0  0  0  0  0  0  0  0  0  0
   -0.5900    1.6550    0.5080 C   0  0  0  0  0  0  0  0  0  0  0  0
    0.4730    2.4360    0.9550 C   0  0  0  0  0  0  0  0  0  0  0  0
    0.2870    3.4680    1.8540 C   0  0  0  0  0  0  0  0  0  0  0  0
   -0.9700    3.7580    2.3400 C   0  0  0  0  0  0  0  0  0  0  0  0
   -2.0250    2.9990    1.9100 C   0  0  0  0  0  0  0  0  0  0  0  0
   -1.8390    1.9700    1.0140 C   0  0  0  0  0  0  0  0  0  0  0  0
    0.0320   -1.8670   -0.8090 C   0  0  0  0  0  0  0  0  0  0  0  0
    1.0660   -2.5840   -0.8580 O   0  0  0  0  0  0  0  0  0  0  0  0
    1.9640   -0.4450    0.5900 H   0  0  0  0  0  0  0  0  0  0  0  0
   -1.0270   -1.0580    0.7840 H   0  0  0  0  0  0  0  0  0  0  0  0
    0.5390    0.8190   -1.0330 H   0  0  0  0  0  0  0  0  0  0  0  0
   -1.1870    0.4940   -1.2130 H   0  0  0  0  0  0  0  0  0  0  0  0
    1.4640    2.2370    0.5960 H   0  0  0  0  0  0  0  0  0  0  0  0
    1.1070    4.0850    2.2100 H   0  0  0  0  0  0  0  0  0  0  0  0
   -1.1330    4.5600    3.0420 H   0  0  0  0  0  0  0  0  0  0  0  0
   -3.0080    3.2090    2.2760 H   0  0  0  0  0  0  0  0  0  0  0  0
   -2.6730    1.3700    0.6740 H   0  0  0  0  0  0  0  0  0  0  0  0
   -2.7950   -5.1260   -4.6970 C   0  0  0  0  0  0  0  0  0  0  0  0
   -2.0460   -5.3330   -3.4290 C   0  0  0  0  0  0  0  0  0  0  0  0
   -1.9530   -4.1890   -2.4990 C   0  0  2  0  0  0  0  0  0  0  0  0
   -3.3260   -3.7000   -2.0910 C   0  0  0  0  0  0  0  0  0  0  0  0
   -0.9390   -3.1570   -2.7680 C   0  0  2  0  0  0  0  0  0  0  0  0
   -1.0140   -2.1040   -1.7420 N   0  0  0  0  0  0  0  0  0  0  0  0
   -0.8730   -2.5710   -4.1110 C   0  0  0  0  0  0  0  0  0  0  0  0
   -1.0190   -1.3020   -4.2110 O   0  0  0  0  0  0  0  0  0  0  0  0
   -0.6660   -3.2250   -5.3000 O   0  0  0  0  0  0  0  0  0  0  0  0
   -3.6930   -5.8070   -4.7760 H   0  0  0  0  0  0  0  0  0  0  0  0
   -3.1550   -4.0990   -4.8840 H   0  0  0  0  0  0  0  0  0  0  0  0
   -2.1670   -5.4280   -5.5550 H   0  0  0  0  0  0  0  0  0  0  0  0
   -1.0240   -5.7310   -3.6900 H   0  0  0  0  0  0  0  0  0  0  0  0
   -2.5230   -6.2280   -2.9180 H   0  0  0  0  0  0  0  0  0  0  0  0
   -1.5760   -4.6730   -1.4930 H   0  0  0  0  0  0  0  0  0  0  0  0
   -3.6790   -2.9370   -2.7920 H   0  0  0  0  0  0  0  0  0  0  0  0
   -3.3860   -3.4090   -1.0350 H   0  0  0  0  0  0  0  0  0  0  0  0
   -4.0150   -4.5880   -2.2020 H   0  0  0  0  0  0  0  0  0  0  0  0
    0.0740   -3.6460   -2.6090 H   0  0  0  0  0  0  0  0  0  0  0  0
   -1.8680   -1.5040   -1.6940 H   0  0  0  0  0  0  0  0  0  0  0  0
  1 11  1  0  0  0  0
  1 10  1  0  0  0  0
  2  4  1  0  0  0  0
  2  1  1  0  0  0  0
  3 13  1  0  0  0  0
  3 14  1  0  0  0  0
  3  2  1  0  0  0  0
  4 17  1  0  0  0  0
  4 16  1  0  0  0  0
  5 18  1  1  0  0  0
  5  4  1  0  0  0  0
  6 20  1  0  0  0  0
  6  5  1  0  0  0  0
  7  8  2  0  0  0  0
  7  5  1  0  0  0  0
  9  1  1  0  0  0  0
 12  2  1  0  0  0  0
 15  3  1  0  0  0  0
 19  6  1  0  0  0  0
 21  7  1  0  0  0  0
 22 33  1  1  0  0  0
 22 21  1  0  0  0  0
 23 22  1  0  0  0  0
 23 24  1  0  0  0  0
 24 25  2  0  0  0  0
 24 29  1  0  0  0  0
 25 26  1  0  0  0  0
 26 37  1  0  0  0  0
 26 27  2  0  0  0  0
 27 38  1  0  0  0  0
 28 39  1  0  0  0  0
 28 27  1  0  0  0  0
 29 28  2  0  0  0  0
 30 22  1  0  0  0  0
 31 30  2  0  0  0  0
 32 21  1  0  0  0  0
 34 23  1  0  0  0  0
 35 23  1  0  0  0  0
 36 25  1  0  0  0  0
 40 29  1  0  0  0  0
 41 42  1  0  0  0  0
 42 54  1  0  0  0  0
 42 43  1  0  0  0  0
 43 44  1  0  0  0  0
 43 55  1  1  0  0  0
 44 57  1  0  0  0  0
 45 59  1  1  0  0  0
 45 43  1  0  0  0  0
 45 46  1  0  0  0  0
 46 60  1  0  0  0  0
 46 30  1  0  0  0  0
 47 45  1  0  0  0  0
 48 47  1  0  0  0  0
 49 47  2  0  0  0  0
 50 41  1  0  0  0  0
 51 41  1  0  0  0  0
 52 41  1  0  0  0  0
 53 42  1  0  0  0  0
 56 44  1  0  0  0  0
 58 44  1  0  0  0  0
M  END
$$$$
