LFL.pdb
 OpenBabel07022418473D

 60 60  0  0  1  0  0  0  0  0999 V2000
    1.2970    1.4210    5.1210 C   0  0  0  0  0  0  0  0  0  0  0  0
    1.6590    2.0850    3.8270 C   0  0  0  0  0  0  0  0  0  0  0  0
    2.0040    3.5390    4.1870 C   0  0  0  0  0  0  0  0  0  0  0  0
    2.7830    1.4320    3.1030 C   0  0  0  0  0  0  0  0  0  0  0  0
    2.5700    0.0130    2.7160 C   0  0  2  0  0  0  0  0  0  0  0  0
    3.7640   -0.4660    2.0210 N   0  0  0  0  0  0  0  0  0  0  0  0
    1.3560   -0.2530    1.9250 C   0  0  0  0  0  0  0  0  0  0  0  0
    0.2220    0.0610    2.3660 O   0  0  0  0  0  0  0  0  0  0  0  0
    2.2060    1.2060    5.7370 H   0  0  0  0  0  0  0  0  0  0  0  0
    0.6410    0.5570    5.0350 H   0  0  0  0  0  0  0  0  0  0  0  0
    0.7280    2.1830    5.7310 H   0  0  0  0  0  0  0  0  0  0  0  0
    0.7600    2.1590    3.1900 H   0  0  0  0  0  0  0  0  0  0  0  0
    2.6490    3.9890    3.4120 H   0  0  0  0  0  0  0  0  0  0  0  0
    2.4400    3.5930    5.2080 H   0  0  0  0  0  0  0  0  0  0  0  0
    1.0750    4.1440    4.2140 H   0  0  0  0  0  0  0  0  0  0  0  0
    3.6680    1.4410    3.8060 H   0  0  0  0  0  0  0  0  0  0  0  0
    3.1150    2.0710    2.2500 H   0  0  0  0  0  0  0  0  0  0  0  0
    2.4990   -0.5890    3.6590 H   0  0  0  0  0  0  0  0  0  0  0  0
    3.9490   -1.4740    2.2080 H   0  0  0  0  0  0  0  0  0  0  0  0
    4.6140    0.0460    2.3780 H   0  0  0  0  0  0  0  0  0  0  0  0
    1.3750   -0.8690    0.6410 N   0  0  0  0  0  0  0  0  0  0  0  0
    0.1800   -1.1320   -0.1380 C   0  0  1  0  0  0  0  0  0  0  0  0
    0.2480   -0.3180   -1.4160 C   0  0  0  0  0  0  0  0  0  0  0  0
    0.3270    1.1360   -1.1230 C   0  0  0  0  0  0  0  0  0  0  0  0
    1.5250    1.8040   -0.9550 C   0  0  0  0  0  0  0  0  0  0  0  0
    1.5730    3.1640   -0.6810 C   0  0  0  0  0  0  0  0  0  0  0  0
    0.4160    3.8790   -0.5710 C   0  0  0  0  0  0  0  0  0  0  0  0
   -0.7890    3.2480   -0.7310 C   0  0  0  0  0  0  0  0  0  0  0  0
   -0.8290    1.8810   -1.0060 C   0  0  0  0  0  0  0  0  0  0  0  0
    0.0360   -2.5690   -0.3940 C   0  0  0  0  0  0  0  0  0  0  0  0
    0.8790   -3.4040    0.0370 O   0  0  0  0  0  0  0  0  0  0  0  0
    2.3070   -1.1360    0.2590 H   0  0  0  0  0  0  0  0  0  0  0  0
   -0.7350   -0.7950    0.3930 H   0  0  0  0  0  0  0  0  0  0  0  0
    1.1980   -0.5800   -1.9470 H   0  0  0  0  0  0  0  0  0  0  0  0
   -0.5670   -0.5750   -2.1160 H   0  0  0  0  0  0  0  0  0  0  0  0
    2.4250    1.2110   -1.0480 H   0  0  0  0  0  0  0  0  0  0  0  0
    2.5370    3.6370   -0.5590 H   0  0  0  0  0  0  0  0  0  0  0  0
    0.4380    4.9340   -0.3590 H   0  0  0  0  0  0  0  0  0  0  0  0
   -1.6940    3.8300   -0.6410 H   0  0  0  0  0  0  0  0  0  0  0  0
   -1.7970    1.4400   -1.1220 H   0  0  0  0  0  0  0  0  0  0  0  0
   -4.0420   -3.1750   -0.6470 C   0  0  0  0  0  0  0  0  0  0  0  0
   -3.7490   -4.5940   -0.9480 C   0  0  0  0  0  0  0  0  0  0  0  0
   -4.2520   -4.8820   -2.3720 C   0  0  0  0  0  0  0  0  0  0  0  0
   -2.3960   -5.1040   -0.7100 C   0  0  0  0  0  0  0  0  0  0  0  0
   -1.2450   -4.5090   -1.4200 C   0  0  2  0  0  0  0  0  0  0  0  0
   -1.0690   -3.0850   -1.1460 N   0  0  0  0  0  0  0  0  0  0  0  0
   -1.1490   -4.8180   -2.8410 C   0  0  0  0  0  0  0  0  0  0  0  0
   -0.9380   -3.9090   -3.6630 O   0  0  0  0  0  0  0  0  0  0  0  0
   -1.2880   -6.1060   -3.2960 O   0  0  0  0  0  0  0  0  0  0  0  0
   -3.4210   -2.7300    0.1690 H   0  0  0  0  0  0  0  0  0  0  0  0
   -5.0900   -3.1210   -0.2200 H   0  0  0  0  0  0  0  0  0  0  0  0
   -4.1070   -2.5210   -1.5420 H   0  0  0  0  0  0  0  0  0  0  0  0
   -4.4440   -5.2230   -0.3100 H   0  0  0  0  0  0  0  0  0  0  0  0
   -3.6550   -4.3650   -3.1230 H   0  0  0  0  0  0  0  0  0  0  0  0
   -5.2770   -4.4210   -2.4040 H   0  0  0  0  0  0  0  0  0  0  0  0
   -4.3330   -5.9700   -2.4980 H   0  0  0  0  0  0  0  0  0  0  0  0
   -2.1690   -5.0770    0.3920 H   0  0  0  0  0  0  0  0  0  0  0  0
   -2.3940   -6.2060   -0.9460 H   0  0  0  0  0  0  0  0  0  0  0  0
   -0.3250   -4.9910   -0.9560 H   0  0  0  0  0  0  0  0  0  0  0  0
   -1.7350   -2.3820   -1.4860 H   0  0  0  0  0  0  0  0  0  0  0  0
  1 11  1  0  0  0  0
  1  9  1  0  0  0  0
  2  3  1  0  0  0  0
  2  1  1  0  0  0  0
  3 15  1  0  0  0  0
  3 14  1  0  0  0  0
  4 16  1  0  0  0  0
  4  2  1  0  0  0  0
  5  4  1  0  0  0  0
  5 18  1  1  0  0  0
  6 19  1  0  0  0  0
  6 20  1  0  0  0  0
  6  5  1  0  0  0  0
  7  8  2  0  0  0  0
  7  5  1  0  0  0  0
 10  1  1  0  0  0  0
 12  2  1  0  0  0  0
 13  3  1  0  0  0  0
 17  4  1  0  0  0  0
 21  7  1  0  0  0  0
 22 33  1  1  0  0  0
 22 21  1  0  0  0  0
 23 24  1  0  0  0  0
 23 22  1  0  0  0  0
 24 29  2  0  0  0  0
 24 25  1  0  0  0  0
 25 26  2  0  0  0  0
 26 27  1  0  0  0  0
 26 37  1  0  0  0  0
 27 38  1  0  0  0  0
 28 39  1  0  0  0  0
 28 27  2  0  0  0  0
 29 28  1  0  0  0  0
 30 22  1  0  0  0  0
 30 31  2  0  0  0  0
 32 21  1  0  0  0  0
 34 23  1  0  0  0  0
 35 23  1  0  0  0  0
 36 25  1  0  0  0  0
 40 29  1  0  0  0  0
 41 51  1  0  0  0  0
 41 50  1  0  0  0  0
 42 44  1  0  0  0  0
 42 41  1  0  0  0  0
 42 53  1  0  0  0  0
 43 42  1  0  0  0  0
 44 57  1  0  0  0  0
 45 46  1  0  0  0  0
 45 59  1  1  0  0  0
 45 44  1  0  0  0  0
 46 30  1  0  0  0  0
 47 45  1  0  0  0  0
 48 47  2  0  0  0  0
 49 47  1  0  0  0  0
 52 41  1  0  0  0  0
 54 43  1  0  0  0  0
 55 43  1  0  0  0  0
 56 43  1  0  0  0  0
 58 44  1  0  0  0  0
 60 46  1  0  0  0  0
M  END
$$$$
