LFN.pdb
 OpenBabel07022418473D

 55 55  0  0  1  0  0  0  0  0999 V2000
    0.1230    0.6020    3.8560 C   0  0  0  0  0  0  0  0  0  0  0  0
    1.3190   -0.0540    4.5200 C   0  0  0  0  0  0  0  0  0  0  0  0
    2.4730    0.8820    4.4090 C   0  0  0  0  0  0  0  0  0  0  0  0
    1.5580   -1.4360    4.0760 C   0  0  0  0  0  0  0  0  0  0  0  0
    1.8390   -1.7120    2.6610 C   0  0  2  0  0  0  0  0  0  0  0  0
    2.9900   -1.1090    2.0790 N   0  0  0  0  0  0  0  0  0  0  0  0
    0.6620   -1.5340    1.7580 C   0  0  0  0  0  0  0  0  0  0  0  0
   -0.4790   -1.8630    2.1570 O   0  0  0  0  0  0  0  0  0  0  0  0
   -0.0230    1.6210    4.2720 H   0  0  0  0  0  0  0  0  0  0  0  0
   -0.8250    0.0500    4.1040 H   0  0  0  0  0  0  0  0  0  0  0  0
    0.2520    0.7200    2.7610 H   0  0  0  0  0  0  0  0  0  0  0  0
    1.0460   -0.1140    5.6180 H   0  0  0  0  0  0  0  0  0  0  0  0
    3.4500    0.4040    4.6300 H   0  0  0  0  0  0  0  0  0  0  0  0
    2.4770    1.4700    3.4740 H   0  0  0  0  0  0  0  0  0  0  0  0
    2.3550    1.6610    5.2160 H   0  0  0  0  0  0  0  0  0  0  0  0
    2.3760   -1.9210    4.6900 H   0  0  0  0  0  0  0  0  0  0  0  0
    0.6520   -2.0490    4.3600 H   0  0  0  0  0  0  0  0  0  0  0  0
    2.0370   -2.8350    2.6030 H   0  0  0  0  0  0  0  0  0  0  0  0
    3.4210   -1.6520    1.3100 H   0  0  0  0  0  0  0  0  0  0  0  0
    2.7550   -0.1470    1.7530 H   0  0  0  0  0  0  0  0  0  0  0  0
    0.8010   -1.0000    0.4470 N   0  0  0  0  0  0  0  0  0  0  0  0
   -0.3420   -0.8380   -0.4160 C   0  0  1  0  0  0  0  0  0  0  0  0
   -0.3690    0.5230   -1.0380 C   0  0  0  0  0  0  0  0  0  0  0  0
   -0.4260    1.6460   -0.0920 C   0  0  0  0  0  0  0  0  0  0  0  0
    0.7200    2.2510    0.3710 C   0  0  0  0  0  0  0  0  0  0  0  0
    0.6500    3.3260    1.2650 C   0  0  0  0  0  0  0  0  0  0  0  0
   -0.5850    3.7790    1.6830 C   0  0  0  0  0  0  0  0  0  0  0  0
   -1.7280    3.1900    1.2320 C   0  0  0  0  0  0  0  0  0  0  0  0
   -1.6460    2.1130    0.3360 C   0  0  0  0  0  0  0  0  0  0  0  0
   -0.2200   -1.8980   -1.4880 C   0  0  0  0  0  0  0  0  0  0  0  0
    0.7590   -2.6860   -1.5090 O   0  0  0  0  0  0  0  0  0  0  0  0
    1.7500   -0.7240    0.1030 H   0  0  0  0  0  0  0  0  0  0  0  0
   -1.2830   -0.9910    0.1480 H   0  0  0  0  0  0  0  0  0  0  0  0
    0.5190    0.6720   -1.7170 H   0  0  0  0  0  0  0  0  0  0  0  0
   -1.2400    0.6050   -1.7500 H   0  0  0  0  0  0  0  0  0  0  0  0
    1.7040    1.9340    0.0750 H   0  0  0  0  0  0  0  0  0  0  0  0
    1.5170    3.8180    1.6440 H   0  0  0  0  0  0  0  0  0  0  0  0
   -0.6890    4.6170    2.3810 H   0  0  0  0  0  0  0  0  0  0  0  0
   -2.7050    3.5140    1.5330 H   0  0  0  0  0  0  0  0  0  0  0  0
   -2.5820    1.6740    0.0040 H   0  0  0  0  0  0  0  0  0  0  0  0
   -3.1380   -4.4530   -0.9890 N   0  0  0  0  0  0  0  0  0  0  0  0
   -2.1070   -4.5710   -1.9580 C   0  0  0  0  0  0  0  0  0  0  0  0
   -1.0560   -5.1690   -1.6460 O   0  0  0  0  0  0  0  0  0  0  0  0
   -2.3390   -3.9680   -3.3020 C   0  0  0  0  0  0  0  0  0  0  0  0
   -1.1650   -3.0310   -3.5560 C   0  0  2  0  0  0  0  0  0  0  0  0
   -1.2010   -2.0390   -2.4970 N   0  0  0  0  0  0  0  0  0  0  0  0
   -1.1920   -2.4810   -4.9010 C   0  0  0  0  0  0  0  0  0  0  0  0
   -1.2530   -1.2480   -5.0930 O   0  0  0  0  0  0  0  0  0  0  0  0
   -1.1510   -3.3150   -6.0010 O   0  0  0  0  0  0  0  0  0  0  0  0
   -3.0570   -4.8740   -0.0540 H   0  0  0  0  0  0  0  0  0  0  0  0
   -4.0340   -3.9250   -1.1880 H   0  0  0  0  0  0  0  0  0  0  0  0
   -3.2800   -3.4150   -3.3300 H   0  0  0  0  0  0  0  0  0  0  0  0
   -2.2580   -4.7860   -4.0490 H   0  0  0  0  0  0  0  0  0  0  0  0
   -0.2440   -3.6440   -3.4390 H   0  0  0  0  0  0  0  0  0  0  0  0
   -2.0060   -1.3670   -2.4610 H   0  0  0  0  0  0  0  0  0  0  0  0
  1 10  1  0  0  0  0
  1  9  1  0  0  0  0
  1  2  1  0  0  0  0
  2 12  1  0  0  0  0
  3  2  1  0  0  0  0
  3 13  1  0  0  0  0
  3 15  1  0  0  0  0
  4 17  1  0  0  0  0
  4  2  1  0  0  0  0
  4 16  1  0  0  0  0
  5 18  1  6  0  0  0
  5  4  1  0  0  0  0
  6  5  1  0  0  0  0
  7  8  2  0  0  0  0
  7  5  1  0  0  0  0
 11  1  1  0  0  0  0
 14  3  1  0  0  0  0
 19  6  1  0  0  0  0
 20  6  1  0  0  0  0
 21  7  1  0  0  0  0
 22 33  1  1  0  0  0
 22 21  1  0  0  0  0
 23 22  1  0  0  0  0
 23 24  1  0  0  0  0
 24 29  2  0  0  0  0
 24 25  1  0  0  0  0
 25 26  2  0  0  0  0
 26 37  1  0  0  0  0
 26 27  1  0  0  0  0
 27 38  1  0  0  0  0
 28 39  1  0  0  0  0
 28 27  2  0  0  0  0
 29 28  1  0  0  0  0
 30 22  1  0  0  0  0
 31 30  2  0  0  0  0
 32 21  1  0  0  0  0
 34 23  1  0  0  0  0
 35 23  1  0  0  0  0
 36 25  1  0  0  0  0
 40 29  1  0  0  0  0
 41 50  1  0  0  0  0
 42 43  2  0  0  0  0
 42 41  1  0  0  0  0
 44 42  1  0  0  0  0
 45 54  1  1  0  0  0
 45 44  1  0  0  0  0
 45 46  1  0  0  0  0
 46 55  1  0  0  0  0
 46 30  1  0  0  0  0
 47 45  1  0  0  0  0
 48 47  1  0  0  0  0
 49 47  2  0  0  0  0
 51 41  1  0  0  0  0
 52 44  1  0  0  0  0
 53 44  1  0  0  0  0
M  END
$$$$
