LFP.pdb
 OpenBabel07022418473D

 55 56  0  0  1  0  0  0  0  0999 V2000
    0.8280   -0.7640    5.7190 C   0  0  0  0  0  0  0  0  0  0  0  0
    1.1990   -0.5100    4.2420 C   0  0  0  0  0  0  0  0  0  0  0  0
    2.1100    0.6690    4.2340 C   0  0  0  0  0  0  0  0  0  0  0  0
    1.7470   -1.7890    3.7370 C   0  0  0  0  0  0  0  0  0  0  0  0
    2.1840   -1.8210    2.3070 C   0  0  2  0  0  0  0  0  0  0  0  0
    3.2100   -0.8930    2.0610 N   0  0  0  0  0  0  0  0  0  0  0  0
    1.0430   -1.7710    1.3620 C   0  0  0  0  0  0  0  0  0  0  0  0
    0.0250   -2.4770    1.6390 O   0  0  0  0  0  0  0  0  0  0  0  0
   -0.0430   -1.4330    5.7160 H   0  0  0  0  0  0  0  0  0  0  0  0
    1.7080   -1.1410    6.2370 H   0  0  0  0  0  0  0  0  0  0  0  0
    0.4870    0.2470    6.0890 H   0  0  0  0  0  0  0  0  0  0  0  0
    0.2320   -0.2170    3.7800 H   0  0  0  0  0  0  0  0  0  0  0  0
    1.5850    1.4600    4.8560 H   0  0  0  0  0  0  0  0  0  0  0  0
    3.0450    0.4830    4.8070 H   0  0  0  0  0  0  0  0  0  0  0  0
    2.2850    1.1340    3.2660 H   0  0  0  0  0  0  0  0  0  0  0  0
    2.6370   -2.0380    4.3900 H   0  0  0  0  0  0  0  0  0  0  0  0
    1.0020   -2.5850    3.9610 H   0  0  0  0  0  0  0  0  0  0  0  0
    2.6500   -2.8540    2.1510 H   0  0  0  0  0  0  0  0  0  0  0  0
    3.8270   -0.6380    2.8440 H   0  0  0  0  0  0  0  0  0  0  0  0
    3.0850   -0.1240    1.4260 H   0  0  0  0  0  0  0  0  0  0  0  0
    1.0040   -0.9970    0.1760 N   0  0  0  0  0  0  0  0  0  0  0  0
   -0.1980   -1.0520   -0.6560 C   0  0  1  0  0  0  0  0  0  0  0  0
   -0.6420    0.3820   -0.8320 C   0  0  0  0  0  0  0  0  0  0  0  0
   -0.9400    1.0040    0.4830 C   0  0  0  0  0  0  0  0  0  0  0  0
    0.0210    1.6920    1.2070 C   0  0  0  0  0  0  0  0  0  0  0  0
   -0.2690    2.2680    2.4200 C   0  0  0  0  0  0  0  0  0  0  0  0
   -1.5370    2.1820    2.9680 C   0  0  0  0  0  0  0  0  0  0  0  0
   -2.5020    1.5050    2.2680 C   0  0  0  0  0  0  0  0  0  0  0  0
   -2.1980    0.9250    1.0400 C   0  0  0  0  0  0  0  0  0  0  0  0
    0.1080   -1.6950   -1.9550 C   0  0  0  0  0  0  0  0  0  0  0  0
    1.3030   -2.0070   -2.1820 O   0  0  0  0  0  0  0  0  0  0  0  0
    1.8200   -0.4110   -0.0840 H   0  0  0  0  0  0  0  0  0  0  0  0
   -1.0160   -1.6100   -0.1740 H   0  0  0  0  0  0  0  0  0  0  0  0
   -1.5560    0.4430   -1.4380 H   0  0  0  0  0  0  0  0  0  0  0  0
    0.1940    0.9770   -1.2980 H   0  0  0  0  0  0  0  0  0  0  0  0
    1.0050    1.7410    0.7490 H   0  0  0  0  0  0  0  0  0  0  0  0
    0.4990    2.7990    2.9640 H   0  0  0  0  0  0  0  0  0  0  0  0
   -1.7250    2.6570    3.9400 H   0  0  0  0  0  0  0  0  0  0  0  0
   -3.4940    1.4390    2.6990 H   0  0  0  0  0  0  0  0  0  0  0  0
   -2.9580    0.4000    0.5060 H   0  0  0  0  0  0  0  0  0  0  0  0
   -0.9140   -1.9540   -2.9160 N   0  0  0  0  0  0  0  0  0  0  0  0
   -2.3170   -1.6460   -2.7240 C   0  0  0  0  0  0  0  0  0  0  0  0
   -3.0550   -2.7570   -3.4420 C   0  0  0  0  0  0  0  0  0  0  0  0
   -2.0980   -3.2250   -4.4880 C   0  0  0  0  0  0  0  0  0  0  0  0
   -0.8060   -2.5300   -4.2130 C   0  0  1  0  0  0  0  0  0  0  0  0
   -0.5060   -1.5500   -5.2740 C   0  0  0  0  0  0  0  0  0  0  0  0
   -0.4040   -1.9320   -6.4520 O   0  0  0  0  0  0  0  0  0  0  0  0
   -0.3430   -0.2260   -4.9530 O   0  0  0  0  0  0  0  0  0  0  0  0
   -2.5410   -1.6940   -1.6220 H   0  0  0  0  0  0  0  0  0  0  0  0
   -2.6380   -0.7110   -3.2010 H   0  0  0  0  0  0  0  0  0  0  0  0
   -4.0430   -2.4380   -3.8260 H   0  0  0  0  0  0  0  0  0  0  0  0
   -3.1890   -3.6050   -2.7110 H   0  0  0  0  0  0  0  0  0  0  0  0
   -1.9990   -4.3370   -4.4920 H   0  0  0  0  0  0  0  0  0  0  0  0
   -2.5050   -2.8690   -5.4690 H   0  0  0  0  0  0  0  0  0  0  0  0
    0.0050   -3.3380   -4.1960 H   0  0  0  0  0  0  0  0  0  0  0  0
  1 11  1  0  0  0  0
  1 10  1  0  0  0  0
  2  1  1  0  0  0  0
  3  2  1  0  0  0  0
  3 14  1  0  0  0  0
  3 13  1  0  0  0  0
  4 17  1  0  0  0  0
  4  2  1  0  0  0  0
  4 16  1  0  0  0  0
  5 18  1  6  0  0  0
  5  4  1  0  0  0  0
  6  5  1  0  0  0  0
  6 19  1  0  0  0  0
  7  8  2  0  0  0  0
  7  5  1  0  0  0  0
  9  1  1  0  0  0  0
 12  2  1  0  0  0  0
 15  3  1  0  0  0  0
 20  6  1  0  0  0  0
 21  7  1  0  0  0  0
 22 33  1  1  0  0  0
 22 21  1  0  0  0  0
 23 22  1  0  0  0  0
 23 24  1  0  0  0  0
 24 29  2  0  0  0  0
 24 25  1  0  0  0  0
 25 26  2  0  0  0  0
 26 37  1  0  0  0  0
 26 27  1  0  0  0  0
 27 38  1  0  0  0  0
 28 39  1  0  0  0  0
 28 27  2  0  0  0  0
 29 28  1  0  0  0  0
 30 22  1  0  0  0  0
 31 30  2  0  0  0  0
 32 21  1  0  0  0  0
 34 23  1  0  0  0  0
 35 23  1  0  0  0  0
 36 25  1  0  0  0  0
 40 29  1  0  0  0  0
 41 42  1  0  0  0  0
 41 30  1  0  0  0  0
 42 49  1  0  0  0  0
 43 42  1  0  0  0  0
 43 52  1  0  0  0  0
 44 45  1  0  0  0  0
 44 43  1  0  0  0  0
 45 55  1  1  0  0  0
 45 41  1  0  0  0  0
 46 48  1  0  0  0  0
 46 45  1  0  0  0  0
 47 46  2  0  0  0  0
 50 42  1  0  0  0  0
 51 43  1  0  0  0  0
 53 44  1  0  0  0  0
 54 44  1  0  0  0  0
M  END
$$$$
