LFQ.pdb
 OpenBabel07022418473D

 58 58  0  0  1  0  0  0  0  0999 V2000
   -0.7690   -1.5160    4.4450 C   0  0  0  0  0  0  0  0  0  0  0  0
    0.2500   -1.4260    3.3210 C   0  0  0  0  0  0  0  0  0  0  0  0
    1.1100   -2.6860    3.4410 C   0  0  0  0  0  0  0  0  0  0  0  0
    1.0730   -0.1890    3.4080 C   0  0  0  0  0  0  0  0  0  0  0  0
    2.0860   -0.0440    2.3490 C   0  0  2  0  0  0  0  0  0  0  0  0
    2.8310    1.2000    2.6030 N   0  0  0  0  0  0  0  0  0  0  0  0
    1.6250   -0.0910    0.9680 C   0  0  0  0  0  0  0  0  0  0  0  0
    2.4270   -0.4690    0.0580 O   0  0  0  0  0  0  0  0  0  0  0  0
   -1.0900   -2.5940    4.4720 H   0  0  0  0  0  0  0  0  0  0  0  0
   -1.6790   -0.9340    4.2450 H   0  0  0  0  0  0  0  0  0  0  0  0
   -0.3310   -1.2760    5.4320 H   0  0  0  0  0  0  0  0  0  0  0  0
   -0.2950   -1.4680    2.3810 H   0  0  0  0  0  0  0  0  0  0  0  0
    0.4720   -3.4900    3.8140 H   0  0  0  0  0  0  0  0  0  0  0  0
    1.9520   -2.4150    4.1090 H   0  0  0  0  0  0  0  0  0  0  0  0
    1.5150   -2.8890    2.4230 H   0  0  0  0  0  0  0  0  0  0  0  0
    0.4340    0.7260    3.5460 H   0  0  0  0  0  0  0  0  0  0  0  0
    1.6270   -0.2600    4.3990 H   0  0  0  0  0  0  0  0  0  0  0  0
    2.8330   -0.8830    2.4760 H   0  0  0  0  0  0  0  0  0  0  0  0
    3.4900    1.4010    1.8090 H   0  0  0  0  0  0  0  0  0  0  0  0
    3.4510    0.9760    3.4220 H   0  0  0  0  0  0  0  0  0  0  0  0
    0.3270    0.2650    0.5640 N   0  0  0  0  0  0  0  0  0  0  0  0
   -0.1610    0.2440   -0.7740 C   0  0  1  0  0  0  0  0  0  0  0  0
    0.6700    1.1470   -1.7040 C   0  0  0  0  0  0  0  0  0  0  0  0
    0.5540    2.5170   -1.1580 C   0  0  0  0  0  0  0  0  0  0  0  0
   -0.5320    3.2870   -1.5750 C   0  0  0  0  0  0  0  0  0  0  0  0
   -0.7150    4.5770   -1.1260 C   0  0  0  0  0  0  0  0  0  0  0  0
    0.1700    5.1620   -0.2430 C   0  0  0  0  0  0  0  0  0  0  0  0
    1.2450    4.4120    0.1740 C   0  0  0  0  0  0  0  0  0  0  0  0
    1.4340    3.1010   -0.2800 C   0  0  0  0  0  0  0  0  0  0  0  0
   -0.3880   -1.0710   -1.3820 C   0  0  0  0  0  0  0  0  0  0  0  0
   -0.8670   -1.1480   -2.5690 O   0  0  0  0  0  0  0  0  0  0  0  0
   -0.3220    0.5900    1.3480 H   0  0  0  0  0  0  0  0  0  0  0  0
   -1.1640    0.7850   -0.7710 H   0  0  0  0  0  0  0  0  0  0  0  0
    0.2050    1.1160   -2.6900 H   0  0  0  0  0  0  0  0  0  0  0  0
    1.7090    0.8000   -1.7680 H   0  0  0  0  0  0  0  0  0  0  0  0
   -1.2550    2.8620   -2.2720 H   0  0  0  0  0  0  0  0  0  0  0  0
   -1.5560    5.1850   -1.4430 H   0  0  0  0  0  0  0  0  0  0  0  0
    0.0210    6.1830    0.1100 H   0  0  0  0  0  0  0  0  0  0  0  0
    1.9450    4.8570    0.8640 H   0  0  0  0  0  0  0  0  0  0  0  0
    2.2850    2.5220    0.0470 H   0  0  0  0  0  0  0  0  0  0  0  0
   -4.2500   -3.8960    0.2610 N   0  0  0  0  0  0  0  0  0  0  0  0
   -3.1620   -4.3040   -0.5470 C   0  0  0  0  0  0  0  0  0  0  0  0
   -2.6130   -5.3980   -0.3000 O   0  0  0  0  0  0  0  0  0  0  0  0
   -2.7090   -3.4250   -1.6640 C   0  0  0  0  0  0  0  0  0  0  0  0
   -1.3860   -3.7840   -2.2260 C   0  0  0  0  0  0  0  0  0  0  0  0
   -0.2990   -3.6120   -1.1910 C   0  0  2  0  0  0  0  0  0  0  0  0
   -0.1060   -2.2720   -0.7260 N   0  0  0  0  0  0  0  0  0  0  0  0
    0.9540   -4.3080   -1.4980 C   0  0  0  0  0  0  0  0  0  0  0  0
    1.0570   -5.4660   -1.9120 O   0  0  0  0  0  0  0  0  0  0  0  0
    2.1460   -3.5850   -1.2990 O   0  0  0  0  0  0  0  0  0  0  0  0
   -4.0700   -3.3510    1.1190 H   0  0  0  0  0  0  0  0  0  0  0  0
   -5.2290   -4.1330    0.0130 H   0  0  0  0  0  0  0  0  0  0  0  0
   -2.7550   -2.3780   -1.3340 H   0  0  0  0  0  0  0  0  0  0  0  0
   -3.5210   -3.5080   -2.4510 H   0  0  0  0  0  0  0  0  0  0  0  0
   -1.1630   -3.3560   -3.2030 H   0  0  0  0  0  0  0  0  0  0  0  0
   -1.4160   -4.9050   -2.4110 H   0  0  0  0  0  0  0  0  0  0  0  0
   -0.7610   -4.1680   -0.2910 H   0  0  0  0  0  0  0  0  0  0  0  0
    0.3150   -2.1730    0.2510 H   0  0  0  0  0  0  0  0  0  0  0  0
  1  9  1  0  0  0  0
  1 11  1  0  0  0  0
  2  4  1  0  0  0  0
  2  3  1  0  0  0  0
  2  1  1  0  0  0  0
  3 13  1  0  0  0  0
  3 14  1  0  0  0  0
  4 16  1  0  0  0  0
  4 17  1  0  0  0  0
  5 18  1  1  0  0  0
  5  6  1  0  0  0  0
  5  4  1  0  0  0  0
  6 20  1  0  0  0  0
  7  5  1  0  0  0  0
  8  7  2  0  0  0  0
 10  1  1  0  0  0  0
 12  2  1  0  0  0  0
 15  3  1  0  0  0  0
 19  6  1  0  0  0  0
 21  7  1  0  0  0  0
 21 32  1  0  0  0  0
 22 33  1  1  0  0  0
 22 21  1  0  0  0  0
 23 24  1  0  0  0  0
 23 22  1  0  0  0  0
 24 29  1  0  0  0  0
 25 24  2  0  0  0  0
 25 26  1  0  0  0  0
 26 27  2  0  0  0  0
 27 38  1  0  0  0  0
 27 28  1  0  0  0  0
 28 39  1  0  0  0  0
 29 40  1  0  0  0  0
 29 28  2  0  0  0  0
 30 22  1  0  0  0  0
 30 47  1  0  0  0  0
 31 30  2  0  0  0  0
 34 23  1  0  0  0  0
 35 23  1  0  0  0  0
 36 25  1  0  0  0  0
 37 26  1  0  0  0  0
 41 51  1  0  0  0  0
 42 43  2  0  0  0  0
 42 41  1  0  0  0  0
 44 53  1  0  0  0  0
 44 42  1  0  0  0  0
 45 44  1  0  0  0  0
 45 46  1  0  0  0  0
 46 47  1  0  0  0  0
 46 57  1  1  0  0  0
 47 58  1  0  0  0  0
 48 50  1  0  0  0  0
 48 46  1  0  0  0  0
 49 48  2  0  0  0  0
 52 41  1  0  0  0  0
 54 44  1  0  0  0  0
 55 45  1  0  0  0  0
 56 45  1  0  0  0  0
M  END
$$$$
