LFS.pdb
 OpenBabel07022418473D

 52 52  0  0  1  0  0  0  0  0999 V2000
    1.3050   -4.5380    2.6750 C   0  0  0  0  0  0  0  0  0  0  0  0
    0.5490   -3.2310    2.4620 C   0  0  0  0  0  0  0  0  0  0  0  0
   -0.7880   -3.3930    3.1480 C   0  0  0  0  0  0  0  0  0  0  0  0
    1.3750   -2.1330    3.0270 C   0  0  0  0  0  0  0  0  0  0  0  0
    0.7790   -0.7690    2.9020 C   0  0  2  0  0  0  0  0  0  0  0  0
   -0.5010   -0.6410    3.5700 N   0  0  0  0  0  0  0  0  0  0  0  0
    0.7230   -0.2780    1.4990 C   0  0  0  0  0  0  0  0  0  0  0  0
    1.7520   -0.3220    0.7840 O   0  0  0  0  0  0  0  0  0  0  0  0
    0.7200   -5.4130    2.3700 H   0  0  0  0  0  0  0  0  0  0  0  0
    2.3150   -4.4930    2.2140 H   0  0  0  0  0  0  0  0  0  0  0  0
    1.4790   -4.6030    3.7850 H   0  0  0  0  0  0  0  0  0  0  0  0
    0.4340   -3.1150    1.3740 H   0  0  0  0  0  0  0  0  0  0  0  0
   -0.7600   -3.1600    4.2110 H   0  0  0  0  0  0  0  0  0  0  0  0
   -1.1800   -4.4320    3.0480 H   0  0  0  0  0  0  0  0  0  0  0  0
   -1.5670   -2.7400    2.6650 H   0  0  0  0  0  0  0  0  0  0  0  0
    2.3560   -2.1370    2.5400 H   0  0  0  0  0  0  0  0  0  0  0  0
    1.5310   -2.3290    4.1100 H   0  0  0  0  0  0  0  0  0  0  0  0
    1.4710   -0.0630    3.4390 H   0  0  0  0  0  0  0  0  0  0  0  0
   -0.3110   -0.8330    4.5910 H   0  0  0  0  0  0  0  0  0  0  0  0
   -0.7250    0.3990    3.5500 H   0  0  0  0  0  0  0  0  0  0  0  0
   -0.4620    0.2480    0.9160 N   0  0  0  0  0  0  0  0  0  0  0  0
   -0.6390    0.7520   -0.3940 C   0  0  1  0  0  0  0  0  0  0  0  0
    0.4110    1.7540   -0.8630 C   0  0  0  0  0  0  0  0  0  0  0  0
    0.4640    2.9710   -0.0280 C   0  0  0  0  0  0  0  0  0  0  0  0
   -0.3610    4.0530   -0.3160 C   0  0  0  0  0  0  0  0  0  0  0  0
   -0.2990    5.1750    0.4540 C   0  0  0  0  0  0  0  0  0  0  0  0
    0.5550    5.3000    1.5280 C   0  0  0  0  0  0  0  0  0  0  0  0
    1.3720    4.2360    1.8180 C   0  0  0  0  0  0  0  0  0  0  0  0
    1.3160    3.0760    1.0320 C   0  0  0  0  0  0  0  0  0  0  0  0
   -0.8880   -0.2150   -1.4570 C   0  0  0  0  0  0  0  0  0  0  0  0
   -1.0460    0.2200   -2.6260 O   0  0  0  0  0  0  0  0  0  0  0  0
   -1.2940    0.2370    1.5980 H   0  0  0  0  0  0  0  0  0  0  0  0
   -1.5760    1.4220   -0.3470 H   0  0  0  0  0  0  0  0  0  0  0  0
    1.3880    1.2520   -0.8100 H   0  0  0  0  0  0  0  0  0  0  0  0
    0.2550    2.0080   -1.9340 H   0  0  0  0  0  0  0  0  0  0  0  0
   -1.0270    3.9400   -1.1640 H   0  0  0  0  0  0  0  0  0  0  0  0
   -0.9380    6.0230    0.2360 H   0  0  0  0  0  0  0  0  0  0  0  0
    0.6050    6.1950    2.1440 H   0  0  0  0  0  0  0  0  0  0  0  0
    2.0490    4.3050    2.6520 H   0  0  0  0  0  0  0  0  0  0  0  0
    1.9960    2.3070    1.3380 H   0  0  0  0  0  0  0  0  0  0  0  0
   -0.4560   -4.3370   -3.6600 O   0  0  0  0  0  0  0  0  0  0  0  0
   -0.0870   -3.5310   -2.5660 C   0  0  0  0  0  0  0  0  0  0  0  0
   -1.2190   -2.5300   -2.3920 C   0  0  2  0  0  0  0  0  0  0  0  0
   -0.9680   -1.6250   -1.2850 N   0  0  0  0  0  0  0  0  0  0  0  0
   -2.4850   -3.2600   -2.1130 C   0  0  0  0  0  0  0  0  0  0  0  0
   -3.1530   -3.0500   -1.0580 O   0  0  0  0  0  0  0  0  0  0  0  0
   -2.9990   -4.2050   -2.9930 O   0  0  0  0  0  0  0  0  0  0  0  0
   -0.6810   -3.7930   -4.4500 H   0  0  0  0  0  0  0  0  0  0  0  0
    0.0740   -4.1590   -1.6930 H   0  0  0  0  0  0  0  0  0  0  0  0
    0.8160   -2.9650   -2.8990 H   0  0  0  0  0  0  0  0  0  0  0  0
   -1.3360   -2.0120   -3.3470 H   0  0  0  0  0  0  0  0  0  0  0  0
   -0.8350   -1.9720   -0.3110 H   0  0  0  0  0  0  0  0  0  0  0  0
  1 11  1  0  0  0  0
  2  1  1  0  0  0  0
  2  4  1  0  0  0  0
  2  3  1  0  0  0  0
  3 13  1  0  0  0  0
  4 17  1  0  0  0  0
  5  4  1  0  0  0  0
  5 18  1  1  0  0  0
  5  6  1  0  0  0  0
  6 19  1  0  0  0  0
  7  5  1  0  0  0  0
  8  7  2  0  0  0  0
  9  1  1  0  0  0  0
 10  1  1  0  0  0  0
 12  2  1  0  0  0  0
 14  3  1  0  0  0  0
 15  3  1  0  0  0  0
 16  4  1  0  0  0  0
 20  6  1  0  0  0  0
 21  7  1  0  0  0  0
 21 32  1  0  0  0  0
 22 33  1  1  0  0  0
 22 21  1  0  0  0  0
 23 34  1  0  0  0  0
 23 22  1  0  0  0  0
 23 24  1  0  0  0  0
 24 29  1  0  0  0  0
 25 24  2  0  0  0  0
 25 26  1  0  0  0  0
 26 27  2  0  0  0  0
 27 28  1  0  0  0  0
 27 38  1  0  0  0  0
 28 39  1  0  0  0  0
 29 40  1  0  0  0  0
 29 28  2  0  0  0  0
 30 44  1  0  0  0  0
 30 22  1  0  0  0  0
 31 30  2  0  0  0  0
 35 23  1  0  0  0  0
 36 25  1  0  0  0  0
 37 26  1  0  0  0  0
 41 42  1  0  0  0  0
 42 43  1  0  0  0  0
 42 49  1  0  0  0  0
 43 51  1  6  0  0  0
 43 45  1  0  0  0  0
 43 44  1  0  0  0  0
 44 52  1  0  0  0  0
 45 46  1  0  0  0  0
 47 45  2  0  0  0  0
 48 41  1  0  0  0  0
 50 42  1  0  0  0  0
M  END
$$$$
