LFT.pdb
 OpenBabel07022418473D

 55 55  0  0  1  0  0  0  0  0999 V2000
    1.2250   -3.4600    4.0850 C   0  0  0  0  0  0  0  0  0  0  0  0
    0.1350   -2.4500    3.7650 C   0  0  0  0  0  0  0  0  0  0  0  0
   -1.0000   -2.7440    4.7140 C   0  0  0  0  0  0  0  0  0  0  0  0
    0.7450   -1.0900    3.9290 C   0  0  0  0  0  0  0  0  0  0  0  0
   -0.1440    0.0560    3.6560 C   0  0  2  0  0  0  0  0  0  0  0  0
   -1.2780    0.0780    4.5110 N   0  0  0  0  0  0  0  0  0  0  0  0
   -0.5230    0.2490    2.2220 C   0  0  0  0  0  0  0  0  0  0  0  0
   -1.6710    0.7030    1.9980 O   0  0  0  0  0  0  0  0  0  0  0  0
    2.2130   -2.9810    4.2620 H   0  0  0  0  0  0  0  0  0  0  0  0
    1.0090   -4.0250    5.0180 H   0  0  0  0  0  0  0  0  0  0  0  0
    1.2940   -4.2370    3.2940 H   0  0  0  0  0  0  0  0  0  0  0  0
   -0.1490   -2.6020    2.7030 H   0  0  0  0  0  0  0  0  0  0  0  0
   -0.6820   -2.6670    5.7450 H   0  0  0  0  0  0  0  0  0  0  0  0
   -1.2270   -3.8450    4.5410 H   0  0  0  0  0  0  0  0  0  0  0  0
   -1.9340   -2.2280    4.5030 H   0  0  0  0  0  0  0  0  0  0  0  0
    1.1300   -0.9820    4.9890 H   0  0  0  0  0  0  0  0  0  0  0  0
    1.6540   -1.0230    3.3090 H   0  0  0  0  0  0  0  0  0  0  0  0
    0.4540    0.9930    3.9390 H   0  0  0  0  0  0  0  0  0  0  0  0
   -2.1630    0.4330    4.1720 H   0  0  0  0  0  0  0  0  0  0  0  0
   -1.0540    0.3790    5.5070 H   0  0  0  0  0  0  0  0  0  0  0  0
    0.3290   -0.0540    1.1660 N   0  0  0  0  0  0  0  0  0  0  0  0
    0.0330    0.1130   -0.2120 C   0  0  1  0  0  0  0  0  0  0  0  0
    1.1090    0.7210   -1.0490 C   0  0  0  0  0  0  0  0  0  0  0  0
    1.4520    2.0860   -0.5280 C   0  0  0  0  0  0  0  0  0  0  0  0
    2.4620    2.2840    0.3730 C   0  0  0  0  0  0  0  0  0  0  0  0
    2.6720    3.5860    0.8150 C   0  0  0  0  0  0  0  0  0  0  0  0
    1.9140    4.6500    0.3850 C   0  0  0  0  0  0  0  0  0  0  0  0
    0.8830    4.4280   -0.5350 C   0  0  0  0  0  0  0  0  0  0  0  0
    0.6790    3.1350   -0.9730 C   0  0  0  0  0  0  0  0  0  0  0  0
   -0.5950   -1.1150   -0.7830 C   0  0  0  0  0  0  0  0  0  0  0  0
   -1.0710   -2.0190   -0.0650 O   0  0  0  0  0  0  0  0  0  0  0  0
    1.3010   -0.4440    1.4220 H   0  0  0  0  0  0  0  0  0  0  0  0
   -0.8390    0.8620   -0.2880 H   0  0  0  0  0  0  0  0  0  0  0  0
    0.7080    0.8610   -2.0630 H   0  0  0  0  0  0  0  0  0  0  0  0
    2.0110    0.0870   -1.1230 H   0  0  0  0  0  0  0  0  0  0  0  0
    3.0500    1.4420    0.7060 H   0  0  0  0  0  0  0  0  0  0  0  0
    3.4670    3.7710    1.5320 H   0  0  0  0  0  0  0  0  0  0  0  0
    2.0350    5.6740    0.7040 H   0  0  0  0  0  0  0  0  0  0  0  0
    0.2540    5.2600   -0.8960 H   0  0  0  0  0  0  0  0  0  0  0  0
   -0.1290    2.9690   -1.6890 H   0  0  0  0  0  0  0  0  0  0  0  0
   -2.8430   -3.5680   -4.4380 C   0  0  0  0  0  0  0  0  0  0  0  0
   -2.1100   -2.3310   -3.9310 C   0  0  1  0  0  0  0  0  0  0  0  0
   -3.1260   -1.3770   -3.7410 O   0  0  0  0  0  0  0  0  0  0  0  0
   -1.3330   -2.5570   -2.6850 C   0  0  2  0  0  0  0  0  0  0  0  0
   -0.6980   -1.3570   -2.1770 N   0  0  0  0  0  0  0  0  0  0  0  0
   -0.2930   -3.6260   -2.8490 C   0  0  0  0  0  0  0  0  0  0  0  0
   -0.6470   -4.7510   -3.2250 O   0  0  0  0  0  0  0  0  0  0  0  0
    1.0200   -3.3460   -2.5870 O   0  0  0  0  0  0  0  0  0  0  0  0
   -3.6360   -3.2480   -5.1830 H   0  0  0  0  0  0  0  0  0  0  0  0
   -3.4200   -4.0890   -3.6480 H   0  0  0  0  0  0  0  0  0  0  0  0
   -2.1800   -4.3140   -4.9160 H   0  0  0  0  0  0  0  0  0  0  0  0
   -1.4790   -1.9290   -4.7800 H   0  0  0  0  0  0  0  0  0  0  0  0
   -3.7560   -1.4940   -4.5140 H   0  0  0  0  0  0  0  0  0  0  0  0
   -1.9910   -2.9460   -1.8900 H   0  0  0  0  0  0  0  0  0  0  0  0
   -0.3110   -0.6780   -2.8650 H   0  0  0  0  0  0  0  0  0  0  0  0
  1  9  1  0  0  0  0
  1 10  1  0  0  0  0
  2  4  1  0  0  0  0
  2  1  1  0  0  0  0
  2  3  1  0  0  0  0
  3 13  1  0  0  0  0
  4 16  1  0  0  0  0
  5  4  1  0  0  0  0
  5 18  1  1  0  0  0
  5  6  1  0  0  0  0
  6 20  1  0  0  0  0
  7  5  1  0  0  0  0
  8  7  2  0  0  0  0
 11  1  1  0  0  0  0
 12  2  1  0  0  0  0
 14  3  1  0  0  0  0
 15  3  1  0  0  0  0
 17  4  1  0  0  0  0
 19  6  1  0  0  0  0
 21 32  1  0  0  0  0
 21  7  1  0  0  0  0
 22 33  1  6  0  0  0
 22 21  1  0  0  0  0
 23 24  1  0  0  0  0
 23 22  1  0  0  0  0
 24 25  1  0  0  0  0
 25 36  1  0  0  0  0
 25 26  2  0  0  0  0
 26 37  1  0  0  0  0
 27 38  1  0  0  0  0
 27 26  1  0  0  0  0
 28 27  2  0  0  0  0
 29 28  1  0  0  0  0
 29 24  2  0  0  0  0
 30 22  1  0  0  0  0
 30 31  2  0  0  0  0
 34 23  1  0  0  0  0
 35 23  1  0  0  0  0
 39 28  1  0  0  0  0
 40 29  1  0  0  0  0
 41 42  1  0  0  0  0
 41 50  1  0  0  0  0
 42 52  1  6  0  0  0
 42 43  1  0  0  0  0
 42 44  1  0  0  0  0
 44 45  1  0  0  0  0
 44 54  1  1  0  0  0
 45 30  1  0  0  0  0
 46 44  1  0  0  0  0
 46 48  1  0  0  0  0
 47 46  2  0  0  0  0
 49 41  1  0  0  0  0
 51 41  1  0  0  0  0
 53 43  1  0  0  0  0
 55 45  1  0  0  0  0
M  END
$$$$
