LFV.pdb
 OpenBabel07022418473D

 57 57  0  0  1  0  0  0  0  0999 V2000
    1.3380   -2.1860    5.2040 C   0  0  0  0  0  0  0  0  0  0  0  0
    1.9620   -2.0940    3.8220 C   0  0  0  0  0  0  0  0  0  0  0  0
    1.1240   -2.7700    2.8000 C   0  0  0  0  0  0  0  0  0  0  0  0
    2.4010   -0.7050    3.4950 C   0  0  0  0  0  0  0  0  0  0  0  0
    1.3380    0.3280    3.4940 C   0  0  2  0  0  0  0  0  0  0  0  0
    0.6620    0.4780    4.7600 N   0  0  0  0  0  0  0  0  0  0  0  0
    0.3860    0.2360    2.3590 C   0  0  0  0  0  0  0  0  0  0  0  0
   -0.8730    0.2730    2.5560 O   0  0  0  0  0  0  0  0  0  0  0  0
    1.9720   -1.6240    5.9150 H   0  0  0  0  0  0  0  0  0  0  0  0
    0.2890   -1.8370    5.2140 H   0  0  0  0  0  0  0  0  0  0  0  0
    1.3270   -3.2400    5.5520 H   0  0  0  0  0  0  0  0  0  0  0  0
    2.9140   -2.7040    3.9080 H   0  0  0  0  0  0  0  0  0  0  0  0
    0.7280   -3.7120    3.2830 H   0  0  0  0  0  0  0  0  0  0  0  0
    1.7770   -3.1670    1.9680 H   0  0  0  0  0  0  0  0  0  0  0  0
    0.2520   -2.2310    2.4460 H   0  0  0  0  0  0  0  0  0  0  0  0
    3.1580   -0.4090    4.2610 H   0  0  0  0  0  0  0  0  0  0  0  0
    2.9330   -0.6610    2.5230 H   0  0  0  0  0  0  0  0  0  0  0  0
    1.8710    1.3170    3.3350 H   0  0  0  0  0  0  0  0  0  0  0  0
   -0.2960    0.8750    4.6650 H   0  0  0  0  0  0  0  0  0  0  0  0
    1.2310    0.8860    5.5000 H   0  0  0  0  0  0  0  0  0  0  0  0
    0.8550    0.1060    1.0360 N   0  0  0  0  0  0  0  0  0  0  0  0
   -0.1150    0.0200   -0.0420 C   0  0  1  0  0  0  0  0  0  0  0  0
    0.0050    1.2080   -0.9810 C   0  0  0  0  0  0  0  0  0  0  0  0
   -0.2300    2.4830   -0.2540 C   0  0  0  0  0  0  0  0  0  0  0  0
    0.7750    3.1960    0.3480 C   0  0  0  0  0  0  0  0  0  0  0  0
    0.5010    4.3750    1.0100 C   0  0  0  0  0  0  0  0  0  0  0  0
   -0.7820    4.8900    1.1000 C   0  0  0  0  0  0  0  0  0  0  0  0
   -1.8000    4.1790    0.4980 C   0  0  0  0  0  0  0  0  0  0  0  0
   -1.5180    3.0030   -0.1610 C   0  0  0  0  0  0  0  0  0  0  0  0
    0.0800   -1.2540   -0.7760 C   0  0  0  0  0  0  0  0  0  0  0  0
    0.9870   -2.0390   -0.4090 O   0  0  0  0  0  0  0  0  0  0  0  0
    1.8790    0.0710    0.8320 H   0  0  0  0  0  0  0  0  0  0  0  0
   -1.1580    0.0640    0.3540 H   0  0  0  0  0  0  0  0  0  0  0  0
   -0.7850    1.1400   -1.7560 H   0  0  0  0  0  0  0  0  0  0  0  0
    0.9990    1.2250   -1.4630 H   0  0  0  0  0  0  0  0  0  0  0  0
    1.7840    2.8540    0.3140 H   0  0  0  0  0  0  0  0  0  0  0  0
    1.3090    4.9340    1.4840 H   0  0  0  0  0  0  0  0  0  0  0  0
   -0.9990    5.8040    1.6130 H   0  0  0  0  0  0  0  0  0  0  0  0
   -2.8270    4.5680    0.5560 H   0  0  0  0  0  0  0  0  0  0  0  0
   -2.3240    2.4360   -0.6400 H   0  0  0  0  0  0  0  0  0  0  0  0
   -1.6660   -4.9850   -3.2070 C   0  0  0  0  0  0  0  0  0  0  0  0
   -1.7890   -3.6920   -2.4570 C   0  0  0  0  0  0  0  0  0  0  0  0
   -3.0340   -2.9460   -2.8180 C   0  0  0  0  0  0  0  0  0  0  0  0
   -0.5400   -2.8800   -2.6180 C   0  0  2  0  0  0  0  0  0  0  0  0
   -0.7030   -1.6440   -1.8800 N   0  0  0  0  0  0  0  0  0  0  0  0
   -0.1980   -2.6310   -4.0390 C   0  0  0  0  0  0  0  0  0  0  0  0
   -0.0770   -1.4690   -4.4920 O   0  0  0  0  0  0  0  0  0  0  0  0
    0.0010   -3.6860   -4.9170 O   0  0  0  0  0  0  0  0  0  0  0  0
   -0.5820   -5.2580   -3.2900 H   0  0  0  0  0  0  0  0  0  0  0  0
   -2.1190   -4.8710   -4.2190 H   0  0  0  0  0  0  0  0  0  0  0  0
   -2.1650   -5.8340   -2.7110 H   0  0  0  0  0  0  0  0  0  0  0  0
   -1.8590   -3.9590   -1.3690 H   0  0  0  0  0  0  0  0  0  0  0  0
   -3.8850   -3.6710   -2.7310 H   0  0  0  0  0  0  0  0  0  0  0  0
   -2.9750   -2.6300   -3.8910 H   0  0  0  0  0  0  0  0  0  0  0  0
   -3.2490   -2.1280   -2.1320 H   0  0  0  0  0  0  0  0  0  0  0  0
    0.3050   -3.4410   -2.1540 H   0  0  0  0  0  0  0  0  0  0  0  0
   -1.4610   -1.0000   -2.1940 H   0  0  0  0  0  0  0  0  0  0  0  0
  1 10  1  0  0  0  0
  1 11  1  0  0  0  0
  1  9  1  0  0  0  0
  2 12  1  0  0  0  0
  2  1  1  0  0  0  0
  3 13  1  0  0  0  0
  3  2  1  0  0  0  0
  4  2  1  0  0  0  0
  4 16  1  0  0  0  0
  5 18  1  6  0  0  0
  5  4  1  0  0  0  0
  5  6  1  0  0  0  0
  6 20  1  0  0  0  0
  7  8  2  0  0  0  0
  7  5  1  0  0  0  0
 14  3  1  0  0  0  0
 15  3  1  0  0  0  0
 17  4  1  0  0  0  0
 19  6  1  0  0  0  0
 21  7  1  0  0  0  0
 22 33  1  1  0  0  0
 22 21  1  0  0  0  0
 23 24  1  0  0  0  0
 23 22  1  0  0  0  0
 24 29  2  0  0  0  0
 24 25  1  0  0  0  0
 25 26  2  0  0  0  0
 26 27  1  0  0  0  0
 26 37  1  0  0  0  0
 27 38  1  0  0  0  0
 28 39  1  0  0  0  0
 28 27  2  0  0  0  0
 29 28  1  0  0  0  0
 30 31  2  0  0  0  0
 30 22  1  0  0  0  0
 32 21  1  0  0  0  0
 34 23  1  0  0  0  0
 35 23  1  0  0  0  0
 36 25  1  0  0  0  0
 40 29  1  0  0  0  0
 41 51  1  0  0  0  0
 41 42  1  0  0  0  0
 42 52  1  0  0  0  0
 43 53  1  0  0  0  0
 43 42  1  0  0  0  0
 43 55  1  0  0  0  0
 44 42  1  0  0  0  0
 44 56  1  1  0  0  0
 44 45  1  0  0  0  0
 45 30  1  0  0  0  0
 46 44  1  0  0  0  0
 47 46  1  0  0  0  0
 48 46  2  0  0  0  0
 49 41  1  0  0  0  0
 50 41  1  0  0  0  0
 54 43  1  0  0  0  0
 57 45  1  0  0  0  0
M  END
$$$$
