LFW.pdb
 OpenBabel07022418473D

 65 67  0  0  1  0  0  0  0  0999 V2000
    2.1240   -0.3660    5.0440 C   0  0  0  0  0  0  0  0  0  0  0  0
    1.3990    0.6900    4.1960 C   0  0  0  0  0  0  0  0  0  0  0  0
   -0.0130    0.7480    4.7210 C   0  0  0  0  0  0  0  0  0  0  0  0
    1.5280    0.2680    2.7740 C   0  0  0  0  0  0  0  0  0  0  0  0
    0.8840    1.1730    1.7750 C   0  0  2  0  0  0  0  0  0  0  0  0
   -0.5230    1.3410    1.9220 N   0  0  0  0  0  0  0  0  0  0  0  0
    1.1520    0.7410    0.3600 C   0  0  0  0  0  0  0  0  0  0  0  0
    2.3080    0.3800    0.0540 O   0  0  0  0  0  0  0  0  0  0  0  0
    3.1280   -0.5910    4.5950 H   0  0  0  0  0  0  0  0  0  0  0  0
    1.4850   -1.2450    5.1290 H   0  0  0  0  0  0  0  0  0  0  0  0
    2.2420    0.1080    6.0520 H   0  0  0  0  0  0  0  0  0  0  0  0
    1.9590    1.6330    4.4200 H   0  0  0  0  0  0  0  0  0  0  0  0
   -0.5580    1.6460    4.3880 H   0  0  0  0  0  0  0  0  0  0  0  0
   -0.5300   -0.2070    4.5360 H   0  0  0  0  0  0  0  0  0  0  0  0
    0.0040    0.8470    5.8520 H   0  0  0  0  0  0  0  0  0  0  0  0
    1.2010   -0.7780    2.6420 H   0  0  0  0  0  0  0  0  0  0  0  0
    2.6420    0.2940    2.5340 H   0  0  0  0  0  0  0  0  0  0  0  0
    1.4140    2.1940    1.8150 H   0  0  0  0  0  0  0  0  0  0  0  0
   -0.9470    0.5110    2.3110 H   0  0  0  0  0  0  0  0  0  0  0  0
   -0.8880    2.2620    2.1190 H   0  0  0  0  0  0  0  0  0  0  0  0
    0.1110    0.7570   -0.5930 N   0  0  0  0  0  0  0  0  0  0  0  0
    0.2110    0.4220   -1.9620 C   0  0  1  0  0  0  0  0  0  0  0  0
    1.4590    1.0440   -2.5920 C   0  0  0  0  0  0  0  0  0  0  0  0
    1.3260    2.5150   -2.4820 C   0  0  0  0  0  0  0  0  0  0  0  0
    0.5450    3.2020   -3.4310 C   0  0  0  0  0  0  0  0  0  0  0  0
    0.3910    4.5660   -3.4170 C   0  0  0  0  0  0  0  0  0  0  0  0
    1.0030    5.3440   -2.4600 C   0  0  0  0  0  0  0  0  0  0  0  0
    1.7700    4.6940   -1.5260 C   0  0  0  0  0  0  0  0  0  0  0  0
    1.9270    3.2990   -1.5400 C   0  0  0  0  0  0  0  0  0  0  0  0
   -0.0410   -0.9370   -2.3500 C   0  0  0  0  0  0  0  0  0  0  0  0
    0.1820   -1.3460   -3.5620 O   0  0  0  0  0  0  0  0  0  0  0  0
   -0.8710    1.0540   -0.2440 H   0  0  0  0  0  0  0  0  0  0  0  0
   -0.6000    1.0830   -2.5280 H   0  0  0  0  0  0  0  0  0  0  0  0
    2.3530    0.6870   -2.1170 H   0  0  0  0  0  0  0  0  0  0  0  0
    1.5070    0.7460   -3.6810 H   0  0  0  0  0  0  0  0  0  0  0  0
    0.0620    2.5870   -4.1870 H   0  0  0  0  0  0  0  0  0  0  0  0
   -0.2130    5.0810   -4.1550 H   0  0  0  0  0  0  0  0  0  0  0  0
    0.8900    6.4180   -2.4380 H   0  0  0  0  0  0  0  0  0  0  0  0
    2.2520    5.3040   -0.7720 H   0  0  0  0  0  0  0  0  0  0  0  0
    2.5600    2.8890   -0.7820 H   0  0  0  0  0  0  0  0  0  0  0  0
   -0.5530   -1.9940   -1.5160 N   0  0  0  0  0  0  0  0  0  0  0  0
   -0.7500   -3.3030   -2.0650 C   0  0  1  0  0  0  0  0  0  0  0  0
   -0.5630   -4.4950   -1.2330 C   0  0  0  0  0  0  0  0  0  0  0  0
   -1.4110   -4.7060   -0.0740 C   0  0  0  0  0  0  0  0  0  0  0  0
   -2.5470   -5.5450   -0.1020 C   0  0  0  0  0  0  0  0  0  0  0  0
   -3.1440   -5.5380    1.0950 N   0  0  0  0  0  0  0  0  0  0  0  0
   -2.4680   -4.7320    1.9410 C   0  0  0  0  0  0  0  0  0  0  0  0
   -2.6720   -4.4070    3.2700 C   0  0  0  0  0  0  0  0  0  0  0  0
   -1.8080   -3.5600    3.9100 C   0  0  0  0  0  0  0  0  0  0  0  0
   -0.7560   -3.0580    3.1960 C   0  0  0  0  0  0  0  0  0  0  0  0
   -0.5490   -3.3760    1.8770 C   0  0  0  0  0  0  0  0  0  0  0  0
   -1.4020   -4.2270    1.2030 C   0  0  0  0  0  0  0  0  0  0  0  0
   -2.1670   -3.3210   -2.6800 C   0  0  0  0  0  0  0  0  0  0  0  0
   -2.6110   -4.3470   -3.2310 O   0  0  0  0  0  0  0  0  0  0  0  0
   -2.9510   -2.1900   -2.6190 O   0  0  0  0  0  0  0  0  0  0  0  0
   -0.7720   -1.7930   -0.5300 H   0  0  0  0  0  0  0  0  0  0  0  0
   -0.1380   -3.4360   -3.0150 H   0  0  0  0  0  0  0  0  0  0  0  0
   -0.6530   -5.3880   -1.9420 H   0  0  0  0  0  0  0  0  0  0  0  0
    0.5390   -4.5420   -0.9720 H   0  0  0  0  0  0  0  0  0  0  0  0
   -2.9120   -6.1220   -0.9400 H   0  0  0  0  0  0  0  0  0  0  0  0
   -4.0130   -6.0620    1.3890 H   0  0  0  0  0  0  0  0  0  0  0  0
   -3.5040   -4.8060    3.8240 H   0  0  0  0  0  0  0  0  0  0  0  0
   -1.9540   -3.2900    4.9670 H   0  0  0  0  0  0  0  0  0  0  0  0
   -0.0750   -2.3950    3.7240 H   0  0  0  0  0  0  0  0  0  0  0  0
    0.2790   -2.9870    1.2950 H   0  0  0  0  0  0  0  0  0  0  0  0
  1 10  1  0  0  0  0
  1 11  1  0  0  0  0
  2 12  1  0  0  0  0
  2  3  1  0  0  0  0
  2  1  1  0  0  0  0
  3 15  1  0  0  0  0
  4  2  1  0  0  0  0
  5 18  1  1  0  0  0
  5  6  1  0  0  0  0
  5  4  1  0  0  0  0
  6 20  1  0  0  0  0
  6 19  1  0  0  0  0
  7  5  1  0  0  0  0
  8  7  2  0  0  0  0
  9  1  1  0  0  0  0
 13  3  1  0  0  0  0
 14  3  1  0  0  0  0
 16  4  1  0  0  0  0
 17  4  1  0  0  0  0
 21 32  1  0  0  0  0
 21  7  1  0  0  0  0
 22 33  1  6  0  0  0
 22 21  1  0  0  0  0
 23 24  1  0  0  0  0
 23 34  1  0  0  0  0
 23 22  1  0  0  0  0
 24 29  1  0  0  0  0
 25 26  1  0  0  0  0
 25 24  2  0  0  0  0
 26 27  2  0  0  0  0
 27 38  1  0  0  0  0
 27 28  1  0  0  0  0
 28 39  1  0  0  0  0
 29 28  2  0  0  0  0
 29 40  1  0  0  0  0
 30 22  1  0  0  0  0
 30 41  1  0  0  0  0
 31 30  2  0  0  0  0
 35 23  1  0  0  0  0
 36 25  1  0  0  0  0
 37 26  1  0  0  0  0
 41 56  1  0  0  0  0
 42 57  1  6  0  0  0
 42 41  1  0  0  0  0
 42 43  1  0  0  0  0
 43 59  1  0  0  0  0
 43 44  1  0  0  0  0
 44 52  1  0  0  0  0
 45 44  2  0  0  0  0
 45 46  1  0  0  0  0
 46 61  1  0  0  0  0
 46 47  1  0  0  0  0
 47 48  1  0  0  0  0
 48 62  1  0  0  0  0
 48 49  2  0  0  0  0
 49 63  1  0  0  0  0
 50 64  1  0  0  0  0
 50 49  1  0  0  0  0
 51 50  2  0  0  0  0
 52 51  1  0  0  0  0
 52 47  2  0  0  0  0
 53 55  1  0  0  0  0
 53 42  1  0  0  0  0
 54 53  2  0  0  0  0
 58 43  1  0  0  0  0
 60 45  1  0  0  0  0
 65 51  1  0  0  0  0
M  END
$$$$
