LGA.pdb
 OpenBabel07022418453D

 38 37  0  0  1  0  0  0  0  0999 V2000
   -2.3970   -2.4630    1.6620 C   0  0  0  0  0  0  0  0  0  0  0  0
   -1.4150   -3.5790    1.5340 C   0  0  0  0  0  0  0  0  0  0  0  0
   -2.1680   -4.7700    0.9270 C   0  0  0  0  0  0  0  0  0  0  0  0
   -0.2480   -3.3100    0.6450 C   0  0  0  0  0  0  0  0  0  0  0  0
    0.6110   -2.1580    1.0460 C   0  0  2  0  0  0  0  0  0  0  0  0
    1.1610   -2.3520    2.3470 N   0  0  0  0  0  0  0  0  0  0  0  0
    0.0040   -0.8380    0.9370 C   0  0  0  0  0  0  0  0  0  0  0  0
    0.0440   -0.0840    1.9450 O   0  0  0  0  0  0  0  0  0  0  0  0
   -2.1380   -1.6900    2.3910 H   0  0  0  0  0  0  0  0  0  0  0  0
   -2.6490   -2.0600    0.6480 H   0  0  0  0  0  0  0  0  0  0  0  0
   -3.3550   -2.9240    2.0460 H   0  0  0  0  0  0  0  0  0  0  0  0
   -1.1360   -3.9050    2.5560 H   0  0  0  0  0  0  0  0  0  0  0  0
   -2.4900   -4.4500   -0.0920 H   0  0  0  0  0  0  0  0  0  0  0  0
   -1.4480   -5.6210    0.7910 H   0  0  0  0  0  0  0  0  0  0  0  0
   -3.0440   -5.0450    1.5110 H   0  0  0  0  0  0  0  0  0  0  0  0
   -0.6210   -3.2460   -0.3960 H   0  0  0  0  0  0  0  0  0  0  0  0
    0.3970   -4.2230    0.6720 H   0  0  0  0  0  0  0  0  0  0  0  0
    1.4900   -2.1620    0.3320 H   0  0  0  0  0  0  0  0  0  0  0  0
    1.0320   -1.5630    3.0020 H   0  0  0  0  0  0  0  0  0  0  0  0
    1.0180   -3.2910    2.7540 H   0  0  0  0  0  0  0  0  0  0  0  0
   -0.6320   -0.3310   -0.2230 N   0  0  0  0  0  0  0  0  0  0  0  0
   -1.1800    0.9950   -0.2020 C   0  0  0  0  0  0  0  0  0  0  0  0
   -0.2270    2.0840   -0.0050 C   0  0  0  0  0  0  0  0  0  0  0  0
   -0.6550    3.2620    0.0680 O   0  0  0  0  0  0  0  0  0  0  0  0
   -0.6770   -0.9420   -1.0480 H   0  0  0  0  0  0  0  0  0  0  0  0
   -1.9950    1.0910    0.5810 H   0  0  0  0  0  0  0  0  0  0  0  0
   -1.7710    1.1250   -1.1620 H   0  0  0  0  0  0  0  0  0  0  0  0
    2.7160    2.8340    1.6600 C   0  0  0  0  0  0  0  0  0  0  0  0
    2.0400    2.9930    0.3050 C   0  0  2  0  0  0  0  0  0  0  0  0
    1.1600    1.8580    0.1050 N   0  0  0  0  0  0  0  0  0  0  0  0
    3.1150    3.0250   -0.7240 C   0  0  0  0  0  0  0  0  0  0  0  0
    3.1960    2.1520   -1.6250 O   0  0  0  0  0  0  0  0  0  0  0  0
    4.0700    4.0290   -0.7210 O   0  0  0  0  0  0  0  0  0  0  0  0
    3.7280    2.3620    1.5580 H   0  0  0  0  0  0  0  0  0  0  0  0
    2.8050    3.8010    2.1880 H   0  0  0  0  0  0  0  0  0  0  0  0
    2.1320    2.1160    2.2870 H   0  0  0  0  0  0  0  0  0  0  0  0
    1.4620    3.9170    0.3450 H   0  0  0  0  0  0  0  0  0  0  0  0
    1.5980    0.9010    0.0340 H   0  0  0  0  0  0  0  0  0  0  0  0
  1 11  1  0  0  0  0
  1  9  1  0  0  0  0
  2  1  1  0  0  0  0
  2 12  1  0  0  0  0
  3 15  1  0  0  0  0
  3  2  1  0  0  0  0
  4 17  1  0  0  0  0
  4  5  1  0  0  0  0
  4  2  1  0  0  0  0
  5 18  1  6  0  0  0
  5  6  1  0  0  0  0
  6 20  1  0  0  0  0
  6 19  1  0  0  0  0
  7  5  1  0  0  0  0
  7  8  2  0  0  0  0
 10  1  1  0  0  0  0
 13  3  1  0  0  0  0
 14  3  1  0  0  0  0
 16  4  1  0  0  0  0
 21 22  1  0  0  0  0
 21  7  1  0  0  0  0
 22 23  1  0  0  0  0
 22 26  1  0  0  0  0
 23 24  2  0  0  0  0
 23 30  1  0  0  0  0
 25 21  1  0  0  0  0
 27 22  1  0  0  0  0
 28 35  1  0  0  0  0
 28 36  1  0  0  0  0
 29 37  1  6  0  0  0
 29 28  1  0  0  0  0
 30 29  1  0  0  0  0
 31 33  1  0  0  0  0
 31 29  1  0  0  0  0
 32 31  2  0  0  0  0
 34 28  1  0  0  0  0
 38 30  1  0  0  0  0
M  END
$$$$
