LGC.pdb
 OpenBabel07022418453D

 39 38  0  0  1  0  0  0  0  0999 V2000
   -0.1430   -3.0070    3.7360 C   0  0  0  0  0  0  0  0  0  0  0  0
    0.5900   -3.3340    2.4680 C   0  0  0  0  0  0  0  0  0  0  0  0
    1.0860   -4.7570    2.4370 C   0  0  0  0  0  0  0  0  0  0  0  0
    1.6890   -2.3390    2.1850 C   0  0  0  0  0  0  0  0  0  0  0  0
    1.1260   -0.9680    2.0390 C   0  0  2  0  0  0  0  0  0  0  0  0
    0.4370   -0.5140    3.2280 N   0  0  0  0  0  0  0  0  0  0  0  0
    0.1900   -0.9310    0.8570 C   0  0  0  0  0  0  0  0  0  0  0  0
   -0.9990   -0.5460    0.9820 O   0  0  0  0  0  0  0  0  0  0  0  0
   -1.0310   -2.3390    3.5710 H   0  0  0  0  0  0  0  0  0  0  0  0
    0.5000   -2.5160    4.4890 H   0  0  0  0  0  0  0  0  0  0  0  0
   -0.5460   -3.9190    4.2350 H   0  0  0  0  0  0  0  0  0  0  0  0
   -0.1540   -3.2200    1.6310 H   0  0  0  0  0  0  0  0  0  0  0  0
    2.1280   -4.7790    2.0640 H   0  0  0  0  0  0  0  0  0  0  0  0
    1.0060   -5.2310    3.4480 H   0  0  0  0  0  0  0  0  0  0  0  0
    0.4790   -5.3810    1.7500 H   0  0  0  0  0  0  0  0  0  0  0  0
    2.3420   -2.6470    1.3610 H   0  0  0  0  0  0  0  0  0  0  0  0
    2.3510   -2.3710    3.1010 H   0  0  0  0  0  0  0  0  0  0  0  0
    1.9710   -0.2570    1.8080 H   0  0  0  0  0  0  0  0  0  0  0  0
    1.1090    0.0590    3.7760 H   0  0  0  0  0  0  0  0  0  0  0  0
   -0.3340    0.1170    2.9140 H   0  0  0  0  0  0  0  0  0  0  0  0
    0.6260   -1.3280   -0.4250 N   0  0  0  0  0  0  0  0  0  0  0  0
   -0.1770   -1.3220   -1.6230 C   0  0  0  0  0  0  0  0  0  0  0  0
   -0.5620    0.0560   -1.9480 C   0  0  0  0  0  0  0  0  0  0  0  0
   -1.3300    0.2850   -2.9470 O   0  0  0  0  0  0  0  0  0  0  0  0
    1.6330   -1.6600   -0.5100 H   0  0  0  0  0  0  0  0  0  0  0  0
    0.3850   -1.7440   -2.4920 H   0  0  0  0  0  0  0  0  0  0  0  0
   -1.1020   -1.9230   -1.4270 H   0  0  0  0  0  0  0  0  0  0  0  0
   -0.1460    1.1890   -1.2360 N   0  0  0  0  0  0  0  0  0  0  0  0
   -0.5690    2.5480   -1.6030 C   0  0  1  0  0  0  0  0  0  0  0  0
   -1.3580    3.1310   -0.4410 C   0  0  0  0  0  0  0  0  0  0  0  0
   -0.3230    3.1910    1.0450 S   0  0  0  0  0  0  0  0  0  0  0  0
    0.6090    3.4160   -1.8370 C   0  0  0  0  0  0  0  0  0  0  0  0
    1.7640    2.9840   -1.7200 O   0  0  0  0  0  0  0  0  0  0  0  0
    0.3900    4.7350   -2.1930 O   0  0  0  0  0  0  0  0  0  0  0  0
    0.4890    1.1150   -0.4380 H   0  0  0  0  0  0  0  0  0  0  0  0
   -1.2300    2.4970   -2.4790 H   0  0  0  0  0  0  0  0  0  0  0  0
   -1.7090    4.1480   -0.6580 H   0  0  0  0  0  0  0  0  0  0  0  0
   -2.2390    2.4990   -0.1950 H   0  0  0  0  0  0  0  0  0  0  0  0
    0.1390    1.9210    1.4030 H   0  0  0  0  0  0  0  0  0  0  0  0
  1 11  1  0  0  0  0
  1 10  1  0  0  0  0
  2  1  1  0  0  0  0
  3  2  1  0  0  0  0
  3 14  1  0  0  0  0
  4  2  1  0  0  0  0
  4 17  1  0  0  0  0
  5 18  1  6  0  0  0
  5  4  1  0  0  0  0
  5  6  1  0  0  0  0
  6 19  1  0  0  0  0
  7  8  2  0  0  0  0
  7  5  1  0  0  0  0
  9  1  1  0  0  0  0
 12  2  1  0  0  0  0
 13  3  1  0  0  0  0
 15  3  1  0  0  0  0
 16  4  1  0  0  0  0
 20  6  1  0  0  0  0
 21  7  1  0  0  0  0
 22 27  1  0  0  0  0
 22 21  1  0  0  0  0
 23 22  1  0  0  0  0
 23 28  1  0  0  0  0
 24 23  2  0  0  0  0
 25 21  1  0  0  0  0
 26 22  1  0  0  0  0
 28 35  1  0  0  0  0
 29 36  1  6  0  0  0
 29 28  1  0  0  0  0
 29 30  1  0  0  0  0
 30 38  1  0  0  0  0
 30 31  1  0  0  0  0
 31 39  1  0  0  0  0
 32 33  1  0  0  0  0
 32 29  1  0  0  0  0
 34 32  2  0  0  0  0
 37 30  1  0  0  0  0
M  END
$$$$
