LGE.pdb
 OpenBabel07022418453D

 44 43  0  0  1  0  0  0  0  0999 V2000
   -2.4980   -1.6410   -1.8870 C   0  0  0  0  0  0  0  0  0  0  0  0
   -1.3660   -2.6490   -1.7980 C   0  0  0  0  0  0  0  0  0  0  0  0
   -1.8950   -3.8050   -0.9700 C   0  0  0  0  0  0  0  0  0  0  0  0
   -0.2300   -2.0140   -1.0690 C   0  0  0  0  0  0  0  0  0  0  0  0
    0.9780   -2.8790   -0.8930 C   0  0  2  0  0  0  0  0  0  0  0  0
    0.5720   -4.0490   -0.1380 N   0  0  0  0  0  0  0  0  0  0  0  0
    1.9330   -2.1020   -0.0280 C   0  0  0  0  0  0  0  0  0  0  0  0
    2.2160   -2.4820    1.1340 O   0  0  0  0  0  0  0  0  0  0  0  0
   -2.4460   -1.0490   -2.8210 H   0  0  0  0  0  0  0  0  0  0  0  0
   -3.4840   -2.1370   -1.7640 H   0  0  0  0  0  0  0  0  0  0  0  0
   -2.3910   -0.9430   -1.0310 H   0  0  0  0  0  0  0  0  0  0  0  0
   -1.0430   -2.9830   -2.8060 H   0  0  0  0  0  0  0  0  0  0  0  0
   -2.9940   -3.8840   -1.1310 H   0  0  0  0  0  0  0  0  0  0  0  0
   -1.4020   -4.7530   -1.2580 H   0  0  0  0  0  0  0  0  0  0  0  0
   -1.7480   -3.6080    0.1110 H   0  0  0  0  0  0  0  0  0  0  0  0
    0.0730   -1.0490   -1.5490 H   0  0  0  0  0  0  0  0  0  0  0  0
   -0.6060   -1.7690   -0.0330 H   0  0  0  0  0  0  0  0  0  0  0  0
    1.4500   -3.1520   -1.8380 H   0  0  0  0  0  0  0  0  0  0  0  0
    0.5250   -3.8120    0.8770 H   0  0  0  0  0  0  0  0  0  0  0  0
    1.1970   -4.8680   -0.3230 H   0  0  0  0  0  0  0  0  0  0  0  0
    2.5360   -0.9090   -0.5300 N   0  0  0  0  0  0  0  0  0  0  0  0
    3.4450   -0.0940    0.2080 C   0  0  0  0  0  0  0  0  0  0  0  0
    2.8880    0.5160    1.4290 C   0  0  0  0  0  0  0  0  0  0  0  0
    3.6300    1.2230    2.1540 O   0  0  0  0  0  0  0  0  0  0  0  0
    2.2560   -0.6500   -1.5260 H   0  0  0  0  0  0  0  0  0  0  0  0
    4.3680   -0.6530    0.5180 H   0  0  0  0  0  0  0  0  0  0  0  0
    3.7670    0.7640   -0.4480 H   0  0  0  0  0  0  0  0  0  0  0  0
    1.5520    0.3790    1.8750 N   0  0  0  0  0  0  0  0  0  0  0  0
    1.0430    0.9770    3.0610 C   0  0  1  0  0  0  0  0  0  0  0  0
   -0.0760    1.9390    2.9120 C   0  0  0  0  0  0  0  0  0  0  0  0
    0.3210    3.1270    2.0340 C   0  0  0  0  0  0  0  0  0  0  0  0
   -0.8030    4.0800    1.8890 C   0  0  0  0  0  0  0  0  0  0  0  0
   -0.6010    5.1010    1.1940 O   0  0  0  0  0  0  0  0  0  0  0  0
    0.6820   -0.0830    4.0310 C   0  0  0  0  0  0  0  0  0  0  0  0
    0.8530   -1.2770    3.7230 O   0  0  0  0  0  0  0  0  0  0  0  0
   -2.0510    3.9200    2.4620 O   0  0  0  0  0  0  0  0  0  0  0  0
    0.1540    0.2080    5.2890 O   0  0  0  0  0  0  0  0  0  0  0  0
    0.8560   -0.1820    1.3200 H   0  0  0  0  0  0  0  0  0  0  0  0
    1.8960    1.5420    3.5330 H   0  0  0  0  0  0  0  0  0  0  0  0
   -0.2670    2.3650    3.9230 H   0  0  0  0  0  0  0  0  0  0  0  0
   -1.0350    1.5100    2.5970 H   0  0  0  0  0  0  0  0  0  0  0  0
    1.1510    3.7070    2.5110 H   0  0  0  0  0  0  0  0  0  0  0  0
    0.7270    2.7950    1.0520 H   0  0  0  0  0  0  0  0  0  0  0  0
   -2.8310    4.4020    1.9890 H   0  0  0  0  0  0  0  0  0  0  0  0
  1  2  1  0  0  0  0
  1 10  1  0  0  0  0
  1 11  1  0  0  0  0
  2  4  1  0  0  0  0
  2  3  1  0  0  0  0
  3 15  1  0  0  0  0
  4  5  1  0  0  0  0
  4 17  1  0  0  0  0
  5 18  1  6  0  0  0
  5  6  1  0  0  0  0
  5  7  1  0  0  0  0
  6 19  1  0  0  0  0
  7  8  2  0  0  0  0
  9  1  1  0  0  0  0
 12  2  1  0  0  0  0
 13  3  1  0  0  0  0
 14  3  1  0  0  0  0
 16  4  1  0  0  0  0
 20  6  1  0  0  0  0
 21  7  1  0  0  0  0
 21 22  1  0  0  0  0
 22 26  1  0  0  0  0
 22 23  1  0  0  0  0
 23 28  1  0  0  0  0
 23 24  2  0  0  0  0
 25 21  1  0  0  0  0
 27 22  1  0  0  0  0
 28 29  1  0  0  0  0
 29 39  1  1  0  0  0
 29 34  1  0  0  0  0
 30 29  1  0  0  0  0
 30 40  1  0  0  0  0
 31 42  1  0  0  0  0
 31 30  1  0  0  0  0
 32 31  1  0  0  0  0
 32 36  1  0  0  0  0
 33 32  2  0  0  0  0
 34 37  1  0  0  0  0
 35 34  2  0  0  0  0
 38 28  1  0  0  0  0
 41 30  1  0  0  0  0
 43 31  1  0  0  0  0
 44 36  1  0  0  0  0
M  END
$$$$
