LGF.pdb
 OpenBabel07022418453D

 48 48  0  0  1  0  0  0  0  0999 V2000
    1.8340   -4.5480    4.6710 C   0  0  0  0  0  0  0  0  0  0  0  0
    0.8540   -4.7510    3.5370 C   0  0  0  0  0  0  0  0  0  0  0  0
    0.2180   -6.1270    3.7600 C   0  0  0  0  0  0  0  0  0  0  0  0
    1.5590   -4.8290    2.2000 C   0  0  0  0  0  0  0  0  0  0  0  0
    2.3390   -3.5750    1.8850 C   0  0  2  0  0  0  0  0  0  0  0  0
    3.3650   -3.2970    2.8720 N   0  0  0  0  0  0  0  0  0  0  0  0
    1.4430   -2.4060    1.6880 C   0  0  0  0  0  0  0  0  0  0  0  0
    1.6740   -1.3690    2.3640 O   0  0  0  0  0  0  0  0  0  0  0  0
    1.3400   -4.9740    5.5830 H   0  0  0  0  0  0  0  0  0  0  0  0
    2.7650   -5.1330    4.5290 H   0  0  0  0  0  0  0  0  0  0  0  0
    2.0340   -3.4880    4.8880 H   0  0  0  0  0  0  0  0  0  0  0  0
    0.1090   -3.9530    3.5940 H   0  0  0  0  0  0  0  0  0  0  0  0
    0.0010   -6.2870    4.8290 H   0  0  0  0  0  0  0  0  0  0  0  0
   -0.7300   -6.2230    3.1570 H   0  0  0  0  0  0  0  0  0  0  0  0
    0.8750   -6.9290    3.4140 H   0  0  0  0  0  0  0  0  0  0  0  0
    0.8330   -4.9740    1.3800 H   0  0  0  0  0  0  0  0  0  0  0  0
    2.2470   -5.6960    2.2280 H   0  0  0  0  0  0  0  0  0  0  0  0
    2.8580   -3.7580    0.9220 H   0  0  0  0  0  0  0  0  0  0  0  0
    3.8580   -2.4360    2.5460 H   0  0  0  0  0  0  0  0  0  0  0  0
    4.0730   -4.0700    2.7980 H   0  0  0  0  0  0  0  0  0  0  0  0
    0.3620   -2.4130    0.7850 N   0  0  0  0  0  0  0  0  0  0  0  0
   -0.5220   -1.2980    0.5710 C   0  0  0  0  0  0  0  0  0  0  0  0
    0.2580   -0.1040    0.0850 C   0  0  0  0  0  0  0  0  0  0  0  0
    1.5040   -0.1520   -0.0870 O   0  0  0  0  0  0  0  0  0  0  0  0
    0.1990   -3.2890    0.2390 H   0  0  0  0  0  0  0  0  0  0  0  0
   -1.2380   -1.5240   -0.2370 H   0  0  0  0  0  0  0  0  0  0  0  0
   -1.0710   -1.0530    1.5020 H   0  0  0  0  0  0  0  0  0  0  0  0
   -0.4040    1.1180   -0.1940 N   0  0  0  0  0  0  0  0  0  0  0  0
    0.3370    2.2910   -0.6680 C   0  0  1  0  0  0  0  0  0  0  0  0
   -0.0940    2.6530   -2.0660 C   0  0  0  0  0  0  0  0  0  0  0  0
   -1.5130    2.9770   -2.1930 C   0  0  0  0  0  0  0  0  0  0  0  0
   -2.4460    2.0130   -2.4700 C   0  0  0  0  0  0  0  0  0  0  0  0
   -3.7810    2.3670   -2.5820 C   0  0  0  0  0  0  0  0  0  0  0  0
   -4.1880    3.6700   -2.4200 C   0  0  0  0  0  0  0  0  0  0  0  0
   -3.2710    4.6480   -2.1430 C   0  0  0  0  0  0  0  0  0  0  0  0
   -1.9280    4.2790   -2.0320 C   0  0  0  0  0  0  0  0  0  0  0  0
    0.1520    3.4240    0.2510 C   0  0  0  0  0  0  0  0  0  0  0  0
   -0.5700    3.2890    1.2750 O   0  0  0  0  0  0  0  0  0  0  0  0
    0.7690    4.6250   -0.0130 O   0  0  0  0  0  0  0  0  0  0  0  0
   -1.4300    1.1440   -0.0480 H   0  0  0  0  0  0  0  0  0  0  0  0
    1.4170    1.9940   -0.7420 H   0  0  0  0  0  0  0  0  0  0  0  0
    0.1370    1.8290   -2.7670 H   0  0  0  0  0  0  0  0  0  0  0  0
    0.5680    3.5040   -2.3840 H   0  0  0  0  0  0  0  0  0  0  0  0
   -2.1800    0.9570   -2.6100 H   0  0  0  0  0  0  0  0  0  0  0  0
   -4.5190    1.6050   -2.8010 H   0  0  0  0  0  0  0  0  0  0  0  0
   -5.2540    3.9250   -2.5140 H   0  0  0  0  0  0  0  0  0  0  0  0
   -3.5740    5.6640   -2.0150 H   0  0  0  0  0  0  0  0  0  0  0  0
   -1.2510    5.0960   -1.8130 H   0  0  0  0  0  0  0  0  0  0  0  0
  1 11  1  0  0  0  0
  1  9  1  0  0  0  0
  2 12  1  0  0  0  0
  2  3  1  0  0  0  0
  2  1  1  0  0  0  0
  3 13  1  0  0  0  0
  4 17  1  0  0  0  0
  4  2  1  0  0  0  0
  5 18  1  6  0  0  0
  5  4  1  0  0  0  0
  5  6  1  0  0  0  0
  7  5  1  0  0  0  0
  7  8  2  0  0  0  0
 10  1  1  0  0  0  0
 14  3  1  0  0  0  0
 15  3  1  0  0  0  0
 16  4  1  0  0  0  0
 19  6  1  0  0  0  0
 20  6  1  0  0  0  0
 21  7  1  0  0  0  0
 22 21  1  0  0  0  0
 22 27  1  0  0  0  0
 23 22  1  0  0  0  0
 24 23  2  0  0  0  0
 25 21  1  0  0  0  0
 26 22  1  0  0  0  0
 28 40  1  0  0  0  0
 28 23  1  0  0  0  0
 29 41  1  6  0  0  0
 29 28  1  0  0  0  0
 29 37  1  0  0  0  0
 30 29  1  0  0  0  0
 31 30  1  0  0  0  0
 31 36  1  0  0  0  0
 32 31  2  0  0  0  0
 33 32  1  0  0  0  0
 33 34  2  0  0  0  0
 34 35  1  0  0  0  0
 35 36  2  0  0  0  0
 35 47  1  0  0  0  0
 36 48  1  0  0  0  0
 37 38  1  0  0  0  0
 39 37  2  0  0  0  0
 42 30  1  0  0  0  0
 43 30  1  0  0  0  0
 44 32  1  0  0  0  0
 45 33  1  0  0  0  0
 46 34  1  0  0  0  0
M  END
$$$$
