LGG.pdb
 OpenBabel07022418453D

 35 34  0  0  1  0  0  0  0  0999 V2000
   -2.5560   -2.9100    0.8790 C   0  0  0  0  0  0  0  0  0  0  0  0
   -1.1010   -2.4970    0.9900 C   0  0  0  0  0  0  0  0  0  0  0  0
   -0.6200   -3.0090    2.3330 C   0  0  0  0  0  0  0  0  0  0  0  0
   -0.2710   -3.0740   -0.1250 C   0  0  0  0  0  0  0  0  0  0  0  0
    1.1600   -2.7170   -0.0880 C   0  0  2  0  0  0  0  0  0  0  0  0
    1.8750   -3.1170    1.0790 N   0  0  0  0  0  0  0  0  0  0  0  0
    1.4320   -1.2760   -0.3410 C   0  0  0  0  0  0  0  0  0  0  0  0
    2.1960   -0.6090    0.4210 O   0  0  0  0  0  0  0  0  0  0  0  0
   -2.9100   -2.9830   -0.1530 H   0  0  0  0  0  0  0  0  0  0  0  0
   -2.6520   -3.9390    1.3180 H   0  0  0  0  0  0  0  0  0  0  0  0
   -3.1430   -2.1690    1.4870 H   0  0  0  0  0  0  0  0  0  0  0  0
   -1.0140   -1.3900    1.0060 H   0  0  0  0  0  0  0  0  0  0  0  0
   -0.0250   -3.9330    2.2540 H   0  0  0  0  0  0  0  0  0  0  0  0
   -1.4830   -3.2740    3.0120 H   0  0  0  0  0  0  0  0  0  0  0  0
   -0.0850   -2.1960    2.8930 H   0  0  0  0  0  0  0  0  0  0  0  0
   -0.3820   -4.1760   -0.0880 H   0  0  0  0  0  0  0  0  0  0  0  0
   -0.6940   -2.7550   -1.0980 H   0  0  0  0  0  0  0  0  0  0  0  0
    1.6470   -3.2470   -0.9620 H   0  0  0  0  0  0  0  0  0  0  0  0
    2.8270   -3.4720    0.8350 H   0  0  0  0  0  0  0  0  0  0  0  0
    2.0280   -2.3550    1.7710 H   0  0  0  0  0  0  0  0  0  0  0  0
    0.8630   -0.5810   -1.4300 N   0  0  0  0  0  0  0  0  0  0  0  0
    1.0890    0.8120   -1.7290 C   0  0  0  0  0  0  0  0  0  0  0  0
    0.6220    1.6010   -0.5530 C   0  0  0  0  0  0  0  0  0  0  0  0
    0.1370    1.0410    0.4600 O   0  0  0  0  0  0  0  0  0  0  0  0
    0.2360   -1.1170   -2.0610 H   0  0  0  0  0  0  0  0  0  0  0  0
    0.4320    1.0870   -2.5870 H   0  0  0  0  0  0  0  0  0  0  0  0
    2.1570    1.0230   -1.9580 H   0  0  0  0  0  0  0  0  0  0  0  0
    0.7170    3.0300   -0.5500 N   0  0  0  0  0  0  0  0  0  0  0  0
    0.2790    3.8320    0.5620 C   0  0  0  0  0  0  0  0  0  0  0  0
    1.0130    3.4980    1.8130 C   0  0  0  0  0  0  0  0  0  0  0  0
    1.9090    2.6170    1.8800 O   0  0  0  0  0  0  0  0  0  0  0  0
    0.7060    4.1850    2.9790 O   0  0  0  0  0  0  0  0  0  0  0  0
    1.1340    3.4490   -1.4300 H   0  0  0  0  0  0  0  0  0  0  0  0
   -0.8130    3.7750    0.7450 H   0  0  0  0  0  0  0  0  0  0  0  0
    0.5380    4.8900    0.3250 H   0  0  0  0  0  0  0  0  0  0  0  0
  1  2  1  0  0  0  0
  1 10  1  0  0  0  0
  1 11  1  0  0  0  0
  2 12  1  0  0  0  0
  2  3  1  0  0  0  0
  3 15  1  0  0  0  0
  3 14  1  0  0  0  0
  4  5  1  0  0  0  0
  4 16  1  0  0  0  0
  4  2  1  0  0  0  0
  5 18  1  6  0  0  0
  5  6  1  0  0  0  0
  6 20  1  0  0  0  0
  7  5  1  0  0  0  0
  7  8  2  0  0  0  0
  9  1  1  0  0  0  0
 13  3  1  0  0  0  0
 17  4  1  0  0  0  0
 19  6  1  0  0  0  0
 21  7  1  0  0  0  0
 22 21  1  0  0  0  0
 22 23  1  0  0  0  0
 23 28  1  0  0  0  0
 23 24  2  0  0  0  0
 25 21  1  0  0  0  0
 26 22  1  0  0  0  0
 27 22  1  0  0  0  0
 28 29  1  0  0  0  0
 29 34  1  0  0  0  0
 29 30  1  0  0  0  0
 30 31  2  0  0  0  0
 30 32  1  0  0  0  0
 33 28  1  0  0  0  0
 35 29  1  0  0  0  0
M  END
$$$$
