LGH.pdb
 OpenBabel07022418453D

 45 45  0  0  1  0  0  0  0  0999 V2000
    3.5270   -5.0030    1.2420 C   0  0  0  0  0  0  0  0  0  0  0  0
    3.5530   -3.4650    1.1710 C   0  0  0  0  0  0  0  0  0  0  0  0
    2.3410   -2.9990    1.8930 C   0  0  0  0  0  0  0  0  0  0  0  0
    3.6520   -3.1220   -0.2660 C   0  0  0  0  0  0  0  0  0  0  0  0
    3.7020   -1.6890   -0.6370 C   0  0  2  0  0  0  0  0  0  0  0  0
    4.8130   -0.9720   -0.0530 N   0  0  0  0  0  0  0  0  0  0  0  0
    2.4310   -0.9400   -0.5670 C   0  0  0  0  0  0  0  0  0  0  0  0
    2.4900    0.2260   -0.0510 O   0  0  0  0  0  0  0  0  0  0  0  0
    3.4650   -5.2490    2.3320 H   0  0  0  0  0  0  0  0  0  0  0  0
    2.6050   -5.3630    0.7430 H   0  0  0  0  0  0  0  0  0  0  0  0
    4.4050   -5.4370    0.7610 H   0  0  0  0  0  0  0  0  0  0  0  0
    4.4970   -3.1450    1.6960 H   0  0  0  0  0  0  0  0  0  0  0  0
    2.4710   -1.9680    2.3230 H   0  0  0  0  0  0  0  0  0  0  0  0
    2.1690   -3.6380    2.8100 H   0  0  0  0  0  0  0  0  0  0  0  0
    1.4180   -3.1040    1.3030 H   0  0  0  0  0  0  0  0  0  0  0  0
    4.5770   -3.6500   -0.6520 H   0  0  0  0  0  0  0  0  0  0  0  0
    2.8240   -3.6580   -0.8170 H   0  0  0  0  0  0  0  0  0  0  0  0
    3.9670   -1.6850   -1.7640 H   0  0  0  0  0  0  0  0  0  0  0  0
    4.4760   -0.5410    0.8490 H   0  0  0  0  0  0  0  0  0  0  0  0
    5.1090   -0.1700   -0.6540 H   0  0  0  0  0  0  0  0  0  0  0  0
    1.1930   -1.4460   -1.0390 N   0  0  0  0  0  0  0  0  0  0  0  0
   -0.0010   -0.6800   -0.9730 C   0  0  0  0  0  0  0  0  0  0  0  0
   -0.4010   -0.2650    0.3810 C   0  0  0  0  0  0  0  0  0  0  0  0
    0.3060   -0.5920    1.3590 O   0  0  0  0  0  0  0  0  0  0  0  0
    1.1550   -2.4300   -1.4560 H   0  0  0  0  0  0  0  0  0  0  0  0
    0.1860    0.2760   -1.5500 H   0  0  0  0  0  0  0  0  0  0  0  0
   -0.8460   -1.1930   -1.4830 H   0  0  0  0  0  0  0  0  0  0  0  0
   -1.5600    0.4990    0.6600 N   0  0  0  0  0  0  0  0  0  0  0  0
   -1.9270    0.8920    1.9960 C   0  0  1  0  0  0  0  0  0  0  0  0
   -2.0050    2.3870    2.1790 C   0  0  0  0  0  0  0  0  0  0  0  0
   -2.9820    3.0480    1.3120 C   0  0  0  0  0  0  0  0  0  0  0  0
   -4.2950    3.2630    1.6370 C   0  0  0  0  0  0  0  0  0  0  0  0
   -4.8820    3.8890    0.6100 N   0  0  0  0  0  0  0  0  0  0  0  0
   -3.9690    4.0750   -0.3560 C   0  0  0  0  0  0  0  0  0  0  0  0
   -2.8100    3.5570    0.0830 N   0  0  0  0  0  0  0  0  0  0  0  0
   -3.2260    0.2490    2.3620 C   0  0  0  0  0  0  0  0  0  0  0  0
   -3.7200    0.4670    3.4940 O   0  0  0  0  0  0  0  0  0  0  0  0
   -3.8980   -0.5870    1.4710 O   0  0  0  0  0  0  0  0  0  0  0  0
   -2.1620    0.7800   -0.1420 H   0  0  0  0  0  0  0  0  0  0  0  0
   -1.1900    0.5240    2.7490 H   0  0  0  0  0  0  0  0  0  0  0  0
   -0.9990    2.8250    2.0200 H   0  0  0  0  0  0  0  0  0  0  0  0
   -2.2220    2.5480    3.2710 H   0  0  0  0  0  0  0  0  0  0  0  0
   -4.8040    2.9800    2.5740 H   0  0  0  0  0  0  0  0  0  0  0  0
   -5.9040    4.2000    0.5440 H   0  0  0  0  0  0  0  0  0  0  0  0
   -4.1660    4.5650   -1.3210 H   0  0  0  0  0  0  0  0  0  0  0  0
  1  9  1  0  0  0  0
  2  1  1  0  0  0  0
  2 12  1  0  0  0  0
  2  3  1  0  0  0  0
  3 13  1  0  0  0  0
  3 14  1  0  0  0  0
  4  2  1  0  0  0  0
  5 18  1  6  0  0  0
  5  7  1  0  0  0  0
  5  4  1  0  0  0  0
  5  6  1  0  0  0  0
  6 19  1  0  0  0  0
  7  8  2  0  0  0  0
 10  1  1  0  0  0  0
 11  1  1  0  0  0  0
 15  3  1  0  0  0  0
 16  4  1  0  0  0  0
 17  4  1  0  0  0  0
 20  6  1  0  0  0  0
 21 22  1  0  0  0  0
 21  7  1  0  0  0  0
 22 23  1  0  0  0  0
 23 28  1  0  0  0  0
 23 24  2  0  0  0  0
 25 21  1  0  0  0  0
 26 22  1  0  0  0  0
 27 22  1  0  0  0  0
 28 29  1  0  0  0  0
 29 30  1  0  0  0  0
 29 36  1  0  0  0  0
 29 40  1  1  0  0  0
 30 42  1  0  0  0  0
 31 32  2  0  0  0  0
 31 30  1  0  0  0  0
 32 43  1  0  0  0  0
 33 32  1  0  0  0  0
 34 35  2  0  0  0  0
 34 33  1  0  0  0  0
 35 31  1  0  0  0  0
 36 37  1  0  0  0  0
 38 36  2  0  0  0  0
 39 28  1  0  0  0  0
 41 30  1  0  0  0  0
 44 33  1  0  0  0  0
 45 34  1  0  0  0  0
M  END
$$$$
