LGK.pdb
 OpenBabel07022418453D

 49 48  0  0  1  0  0  0  0  0999 V2000
    3.4460   -3.4570    3.1380 C   0  0  0  0  0  0  0  0  0  0  0  0
    3.6840   -3.7250    1.6810 C   0  0  0  0  0  0  0  0  0  0  0  0
    4.4610   -2.6330    1.0290 C   0  0  0  0  0  0  0  0  0  0  0  0
    2.4540   -4.1750    0.9550 C   0  0  0  0  0  0  0  0  0  0  0  0
    1.2850   -3.2690    0.9860 C   0  0  2  0  0  0  0  0  0  0  0  0
    0.2440   -3.9480    0.1960 N   0  0  0  0  0  0  0  0  0  0  0  0
    1.4690   -1.8910    0.5310 C   0  0  0  0  0  0  0  0  0  0  0  0
    2.0610   -1.0420    1.2390 O   0  0  0  0  0  0  0  0  0  0  0  0
    2.6080   -4.0510    3.5540 H   0  0  0  0  0  0  0  0  0  0  0  0
    4.3560   -3.6860    3.7220 H   0  0  0  0  0  0  0  0  0  0  0  0
    3.2270   -2.3750    3.3420 H   0  0  0  0  0  0  0  0  0  0  0  0
    4.3600   -4.6800    1.7010 H   0  0  0  0  0  0  0  0  0  0  0  0
    5.5040   -3.0370    0.7840 H   0  0  0  0  0  0  0  0  0  0  0  0
    4.0460   -2.3740    0.0520 H   0  0  0  0  0  0  0  0  0  0  0  0
    4.5950   -1.7460    1.6930 H   0  0  0  0  0  0  0  0  0  0  0  0
    2.7440   -4.4630   -0.0900 H   0  0  0  0  0  0  0  0  0  0  0  0
    2.1890   -5.1780    1.4260 H   0  0  0  0  0  0  0  0  0  0  0  0
    0.8730   -3.3040    2.0390 H   0  0  0  0  0  0  0  0  0  0  0  0
    0.6120   -4.2420   -0.7330 H   0  0  0  0  0  0  0  0  0  0  0  0
   -0.6060   -3.3480    0.1210 H   0  0  0  0  0  0  0  0  0  0  0  0
    0.9840   -1.4330   -0.7470 N   0  0  0  0  0  0  0  0  0  0  0  0
    1.1440   -0.0790   -1.2000 C   0  0  0  0  0  0  0  0  0  0  0  0
    0.4190    0.8830   -0.3600 C   0  0  0  0  0  0  0  0  0  0  0  0
    0.5330    2.1230   -0.6350 O   0  0  0  0  0  0  0  0  0  0  0  0
    0.5070   -2.1500   -1.3230 H   0  0  0  0  0  0  0  0  0  0  0  0
    0.8140   -0.0340   -2.2670 H   0  0  0  0  0  0  0  0  0  0  0  0
    2.2440    0.1540   -1.2490 H   0  0  0  0  0  0  0  0  0  0  0  0
   -0.3950    0.5010    0.7250 N   0  0  0  0  0  0  0  0  0  0  0  0
   -1.0980    1.4840    1.5370 C   0  0  1  0  0  0  0  0  0  0  0  0
   -2.5670    1.1800    1.6030 C   0  0  0  0  0  0  0  0  0  0  0  0
   -3.2650    1.1680    0.2910 C   0  0  0  0  0  0  0  0  0  0  0  0
   -3.2280    2.4290   -0.4820 C   0  0  0  0  0  0  0  0  0  0  0  0
   -3.9900    2.2150   -1.7800 C   0  0  0  0  0  0  0  0  0  0  0  0
   -4.0030    3.4090   -2.6010 N   0  0  0  0  0  0  0  0  0  0  0  0
   -0.5650    1.3650    2.9170 C   0  0  0  0  0  0  0  0  0  0  0  0
   -1.0320    2.1400    3.8240 O   0  0  0  0  0  0  0  0  0  0  0  0
    0.4000    0.4890    3.3290 O   0  0  0  0  0  0  0  0  0  0  0  0
   -0.5140   -0.5000    0.9500 H   0  0  0  0  0  0  0  0  0  0  0  0
   -0.8830    2.5100    1.1960 H   0  0  0  0  0  0  0  0  0  0  0  0
   -3.0410    1.8970    2.3040 H   0  0  0  0  0  0  0  0  0  0  0  0
   -2.6740    0.1740    2.0590 H   0  0  0  0  0  0  0  0  0  0  0  0
   -4.3240    0.8930    0.4710 H   0  0  0  0  0  0  0  0  0  0  0  0
   -2.8500    0.3490   -0.3490 H   0  0  0  0  0  0  0  0  0  0  0  0
   -2.2320    2.7880   -0.7540 H   0  0  0  0  0  0  0  0  0  0  0  0
   -3.7810    3.2510    0.0520 H   0  0  0  0  0  0  0  0  0  0  0  0
   -3.5060    1.4100   -2.3960 H   0  0  0  0  0  0  0  0  0  0  0  0
   -5.0290    1.9020   -1.6200 H   0  0  0  0  0  0  0  0  0  0  0  0
   -3.2240    4.0630   -2.3840 H   0  0  0  0  0  0  0  0  0  0  0  0
   -4.0510    3.1790   -3.6260 H   0  0  0  0  0  0  0  0  0  0  0  0
  1 11  1  0  0  0  0
  1  9  1  0  0  0  0
  1 10  1  0  0  0  0
  2 12  1  0  0  0  0
  2  1  1  0  0  0  0
  3  2  1  0  0  0  0
  3 15  1  0  0  0  0
  4  5  1  0  0  0  0
  4 17  1  0  0  0  0
  4  2  1  0  0  0  0
  5 18  1  1  0  0  0
  6  5  1  0  0  0  0
  7  5  1  0  0  0  0
  7  8  2  0  0  0  0
 13  3  1  0  0  0  0
 14  3  1  0  0  0  0
 16  4  1  0  0  0  0
 19  6  1  0  0  0  0
 20  6  1  0  0  0  0
 21  7  1  0  0  0  0
 22 21  1  0  0  0  0
 22 23  1  0  0  0  0
 23 28  1  0  0  0  0
 24 23  2  0  0  0  0
 25 21  1  0  0  0  0
 26 22  1  0  0  0  0
 27 22  1  0  0  0  0
 28 38  1  0  0  0  0
 28 29  1  0  0  0  0
 29 39  1  6  0  0  0
 29 30  1  0  0  0  0
 29 35  1  0  0  0  0
 30 41  1  0  0  0  0
 30 40  1  0  0  0  0
 31 42  1  0  0  0  0
 31 30  1  0  0  0  0
 32 45  1  0  0  0  0
 32 31  1  0  0  0  0
 33 47  1  0  0  0  0
 33 32  1  0  0  0  0
 34 48  1  0  0  0  0
 34 33  1  0  0  0  0
 35 37  2  0  0  0  0
 35 36  1  0  0  0  0
 43 31  1  0  0  0  0
 44 32  1  0  0  0  0
 46 33  1  0  0  0  0
 49 34  1  0  0  0  0
M  END
$$$$
