LGN.pdb
 OpenBabel07022418453D

 42 41  0  0  1  0  0  0  0  0999 V2000
   -2.7920   -3.5820    0.1130 C   0  0  0  0  0  0  0  0  0  0  0  0
   -1.6950   -4.0370   -0.8050 C   0  0  0  0  0  0  0  0  0  0  0  0
   -1.5630   -5.5390   -0.7240 C   0  0  0  0  0  0  0  0  0  0  0  0
   -0.3630   -3.4520   -0.4020 C   0  0  0  0  0  0  0  0  0  0  0  0
   -0.3690   -1.9270   -0.4360 C   0  0  2  0  0  0  0  0  0  0  0  0
   -0.6620   -1.4200   -1.7370 N   0  0  0  0  0  0  0  0  0  0  0  0
    1.0060   -1.5210    0.0190 C   0  0  0  0  0  0  0  0  0  0  0  0
    1.4090   -1.8720    1.1680 O   0  0  0  0  0  0  0  0  0  0  0  0
   -3.5600   -2.9510   -0.4100 H   0  0  0  0  0  0  0  0  0  0  0  0
   -3.3670   -4.4640    0.4930 H   0  0  0  0  0  0  0  0  0  0  0  0
   -2.3840   -3.0410    1.0070 H   0  0  0  0  0  0  0  0  0  0  0  0
   -1.9840   -3.7310   -1.8340 H   0  0  0  0  0  0  0  0  0  0  0  0
   -2.0100   -5.9810   -1.6460 H   0  0  0  0  0  0  0  0  0  0  0  0
   -0.5000   -5.8650   -0.6920 H   0  0  0  0  0  0  0  0  0  0  0  0
   -2.0730   -5.9740    0.1460 H   0  0  0  0  0  0  0  0  0  0  0  0
   -0.1860   -3.7510    0.6470 H   0  0  0  0  0  0  0  0  0  0  0  0
    0.4640   -3.8680   -0.9990 H   0  0  0  0  0  0  0  0  0  0  0  0
   -1.1500   -1.6000    0.2640 H   0  0  0  0  0  0  0  0  0  0  0  0
    0.0650   -1.7430   -2.4010 H   0  0  0  0  0  0  0  0  0  0  0  0
   -0.7190   -0.3810   -1.6740 H   0  0  0  0  0  0  0  0  0  0  0  0
    1.8840   -0.7590   -0.7790 N   0  0  0  0  0  0  0  0  0  0  0  0
    3.1960   -0.3680   -0.3230 C   0  0  0  0  0  0  0  0  0  0  0  0
    3.1090    0.5330    0.8300 C   0  0  0  0  0  0  0  0  0  0  0  0
    4.1980    0.8960    1.3600 O   0  0  0  0  0  0  0  0  0  0  0  0
    1.5240   -0.4860   -1.7420 H   0  0  0  0  0  0  0  0  0  0  0  0
    3.7160    0.1060   -1.1930 H   0  0  0  0  0  0  0  0  0  0  0  0
    3.7490   -1.3030   -0.0310 H   0  0  0  0  0  0  0  0  0  0  0  0
    0.4020    5.4150    3.0210 N   0  0  0  0  0  0  0  0  0  0  0  0
    1.1490    4.1960    3.2280 C   0  0  0  0  0  0  0  0  0  0  0  0
    1.7100    4.0810    4.3330 O   0  0  0  0  0  0  0  0  0  0  0  0
    1.2060    3.1890    2.1570 C   0  0  0  0  0  0  0  0  0  0  0  0
    1.8580    1.9090    2.5290 C   0  0  2  0  0  0  0  0  0  0  0  0
    1.9030    1.0020    1.3570 N   0  0  0  0  0  0  0  0  0  0  0  0
    1.1090    1.2210    3.6100 C   0  0  0  0  0  0  0  0  0  0  0  0
    0.6030    0.0700    3.4380 O   0  0  0  0  0  0  0  0  0  0  0  0
    0.9260    1.7840    4.8430 O   0  0  0  0  0  0  0  0  0  0  0  0
    0.6500    6.0870    2.2770 H   0  0  0  0  0  0  0  0  0  0  0  0
   -0.4040    5.6270    3.6270 H   0  0  0  0  0  0  0  0  0  0  0  0
    1.7510    3.6650    1.2830 H   0  0  0  0  0  0  0  0  0  0  0  0
    0.1710    3.0340    1.7400 H   0  0  0  0  0  0  0  0  0  0  0  0
    2.8810    2.0770    2.8620 H   0  0  0  0  0  0  0  0  0  0  0  0
    1.0040    0.7360    0.9200 H   0  0  0  0  0  0  0  0  0  0  0  0
  1 10  1  0  0  0  0
  1 11  1  0  0  0  0
  2  3  1  0  0  0  0
  2  4  1  0  0  0  0
  2  1  1  0  0  0  0
  3 14  1  0  0  0  0
  3 15  1  0  0  0  0
  4 16  1  0  0  0  0
  5  4  1  0  0  0  0
  5  7  1  0  0  0  0
  5 18  1  1  0  0  0
  6 20  1  0  0  0  0
  6  5  1  0  0  0  0
  7  8  2  0  0  0  0
  9  1  1  0  0  0  0
 12  2  1  0  0  0  0
 13  3  1  0  0  0  0
 17  4  1  0  0  0  0
 19  6  1  0  0  0  0
 21 22  1  0  0  0  0
 21  7  1  0  0  0  0
 22 27  1  0  0  0  0
 22 23  1  0  0  0  0
 23 33  1  0  0  0  0
 23 24  2  0  0  0  0
 25 21  1  0  0  0  0
 26 22  1  0  0  0  0
 28 29  1  0  0  0  0
 28 38  1  0  0  0  0
 29 30  2  0  0  0  0
 31 32  1  0  0  0  0
 31 29  1  0  0  0  0
 32 41  1  1  0  0  0
 32 34  1  0  0  0  0
 33 32  1  0  0  0  0
 34 36  1  0  0  0  0
 35 34  2  0  0  0  0
 37 28  1  0  0  0  0
 39 31  1  0  0  0  0
 40 31  1  0  0  0  0
 42 33  1  0  0  0  0
M  END
$$$$
