LGP.pdb
 OpenBabel07022418453D

 42 42  0  0  1  0  0  0  0  0999 V2000
   -1.1770   -4.1440    2.5560 C   0  0  0  0  0  0  0  0  0  0  0  0
   -0.4820   -4.5250    1.2820 C   0  0  0  0  0  0  0  0  0  0  0  0
   -1.5190   -4.7300    0.2160 C   0  0  0  0  0  0  0  0  0  0  0  0
    0.5970   -3.5710    0.8800 C   0  0  0  0  0  0  0  0  0  0  0  0
    0.0710   -2.1670    0.6600 C   0  0  2  0  0  0  0  0  0  0  0  0
   -0.9300   -2.1470   -0.3870 N   0  0  0  0  0  0  0  0  0  0  0  0
    1.1820   -1.2450    0.3670 C   0  0  0  0  0  0  0  0  0  0  0  0
    2.1610   -1.1310    1.1810 O   0  0  0  0  0  0  0  0  0  0  0  0
   -0.5150   -3.6660    3.2980 H   0  0  0  0  0  0  0  0  0  0  0  0
   -1.5630   -5.0770    3.0200 H   0  0  0  0  0  0  0  0  0  0  0  0
   -2.0950   -3.5200    2.3600 H   0  0  0  0  0  0  0  0  0  0  0  0
    0.0020   -5.5140    1.4570 H   0  0  0  0  0  0  0  0  0  0  0  0
   -2.0060   -5.7240    0.4390 H   0  0  0  0  0  0  0  0  0  0  0  0
   -2.3160   -3.9830    0.2240 H   0  0  0  0  0  0  0  0  0  0  0  0
   -1.0020   -4.8060   -0.7620 H   0  0  0  0  0  0  0  0  0  0  0  0
    1.3500   -3.5240    1.6810 H   0  0  0  0  0  0  0  0  0  0  0  0
    1.0710   -3.9660   -0.0410 H   0  0  0  0  0  0  0  0  0  0  0  0
   -0.4650   -1.8940    1.6000 H   0  0  0  0  0  0  0  0  0  0  0  0
   -1.3570   -1.2130   -0.5130 H   0  0  0  0  0  0  0  0  0  0  0  0
   -0.5290   -2.4490   -1.3000 H   0  0  0  0  0  0  0  0  0  0  0  0
    1.1920   -0.4650   -0.8190 N   0  0  0  0  0  0  0  0  0  0  0  0
    2.1980    0.4540   -1.1900 C   0  0  0  0  0  0  0  0  0  0  0  0
    2.4370    1.6690   -0.4250 C   0  0  0  0  0  0  0  0  0  0  0  0
    3.4800    2.3910   -0.8240 O   0  0  0  0  0  0  0  0  0  0  0  0
    0.3460   -0.6180   -1.4570 H   0  0  0  0  0  0  0  0  0  0  0  0
    3.1740   -0.1200   -1.3150 H   0  0  0  0  0  0  0  0  0  0  0  0
    2.0310    0.8090   -2.2700 H   0  0  0  0  0  0  0  0  0  0  0  0
    1.7800    2.2470    0.6610 N   0  0  0  0  0  0  0  0  0  0  0  0
    2.2850    3.4830    1.2990 C   0  0  0  0  0  0  0  0  0  0  0  0
    1.7030    3.4560    2.6810 C   0  0  0  0  0  0  0  0  0  0  0  0
    0.2930    2.9870    2.3670 C   0  0  0  0  0  0  0  0  0  0  0  0
    0.5810    1.8910    1.3180 C   0  0  1  0  0  0  0  0  0  0  0  0
   -0.5890    1.7680    0.4260 C   0  0  0  0  0  0  0  0  0  0  0  0
   -0.5040    2.1040   -0.7660 O   0  0  0  0  0  0  0  0  0  0  0  0
   -1.7740    1.2790    0.9240 O   0  0  0  0  0  0  0  0  0  0  0  0
    2.0120    4.3730    0.7340 H   0  0  0  0  0  0  0  0  0  0  0  0
    3.3810    3.3580    1.3970 H   0  0  0  0  0  0  0  0  0  0  0  0
    1.6120    4.4540    3.1280 H   0  0  0  0  0  0  0  0  0  0  0  0
    2.2280    2.7480    3.3390 H   0  0  0  0  0  0  0  0  0  0  0  0
   -0.3290    3.7730    1.9450 H   0  0  0  0  0  0  0  0  0  0  0  0
   -0.1520    2.5430    3.2620 H   0  0  0  0  0  0  0  0  0  0  0  0
    0.6950    0.9800    1.8910 H   0  0  0  0  0  0  0  0  0  0  0  0
  1 10  1  0  0  0  0
  1  9  1  0  0  0  0
  2 12  1  0  0  0  0
  2  1  1  0  0  0  0
  3 14  1  0  0  0  0
  3 13  1  0  0  0  0
  3  2  1  0  0  0  0
  4  2  1  0  0  0  0
  4 16  1  0  0  0  0
  5  4  1  0  0  0  0
  5 18  1  1  0  0  0
  6  5  1  0  0  0  0
  7  5  1  0  0  0  0
  7  8  2  0  0  0  0
 11  1  1  0  0  0  0
 15  3  1  0  0  0  0
 17  4  1  0  0  0  0
 19  6  1  0  0  0  0
 20  6  1  0  0  0  0
 21  7  1  0  0  0  0
 22 21  1  0  0  0  0
 22 23  1  0  0  0  0
 23 28  1  0  0  0  0
 24 23  2  0  0  0  0
 25 21  1  0  0  0  0
 26 22  1  0  0  0  0
 27 22  1  0  0  0  0
 28 29  1  0  0  0  0
 28 32  1  0  0  0  0
 29 37  1  0  0  0  0
 29 30  1  0  0  0  0
 30 38  1  0  0  0  0
 30 39  1  0  0  0  0
 31 30  1  0  0  0  0
 31 41  1  0  0  0  0
 32 42  1  1  0  0  0
 32 31  1  0  0  0  0
 33 35  1  0  0  0  0
 33 32  1  0  0  0  0
 34 33  2  0  0  0  0
 36 29  1  0  0  0  0
 40 31  1  0  0  0  0
M  END
$$$$
