LGQ.pdb
 OpenBabel07022418453D

 45 44  0  0  1  0  0  0  0  0999 V2000
   -2.2500   -4.4020    0.3380 C   0  0  0  0  0  0  0  0  0  0  0  0
   -1.3940   -4.7570   -0.8300 C   0  0  0  0  0  0  0  0  0  0  0  0
   -0.7480   -6.1000   -0.5960 C   0  0  0  0  0  0  0  0  0  0  0  0
   -0.4200   -3.7080   -1.2520 C   0  0  0  0  0  0  0  0  0  0  0  0
    0.5390   -3.3710   -0.1540 C   0  0  2  0  0  0  0  0  0  0  0  0
   -0.2270   -2.8760    0.9800 N   0  0  0  0  0  0  0  0  0  0  0  0
    1.5000   -2.3140   -0.5390 C   0  0  0  0  0  0  0  0  0  0  0  0
    2.2720   -2.4940   -1.5100 O   0  0  0  0  0  0  0  0  0  0  0  0
   -2.6660   -3.3940    0.3130 H   0  0  0  0  0  0  0  0  0  0  0  0
   -3.1480   -5.0890    0.2960 H   0  0  0  0  0  0  0  0  0  0  0  0
   -1.7980   -4.6190    1.3270 H   0  0  0  0  0  0  0  0  0  0  0  0
   -2.0950   -4.9110   -1.7050 H   0  0  0  0  0  0  0  0  0  0  0  0
   -1.5520   -6.8560   -0.5350 H   0  0  0  0  0  0  0  0  0  0  0  0
   -0.0760   -6.3240   -1.4630 H   0  0  0  0  0  0  0  0  0  0  0  0
   -0.1960   -6.1390    0.3650 H   0  0  0  0  0  0  0  0  0  0  0  0
    0.1350   -4.0180   -2.1610 H   0  0  0  0  0  0  0  0  0  0  0  0
   -0.9540   -2.7690   -1.5220 H   0  0  0  0  0  0  0  0  0  0  0  0
    1.1520   -4.2560    0.1390 H   0  0  0  0  0  0  0  0  0  0  0  0
   -0.7570   -2.0200    0.7510 H   0  0  0  0  0  0  0  0  0  0  0  0
    0.3490   -2.7700    1.8230 H   0  0  0  0  0  0  0  0  0  0  0  0
    1.6090   -1.0550    0.1500 N   0  0  0  0  0  0  0  0  0  0  0  0
    2.5370   -0.0470   -0.2310 C   0  0  0  0  0  0  0  0  0  0  0  0
    2.4550    1.1470    0.6270 C   0  0  0  0  0  0  0  0  0  0  0  0
    3.2400    2.1500    0.4010 O   0  0  0  0  0  0  0  0  0  0  0  0
    0.9580   -0.9500    0.9390 H   0  0  0  0  0  0  0  0  0  0  0  0
    3.5910   -0.4540   -0.1670 H   0  0  0  0  0  0  0  0  0  0  0  0
    2.4150    0.2730   -1.2940 H   0  0  0  0  0  0  0  0  0  0  0  0
   -2.0810    4.7700   -0.0520 N   0  0  0  0  0  0  0  0  0  0  0  0
   -1.4710    4.3240    1.1380 C   0  0  0  0  0  0  0  0  0  0  0  0
   -2.0440    4.5020    2.2260 O   0  0  0  0  0  0  0  0  0  0  0  0
   -0.1640    3.6560    1.0660 C   0  0  0  0  0  0  0  0  0  0  0  0
    0.2650    3.2840    2.4470 C   0  0  0  0  0  0  0  0  0  0  0  0
    1.6050    2.5850    2.4920 C   0  0  2  0  0  0  0  0  0  0  0  0
    1.5860    1.3500    1.7200 N   0  0  0  0  0  0  0  0  0  0  0  0
    1.8700    2.2460    3.9080 C   0  0  0  0  0  0  0  0  0  0  0  0
    1.9440    3.1180    4.8130 O   0  0  0  0  0  0  0  0  0  0  0  0
    2.0460    0.9200    4.2630 O   0  0  0  0  0  0  0  0  0  0  0  0
   -3.0300    4.4410   -0.3070 H   0  0  0  0  0  0  0  0  0  0  0  0
   -1.5640    5.4310   -0.6660 H   0  0  0  0  0  0  0  0  0  0  0  0
   -0.3210    2.7170    0.4620 H   0  0  0  0  0  0  0  0  0  0  0  0
    0.6160    4.2730    0.5740 H   0  0  0  0  0  0  0  0  0  0  0  0
    0.3710    4.2170    3.0360 H   0  0  0  0  0  0  0  0  0  0  0  0
   -0.5320    2.6930    2.9330 H   0  0  0  0  0  0  0  0  0  0  0  0
    2.3630    3.3040    2.1140 H   0  0  0  0  0  0  0  0  0  0  0  0
    0.9070    0.6340    2.0130 H   0  0  0  0  0  0  0  0  0  0  0  0
  1 11  1  0  0  0  0
  2  3  1  0  0  0  0
  2  1  1  0  0  0  0
  3 13  1  0  0  0  0
  3 15  1  0  0  0  0
  4  2  1  0  0  0  0
  4  5  1  0  0  0  0
  5 18  1  1  0  0  0
  5  6  1  0  0  0  0
  6 20  1  0  0  0  0
  7  5  1  0  0  0  0
  7 21  1  0  0  0  0
  8  7  2  0  0  0  0
  9  1  1  0  0  0  0
 10  1  1  0  0  0  0
 12  2  1  0  0  0  0
 14  3  1  0  0  0  0
 16  4  1  0  0  0  0
 17  4  1  0  0  0  0
 19  6  1  0  0  0  0
 21 25  1  0  0  0  0
 22 26  1  0  0  0  0
 22 21  1  0  0  0  0
 22 23  1  0  0  0  0
 23 34  1  0  0  0  0
 24 23  2  0  0  0  0
 27 22  1  0  0  0  0
 28 29  1  0  0  0  0
 29 30  2  0  0  0  0
 31 29  1  0  0  0  0
 31 32  1  0  0  0  0
 32 33  1  0  0  0  0
 32 43  1  0  0  0  0
 32 42  1  0  0  0  0
 33 44  1  6  0  0  0
 33 35  1  0  0  0  0
 34 45  1  0  0  0  0
 34 33  1  0  0  0  0
 35 37  2  0  0  0  0
 35 36  1  0  0  0  0
 38 28  1  0  0  0  0
 39 28  1  0  0  0  0
 40 31  1  0  0  0  0
 41 31  1  0  0  0  0
M  END
$$$$
