LGR.pdb
 OpenBabel07022418453D

 51 50  0  0  1  0  0  0  0  0999 V2000
    2.2640   -3.9190   -0.3800 C   0  0  0  0  0  0  0  0  0  0  0  0
    1.5780   -3.3690    0.8800 C   0  0  0  0  0  0  0  0  0  0  0  0
    0.2650   -2.8230    0.4330 C   0  0  0  0  0  0  0  0  0  0  0  0
    2.4580   -2.3780    1.5420 C   0  0  0  0  0  0  0  0  0  0  0  0
    1.9930   -1.7300    2.7810 C   0  0  2  0  0  0  0  0  0  0  0  0
    1.6760   -2.6550    3.8570 N   0  0  0  0  0  0  0  0  0  0  0  0
    1.1080   -0.5660    2.6990 C   0  0  0  0  0  0  0  0  0  0  0  0
    1.1970    0.2520    1.7360 O   0  0  0  0  0  0  0  0  0  0  0  0
    1.7530   -4.8730   -0.6160 H   0  0  0  0  0  0  0  0  0  0  0  0
    3.3510   -4.0500   -0.1890 H   0  0  0  0  0  0  0  0  0  0  0  0
    2.0570   -3.1980   -1.1750 H   0  0  0  0  0  0  0  0  0  0  0  0
    1.4500   -4.2690    1.5320 H   0  0  0  0  0  0  0  0  0  0  0  0
   -0.5170   -2.9220    1.2280 H   0  0  0  0  0  0  0  0  0  0  0  0
    0.3140   -1.7720    0.1200 H   0  0  0  0  0  0  0  0  0  0  0  0
   -0.1430   -3.3920   -0.4370 H   0  0  0  0  0  0  0  0  0  0  0  0
    2.7030   -1.5380    0.8130 H   0  0  0  0  0  0  0  0  0  0  0  0
    3.4720   -2.8510    1.7100 H   0  0  0  0  0  0  0  0  0  0  0  0
    3.0030   -1.2600    3.2080 H   0  0  0  0  0  0  0  0  0  0  0  0
    1.8240   -2.1730    4.7540 H   0  0  0  0  0  0  0  0  0  0  0  0
    2.4030   -3.4150    3.8120 H   0  0  0  0  0  0  0  0  0  0  0  0
    0.1340   -0.3390    3.7230 N   0  0  0  0  0  0  0  0  0  0  0  0
   -0.7550    0.7730    3.7720 C   0  0  0  0  0  0  0  0  0  0  0  0
   -1.7190    0.9470    2.6850 C   0  0  0  0  0  0  0  0  0  0  0  0
   -2.4670    1.9880    2.7920 O   0  0  0  0  0  0  0  0  0  0  0  0
    0.1220   -1.0980    4.4780 H   0  0  0  0  0  0  0  0  0  0  0  0
   -0.1150    1.6960    3.9100 H   0  0  0  0  0  0  0  0  0  0  0  0
   -1.2910    0.7070    4.7760 H   0  0  0  0  0  0  0  0  0  0  0  0
    2.0700   -0.3660   -2.5810 N   0  0  0  0  0  0  0  0  0  0  0  0
    1.3240    0.7350   -2.1020 C   0  0  0  0  0  0  0  0  0  0  0  0
    1.7570    1.4470   -1.1190 N   0  0  0  0  0  0  0  0  0  0  0  0
    0.0660    1.1320   -2.6610 N   0  0  0  0  0  0  0  0  0  0  0  0
   -0.7690    2.1330   -2.0810 C   0  0  0  0  0  0  0  0  0  0  0  0
   -1.4020    1.7860   -0.7790 C   0  0  0  0  0  0  0  0  0  0  0  0
   -2.2930    0.5820   -0.8400 C   0  0  0  0  0  0  0  0  0  0  0  0
   -2.8760    0.3530    0.5360 C   0  0  2  0  0  0  0  0  0  0  0  0
   -1.9080    0.1150    1.5630 N   0  0  0  0  0  0  0  0  0  0  0  0
   -3.8910   -0.7230    0.5430 C   0  0  0  0  0  0  0  0  0  0  0  0
   -3.7830   -1.6430    1.3900 O   0  0  0  0  0  0  0  0  0  0  0  0
   -4.9590   -0.7690   -0.3370 O   0  0  0  0  0  0  0  0  0  0  0  0
    1.7480   -1.3390   -2.6540 H   0  0  0  0  0  0  0  0  0  0  0  0
    3.0640   -0.1810   -2.9020 H   0  0  0  0  0  0  0  0  0  0  0  0
    2.6810    1.2240   -0.6470 H   0  0  0  0  0  0  0  0  0  0  0  0
   -0.2200    0.6440   -3.5330 H   0  0  0  0  0  0  0  0  0  0  0  0
   -1.5700    2.4050   -2.8200 H   0  0  0  0  0  0  0  0  0  0  0  0
   -0.2170    3.1060   -1.9150 H   0  0  0  0  0  0  0  0  0  0  0  0
   -1.9880    2.6630   -0.4440 H   0  0  0  0  0  0  0  0  0  0  0  0
   -0.6120    1.6080   -0.0190 H   0  0  0  0  0  0  0  0  0  0  0  0
   -3.1510    0.8400   -1.5000 H   0  0  0  0  0  0  0  0  0  0  0  0
   -1.8220   -0.3050   -1.2610 H   0  0  0  0  0  0  0  0  0  0  0  0
   -3.4320    1.2870    0.8540 H   0  0  0  0  0  0  0  0  0  0  0  0
   -1.3090   -0.7220    1.4980 H   0  0  0  0  0  0  0  0  0  0  0  0
  1 10  1  0  0  0  0
  1  2  1  0  0  0  0
  2 12  1  0  0  0  0
  2  4  1  0  0  0  0
  3  2  1  0  0  0  0
  3 13  1  0  0  0  0
  4 17  1  0  0  0  0
  4  5  1  0  0  0  0
  5 18  1  1  0  0  0
  5  6  1  0  0  0  0
  6 19  1  0  0  0  0
  7  5  1  0  0  0  0
  7 21  1  0  0  0  0
  8  7  2  0  0  0  0
  9  1  1  0  0  0  0
 11  1  1  0  0  0  0
 14  3  1  0  0  0  0
 15  3  1  0  0  0  0
 16  4  1  0  0  0  0
 20  6  1  0  0  0  0
 21 22  1  0  0  0  0
 21 25  1  0  0  0  0
 22 26  1  0  0  0  0
 22 27  1  0  0  0  0
 23 24  2  0  0  0  0
 23 22  1  0  0  0  0
 28 29  1  0  0  0  0
 29 30  2  0  0  0  0
 30 42  1  0  0  0  0
 31 29  1  0  0  0  0
 31 32  1  0  0  0  0
 32 45  1  0  0  0  0
 32 33  1  0  0  0  0
 33 46  1  0  0  0  0
 33 47  1  0  0  0  0
 34 33  1  0  0  0  0
 34 35  1  0  0  0  0
 35 37  1  0  0  0  0
 35 50  1  1  0  0  0
 35 36  1  0  0  0  0
 36 23  1  0  0  0  0
 37 38  1  0  0  0  0
 39 37  2  0  0  0  0
 40 28  1  0  0  0  0
 41 28  1  0  0  0  0
 43 31  1  0  0  0  0
 44 32  1  0  0  0  0
 48 34  1  0  0  0  0
 49 34  1  0  0  0  0
 51 36  1  0  0  0  0
M  END
$$$$
