LGS.pdb
 OpenBabel07022418453D

 39 38  0  0  1  0  0  0  0  0999 V2000
    2.4940   -1.2800    3.9460 C   0  0  0  0  0  0  0  0  0  0  0  0
    1.8700   -2.6130    3.5910 C   0  0  0  0  0  0  0  0  0  0  0  0
    2.7320   -3.7460    4.0240 C   0  0  0  0  0  0  0  0  0  0  0  0
    1.5540   -2.6780    2.0910 C   0  0  0  0  0  0  0  0  0  0  0  0
    0.5860   -1.5390    1.8390 C   0  0  2  0  0  0  0  0  0  0  0  0
   -0.5750   -1.7910    2.6680 N   0  0  0  0  0  0  0  0  0  0  0  0
    0.2020   -1.4340    0.4150 C   0  0  0  0  0  0  0  0  0  0  0  0
   -1.0140   -1.5740    0.1190 O   0  0  0  0  0  0  0  0  0  0  0  0
    1.6860   -0.5450    4.1660 H   0  0  0  0  0  0  0  0  0  0  0  0
    3.1670   -1.3620    4.8210 H   0  0  0  0  0  0  0  0  0  0  0  0
    3.0920   -0.9560    3.0770 H   0  0  0  0  0  0  0  0  0  0  0  0
    0.8920   -2.6700    4.0990 H   0  0  0  0  0  0  0  0  0  0  0  0
    2.8160   -4.4610    3.1810 H   0  0  0  0  0  0  0  0  0  0  0  0
    3.7350   -3.4150    4.3820 H   0  0  0  0  0  0  0  0  0  0  0  0
    2.2330   -4.2780    4.8510 H   0  0  0  0  0  0  0  0  0  0  0  0
    1.0320   -3.6570    1.9500 H   0  0  0  0  0  0  0  0  0  0  0  0
    2.4540   -2.6110    1.4750 H   0  0  0  0  0  0  0  0  0  0  0  0
    1.0710   -0.6210    2.2240 H   0  0  0  0  0  0  0  0  0  0  0  0
   -1.2110   -0.9660    2.7220 H   0  0  0  0  0  0  0  0  0  0  0  0
   -1.0570   -2.6580    2.3490 H   0  0  0  0  0  0  0  0  0  0  0  0
    1.1050   -1.1860   -0.6380 N   0  0  0  0  0  0  0  0  0  0  0  0
    0.7690   -1.0670   -2.0340 C   0  0  0  0  0  0  0  0  0  0  0  0
   -0.1270    0.0520   -2.3620 C   0  0  0  0  0  0  0  0  0  0  0  0
   -0.5300    0.2490   -3.5640 O   0  0  0  0  0  0  0  0  0  0  0  0
    2.1150   -1.0780   -0.3790 H   0  0  0  0  0  0  0  0  0  0  0  0
    0.2070   -2.0120   -2.2840 H   0  0  0  0  0  0  0  0  0  0  0  0
    1.6680   -1.1090   -2.6780 H   0  0  0  0  0  0  0  0  0  0  0  0
   -2.8330    1.9430    0.1980 O   0  0  0  0  0  0  0  0  0  0  0  0
   -2.8840    1.9610   -1.1870 C   0  0  0  0  0  0  0  0  0  0  0  0
   -1.5110    2.0870   -1.8030 C   0  0  2  0  0  0  0  0  0  0  0  0
   -0.6370    1.0110   -1.4500 N   0  0  0  0  0  0  0  0  0  0  0  0
   -0.9470    3.4240   -1.5940 C   0  0  0  0  0  0  0  0  0  0  0  0
    0.2010    3.5700   -1.1510 O   0  0  0  0  0  0  0  0  0  0  0  0
   -1.7010    4.5290   -1.8940 O   0  0  0  0  0  0  0  0  0  0  0  0
   -2.0600    2.4270    0.5750 H   0  0  0  0  0  0  0  0  0  0  0  0
   -3.3150    1.0060   -1.5430 H   0  0  0  0  0  0  0  0  0  0  0  0
   -3.5340    2.7740   -1.5680 H   0  0  0  0  0  0  0  0  0  0  0  0
   -1.6890    2.0020   -2.9180 H   0  0  0  0  0  0  0  0  0  0  0  0
   -0.3560    0.9510   -0.4500 H   0  0  0  0  0  0  0  0  0  0  0  0
  1  9  1  0  0  0  0
  1 10  1  0  0  0  0
  2  1  1  0  0  0  0
  2  3  1  0  0  0  0
  2 12  1  0  0  0  0
  3 14  1  0  0  0  0
  3 15  1  0  0  0  0
  4  2  1  0  0  0  0
  5  4  1  0  0  0  0
  5 18  1  1  0  0  0
  5  6  1  0  0  0  0
  6 19  1  0  0  0  0
  7  5  1  0  0  0  0
  8  7  2  0  0  0  0
 11  1  1  0  0  0  0
 13  3  1  0  0  0  0
 16  4  1  0  0  0  0
 17  4  1  0  0  0  0
 20  6  1  0  0  0  0
 21 25  1  0  0  0  0
 21  7  1  0  0  0  0
 22 21  1  0  0  0  0
 23 22  1  0  0  0  0
 23 31  1  0  0  0  0
 24 23  2  0  0  0  0
 26 22  1  0  0  0  0
 27 22  1  0  0  0  0
 28 35  1  0  0  0  0
 29 28  1  0  0  0  0
 30 38  1  6  0  0  0
 30 32  1  0  0  0  0
 30 31  1  0  0  0  0
 30 29  1  0  0  0  0
 31 39  1  0  0  0  0
 32 33  1  0  0  0  0
 34 32  2  0  0  0  0
 36 29  1  0  0  0  0
 37 29  1  0  0  0  0
M  END
$$$$
