LGV.pdb
 OpenBabel07022418453D

 44 43  0  0  1  0  0  0  0  0999 V2000
   -1.2130   -5.7120    1.3230 C   0  0  0  0  0  0  0  0  0  0  0  0
   -0.1690   -5.4440    0.2630 C   0  0  0  0  0  0  0  0  0  0  0  0
   -0.6250   -6.0140   -1.0300 C   0  0  0  0  0  0  0  0  0  0  0  0
    0.3300   -4.0510    0.2570 C   0  0  0  0  0  0  0  0  0  0  0  0
   -0.6580   -2.9680    0.0330 C   0  0  2  0  0  0  0  0  0  0  0  0
   -1.3220   -3.0730   -1.2200 N   0  0  0  0  0  0  0  0  0  0  0  0
    0.1120   -1.6700    0.0240 C   0  0  0  0  0  0  0  0  0  0  0  0
    0.7960   -1.3290    1.0240 O   0  0  0  0  0  0  0  0  0  0  0  0
   -0.9370   -5.3330    2.3130 H   0  0  0  0  0  0  0  0  0  0  0  0
   -1.2820   -6.8260    1.4130 H   0  0  0  0  0  0  0  0  0  0  0  0
   -2.2320   -5.3800    1.0080 H   0  0  0  0  0  0  0  0  0  0  0  0
    0.7160   -6.0840    0.5900 H   0  0  0  0  0  0  0  0  0  0  0  0
   -0.6100   -7.1420   -0.8920 H   0  0  0  0  0  0  0  0  0  0  0  0
   -1.6660   -5.7580   -1.2610 H   0  0  0  0  0  0  0  0  0  0  0  0
    0.0930   -5.8510   -1.8650 H   0  0  0  0  0  0  0  0  0  0  0  0
    0.9720   -3.8860    1.1570 H   0  0  0  0  0  0  0  0  0  0  0  0
    1.0720   -3.9810   -0.5960 H   0  0  0  0  0  0  0  0  0  0  0  0
   -1.4390   -2.9300    0.8420 H   0  0  0  0  0  0  0  0  0  0  0  0
   -2.2630   -3.4650   -1.1010 H   0  0  0  0  0  0  0  0  0  0  0  0
   -0.7560   -3.6340   -1.8750 H   0  0  0  0  0  0  0  0  0  0  0  0
    0.0990   -0.7980   -1.0910 N   0  0  0  0  0  0  0  0  0  0  0  0
    0.8580    0.4370   -1.0470 C   0  0  0  0  0  0  0  0  0  0  0  0
    0.3830    1.3060    0.0830 C   0  0  0  0  0  0  0  0  0  0  0  0
   -0.5510    0.9320    0.8370 O   0  0  0  0  0  0  0  0  0  0  0  0
   -0.4490   -1.0380   -1.9360 H   0  0  0  0  0  0  0  0  0  0  0  0
    1.9060    0.1620   -0.7820 H   0  0  0  0  0  0  0  0  0  0  0  0
    0.8410    0.9690   -2.0010 H   0  0  0  0  0  0  0  0  0  0  0  0
    1.9220    2.1710    2.9610 C   0  0  0  0  0  0  0  0  0  0  0  0
    1.6980    3.5850    2.4290 C   0  0  0  0  0  0  0  0  0  0  0  0
    1.2150    4.4110    3.5940 C   0  0  0  0  0  0  0  0  0  0  0  0
    0.5740    3.4570    1.3910 C   0  0  2  0  0  0  0  0  0  0  0  0
    0.9640    2.5670    0.3390 N   0  0  0  0  0  0  0  0  0  0  0  0
    0.1290    4.7720    0.9150 C   0  0  0  0  0  0  0  0  0  0  0  0
    0.1280    4.9940   -0.3220 O   0  0  0  0  0  0  0  0  0  0  0  0
   -0.2970    5.8020    1.7340 O   0  0  0  0  0  0  0  0  0  0  0  0
    2.3160    2.2110    4.0100 H   0  0  0  0  0  0  0  0  0  0  0  0
    2.6880    1.6390    2.3560 H   0  0  0  0  0  0  0  0  0  0  0  0
    0.9710    1.6090    3.0260 H   0  0  0  0  0  0  0  0  0  0  0  0
    2.6170    3.9610    1.9670 H   0  0  0  0  0  0  0  0  0  0  0  0
    0.2170    4.0270    3.8720 H   0  0  0  0  0  0  0  0  0  0  0  0
    1.2710    5.4860    3.4390 H   0  0  0  0  0  0  0  0  0  0  0  0
    1.8860    4.1450    4.4600 H   0  0  0  0  0  0  0  0  0  0  0  0
   -0.2620    2.9550    1.9490 H   0  0  0  0  0  0  0  0  0  0  0  0
    1.7390    2.8700   -0.2920 H   0  0  0  0  0  0  0  0  0  0  0  0
  1 10  1  0  0  0  0
  1  9  1  0  0  0  0
  2 12  1  0  0  0  0
  2  1  1  0  0  0  0
  3 13  1  0  0  0  0
  3  2  1  0  0  0  0
  4  2  1  0  0  0  0
  4 16  1  0  0  0  0
  5  4  1  0  0  0  0
  5 18  1  1  0  0  0
  6 19  1  0  0  0  0
  6  5  1  0  0  0  0
  7  5  1  0  0  0  0
  7  8  2  0  0  0  0
 11  1  1  0  0  0  0
 14  3  1  0  0  0  0
 15  3  1  0  0  0  0
 17  4  1  0  0  0  0
 20  6  1  0  0  0  0
 21 22  1  0  0  0  0
 21  7  1  0  0  0  0
 22 26  1  0  0  0  0
 22 23  1  0  0  0  0
 23 32  1  0  0  0  0
 23 24  2  0  0  0  0
 25 21  1  0  0  0  0
 27 22  1  0  0  0  0
 28 38  1  0  0  0  0
 28 36  1  0  0  0  0
 29 28  1  0  0  0  0
 29 30  1  0  0  0  0
 30 40  1  0  0  0  0
 30 42  1  0  0  0  0
 31 43  1  1  0  0  0
 31 29  1  0  0  0  0
 32 31  1  0  0  0  0
 33 31  1  0  0  0  0
 33 35  1  0  0  0  0
 34 33  2  0  0  0  0
 37 28  1  0  0  0  0
 39 29  1  0  0  0  0
 41 30  1  0  0  0  0
 44 32  1  0  0  0  0
M  END
$$$$
