LGY.pdb
 OpenBabel07022418453D

 49 49  0  0  1  0  0  0  0  0999 V2000
    2.9710   -3.3530    2.5390 C   0  0  0  0  0  0  0  0  0  0  0  0
    1.8830   -2.3530    2.9850 C   0  0  0  0  0  0  0  0  0  0  0  0
    0.8770   -2.3320    1.8950 C   0  0  0  0  0  0  0  0  0  0  0  0
    2.5900   -1.0880    3.2870 C   0  0  0  0  0  0  0  0  0  0  0  0
    1.8030    0.0700    3.7540 C   0  0  2  0  0  0  0  0  0  0  0  0
    1.0640   -0.2070    4.9630 N   0  0  0  0  0  0  0  0  0  0  0  0
    1.0830    0.8860    2.7690 C   0  0  0  0  0  0  0  0  0  0  0  0
   -0.0020    1.4140    3.1190 O   0  0  0  0  0  0  0  0  0  0  0  0
    3.6370   -3.6010    3.3680 H   0  0  0  0  0  0  0  0  0  0  0  0
    3.5490   -2.8730    1.7090 H   0  0  0  0  0  0  0  0  0  0  0  0
    2.5040   -4.2600    2.1060 H   0  0  0  0  0  0  0  0  0  0  0  0
    1.4090   -2.7410    3.9130 H   0  0  0  0  0  0  0  0  0  0  0  0
   -0.1700   -2.2260    2.2510 H   0  0  0  0  0  0  0  0  0  0  0  0
    1.1390   -1.6230    1.0920 H   0  0  0  0  0  0  0  0  0  0  0  0
    0.8820   -3.3440    1.3930 H   0  0  0  0  0  0  0  0  0  0  0  0
    3.3120   -1.3370    4.1340 H   0  0  0  0  0  0  0  0  0  0  0  0
    3.3100   -0.7940    2.4630 H   0  0  0  0  0  0  0  0  0  0  0  0
    2.6290    0.8110    4.1740 H   0  0  0  0  0  0  0  0  0  0  0  0
    0.2000    0.3630    5.0630 H   0  0  0  0  0  0  0  0  0  0  0  0
    1.6570   -0.2200    5.8210 H   0  0  0  0  0  0  0  0  0  0  0  0
    1.5500    1.1160    1.4460 N   0  0  0  0  0  0  0  0  0  0  0  0
    0.9100    1.9220    0.4620 C   0  0  0  0  0  0  0  0  0  0  0  0
   -0.4250    1.5810    0.0120 C   0  0  0  0  0  0  0  0  0  0  0  0
   -1.0260    2.3200   -0.8700 O   0  0  0  0  0  0  0  0  0  0  0  0
    2.4720    0.6470    1.1330 H   0  0  0  0  0  0  0  0  0  0  0  0
    0.9660    3.0220    0.7920 H   0  0  0  0  0  0  0  0  0  0  0  0
    1.5780    1.9580   -0.4620 H   0  0  0  0  0  0  0  0  0  0  0  0
    0.7240   -0.7860   -5.4060 O   0  0  0  0  0  0  0  0  0  0  0  0
   -0.1050   -0.8590   -4.2720 C   0  0  0  0  0  0  0  0  0  0  0  0
    0.3960   -1.3470   -3.0850 C   0  0  0  0  0  0  0  0  0  0  0  0
   -0.3840   -1.4370   -1.9470 C   0  0  0  0  0  0  0  0  0  0  0  0
   -1.6930   -1.0190   -2.0330 C   0  0  0  0  0  0  0  0  0  0  0  0
   -2.5560   -1.0980   -0.8390 C   0  0  0  0  0  0  0  0  0  0  0  0
   -2.5070    0.1700   -0.0130 C   0  0  2  0  0  0  0  0  0  0  0  0
   -1.1630    0.4650    0.4690 N   0  0  0  0  0  0  0  0  0  0  0  0
   -3.4860    0.1250    1.0830 C   0  0  0  0  0  0  0  0  0  0  0  0
   -4.6890   -0.1210    0.8160 O   0  0  0  0  0  0  0  0  0  0  0  0
   -2.2150   -0.5270   -3.2140 C   0  0  0  0  0  0  0  0  0  0  0  0
   -1.4180   -0.4450   -4.3430 C   0  0  0  0  0  0  0  0  0  0  0  0
   -3.1560    0.3400    2.4120 O   0  0  0  0  0  0  0  0  0  0  0  0
    1.5520   -0.2170   -5.3190 H   0  0  0  0  0  0  0  0  0  0  0  0
    1.4260   -1.6760   -3.0150 H   0  0  0  0  0  0  0  0  0  0  0  0
    0.0410   -1.8290   -1.0200 H   0  0  0  0  0  0  0  0  0  0  0  0
   -3.5920   -1.3570   -1.1030 H   0  0  0  0  0  0  0  0  0  0  0  0
   -2.1550   -1.9070   -0.1870 H   0  0  0  0  0  0  0  0  0  0  0  0
   -2.7780    0.9900   -0.7210 H   0  0  0  0  0  0  0  0  0  0  0  0
   -0.7920   -0.2020    1.1630 H   0  0  0  0  0  0  0  0  0  0  0  0
   -3.2380   -0.1900   -3.3180 H   0  0  0  0  0  0  0  0  0  0  0  0
   -1.7660   -0.0700   -5.2950 H   0  0  0  0  0  0  0  0  0  0  0  0
  1  2  1  0  0  0  0
  1  9  1  0  0  0  0
  2  4  1  0  0  0  0
  2 12  1  0  0  0  0
  3 13  1  0  0  0  0
  3  2  1  0  0  0  0
  4  5  1  0  0  0  0
  4 16  1  0  0  0  0
  5 18  1  1  0  0  0
  5  6  1  0  0  0  0
  6 19  1  0  0  0  0
  6 20  1  0  0  0  0
  7  8  2  0  0  0  0
  7  5  1  0  0  0  0
 10  1  1  0  0  0  0
 11  1  1  0  0  0  0
 14  3  1  0  0  0  0
 15  3  1  0  0  0  0
 17  4  1  0  0  0  0
 21  7  1  0  0  0  0
 22 26  1  0  0  0  0
 22 21  1  0  0  0  0
 23 22  1  0  0  0  0
 23 35  1  0  0  0  0
 24 23  2  0  0  0  0
 25 21  1  0  0  0  0
 27 22  1  0  0  0  0
 28 41  1  0  0  0  0
 28 29  1  0  0  0  0
 29 30  1  0  0  0  0
 30 42  1  0  0  0  0
 30 31  2  0  0  0  0
 31 43  1  0  0  0  0
 32 31  1  0  0  0  0
 32 33  1  0  0  0  0
 33 45  1  0  0  0  0
 33 34  1  0  0  0  0
 34 46  1  6  0  0  0
 34 35  1  0  0  0  0
 34 36  1  0  0  0  0
 35 47  1  0  0  0  0
 36 40  1  0  0  0  0
 37 36  2  0  0  0  0
 38 32  2  0  0  0  0
 39 29  2  0  0  0  0
 39 38  1  0  0  0  0
 44 33  1  0  0  0  0
 48 38  1  0  0  0  0
 49 39  1  0  0  0  0
M  END
$$$$
