LHA.pdb
 OpenBabel07022418453D

 48 48  0  0  1  0  0  0  0  0999 V2000
    1.0880   -4.9740    2.2170 C   0  0  0  0  0  0  0  0  0  0  0  0
    1.0230   -3.5510    2.7820 C   0  0  0  0  0  0  0  0  0  0  0  0
   -0.3650   -3.0400    2.5450 C   0  0  0  0  0  0  0  0  0  0  0  0
    2.1050   -2.7710    2.1250 C   0  0  0  0  0  0  0  0  0  0  0  0
    2.2060   -1.3400    2.5470 C   0  0  2  0  0  0  0  0  0  0  0  0
    2.4480   -1.2070    3.9800 N   0  0  0  0  0  0  0  0  0  0  0  0
    1.1220   -0.4680    2.0840 C   0  0  0  0  0  0  0  0  0  0  0  0
    0.4290    0.2480    2.8850 O   0  0  0  0  0  0  0  0  0  0  0  0
    0.6920   -5.6870    2.9460 H   0  0  0  0  0  0  0  0  0  0  0  0
    0.4740   -4.9630    1.2860 H   0  0  0  0  0  0  0  0  0  0  0  0
    2.1230   -5.2280    1.9140 H   0  0  0  0  0  0  0  0  0  0  0  0
    1.2450   -3.6490    3.8730 H   0  0  0  0  0  0  0  0  0  0  0  0
   -0.6450   -2.2510    3.2890 H   0  0  0  0  0  0  0  0  0  0  0  0
   -0.5090   -2.7100    1.5090 H   0  0  0  0  0  0  0  0  0  0  0  0
   -1.1400   -3.8470    2.7010 H   0  0  0  0  0  0  0  0  0  0  0  0
    2.0100   -2.7870    1.0200 H   0  0  0  0  0  0  0  0  0  0  0  0
    3.0710   -3.2590    2.3780 H   0  0  0  0  0  0  0  0  0  0  0  0
    3.1620   -0.9540    2.0770 H   0  0  0  0  0  0  0  0  0  0  0  0
    2.6060   -0.1670    4.1350 H   0  0  0  0  0  0  0  0  0  0  0  0
    3.3850   -1.6470    4.1520 H   0  0  0  0  0  0  0  0  0  0  0  0
    0.7650   -0.3520    0.7120 N   0  0  0  0  0  0  0  0  0  0  0  0
   -0.3120    0.5240    0.2940 C   0  0  1  0  0  0  0  0  0  0  0  0
    0.3830    1.6310   -0.5210 C   0  0  0  0  0  0  0  0  0  0  0  0
    1.3450    2.2810    0.4070 C   0  0  0  0  0  0  0  0  0  0  0  0
    2.6660    1.9530    0.6410 C   0  0  0  0  0  0  0  0  0  0  0  0
    3.2090    2.7770    1.5540 N   0  0  0  0  0  0  0  0  0  0  0  0
    2.2240    3.6360    1.9020 C   0  0  0  0  0  0  0  0  0  0  0  0
    1.1050    3.3400    1.2150 N   0  0  0  0  0  0  0  0  0  0  0  0
   -1.2190   -0.2470   -0.5870 C   0  0  0  0  0  0  0  0  0  0  0  0
   -0.9850   -1.4480   -0.8670 O   0  0  0  0  0  0  0  0  0  0  0  0
    1.2930   -0.9130   -0.0050 H   0  0  0  0  0  0  0  0  0  0  0  0
   -0.8000    0.9860    1.1640 H   0  0  0  0  0  0  0  0  0  0  0  0
   -0.3300    2.3400   -0.9400 H   0  0  0  0  0  0  0  0  0  0  0  0
    0.9930    1.1010   -1.2930 H   0  0  0  0  0  0  0  0  0  0  0  0
    3.1960    1.1430    0.1580 H   0  0  0  0  0  0  0  0  0  0  0  0
    4.2030    2.7640    1.9300 H   0  0  0  0  0  0  0  0  0  0  0  0
    2.2910    4.4300    2.6040 H   0  0  0  0  0  0  0  0  0  0  0  0
   -4.6510   -0.6100   -1.3430 C   0  0  0  0  0  0  0  0  0  0  0  0
   -3.2880   -0.4070   -2.0200 C   0  0  2  0  0  0  0  0  0  0  0  0
   -2.3910    0.3090   -1.1650 N   0  0  0  0  0  0  0  0  0  0  0  0
   -3.5130    0.2150   -3.3190 C   0  0  0  0  0  0  0  0  0  0  0  0
   -2.9480    1.2870   -3.6180 O   0  0  0  0  0  0  0  0  0  0  0  0
   -4.3530   -0.3620   -4.2470 O   0  0  0  0  0  0  0  0  0  0  0  0
   -5.0200   -1.6430   -1.4790 H   0  0  0  0  0  0  0  0  0  0  0  0
   -4.5780   -0.3890   -0.2560 H   0  0  0  0  0  0  0  0  0  0  0  0
   -5.3880    0.0570   -1.8180 H   0  0  0  0  0  0  0  0  0  0  0  0
   -2.8680   -1.4520   -2.1190 H   0  0  0  0  0  0  0  0  0  0  0  0
   -2.6050    1.3050   -0.9470 H   0  0  0  0  0  0  0  0  0  0  0  0
  1  2  1  0  0  0  0
  1  9  1  0  0  0  0
  2 12  1  0  0  0  0
  3 15  1  0  0  0  0
  3  2  1  0  0  0  0
  3 13  1  0  0  0  0
  4 17  1  0  0  0  0
  4  5  1  0  0  0  0
  4  2  1  0  0  0  0
  5 18  1  6  0  0  0
  5  6  1  0  0  0  0
  6 19  1  0  0  0  0
  6 20  1  0  0  0  0
  7  5  1  0  0  0  0
  7  8  2  0  0  0  0
 10  1  1  0  0  0  0
 11  1  1  0  0  0  0
 14  3  1  0  0  0  0
 16  4  1  0  0  0  0
 21  7  1  0  0  0  0
 22 21  1  0  0  0  0
 22 32  1  1  0  0  0
 23 22  1  0  0  0  0
 23 24  1  0  0  0  0
 24 25  2  0  0  0  0
 24 28  1  0  0  0  0
 25 26  1  0  0  0  0
 26 27  1  0  0  0  0
 26 36  1  0  0  0  0
 27 37  1  0  0  0  0
 28 27  2  0  0  0  0
 29 22  1  0  0  0  0
 30 29  2  0  0  0  0
 31 21  1  0  0  0  0
 33 23  1  0  0  0  0
 34 23  1  0  0  0  0
 35 25  1  0  0  0  0
 38 45  1  0  0  0  0
 39 47  1  6  0  0  0
 39 38  1  0  0  0  0
 39 40  1  0  0  0  0
 40 48  1  0  0  0  0
 40 29  1  0  0  0  0
 41 39  1  0  0  0  0
 42 41  1  0  0  0  0
 43 41  2  0  0  0  0
 44 38  1  0  0  0  0
 46 38  1  0  0  0  0
M  END
$$$$
