LHC.pdb
 OpenBabel07022418463D

 49 49  0  0  1  0  0  0  0  0999 V2000
    1.3230   -5.2310    1.8570 C   0  0  0  0  0  0  0  0  0  0  0  0
    1.4820   -3.8770    2.5680 C   0  0  0  0  0  0  0  0  0  0  0  0
    0.1600   -3.2000    2.4790 C   0  0  0  0  0  0  0  0  0  0  0  0
    2.6340   -3.1460    1.9560 C   0  0  0  0  0  0  0  0  0  0  0  0
    2.8980   -1.7990    2.5700 C   0  0  2  0  0  0  0  0  0  0  0  0
    3.1760   -2.0050    3.9760 N   0  0  0  0  0  0  0  0  0  0  0  0
    1.9000   -0.7720    2.2870 C   0  0  0  0  0  0  0  0  0  0  0  0
    1.3020   -0.1070    3.2020 O   0  0  0  0  0  0  0  0  0  0  0  0
    0.8310   -5.0070    0.8960 H   0  0  0  0  0  0  0  0  0  0  0  0
    2.3030   -5.7380    1.7480 H   0  0  0  0  0  0  0  0  0  0  0  0
    0.6090   -5.8420    2.4610 H   0  0  0  0  0  0  0  0  0  0  0  0
    1.7580   -4.1080    3.6310 H   0  0  0  0  0  0  0  0  0  0  0  0
   -0.6230   -4.0110    2.5830 H   0  0  0  0  0  0  0  0  0  0  0  0
    0.0300   -2.7370    1.4970 H   0  0  0  0  0  0  0  0  0  0  0  0
   -0.0480   -2.4750    3.2900 H   0  0  0  0  0  0  0  0  0  0  0  0
    3.5450   -3.7800    2.1650 H   0  0  0  0  0  0  0  0  0  0  0  0
    2.5660   -3.0730    0.8500 H   0  0  0  0  0  0  0  0  0  0  0  0
    3.8660   -1.4510    2.1030 H   0  0  0  0  0  0  0  0  0  0  0  0
    4.1850   -1.9050    4.2150 H   0  0  0  0  0  0  0  0  0  0  0  0
    2.5380   -1.5170    4.6100 H   0  0  0  0  0  0  0  0  0  0  0  0
    1.5490   -0.4640    0.9710 N   0  0  0  0  0  0  0  0  0  0  0  0
    0.5090    0.6080    0.6940 C   0  0  1  0  0  0  0  0  0  0  0  0
    1.2600    1.6230   -0.1130 C   0  0  0  0  0  0  0  0  0  0  0  0
    0.5250    2.8350   -0.5020 C   0  0  0  0  0  0  0  0  0  0  0  0
    1.0940    3.8700   -1.2870 C   0  0  0  0  0  0  0  0  0  0  0  0
    0.1650    4.8040   -1.4500 N   0  0  0  0  0  0  0  0  0  0  0  0
   -0.9380    4.4040   -0.8120 C   0  0  0  0  0  0  0  0  0  0  0  0
   -0.7250    3.2160   -0.2380 N   0  0  0  0  0  0  0  0  0  0  0  0
   -0.4780   -0.0790   -0.1650 C   0  0  0  0  0  0  0  0  0  0  0  0
   -0.1010   -1.1620   -0.7480 O   0  0  0  0  0  0  0  0  0  0  0  0
    1.9580   -0.9280    0.1400 H   0  0  0  0  0  0  0  0  0  0  0  0
    0.1470    1.0040    1.6280 H   0  0  0  0  0  0  0  0  0  0  0  0
    2.1670    1.9540    0.4820 H   0  0  0  0  0  0  0  0  0  0  0  0
    1.6880    1.1770   -1.0470 H   0  0  0  0  0  0  0  0  0  0  0  0
    2.1140    3.8420   -1.6580 H   0  0  0  0  0  0  0  0  0  0  0  0
    0.3070    5.6800   -1.9850 H   0  0  0  0  0  0  0  0  0  0  0  0
   -1.8670    4.9930   -0.7840 H   0  0  0  0  0  0  0  0  0  0  0  0
   -1.7930    0.3130   -0.4150 N   0  0  0  0  0  0  0  0  0  0  0  0
   -2.6920   -0.4450   -1.3000 C   0  0  1  0  0  0  0  0  0  0  0  0
   -3.8320   -1.0160   -0.4480 C   0  0  0  0  0  0  0  0  0  0  0  0
   -3.1530   -2.1090    0.8280 S   0  0  0  0  0  0  0  0  0  0  0  0
   -3.2490    0.4310   -2.3420 C   0  0  0  0  0  0  0  0  0  0  0  0
   -4.0380   -0.0350   -3.1930 O   0  0  0  0  0  0  0  0  0  0  0  0
   -2.9200    1.7710   -2.4100 O   0  0  0  0  0  0  0  0  0  0  0  0
   -2.2250    1.1370    0.0250 H   0  0  0  0  0  0  0  0  0  0  0  0
   -2.1390   -1.3160   -1.6870 H   0  0  0  0  0  0  0  0  0  0  0  0
   -4.4780   -1.6270   -1.0960 H   0  0  0  0  0  0  0  0  0  0  0  0
   -4.4110   -0.2210    0.0340 H   0  0  0  0  0  0  0  0  0  0  0  0
   -3.0300   -3.4330    0.3650 H   0  0  0  0  0  0  0  0  0  0  0  0
  1 11  1  0  0  0  0
  1  2  1  0  0  0  0
  2 12  1  0  0  0  0
  3  2  1  0  0  0  0
  3 13  1  0  0  0  0
  3 15  1  0  0  0  0
  4 16  1  0  0  0  0
  4  2  1  0  0  0  0
  4  5  1  0  0  0  0
  5 18  1  6  0  0  0
  5  6  1  0  0  0  0
  6 19  1  0  0  0  0
  6 20  1  0  0  0  0
  7  5  1  0  0  0  0
  7  8  2  0  0  0  0
  9  1  1  0  0  0  0
 10  1  1  0  0  0  0
 14  3  1  0  0  0  0
 17  4  1  0  0  0  0
 21  7  1  0  0  0  0
 22 21  1  0  0  0  0
 22 32  1  1  0  0  0
 23 33  1  0  0  0  0
 23 22  1  0  0  0  0
 24 28  1  0  0  0  0
 24 23  1  0  0  0  0
 25 24  2  0  0  0  0
 26 25  1  0  0  0  0
 26 27  1  0  0  0  0
 27 37  1  0  0  0  0
 27 28  2  0  0  0  0
 29 22  1  0  0  0  0
 30 29  2  0  0  0  0
 31 21  1  0  0  0  0
 34 23  1  0  0  0  0
 35 25  1  0  0  0  0
 36 26  1  0  0  0  0
 38 29  1  0  0  0  0
 38 45  1  0  0  0  0
 39 46  1  6  0  0  0
 39 40  1  0  0  0  0
 39 38  1  0  0  0  0
 40 48  1  0  0  0  0
 40 41  1  0  0  0  0
 42 39  1  0  0  0  0
 43 42  2  0  0  0  0
 44 42  1  0  0  0  0
 47 40  1  0  0  0  0
 49 41  1  0  0  0  0
M  END
$$$$
