LHD.pdb
 OpenBabel07022418453D

 51 51  0  0  1  0  0  0  0  0999 V2000
    1.1970   -3.8220    4.9540 C   0  0  0  0  0  0  0  0  0  0  0  0
    1.7170   -2.9550    3.7740 C   0  0  0  0  0  0  0  0  0  0  0  0
    0.6060   -3.0070    2.7640 C   0  0  0  0  0  0  0  0  0  0  0  0
    2.0140   -1.6340    4.3480 C   0  0  0  0  0  0  0  0  0  0  0  0
    2.5610   -0.5530    3.5080 C   0  0  2  0  0  0  0  0  0  0  0  0
    2.7450    0.5930    4.4860 N   0  0  0  0  0  0  0  0  0  0  0  0
    1.7330    0.0150    2.4420 C   0  0  0  0  0  0  0  0  0  0  0  0
    1.0510    1.0970    2.6410 O   0  0  0  0  0  0  0  0  0  0  0  0
    2.0360   -4.1610    5.5800 H   0  0  0  0  0  0  0  0  0  0  0  0
    0.5430   -3.1460    5.5360 H   0  0  0  0  0  0  0  0  0  0  0  0
    0.5790   -4.6470    4.5750 H   0  0  0  0  0  0  0  0  0  0  0  0
    2.6200   -3.5130    3.4190 H   0  0  0  0  0  0  0  0  0  0  0  0
   -0.1370   -3.8320    2.9850 H   0  0  0  0  0  0  0  0  0  0  0  0
    0.9810   -3.2770    1.7500 H   0  0  0  0  0  0  0  0  0  0  0  0
    0.0140   -2.0830    2.7110 H   0  0  0  0  0  0  0  0  0  0  0  0
    1.0440   -1.2800    4.8440 H   0  0  0  0  0  0  0  0  0  0  0  0
    2.6700   -1.7960    5.2610 H   0  0  0  0  0  0  0  0  0  0  0  0
    3.5830   -0.7450    3.1490 H   0  0  0  0  0  0  0  0  0  0  0  0
    3.5870    0.3890    5.0660 H   0  0  0  0  0  0  0  0  0  0  0  0
    2.8930    1.4590    3.9220 H   0  0  0  0  0  0  0  0  0  0  0  0
    1.5830   -0.5030    1.1260 N   0  0  0  0  0  0  0  0  0  0  0  0
    0.7460    0.1620    0.1160 C   0  0  1  0  0  0  0  0  0  0  0  0
    1.6590    0.7770   -0.9170 C   0  0  0  0  0  0  0  0  0  0  0  0
    1.0180    1.4910   -2.0220 C   0  0  0  0  0  0  0  0  0  0  0  0
    0.7060    1.0020   -3.2730 C   0  0  0  0  0  0  0  0  0  0  0  0
    0.1720    2.0170   -3.9960 N   0  0  0  0  0  0  0  0  0  0  0  0
    0.1360    3.1280   -3.2480 C   0  0  0  0  0  0  0  0  0  0  0  0
    0.6520    2.7870   -2.0590 N   0  0  0  0  0  0  0  0  0  0  0  0
   -0.3410   -0.6720   -0.3730 C   0  0  0  0  0  0  0  0  0  0  0  0
   -0.4080   -1.9240   -0.0910 O   0  0  0  0  0  0  0  0  0  0  0  0
    2.0780   -1.3750    0.8570 H   0  0  0  0  0  0  0  0  0  0  0  0
    0.2730    1.0420    0.6450 H   0  0  0  0  0  0  0  0  0  0  0  0
    2.4190    1.4420   -0.4280 H   0  0  0  0  0  0  0  0  0  0  0  0
    2.3020   -0.0550   -1.3480 H   0  0  0  0  0  0  0  0  0  0  0  0
    0.8750   -0.0240   -3.5910 H   0  0  0  0  0  0  0  0  0  0  0  0
   -0.1520    1.9170   -4.9810 H   0  0  0  0  0  0  0  0  0  0  0  0
   -0.2500    4.0720   -3.6090 H   0  0  0  0  0  0  0  0  0  0  0  0
   -1.4350   -0.2100   -1.1920 N   0  0  0  0  0  0  0  0  0  0  0  0
   -2.5030   -1.0940   -1.6170 C   0  0  1  0  0  0  0  0  0  0  0  0
   -3.8660   -0.5650   -1.1940 C   0  0  0  0  0  0  0  0  0  0  0  0
   -3.9330   -0.4410    0.2750 C   0  0  0  0  0  0  0  0  0  0  0  0
   -2.9840   -0.7280    1.0340 O   0  0  0  0  0  0  0  0  0  0  0  0
   -2.4850   -1.4450   -3.0440 C   0  0  0  0  0  0  0  0  0  0  0  0
   -1.6440   -1.0440   -3.8670 O   0  0  0  0  0  0  0  0  0  0  0  0
   -5.0930    0.0180    0.9180 O   0  0  0  0  0  0  0  0  0  0  0  0
   -3.4740   -2.2960   -3.5690 O   0  0  0  0  0  0  0  0  0  0  0  0
   -1.4450    0.8060   -1.4650 H   0  0  0  0  0  0  0  0  0  0  0  0
   -2.3610   -2.0570   -1.0340 H   0  0  0  0  0  0  0  0  0  0  0  0
   -4.0430    0.4280   -1.6640 H   0  0  0  0  0  0  0  0  0  0  0  0
   -4.6070   -1.3210   -1.5460 H   0  0  0  0  0  0  0  0  0  0  0  0
   -5.0260    0.6280    1.7390 H   0  0  0  0  0  0  0  0  0  0  0  0
  1 10  1  0  0  0  0
  1  9  1  0  0  0  0
  2  4  1  0  0  0  0
  2  1  1  0  0  0  0
  3 13  1  0  0  0  0
  3  2  1  0  0  0  0
  4 16  1  0  0  0  0
  4 17  1  0  0  0  0
  5 18  1  6  0  0  0
  5  4  1  0  0  0  0
  5  6  1  0  0  0  0
  6 19  1  0  0  0  0
  7  8  2  0  0  0  0
  7  5  1  0  0  0  0
 11  1  1  0  0  0  0
 12  2  1  0  0  0  0
 14  3  1  0  0  0  0
 15  3  1  0  0  0  0
 20  6  1  0  0  0  0
 21  7  1  0  0  0  0
 22 32  1  1  0  0  0
 22 21  1  0  0  0  0
 23 33  1  0  0  0  0
 23 22  1  0  0  0  0
 24 23  1  0  0  0  0
 25 24  2  0  0  0  0
 26 25  1  0  0  0  0
 26 27  1  0  0  0  0
 27 28  2  0  0  0  0
 28 24  1  0  0  0  0
 29 30  2  0  0  0  0
 29 22  1  0  0  0  0
 31 21  1  0  0  0  0
 34 23  1  0  0  0  0
 35 25  1  0  0  0  0
 36 26  1  0  0  0  0
 37 27  1  0  0  0  0
 38 29  1  0  0  0  0
 39 40  1  0  0  0  0
 39 38  1  0  0  0  0
 39 48  1  1  0  0  0
 40 41  1  0  0  0  0
 41 45  1  0  0  0  0
 41 42  2  0  0  0  0
 43 39  1  0  0  0  0
 44 43  2  0  0  0  0
 45 51  1  0  0  0  0
 46 43  1  0  0  0  0
 47 38  1  0  0  0  0
 49 40  1  0  0  0  0
 50 40  1  0  0  0  0
M  END
$$$$
