LHE.pdb
 OpenBabel07022418463D

 54 54  0  0  1  0  0  0  0  0999 V2000
    0.6030   -1.7290    3.8480 C   0  0  0  0  0  0  0  0  0  0  0  0
    1.9040   -1.2310    4.4380 C   0  0  0  0  0  0  0  0  0  0  0  0
    1.6250   -0.7060    5.8030 C   0  0  0  0  0  0  0  0  0  0  0  0
    2.6450   -0.3620    3.5220 C   0  0  0  0  0  0  0  0  0  0  0  0
    2.0390    0.8920    3.0340 C   0  0  2  0  0  0  0  0  0  0  0  0
    1.6940    1.8200    4.1180 N   0  0  0  0  0  0  0  0  0  0  0  0
    0.9870    0.7870    2.0300 C   0  0  0  0  0  0  0  0  0  0  0  0
   -0.0880    1.4300    2.1410 O   0  0  0  0  0  0  0  0  0  0  0  0
    0.0260   -2.3460    4.5670 H   0  0  0  0  0  0  0  0  0  0  0  0
    0.8270   -2.4350    2.9980 H   0  0  0  0  0  0  0  0  0  0  0  0
   -0.0790   -0.9270    3.5260 H   0  0  0  0  0  0  0  0  0  0  0  0
    2.5280   -2.1670    4.5740 H   0  0  0  0  0  0  0  0  0  0  0  0
    1.8840    0.3420    5.9710 H   0  0  0  0  0  0  0  0  0  0  0  0
    0.5400   -0.8060    6.0810 H   0  0  0  0  0  0  0  0  0  0  0  0
    2.1630   -1.2850    6.6110 H   0  0  0  0  0  0  0  0  0  0  0  0
    2.9070   -0.9680    2.6020 H   0  0  0  0  0  0  0  0  0  0  0  0
    3.6670   -0.1040    3.9350 H   0  0  0  0  0  0  0  0  0  0  0  0
    2.8870    1.4520    2.5170 H   0  0  0  0  0  0  0  0  0  0  0  0
    2.5790    2.1580    4.5480 H   0  0  0  0  0  0  0  0  0  0  0  0
    1.1440    2.6160    3.7850 H   0  0  0  0  0  0  0  0  0  0  0  0
    1.1300   -0.0420    0.8860 N   0  0  0  0  0  0  0  0  0  0  0  0
    0.0990   -0.1590   -0.1270 C   0  0  1  0  0  0  0  0  0  0  0  0
    0.6040    0.4660   -1.4100 C   0  0  0  0  0  0  0  0  0  0  0  0
    0.9100    1.8880   -1.1530 C   0  0  0  0  0  0  0  0  0  0  0  0
    0.0430    2.9460   -1.2850 C   0  0  0  0  0  0  0  0  0  0  0  0
    0.6640    4.0960   -0.9650 N   0  0  0  0  0  0  0  0  0  0  0  0
    1.9140    3.7600   -0.6350 C   0  0  0  0  0  0  0  0  0  0  0  0
    2.0770    2.4080   -0.7460 N   0  0  0  0  0  0  0  0  0  0  0  0
   -0.2800   -1.5810   -0.3180 C   0  0  0  0  0  0  0  0  0  0  0  0
    0.2520   -2.5330    0.3240 O   0  0  0  0  0  0  0  0  0  0  0  0
    2.0000   -0.6140    0.7230 H   0  0  0  0  0  0  0  0  0  0  0  0
   -0.7620    0.4730    0.2260 H   0  0  0  0  0  0  0  0  0  0  0  0
    1.5540   -0.0130   -1.7390 H   0  0  0  0  0  0  0  0  0  0  0  0
   -0.1080    0.3910   -2.2320 H   0  0  0  0  0  0  0  0  0  0  0  0
   -0.9810    2.8630   -1.5970 H   0  0  0  0  0  0  0  0  0  0  0  0
    0.2580    5.0490   -0.9730 H   0  0  0  0  0  0  0  0  0  0  0  0
    2.7040    4.4370   -0.3220 H   0  0  0  0  0  0  0  0  0  0  0  0
   -1.2910   -1.9330   -1.2660 N   0  0  0  0  0  0  0  0  0  0  0  0
   -1.6950   -3.3060   -1.4890 C   0  0  1  0  0  0  0  0  0  0  0  0
   -3.1180   -3.5610   -1.1000 C   0  0  0  0  0  0  0  0  0  0  0  0
   -4.1250   -2.7440   -1.8290 C   0  0  0  0  0  0  0  0  0  0  0  0
   -4.1560   -2.9110   -3.2840 C   0  0  0  0  0  0  0  0  0  0  0  0
   -4.5450   -3.9870   -3.8060 O   0  0  0  0  0  0  0  0  0  0  0  0
   -1.3920   -3.7750   -2.8530 C   0  0  0  0  0  0  0  0  0  0  0  0
   -1.6740   -4.9430   -3.1830 O   0  0  0  0  0  0  0  0  0  0  0  0
   -3.7680   -1.9160   -4.1920 O   0  0  0  0  0  0  0  0  0  0  0  0
   -0.7990   -2.9400   -3.7730 O   0  0  0  0  0  0  0  0  0  0  0  0
   -1.7170   -1.1340   -1.7860 H   0  0  0  0  0  0  0  0  0  0  0  0
   -1.0680   -3.9460   -0.7970 H   0  0  0  0  0  0  0  0  0  0  0  0
   -3.2180   -3.3350   -0.0200 H   0  0  0  0  0  0  0  0  0  0  0  0
   -3.3530   -4.6260   -1.2600 H   0  0  0  0  0  0  0  0  0  0  0  0
   -4.0930   -1.6560   -1.5260 H   0  0  0  0  0  0  0  0  0  0  0  0
   -5.1360   -3.0810   -1.4500 H   0  0  0  0  0  0  0  0  0  0  0  0
   -3.1800   -2.1440   -5.0010 H   0  0  0  0  0  0  0  0  0  0  0  0
  1  2  1  0  0  0  0
  1  9  1  0  0  0  0
  2 12  1  0  0  0  0
  2  3  1  0  0  0  0
  3 13  1  0  0  0  0
  3 14  1  0  0  0  0
  3 15  1  0  0  0  0
  4 17  1  0  0  0  0
  4  2  1  0  0  0  0
  5 18  1  6  0  0  0
  5  4  1  0  0  0  0
  5  6  1  0  0  0  0
  6 19  1  0  0  0  0
  7  8  2  0  0  0  0
  7  5  1  0  0  0  0
 10  1  1  0  0  0  0
 11  1  1  0  0  0  0
 16  4  1  0  0  0  0
 20  6  1  0  0  0  0
 21  7  1  0  0  0  0
 22 32  1  1  0  0  0
 22 21  1  0  0  0  0
 23 24  1  0  0  0  0
 23 22  1  0  0  0  0
 24 28  1  0  0  0  0
 25 24  2  0  0  0  0
 25 26  1  0  0  0  0
 26 27  1  0  0  0  0
 27 37  1  0  0  0  0
 28 27  2  0  0  0  0
 29 22  1  0  0  0  0
 29 30  2  0  0  0  0
 31 21  1  0  0  0  0
 33 23  1  0  0  0  0
 34 23  1  0  0  0  0
 35 25  1  0  0  0  0
 36 26  1  0  0  0  0
 38 29  1  0  0  0  0
 39 38  1  0  0  0  0
 39 40  1  0  0  0  0
 39 49  1  1  0  0  0
 40 50  1  0  0  0  0
 41 52  1  0  0  0  0
 41 53  1  0  0  0  0
 41 40  1  0  0  0  0
 42 41  1  0  0  0  0
 43 42  2  0  0  0  0
 44 39  1  0  0  0  0
 45 44  1  0  0  0  0
 46 42  1  0  0  0  0
 47 44  2  0  0  0  0
 48 38  1  0  0  0  0
 51 40  1  0  0  0  0
 54 46  1  0  0  0  0
M  END
$$$$
