LHG.pdb
 OpenBabel07022418463D

 45 45  0  0  1  0  0  0  0  0999 V2000
   -0.0870   -4.6100   -0.8380 C   0  0  0  0  0  0  0  0  0  0  0  0
    0.6700   -3.7360    0.1640 C   0  0  0  0  0  0  0  0  0  0  0  0
   -0.3010   -3.2270    1.1600 C   0  0  0  0  0  0  0  0  0  0  0  0
    1.4370   -2.7320   -0.6200 C   0  0  0  0  0  0  0  0  0  0  0  0
    2.2480   -1.7750    0.2020 C   0  0  2  0  0  0  0  0  0  0  0  0
    3.1830   -2.5240    0.9770 N   0  0  0  0  0  0  0  0  0  0  0  0
    1.4790   -0.7770    0.9540 C   0  0  0  0  0  0  0  0  0  0  0  0
    1.6000   -0.6710    2.2020 O   0  0  0  0  0  0  0  0  0  0  0  0
   -0.2410   -5.6100   -0.3820 H   0  0  0  0  0  0  0  0  0  0  0  0
   -1.1250   -4.1740   -0.9290 H   0  0  0  0  0  0  0  0  0  0  0  0
    0.3850   -4.6280   -1.8200 H   0  0  0  0  0  0  0  0  0  0  0  0
    1.4050   -4.4410    0.6380 H   0  0  0  0  0  0  0  0  0  0  0  0
    0.2040   -3.2540    2.1690 H   0  0  0  0  0  0  0  0  0  0  0  0
   -0.7590   -2.2670    0.9460 H   0  0  0  0  0  0  0  0  0  0  0  0
   -1.1510   -3.9630    1.2750 H   0  0  0  0  0  0  0  0  0  0  0  0
    0.7780   -2.1880   -1.3600 H   0  0  0  0  0  0  0  0  0  0  0  0
    2.1580   -3.2910   -1.2580 H   0  0  0  0  0  0  0  0  0  0  0  0
    2.8640   -1.1860   -0.5420 H   0  0  0  0  0  0  0  0  0  0  0  0
    2.7690   -2.6970    1.9130 H   0  0  0  0  0  0  0  0  0  0  0  0
    3.4330   -3.4060    0.4760 H   0  0  0  0  0  0  0  0  0  0  0  0
    0.5670    0.1200    0.3420 N   0  0  0  0  0  0  0  0  0  0  0  0
   -0.1480    1.0740    1.1560 C   0  0  1  0  0  0  0  0  0  0  0  0
    0.3180    2.4810    0.8210 C   0  0  0  0  0  0  0  0  0  0  0  0
    1.7840    2.5480    1.1060 C   0  0  0  0  0  0  0  0  0  0  0  0
    2.7880    2.2590    0.2030 C   0  0  0  0  0  0  0  0  0  0  0  0
    3.9780    2.4330    0.8260 N   0  0  0  0  0  0  0  0  0  0  0  0
    3.7400    2.8190    2.0860 C   0  0  0  0  0  0  0  0  0  0  0  0
    2.4070    2.8850    2.2410 N   0  0  0  0  0  0  0  0  0  0  0  0
   -1.5900    0.9030    0.9290 C   0  0  0  0  0  0  0  0  0  0  0  0
   -1.9790    0.0320    0.1130 O   0  0  0  0  0  0  0  0  0  0  0  0
    0.4010    0.1050   -0.6860 H   0  0  0  0  0  0  0  0  0  0  0  0
    0.0630    0.9520    2.2380 H   0  0  0  0  0  0  0  0  0  0  0  0
   -0.1600    3.2170    1.4890 H   0  0  0  0  0  0  0  0  0  0  0  0
    0.1710    2.7470   -0.2250 H   0  0  0  0  0  0  0  0  0  0  0  0
    2.6610    1.9490   -0.8210 H   0  0  0  0  0  0  0  0  0  0  0  0
    4.9380    2.3020    0.4420 H   0  0  0  0  0  0  0  0  0  0  0  0
    4.5100    3.0380    2.8380 H   0  0  0  0  0  0  0  0  0  0  0  0
   -2.5870    1.6760    1.5860 N   0  0  0  0  0  0  0  0  0  0  0  0
   -3.9770    1.4160    1.2820 C   0  0  0  0  0  0  0  0  0  0  0  0
   -4.2890    0.0090    1.6360 C   0  0  0  0  0  0  0  0  0  0  0  0
   -3.4460   -0.7890    2.1290 O   0  0  0  0  0  0  0  0  0  0  0  0
   -5.5690   -0.5310    1.4400 O   0  0  0  0  0  0  0  0  0  0  0  0
   -2.2590    2.3990    2.2620 H   0  0  0  0  0  0  0  0  0  0  0  0
   -4.0730    1.4880    0.1750 H   0  0  0  0  0  0  0  0  0  0  0  0
   -4.6620    2.0940    1.8110 H   0  0  0  0  0  0  0  0  0  0  0  0
  1  9  1  0  0  0  0
  1  2  1  0  0  0  0
  2 12  1  0  0  0  0
  2  3  1  0  0  0  0
  3 15  1  0  0  0  0
  3 13  1  0  0  0  0
  4  2  1  0  0  0  0
  4  5  1  0  0  0  0
  5 18  1  6  0  0  0
  5  7  1  0  0  0  0
  5  6  1  0  0  0  0
  6 19  1  0  0  0  0
  7  8  2  0  0  0  0
 10  1  1  0  0  0  0
 11  1  1  0  0  0  0
 14  3  1  0  0  0  0
 16  4  1  0  0  0  0
 17  4  1  0  0  0  0
 20  6  1  0  0  0  0
 21  7  1  0  0  0  0
 21 22  1  0  0  0  0
 22 32  1  1  0  0  0
 23 24  1  0  0  0  0
 23 22  1  0  0  0  0
 23 33  1  0  0  0  0
 24 28  1  0  0  0  0
 25 26  1  0  0  0  0
 25 24  2  0  0  0  0
 26 27  1  0  0  0  0
 27 28  2  0  0  0  0
 27 37  1  0  0  0  0
 29 22  1  0  0  0  0
 29 38  1  0  0  0  0
 30 29  2  0  0  0  0
 31 21  1  0  0  0  0
 34 23  1  0  0  0  0
 35 25  1  0  0  0  0
 36 26  1  0  0  0  0
 38 43  1  0  0  0  0
 39 38  1  0  0  0  0
 39 40  1  0  0  0  0
 39 45  1  0  0  0  0
 40 41  1  0  0  0  0
 42 40  2  0  0  0  0
 44 39  1  0  0  0  0
M  END
$$$$
