LHH.pdb
 OpenBabel07022418463D

 55 56  0  0  1  0  0  0  0  0999 V2000
   -3.1080   -3.3220    2.9380 C   0  0  0  0  0  0  0  0  0  0  0  0
   -2.7880   -2.1240    3.7860 C   0  0  0  0  0  0  0  0  0  0  0  0
   -2.1350   -2.5980    5.0690 C   0  0  0  0  0  0  0  0  0  0  0  0
   -1.9520   -1.0960    3.0730 C   0  0  0  0  0  0  0  0  0  0  0  0
   -0.6200   -1.6640    2.6270 C   0  0  2  0  0  0  0  0  0  0  0  0
    0.1330   -2.1340    3.7670 N   0  0  0  0  0  0  0  0  0  0  0  0
    0.1600   -0.6240    1.8660 C   0  0  0  0  0  0  0  0  0  0  0  0
    1.2750   -0.3050    2.2970 O   0  0  0  0  0  0  0  0  0  0  0  0
   -3.8390   -3.9440    3.5260 H   0  0  0  0  0  0  0  0  0  0  0  0
   -2.2260   -3.9030    2.6440 H   0  0  0  0  0  0  0  0  0  0  0  0
   -3.6350   -2.9550    2.0150 H   0  0  0  0  0  0  0  0  0  0  0  0
   -3.7480   -1.6510    4.0850 H   0  0  0  0  0  0  0  0  0  0  0  0
   -1.4810   -1.8150    5.4900 H   0  0  0  0  0  0  0  0  0  0  0  0
   -2.9230   -2.7750    5.8570 H   0  0  0  0  0  0  0  0  0  0  0  0
   -1.6320   -3.5730    4.9220 H   0  0  0  0  0  0  0  0  0  0  0  0
   -1.7170   -0.3020    3.8190 H   0  0  0  0  0  0  0  0  0  0  0  0
   -2.5230   -0.6530    2.2610 H   0  0  0  0  0  0  0  0  0  0  0  0
   -0.8350   -2.5230    1.9740 H   0  0  0  0  0  0  0  0  0  0  0  0
    0.4100   -3.1210    3.5970 H   0  0  0  0  0  0  0  0  0  0  0  0
    1.0420   -1.5860    3.8100 H   0  0  0  0  0  0  0  0  0  0  0  0
   -0.3900   -0.0540    0.7070 N   0  0  0  0  0  0  0  0  0  0  0  0
    0.1680    0.9470   -0.1270 C   0  0  1  0  0  0  0  0  0  0  0  0
    1.5070    1.5230    0.3120 C   0  0  0  0  0  0  0  0  0  0  0  0
    1.4160    2.2630    1.5980 C   0  0  0  0  0  0  0  0  0  0  0  0
    2.4260    2.8740    2.3070 C   0  0  0  0  0  0  0  0  0  0  0  0
    1.9500    3.4400    3.4210 N   0  0  0  0  0  0  0  0  0  0  0  0
    0.6400    3.1930    3.4260 C   0  0  0  0  0  0  0  0  0  0  0  0
    0.2930    2.4840    2.3360 N   0  0  0  0  0  0  0  0  0  0  0  0
    0.1510    0.7540   -1.5540 C   0  0  0  0  0  0  0  0  0  0  0  0
    0.6620    1.6740   -2.2800 O   0  0  0  0  0  0  0  0  0  0  0  0
   -1.3690   -0.4310    0.4150 H   0  0  0  0  0  0  0  0  0  0  0  0
   -0.4910    1.8930    0.1390 H   0  0  0  0  0  0  0  0  0  0  0  0
    1.7740    2.2740   -0.4640 H   0  0  0  0  0  0  0  0  0  0  0  0
    2.3070    0.7760    0.3210 H   0  0  0  0  0  0  0  0  0  0  0  0
    3.4670    2.8740    1.9690 H   0  0  0  0  0  0  0  0  0  0  0  0
    2.4920    3.9670    4.1390 H   0  0  0  0  0  0  0  0  0  0  0  0
   -0.0680    3.5020    4.1800 H   0  0  0  0  0  0  0  0  0  0  0  0
   -0.3730   -0.3530   -2.2590 N   0  0  0  0  0  0  0  0  0  0  0  0
   -0.3690   -0.5050   -3.7000 C   0  0  1  0  0  0  0  0  0  0  0  0
    0.0120   -1.8820   -4.1390 C   0  0  0  0  0  0  0  0  0  0  0  0
    1.3450   -2.3490   -3.7550 C   0  0  0  0  0  0  0  0  0  0  0  0
    2.3240   -1.6850   -3.0660 C   0  0  0  0  0  0  0  0  0  0  0  0
    3.3720   -2.5080   -2.9660 N   0  0  0  0  0  0  0  0  0  0  0  0
    3.0750   -3.6610   -3.5710 C   0  0  0  0  0  0  0  0  0  0  0  0
    1.8360   -3.5900   -4.0630 N   0  0  0  0  0  0  0  0  0  0  0  0
   -1.7740   -0.3060   -4.2320 C   0  0  0  0  0  0  0  0  0  0  0  0
   -1.9390   -0.4100   -5.4640 O   0  0  0  0  0  0  0  0  0  0  0  0
   -2.8490   -0.0210   -3.4210 O   0  0  0  0  0  0  0  0  0  0  0  0
   -0.7950   -1.1190   -1.7080 H   0  0  0  0  0  0  0  0  0  0  0  0
    0.2840    0.3080   -4.0890 H   0  0  0  0  0  0  0  0  0  0  0  0
   -0.7750   -2.5730   -3.7600 H   0  0  0  0  0  0  0  0  0  0  0  0
   -0.0530   -1.9210   -5.2590 H   0  0  0  0  0  0  0  0  0  0  0  0
    2.3080   -0.6770   -2.6610 H   0  0  0  0  0  0  0  0  0  0  0  0
    4.2830   -2.3070   -2.4990 H   0  0  0  0  0  0  0  0  0  0  0  0
    3.6940   -4.5570   -3.6820 H   0  0  0  0  0  0  0  0  0  0  0  0
  1  9  1  0  0  0  0
  1  2  1  0  0  0  0
  2 12  1  0  0  0  0
  2  3  1  0  0  0  0
  3 13  1  0  0  0  0
  3 14  1  0  0  0  0
  4  2  1  0  0  0  0
  4 16  1  0  0  0  0
  5 18  1  6  0  0  0
  5  4  1  0  0  0  0
  5  6  1  0  0  0  0
  6 20  1  0  0  0  0
  7  8  2  0  0  0  0
  7  5  1  0  0  0  0
 10  1  1  0  0  0  0
 11  1  1  0  0  0  0
 15  3  1  0  0  0  0
 17  4  1  0  0  0  0
 19  6  1  0  0  0  0
 21  7  1  0  0  0  0
 22 32  1  1  0  0  0
 22 23  1  0  0  0  0
 22 21  1  0  0  0  0
 23 34  1  0  0  0  0
 23 24  1  0  0  0  0
 24 25  2  0  0  0  0
 24 28  1  0  0  0  0
 25 26  1  0  0  0  0
 26 27  1  0  0  0  0
 26 36  1  0  0  0  0
 27 37  1  0  0  0  0
 28 27  2  0  0  0  0
 29 22  1  0  0  0  0
 30 29  2  0  0  0  0
 31 21  1  0  0  0  0
 33 23  1  0  0  0  0
 35 25  1  0  0  0  0
 38 49  1  0  0  0  0
 38 29  1  0  0  0  0
 39 50  1  6  0  0  0
 39 38  1  0  0  0  0
 40 51  1  0  0  0  0
 40 41  1  0  0  0  0
 40 39  1  0  0  0  0
 41 42  2  0  0  0  0
 42 43  1  0  0  0  0
 42 53  1  0  0  0  0
 43 54  1  0  0  0  0
 44 43  1  0  0  0  0
 45 41  1  0  0  0  0
 45 44  2  0  0  0  0
 46 39  1  0  0  0  0
 46 48  1  0  0  0  0
 47 46  2  0  0  0  0
 52 40  1  0  0  0  0
 55 44  1  0  0  0  0
M  END
$$$$
