LHI.pdb
 OpenBabel07022418463D

 57 57  0  0  1  0  0  0  0  0999 V2000
    3.4470   -3.0300    0.7690 C   0  0  0  0  0  0  0  0  0  0  0  0
    3.1560   -1.8130    1.6210 C   0  0  0  0  0  0  0  0  0  0  0  0
    3.8420   -1.9580    2.9370 C   0  0  0  0  0  0  0  0  0  0  0  0
    3.5780   -0.5910    0.8440 C   0  0  0  0  0  0  0  0  0  0  0  0
    3.3290    0.6840    1.6120 C   0  0  2  0  0  0  0  0  0  0  0  0
    4.1060    0.5920    2.8340 N   0  0  0  0  0  0  0  0  0  0  0  0
    1.9160    0.8770    1.9640 C   0  0  0  0  0  0  0  0  0  0  0  0
    1.5560    0.9350    3.1760 O   0  0  0  0  0  0  0  0  0  0  0  0
    4.5370   -3.0890    0.5890 H   0  0  0  0  0  0  0  0  0  0  0  0
    3.0490   -3.9600    1.2290 H   0  0  0  0  0  0  0  0  0  0  0  0
    2.9710   -2.9500   -0.2350 H   0  0  0  0  0  0  0  0  0  0  0  0
    2.0530   -1.7630    1.7250 H   0  0  0  0  0  0  0  0  0  0  0  0
    3.8420   -3.0530    3.1920 H   0  0  0  0  0  0  0  0  0  0  0  0
    3.3130   -1.4470    3.7740 H   0  0  0  0  0  0  0  0  0  0  0  0
    4.8970   -1.6520    2.8410 H   0  0  0  0  0  0  0  0  0  0  0  0
    4.6620   -0.6840    0.6570 H   0  0  0  0  0  0  0  0  0  0  0  0
    3.0420   -0.5670   -0.1050 H   0  0  0  0  0  0  0  0  0  0  0  0
    3.7590    1.5350    1.0390 H   0  0  0  0  0  0  0  0  0  0  0  0
    3.6990    1.1970    3.5900 H   0  0  0  0  0  0  0  0  0  0  0  0
    5.1060    0.8360    2.6730 H   0  0  0  0  0  0  0  0  0  0  0  0
    0.8770    1.0100    0.9890 N   0  0  0  0  0  0  0  0  0  0  0  0
   -0.5020    1.1990    1.4330 C   0  0  1  0  0  0  0  0  0  0  0  0
   -1.0070    2.5670    0.9660 C   0  0  0  0  0  0  0  0  0  0  0  0
   -2.3970    2.8300    1.3770 C   0  0  0  0  0  0  0  0  0  0  0  0
   -3.5640    2.5540    0.7070 C   0  0  0  0  0  0  0  0  0  0  0  0
   -4.6270    2.9710    1.4510 N   0  0  0  0  0  0  0  0  0  0  0  0
   -4.1150    3.5010    2.5720 C   0  0  0  0  0  0  0  0  0  0  0  0
   -2.7750    3.4150    2.5270 N   0  0  0  0  0  0  0  0  0  0  0  0
   -1.3670    0.0920    0.9530 C   0  0  0  0  0  0  0  0  0  0  0  0
   -2.5940    0.0290    1.2200 O   0  0  0  0  0  0  0  0  0  0  0  0
    1.1220    0.9690   -0.0230 H   0  0  0  0  0  0  0  0  0  0  0  0
   -0.5600    1.2150    2.5400 H   0  0  0  0  0  0  0  0  0  0  0  0
   -0.9180    2.6430   -0.1490 H   0  0  0  0  0  0  0  0  0  0  0  0
   -0.3540    3.3620    1.3740 H   0  0  0  0  0  0  0  0  0  0  0  0
   -3.6550    2.0870   -0.2490 H   0  0  0  0  0  0  0  0  0  0  0  0
   -5.6500    2.8940    1.1980 H   0  0  0  0  0  0  0  0  0  0  0  0
   -4.6840    3.9260    3.3790 H   0  0  0  0  0  0  0  0  0  0  0  0
   -2.9580   -3.0830   -3.7800 C   0  0  0  0  0  0  0  0  0  0  0  0
   -2.7280   -3.1620   -2.2710 C   0  0  0  0  0  0  0  0  0  0  0  0
   -1.8190   -2.0580   -1.8060 C   0  0  2  0  0  0  0  0  0  0  0  0
   -0.4780   -2.1920   -2.4880 C   0  0  0  0  0  0  0  0  0  0  0  0
   -1.7430   -2.0580   -0.3040 C   0  0  2  0  0  0  0  0  0  0  0  0
   -0.8630   -0.9770    0.1550 N   0  0  0  0  0  0  0  0  0  0  0  0
   -1.2100   -3.3190    0.1890 C   0  0  0  0  0  0  0  0  0  0  0  0
   -0.0840   -3.3200    0.8030 O   0  0  0  0  0  0  0  0  0  0  0  0
   -1.8880   -4.5270    0.0180 O   0  0  0  0  0  0  0  0  0  0  0  0
   -3.4100   -2.1440   -4.0940 H   0  0  0  0  0  0  0  0  0  0  0  0
   -1.9920   -3.2170   -4.3090 H   0  0  0  0  0  0  0  0  0  0  0  0
   -3.6170   -3.9170   -4.0980 H   0  0  0  0  0  0  0  0  0  0  0  0
   -2.1970   -4.1340   -2.1380 H   0  0  0  0  0  0  0  0  0  0  0  0
   -3.6880   -3.1940   -1.7400 H   0  0  0  0  0  0  0  0  0  0  0  0
   -2.3110   -1.0790   -2.1500 H   0  0  0  0  0  0  0  0  0  0  0  0
   -0.4070   -1.4740   -3.3210 H   0  0  0  0  0  0  0  0  0  0  0  0
   -0.3780   -3.2160   -2.9470 H   0  0  0  0  0  0  0  0  0  0  0  0
    0.3650   -2.1020   -1.7900 H   0  0  0  0  0  0  0  0  0  0  0  0
   -2.7720   -1.8780    0.0670 H   0  0  0  0  0  0  0  0  0  0  0  0
    0.1460   -0.9820   -0.1000 H   0  0  0  0  0  0  0  0  0  0  0  0
  1 10  1  0  0  0  0
  1  2  1  0  0  0  0
  2 12  1  0  0  0  0
  2  3  1  0  0  0  0
  3 13  1  0  0  0  0
  3 14  1  0  0  0  0
  4  5  1  0  0  0  0
  4  2  1  0  0  0  0
  5 18  1  6  0  0  0
  5  7  1  0  0  0  0
  5  6  1  0  0  0  0
  6 19  1  0  0  0  0
  7  8  2  0  0  0  0
  9  1  1  0  0  0  0
 11  1  1  0  0  0  0
 15  3  1  0  0  0  0
 16  4  1  0  0  0  0
 17  4  1  0  0  0  0
 20  6  1  0  0  0  0
 21 22  1  0  0  0  0
 21  7  1  0  0  0  0
 22 32  1  1  0  0  0
 23 34  1  0  0  0  0
 23 24  1  0  0  0  0
 23 22  1  0  0  0  0
 24 28  1  0  0  0  0
 25 24  2  0  0  0  0
 25 26  1  0  0  0  0
 26 27  1  0  0  0  0
 27 37  1  0  0  0  0
 28 27  2  0  0  0  0
 29 30  2  0  0  0  0
 29 22  1  0  0  0  0
 31 21  1  0  0  0  0
 33 23  1  0  0  0  0
 35 25  1  0  0  0  0
 36 26  1  0  0  0  0
 38 39  1  0  0  0  0
 39 50  1  0  0  0  0
 39 40  1  0  0  0  0
 39 51  1  0  0  0  0
 40 52  1  6  0  0  0
 40 42  1  0  0  0  0
 41 40  1  0  0  0  0
 41 55  1  0  0  0  0
 42 56  1  1  0  0  0
 42 43  1  0  0  0  0
 42 44  1  0  0  0  0
 43 29  1  0  0  0  0
 44 45  1  0  0  0  0
 46 44  2  0  0  0  0
 47 38  1  0  0  0  0
 48 38  1  0  0  0  0
 49 38  1  0  0  0  0
 53 41  1  0  0  0  0
 54 41  1  0  0  0  0
 57 43  1  0  0  0  0
M  END
$$$$
