LHK.pdb
 OpenBabel07022418463D

 59 59  0  0  1  0  0  0  0  0999 V2000
    3.9770   -2.1170    1.8940 C   0  0  0  0  0  0  0  0  0  0  0  0
    2.8870   -1.1440    2.3250 C   0  0  0  0  0  0  0  0  0  0  0  0
    2.8600   -1.1890    3.8420 C   0  0  0  0  0  0  0  0  0  0  0  0
    3.3040    0.2160    1.8090 C   0  0  0  0  0  0  0  0  0  0  0  0
    2.3100    1.2890    2.1640 C   0  0  2  0  0  0  0  0  0  0  0  0
    2.1560    1.4060    3.6040 N   0  0  0  0  0  0  0  0  0  0  0  0
    0.9750    1.0290    1.5610 C   0  0  0  0  0  0  0  0  0  0  0  0
   -0.0500    0.9440    2.2820 O   0  0  0  0  0  0  0  0  0  0  0  0
    4.8390   -1.9230    2.5870 H   0  0  0  0  0  0  0  0  0  0  0  0
    4.2820   -1.8560    0.8700 H   0  0  0  0  0  0  0  0  0  0  0  0
    3.6560   -3.1720    2.0010 H   0  0  0  0  0  0  0  0  0  0  0  0
    1.9480   -1.4810    1.8890 H   0  0  0  0  0  0  0  0  0  0  0  0
    3.0020   -2.2740    4.1150 H   0  0  0  0  0  0  0  0  0  0  0  0
    3.7580   -0.6740    4.2390 H   0  0  0  0  0  0  0  0  0  0  0  0
    1.9160   -0.8680    4.2740 H   0  0  0  0  0  0  0  0  0  0  0  0
    3.3830    0.1400    0.7180 H   0  0  0  0  0  0  0  0  0  0  0  0
    4.2780    0.4610    2.2620 H   0  0  0  0  0  0  0  0  0  0  0  0
    2.7050    2.2460    1.7740 H   0  0  0  0  0  0  0  0  0  0  0  0
    3.1310    1.6270    3.9690 H   0  0  0  0  0  0  0  0  0  0  0  0
    1.5910    2.2480    3.8540 H   0  0  0  0  0  0  0  0  0  0  0  0
    0.7990    0.8670    0.1630 N   0  0  0  0  0  0  0  0  0  0  0  0
   -0.5240    0.6180   -0.3530 C   0  0  1  0  0  0  0  0  0  0  0  0
   -0.9780    1.6980   -1.3140 C   0  0  0  0  0  0  0  0  0  0  0  0
   -1.0110    3.0280   -0.6540 C   0  0  0  0  0  0  0  0  0  0  0  0
   -2.1080    3.5660    0.0110 C   0  0  0  0  0  0  0  0  0  0  0  0
   -1.7880    4.7830    0.4860 N   0  0  0  0  0  0  0  0  0  0  0  0
   -0.5130    5.0390    0.1430 C   0  0  0  0  0  0  0  0  0  0  0  0
   -0.0550    3.9670   -0.5480 N   0  0  0  0  0  0  0  0  0  0  0  0
   -0.5130   -0.7070   -1.0620 C   0  0  0  0  0  0  0  0  0  0  0  0
    0.5480   -1.3800   -1.1170 O   0  0  0  0  0  0  0  0  0  0  0  0
    1.6250    0.9310   -0.4710 H   0  0  0  0  0  0  0  0  0  0  0  0
   -1.2850    0.5800    0.4540 H   0  0  0  0  0  0  0  0  0  0  0  0
   -2.0190    1.4540   -1.6120 H   0  0  0  0  0  0  0  0  0  0  0  0
   -0.3850    1.7160   -2.2450 H   0  0  0  0  0  0  0  0  0  0  0  0
   -3.0580    3.0570    0.1120 H   0  0  0  0  0  0  0  0  0  0  0  0
   -2.3840    5.4440    1.0270 H   0  0  0  0  0  0  0  0  0  0  0  0
    0.0330    5.9580    0.3900 H   0  0  0  0  0  0  0  0  0  0  0  0
   -1.6650   -1.2350   -1.6790 N   0  0  0  0  0  0  0  0  0  0  0  0
   -1.7370   -2.5040   -2.3790 C   0  0  1  0  0  0  0  0  0  0  0  0
   -2.8230   -3.3150   -1.7130 C   0  0  0  0  0  0  0  0  0  0  0  0
   -2.5620   -3.5850   -0.2570 C   0  0  0  0  0  0  0  0  0  0  0  0
   -1.2930   -4.3640   -0.0340 C   0  0  0  0  0  0  0  0  0  0  0  0
   -1.0930   -4.5970    1.4460 C   0  0  0  0  0  0  0  0  0  0  0  0
   -2.2270   -5.3410    1.9280 N   0  0  0  0  0  0  0  0  0  0  0  0
   -2.1580   -2.3010   -3.7970 C   0  0  0  0  0  0  0  0  0  0  0  0
   -2.3940   -1.1430   -4.2250 O   0  0  0  0  0  0  0  0  0  0  0  0
   -2.2950   -3.3720   -4.6580 O   0  0  0  0  0  0  0  0  0  0  0  0
   -2.5320   -0.6480   -1.6160 H   0  0  0  0  0  0  0  0  0  0  0  0
   -0.7840   -3.0420   -2.3080 H   0  0  0  0  0  0  0  0  0  0  0  0
   -3.7970   -2.7630   -1.7640 H   0  0  0  0  0  0  0  0  0  0  0  0
   -3.0170   -4.2670   -2.2810 H   0  0  0  0  0  0  0  0  0  0  0  0
   -3.4380   -4.0550    0.1850 H   0  0  0  0  0  0  0  0  0  0  0  0
   -2.4410   -2.5950    0.2370 H   0  0  0  0  0  0  0  0  0  0  0  0
   -1.3190   -5.3480   -0.5750 H   0  0  0  0  0  0  0  0  0  0  0  0
   -0.3990   -3.8430   -0.4210 H   0  0  0  0  0  0  0  0  0  0  0  0
   -0.9800   -3.6110    1.9400 H   0  0  0  0  0  0  0  0  0  0  0  0
   -0.1350   -5.1420    1.5790 H   0  0  0  0  0  0  0  0  0  0  0  0
   -2.7500   -4.7780    2.6300 H   0  0  0  0  0  0  0  0  0  0  0  0
   -2.8210   -5.7320    1.1770 H   0  0  0  0  0  0  0  0  0  0  0  0
  1 11  1  0  0  0  0
  1  2  1  0  0  0  0
  1  9  1  0  0  0  0
  2  3  1  0  0  0  0
  3 13  1  0  0  0  0
  3 14  1  0  0  0  0
  3 15  1  0  0  0  0
  4  5  1  0  0  0  0
  4 17  1  0  0  0  0
  4  2  1  0  0  0  0
  5 18  1  6  0  0  0
  5  6  1  0  0  0  0
  6 20  1  0  0  0  0
  6 19  1  0  0  0  0
  7  5  1  0  0  0  0
  7  8  2  0  0  0  0
 10  1  1  0  0  0  0
 12  2  1  0  0  0  0
 16  4  1  0  0  0  0
 21  7  1  0  0  0  0
 22 21  1  0  0  0  0
 22 32  1  1  0  0  0
 23 24  1  0  0  0  0
 23 22  1  0  0  0  0
 24 28  1  0  0  0  0
 24 25  2  0  0  0  0
 25 35  1  0  0  0  0
 25 26  1  0  0  0  0
 26 36  1  0  0  0  0
 27 37  1  0  0  0  0
 27 26  1  0  0  0  0
 28 27  2  0  0  0  0
 29 22  1  0  0  0  0
 30 29  2  0  0  0  0
 31 21  1  0  0  0  0
 33 23  1  0  0  0  0
 34 23  1  0  0  0  0
 38 48  1  0  0  0  0
 38 29  1  0  0  0  0
 39 49  1  1  0  0  0
 39 40  1  0  0  0  0
 39 38  1  0  0  0  0
 40 41  1  0  0  0  0
 41 42  1  0  0  0  0
 41 52  1  0  0  0  0
 41 53  1  0  0  0  0
 42 43  1  0  0  0  0
 43 57  1  0  0  0  0
 43 44  1  0  0  0  0
 43 56  1  0  0  0  0
 44 58  1  0  0  0  0
 45 39  1  0  0  0  0
 46 45  1  0  0  0  0
 47 45  2  0  0  0  0
 50 40  1  0  0  0  0
 51 40  1  0  0  0  0
 54 42  1  0  0  0  0
 55 42  1  0  0  0  0
 59 44  1  0  0  0  0
M  END
$$$$
