LHL.pdb
 OpenBabel07022418463D

 57 57  0  0  1  0  0  0  0  0999 V2000
    4.1900   -4.0980    1.6540 C   0  0  0  0  0  0  0  0  0  0  0  0
    3.2110   -3.4910    0.6380 C   0  0  0  0  0  0  0  0  0  0  0  0
    1.8900   -3.4510    1.3020 C   0  0  0  0  0  0  0  0  0  0  0  0
    3.7450   -2.1930    0.1450 C   0  0  0  0  0  0  0  0  0  0  0  0
    3.9610   -1.1480    1.1870 C   0  0  2  0  0  0  0  0  0  0  0  0
    4.8920   -1.5730    2.2100 N   0  0  0  0  0  0  0  0  0  0  0  0
    2.7500   -0.5360    1.7460 C   0  0  0  0  0  0  0  0  0  0  0  0
    2.5970   -0.5510    3.0150 O   0  0  0  0  0  0  0  0  0  0  0  0
    5.2060   -3.7890    1.4030 H   0  0  0  0  0  0  0  0  0  0  0  0
    3.9400   -3.7610    2.6790 H   0  0  0  0  0  0  0  0  0  0  0  0
    4.1160   -5.2090    1.6310 H   0  0  0  0  0  0  0  0  0  0  0  0
    3.1810   -4.2020   -0.2110 H   0  0  0  0  0  0  0  0  0  0  0  0
    1.3610   -4.4210    1.0790 H   0  0  0  0  0  0  0  0  0  0  0  0
    1.2180   -2.6590    0.9710 H   0  0  0  0  0  0  0  0  0  0  0  0
    1.9730   -3.4660    2.4320 H   0  0  0  0  0  0  0  0  0  0  0  0
    4.7280   -2.3920   -0.3350 H   0  0  0  0  0  0  0  0  0  0  0  0
    3.1030   -1.7680   -0.6520 H   0  0  0  0  0  0  0  0  0  0  0  0
    4.4990   -0.3010    0.6560 H   0  0  0  0  0  0  0  0  0  0  0  0
    4.6200   -1.2970    3.1640 H   0  0  0  0  0  0  0  0  0  0  0  0
    5.8770   -1.4600    1.9650 H   0  0  0  0  0  0  0  0  0  0  0  0
    1.7300    0.0760    0.9990 N   0  0  0  0  0  0  0  0  0  0  0  0
    0.5690    0.6580    1.6680 C   0  0  1  0  0  0  0  0  0  0  0  0
    0.6260    2.1720    1.5690 C   0  0  0  0  0  0  0  0  0  0  0  0
   -0.5120    2.8400    2.2210 C   0  0  0  0  0  0  0  0  0  0  0  0
   -1.7300    3.2370    1.7170 C   0  0  0  0  0  0  0  0  0  0  0  0
   -2.4710    3.8350    2.6830 N   0  0  0  0  0  0  0  0  0  0  0  0
   -1.7160    3.8130    3.7940 C   0  0  0  0  0  0  0  0  0  0  0  0
   -0.5400    3.2190    3.5300 N   0  0  0  0  0  0  0  0  0  0  0  0
   -0.7110    0.1690    1.1130 C   0  0  0  0  0  0  0  0  0  0  0  0
   -1.8300    0.5200    1.5860 O   0  0  0  0  0  0  0  0  0  0  0  0
    1.8020    0.1130   -0.0250 H   0  0  0  0  0  0  0  0  0  0  0  0
    0.5780    0.4320    2.7530 H   0  0  0  0  0  0  0  0  0  0  0  0
    0.6560    2.5140    0.5150 H   0  0  0  0  0  0  0  0  0  0  0  0
    1.5970    2.5070    2.0220 H   0  0  0  0  0  0  0  0  0  0  0  0
   -2.0590    3.0990    0.6980 H   0  0  0  0  0  0  0  0  0  0  0  0
   -3.4410    4.2350    2.5820 H   0  0  0  0  0  0  0  0  0  0  0  0
   -2.0290    4.2170    4.7440 H   0  0  0  0  0  0  0  0  0  0  0  0
   -4.7780   -0.6680   -1.8280 C   0  0  0  0  0  0  0  0  0  0  0  0
   -3.5550   -1.1490   -2.5640 C   0  0  0  0  0  0  0  0  0  0  0  0
   -3.6880   -0.5740   -3.9830 C   0  0  0  0  0  0  0  0  0  0  0  0
   -2.2780   -0.7300   -1.9380 C   0  0  0  0  0  0  0  0  0  0  0  0
   -2.0710   -1.2020   -0.5370 C   0  0  2  0  0  0  0  0  0  0  0  0
   -0.7920   -0.7410   -0.0050 N   0  0  0  0  0  0  0  0  0  0  0  0
   -2.2680   -2.6370   -0.3180 C   0  0  0  0  0  0  0  0  0  0  0  0
   -1.3390   -3.2900    0.2710 O   0  0  0  0  0  0  0  0  0  0  0  0
   -3.3680   -3.3590   -0.6880 O   0  0  0  0  0  0  0  0  0  0  0  0
   -4.7450    0.4580   -1.8750 H   0  0  0  0  0  0  0  0  0  0  0  0
   -5.7150   -0.9640   -2.3000 H   0  0  0  0  0  0  0  0  0  0  0  0
   -4.7170   -0.9060   -0.7440 H   0  0  0  0  0  0  0  0  0  0  0  0
   -3.6000   -2.2410   -2.7000 H   0  0  0  0  0  0  0  0  0  0  0  0
   -4.1560    0.4340   -3.9240 H   0  0  0  0  0  0  0  0  0  0  0  0
   -4.3240   -1.2170   -4.6170 H   0  0  0  0  0  0  0  0  0  0  0  0
   -2.7010   -0.4790   -4.4720 H   0  0  0  0  0  0  0  0  0  0  0  0
   -1.4110   -0.9860   -2.5740 H   0  0  0  0  0  0  0  0  0  0  0  0
   -2.2680    0.4000   -1.8900 H   0  0  0  0  0  0  0  0  0  0  0  0
   -2.8620   -0.6900    0.0860 H   0  0  0  0  0  0  0  0  0  0  0  0
    0.1180   -1.0520   -0.4180 H   0  0  0  0  0  0  0  0  0  0  0  0
  1 10  1  0  0  0  0
  2  3  1  0  0  0  0
  2  1  1  0  0  0  0
  3 15  1  0  0  0  0
  4  2  1  0  0  0  0
  4  5  1  0  0  0  0
  5 18  1  6  0  0  0
  5  7  1  0  0  0  0
  5  6  1  0  0  0  0
  6 19  1  0  0  0  0
  7  8  2  0  0  0  0
  9  1  1  0  0  0  0
 11  1  1  0  0  0  0
 12  2  1  0  0  0  0
 13  3  1  0  0  0  0
 14  3  1  0  0  0  0
 16  4  1  0  0  0  0
 17  4  1  0  0  0  0
 20  6  1  0  0  0  0
 21 22  1  0  0  0  0
 21  7  1  0  0  0  0
 22 32  1  1  0  0  0
 23 22  1  0  0  0  0
 23 34  1  0  0  0  0
 23 24  1  0  0  0  0
 24 28  1  0  0  0  0
 25 24  2  0  0  0  0
 25 26  1  0  0  0  0
 26 27  1  0  0  0  0
 27 37  1  0  0  0  0
 28 27  2  0  0  0  0
 29 30  2  0  0  0  0
 29 22  1  0  0  0  0
 31 21  1  0  0  0  0
 33 23  1  0  0  0  0
 35 25  1  0  0  0  0
 36 26  1  0  0  0  0
 38 49  1  0  0  0  0
 39 41  1  0  0  0  0
 39 38  1  0  0  0  0
 40 51  1  0  0  0  0
 40 39  1  0  0  0  0
 41 55  1  0  0  0  0
 41 42  1  0  0  0  0
 42 44  1  0  0  0  0
 42 43  1  0  0  0  0
 42 56  1  1  0  0  0
 43 29  1  0  0  0  0
 44 45  1  0  0  0  0
 46 44  2  0  0  0  0
 47 38  1  0  0  0  0
 48 38  1  0  0  0  0
 50 39  1  0  0  0  0
 52 40  1  0  0  0  0
 53 40  1  0  0  0  0
 54 41  1  0  0  0  0
 57 43  1  0  0  0  0
M  END
$$$$
