LHP.pdb
 OpenBabel07022418463D

 52 53  0  0  1  0  0  0  0  0999 V2000
    1.9530   -2.4160    5.8020 C   0  0  0  0  0  0  0  0  0  0  0  0
    1.3570   -1.0400    5.5510 C   0  0  0  0  0  0  0  0  0  0  0  0
    2.4440   -0.0440    5.6960 C   0  0  0  0  0  0  0  0  0  0  0  0
    0.5480   -1.0150    4.3280 C   0  0  0  0  0  0  0  0  0  0  0  0
    1.2050   -1.3490    3.0390 C   0  0  2  0  0  0  0  0  0  0  0  0
    2.2910   -0.5120    2.6550 N   0  0  0  0  0  0  0  0  0  0  0  0
    0.2250   -1.3730    1.9310 C   0  0  0  0  0  0  0  0  0  0  0  0
   -0.8060   -2.0590    2.0710 O   0  0  0  0  0  0  0  0  0  0  0  0
    1.2650   -3.1890    5.4200 H   0  0  0  0  0  0  0  0  0  0  0  0
    2.9420   -2.4990    5.3050 H   0  0  0  0  0  0  0  0  0  0  0  0
    2.1150   -2.5180    6.8950 H   0  0  0  0  0  0  0  0  0  0  0  0
    0.6550   -0.8780    6.4250 H   0  0  0  0  0  0  0  0  0  0  0  0
    2.1690    0.9980    5.4830 H   0  0  0  0  0  0  0  0  0  0  0  0
    3.4000   -0.3450    5.1860 H   0  0  0  0  0  0  0  0  0  0  0  0
    2.7350   -0.0390    6.7920 H   0  0  0  0  0  0  0  0  0  0  0  0
    0.0470   -0.0280    4.2190 H   0  0  0  0  0  0  0  0  0  0  0  0
   -0.2980   -1.7410    4.4610 H   0  0  0  0  0  0  0  0  0  0  0  0
    1.6260   -2.3990    3.0840 H   0  0  0  0  0  0  0  0  0  0  0  0
    3.2320   -0.9440    2.7100 H   0  0  0  0  0  0  0  0  0  0  0  0
    2.3420    0.3980    3.1660 H   0  0  0  0  0  0  0  0  0  0  0  0
    0.4190   -0.6530    0.7370 N   0  0  0  0  0  0  0  0  0  0  0  0
   -0.5230   -0.6440   -0.3830 C   0  0  1  0  0  0  0  0  0  0  0  0
   -0.9390    0.7940   -0.6910 C   0  0  0  0  0  0  0  0  0  0  0  0
   -1.5890    1.3790    0.5020 C   0  0  0  0  0  0  0  0  0  0  0  0
   -2.0890    2.6820    0.5650 C   0  0  0  0  0  0  0  0  0  0  0  0
   -2.6210    2.9030    1.7990 N   0  0  0  0  0  0  0  0  0  0  0  0
   -2.4580    1.7700    2.4880 C   0  0  0  0  0  0  0  0  0  0  0  0
   -1.8450    0.8680    1.7140 N   0  0  0  0  0  0  0  0  0  0  0  0
    0.0810   -1.2640   -1.5880 C   0  0  0  0  0  0  0  0  0  0  0  0
    1.3060   -1.5760   -1.5030 O   0  0  0  0  0  0  0  0  0  0  0  0
    1.2920   -0.0880    0.6440 H   0  0  0  0  0  0  0  0  0  0  0  0
   -1.4380   -1.2010   -0.1420 H   0  0  0  0  0  0  0  0  0  0  0  0
   -0.0560    1.3920   -1.0120 H   0  0  0  0  0  0  0  0  0  0  0  0
   -1.6080    0.7540   -1.5670 H   0  0  0  0  0  0  0  0  0  0  0  0
   -2.0460    3.3780   -0.2490 H   0  0  0  0  0  0  0  0  0  0  0  0
   -3.0690    3.8050    2.1220 H   0  0  0  0  0  0  0  0  0  0  0  0
   -2.7680    1.6090    3.4990 H   0  0  0  0  0  0  0  0  0  0  0  0
   -0.6070   -1.5250   -2.7980 N   0  0  0  0  0  0  0  0  0  0  0  0
   -2.0000   -1.2820   -3.0770 C   0  0  0  0  0  0  0  0  0  0  0  0
   -2.3830   -2.4690   -3.9470 C   0  0  0  0  0  0  0  0  0  0  0  0
   -1.0920   -2.9350   -4.5590 C   0  0  0  0  0  0  0  0  0  0  0  0
   -0.0130   -2.0700   -3.9800 C   0  0  1  0  0  0  0  0  0  0  0  0
    0.3980   -1.0260   -4.9520 C   0  0  0  0  0  0  0  0  0  0  0  0
    0.9270   -1.4290   -6.0210 O   0  0  0  0  0  0  0  0  0  0  0  0
    0.2380    0.3160   -4.7540 O   0  0  0  0  0  0  0  0  0  0  0  0
   -2.1970   -0.3400   -3.6180 H   0  0  0  0  0  0  0  0  0  0  0  0
   -2.6200   -1.2700   -2.1510 H   0  0  0  0  0  0  0  0  0  0  0  0
   -3.1150   -2.1470   -4.7160 H   0  0  0  0  0  0  0  0  0  0  0  0
   -2.8440   -3.2630   -3.3220 H   0  0  0  0  0  0  0  0  0  0  0  0
   -1.0860   -2.8010   -5.6600 H   0  0  0  0  0  0  0  0  0  0  0  0
   -0.9070   -3.9870   -4.2660 H   0  0  0  0  0  0  0  0  0  0  0  0
    0.9200   -2.6510   -3.7550 H   0  0  0  0  0  0  0  0  0  0  0  0
  1 11  1  0  0  0  0
  2  3  1  0  0  0  0
  2  1  1  0  0  0  0
  2 12  1  0  0  0  0
  3 15  1  0  0  0  0
  4 17  1  0  0  0  0
  4  2  1  0  0  0  0
  5 18  1  1  0  0  0
  5  4  1  0  0  0  0
  6 19  1  0  0  0  0
  6  5  1  0  0  0  0
  6 20  1  0  0  0  0
  7  8  2  0  0  0  0
  7  5  1  0  0  0  0
  9  1  1  0  0  0  0
 10  1  1  0  0  0  0
 13  3  1  0  0  0  0
 14  3  1  0  0  0  0
 16  4  1  0  0  0  0
 21  7  1  0  0  0  0
 22 32  1  1  0  0  0
 22 21  1  0  0  0  0
 23 22  1  0  0  0  0
 23 24  1  0  0  0  0
 24 25  2  0  0  0  0
 24 28  1  0  0  0  0
 25 26  1  0  0  0  0
 26 36  1  0  0  0  0
 26 27  1  0  0  0  0
 27 37  1  0  0  0  0
 28 27  2  0  0  0  0
 29 30  2  0  0  0  0
 29 22  1  0  0  0  0
 31 21  1  0  0  0  0
 33 23  1  0  0  0  0
 34 23  1  0  0  0  0
 35 25  1  0  0  0  0
 38 29  1  0  0  0  0
 39 38  1  0  0  0  0
 39 47  1  0  0  0  0
 40 49  1  0  0  0  0
 40 39  1  0  0  0  0
 41 51  1  0  0  0  0
 41 42  1  0  0  0  0
 41 40  1  0  0  0  0
 42 52  1  1  0  0  0
 42 38  1  0  0  0  0
 43 45  1  0  0  0  0
 43 42  1  0  0  0  0
 44 43  2  0  0  0  0
 46 39  1  0  0  0  0
 48 40  1  0  0  0  0
 50 41  1  0  0  0  0
M  END
$$$$
