LHQ.pdb
 OpenBabel07022418463D

 55 55  0  0  1  0  0  0  0  0999 V2000
    3.0970   -3.1420    3.4730 C   0  0  0  0  0  0  0  0  0  0  0  0
    2.1760   -1.9250    3.6310 C   0  0  0  0  0  0  0  0  0  0  0  0
    1.8960   -1.7970    5.1000 C   0  0  0  0  0  0  0  0  0  0  0  0
    2.9370   -0.7510    3.0780 C   0  0  0  0  0  0  0  0  0  0  0  0
    2.1740    0.5440    3.1520 C   0  0  2  0  0  0  0  0  0  0  0  0
    1.8440    0.8780    4.4990 N   0  0  0  0  0  0  0  0  0  0  0  0
    0.9790    0.5320    2.2560 C   0  0  0  0  0  0  0  0  0  0  0  0
   -0.1800    0.7970    2.6770 O   0  0  0  0  0  0  0  0  0  0  0  0
    4.0330   -2.8570    4.0320 H   0  0  0  0  0  0  0  0  0  0  0  0
    3.3880   -3.2700    2.4190 H   0  0  0  0  0  0  0  0  0  0  0  0
    2.6960   -4.0310    3.9580 H   0  0  0  0  0  0  0  0  0  0  0  0
    1.2480   -2.1530    3.1030 H   0  0  0  0  0  0  0  0  0  0  0  0
    2.7510   -1.3750    5.6680 H   0  0  0  0  0  0  0  0  0  0  0  0
    1.7790   -2.8440    5.4930 H   0  0  0  0  0  0  0  0  0  0  0  0
    1.0070   -1.1850    5.3370 H   0  0  0  0  0  0  0  0  0  0  0  0
    3.8690   -0.6510    3.6660 H   0  0  0  0  0  0  0  0  0  0  0  0
    3.2500   -0.9790    2.0400 H   0  0  0  0  0  0  0  0  0  0  0  0
    2.8440    1.3360    2.7570 H   0  0  0  0  0  0  0  0  0  0  0  0
    2.6600    1.2940    4.9980 H   0  0  0  0  0  0  0  0  0  0  0  0
    1.0640    1.5680    4.5770 H   0  0  0  0  0  0  0  0  0  0  0  0
    1.0940    0.2170    0.8740 N   0  0  0  0  0  0  0  0  0  0  0  0
   -0.0460    0.1990   -0.0110 C   0  0  1  0  0  0  0  0  0  0  0  0
    0.1200    1.2510   -1.1180 C   0  0  0  0  0  0  0  0  0  0  0  0
    0.2400    2.6050   -0.5420 C   0  0  0  0  0  0  0  0  0  0  0  0
   -0.8200    3.4460   -0.2890 C   0  0  0  0  0  0  0  0  0  0  0  0
   -0.3870    4.6020    0.2330 N   0  0  0  0  0  0  0  0  0  0  0  0
    0.9450    4.5050    0.3160 C   0  0  0  0  0  0  0  0  0  0  0  0
    1.3310    3.2820   -0.1580 N   0  0  0  0  0  0  0  0  0  0  0  0
   -0.1570   -1.1580   -0.6030 C   0  0  0  0  0  0  0  0  0  0  0  0
    0.6640   -2.0640   -0.3110 O   0  0  0  0  0  0  0  0  0  0  0  0
    2.0300   -0.0090    0.4800 H   0  0  0  0  0  0  0  0  0  0  0  0
   -0.9910    0.4610    0.5110 H   0  0  0  0  0  0  0  0  0  0  0  0
   -0.7520    1.2350   -1.7970 H   0  0  0  0  0  0  0  0  0  0  0  0
    1.0180    1.0170   -1.7360 H   0  0  0  0  0  0  0  0  0  0  0  0
   -1.8670    3.2030   -0.4880 H   0  0  0  0  0  0  0  0  0  0  0  0
   -0.9740    5.4020    0.5120 H   0  0  0  0  0  0  0  0  0  0  0  0
    1.5930    5.2860    0.7020 H   0  0  0  0  0  0  0  0  0  0  0  0
   -5.5500   -1.8920   -3.2890 N   0  0  0  0  0  0  0  0  0  0  0  0
   -4.2980   -2.6110   -3.1730 C   0  0  0  0  0  0  0  0  0  0  0  0
   -3.7420   -2.9240   -4.2490 O   0  0  0  0  0  0  0  0  0  0  0  0
   -3.8370   -2.8830   -1.8240 C   0  0  0  0  0  0  0  0  0  0  0  0
   -2.5250   -3.5260   -1.6210 C   0  0  0  0  0  0  0  0  0  0  0  0
   -1.3110   -2.8290   -2.1160 C   0  0  2  0  0  0  0  0  0  0  0  0
   -1.1910   -1.5040   -1.5280 N   0  0  0  0  0  0  0  0  0  0  0  0
   -1.0540   -2.8530   -3.5540 C   0  0  0  0  0  0  0  0  0  0  0  0
   -0.8800   -1.7730   -4.1670 O   0  0  0  0  0  0  0  0  0  0  0  0
   -0.9880   -4.0310   -4.2820 O   0  0  0  0  0  0  0  0  0  0  0  0
   -6.2970   -2.3500   -3.8220 H   0  0  0  0  0  0  0  0  0  0  0  0
   -5.6290   -0.9820   -2.8430 H   0  0  0  0  0  0  0  0  0  0  0  0
   -4.6060   -3.5990   -1.3750 H   0  0  0  0  0  0  0  0  0  0  0  0
   -3.9720   -1.9760   -1.1640 H   0  0  0  0  0  0  0  0  0  0  0  0
   -2.5640   -4.5340   -2.1350 H   0  0  0  0  0  0  0  0  0  0  0  0
   -2.4520   -3.7640   -0.5140 H   0  0  0  0  0  0  0  0  0  0  0  0
   -0.4320   -3.4390   -1.6730 H   0  0  0  0  0  0  0  0  0  0  0  0
   -1.8640   -0.7500   -1.7640 H   0  0  0  0  0  0  0  0  0  0  0  0
  1  2  1  0  0  0  0
  1 11  1  0  0  0  0
  1  9  1  0  0  0  0
  2  3  1  0  0  0  0
  3 15  1  0  0  0  0
  3 14  1  0  0  0  0
  3 13  1  0  0  0  0
  4  5  1  0  0  0  0
  4  2  1  0  0  0  0
  4 16  1  0  0  0  0
  5 18  1  6  0  0  0
  5  6  1  0  0  0  0
  6 20  1  0  0  0  0
  6 19  1  0  0  0  0
  7  8  2  0  0  0  0
  7  5  1  0  0  0  0
 10  1  1  0  0  0  0
 12  2  1  0  0  0  0
 17  4  1  0  0  0  0
 21  7  1  0  0  0  0
 22 32  1  1  0  0  0
 22 21  1  0  0  0  0
 23 24  1  0  0  0  0
 23 22  1  0  0  0  0
 24 25  2  0  0  0  0
 24 28  1  0  0  0  0
 25 26  1  0  0  0  0
 26 27  1  0  0  0  0
 26 36  1  0  0  0  0
 27 37  1  0  0  0  0
 28 27  2  0  0  0  0
 29 30  2  0  0  0  0
 29 22  1  0  0  0  0
 31 21  1  0  0  0  0
 33 23  1  0  0  0  0
 34 23  1  0  0  0  0
 35 25  1  0  0  0  0
 38 39  1  0  0  0  0
 38 49  1  0  0  0  0
 39 41  1  0  0  0  0
 40 39  2  0  0  0  0
 41 42  1  0  0  0  0
 41 50  1  0  0  0  0
 41 51  1  0  0  0  0
 42 53  1  0  0  0  0
 43 54  1  1  0  0  0
 43 42  1  0  0  0  0
 43 44  1  0  0  0  0
 44 29  1  0  0  0  0
 45 43  1  0  0  0  0
 46 45  1  0  0  0  0
 47 45  2  0  0  0  0
 48 38  1  0  0  0  0
 52 42  1  0  0  0  0
 55 44  1  0  0  0  0
M  END
$$$$
