LHS.pdb
 OpenBabel07022418463D

 49 49  0  0  1  0  0  0  0  0999 V2000
    1.3470   -5.2070    1.9580 C   0  0  0  0  0  0  0  0  0  0  0  0
    1.5490   -3.8320    2.6200 C   0  0  0  0  0  0  0  0  0  0  0  0
    0.2310   -3.1280    2.4870 C   0  0  0  0  0  0  0  0  0  0  0  0
    2.7060   -3.1790    1.9630 C   0  0  0  0  0  0  0  0  0  0  0  0
    3.0840   -1.8280    2.4590 C   0  0  2  0  0  0  0  0  0  0  0  0
    3.4220   -1.8080    3.8620 N   0  0  0  0  0  0  0  0  0  0  0  0
    2.0790   -0.7800    2.2020 C   0  0  0  0  0  0  0  0  0  0  0  0
    1.5770   -0.0890    3.1490 O   0  0  0  0  0  0  0  0  0  0  0  0
    0.7780   -5.0150    1.0260 H   0  0  0  0  0  0  0  0  0  0  0  0
    2.3100   -5.7050    1.7940 H   0  0  0  0  0  0  0  0  0  0  0  0
    0.6640   -5.8050    2.6200 H   0  0  0  0  0  0  0  0  0  0  0  0
    1.7880   -3.9990    3.7020 H   0  0  0  0  0  0  0  0  0  0  0  0
   -0.6290   -3.8490    2.6680 H   0  0  0  0  0  0  0  0  0  0  0  0
    0.1030   -2.7410    1.4700 H   0  0  0  0  0  0  0  0  0  0  0  0
    0.0700   -2.3550    3.2770 H   0  0  0  0  0  0  0  0  0  0  0  0
    3.6090   -3.8380    2.1330 H   0  0  0  0  0  0  0  0  0  0  0  0
    2.5790   -3.1530    0.8540 H   0  0  0  0  0  0  0  0  0  0  0  0
    4.0140   -1.4880    1.9000 H   0  0  0  0  0  0  0  0  0  0  0  0
    3.6230   -2.7500    4.2540 H   0  0  0  0  0  0  0  0  0  0  0  0
    2.7490   -1.2590    4.4350 H   0  0  0  0  0  0  0  0  0  0  0  0
    1.6360   -0.5020    0.8900 N   0  0  0  0  0  0  0  0  0  0  0  0
    0.6130    0.5710    0.6370 C   0  0  1  0  0  0  0  0  0  0  0  0
    1.3770    1.5400   -0.2160 C   0  0  0  0  0  0  0  0  0  0  0  0
    0.7010    2.7680   -0.6350 C   0  0  0  0  0  0  0  0  0  0  0  0
    1.2890    3.7550   -1.4550 C   0  0  0  0  0  0  0  0  0  0  0  0
    0.3860    4.7180   -1.6250 N   0  0  0  0  0  0  0  0  0  0  0  0
   -0.7090    4.3700   -0.9570 C   0  0  0  0  0  0  0  0  0  0  0  0
   -0.5220    3.1870   -0.3550 N   0  0  0  0  0  0  0  0  0  0  0  0
   -0.4710   -0.0610   -0.1300 C   0  0  0  0  0  0  0  0  0  0  0  0
   -0.2070   -1.1660   -0.7390 O   0  0  0  0  0  0  0  0  0  0  0  0
    2.0210   -1.0440    0.1010 H   0  0  0  0  0  0  0  0  0  0  0  0
    0.2640    0.9920    1.5760 H   0  0  0  0  0  0  0  0  0  0  0  0
    2.3290    1.8580    0.3070 H   0  0  0  0  0  0  0  0  0  0  0  0
    1.7650    1.0240   -1.1410 H   0  0  0  0  0  0  0  0  0  0  0  0
    2.2870    3.6770   -1.8360 H   0  0  0  0  0  0  0  0  0  0  0  0
    0.5100    5.6020   -2.1880 H   0  0  0  0  0  0  0  0  0  0  0  0
   -1.6190    4.9440   -0.9000 H   0  0  0  0  0  0  0  0  0  0  0  0
   -3.4580   -1.6770    0.7800 O   0  0  0  0  0  0  0  0  0  0  0  0
   -3.9170   -0.8110   -0.2020 C   0  0  0  0  0  0  0  0  0  0  0  0
   -2.7840   -0.3150   -1.0830 C   0  0  2  0  0  0  0  0  0  0  0  0
   -1.7870    0.4030   -0.2760 N   0  0  0  0  0  0  0  0  0  0  0  0
   -3.3170    0.5880   -2.1260 C   0  0  0  0  0  0  0  0  0  0  0  0
   -2.9000    1.7630   -2.2050 O   0  0  0  0  0  0  0  0  0  0  0  0
   -4.2770    0.1360   -3.0170 O   0  0  0  0  0  0  0  0  0  0  0  0
   -4.1230   -2.3530    1.0200 H   0  0  0  0  0  0  0  0  0  0  0  0
   -4.5020    0.0200    0.2220 H   0  0  0  0  0  0  0  0  0  0  0  0
   -4.5970   -1.3850   -0.8610 H   0  0  0  0  0  0  0  0  0  0  0  0
   -2.2760   -1.2080   -1.4920 H   0  0  0  0  0  0  0  0  0  0  0  0
   -2.1180    1.2380    0.1920 H   0  0  0  0  0  0  0  0  0  0  0  0
  1 11  1  0  0  0  0
  1  2  1  0  0  0  0
  2 12  1  0  0  0  0
  3  2  1  0  0  0  0
  3 13  1  0  0  0  0
  3 15  1  0  0  0  0
  4 16  1  0  0  0  0
  4  5  1  0  0  0  0
  4  2  1  0  0  0  0
  5 18  1  6  0  0  0
  5  6  1  0  0  0  0
  6 19  1  0  0  0  0
  6 20  1  0  0  0  0
  7  5  1  0  0  0  0
  7  8  2  0  0  0  0
  9  1  1  0  0  0  0
 10  1  1  0  0  0  0
 14  3  1  0  0  0  0
 17  4  1  0  0  0  0
 21  7  1  0  0  0  0
 22 21  1  0  0  0  0
 22 32  1  1  0  0  0
 23 33  1  0  0  0  0
 23 22  1  0  0  0  0
 24 28  1  0  0  0  0
 24 23  1  0  0  0  0
 25 24  2  0  0  0  0
 26 25  1  0  0  0  0
 26 27  1  0  0  0  0
 27 37  1  0  0  0  0
 27 28  2  0  0  0  0
 29 22  1  0  0  0  0
 30 29  2  0  0  0  0
 31 21  1  0  0  0  0
 34 23  1  0  0  0  0
 35 25  1  0  0  0  0
 36 26  1  0  0  0  0
 38 45  1  0  0  0  0
 39 46  1  0  0  0  0
 39 38  1  0  0  0  0
 40 48  1  6  0  0  0
 40 41  1  0  0  0  0
 40 39  1  0  0  0  0
 41 29  1  0  0  0  0
 41 49  1  0  0  0  0
 42 40  1  0  0  0  0
 43 42  1  0  0  0  0
 44 42  2  0  0  0  0
 47 39  1  0  0  0  0
M  END
$$$$
