LHT.pdb
 OpenBabel07022418463D

 52 52  0  0  1  0  0  0  0  0999 V2000
    2.3600   -4.2470   -0.0080 C   0  0  0  0  0  0  0  0  0  0  0  0
    1.8430   -3.0010    0.7230 C   0  0  0  0  0  0  0  0  0  0  0  0
    1.0360   -3.4260    1.9090 C   0  0  0  0  0  0  0  0  0  0  0  0
    2.9680   -2.0700    1.0240 C   0  0  0  0  0  0  0  0  0  0  0  0
    2.5600   -0.8250    1.7350 C   0  0  2  0  0  0  0  0  0  0  0  0
    1.9490   -1.1750    3.0020 N   0  0  0  0  0  0  0  0  0  0  0  0
    1.6940    0.0530    0.9020 C   0  0  0  0  0  0  0  0  0  0  0  0
    2.1610    0.4000   -0.2040 O   0  0  0  0  0  0  0  0  0  0  0  0
    2.1980   -4.1560   -1.0980 H   0  0  0  0  0  0  0  0  0  0  0  0
    3.4480   -4.3930    0.1890 H   0  0  0  0  0  0  0  0  0  0  0  0
    1.8260   -5.1620    0.3570 H   0  0  0  0  0  0  0  0  0  0  0  0
    1.1590   -2.4930    0.0120 H   0  0  0  0  0  0  0  0  0  0  0  0
    0.2750   -2.6610    2.2070 H   0  0  0  0  0  0  0  0  0  0  0  0
    1.6230   -3.6930    2.7980 H   0  0  0  0  0  0  0  0  0  0  0  0
    0.4400   -4.3160    1.6140 H   0  0  0  0  0  0  0  0  0  0  0  0
    3.7440   -2.6370    1.5710 H   0  0  0  0  0  0  0  0  0  0  0  0
    3.4460   -1.8180    0.0330 H   0  0  0  0  0  0  0  0  0  0  0  0
    3.5130   -0.2800    2.0050 H   0  0  0  0  0  0  0  0  0  0  0  0
    1.6400   -0.3330    3.5380 H   0  0  0  0  0  0  0  0  0  0  0  0
    2.7170   -1.6930    3.5290 H   0  0  0  0  0  0  0  0  0  0  0  0
    0.4210    0.4920    1.2920 N   0  0  0  0  0  0  0  0  0  0  0  0
   -0.4880    1.3360    0.6070 C   0  0  1  0  0  0  0  0  0  0  0  0
    0.1010    2.3200   -0.3790 C   0  0  0  0  0  0  0  0  0  0  0  0
    0.9940    3.2810    0.3220 C   0  0  0  0  0  0  0  0  0  0  0  0
    0.5620    4.5050    0.8770 C   0  0  0  0  0  0  0  0  0  0  0  0
    1.5930    5.1410    1.4350 N   0  0  0  0  0  0  0  0  0  0  0  0
    2.6820    4.3710    1.2620 C   0  0  0  0  0  0  0  0  0  0  0  0
    2.2980    3.2700    0.5960 N   0  0  0  0  0  0  0  0  0  0  0  0
   -1.6970    0.6450    0.1360 C   0  0  0  0  0  0  0  0  0  0  0  0
   -2.6050    1.2450   -0.4900 O   0  0  0  0  0  0  0  0  0  0  0  0
    0.1220    0.1120    2.2610 H   0  0  0  0  0  0  0  0  0  0  0  0
   -0.8740    2.0870    1.4240 H   0  0  0  0  0  0  0  0  0  0  0  0
    0.6900    1.8360   -1.1730 H   0  0  0  0  0  0  0  0  0  0  0  0
   -0.6940    2.9310   -0.8600 H   0  0  0  0  0  0  0  0  0  0  0  0
   -0.4600    4.8640    0.8470 H   0  0  0  0  0  0  0  0  0  0  0  0
    1.5910    6.0810    1.9330 H   0  0  0  0  0  0  0  0  0  0  0  0
    3.6790    4.6150    1.6060 H   0  0  0  0  0  0  0  0  0  0  0  0
   -4.0820   -3.1240   -1.5850 C   0  0  0  0  0  0  0  0  0  0  0  0
   -2.7740   -2.5300   -1.1120 C   0  0  1  0  0  0  0  0  0  0  0  0
   -2.2040   -1.8770   -2.2030 O   0  0  0  0  0  0  0  0  0  0  0  0
   -3.0750   -1.4670   -0.0780 C   0  0  2  0  0  0  0  0  0  0  0  0
   -1.9190   -0.7560    0.3600 N   0  0  0  0  0  0  0  0  0  0  0  0
   -3.8770   -2.0060    1.0470 C   0  0  0  0  0  0  0  0  0  0  0  0
   -3.5040   -1.8110    2.2300 O   0  0  0  0  0  0  0  0  0  0  0  0
   -5.0230   -2.7190    0.8280 O   0  0  0  0  0  0  0  0  0  0  0  0
   -4.8540   -2.3200   -1.4760 H   0  0  0  0  0  0  0  0  0  0  0  0
   -4.3600   -4.0290   -1.0090 H   0  0  0  0  0  0  0  0  0  0  0  0
   -3.9950   -3.3350   -2.6700 H   0  0  0  0  0  0  0  0  0  0  0  0
   -2.0810   -3.3070   -0.7060 H   0  0  0  0  0  0  0  0  0  0  0  0
   -2.8540   -1.6260   -2.8920 H   0  0  0  0  0  0  0  0  0  0  0  0
   -3.7350   -0.7170   -0.6090 H   0  0  0  0  0  0  0  0  0  0  0  0
   -1.1440   -1.2450    0.8890 H   0  0  0  0  0  0  0  0  0  0  0  0
  1 10  1  0  0  0  0
  1 11  1  0  0  0  0
  1  2  1  0  0  0  0
  2  4  1  0  0  0  0
  2  3  1  0  0  0  0
  3 13  1  0  0  0  0
  3 14  1  0  0  0  0
  4 16  1  0  0  0  0
  4  5  1  0  0  0  0
  5 18  1  1  0  0  0
  5  6  1  0  0  0  0
  6 20  1  0  0  0  0
  6 19  1  0  0  0  0
  7 21  1  0  0  0  0
  7  5  1  0  0  0  0
  8  7  2  0  0  0  0
  9  1  1  0  0  0  0
 12  2  1  0  0  0  0
 15  3  1  0  0  0  0
 17  4  1  0  0  0  0
 21 31  1  0  0  0  0
 22 21  1  0  0  0  0
 22 32  1  1  0  0  0
 23 24  1  0  0  0  0
 23 22  1  0  0  0  0
 24 28  1  0  0  0  0
 24 25  2  0  0  0  0
 25 26  1  0  0  0  0
 26 36  1  0  0  0  0
 27 26  1  0  0  0  0
 27 37  1  0  0  0  0
 28 27  2  0  0  0  0
 29 42  1  0  0  0  0
 29 22  1  0  0  0  0
 30 29  2  0  0  0  0
 33 23  1  0  0  0  0
 34 23  1  0  0  0  0
 35 25  1  0  0  0  0
 38 46  1  0  0  0  0
 38 39  1  0  0  0  0
 38 47  1  0  0  0  0
 39 49  1  1  0  0  0
 39 41  1  0  0  0  0
 40 39  1  0  0  0  0
 41 51  1  6  0  0  0
 41 42  1  0  0  0  0
 41 43  1  0  0  0  0
 42 52  1  0  0  0  0
 43 44  1  0  0  0  0
 45 43  2  0  0  0  0
 48 38  1  0  0  0  0
 50 40  1  0  0  0  0
M  END
$$$$
