LHV.pdb
 OpenBabel07022418463D

 54 54  0  0  1  0  0  0  0  0999 V2000
   -0.0710   -3.3880    4.7690 C   0  0  0  0  0  0  0  0  0  0  0  0
    0.1410   -2.0790    3.9960 C   0  0  0  0  0  0  0  0  0  0  0  0
   -0.5410   -1.0070    4.7960 C   0  0  0  0  0  0  0  0  0  0  0  0
    1.6140   -1.8870    3.8580 C   0  0  0  0  0  0  0  0  0  0  0  0
    2.0280   -0.6510    3.1210 C   0  0  2  0  0  0  0  0  0  0  0  0
    1.5290    0.5390    3.8060 N   0  0  0  0  0  0  0  0  0  0  0  0
    1.5780   -0.6280    1.7080 C   0  0  0  0  0  0  0  0  0  0  0  0
    1.9260   -1.5670    0.9850 O   0  0  0  0  0  0  0  0  0  0  0  0
    0.3230   -4.2440    4.1940 H   0  0  0  0  0  0  0  0  0  0  0  0
    0.4910   -3.2730    5.7270 H   0  0  0  0  0  0  0  0  0  0  0  0
   -1.1610   -3.4520    4.9660 H   0  0  0  0  0  0  0  0  0  0  0  0
   -0.2870   -2.1980    2.9870 H   0  0  0  0  0  0  0  0  0  0  0  0
   -1.5680   -1.4140    5.0360 H   0  0  0  0  0  0  0  0  0  0  0  0
   -0.7180   -0.0710    4.2570 H   0  0  0  0  0  0  0  0  0  0  0  0
    0.0340   -0.8780    5.7480 H   0  0  0  0  0  0  0  0  0  0  0  0
    2.1450   -1.8820    4.8330 H   0  0  0  0  0  0  0  0  0  0  0  0
    2.0190   -2.7710    3.3020 H   0  0  0  0  0  0  0  0  0  0  0  0
    3.1460   -0.6040    3.1910 H   0  0  0  0  0  0  0  0  0  0  0  0
    1.9740    1.4030    3.3690 H   0  0  0  0  0  0  0  0  0  0  0  0
    1.7580    0.5010    4.8240 H   0  0  0  0  0  0  0  0  0  0  0  0
    0.7750    0.4320    1.2000 N   0  0  0  0  0  0  0  0  0  0  0  0
    0.2950    0.5290   -0.1410 C   0  0  1  0  0  0  0  0  0  0  0  0
    1.2850    0.9830   -1.1560 C   0  0  0  0  0  0  0  0  0  0  0  0
    1.7570    2.3360   -0.7640 C   0  0  0  0  0  0  0  0  0  0  0  0
    2.6850    3.1330   -1.4300 C   0  0  0  0  0  0  0  0  0  0  0  0
    2.8420    4.2900   -0.7560 N   0  0  0  0  0  0  0  0  0  0  0  0
    2.0430    4.2510    0.3150 C   0  0  0  0  0  0  0  0  0  0  0  0
    1.3900    3.0780    0.3110 N   0  0  0  0  0  0  0  0  0  0  0  0
   -0.4100   -0.7450   -0.5300 C   0  0  0  0  0  0  0  0  0  0  0  0
   -0.5430   -1.6630    0.3070 O   0  0  0  0  0  0  0  0  0  0  0  0
    0.5520    1.1790    1.9310 H   0  0  0  0  0  0  0  0  0  0  0  0
   -0.5060    1.3460   -0.1100 H   0  0  0  0  0  0  0  0  0  0  0  0
    2.1180    0.2800   -1.3280 H   0  0  0  0  0  0  0  0  0  0  0  0
    0.7550    1.0800   -2.1250 H   0  0  0  0  0  0  0  0  0  0  0  0
    3.1700    2.8090   -2.3480 H   0  0  0  0  0  0  0  0  0  0  0  0
    3.4830    5.0600   -1.0470 H   0  0  0  0  0  0  0  0  0  0  0  0
    1.9430    5.0340    1.0560 H   0  0  0  0  0  0  0  0  0  0  0  0
   -3.7620   -3.0700   -3.0440 C   0  0  0  0  0  0  0  0  0  0  0  0
   -3.0620   -1.8040   -2.5840 C   0  0  0  0  0  0  0  0  0  0  0  0
   -3.8030   -1.2910   -1.3850 C   0  0  0  0  0  0  0  0  0  0  0  0
   -1.6130   -2.1270   -2.2600 C   0  0  2  0  0  0  0  0  0  0  0  0
   -0.9340   -0.9470   -1.8240 N   0  0  0  0  0  0  0  0  0  0  0  0
   -0.9510   -2.8130   -3.3710 C   0  0  0  0  0  0  0  0  0  0  0  0
   -1.4170   -3.8660   -3.8730 O   0  0  0  0  0  0  0  0  0  0  0  0
    0.2240   -2.3090   -3.9030 O   0  0  0  0  0  0  0  0  0  0  0  0
   -3.6480   -3.2260   -4.1500 H   0  0  0  0  0  0  0  0  0  0  0  0
   -4.8540   -2.9730   -2.7930 H   0  0  0  0  0  0  0  0  0  0  0  0
   -3.3940   -3.9200   -2.4520 H   0  0  0  0  0  0  0  0  0  0  0  0
   -3.1180   -1.0450   -3.4000 H   0  0  0  0  0  0  0  0  0  0  0  0
   -3.5180   -1.8630   -0.4770 H   0  0  0  0  0  0  0  0  0  0  0  0
   -3.6280   -0.2010   -1.2770 H   0  0  0  0  0  0  0  0  0  0  0  0
   -4.8850   -1.4330   -1.5230 H   0  0  0  0  0  0  0  0  0  0  0  0
   -1.6430   -2.8370   -1.3940 H   0  0  0  0  0  0  0  0  0  0  0  0
   -0.8130   -0.1620   -2.5180 H   0  0  0  0  0  0  0  0  0  0  0  0
  1 11  1  0  0  0  0
  1 10  1  0  0  0  0
  2  1  1  0  0  0  0
  2  3  1  0  0  0  0
  3 13  1  0  0  0  0
  3 15  1  0  0  0  0
  4  2  1  0  0  0  0
  4 16  1  0  0  0  0
  5 18  1  1  0  0  0
  5  6  1  0  0  0  0
  5  4  1  0  0  0  0
  6 20  1  0  0  0  0
  7  5  1  0  0  0  0
  8  7  2  0  0  0  0
  9  1  1  0  0  0  0
 12  2  1  0  0  0  0
 14  3  1  0  0  0  0
 17  4  1  0  0  0  0
 19  6  1  0  0  0  0
 21  7  1  0  0  0  0
 21 31  1  0  0  0  0
 22 32  1  1  0  0  0
 22 21  1  0  0  0  0
 23 24  1  0  0  0  0
 23 22  1  0  0  0  0
 24 28  1  0  0  0  0
 25 24  2  0  0  0  0
 25 26  1  0  0  0  0
 26 27  1  0  0  0  0
 27 37  1  0  0  0  0
 28 27  2  0  0  0  0
 29 22  1  0  0  0  0
 29 30  2  0  0  0  0
 33 23  1  0  0  0  0
 34 23  1  0  0  0  0
 35 25  1  0  0  0  0
 36 26  1  0  0  0  0
 38 47  1  0  0  0  0
 38 39  1  0  0  0  0
 38 48  1  0  0  0  0
 39 41  1  0  0  0  0
 39 40  1  0  0  0  0
 40 51  1  0  0  0  0
 40 50  1  0  0  0  0
 41 42  1  0  0  0  0
 41 53  1  1  0  0  0
 42 29  1  0  0  0  0
 43 41  1  0  0  0  0
 44 43  1  0  0  0  0
 45 43  2  0  0  0  0
 46 38  1  0  0  0  0
 49 39  1  0  0  0  0
 52 40  1  0  0  0  0
 54 42  1  0  0  0  0
M  END
$$$$
