LHW.pdb
 OpenBabel07022418463D

 62 64  0  0  1  0  0  0  0  0999 V2000
    3.3430   -0.4130    4.5010 C   0  0  0  0  0  0  0  0  0  0  0  0
    2.8860   -1.3460    3.3760 C   0  0  0  0  0  0  0  0  0  0  0  0
    1.7820   -2.2320    3.8530 C   0  0  0  0  0  0  0  0  0  0  0  0
    2.5350   -0.5030    2.1930 C   0  0  0  0  0  0  0  0  0  0  0  0
    1.4310    0.4790    2.4710 C   0  0  2  0  0  0  0  0  0  0  0  0
    0.2500   -0.2270    2.8600 N   0  0  0  0  0  0  0  0  0  0  0  0
    1.2110    1.2460    1.1910 C   0  0  0  0  0  0  0  0  0  0  0  0
    2.1540    1.9060    0.7540 O   0  0  0  0  0  0  0  0  0  0  0  0
    2.4780   -0.1050    5.0940 H   0  0  0  0  0  0  0  0  0  0  0  0
    3.8530    0.4790    4.1000 H   0  0  0  0  0  0  0  0  0  0  0  0
    4.0870   -0.9370    5.1350 H   0  0  0  0  0  0  0  0  0  0  0  0
    3.7430   -1.9970    3.1000 H   0  0  0  0  0  0  0  0  0  0  0  0
    2.2500   -3.0250    4.4890 H   0  0  0  0  0  0  0  0  0  0  0  0
    1.3270   -2.7560    3.0030 H   0  0  0  0  0  0  0  0  0  0  0  0
    1.0500   -1.7300    4.5160 H   0  0  0  0  0  0  0  0  0  0  0  0
    2.1470   -1.1960    1.3890 H   0  0  0  0  0  0  0  0  0  0  0  0
    3.4090   -0.0030    1.7480 H   0  0  0  0  0  0  0  0  0  0  0  0
    1.7150    1.2310    3.2240 H   0  0  0  0  0  0  0  0  0  0  0  0
   -0.5290    0.3670    3.1980 H   0  0  0  0  0  0  0  0  0  0  0  0
   -0.0210   -0.9500    2.1840 H   0  0  0  0  0  0  0  0  0  0  0  0
   -0.0250    1.2010    0.5350 N   0  0  0  0  0  0  0  0  0  0  0  0
   -0.4780    1.8370   -0.6420 C   0  0  1  0  0  0  0  0  0  0  0  0
    0.5080    2.6540   -1.4310 C   0  0  0  0  0  0  0  0  0  0  0  0
    1.0000    3.8510   -0.7440 C   0  0  0  0  0  0  0  0  0  0  0  0
    1.9630    4.6740   -1.3450 C   0  0  0  0  0  0  0  0  0  0  0  0
    2.2190    5.6710   -0.5130 N   0  0  0  0  0  0  0  0  0  0  0  0
    1.4630    5.5060    0.5740 C   0  0  0  0  0  0  0  0  0  0  0  0
    0.7240    4.4050    0.4360 N   0  0  0  0  0  0  0  0  0  0  0  0
   -1.3490    1.0560   -1.5310 C   0  0  0  0  0  0  0  0  0  0  0  0
   -1.7290    1.6590   -2.6000 O   0  0  0  0  0  0  0  0  0  0  0  0
   -0.7530    0.5600    1.0300 H   0  0  0  0  0  0  0  0  0  0  0  0
   -1.1290    2.7320   -0.2040 H   0  0  0  0  0  0  0  0  0  0  0  0
   -0.0180    2.9750   -2.3650 H   0  0  0  0  0  0  0  0  0  0  0  0
    1.3450    2.0120   -1.7790 H   0  0  0  0  0  0  0  0  0  0  0  0
    2.4280    4.5480   -2.3030 H   0  0  0  0  0  0  0  0  0  0  0  0
    2.9090    6.4500   -0.7020 H   0  0  0  0  0  0  0  0  0  0  0  0
    1.4950    6.2030    1.4080 H   0  0  0  0  0  0  0  0  0  0  0  0
   -1.7690   -0.2730   -1.2710 N   0  0  0  0  0  0  0  0  0  0  0  0
   -2.6190   -1.0130   -2.1580 C   0  0  1  0  0  0  0  0  0  0  0  0
   -1.9590   -2.2680   -2.6620 C   0  0  0  0  0  0  0  0  0  0  0  0
   -1.5280   -3.2120   -1.6310 C   0  0  0  0  0  0  0  0  0  0  0  0
   -0.2110   -3.2470   -1.1370 C   0  0  0  0  0  0  0  0  0  0  0  0
   -0.1140   -4.1620   -0.1950 N   0  0  0  0  0  0  0  0  0  0  0  0
   -1.3030   -4.7670   -0.0090 C   0  0  0  0  0  0  0  0  0  0  0  0
   -1.7540   -5.7680    0.8160 C   0  0  0  0  0  0  0  0  0  0  0  0
   -3.0590   -6.1960    0.7720 C   0  0  0  0  0  0  0  0  0  0  0  0
   -3.9340   -5.6120   -0.1160 C   0  0  0  0  0  0  0  0  0  0  0  0
   -3.4880   -4.6070   -0.9460 C   0  0  0  0  0  0  0  0  0  0  0  0
   -2.1780   -4.1730   -0.9050 C   0  0  0  0  0  0  0  0  0  0  0  0
   -3.9680   -1.2490   -1.6280 C   0  0  0  0  0  0  0  0  0  0  0  0
   -4.2700   -0.9590   -0.4360 O   0  0  0  0  0  0  0  0  0  0  0  0
   -4.9750   -1.7950   -2.4050 O   0  0  0  0  0  0  0  0  0  0  0  0
   -1.4370   -0.7140   -0.3950 H   0  0  0  0  0  0  0  0  0  0  0  0
   -2.7960   -0.3180   -3.0470 H   0  0  0  0  0  0  0  0  0  0  0  0
   -1.0840   -1.9420   -3.3000 H   0  0  0  0  0  0  0  0  0  0  0  0
   -2.6580   -2.7450   -3.4130 H   0  0  0  0  0  0  0  0  0  0  0  0
    0.5950   -2.6230   -1.4750 H   0  0  0  0  0  0  0  0  0  0  0  0
    0.7290   -4.4410    0.3770 H   0  0  0  0  0  0  0  0  0  0  0  0
   -1.0510   -6.2220    1.5150 H   0  0  0  0  0  0  0  0  0  0  0  0
   -3.4370   -6.9910    1.4220 H   0  0  0  0  0  0  0  0  0  0  0  0
   -4.9800   -5.9410   -0.1660 H   0  0  0  0  0  0  0  0  0  0  0  0
   -4.1530   -4.1570   -1.6490 H   0  0  0  0  0  0  0  0  0  0  0  0
  1  9  1  0  0  0  0
  1 11  1  0  0  0  0
  2  3  1  0  0  0  0
  2  1  1  0  0  0  0
  3 13  1  0  0  0  0
  3 15  1  0  0  0  0
  4  5  1  0  0  0  0
  4  2  1  0  0  0  0
  5  6  1  0  0  0  0
  5 18  1  1  0  0  0
  6 19  1  0  0  0  0
  7  5  1  0  0  0  0
  8  7  2  0  0  0  0
 10  1  1  0  0  0  0
 12  2  1  0  0  0  0
 14  3  1  0  0  0  0
 16  4  1  0  0  0  0
 17  4  1  0  0  0  0
 20  6  1  0  0  0  0
 21 31  1  0  0  0  0
 21  7  1  0  0  0  0
 22 32  1  1  0  0  0
 22 21  1  0  0  0  0
 23 24  1  0  0  0  0
 23 22  1  0  0  0  0
 24 28  1  0  0  0  0
 25 24  2  0  0  0  0
 25 26  1  0  0  0  0
 26 27  1  0  0  0  0
 27 37  1  0  0  0  0
 28 27  2  0  0  0  0
 29 38  1  0  0  0  0
 29 22  1  0  0  0  0
 30 29  2  0  0  0  0
 33 23  1  0  0  0  0
 34 23  1  0  0  0  0
 35 25  1  0  0  0  0
 36 26  1  0  0  0  0
 38 53  1  0  0  0  0
 39 54  1  6  0  0  0
 39 50  1  0  0  0  0
 39 38  1  0  0  0  0
 40 39  1  0  0  0  0
 40 41  1  0  0  0  0
 41 42  2  0  0  0  0
 41 49  1  0  0  0  0
 42 43  1  0  0  0  0
 43 44  1  0  0  0  0
 43 58  1  0  0  0  0
 44 45  1  0  0  0  0
 45 59  1  0  0  0  0
 46 45  2  0  0  0  0
 46 60  1  0  0  0  0
 47 46  1  0  0  0  0
 48 49  1  0  0  0  0
 48 47  2  0  0  0  0
 49 44  2  0  0  0  0
 50 51  1  0  0  0  0
 52 50  2  0  0  0  0
 55 40  1  0  0  0  0
 56 40  1  0  0  0  0
 57 42  1  0  0  0  0
 61 47  1  0  0  0  0
 62 48  1  0  0  0  0
M  END
$$$$
