LIA.pdb
 OpenBabel07022418463D

 50 49  0  0  1  0  0  0  0  0999 V2000
    1.7350   -5.0620   -0.8140 C   0  0  0  0  0  0  0  0  0  0  0  0
    2.5790   -3.9880   -0.1590 C   0  0  0  0  0  0  0  0  0  0  0  0
    2.4780   -4.0000    1.3270 C   0  0  0  0  0  0  0  0  0  0  0  0
    2.5050   -2.6700   -0.8290 C   0  0  0  0  0  0  0  0  0  0  0  0
    1.1930   -2.0060   -0.9600 C   0  0  2  0  0  0  0  0  0  0  0  0
    1.4690   -0.7270   -1.6620 N   0  0  0  0  0  0  0  0  0  0  0  0
    0.4220   -1.7660    0.2590 C   0  0  0  0  0  0  0  0  0  0  0  0
   -0.0660   -2.6850    0.9590 O   0  0  0  0  0  0  0  0  0  0  0  0
    1.9220   -5.0050   -1.9000 H   0  0  0  0  0  0  0  0  0  0  0  0
    2.1410   -6.0400   -0.4780 H   0  0  0  0  0  0  0  0  0  0  0  0
    0.6820   -5.0240   -0.5340 H   0  0  0  0  0  0  0  0  0  0  0  0
    3.6500   -4.3570   -0.3760 H   0  0  0  0  0  0  0  0  0  0  0  0
    2.5050   -2.9750    1.7580 H   0  0  0  0  0  0  0  0  0  0  0  0
    3.3950   -4.4900    1.7850 H   0  0  0  0  0  0  0  0  0  0  0  0
    1.6470   -4.6290    1.7230 H   0  0  0  0  0  0  0  0  0  0  0  0
    3.2170   -1.9790   -0.3280 H   0  0  0  0  0  0  0  0  0  0  0  0
    2.9410   -2.8200   -1.8660 H   0  0  0  0  0  0  0  0  0  0  0  0
    0.5070   -2.5440   -1.6790 H   0  0  0  0  0  0  0  0  0  0  0  0
    0.5810   -0.1950   -1.7850 H   0  0  0  0  0  0  0  0  0  0  0  0
    1.9030   -0.9120   -2.5770 H   0  0  0  0  0  0  0  0  0  0  0  0
    1.8930    1.8280    1.8510 C   0  0  0  0  0  0  0  0  0  0  0  0
    0.7220    1.8230    2.7780 C   0  0  0  0  0  0  0  0  0  0  0  0
    0.1350    0.4840    3.0620 C   0  0  2  0  0  0  0  0  0  0  0  0
    1.1810   -0.4160    3.6920 C   0  0  0  0  0  0  0  0  0  0  0  0
   -0.5900   -0.1720    1.9440 C   0  0  2  0  0  0  0  0  0  0  0  0
    0.1570   -0.4360    0.7620 N   0  0  0  0  0  0  0  0  0  0  0  0
   -1.8830    0.5350    1.6550 C   0  0  0  0  0  0  0  0  0  0  0  0
   -2.6360    0.8260    2.6190 O   0  0  0  0  0  0  0  0  0  0  0  0
    2.7490    2.4470    2.2600 H   0  0  0  0  0  0  0  0  0  0  0  0
    1.6090    2.3570    0.9200 H   0  0  0  0  0  0  0  0  0  0  0  0
    2.3470    0.8310    1.6910 H   0  0  0  0  0  0  0  0  0  0  0  0
   -0.0670    2.5510    2.4710 H   0  0  0  0  0  0  0  0  0  0  0  0
    1.0910    2.2230    3.7680 H   0  0  0  0  0  0  0  0  0  0  0  0
   -0.6240    0.6460    3.8830 H   0  0  0  0  0  0  0  0  0  0  0  0
    1.9820    0.1970    4.1530 H   0  0  0  0  0  0  0  0  0  0  0  0
    0.7050   -1.0880    4.4360 H   0  0  0  0  0  0  0  0  0  0  0  0
    1.6330   -1.0600    2.9100 H   0  0  0  0  0  0  0  0  0  0  0  0
   -0.9180   -1.1830    2.3380 H   0  0  0  0  0  0  0  0  0  0  0  0
    0.5450    0.3430    0.2030 H   0  0  0  0  0  0  0  0  0  0  0  0
   -3.3120    2.9130   -0.5920 C   0  0  0  0  0  0  0  0  0  0  0  0
   -3.5180    1.5610    0.0300 C   0  0  2  0  0  0  0  0  0  0  0  0
   -2.2890    0.8860    0.3430 N   0  0  0  0  0  0  0  0  0  0  0  0
   -4.4290    0.7510   -0.8020 C   0  0  0  0  0  0  0  0  0  0  0  0
   -4.1740   -0.4120   -1.2060 O   0  0  0  0  0  0  0  0  0  0  0  0
   -5.6440    1.3140   -1.1590 O   0  0  0  0  0  0  0  0  0  0  0  0
   -3.4100    3.7200    0.1620 H   0  0  0  0  0  0  0  0  0  0  0  0
   -2.2730    2.9800   -0.9790 H   0  0  0  0  0  0  0  0  0  0  0  0
   -4.0630    3.1470   -1.3830 H   0  0  0  0  0  0  0  0  0  0  0  0
   -4.0440    1.7310    1.0130 H   0  0  0  0  0  0  0  0  0  0  0  0
   -1.6140    0.6150   -0.4280 H   0  0  0  0  0  0  0  0  0  0  0  0
  1 11  1  0  0  0  0
  1 10  1  0  0  0  0
  1  2  1  0  0  0  0
  2  3  1  0  0  0  0
  3 15  1  0  0  0  0
  3 13  1  0  0  0  0
  3 14  1  0  0  0  0
  4 16  1  0  0  0  0
  4  2  1  0  0  0  0
  5 18  1  6  0  0  0
  5  4  1  0  0  0  0
  5  7  1  0  0  0  0
  6  5  1  0  0  0  0
  7 26  1  0  0  0  0
  7  8  2  0  0  0  0
  9  1  1  0  0  0  0
 12  2  1  0  0  0  0
 17  4  1  0  0  0  0
 19  6  1  0  0  0  0
 20  6  1  0  0  0  0
 21 29  1  0  0  0  0
 21 22  1  0  0  0  0
 22 23  1  0  0  0  0
 22 33  1  0  0  0  0
 23 24  1  0  0  0  0
 23 34  1  1  0  0  0
 24 35  1  0  0  0  0
 24 36  1  0  0  0  0
 25 38  1  1  0  0  0
 25 23  1  0  0  0  0
 26 25  1  0  0  0  0
 27 25  1  0  0  0  0
 27 28  2  0  0  0  0
 30 21  1  0  0  0  0
 31 21  1  0  0  0  0
 32 22  1  0  0  0  0
 37 24  1  0  0  0  0
 39 26  1  0  0  0  0
 40 41  1  0  0  0  0
 40 46  1  0  0  0  0
 41 42  1  0  0  0  0
 41 49  1  1  0  0  0
 42 27  1  0  0  0  0
 43 41  1  0  0  0  0
 44 43  2  0  0  0  0
 45 43  1  0  0  0  0
 47 40  1  0  0  0  0
 48 40  1  0  0  0  0
 50 42  1  0  0  0  0
M  END
$$$$
