LIC.pdb
 OpenBabel07022418463D

 51 50  0  0  1  0  0  0  0  0999 V2000
    1.3990   -4.5320    1.1070 C   0  0  0  0  0  0  0  0  0  0  0  0
    1.7890   -3.2530    1.8250 C   0  0  0  0  0  0  0  0  0  0  0  0
    0.6490   -2.7760    2.6410 C   0  0  0  0  0  0  0  0  0  0  0  0
    2.3290   -2.3060    0.8050 C   0  0  0  0  0  0  0  0  0  0  0  0
    2.7550   -0.9780    1.3780 C   0  0  2  0  0  0  0  0  0  0  0  0
    3.7790   -1.1230    2.3810 N   0  0  0  0  0  0  0  0  0  0  0  0
    1.6500   -0.1040    1.7820 C   0  0  0  0  0  0  0  0  0  0  0  0
    1.5810    0.3330    2.9460 O   0  0  0  0  0  0  0  0  0  0  0  0
    1.0190   -5.2980    1.8170 H   0  0  0  0  0  0  0  0  0  0  0  0
    0.5700   -4.2770    0.4000 H   0  0  0  0  0  0  0  0  0  0  0  0
    2.2420   -4.8840    0.5050 H   0  0  0  0  0  0  0  0  0  0  0  0
    2.6030   -3.5740    2.5420 H   0  0  0  0  0  0  0  0  0  0  0  0
    1.0170   -2.4230    3.6390 H   0  0  0  0  0  0  0  0  0  0  0  0
    0.0240   -3.6820    2.9040 H   0  0  0  0  0  0  0  0  0  0  0  0
   -0.0390   -2.0770    2.1730 H   0  0  0  0  0  0  0  0  0  0  0  0
    1.6000   -2.1370    0.0140 H   0  0  0  0  0  0  0  0  0  0  0  0
    3.2310   -2.7700    0.3610 H   0  0  0  0  0  0  0  0  0  0  0  0
    3.2640   -0.4440    0.5180 H   0  0  0  0  0  0  0  0  0  0  0  0
    4.2240   -0.1670    2.5060 H   0  0  0  0  0  0  0  0  0  0  0  0
    4.5450   -1.7030    1.9380 H   0  0  0  0  0  0  0  0  0  0  0  0
    1.0430    2.0770   -1.4690 C   0  0  0  0  0  0  0  0  0  0  0  0
   -0.2230    2.5760   -0.8630 C   0  0  0  0  0  0  0  0  0  0  0  0
   -0.3060    2.5220    0.6200 C   0  0  2  0  0  0  0  0  0  0  0  0
    0.7430    3.3000    1.3460 C   0  0  0  0  0  0  0  0  0  0  0  0
   -0.4600    1.1140    1.1900 C   0  0  2  0  0  0  0  0  0  0  0  0
    0.6470    0.2530    0.8360 N   0  0  0  0  0  0  0  0  0  0  0  0
   -1.7720    0.5450    0.8180 C   0  0  0  0  0  0  0  0  0  0  0  0
   -2.7940    1.2090    1.0930 O   0  0  0  0  0  0  0  0  0  0  0  0
    1.4860    2.8470   -2.1740 H   0  0  0  0  0  0  0  0  0  0  0  0
    0.9460    1.1740   -2.0960 H   0  0  0  0  0  0  0  0  0  0  0  0
    1.8590    1.8720   -0.7320 H   0  0  0  0  0  0  0  0  0  0  0  0
   -1.1330    2.0880   -1.2730 H   0  0  0  0  0  0  0  0  0  0  0  0
   -0.3440    3.6590   -1.1500 H   0  0  0  0  0  0  0  0  0  0  0  0
   -1.2910    3.0230    0.8950 H   0  0  0  0  0  0  0  0  0  0  0  0
    1.6670    2.6890    1.5310 H   0  0  0  0  0  0  0  0  0  0  0  0
    0.3460    3.5520    2.3610 H   0  0  0  0  0  0  0  0  0  0  0  0
    0.9710    4.2220    0.7910 H   0  0  0  0  0  0  0  0  0  0  0  0
   -0.4370    1.2380    2.3100 H   0  0  0  0  0  0  0  0  0  0  0  0
    0.7210   -0.1220   -0.1160 H   0  0  0  0  0  0  0  0  0  0  0  0
   -1.8470   -0.7150    0.1670 N   0  0  0  0  0  0  0  0  0  0  0  0
   -3.1310   -1.2930   -0.2140 C   0  0  1  0  0  0  0  0  0  0  0  0
   -3.0900   -1.3680   -1.7470 C   0  0  0  0  0  0  0  0  0  0  0  0
   -4.6000   -2.0610   -2.4230 S   0  0  0  0  0  0  0  0  0  0  0  0
   -3.2200   -2.6480    0.3480 C   0  0  0  0  0  0  0  0  0  0  0  0
   -2.2820   -3.1170    1.0210 O   0  0  0  0  0  0  0  0  0  0  0  0
   -4.3460   -3.4190    0.1370 O   0  0  0  0  0  0  0  0  0  0  0  0
   -0.9910   -1.2780   -0.0640 H   0  0  0  0  0  0  0  0  0  0  0  0
   -3.9630   -0.6250    0.0920 H   0  0  0  0  0  0  0  0  0  0  0  0
   -2.2290   -2.0210   -1.9950 H   0  0  0  0  0  0  0  0  0  0  0  0
   -2.8920   -0.3310   -2.1010 H   0  0  0  0  0  0  0  0  0  0  0  0
   -5.6090   -2.2460   -1.4870 H   0  0  0  0  0  0  0  0  0  0  0  0
  1  9  1  0  0  0  0
  1  2  1  0  0  0  0
  2 12  1  0  0  0  0
  2  3  1  0  0  0  0
  3 14  1  0  0  0  0
  3 13  1  0  0  0  0
  4  5  1  0  0  0  0
  4  2  1  0  0  0  0
  5 18  1  6  0  0  0
  5  7  1  0  0  0  0
  5  6  1  0  0  0  0
  6 19  1  0  0  0  0
  7  8  2  0  0  0  0
 10  1  1  0  0  0  0
 11  1  1  0  0  0  0
 15  3  1  0  0  0  0
 16  4  1  0  0  0  0
 17  4  1  0  0  0  0
 20  6  1  0  0  0  0
 21 22  1  0  0  0  0
 21 31  1  0  0  0  0
 22 23  1  0  0  0  0
 23 34  1  1  0  0  0
 23 25  1  0  0  0  0
 23 24  1  0  0  0  0
 24 35  1  0  0  0  0
 24 36  1  0  0  0  0
 25 38  1  1  0  0  0
 26 25  1  0  0  0  0
 26  7  1  0  0  0  0
 27 28  2  0  0  0  0
 27 25  1  0  0  0  0
 29 21  1  0  0  0  0
 30 21  1  0  0  0  0
 32 22  1  0  0  0  0
 33 22  1  0  0  0  0
 37 24  1  0  0  0  0
 39 26  1  0  0  0  0
 40 27  1  0  0  0  0
 41 48  1  1  0  0  0
 41 40  1  0  0  0  0
 41 44  1  0  0  0  0
 42 41  1  0  0  0  0
 43 42  1  0  0  0  0
 43 51  1  0  0  0  0
 44 45  1  0  0  0  0
 46 44  2  0  0  0  0
 47 40  1  0  0  0  0
 49 42  1  0  0  0  0
 50 42  1  0  0  0  0
M  END
$$$$
