LID.pdb
 OpenBabel07022418463D

 53 52  0  0  1  0  0  0  0  0999 V2000
    3.1530   -3.3070   -1.1930 C   0  0  0  0  0  0  0  0  0  0  0  0
    3.0820   -2.5590    0.1440 C   0  0  0  0  0  0  0  0  0  0  0  0
    1.9070   -3.0950    0.8840 C   0  0  0  0  0  0  0  0  0  0  0  0
    3.0370   -1.1020   -0.1790 C   0  0  0  0  0  0  0  0  0  0  0  0
    2.9630   -0.2000    1.0060 C   0  0  2  0  0  0  0  0  0  0  0  0
    4.1490   -0.4620    1.8030 N   0  0  0  0  0  0  0  0  0  0  0  0
    1.7300   -0.2360    1.7790 C   0  0  0  0  0  0  0  0  0  0  0  0
    1.7670   -0.5700    3.0110 O   0  0  0  0  0  0  0  0  0  0  0  0
    2.3440   -2.8700   -1.8210 H   0  0  0  0  0  0  0  0  0  0  0  0
    4.1210   -3.0810   -1.6920 H   0  0  0  0  0  0  0  0  0  0  0  0
    2.9540   -4.3760   -1.0780 H   0  0  0  0  0  0  0  0  0  0  0  0
    4.0070   -2.8450    0.6940 H   0  0  0  0  0  0  0  0  0  0  0  0
    2.0340   -3.1020    1.9840 H   0  0  0  0  0  0  0  0  0  0  0  0
    0.9990   -2.6140    0.5320 H   0  0  0  0  0  0  0  0  0  0  0  0
    1.8120   -4.1870    0.6130 H   0  0  0  0  0  0  0  0  0  0  0  0
    2.2720   -0.9190   -0.9540 H   0  0  0  0  0  0  0  0  0  0  0  0
    4.0210   -0.8700   -0.6850 H   0  0  0  0  0  0  0  0  0  0  0  0
    3.0900    0.8520    0.6170 H   0  0  0  0  0  0  0  0  0  0  0  0
    4.8340   -1.0640    1.3310 H   0  0  0  0  0  0  0  0  0  0  0  0
    3.9450   -0.6870    2.7830 H   0  0  0  0  0  0  0  0  0  0  0  0
   -0.2280    2.9060    0.4320 C   0  0  0  0  0  0  0  0  0  0  0  0
   -1.4720    2.3800    1.0830 C   0  0  0  0  0  0  0  0  0  0  0  0
   -1.2520    1.4750    2.2460 C   0  0  2  0  0  0  0  0  0  0  0  0
   -0.4930    2.0980    3.3730 C   0  0  0  0  0  0  0  0  0  0  0  0
   -0.7550    0.0830    1.8720 C   0  0  2  0  0  0  0  0  0  0  0  0
    0.4870    0.0950    1.1820 N   0  0  0  0  0  0  0  0  0  0  0  0
   -1.8260   -0.7140    1.2760 C   0  0  0  0  0  0  0  0  0  0  0  0
   -2.9290   -0.7570    1.8920 O   0  0  0  0  0  0  0  0  0  0  0  0
   -0.1640    2.4960   -0.5940 H   0  0  0  0  0  0  0  0  0  0  0  0
    0.7120    2.6020    0.9510 H   0  0  0  0  0  0  0  0  0  0  0  0
   -0.2620    4.0160    0.2880 H   0  0  0  0  0  0  0  0  0  0  0  0
   -2.0830    3.2870    1.3780 H   0  0  0  0  0  0  0  0  0  0  0  0
   -2.1050    1.9120    0.2870 H   0  0  0  0  0  0  0  0  0  0  0  0
   -2.2900    1.2850    2.6710 H   0  0  0  0  0  0  0  0  0  0  0  0
   -1.0760    2.8210    3.9580 H   0  0  0  0  0  0  0  0  0  0  0  0
    0.4630    2.5470    3.0840 H   0  0  0  0  0  0  0  0  0  0  0  0
   -0.2410    1.2690    4.0980 H   0  0  0  0  0  0  0  0  0  0  0  0
   -0.5360   -0.3890    2.8830 H   0  0  0  0  0  0  0  0  0  0  0  0
    0.5230    0.3520    0.1790 H   0  0  0  0  0  0  0  0  0  0  0  0
   -1.7280   -1.4300    0.0810 N   0  0  0  0  0  0  0  0  0  0  0  0
   -2.8020   -2.1900   -0.4550 C   0  0  1  0  0  0  0  0  0  0  0  0
   -3.3010   -1.7470   -1.8000 C   0  0  0  0  0  0  0  0  0  0  0  0
   -3.8010   -0.3660   -1.8190 C   0  0  0  0  0  0  0  0  0  0  0  0
   -3.0170    0.6170   -1.9560 O   0  0  0  0  0  0  0  0  0  0  0  0
   -2.5240   -3.6450   -0.5100 C   0  0  0  0  0  0  0  0  0  0  0  0
   -1.4130   -4.0460   -0.0880 O   0  0  0  0  0  0  0  0  0  0  0  0
   -5.1330   -0.1010   -1.6890 O   0  0  0  0  0  0  0  0  0  0  0  0
   -3.4140   -4.5840   -0.9980 O   0  0  0  0  0  0  0  0  0  0  0  0
   -0.8040   -1.3830   -0.4260 H   0  0  0  0  0  0  0  0  0  0  0  0
   -3.6770   -2.0760    0.2510 H   0  0  0  0  0  0  0  0  0  0  0  0
   -4.1390   -2.4130   -2.1000 H   0  0  0  0  0  0  0  0  0  0  0  0
   -2.5040   -1.9180   -2.5580 H   0  0  0  0  0  0  0  0  0  0  0  0
   -5.4430    0.7460   -1.1890 H   0  0  0  0  0  0  0  0  0  0  0  0
  1 11  1  0  0  0  0
  1  2  1  0  0  0  0
  2 12  1  0  0  0  0
  2  3  1  0  0  0  0
  3 13  1  0  0  0  0
  4  2  1  0  0  0  0
  4  5  1  0  0  0  0
  5 18  1  6  0  0  0
  5  7  1  0  0  0  0
  5  6  1  0  0  0  0
  6 20  1  0  0  0  0
  7  8  2  0  0  0  0
  9  1  1  0  0  0  0
 10  1  1  0  0  0  0
 14  3  1  0  0  0  0
 15  3  1  0  0  0  0
 16  4  1  0  0  0  0
 17  4  1  0  0  0  0
 19  6  1  0  0  0  0
 21 30  1  0  0  0  0
 21 22  1  0  0  0  0
 22 32  1  0  0  0  0
 22 23  1  0  0  0  0
 23 34  1  1  0  0  0
 23 24  1  0  0  0  0
 24 35  1  0  0  0  0
 24 37  1  0  0  0  0
 25 23  1  0  0  0  0
 25 38  1  1  0  0  0
 26  7  1  0  0  0  0
 26 25  1  0  0  0  0
 27 25  1  0  0  0  0
 27 28  2  0  0  0  0
 29 21  1  0  0  0  0
 31 21  1  0  0  0  0
 33 22  1  0  0  0  0
 36 24  1  0  0  0  0
 39 26  1  0  0  0  0
 40 27  1  0  0  0  0
 41 40  1  0  0  0  0
 41 50  1  1  0  0  0
 42 41  1  0  0  0  0
 43 42  1  0  0  0  0
 43 47  1  0  0  0  0
 44 43  2  0  0  0  0
 45 41  1  0  0  0  0
 45 46  1  0  0  0  0
 47 53  1  0  0  0  0
 48 45  2  0  0  0  0
 49 40  1  0  0  0  0
 51 42  1  0  0  0  0
 52 42  1  0  0  0  0
M  END
$$$$
