LIE.pdb
 OpenBabel07022418463D

 56 55  0  0  1  0  0  0  0  0999 V2000
    4.6880   -1.9690    2.0210 C   0  0  0  0  0  0  0  0  0  0  0  0
    3.7640   -1.8200    0.8300 C   0  0  0  0  0  0  0  0  0  0  0  0
    2.5310   -2.6010    1.1200 C   0  0  0  0  0  0  0  0  0  0  0  0
    3.5650   -0.4020    0.4260 C   0  0  0  0  0  0  0  0  0  0  0  0
    2.9710    0.4950    1.4540 C   0  0  2  0  0  0  0  0  0  0  0  0
    3.8130    0.5150    2.6330 N   0  0  0  0  0  0  0  0  0  0  0  0
    1.5880    0.2370    1.8330 C   0  0  0  0  0  0  0  0  0  0  0  0
    1.3340   -0.1130    3.0360 O   0  0  0  0  0  0  0  0  0  0  0  0
    5.0890   -3.0090    2.0430 H   0  0  0  0  0  0  0  0  0  0  0  0
    5.5460   -1.2910    1.9940 H   0  0  0  0  0  0  0  0  0  0  0  0
    4.0760   -1.8710    2.9520 H   0  0  0  0  0  0  0  0  0  0  0  0
    4.3020   -2.3190   -0.0270 H   0  0  0  0  0  0  0  0  0  0  0  0
    1.6710   -2.1240    0.6370 H   0  0  0  0  0  0  0  0  0  0  0  0
    2.2930   -2.6720    2.2010 H   0  0  0  0  0  0  0  0  0  0  0  0
    2.6350   -3.6240    0.7250 H   0  0  0  0  0  0  0  0  0  0  0  0
    4.5410   -0.0010    0.0950 H   0  0  0  0  0  0  0  0  0  0  0  0
    2.8920   -0.3950   -0.4560 H   0  0  0  0  0  0  0  0  0  0  0  0
    3.0600    1.5450    1.0320 H   0  0  0  0  0  0  0  0  0  0  0  0
    4.6620    1.0820    2.5310 H   0  0  0  0  0  0  0  0  0  0  0  0
    3.2700    0.6930    3.5070 H   0  0  0  0  0  0  0  0  0  0  0  0
   -3.0980    0.3490    3.3870 C   0  0  0  0  0  0  0  0  0  0  0  0
   -3.0880    1.0160    2.0180 C   0  0  0  0  0  0  0  0  0  0  0  0
   -1.7120    1.2960    1.4990 C   0  0  2  0  0  0  0  0  0  0  0  0
   -1.8550    1.9520    0.1360 C   0  0  0  0  0  0  0  0  0  0  0  0
   -0.8760    0.0620    1.4630 C   0  0  2  0  0  0  0  0  0  0  0  0
    0.4700    0.3370    0.9890 N   0  0  0  0  0  0  0  0  0  0  0  0
   -1.4950   -0.9210    0.5410 C   0  0  0  0  0  0  0  0  0  0  0  0
   -2.6640   -1.4070    0.7040 O   0  0  0  0  0  0  0  0  0  0  0  0
   -4.1650    0.1740    3.6330 H   0  0  0  0  0  0  0  0  0  0  0  0
   -2.5920    0.9840    4.1400 H   0  0  0  0  0  0  0  0  0  0  0  0
   -2.6150   -0.6380    3.3010 H   0  0  0  0  0  0  0  0  0  0  0  0
   -3.6150    2.0120    2.1930 H   0  0  0  0  0  0  0  0  0  0  0  0
   -3.7310    0.3960    1.3690 H   0  0  0  0  0  0  0  0  0  0  0  0
   -1.2920    2.0680    2.2160 H   0  0  0  0  0  0  0  0  0  0  0  0
   -1.6010    3.0440    0.1800 H   0  0  0  0  0  0  0  0  0  0  0  0
   -2.9020    1.8970   -0.2260 H   0  0  0  0  0  0  0  0  0  0  0  0
   -1.2300    1.4700   -0.6340 H   0  0  0  0  0  0  0  0  0  0  0  0
   -0.7870   -0.2880    2.5080 H   0  0  0  0  0  0  0  0  0  0  0  0
    0.5830    0.6220    0.0020 H   0  0  0  0  0  0  0  0  0  0  0  0
   -0.8660   -1.4430   -0.6360 N   0  0  0  0  0  0  0  0  0  0  0  0
   -1.4940   -2.3900   -1.5190 C   0  0  1  0  0  0  0  0  0  0  0  0
   -1.5530   -1.9460   -2.9480 C   0  0  0  0  0  0  0  0  0  0  0  0
   -2.3100   -0.6670   -3.1750 C   0  0  0  0  0  0  0  0  0  0  0  0
   -3.7340   -0.7260   -2.7790 C   0  0  0  0  0  0  0  0  0  0  0  0
   -4.4870    0.2810   -2.8010 O   0  0  0  0  0  0  0  0  0  0  0  0
   -0.7870   -3.6950   -1.4300 C   0  0  0  0  0  0  0  0  0  0  0  0
    0.1840   -3.9510   -0.7170 O   0  0  0  0  0  0  0  0  0  0  0  0
   -4.3190   -1.9090   -2.3600 O   0  0  0  0  0  0  0  0  0  0  0  0
   -1.2840   -4.7180   -2.2400 O   0  0  0  0  0  0  0  0  0  0  0  0
    0.0930   -1.1100   -0.8460 H   0  0  0  0  0  0  0  0  0  0  0  0
   -2.5120   -2.5940   -1.1310 H   0  0  0  0  0  0  0  0  0  0  0  0
   -0.5680   -1.9540   -3.4500 H   0  0  0  0  0  0  0  0  0  0  0  0
   -2.1460   -2.7430   -3.4920 H   0  0  0  0  0  0  0  0  0  0  0  0
   -2.3180   -0.3820   -4.2640 H   0  0  0  0  0  0  0  0  0  0  0  0
   -1.8010    0.2080   -2.6870 H   0  0  0  0  0  0  0  0  0  0  0  0
   -5.3260   -2.0070   -2.3900 H   0  0  0  0  0  0  0  0  0  0  0  0
  1  9  1  0  0  0  0
  1 11  1  0  0  0  0
  2  3  1  0  0  0  0
  2  1  1  0  0  0  0
  3 14  1  0  0  0  0
  4  2  1  0  0  0  0
  4  5  1  0  0  0  0
  5 18  1  6  0  0  0
  5  7  1  0  0  0  0
  5  6  1  0  0  0  0
  6 20  1  0  0  0  0
  7  8  2  0  0  0  0
 10  1  1  0  0  0  0
 12  2  1  0  0  0  0
 13  3  1  0  0  0  0
 15  3  1  0  0  0  0
 16  4  1  0  0  0  0
 17  4  1  0  0  0  0
 19  6  1  0  0  0  0
 21 29  1  0  0  0  0
 21 30  1  0  0  0  0
 22 32  1  0  0  0  0
 22 21  1  0  0  0  0
 23 22  1  0  0  0  0
 23 34  1  1  0  0  0
 24 35  1  0  0  0  0
 24 23  1  0  0  0  0
 25 23  1  0  0  0  0
 25 38  1  1  0  0  0
 26 25  1  0  0  0  0
 26  7  1  0  0  0  0
 27 28  2  0  0  0  0
 27 25  1  0  0  0  0
 31 21  1  0  0  0  0
 33 22  1  0  0  0  0
 36 24  1  0  0  0  0
 37 24  1  0  0  0  0
 39 26  1  0  0  0  0
 40 27  1  0  0  0  0
 41 46  1  0  0  0  0
 41 51  1  1  0  0  0
 41 40  1  0  0  0  0
 42 41  1  0  0  0  0
 43 42  1  0  0  0  0
 43 44  1  0  0  0  0
 43 55  1  0  0  0  0
 44 48  1  0  0  0  0
 45 44  2  0  0  0  0
 46 47  1  0  0  0  0
 49 46  2  0  0  0  0
 50 40  1  0  0  0  0
 52 42  1  0  0  0  0
 53 42  1  0  0  0  0
 54 43  1  0  0  0  0
 56 48  1  0  0  0  0
M  END
$$$$
