LIG.pdb
 OpenBabel07022418463D

 47 46  0  0  1  0  0  0  0  0999 V2000
    1.2310   -3.6410    1.3490 C   0  0  0  0  0  0  0  0  0  0  0  0
    0.6590   -4.2080    0.1020 C   0  0  0  0  0  0  0  0  0  0  0  0
    1.7620   -5.0540   -0.5620 C   0  0  0  0  0  0  0  0  0  0  0  0
    0.1420   -3.1980   -0.8470 C   0  0  0  0  0  0  0  0  0  0  0  0
   -0.9940   -2.3250   -0.4650 C   0  0  2  0  0  0  0  0  0  0  0  0
   -1.2330   -1.4470   -1.6220 N   0  0  0  0  0  0  0  0  0  0  0  0
   -0.8130   -1.5860    0.7590 C   0  0  0  0  0  0  0  0  0  0  0  0
   -1.1620   -2.1250    1.8660 O   0  0  0  0  0  0  0  0  0  0  0  0
    0.6820   -3.9390    2.2540 H   0  0  0  0  0  0  0  0  0  0  0  0
    1.3740   -2.5440    1.3140 H   0  0  0  0  0  0  0  0  0  0  0  0
    2.2780   -4.0920    1.5530 H   0  0  0  0  0  0  0  0  0  0  0  0
   -0.1350   -4.9710    0.3330 H   0  0  0  0  0  0  0  0  0  0  0  0
    1.4080   -5.4500   -1.5210 H   0  0  0  0  0  0  0  0  0  0  0  0
    2.7030   -4.4920   -0.6110 H   0  0  0  0  0  0  0  0  0  0  0  0
    1.9050   -5.9170    0.1310 H   0  0  0  0  0  0  0  0  0  0  0  0
    0.9900   -2.5010   -1.1550 H   0  0  0  0  0  0  0  0  0  0  0  0
   -0.0930   -3.6870   -1.8600 H   0  0  0  0  0  0  0  0  0  0  0  0
   -1.9120   -2.9430   -0.3850 H   0  0  0  0  0  0  0  0  0  0  0  0
   -0.3420   -1.1570   -2.0720 H   0  0  0  0  0  0  0  0  0  0  0  0
   -1.8780   -0.6840   -1.4100 H   0  0  0  0  0  0  0  0  0  0  0  0
    2.2110    1.5190    0.2120 C   0  0  0  0  0  0  0  0  0  0  0  0
    1.7640    1.9600    1.5610 C   0  0  0  0  0  0  0  0  0  0  0  0
    1.2060    0.9110    2.4520 C   0  0  2  0  0  0  0  0  0  0  0  0
    2.2260   -0.1670    2.7160 C   0  0  0  0  0  0  0  0  0  0  0  0
   -0.1320    0.3670    2.0780 C   0  0  2  0  0  0  0  0  0  0  0  0
   -0.2560   -0.2540    0.8180 N   0  0  0  0  0  0  0  0  0  0  0  0
   -1.1450    1.4870    2.1390 C   0  0  0  0  0  0  0  0  0  0  0  0
   -1.1650    2.1470    3.2060 O   0  0  0  0  0  0  0  0  0  0  0  0
    2.3720    0.4460    0.1270 H   0  0  0  0  0  0  0  0  0  0  0  0
    3.2060    1.9940   -0.0040 H   0  0  0  0  0  0  0  0  0  0  0  0
    1.5590    1.8830   -0.6130 H   0  0  0  0  0  0  0  0  0  0  0  0
    2.6720    2.3660    2.1000 H   0  0  0  0  0  0  0  0  0  0  0  0
    1.1000    2.8480    1.4780 H   0  0  0  0  0  0  0  0  0  0  0  0
    1.0650    1.4130    3.4600 H   0  0  0  0  0  0  0  0  0  0  0  0
    2.6840   -0.6040    1.8220 H   0  0  0  0  0  0  0  0  0  0  0  0
    2.9780    0.2000    3.4500 H   0  0  0  0  0  0  0  0  0  0  0  0
    1.6540   -1.0120    3.2020 H   0  0  0  0  0  0  0  0  0  0  0  0
   -0.4540   -0.3150    2.8910 H   0  0  0  0  0  0  0  0  0  0  0  0
    0.0090    0.1300   -0.1060 H   0  0  0  0  0  0  0  0  0  0  0  0
   -2.0160    1.7870    1.0850 N   0  0  0  0  0  0  0  0  0  0  0  0
   -2.9460    2.8720    1.2360 C   0  0  0  0  0  0  0  0  0  0  0  0
   -3.7860    3.0470    0.0280 C   0  0  0  0  0  0  0  0  0  0  0  0
   -4.6670    3.9310   -0.0670 O   0  0  0  0  0  0  0  0  0  0  0  0
   -3.5890    2.1960   -1.0420 O   0  0  0  0  0  0  0  0  0  0  0  0
   -1.9720    1.2090    0.1990 H   0  0  0  0  0  0  0  0  0  0  0  0
   -2.4380    3.8200    1.5360 H   0  0  0  0  0  0  0  0  0  0  0  0
   -3.6580    2.6490    2.0810 H   0  0  0  0  0  0  0  0  0  0  0  0
  1 11  1  0  0  0  0
  1  9  1  0  0  0  0
  2 12  1  0  0  0  0
  2  1  1  0  0  0  0
  3  2  1  0  0  0  0
  3 15  1  0  0  0  0
  4  5  1  0  0  0  0
  4  2  1  0  0  0  0
  5 18  1  1  0  0  0
  5  7  1  0  0  0  0
  6 20  1  0  0  0  0
  6  5  1  0  0  0  0
  7 26  1  0  0  0  0
  7  8  2  0  0  0  0
 10  1  1  0  0  0  0
 13  3  1  0  0  0  0
 14  3  1  0  0  0  0
 16  4  1  0  0  0  0
 17  4  1  0  0  0  0
 19  6  1  0  0  0  0
 21 22  1  0  0  0  0
 22 32  1  0  0  0  0
 22 23  1  0  0  0  0
 23 24  1  0  0  0  0
 23 34  1  1  0  0  0
 24 37  1  0  0  0  0
 24 36  1  0  0  0  0
 25 27  1  0  0  0  0
 25 23  1  0  0  0  0
 25 38  1  1  0  0  0
 26 25  1  0  0  0  0
 27 28  2  0  0  0  0
 29 21  1  0  0  0  0
 30 21  1  0  0  0  0
 31 21  1  0  0  0  0
 33 22  1  0  0  0  0
 35 24  1  0  0  0  0
 39 26  1  0  0  0  0
 40 41  1  0  0  0  0
 40 27  1  0  0  0  0
 41 46  1  0  0  0  0
 41 47  1  0  0  0  0
 42 41  1  0  0  0  0
 43 42  1  0  0  0  0
 44 42  2  0  0  0  0
 45 40  1  0  0  0  0
M  END
$$$$
