LII.pdb
 OpenBabel07022418463D

 59 58  0  0  1  0  0  0  0  0999 V2000
    1.9050   -4.4290    2.4220 C   0  0  0  0  0  0  0  0  0  0  0  0
    1.9820   -2.9880    2.9470 C   0  0  0  0  0  0  0  0  0  0  0  0
    0.5940   -2.5220    3.1770 C   0  0  0  0  0  0  0  0  0  0  0  0
    2.7950   -2.2200    1.9640 C   0  0  0  0  0  0  0  0  0  0  0  0
    2.9870   -0.7640    2.3010 C   0  0  2  0  0  0  0  0  0  0  0  0
    3.6340   -0.6010    3.5640 N   0  0  0  0  0  0  0  0  0  0  0  0
    1.7930    0.0760    2.0940 C   0  0  0  0  0  0  0  0  0  0  0  0
    1.3570    0.7640    3.0400 O   0  0  0  0  0  0  0  0  0  0  0  0
    1.0530   -4.4380    1.7110 H   0  0  0  0  0  0  0  0  0  0  0  0
    2.8070   -4.7030    1.8540 H   0  0  0  0  0  0  0  0  0  0  0  0
    1.6610   -5.1330    3.2360 H   0  0  0  0  0  0  0  0  0  0  0  0
    2.5630   -3.0980    3.9110 H   0  0  0  0  0  0  0  0  0  0  0  0
    0.6050   -1.8780    4.1040 H   0  0  0  0  0  0  0  0  0  0  0  0
   -0.0830   -3.3710    3.4470 H   0  0  0  0  0  0  0  0  0  0  0  0
    0.1250   -1.9440    2.3930 H   0  0  0  0  0  0  0  0  0  0  0  0
    3.8050   -2.6780    1.9330 H   0  0  0  0  0  0  0  0  0  0  0  0
    2.3680   -2.3420    0.9540 H   0  0  0  0  0  0  0  0  0  0  0  0
    3.7320   -0.3850    1.5340 H   0  0  0  0  0  0  0  0  0  0  0  0
    4.6270   -0.9580    3.4530 H   0  0  0  0  0  0  0  0  0  0  0  0
    3.2310   -1.1290    4.3470 H   0  0  0  0  0  0  0  0  0  0  0  0
    1.1720    3.7610    1.2640 C   0  0  0  0  0  0  0  0  0  0  0  0
    1.3850    2.9370    0.0420 C   0  0  0  0  0  0  0  0  0  0  0  0
    0.2110    2.0610   -0.3220 C   0  0  2  0  0  0  0  0  0  0  0  0
   -1.0350    2.8430   -0.5860 C   0  0  0  0  0  0  0  0  0  0  0  0
   -0.0630    0.9920    0.7200 C   0  0  2  0  0  0  0  0  0  0  0  0
    1.1070    0.1420    0.8570 N   0  0  0  0  0  0  0  0  0  0  0  0
   -1.2260    0.2150    0.2260 C   0  0  0  0  0  0  0  0  0  0  0  0
   -2.3420    0.7700    0.0590 O   0  0  0  0  0  0  0  0  0  0  0  0
    0.0760    3.8870    1.4100 H   0  0  0  0  0  0  0  0  0  0  0  0
    1.6690    3.3500    2.1690 H   0  0  0  0  0  0  0  0  0  0  0  0
    1.5750    4.7790    1.0870 H   0  0  0  0  0  0  0  0  0  0  0  0
    2.2770    2.2790    0.0990 H   0  0  0  0  0  0  0  0  0  0  0  0
    1.5530    3.6100   -0.8220 H   0  0  0  0  0  0  0  0  0  0  0  0
    0.4840    1.5230   -1.2540 H   0  0  0  0  0  0  0  0  0  0  0  0
   -0.7100    3.8560   -0.9590 H   0  0  0  0  0  0  0  0  0  0  0  0
   -1.6710    2.9830    0.3370 H   0  0  0  0  0  0  0  0  0  0  0  0
   -1.6550    2.4390   -1.4130 H   0  0  0  0  0  0  0  0  0  0  0  0
   -0.3430    1.4770    1.6580 H   0  0  0  0  0  0  0  0  0  0  0  0
    1.4180   -0.4120    0.0120 H   0  0  0  0  0  0  0  0  0  0  0  0
   -2.8770   -0.3440   -3.0960 C   0  0  0  0  0  0  0  0  0  0  0  0
   -1.6790   -1.2210   -2.8910 C   0  0  0  0  0  0  0  0  0  0  0  0
   -1.9410   -2.3940   -1.9830 C   0  0  2  0  0  0  0  0  0  0  0  0
   -3.0230   -3.2500   -2.5590 C   0  0  0  0  0  0  0  0  0  0  0  0
   -2.2940   -1.9240   -0.5690 C   0  0  2  0  0  0  0  0  0  0  0  0
   -1.1700   -1.1690   -0.0870 N   0  0  0  0  0  0  0  0  0  0  0  0
   -2.5980   -3.1270    0.2350 C   0  0  0  0  0  0  0  0  0  0  0  0
   -1.8870   -3.3890    1.2290 O   0  0  0  0  0  0  0  0  0  0  0  0
   -3.6440   -3.9750   -0.0750 O   0  0  0  0  0  0  0  0  0  0  0  0
   -3.1410   -0.2530   -4.1870 H   0  0  0  0  0  0  0  0  0  0  0  0
   -3.7640   -0.6470   -2.5120 H   0  0  0  0  0  0  0  0  0  0  0  0
   -2.6640    0.7210   -2.7860 H   0  0  0  0  0  0  0  0  0  0  0  0
   -1.3710   -1.6300   -3.8750 H   0  0  0  0  0  0  0  0  0  0  0  0
   -0.8440   -0.5880   -2.5400 H   0  0  0  0  0  0  0  0  0  0  0  0
   -1.0080   -2.9700   -1.8860 H   0  0  0  0  0  0  0  0  0  0  0  0
   -3.0820   -3.1980   -3.6630 H   0  0  0  0  0  0  0  0  0  0  0  0
   -2.8410   -4.3210   -2.3030 H   0  0  0  0  0  0  0  0  0  0  0  0
   -4.0210   -2.9300   -2.1810 H   0  0  0  0  0  0  0  0  0  0  0  0
   -3.2110   -1.3300   -0.6720 H   0  0  0  0  0  0  0  0  0  0  0  0
   -0.2530   -1.6450    0.0470 H   0  0  0  0  0  0  0  0  0  0  0  0
  1  2  1  0  0  0  0
  1 11  1  0  0  0  0
  2  3  1  0  0  0  0
  2 12  1  0  0  0  0
  3 14  1  0  0  0  0
  3 13  1  0  0  0  0
  4  5  1  0  0  0  0
  4  2  1  0  0  0  0
  5 18  1  6  0  0  0
  5  6  1  0  0  0  0
  6 20  1  0  0  0  0
  7  5  1  0  0  0  0
  7  8  2  0  0  0  0
  9  1  1  0  0  0  0
 10  1  1  0  0  0  0
 15  3  1  0  0  0  0
 16  4  1  0  0  0  0
 17  4  1  0  0  0  0
 19  6  1  0  0  0  0
 21 29  1  0  0  0  0
 21 30  1  0  0  0  0
 22 32  1  0  0  0  0
 22 21  1  0  0  0  0
 23 34  1  6  0  0  0
 23 22  1  0  0  0  0
 23 25  1  0  0  0  0
 24 23  1  0  0  0  0
 24 36  1  0  0  0  0
 25 26  1  0  0  0  0
 25 38  1  1  0  0  0
 26  7  1  0  0  0  0
 27 25  1  0  0  0  0
 28 27  2  0  0  0  0
 31 21  1  0  0  0  0
 33 22  1  0  0  0  0
 35 24  1  0  0  0  0
 37 24  1  0  0  0  0
 39 26  1  0  0  0  0
 40 41  1  0  0  0  0
 40 51  1  0  0  0  0
 40 50  1  0  0  0  0
 41 53  1  0  0  0  0
 41 42  1  0  0  0  0
 42 54  1  1  0  0  0
 42 44  1  0  0  0  0
 43 56  1  0  0  0  0
 43 57  1  0  0  0  0
 43 42  1  0  0  0  0
 44 58  1  6  0  0  0
 44 45  1  0  0  0  0
 44 46  1  0  0  0  0
 45 59  1  0  0  0  0
 45 27  1  0  0  0  0
 46 47  1  0  0  0  0
 48 46  2  0  0  0  0
 49 40  1  0  0  0  0
 52 41  1  0  0  0  0
 55 43  1  0  0  0  0
M  END
$$$$
