LIK.pdb
 OpenBabel07022418463D

 61 60  0  0  1  0  0  0  0  0999 V2000
    4.4880    0.7880    4.7180 C   0  0  0  0  0  0  0  0  0  0  0  0
    3.5950    0.2300    3.5590 C   0  0  0  0  0  0  0  0  0  0  0  0
    2.2290    0.1460    4.2710 C   0  0  0  0  0  0  0  0  0  0  0  0
    3.4860    1.2700    2.4970 C   0  0  0  0  0  0  0  0  0  0  0  0
    2.7570    0.9720    1.2510 C   0  0  2  0  0  0  0  0  0  0  0  0
    2.8400    2.2400    0.4650 N   0  0  0  0  0  0  0  0  0  0  0  0
    1.3780    0.5000    1.2860 C   0  0  0  0  0  0  0  0  0  0  0  0
    0.4220    1.2550    1.5920 O   0  0  0  0  0  0  0  0  0  0  0  0
    4.6080   -0.0640    5.4170 H   0  0  0  0  0  0  0  0  0  0  0  0
    5.4690    1.0690    4.3350 H   0  0  0  0  0  0  0  0  0  0  0  0
    3.9410    1.5810    5.2490 H   0  0  0  0  0  0  0  0  0  0  0  0
    4.0060   -0.7250    3.2900 H   0  0  0  0  0  0  0  0  0  0  0  0
    1.4190   -0.1410    3.6230 H   0  0  0  0  0  0  0  0  0  0  0  0
    2.0150    1.0990    4.7940 H   0  0  0  0  0  0  0  0  0  0  0  0
    2.2860   -0.6240    5.0860 H   0  0  0  0  0  0  0  0  0  0  0  0
    3.2000    2.2720    2.9370 H   0  0  0  0  0  0  0  0  0  0  0  0
    4.5680    1.4750    2.1780 H   0  0  0  0  0  0  0  0  0  0  0  0
    3.3870    0.2740    0.6530 H   0  0  0  0  0  0  0  0  0  0  0  0
    3.7790    2.6660    0.6300 H   0  0  0  0  0  0  0  0  0  0  0  0
    2.1420    2.9030    0.8840 H   0  0  0  0  0  0  0  0  0  0  0  0
    1.3640   -3.2160    2.5170 C   0  0  0  0  0  0  0  0  0  0  0  0
   -0.1210   -3.2640    2.6330 C   0  0  0  0  0  0  0  0  0  0  0  0
   -0.7800   -2.0030    2.1710 C   0  0  2  0  0  0  0  0  0  0  0  0
   -2.2780   -2.1830    2.3350 C   0  0  0  0  0  0  0  0  0  0  0  0
   -0.3040   -1.3720    0.9370 C   0  0  2  0  0  0  0  0  0  0  0  0
    1.0310   -0.8660    0.9550 N   0  0  0  0  0  0  0  0  0  0  0  0
   -1.2650   -0.5630    0.1490 C   0  0  0  0  0  0  0  0  0  0  0  0
   -1.0180    0.6330   -0.2290 O   0  0  0  0  0  0  0  0  0  0  0  0
    1.8490   -2.2850    2.8320 H   0  0  0  0  0  0  0  0  0  0  0  0
    1.7220   -3.6100    1.5230 H   0  0  0  0  0  0  0  0  0  0  0  0
    1.8370   -3.9880    3.2350 H   0  0  0  0  0  0  0  0  0  0  0  0
   -0.5030   -4.1550    2.0600 H   0  0  0  0  0  0  0  0  0  0  0  0
   -0.3320   -3.4300    3.7370 H   0  0  0  0  0  0  0  0  0  0  0  0
   -0.5340   -1.2880    3.0790 H   0  0  0  0  0  0  0  0  0  0  0  0
   -2.6690   -3.1190    1.9160 H   0  0  0  0  0  0  0  0  0  0  0  0
   -2.4860   -2.3290    3.4650 H   0  0  0  0  0  0  0  0  0  0  0  0
   -2.8590   -1.2710    2.1090 H   0  0  0  0  0  0  0  0  0  0  0  0
   -0.1810   -2.2880    0.1930 H   0  0  0  0  0  0  0  0  0  0  0  0
    1.8770   -1.4610    0.6930 H   0  0  0  0  0  0  0  0  0  0  0  0
   -2.5310   -1.0410   -0.2640 N   0  0  0  0  0  0  0  0  0  0  0  0
   -3.4530   -0.2000   -1.0370 C   0  0  1  0  0  0  0  0  0  0  0  0
   -3.6400   -0.8380   -2.3970 C   0  0  0  0  0  0  0  0  0  0  0  0
   -2.3430   -0.9640   -3.1600 C   0  0  0  0  0  0  0  0  0  0  0  0
   -2.6720   -1.6120   -4.4890 C   0  0  0  0  0  0  0  0  0  0  0  0
   -1.4480   -1.7940   -5.3470 C   0  0  0  0  0  0  0  0  0  0  0  0
   -0.7860   -0.5580   -5.6570 N   0  0  0  0  0  0  0  0  0  0  0  0
   -4.7950   -0.1150   -0.4220 C   0  0  0  0  0  0  0  0  0  0  0  0
   -5.0770   -0.7180    0.6360 O   0  0  0  0  0  0  0  0  0  0  0  0
   -5.8130    0.6420   -0.9900 O   0  0  0  0  0  0  0  0  0  0  0  0
   -2.8090   -2.0040   -0.0530 H   0  0  0  0  0  0  0  0  0  0  0  0
   -3.0070    0.8050   -1.1540 H   0  0  0  0  0  0  0  0  0  0  0  0
   -4.1330   -1.8160   -2.2350 H   0  0  0  0  0  0  0  0  0  0  0  0
   -4.3490   -0.1960   -2.9590 H   0  0  0  0  0  0  0  0  0  0  0  0
   -1.9810    0.0600   -3.3840 H   0  0  0  0  0  0  0  0  0  0  0  0
   -1.5640   -1.4870   -2.6110 H   0  0  0  0  0  0  0  0  0  0  0  0
   -3.3910   -0.9970   -5.0670 H   0  0  0  0  0  0  0  0  0  0  0  0
   -3.1350   -2.6100   -4.3510 H   0  0  0  0  0  0  0  0  0  0  0  0
   -0.7260   -2.4370   -4.8100 H   0  0  0  0  0  0  0  0  0  0  0  0
   -1.7400   -2.3510   -6.2600 H   0  0  0  0  0  0  0  0  0  0  0  0
   -0.4600   -0.1230   -4.7650 H   0  0  0  0  0  0  0  0  0  0  0  0
    0.1060   -0.8220   -6.1670 H   0  0  0  0  0  0  0  0  0  0  0  0
  1 11  1  0  0  0  0
  1  9  1  0  0  0  0
  2  3  1  0  0  0  0
  2  1  1  0  0  0  0
  3 14  1  0  0  0  0
  3 15  1  0  0  0  0
  4 16  1  0  0  0  0
  4  2  1  0  0  0  0
  5 18  1  6  0  0  0
  5  7  1  0  0  0  0
  5  4  1  0  0  0  0
  6 19  1  0  0  0  0
  6 20  1  0  0  0  0
  6  5  1  0  0  0  0
  7  8  2  0  0  0  0
 10  1  1  0  0  0  0
 12  2  1  0  0  0  0
 13  3  1  0  0  0  0
 17  4  1  0  0  0  0
 21 22  1  0  0  0  0
 21 29  1  0  0  0  0
 21 31  1  0  0  0  0
 22 33  1  0  0  0  0
 23 24  1  0  0  0  0
 23 22  1  0  0  0  0
 23 34  1  1  0  0  0
 24 36  1  0  0  0  0
 25 38  1  6  0  0  0
 25 26  1  0  0  0  0
 25 23  1  0  0  0  0
 26  7  1  0  0  0  0
 27 25  1  0  0  0  0
 28 27  2  0  0  0  0
 30 21  1  0  0  0  0
 32 22  1  0  0  0  0
 35 24  1  0  0  0  0
 37 24  1  0  0  0  0
 39 26  1  0  0  0  0
 40 50  1  0  0  0  0
 40 27  1  0  0  0  0
 41 51  1  6  0  0  0
 41 47  1  0  0  0  0
 41 40  1  0  0  0  0
 42 52  1  0  0  0  0
 42 41  1  0  0  0  0
 43 55  1  0  0  0  0
 43 42  1  0  0  0  0
 44 57  1  0  0  0  0
 44 43  1  0  0  0  0
 45 58  1  0  0  0  0
 45 44  1  0  0  0  0
 46 45  1  0  0  0  0
 46 60  1  0  0  0  0
 47 48  1  0  0  0  0
 49 47  2  0  0  0  0
 53 42  1  0  0  0  0
 54 43  1  0  0  0  0
 56 44  1  0  0  0  0
 59 45  1  0  0  0  0
 61 46  1  0  0  0  0
M  END
$$$$
