LIL.pdb
 OpenBabel07022418463D

 59 58  0  0  1  0  0  0  0  0999 V2000
    0.0680   -4.7970    2.2390 C   0  0  0  0  0  0  0  0  0  0  0  0
    0.3260   -3.5000    3.0220 C   0  0  0  0  0  0  0  0  0  0  0  0
   -0.9290   -2.7090    3.0200 C   0  0  0  0  0  0  0  0  0  0  0  0
    1.5510   -2.8080    2.5240 C   0  0  0  0  0  0  0  0  0  0  0  0
    1.8480   -1.5300    3.2540 C   0  0  2  0  0  0  0  0  0  0  0  0
    2.0130   -1.8320    4.6580 N   0  0  0  0  0  0  0  0  0  0  0  0
    0.9180   -0.4450    2.9530 C   0  0  0  0  0  0  0  0  0  0  0  0
    0.1610    0.1370    3.7600 O   0  0  0  0  0  0  0  0  0  0  0  0
   -0.4870   -4.5830    1.3100 H   0  0  0  0  0  0  0  0  0  0  0  0
    0.9880   -5.3640    2.0900 H   0  0  0  0  0  0  0  0  0  0  0  0
   -0.6090   -5.4010    2.9060 H   0  0  0  0  0  0  0  0  0  0  0  0
    0.5810   -3.8730    4.0650 H   0  0  0  0  0  0  0  0  0  0  0  0
   -0.9940   -1.8880    2.3110 H   0  0  0  0  0  0  0  0  0  0  0  0
   -1.7980   -3.3850    2.7980 H   0  0  0  0  0  0  0  0  0  0  0  0
   -1.0830   -2.2820    4.0570 H   0  0  0  0  0  0  0  0  0  0  0  0
    1.5600   -2.6820    1.4200 H   0  0  0  0  0  0  0  0  0  0  0  0
    2.4160   -3.5050    2.7300 H   0  0  0  0  0  0  0  0  0  0  0  0
    2.8570   -1.1670    2.8660 H   0  0  0  0  0  0  0  0  0  0  0  0
    1.4410   -1.2400    5.2830 H   0  0  0  0  0  0  0  0  0  0  0  0
    3.0310   -1.8510    4.9190 H   0  0  0  0  0  0  0  0  0  0  0  0
    2.6000    3.8120    1.7860 C   0  0  0  0  0  0  0  0  0  0  0  0
    1.6140    2.7110    2.0990 C   0  0  0  0  0  0  0  0  0  0  0  0
    0.8420    2.2810    0.8710 C   0  0  2  0  0  0  0  0  0  0  0  0
    0.0820    3.4370    0.3180 C   0  0  0  0  0  0  0  0  0  0  0  0
   -0.0160    1.0730    1.1730 C   0  0  2  0  0  0  0  0  0  0  0  0
    0.8640    0.0040    1.5970 N   0  0  0  0  0  0  0  0  0  0  0  0
   -0.8790    0.6940    0.0480 C   0  0  0  0  0  0  0  0  0  0  0  0
   -1.7240    1.4590   -0.4790 O   0  0  0  0  0  0  0  0  0  0  0  0
    3.6370    3.5090    2.0690 H   0  0  0  0  0  0  0  0  0  0  0  0
    2.3150    4.7790    2.2060 H   0  0  0  0  0  0  0  0  0  0  0  0
    2.6200    3.9250    0.6660 H   0  0  0  0  0  0  0  0  0  0  0  0
    0.9090    3.1420    2.8660 H   0  0  0  0  0  0  0  0  0  0  0  0
    2.1450    1.8430    2.5570 H   0  0  0  0  0  0  0  0  0  0  0  0
    1.6100    1.9900    0.1030 H   0  0  0  0  0  0  0  0  0  0  0  0
    0.1130    3.4890   -0.7900 H   0  0  0  0  0  0  0  0  0  0  0  0
    0.5970    4.3770    0.6670 H   0  0  0  0  0  0  0  0  0  0  0  0
   -0.9500    3.5140    0.7220 H   0  0  0  0  0  0  0  0  0  0  0  0
   -0.6660    1.3760    2.0220 H   0  0  0  0  0  0  0  0  0  0  0  0
    1.4630   -0.4280    0.8620 H   0  0  0  0  0  0  0  0  0  0  0  0
   -2.2850   -0.8400   -4.6890 C   0  0  0  0  0  0  0  0  0  0  0  0
   -1.2420   -1.7470   -4.0730 C   0  0  0  0  0  0  0  0  0  0  0  0
   -1.6540   -3.1720   -4.1870 C   0  0  0  0  0  0  0  0  0  0  0  0
   -0.6970   -1.2860   -2.7840 C   0  0  0  0  0  0  0  0  0  0  0  0
   -1.6110   -1.0590   -1.6440 C   0  0  2  0  0  0  0  0  0  0  0  0
   -0.7740   -0.6090   -0.5010 N   0  0  0  0  0  0  0  0  0  0  0  0
   -2.4700   -2.1540   -1.2180 C   0  0  0  0  0  0  0  0  0  0  0  0
   -3.3540   -2.6570   -1.9480 O   0  0  0  0  0  0  0  0  0  0  0  0
   -2.3250   -2.6930    0.0690 O   0  0  0  0  0  0  0  0  0  0  0  0
   -2.7590   -1.4170   -5.5150 H   0  0  0  0  0  0  0  0  0  0  0  0
   -3.1000   -0.5840   -3.9840 H   0  0  0  0  0  0  0  0  0  0  0  0
   -1.8190    0.0530   -5.1330 H   0  0  0  0  0  0  0  0  0  0  0  0
   -0.3560   -1.6290   -4.8110 H   0  0  0  0  0  0  0  0  0  0  0  0
   -1.3520   -3.8100   -3.3190 H   0  0  0  0  0  0  0  0  0  0  0  0
   -1.0790   -3.6260   -5.0600 H   0  0  0  0  0  0  0  0  0  0  0  0
   -2.7260   -3.3210   -4.4640 H   0  0  0  0  0  0  0  0  0  0  0  0
   -0.1090   -0.3530   -2.9610 H   0  0  0  0  0  0  0  0  0  0  0  0
    0.1040   -2.0310   -2.4910 H   0  0  0  0  0  0  0  0  0  0  0  0
   -2.2510   -0.1540   -1.8690 H   0  0  0  0  0  0  0  0  0  0  0  0
   -0.1140   -1.3300   -0.1480 H   0  0  0  0  0  0  0  0  0  0  0  0
  1 11  1  0  0  0  0
  1  2  1  0  0  0  0
  2 12  1  0  0  0  0
  3  2  1  0  0  0  0
  3 15  1  0  0  0  0
  4 17  1  0  0  0  0
  4  2  1  0  0  0  0
  4  5  1  0  0  0  0
  5 18  1  6  0  0  0
  5  6  1  0  0  0  0
  6 20  1  0  0  0  0
  6 19  1  0  0  0  0
  7  5  1  0  0  0  0
  7  8  2  0  0  0  0
  9  1  1  0  0  0  0
 10  1  1  0  0  0  0
 13  3  1  0  0  0  0
 14  3  1  0  0  0  0
 16  4  1  0  0  0  0
 21 29  1  0  0  0  0
 21 22  1  0  0  0  0
 21 30  1  0  0  0  0
 22 33  1  0  0  0  0
 22 32  1  0  0  0  0
 23 34  1  6  0  0  0
 23 25  1  0  0  0  0
 23 22  1  0  0  0  0
 24 36  1  0  0  0  0
 24 37  1  0  0  0  0
 24 23  1  0  0  0  0
 25 26  1  0  0  0  0
 25 38  1  1  0  0  0
 26  7  1  0  0  0  0
 27 25  1  0  0  0  0
 28 27  2  0  0  0  0
 31 21  1  0  0  0  0
 35 24  1  0  0  0  0
 39 26  1  0  0  0  0
 40 41  1  0  0  0  0
 40 50  1  0  0  0  0
 41 43  1  0  0  0  0
 42 41  1  0  0  0  0
 42 53  1  0  0  0  0
 43 57  1  0  0  0  0
 43 44  1  0  0  0  0
 44 58  1  6  0  0  0
 44 46  1  0  0  0  0
 44 45  1  0  0  0  0
 45 59  1  0  0  0  0
 45 27  1  0  0  0  0
 46 48  1  0  0  0  0
 47 46  2  0  0  0  0
 49 40  1  0  0  0  0
 51 40  1  0  0  0  0
 52 41  1  0  0  0  0
 54 42  1  0  0  0  0
 55 42  1  0  0  0  0
 56 43  1  0  0  0  0
M  END
$$$$
