LIM.pdb
 OpenBabel07022418463D

 57 56  0  0  1  0  0  0  0  0999 V2000
    4.2150   -1.3660    4.3560 C   0  0  0  0  0  0  0  0  0  0  0  0
    2.7720   -1.7940    4.1930 C   0  0  0  0  0  0  0  0  0  0  0  0
    2.4590   -2.6780    5.3990 C   0  0  0  0  0  0  0  0  0  0  0  0
    1.8220   -0.6500    4.2540 C   0  0  0  0  0  0  0  0  0  0  0  0
    1.9860    0.4210    3.2440 C   0  0  2  0  0  0  0  0  0  0  0  0
    0.9720    1.4380    3.4730 N   0  0  0  0  0  0  0  0  0  0  0  0
    1.8280   -0.1430    1.8420 C   0  0  0  0  0  0  0  0  0  0  0  0
    2.6990   -0.9340    1.5000 O   0  0  0  0  0  0  0  0  0  0  0  0
    4.8480   -2.2350    4.0120 H   0  0  0  0  0  0  0  0  0  0  0  0
    4.4030   -0.5440    3.6630 H   0  0  0  0  0  0  0  0  0  0  0  0
    4.4670   -1.1390    5.4110 H   0  0  0  0  0  0  0  0  0  0  0  0
    2.7340   -2.3940    3.2550 H   0  0  0  0  0  0  0  0  0  0  0  0
    3.2810   -2.6610    6.1400 H   0  0  0  0  0  0  0  0  0  0  0  0
    2.3390   -3.7450    5.0790 H   0  0  0  0  0  0  0  0  0  0  0  0
    1.5490   -2.3620    5.9340 H   0  0  0  0  0  0  0  0  0  0  0  0
    0.7480   -0.9870    4.2500 H   0  0  0  0  0  0  0  0  0  0  0  0
    1.9710   -0.1740    5.2680 H   0  0  0  0  0  0  0  0  0  0  0  0
    2.9710    0.9020    3.3690 H   0  0  0  0  0  0  0  0  0  0  0  0
    1.3540    2.3980    3.2310 H   0  0  0  0  0  0  0  0  0  0  0  0
    0.7320    1.5070    4.4980 H   0  0  0  0  0  0  0  0  0  0  0  0
    2.5580    0.6850   -2.4750 C   0  0  0  0  0  0  0  0  0  0  0  0
    2.6920   -0.2090   -1.2220 C   0  0  0  0  0  0  0  0  0  0  0  0
    1.3760   -0.9330   -0.9940 C   0  0  2  0  0  0  0  0  0  0  0  0
    1.0740   -1.7060   -2.2110 C   0  0  0  0  0  0  0  0  0  0  0  0
    0.3860   -0.1150   -0.3070 C   0  0  2  0  0  0  0  0  0  0  0  0
    0.7740    0.2230    1.0300 N   0  0  0  0  0  0  0  0  0  0  0  0
   -1.0320   -0.3810   -0.4390 C   0  0  0  0  0  0  0  0  0  0  0  0
   -1.7460   -0.3880    0.5980 O   0  0  0  0  0  0  0  0  0  0  0  0
    1.5290    1.0210   -2.6300 H   0  0  0  0  0  0  0  0  0  0  0  0
    3.3150    1.4950   -2.4600 H   0  0  0  0  0  0  0  0  0  0  0  0
    2.8120    0.0280   -3.3320 H   0  0  0  0  0  0  0  0  0  0  0  0
    2.9670    0.5120   -0.4400 H   0  0  0  0  0  0  0  0  0  0  0  0
    3.5070   -0.9070   -1.4190 H   0  0  0  0  0  0  0  0  0  0  0  0
    1.6780   -1.7540   -0.2310 H   0  0  0  0  0  0  0  0  0  0  0  0
    1.0660   -1.0930   -3.1490 H   0  0  0  0  0  0  0  0  0  0  0  0
    0.2820   -2.4480   -2.1320 H   0  0  0  0  0  0  0  0  0  0  0  0
    2.0060   -2.3500   -2.3840 H   0  0  0  0  0  0  0  0  0  0  0  0
    0.5370    0.9320   -0.8580 H   0  0  0  0  0  0  0  0  0  0  0  0
    0.0790    0.9190    1.4970 H   0  0  0  0  0  0  0  0  0  0  0  0
   -5.9570   -0.7550   -0.0300 C   0  0  0  0  0  0  0  0  0  0  0  0
   -6.1110    0.4890   -1.2800 S   0  0  0  0  0  0  0  0  0  0  0  0
   -5.1910    0.1420   -2.7720 C   0  0  0  0  0  0  0  0  0  0  0  0
   -3.7220    0.1570   -2.6100 C   0  0  0  0  0  0  0  0  0  0  0  0
   -3.1140   -0.8880   -1.7120 C   0  0  2  0  0  0  0  0  0  0  0  0
   -1.6490   -0.6280   -1.6660 N   0  0  0  0  0  0  0  0  0  0  0  0
   -3.3120   -2.1970   -2.4080 C   0  0  0  0  0  0  0  0  0  0  0  0
   -4.4600   -2.6310   -2.5760 O   0  0  0  0  0  0  0  0  0  0  0  0
   -2.2750   -2.9790   -2.8920 O   0  0  0  0  0  0  0  0  0  0  0  0
   -5.6560   -1.7490   -0.3910 H   0  0  0  0  0  0  0  0  0  0  0  0
   -6.9560   -0.8420    0.4880 H   0  0  0  0  0  0  0  0  0  0  0  0
   -5.2600   -0.4220    0.7760 H   0  0  0  0  0  0  0  0  0  0  0  0
   -5.4350    0.9300   -3.5470 H   0  0  0  0  0  0  0  0  0  0  0  0
   -5.6110   -0.7850   -3.2240 H   0  0  0  0  0  0  0  0  0  0  0  0
   -3.1730    0.0550   -3.5900 H   0  0  0  0  0  0  0  0  0  0  0  0
   -3.4190    1.1830   -2.2580 H   0  0  0  0  0  0  0  0  0  0  0  0
   -3.4590   -0.8720   -0.6780 H   0  0  0  0  0  0  0  0  0  0  0  0
   -1.1670   -0.6420   -2.5850 H   0  0  0  0  0  0  0  0  0  0  0  0
  1 11  1  0  0  0  0
  2  4  1  0  0  0  0
  2  1  1  0  0  0  0
  2  3  1  0  0  0  0
  3 15  1  0  0  0  0
  3 13  1  0  0  0  0
  4 17  1  0  0  0  0
  5 18  1  1  0  0  0
  5  6  1  0  0  0  0
  5  4  1  0  0  0  0
  6 20  1  0  0  0  0
  7  5  1  0  0  0  0
  8  7  2  0  0  0  0
  9  1  1  0  0  0  0
 10  1  1  0  0  0  0
 12  2  1  0  0  0  0
 14  3  1  0  0  0  0
 16  4  1  0  0  0  0
 19  6  1  0  0  0  0
 21 30  1  0  0  0  0
 21 22  1  0  0  0  0
 22 23  1  0  0  0  0
 22 32  1  0  0  0  0
 23 25  1  0  0  0  0
 23 34  1  1  0  0  0
 24 36  1  0  0  0  0
 24 23  1  0  0  0  0
 25 38  1  6  0  0  0
 25 26  1  0  0  0  0
 26 39  1  0  0  0  0
 26  7  1  0  0  0  0
 27 25  1  0  0  0  0
 27 28  2  0  0  0  0
 29 21  1  0  0  0  0
 31 21  1  0  0  0  0
 33 22  1  0  0  0  0
 35 24  1  0  0  0  0
 37 24  1  0  0  0  0
 40 50  1  0  0  0  0
 40 51  1  0  0  0  0
 41 40  1  0  0  0  0
 42 43  1  0  0  0  0
 42 41  1  0  0  0  0
 43 55  1  0  0  0  0
 43 44  1  0  0  0  0
 44 45  1  0  0  0  0
 44 56  1  1  0  0  0
 45 27  1  0  0  0  0
 46 44  1  0  0  0  0
 47 46  1  0  0  0  0
 48 46  2  0  0  0  0
 49 40  1  0  0  0  0
 52 42  1  0  0  0  0
 53 42  1  0  0  0  0
 54 43  1  0  0  0  0
 57 45  1  0  0  0  0
M  END
$$$$
