LIP.pdb
 OpenBabel07022418463D

 54 54  0  0  1  0  0  0  0  0999 V2000
    3.7800   -2.9430    2.7300 C   0  0  0  0  0  0  0  0  0  0  0  0
    3.3290   -1.4820    2.5480 C   0  0  0  0  0  0  0  0  0  0  0  0
    1.8490   -1.5010    2.8510 C   0  0  0  0  0  0  0  0  0  0  0  0
    3.6840   -1.1210    1.1530 C   0  0  0  0  0  0  0  0  0  0  0  0
    3.3660    0.2510    0.7000 C   0  0  2  0  0  0  0  0  0  0  0  0
    3.9870    1.2940    1.4570 N   0  0  0  0  0  0  0  0  0  0  0  0
    1.9080    0.4520    0.6190 C   0  0  0  0  0  0  0  0  0  0  0  0
    1.3980    1.4450    1.2370 O   0  0  0  0  0  0  0  0  0  0  0  0
    3.5680   -3.3150    3.7320 H   0  0  0  0  0  0  0  0  0  0  0  0
    3.1720   -3.5290    2.0070 H   0  0  0  0  0  0  0  0  0  0  0  0
    4.8370   -3.0580    2.4140 H   0  0  0  0  0  0  0  0  0  0  0  0
    3.8580   -0.8700    3.3080 H   0  0  0  0  0  0  0  0  0  0  0  0
    1.4210   -0.5350    3.1110 H   0  0  0  0  0  0  0  0  0  0  0  0
    1.3100   -2.0810    2.0860 H   0  0  0  0  0  0  0  0  0  0  0  0
    1.7490   -2.1200    3.7970 H   0  0  0  0  0  0  0  0  0  0  0  0
    4.7810   -1.3580    1.0190 H   0  0  0  0  0  0  0  0  0  0  0  0
    3.1850   -1.8850    0.4860 H   0  0  0  0  0  0  0  0  0  0  0  0
    3.8080    0.3440   -0.3460 H   0  0  0  0  0  0  0  0  0  0  0  0
    3.7600    1.2930    2.4640 H   0  0  0  0  0  0  0  0  0  0  0  0
    4.9770    1.4630    1.2350 H   0  0  0  0  0  0  0  0  0  0  0  0
    0.2690    1.7770   -3.4360 C   0  0  0  0  0  0  0  0  0  0  0  0
    0.2060    1.5360   -1.9260 C   0  0  0  0  0  0  0  0  0  0  0  0
   -0.5950    0.2880   -1.6280 C   0  0  2  0  0  0  0  0  0  0  0  0
   -1.9930    0.3550   -2.1190 C   0  0  0  0  0  0  0  0  0  0  0  0
   -0.4450   -0.1330   -0.1590 C   0  0  2  0  0  0  0  0  0  0  0  0
    1.0270   -0.3620   -0.0900 N   0  0  0  0  0  0  0  0  0  0  0  0
   -1.1790   -1.3490    0.1000 C   0  0  0  0  0  0  0  0  0  0  0  0
   -0.4060   -2.4120   -0.0160 O   0  0  0  0  0  0  0  0  0  0  0  0
    0.3920    0.7800   -3.9530 H   0  0  0  0  0  0  0  0  0  0  0  0
   -0.6830    2.2180   -3.7990 H   0  0  0  0  0  0  0  0  0  0  0  0
    1.0750    2.4710   -3.6940 H   0  0  0  0  0  0  0  0  0  0  0  0
    1.2050    1.5150   -1.4910 H   0  0  0  0  0  0  0  0  0  0  0  0
   -0.3440    2.3950   -1.4900 H   0  0  0  0  0  0  0  0  0  0  0  0
   -0.0370   -0.5360   -2.1830 H   0  0  0  0  0  0  0  0  0  0  0  0
   -2.4130    1.3630   -1.8500 H   0  0  0  0  0  0  0  0  0  0  0  0
   -1.9930    0.3790   -3.2430 H   0  0  0  0  0  0  0  0  0  0  0  0
   -2.6660   -0.3990   -1.7270 H   0  0  0  0  0  0  0  0  0  0  0  0
   -0.5950    0.7440    0.4370 H   0  0  0  0  0  0  0  0  0  0  0  0
    1.3690   -1.1830   -0.6120 H   0  0  0  0  0  0  0  0  0  0  0  0
   -2.4970   -1.6440    0.4410 N   0  0  0  0  0  0  0  0  0  0  0  0
   -2.9200   -3.1070    0.5480 C   0  0  0  0  0  0  0  0  0  0  0  0
   -3.5260   -3.1080    1.9280 C   0  0  0  0  0  0  0  0  0  0  0  0
   -3.9710   -1.6950    2.1920 C   0  0  0  0  0  0  0  0  0  0  0  0
   -3.7240   -1.0550    0.7870 C   0  0  1  0  0  0  0  0  0  0  0  0
   -3.9530    0.3550    0.8440 C   0  0  0  0  0  0  0  0  0  0  0  0
   -3.0920    1.2330    0.7610 O   0  0  0  0  0  0  0  0  0  0  0  0
   -5.2780    0.8470    1.0110 O   0  0  0  0  0  0  0  0  0  0  0  0
   -3.6660   -3.2870   -0.2540 H   0  0  0  0  0  0  0  0  0  0  0  0
   -2.0360   -3.7320    0.4810 H   0  0  0  0  0  0  0  0  0  0  0  0
   -2.7560   -3.4370    2.6660 H   0  0  0  0  0  0  0  0  0  0  0  0
   -4.3600   -3.8360    1.9940 H   0  0  0  0  0  0  0  0  0  0  0  0
   -5.0200   -1.5940    2.4650 H   0  0  0  0  0  0  0  0  0  0  0  0
   -3.2560   -1.2220    2.8870 H   0  0  0  0  0  0  0  0  0  0  0  0
   -4.5230   -1.5970    0.1700 H   0  0  0  0  0  0  0  0  0  0  0  0
  1  9  1  0  0  0  0
  2  1  1  0  0  0  0
  2  3  1  0  0  0  0
  2 12  1  0  0  0  0
  3 13  1  0  0  0  0
  3 15  1  0  0  0  0
  4  2  1  0  0  0  0
  5 18  1  6  0  0  0
  5  4  1  0  0  0  0
  5  6  1  0  0  0  0
  6 19  1  0  0  0  0
  7  5  1  0  0  0  0
  7  8  2  0  0  0  0
 10  1  1  0  0  0  0
 11  1  1  0  0  0  0
 14  3  1  0  0  0  0
 16  4  1  0  0  0  0
 17  4  1  0  0  0  0
 20  6  1  0  0  0  0
 21 22  1  0  0  0  0
 22 23  1  0  0  0  0
 22 32  1  0  0  0  0
 22 33  1  0  0  0  0
 23 34  1  6  0  0  0
 23 25  1  0  0  0  0
 24 35  1  0  0  0  0
 24 37  1  0  0  0  0
 24 23  1  0  0  0  0
 25 26  1  0  0  0  0
 25 27  1  0  0  0  0
 25 38  1  1  0  0  0
 26  7  1  0  0  0  0
 27 40  1  0  0  0  0
 28 27  2  0  0  0  0
 29 21  1  0  0  0  0
 30 21  1  0  0  0  0
 31 21  1  0  0  0  0
 36 24  1  0  0  0  0
 39 26  1  0  0  0  0
 40 41  1  0  0  0  0
 40 44  1  0  0  0  0
 41 42  1  0  0  0  0
 42 51  1  0  0  0  0
 42 43  1  0  0  0  0
 42 50  1  0  0  0  0
 43 52  1  0  0  0  0
 43 53  1  0  0  0  0
 44 54  1  6  0  0  0
 44 45  1  0  0  0  0
 44 43  1  0  0  0  0
 45 47  1  0  0  0  0
 46 45  2  0  0  0  0
 48 41  1  0  0  0  0
 49 41  1  0  0  0  0
M  END
$$$$
