LIQ.pdb
 OpenBabel07022418463D

 57 56  0  0  1  0  0  0  0  0999 V2000
    3.4540   -3.4260    3.1260 C   0  0  0  0  0  0  0  0  0  0  0  0
    2.8440   -3.0240    1.7830 C   0  0  0  0  0  0  0  0  0  0  0  0
    1.4060   -3.4150    1.8360 C   0  0  0  0  0  0  0  0  0  0  0  0
    3.0950   -1.5640    1.5110 C   0  0  0  0  0  0  0  0  0  0  0  0
    2.5050   -0.6440    2.5440 C   0  0  2  0  0  0  0  0  0  0  0  0
    3.0220   -0.9060    3.8560 N   0  0  0  0  0  0  0  0  0  0  0  0
    1.0370   -0.5320    2.4940 C   0  0  0  0  0  0  0  0  0  0  0  0
    0.3820   -0.7960    3.5260 O   0  0  0  0  0  0  0  0  0  0  0  0
    3.6290   -4.5310    3.0420 H   0  0  0  0  0  0  0  0  0  0  0  0
    4.3810   -2.8650    3.2790 H   0  0  0  0  0  0  0  0  0  0  0  0
    2.6770   -3.2600    3.8930 H   0  0  0  0  0  0  0  0  0  0  0  0
    3.3390   -3.5930    0.9730 H   0  0  0  0  0  0  0  0  0  0  0  0
    0.7650   -2.8740    1.1220 H   0  0  0  0  0  0  0  0  0  0  0  0
    1.3480   -4.4980    1.5160 H   0  0  0  0  0  0  0  0  0  0  0  0
    0.9920   -3.4120    2.8690 H   0  0  0  0  0  0  0  0  0  0  0  0
    4.1930   -1.4170    1.5350 H   0  0  0  0  0  0  0  0  0  0  0  0
    2.7380   -1.2610    0.5290 H   0  0  0  0  0  0  0  0  0  0  0  0
    2.8870    0.3840    2.2710 H   0  0  0  0  0  0  0  0  0  0  0  0
    4.0290   -0.5680    3.8690 H   0  0  0  0  0  0  0  0  0  0  0  0
    2.4890   -0.2890    4.5260 H   0  0  0  0  0  0  0  0  0  0  0  0
    0.1720    2.5470   -0.0370 C   0  0  0  0  0  0  0  0  0  0  0  0
   -1.2460    2.1650    0.1080 C   0  0  0  0  0  0  0  0  0  0  0  0
   -1.6150    1.3660    1.2930 C   0  0  2  0  0  0  0  0  0  0  0  0
   -1.2820    2.1300    2.5820 C   0  0  0  0  0  0  0  0  0  0  0  0
   -1.0760   -0.0430    1.3450 C   0  0  2  0  0  0  0  0  0  0  0  0
    0.3360   -0.1370    1.3310 N   0  0  0  0  0  0  0  0  0  0  0  0
   -1.7550   -0.7850    0.2590 C   0  0  0  0  0  0  0  0  0  0  0  0
   -3.0320   -0.6880    0.2670 O   0  0  0  0  0  0  0  0  0  0  0  0
    0.7800    2.4390    0.8830 H   0  0  0  0  0  0  0  0  0  0  0  0
    0.6230    2.0060   -0.9090 H   0  0  0  0  0  0  0  0  0  0  0  0
    0.2400    3.6190   -0.3160 H   0  0  0  0  0  0  0  0  0  0  0  0
   -1.8720    3.1060    0.1440 H   0  0  0  0  0  0  0  0  0  0  0  0
   -1.6000    1.6550   -0.8160 H   0  0  0  0  0  0  0  0  0  0  0  0
   -2.7230    1.2640    1.3070 H   0  0  0  0  0  0  0  0  0  0  0  0
   -1.9150    1.8270    3.4200 H   0  0  0  0  0  0  0  0  0  0  0  0
   -1.4770    3.2070    2.3960 H   0  0  0  0  0  0  0  0  0  0  0  0
   -0.1920    2.0590    2.8000 H   0  0  0  0  0  0  0  0  0  0  0  0
   -1.4990   -0.4560    2.3150 H   0  0  0  0  0  0  0  0  0  0  0  0
    0.8860    0.0770    0.4800 H   0  0  0  0  0  0  0  0  0  0  0  0
   -3.0520    1.6920   -3.2170 N   0  0  0  0  0  0  0  0  0  0  0  0
   -2.8760    0.3010   -3.1730 C   0  0  0  0  0  0  0  0  0  0  0  0
   -3.8730   -0.4290   -3.0630 O   0  0  0  0  0  0  0  0  0  0  0  0
   -1.5200   -0.2670   -3.2590 C   0  0  0  0  0  0  0  0  0  0  0  0
   -1.4390   -1.7470   -3.0840 C   0  0  0  0  0  0  0  0  0  0  0  0
   -1.9450   -2.2090   -1.7270 C   0  0  2  0  0  0  0  0  0  0  0  0
   -1.1110   -1.5540   -0.7380 N   0  0  0  0  0  0  0  0  0  0  0  0
   -1.7350   -3.6760   -1.5990 C   0  0  0  0  0  0  0  0  0  0  0  0
   -2.3380   -4.4970   -2.3420 O   0  0  0  0  0  0  0  0  0  0  0  0
   -0.8630   -4.1570   -0.6510 O   0  0  0  0  0  0  0  0  0  0  0  0
   -3.9400    2.1400   -2.8480 H   0  0  0  0  0  0  0  0  0  0  0  0
   -2.3500    2.3470   -3.6000 H   0  0  0  0  0  0  0  0  0  0  0  0
   -1.1430   -0.0090   -4.2880 H   0  0  0  0  0  0  0  0  0  0  0  0
   -0.7930    0.2480   -2.5650 H   0  0  0  0  0  0  0  0  0  0  0  0
   -0.4260   -2.1210   -3.2680 H   0  0  0  0  0  0  0  0  0  0  0  0
   -2.0880   -2.2620   -3.8380 H   0  0  0  0  0  0  0  0  0  0  0  0
   -3.0160   -1.9560   -1.5820 H   0  0  0  0  0  0  0  0  0  0  0  0
   -0.0740   -1.6220   -0.7300 H   0  0  0  0  0  0  0  0  0  0  0  0
  1 10  1  0  0  0  0
  1 11  1  0  0  0  0
  2  3  1  0  0  0  0
  2  1  1  0  0  0  0
  3 15  1  0  0  0  0
  4 16  1  0  0  0  0
  4  2  1  0  0  0  0
  4  5  1  0  0  0  0
  5 18  1  6  0  0  0
  5  6  1  0  0  0  0
  6 19  1  0  0  0  0
  6 20  1  0  0  0  0
  7  5  1  0  0  0  0
  7  8  2  0  0  0  0
  9  1  1  0  0  0  0
 12  2  1  0  0  0  0
 13  3  1  0  0  0  0
 14  3  1  0  0  0  0
 17  4  1  0  0  0  0
 21 22  1  0  0  0  0
 21 29  1  0  0  0  0
 22 32  1  0  0  0  0
 22 23  1  0  0  0  0
 23 34  1  6  0  0  0
 23 25  1  0  0  0  0
 23 24  1  0  0  0  0
 24 37  1  0  0  0  0
 24 35  1  0  0  0  0
 25 38  1  1  0  0  0
 26 25  1  0  0  0  0
 26  7  1  0  0  0  0
 27 28  2  0  0  0  0
 27 25  1  0  0  0  0
 30 21  1  0  0  0  0
 31 21  1  0  0  0  0
 33 22  1  0  0  0  0
 36 24  1  0  0  0  0
 39 26  1  0  0  0  0
 40 41  1  0  0  0  0
 40 50  1  0  0  0  0
 41 42  2  0  0  0  0
 43 41  1  0  0  0  0
 43 44  1  0  0  0  0
 43 53  1  0  0  0  0
 44 45  1  0  0  0  0
 45 47  1  0  0  0  0
 45 56  1  1  0  0  0
 45 46  1  0  0  0  0
 46 57  1  0  0  0  0
 46 27  1  0  0  0  0
 47 49  1  0  0  0  0
 48 47  2  0  0  0  0
 51 40  1  0  0  0  0
 52 43  1  0  0  0  0
 54 44  1  0  0  0  0
 55 44  1  0  0  0  0
M  END
$$$$
