LIR.pdb
 OpenBabel07022418463D

 63 62  0  0  1  0  0  0  0  0999 V2000
    0.3080   -1.2530    5.0890 C   0  0  0  0  0  0  0  0  0  0  0  0
    1.0510   -0.0590    4.4910 C   0  0  0  0  0  0  0  0  0  0  0  0
    0.0760    0.8040    3.7790 C   0  0  0  0  0  0  0  0  0  0  0  0
    2.1760   -0.6060    3.6740 C   0  0  0  0  0  0  0  0  0  0  0  0
    3.0040    0.4660    3.0070 C   0  0  2  0  0  0  0  0  0  0  0  0
    3.5800    1.3710    3.9830 N   0  0  0  0  0  0  0  0  0  0  0  0
    2.3460    1.1940    1.9350 C   0  0  0  0  0  0  0  0  0  0  0  0
    2.1750    2.4360    2.0510 O   0  0  0  0  0  0  0  0  0  0  0  0
    0.7430   -1.4760    6.1070 H   0  0  0  0  0  0  0  0  0  0  0  0
    0.3800   -2.1370    4.4490 H   0  0  0  0  0  0  0  0  0  0  0  0
   -0.7620   -1.0290    5.2550 H   0  0  0  0  0  0  0  0  0  0  0  0
    1.4570    0.5310    5.3470 H   0  0  0  0  0  0  0  0  0  0  0  0
   -0.0730    0.6130    2.7160 H   0  0  0  0  0  0  0  0  0  0  0  0
    0.2520    1.8950    3.9260 H   0  0  0  0  0  0  0  0  0  0  0  0
   -0.9360    0.6380    4.2590 H   0  0  0  0  0  0  0  0  0  0  0  0
    1.8180   -1.3700    2.9840 H   0  0  0  0  0  0  0  0  0  0  0  0
    2.8610   -1.1310    4.3960 H   0  0  0  0  0  0  0  0  0  0  0  0
    3.9020   -0.0380    2.5340 H   0  0  0  0  0  0  0  0  0  0  0  0
    4.3030    0.8160    4.5160 H   0  0  0  0  0  0  0  0  0  0  0  0
    4.1240    2.0930    3.4200 H   0  0  0  0  0  0  0  0  0  0  0  0
    2.5710    2.5840   -3.6540 C   0  0  0  0  0  0  0  0  0  0  0  0
    1.5330    2.1530   -2.6010 C   0  0  0  0  0  0  0  0  0  0  0  0
    2.1880    1.4130   -1.4870 C   0  0  2  0  0  0  0  0  0  0  0  0
    2.8930    0.1690   -1.9010 C   0  0  0  0  0  0  0  0  0  0  0  0
    1.2420    1.2430   -0.3170 C   0  0  2  0  0  0  0  0  0  0  0  0
    1.9000    0.5190    0.7640 N   0  0  0  0  0  0  0  0  0  0  0  0
    0.0010    0.5760   -0.6400 C   0  0  0  0  0  0  0  0  0  0  0  0
   -0.7260    1.1250   -1.5450 O   0  0  0  0  0  0  0  0  0  0  0  0
    3.1060    3.4710   -3.2410 H   0  0  0  0  0  0  0  0  0  0  0  0
    3.3530    1.7830   -3.7240 H   0  0  0  0  0  0  0  0  0  0  0  0
    2.1190    2.8430   -4.6080 H   0  0  0  0  0  0  0  0  0  0  0  0
    0.8300    1.5180   -3.2110 H   0  0  0  0  0  0  0  0  0  0  0  0
    1.0500    3.0860   -2.2550 H   0  0  0  0  0  0  0  0  0  0  0  0
    2.9940    2.1090   -1.0970 H   0  0  0  0  0  0  0  0  0  0  0  0
    2.8700   -0.6270   -1.1320 H   0  0  0  0  0  0  0  0  0  0  0  0
    3.9950    0.3420   -2.0910 H   0  0  0  0  0  0  0  0  0  0  0  0
    2.5170   -0.2100   -2.8920 H   0  0  0  0  0  0  0  0  0  0  0  0
    1.0550    2.2690    0.0550 H   0  0  0  0  0  0  0  0  0  0  0  0
    2.0770   -0.5080    0.7340 H   0  0  0  0  0  0  0  0  0  0  0  0
   -6.3100   -2.8090   -0.7180 N   0  0  0  0  0  0  0  0  0  0  0  0
   -5.2710   -3.5210   -1.3910 C   0  0  0  0  0  0  0  0  0  0  0  0
   -5.3270   -3.6280   -2.6660 N   0  0  0  0  0  0  0  0  0  0  0  0
   -4.2140   -4.0820   -0.6190 N   0  0  0  0  0  0  0  0  0  0  0  0
   -3.0000   -4.4470   -1.2170 C   0  0  0  0  0  0  0  0  0  0  0  0
   -2.0620   -3.4990   -1.7680 C   0  0  0  0  0  0  0  0  0  0  0  0
   -1.3230   -2.4610   -1.1280 C   0  0  0  0  0  0  0  0  0  0  0  0
   -1.7650   -1.2570   -0.4410 C   0  0  2  0  0  0  0  0  0  0  0  0
   -0.4420   -0.6050   -0.0400 N   0  0  0  0  0  0  0  0  0  0  0  0
   -2.5320   -1.3490    0.8010 C   0  0  0  0  0  0  0  0  0  0  0  0
   -1.9720   -1.1860    1.9380 O   0  0  0  0  0  0  0  0  0  0  0  0
   -3.8800   -1.6010    0.8580 O   0  0  0  0  0  0  0  0  0  0  0  0
   -6.5420   -2.9610    0.2850 H   0  0  0  0  0  0  0  0  0  0  0  0
   -6.8740   -2.0970   -1.2520 H   0  0  0  0  0  0  0  0  0  0  0  0
   -6.1060   -3.2080   -3.1830 H   0  0  0  0  0  0  0  0  0  0  0  0
   -4.3800   -4.2180    0.3940 H   0  0  0  0  0  0  0  0  0  0  0  0
   -3.3000   -5.1540   -2.0810 H   0  0  0  0  0  0  0  0  0  0  0  0
   -2.4470   -5.2230   -0.5600 H   0  0  0  0  0  0  0  0  0  0  0  0
   -2.6280   -2.9840   -2.6590 H   0  0  0  0  0  0  0  0  0  0  0  0
   -1.3330   -4.1330   -2.4260 H   0  0  0  0  0  0  0  0  0  0  0  0
   -0.4640   -2.0970   -1.8400 H   0  0  0  0  0  0  0  0  0  0  0  0
   -0.6270   -2.9950   -0.3500 H   0  0  0  0  0  0  0  0  0  0  0  0
   -2.1820   -0.5090   -1.1480 H   0  0  0  0  0  0  0  0  0  0  0  0
    0.1400   -1.0390    0.6880 H   0  0  0  0  0  0  0  0  0  0  0  0
  1 11  1  0  0  0  0
  1  9  1  0  0  0  0
  2  1  1  0  0  0  0
  2 12  1  0  0  0  0
  3 14  1  0  0  0  0
  3 15  1  0  0  0  0
  3  2  1  0  0  0  0
  4 17  1  0  0  0  0
  4  2  1  0  0  0  0
  5 18  1  6  0  0  0
  5  4  1  0  0  0  0
  5  6  1  0  0  0  0
  6 19  1  0  0  0  0
  7  8  2  0  0  0  0
  7  5  1  0  0  0  0
 10  1  1  0  0  0  0
 13  3  1  0  0  0  0
 16  4  1  0  0  0  0
 20  6  1  0  0  0  0
 21 29  1  0  0  0  0
 21 22  1  0  0  0  0
 22 33  1  0  0  0  0
 22 23  1  0  0  0  0
 23 34  1  1  0  0  0
 23 25  1  0  0  0  0
 24 23  1  0  0  0  0
 24 35  1  0  0  0  0
 25 38  1  1  0  0  0
 25 26  1  0  0  0  0
 26  7  1  0  0  0  0
 27 25  1  0  0  0  0
 27 48  1  0  0  0  0
 28 27  2  0  0  0  0
 30 21  1  0  0  0  0
 31 21  1  0  0  0  0
 32 22  1  0  0  0  0
 36 24  1  0  0  0  0
 37 24  1  0  0  0  0
 39 26  1  0  0  0  0
 40 52  1  0  0  0  0
 41 40  1  0  0  0  0
 41 43  1  0  0  0  0
 42 41  2  0  0  0  0
 43 55  1  0  0  0  0
 44 43  1  0  0  0  0
 44 57  1  0  0  0  0
 45 44  1  0  0  0  0
 45 46  1  0  0  0  0
 46 47  1  0  0  0  0
 46 61  1  0  0  0  0
 47 62  1  6  0  0  0
 47 48  1  0  0  0  0
 47 49  1  0  0  0  0
 48 63  1  0  0  0  0
 49 51  2  0  0  0  0
 49 50  1  0  0  0  0
 53 40  1  0  0  0  0
 54 42  1  0  0  0  0
 56 44  1  0  0  0  0
 58 45  1  0  0  0  0
 59 45  1  0  0  0  0
 60 46  1  0  0  0  0
M  END
$$$$
