LIS.pdb
 OpenBabel07022418463D

 51 50  0  0  1  0  0  0  0  0999 V2000
   -2.3300   -2.8940    3.9370 C   0  0  0  0  0  0  0  0  0  0  0  0
   -1.0640   -2.0480    3.7310 C   0  0  0  0  0  0  0  0  0  0  0  0
   -0.2860   -1.9480    5.0230 C   0  0  0  0  0  0  0  0  0  0  0  0
   -1.5240   -0.7120    3.2550 C   0  0  0  0  0  0  0  0  0  0  0  0
   -0.4350    0.2820    2.9900 C   0  0  2  0  0  0  0  0  0  0  0  0
   -1.1100    1.5100    2.5390 N   0  0  0  0  0  0  0  0  0  0  0  0
    0.4390   -0.1880    1.8510 C   0  0  0  0  0  0  0  0  0  0  0  0
    1.1130   -1.2110    2.0270 O   0  0  0  0  0  0  0  0  0  0  0  0
   -2.0070   -3.9490    4.0150 H   0  0  0  0  0  0  0  0  0  0  0  0
   -2.8940   -2.5300    4.8070 H   0  0  0  0  0  0  0  0  0  0  0  0
   -2.9160   -2.8120    3.0010 H   0  0  0  0  0  0  0  0  0  0  0  0
   -0.4520   -2.6190    3.0240 H   0  0  0  0  0  0  0  0  0  0  0  0
    0.8150   -2.0540    4.8640 H   0  0  0  0  0  0  0  0  0  0  0  0
   -0.4290   -0.9210    5.4270 H   0  0  0  0  0  0  0  0  0  0  0  0
   -0.6580   -2.7350    5.7150 H   0  0  0  0  0  0  0  0  0  0  0  0
   -2.0630   -0.8610    2.2850 H   0  0  0  0  0  0  0  0  0  0  0  0
   -2.2280   -0.3090    4.0110 H   0  0  0  0  0  0  0  0  0  0  0  0
    0.1540    0.5580    3.8730 H   0  0  0  0  0  0  0  0  0  0  0  0
   -1.3800    2.1160    3.3240 H   0  0  0  0  0  0  0  0  0  0  0  0
   -1.9370    1.2830    1.9370 H   0  0  0  0  0  0  0  0  0  0  0  0
    4.3880   -1.6980    0.5640 C   0  0  0  0  0  0  0  0  0  0  0  0
    3.4650   -0.4900    0.5110 C   0  0  0  0  0  0  0  0  0  0  0  0
    2.3500   -0.8210   -0.4260 C   0  0  2  0  0  0  0  0  0  0  0  0
    2.9420   -1.0790   -1.7850 C   0  0  0  0  0  0  0  0  0  0  0  0
    1.2720    0.2170   -0.5320 C   0  0  2  0  0  0  0  0  0  0  0  0
    0.5070    0.4860    0.6280 N   0  0  0  0  0  0  0  0  0  0  0  0
    0.4710    0.0790   -1.7250 C   0  0  0  0  0  0  0  0  0  0  0  0
    0.9140   -0.1380   -2.8940 O   0  0  0  0  0  0  0  0  0  0  0  0
    4.6610   -1.9210    1.6230 H   0  0  0  0  0  0  0  0  0  0  0  0
    3.8530   -2.6050    0.2050 H   0  0  0  0  0  0  0  0  0  0  0  0
    5.2830   -1.5950   -0.0690 H   0  0  0  0  0  0  0  0  0  0  0  0
    3.2510   -0.0200    1.4500 H   0  0  0  0  0  0  0  0  0  0  0  0
    4.1340    0.2990   -0.0200 H   0  0  0  0  0  0  0  0  0  0  0  0
    1.8840   -1.8300   -0.1470 H   0  0  0  0  0  0  0  0  0  0  0  0
    3.1450   -0.1310   -2.2940 H   0  0  0  0  0  0  0  0  0  0  0  0
    2.3940   -1.8340   -2.3810 H   0  0  0  0  0  0  0  0  0  0  0  0
    3.9490   -1.5710   -1.6050 H   0  0  0  0  0  0  0  0  0  0  0  0
    1.9390    1.1780   -0.6440 H   0  0  0  0  0  0  0  0  0  0  0  0
   -0.1260    1.3520    0.5640 H   0  0  0  0  0  0  0  0  0  0  0  0
   -1.9940   -2.3170   -2.4740 O   0  0  0  0  0  0  0  0  0  0  0  0
   -2.7090   -1.1390   -2.6090 C   0  0  0  0  0  0  0  0  0  0  0  0
   -1.8010    0.0640   -2.7570 C   0  0  2  0  0  0  0  0  0  0  0  0
   -0.9530    0.1940   -1.5960 N   0  0  0  0  0  0  0  0  0  0  0  0
   -2.6010    1.2740   -3.0150 C   0  0  0  0  0  0  0  0  0  0  0  0
   -3.3750    1.2650   -4.0060 O   0  0  0  0  0  0  0  0  0  0  0  0
   -2.5450    2.4020   -2.2370 O   0  0  0  0  0  0  0  0  0  0  0  0
   -2.2210   -2.7970   -1.6360 H   0  0  0  0  0  0  0  0  0  0  0  0
   -3.2960   -1.2400   -3.5670 H   0  0  0  0  0  0  0  0  0  0  0  0
   -3.4480   -1.0120   -1.8080 H   0  0  0  0  0  0  0  0  0  0  0  0
   -1.1760   -0.1200   -3.6490 H   0  0  0  0  0  0  0  0  0  0  0  0
   -1.3990    0.3700   -0.6770 H   0  0  0  0  0  0  0  0  0  0  0  0
  1  9  1  0  0  0  0
  1 10  1  0  0  0  0
  2  1  1  0  0  0  0
  2  3  1  0  0  0  0
  3 14  1  0  0  0  0
  3 15  1  0  0  0  0
  4  2  1  0  0  0  0
  4 17  1  0  0  0  0
  5  4  1  0  0  0  0
  5 18  1  1  0  0  0
  6  5  1  0  0  0  0
  6 19  1  0  0  0  0
  7  8  2  0  0  0  0
  7  5  1  0  0  0  0
 11  1  1  0  0  0  0
 12  2  1  0  0  0  0
 13  3  1  0  0  0  0
 16  4  1  0  0  0  0
 20  6  1  0  0  0  0
 21 29  1  0  0  0  0
 22 21  1  0  0  0  0
 22 32  1  0  0  0  0
 23 34  1  1  0  0  0
 23 22  1  0  0  0  0
 24 37  1  0  0  0  0
 24 23  1  0  0  0  0
 25 38  1  6  0  0  0
 25 23  1  0  0  0  0
 25 26  1  0  0  0  0
 26  7  1  0  0  0  0
 27 43  1  0  0  0  0
 27 25  1  0  0  0  0
 28 27  2  0  0  0  0
 30 21  1  0  0  0  0
 31 21  1  0  0  0  0
 33 22  1  0  0  0  0
 35 24  1  0  0  0  0
 36 24  1  0  0  0  0
 39 26  1  0  0  0  0
 40 47  1  0  0  0  0
 41 40  1  0  0  0  0
 41 49  1  0  0  0  0
 42 50  1  6  0  0  0
 42 41  1  0  0  0  0
 42 43  1  0  0  0  0
 43 51  1  0  0  0  0
 44 42  1  0  0  0  0
 44 46  1  0  0  0  0
 45 44  2  0  0  0  0
 48 41  1  0  0  0  0
M  END
$$$$
