LIT.pdb
 OpenBabel07022418463D

 54 53  0  0  1  0  0  0  0  0999 V2000
    1.1790   -4.8900    4.1980 C   0  0  0  0  0  0  0  0  0  0  0  0
    0.5240   -3.5590    3.7920 C   0  0  0  0  0  0  0  0  0  0  0  0
    0.3200   -3.5920    2.3140 C   0  0  0  0  0  0  0  0  0  0  0  0
    1.4070   -2.4820    4.3050 C   0  0  0  0  0  0  0  0  0  0  0  0
    0.9920   -1.0850    4.0460 C   0  0  2  0  0  0  0  0  0  0  0  0
   -0.2730   -0.6970    4.5760 N   0  0  0  0  0  0  0  0  0  0  0  0
    1.1570   -0.7470    2.5870 C   0  0  0  0  0  0  0  0  0  0  0  0
    2.2430   -1.1070    2.1080 O   0  0  0  0  0  0  0  0  0  0  0  0
    0.4040   -5.6860    4.2790 H   0  0  0  0  0  0  0  0  0  0  0  0
    1.9080   -5.2000    3.4210 H   0  0  0  0  0  0  0  0  0  0  0  0
    1.6700   -4.7200    5.1750 H   0  0  0  0  0  0  0  0  0  0  0  0
   -0.4780   -3.5820    4.2940 H   0  0  0  0  0  0  0  0  0  0  0  0
   -0.3870   -2.8190    1.9520 H   0  0  0  0  0  0  0  0  0  0  0  0
    1.2690   -3.6390    1.7520 H   0  0  0  0  0  0  0  0  0  0  0  0
   -0.1980   -4.5670    2.0590 H   0  0  0  0  0  0  0  0  0  0  0  0
    1.4840   -2.6360    5.4210 H   0  0  0  0  0  0  0  0  0  0  0  0
    2.4220   -2.6460    3.8510 H   0  0  0  0  0  0  0  0  0  0  0  0
    1.7690   -0.4220    4.5450 H   0  0  0  0  0  0  0  0  0  0  0  0
   -0.3500    0.3560    4.4410 H   0  0  0  0  0  0  0  0  0  0  0  0
   -0.2350   -0.8270    5.6050 H   0  0  0  0  0  0  0  0  0  0  0  0
    2.1830    2.7140   -0.0120 C   0  0  0  0  0  0  0  0  0  0  0  0
    2.5240    1.2800    0.3930 C   0  0  0  0  0  0  0  0  0  0  0  0
    1.5110    0.3120   -0.1840 C   0  0  2  0  0  0  0  0  0  0  0  0
    1.5550    0.4950   -1.6790 C   0  0  0  0  0  0  0  0  0  0  0  0
    0.1810    0.3260    0.4650 C   0  0  2  0  0  0  0  0  0  0  0  0
    0.1700   -0.0910    1.8620 N   0  0  0  0  0  0  0  0  0  0  0  0
   -0.9770   -0.1570   -0.2560 C   0  0  0  0  0  0  0  0  0  0  0  0
   -1.7140   -1.0300    0.3530 O   0  0  0  0  0  0  0  0  0  0  0  0
    2.4330    3.4080    0.8150 H   0  0  0  0  0  0  0  0  0  0  0  0
    1.1590    2.8310   -0.3830 H   0  0  0  0  0  0  0  0  0  0  0  0
    2.8500    3.0370   -0.8660 H   0  0  0  0  0  0  0  0  0  0  0  0
    3.5050    1.0360   -0.0620 H   0  0  0  0  0  0  0  0  0  0  0  0
    2.6300    1.2850    1.4710 H   0  0  0  0  0  0  0  0  0  0  0  0
    2.0270   -0.7030   -0.0570 H   0  0  0  0  0  0  0  0  0  0  0  0
    2.6230    0.4250   -2.0440 H   0  0  0  0  0  0  0  0  0  0  0  0
    1.0330   -0.2970   -2.2400 H   0  0  0  0  0  0  0  0  0  0  0  0
    1.2610    1.5280   -1.9330 H   0  0  0  0  0  0  0  0  0  0  0  0
    0.0190    1.4810    0.5870 H   0  0  0  0  0  0  0  0  0  0  0  0
   -0.7130    0.1260    2.4480 H   0  0  0  0  0  0  0  0  0  0  0  0
   -3.1550    1.5890   -3.4870 C   0  0  0  0  0  0  0  0  0  0  0  0
   -3.6810    0.6440   -2.4270 C   0  0  1  0  0  0  0  0  0  0  0  0
   -4.7830   -0.0140   -2.9680 O   0  0  0  0  0  0  0  0  0  0  0  0
   -2.6410   -0.4260   -2.1050 C   0  0  2  0  0  0  0  0  0  0  0  0
   -1.4430    0.1750   -1.5300 N   0  0  0  0  0  0  0  0  0  0  0  0
   -2.3220   -1.1160   -3.3850 C   0  0  0  0  0  0  0  0  0  0  0  0
   -3.2200   -1.6980   -4.0380 O   0  0  0  0  0  0  0  0  0  0  0  0
   -1.0330   -1.1370   -3.8940 O   0  0  0  0  0  0  0  0  0  0  0  0
   -4.0590    2.0840   -3.9300 H   0  0  0  0  0  0  0  0  0  0  0  0
   -2.4590    2.3320   -3.0500 H   0  0  0  0  0  0  0  0  0  0  0  0
   -2.6990    0.9840   -4.2890 H   0  0  0  0  0  0  0  0  0  0  0  0
   -3.9620    1.1550   -1.4910 H   0  0  0  0  0  0  0  0  0  0  0  0
   -4.9180   -0.9070   -2.6070 H   0  0  0  0  0  0  0  0  0  0  0  0
   -3.0740   -1.1420   -1.3840 H   0  0  0  0  0  0  0  0  0  0  0  0
   -0.9460    0.8720   -2.0760 H   0  0  0  0  0  0  0  0  0  0  0  0
  1  9  1  0  0  0  0
  1 11  1  0  0  0  0
  2  1  1  0  0  0  0
  2 12  1  0  0  0  0
  2  4  1  0  0  0  0
  3  2  1  0  0  0  0
  4 16  1  0  0  0  0
  5  4  1  0  0  0  0
  5 18  1  1  0  0  0
  5  6  1  0  0  0  0
  6 20  1  0  0  0  0
  7  5  1  0  0  0  0
  8  7  2  0  0  0  0
 10  1  1  0  0  0  0
 13  3  1  0  0  0  0
 14  3  1  0  0  0  0
 15  3  1  0  0  0  0
 17  4  1  0  0  0  0
 19  6  1  0  0  0  0
 21 22  1  0  0  0  0
 21 29  1  0  0  0  0
 22 33  1  0  0  0  0
 23 34  1  1  0  0  0
 23 22  1  0  0  0  0
 23 25  1  0  0  0  0
 24 23  1  0  0  0  0
 25 38  1  1  0  0  0
 25 26  1  0  0  0  0
 26 39  1  0  0  0  0
 26  7  1  0  0  0  0
 27 28  2  0  0  0  0
 27 25  1  0  0  0  0
 30 21  1  0  0  0  0
 31 21  1  0  0  0  0
 32 22  1  0  0  0  0
 35 24  1  0  0  0  0
 36 24  1  0  0  0  0
 37 24  1  0  0  0  0
 40 49  1  0  0  0  0
 40 41  1  0  0  0  0
 41 43  1  0  0  0  0
 41 51  1  1  0  0  0
 42 52  1  0  0  0  0
 42 41  1  0  0  0  0
 43 44  1  0  0  0  0
 43 53  1  1  0  0  0
 44 27  1  0  0  0  0
 45 43  1  0  0  0  0
 46 45  2  0  0  0  0
 47 45  1  0  0  0  0
 48 40  1  0  0  0  0
 50 40  1  0  0  0  0
 54 44  1  0  0  0  0
M  END
$$$$
