LIV.pdb
 OpenBabel07022418463D

 56 55  0  0  1  0  0  0  0  0999 V2000
    3.8910    1.7460    3.4090 C   0  0  0  0  0  0  0  0  0  0  0  0
    4.2870    0.8240    2.2580 C   0  0  0  0  0  0  0  0  0  0  0  0
    3.9300   -0.5670    2.6160 C   0  0  0  0  0  0  0  0  0  0  0  0
    3.9230    1.3280    0.9310 C   0  0  0  0  0  0  0  0  0  0  0  0
    2.5170    1.6010    0.5810 C   0  0  2  0  0  0  0  0  0  0  0  0
    1.8260    2.5600    1.3730 N   0  0  0  0  0  0  0  0  0  0  0  0
    1.7040    0.3960    0.2340 C   0  0  0  0  0  0  0  0  0  0  0  0
    2.2150   -0.5420   -0.4250 O   0  0  0  0  0  0  0  0  0  0  0  0
    2.8420    1.5990    3.7320 H   0  0  0  0  0  0  0  0  0  0  0  0
    4.6040    1.4930    4.2490 H   0  0  0  0  0  0  0  0  0  0  0  0
    4.1310    2.7750    3.1070 H   0  0  0  0  0  0  0  0  0  0  0  0
    5.4300    0.8810    2.2880 H   0  0  0  0  0  0  0  0  0  0  0  0
    4.8240   -1.0920    3.0740 H   0  0  0  0  0  0  0  0  0  0  0  0
    3.1720   -0.6350    3.4430 H   0  0  0  0  0  0  0  0  0  0  0  0
    3.6060   -1.2260    1.8150 H   0  0  0  0  0  0  0  0  0  0  0  0
    4.5180    2.2710    0.7460 H   0  0  0  0  0  0  0  0  0  0  0  0
    4.3230    0.6210    0.1610 H   0  0  0  0  0  0  0  0  0  0  0  0
    2.5980    2.1200   -0.4460 H   0  0  0  0  0  0  0  0  0  0  0  0
    1.1960    3.1260    0.7620 H   0  0  0  0  0  0  0  0  0  0  0  0
    1.2020    2.1700    2.1090 H   0  0  0  0  0  0  0  0  0  0  0  0
    0.2830   -2.3270    3.7150 C   0  0  0  0  0  0  0  0  0  0  0  0
    0.4930   -1.8500    2.3180 C   0  0  0  0  0  0  0  0  0  0  0  0
   -0.7970   -1.5630    1.5730 C   0  0  2  0  0  0  0  0  0  0  0  0
   -1.6620   -2.7790    1.4630 C   0  0  0  0  0  0  0  0  0  0  0  0
   -0.4000   -0.9460    0.2520 C   0  0  2  0  0  0  0  0  0  0  0  0
    0.3490    0.2560    0.6200 N   0  0  0  0  0  0  0  0  0  0  0  0
   -1.5560   -0.6040   -0.5980 C   0  0  0  0  0  0  0  0  0  0  0  0
   -1.7670    0.6200   -0.8110 O   0  0  0  0  0  0  0  0  0  0  0  0
   -0.2550   -1.5760    4.3520 H   0  0  0  0  0  0  0  0  0  0  0  0
   -0.1470   -3.3360    3.8140 H   0  0  0  0  0  0  0  0  0  0  0  0
    1.3040   -2.3990    4.1850 H   0  0  0  0  0  0  0  0  0  0  0  0
    1.0610   -0.8990    2.3680 H   0  0  0  0  0  0  0  0  0  0  0  0
    1.1090   -2.5950    1.7810 H   0  0  0  0  0  0  0  0  0  0  0  0
   -1.3640   -0.7860    2.1250 H   0  0  0  0  0  0  0  0  0  0  0  0
   -1.6680   -3.3050    2.4680 H   0  0  0  0  0  0  0  0  0  0  0  0
   -1.2550   -3.5530    0.7740 H   0  0  0  0  0  0  0  0  0  0  0  0
   -2.7290   -2.5450    1.3010 H   0  0  0  0  0  0  0  0  0  0  0  0
    0.3110   -1.6300   -0.2420 H   0  0  0  0  0  0  0  0  0  0  0  0
   -0.1580    0.9910    1.1700 H   0  0  0  0  0  0  0  0  0  0  0  0
   -2.2900   -0.9170   -4.1090 C   0  0  0  0  0  0  0  0  0  0  0  0
   -3.5130   -1.5520   -3.4610 C   0  0  0  0  0  0  0  0  0  0  0  0
   -3.6120   -3.0170   -3.7030 C   0  0  0  0  0  0  0  0  0  0  0  0
   -3.5620   -1.1330   -2.0330 C   0  0  2  0  0  0  0  0  0  0  0  0
   -2.4610   -1.4840   -1.2120 N   0  0  0  0  0  0  0  0  0  0  0  0
   -4.8080   -1.6740   -1.4550 C   0  0  0  0  0  0  0  0  0  0  0  0
   -5.8870   -1.4350   -2.0710 O   0  0  0  0  0  0  0  0  0  0  0  0
   -4.9070   -2.4200   -0.3020 O   0  0  0  0  0  0  0  0  0  0  0  0
   -2.4240    0.1840   -4.2010 H   0  0  0  0  0  0  0  0  0  0  0  0
   -2.1710   -1.2640   -5.1780 H   0  0  0  0  0  0  0  0  0  0  0  0
   -1.3510   -1.2020   -3.6110 H   0  0  0  0  0  0  0  0  0  0  0  0
   -4.3900   -1.0770   -3.9560 H   0  0  0  0  0  0  0  0  0  0  0  0
   -4.6610   -3.3660   -3.8960 H   0  0  0  0  0  0  0  0  0  0  0  0
   -3.0450   -3.3570   -4.6060 H   0  0  0  0  0  0  0  0  0  0  0  0
   -3.3010   -3.6250   -2.8020 H   0  0  0  0  0  0  0  0  0  0  0  0
   -3.6450   -0.0240   -2.0370 H   0  0  0  0  0  0  0  0  0  0  0  0
   -2.3140   -2.5000   -1.0540 H   0  0  0  0  0  0  0  0  0  0  0  0
  1  9  1  0  0  0  0
  1 10  1  0  0  0  0
  2 12  1  0  0  0  0
  2  3  1  0  0  0  0
  2  1  1  0  0  0  0
  3 13  1  0  0  0  0
  3 14  1  0  0  0  0
  4  2  1  0  0  0  0
  5 18  1  6  0  0  0
  5  4  1  0  0  0  0
  5  6  1  0  0  0  0
  6 20  1  0  0  0  0
  7  5  1  0  0  0  0
  7 26  1  0  0  0  0
  8  7  2  0  0  0  0
 11  1  1  0  0  0  0
 15  3  1  0  0  0  0
 16  4  1  0  0  0  0
 17  4  1  0  0  0  0
 19  6  1  0  0  0  0
 21 30  1  0  0  0  0
 21 31  1  0  0  0  0
 21 29  1  0  0  0  0
 22 32  1  0  0  0  0
 22 21  1  0  0  0  0
 23 34  1  1  0  0  0
 23 22  1  0  0  0  0
 24 23  1  0  0  0  0
 24 35  1  0  0  0  0
 25 38  1  6  0  0  0
 25 26  1  0  0  0  0
 25 23  1  0  0  0  0
 26 39  1  0  0  0  0
 27 25  1  0  0  0  0
 28 27  2  0  0  0  0
 33 22  1  0  0  0  0
 36 24  1  0  0  0  0
 37 24  1  0  0  0  0
 40 50  1  0  0  0  0
 40 41  1  0  0  0  0
 41 43  1  0  0  0  0
 42 41  1  0  0  0  0
 42 54  1  0  0  0  0
 43 55  1  1  0  0  0
 43 45  1  0  0  0  0
 43 44  1  0  0  0  0
 44 56  1  0  0  0  0
 44 27  1  0  0  0  0
 45 47  1  0  0  0  0
 46 45  2  0  0  0  0
 48 40  1  0  0  0  0
 49 40  1  0  0  0  0
 51 41  1  0  0  0  0
 52 42  1  0  0  0  0
 53 42  1  0  0  0  0
M  END
$$$$
