LIW.pdb
 OpenBabel07022418463D

 64 65  0  0  1  0  0  0  0  0999 V2000
    2.6960   -1.2090    2.2370 C   0  0  0  0  0  0  0  0  0  0  0  0
    4.0350   -1.5510    1.6850 C   0  0  0  0  0  0  0  0  0  0  0  0
    4.0440   -3.0710    1.4580 C   0  0  0  0  0  0  0  0  0  0  0  0
    4.4090   -0.9210    0.3990 C   0  0  0  0  0  0  0  0  0  0  0  0
    4.4450    0.5770    0.4000 C   0  0  2  0  0  0  0  0  0  0  0  0
    5.3730    1.1190    1.3450 N   0  0  0  0  0  0  0  0  0  0  0  0
    3.1090    1.2210    0.4470 C   0  0  0  0  0  0  0  0  0  0  0  0
    2.8730    2.0970    1.3130 O   0  0  0  0  0  0  0  0  0  0  0  0
    2.4850   -1.9520    3.0640 H   0  0  0  0  0  0  0  0  0  0  0  0
    1.8800   -1.3370    1.5240 H   0  0  0  0  0  0  0  0  0  0  0  0
    2.6770   -0.2210    2.7710 H   0  0  0  0  0  0  0  0  0  0  0  0
    4.7850   -1.3860    2.4850 H   0  0  0  0  0  0  0  0  0  0  0  0
    5.0590   -3.4760    1.4660 H   0  0  0  0  0  0  0  0  0  0  0  0
    3.5330   -3.2880    0.4970 H   0  0  0  0  0  0  0  0  0  0  0  0
    3.4130   -3.5470    2.2650 H   0  0  0  0  0  0  0  0  0  0  0  0
    5.4230   -1.2740    0.1240 H   0  0  0  0  0  0  0  0  0  0  0  0
    3.7350   -1.2540   -0.4080 H   0  0  0  0  0  0  0  0  0  0  0  0
    4.8570    0.8610   -0.6180 H   0  0  0  0  0  0  0  0  0  0  0  0
    5.0060    1.8570    1.9540 H   0  0  0  0  0  0  0  0  0  0  0  0
    5.7630    0.3330    1.9050 H   0  0  0  0  0  0  0  0  0  0  0  0
   -1.7670    2.7350   -2.2220 C   0  0  0  0  0  0  0  0  0  0  0  0
   -0.5180    3.3440   -1.7070 C   0  0  0  0  0  0  0  0  0  0  0  0
    0.6490    2.4710   -1.5050 C   0  0  2  0  0  0  0  0  0  0  0  0
    1.0060    1.8000   -2.8200 C   0  0  0  0  0  0  0  0  0  0  0  0
    0.7590    1.6050   -0.3150 C   0  0  2  0  0  0  0  0  0  0  0  0
    2.0710    0.8920   -0.4510 N   0  0  0  0  0  0  0  0  0  0  0  0
   -0.2820    0.6000   -0.1550 C   0  0  0  0  0  0  0  0  0  0  0  0
    0.0500   -0.6130   -0.3760 O   0  0  0  0  0  0  0  0  0  0  0  0
   -1.9730    3.1560   -3.2570 H   0  0  0  0  0  0  0  0  0  0  0  0
   -2.6560    3.0690   -1.6330 H   0  0  0  0  0  0  0  0  0  0  0  0
   -1.7460    1.6460   -2.3810 H   0  0  0  0  0  0  0  0  0  0  0  0
   -0.8000    3.9240   -0.7790 H   0  0  0  0  0  0  0  0  0  0  0  0
   -0.1960    4.1560   -2.4360 H   0  0  0  0  0  0  0  0  0  0  0  0
    1.5420    3.2350   -1.4030 H   0  0  0  0  0  0  0  0  0  0  0  0
    2.0770    1.6510   -2.9560 H   0  0  0  0  0  0  0  0  0  0  0  0
    0.4540    0.8290   -2.9270 H   0  0  0  0  0  0  0  0  0  0  0  0
    0.6540    2.4630   -3.6340 H   0  0  0  0  0  0  0  0  0  0  0  0
    0.8110    2.2710    0.5790 H   0  0  0  0  0  0  0  0  0  0  0  0
    2.1610    0.1850   -1.2010 H   0  0  0  0  0  0  0  0  0  0  0  0
   -1.6310    0.7660    0.2280 N   0  0  0  0  0  0  0  0  0  0  0  0
   -2.5460   -0.3440    0.3740 C   0  0  1  0  0  0  0  0  0  0  0  0
   -2.8580   -0.6050    1.8320 C   0  0  0  0  0  0  0  0  0  0  0  0
   -3.7950   -1.7480    1.9210 C   0  0  0  0  0  0  0  0  0  0  0  0
   -5.1490   -1.7010    2.1980 C   0  0  0  0  0  0  0  0  0  0  0  0
   -5.6000   -2.9640    2.1880 N   0  0  0  0  0  0  0  0  0  0  0  0
   -4.6190   -3.8370    1.9200 C   0  0  0  0  0  0  0  0  0  0  0  0
   -4.5510   -5.2090    1.7980 C   0  0  0  0  0  0  0  0  0  0  0  0
   -3.3790   -5.8650    1.5110 C   0  0  0  0  0  0  0  0  0  0  0  0
   -2.2510   -5.0870    1.3460 C   0  0  0  0  0  0  0  0  0  0  0  0
   -2.2860   -3.7240    1.4610 C   0  0  0  0  0  0  0  0  0  0  0  0
   -3.4880   -3.1020    1.7510 C   0  0  0  0  0  0  0  0  0  0  0  0
   -3.7510   -0.2260   -0.4230 C   0  0  0  0  0  0  0  0  0  0  0  0
   -4.5980   -1.1890   -0.4130 O   0  0  0  0  0  0  0  0  0  0  0  0
   -4.1120    0.8350   -1.2220 O   0  0  0  0  0  0  0  0  0  0  0  0
   -1.9710    1.7130    0.4200 H   0  0  0  0  0  0  0  0  0  0  0  0
   -1.9930   -1.2620    0.0320 H   0  0  0  0  0  0  0  0  0  0  0  0
   -3.2660    0.2770    2.3300 H   0  0  0  0  0  0  0  0  0  0  0  0
   -1.8980   -0.9670    2.3040 H   0  0  0  0  0  0  0  0  0  0  0  0
   -5.7490   -0.7980    2.3910 H   0  0  0  0  0  0  0  0  0  0  0  0
   -6.5980   -3.2860    2.3630 H   0  0  0  0  0  0  0  0  0  0  0  0
   -5.4490   -5.8220    1.9300 H   0  0  0  0  0  0  0  0  0  0  0  0
   -3.3230   -6.9580    1.4130 H   0  0  0  0  0  0  0  0  0  0  0  0
   -1.2980   -5.5520    1.1180 H   0  0  0  0  0  0  0  0  0  0  0  0
   -1.3570   -3.1680    1.3200 H   0  0  0  0  0  0  0  0  0  0  0  0
  1 11  1  0  0  0  0
  1  9  1  0  0  0  0
  2  1  1  0  0  0  0
  2 12  1  0  0  0  0
  3 13  1  0  0  0  0
  3  2  1  0  0  0  0
  3 15  1  0  0  0  0
  4  5  1  0  0  0  0
  4  2  1  0  0  0  0
  5 18  1  6  0  0  0
  5  7  1  0  0  0  0
  5  6  1  0  0  0  0
  6 20  1  0  0  0  0
  6 19  1  0  0  0  0
  7  8  2  0  0  0  0
 10  1  1  0  0  0  0
 14  3  1  0  0  0  0
 16  4  1  0  0  0  0
 17  4  1  0  0  0  0
 21 22  1  0  0  0  0
 21 30  1  0  0  0  0
 22 23  1  0  0  0  0
 22 32  1  0  0  0  0
 23 34  1  1  0  0  0
 23 25  1  0  0  0  0
 24 23  1  0  0  0  0
 25 27  1  0  0  0  0
 25 38  1  1  0  0  0
 26 25  1  0  0  0  0
 26  7  1  0  0  0  0
 27 40  1  0  0  0  0
 28 27  2  0  0  0  0
 29 21  1  0  0  0  0
 31 21  1  0  0  0  0
 33 22  1  0  0  0  0
 35 24  1  0  0  0  0
 36 24  1  0  0  0  0
 37 24  1  0  0  0  0
 39 26  1  0  0  0  0
 40 41  1  0  0  0  0
 40 55  1  0  0  0  0
 41 56  1  6  0  0  0
 41 42  1  0  0  0  0
 42 43  1  0  0  0  0
 42 58  1  0  0  0  0
 42 57  1  0  0  0  0
 43 44  2  0  0  0  0
 44 59  1  0  0  0  0
 45 44  1  0  0  0  0
 45 60  1  0  0  0  0
 46 45  1  0  0  0  0
 47 46  1  0  0  0  0
 47 61  1  0  0  0  0
 48 47  2  0  0  0  0
 49 50  2  0  0  0  0
 49 48  1  0  0  0  0
 50 51  1  0  0  0  0
 51 46  2  0  0  0  0
 51 43  1  0  0  0  0
 52 53  1  0  0  0  0
 52 41  1  0  0  0  0
 54 52  2  0  0  0  0
 62 48  1  0  0  0  0
 63 49  1  0  0  0  0
 64 50  1  0  0  0  0
M  END
$$$$
