LIY.pdb
 OpenBabel07022418463D

 61 61  0  0  1  0  0  0  0  0999 V2000
    2.7590    0.2310    5.4680 C   0  0  0  0  0  0  0  0  0  0  0  0
    2.6810   -0.5390    4.1860 C   0  0  0  0  0  0  0  0  0  0  0  0
    1.3100   -1.1340    4.0430 C   0  0  0  0  0  0  0  0  0  0  0  0
    3.1640    0.1810    2.9920 C   0  0  0  0  0  0  0  0  0  0  0  0
    2.4760    1.4440    2.6400 C   0  0  2  0  0  0  0  0  0  0  0  0
    2.5620    2.4430    3.7160 N   0  0  0  0  0  0  0  0  0  0  0  0
    1.1140    1.3250    2.1190 C   0  0  0  0  0  0  0  0  0  0  0  0
    0.1320    1.9980    2.5860 O   0  0  0  0  0  0  0  0  0  0  0  0
    3.7150    0.7740    5.5930 H   0  0  0  0  0  0  0  0  0  0  0  0
    1.8920    0.8950    5.6430 H   0  0  0  0  0  0  0  0  0  0  0  0
    2.7210   -0.5290    6.3030 H   0  0  0  0  0  0  0  0  0  0  0  0
    3.3730   -1.4250    4.3240 H   0  0  0  0  0  0  0  0  0  0  0  0
    0.5080   -0.3850    3.8950 H   0  0  0  0  0  0  0  0  0  0  0  0
    1.3760   -1.8790    3.2230 H   0  0  0  0  0  0  0  0  0  0  0  0
    1.0060   -1.7210    4.9420 H   0  0  0  0  0  0  0  0  0  0  0  0
    4.2500    0.3860    3.0820 H   0  0  0  0  0  0  0  0  0  0  0  0
    3.0690   -0.5060    2.1160 H   0  0  0  0  0  0  0  0  0  0  0  0
    3.0820    1.9130    1.8050 H   0  0  0  0  0  0  0  0  0  0  0  0
    3.5890    2.6100    3.8420 H   0  0  0  0  0  0  0  0  0  0  0  0
    2.1890    3.3540    3.3120 H   0  0  0  0  0  0  0  0  0  0  0  0
    0.2140    2.9490   -2.0880 C   0  0  0  0  0  0  0  0  0  0  0  0
    0.0140    2.3190   -0.7250 C   0  0  0  0  0  0  0  0  0  0  0  0
   -0.5050    0.8780   -0.8730 C   0  0  2  0  0  0  0  0  0  0  0  0
   -1.8060    0.9470   -1.6020 C   0  0  0  0  0  0  0  0  0  0  0  0
   -0.6010    0.3490    0.5430 C   0  0  2  0  0  0  0  0  0  0  0  0
    0.7900    0.4470    1.0510 N   0  0  0  0  0  0  0  0  0  0  0  0
   -1.0430   -1.0530    0.6310 C   0  0  0  0  0  0  0  0  0  0  0  0
   -0.2400   -1.9450    1.0100 O   0  0  0  0  0  0  0  0  0  0  0  0
    0.4120    2.1140   -2.8090 H   0  0  0  0  0  0  0  0  0  0  0  0
    1.1030    3.6070   -2.1240 H   0  0  0  0  0  0  0  0  0  0  0  0
   -0.7130    3.4560   -2.4210 H   0  0  0  0  0  0  0  0  0  0  0  0
    0.9870    2.3380   -0.1970 H   0  0  0  0  0  0  0  0  0  0  0  0
   -0.7110    2.9310   -0.1760 H   0  0  0  0  0  0  0  0  0  0  0  0
    0.2480    0.3500   -1.4830 H   0  0  0  0  0  0  0  0  0  0  0  0
   -2.0360   -0.0390   -2.0320 H   0  0  0  0  0  0  0  0  0  0  0  0
   -2.6140    1.3900   -0.9890 H   0  0  0  0  0  0  0  0  0  0  0  0
   -1.6150    1.6270   -2.4940 H   0  0  0  0  0  0  0  0  0  0  0  0
   -1.2210    1.0120    1.1420 H   0  0  0  0  0  0  0  0  0  0  0  0
    1.4930   -0.1450    0.5950 H   0  0  0  0  0  0  0  0  0  0  0  0
   -1.1500   -3.2020   -5.8350 O   0  0  0  0  0  0  0  0  0  0  0  0
   -1.3510   -3.3610   -4.4740 C   0  0  0  0  0  0  0  0  0  0  0  0
   -2.4360   -4.0560   -3.9790 C   0  0  0  0  0  0  0  0  0  0  0  0
   -2.6420   -4.2170   -2.6310 C   0  0  0  0  0  0  0  0  0  0  0  0
   -1.7570   -3.6810   -1.7240 C   0  0  0  0  0  0  0  0  0  0  0  0
   -1.9690   -3.8570   -0.2930 C   0  0  0  0  0  0  0  0  0  0  0  0
   -2.8310   -2.8080    0.3640 C   0  0  2  0  0  0  0  0  0  0  0  0
   -2.3500   -1.4780    0.3110 N   0  0  0  0  0  0  0  0  0  0  0  0
   -3.2270   -3.2990    1.6960 C   0  0  0  0  0  0  0  0  0  0  0  0
   -3.6730   -4.4550    1.9000 O   0  0  0  0  0  0  0  0  0  0  0  0
   -0.6760   -2.9890   -2.1980 C   0  0  0  0  0  0  0  0  0  0  0  0
   -0.4700   -2.8270   -3.5730 C   0  0  0  0  0  0  0  0  0  0  0  0
   -3.1150   -2.4640    2.8060 O   0  0  0  0  0  0  0  0  0  0  0  0
   -1.3160   -3.9540   -6.4740 H   0  0  0  0  0  0  0  0  0  0  0  0
   -3.1130   -4.4650   -4.7400 H   0  0  0  0  0  0  0  0  0  0  0  0
   -3.5060   -4.7690   -2.3210 H   0  0  0  0  0  0  0  0  0  0  0  0
   -2.5270   -4.8290   -0.1560 H   0  0  0  0  0  0  0  0  0  0  0  0
   -1.0080   -4.0250    0.2720 H   0  0  0  0  0  0  0  0  0  0  0  0
   -3.7810   -2.8350   -0.2740 H   0  0  0  0  0  0  0  0  0  0  0  0
   -3.0100   -0.7160    0.0170 H   0  0  0  0  0  0  0  0  0  0  0  0
    0.0800   -2.5340   -1.5830 H   0  0  0  0  0  0  0  0  0  0  0  0
    0.3980   -2.2710   -3.9300 H   0  0  0  0  0  0  0  0  0  0  0  0
  1  9  1  0  0  0  0
  1 10  1  0  0  0  0
  1 11  1  0  0  0  0
  2 12  1  0  0  0  0
  2  1  1  0  0  0  0
  3  2  1  0  0  0  0
  3 15  1  0  0  0  0
  4 16  1  0  0  0  0
  4  2  1  0  0  0  0
  5 18  1  6  0  0  0
  5  4  1  0  0  0  0
  5  6  1  0  0  0  0
  6 19  1  0  0  0  0
  7  8  2  0  0  0  0
  7  5  1  0  0  0  0
 13  3  1  0  0  0  0
 14  3  1  0  0  0  0
 17  4  1  0  0  0  0
 20  6  1  0  0  0  0
 21 22  1  0  0  0  0
 22 32  1  0  0  0  0
 22 33  1  0  0  0  0
 23 34  1  6  0  0  0
 23 22  1  0  0  0  0
 23 25  1  0  0  0  0
 24 36  1  0  0  0  0
 24 23  1  0  0  0  0
 25 27  1  0  0  0  0
 25 26  1  0  0  0  0
 25 38  1  1  0  0  0
 26  7  1  0  0  0  0
 27 28  2  0  0  0  0
 29 21  1  0  0  0  0
 30 21  1  0  0  0  0
 31 21  1  0  0  0  0
 35 24  1  0  0  0  0
 37 24  1  0  0  0  0
 39 26  1  0  0  0  0
 40 41  1  0  0  0  0
 41 42  2  0  0  0  0
 41 51  1  0  0  0  0
 42 43  1  0  0  0  0
 43 55  1  0  0  0  0
 43 44  2  0  0  0  0
 44 45  1  0  0  0  0
 45 56  1  0  0  0  0
 45 57  1  0  0  0  0
 45 46  1  0  0  0  0
 46 58  1  6  0  0  0
 46 48  1  0  0  0  0
 47 46  1  0  0  0  0
 47 27  1  0  0  0  0
 48 49  2  0  0  0  0
 48 52  1  0  0  0  0
 50 44  1  0  0  0  0
 50 60  1  0  0  0  0
 51 50  2  0  0  0  0
 53 40  1  0  0  0  0
 54 42  1  0  0  0  0
 59 47  1  0  0  0  0
 61 51  1  0  0  0  0
M  END
$$$$
