LKA.pdb
 OpenBabel07022418463D

 52 51  0  0  1  0  0  0  0  0999 V2000
    2.2620   -4.8250   -1.5410 C   0  0  0  0  0  0  0  0  0  0  0  0
    2.1620   -3.9060   -0.3130 C   0  0  0  0  0  0  0  0  0  0  0  0
    0.7540   -3.9170    0.1430 C   0  0  0  0  0  0  0  0  0  0  0  0
    2.7570   -2.6100   -0.6980 C   0  0  0  0  0  0  0  0  0  0  0  0
    2.7940   -1.5260    0.3010 C   0  0  2  0  0  0  0  0  0  0  0  0
    3.5030   -1.8210    1.5110 N   0  0  0  0  0  0  0  0  0  0  0  0
    1.4900   -0.8170    0.5290 C   0  0  0  0  0  0  0  0  0  0  0  0
    0.7890   -0.4760   -0.4390 O   0  0  0  0  0  0  0  0  0  0  0  0
    2.3300   -5.8840   -1.2480 H   0  0  0  0  0  0  0  0  0  0  0  0
    1.2840   -4.7180   -2.0910 H   0  0  0  0  0  0  0  0  0  0  0  0
    3.0560   -4.4980   -2.2190 H   0  0  0  0  0  0  0  0  0  0  0  0
    2.7720   -4.4540    0.4650 H   0  0  0  0  0  0  0  0  0  0  0  0
    0.5980   -3.2970    1.0680 H   0  0  0  0  0  0  0  0  0  0  0  0
    0.4720   -4.9470    0.4470 H   0  0  0  0  0  0  0  0  0  0  0  0
    0.0260   -3.6350   -0.6520 H   0  0  0  0  0  0  0  0  0  0  0  0
    2.2330   -2.2160   -1.6200 H   0  0  0  0  0  0  0  0  0  0  0  0
    3.7910   -2.8360   -1.0960 H   0  0  0  0  0  0  0  0  0  0  0  0
    3.4290   -0.6970   -0.1820 H   0  0  0  0  0  0  0  0  0  0  0  0
    3.1230   -2.6960    1.9270 H   0  0  0  0  0  0  0  0  0  0  0  0
    4.4950   -2.0100    1.2550 H   0  0  0  0  0  0  0  0  0  0  0  0
    1.0360   -0.5210    1.8340 N   0  0  0  0  0  0  0  0  0  0  0  0
   -0.1380    0.1230    2.2370 C   0  0  1  0  0  0  0  0  0  0  0  0
    0.0420    1.5360    2.6910 C   0  0  0  0  0  0  0  0  0  0  0  0
    0.6270    2.5060    1.7640 C   0  0  0  0  0  0  0  0  0  0  0  0
   -0.0180    2.9100    0.5180 C   0  0  0  0  0  0  0  0  0  0  0  0
   -1.3150    3.6370    0.5890 C   0  0  0  0  0  0  0  0  0  0  0  0
   -1.2180    4.8860    1.3270 N   0  0  0  0  0  0  0  0  0  0  0  0
   -1.4370   -0.1160    1.6580 C   0  0  0  0  0  0  0  0  0  0  0  0
   -2.3710    0.6770    2.0450 O   0  0  0  0  0  0  0  0  0  0  0  0
    1.7060   -0.8360    2.6340 H   0  0  0  0  0  0  0  0  0  0  0  0
   -0.3320   -0.4210    3.3110 H   0  0  0  0  0  0  0  0  0  0  0  0
   -0.9460    1.8490    3.1240 H   0  0  0  0  0  0  0  0  0  0  0  0
    0.7050    1.4890    3.6120 H   0  0  0  0  0  0  0  0  0  0  0  0
    1.6670    2.1450    1.4960 H   0  0  0  0  0  0  0  0  0  0  0  0
    0.8550    3.4530    2.3590 H   0  0  0  0  0  0  0  0  0  0  0  0
    0.6990    3.6300   -0.0010 H   0  0  0  0  0  0  0  0  0  0  0  0
   -0.0570    2.0630   -0.2300 H   0  0  0  0  0  0  0  0  0  0  0  0
   -2.1160    2.9840    0.9300 H   0  0  0  0  0  0  0  0  0  0  0  0
   -1.6490    3.9670   -0.4490 H   0  0  0  0  0  0  0  0  0  0  0  0
   -1.4530    4.6680    2.3220 H   0  0  0  0  0  0  0  0  0  0  0  0
   -1.9240    5.5890    1.0100 H   0  0  0  0  0  0  0  0  0  0  0  0
   -3.3170   -0.8870   -1.1960 C   0  0  0  0  0  0  0  0  0  0  0  0
   -3.2250   -1.1110    0.2970 C   0  0  2  0  0  0  0  0  0  0  0  0
   -1.8210   -1.1020    0.7330 N   0  0  0  0  0  0  0  0  0  0  0  0
   -3.7990   -2.4090    0.7050 C   0  0  0  0  0  0  0  0  0  0  0  0
   -3.0840   -3.2410    1.3060 O   0  0  0  0  0  0  0  0  0  0  0  0
   -5.1170   -2.7580    0.4500 O   0  0  0  0  0  0  0  0  0  0  0  0
   -4.3500   -0.6010   -1.4500 H   0  0  0  0  0  0  0  0  0  0  0  0
   -2.9130   -1.7150   -1.7880 H   0  0  0  0  0  0  0  0  0  0  0  0
   -2.6830    0.0080   -1.4220 H   0  0  0  0  0  0  0  0  0  0  0  0
   -3.8200   -0.3080    0.7710 H   0  0  0  0  0  0  0  0  0  0  0  0
   -1.1660   -1.8270    0.3770 H   0  0  0  0  0  0  0  0  0  0  0  0
  1  9  1  0  0  0  0
  1  2  1  0  0  0  0
  2  3  1  0  0  0  0
  2 12  1  0  0  0  0
  3 14  1  0  0  0  0
  3 13  1  0  0  0  0
  4  2  1  0  0  0  0
  4  5  1  0  0  0  0
  5 18  1  6  0  0  0
  5  7  1  0  0  0  0
  5  6  1  0  0  0  0
  6 19  1  0  0  0  0
  7 21  1  0  0  0  0
  8  7  2  0  0  0  0
 10  1  1  0  0  0  0
 11  1  1  0  0  0  0
 15  3  1  0  0  0  0
 16  4  1  0  0  0  0
 17  4  1  0  0  0  0
 20  6  1  0  0  0  0
 21 22  1  0  0  0  0
 21 30  1  0  0  0  0
 22 23  1  0  0  0  0
 22 31  1  1  0  0  0
 23 32  1  0  0  0  0
 23 33  1  0  0  0  0
 24 35  1  0  0  0  0
 24 23  1  0  0  0  0
 25 26  1  0  0  0  0
 25 24  1  0  0  0  0
 26 38  1  0  0  0  0
 26 27  1  0  0  0  0
 27 40  1  0  0  0  0
 28 29  2  0  0  0  0
 28 22  1  0  0  0  0
 34 24  1  0  0  0  0
 36 25  1  0  0  0  0
 37 25  1  0  0  0  0
 39 26  1  0  0  0  0
 41 27  1  0  0  0  0
 42 43  1  0  0  0  0
 43 45  1  0  0  0  0
 43 44  1  0  0  0  0
 43 51  1  1  0  0  0
 44 28  1  0  0  0  0
 45 46  1  0  0  0  0
 47 45  2  0  0  0  0
 48 42  1  0  0  0  0
 49 42  1  0  0  0  0
 50 42  1  0  0  0  0
 52 44  1  0  0  0  0
M  END
$$$$
