LKC.pdb
 OpenBabel07022418463D

 53 52  0  0  1  0  0  0  0  0999 V2000
    0.3190   -4.6460    3.5480 C   0  0  0  0  0  0  0  0  0  0  0  0
   -0.7620   -3.6540    3.2340 C   0  0  0  0  0  0  0  0  0  0  0  0
   -1.9360   -4.3030    2.5410 C   0  0  0  0  0  0  0  0  0  0  0  0
   -0.2620   -2.4240    2.5270 C   0  0  0  0  0  0  0  0  0  0  0  0
    0.3920   -2.7680    1.2050 C   0  0  2  0  0  0  0  0  0  0  0  0
    1.5190   -3.6440    1.3690 N   0  0  0  0  0  0  0  0  0  0  0  0
    0.8860   -1.5010    0.5360 C   0  0  0  0  0  0  0  0  0  0  0  0
    2.0970   -1.3970    0.2410 O   0  0  0  0  0  0  0  0  0  0  0  0
    0.0870   -5.1480    4.5120 H   0  0  0  0  0  0  0  0  0  0  0  0
    0.4140   -5.4490    2.7930 H   0  0  0  0  0  0  0  0  0  0  0  0
    1.3100   -4.1760    3.6780 H   0  0  0  0  0  0  0  0  0  0  0  0
   -1.1620   -3.3030    4.2290 H   0  0  0  0  0  0  0  0  0  0  0  0
   -2.7780   -3.5620    2.5330 H   0  0  0  0  0  0  0  0  0  0  0  0
   -1.6420   -4.5530    1.5070 H   0  0  0  0  0  0  0  0  0  0  0  0
   -2.2100   -5.1920    3.1490 H   0  0  0  0  0  0  0  0  0  0  0  0
    0.4570   -1.9240    3.2100 H   0  0  0  0  0  0  0  0  0  0  0  0
   -1.1290   -1.7530    2.3840 H   0  0  0  0  0  0  0  0  0  0  0  0
   -0.3590   -3.2770    0.5760 H   0  0  0  0  0  0  0  0  0  0  0  0
    2.4390   -3.1540    1.1590 H   0  0  0  0  0  0  0  0  0  0  0  0
    1.4410   -4.5280    0.8290 H   0  0  0  0  0  0  0  0  0  0  0  0
   -0.0170   -0.4560    0.2550 N   0  0  0  0  0  0  0  0  0  0  0  0
    0.2420    0.8190   -0.3450 C   0  0  1  0  0  0  0  0  0  0  0  0
    1.6470    1.3270   -0.2990 C   0  0  0  0  0  0  0  0  0  0  0  0
    2.2140    1.5770    1.0630 C   0  0  0  0  0  0  0  0  0  0  0  0
    1.4480    2.6200    1.8590 C   0  0  0  0  0  0  0  0  0  0  0  0
    2.1150    2.8130    3.2310 C   0  0  0  0  0  0  0  0  0  0  0  0
    1.3010    3.8310    3.9080 N   0  0  0  0  0  0  0  0  0  0  0  0
   -0.3680    0.9900   -1.6810 C   0  0  0  0  0  0  0  0  0  0  0  0
   -0.2490    2.0470   -2.3580 O   0  0  0  0  0  0  0  0  0  0  0  0
   -1.0380   -0.6920    0.5500 H   0  0  0  0  0  0  0  0  0  0  0  0
   -0.2750    1.5460    0.4170 H   0  0  0  0  0  0  0  0  0  0  0  0
    2.2960    0.5870   -0.8110 H   0  0  0  0  0  0  0  0  0  0  0  0
    1.7580    2.2510   -0.9470 H   0  0  0  0  0  0  0  0  0  0  0  0
    2.4360    0.6970    1.6530 H   0  0  0  0  0  0  0  0  0  0  0  0
    3.2300    2.0570    0.8730 H   0  0  0  0  0  0  0  0  0  0  0  0
    1.4630    3.6140    1.3730 H   0  0  0  0  0  0  0  0  0  0  0  0
    0.4180    2.3530    2.0860 H   0  0  0  0  0  0  0  0  0  0  0  0
    3.1340    3.2020    3.1350 H   0  0  0  0  0  0  0  0  0  0  0  0
    2.0840    1.8970    3.8320 H   0  0  0  0  0  0  0  0  0  0  0  0
    0.6610    3.4180    4.6050 H   0  0  0  0  0  0  0  0  0  0  0  0
    0.8450    4.4540    3.2160 H   0  0  0  0  0  0  0  0  0  0  0  0
   -1.1380   -0.0490   -2.2850 N   0  0  0  0  0  0  0  0  0  0  0  0
   -1.7210    0.1540   -3.5930 C   0  0  1  0  0  0  0  0  0  0  0  0
   -1.2290   -0.8680   -4.5950 C   0  0  0  0  0  0  0  0  0  0  0  0
   -1.6580   -2.5320   -4.0500 S   0  0  0  0  0  0  0  0  0  0  0  0
   -3.1900   -0.0340   -3.4610 C   0  0  0  0  0  0  0  0  0  0  0  0
   -3.9630    0.0860   -4.4700 O   0  0  0  0  0  0  0  0  0  0  0  0
   -3.8080   -0.3460   -2.2570 O   0  0  0  0  0  0  0  0  0  0  0  0
   -1.2980   -0.9570   -1.8150 H   0  0  0  0  0  0  0  0  0  0  0  0
   -1.4900    1.1560   -3.9990 H   0  0  0  0  0  0  0  0  0  0  0  0
   -1.7740   -0.6570   -5.5470 H   0  0  0  0  0  0  0  0  0  0  0  0
   -0.1510   -0.7200   -4.7570 H   0  0  0  0  0  0  0  0  0  0  0  0
   -2.4950   -2.4470   -2.9310 H   0  0  0  0  0  0  0  0  0  0  0  0
  1 11  1  0  0  0  0
  1  9  1  0  0  0  0
  2  1  1  0  0  0  0
  2 12  1  0  0  0  0
  3 15  1  0  0  0  0
  3  2  1  0  0  0  0
  4 16  1  0  0  0  0
  4  2  1  0  0  0  0
  5 18  1  6  0  0  0
  5  6  1  0  0  0  0
  5  4  1  0  0  0  0
  7  5  1  0  0  0  0
  8  7  2  0  0  0  0
 10  1  1  0  0  0  0
 13  3  1  0  0  0  0
 14  3  1  0  0  0  0
 17  4  1  0  0  0  0
 19  6  1  0  0  0  0
 20  6  1  0  0  0  0
 21  7  1  0  0  0  0
 21 30  1  0  0  0  0
 22 23  1  0  0  0  0
 22 21  1  0  0  0  0
 22 31  1  1  0  0  0
 23 24  1  0  0  0  0
 24 34  1  0  0  0  0
 24 25  1  0  0  0  0
 25 37  1  0  0  0  0
 25 26  1  0  0  0  0
 26 39  1  0  0  0  0
 26 27  1  0  0  0  0
 27 40  1  0  0  0  0
 28 22  1  0  0  0  0
 29 28  2  0  0  0  0
 32 23  1  0  0  0  0
 33 23  1  0  0  0  0
 35 24  1  0  0  0  0
 36 25  1  0  0  0  0
 38 26  1  0  0  0  0
 41 27  1  0  0  0  0
 42 49  1  0  0  0  0
 42 28  1  0  0  0  0
 43 50  1  6  0  0  0
 43 46  1  0  0  0  0
 43 42  1  0  0  0  0
 44 45  1  0  0  0  0
 44 43  1  0  0  0  0
 45 53  1  0  0  0  0
 46 48  1  0  0  0  0
 47 46  2  0  0  0  0
 51 44  1  0  0  0  0
 52 44  1  0  0  0  0
M  END
$$$$
