LKE.pdb
 OpenBabel07022418463D

 58 57  0  0  1  0  0  0  0  0999 V2000
   -0.4360   -3.7470    2.4040 C   0  0  0  0  0  0  0  0  0  0  0  0
    0.9160   -3.8210    2.9980 C   0  0  0  0  0  0  0  0  0  0  0  0
    1.6650   -4.9530    2.2780 C   0  0  0  0  0  0  0  0  0  0  0  0
    1.7750   -2.6300    2.9450 C   0  0  0  0  0  0  0  0  0  0  0  0
    1.3030   -1.3830    3.5840 C   0  0  2  0  0  0  0  0  0  0  0  0
    1.0250   -1.5160    4.9950 N   0  0  0  0  0  0  0  0  0  0  0  0
    0.3020   -0.5960    2.8320 C   0  0  0  0  0  0  0  0  0  0  0  0
   -0.7740   -0.1820    3.3190 O   0  0  0  0  0  0  0  0  0  0  0  0
   -0.9940   -4.6650    2.7650 H   0  0  0  0  0  0  0  0  0  0  0  0
   -0.3940   -3.8560    1.3230 H   0  0  0  0  0  0  0  0  0  0  0  0
   -1.0560   -2.9090    2.7850 H   0  0  0  0  0  0  0  0  0  0  0  0
    0.8150   -4.1990    4.0550 H   0  0  0  0  0  0  0  0  0  0  0  0
    2.7330   -4.9500    2.5160 H   0  0  0  0  0  0  0  0  0  0  0  0
    1.4940   -4.8560    1.1830 H   0  0  0  0  0  0  0  0  0  0  0  0
    1.2150   -5.9420    2.5640 H   0  0  0  0  0  0  0  0  0  0  0  0
    2.0830   -2.3750    1.8940 H   0  0  0  0  0  0  0  0  0  0  0  0
    2.7550   -2.9000    3.4390 H   0  0  0  0  0  0  0  0  0  0  0  0
    2.2270   -0.6960    3.5810 H   0  0  0  0  0  0  0  0  0  0  0  0
    0.7820   -0.5920    5.3710 H   0  0  0  0  0  0  0  0  0  0  0  0
    1.9040   -1.8490    5.4470 H   0  0  0  0  0  0  0  0  0  0  0  0
    0.5850   -0.2890    1.4790 N   0  0  0  0  0  0  0  0  0  0  0  0
   -0.3440    0.5080    0.6710 C   0  0  1  0  0  0  0  0  0  0  0  0
    0.2520    1.8690    0.4070 C   0  0  0  0  0  0  0  0  0  0  0  0
   -0.5700    2.8020   -0.3920 C   0  0  0  0  0  0  0  0  0  0  0  0
    0.0900    4.1490   -0.5990 C   0  0  0  0  0  0  0  0  0  0  0  0
    1.4060    4.0500   -1.3160 C   0  0  0  0  0  0  0  0  0  0  0  0
    1.9170    5.4180   -1.4400 N   0  0  0  0  0  0  0  0  0  0  0  0
   -0.7100   -0.2470   -0.5410 C   0  0  0  0  0  0  0  0  0  0  0  0
   -1.4160    0.2520   -1.4510 O   0  0  0  0  0  0  0  0  0  0  0  0
    1.4840   -0.6320    1.0250 H   0  0  0  0  0  0  0  0  0  0  0  0
   -1.2470    0.6630    1.3120 H   0  0  0  0  0  0  0  0  0  0  0  0
    0.4840    2.3000    1.4030 H   0  0  0  0  0  0  0  0  0  0  0  0
    1.2660    1.6680   -0.0490 H   0  0  0  0  0  0  0  0  0  0  0  0
   -0.9110    2.4500   -1.3770 H   0  0  0  0  0  0  0  0  0  0  0  0
   -1.5090    3.0170    0.1880 H   0  0  0  0  0  0  0  0  0  0  0  0
   -0.5950    4.7550   -1.2250 H   0  0  0  0  0  0  0  0  0  0  0  0
    0.1820    4.6450    0.3840 H   0  0  0  0  0  0  0  0  0  0  0  0
    1.2970    3.6690   -2.3510 H   0  0  0  0  0  0  0  0  0  0  0  0
    2.1670    3.4640   -0.8110 H   0  0  0  0  0  0  0  0  0  0  0  0
    2.0360    5.7830   -0.4660 H   0  0  0  0  0  0  0  0  0  0  0  0
    1.1500    5.9750   -1.8750 H   0  0  0  0  0  0  0  0  0  0  0  0
   -0.2800   -1.5820   -0.7420 N   0  0  0  0  0  0  0  0  0  0  0  0
   -0.5940   -2.3590   -1.8720 C   0  0  1  0  0  0  0  0  0  0  0  0
   -1.9370   -2.2750   -2.4910 C   0  0  0  0  0  0  0  0  0  0  0  0
   -3.0850   -2.7000   -1.6280 C   0  0  0  0  0  0  0  0  0  0  0  0
   -3.3290   -1.9710   -0.3970 C   0  0  0  0  0  0  0  0  0  0  0  0
   -4.0600   -0.9220   -0.4610 O   0  0  0  0  0  0  0  0  0  0  0  0
    0.4640   -2.2550   -2.9070 C   0  0  0  0  0  0  0  0  0  0  0  0
    0.3110   -2.8970   -3.9730 O   0  0  0  0  0  0  0  0  0  0  0  0
   -2.8610   -2.2760    0.8650 O   0  0  0  0  0  0  0  0  0  0  0  0
    1.6100   -1.4920   -2.7690 O   0  0  0  0  0  0  0  0  0  0  0  0
    0.3230   -1.9770    0.0450 H   0  0  0  0  0  0  0  0  0  0  0  0
   -0.4870   -3.4610   -1.5000 H   0  0  0  0  0  0  0  0  0  0  0  0
   -1.9580   -3.0120   -3.3590 H   0  0  0  0  0  0  0  0  0  0  0  0
   -2.1340   -1.3090   -3.0110 H   0  0  0  0  0  0  0  0  0  0  0  0
   -2.9340   -3.7870   -1.3110 H   0  0  0  0  0  0  0  0  0  0  0  0
   -4.0150   -2.7760   -2.2630 H   0  0  0  0  0  0  0  0  0  0  0  0
   -3.2280   -1.8160    1.6920 H   0  0  0  0  0  0  0  0  0  0  0  0
  1  9  1  0  0  0  0
  1 11  1  0  0  0  0
  1  2  1  0  0  0  0
  2 12  1  0  0  0  0
  3 13  1  0  0  0  0
  3 15  1  0  0  0  0
  3  2  1  0  0  0  0
  4  2  1  0  0  0  0
  4 17  1  0  0  0  0
  4  5  1  0  0  0  0
  5 18  1  6  0  0  0
  5  6  1  0  0  0  0
  6 19  1  0  0  0  0
  6 20  1  0  0  0  0
  7  8  2  0  0  0  0
  7  5  1  0  0  0  0
 10  1  1  0  0  0  0
 14  3  1  0  0  0  0
 16  4  1  0  0  0  0
 21  7  1  0  0  0  0
 22 31  1  1  0  0  0
 22 21  1  0  0  0  0
 23 22  1  0  0  0  0
 23 32  1  0  0  0  0
 24 35  1  0  0  0  0
 24 23  1  0  0  0  0
 25 24  1  0  0  0  0
 25 37  1  0  0  0  0
 26 39  1  0  0  0  0
 26 25  1  0  0  0  0
 27 26  1  0  0  0  0
 27 40  1  0  0  0  0
 28 22  1  0  0  0  0
 29 28  2  0  0  0  0
 30 21  1  0  0  0  0
 33 23  1  0  0  0  0
 34 24  1  0  0  0  0
 36 25  1  0  0  0  0
 38 26  1  0  0  0  0
 41 27  1  0  0  0  0
 42 28  1  0  0  0  0
 42 52  1  0  0  0  0
 43 53  1  1  0  0  0
 43 42  1  0  0  0  0
 44 43  1  0  0  0  0
 44 45  1  0  0  0  0
 45 56  1  0  0  0  0
 45 46  1  0  0  0  0
 46 50  1  0  0  0  0
 47 46  2  0  0  0  0
 48 51  1  0  0  0  0
 48 43  1  0  0  0  0
 49 48  2  0  0  0  0
 50 58  1  0  0  0  0
 54 44  1  0  0  0  0
 55 44  1  0  0  0  0
 57 45  1  0  0  0  0
M  END
$$$$
