LKG.pdb
 OpenBabel07022418463D

 49 48  0  0  1  0  0  0  0  0999 V2000
    1.8850   -6.0100    0.0120 C   0  0  0  0  0  0  0  0  0  0  0  0
    1.6050   -5.6380    1.4500 C   0  0  0  0  0  0  0  0  0  0  0  0
    0.2850   -6.2640    1.8400 C   0  0  0  0  0  0  0  0  0  0  0  0
    1.5590   -4.1210    1.6200 C   0  0  0  0  0  0  0  0  0  0  0  0
    0.4710   -3.5280    0.7540 C   0  0  2  0  0  0  0  0  0  0  0  0
    0.7020   -3.8170   -0.6250 N   0  0  0  0  0  0  0  0  0  0  0  0
    0.2640   -2.0870    1.0410 C   0  0  0  0  0  0  0  0  0  0  0  0
    0.0550   -1.7680    2.2360 O   0  0  0  0  0  0  0  0  0  0  0  0
    2.5700   -5.2940   -0.4860 H   0  0  0  0  0  0  0  0  0  0  0  0
    0.9600   -6.2050   -0.5600 H   0  0  0  0  0  0  0  0  0  0  0  0
    2.4400   -6.9880    0.0310 H   0  0  0  0  0  0  0  0  0  0  0  0
    2.3950   -6.0590    2.1040 H   0  0  0  0  0  0  0  0  0  0  0  0
    0.4220   -7.3310    2.1000 H   0  0  0  0  0  0  0  0  0  0  0  0
   -0.1530   -5.7800    2.7550 H   0  0  0  0  0  0  0  0  0  0  0  0
   -0.4710   -6.2070    1.0350 H   0  0  0  0  0  0  0  0  0  0  0  0
    1.3140   -3.8770    2.6650 H   0  0  0  0  0  0  0  0  0  0  0  0
    2.5410   -3.7300    1.3020 H   0  0  0  0  0  0  0  0  0  0  0  0
   -0.5010   -4.0320    1.0330 H   0  0  0  0  0  0  0  0  0  0  0  0
    1.4580   -3.2430   -1.0570 H   0  0  0  0  0  0  0  0  0  0  0  0
   -0.1630   -3.8470   -1.2010 H   0  0  0  0  0  0  0  0  0  0  0  0
    0.2900   -1.0860    0.0610 N   0  0  0  0  0  0  0  0  0  0  0  0
    0.0800    0.3610    0.3680 C   0  0  1  0  0  0  0  0  0  0  0  0
    1.2260    1.1290   -0.1380 C   0  0  0  0  0  0  0  0  0  0  0  0
    1.3820    2.5610   -0.0270 C   0  0  0  0  0  0  0  0  0  0  0  0
    1.5420    3.3660    1.1570 C   0  0  0  0  0  0  0  0  0  0  0  0
    0.5680    3.4950    2.2550 C   0  0  0  0  0  0  0  0  0  0  0  0
    0.2630    2.3340    3.0120 N   0  0  0  0  0  0  0  0  0  0  0  0
   -1.1770    0.7010   -0.3390 C   0  0  0  0  0  0  0  0  0  0  0  0
   -1.7120   -0.1670   -1.0870 O   0  0  0  0  0  0  0  0  0  0  0  0
    0.4630   -1.3470   -0.9250 H   0  0  0  0  0  0  0  0  0  0  0  0
   -0.0870    0.4780    1.4240 H   0  0  0  0  0  0  0  0  0  0  0  0
    1.3200    0.8200   -1.2590 H   0  0  0  0  0  0  0  0  0  0  0  0
    2.2060    0.6200    0.2460 H   0  0  0  0  0  0  0  0  0  0  0  0
    2.3270    2.7930   -0.7060 H   0  0  0  0  0  0  0  0  0  0  0  0
    0.5780    3.1180   -0.6760 H   0  0  0  0  0  0  0  0  0  0  0  0
    1.6840    4.4610    0.7740 H   0  0  0  0  0  0  0  0  0  0  0  0
    2.6120    3.2100    1.6250 H   0  0  0  0  0  0  0  0  0  0  0  0
    0.9580    4.2500    3.0430 H   0  0  0  0  0  0  0  0  0  0  0  0
   -0.3670    4.0340    1.9200 H   0  0  0  0  0  0  0  0  0  0  0  0
    0.9140    2.1290    3.7960 H   0  0  0  0  0  0  0  0  0  0  0  0
   -0.7410    2.3350    3.3200 H   0  0  0  0  0  0  0  0  0  0  0  0
   -1.8440    1.9340   -0.2470 N   0  0  0  0  0  0  0  0  0  0  0  0
   -3.0750    2.2280   -0.9620 C   0  0  0  0  0  0  0  0  0  0  0  0
   -3.5510    3.5990   -0.6760 C   0  0  0  0  0  0  0  0  0  0  0  0
   -2.8830    4.3160    0.1030 O   0  0  0  0  0  0  0  0  0  0  0  0
   -4.6990    4.1160   -1.2350 O   0  0  0  0  0  0  0  0  0  0  0  0
   -1.4690    2.6840    0.3590 H   0  0  0  0  0  0  0  0  0  0  0  0
   -2.9670    2.0920   -2.0590 H   0  0  0  0  0  0  0  0  0  0  0  0
   -3.8550    1.5150   -0.5690 H   0  0  0  0  0  0  0  0  0  0  0  0
  1 11  1  0  0  0  0
  1  2  1  0  0  0  0
  2  4  1  0  0  0  0
  2  3  1  0  0  0  0
  2 12  1  0  0  0  0
  3 13  1  0  0  0  0
  3 14  1  0  0  0  0
  4 16  1  0  0  0  0
  5 18  1  1  0  0  0
  5  7  1  0  0  0  0
  5  4  1  0  0  0  0
  6  5  1  0  0  0  0
  7  8  2  0  0  0  0
  9  1  1  0  0  0  0
 10  1  1  0  0  0  0
 15  3  1  0  0  0  0
 17  4  1  0  0  0  0
 19  6  1  0  0  0  0
 20  6  1  0  0  0  0
 21 22  1  0  0  0  0
 21  7  1  0  0  0  0
 22 31  1  1  0  0  0
 23 24  1  0  0  0  0
 23 33  1  0  0  0  0
 23 22  1  0  0  0  0
 24 25  1  0  0  0  0
 25 37  1  0  0  0  0
 25 26  1  0  0  0  0
 26 27  1  0  0  0  0
 26 38  1  0  0  0  0
 27 41  1  0  0  0  0
 27 40  1  0  0  0  0
 28 42  1  0  0  0  0
 28 22  1  0  0  0  0
 29 28  2  0  0  0  0
 30 21  1  0  0  0  0
 32 23  1  0  0  0  0
 34 24  1  0  0  0  0
 35 24  1  0  0  0  0
 36 25  1  0  0  0  0
 39 26  1  0  0  0  0
 42 47  1  0  0  0  0
 43 44  1  0  0  0  0
 43 49  1  0  0  0  0
 43 42  1  0  0  0  0
 44 45  1  0  0  0  0
 46 44  2  0  0  0  0
 48 43  1  0  0  0  0
M  END
$$$$
