LKH.pdb
 OpenBabel07022418463D

 59 59  0  0  1  0  0  0  0  0999 V2000
    1.0670    1.5140    4.1460 C   0  0  0  0  0  0  0  0  0  0  0  0
    2.4580    2.0970    4.0500 C   0  0  0  0  0  0  0  0  0  0  0  0
    2.3600    3.5730    3.8090 C   0  0  0  0  0  0  0  0  0  0  0  0
    3.3260    1.3410    3.1390 C   0  0  0  0  0  0  0  0  0  0  0  0
    2.9950    1.1810    1.7210 C   0  0  2  0  0  0  0  0  0  0  0  0
    2.8660    2.3760    0.9520 N   0  0  0  0  0  0  0  0  0  0  0  0
    1.9800    0.1460    1.3680 C   0  0  0  0  0  0  0  0  0  0  0  0
    1.9170   -0.9650    1.9420 O   0  0  0  0  0  0  0  0  0  0  0  0
    0.5210    1.5030    3.1930 H   0  0  0  0  0  0  0  0  0  0  0  0
    0.4180    2.1140    4.8510 H   0  0  0  0  0  0  0  0  0  0  0  0
    1.0940    0.5010    4.6510 H   0  0  0  0  0  0  0  0  0  0  0  0
    2.8940    1.9910    5.0870 H   0  0  0  0  0  0  0  0  0  0  0  0
    1.6070    3.8790    3.0880 H   0  0  0  0  0  0  0  0  0  0  0  0
    3.3230    4.0310    3.4970 H   0  0  0  0  0  0  0  0  0  0  0  0
    2.0920    4.0890    4.7730 H   0  0  0  0  0  0  0  0  0  0  0  0
    3.4180    0.2970    3.5710 H   0  0  0  0  0  0  0  0  0  0  0  0
    4.3950    1.7130    3.2040 H   0  0  0  0  0  0  0  0  0  0  0  0
    3.9440    0.7130    1.2690 H   0  0  0  0  0  0  0  0  0  0  0  0
    1.9710    2.8510    0.9550 H   0  0  0  0  0  0  0  0  0  0  0  0
    3.7090    2.8630    0.6750 H   0  0  0  0  0  0  0  0  0  0  0  0
    1.0350    0.3960    0.3440 N   0  0  0  0  0  0  0  0  0  0  0  0
    0.0100   -0.5610   -0.0840 C   0  0  1  0  0  0  0  0  0  0  0  0
   -1.3460    0.0260   -0.1010 C   0  0  0  0  0  0  0  0  0  0  0  0
   -1.9150    0.5350    1.1660 C   0  0  0  0  0  0  0  0  0  0  0  0
   -2.2670   -0.3650    2.2640 C   0  0  0  0  0  0  0  0  0  0  0  0
   -1.2970   -1.2500    2.9170 C   0  0  0  0  0  0  0  0  0  0  0  0
   -2.0670   -1.9240    4.0210 N   0  0  0  0  0  0  0  0  0  0  0  0
    0.3910   -1.0960   -1.4420 C   0  0  0  0  0  0  0  0  0  0  0  0
    1.4280   -0.6960   -1.9890 O   0  0  0  0  0  0  0  0  0  0  0  0
    1.0290    1.3060   -0.1690 H   0  0  0  0  0  0  0  0  0  0  0  0
    0.0830   -1.4000    0.6060 H   0  0  0  0  0  0  0  0  0  0  0  0
   -1.4750    0.7620   -0.9470 H   0  0  0  0  0  0  0  0  0  0  0  0
   -2.0410   -0.8290   -0.4220 H   0  0  0  0  0  0  0  0  0  0  0  0
   -2.8100    1.1920    0.8690 H   0  0  0  0  0  0  0  0  0  0  0  0
   -1.1820    1.3490    1.5210 H   0  0  0  0  0  0  0  0  0  0  0  0
   -3.1610   -0.9850    1.9450 H   0  0  0  0  0  0  0  0  0  0  0  0
   -2.6790    0.3120    3.1010 H   0  0  0  0  0  0  0  0  0  0  0  0
   -0.4060   -0.8140    3.3520 H   0  0  0  0  0  0  0  0  0  0  0  0
   -1.0110   -2.1760    2.3200 H   0  0  0  0  0  0  0  0  0  0  0  0
   -2.7990   -2.4630    3.5080 H   0  0  0  0  0  0  0  0  0  0  0  0
   -1.3890   -2.6210    4.3990 H   0  0  0  0  0  0  0  0  0  0  0  0
   -0.4360   -2.0530   -2.0920 N   0  0  0  0  0  0  0  0  0  0  0  0
   -0.0780   -2.5790   -3.4100 C   0  0  1  0  0  0  0  0  0  0  0  0
   -0.0400   -4.0600   -3.4930 C   0  0  0  0  0  0  0  0  0  0  0  0
   -1.2960   -4.7770   -3.2200 C   0  0  0  0  0  0  0  0  0  0  0  0
   -2.5580   -4.3370   -2.9310 C   0  0  0  0  0  0  0  0  0  0  0  0
   -3.4140   -5.3870   -2.7730 N   0  0  0  0  0  0  0  0  0  0  0  0
   -2.6710   -6.4750   -2.9670 C   0  0  0  0  0  0  0  0  0  0  0  0
   -1.4050   -6.1460   -3.2350 N   0  0  0  0  0  0  0  0  0  0  0  0
   -1.0350   -2.0320   -4.4020 C   0  0  0  0  0  0  0  0  0  0  0  0
   -0.9640   -2.3960   -5.6210 O   0  0  0  0  0  0  0  0  0  0  0  0
   -2.0390   -1.1220   -4.1130 O   0  0  0  0  0  0  0  0  0  0  0  0
   -1.2810   -2.3360   -1.5580 H   0  0  0  0  0  0  0  0  0  0  0  0
    0.9290   -2.1560   -3.6990 H   0  0  0  0  0  0  0  0  0  0  0  0
    0.7610   -4.5070   -2.8440 H   0  0  0  0  0  0  0  0  0  0  0  0
    0.2750   -4.3390   -4.5320 H   0  0  0  0  0  0  0  0  0  0  0  0
   -2.9040   -3.3190   -2.8350 H   0  0  0  0  0  0  0  0  0  0  0  0
   -4.4300   -5.3180   -2.5490 H   0  0  0  0  0  0  0  0  0  0  0  0
   -3.0430   -7.4830   -2.9140 H   0  0  0  0  0  0  0  0  0  0  0  0
  1 11  1  0  0  0  0
  1 10  1  0  0  0  0
  2  1  1  0  0  0  0
  2 12  1  0  0  0  0
  3  2  1  0  0  0  0
  3 15  1  0  0  0  0
  4 17  1  0  0  0  0
  4 16  1  0  0  0  0
  4  2  1  0  0  0  0
  5 18  1  6  0  0  0
  5  4  1  0  0  0  0
  6 19  1  0  0  0  0
  6  5  1  0  0  0  0
  7  5  1  0  0  0  0
  7  8  2  0  0  0  0
  9  1  1  0  0  0  0
 13  3  1  0  0  0  0
 14  3  1  0  0  0  0
 20  6  1  0  0  0  0
 21  7  1  0  0  0  0
 22 21  1  0  0  0  0
 22 31  1  1  0  0  0
 23 22  1  0  0  0  0
 23 24  1  0  0  0  0
 24 35  1  0  0  0  0
 24 25  1  0  0  0  0
 25 26  1  0  0  0  0
 25 37  1  0  0  0  0
 26 38  1  0  0  0  0
 26 27  1  0  0  0  0
 27 41  1  0  0  0  0
 28 22  1  0  0  0  0
 29 28  2  0  0  0  0
 30 21  1  0  0  0  0
 32 23  1  0  0  0  0
 33 23  1  0  0  0  0
 34 24  1  0  0  0  0
 36 25  1  0  0  0  0
 39 26  1  0  0  0  0
 40 27  1  0  0  0  0
 42 53  1  0  0  0  0
 42 28  1  0  0  0  0
 43 54  1  6  0  0  0
 43 42  1  0  0  0  0
 44 43  1  0  0  0  0
 44 45  1  0  0  0  0
 44 55  1  0  0  0  0
 45 46  2  0  0  0  0
 46 57  1  0  0  0  0
 46 47  1  0  0  0  0
 47 58  1  0  0  0  0
 48 59  1  0  0  0  0
 48 47  1  0  0  0  0
 49 45  1  0  0  0  0
 49 48  2  0  0  0  0
 50 52  1  0  0  0  0
 50 43  1  0  0  0  0
 51 50  2  0  0  0  0
 56 44  1  0  0  0  0
M  END
$$$$
