LKK.pdb
 OpenBabel07022418463D

 63 62  0  0  1  0  0  0  0  0999 V2000
    2.6460   -2.6560    3.9430 C   0  0  0  0  0  0  0  0  0  0  0  0
    2.5960   -2.7320    2.4480 C   0  0  0  0  0  0  0  0  0  0  0  0
    2.7800   -4.1780    2.0490 C   0  0  0  0  0  0  0  0  0  0  0  0
    3.6560   -1.9160    1.7660 C   0  0  0  0  0  0  0  0  0  0  0  0
    3.5590   -0.4480    2.1010 C   0  0  2  0  0  0  0  0  0  0  0  0
    3.7130   -0.3200    3.5320 N   0  0  0  0  0  0  0  0  0  0  0  0
    2.2980    0.1600    1.6700 C   0  0  0  0  0  0  0  0  0  0  0  0
    1.5250    0.6940    2.5080 O   0  0  0  0  0  0  0  0  0  0  0  0
    3.6780   -2.5800    4.3100 H   0  0  0  0  0  0  0  0  0  0  0  0
    2.0390   -1.8170    4.3190 H   0  0  0  0  0  0  0  0  0  0  0  0
    2.1510   -3.5880    4.3360 H   0  0  0  0  0  0  0  0  0  0  0  0
    1.6100   -2.3980    2.0480 H   0  0  0  0  0  0  0  0  0  0  0  0
    2.9560   -4.3010    0.9580 H   0  0  0  0  0  0  0  0  0  0  0  0
    3.5730   -4.6830    2.6510 H   0  0  0  0  0  0  0  0  0  0  0  0
    1.8130   -4.7240    2.2540 H   0  0  0  0  0  0  0  0  0  0  0  0
    4.6450   -2.2690    2.1610 H   0  0  0  0  0  0  0  0  0  0  0  0
    3.6340   -2.1330    0.6980 H   0  0  0  0  0  0  0  0  0  0  0  0
    4.4560    0.0370    1.6160 H   0  0  0  0  0  0  0  0  0  0  0  0
    3.3160    0.5720    3.9010 H   0  0  0  0  0  0  0  0  0  0  0  0
    4.7050   -0.4670    3.8180 H   0  0  0  0  0  0  0  0  0  0  0  0
    1.8780    0.1830    0.3130 N   0  0  0  0  0  0  0  0  0  0  0  0
    0.5930    0.8100   -0.0800 C   0  0  1  0  0  0  0  0  0  0  0  0
    0.9680    1.9420   -0.9770 C   0  0  0  0  0  0  0  0  0  0  0  0
   -0.1360    2.7620   -1.5290 C   0  0  0  0  0  0  0  0  0  0  0  0
   -0.9890    3.4250   -0.4800 C   0  0  0  0  0  0  0  0  0  0  0  0
   -2.0840    4.2440   -1.1310 C   0  0  0  0  0  0  0  0  0  0  0  0
   -2.9740    3.4950   -1.9560 N   0  0  0  0  0  0  0  0  0  0  0  0
   -0.1800   -0.2700   -0.7290 C   0  0  0  0  0  0  0  0  0  0  0  0
    0.3140   -1.4360   -0.9390 O   0  0  0  0  0  0  0  0  0  0  0  0
    2.4610   -0.2370   -0.4380 H   0  0  0  0  0  0  0  0  0  0  0  0
    0.1460    1.1830    0.8400 H   0  0  0  0  0  0  0  0  0  0  0  0
    1.5880    1.5980   -1.8520 H   0  0  0  0  0  0  0  0  0  0  0  0
    1.6570    2.6340   -0.4230 H   0  0  0  0  0  0  0  0  0  0  0  0
    0.3760    3.6310   -2.0630 H   0  0  0  0  0  0  0  0  0  0  0  0
   -0.7570    2.3120   -2.3010 H   0  0  0  0  0  0  0  0  0  0  0  0
   -0.3770    4.1690    0.1090 H   0  0  0  0  0  0  0  0  0  0  0  0
   -1.3980    2.7300    0.2670 H   0  0  0  0  0  0  0  0  0  0  0  0
   -1.6050    5.0220   -1.7950 H   0  0  0  0  0  0  0  0  0  0  0  0
   -2.6570    4.8250   -0.3880 H   0  0  0  0  0  0  0  0  0  0  0  0
   -3.3850    2.6970   -1.4260 H   0  0  0  0  0  0  0  0  0  0  0  0
   -2.5530    3.1120   -2.8210 H   0  0  0  0  0  0  0  0  0  0  0  0
   -1.5270   -0.1380   -1.1800 N   0  0  0  0  0  0  0  0  0  0  0  0
   -2.2430   -1.2530   -1.8220 C   0  0  1  0  0  0  0  0  0  0  0  0
   -3.5440   -1.4480   -1.0760 C   0  0  0  0  0  0  0  0  0  0  0  0
   -3.3580   -1.7770    0.3740 C   0  0  0  0  0  0  0  0  0  0  0  0
   -2.5830   -3.0450    0.5820 C   0  0  0  0  0  0  0  0  0  0  0  0
   -2.4160   -3.3400    2.0520 C   0  0  0  0  0  0  0  0  0  0  0  0
   -1.6760   -4.5510    2.2860 N   0  0  0  0  0  0  0  0  0  0  0  0
   -2.5700   -0.8250   -3.2230 C   0  0  0  0  0  0  0  0  0  0  0  0
   -2.2450    0.2950   -3.6560 O   0  0  0  0  0  0  0  0  0  0  0  0
   -3.2520   -1.7010   -4.0560 O   0  0  0  0  0  0  0  0  0  0  0  0
   -2.0090    0.7760   -1.0370 H   0  0  0  0  0  0  0  0  0  0  0  0
   -1.6140   -2.1400   -1.8520 H   0  0  0  0  0  0  0  0  0  0  0  0
   -4.1670   -0.5290   -1.1240 H   0  0  0  0  0  0  0  0  0  0  0  0
   -4.1640   -2.2480   -1.5320 H   0  0  0  0  0  0  0  0  0  0  0  0
   -4.3390   -1.8010    0.8480 H   0  0  0  0  0  0  0  0  0  0  0  0
   -2.7870   -0.9520    0.8860 H   0  0  0  0  0  0  0  0  0  0  0  0
   -1.6370   -3.0850    0.0510 H   0  0  0  0  0  0  0  0  0  0  0  0
   -3.2140   -3.8830    0.1710 H   0  0  0  0  0  0  0  0  0  0  0  0
   -1.8250   -2.5040    2.4810 H   0  0  0  0  0  0  0  0  0  0  0  0
   -3.3860   -3.3560    2.5880 H   0  0  0  0  0  0  0  0  0  0  0  0
   -2.0820   -5.3690    1.7840 H   0  0  0  0  0  0  0  0  0  0  0  0
   -0.6550   -4.4430    2.1690 H   0  0  0  0  0  0  0  0  0  0  0  0
  1  9  1  0  0  0  0
  1 10  1  0  0  0  0
  1 11  1  0  0  0  0
  2  1  1  0  0  0  0
  3 15  1  0  0  0  0
  3  2  1  0  0  0  0
  3 14  1  0  0  0  0
  4  5  1  0  0  0  0
  4 16  1  0  0  0  0
  4  2  1  0  0  0  0
  5 18  1  6  0  0  0
  5  6  1  0  0  0  0
  6 20  1  0  0  0  0
  6 19  1  0  0  0  0
  7  5  1  0  0  0  0
  7  8  2  0  0  0  0
 12  2  1  0  0  0  0
 13  3  1  0  0  0  0
 17  4  1  0  0  0  0
 21  7  1  0  0  0  0
 22 21  1  0  0  0  0
 22 31  1  1  0  0  0
 23 33  1  0  0  0  0
 23 22  1  0  0  0  0
 24 23  1  0  0  0  0
 24 25  1  0  0  0  0
 25 36  1  0  0  0  0
 25 37  1  0  0  0  0
 26 25  1  0  0  0  0
 26 39  1  0  0  0  0
 27 40  1  0  0  0  0
 27 26  1  0  0  0  0
 28 22  1  0  0  0  0
 29 28  2  0  0  0  0
 30 21  1  0  0  0  0
 32 23  1  0  0  0  0
 34 24  1  0  0  0  0
 35 24  1  0  0  0  0
 38 26  1  0  0  0  0
 41 27  1  0  0  0  0
 42 52  1  0  0  0  0
 42 28  1  0  0  0  0
 43 53  1  1  0  0  0
 43 42  1  0  0  0  0
 43 44  1  0  0  0  0
 44 45  1  0  0  0  0
 45 46  1  0  0  0  0
 45 56  1  0  0  0  0
 45 57  1  0  0  0  0
 46 47  1  0  0  0  0
 47 48  1  0  0  0  0
 47 60  1  0  0  0  0
 47 61  1  0  0  0  0
 49 43  1  0  0  0  0
 50 49  1  0  0  0  0
 51 49  2  0  0  0  0
 54 44  1  0  0  0  0
 55 44  1  0  0  0  0
 58 46  1  0  0  0  0
 59 46  1  0  0  0  0
 62 48  1  0  0  0  0
 63 48  1  0  0  0  0
M  END
$$$$
