LKL.pdb
 OpenBabel07022418463D

 61 60  0  0  1  0  0  0  0  0999 V2000
    4.5510   -3.9120    2.6680 C   0  0  0  0  0  0  0  0  0  0  0  0
    4.1460   -3.2440    1.3960 C   0  0  0  0  0  0  0  0  0  0  0  0
    3.7670   -4.3300    0.4040 C   0  0  0  0  0  0  0  0  0  0  0  0
    2.9790   -2.3210    1.5180 C   0  0  0  0  0  0  0  0  0  0  0  0
    3.2060   -1.1810    2.4840 C   0  0  2  0  0  0  0  0  0  0  0  0
    3.4800   -1.6080    3.8150 N   0  0  0  0  0  0  0  0  0  0  0  0
    1.9900   -0.3150    2.4090 C   0  0  0  0  0  0  0  0  0  0  0  0
    1.3180   -0.0260    3.4350 O   0  0  0  0  0  0  0  0  0  0  0  0
    4.8160   -4.9950    2.4820 H   0  0  0  0  0  0  0  0  0  0  0  0
    5.5170   -3.4720    3.0530 H   0  0  0  0  0  0  0  0  0  0  0  0
    3.7680   -3.9400    3.4430 H   0  0  0  0  0  0  0  0  0  0  0  0
    4.9870   -2.6830    0.9230 H   0  0  0  0  0  0  0  0  0  0  0  0
    3.8530   -4.0150   -0.6370 H   0  0  0  0  0  0  0  0  0  0  0  0
    4.3250   -5.2710    0.6030 H   0  0  0  0  0  0  0  0  0  0  0  0
    2.6870   -4.5590    0.5980 H   0  0  0  0  0  0  0  0  0  0  0  0
    2.0820   -2.9130    1.7750 H   0  0  0  0  0  0  0  0  0  0  0  0
    2.7870   -1.8890    0.5130 H   0  0  0  0  0  0  0  0  0  0  0  0
    4.0460   -0.5490    2.1310 H   0  0  0  0  0  0  0  0  0  0  0  0
    4.5010   -1.5220    4.0110 H   0  0  0  0  0  0  0  0  0  0  0  0
    2.9760   -1.0210    4.4950 H   0  0  0  0  0  0  0  0  0  0  0  0
    1.5810    0.1890    1.1780 N   0  0  0  0  0  0  0  0  0  0  0  0
    0.3090    1.0910    1.1260 C   0  0  1  0  0  0  0  0  0  0  0  0
    0.8780    2.2910    0.4830 C   0  0  0  0  0  0  0  0  0  0  0  0
    0.3180    3.5690    0.1860 C   0  0  0  0  0  0  0  0  0  0  0  0
   -0.8560    3.8860   -0.6180 C   0  0  0  0  0  0  0  0  0  0  0  0
   -2.1440    3.4760    0.0300 C   0  0  0  0  0  0  0  0  0  0  0  0
   -3.2480    3.8220   -0.8690 N   0  0  0  0  0  0  0  0  0  0  0  0
   -0.5100    0.1780    0.2520 C   0  0  0  0  0  0  0  0  0  0  0  0
    0.0700   -0.4540   -0.7070 O   0  0  0  0  0  0  0  0  0  0  0  0
    2.0490    0.0190    0.2870 H   0  0  0  0  0  0  0  0  0  0  0  0
   -0.0770    1.1830    2.1280 H   0  0  0  0  0  0  0  0  0  0  0  0
    1.9640    2.4580    0.9610 H   0  0  0  0  0  0  0  0  0  0  0  0
    1.2950    1.8650   -0.5380 H   0  0  0  0  0  0  0  0  0  0  0  0
    0.2600    4.2400    1.1540 H   0  0  0  0  0  0  0  0  0  0  0  0
    1.1900    4.1770   -0.3250 H   0  0  0  0  0  0  0  0  0  0  0  0
   -0.8010    3.4990   -1.6770 H   0  0  0  0  0  0  0  0  0  0  0  0
   -0.9350    5.0150   -0.7840 H   0  0  0  0  0  0  0  0  0  0  0  0
   -2.2180    2.4800    0.3980 H   0  0  0  0  0  0  0  0  0  0  0  0
   -2.2640    4.2100    0.8970 H   0  0  0  0  0  0  0  0  0  0  0  0
   -2.9170    4.5480   -1.5250 H   0  0  0  0  0  0  0  0  0  0  0  0
   -4.0750    4.1200   -0.3040 H   0  0  0  0  0  0  0  0  0  0  0  0
   -4.8620   -3.2560   -0.9270 C   0  0  0  0  0  0  0  0  0  0  0  0
   -3.4450   -3.4300   -0.5280 C   0  0  0  0  0  0  0  0  0  0  0  0
   -2.6330   -3.8540   -1.7900 C   0  0  0  0  0  0  0  0  0  0  0  0
   -2.7640   -2.3110    0.1600 C   0  0  0  0  0  0  0  0  0  0  0  0
   -2.5760   -1.0170   -0.5380 C   0  0  2  0  0  0  0  0  0  0  0  0
   -1.8770   -0.0840    0.3800 N   0  0  0  0  0  0  0  0  0  0  0  0
   -3.7280   -0.3700   -1.1510 C   0  0  0  0  0  0  0  0  0  0  0  0
   -4.3990   -0.7480   -2.1290 O   0  0  0  0  0  0  0  0  0  0  0  0
   -4.1540    0.8510   -0.5650 O   0  0  0  0  0  0  0  0  0  0  0  0
   -5.3250   -2.4450   -0.3640 H   0  0  0  0  0  0  0  0  0  0  0  0
   -5.4110   -4.2010   -0.5560 H   0  0  0  0  0  0  0  0  0  0  0  0
   -5.0570   -3.2700   -2.0160 H   0  0  0  0  0  0  0  0  0  0  0  0
   -3.3670   -4.3650    0.1290 H   0  0  0  0  0  0  0  0  0  0  0  0
   -1.5590   -3.7790   -1.5960 H   0  0  0  0  0  0  0  0  0  0  0  0
   -2.9940   -3.2620   -2.6460 H   0  0  0  0  0  0  0  0  0  0  0  0
   -2.8680   -4.9180   -1.9990 H   0  0  0  0  0  0  0  0  0  0  0  0
   -3.3750   -2.1290    1.1140 H   0  0  0  0  0  0  0  0  0  0  0  0
   -1.7580   -2.7390    0.5000 H   0  0  0  0  0  0  0  0  0  0  0  0
   -1.8280   -1.2120   -1.3520 H   0  0  0  0  0  0  0  0  0  0  0  0
   -2.4410    0.3520    1.1380 H   0  0  0  0  0  0  0  0  0  0  0  0
  1 10  1  0  0  0  0
  1 11  1  0  0  0  0
  2  4  1  0  0  0  0
  2  1  1  0  0  0  0
  3 15  1  0  0  0  0
  3 14  1  0  0  0  0
  3  2  1  0  0  0  0
  4 16  1  0  0  0  0
  4  5  1  0  0  0  0
  5 18  1  6  0  0  0
  5  6  1  0  0  0  0
  6 19  1  0  0  0  0
  6 20  1  0  0  0  0
  7  5  1  0  0  0  0
  7  8  2  0  0  0  0
  9  1  1  0  0  0  0
 12  2  1  0  0  0  0
 13  3  1  0  0  0  0
 17  4  1  0  0  0  0
 21  7  1  0  0  0  0
 22 21  1  0  0  0  0
 22 31  1  1  0  0  0
 23 32  1  0  0  0  0
 23 22  1  0  0  0  0
 24 23  1  0  0  0  0
 24 34  1  0  0  0  0
 25 26  1  0  0  0  0
 25 24  1  0  0  0  0
 26 38  1  0  0  0  0
 26 39  1  0  0  0  0
 27 41  1  0  0  0  0
 27 26  1  0  0  0  0
 28 47  1  0  0  0  0
 28 22  1  0  0  0  0
 29 28  2  0  0  0  0
 30 21  1  0  0  0  0
 33 23  1  0  0  0  0
 35 24  1  0  0  0  0
 36 25  1  0  0  0  0
 37 25  1  0  0  0  0
 40 27  1  0  0  0  0
 42 52  1  0  0  0  0
 42 43  1  0  0  0  0
 42 51  1  0  0  0  0
 43 54  1  0  0  0  0
 43 45  1  0  0  0  0
 44 55  1  0  0  0  0
 44 43  1  0  0  0  0
 45 59  1  0  0  0  0
 45 58  1  0  0  0  0
 46 60  1  6  0  0  0
 46 45  1  0  0  0  0
 46 47  1  0  0  0  0
 47 61  1  0  0  0  0
 48 50  1  0  0  0  0
 48 46  1  0  0  0  0
 49 48  2  0  0  0  0
 53 42  1  0  0  0  0
 56 44  1  0  0  0  0
 57 44  1  0  0  0  0
M  END
$$$$
