LKN.pdb
 OpenBabel07022418463D

 56 55  0  0  1  0  0  0  0  0999 V2000
    2.7000    3.2780    3.9140 C   0  0  0  0  0  0  0  0  0  0  0  0
    2.2980    2.5960    2.6090 C   0  0  0  0  0  0  0  0  0  0  0  0
    1.8650    3.6660    1.6620 C   0  0  0  0  0  0  0  0  0  0  0  0
    3.4710    1.8130    2.1310 C   0  0  0  0  0  0  0  0  0  0  0  0
    3.2360    1.0780    0.8490 C   0  0  2  0  0  0  0  0  0  0  0  0
    2.9000    1.9500   -0.2350 N   0  0  0  0  0  0  0  0  0  0  0  0
    2.2630   -0.0390    1.0010 C   0  0  0  0  0  0  0  0  0  0  0  0
    2.3860   -0.9120    1.8980 O   0  0  0  0  0  0  0  0  0  0  0  0
    3.2620    2.5600    4.5690 H   0  0  0  0  0  0  0  0  0  0  0  0
    3.2300    4.2200    3.7530 H   0  0  0  0  0  0  0  0  0  0  0  0
    1.7540    3.4990    4.4530 H   0  0  0  0  0  0  0  0  0  0  0  0
    1.4510    1.9300    2.8610 H   0  0  0  0  0  0  0  0  0  0  0  0
    1.3210    4.4410    2.2740 H   0  0  0  0  0  0  0  0  0  0  0  0
    2.7030    4.1880    1.1940 H   0  0  0  0  0  0  0  0  0  0  0  0
    1.0950    3.3080    0.9320 H   0  0  0  0  0  0  0  0  0  0  0  0
    3.8110    1.1210    2.9150 H   0  0  0  0  0  0  0  0  0  0  0  0
    4.3080    2.5250    1.9560 H   0  0  0  0  0  0  0  0  0  0  0  0
    4.2120    0.5860    0.5770 H   0  0  0  0  0  0  0  0  0  0  0  0
    3.6930    2.6190   -0.3600 H   0  0  0  0  0  0  0  0  0  0  0  0
    2.7870    1.3730   -1.1070 H   0  0  0  0  0  0  0  0  0  0  0  0
    1.1400   -0.1820    0.1420 N   0  0  0  0  0  0  0  0  0  0  0  0
    0.2070   -1.2540    0.2890 C   0  0  1  0  0  0  0  0  0  0  0  0
   -1.1460   -0.7130    0.7030 C   0  0  0  0  0  0  0  0  0  0  0  0
   -1.7170    0.2400   -0.2870 C   0  0  0  0  0  0  0  0  0  0  0  0
   -3.0570    0.7250    0.2100 C   0  0  0  0  0  0  0  0  0  0  0  0
   -4.0610   -0.3670    0.4080 C   0  0  0  0  0  0  0  0  0  0  0  0
   -5.2850    0.2630    0.8800 N   0  0  0  0  0  0  0  0  0  0  0  0
    0.1340   -2.1450   -0.8710 C   0  0  0  0  0  0  0  0  0  0  0  0
    0.8660   -1.9070   -1.8620 O   0  0  0  0  0  0  0  0  0  0  0  0
    0.9890    0.5120   -0.6170 H   0  0  0  0  0  0  0  0  0  0  0  0
    0.5480   -1.8810    1.1530 H   0  0  0  0  0  0  0  0  0  0  0  0
   -0.9770   -0.1520    1.6510 H   0  0  0  0  0  0  0  0  0  0  0  0
   -1.8080   -1.5550    0.9610 H   0  0  0  0  0  0  0  0  0  0  0  0
   -1.8840   -0.1980   -1.2910 H   0  0  0  0  0  0  0  0  0  0  0  0
   -1.0540    1.1050   -0.3950 H   0  0  0  0  0  0  0  0  0  0  0  0
   -2.8600    1.1640    1.2320 H   0  0  0  0  0  0  0  0  0  0  0  0
   -3.4840    1.5200   -0.4290 H   0  0  0  0  0  0  0  0  0  0  0  0
   -4.3160   -0.9000   -0.5250 H   0  0  0  0  0  0  0  0  0  0  0  0
   -3.7760   -1.1160    1.1490 H   0  0  0  0  0  0  0  0  0  0  0  0
   -5.4450    0.1470    1.8890 H   0  0  0  0  0  0  0  0  0  0  0  0
   -5.3650    1.2490    0.5640 H   0  0  0  0  0  0  0  0  0  0  0  0
   -0.4940   -7.4420   -0.2470 N   0  0  0  0  0  0  0  0  0  0  0  0
   -0.9770   -6.1730   -0.6650 C   0  0  0  0  0  0  0  0  0  0  0  0
   -1.9940   -5.7250   -0.0890 O   0  0  0  0  0  0  0  0  0  0  0  0
   -0.2410   -5.4900   -1.7400 C   0  0  0  0  0  0  0  0  0  0  0  0
   -0.7720   -4.1480   -2.1240 C   0  0  2  0  0  0  0  0  0  0  0  0
   -0.7150   -3.2790   -0.9650 N   0  0  0  0  0  0  0  0  0  0  0  0
   -2.1350   -4.2230   -2.6860 C   0  0  0  0  0  0  0  0  0  0  0  0
   -2.3680   -4.9290   -3.6910 O   0  0  0  0  0  0  0  0  0  0  0  0
   -3.1760   -3.5170   -2.1140 O   0  0  0  0  0  0  0  0  0  0  0  0
    0.1940   -7.4850    0.5460 H   0  0  0  0  0  0  0  0  0  0  0  0
   -0.8490   -8.2830   -0.7530 H   0  0  0  0  0  0  0  0  0  0  0  0
    0.8140   -5.3490   -1.3670 H   0  0  0  0  0  0  0  0  0  0  0  0
   -0.1390   -6.1560   -2.6210 H   0  0  0  0  0  0  0  0  0  0  0  0
   -0.0500   -3.6960   -2.8590 H   0  0  0  0  0  0  0  0  0  0  0  0
   -1.3440   -3.5170   -0.1700 H   0  0  0  0  0  0  0  0  0  0  0  0
  1 11  1  0  0  0  0
  1  9  1  0  0  0  0
  2 12  1  0  0  0  0
  2  1  1  0  0  0  0
  3 13  1  0  0  0  0
  3  2  1  0  0  0  0
  4  2  1  0  0  0  0
  4 16  1  0  0  0  0
  5 18  1  6  0  0  0
  5  7  1  0  0  0  0
  5  4  1  0  0  0  0
  6  5  1  0  0  0  0
  7  8  2  0  0  0  0
 10  1  1  0  0  0  0
 14  3  1  0  0  0  0
 15  3  1  0  0  0  0
 17  4  1  0  0  0  0
 19  6  1  0  0  0  0
 20  6  1  0  0  0  0
 21 22  1  0  0  0  0
 21  7  1  0  0  0  0
 22 23  1  0  0  0  0
 22 31  1  1  0  0  0
 23 33  1  0  0  0  0
 23 32  1  0  0  0  0
 24 25  1  0  0  0  0
 24 23  1  0  0  0  0
 25 26  1  0  0  0  0
 25 36  1  0  0  0  0
 26 27  1  0  0  0  0
 26 39  1  0  0  0  0
 27 40  1  0  0  0  0
 28 22  1  0  0  0  0
 29 28  2  0  0  0  0
 30 21  1  0  0  0  0
 34 24  1  0  0  0  0
 35 24  1  0  0  0  0
 37 25  1  0  0  0  0
 38 26  1  0  0  0  0
 41 27  1  0  0  0  0
 42 51  1  0  0  0  0
 43 42  1  0  0  0  0
 43 44  2  0  0  0  0
 45 53  1  0  0  0  0
 45 43  1  0  0  0  0
 46 55  1  6  0  0  0
 46 45  1  0  0  0  0
 46 47  1  0  0  0  0
 47 28  1  0  0  0  0
 47 56  1  0  0  0  0
 48 46  1  0  0  0  0
 48 50  1  0  0  0  0
 49 48  2  0  0  0  0
 52 42  1  0  0  0  0
 54 45  1  0  0  0  0
M  END
$$$$
