LKP.pdb
 OpenBabel07022418463D

 56 56  0  0  1  0  0  0  0  0999 V2000
    0.8070   -4.6550    5.0010 C   0  0  0  0  0  0  0  0  0  0  0  0
    1.8340   -3.7020    4.3690 C   0  0  0  0  0  0  0  0  0  0  0  0
    2.1120   -2.6310    5.3880 C   0  0  0  0  0  0  0  0  0  0  0  0
    1.2100   -3.2220    3.1090 C   0  0  0  0  0  0  0  0  0  0  0  0
    2.0290   -2.2650    2.2890 C   0  0  2  0  0  0  0  0  0  0  0  0
    2.3690   -1.0540    2.9700 N   0  0  0  0  0  0  0  0  0  0  0  0
    1.2400   -2.0550    1.0440 C   0  0  0  0  0  0  0  0  0  0  0  0
    0.9450   -3.0840    0.3830 O   0  0  0  0  0  0  0  0  0  0  0  0
   -0.2180   -4.2200    4.8910 H   0  0  0  0  0  0  0  0  0  0  0  0
    0.7820   -5.6260    4.4640 H   0  0  0  0  0  0  0  0  0  0  0  0
    1.0370   -4.8480    6.0480 H   0  0  0  0  0  0  0  0  0  0  0  0
    2.7380   -4.3260    4.2130 H   0  0  0  0  0  0  0  0  0  0  0  0
    1.7010   -2.9600    6.3630 H   0  0  0  0  0  0  0  0  0  0  0  0
    1.5660   -1.6970    5.1420 H   0  0  0  0  0  0  0  0  0  0  0  0
    3.1980   -2.4750    5.5580 H   0  0  0  0  0  0  0  0  0  0  0  0
    0.2080   -2.7940    3.3740 H   0  0  0  0  0  0  0  0  0  0  0  0
    0.9840   -4.1130    2.4870 H   0  0  0  0  0  0  0  0  0  0  0  0
    2.9750   -2.7760    2.0070 H   0  0  0  0  0  0  0  0  0  0  0  0
    3.2640   -1.2510    3.5150 H   0  0  0  0  0  0  0  0  0  0  0  0
    2.6790   -0.3340    2.2650 H   0  0  0  0  0  0  0  0  0  0  0  0
    0.8090   -0.8060    0.5630 N   0  0  0  0  0  0  0  0  0  0  0  0
    0.0380   -0.6350   -0.6640 C   0  0  1  0  0  0  0  0  0  0  0  0
   -1.3450   -0.1770   -0.1530 C   0  0  0  0  0  0  0  0  0  0  0  0
   -1.2810    1.0950    0.6100 C   0  0  0  0  0  0  0  0  0  0  0  0
   -2.6020    1.5770    1.0830 C   0  0  0  0  0  0  0  0  0  0  0  0
   -3.3590    0.6770    1.9970 C   0  0  0  0  0  0  0  0  0  0  0  0
   -3.7100   -0.6040    1.4670 N   0  0  0  0  0  0  0  0  0  0  0  0
    0.6570    0.3750   -1.5420 C   0  0  0  0  0  0  0  0  0  0  0  0
    1.6300    1.0560   -1.0760 O   0  0  0  0  0  0  0  0  0  0  0  0
    1.0650    0.0360    1.1160 H   0  0  0  0  0  0  0  0  0  0  0  0
   -0.1350   -1.5430   -1.2290 H   0  0  0  0  0  0  0  0  0  0  0  0
   -1.5920   -0.9840    0.6130 H   0  0  0  0  0  0  0  0  0  0  0  0
   -2.1160   -0.2480   -0.8970 H   0  0  0  0  0  0  0  0  0  0  0  0
   -0.8250    1.9170    0.0020 H   0  0  0  0  0  0  0  0  0  0  0  0
   -0.6210    1.0250    1.5150 H   0  0  0  0  0  0  0  0  0  0  0  0
   -3.2930    1.8600    0.2530 H   0  0  0  0  0  0  0  0  0  0  0  0
   -2.4210    2.5280    1.6620 H   0  0  0  0  0  0  0  0  0  0  0  0
   -2.8740    0.5870    3.0120 H   0  0  0  0  0  0  0  0  0  0  0  0
   -4.3310    1.2090    2.2220 H   0  0  0  0  0  0  0  0  0  0  0  0
   -4.6790   -0.5860    1.0380 H   0  0  0  0  0  0  0  0  0  0  0  0
   -3.7780   -1.2740    2.2700 H   0  0  0  0  0  0  0  0  0  0  0  0
    0.2710    0.6630   -2.8690 N   0  0  0  0  0  0  0  0  0  0  0  0
    0.8370    1.6870   -3.7530 C   0  0  0  0  0  0  0  0  0  0  0  0
   -0.2410    1.9850   -4.7440 C   0  0  0  0  0  0  0  0  0  0  0  0
   -1.4490    1.1790   -4.2870 C   0  0  0  0  0  0  0  0  0  0  0  0
   -0.7410   -0.0140   -3.6440 C   0  0  1  0  0  0  0  0  0  0  0  0
   -0.0750   -0.8350   -4.6880 C   0  0  0  0  0  0  0  0  0  0  0  0
    1.1680   -0.8440   -4.7470 O   0  0  0  0  0  0  0  0  0  0  0  0
   -0.7730   -1.5970   -5.6060 O   0  0  0  0  0  0  0  0  0  0  0  0
    1.0520    2.6230   -3.1830 H   0  0  0  0  0  0  0  0  0  0  0  0
    1.7350    1.3650   -4.2810 H   0  0  0  0  0  0  0  0  0  0  0  0
   -0.4770    3.0660   -4.8350 H   0  0  0  0  0  0  0  0  0  0  0  0
    0.0260    1.6430   -5.7840 H   0  0  0  0  0  0  0  0  0  0  0  0
   -1.9470    1.7490   -3.5000 H   0  0  0  0  0  0  0  0  0  0  0  0
   -2.0950    0.8840   -5.1140 H   0  0  0  0  0  0  0  0  0  0  0  0
   -1.4930   -0.5570   -3.0900 H   0  0  0  0  0  0  0  0  0  0  0  0
  1 11  1  0  0  0  0
  2  1  1  0  0  0  0
  2  3  1  0  0  0  0
  3 15  1  0  0  0  0
  3 13  1  0  0  0  0
  4 16  1  0  0  0  0
  4  2  1  0  0  0  0
  5 18  1  6  0  0  0
  5  6  1  0  0  0  0
  5  4  1  0  0  0  0
  6 19  1  0  0  0  0
  7  5  1  0  0  0  0
  8  7  2  0  0  0  0
  9  1  1  0  0  0  0
 10  1  1  0  0  0  0
 12  2  1  0  0  0  0
 14  3  1  0  0  0  0
 17  4  1  0  0  0  0
 20  6  1  0  0  0  0
 21  7  1  0  0  0  0
 21 30  1  0  0  0  0
 22 31  1  6  0  0  0
 22 23  1  0  0  0  0
 22 21  1  0  0  0  0
 23 24  1  0  0  0  0
 23 32  1  0  0  0  0
 24 25  1  0  0  0  0
 24 35  1  0  0  0  0
 25 37  1  0  0  0  0
 25 26  1  0  0  0  0
 26 39  1  0  0  0  0
 26 38  1  0  0  0  0
 27 26  1  0  0  0  0
 27 41  1  0  0  0  0
 28 29  2  0  0  0  0
 28 22  1  0  0  0  0
 33 23  1  0  0  0  0
 34 24  1  0  0  0  0
 36 25  1  0  0  0  0
 40 27  1  0  0  0  0
 42 28  1  0  0  0  0
 43 50  1  0  0  0  0
 43 42  1  0  0  0  0
 44 45  1  0  0  0  0
 44 43  1  0  0  0  0
 45 46  1  0  0  0  0
 45 54  1  0  0  0  0
 46 56  1  1  0  0  0
 46 42  1  0  0  0  0
 47 46  1  0  0  0  0
 48 47  1  0  0  0  0
 49 47  2  0  0  0  0
 51 43  1  0  0  0  0
 52 44  1  0  0  0  0
 53 44  1  0  0  0  0
 55 45  1  0  0  0  0
M  END
$$$$
