LKR.pdb
 OpenBabel07022418463D

 65 64  0  0  1  0  0  0  0  0999 V2000
    4.6300   -2.8080   -0.3350 C   0  0  0  0  0  0  0  0  0  0  0  0
    3.9030   -2.7560    0.9560 C   0  0  0  0  0  0  0  0  0  0  0  0
    4.8570   -2.7220    2.1250 C   0  0  0  0  0  0  0  0  0  0  0  0
    2.9080   -1.6390    1.0750 C   0  0  0  0  0  0  0  0  0  0  0  0
    3.5370   -0.2770    0.9320 C   0  0  2  0  0  0  0  0  0  0  0  0
    4.5230   -0.1200    1.9730 N   0  0  0  0  0  0  0  0  0  0  0  0
    2.4620    0.7250    1.1330 C   0  0  0  0  0  0  0  0  0  0  0  0
    2.5830    1.5200    2.1150 O   0  0  0  0  0  0  0  0  0  0  0  0
    4.8140   -1.8300   -0.8180 H   0  0  0  0  0  0  0  0  0  0  0  0
    5.6570   -3.2270   -0.1280 H   0  0  0  0  0  0  0  0  0  0  0  0
    4.1950   -3.4870   -1.0890 H   0  0  0  0  0  0  0  0  0  0  0  0
    3.3290   -3.7180    1.0550 H   0  0  0  0  0  0  0  0  0  0  0  0
    5.1810   -3.7480    2.4330 H   0  0  0  0  0  0  0  0  0  0  0  0
    4.4070   -2.2600    3.0270 H   0  0  0  0  0  0  0  0  0  0  0  0
    5.7610   -2.1710    1.8200 H   0  0  0  0  0  0  0  0  0  0  0  0
    2.0810   -1.7300    0.3430 H   0  0  0  0  0  0  0  0  0  0  0  0
    2.4490   -1.6800    2.0830 H   0  0  0  0  0  0  0  0  0  0  0  0
    3.9630   -0.1300   -0.0820 H   0  0  0  0  0  0  0  0  0  0  0  0
    4.2210    0.6150    2.6140 H   0  0  0  0  0  0  0  0  0  0  0  0
    5.4230    0.1870    1.5230 H   0  0  0  0  0  0  0  0  0  0  0  0
    1.3400    0.8330    0.3040 N   0  0  0  0  0  0  0  0  0  0  0  0
    0.3390    1.9160    0.6570 C   0  0  1  0  0  0  0  0  0  0  0  0
    0.1490    2.6630   -0.6020 C   0  0  0  0  0  0  0  0  0  0  0  0
   -0.6550    3.8570   -0.7130 C   0  0  0  0  0  0  0  0  0  0  0  0
   -2.0960    3.9000   -0.3600 C   0  0  0  0  0  0  0  0  0  0  0  0
   -2.6780    5.3020   -0.7470 C   0  0  0  0  0  0  0  0  0  0  0  0
   -4.0640    5.2690   -0.3800 N   0  0  0  0  0  0  0  0  0  0  0  0
   -0.8470    1.1360    1.0770 C   0  0  0  0  0  0  0  0  0  0  0  0
   -1.8440    1.6790    1.5820 O   0  0  0  0  0  0  0  0  0  0  0  0
    1.2090    0.2260   -0.4990 H   0  0  0  0  0  0  0  0  0  0  0  0
    0.7410    2.5490    1.4420 H   0  0  0  0  0  0  0  0  0  0  0  0
   -0.2820    1.8940   -1.3490 H   0  0  0  0  0  0  0  0  0  0  0  0
    1.1880    2.8420   -1.0650 H   0  0  0  0  0  0  0  0  0  0  0  0
   -0.1640    4.7570   -0.1980 H   0  0  0  0  0  0  0  0  0  0  0  0
   -0.6150    4.2330   -1.8090 H   0  0  0  0  0  0  0  0  0  0  0  0
   -2.7560    3.1690   -0.7940 H   0  0  0  0  0  0  0  0  0  0  0  0
   -2.1570    3.9020    0.7730 H   0  0  0  0  0  0  0  0  0  0  0  0
   -2.1470    6.0960   -0.2070 H   0  0  0  0  0  0  0  0  0  0  0  0
   -2.5830    5.4540   -1.8350 H   0  0  0  0  0  0  0  0  0  0  0  0
   -4.4840    4.3110   -0.4640 H   0  0  0  0  0  0  0  0  0  0  0  0
   -4.2520    5.6960    0.5580 H   0  0  0  0  0  0  0  0  0  0  0  0
   -1.5830   -6.2460   -0.9560 N   0  0  0  0  0  0  0  0  0  0  0  0
   -2.7180   -5.3940   -0.7820 C   0  0  0  0  0  0  0  0  0  0  0  0
   -3.5820   -5.2090   -1.7490 N   0  0  0  0  0  0  0  0  0  0  0  0
   -2.8760   -4.7540    0.4770 N   0  0  0  0  0  0  0  0  0  0  0  0
   -3.8960   -3.7810    0.6790 C   0  0  0  0  0  0  0  0  0  0  0  0
   -3.7270   -2.5140   -0.0500 C   0  0  0  0  0  0  0  0  0  0  0  0
   -2.5490   -1.6790    0.0720 C   0  0  0  0  0  0  0  0  0  0  0  0
   -2.0930   -1.0700    1.3410 C   0  0  2  0  0  0  0  0  0  0  0  0
   -0.8820   -0.2620    0.9150 N   0  0  0  0  0  0  0  0  0  0  0  0
   -1.5860   -1.9540    2.3940 C   0  0  0  0  0  0  0  0  0  0  0  0
   -2.3280   -2.6670    3.0750 O   0  0  0  0  0  0  0  0  0  0  0  0
   -0.2140   -2.0570    2.7070 O   0  0  0  0  0  0  0  0  0  0  0  0
   -0.9610   -6.1900   -1.7880 H   0  0  0  0  0  0  0  0  0  0  0  0
   -1.3430   -6.9650   -0.2350 H   0  0  0  0  0  0  0  0  0  0  0  0
   -3.4040   -5.7040   -2.6320 H   0  0  0  0  0  0  0  0  0  0  0  0
   -2.2200   -5.0240    1.2400 H   0  0  0  0  0  0  0  0  0  0  0  0
   -4.8670   -4.2980    0.2590 H   0  0  0  0  0  0  0  0  0  0  0  0
   -4.1920   -3.6240    1.7150 H   0  0  0  0  0  0  0  0  0  0  0  0
   -3.8340   -2.7800   -1.1630 H   0  0  0  0  0  0  0  0  0  0  0  0
   -4.6370   -1.8340    0.0820 H   0  0  0  0  0  0  0  0  0  0  0  0
   -1.6370   -2.1290   -0.4630 H   0  0  0  0  0  0  0  0  0  0  0  0
   -2.7310   -0.7760   -0.6240 H   0  0  0  0  0  0  0  0  0  0  0  0
   -2.7790   -0.3090    1.7530 H   0  0  0  0  0  0  0  0  0  0  0  0
   -0.1200   -0.7950    0.5180 H   0  0  0  0  0  0  0  0  0  0  0  0
  1 10  1  0  0  0  0
  1  2  1  0  0  0  0
  2 12  1  0  0  0  0
  2  4  1  0  0  0  0
  2  3  1  0  0  0  0
  3 13  1  0  0  0  0
  3 14  1  0  0  0  0
  4 17  1  0  0  0  0
  5 18  1  6  0  0  0
  5  4  1  0  0  0  0
  5  7  1  0  0  0  0
  5  6  1  0  0  0  0
  6 19  1  0  0  0  0
  7  8  2  0  0  0  0
  9  1  1  0  0  0  0
 11  1  1  0  0  0  0
 15  3  1  0  0  0  0
 16  4  1  0  0  0  0
 20  6  1  0  0  0  0
 21 22  1  0  0  0  0
 21  7  1  0  0  0  0
 22 28  1  0  0  0  0
 22 31  1  1  0  0  0
 23 22  1  0  0  0  0
 24 23  1  0  0  0  0
 24 25  1  0  0  0  0
 24 34  1  0  0  0  0
 25 37  1  0  0  0  0
 26 27  1  0  0  0  0
 26 25  1  0  0  0  0
 26 38  1  0  0  0  0
 27 41  1  0  0  0  0
 28 29  2  0  0  0  0
 30 21  1  0  0  0  0
 32 23  1  0  0  0  0
 33 23  1  0  0  0  0
 35 24  1  0  0  0  0
 36 25  1  0  0  0  0
 39 26  1  0  0  0  0
 40 27  1  0  0  0  0
 42 43  1  0  0  0  0
 42 55  1  0  0  0  0
 43 45  1  0  0  0  0
 44 43  2  0  0  0  0
 45 46  1  0  0  0  0
 45 57  1  0  0  0  0
 46 59  1  0  0  0  0
 47 48  1  0  0  0  0
 47 61  1  0  0  0  0
 47 46  1  0  0  0  0
 48 49  1  0  0  0  0
 49 64  1  1  0  0  0
 49 51  1  0  0  0  0
 50 28  1  0  0  0  0
 50 49  1  0  0  0  0
 51 53  2  0  0  0  0
 51 52  1  0  0  0  0
 54 42  1  0  0  0  0
 56 44  1  0  0  0  0
 58 46  1  0  0  0  0
 60 47  1  0  0  0  0
 62 48  1  0  0  0  0
 63 48  1  0  0  0  0
 65 50  1  0  0  0  0
M  END
$$$$
