LKT.pdb
 OpenBabel07022418463D

 56 55  0  0  1  0  0  0  0  0999 V2000
    1.9660   -5.1070    1.6990 C   0  0  0  0  0  0  0  0  0  0  0  0
    2.0810   -3.6890    2.2840 C   0  0  0  0  0  0  0  0  0  0  0  0
    0.6790   -3.2320    2.5440 C   0  0  0  0  0  0  0  0  0  0  0  0
    2.8700   -2.8100    1.3850 C   0  0  0  0  0  0  0  0  0  0  0  0
    3.0700   -1.4030    1.8160 C   0  0  2  0  0  0  0  0  0  0  0  0
    3.7300   -1.4440    3.1140 N   0  0  0  0  0  0  0  0  0  0  0  0
    1.8430   -0.5790    1.9210 C   0  0  0  0  0  0  0  0  0  0  0  0
    1.3540   -0.2740    3.0630 O   0  0  0  0  0  0  0  0  0  0  0  0
    0.9700   -5.2590    1.2250 H   0  0  0  0  0  0  0  0  0  0  0  0
    2.7210   -5.2500    0.8980 H   0  0  0  0  0  0  0  0  0  0  0  0
    2.0320   -5.8600    2.5050 H   0  0  0  0  0  0  0  0  0  0  0  0
    2.5750   -3.8250    3.2910 H   0  0  0  0  0  0  0  0  0  0  0  0
   -0.0580   -4.0720    2.4780 H   0  0  0  0  0  0  0  0  0  0  0  0
    0.3530   -2.5000    1.8030 H   0  0  0  0  0  0  0  0  0  0  0  0
    0.5840   -2.8360    3.5810 H   0  0  0  0  0  0  0  0  0  0  0  0
    3.9000   -3.2700    1.3080 H   0  0  0  0  0  0  0  0  0  0  0  0
    2.4660   -2.9040    0.3520 H   0  0  0  0  0  0  0  0  0  0  0  0
    3.8110   -0.9320    1.1180 H   0  0  0  0  0  0  0  0  0  0  0  0
    4.0660   -2.3910    3.3650 H   0  0  0  0  0  0  0  0  0  0  0  0
    4.4340   -0.6930    3.2310 H   0  0  0  0  0  0  0  0  0  0  0  0
    1.1590   -0.0890    0.7770 N   0  0  0  0  0  0  0  0  0  0  0  0
   -0.0770    0.7340    1.0190 C   0  0  1  0  0  0  0  0  0  0  0  0
    0.1630    2.0550    0.3840 C   0  0  0  0  0  0  0  0  0  0  0  0
   -0.8050    3.1170    0.5770 C   0  0  0  0  0  0  0  0  0  0  0  0
   -2.2250    3.0600    0.2390 C   0  0  0  0  0  0  0  0  0  0  0  0
   -2.8570    4.4820    0.4730 C   0  0  0  0  0  0  0  0  0  0  0  0
   -4.2470    4.4330    0.1440 N   0  0  0  0  0  0  0  0  0  0  0  0
   -1.1160   -0.0180    0.2740 C   0  0  0  0  0  0  0  0  0  0  0  0
   -2.3460    0.2690    0.2590 O   0  0  0  0  0  0  0  0  0  0  0  0
    1.5060   -0.2650   -0.1810 H   0  0  0  0  0  0  0  0  0  0  0  0
   -0.2320    0.8050    2.0820 H   0  0  0  0  0  0  0  0  0  0  0  0
    1.1850    2.4480    0.7510 H   0  0  0  0  0  0  0  0  0  0  0  0
    0.3890    1.8760   -0.7310 H   0  0  0  0  0  0  0  0  0  0  0  0
   -0.3850    4.0690    0.0520 H   0  0  0  0  0  0  0  0  0  0  0  0
   -0.7750    3.4450    1.7010 H   0  0  0  0  0  0  0  0  0  0  0  0
   -2.4730    2.7920   -0.7770 H   0  0  0  0  0  0  0  0  0  0  0  0
   -2.8500    2.4640    0.9640 H   0  0  0  0  0  0  0  0  0  0  0  0
   -2.7330    4.6880    1.5420 H   0  0  0  0  0  0  0  0  0  0  0  0
   -2.3550    5.2230   -0.1620 H   0  0  0  0  0  0  0  0  0  0  0  0
   -4.4680    3.7930   -0.6400 H   0  0  0  0  0  0  0  0  0  0  0  0
   -4.8670    4.2400    0.9700 H   0  0  0  0  0  0  0  0  0  0  0  0
   -0.2390   -2.0690   -3.1930 C   0  0  0  0  0  0  0  0  0  0  0  0
   -1.5860   -1.6130   -2.7320 C   0  0  1  0  0  0  0  0  0  0  0  0
   -2.6120   -2.3030   -3.3910 O   0  0  0  0  0  0  0  0  0  0  0  0
   -1.7920   -1.8750   -1.2370 C   0  0  2  0  0  0  0  0  0  0  0  0
   -0.7410   -1.1720   -0.5070 N   0  0  0  0  0  0  0  0  0  0  0  0
   -1.6660   -3.3120   -1.0130 C   0  0  0  0  0  0  0  0  0  0  0  0
   -0.7590   -3.7740   -0.3110 O   0  0  0  0  0  0  0  0  0  0  0  0
   -2.5580   -4.2340   -1.5750 O   0  0  0  0  0  0  0  0  0  0  0  0
    0.3450   -1.2080   -3.6170 H   0  0  0  0  0  0  0  0  0  0  0  0
    0.3800   -2.5090   -2.4090 H   0  0  0  0  0  0  0  0  0  0  0  0
   -0.3450   -2.8080   -4.0180 H   0  0  0  0  0  0  0  0  0  0  0  0
   -1.7150   -0.5420   -2.9740 H   0  0  0  0  0  0  0  0  0  0  0  0
   -2.3880   -2.2600   -4.3720 H   0  0  0  0  0  0  0  0  0  0  0  0
   -2.7850   -1.4720   -1.0090 H   0  0  0  0  0  0  0  0  0  0  0  0
    0.2040   -1.5500   -0.5870 H   0  0  0  0  0  0  0  0  0  0  0  0
  1  2  1  0  0  0  0
  1 11  1  0  0  0  0
  2  3  1  0  0  0  0
  2 12  1  0  0  0  0
  3 15  1  0  0  0  0
  4  5  1  0  0  0  0
  4  2  1  0  0  0  0
  5 18  1  6  0  0  0
  5  7  1  0  0  0  0
  5  6  1  0  0  0  0
  6 20  1  0  0  0  0
  6 19  1  0  0  0  0
  7  8  2  0  0  0  0
  9  1  1  0  0  0  0
 10  1  1  0  0  0  0
 13  3  1  0  0  0  0
 14  3  1  0  0  0  0
 16  4  1  0  0  0  0
 17  4  1  0  0  0  0
 21 22  1  0  0  0  0
 21  7  1  0  0  0  0
 22 31  1  1  0  0  0
 23 24  1  0  0  0  0
 23 32  1  0  0  0  0
 23 22  1  0  0  0  0
 24 35  1  0  0  0  0
 25 26  1  0  0  0  0
 25 24  1  0  0  0  0
 25 37  1  0  0  0  0
 26 38  1  0  0  0  0
 27 26  1  0  0  0  0
 27 41  1  0  0  0  0
 28 22  1  0  0  0  0
 29 28  2  0  0  0  0
 30 21  1  0  0  0  0
 33 23  1  0  0  0  0
 34 24  1  0  0  0  0
 36 25  1  0  0  0  0
 39 26  1  0  0  0  0
 40 27  1  0  0  0  0
 42 43  1  0  0  0  0
 42 51  1  0  0  0  0
 43 53  1  6  0  0  0
 43 45  1  0  0  0  0
 44 43  1  0  0  0  0
 45 47  1  0  0  0  0
 45 55  1  1  0  0  0
 45 46  1  0  0  0  0
 46 28  1  0  0  0  0
 47 48  1  0  0  0  0
 49 47  2  0  0  0  0
 50 42  1  0  0  0  0
 52 42  1  0  0  0  0
 54 44  1  0  0  0  0
 56 46  1  0  0  0  0
M  END
$$$$
