LKV.pdb
 OpenBabel07022418463D

 58 57  0  0  1  0  0  0  0  0999 V2000
    2.0330   -4.1480    2.9210 C   0  0  0  0  0  0  0  0  0  0  0  0
    1.6040   -3.5310    1.5910 C   0  0  0  0  0  0  0  0  0  0  0  0
    1.3990   -4.6540    0.6010 C   0  0  0  0  0  0  0  0  0  0  0  0
    2.6850   -2.6160    1.0600 C   0  0  0  0  0  0  0  0  0  0  0  0
    2.9970   -1.4890    1.9850 C   0  0  2  0  0  0  0  0  0  0  0  0
    3.4540   -1.9570    3.2870 N   0  0  0  0  0  0  0  0  0  0  0  0
    1.8820   -0.5450    2.1650 C   0  0  0  0  0  0  0  0  0  0  0  0
    1.3830   -0.2950    3.3020 O   0  0  0  0  0  0  0  0  0  0  0  0
    1.4930   -5.1190    3.0260 H   0  0  0  0  0  0  0  0  0  0  0  0
    3.1120   -4.3320    2.9720 H   0  0  0  0  0  0  0  0  0  0  0  0
    1.6640   -3.4620    3.7280 H   0  0  0  0  0  0  0  0  0  0  0  0
    0.6980   -2.9210    1.7530 H   0  0  0  0  0  0  0  0  0  0  0  0
    1.8640   -4.4250   -0.3840 H   0  0  0  0  0  0  0  0  0  0  0  0
    0.3160   -4.8930    0.5050 H   0  0  0  0  0  0  0  0  0  0  0  0
    1.8840   -5.5930    0.9680 H   0  0  0  0  0  0  0  0  0  0  0  0
    2.4280   -2.2120    0.0660 H   0  0  0  0  0  0  0  0  0  0  0  0
    3.6010   -3.2470    0.8760 H   0  0  0  0  0  0  0  0  0  0  0  0
    3.8780   -0.9450    1.5390 H   0  0  0  0  0  0  0  0  0  0  0  0
    4.4730   -2.1510    3.2410 H   0  0  0  0  0  0  0  0  0  0  0  0
    3.3160   -1.1630    3.9500 H   0  0  0  0  0  0  0  0  0  0  0  0
    1.3110    0.1350    1.0900 N   0  0  0  0  0  0  0  0  0  0  0  0
    0.1650    1.1140    1.2990 C   0  0  1  0  0  0  0  0  0  0  0  0
    0.6370    2.3110    0.5930 C   0  0  0  0  0  0  0  0  0  0  0  0
    0.0650    3.6260    0.5950 C   0  0  0  0  0  0  0  0  0  0  0  0
   -1.3330    3.9960    0.4040 C   0  0  0  0  0  0  0  0  0  0  0  0
   -2.1590    3.6710    1.6260 C   0  0  0  0  0  0  0  0  0  0  0  0
   -3.5680    3.9810    1.4300 N   0  0  0  0  0  0  0  0  0  0  0  0
   -0.8630    0.4090    0.4450 C   0  0  0  0  0  0  0  0  0  0  0  0
   -1.9350    0.9840    0.2460 O   0  0  0  0  0  0  0  0  0  0  0  0
    1.6210    0.0320    0.1190 H   0  0  0  0  0  0  0  0  0  0  0  0
   -0.0970    1.1760    2.3410 H   0  0  0  0  0  0  0  0  0  0  0  0
    0.8310    1.9890   -0.4920 H   0  0  0  0  0  0  0  0  0  0  0  0
    1.7400    2.4500    0.9490 H   0  0  0  0  0  0  0  0  0  0  0  0
    0.4830    4.2630    1.4940 H   0  0  0  0  0  0  0  0  0  0  0  0
    0.6350    4.2090   -0.2450 H   0  0  0  0  0  0  0  0  0  0  0  0
   -1.8100    3.5930   -0.5190 H   0  0  0  0  0  0  0  0  0  0  0  0
   -1.4580    5.1210    0.2700 H   0  0  0  0  0  0  0  0  0  0  0  0
   -2.0270    2.7060    2.0630 H   0  0  0  0  0  0  0  0  0  0  0  0
   -1.8490    4.4080    2.4690 H   0  0  0  0  0  0  0  0  0  0  0  0
   -4.0410    3.1150    1.0380 H   0  0  0  0  0  0  0  0  0  0  0  0
   -4.0170    4.2190    2.3640 H   0  0  0  0  0  0  0  0  0  0  0  0
   -2.4650   -2.3130   -3.1190 C   0  0  0  0  0  0  0  0  0  0  0  0
   -1.3090   -1.6560   -2.3940 C   0  0  0  0  0  0  0  0  0  0  0  0
   -0.0750   -2.4200   -2.6470 C   0  0  0  0  0  0  0  0  0  0  0  0
   -1.7150   -1.4990   -0.9650 C   0  0  2  0  0  0  0  0  0  0  0  0
   -0.6820   -0.8690   -0.1430 N   0  0  0  0  0  0  0  0  0  0  0  0
   -2.2560   -2.7160   -0.3390 C   0  0  0  0  0  0  0  0  0  0  0  0
   -1.8590   -3.1590    0.7920 O   0  0  0  0  0  0  0  0  0  0  0  0
   -3.2480   -3.4960   -0.9220 O   0  0  0  0  0  0  0  0  0  0  0  0
   -2.3450   -3.4340   -3.1070 H   0  0  0  0  0  0  0  0  0  0  0  0
   -3.4430   -2.0040   -2.7120 H   0  0  0  0  0  0  0  0  0  0  0  0
   -2.3620   -2.0270   -4.1990 H   0  0  0  0  0  0  0  0  0  0  0  0
   -1.2140   -0.6390   -2.8240 H   0  0  0  0  0  0  0  0  0  0  0  0
    0.5090   -2.6780   -1.7400 H   0  0  0  0  0  0  0  0  0  0  0  0
    0.5790   -1.9070   -3.4130 H   0  0  0  0  0  0  0  0  0  0  0  0
   -0.3340   -3.3920   -3.1180 H   0  0  0  0  0  0  0  0  0  0  0  0
   -2.5530   -0.7670   -0.9910 H   0  0  0  0  0  0  0  0  0  0  0  0
    0.2160   -1.3540    0.0330 H   0  0  0  0  0  0  0  0  0  0  0  0
  1 10  1  0  0  0  0
  1  9  1  0  0  0  0
  1 11  1  0  0  0  0
  2 12  1  0  0  0  0
  2  1  1  0  0  0  0
  3 15  1  0  0  0  0
  3  2  1  0  0  0  0
  4  2  1  0  0  0  0
  4  5  1  0  0  0  0
  5 18  1  6  0  0  0
  5  7  1  0  0  0  0
  5  6  1  0  0  0  0
  6 20  1  0  0  0  0
  7  8  2  0  0  0  0
 13  3  1  0  0  0  0
 14  3  1  0  0  0  0
 16  4  1  0  0  0  0
 17  4  1  0  0  0  0
 19  6  1  0  0  0  0
 21 22  1  0  0  0  0
 21  7  1  0  0  0  0
 22 31  1  1  0  0  0
 23 24  1  0  0  0  0
 23 33  1  0  0  0  0
 23 22  1  0  0  0  0
 24 34  1  0  0  0  0
 25 24  1  0  0  0  0
 25 26  1  0  0  0  0
 26 38  1  0  0  0  0
 26 39  1  0  0  0  0
 27 26  1  0  0  0  0
 27 41  1  0  0  0  0
 28 22  1  0  0  0  0
 29 28  2  0  0  0  0
 30 21  1  0  0  0  0
 32 23  1  0  0  0  0
 35 24  1  0  0  0  0
 36 25  1  0  0  0  0
 37 25  1  0  0  0  0
 40 27  1  0  0  0  0
 42 50  1  0  0  0  0
 42 51  1  0  0  0  0
 42 43  1  0  0  0  0
 43 45  1  0  0  0  0
 44 43  1  0  0  0  0
 44 54  1  0  0  0  0
 45 57  1  6  0  0  0
 45 47  1  0  0  0  0
 45 46  1  0  0  0  0
 46 58  1  0  0  0  0
 46 28  1  0  0  0  0
 47 48  1  0  0  0  0
 49 47  2  0  0  0  0
 52 42  1  0  0  0  0
 53 43  1  0  0  0  0
 55 44  1  0  0  0  0
 56 44  1  0  0  0  0
M  END
$$$$
