LLC.pdb
 OpenBabel07022418463D

 51 50  0  0  1  0  0  0  0  0999 V2000
    1.5270   -5.2220    0.2230 C   0  0  0  0  0  0  0  0  0  0  0  0
    1.8120   -4.0520    1.1790 C   0  0  0  0  0  0  0  0  0  0  0  0
    0.4810   -3.6000    1.6850 C   0  0  0  0  0  0  0  0  0  0  0  0
    2.5940   -3.0540    0.4070 C   0  0  0  0  0  0  0  0  0  0  0  0
    2.9900   -1.8120    1.1450 C   0  0  2  0  0  0  0  0  0  0  0  0
    3.7920   -2.1300    2.3130 N   0  0  0  0  0  0  0  0  0  0  0  0
    1.8350   -0.9580    1.4360 C   0  0  0  0  0  0  0  0  0  0  0  0
    1.5580   -0.7290    2.6400 O   0  0  0  0  0  0  0  0  0  0  0  0
    1.1980   -6.0630    0.8560 H   0  0  0  0  0  0  0  0  0  0  0  0
    0.6310   -4.8940   -0.3780 H   0  0  0  0  0  0  0  0  0  0  0  0
    2.3920   -5.4370   -0.4060 H   0  0  0  0  0  0  0  0  0  0  0  0
    2.4240   -4.5060    1.9900 H   0  0  0  0  0  0  0  0  0  0  0  0
   -0.2490   -4.4660    1.7560 H   0  0  0  0  0  0  0  0  0  0  0  0
    0.6060   -3.2890    2.7480 H   0  0  0  0  0  0  0  0  0  0  0  0
   -0.0100   -2.8770    1.0400 H   0  0  0  0  0  0  0  0  0  0  0  0
    2.0430   -2.7660   -0.5140 H   0  0  0  0  0  0  0  0  0  0  0  0
    3.5270   -3.5710    0.0580 H   0  0  0  0  0  0  0  0  0  0  0  0
    3.6760   -1.2370    0.4410 H   0  0  0  0  0  0  0  0  0  0  0  0
    3.3220   -2.8800    2.8610 H   0  0  0  0  0  0  0  0  0  0  0  0
    4.7430   -2.4190    2.0290 H   0  0  0  0  0  0  0  0  0  0  0  0
    1.2980    2.6630    2.2780 C   0  0  0  0  0  0  0  0  0  0  0  0
    1.2820    2.5630    0.7690 C   0  0  0  0  0  0  0  0  0  0  0  0
    1.3090    3.9910    0.2400 C   0  0  0  0  0  0  0  0  0  0  0  0
    0.0360    1.8730    0.3040 C   0  0  0  0  0  0  0  0  0  0  0  0
   -0.0960    0.4610    0.8490 C   0  0  2  0  0  0  0  0  0  0  0  0
    1.0120   -0.3680    0.4410 N   0  0  0  0  0  0  0  0  0  0  0  0
   -1.3280   -0.0690    0.2100 C   0  0  0  0  0  0  0  0  0  0  0  0
   -1.2460   -1.0520   -0.5490 O   0  0  0  0  0  0  0  0  0  0  0  0
    2.0470    1.9730    2.6680 H   0  0  0  0  0  0  0  0  0  0  0  0
    0.2920    2.3700    2.6540 H   0  0  0  0  0  0  0  0  0  0  0  0
    1.5470    3.7080    2.6280 H   0  0  0  0  0  0  0  0  0  0  0  0
    2.2090    2.0940    0.4380 H   0  0  0  0  0  0  0  0  0  0  0  0
    0.3120    4.4360    0.1930 H   0  0  0  0  0  0  0  0  0  0  0  0
    2.0330    4.5850    0.8480 H   0  0  0  0  0  0  0  0  0  0  0  0
    1.7470    3.9730   -0.7910 H   0  0  0  0  0  0  0  0  0  0  0  0
   -0.8370    2.4350    0.6860 H   0  0  0  0  0  0  0  0  0  0  0  0
   -0.0510    1.8130   -0.7880 H   0  0  0  0  0  0  0  0  0  0  0  0
   -0.2520    0.4620    1.9380 H   0  0  0  0  0  0  0  0  0  0  0  0
    1.2480   -0.5640   -0.5530 H   0  0  0  0  0  0  0  0  0  0  0  0
   -2.6090    0.5060    0.4320 N   0  0  0  0  0  0  0  0  0  0  0  0
   -3.8180    0.0050   -0.1730 C   0  0  1  0  0  0  0  0  0  0  0  0
   -3.9470    0.3390   -1.6250 C   0  0  0  0  0  0  0  0  0  0  0  0
   -5.4990   -0.3320   -2.3030 S   0  0  0  0  0  0  0  0  0  0  0  0
   -4.0340   -1.4520    0.0700 C   0  0  0  0  0  0  0  0  0  0  0  0
   -3.2110   -2.0640    0.7780 O   0  0  0  0  0  0  0  0  0  0  0  0
   -5.1060   -2.1410   -0.4590 O   0  0  0  0  0  0  0  0  0  0  0  0
   -2.5970    1.3440    1.0870 H   0  0  0  0  0  0  0  0  0  0  0  0
   -4.6700    0.5390    0.3660 H   0  0  0  0  0  0  0  0  0  0  0  0
   -3.9530    1.4110   -1.8360 H   0  0  0  0  0  0  0  0  0  0  0  0
   -3.1300   -0.1000   -2.2410 H   0  0  0  0  0  0  0  0  0  0  0  0
   -6.5390   -0.2290   -1.3310 H   0  0  0  0  0  0  0  0  0  0  0  0
  1  9  1  0  0  0  0
  1  2  1  0  0  0  0
  2  3  1  0  0  0  0
  2 12  1  0  0  0  0
  3 13  1  0  0  0  0
  3 14  1  0  0  0  0
  4  5  1  0  0  0  0
  4  2  1  0  0  0  0
  5 18  1  6  0  0  0
  5  7  1  0  0  0  0
  5  6  1  0  0  0  0
  6 19  1  0  0  0  0
  7  8  2  0  0  0  0
 10  1  1  0  0  0  0
 11  1  1  0  0  0  0
 15  3  1  0  0  0  0
 16  4  1  0  0  0  0
 17  4  1  0  0  0  0
 20  6  1  0  0  0  0
 21 31  1  0  0  0  0
 21 30  1  0  0  0  0
 21 29  1  0  0  0  0
 22 21  1  0  0  0  0
 23 22  1  0  0  0  0
 23 34  1  0  0  0  0
 24 36  1  0  0  0  0
 24 22  1  0  0  0  0
 24 25  1  0  0  0  0
 25 38  1  1  0  0  0
 26 25  1  0  0  0  0
 26  7  1  0  0  0  0
 27 40  1  0  0  0  0
 27 25  1  0  0  0  0
 28 27  2  0  0  0  0
 32 22  1  0  0  0  0
 33 23  1  0  0  0  0
 35 23  1  0  0  0  0
 37 24  1  0  0  0  0
 39 26  1  0  0  0  0
 40 47  1  0  0  0  0
 41 44  1  0  0  0  0
 41 48  1  1  0  0  0
 41 40  1  0  0  0  0
 42 41  1  0  0  0  0
 43 42  1  0  0  0  0
 43 51  1  0  0  0  0
 44 45  1  0  0  0  0
 46 44  2  0  0  0  0
 49 42  1  0  0  0  0
 50 42  1  0  0  0  0
M  END
$$$$
