LLD.pdb
 OpenBabel07022418463D

 53 52  0  0  1  0  0  0  0  0999 V2000
    1.5900   -4.3470   -0.3040 C   0  0  0  0  0  0  0  0  0  0  0  0
    2.1020   -3.1850    0.5630 C   0  0  0  0  0  0  0  0  0  0  0  0
    1.1720   -3.0480    1.7240 C   0  0  0  0  0  0  0  0  0  0  0  0
    2.2040   -2.0060   -0.3350 C   0  0  0  0  0  0  0  0  0  0  0  0
    2.6810   -0.7380    0.2910 C   0  0  2  0  0  0  0  0  0  0  0  0
    3.9810   -0.8570    0.8890 N   0  0  0  0  0  0  0  0  0  0  0  0
    1.6440   -0.1750    1.1790 C   0  0  0  0  0  0  0  0  0  0  0  0
    1.7660    0.0070    2.4050 O   0  0  0  0  0  0  0  0  0  0  0  0
    0.7680   -3.9990   -0.9560 H   0  0  0  0  0  0  0  0  0  0  0  0
    2.4340   -4.7630   -0.8930 H   0  0  0  0  0  0  0  0  0  0  0  0
    1.2100   -5.1010    0.4080 H   0  0  0  0  0  0  0  0  0  0  0  0
    3.1150   -3.5090    0.9150 H   0  0  0  0  0  0  0  0  0  0  0  0
    1.6880   -2.7190    2.6550 H   0  0  0  0  0  0  0  0  0  0  0  0
    0.3260   -2.3640    1.5500 H   0  0  0  0  0  0  0  0  0  0  0  0
    0.7500   -4.0750    1.9340 H   0  0  0  0  0  0  0  0  0  0  0  0
    2.9120   -2.2560   -1.1620 H   0  0  0  0  0  0  0  0  0  0  0  0
    1.2100   -1.8370   -0.8020 H   0  0  0  0  0  0  0  0  0  0  0  0
    2.7510    0.0090   -0.5660 H   0  0  0  0  0  0  0  0  0  0  0  0
    4.4230   -1.7750    0.7530 H   0  0  0  0  0  0  0  0  0  0  0  0
    4.0200   -0.4860    1.8540 H   0  0  0  0  0  0  0  0  0  0  0  0
    0.7690    3.0900    2.7220 C   0  0  0  0  0  0  0  0  0  0  0  0
    0.2990    3.0820    1.2980 C   0  0  0  0  0  0  0  0  0  0  0  0
    0.0170    4.4970    0.8040 C   0  0  0  0  0  0  0  0  0  0  0  0
   -0.8970    2.2290    1.0470 C   0  0  0  0  0  0  0  0  0  0  0  0
   -0.6790    0.7600    1.3810 C   0  0  2  0  0  0  0  0  0  0  0  0
    0.3910    0.2000    0.5940 N   0  0  0  0  0  0  0  0  0  0  0  0
   -1.9240   -0.0140    1.1760 C   0  0  0  0  0  0  0  0  0  0  0  0
   -2.9950    0.3180    1.7960 O   0  0  0  0  0  0  0  0  0  0  0  0
    0.8240    4.1550    3.0720 H   0  0  0  0  0  0  0  0  0  0  0  0
    0.1220    2.4940    3.3700 H   0  0  0  0  0  0  0  0  0  0  0  0
    1.8230    2.7140    2.8370 H   0  0  0  0  0  0  0  0  0  0  0  0
    1.1570    2.7250    0.6810 H   0  0  0  0  0  0  0  0  0  0  0  0
   -0.0910    4.5010   -0.2950 H   0  0  0  0  0  0  0  0  0  0  0  0
    0.8760    5.1500    1.0470 H   0  0  0  0  0  0  0  0  0  0  0  0
   -0.9370    4.8780    1.2340 H   0  0  0  0  0  0  0  0  0  0  0  0
   -1.7430    2.6470    1.6280 H   0  0  0  0  0  0  0  0  0  0  0  0
   -1.1990    2.2890   -0.0170 H   0  0  0  0  0  0  0  0  0  0  0  0
   -0.3690    0.7540    2.4510 H   0  0  0  0  0  0  0  0  0  0  0  0
    0.2590    0.0630   -0.4200 H   0  0  0  0  0  0  0  0  0  0  0  0
   -1.9660   -1.1140    0.3120 N   0  0  0  0  0  0  0  0  0  0  0  0
   -3.1770   -1.8910    0.0840 C   0  0  1  0  0  0  0  0  0  0  0  0
   -3.6200   -1.7160   -1.3490 C   0  0  0  0  0  0  0  0  0  0  0  0
   -2.6320   -2.1600   -2.3310 C   0  0  0  0  0  0  0  0  0  0  0  0
   -2.9290   -2.0090   -3.5670 O   0  0  0  0  0  0  0  0  0  0  0  0
   -2.9430   -3.3220    0.3490 C   0  0  0  0  0  0  0  0  0  0  0  0
   -1.8390   -3.7850    0.7170 O   0  0  0  0  0  0  0  0  0  0  0  0
   -1.4080   -2.7250   -2.0930 O   0  0  0  0  0  0  0  0  0  0  0  0
   -3.9840   -4.2270    0.1930 O   0  0  0  0  0  0  0  0  0  0  0  0
   -1.1150   -1.4150   -0.2020 H   0  0  0  0  0  0  0  0  0  0  0  0
   -3.9840   -1.4810    0.7290 H   0  0  0  0  0  0  0  0  0  0  0  0
   -3.8930   -0.6510   -1.4950 H   0  0  0  0  0  0  0  0  0  0  0  0
   -4.5550   -2.2960   -1.4740 H   0  0  0  0  0  0  0  0  0  0  0  0
   -0.6870   -2.8760   -2.7640 H   0  0  0  0  0  0  0  0  0  0  0  0
  1 11  1  0  0  0  0
  1  2  1  0  0  0  0
  2 12  1  0  0  0  0
  2  3  1  0  0  0  0
  3 15  1  0  0  0  0
  3 13  1  0  0  0  0
  4  5  1  0  0  0  0
  4  2  1  0  0  0  0
  5 18  1  6  0  0  0
  5  6  1  0  0  0  0
  5  7  1  0  0  0  0
  6 20  1  0  0  0  0
  7  8  2  0  0  0  0
  9  1  1  0  0  0  0
 10  1  1  0  0  0  0
 14  3  1  0  0  0  0
 16  4  1  0  0  0  0
 17  4  1  0  0  0  0
 19  6  1  0  0  0  0
 21 31  1  0  0  0  0
 21 29  1  0  0  0  0
 21 30  1  0  0  0  0
 22 21  1  0  0  0  0
 23 34  1  0  0  0  0
 23 35  1  0  0  0  0
 23 22  1  0  0  0  0
 24 22  1  0  0  0  0
 24 25  1  0  0  0  0
 24 36  1  0  0  0  0
 25 38  1  1  0  0  0
 26  7  1  0  0  0  0
 26 25  1  0  0  0  0
 27 25  1  0  0  0  0
 27 28  2  0  0  0  0
 32 22  1  0  0  0  0
 33 23  1  0  0  0  0
 37 24  1  0  0  0  0
 39 26  1  0  0  0  0
 40 27  1  0  0  0  0
 41 40  1  0  0  0  0
 41 45  1  0  0  0  0
 41 50  1  1  0  0  0
 42 41  1  0  0  0  0
 43 47  1  0  0  0  0
 43 42  1  0  0  0  0
 44 43  2  0  0  0  0
 45 46  1  0  0  0  0
 48 45  2  0  0  0  0
 49 40  1  0  0  0  0
 51 42  1  0  0  0  0
 52 42  1  0  0  0  0
 53 47  1  0  0  0  0
M  END
$$$$
