LLF.pdb
 OpenBabel07022418463D

 60 60  0  0  1  0  0  0  0  0999 V2000
    1.8620   -0.9990    4.5320 C   0  0  0  0  0  0  0  0  0  0  0  0
    1.0970    0.2960    4.2530 C   0  0  0  0  0  0  0  0  0  0  0  0
   -0.2960   -0.0570    3.8890 C   0  0  0  0  0  0  0  0  0  0  0  0
    1.8830    1.0570    3.2400 C   0  0  0  0  0  0  0  0  0  0  0  0
    1.2700    2.3740    2.8360 C   0  0  2  0  0  0  0  0  0  0  0  0
    1.1460    3.1820    4.0100 N   0  0  0  0  0  0  0  0  0  0  0  0
    0.0830    2.2840    1.9940 C   0  0  0  0  0  0  0  0  0  0  0  0
   -0.9910    2.8050    2.4280 O   0  0  0  0  0  0  0  0  0  0  0  0
    2.5140   -0.9170    5.4100 H   0  0  0  0  0  0  0  0  0  0  0  0
    2.4410   -1.3180    3.6280 H   0  0  0  0  0  0  0  0  0  0  0  0
    1.1510   -1.8430    4.7260 H   0  0  0  0  0  0  0  0  0  0  0  0
    1.1580    0.8720    5.2190 H   0  0  0  0  0  0  0  0  0  0  0  0
   -0.5380   -1.0930    4.2590 H   0  0  0  0  0  0  0  0  0  0  0  0
   -0.5670   -0.0360    2.8400 H   0  0  0  0  0  0  0  0  0  0  0  0
   -0.9790    0.6070    4.4950 H   0  0  0  0  0  0  0  0  0  0  0  0
    2.8700    1.2910    3.6950 H   0  0  0  0  0  0  0  0  0  0  0  0
    2.1090    0.4070    2.3610 H   0  0  0  0  0  0  0  0  0  0  0  0
    2.0620    2.8800    2.2040 H   0  0  0  0  0  0  0  0  0  0  0  0
    0.2580    3.0520    4.5360 H   0  0  0  0  0  0  0  0  0  0  0  0
    1.9640    2.9390    4.6400 H   0  0  0  0  0  0  0  0  0  0  0  0
    0.3950    0.5790   -2.8030 C   0  0  0  0  0  0  0  0  0  0  0  0
    0.3110    1.9760   -2.2780 C   0  0  0  0  0  0  0  0  0  0  0  0
    0.2280    2.8880   -3.5130 C   0  0  0  0  0  0  0  0  0  0  0  0
   -0.8390    2.2980   -1.4160 C   0  0  0  0  0  0  0  0  0  0  0  0
   -0.9830    1.5130   -0.1440 C   0  0  2  0  0  0  0  0  0  0  0  0
    0.1370    1.6390    0.7360 N   0  0  0  0  0  0  0  0  0  0  0  0
   -1.3630    0.1100   -0.4300 C   0  0  0  0  0  0  0  0  0  0  0  0
   -2.3500   -0.1630   -1.1730 O   0  0  0  0  0  0  0  0  0  0  0  0
   -0.5560    0.1730   -3.1940 H   0  0  0  0  0  0  0  0  0  0  0  0
    1.0930    0.5120   -3.6930 H   0  0  0  0  0  0  0  0  0  0  0  0
    0.8160   -0.1580   -2.0900 H   0  0  0  0  0  0  0  0  0  0  0  0
    1.3020    2.2080   -1.8350 H   0  0  0  0  0  0  0  0  0  0  0  0
   -0.4410    2.3490   -4.2280 H   0  0  0  0  0  0  0  0  0  0  0  0
   -0.2560    3.8380   -3.2760 H   0  0  0  0  0  0  0  0  0  0  0  0
    1.2090    2.9690   -3.9950 H   0  0  0  0  0  0  0  0  0  0  0  0
   -1.7740    2.1350   -2.0260 H   0  0  0  0  0  0  0  0  0  0  0  0
   -0.8690    3.3710   -1.1440 H   0  0  0  0  0  0  0  0  0  0  0  0
   -1.8660    1.9330    0.4380 H   0  0  0  0  0  0  0  0  0  0  0  0
    1.0470    1.2400    0.4500 H   0  0  0  0  0  0  0  0  0  0  0  0
   -0.6740   -1.0230    0.0890 N   0  0  0  0  0  0  0  0  0  0  0  0
   -1.0700   -2.3970   -0.2100 C   0  0  1  0  0  0  0  0  0  0  0  0
   -0.0230   -3.1400   -0.9590 C   0  0  0  0  0  0  0  0  0  0  0  0
   -0.4660   -4.5230   -1.2370 C   0  0  0  0  0  0  0  0  0  0  0  0
   -0.1860   -5.6060   -0.4100 C   0  0  0  0  0  0  0  0  0  0  0  0
   -0.6120   -6.8830   -0.6950 C   0  0  0  0  0  0  0  0  0  0  0  0
   -1.3430   -7.1410   -1.8270 C   0  0  0  0  0  0  0  0  0  0  0  0
   -1.6280   -6.0750   -2.6590 C   0  0  0  0  0  0  0  0  0  0  0  0
   -1.2110   -4.7910   -2.3910 C   0  0  0  0  0  0  0  0  0  0  0  0
   -1.5850   -3.0730    1.0030 C   0  0  0  0  0  0  0  0  0  0  0  0
   -1.5980   -2.4800    2.1360 O   0  0  0  0  0  0  0  0  0  0  0  0
   -2.0870   -4.3630    1.0410 O   0  0  0  0  0  0  0  0  0  0  0  0
    0.1460   -0.8240    0.7040 H   0  0  0  0  0  0  0  0  0  0  0  0
   -1.9600   -2.3090   -0.8920 H   0  0  0  0  0  0  0  0  0  0  0  0
    0.1570   -2.6840   -1.9790 H   0  0  0  0  0  0  0  0  0  0  0  0
    0.9800   -3.1090   -0.4820 H   0  0  0  0  0  0  0  0  0  0  0  0
    0.3790   -5.4410    0.4770 H   0  0  0  0  0  0  0  0  0  0  0  0
   -0.3750   -7.6870   -0.0320 H   0  0  0  0  0  0  0  0  0  0  0  0
   -1.6970   -8.1370   -2.0870 H   0  0  0  0  0  0  0  0  0  0  0  0
   -2.2160   -6.3140   -3.5590 H   0  0  0  0  0  0  0  0  0  0  0  0
   -1.4470   -3.9720   -3.0570 H   0  0  0  0  0  0  0  0  0  0  0  0
  1 11  1  0  0  0  0
  1  9  1  0  0  0  0
  2  1  1  0  0  0  0
  2 12  1  0  0  0  0
  3  2  1  0  0  0  0
  3 13  1  0  0  0  0
  3 15  1  0  0  0  0
  4 16  1  0  0  0  0
  4  2  1  0  0  0  0
  5 18  1  6  0  0  0
  5  4  1  0  0  0  0
  5  6  1  0  0  0  0
  6 19  1  0  0  0  0
  6 20  1  0  0  0  0
  7  8  2  0  0  0  0
  7  5  1  0  0  0  0
 10  1  1  0  0  0  0
 14  3  1  0  0  0  0
 17  4  1  0  0  0  0
 21 22  1  0  0  0  0
 21 31  1  0  0  0  0
 22 32  1  0  0  0  0
 22 24  1  0  0  0  0
 23 34  1  0  0  0  0
 23 22  1  0  0  0  0
 24 37  1  0  0  0  0
 24 25  1  0  0  0  0
 25 38  1  1  0  0  0
 25 26  1  0  0  0  0
 26  7  1  0  0  0  0
 27 25  1  0  0  0  0
 27 40  1  0  0  0  0
 28 27  2  0  0  0  0
 29 21  1  0  0  0  0
 30 21  1  0  0  0  0
 33 23  1  0  0  0  0
 35 23  1  0  0  0  0
 36 24  1  0  0  0  0
 39 26  1  0  0  0  0
 40 52  1  0  0  0  0
 41 53  1  6  0  0  0
 41 40  1  0  0  0  0
 41 49  1  0  0  0  0
 42 55  1  0  0  0  0
 42 41  1  0  0  0  0
 43 42  1  0  0  0  0
 43 44  1  0  0  0  0
 44 56  1  0  0  0  0
 45 44  2  0  0  0  0
 45 57  1  0  0  0  0
 46 45  1  0  0  0  0
 47 48  1  0  0  0  0
 47 46  2  0  0  0  0
 48 43  2  0  0  0  0
 49 51  2  0  0  0  0
 49 50  1  0  0  0  0
 54 42  1  0  0  0  0
 58 46  1  0  0  0  0
 59 47  1  0  0  0  0
 60 48  1  0  0  0  0
M  END
$$$$
