LLG.pdb
 OpenBabel07022418463D

 47 46  0  0  1  0  0  0  0  0999 V2000
   -1.4180   -2.6140    1.0370 C   0  0  0  0  0  0  0  0  0  0  0  0
   -1.5180   -2.9110   -0.4070 C   0  0  0  0  0  0  0  0  0  0  0  0
   -2.1000   -4.3140   -0.5750 C   0  0  0  0  0  0  0  0  0  0  0  0
   -0.3150   -2.8300   -1.2420 C   0  0  0  0  0  0  0  0  0  0  0  0
    0.4070   -1.5310   -1.4020 C   0  0  2  0  0  0  0  0  0  0  0  0
    1.5590   -1.8900   -2.3150 N   0  0  0  0  0  0  0  0  0  0  0  0
    0.9340   -1.0260   -0.1510 C   0  0  0  0  0  0  0  0  0  0  0  0
    1.9480   -1.5920    0.3890 O   0  0  0  0  0  0  0  0  0  0  0  0
   -2.2750   -1.9770    1.3430 H   0  0  0  0  0  0  0  0  0  0  0  0
   -1.6370   -3.5890    1.6070 H   0  0  0  0  0  0  0  0  0  0  0  0
   -0.4480   -2.3220    1.4320 H   0  0  0  0  0  0  0  0  0  0  0  0
   -2.3110   -2.2390   -0.8470 H   0  0  0  0  0  0  0  0  0  0  0  0
   -2.6150   -4.4320   -1.5290 H   0  0  0  0  0  0  0  0  0  0  0  0
   -1.2700   -5.0330   -0.4250 H   0  0  0  0  0  0  0  0  0  0  0  0
   -2.7950   -4.4560    0.2810 H   0  0  0  0  0  0  0  0  0  0  0  0
    0.4190   -3.6330   -0.9140 H   0  0  0  0  0  0  0  0  0  0  0  0
   -0.6250   -3.2060   -2.2770 H   0  0  0  0  0  0  0  0  0  0  0  0
   -0.1800   -0.8350   -1.9980 H   0  0  0  0  0  0  0  0  0  0  0  0
    1.9600   -2.7630   -1.8640 H   0  0  0  0  0  0  0  0  0  0  0  0
    1.0800   -2.2120   -3.1870 H   0  0  0  0  0  0  0  0  0  0  0  0
    3.9510    1.1920    0.9830 C   0  0  0  0  0  0  0  0  0  0  0  0
    2.7630    2.0950    0.8070 C   0  0  0  0  0  0  0  0  0  0  0  0
    2.2280    2.0680   -0.5960 C   0  0  0  0  0  0  0  0  0  0  0  0
    1.6830    1.8840    1.7870 C   0  0  0  0  0  0  0  0  0  0  0  0
    1.0580    0.5050    1.8330 C   0  0  2  0  0  0  0  0  0  0  0  0
    0.4410    0.1000    0.6010 N   0  0  0  0  0  0  0  0  0  0  0  0
    0.0170    0.6110    2.8790 C   0  0  0  0  0  0  0  0  0  0  0  0
    0.3120    0.8440    4.0940 O   0  0  0  0  0  0  0  0  0  0  0  0
    4.4070    1.0400   -0.0200 H   0  0  0  0  0  0  0  0  0  0  0  0
    4.7160    1.6840    1.6120 H   0  0  0  0  0  0  0  0  0  0  0  0
    3.6890    0.2290    1.4650 H   0  0  0  0  0  0  0  0  0  0  0  0
    3.1830    3.1470    0.9520 H   0  0  0  0  0  0  0  0  0  0  0  0
    2.6840    2.9180   -1.1590 H   0  0  0  0  0  0  0  0  0  0  0  0
    1.1400    2.2160   -0.6240 H   0  0  0  0  0  0  0  0  0  0  0  0
    2.5550    1.1280   -1.0950 H   0  0  0  0  0  0  0  0  0  0  0  0
    2.1160    2.0390    2.8150 H   0  0  0  0  0  0  0  0  0  0  0  0
    0.8530    2.6060    1.7160 H   0  0  0  0  0  0  0  0  0  0  0  0
    1.8060   -0.2480    2.1900 H   0  0  0  0  0  0  0  0  0  0  0  0
   -0.3710    0.6040    0.2140 H   0  0  0  0  0  0  0  0  0  0  0  0
   -1.3550    0.4580    2.5560 N   0  0  0  0  0  0  0  0  0  0  0  0
   -2.3760    0.5650    3.6140 C   0  0  0  0  0  0  0  0  0  0  0  0
   -3.7350    0.3830    3.0610 C   0  0  0  0  0  0  0  0  0  0  0  0
   -4.7720    0.4210    3.7710 O   0  0  0  0  0  0  0  0  0  0  0  0
   -3.9560    0.1540    1.6990 O   0  0  0  0  0  0  0  0  0  0  0  0
   -1.7240    0.2770    1.6020 H   0  0  0  0  0  0  0  0  0  0  0  0
   -2.3160    1.5440    4.1150 H   0  0  0  0  0  0  0  0  0  0  0  0
   -2.1830   -0.2340    4.3650 H   0  0  0  0  0  0  0  0  0  0  0  0
  1  9  1  0  0  0  0
  1 11  1  0  0  0  0
  1 10  1  0  0  0  0
  2  1  1  0  0  0  0
  3 14  1  0  0  0  0
  3  2  1  0  0  0  0
  3 15  1  0  0  0  0
  4 16  1  0  0  0  0
  4  2  1  0  0  0  0
  5 18  1  6  0  0  0
  5  4  1  0  0  0  0
  5  7  1  0  0  0  0
  6 19  1  0  0  0  0
  6  5  1  0  0  0  0
  7  8  2  0  0  0  0
  7 26  1  0  0  0  0
 12  2  1  0  0  0  0
 13  3  1  0  0  0  0
 17  4  1  0  0  0  0
 20  6  1  0  0  0  0
 21 31  1  0  0  0  0
 21 30  1  0  0  0  0
 22 32  1  0  0  0  0
 22 21  1  0  0  0  0
 22 24  1  0  0  0  0
 23 22  1  0  0  0  0
 24 25  1  0  0  0  0
 24 36  1  0  0  0  0
 25 38  1  1  0  0  0
 25 27  1  0  0  0  0
 26 25  1  0  0  0  0
 27 28  2  0  0  0  0
 29 21  1  0  0  0  0
 33 23  1  0  0  0  0
 34 23  1  0  0  0  0
 35 23  1  0  0  0  0
 37 24  1  0  0  0  0
 39 26  1  0  0  0  0
 40 27  1  0  0  0  0
 40 41  1  0  0  0  0
 41 46  1  0  0  0  0
 41 47  1  0  0  0  0
 42 41  1  0  0  0  0
 42 43  1  0  0  0  0
 44 42  2  0  0  0  0
 45 40  1  0  0  0  0
M  END
$$$$
