LLH.pdb
 OpenBabel07022418463D

 57 57  0  0  1  0  0  0  0  0999 V2000
    4.9030   -1.0970    3.7330 C   0  0  0  0  0  0  0  0  0  0  0  0
    3.6200   -1.2650    2.9430 C   0  0  0  0  0  0  0  0  0  0  0  0
    3.4660   -2.7030    2.6220 C   0  0  0  0  0  0  0  0  0  0  0  0
    2.4750   -0.6130    3.6360 C   0  0  0  0  0  0  0  0  0  0  0  0
    1.1540   -0.7050    2.9640 C   0  0  2  0  0  0  0  0  0  0  0  0
    0.6590   -2.0230    2.7480 N   0  0  0  0  0  0  0  0  0  0  0  0
    1.0750    0.1610    1.7500 C   0  0  0  0  0  0  0  0  0  0  0  0
    1.5010    1.3530    1.8050 O   0  0  0  0  0  0  0  0  0  0  0  0
    5.3160   -0.0900    3.5110 H   0  0  0  0  0  0  0  0  0  0  0  0
    4.6240   -1.1400    4.8060 H   0  0  0  0  0  0  0  0  0  0  0  0
    5.5910   -1.9070    3.4250 H   0  0  0  0  0  0  0  0  0  0  0  0
    3.7890   -0.7200    1.9800 H   0  0  0  0  0  0  0  0  0  0  0  0
    3.2940   -3.3520    3.5080 H   0  0  0  0  0  0  0  0  0  0  0  0
    4.4410   -3.0530    2.1990 H   0  0  0  0  0  0  0  0  0  0  0  0
    2.7110   -2.9350    1.8500 H   0  0  0  0  0  0  0  0  0  0  0  0
    2.6940    0.4690    3.7950 H   0  0  0  0  0  0  0  0  0  0  0  0
    2.4230   -1.0470    4.6610 H   0  0  0  0  0  0  0  0  0  0  0  0
    0.4100   -0.2320    3.6810 H   0  0  0  0  0  0  0  0  0  0  0  0
    0.5970   -2.4960    3.6780 H   0  0  0  0  0  0  0  0  0  0  0  0
   -0.3330   -1.9400    2.4130 H   0  0  0  0  0  0  0  0  0  0  0  0
    2.3710   -0.2820   -3.8750 C   0  0  0  0  0  0  0  0  0  0  0  0
    1.3860    0.6500   -3.0850 C   0  0  0  0  0  0  0  0  0  0  0  0
    0.1020    0.5440   -3.9090 C   0  0  0  0  0  0  0  0  0  0  0  0
    1.2690    0.0050   -1.7590 C   0  0  0  0  0  0  0  0  0  0  0  0
    0.4770    0.6090   -0.6770 C   0  0  2  0  0  0  0  0  0  0  0  0
    0.5430   -0.2780    0.5180 N   0  0  0  0  0  0  0  0  0  0  0  0
   -0.9150    0.9480   -0.9670 C   0  0  0  0  0  0  0  0  0  0  0  0
   -1.2950    1.8160   -1.7890 O   0  0  0  0  0  0  0  0  0  0  0  0
    3.4000    0.0140   -3.6180 H   0  0  0  0  0  0  0  0  0  0  0  0
    2.2260   -1.3280   -3.5380 H   0  0  0  0  0  0  0  0  0  0  0  0
    2.1370   -0.2440   -4.9490 H   0  0  0  0  0  0  0  0  0  0  0  0
    1.7390    1.6780   -3.1060 H   0  0  0  0  0  0  0  0  0  0  0  0
   -0.3120    1.5260   -4.1880 H   0  0  0  0  0  0  0  0  0  0  0  0
    0.3820   -0.0230   -4.8580 H   0  0  0  0  0  0  0  0  0  0  0  0
   -0.5960   -0.1470   -3.4080 H   0  0  0  0  0  0  0  0  0  0  0  0
    2.3020   -0.2880   -1.3860 H   0  0  0  0  0  0  0  0  0  0  0  0
    0.8320   -1.0360   -1.9770 H   0  0  0  0  0  0  0  0  0  0  0  0
    0.9710    1.5670   -0.3270 H   0  0  0  0  0  0  0  0  0  0  0  0
    0.1960   -1.2510    0.4660 H   0  0  0  0  0  0  0  0  0  0  0  0
   -1.9630    0.2500   -0.2740 N   0  0  0  0  0  0  0  0  0  0  0  0
   -3.3460    0.5170   -0.4940 C   0  0  1  0  0  0  0  0  0  0  0  0
   -4.1200   -0.6480   -0.9640 C   0  0  0  0  0  0  0  0  0  0  0  0
   -4.1960   -1.8120   -0.0940 C   0  0  0  0  0  0  0  0  0  0  0  0
   -3.7430   -2.1210    1.1550 C   0  0  0  0  0  0  0  0  0  0  0  0
   -4.1190   -3.3670    1.5150 N   0  0  0  0  0  0  0  0  0  0  0  0
   -4.8110   -3.8320    0.4780 C   0  0  0  0  0  0  0  0  0  0  0  0
   -4.8750   -2.9370   -0.4890 N   0  0  0  0  0  0  0  0  0  0  0  0
   -3.9930    1.0890    0.7140 C   0  0  0  0  0  0  0  0  0  0  0  0
   -5.2150    1.3750    0.6730 O   0  0  0  0  0  0  0  0  0  0  0  0
   -3.3180    1.3290    1.9010 O   0  0  0  0  0  0  0  0  0  0  0  0
   -1.6650   -0.4660    0.4020 H   0  0  0  0  0  0  0  0  0  0  0  0
   -3.4040    1.3130   -1.2710 H   0  0  0  0  0  0  0  0  0  0  0  0
   -3.8210   -0.9100   -2.0160 H   0  0  0  0  0  0  0  0  0  0  0  0
   -5.1900   -0.2900   -1.1000 H   0  0  0  0  0  0  0  0  0  0  0  0
   -3.1730   -1.4910    1.8060 H   0  0  0  0  0  0  0  0  0  0  0  0
   -3.9100   -3.8680    2.4220 H   0  0  0  0  0  0  0  0  0  0  0  0
   -5.2520   -4.8270    0.4660 H   0  0  0  0  0  0  0  0  0  0  0  0
  1 10  1  0  0  0  0
  2  4  1  0  0  0  0
  2  1  1  0  0  0  0
  3  2  1  0  0  0  0
  3 13  1  0  0  0  0
  4 16  1  0  0  0  0
  4 17  1  0  0  0  0
  5  4  1  0  0  0  0
  5 18  1  1  0  0  0
  6  5  1  0  0  0  0
  6 19  1  0  0  0  0
  7  8  2  0  0  0  0
  7  5  1  0  0  0  0
  9  1  1  0  0  0  0
 11  1  1  0  0  0  0
 12  2  1  0  0  0  0
 14  3  1  0  0  0  0
 15  3  1  0  0  0  0
 20  6  1  0  0  0  0
 21 29  1  0  0  0  0
 21 30  1  0  0  0  0
 21 22  1  0  0  0  0
 22 24  1  0  0  0  0
 23 35  1  0  0  0  0
 23 22  1  0  0  0  0
 24 36  1  0  0  0  0
 24 25  1  0  0  0  0
 25 38  1  1  0  0  0
 25 26  1  0  0  0  0
 26  7  1  0  0  0  0
 27 25  1  0  0  0  0
 27 40  1  0  0  0  0
 28 27  2  0  0  0  0
 31 21  1  0  0  0  0
 32 22  1  0  0  0  0
 33 23  1  0  0  0  0
 34 23  1  0  0  0  0
 37 24  1  0  0  0  0
 39 26  1  0  0  0  0
 40 51  1  0  0  0  0
 41 52  1  6  0  0  0
 41 40  1  0  0  0  0
 41 48  1  0  0  0  0
 42 41  1  0  0  0  0
 42 43  1  0  0  0  0
 43 44  2  0  0  0  0
 44 45  1  0  0  0  0
 44 55  1  0  0  0  0
 45 56  1  0  0  0  0
 46 45  1  0  0  0  0
 47 43  1  0  0  0  0
 47 46  2  0  0  0  0
 48 50  1  0  0  0  0
 49 48  2  0  0  0  0
 53 42  1  0  0  0  0
 54 42  1  0  0  0  0
 57 46  1  0  0  0  0
M  END
$$$$
