LLI.pdb
 OpenBabel07022418463D

 59 58  0  0  1  0  0  0  0  0999 V2000
    1.4770   -4.4140    2.4310 C   0  0  0  0  0  0  0  0  0  0  0  0
    1.7580   -3.0060    2.9300 C   0  0  0  0  0  0  0  0  0  0  0  0
    0.4830   -2.4010    3.3830 C   0  0  0  0  0  0  0  0  0  0  0  0
    2.4960   -2.2850    1.8500 C   0  0  0  0  0  0  0  0  0  0  0  0
    2.8390   -0.8580    2.2080 C   0  0  2  0  0  0  0  0  0  0  0  0
    3.6500   -0.8120    3.3770 N   0  0  0  0  0  0  0  0  0  0  0  0
    1.6620    0.0080    2.1980 C   0  0  0  0  0  0  0  0  0  0  0  0
    1.2580    0.6820    3.1730 O   0  0  0  0  0  0  0  0  0  0  0  0
    0.5430   -4.4400    1.8140 H   0  0  0  0  0  0  0  0  0  0  0  0
    2.3070   -4.7210    1.7590 H   0  0  0  0  0  0  0  0  0  0  0  0
    1.3840   -5.0840    3.2950 H   0  0  0  0  0  0  0  0  0  0  0  0
    2.4390   -3.1010    3.8090 H   0  0  0  0  0  0  0  0  0  0  0  0
    0.5850   -1.7450    4.2760 H   0  0  0  0  0  0  0  0  0  0  0  0
   -0.1080   -1.8640    2.6470 H   0  0  0  0  0  0  0  0  0  0  0  0
   -0.1780   -3.2440    3.7460 H   0  0  0  0  0  0  0  0  0  0  0  0
    1.9400   -2.3310    0.9100 H   0  0  0  0  0  0  0  0  0  0  0  0
    3.4590   -2.8140    1.6950 H   0  0  0  0  0  0  0  0  0  0  0  0
    3.4960   -0.4990    1.3580 H   0  0  0  0  0  0  0  0  0  0  0  0
    4.5830   -1.2160    3.1560 H   0  0  0  0  0  0  0  0  0  0  0  0
    3.2780   -1.2810    4.2080 H   0  0  0  0  0  0  0  0  0  0  0  0
    0.9060    3.5460    1.4990 C   0  0  0  0  0  0  0  0  0  0  0  0
    1.2370    2.8360    0.1990 C   0  0  0  0  0  0  0  0  0  0  0  0
    1.5500    3.8290   -0.8890 C   0  0  0  0  0  0  0  0  0  0  0  0
    0.0960    1.9740   -0.2210 C   0  0  0  0  0  0  0  0  0  0  0  0
   -0.2500    0.8930    0.8070 C   0  0  2  0  0  0  0  0  0  0  0  0
    0.9250    0.0790    0.9590 N   0  0  0  0  0  0  0  0  0  0  0  0
   -1.4210    0.1770    0.2500 C   0  0  0  0  0  0  0  0  0  0  0  0
   -2.4760    0.8350    0.1030 O   0  0  0  0  0  0  0  0  0  0  0  0
    1.0610    4.6570    1.3680 H   0  0  0  0  0  0  0  0  0  0  0  0
   -0.1480    3.3650    1.7880 H   0  0  0  0  0  0  0  0  0  0  0  0
    1.5940    3.2710    2.3230 H   0  0  0  0  0  0  0  0  0  0  0  0
    2.1710    2.2680    0.3890 H   0  0  0  0  0  0  0  0  0  0  0  0
    2.2590    3.3930   -1.6460 H   0  0  0  0  0  0  0  0  0  0  0  0
    1.9980    4.7550   -0.4980 H   0  0  0  0  0  0  0  0  0  0  0  0
    0.6290    4.0670   -1.4670 H   0  0  0  0  0  0  0  0  0  0  0  0
    0.3130    1.5270   -1.2080 H   0  0  0  0  0  0  0  0  0  0  0  0
   -0.8030    2.6180   -0.3130 H   0  0  0  0  0  0  0  0  0  0  0  0
   -0.5360    1.3680    1.7580 H   0  0  0  0  0  0  0  0  0  0  0  0
    1.2420   -0.4720    0.1330 H   0  0  0  0  0  0  0  0  0  0  0  0
   -2.7550   -0.4370   -3.2880 C   0  0  0  0  0  0  0  0  0  0  0  0
   -1.7200   -1.4590   -3.0050 C   0  0  0  0  0  0  0  0  0  0  0  0
   -2.1100   -2.4860   -1.9890 C   0  0  2  0  0  0  0  0  0  0  0  0
   -3.3380   -3.2200   -2.4880 C   0  0  0  0  0  0  0  0  0  0  0  0
   -2.4460   -1.9040   -0.6420 C   0  0  2  0  0  0  0  0  0  0  0  0
   -1.3130   -1.1870   -0.0900 N   0  0  0  0  0  0  0  0  0  0  0  0
   -2.7440   -3.0390    0.2630 C   0  0  0  0  0  0  0  0  0  0  0  0
   -2.0480   -3.2210    1.2870 O   0  0  0  0  0  0  0  0  0  0  0  0
   -3.7870   -3.9300    0.0140 O   0  0  0  0  0  0  0  0  0  0  0  0
   -3.5960   -0.8620   -3.9040 H   0  0  0  0  0  0  0  0  0  0  0  0
   -3.2180    0.0240   -2.4170 H   0  0  0  0  0  0  0  0  0  0  0  0
   -2.2760    0.3860   -3.8740 H   0  0  0  0  0  0  0  0  0  0  0  0
   -0.8050   -0.9290   -2.6200 H   0  0  0  0  0  0  0  0  0  0  0  0
   -1.4240   -1.9430   -3.9570 H   0  0  0  0  0  0  0  0  0  0  0  0
   -1.3060   -3.2360   -1.8530 H   0  0  0  0  0  0  0  0  0  0  0  0
   -4.2620   -2.7560   -2.0460 H   0  0  0  0  0  0  0  0  0  0  0  0
   -3.4070   -3.0890   -3.5960 H   0  0  0  0  0  0  0  0  0  0  0  0
   -3.2600   -4.2940   -2.2330 H   0  0  0  0  0  0  0  0  0  0  0  0
   -3.3400   -1.2510   -0.7320 H   0  0  0  0  0  0  0  0  0  0  0  0
   -0.4160   -1.6590    0.0620 H   0  0  0  0  0  0  0  0  0  0  0  0
  1  2  1  0  0  0  0
  1 11  1  0  0  0  0
  2  3  1  0  0  0  0
  2 12  1  0  0  0  0
  3 15  1  0  0  0  0
  3 13  1  0  0  0  0
  4  5  1  0  0  0  0
  4  2  1  0  0  0  0
  5 18  1  6  0  0  0
  5  6  1  0  0  0  0
  6 20  1  0  0  0  0
  7  5  1  0  0  0  0
  7  8  2  0  0  0  0
  9  1  1  0  0  0  0
 10  1  1  0  0  0  0
 14  3  1  0  0  0  0
 16  4  1  0  0  0  0
 17  4  1  0  0  0  0
 19  6  1  0  0  0  0
 21 30  1  0  0  0  0
 21 31  1  0  0  0  0
 22 32  1  0  0  0  0
 22 21  1  0  0  0  0
 23 34  1  0  0  0  0
 23 22  1  0  0  0  0
 24 22  1  0  0  0  0
 24 25  1  0  0  0  0
 25 26  1  0  0  0  0
 25 38  1  1  0  0  0
 26  7  1  0  0  0  0
 27 25  1  0  0  0  0
 28 27  2  0  0  0  0
 29 21  1  0  0  0  0
 33 23  1  0  0  0  0
 35 23  1  0  0  0  0
 36 24  1  0  0  0  0
 37 24  1  0  0  0  0
 39 26  1  0  0  0  0
 40 41  1  0  0  0  0
 40 50  1  0  0  0  0
 41 52  1  0  0  0  0
 41 42  1  0  0  0  0
 42 54  1  1  0  0  0
 42 44  1  0  0  0  0
 43 57  1  0  0  0  0
 43 55  1  0  0  0  0
 43 42  1  0  0  0  0
 44 58  1  6  0  0  0
 44 45  1  0  0  0  0
 44 46  1  0  0  0  0
 45 59  1  0  0  0  0
 45 27  1  0  0  0  0
 46 47  1  0  0  0  0
 48 46  2  0  0  0  0
 49 40  1  0  0  0  0
 51 40  1  0  0  0  0
 53 41  1  0  0  0  0
 56 43  1  0  0  0  0
M  END
$$$$
