LLM.pdb
 OpenBabel07022418463D

 57 56  0  0  1  0  0  0  0  0999 V2000
    2.3560   -4.4620    0.3540 C   0  0  0  0  0  0  0  0  0  0  0  0
    2.3390   -3.5130    1.5530 C   0  0  0  0  0  0  0  0  0  0  0  0
    0.9820   -3.5210    2.1390 C   0  0  0  0  0  0  0  0  0  0  0  0
    2.8610   -2.2050    1.0770 C   0  0  0  0  0  0  0  0  0  0  0  0
    2.9110   -1.1210    2.1400 C   0  0  2  0  0  0  0  0  0  0  0  0
    3.7560   -1.5120    3.2450 N   0  0  0  0  0  0  0  0  0  0  0  0
    1.5600   -0.6940    2.5620 C   0  0  0  0  0  0  0  0  0  0  0  0
    1.1220   -0.8780    3.7090 O   0  0  0  0  0  0  0  0  0  0  0  0
    1.4350   -4.4670   -0.2280 H   0  0  0  0  0  0  0  0  0  0  0  0
    3.2160   -4.2390   -0.3390 H   0  0  0  0  0  0  0  0  0  0  0  0
    2.5310   -5.5210    0.7210 H   0  0  0  0  0  0  0  0  0  0  0  0
    3.0230   -3.9930    2.3020 H   0  0  0  0  0  0  0  0  0  0  0  0
    0.4950   -4.5150    1.8720 H   0  0  0  0  0  0  0  0  0  0  0  0
    0.3310   -2.7500    1.7330 H   0  0  0  0  0  0  0  0  0  0  0  0
    0.9850   -3.5570    3.2710 H   0  0  0  0  0  0  0  0  0  0  0  0
    3.9020   -2.3280    0.7160 H   0  0  0  0  0  0  0  0  0  0  0  0
    2.2480   -1.8240    0.2410 H   0  0  0  0  0  0  0  0  0  0  0  0
    3.4030   -0.2490    1.6640 H   0  0  0  0  0  0  0  0  0  0  0  0
    3.6780   -2.5060    3.5180 H   0  0  0  0  0  0  0  0  0  0  0  0
    4.7640   -1.3550    3.0200 H   0  0  0  0  0  0  0  0  0  0  0  0
   -0.4750    4.2240    1.5480 C   0  0  0  0  0  0  0  0  0  0  0  0
   -0.2650    2.7850    1.1680 C   0  0  0  0  0  0  0  0  0  0  0  0
   -0.8190    2.5230   -0.1990 C   0  0  0  0  0  0  0  0  0  0  0  0
   -0.7420    1.8690    2.2350 C   0  0  0  0  0  0  0  0  0  0  0  0
   -0.6470    0.4080    1.9770 C   0  0  2  0  0  0  0  0  0  0  0  0
    0.6870   -0.0310    1.6500 N   0  0  0  0  0  0  0  0  0  0  0  0
   -1.6920   -0.1350    1.1270 C   0  0  0  0  0  0  0  0  0  0  0  0
   -2.8910    0.2530    1.3820 O   0  0  0  0  0  0  0  0  0  0  0  0
   -1.5630    4.4280    1.4750 H   0  0  0  0  0  0  0  0  0  0  0  0
   -0.0550    4.4940    2.5250 H   0  0  0  0  0  0  0  0  0  0  0  0
   -0.0060    4.8210    0.7130 H   0  0  0  0  0  0  0  0  0  0  0  0
    0.8760    2.6990    1.0600 H   0  0  0  0  0  0  0  0  0  0  0  0
   -0.4060    3.2700   -0.9460 H   0  0  0  0  0  0  0  0  0  0  0  0
   -1.9110    2.5730   -0.2850 H   0  0  0  0  0  0  0  0  0  0  0  0
   -0.5160    1.4670   -0.5010 H   0  0  0  0  0  0  0  0  0  0  0  0
   -0.1730    2.0590    3.2010 H   0  0  0  0  0  0  0  0  0  0  0  0
   -1.8040    2.1340    2.5220 H   0  0  0  0  0  0  0  0  0  0  0  0
   -0.8480   -0.0850    3.0720 H   0  0  0  0  0  0  0  0  0  0  0  0
    1.0410    0.1460    0.6890 H   0  0  0  0  0  0  0  0  0  0  0  0
   -0.1980    0.5790   -3.8710 C   0  0  0  0  0  0  0  0  0  0  0  0
   -1.7330    0.8940   -3.0220 S   0  0  0  0  0  0  0  0  0  0  0  0
   -2.9100   -0.3910   -2.9360 C   0  0  0  0  0  0  0  0  0  0  0  0
   -2.7070   -1.6130   -2.1510 C   0  0  0  0  0  0  0  0  0  0  0  0
   -2.5720   -1.6510   -0.7060 C   0  0  2  0  0  0  0  0  0  0  0  0
   -1.5510   -1.0620    0.0570 N   0  0  0  0  0  0  0  0  0  0  0  0
   -2.7460   -3.1240   -0.3130 C   0  0  0  0  0  0  0  0  0  0  0  0
   -3.5830   -3.8520   -0.8800 O   0  0  0  0  0  0  0  0  0  0  0  0
   -1.9760   -3.6960    0.6850 O   0  0  0  0  0  0  0  0  0  0  0  0
    0.1000    1.4790   -4.4910 H   0  0  0  0  0  0  0  0  0  0  0  0
    0.6740    0.4220   -3.1990 H   0  0  0  0  0  0  0  0  0  0  0  0
   -0.2380   -0.2570   -4.5830 H   0  0  0  0  0  0  0  0  0  0  0  0
   -3.1630   -0.7160   -4.0140 H   0  0  0  0  0  0  0  0  0  0  0  0
   -3.9030    0.0600   -2.5480 H   0  0  0  0  0  0  0  0  0  0  0  0
   -3.6390   -2.2740   -2.3810 H   0  0  0  0  0  0  0  0  0  0  0  0
   -1.9100   -2.3100   -2.6720 H   0  0  0  0  0  0  0  0  0  0  0  0
   -3.5550   -1.2100   -0.2810 H   0  0  0  0  0  0  0  0  0  0  0  0
   -0.5370   -1.3140   -0.1570 H   0  0  0  0  0  0  0  0  0  0  0  0
  1 11  1  0  0  0  0
  1  2  1  0  0  0  0
  2  3  1  0  0  0  0
  2 12  1  0  0  0  0
  3 15  1  0  0  0  0
  4  2  1  0  0  0  0
  4  5  1  0  0  0  0
  5 18  1  6  0  0  0
  5  7  1  0  0  0  0
  5  6  1  0  0  0  0
  6 19  1  0  0  0  0
  7  8  2  0  0  0  0
  9  1  1  0  0  0  0
 10  1  1  0  0  0  0
 13  3  1  0  0  0  0
 14  3  1  0  0  0  0
 16  4  1  0  0  0  0
 17  4  1  0  0  0  0
 20  6  1  0  0  0  0
 21 30  1  0  0  0  0
 22 21  1  0  0  0  0
 22 24  1  0  0  0  0
 23 22  1  0  0  0  0
 24 37  1  0  0  0  0
 24 36  1  0  0  0  0
 25 24  1  0  0  0  0
 25 38  1  1  0  0  0
 26 25  1  0  0  0  0
 26  7  1  0  0  0  0
 27 28  2  0  0  0  0
 27 25  1  0  0  0  0
 29 21  1  0  0  0  0
 31 21  1  0  0  0  0
 32 22  1  0  0  0  0
 33 23  1  0  0  0  0
 34 23  1  0  0  0  0
 35 23  1  0  0  0  0
 39 26  1  0  0  0  0
 40 50  1  0  0  0  0
 40 41  1  0  0  0  0
 41 42  1  0  0  0  0
 42 53  1  0  0  0  0
 42 43  1  0  0  0  0
 43 44  1  0  0  0  0
 44 46  1  0  0  0  0
 44 56  1  1  0  0  0
 44 45  1  0  0  0  0
 45 27  1  0  0  0  0
 46 48  1  0  0  0  0
 47 46  2  0  0  0  0
 49 40  1  0  0  0  0
 51 40  1  0  0  0  0
 52 42  1  0  0  0  0
 54 43  1  0  0  0  0
 55 43  1  0  0  0  0
 57 45  1  0  0  0  0
M  END
$$$$
