LLN.pdb
 OpenBabel07022418463D

 54 53  0  0  1  0  0  0  0  0999 V2000
    1.4920   -4.8290    0.6710 C   0  0  0  0  0  0  0  0  0  0  0  0
    1.6150   -3.7380    1.7550 C   0  0  0  0  0  0  0  0  0  0  0  0
    0.1950   -3.2840    1.9900 C   0  0  0  0  0  0  0  0  0  0  0  0
    2.5130   -2.6840    1.2170 C   0  0  0  0  0  0  0  0  0  0  0  0
    2.7980   -1.5250    2.1020 C   0  0  2  0  0  0  0  0  0  0  0  0
    3.4200   -1.9200    3.3500 N   0  0  0  0  0  0  0  0  0  0  0  0
    1.6770   -0.6160    2.3810 C   0  0  0  0  0  0  0  0  0  0  0  0
    1.4090   -0.3710    3.6050 O   0  0  0  0  0  0  0  0  0  0  0  0
    0.7460   -4.4680   -0.0730 H   0  0  0  0  0  0  0  0  0  0  0  0
    2.4430   -5.0010    0.1520 H   0  0  0  0  0  0  0  0  0  0  0  0
    1.0860   -5.7260    1.1680 H   0  0  0  0  0  0  0  0  0  0  0  0
    2.0430   -4.2110    2.6550 H   0  0  0  0  0  0  0  0  0  0  0  0
    0.0610   -2.5720    2.7980 H   0  0  0  0  0  0  0  0  0  0  0  0
   -0.2390   -3.0000    1.0090 H   0  0  0  0  0  0  0  0  0  0  0  0
   -0.3890   -4.2050    2.2760 H   0  0  0  0  0  0  0  0  0  0  0  0
    2.1080   -2.2920    0.2490 H   0  0  0  0  0  0  0  0  0  0  0  0
    3.4900   -3.1370    0.9440 H   0  0  0  0  0  0  0  0  0  0  0  0
    3.5860   -0.9160    1.5430 H   0  0  0  0  0  0  0  0  0  0  0  0
    3.9810   -2.7950    3.2410 H   0  0  0  0  0  0  0  0  0  0  0  0
    2.6940   -2.1210    4.0820 H   0  0  0  0  0  0  0  0  0  0  0  0
    0.9480    4.2300    0.2360 C   0  0  0  0  0  0  0  0  0  0  0  0
    0.6160    2.7310    0.1580 C   0  0  0  0  0  0  0  0  0  0  0  0
   -0.4300    2.5570   -0.8940 C   0  0  0  0  0  0  0  0  0  0  0  0
    0.2140    2.3310    1.5340 C   0  0  0  0  0  0  0  0  0  0  0  0
   -0.1630    0.8610    1.6850 C   0  0  2  0  0  0  0  0  0  0  0  0
    0.8980   -0.0090    1.3410 N   0  0  0  0  0  0  0  0  0  0  0  0
   -1.4690    0.6060    1.0820 C   0  0  0  0  0  0  0  0  0  0  0  0
   -2.4030    1.4170    1.4070 O   0  0  0  0  0  0  0  0  0  0  0  0
   -0.0610    4.7290    0.2860 H   0  0  0  0  0  0  0  0  0  0  0  0
    1.4100    4.4050    1.2310 H   0  0  0  0  0  0  0  0  0  0  0  0
    1.5560    4.5780   -0.6020 H   0  0  0  0  0  0  0  0  0  0  0  0
    1.5490    2.2470   -0.2010 H   0  0  0  0  0  0  0  0  0  0  0  0
   -0.4700    1.5110   -1.2540 H   0  0  0  0  0  0  0  0  0  0  0  0
   -0.0860    3.1380   -1.8020 H   0  0  0  0  0  0  0  0  0  0  0  0
   -1.4070    2.9760   -0.6240 H   0  0  0  0  0  0  0  0  0  0  0  0
   -0.6560    2.9750    1.8220 H   0  0  0  0  0  0  0  0  0  0  0  0
    1.0300    2.6050    2.2330 H   0  0  0  0  0  0  0  0  0  0  0  0
   -0.3250    0.7690    2.8060 H   0  0  0  0  0  0  0  0  0  0  0  0
    1.1920   -0.2730    0.3730 H   0  0  0  0  0  0  0  0  0  0  0  0
   -0.9310   -1.2050   -3.2240 N   0  0  0  0  0  0  0  0  0  0  0  0
   -2.0450   -1.4680   -2.3910 C   0  0  0  0  0  0  0  0  0  0  0  0
   -2.2620   -2.6800   -2.0430 O   0  0  0  0  0  0  0  0  0  0  0  0
   -2.9790   -0.4100   -1.8920 C   0  0  0  0  0  0  0  0  0  0  0  0
   -3.1540   -0.5850   -0.3700 C   0  0  2  0  0  0  0  0  0  0  0  0
   -1.8080   -0.4270    0.1860 N   0  0  0  0  0  0  0  0  0  0  0  0
   -3.6940   -1.9350   -0.1570 C   0  0  0  0  0  0  0  0  0  0  0  0
   -2.9960   -2.7860    0.4370 O   0  0  0  0  0  0  0  0  0  0  0  0
   -4.9530   -2.2950   -0.5940 O   0  0  0  0  0  0  0  0  0  0  0  0
   -0.8780   -0.3860   -3.8590 H   0  0  0  0  0  0  0  0  0  0  0  0
   -0.0860   -1.8310   -3.2410 H   0  0  0  0  0  0  0  0  0  0  0  0
   -3.9490   -0.6210   -2.3790 H   0  0  0  0  0  0  0  0  0  0  0  0
   -2.6100    0.5840   -2.1420 H   0  0  0  0  0  0  0  0  0  0  0  0
   -3.8280    0.1960    0.0210 H   0  0  0  0  0  0  0  0  0  0  0  0
   -1.0360   -1.0780   -0.0700 H   0  0  0  0  0  0  0  0  0  0  0  0
  1 11  1  0  0  0  0
  1  2  1  0  0  0  0
  2  3  1  0  0  0  0
  2 12  1  0  0  0  0
  3 15  1  0  0  0  0
  3 13  1  0  0  0  0
  4  2  1  0  0  0  0
  4  5  1  0  0  0  0
  5 18  1  6  0  0  0
  5  7  1  0  0  0  0
  5  6  1  0  0  0  0
  6 20  1  0  0  0  0
  7  8  2  0  0  0  0
  9  1  1  0  0  0  0
 10  1  1  0  0  0  0
 14  3  1  0  0  0  0
 16  4  1  0  0  0  0
 17  4  1  0  0  0  0
 19  6  1  0  0  0  0
 21 29  1  0  0  0  0
 21 30  1  0  0  0  0
 22 21  1  0  0  0  0
 22 24  1  0  0  0  0
 23 35  1  0  0  0  0
 23 22  1  0  0  0  0
 24 25  1  0  0  0  0
 24 36  1  0  0  0  0
 24 37  1  0  0  0  0
 25 38  1  1  0  0  0
 26 25  1  0  0  0  0
 26  7  1  0  0  0  0
 27 28  2  0  0  0  0
 27 25  1  0  0  0  0
 31 21  1  0  0  0  0
 32 22  1  0  0  0  0
 33 23  1  0  0  0  0
 34 23  1  0  0  0  0
 39 26  1  0  0  0  0
 40 41  1  0  0  0  0
 41 42  2  0  0  0  0
 41 43  1  0  0  0  0
 43 44  1  0  0  0  0
 44 46  1  0  0  0  0
 44 53  1  1  0  0  0
 44 45  1  0  0  0  0
 45 27  1  0  0  0  0
 46 47  1  0  0  0  0
 48 46  2  0  0  0  0
 49 40  1  0  0  0  0
 50 40  1  0  0  0  0
 51 43  1  0  0  0  0
 52 43  1  0  0  0  0
 54 45  1  0  0  0  0
M  END
$$$$
