LLP.pdb
 OpenBabel07022418463D

 54 54  0  0  1  0  0  0  0  0999 V2000
    2.4330   -4.8300    3.9030 C   0  0  0  0  0  0  0  0  0  0  0  0
    2.1890   -3.4620    4.5460 C   0  0  0  0  0  0  0  0  0  0  0  0
    1.6330   -3.7390    5.9240 C   0  0  0  0  0  0  0  0  0  0  0  0
    1.1490   -2.7740    3.6890 C   0  0  0  0  0  0  0  0  0  0  0  0
    1.6050   -2.5950    2.2730 C   0  0  2  0  0  0  0  0  0  0  0  0
    2.8040   -1.7950    2.2020 N   0  0  0  0  0  0  0  0  0  0  0  0
    0.4810   -1.9990    1.5090 C   0  0  0  0  0  0  0  0  0  0  0  0
   -0.5990   -2.6380    1.5250 O   0  0  0  0  0  0  0  0  0  0  0  0
    2.8000   -5.5580    4.6480 H   0  0  0  0  0  0  0  0  0  0  0  0
    1.4590   -5.2020    3.5100 H   0  0  0  0  0  0  0  0  0  0  0  0
    3.2050   -4.7460    3.1020 H   0  0  0  0  0  0  0  0  0  0  0  0
    3.1210   -2.8830    4.5850 H   0  0  0  0  0  0  0  0  0  0  0  0
    2.2820   -3.2560    6.6850 H   0  0  0  0  0  0  0  0  0  0  0  0
    0.6340   -3.2580    6.0030 H   0  0  0  0  0  0  0  0  0  0  0  0
    1.4790   -4.8110    6.1260 H   0  0  0  0  0  0  0  0  0  0  0  0
    0.9350   -1.8000    4.1730 H   0  0  0  0  0  0  0  0  0  0  0  0
    0.1970   -3.3390    3.6860 H   0  0  0  0  0  0  0  0  0  0  0  0
    1.8470   -3.5780    1.8250 H   0  0  0  0  0  0  0  0  0  0  0  0
    2.6880   -0.8310    2.5680 H   0  0  0  0  0  0  0  0  0  0  0  0
    3.2380   -1.8500    1.2740 H   0  0  0  0  0  0  0  0  0  0  0  0
    0.8930    2.0580    1.5830 C   0  0  0  0  0  0  0  0  0  0  0  0
   -0.3670    2.1520    0.7770 C   0  0  0  0  0  0  0  0  0  0  0  0
   -0.1490    2.8840   -0.5330 C   0  0  0  0  0  0  0  0  0  0  0  0
   -1.1900    0.9280    0.6800 C   0  0  0  0  0  0  0  0  0  0  0  0
   -0.6150   -0.2980    0.0690 C   0  0  2  0  0  0  0  0  0  0  0  0
    0.5610   -0.7790    0.7800 N   0  0  0  0  0  0  0  0  0  0  0  0
   -0.2620   -0.0490   -1.3450 C   0  0  0  0  0  0  0  0  0  0  0  0
    0.9780    0.0030   -1.6930 O   0  0  0  0  0  0  0  0  0  0  0  0
    0.8540    1.3000    2.3760 H   0  0  0  0  0  0  0  0  0  0  0  0
    1.0750    3.0270    2.1630 H   0  0  0  0  0  0  0  0  0  0  0  0
    1.7910    2.0080    0.9260 H   0  0  0  0  0  0  0  0  0  0  0  0
   -1.0230    2.8790    1.3690 H   0  0  0  0  0  0  0  0  0  0  0  0
   -0.1970    4.0030   -0.3840 H   0  0  0  0  0  0  0  0  0  0  0  0
    0.8040    2.6470   -1.0240 H   0  0  0  0  0  0  0  0  0  0  0  0
   -0.9560    2.6760   -1.2650 H   0  0  0  0  0  0  0  0  0  0  0  0
   -2.1680    1.2240    0.2650 H   0  0  0  0  0  0  0  0  0  0  0  0
   -1.4610    0.6780    1.7690 H   0  0  0  0  0  0  0  0  0  0  0  0
   -1.3750   -1.0920    0.1030 H   0  0  0  0  0  0  0  0  0  0  0  0
    1.4710   -0.3110    0.7920 H   0  0  0  0  0  0  0  0  0  0  0  0
   -1.1710    0.1470   -2.4140 N   0  0  0  0  0  0  0  0  0  0  0  0
   -0.8180    0.4710   -3.8080 C   0  0  0  0  0  0  0  0  0  0  0  0
   -1.8400    1.5280   -4.1480 C   0  0  0  0  0  0  0  0  0  0  0  0
   -3.0290    1.2680   -3.2670 C   0  0  0  0  0  0  0  0  0  0  0  0
   -2.6120    0.0420   -2.4580 C   0  0  1  0  0  0  0  0  0  0  0  0
   -3.0560   -1.2090   -3.1680 C   0  0  0  0  0  0  0  0  0  0  0  0
   -2.2200   -2.0380   -3.5650 O   0  0  0  0  0  0  0  0  0  0  0  0
   -4.3970   -1.4410   -3.3820 O   0  0  0  0  0  0  0  0  0  0  0  0
    0.2170    0.8690   -3.8570 H   0  0  0  0  0  0  0  0  0  0  0  0
   -0.8980   -0.4040   -4.4670 H   0  0  0  0  0  0  0  0  0  0  0  0
   -1.3720    2.5150   -3.9230 H   0  0  0  0  0  0  0  0  0  0  0  0
   -2.1640    1.4700   -5.2080 H   0  0  0  0  0  0  0  0  0  0  0  0
   -3.9530    1.0590   -3.8530 H   0  0  0  0  0  0  0  0  0  0  0  0
   -3.1820    2.0880   -2.5340 H   0  0  0  0  0  0  0  0  0  0  0  0
   -3.0160    0.0580   -1.4500 H   0  0  0  0  0  0  0  0  0  0  0  0
  1  2  1  0  0  0  0
  1  9  1  0  0  0  0
  2 12  1  0  0  0  0
  2  3  1  0  0  0  0
  3 14  1  0  0  0  0
  3 15  1  0  0  0  0
  3 13  1  0  0  0  0
  4 16  1  0  0  0  0
  4  2  1  0  0  0  0
  5 18  1  6  0  0  0
  5  4  1  0  0  0  0
  6  5  1  0  0  0  0
  6 19  1  0  0  0  0
  7  8  2  0  0  0  0
  7  5  1  0  0  0  0
 10  1  1  0  0  0  0
 11  1  1  0  0  0  0
 17  4  1  0  0  0  0
 20  6  1  0  0  0  0
 21 30  1  0  0  0  0
 21 29  1  0  0  0  0
 22 32  1  0  0  0  0
 22 21  1  0  0  0  0
 23 33  1  0  0  0  0
 23 22  1  0  0  0  0
 24 22  1  0  0  0  0
 24 37  1  0  0  0  0
 25 38  1  1  0  0  0
 25 24  1  0  0  0  0
 25 26  1  0  0  0  0
 26 39  1  0  0  0  0
 26  7  1  0  0  0  0
 27 25  1  0  0  0  0
 28 27  2  0  0  0  0
 31 21  1  0  0  0  0
 34 23  1  0  0  0  0
 35 23  1  0  0  0  0
 36 24  1  0  0  0  0
 40 27  1  0  0  0  0
 41 40  1  0  0  0  0
 42 50  1  0  0  0  0
 42 41  1  0  0  0  0
 42 43  1  0  0  0  0
 43 53  1  0  0  0  0
 43 44  1  0  0  0  0
 44 40  1  0  0  0  0
 44 54  1  1  0  0  0
 45 44  1  0  0  0  0
 46 45  2  0  0  0  0
 47 45  1  0  0  0  0
 48 41  1  0  0  0  0
 49 41  1  0  0  0  0
 51 42  1  0  0  0  0
 52 43  1  0  0  0  0
M  END
$$$$
