LLR.pdb
 OpenBabel07022418463D

 63 62  0  0  1  0  0  0  0  0999 V2000
    4.4150    2.6280    3.8090 C   0  0  0  0  0  0  0  0  0  0  0  0
    3.3190    1.6210    3.5030 C   0  0  0  0  0  0  0  0  0  0  0  0
    3.4640    0.5330    4.5470 C   0  0  0  0  0  0  0  0  0  0  0  0
    2.0150    2.3530    3.6000 C   0  0  0  0  0  0  0  0  0  0  0  0
    0.8040    1.5120    3.3290 C   0  0  2  0  0  0  0  0  0  0  0  0
    0.6940    0.3970    4.2640 N   0  0  0  0  0  0  0  0  0  0  0  0
    0.6890    1.0190    1.9550 C   0  0  0  0  0  0  0  0  0  0  0  0
    0.7190    1.8380    0.9790 O   0  0  0  0  0  0  0  0  0  0  0  0
    4.0350    3.3850    4.5250 H   0  0  0  0  0  0  0  0  0  0  0  0
    5.2660    2.1160    4.3090 H   0  0  0  0  0  0  0  0  0  0  0  0
    4.8150    3.0910    2.8820 H   0  0  0  0  0  0  0  0  0  0  0  0
    3.5420    1.2500    2.4830 H   0  0  0  0  0  0  0  0  0  0  0  0
    3.1480    0.9230    5.5200 H   0  0  0  0  0  0  0  0  0  0  0  0
    4.5450    0.2960    4.6230 H   0  0  0  0  0  0  0  0  0  0  0  0
    2.9650   -0.4060    4.2540 H   0  0  0  0  0  0  0  0  0  0  0  0
    2.0260    3.1970    2.9120 H   0  0  0  0  0  0  0  0  0  0  0  0
    1.9250    2.7340    4.6350 H   0  0  0  0  0  0  0  0  0  0  0  0
   -0.0750    2.1650    3.5570 H   0  0  0  0  0  0  0  0  0  0  0  0
   -0.1920   -0.1150    4.0700 H   0  0  0  0  0  0  0  0  0  0  0  0
    0.6650    0.7900    5.2540 H   0  0  0  0  0  0  0  0  0  0  0  0
    2.7890   -3.8320   -0.2530 C   0  0  0  0  0  0  0  0  0  0  0  0
    1.6810   -3.0980    0.5220 C   0  0  0  0  0  0  0  0  0  0  0  0
    2.0760   -3.0550    1.9400 C   0  0  0  0  0  0  0  0  0  0  0  0
    1.4350   -1.8260   -0.1850 C   0  0  0  0  0  0  0  0  0  0  0  0
    0.4210   -0.8900    0.3120 C   0  0  2  0  0  0  0  0  0  0  0  0
    0.5410   -0.3450    1.6050 N   0  0  0  0  0  0  0  0  0  0  0  0
   -0.9250   -1.5180    0.1910 C   0  0  0  0  0  0  0  0  0  0  0  0
   -1.7220   -1.5220    1.1870 O   0  0  0  0  0  0  0  0  0  0  0  0
    2.3890   -4.4180   -1.0790 H   0  0  0  0  0  0  0  0  0  0  0  0
    3.3950   -4.4550    0.4060 H   0  0  0  0  0  0  0  0  0  0  0  0
    3.4890   -3.0770   -0.7130 H   0  0  0  0  0  0  0  0  0  0  0  0
    0.7990   -3.8030    0.4410 H   0  0  0  0  0  0  0  0  0  0  0  0
    1.2550   -3.2750    2.6600 H   0  0  0  0  0  0  0  0  0  0  0  0
    2.6160   -2.1580    2.2740 H   0  0  0  0  0  0  0  0  0  0  0  0
    2.7980   -3.9010    2.1190 H   0  0  0  0  0  0  0  0  0  0  0  0
    1.1300   -2.0910   -1.2290 H   0  0  0  0  0  0  0  0  0  0  0  0
    2.4210   -1.2940   -0.3670 H   0  0  0  0  0  0  0  0  0  0  0  0
    0.4020   -0.0280   -0.4150 H   0  0  0  0  0  0  0  0  0  0  0  0
    0.5140   -1.0270    2.3960 H   0  0  0  0  0  0  0  0  0  0  0  0
   -4.9670    2.6220   -4.1040 N   0  0  0  0  0  0  0  0  0  0  0  0
   -3.9770    1.6120   -4.1350 C   0  0  0  0  0  0  0  0  0  0  0  0
   -3.7070    0.9230   -5.2130 N   0  0  0  0  0  0  0  0  0  0  0  0
   -3.2060    1.2870   -2.9610 N   0  0  0  0  0  0  0  0  0  0  0  0
   -2.7830   -0.0860   -2.7250 C   0  0  0  0  0  0  0  0  0  0  0  0
   -3.9300   -0.9840   -2.4270 C   0  0  0  0  0  0  0  0  0  0  0  0
   -3.5860   -2.4180   -2.1770 C   0  0  0  0  0  0  0  0  0  0  0  0
   -2.7240   -2.7220   -1.0180 C   0  0  2  0  0  0  0  0  0  0  0  0
   -1.4110   -2.1390   -0.9960 N   0  0  0  0  0  0  0  0  0  0  0  0
   -2.6340   -4.2220   -0.8950 C   0  0  0  0  0  0  0  0  0  0  0  0
   -1.5240   -4.7860   -0.7940 O   0  0  0  0  0  0  0  0  0  0  0  0
   -3.7740   -5.0040   -0.8910 O   0  0  0  0  0  0  0  0  0  0  0  0
   -5.9320    2.4080   -4.3630 H   0  0  0  0  0  0  0  0  0  0  0  0
   -4.7010    3.5780   -3.8160 H   0  0  0  0  0  0  0  0  0  0  0  0
   -4.1850    1.0560   -6.1130 H   0  0  0  0  0  0  0  0  0  0  0  0
   -2.9730    2.0660   -2.3060 H   0  0  0  0  0  0  0  0  0  0  0  0
   -2.0710   -0.0420   -1.8890 H   0  0  0  0  0  0  0  0  0  0  0  0
   -2.2370   -0.4960   -3.6030 H   0  0  0  0  0  0  0  0  0  0  0  0
   -4.4660   -0.6350   -1.4880 H   0  0  0  0  0  0  0  0  0  0  0  0
   -4.7210   -0.9370   -3.2110 H   0  0  0  0  0  0  0  0  0  0  0  0
   -4.5630   -2.9640   -2.0840 H   0  0  0  0  0  0  0  0  0  0  0  0
   -3.1120   -2.8940   -3.0770 H   0  0  0  0  0  0  0  0  0  0  0  0
   -3.2750   -2.4310   -0.0740 H   0  0  0  0  0  0  0  0  0  0  0  0
   -0.8010   -2.1590   -1.8330 H   0  0  0  0  0  0  0  0  0  0  0  0
  1 10  1  0  0  0  0
  1  9  1  0  0  0  0
  2  4  1  0  0  0  0
  2  1  1  0  0  0  0
  2  3  1  0  0  0  0
  3 14  1  0  0  0  0
  3 13  1  0  0  0  0
  4 17  1  0  0  0  0
  5 18  1  1  0  0  0
  5  4  1  0  0  0  0
  5  6  1  0  0  0  0
  6 20  1  0  0  0  0
  7  5  1  0  0  0  0
  8  7  2  0  0  0  0
 11  1  1  0  0  0  0
 12  2  1  0  0  0  0
 15  3  1  0  0  0  0
 16  4  1  0  0  0  0
 19  6  1  0  0  0  0
 21 30  1  0  0  0  0
 21 22  1  0  0  0  0
 22 23  1  0  0  0  0
 23 35  1  0  0  0  0
 23 34  1  0  0  0  0
 23 33  1  0  0  0  0
 24 25  1  0  0  0  0
 24 22  1  0  0  0  0
 25 38  1  6  0  0  0
 25 26  1  0  0  0  0
 26  7  1  0  0  0  0
 26 39  1  0  0  0  0
 27 25  1  0  0  0  0
 27 28  2  0  0  0  0
 29 21  1  0  0  0  0
 31 21  1  0  0  0  0
 32 22  1  0  0  0  0
 36 24  1  0  0  0  0
 37 24  1  0  0  0  0
 40 53  1  0  0  0  0
 41 40  1  0  0  0  0
 41 43  1  0  0  0  0
 42 41  2  0  0  0  0
 43 44  1  0  0  0  0
 43 55  1  0  0  0  0
 44 45  1  0  0  0  0
 44 56  1  0  0  0  0
 45 46  1  0  0  0  0
 45 58  1  0  0  0  0
 46 60  1  0  0  0  0
 46 47  1  0  0  0  0
 47 48  1  0  0  0  0
 47 49  1  0  0  0  0
 47 62  1  1  0  0  0
 48 27  1  0  0  0  0
 49 51  2  0  0  0  0
 49 50  1  0  0  0  0
 52 40  1  0  0  0  0
 54 42  1  0  0  0  0
 57 44  1  0  0  0  0
 59 45  1  0  0  0  0
 61 46  1  0  0  0  0
 63 48  1  0  0  0  0
M  END
$$$$
