LLT.pdb
 OpenBabel07022418463D

 54 53  0  0  1  0  0  0  0  0999 V2000
    1.9260   -4.2620   -0.6760 C   0  0  0  0  0  0  0  0  0  0  0  0
    2.0280   -3.5810    0.6910 C   0  0  0  0  0  0  0  0  0  0  0  0
    0.6640   -3.5900    1.3230 C   0  0  0  0  0  0  0  0  0  0  0  0
    2.6150   -2.2260    0.4990 C   0  0  0  0  0  0  0  0  0  0  0  0
    2.7790   -1.4200    1.7610 C   0  0  2  0  0  0  0  0  0  0  0  0
    3.6230   -2.0750    2.7220 N   0  0  0  0  0  0  0  0  0  0  0  0
    1.5040   -0.9140    2.3210 C   0  0  0  0  0  0  0  0  0  0  0  0
    1.1190   -1.1550    3.5040 O   0  0  0  0  0  0  0  0  0  0  0  0
    0.8890   -4.2340   -1.0680 H   0  0  0  0  0  0  0  0  0  0  0  0
    2.2390   -5.3160   -0.6360 H   0  0  0  0  0  0  0  0  0  0  0  0
    2.5760   -3.7220   -1.4200 H   0  0  0  0  0  0  0  0  0  0  0  0
    2.7550   -4.2090    1.2600 H   0  0  0  0  0  0  0  0  0  0  0  0
    0.6990   -3.6410    2.4240 H   0  0  0  0  0  0  0  0  0  0  0  0
    0.0940   -2.7540    0.9090 H   0  0  0  0  0  0  0  0  0  0  0  0
    0.0820   -4.5110    1.0180 H   0  0  0  0  0  0  0  0  0  0  0  0
    1.9220   -1.6650   -0.1910 H   0  0  0  0  0  0  0  0  0  0  0  0
    3.5840   -2.3210   -0.0230 H   0  0  0  0  0  0  0  0  0  0  0  0
    3.3670   -0.5030    1.4390 H   0  0  0  0  0  0  0  0  0  0  0  0
    4.4140   -1.4870    3.0650 H   0  0  0  0  0  0  0  0  0  0  0  0
    4.0340   -2.9660    2.3700 H   0  0  0  0  0  0  0  0  0  0  0  0
   -0.3700    4.2160    1.9740 C   0  0  0  0  0  0  0  0  0  0  0  0
   -0.3120    2.8130    1.3430 C   0  0  0  0  0  0  0  0  0  0  0  0
    1.0070    2.6800    0.6690 C   0  0  0  0  0  0  0  0  0  0  0  0
   -0.6030    1.8590    2.4370 C   0  0  0  0  0  0  0  0  0  0  0  0
   -0.6140    0.3960    2.0670 C   0  0  2  0  0  0  0  0  0  0  0  0
    0.6130   -0.1010    1.5430 N   0  0  0  0  0  0  0  0  0  0  0  0
   -1.8070    0.0730    1.2450 C   0  0  0  0  0  0  0  0  0  0  0  0
   -2.9530    0.4660    1.6480 O   0  0  0  0  0  0  0  0  0  0  0  0
   -0.7910    4.9500    1.2390 H   0  0  0  0  0  0  0  0  0  0  0  0
   -0.9620    4.2040    2.9120 H   0  0  0  0  0  0  0  0  0  0  0  0
    0.6460    4.5690    2.2410 H   0  0  0  0  0  0  0  0  0  0  0  0
   -1.1240    2.8010    0.5910 H   0  0  0  0  0  0  0  0  0  0  0  0
    0.9430    2.2700   -0.3630 H   0  0  0  0  0  0  0  0  0  0  0  0
    1.7850    2.1930    1.2860 H   0  0  0  0  0  0  0  0  0  0  0  0
    1.4160    3.7230    0.5000 H   0  0  0  0  0  0  0  0  0  0  0  0
   -1.6020    2.0940    2.8460 H   0  0  0  0  0  0  0  0  0  0  0  0
    0.1080    1.9990    3.2940 H   0  0  0  0  0  0  0  0  0  0  0  0
   -0.7840   -0.1220    3.0650 H   0  0  0  0  0  0  0  0  0  0  0  0
    0.9230    0.0910    0.5700 H   0  0  0  0  0  0  0  0  0  0  0  0
   -1.7690   -0.8180   -2.9240 C   0  0  0  0  0  0  0  0  0  0  0  0
   -2.9270   -0.3010   -2.1110 C   0  0  1  0  0  0  0  0  0  0  0  0
   -4.0980   -0.6260   -2.7940 O   0  0  0  0  0  0  0  0  0  0  0  0
   -2.9850   -0.9300   -0.7390 C   0  0  2  0  0  0  0  0  0  0  0  0
   -1.7980   -0.6370    0.0380 N   0  0  0  0  0  0  0  0  0  0  0  0
   -3.2320   -2.3860   -0.8600 C   0  0  0  0  0  0  0  0  0  0  0  0
   -4.1930   -2.8920   -1.4840 O   0  0  0  0  0  0  0  0  0  0  0  0
   -2.3390   -3.2440   -0.2430 O   0  0  0  0  0  0  0  0  0  0  0  0
   -1.8950   -0.4680   -3.9700 H   0  0  0  0  0  0  0  0  0  0  0  0
   -0.7950   -0.3950   -2.5800 H   0  0  0  0  0  0  0  0  0  0  0  0
   -1.7260   -1.9160   -2.9630 H   0  0  0  0  0  0  0  0  0  0  0  0
   -2.8620    0.7930   -2.0510 H   0  0  0  0  0  0  0  0  0  0  0  0
   -4.8350   -0.0750   -2.4160 H   0  0  0  0  0  0  0  0  0  0  0  0
   -3.9040   -0.5000   -0.2440 H   0  0  0  0  0  0  0  0  0  0  0  0
   -0.9010   -0.9750   -0.3320 H   0  0  0  0  0  0  0  0  0  0  0  0
  1 10  1  0  0  0  0
  1  2  1  0  0  0  0
  2 12  1  0  0  0  0
  2  3  1  0  0  0  0
  3 13  1  0  0  0  0
  4  2  1  0  0  0  0
  4  5  1  0  0  0  0
  5 18  1  6  0  0  0
  5  7  1  0  0  0  0
  5  6  1  0  0  0  0
  6 19  1  0  0  0  0
  7  8  2  0  0  0  0
  9  1  1  0  0  0  0
 11  1  1  0  0  0  0
 14  3  1  0  0  0  0
 15  3  1  0  0  0  0
 16  4  1  0  0  0  0
 17  4  1  0  0  0  0
 20  6  1  0  0  0  0
 21 31  1  0  0  0  0
 21 30  1  0  0  0  0
 22 21  1  0  0  0  0
 22 24  1  0  0  0  0
 23 34  1  0  0  0  0
 23 22  1  0  0  0  0
 24 36  1  0  0  0  0
 24 37  1  0  0  0  0
 25 24  1  0  0  0  0
 25 38  1  1  0  0  0
 26 25  1  0  0  0  0
 26  7  1  0  0  0  0
 27 28  2  0  0  0  0
 27 25  1  0  0  0  0
 29 21  1  0  0  0  0
 32 22  1  0  0  0  0
 33 23  1  0  0  0  0
 35 23  1  0  0  0  0
 39 26  1  0  0  0  0
 40 49  1  0  0  0  0
 40 41  1  0  0  0  0
 41 51  1  1  0  0  0
 41 43  1  0  0  0  0
 42 52  1  0  0  0  0
 42 41  1  0  0  0  0
 43 53  1  1  0  0  0
 43 44  1  0  0  0  0
 44 27  1  0  0  0  0
 45 43  1  0  0  0  0
 45 47  1  0  0  0  0
 46 45  2  0  0  0  0
 48 40  1  0  0  0  0
 50 40  1  0  0  0  0
 54 44  1  0  0  0  0
M  END
$$$$
