LLW.pdb
 OpenBabel07022418463D

 64 65  0  0  1  0  0  0  0  0999 V2000
    2.7230    0.2400    5.0760 C   0  0  0  0  0  0  0  0  0  0  0  0
    3.6400    0.7020    3.9490 C   0  0  0  0  0  0  0  0  0  0  0  0
    4.7340   -0.3170    3.8250 C   0  0  0  0  0  0  0  0  0  0  0  0
    2.8030    0.8600    2.7280 C   0  0  0  0  0  0  0  0  0  0  0  0
    3.5860    1.3160    1.5230 C   0  0  2  0  0  0  0  0  0  0  0  0
    4.1820    2.5930    1.8280 N   0  0  0  0  0  0  0  0  0  0  0  0
    2.7410    1.3870    0.3150 C   0  0  0  0  0  0  0  0  0  0  0  0
    2.6450    2.4930   -0.2730 O   0  0  0  0  0  0  0  0  0  0  0  0
    1.7480   -0.1240    4.6820 H   0  0  0  0  0  0  0  0  0  0  0  0
    3.1640   -0.6010    5.6480 H   0  0  0  0  0  0  0  0  0  0  0  0
    2.5280    1.0570    5.7930 H   0  0  0  0  0  0  0  0  0  0  0  0
    4.1040    1.6520    4.2940 H   0  0  0  0  0  0  0  0  0  0  0  0
    5.5210   -0.0380    3.0960 H   0  0  0  0  0  0  0  0  0  0  0  0
    4.3000   -1.3130    3.6280 H   0  0  0  0  0  0  0  0  0  0  0  0
    5.2380   -0.3790    4.8120 H   0  0  0  0  0  0  0  0  0  0  0  0
    2.2320   -0.0690    2.5550 H   0  0  0  0  0  0  0  0  0  0  0  0
    2.0510    1.6530    2.9340 H   0  0  0  0  0  0  0  0  0  0  0  0
    4.3830    0.5690    1.3180 H   0  0  0  0  0  0  0  0  0  0  0  0
    4.2770    3.2280    1.0240 H   0  0  0  0  0  0  0  0  0  0  0  0
    5.0740    2.4900    2.3630 H   0  0  0  0  0  0  0  0  0  0  0  0
   -0.2160   -1.0680   -4.0950 C   0  0  0  0  0  0  0  0  0  0  0  0
    1.1360   -0.5940   -3.8210 C   0  0  0  0  0  0  0  0  0  0  0  0
    2.1000   -1.4230   -4.7150 C   0  0  0  0  0  0  0  0  0  0  0  0
    1.7030   -0.4620   -2.5000 C   0  0  0  0  0  0  0  0  0  0  0  0
    1.1880    0.4210   -1.4530 C   0  0  2  0  0  0  0  0  0  0  0  0
    2.0320    0.3000   -0.2280 N   0  0  0  0  0  0  0  0  0  0  0  0
   -0.1870    0.1980   -1.0220 C   0  0  0  0  0  0  0  0  0  0  0  0
   -1.1560    0.3530   -1.8080 O   0  0  0  0  0  0  0  0  0  0  0  0
   -0.9980   -0.3320   -4.3580 H   0  0  0  0  0  0  0  0  0  0  0  0
   -0.2190   -1.7400   -5.0320 H   0  0  0  0  0  0  0  0  0  0  0  0
   -0.6580   -1.7530   -3.3420 H   0  0  0  0  0  0  0  0  0  0  0  0
    1.2330    0.4340   -4.3270 H   0  0  0  0  0  0  0  0  0  0  0  0
    1.8420   -1.2320   -5.7850 H   0  0  0  0  0  0  0  0  0  0  0  0
    1.9710   -2.4920   -4.5400 H   0  0  0  0  0  0  0  0  0  0  0  0
    3.1400   -1.1490   -4.5190 H   0  0  0  0  0  0  0  0  0  0  0  0
    2.8320   -0.2560   -2.5600 H   0  0  0  0  0  0  0  0  0  0  0  0
    1.7270   -1.5160   -2.0390 H   0  0  0  0  0  0  0  0  0  0  0  0
    1.3680    1.4930   -1.7720 H   0  0  0  0  0  0  0  0  0  0  0  0
    2.1170   -0.6190    0.2550 H   0  0  0  0  0  0  0  0  0  0  0  0
   -0.5230   -0.2110    0.3250 N   0  0  0  0  0  0  0  0  0  0  0  0
   -1.9000   -0.4100    0.6660 C   0  0  1  0  0  0  0  0  0  0  0  0
   -2.1020   -1.8680    1.0230 C   0  0  0  0  0  0  0  0  0  0  0  0
   -3.5150   -2.1500    1.3880 C   0  0  0  0  0  0  0  0  0  0  0  0
   -4.0630   -2.3470    2.6360 C   0  0  0  0  0  0  0  0  0  0  0  0
   -5.3730   -2.5670    2.4680 N   0  0  0  0  0  0  0  0  0  0  0  0
   -5.6870   -2.5190    1.1530 C   0  0  0  0  0  0  0  0  0  0  0  0
   -6.8980   -2.6810    0.4700 C   0  0  0  0  0  0  0  0  0  0  0  0
   -6.9190   -2.5760   -0.9050 C   0  0  0  0  0  0  0  0  0  0  0  0
   -5.7450   -2.3110   -1.6030 C   0  0  0  0  0  0  0  0  0  0  0  0
   -4.5760   -2.1560   -0.9210 C   0  0  0  0  0  0  0  0  0  0  0  0
   -4.5180   -2.2560    0.4720 C   0  0  0  0  0  0  0  0  0  0  0  0
   -2.3380    0.4230    1.7970 C   0  0  0  0  0  0  0  0  0  0  0  0
   -1.5480    1.2170    2.3710 O   0  0  0  0  0  0  0  0  0  0  0  0
   -3.6380    0.3610    2.2700 O   0  0  0  0  0  0  0  0  0  0  0  0
    0.2730   -0.3360    0.9780 H   0  0  0  0  0  0  0  0  0  0  0  0
   -2.5440   -0.2050   -0.1970 H   0  0  0  0  0  0  0  0  0  0  0  0
   -1.4910   -2.0590    1.9320 H   0  0  0  0  0  0  0  0  0  0  0  0
   -1.7690   -2.5600    0.2510 H   0  0  0  0  0  0  0  0  0  0  0  0
   -3.4880   -2.3180    3.5640 H   0  0  0  0  0  0  0  0  0  0  0  0
   -6.0440   -2.7490    3.2480 H   0  0  0  0  0  0  0  0  0  0  0  0
   -7.7960   -2.8860    1.0250 H   0  0  0  0  0  0  0  0  0  0  0  0
   -7.8590   -2.7020   -1.4280 H   0  0  0  0  0  0  0  0  0  0  0  0
   -5.7640   -2.2290   -2.6870 H   0  0  0  0  0  0  0  0  0  0  0  0
   -3.6440   -1.9510   -1.4190 H   0  0  0  0  0  0  0  0  0  0  0  0
  1 10  1  0  0  0  0
  1 11  1  0  0  0  0
  2 12  1  0  0  0  0
  2  1  1  0  0  0  0
  3  2  1  0  0  0  0
  3 15  1  0  0  0  0
  4 17  1  0  0  0  0
  4  2  1  0  0  0  0
  5 18  1  6  0  0  0
  5  6  1  0  0  0  0
  5  4  1  0  0  0  0
  6 20  1  0  0  0  0
  7  5  1  0  0  0  0
  8  7  2  0  0  0  0
  9  1  1  0  0  0  0
 13  3  1  0  0  0  0
 14  3  1  0  0  0  0
 16  4  1  0  0  0  0
 19  6  1  0  0  0  0
 21 22  1  0  0  0  0
 21 31  1  0  0  0  0
 22 24  1  0  0  0  0
 23 34  1  0  0  0  0
 23 35  1  0  0  0  0
 23 22  1  0  0  0  0
 24 37  1  0  0  0  0
 24 25  1  0  0  0  0
 25 38  1  6  0  0  0
 25 27  1  0  0  0  0
 25 26  1  0  0  0  0
 26 39  1  0  0  0  0
 26  7  1  0  0  0  0
 27 40  1  0  0  0  0
 28 27  2  0  0  0  0
 29 21  1  0  0  0  0
 30 21  1  0  0  0  0
 32 22  1  0  0  0  0
 33 23  1  0  0  0  0
 36 24  1  0  0  0  0
 40 41  1  0  0  0  0
 40 55  1  0  0  0  0
 41 56  1  6  0  0  0
 41 42  1  0  0  0  0
 41 52  1  0  0  0  0
 42 43  1  0  0  0  0
 42 57  1  0  0  0  0
 43 44  2  0  0  0  0
 44 59  1  0  0  0  0
 45 44  1  0  0  0  0
 45 60  1  0  0  0  0
 46 45  1  0  0  0  0
 47 61  1  0  0  0  0
 47 46  2  0  0  0  0
 48 47  1  0  0  0  0
 49 50  1  0  0  0  0
 49 48  2  0  0  0  0
 50 51  2  0  0  0  0
 51 46  1  0  0  0  0
 51 43  1  0  0  0  0
 52 54  2  0  0  0  0
 52 53  1  0  0  0  0
 58 42  1  0  0  0  0
 62 48  1  0  0  0  0
 63 49  1  0  0  0  0
 64 50  1  0  0  0  0
M  END
$$$$
