LMC.pdb
 OpenBabel07022418463D

 49 48  0  0  1  0  0  0  0  0999 V2000
   -0.2740   -2.8720    3.8000 C   0  0  0  0  0  0  0  0  0  0  0  0
    0.3990   -1.5020    3.5810 C   0  0  0  0  0  0  0  0  0  0  0  0
   -0.6800   -0.5780    3.1440 C   0  0  0  0  0  0  0  0  0  0  0  0
    1.5190   -1.7310    2.6480 C   0  0  0  0  0  0  0  0  0  0  0  0
    2.3650   -0.5940    2.2520 C   0  0  2  0  0  0  0  0  0  0  0  0
    3.0250    0.0700    3.3580 N   0  0  0  0  0  0  0  0  0  0  0  0
    1.7360    0.3480    1.3130 C   0  0  0  0  0  0  0  0  0  0  0  0
    1.7670    1.6140    1.5350 O   0  0  0  0  0  0  0  0  0  0  0  0
    0.2020   -3.4060    4.6360 H   0  0  0  0  0  0  0  0  0  0  0  0
   -1.3680   -2.7560    3.9410 H   0  0  0  0  0  0  0  0  0  0  0  0
   -0.1430   -3.5100    2.8990 H   0  0  0  0  0  0  0  0  0  0  0  0
    0.7580   -1.1980    4.5910 H   0  0  0  0  0  0  0  0  0  0  0  0
   -1.5440   -1.1540    2.6920 H   0  0  0  0  0  0  0  0  0  0  0  0
   -0.3920    0.2830    2.5480 H   0  0  0  0  0  0  0  0  0  0  0  0
   -1.1520   -0.1460    4.0790 H   0  0  0  0  0  0  0  0  0  0  0  0
    1.0920   -2.1840    1.7200 H   0  0  0  0  0  0  0  0  0  0  0  0
    2.1400   -2.5640    3.0950 H   0  0  0  0  0  0  0  0  0  0  0  0
    3.2370   -1.0450    1.6660 H   0  0  0  0  0  0  0  0  0  0  0  0
    3.7010    0.7590    2.9250 H   0  0  0  0  0  0  0  0  0  0  0  0
    3.6330   -0.6630    3.8130 H   0  0  0  0  0  0  0  0  0  0  0  0
    3.7660   -1.4140   -1.6890 C   0  0  0  0  0  0  0  0  0  0  0  0
    3.6010    0.2220   -0.9790 S   0  0  0  0  0  0  0  0  0  0  0  0
    2.6250    1.3400   -1.9680 C   0  0  0  0  0  0  0  0  0  0  0  0
    1.1850    1.0020   -2.1040 C   0  0  0  0  0  0  0  0  0  0  0  0
    0.4710    0.9870   -0.7700 C   0  0  2  0  0  0  0  0  0  0  0  0
    1.0590    0.0000    0.1120 N   0  0  0  0  0  0  0  0  0  0  0  0
   -0.9700    0.7900   -0.9260 C   0  0  0  0  0  0  0  0  0  0  0  0
   -1.5600    1.6040   -1.7200 O   0  0  0  0  0  0  0  0  0  0  0  0
    4.6570   -1.4850   -2.3560 H   0  0  0  0  0  0  0  0  0  0  0  0
    3.9580   -2.1290   -0.8600 H   0  0  0  0  0  0  0  0  0  0  0  0
    2.8440   -1.7710   -2.1920 H   0  0  0  0  0  0  0  0  0  0  0  0
    2.6840    2.3520   -1.4670 H   0  0  0  0  0  0  0  0  0  0  0  0
    3.0480    1.4640   -2.9960 H   0  0  0  0  0  0  0  0  0  0  0  0
    1.0740    0.0350   -2.6410 H   0  0  0  0  0  0  0  0  0  0  0  0
    0.6360    1.7630   -2.7220 H   0  0  0  0  0  0  0  0  0  0  0  0
    0.6520    2.0290   -0.3570 H   0  0  0  0  0  0  0  0  0  0  0  0
    1.0010   -1.0140   -0.1130 H   0  0  0  0  0  0  0  0  0  0  0  0
   -1.7750   -0.1900   -0.3040 N   0  0  0  0  0  0  0  0  0  0  0  0
   -3.2150   -0.2740   -0.5630 C   0  0  1  0  0  0  0  0  0  0  0  0
   -3.6100   -1.6470   -1.0480 C   0  0  0  0  0  0  0  0  0  0  0  0
   -2.7830   -2.1080   -2.5710 S   0  0  0  0  0  0  0  0  0  0  0  0
   -4.0130    0.0910    0.6430 C   0  0  0  0  0  0  0  0  0  0  0  0
   -3.5120    0.4510    1.7340 O   0  0  0  0  0  0  0  0  0  0  0  0
   -5.4070    0.0430    0.6030 O   0  0  0  0  0  0  0  0  0  0  0  0
   -1.3030   -0.8460    0.3370 H   0  0  0  0  0  0  0  0  0  0  0  0
   -3.4690    0.4490   -1.3920 H   0  0  0  0  0  0  0  0  0  0  0  0
   -3.3740   -2.3430   -0.2010 H   0  0  0  0  0  0  0  0  0  0  0  0
   -4.7010   -1.7100   -1.2260 H   0  0  0  0  0  0  0  0  0  0  0  0
   -2.6870   -3.5030   -2.7300 H   0  0  0  0  0  0  0  0  0  0  0  0
  1 10  1  0  0  0  0
  1  9  1  0  0  0  0
  2  1  1  0  0  0  0
  2 12  1  0  0  0  0
  3  2  1  0  0  0  0
  3 15  1  0  0  0  0
  4 17  1  0  0  0  0
  4  2  1  0  0  0  0
  5 18  1  6  0  0  0
  5  4  1  0  0  0  0
  5  6  1  0  0  0  0
  6 20  1  0  0  0  0
  7  8  2  0  0  0  0
  7  5  1  0  0  0  0
 11  1  1  0  0  0  0
 13  3  1  0  0  0  0
 14  3  1  0  0  0  0
 16  4  1  0  0  0  0
 19  6  1  0  0  0  0
 21 22  1  0  0  0  0
 21 30  1  0  0  0  0
 23 32  1  0  0  0  0
 23 22  1  0  0  0  0
 24 23  1  0  0  0  0
 24 25  1  0  0  0  0
 25 36  1  1  0  0  0
 25 26  1  0  0  0  0
 26  7  1  0  0  0  0
 27 25  1  0  0  0  0
 27 38  1  0  0  0  0
 28 27  2  0  0  0  0
 29 21  1  0  0  0  0
 31 21  1  0  0  0  0
 33 23  1  0  0  0  0
 34 24  1  0  0  0  0
 35 24  1  0  0  0  0
 37 26  1  0  0  0  0
 38 45  1  0  0  0  0
 39 46  1  6  0  0  0
 39 38  1  0  0  0  0
 39 42  1  0  0  0  0
 40 39  1  0  0  0  0
 40 47  1  0  0  0  0
 41 40  1  0  0  0  0
 42 43  1  0  0  0  0
 44 42  2  0  0  0  0
 48 40  1  0  0  0  0
 49 41  1  0  0  0  0
M  END
$$$$
