LMD.pdb
 OpenBabel07022418463D

 51 50  0  0  1  0  0  0  0  0999 V2000
    0.2370   -4.5530    2.2290 C   0  0  0  0  0  0  0  0  0  0  0  0
    0.2750   -3.2030    2.9420 C   0  0  0  0  0  0  0  0  0  0  0  0
   -1.0330   -2.5110    2.8120 C   0  0  0  0  0  0  0  0  0  0  0  0
    1.4690   -2.4760    2.4380 C   0  0  0  0  0  0  0  0  0  0  0  0
    1.6990   -1.1170    3.0080 C   0  0  2  0  0  0  0  0  0  0  0  0
    1.8420   -1.2450    4.4390 N   0  0  0  0  0  0  0  0  0  0  0  0
    0.6970   -0.1120    2.6670 C   0  0  0  0  0  0  0  0  0  0  0  0
   -0.0040    0.4480    3.5390 O   0  0  0  0  0  0  0  0  0  0  0  0
   -0.7990   -4.8520    2.0070 H   0  0  0  0  0  0  0  0  0  0  0  0
    0.8010   -4.4860    1.2680 H   0  0  0  0  0  0  0  0  0  0  0  0
    0.7280   -5.3170    2.8580 H   0  0  0  0  0  0  0  0  0  0  0  0
    0.4410   -3.3940    4.0320 H   0  0  0  0  0  0  0  0  0  0  0  0
   -1.1590   -1.8650    1.9370 H   0  0  0  0  0  0  0  0  0  0  0  0
   -1.8420   -3.2770    2.7440 H   0  0  0  0  0  0  0  0  0  0  0  0
   -1.2780   -1.9640    3.7700 H   0  0  0  0  0  0  0  0  0  0  0  0
    1.5200   -2.4310    1.3230 H   0  0  0  0  0  0  0  0  0  0  0  0
    2.3660   -3.0960    2.7330 H   0  0  0  0  0  0  0  0  0  0  0  0
    2.6960   -0.7390    2.6230 H   0  0  0  0  0  0  0  0  0  0  0  0
    2.8090   -1.5790    4.6990 H   0  0  0  0  0  0  0  0  0  0  0  0
    1.6600   -0.3540    4.9470 H   0  0  0  0  0  0  0  0  0  0  0  0
    3.0300    4.3280   -0.5180 C   0  0  0  0  0  0  0  0  0  0  0  0
    1.7390    3.6370   -1.5400 S   0  0  0  0  0  0  0  0  0  0  0  0
    0.9290    2.2070   -0.8180 C   0  0  0  0  0  0  0  0  0  0  0  0
    0.1470    2.5430    0.4240 C   0  0  0  0  0  0  0  0  0  0  0  0
   -0.5120    1.2690    0.9700 C   0  0  2  0  0  0  0  0  0  0  0  0
    0.4700    0.2840    1.2990 N   0  0  0  0  0  0  0  0  0  0  0  0
   -1.4790    0.7850   -0.0150 C   0  0  0  0  0  0  0  0  0  0  0  0
   -2.4360    1.5290   -0.4120 O   0  0  0  0  0  0  0  0  0  0  0  0
    3.3850    5.2640   -0.9960 H   0  0  0  0  0  0  0  0  0  0  0  0
    3.9460    3.6710   -0.4600 H   0  0  0  0  0  0  0  0  0  0  0  0
    2.7120    4.6060    0.5040 H   0  0  0  0  0  0  0  0  0  0  0  0
    1.6180    1.3690   -0.6160 H   0  0  0  0  0  0  0  0  0  0  0  0
    0.1940    1.8290   -1.5730 H   0  0  0  0  0  0  0  0  0  0  0  0
    0.7590    2.9440    1.2380 H   0  0  0  0  0  0  0  0  0  0  0  0
   -0.6550    3.2760    0.2090 H   0  0  0  0  0  0  0  0  0  0  0  0
   -1.0690    1.5400    1.9040 H   0  0  0  0  0  0  0  0  0  0  0  0
    1.0430   -0.1740    0.5720 H   0  0  0  0  0  0  0  0  0  0  0  0
   -1.4120   -0.5180   -0.5780 N   0  0  0  0  0  0  0  0  0  0  0  0
   -2.3720   -0.9660   -1.5430 C   0  0  1  0  0  0  0  0  0  0  0  0
   -1.7270   -1.1820   -2.8870 C   0  0  0  0  0  0  0  0  0  0  0  0
   -0.6580   -2.1740   -2.9110 C   0  0  0  0  0  0  0  0  0  0  0  0
   -0.2910   -2.8130   -1.9190 O   0  0  0  0  0  0  0  0  0  0  0  0
   -3.1740   -2.1220   -1.0970 C   0  0  0  0  0  0  0  0  0  0  0  0
   -4.0520   -2.6130   -1.8550 O   0  0  0  0  0  0  0  0  0  0  0  0
   -0.0190   -2.4110   -4.1200 O   0  0  0  0  0  0  0  0  0  0  0  0
   -3.0340   -2.7370    0.1390 O   0  0  0  0  0  0  0  0  0  0  0  0
   -0.6520   -1.1860   -0.2990 H   0  0  0  0  0  0  0  0  0  0  0  0
   -3.1030   -0.1250   -1.7060 H   0  0  0  0  0  0  0  0  0  0  0  0
   -2.4720   -1.3970   -3.6790 H   0  0  0  0  0  0  0  0  0  0  0  0
   -1.2840   -0.1830   -3.1760 H   0  0  0  0  0  0  0  0  0  0  0  0
    0.5730   -3.2410   -4.1960 H   0  0  0  0  0  0  0  0  0  0  0  0
  1 11  1  0  0  0  0
  1  2  1  0  0  0  0
  2 12  1  0  0  0  0
  3  2  1  0  0  0  0
  3 15  1  0  0  0  0
  4 17  1  0  0  0  0
  4  2  1  0  0  0  0
  4  5  1  0  0  0  0
  5 18  1  6  0  0  0
  5  6  1  0  0  0  0
  6 19  1  0  0  0  0
  6 20  1  0  0  0  0
  7  5  1  0  0  0  0
  7  8  2  0  0  0  0
  9  1  1  0  0  0  0
 10  1  1  0  0  0  0
 13  3  1  0  0  0  0
 14  3  1  0  0  0  0
 16  4  1  0  0  0  0
 21 30  1  0  0  0  0
 21 31  1  0  0  0  0
 22 23  1  0  0  0  0
 22 21  1  0  0  0  0
 23 32  1  0  0  0  0
 23 24  1  0  0  0  0
 24 25  1  0  0  0  0
 24 34  1  0  0  0  0
 25 26  1  0  0  0  0
 25 36  1  1  0  0  0
 26  7  1  0  0  0  0
 27 25  1  0  0  0  0
 28 27  2  0  0  0  0
 29 21  1  0  0  0  0
 33 23  1  0  0  0  0
 35 24  1  0  0  0  0
 37 26  1  0  0  0  0
 38 47  1  0  0  0  0
 38 27  1  0  0  0  0
 39 48  1  6  0  0  0
 39 43  1  0  0  0  0
 39 38  1  0  0  0  0
 40 39  1  0  0  0  0
 41 40  1  0  0  0  0
 41 42  2  0  0  0  0
 43 46  1  0  0  0  0
 44 43  2  0  0  0  0
 45 41  1  0  0  0  0
 49 40  1  0  0  0  0
 50 40  1  0  0  0  0
 51 45  1  0  0  0  0
M  END
$$$$
