LME.pdb
 OpenBabel07022418463D

 54 53  0  0  1  0  0  0  0  0999 V2000
    0.5470   -3.3140    4.8970 C   0  0  0  0  0  0  0  0  0  0  0  0
    0.1370   -1.9740    4.2690 C   0  0  0  0  0  0  0  0  0  0  0  0
   -0.2950   -2.2810    2.8770 C   0  0  0  0  0  0  0  0  0  0  0  0
    1.2280   -0.9650    4.4010 C   0  0  0  0  0  0  0  0  0  0  0  0
    0.9190    0.3860    3.8170 C   0  0  2  0  0  0  0  0  0  0  0  0
   -0.2380    1.0100    4.3970 N   0  0  0  0  0  0  0  0  0  0  0  0
    0.9970    0.4650    2.3450 C   0  0  0  0  0  0  0  0  0  0  0  0
    1.9760   -0.0480    1.7700 O   0  0  0  0  0  0  0  0  0  0  0  0
    1.0970   -3.8690    4.1180 H   0  0  0  0  0  0  0  0  0  0  0  0
    1.2210   -3.1320    5.7480 H   0  0  0  0  0  0  0  0  0  0  0  0
   -0.3730   -3.8750    5.1880 H   0  0  0  0  0  0  0  0  0  0  0  0
   -0.7660   -1.6620    4.8430 H   0  0  0  0  0  0  0  0  0  0  0  0
    0.5980   -2.3810    2.2050 H   0  0  0  0  0  0  0  0  0  0  0  0
   -1.0280   -1.5420    2.4880 H   0  0  0  0  0  0  0  0  0  0  0  0
   -0.8090   -3.2740    2.7940 H   0  0  0  0  0  0  0  0  0  0  0  0
    1.4470   -0.8790    5.5010 H   0  0  0  0  0  0  0  0  0  0  0  0
    2.1960   -1.3410    3.9800 H   0  0  0  0  0  0  0  0  0  0  0  0
    1.7850    1.0390    4.2100 H   0  0  0  0  0  0  0  0  0  0  0  0
   -1.1430    0.5940    4.0970 H   0  0  0  0  0  0  0  0  0  0  0  0
   -0.1020    1.0350    5.4190 H   0  0  0  0  0  0  0  0  0  0  0  0
    3.3840   -0.2260   -2.0610 C   0  0  0  0  0  0  0  0  0  0  0  0
    1.8610    0.5800   -2.6120 S   0  0  0  0  0  0  0  0  0  0  0  0
    1.5700    2.1370   -1.7450 C   0  0  0  0  0  0  0  0  0  0  0  0
    1.2970    1.9600   -0.3000 C   0  0  0  0  0  0  0  0  0  0  0  0
    0.0460    1.2330    0.0980 C   0  0  2  0  0  0  0  0  0  0  0  0
    0.0050    1.1040    1.5630 N   0  0  0  0  0  0  0  0  0  0  0  0
   -0.3300    0.0470   -0.6280 C   0  0  0  0  0  0  0  0  0  0  0  0
   -0.1800   -1.0750   -0.0810 O   0  0  0  0  0  0  0  0  0  0  0  0
    3.1080   -0.9930   -1.3110 H   0  0  0  0  0  0  0  0  0  0  0  0
    4.0750    0.4770   -1.5520 H   0  0  0  0  0  0  0  0  0  0  0  0
    3.8550   -0.7490   -2.9060 H   0  0  0  0  0  0  0  0  0  0  0  0
    2.4600    2.7700   -1.8680 H   0  0  0  0  0  0  0  0  0  0  0  0
    0.7120    2.6440   -2.2710 H   0  0  0  0  0  0  0  0  0  0  0  0
    1.2760    3.0180    0.1290 H   0  0  0  0  0  0  0  0  0  0  0  0
    2.2310    1.5510    0.1860 H   0  0  0  0  0  0  0  0  0  0  0  0
   -0.7720    2.0110   -0.1120 H   0  0  0  0  0  0  0  0  0  0  0  0
   -0.7940    1.4960    2.1090 H   0  0  0  0  0  0  0  0  0  0  0  0
   -0.8910    0.0010   -1.9510 N   0  0  0  0  0  0  0  0  0  0  0  0
   -1.2570   -1.2620   -2.5910 C   0  0  1  0  0  0  0  0  0  0  0  0
   -2.7760   -1.3610   -2.5170 C   0  0  0  0  0  0  0  0  0  0  0  0
   -3.3650   -1.3730   -1.1680 C   0  0  0  0  0  0  0  0  0  0  0  0
   -3.0000   -2.4950   -0.2900 C   0  0  0  0  0  0  0  0  0  0  0  0
   -3.4270   -2.5180    0.8790 O   0  0  0  0  0  0  0  0  0  0  0  0
   -0.9360   -1.2990   -4.0220 C   0  0  0  0  0  0  0  0  0  0  0  0
   -1.1390   -2.4170   -4.6120 O   0  0  0  0  0  0  0  0  0  0  0  0
   -2.1980   -3.5080   -0.7480 O   0  0  0  0  0  0  0  0  0  0  0  0
   -0.4520   -0.2160   -4.7040 O   0  0  0  0  0  0  0  0  0  0  0  0
   -1.0310    0.9190   -2.4170 H   0  0  0  0  0  0  0  0  0  0  0  0
   -0.8760   -2.1000   -2.0070 H   0  0  0  0  0  0  0  0  0  0  0  0
   -3.2510   -0.5500   -3.1020 H   0  0  0  0  0  0  0  0  0  0  0  0
   -3.0380   -2.3130   -3.0450 H   0  0  0  0  0  0  0  0  0  0  0  0
   -4.4910   -1.4480   -1.2840 H   0  0  0  0  0  0  0  0  0  0  0  0
   -3.2350   -0.4080   -0.6190 H   0  0  0  0  0  0  0  0  0  0  0  0
   -1.8760   -4.2160   -0.0720 H   0  0  0  0  0  0  0  0  0  0  0  0
  1 11  1  0  0  0  0
  1 10  1  0  0  0  0
  2  4  1  0  0  0  0
  2 12  1  0  0  0  0
  2  1  1  0  0  0  0
  3  2  1  0  0  0  0
  4 16  1  0  0  0  0
  5 18  1  1  0  0  0
  5  6  1  0  0  0  0
  5  4  1  0  0  0  0
  6 20  1  0  0  0  0
  7  5  1  0  0  0  0
  8  7  2  0  0  0  0
  9  1  1  0  0  0  0
 13  3  1  0  0  0  0
 14  3  1  0  0  0  0
 15  3  1  0  0  0  0
 17  4  1  0  0  0  0
 19  6  1  0  0  0  0
 21 30  1  0  0  0  0
 21 29  1  0  0  0  0
 22 21  1  0  0  0  0
 22 23  1  0  0  0  0
 23 24  1  0  0  0  0
 24 25  1  0  0  0  0
 24 34  1  0  0  0  0
 24 35  1  0  0  0  0
 25 36  1  6  0  0  0
 25 26  1  0  0  0  0
 26 37  1  0  0  0  0
 26  7  1  0  0  0  0
 27 28  2  0  0  0  0
 27 25  1  0  0  0  0
 31 21  1  0  0  0  0
 32 23  1  0  0  0  0
 33 23  1  0  0  0  0
 38 27  1  0  0  0  0
 39 40  1  0  0  0  0
 39 49  1  1  0  0  0
 39 38  1  0  0  0  0
 40 41  1  0  0  0  0
 41 53  1  0  0  0  0
 41 42  1  0  0  0  0
 42 43  2  0  0  0  0
 44 39  1  0  0  0  0
 45 44  1  0  0  0  0
 46 42  1  0  0  0  0
 46 54  1  0  0  0  0
 47 44  2  0  0  0  0
 48 38  1  0  0  0  0
 50 40  1  0  0  0  0
 51 40  1  0  0  0  0
 52 41  1  0  0  0  0
M  END
$$$$
