LMF.pdb
 OpenBabel07022418473D

 58 58  0  0  1  0  0  0  0  0999 V2000
    1.5880   -1.2470    6.6820 C   0  0  0  0  0  0  0  0  0  0  0  0
    1.1190    0.1490    6.2320 C   0  0  0  0  0  0  0  0  0  0  0  0
   -0.0630    0.5050    7.0350 C   0  0  0  0  0  0  0  0  0  0  0  0
    1.0230    0.1080    4.7730 C   0  0  0  0  0  0  0  0  0  0  0  0
    0.5990    1.2890    4.0170 C   0  0  2  0  0  0  0  0  0  0  0  0
   -0.6840    1.8350    4.2670 N   0  0  0  0  0  0  0  0  0  0  0  0
    0.6890    0.9860    2.5260 C   0  0  0  0  0  0  0  0  0  0  0  0
    1.7910    0.4770    2.1200 O   0  0  0  0  0  0  0  0  0  0  0  0
    1.5170   -1.3720    7.7590 H   0  0  0  0  0  0  0  0  0  0  0  0
    2.6030   -1.4550    6.2700 H   0  0  0  0  0  0  0  0  0  0  0  0
    0.9040   -1.9700    6.1950 H   0  0  0  0  0  0  0  0  0  0  0  0
    1.9720    0.8180    6.5240 H   0  0  0  0  0  0  0  0  0  0  0  0
   -1.0510    0.2720    6.6160 H   0  0  0  0  0  0  0  0  0  0  0  0
   -0.0280   -0.0670    8.0110 H   0  0  0  0  0  0  0  0  0  0  0  0
    0.0210    1.5740    7.3930 H   0  0  0  0  0  0  0  0  0  0  0  0
    0.3510   -0.7560    4.4930 H   0  0  0  0  0  0  0  0  0  0  0  0
    2.0310   -0.2300    4.3840 H   0  0  0  0  0  0  0  0  0  0  0  0
    1.3440    2.1260    4.1690 H   0  0  0  0  0  0  0  0  0  0  0  0
   -0.7840    2.2050    5.2420 H   0  0  0  0  0  0  0  0  0  0  0  0
   -0.8260    2.6980    3.6620 H   0  0  0  0  0  0  0  0  0  0  0  0
    0.6910   -0.0760   -3.7790 C   0  0  0  0  0  0  0  0  0  0  0  0
    1.8370    0.8160   -2.7490 S   0  0  0  0  0  0  0  0  0  0  0  0
    1.2120    2.0430   -1.6770 C   0  0  0  0  0  0  0  0  0  0  0  0
    0.7480    1.8040   -0.3540 C   0  0  0  0  0  0  0  0  0  0  0  0
   -0.2910    0.9520    0.1620 C   0  0  2  0  0  0  0  0  0  0  0  0
   -0.3630    1.2500    1.6700 N   0  0  0  0  0  0  0  0  0  0  0  0
   -0.2350   -0.5150    0.1120 C   0  0  0  0  0  0  0  0  0  0  0  0
    0.0850   -1.1420    1.2110 O   0  0  0  0  0  0  0  0  0  0  0  0
   -0.3400    0.3670   -3.6560 H   0  0  0  0  0  0  0  0  0  0  0  0
    0.7360   -1.1480   -3.6080 H   0  0  0  0  0  0  0  0  0  0  0  0
    0.9930    0.1420   -4.8660 H   0  0  0  0  0  0  0  0  0  0  0  0
    2.0550    2.8790   -1.6510 H   0  0  0  0  0  0  0  0  0  0  0  0
    0.4260    2.7120   -2.2730 H   0  0  0  0  0  0  0  0  0  0  0  0
    0.4350    2.8950    0.0490 H   0  0  0  0  0  0  0  0  0  0  0  0
    1.7060    1.7440    0.3350 H   0  0  0  0  0  0  0  0  0  0  0  0
   -1.2780    1.2500   -0.2410 H   0  0  0  0  0  0  0  0  0  0  0  0
   -1.2410    1.6540    1.9830 H   0  0  0  0  0  0  0  0  0  0  0  0
   -0.4850   -1.3990   -0.9470 N   0  0  0  0  0  0  0  0  0  0  0  0
   -0.3840   -2.8460   -0.8110 C   0  0  1  0  0  0  0  0  0  0  0  0
   -1.5030   -3.5300   -1.5010 C   0  0  0  0  0  0  0  0  0  0  0  0
   -1.5990   -3.2710   -2.9560 C   0  0  0  0  0  0  0  0  0  0  0  0
   -2.3720   -2.2200   -3.4220 C   0  0  0  0  0  0  0  0  0  0  0  0
   -2.4540   -1.9800   -4.7750 C   0  0  0  0  0  0  0  0  0  0  0  0
   -1.7960   -2.7450   -5.7060 C   0  0  0  0  0  0  0  0  0  0  0  0
   -1.0310   -3.7880   -5.2330 C   0  0  0  0  0  0  0  0  0  0  0  0
   -0.9400   -4.0370   -3.8950 C   0  0  0  0  0  0  0  0  0  0  0  0
    0.9090   -3.3930   -1.2830 C   0  0  0  0  0  0  0  0  0  0  0  0
    1.8250   -2.7010   -1.7260 O   0  0  0  0  0  0  0  0  0  0  0  0
    1.0690   -4.7680   -1.2110 O   0  0  0  0  0  0  0  0  0  0  0  0
   -0.7970   -1.0150   -1.8390 H   0  0  0  0  0  0  0  0  0  0  0  0
   -0.4390   -3.0780    0.3100 H   0  0  0  0  0  0  0  0  0  0  0  0
   -1.3850   -4.6430   -1.3810 H   0  0  0  0  0  0  0  0  0  0  0  0
   -2.5040   -3.3010   -1.0570 H   0  0  0  0  0  0  0  0  0  0  0  0
   -2.9200   -1.5870   -2.7130 H   0  0  0  0  0  0  0  0  0  0  0  0
   -3.0540   -1.1590   -5.1540 H   0  0  0  0  0  0  0  0  0  0  0  0
   -1.8580   -2.5600   -6.7830 H   0  0  0  0  0  0  0  0  0  0  0  0
   -0.4790   -4.4400   -5.9130 H   0  0  0  0  0  0  0  0  0  0  0  0
   -0.3260   -4.8750   -3.5440 H   0  0  0  0  0  0  0  0  0  0  0  0
  1  9  1  0  0  0  0
  2 12  1  0  0  0  0
  2  1  1  0  0  0  0
  2  3  1  0  0  0  0
  3 15  1  0  0  0  0
  3 14  1  0  0  0  0
  4  2  1  0  0  0  0
  5 18  1  1  0  0  0
  5  6  1  0  0  0  0
  5  4  1  0  0  0  0
  6 19  1  0  0  0  0
  7  5  1  0  0  0  0
  8  7  2  0  0  0  0
 10  1  1  0  0  0  0
 11  1  1  0  0  0  0
 13  3  1  0  0  0  0
 16  4  1  0  0  0  0
 17  4  1  0  0  0  0
 20  6  1  0  0  0  0
 21 29  1  0  0  0  0
 21 30  1  0  0  0  0
 21 22  1  0  0  0  0
 22 23  1  0  0  0  0
 23 32  1  0  0  0  0
 23 24  1  0  0  0  0
 24 34  1  0  0  0  0
 24 25  1  0  0  0  0
 24 35  1  0  0  0  0
 25 36  1  6  0  0  0
 25 26  1  0  0  0  0
 26 37  1  0  0  0  0
 26  7  1  0  0  0  0
 27 25  1  0  0  0  0
 27 28  2  0  0  0  0
 31 21  1  0  0  0  0
 33 23  1  0  0  0  0
 38 39  1  0  0  0  0
 38 27  1  0  0  0  0
 39 51  1  1  0  0  0
 40 52  1  0  0  0  0
 40 53  1  0  0  0  0
 40 39  1  0  0  0  0
 41 40  1  0  0  0  0
 42 41  1  0  0  0  0
 42 54  1  0  0  0  0
 43 42  2  0  0  0  0
 44 45  2  0  0  0  0
 44 43  1  0  0  0  0
 45 46  1  0  0  0  0
 46 58  1  0  0  0  0
 46 41  2  0  0  0  0
 47 49  1  0  0  0  0
 47 39  1  0  0  0  0
 48 47  2  0  0  0  0
 50 38  1  0  0  0  0
 55 43  1  0  0  0  0
 56 44  1  0  0  0  0
 57 45  1  0  0  0  0
M  END
$$$$
