LMG.pdb
 OpenBabel07022418463D

 45 44  0  0  1  0  0  0  0  0999 V2000
   -1.0680   -2.6060    2.0540 C   0  0  0  0  0  0  0  0  0  0  0  0
   -0.6340   -3.4270    0.8910 C   0  0  0  0  0  0  0  0  0  0  0  0
   -0.2290   -4.7960    1.3920 C   0  0  0  0  0  0  0  0  0  0  0  0
    0.3480   -2.8200   -0.0320 C   0  0  0  0  0  0  0  0  0  0  0  0
    1.6610   -2.4220    0.5500 C   0  0  2  0  0  0  0  0  0  0  0  0
    2.3710   -3.5270    1.1450 N   0  0  0  0  0  0  0  0  0  0  0  0
    1.6310   -1.2160    1.4000 C   0  0  0  0  0  0  0  0  0  0  0  0
    2.0910   -1.1640    2.5670 O   0  0  0  0  0  0  0  0  0  0  0  0
   -2.1200   -2.8620    2.3820 H   0  0  0  0  0  0  0  0  0  0  0  0
   -1.0570   -1.5170    1.8950 H   0  0  0  0  0  0  0  0  0  0  0  0
   -0.4500   -2.8410    2.9710 H   0  0  0  0  0  0  0  0  0  0  0  0
   -1.5680   -3.6160    0.2790 H   0  0  0  0  0  0  0  0  0  0  0  0
    0.1410   -5.4480    0.5820 H   0  0  0  0  0  0  0  0  0  0  0  0
    0.4380   -4.7520    2.2770 H   0  0  0  0  0  0  0  0  0  0  0  0
   -1.1820   -5.2770    1.7610 H   0  0  0  0  0  0  0  0  0  0  0  0
   -0.1030   -1.9250   -0.5040 H   0  0  0  0  0  0  0  0  0  0  0  0
    0.5530   -3.5590   -0.8410 H   0  0  0  0  0  0  0  0  0  0  0  0
    2.3050   -2.1280   -0.3400 H   0  0  0  0  0  0  0  0  0  0  0  0
    2.5840   -4.1980    0.3460 H   0  0  0  0  0  0  0  0  0  0  0  0
    3.3320   -3.1540    1.4030 H   0  0  0  0  0  0  0  0  0  0  0  0
    1.7710    1.3860   -2.0310 C   0  0  0  0  0  0  0  0  0  0  0  0
    2.9600    2.2140   -1.0290 S   0  0  0  0  0  0  0  0  0  0  0  0
    2.4300    2.9720    0.4780 C   0  0  0  0  0  0  0  0  0  0  0  0
    2.0960    2.1780    1.6360 C   0  0  0  0  0  0  0  0  0  0  0  0
    1.0340    1.1830    1.7610 C   0  0  2  0  0  0  0  0  0  0  0  0
    1.0500    0.0230    0.9190 N   0  0  0  0  0  0  0  0  0  0  0  0
   -0.3400    1.7550    1.7470 C   0  0  0  0  0  0  0  0  0  0  0  0
   -0.5840    2.7870    2.4200 O   0  0  0  0  0  0  0  0  0  0  0  0
    0.7300    1.6730   -1.7210 H   0  0  0  0  0  0  0  0  0  0  0  0
    1.8380    1.7140   -3.0960 H   0  0  0  0  0  0  0  0  0  0  0  0
    1.9390    0.2830   -1.9930 H   0  0  0  0  0  0  0  0  0  0  0  0
    1.6540    3.7770    0.2420 H   0  0  0  0  0  0  0  0  0  0  0  0
    3.3060    3.6580    0.8010 H   0  0  0  0  0  0  0  0  0  0  0  0
    3.0630    1.6120    1.9370 H   0  0  0  0  0  0  0  0  0  0  0  0
    1.9930    2.8590    2.5590 H   0  0  0  0  0  0  0  0  0  0  0  0
    1.1860    0.8050    2.8670 H   0  0  0  0  0  0  0  0  0  0  0  0
    0.6390    0.0080   -0.0250 H   0  0  0  0  0  0  0  0  0  0  0  0
   -1.3990    1.1940    1.0090 N   0  0  0  0  0  0  0  0  0  0  0  0
   -2.7480    1.7890    1.0220 C   0  0  0  0  0  0  0  0  0  0  0  0
   -3.6650    1.0020    0.1660 C   0  0  0  0  0  0  0  0  0  0  0  0
   -4.8580    1.3820    0.0670 O   0  0  0  0  0  0  0  0  0  0  0  0
   -3.2900   -0.1320   -0.5380 O   0  0  0  0  0  0  0  0  0  0  0  0
   -1.2640    0.3430    0.4300 H   0  0  0  0  0  0  0  0  0  0  0  0
   -2.7010    2.8120    0.5500 H   0  0  0  0  0  0  0  0  0  0  0  0
   -3.0800    1.8790    2.0600 H   0  0  0  0  0  0  0  0  0  0  0  0
  1  9  1  0  0  0  0
  1 11  1  0  0  0  0
  2  3  1  0  0  0  0
  2  1  1  0  0  0  0
  3 15  1  0  0  0  0
  3 14  1  0  0  0  0
  4  5  1  0  0  0  0
  4  2  1  0  0  0  0
  5 18  1  6  0  0  0
  5  6  1  0  0  0  0
  5  7  1  0  0  0  0
  6 20  1  0  0  0  0
  7  8  2  0  0  0  0
 10  1  1  0  0  0  0
 12  2  1  0  0  0  0
 13  3  1  0  0  0  0
 16  4  1  0  0  0  0
 17  4  1  0  0  0  0
 19  6  1  0  0  0  0
 21 31  1  0  0  0  0
 21 29  1  0  0  0  0
 21 22  1  0  0  0  0
 22 23  1  0  0  0  0
 23 33  1  0  0  0  0
 23 24  1  0  0  0  0
 24 25  1  0  0  0  0
 24 34  1  0  0  0  0
 24 35  1  0  0  0  0
 25 36  1  1  0  0  0
 26  7  1  0  0  0  0
 26 25  1  0  0  0  0
 27 25  1  0  0  0  0
 27 28  2  0  0  0  0
 30 21  1  0  0  0  0
 32 23  1  0  0  0  0
 37 26  1  0  0  0  0
 38 39  1  0  0  0  0
 38 27  1  0  0  0  0
 39 45  1  0  0  0  0
 40 39  1  0  0  0  0
 41 40  1  0  0  0  0
 42 40  2  0  0  0  0
 43 38  1  0  0  0  0
 44 39  1  0  0  0  0
M  END
$$$$
