LMH.pdb
 OpenBabel07022418463D

 55 55  0  0  1  0  0  0  0  0999 V2000
    1.9180   -3.2070    4.4060 C   0  0  0  0  0  0  0  0  0  0  0  0
    1.4840   -1.7470    4.2470 C   0  0  0  0  0  0  0  0  0  0  0  0
    1.2920   -1.1690    5.5950 C   0  0  0  0  0  0  0  0  0  0  0  0
    2.5000   -1.0740    3.3900 C   0  0  0  0  0  0  0  0  0  0  0  0
    2.2470    0.3680    3.1200 C   0  0  2  0  0  0  0  0  0  0  0  0
    2.2060    1.1550    4.3630 N   0  0  0  0  0  0  0  0  0  0  0  0
    1.0930    0.6550    2.2640 C   0  0  0  0  0  0  0  0  0  0  0  0
    0.1730    1.4620    2.5520 O   0  0  0  0  0  0  0  0  0  0  0  0
    2.7610   -3.2900    5.1300 H   0  0  0  0  0  0  0  0  0  0  0  0
    1.0810   -3.8150    4.8490 H   0  0  0  0  0  0  0  0  0  0  0  0
    2.2420   -3.6530    3.4660 H   0  0  0  0  0  0  0  0  0  0  0  0
    0.5030   -1.7670    3.7290 H   0  0  0  0  0  0  0  0  0  0  0  0
    1.0370   -1.9780    6.3420 H   0  0  0  0  0  0  0  0  0  0  0  0
    0.3960   -0.4840    5.6400 H   0  0  0  0  0  0  0  0  0  0  0  0
    2.1420   -0.6320    6.0200 H   0  0  0  0  0  0  0  0  0  0  0  0
    2.5380   -1.6030    2.4160 H   0  0  0  0  0  0  0  0  0  0  0  0
    3.5210   -1.1660    3.8270 H   0  0  0  0  0  0  0  0  0  0  0  0
    3.1600    0.7570    2.5790 H   0  0  0  0  0  0  0  0  0  0  0  0
    3.1790    1.2160    4.7630 H   0  0  0  0  0  0  0  0  0  0  0  0
    1.8980    2.1250    4.1660 H   0  0  0  0  0  0  0  0  0  0  0  0
    3.4710    0.4510   -0.8780 C   0  0  0  0  0  0  0  0  0  0  0  0
    2.5620    1.8780   -1.3570 S   0  0  0  0  0  0  0  0  0  0  0  0
    0.8870    1.6280   -1.8250 C   0  0  0  0  0  0  0  0  0  0  0  0
   -0.0890    1.3720   -0.7820 C   0  0  0  0  0  0  0  0  0  0  0  0
   -0.1150    0.2160    0.1240 C   0  0  2  0  0  0  0  0  0  0  0  0
    0.9850   -0.0160    1.0100 N   0  0  0  0  0  0  0  0  0  0  0  0
   -0.4600   -1.0660   -0.5500 C   0  0  0  0  0  0  0  0  0  0  0  0
    0.2030   -2.1110   -0.2830 O   0  0  0  0  0  0  0  0  0  0  0  0
    4.4640    0.4620   -1.4100 H   0  0  0  0  0  0  0  0  0  0  0  0
    2.9800   -0.5010   -1.1920 H   0  0  0  0  0  0  0  0  0  0  0  0
    3.6610    0.4800    0.2300 H   0  0  0  0  0  0  0  0  0  0  0  0
    0.5660    2.5910   -2.3890 H   0  0  0  0  0  0  0  0  0  0  0  0
    0.8120    0.8710   -2.6840 H   0  0  0  0  0  0  0  0  0  0  0  0
   -1.1250    1.3720   -1.3130 H   0  0  0  0  0  0  0  0  0  0  0  0
   -0.2020    2.3320   -0.1520 H   0  0  0  0  0  0  0  0  0  0  0  0
   -1.0010    0.4870    0.8480 H   0  0  0  0  0  0  0  0  0  0  0  0
    1.7080   -0.7230    0.7780 H   0  0  0  0  0  0  0  0  0  0  0  0
   -1.5050   -1.2150   -1.4970 N   0  0  0  0  0  0  0  0  0  0  0  0
   -1.7930   -2.5130   -2.1280 C   0  0  1  0  0  0  0  0  0  0  0  0
   -3.1930   -2.9030   -1.7260 C   0  0  0  0  0  0  0  0  0  0  0  0
   -4.1270   -1.8320   -2.2220 C   0  0  0  0  0  0  0  0  0  0  0  0
   -4.5330   -0.6900   -1.5580 C   0  0  0  0  0  0  0  0  0  0  0  0
   -5.3740   -0.0110   -2.3760 N   0  0  0  0  0  0  0  0  0  0  0  0
   -5.5050   -0.6920   -3.5250 C   0  0  0  0  0  0  0  0  0  0  0  0
   -4.7470   -1.7890   -3.4180 N   0  0  0  0  0  0  0  0  0  0  0  0
   -1.6110   -2.4520   -3.5820 C   0  0  0  0  0  0  0  0  0  0  0  0
   -1.8190   -3.4840   -4.2660 O   0  0  0  0  0  0  0  0  0  0  0  0
   -1.2170   -1.3070   -4.2570 O   0  0  0  0  0  0  0  0  0  0  0  0
   -2.0680   -0.3720   -1.7350 H   0  0  0  0  0  0  0  0  0  0  0  0
   -1.1020   -3.2880   -1.7450 H   0  0  0  0  0  0  0  0  0  0  0  0
   -3.2270   -2.8350   -0.6040 H   0  0  0  0  0  0  0  0  0  0  0  0
   -3.4820   -3.8950   -2.0910 H   0  0  0  0  0  0  0  0  0  0  0  0
   -4.2140   -0.4150   -0.5590 H   0  0  0  0  0  0  0  0  0  0  0  0
   -5.8560    0.8900   -2.1810 H   0  0  0  0  0  0  0  0  0  0  0  0
   -6.0990   -0.4320   -4.3880 H   0  0  0  0  0  0  0  0  0  0  0  0
  1 10  1  0  0  0  0
  1  9  1  0  0  0  0
  2  1  1  0  0  0  0
  2  3  1  0  0  0  0
  3 14  1  0  0  0  0
  3 15  1  0  0  0  0
  3 13  1  0  0  0  0
  4 17  1  0  0  0  0
  4  2  1  0  0  0  0
  5 18  1  6  0  0  0
  5  4  1  0  0  0  0
  5  6  1  0  0  0  0
  6 19  1  0  0  0  0
  7  8  2  0  0  0  0
  7  5  1  0  0  0  0
 11  1  1  0  0  0  0
 12  2  1  0  0  0  0
 16  4  1  0  0  0  0
 20  6  1  0  0  0  0
 21 31  1  0  0  0  0
 22 21  1  0  0  0  0
 23 22  1  0  0  0  0
 23 24  1  0  0  0  0
 24 35  1  0  0  0  0
 24 25  1  0  0  0  0
 25 36  1  1  0  0  0
 25 26  1  0  0  0  0
 26  7  1  0  0  0  0
 27 28  2  0  0  0  0
 27 25  1  0  0  0  0
 29 21  1  0  0  0  0
 30 21  1  0  0  0  0
 32 23  1  0  0  0  0
 33 23  1  0  0  0  0
 34 24  1  0  0  0  0
 37 26  1  0  0  0  0
 38 27  1  0  0  0  0
 39 50  1  1  0  0  0
 39 40  1  0  0  0  0
 39 38  1  0  0  0  0
 40 51  1  0  0  0  0
 41 40  1  0  0  0  0
 41 42  2  0  0  0  0
 42 53  1  0  0  0  0
 43 54  1  0  0  0  0
 43 42  1  0  0  0  0
 44 45  2  0  0  0  0
 44 43  1  0  0  0  0
 45 41  1  0  0  0  0
 46 39  1  0  0  0  0
 47 46  2  0  0  0  0
 48 46  1  0  0  0  0
 49 38  1  0  0  0  0
 52 40  1  0  0  0  0
 55 44  1  0  0  0  0
M  END
$$$$
