LMI.pdb
 OpenBabel07022418473D

 57 56  0  0  1  0  0  0  0  0999 V2000
    1.1740   -4.5810    3.6840 C   0  0  0  0  0  0  0  0  0  0  0  0
    0.5830   -3.2060    3.9780 C   0  0  0  0  0  0  0  0  0  0  0  0
   -0.5690   -2.9760    3.0650 C   0  0  0  0  0  0  0  0  0  0  0  0
    1.6950   -2.2200    3.8920 C   0  0  0  0  0  0  0  0  0  0  0  0
    1.3080   -0.7940    4.1530 C   0  0  2  0  0  0  0  0  0  0  0  0
    0.7400   -0.6000    5.4650 N   0  0  0  0  0  0  0  0  0  0  0  0
    0.4980   -0.1890    3.0800 C   0  0  0  0  0  0  0  0  0  0  0  0
   -0.6150    0.3920    3.2960 O   0  0  0  0  0  0  0  0  0  0  0  0
    0.4070   -5.3690    3.8050 H   0  0  0  0  0  0  0  0  0  0  0  0
    1.5700   -4.6530    2.6650 H   0  0  0  0  0  0  0  0  0  0  0  0
    1.9920   -4.8100    4.3940 H   0  0  0  0  0  0  0  0  0  0  0  0
    0.1900   -3.2620    5.0150 H   0  0  0  0  0  0  0  0  0  0  0  0
   -1.1310   -3.9530    2.9920 H   0  0  0  0  0  0  0  0  0  0  0  0
   -0.3210   -2.7040    2.0390 H   0  0  0  0  0  0  0  0  0  0  0  0
   -1.3190   -2.2580    3.4740 H   0  0  0  0  0  0  0  0  0  0  0  0
    2.1420   -2.2630    2.8760 H   0  0  0  0  0  0  0  0  0  0  0  0
    2.4940   -2.5470    4.5870 H   0  0  0  0  0  0  0  0  0  0  0  0
    2.2850   -0.2210    4.1750 H   0  0  0  0  0  0  0  0  0  0  0  0
    0.3820    0.3790    5.5080 H   0  0  0  0  0  0  0  0  0  0  0  0
    1.5220   -0.6620    6.1550 H   0  0  0  0  0  0  0  0  0  0  0  0
    3.8090    3.5570    0.2390 C   0  0  0  0  0  0  0  0  0  0  0  0
    3.3130    2.4000   -1.0580 S   0  0  0  0  0  0  0  0  0  0  0  0
    2.3040    1.0480   -0.3970 C   0  0  0  0  0  0  0  0  0  0  0  0
    0.9710    1.5530    0.1150 C   0  0  0  0  0  0  0  0  0  0  0  0
    0.1810    0.3520    0.6520 C   0  0  2  0  0  0  0  0  0  0  0  0
    0.9570   -0.2370    1.7190 N   0  0  0  0  0  0  0  0  0  0  0  0
   -0.0610   -0.6000   -0.4610 C   0  0  0  0  0  0  0  0  0  0  0  0
    0.3860   -1.7520   -0.4260 O   0  0  0  0  0  0  0  0  0  0  0  0
    2.9120    3.9320    0.7440 H   0  0  0  0  0  0  0  0  0  0  0  0
    4.5610    3.1130    0.9350 H   0  0  0  0  0  0  0  0  0  0  0  0
    4.3240    4.4070   -0.2550 H   0  0  0  0  0  0  0  0  0  0  0  0
    2.0920    0.3510   -1.2330 H   0  0  0  0  0  0  0  0  0  0  0  0
    2.9030    0.5770    0.4020 H   0  0  0  0  0  0  0  0  0  0  0  0
    0.3690    1.9910   -0.6850 H   0  0  0  0  0  0  0  0  0  0  0  0
    1.0640    2.2710    0.9390 H   0  0  0  0  0  0  0  0  0  0  0  0
   -0.7800    0.7450    1.0660 H   0  0  0  0  0  0  0  0  0  0  0  0
    1.8690   -0.7190    1.5680 H   0  0  0  0  0  0  0  0  0  0  0  0
   -3.7160    0.5950   -2.1420 C   0  0  0  0  0  0  0  0  0  0  0  0
   -3.4140   -0.3510   -3.2550 C   0  0  0  0  0  0  0  0  0  0  0  0
   -2.4900   -1.4690   -2.9360 C   0  0  2  0  0  0  0  0  0  0  0  0
   -3.1060   -2.2880   -1.8170 C   0  0  0  0  0  0  0  0  0  0  0  0
   -1.0640   -1.1090   -2.6930 C   0  0  2  0  0  0  0  0  0  0  0  0
   -0.8190   -0.2110   -1.6110 N   0  0  0  0  0  0  0  0  0  0  0  0
   -0.4370   -0.6550   -3.9690 C   0  0  0  0  0  0  0  0  0  0  0  0
    0.2330    0.4020   -4.0760 O   0  0  0  0  0  0  0  0  0  0  0  0
   -0.5820   -1.4160   -5.1160 O   0  0  0  0  0  0  0  0  0  0  0  0
   -4.8250    0.8130   -2.0740 H   0  0  0  0  0  0  0  0  0  0  0  0
   -3.2720    1.5840   -2.3960 H   0  0  0  0  0  0  0  0  0  0  0  0
   -3.4530    0.2260   -1.1370 H   0  0  0  0  0  0  0  0  0  0  0  0
   -4.3930   -0.8260   -3.5590 H   0  0  0  0  0  0  0  0  0  0  0  0
   -3.1010    0.2030   -4.1890 H   0  0  0  0  0  0  0  0  0  0  0  0
   -2.5270   -2.1560   -3.8380 H   0  0  0  0  0  0  0  0  0  0  0  0
   -2.3540   -2.3060   -0.9910 H   0  0  0  0  0  0  0  0  0  0  0  0
   -3.3320   -3.3190   -2.0890 H   0  0  0  0  0  0  0  0  0  0  0  0
   -4.0090   -1.7830   -1.3960 H   0  0  0  0  0  0  0  0  0  0  0  0
   -0.5480   -2.0880   -2.4540 H   0  0  0  0  0  0  0  0  0  0  0  0
   -1.1710    0.7720   -1.5940 H   0  0  0  0  0  0  0  0  0  0  0  0
  1  9  1  0  0  0  0
  1  2  1  0  0  0  0
  1 11  1  0  0  0  0
  2 12  1  0  0  0  0
  3 15  1  0  0  0  0
  3  2  1  0  0  0  0
  4  2  1  0  0  0  0
  4  5  1  0  0  0  0
  4 17  1  0  0  0  0
  5 18  1  1  0  0  0
  5  6  1  0  0  0  0
  6 19  1  0  0  0  0
  6 20  1  0  0  0  0
  7  8  2  0  0  0  0
  7  5  1  0  0  0  0
 10  1  1  0  0  0  0
 13  3  1  0  0  0  0
 14  3  1  0  0  0  0
 16  4  1  0  0  0  0
 21 29  1  0  0  0  0
 21 30  1  0  0  0  0
 22 23  1  0  0  0  0
 22 21  1  0  0  0  0
 23 24  1  0  0  0  0
 23 33  1  0  0  0  0
 24 25  1  0  0  0  0
 24 35  1  0  0  0  0
 25 36  1  1  0  0  0
 25 26  1  0  0  0  0
 26  7  1  0  0  0  0
 27 28  2  0  0  0  0
 27 25  1  0  0  0  0
 31 21  1  0  0  0  0
 32 23  1  0  0  0  0
 34 24  1  0  0  0  0
 37 26  1  0  0  0  0
 38 47  1  0  0  0  0
 38 49  1  0  0  0  0
 39 40  1  0  0  0  0
 39 38  1  0  0  0  0
 40 52  1  6  0  0  0
 40 42  1  0  0  0  0
 40 41  1  0  0  0  0
 41 55  1  0  0  0  0
 41 53  1  0  0  0  0
 42 56  1  1  0  0  0
 42 43  1  0  0  0  0
 43 57  1  0  0  0  0
 43 27  1  0  0  0  0
 44 42  1  0  0  0  0
 45 44  1  0  0  0  0
 46 44  2  0  0  0  0
 48 38  1  0  0  0  0
 50 39  1  0  0  0  0
 51 39  1  0  0  0  0
 54 41  1  0  0  0  0
M  END
$$$$
