LML.pdb
 OpenBabel07022418473D

 57 56  0  0  1  0  0  0  0  0999 V2000
    1.1620   -4.8990    1.6470 C   0  0  0  0  0  0  0  0  0  0  0  0
    1.0260   -3.7430    2.6450 C   0  0  0  0  0  0  0  0  0  0  0  0
   -0.3350   -3.1720    2.5020 C   0  0  0  0  0  0  0  0  0  0  0  0
    2.1740   -2.8300    2.4060 C   0  0  0  0  0  0  0  0  0  0  0  0
    2.2120   -1.6160    3.2960 C   0  0  2  0  0  0  0  0  0  0  0  0
    2.2720   -1.9820    4.6990 N   0  0  0  0  0  0  0  0  0  0  0  0
    1.2400   -0.5760    2.9770 C   0  0  0  0  0  0  0  0  0  0  0  0
    0.4310   -0.1730    3.8250 O   0  0  0  0  0  0  0  0  0  0  0  0
    2.0190   -5.5430    1.8930 H   0  0  0  0  0  0  0  0  0  0  0  0
    1.3230   -4.5210    0.6140 H   0  0  0  0  0  0  0  0  0  0  0  0
    0.2540   -5.5260    1.6310 H   0  0  0  0  0  0  0  0  0  0  0  0
    1.0680   -4.2460    3.6400 H   0  0  0  0  0  0  0  0  0  0  0  0
   -1.0340   -4.0330    2.3000 H   0  0  0  0  0  0  0  0  0  0  0  0
   -0.4680   -2.4970    1.6370 H   0  0  0  0  0  0  0  0  0  0  0  0
   -0.7000   -2.6350    3.4010 H   0  0  0  0  0  0  0  0  0  0  0  0
    3.1070   -3.4220    2.5060 H   0  0  0  0  0  0  0  0  0  0  0  0
    2.1370   -2.4860    1.3560 H   0  0  0  0  0  0  0  0  0  0  0  0
    3.2270   -1.1490    3.0980 H   0  0  0  0  0  0  0  0  0  0  0  0
    2.6180   -1.1150    5.2000 H   0  0  0  0  0  0  0  0  0  0  0  0
    3.0590   -2.6720    4.7840 H   0  0  0  0  0  0  0  0  0  0  0  0
    1.4470    4.8520   -1.4550 C   0  0  0  0  0  0  0  0  0  0  0  0
    2.6610    3.7130   -0.7590 S   0  0  0  0  0  0  0  0  0  0  0  0
    1.9150    2.1340   -0.2930 C   0  0  0  0  0  0  0  0  0  0  0  0
    0.9280    2.3200    0.8650 C   0  0  0  0  0  0  0  0  0  0  0  0
    0.3080    1.0120    1.2550 C   0  0  2  0  0  0  0  0  0  0  0  0
    1.1930    0.0080    1.6850 N   0  0  0  0  0  0  0  0  0  0  0  0
   -0.4530    0.5620    0.0370 C   0  0  0  0  0  0  0  0  0  0  0  0
   -1.3010    1.4270   -0.3690 O   0  0  0  0  0  0  0  0  0  0  0  0
    1.4220    4.8740   -2.5450 H   0  0  0  0  0  0  0  0  0  0  0  0
    1.7150    5.8820   -1.1030 H   0  0  0  0  0  0  0  0  0  0  0  0
    0.4310    4.6640   -1.0250 H   0  0  0  0  0  0  0  0  0  0  0  0
    1.4140    1.6510   -1.1570 H   0  0  0  0  0  0  0  0  0  0  0  0
    2.7160    1.4580    0.0400 H   0  0  0  0  0  0  0  0  0  0  0  0
    1.3590    2.8960    1.6800 H   0  0  0  0  0  0  0  0  0  0  0  0
    0.1030    2.9370    0.4440 H   0  0  0  0  0  0  0  0  0  0  0  0
   -0.4390    1.2250    2.0330 H   0  0  0  0  0  0  0  0  0  0  0  0
    1.8920   -0.3520    0.9990 H   0  0  0  0  0  0  0  0  0  0  0  0
   -4.5560    0.0060   -1.1980 C   0  0  0  0  0  0  0  0  0  0  0  0
   -3.2300   -0.7100   -0.8960 C   0  0  0  0  0  0  0  0  0  0  0  0
   -3.5240   -2.2300   -0.8200 C   0  0  0  0  0  0  0  0  0  0  0  0
   -2.2650   -0.5040   -2.0070 C   0  0  0  0  0  0  0  0  0  0  0  0
   -0.9210   -1.1980   -1.7100 C   0  0  2  0  0  0  0  0  0  0  0  0
   -0.2410   -0.6750   -0.5750 N   0  0  0  0  0  0  0  0  0  0  0  0
   -0.1320   -1.4230   -2.9080 C   0  0  0  0  0  0  0  0  0  0  0  0
   -0.6560   -1.8820   -3.9530 O   0  0  0  0  0  0  0  0  0  0  0  0
    1.2260   -1.1410   -2.9410 O   0  0  0  0  0  0  0  0  0  0  0  0
   -4.8480   -0.1410   -2.2530 H   0  0  0  0  0  0  0  0  0  0  0  0
   -5.2870   -0.3800   -0.4760 H   0  0  0  0  0  0  0  0  0  0  0  0
   -4.3700    1.0800   -0.9560 H   0  0  0  0  0  0  0  0  0  0  0  0
   -2.9440   -0.4480    0.1150 H   0  0  0  0  0  0  0  0  0  0  0  0
   -2.8480   -2.7100   -0.0930 H   0  0  0  0  0  0  0  0  0  0  0  0
   -3.3480   -2.6850   -1.8120 H   0  0  0  0  0  0  0  0  0  0  0  0
   -4.5620   -2.3370   -0.4740 H   0  0  0  0  0  0  0  0  0  0  0  0
   -2.6630   -1.0910   -2.8850 H   0  0  0  0  0  0  0  0  0  0  0  0
   -2.0910    0.5270   -2.3150 H   0  0  0  0  0  0  0  0  0  0  0  0
   -1.3370   -2.2350   -1.3850 H   0  0  0  0  0  0  0  0  0  0  0  0
    0.5120   -1.2900   -0.1500 H   0  0  0  0  0  0  0  0  0  0  0  0
  1  9  1  0  0  0  0
  1  2  1  0  0  0  0
  2 12  1  0  0  0  0
  3  2  1  0  0  0  0
  3 15  1  0  0  0  0
  4 16  1  0  0  0  0
  4  2  1  0  0  0  0
  4  5  1  0  0  0  0
  5 18  1  6  0  0  0
  5  6  1  0  0  0  0
  6 20  1  0  0  0  0
  6 19  1  0  0  0  0
  7  5  1  0  0  0  0
  7  8  2  0  0  0  0
 10  1  1  0  0  0  0
 11  1  1  0  0  0  0
 13  3  1  0  0  0  0
 14  3  1  0  0  0  0
 17  4  1  0  0  0  0
 21 30  1  0  0  0  0
 21 31  1  0  0  0  0
 21 22  1  0  0  0  0
 22 23  1  0  0  0  0
 23 33  1  0  0  0  0
 23 24  1  0  0  0  0
 24 25  1  0  0  0  0
 24 34  1  0  0  0  0
 25 26  1  0  0  0  0
 25 36  1  1  0  0  0
 26  7  1  0  0  0  0
 27 25  1  0  0  0  0
 28 27  2  0  0  0  0
 29 21  1  0  0  0  0
 32 23  1  0  0  0  0
 35 24  1  0  0  0  0
 37 26  1  0  0  0  0
 38 49  1  0  0  0  0
 38 39  1  0  0  0  0
 38 48  1  0  0  0  0
 39 40  1  0  0  0  0
 39 50  1  0  0  0  0
 40 53  1  0  0  0  0
 40 51  1  0  0  0  0
 41 42  1  0  0  0  0
 41 39  1  0  0  0  0
 42 56  1  1  0  0  0
 42 43  1  0  0  0  0
 43 57  1  0  0  0  0
 43 27  1  0  0  0  0
 44 42  1  0  0  0  0
 45 44  2  0  0  0  0
 46 44  1  0  0  0  0
 47 38  1  0  0  0  0
 52 40  1  0  0  0  0
 54 41  1  0  0  0  0
 55 41  1  0  0  0  0
M  END
$$$$
