LMM.pdb
 OpenBabel07022418473D

 55 54  0  0  1  0  0  0  0  0999 V2000
    1.3710   -5.0310    1.4120 C   0  0  0  0  0  0  0  0  0  0  0  0
    1.1940   -3.8150    2.3440 C   0  0  0  0  0  0  0  0  0  0  0  0
   -0.1790   -3.2930    2.1090 C   0  0  0  0  0  0  0  0  0  0  0  0
    2.3060   -2.8800    1.9960 C   0  0  0  0  0  0  0  0  0  0  0  0
    2.3740   -1.6110    2.7670 C   0  0  2  0  0  0  0  0  0  0  0  0
    2.4900   -1.8910    4.1880 N   0  0  0  0  0  0  0  0  0  0  0  0
    1.2480   -0.7230    2.4820 C   0  0  0  0  0  0  0  0  0  0  0  0
    0.3760   -0.4080    3.3550 O   0  0  0  0  0  0  0  0  0  0  0  0
    0.8570   -4.7990    0.4660 H   0  0  0  0  0  0  0  0  0  0  0  0
    2.4550   -5.1670    1.2300 H   0  0  0  0  0  0  0  0  0  0  0  0
    0.9130   -5.9120    1.9350 H   0  0  0  0  0  0  0  0  0  0  0  0
    1.3050   -4.2290    3.3830 H   0  0  0  0  0  0  0  0  0  0  0  0
   -0.8610   -4.1350    1.7570 H   0  0  0  0  0  0  0  0  0  0  0  0
   -0.2140   -2.5500    1.3160 H   0  0  0  0  0  0  0  0  0  0  0  0
   -0.6720   -2.8900    3.0330 H   0  0  0  0  0  0  0  0  0  0  0  0
    3.2650   -3.4280    2.1640 H   0  0  0  0  0  0  0  0  0  0  0  0
    2.2490   -2.6940    0.8960 H   0  0  0  0  0  0  0  0  0  0  0  0
    3.3180   -1.0270    2.4540 H   0  0  0  0  0  0  0  0  0  0  0  0
    2.6390   -0.9800    4.6910 H   0  0  0  0  0  0  0  0  0  0  0  0
    3.2700   -2.5260    4.3840 H   0  0  0  0  0  0  0  0  0  0  0  0
    0.6480    5.1980   -0.6520 C   0  0  0  0  0  0  0  0  0  0  0  0
    2.0420    4.1430   -0.1440 S   0  0  0  0  0  0  0  0  0  0  0  0
    1.5510    2.3790   -0.2260 C   0  0  0  0  0  0  0  0  0  0  0  0
    0.4960    2.1800    0.8200 C   0  0  0  0  0  0  0  0  0  0  0  0
   -0.0150    0.7480    0.8710 C   0  0  2  0  0  0  0  0  0  0  0  0
    1.0760   -0.1450    1.1700 N   0  0  0  0  0  0  0  0  0  0  0  0
   -0.8170    0.3970   -0.2970 C   0  0  0  0  0  0  0  0  0  0  0  0
   -1.7720    1.1070   -0.7340 O   0  0  0  0  0  0  0  0  0  0  0  0
    0.1300    4.7100   -1.5260 H   0  0  0  0  0  0  0  0  0  0  0  0
    1.0070    6.1760   -1.0210 H   0  0  0  0  0  0  0  0  0  0  0  0
   -0.0740    5.3370    0.2020 H   0  0  0  0  0  0  0  0  0  0  0  0
    2.4380    1.7680    0.0020 H   0  0  0  0  0  0  0  0  0  0  0  0
    1.2250    2.1600   -1.2440 H   0  0  0  0  0  0  0  0  0  0  0  0
    0.9670    2.3670    1.8130 H   0  0  0  0  0  0  0  0  0  0  0  0
   -0.3510    2.8620    0.7260 H   0  0  0  0  0  0  0  0  0  0  0  0
   -0.6910    0.7420    1.7710 H   0  0  0  0  0  0  0  0  0  0  0  0
    1.8000   -0.4250    0.4670 H   0  0  0  0  0  0  0  0  0  0  0  0
   -3.7590   -0.2730    1.2620 C   0  0  0  0  0  0  0  0  0  0  0  0
   -2.9620   -1.7400    0.6150 S   0  0  0  0  0  0  0  0  0  0  0  0
   -3.3790   -2.1150   -1.0830 C   0  0  0  0  0  0  0  0  0  0  0  0
   -2.8140   -1.2020   -2.1260 C   0  0  0  0  0  0  0  0  0  0  0  0
   -1.3160   -1.2130   -2.2040 C   0  0  2  0  0  0  0  0  0  0  0  0
   -0.5900   -0.7990   -1.0650 N   0  0  0  0  0  0  0  0  0  0  0  0
   -0.8050   -0.6980   -3.4830 C   0  0  0  0  0  0  0  0  0  0  0  0
    0.1910    0.0410   -3.4970 O   0  0  0  0  0  0  0  0  0  0  0  0
   -1.4190   -1.0280   -4.6630 O   0  0  0  0  0  0  0  0  0  0  0  0
   -4.5330   -0.5950    2.0030 H   0  0  0  0  0  0  0  0  0  0  0  0
   -4.3460    0.1920    0.4200 H   0  0  0  0  0  0  0  0  0  0  0  0
   -3.0570    0.4350    1.7070 H   0  0  0  0  0  0  0  0  0  0  0  0
   -2.9650   -3.1590   -1.2860 H   0  0  0  0  0  0  0  0  0  0  0  0
   -4.4890   -2.2400   -1.2030 H   0  0  0  0  0  0  0  0  0  0  0  0
   -3.1890   -1.5910   -3.1220 H   0  0  0  0  0  0  0  0  0  0  0  0
   -3.2520   -0.1850   -1.9520 H   0  0  0  0  0  0  0  0  0  0  0  0
   -1.0950   -2.3520   -2.2770 H   0  0  0  0  0  0  0  0  0  0  0  0
    0.2140   -1.4050   -0.7200 H   0  0  0  0  0  0  0  0  0  0  0  0
  1 11  1  0  0  0  0
  1  2  1  0  0  0  0
  2 12  1  0  0  0  0
  3  2  1  0  0  0  0
  3 15  1  0  0  0  0
  4 16  1  0  0  0  0
  4  2  1  0  0  0  0
  4  5  1  0  0  0  0
  5 18  1  6  0  0  0
  5  6  1  0  0  0  0
  6 20  1  0  0  0  0
  6 19  1  0  0  0  0
  7  5  1  0  0  0  0
  7  8  2  0  0  0  0
  9  1  1  0  0  0  0
 10  1  1  0  0  0  0
 13  3  1  0  0  0  0
 14  3  1  0  0  0  0
 17  4  1  0  0  0  0
 21 22  1  0  0  0  0
 21 31  1  0  0  0  0
 23 22  1  0  0  0  0
 23 32  1  0  0  0  0
 23 24  1  0  0  0  0
 24 25  1  0  0  0  0
 24 34  1  0  0  0  0
 25 26  1  0  0  0  0
 25 36  1  1  0  0  0
 26  7  1  0  0  0  0
 27 25  1  0  0  0  0
 28 27  2  0  0  0  0
 29 21  1  0  0  0  0
 30 21  1  0  0  0  0
 33 23  1  0  0  0  0
 35 24  1  0  0  0  0
 37 26  1  0  0  0  0
 38 49  1  0  0  0  0
 38 47  1  0  0  0  0
 39 38  1  0  0  0  0
 40 39  1  0  0  0  0
 41 53  1  0  0  0  0
 41 40  1  0  0  0  0
 42 54  1  6  0  0  0
 42 41  1  0  0  0  0
 42 43  1  0  0  0  0
 43 55  1  0  0  0  0
 43 27  1  0  0  0  0
 44 42  1  0  0  0  0
 45 44  1  0  0  0  0
 46 44  2  0  0  0  0
 48 38  1  0  0  0  0
 50 40  1  0  0  0  0
 51 40  1  0  0  0  0
 52 41  1  0  0  0  0
M  END
$$$$
