LMN.pdb
 OpenBabel07022418463D

 52 51  0  0  1  0  0  0  0  0999 V2000
    2.2730   -4.2160    0.3310 C   0  0  0  0  0  0  0  0  0  0  0  0
    2.3160   -3.2000    1.4520 C   0  0  0  0  0  0  0  0  0  0  0  0
    1.0310   -3.2430    2.1920 C   0  0  0  0  0  0  0  0  0  0  0  0
    2.6870   -1.8790    0.8460 C   0  0  0  0  0  0  0  0  0  0  0  0
    2.7660   -0.7510    1.8460 C   0  0  2  0  0  0  0  0  0  0  0  0
    3.7230   -0.9980    2.8820 N   0  0  0  0  0  0  0  0  0  0  0  0
    1.4660   -0.2810    2.3390 C   0  0  0  0  0  0  0  0  0  0  0  0
    1.1800   -0.2680    3.5510 O   0  0  0  0  0  0  0  0  0  0  0  0
    1.2400   -4.3260   -0.0830 H   0  0  0  0  0  0  0  0  0  0  0  0
    2.9240   -3.9050   -0.5190 H   0  0  0  0  0  0  0  0  0  0  0  0
    2.6110   -5.2170    0.6650 H   0  0  0  0  0  0  0  0  0  0  0  0
    3.1410   -3.5040    2.1420 H   0  0  0  0  0  0  0  0  0  0  0  0
    0.5830   -4.2710    2.0490 H   0  0  0  0  0  0  0  0  0  0  0  0
    1.1380   -3.1500    3.2940 H   0  0  0  0  0  0  0  0  0  0  0  0
    0.2680   -2.5380    1.8630 H   0  0  0  0  0  0  0  0  0  0  0  0
    2.0320   -1.5700    0.0280 H   0  0  0  0  0  0  0  0  0  0  0  0
    3.7110   -1.9980    0.4240 H   0  0  0  0  0  0  0  0  0  0  0  0
    3.1880    0.1200    1.2550 H   0  0  0  0  0  0  0  0  0  0  0  0
    4.4450   -1.6910    2.6040 H   0  0  0  0  0  0  0  0  0  0  0  0
    4.1000   -0.0950    3.2260 H   0  0  0  0  0  0  0  0  0  0  0  0
    0.7230    5.1750    0.8940 C   0  0  0  0  0  0  0  0  0  0  0  0
   -0.6870    4.3710    0.1320 S   0  0  0  0  0  0  0  0  0  0  0  0
   -0.6580    2.5690    0.3250 C   0  0  0  0  0  0  0  0  0  0  0  0
   -0.8140    2.1440    1.7440 C   0  0  0  0  0  0  0  0  0  0  0  0
   -0.7810    0.6470    1.8980 C   0  0  2  0  0  0  0  0  0  0  0  0
    0.4980    0.1800    1.3990 N   0  0  0  0  0  0  0  0  0  0  0  0
   -1.8860   -0.0690    1.2490 C   0  0  0  0  0  0  0  0  0  0  0  0
   -3.0560    0.2680    1.5670 O   0  0  0  0  0  0  0  0  0  0  0  0
    1.2530    5.7600    0.0860 H   0  0  0  0  0  0  0  0  0  0  0  0
    1.4790    4.4710    1.2940 H   0  0  0  0  0  0  0  0  0  0  0  0
    0.4550    5.9280    1.6580 H   0  0  0  0  0  0  0  0  0  0  0  0
    0.2320    2.1350   -0.1460 H   0  0  0  0  0  0  0  0  0  0  0  0
   -1.5370    2.1890   -0.2320 H   0  0  0  0  0  0  0  0  0  0  0  0
    0.0180    2.5460    2.3570 H   0  0  0  0  0  0  0  0  0  0  0  0
   -1.7930    2.5090    2.1420 H   0  0  0  0  0  0  0  0  0  0  0  0
   -0.8710    0.4390    3.0000 H   0  0  0  0  0  0  0  0  0  0  0  0
    0.7000    0.1820    0.3740 H   0  0  0  0  0  0  0  0  0  0  0  0
   -2.8620   -0.3650   -3.8410 N   0  0  0  0  0  0  0  0  0  0  0  0
   -2.8900   -0.5370   -2.4430 C   0  0  0  0  0  0  0  0  0  0  0  0
   -3.0060    0.4920   -1.7330 O   0  0  0  0  0  0  0  0  0  0  0  0
   -2.7870   -1.8770   -1.8220 C   0  0  0  0  0  0  0  0  0  0  0  0
   -2.7900   -1.8290   -0.3460 C   0  0  2  0  0  0  0  0  0  0  0  0
   -1.7440   -1.1110    0.2980 N   0  0  0  0  0  0  0  0  0  0  0  0
   -2.8620   -3.2080    0.2330 C   0  0  0  0  0  0  0  0  0  0  0  0
   -2.1160   -3.6310    1.1440 O   0  0  0  0  0  0  0  0  0  0  0  0
   -3.8120   -4.0880   -0.2640 O   0  0  0  0  0  0  0  0  0  0  0  0
   -3.3380   -1.0370   -4.4600 H   0  0  0  0  0  0  0  0  0  0  0  0
   -2.3610    0.4390   -4.2470 H   0  0  0  0  0  0  0  0  0  0  0  0
   -3.7310   -2.4220   -2.1270 H   0  0  0  0  0  0  0  0  0  0  0  0
   -1.9710   -2.4860   -2.2630 H   0  0  0  0  0  0  0  0  0  0  0  0
   -3.7680   -1.3440   -0.0340 H   0  0  0  0  0  0  0  0  0  0  0  0
   -0.7590   -1.3750    0.0430 H   0  0  0  0  0  0  0  0  0  0  0  0
  1 11  1  0  0  0  0
  1  2  1  0  0  0  0
  2 12  1  0  0  0  0
  2  3  1  0  0  0  0
  3 14  1  0  0  0  0
  4  2  1  0  0  0  0
  4  5  1  0  0  0  0
  5 18  1  6  0  0  0
  5  7  1  0  0  0  0
  5  6  1  0  0  0  0
  6 20  1  0  0  0  0
  7  8  2  0  0  0  0
  9  1  1  0  0  0  0
 10  1  1  0  0  0  0
 13  3  1  0  0  0  0
 15  3  1  0  0  0  0
 16  4  1  0  0  0  0
 17  4  1  0  0  0  0
 19  6  1  0  0  0  0
 21 30  1  0  0  0  0
 21 31  1  0  0  0  0
 22 23  1  0  0  0  0
 22 21  1  0  0  0  0
 23 24  1  0  0  0  0
 24 25  1  0  0  0  0
 24 35  1  0  0  0  0
 24 34  1  0  0  0  0
 25 36  1  1  0  0  0
 26 25  1  0  0  0  0
 26  7  1  0  0  0  0
 27 28  2  0  0  0  0
 27 25  1  0  0  0  0
 29 21  1  0  0  0  0
 32 23  1  0  0  0  0
 33 23  1  0  0  0  0
 37 26  1  0  0  0  0
 38 39  1  0  0  0  0
 39 41  1  0  0  0  0
 39 40  2  0  0  0  0
 41 42  1  0  0  0  0
 42 51  1  1  0  0  0
 42 44  1  0  0  0  0
 42 43  1  0  0  0  0
 43 27  1  0  0  0  0
 44 45  1  0  0  0  0
 46 44  2  0  0  0  0
 47 38  1  0  0  0  0
 48 38  1  0  0  0  0
 49 41  1  0  0  0  0
 50 41  1  0  0  0  0
 52 43  1  0  0  0  0
M  END
$$$$
