LMQ.pdb
 OpenBabel07022418463D

 55 54  0  0  1  0  0  0  0  0999 V2000
    2.8860   -2.6410    4.1510 C   0  0  0  0  0  0  0  0  0  0  0  0
    2.0880   -2.6990    2.8590 C   0  0  0  0  0  0  0  0  0  0  0  0
    0.6690   -2.3770    3.1790 C   0  0  0  0  0  0  0  0  0  0  0  0
    2.7080   -1.8220    1.7950 C   0  0  0  0  0  0  0  0  0  0  0  0
    2.7710   -0.3660    2.1990 C   0  0  2  0  0  0  0  0  0  0  0  0
    3.5470   -0.2810    3.3940 N   0  0  0  0  0  0  0  0  0  0  0  0
    1.4760    0.3120    2.2220 C   0  0  0  0  0  0  0  0  0  0  0  0
    0.9780    0.8020    3.2670 O   0  0  0  0  0  0  0  0  0  0  0  0
    2.7010   -3.6270    4.6660 H   0  0  0  0  0  0  0  0  0  0  0  0
    3.9530   -2.5640    3.9150 H   0  0  0  0  0  0  0  0  0  0  0  0
    2.5440   -1.8710    4.8460 H   0  0  0  0  0  0  0  0  0  0  0  0
    2.1470   -3.7400    2.4850 H   0  0  0  0  0  0  0  0  0  0  0  0
    0.1330   -3.3470    3.3960 H   0  0  0  0  0  0  0  0  0  0  0  0
    0.5730   -1.8010    4.1260 H   0  0  0  0  0  0  0  0  0  0  0  0
    0.0960   -1.8740    2.4050 H   0  0  0  0  0  0  0  0  0  0  0  0
    2.1830   -1.9100    0.8390 H   0  0  0  0  0  0  0  0  0  0  0  0
    3.7540   -2.1690    1.6700 H   0  0  0  0  0  0  0  0  0  0  0  0
    3.3810    0.1340    1.3890 H   0  0  0  0  0  0  0  0  0  0  0  0
    3.1490    0.3460    4.1210 H   0  0  0  0  0  0  0  0  0  0  0  0
    4.5650   -0.2290    3.2760 H   0  0  0  0  0  0  0  0  0  0  0  0
    1.1880    4.5110   -1.9650 C   0  0  0  0  0  0  0  0  0  0  0  0
    0.5750    4.8410   -0.2730 S   0  0  0  0  0  0  0  0  0  0  0  0
    0.5350    3.3340    0.7060 C   0  0  0  0  0  0  0  0  0  0  0  0
   -0.4880    2.3590    0.1650 C   0  0  0  0  0  0  0  0  0  0  0  0
   -0.5200    1.0820    0.9970 C   0  0  2  0  0  0  0  0  0  0  0  0
    0.7490    0.4220    0.9980 N   0  0  0  0  0  0  0  0  0  0  0  0
   -1.5300    0.2110    0.3580 C   0  0  0  0  0  0  0  0  0  0  0  0
   -2.7340    0.6430    0.2580 O   0  0  0  0  0  0  0  0  0  0  0  0
    0.7140    3.6080   -2.3960 H   0  0  0  0  0  0  0  0  0  0  0  0
    2.3050    4.4090   -1.9550 H   0  0  0  0  0  0  0  0  0  0  0  0
    0.9020    5.3700   -2.5810 H   0  0  0  0  0  0  0  0  0  0  0  0
    0.1980    3.6100    1.7260 H   0  0  0  0  0  0  0  0  0  0  0  0
    1.5280    2.8680    0.8230 H   0  0  0  0  0  0  0  0  0  0  0  0
   -1.5110    2.7770    0.1850 H   0  0  0  0  0  0  0  0  0  0  0  0
   -0.2270    2.1530   -0.8890 H   0  0  0  0  0  0  0  0  0  0  0  0
   -0.7970    1.3230    2.0430 H   0  0  0  0  0  0  0  0  0  0  0  0
    1.1490    0.0290    0.1370 H   0  0  0  0  0  0  0  0  0  0  0  0
   -5.0160   -3.1120   -3.9610 N   0  0  0  0  0  0  0  0  0  0  0  0
   -4.0600   -2.3990   -3.1980 C   0  0  0  0  0  0  0  0  0  0  0  0
   -4.4350   -1.3130   -2.6910 O   0  0  0  0  0  0  0  0  0  0  0  0
   -2.6900   -2.9440   -3.0280 C   0  0  0  0  0  0  0  0  0  0  0  0
   -1.7920   -2.1230   -2.1880 C   0  0  0  0  0  0  0  0  0  0  0  0
   -2.2350   -1.8990   -0.7780 C   0  0  2  0  0  0  0  0  0  0  0  0
   -1.2140   -1.0800   -0.1490 N   0  0  0  0  0  0  0  0  0  0  0  0
   -2.4480   -3.1090   -0.0030 C   0  0  0  0  0  0  0  0  0  0  0  0
   -1.7820   -3.2990    1.0440 O   0  0  0  0  0  0  0  0  0  0  0  0
   -3.3510   -4.1130   -0.3210 O   0  0  0  0  0  0  0  0  0  0  0  0
   -5.7060   -2.5800   -4.5180 H   0  0  0  0  0  0  0  0  0  0  0  0
   -5.0310   -4.1470   -3.9690 H   0  0  0  0  0  0  0  0  0  0  0  0
   -2.7060   -4.0220   -2.7110 H   0  0  0  0  0  0  0  0  0  0  0  0
   -2.2470   -2.9710   -4.0590 H   0  0  0  0  0  0  0  0  0  0  0  0
   -0.8010   -2.5750   -2.1730 H   0  0  0  0  0  0  0  0  0  0  0  0
   -1.6950   -1.1160   -2.6650 H   0  0  0  0  0  0  0  0  0  0  0  0
   -3.1840   -1.3030   -0.7300 H   0  0  0  0  0  0  0  0  0  0  0  0
   -0.2270   -1.4310   -0.0590 H   0  0  0  0  0  0  0  0  0  0  0  0
  1  9  1  0  0  0  0
  1 11  1  0  0  0  0
  2  3  1  0  0  0  0
  2  1  1  0  0  0  0
  3 13  1  0  0  0  0
  3 14  1  0  0  0  0
  4  5  1  0  0  0  0
  4  2  1  0  0  0  0
  5 18  1  6  0  0  0
  5  7  1  0  0  0  0
  5  6  1  0  0  0  0
  6 19  1  0  0  0  0
  7  8  2  0  0  0  0
 10  1  1  0  0  0  0
 12  2  1  0  0  0  0
 15  3  1  0  0  0  0
 16  4  1  0  0  0  0
 17  4  1  0  0  0  0
 20  6  1  0  0  0  0
 21 30  1  0  0  0  0
 21 22  1  0  0  0  0
 22 23  1  0  0  0  0
 23 33  1  0  0  0  0
 23 32  1  0  0  0  0
 24 34  1  0  0  0  0
 24 23  1  0  0  0  0
 24 25  1  0  0  0  0
 25 26  1  0  0  0  0
 25 36  1  1  0  0  0
 26  7  1  0  0  0  0
 27 25  1  0  0  0  0
 28 27  2  0  0  0  0
 29 21  1  0  0  0  0
 31 21  1  0  0  0  0
 35 24  1  0  0  0  0
 37 26  1  0  0  0  0
 38 39  1  0  0  0  0
 39 41  1  0  0  0  0
 39 40  2  0  0  0  0
 41 50  1  0  0  0  0
 41 42  1  0  0  0  0
 42 52  1  0  0  0  0
 42 43  1  0  0  0  0
 43 54  1  6  0  0  0
 43 44  1  0  0  0  0
 43 45  1  0  0  0  0
 44 55  1  0  0  0  0
 44 27  1  0  0  0  0
 45 46  1  0  0  0  0
 47 45  2  0  0  0  0
 48 38  1  0  0  0  0
 49 38  1  0  0  0  0
 51 41  1  0  0  0  0
 53 42  1  0  0  0  0
M  END
$$$$
