LMR.pdb
 OpenBabel07022418463D

 61 60  0  0  1  0  0  0  0  0999 V2000
    3.0490   -1.5680    4.5590 C   0  0  0  0  0  0  0  0  0  0  0  0
    2.3160   -0.2950    4.1720 C   0  0  0  0  0  0  0  0  0  0  0  0
    2.1860    0.5570    5.3820 C   0  0  0  0  0  0  0  0  0  0  0  0
    3.0380    0.3180    3.0290 C   0  0  0  0  0  0  0  0  0  0  0  0
    2.4350    1.5990    2.5210 C   0  0  2  0  0  0  0  0  0  0  0  0
    2.4020    2.6250    3.5590 N   0  0  0  0  0  0  0  0  0  0  0  0
    1.1070    1.4140    1.9040 C   0  0  0  0  0  0  0  0  0  0  0  0
    0.1390    2.1020    2.2980 O   0  0  0  0  0  0  0  0  0  0  0  0
    2.4980   -2.1270    5.3410 H   0  0  0  0  0  0  0  0  0  0  0  0
    4.0010   -1.2310    5.0490 H   0  0  0  0  0  0  0  0  0  0  0  0
    3.3000   -2.1820    3.6720 H   0  0  0  0  0  0  0  0  0  0  0  0
    1.2760   -0.6360    3.8920 H   0  0  0  0  0  0  0  0  0  0  0  0
    2.1090   -0.1170    6.2780 H   0  0  0  0  0  0  0  0  0  0  0  0
    1.1990    1.1010    5.3690 H   0  0  0  0  0  0  0  0  0  0  0  0
    3.0260    1.2300    5.5840 H   0  0  0  0  0  0  0  0  0  0  0  0
    3.0440   -0.4070    2.1900 H   0  0  0  0  0  0  0  0  0  0  0  0
    4.0730    0.5120    3.3160 H   0  0  0  0  0  0  0  0  0  0  0  0
    3.1190    1.9900    1.7390 H   0  0  0  0  0  0  0  0  0  0  0  0
    1.6940    3.3270    3.2450 H   0  0  0  0  0  0  0  0  0  0  0  0
    3.3050    3.1030    3.6700 H   0  0  0  0  0  0  0  0  0  0  0  0
    1.2350    2.0400   -3.9120 C   0  0  0  0  0  0  0  0  0  0  0  0
   -0.0000    2.8680   -2.8870 S   0  0  0  0  0  0  0  0  0  0  0  0
   -0.0280    2.2420   -1.2030 C   0  0  0  0  0  0  0  0  0  0  0  0
   -0.4950    0.7990   -1.1340 C   0  0  0  0  0  0  0  0  0  0  0  0
   -0.4880    0.3570    0.3070 C   0  0  2  0  0  0  0  0  0  0  0  0
    0.8740    0.4790    0.8690 N   0  0  0  0  0  0  0  0  0  0  0  0
   -0.9080   -1.0260    0.5360 C   0  0  0  0  0  0  0  0  0  0  0  0
   -0.1170   -1.8100    1.1420 O   0  0  0  0  0  0  0  0  0  0  0  0
    1.0740    0.9680   -4.0310 H   0  0  0  0  0  0  0  0  0  0  0  0
    2.2780    2.2210   -3.5280 H   0  0  0  0  0  0  0  0  0  0  0  0
    1.2010    2.5050   -4.9180 H   0  0  0  0  0  0  0  0  0  0  0  0
    0.9620    2.3430   -0.7120 H   0  0  0  0  0  0  0  0  0  0  0  0
   -0.7360    2.8740   -0.6260 H   0  0  0  0  0  0  0  0  0  0  0  0
   -0.0180    0.1290   -1.8380 H   0  0  0  0  0  0  0  0  0  0  0  0
   -1.5990    0.8250   -1.4090 H   0  0  0  0  0  0  0  0  0  0  0  0
   -1.1600    1.0910    0.8380 H   0  0  0  0  0  0  0  0  0  0  0  0
    1.6200   -0.1320    0.4830 H   0  0  0  0  0  0  0  0  0  0  0  0
   -4.5670   -1.3860   -2.7730 N   0  0  0  0  0  0  0  0  0  0  0  0
   -3.5570   -2.2720   -3.2210 C   0  0  0  0  0  0  0  0  0  0  0  0
   -3.8220   -3.2350   -4.0570 N   0  0  0  0  0  0  0  0  0  0  0  0
   -2.2040   -2.1380   -2.7650 N   0  0  0  0  0  0  0  0  0  0  0  0
   -1.3400   -3.2660   -2.6310 C   0  0  0  0  0  0  0  0  0  0  0  0
   -1.6550   -4.2660   -1.6110 C   0  0  0  0  0  0  0  0  0  0  0  0
   -1.6500   -4.0100   -0.1830 C   0  0  0  0  0  0  0  0  0  0  0  0
   -2.4670   -2.9830    0.4760 C   0  0  2  0  0  0  0  0  0  0  0  0
   -2.1670   -1.6150    0.1420 N   0  0  0  0  0  0  0  0  0  0  0  0
   -2.3510   -3.1440    1.9730 C   0  0  0  0  0  0  0  0  0  0  0  0
   -2.5030   -4.2650    2.5100 O   0  0  0  0  0  0  0  0  0  0  0  0
   -2.0770   -2.0540    2.7640 O   0  0  0  0  0  0  0  0  0  0  0  0
   -4.7810   -0.5080   -3.2750 H   0  0  0  0  0  0  0  0  0  0  0  0
   -5.1050   -1.6200   -1.9230 H   0  0  0  0  0  0  0  0  0  0  0  0
   -4.8090   -3.3170   -4.3750 H   0  0  0  0  0  0  0  0  0  0  0  0
   -1.9070   -1.1690   -2.5640 H   0  0  0  0  0  0  0  0  0  0  0  0
   -1.1660   -3.7160   -3.6560 H   0  0  0  0  0  0  0  0  0  0  0  0
   -0.3010   -2.8650   -2.3860 H   0  0  0  0  0  0  0  0  0  0  0  0
   -2.6420   -4.8050   -1.8440 H   0  0  0  0  0  0  0  0  0  0  0  0
   -0.9110   -5.1360   -1.8080 H   0  0  0  0  0  0  0  0  0  0  0  0
   -0.5370   -3.8700    0.1350 H   0  0  0  0  0  0  0  0  0  0  0  0
   -1.8510   -5.0410    0.3170 H   0  0  0  0  0  0  0  0  0  0  0  0
   -3.5770   -3.1750    0.2680 H   0  0  0  0  0  0  0  0  0  0  0  0
   -2.7950   -0.9600   -0.3680 H   0  0  0  0  0  0  0  0  0  0  0  0
  1 10  1  0  0  0  0
  1  9  1  0  0  0  0
  2  1  1  0  0  0  0
  2  3  1  0  0  0  0
  3 15  1  0  0  0  0
  3 13  1  0  0  0  0
  4 17  1  0  0  0  0
  4  2  1  0  0  0  0
  5 18  1  6  0  0  0
  5  4  1  0  0  0  0
  5  6  1  0  0  0  0
  6 20  1  0  0  0  0
  7  8  2  0  0  0  0
  7  5  1  0  0  0  0
 11  1  1  0  0  0  0
 12  2  1  0  0  0  0
 14  3  1  0  0  0  0
 16  4  1  0  0  0  0
 19  6  1  0  0  0  0
 21 30  1  0  0  0  0
 21 22  1  0  0  0  0
 22 23  1  0  0  0  0
 23 24  1  0  0  0  0
 23 32  1  0  0  0  0
 23 33  1  0  0  0  0
 24 25  1  0  0  0  0
 25 27  1  0  0  0  0
 25 36  1  1  0  0  0
 25 26  1  0  0  0  0
 26  7  1  0  0  0  0
 27 28  2  0  0  0  0
 29 21  1  0  0  0  0
 31 21  1  0  0  0  0
 34 24  1  0  0  0  0
 35 24  1  0  0  0  0
 37 26  1  0  0  0  0
 38 51  1  0  0  0  0
 39 38  1  0  0  0  0
 39 41  1  0  0  0  0
 40 39  2  0  0  0  0
 41 42  1  0  0  0  0
 41 53  1  0  0  0  0
 42 55  1  0  0  0  0
 42 43  1  0  0  0  0
 43 44  1  0  0  0  0
 44 58  1  0  0  0  0
 44 59  1  0  0  0  0
 44 45  1  0  0  0  0
 45 60  1  6  0  0  0
 45 47  1  0  0  0  0
 46 45  1  0  0  0  0
 46 27  1  0  0  0  0
 47 48  2  0  0  0  0
 47 49  1  0  0  0  0
 50 38  1  0  0  0  0
 52 40  1  0  0  0  0
 54 42  1  0  0  0  0
 56 43  1  0  0  0  0
 57 43  1  0  0  0  0
 61 46  1  0  0  0  0
M  END
$$$$
