LMW.pdb
 OpenBabel07022418473D

 62 63  0  0  1  0  0  0  0  0999 V2000
    0.9930   -1.2660    2.9870 C   0  0  0  0  0  0  0  0  0  0  0  0
    2.3640   -1.7960    2.8680 C   0  0  0  0  0  0  0  0  0  0  0  0
    3.1220   -1.5720    4.1580 C   0  0  0  0  0  0  0  0  0  0  0  0
    3.1410   -1.3180    1.6780 C   0  0  0  0  0  0  0  0  0  0  0  0
    3.3180    0.1700    1.6270 C   0  0  2  0  0  0  0  0  0  0  0  0
    3.9990    0.6910    2.7730 N   0  0  0  0  0  0  0  0  0  0  0  0
    2.1090    0.9220    1.2250 C   0  0  0  0  0  0  0  0  0  0  0  0
    1.6370    1.8800    1.8790 O   0  0  0  0  0  0  0  0  0  0  0  0
    1.0570   -0.2570    3.4960 H   0  0  0  0  0  0  0  0  0  0  0  0
    0.4250   -1.8860    3.7190 H   0  0  0  0  0  0  0  0  0  0  0  0
    0.4100   -1.2150    2.0710 H   0  0  0  0  0  0  0  0  0  0  0  0
    2.2920   -2.9160    2.7580 H   0  0  0  0  0  0  0  0  0  0  0  0
    4.2180   -1.5660    3.9350 H   0  0  0  0  0  0  0  0  0  0  0  0
    2.8720   -2.3620    4.9070 H   0  0  0  0  0  0  0  0  0  0  0  0
    2.8340   -0.6090    4.6140 H   0  0  0  0  0  0  0  0  0  0  0  0
    4.1630   -1.7580    1.7630 H   0  0  0  0  0  0  0  0  0  0  0  0
    2.7240   -1.6670    0.7310 H   0  0  0  0  0  0  0  0  0  0  0  0
    4.0360    0.3370    0.7620 H   0  0  0  0  0  0  0  0  0  0  0  0
    3.6410    1.6160    3.0970 H   0  0  0  0  0  0  0  0  0  0  0  0
    5.0260    0.6270    2.7440 H   0  0  0  0  0  0  0  0  0  0  0  0
   -0.7780    1.7000   -4.5590 C   0  0  0  0  0  0  0  0  0  0  0  0
   -1.3630    2.6660   -3.1480 S   0  0  0  0  0  0  0  0  0  0  0  0
    0.0090    3.1870   -2.1580 C   0  0  0  0  0  0  0  0  0  0  0  0
    0.8010    2.1890   -1.4490 C   0  0  0  0  0  0  0  0  0  0  0  0
    0.2240    1.3410   -0.3630 C   0  0  2  0  0  0  0  0  0  0  0  0
    1.4530    0.5400    0.0330 N   0  0  0  0  0  0  0  0  0  0  0  0
   -0.7120    0.3340   -0.8160 C   0  0  0  0  0  0  0  0  0  0  0  0
   -0.2550   -0.8430   -1.0640 O   0  0  0  0  0  0  0  0  0  0  0  0
   -0.1760    2.3610   -5.2460 H   0  0  0  0  0  0  0  0  0  0  0  0
   -1.6590    1.3690   -5.1510 H   0  0  0  0  0  0  0  0  0  0  0  0
   -0.1930    0.8050   -4.2610 H   0  0  0  0  0  0  0  0  0  0  0  0
   -0.4110    3.9670   -1.4270 H   0  0  0  0  0  0  0  0  0  0  0  0
    0.7280    3.8520   -2.7580 H   0  0  0  0  0  0  0  0  0  0  0  0
    1.7250    2.7430   -1.0430 H   0  0  0  0  0  0  0  0  0  0  0  0
    1.3210    1.5150   -2.2220 H   0  0  0  0  0  0  0  0  0  0  0  0
   -0.0850    1.9480    0.5170 H   0  0  0  0  0  0  0  0  0  0  0  0
    1.7250   -0.2330   -0.6010 H   0  0  0  0  0  0  0  0  0  0  0  0
   -2.1190    0.4440   -1.0270 N   0  0  0  0  0  0  0  0  0  0  0  0
   -2.9150   -0.6630   -1.4590 C   0  0  1  0  0  0  0  0  0  0  0  0
   -3.8350   -1.1650   -0.3400 C   0  0  0  0  0  0  0  0  0  0  0  0
   -3.1160   -1.6410    0.8400 C   0  0  0  0  0  0  0  0  0  0  0  0
   -2.9590   -0.9940    2.0430 C   0  0  0  0  0  0  0  0  0  0  0  0
   -2.2440   -1.7650    2.8920 N   0  0  0  0  0  0  0  0  0  0  0  0
   -1.9170   -2.9180    2.2810 C   0  0  0  0  0  0  0  0  0  0  0  0
   -1.2000   -4.0400    2.7060 C   0  0  0  0  0  0  0  0  0  0  0  0
   -1.0190   -5.0950    1.8550 C   0  0  0  0  0  0  0  0  0  0  0  0
   -1.5560   -5.0230    0.5850 C   0  0  0  0  0  0  0  0  0  0  0  0
   -2.2660   -3.9160    0.1590 C   0  0  0  0  0  0  0  0  0  0  0  0
   -2.4460   -2.8600    1.0130 C   0  0  0  0  0  0  0  0  0  0  0  0
   -3.6920   -0.4560   -2.6780 C   0  0  0  0  0  0  0  0  0  0  0  0
   -3.7460    0.6090   -3.3000 O   0  0  0  0  0  0  0  0  0  0  0  0
   -4.4430   -1.5360   -3.2000 O   0  0  0  0  0  0  0  0  0  0  0  0
   -2.5280    1.4000   -0.8210 H   0  0  0  0  0  0  0  0  0  0  0  0
   -2.2240   -1.5370   -1.6340 H   0  0  0  0  0  0  0  0  0  0  0  0
   -4.5060   -0.3350   -0.0870 H   0  0  0  0  0  0  0  0  0  0  0  0
   -4.4080   -2.0390   -0.7650 H   0  0  0  0  0  0  0  0  0  0  0  0
   -3.3490   -0.0220    2.2670 H   0  0  0  0  0  0  0  0  0  0  0  0
   -1.9960   -1.4820    3.8720 H   0  0  0  0  0  0  0  0  0  0  0  0
   -0.7950   -4.0590    3.7070 H   0  0  0  0  0  0  0  0  0  0  0  0
   -0.4570   -5.9860    2.1740 H   0  0  0  0  0  0  0  0  0  0  0  0
   -1.4100   -5.8610   -0.0830 H   0  0  0  0  0  0  0  0  0  0  0  0
   -2.6920   -3.8530   -0.8410 H   0  0  0  0  0  0  0  0  0  0  0  0
  1  9  1  0  0  0  0
  1 10  1  0  0  0  0
  2  1  1  0  0  0  0
  2  3  1  0  0  0  0
  3 15  1  0  0  0  0
  3 14  1  0  0  0  0
  4 16  1  0  0  0  0
  4  2  1  0  0  0  0
  5 18  1  6  0  0  0
  5  4  1  0  0  0  0
  5  6  1  0  0  0  0
  6 19  1  0  0  0  0
  7  5  1  0  0  0  0
  7  8  2  0  0  0  0
 11  1  1  0  0  0  0
 12  2  1  0  0  0  0
 13  3  1  0  0  0  0
 17  4  1  0  0  0  0
 20  6  1  0  0  0  0
 21 31  1  0  0  0  0
 21 22  1  0  0  0  0
 22 23  1  0  0  0  0
 23 24  1  0  0  0  0
 23 32  1  0  0  0  0
 24 34  1  0  0  0  0
 24 25  1  0  0  0  0
 25 26  1  0  0  0  0
 25 36  1  1  0  0  0
 26  7  1  0  0  0  0
 27 25  1  0  0  0  0
 28 27  2  0  0  0  0
 29 21  1  0  0  0  0
 30 21  1  0  0  0  0
 33 23  1  0  0  0  0
 35 24  1  0  0  0  0
 37 26  1  0  0  0  0
 38 53  1  0  0  0  0
 38 27  1  0  0  0  0
 39 54  1  6  0  0  0
 39 38  1  0  0  0  0
 39 40  1  0  0  0  0
 40 55  1  0  0  0  0
 40 41  1  0  0  0  0
 41 49  1  0  0  0  0
 41 42  2  0  0  0  0
 42 57  1  0  0  0  0
 42 43  1  0  0  0  0
 43 58  1  0  0  0  0
 44 45  1  0  0  0  0
 44 43  1  0  0  0  0
 45 59  1  0  0  0  0
 46 60  1  0  0  0  0
 46 45  2  0  0  0  0
 47 46  1  0  0  0  0
 48 47  2  0  0  0  0
 48 49  1  0  0  0  0
 49 44  2  0  0  0  0
 50 39  1  0  0  0  0
 51 50  2  0  0  0  0
 52 50  1  0  0  0  0
 56 40  1  0  0  0  0
 61 47  1  0  0  0  0
 62 48  1  0  0  0  0
M  END
$$$$
