LNA.pdb
 OpenBabel07022418443D

 45 44  0  0  1  0  0  0  0  0999 V2000
   -1.0060   -3.6200   -2.2650 C   0  0  0  0  0  0  0  0  0  0  0  0
    0.4550   -3.2740   -2.1090 C   0  0  0  0  0  0  0  0  0  0  0  0
    1.1390   -4.0200   -1.0030 C   0  0  0  0  0  0  0  0  0  0  0  0
    0.7820   -1.8400   -2.2070 C   0  0  0  0  0  0  0  0  0  0  0  0
    0.1770   -0.8690   -1.2880 C   0  0  2  0  0  0  0  0  0  0  0  0
    0.7160    0.4480   -1.6590 N   0  0  0  0  0  0  0  0  0  0  0  0
    0.2440   -1.1020    0.1450 C   0  0  0  0  0  0  0  0  0  0  0  0
   -0.2750   -2.1420    0.6290 O   0  0  0  0  0  0  0  0  0  0  0  0
   -1.6040   -2.8240   -2.7010 H   0  0  0  0  0  0  0  0  0  0  0  0
   -1.1760   -4.5430   -2.8570 H   0  0  0  0  0  0  0  0  0  0  0  0
   -1.3960   -3.8550   -1.2350 H   0  0  0  0  0  0  0  0  0  0  0  0
    0.9130   -3.7270   -3.0710 H   0  0  0  0  0  0  0  0  0  0  0  0
    1.7790   -4.8760   -1.3920 H   0  0  0  0  0  0  0  0  0  0  0  0
    1.8680   -3.4140   -0.4260 H   0  0  0  0  0  0  0  0  0  0  0  0
    0.4070   -4.5690   -0.3400 H   0  0  0  0  0  0  0  0  0  0  0  0
    1.8960   -1.7500   -2.1200 H   0  0  0  0  0  0  0  0  0  0  0  0
    0.5670   -1.5040   -3.2520 H   0  0  0  0  0  0  0  0  0  0  0  0
   -0.9190   -0.7790   -1.5660 H   0  0  0  0  0  0  0  0  0  0  0  0
    1.7230    0.4290   -1.8290 H   0  0  0  0  0  0  0  0  0  0  0  0
    0.3550    1.1970   -1.0620 H   0  0  0  0  0  0  0  0  0  0  0  0
    3.2190   -1.9890    1.5490 N   0  0  0  0  0  0  0  0  0  0  0  0
    3.3280   -1.0890    2.6370 C   0  0  0  0  0  0  0  0  0  0  0  0
    4.4440   -0.9600    3.2010 O   0  0  0  0  0  0  0  0  0  0  0  0
    2.2100   -0.3000    3.1410 C   0  0  0  0  0  0  0  0  0  0  0  0
    0.9040   -0.4920    2.4390 C   0  0  2  0  0  0  0  0  0  0  0  0
    0.8880   -0.1830    1.0540 N   0  0  0  0  0  0  0  0  0  0  0  0
   -0.0560    0.4750    3.1020 C   0  0  0  0  0  0  0  0  0  0  0  0
   -0.2330    0.4190    4.3460 O   0  0  0  0  0  0  0  0  0  0  0  0
    3.2340   -1.6850    0.5480 H   0  0  0  0  0  0  0  0  0  0  0  0
    3.1150   -3.0330    1.6960 H   0  0  0  0  0  0  0  0  0  0  0  0
    2.0410   -0.6180    4.2100 H   0  0  0  0  0  0  0  0  0  0  0  0
    2.5130    0.7630    3.2040 H   0  0  0  0  0  0  0  0  0  0  0  0
    0.4520   -1.4840    2.6340 H   0  0  0  0  0  0  0  0  0  0  0  0
    1.3120    0.6620    0.6690 H   0  0  0  0  0  0  0  0  0  0  0  0
   -1.2740    3.8210    2.7740 C   0  0  0  0  0  0  0  0  0  0  0  0
   -1.6860    2.3840    2.9540 C   0  0  2  0  0  0  0  0  0  0  0  0
   -0.7720    1.4510    2.3820 N   0  0  0  0  0  0  0  0  0  0  0  0
   -3.0760    2.1510    2.4550 C   0  0  0  0  0  0  0  0  0  0  0  0
   -3.2670    1.2220    1.6430 O   0  0  0  0  0  0  0  0  0  0  0  0
   -4.1460    2.9150    2.8530 O   0  0  0  0  0  0  0  0  0  0  0  0
   -0.4630    4.0290    3.5040 H   0  0  0  0  0  0  0  0  0  0  0  0
   -2.1400    4.4530    3.0980 H   0  0  0  0  0  0  0  0  0  0  0  0
   -1.0060    4.0420    1.7350 H   0  0  0  0  0  0  0  0  0  0  0  0
   -1.7240    2.1980    4.0540 H   0  0  0  0  0  0  0  0  0  0  0  0
   -0.6170    1.4910    1.3400 H   0  0  0  0  0  0  0  0  0  0  0  0
  1  2  1  0  0  0  0
  1 11  1  0  0  0  0
  2  3  1  0  0  0  0
  3 14  1  0  0  0  0
  3 15  1  0  0  0  0
  4 16  1  0  0  0  0
  4  2  1  0  0  0  0
  4  5  1  0  0  0  0
  5 18  1  6  0  0  0
  5  7  1  0  0  0  0
  6  5  1  0  0  0  0
  6 20  1  0  0  0  0
  7  8  2  0  0  0  0
  7 26  1  0  0  0  0
  9  1  1  0  0  0  0
 10  1  1  0  0  0  0
 12  2  1  0  0  0  0
 13  3  1  0  0  0  0
 17  4  1  0  0  0  0
 19  6  1  0  0  0  0
 21 30  1  0  0  0  0
 21 22  1  0  0  0  0
 22 24  1  0  0  0  0
 22 23  2  0  0  0  0
 24 32  1  0  0  0  0
 24 31  1  0  0  0  0
 25 33  1  1  0  0  0
 25 27  1  0  0  0  0
 25 24  1  0  0  0  0
 26 25  1  0  0  0  0
 27 28  2  0  0  0  0
 29 21  1  0  0  0  0
 34 26  1  0  0  0  0
 35 36  1  0  0  0  0
 35 42  1  0  0  0  0
 35 41  1  0  0  0  0
 36 44  1  1  0  0  0
 37 36  1  0  0  0  0
 37 27  1  0  0  0  0
 38 40  1  0  0  0  0
 38 36  1  0  0  0  0
 39 38  2  0  0  0  0
 43 35  1  0  0  0  0
 45 37  1  0  0  0  0
M  END
$$$$
