LNC.pdb
 OpenBabel07022418443D

 46 45  0  0  1  0  0  0  0  0999 V2000
   -1.5130   -3.8790    1.6080 C   0  0  0  0  0  0  0  0  0  0  0  0
   -0.0050   -3.7010    1.7520 C   0  0  0  0  0  0  0  0  0  0  0  0
    0.3540   -4.1950    3.1400 C   0  0  0  0  0  0  0  0  0  0  0  0
    0.2560   -2.2230    1.6020 C   0  0  0  0  0  0  0  0  0  0  0  0
    1.7070   -1.8590    1.7160 C   0  0  2  0  0  0  0  0  0  0  0  0
    2.3120   -2.2020    2.9540 N   0  0  0  0  0  0  0  0  0  0  0  0
    1.8000   -0.3830    1.4770 C   0  0  0  0  0  0  0  0  0  0  0  0
    2.3560    0.3350    2.3320 O   0  0  0  0  0  0  0  0  0  0  0  0
   -1.7950   -4.8720    2.0110 H   0  0  0  0  0  0  0  0  0  0  0  0
   -1.9810   -3.0440    2.1610 H   0  0  0  0  0  0  0  0  0  0  0  0
   -1.7600   -3.7810    0.5290 H   0  0  0  0  0  0  0  0  0  0  0  0
    0.4480   -4.3040    0.9500 H   0  0  0  0  0  0  0  0  0  0  0  0
    1.2980   -4.7470    3.1690 H   0  0  0  0  0  0  0  0  0  0  0  0
   -0.4280   -4.8930    3.5450 H   0  0  0  0  0  0  0  0  0  0  0  0
    0.3260   -3.3140    3.8200 H   0  0  0  0  0  0  0  0  0  0  0  0
   -0.1370   -1.9290    0.6070 H   0  0  0  0  0  0  0  0  0  0  0  0
   -0.3740   -1.7040    2.3540 H   0  0  0  0  0  0  0  0  0  0  0  0
    2.2470   -2.4050    0.9050 H   0  0  0  0  0  0  0  0  0  0  0  0
    3.2300   -2.6470    2.9060 H   0  0  0  0  0  0  0  0  0  0  0  0
    2.3790   -1.4020    3.6240 H   0  0  0  0  0  0  0  0  0  0  0  0
    4.0630    0.6920   -0.2620 N   0  0  0  0  0  0  0  0  0  0  0  0
    3.4070    1.3110   -1.3310 C   0  0  0  0  0  0  0  0  0  0  0  0
    4.0480    1.4390   -2.4140 O   0  0  0  0  0  0  0  0  0  0  0  0
    2.0440    1.8200   -1.2950 C   0  0  0  0  0  0  0  0  0  0  0  0
    1.3340    1.6360    0.0150 C   0  0  2  0  0  0  0  0  0  0  0  0
    1.2740    0.2190    0.3050 N   0  0  0  0  0  0  0  0  0  0  0  0
   -0.0390    2.2120   -0.0350 C   0  0  0  0  0  0  0  0  0  0  0  0
   -0.1500    3.4360   -0.2770 O   0  0  0  0  0  0  0  0  0  0  0  0
    4.2040   -0.3480   -0.3090 H   0  0  0  0  0  0  0  0  0  0  0  0
    4.4190    1.2210    0.5820 H   0  0  0  0  0  0  0  0  0  0  0  0
    2.1060    2.9350   -1.4680 H   0  0  0  0  0  0  0  0  0  0  0  0
    1.4190    1.4600   -2.1570 H   0  0  0  0  0  0  0  0  0  0  0  0
    1.9380    2.1040    0.8150 H   0  0  0  0  0  0  0  0  0  0  0  0
    0.8150   -0.4220   -0.3820 H   0  0  0  0  0  0  0  0  0  0  0  0
   -1.2100    1.4490    0.1760 N   0  0  0  0  0  0  0  0  0  0  0  0
   -2.5470    2.0070    0.1280 C   0  0  1  0  0  0  0  0  0  0  0  0
   -3.3100    1.2750   -0.9850 C   0  0  0  0  0  0  0  0  0  0  0  0
   -3.3960   -0.4920   -0.6500 S   0  0  0  0  0  0  0  0  0  0  0  0
   -3.2850    1.7530    1.3920 C   0  0  0  0  0  0  0  0  0  0  0  0
   -4.4640    2.1640    1.5340 O   0  0  0  0  0  0  0  0  0  0  0  0
   -2.6530    1.0610    2.4010 O   0  0  0  0  0  0  0  0  0  0  0  0
   -1.1080    0.4300    0.3780 H   0  0  0  0  0  0  0  0  0  0  0  0
   -2.5160    3.0880   -0.0920 H   0  0  0  0  0  0  0  0  0  0  0  0
   -4.3140    1.7280   -1.1310 H   0  0  0  0  0  0  0  0  0  0  0  0
   -2.7750    1.4030   -1.9650 H   0  0  0  0  0  0  0  0  0  0  0  0
   -2.2910   -1.1260   -1.2570 H   0  0  0  0  0  0  0  0  0  0  0  0
  1  2  1  0  0  0  0
  1  9  1  0  0  0  0
  1 10  1  0  0  0  0
  2  3  1  0  0  0  0
  3 13  1  0  0  0  0
  3 14  1  0  0  0  0
  3 15  1  0  0  0  0
  4  5  1  0  0  0  0
  4  2  1  0  0  0  0
  4 17  1  0  0  0  0
  5 18  1  6  0  0  0
  5  6  1  0  0  0  0
  6 20  1  0  0  0  0
  7  5  1  0  0  0  0
  7  8  2  0  0  0  0
 11  1  1  0  0  0  0
 12  2  1  0  0  0  0
 16  4  1  0  0  0  0
 19  6  1  0  0  0  0
 21 30  1  0  0  0  0
 22 24  1  0  0  0  0
 22 21  1  0  0  0  0
 23 22  2  0  0  0  0
 24 25  1  0  0  0  0
 25 26  1  0  0  0  0
 25 33  1  1  0  0  0
 26  7  1  0  0  0  0
 27 25  1  0  0  0  0
 27 35  1  0  0  0  0
 28 27  2  0  0  0  0
 29 21  1  0  0  0  0
 31 24  1  0  0  0  0
 32 24  1  0  0  0  0
 34 26  1  0  0  0  0
 35 42  1  0  0  0  0
 36 43  1  6  0  0  0
 36 35  1  0  0  0  0
 36 39  1  0  0  0  0
 37 38  1  0  0  0  0
 37 36  1  0  0  0  0
 39 40  2  0  0  0  0
 39 41  1  0  0  0  0
 44 37  1  0  0  0  0
 45 37  1  0  0  0  0
 46 38  1  0  0  0  0
M  END
$$$$
