LNE.pdb
 OpenBabel07022418443D

 51 50  0  0  1  0  0  0  0  0999 V2000
    1.8510   -2.1200    4.4670 C   0  0  0  0  0  0  0  0  0  0  0  0
    1.6070   -2.4110    2.9990 C   0  0  0  0  0  0  0  0  0  0  0  0
    0.1960   -2.0830    2.6730 C   0  0  0  0  0  0  0  0  0  0  0  0
    2.6510   -1.8550    2.1070 C   0  0  0  0  0  0  0  0  0  0  0  0
    2.8550   -0.3920    2.1270 C   0  0  2  0  0  0  0  0  0  0  0  0
    3.2230    0.0150    3.4680 N   0  0  0  0  0  0  0  0  0  0  0  0
    1.8150    0.4480    1.5490 C   0  0  0  0  0  0  0  0  0  0  0  0
    1.3380    1.3660    2.2840 O   0  0  0  0  0  0  0  0  0  0  0  0
    1.3270   -2.9160    5.0430 H   0  0  0  0  0  0  0  0  0  0  0  0
    2.9260   -2.1910    4.7120 H   0  0  0  0  0  0  0  0  0  0  0  0
    1.3970   -1.1590    4.7850 H   0  0  0  0  0  0  0  0  0  0  0  0
    1.6940   -3.5370    2.9150 H   0  0  0  0  0  0  0  0  0  0  0  0
   -0.1980   -2.6210    1.7880 H   0  0  0  0  0  0  0  0  0  0  0  0
    0.0270   -1.0070    2.6720 H   0  0  0  0  0  0  0  0  0  0  0  0
   -0.4250   -2.4850    3.5310 H   0  0  0  0  0  0  0  0  0  0  0  0
    2.4730   -2.2560    1.0820 H   0  0  0  0  0  0  0  0  0  0  0  0
    3.6280   -2.3260    2.4190 H   0  0  0  0  0  0  0  0  0  0  0  0
    3.7880   -0.1920    1.5130 H   0  0  0  0  0  0  0  0  0  0  0  0
    3.4270    1.0600    3.4810 H   0  0  0  0  0  0  0  0  0  0  0  0
    4.1750   -0.4160    3.6560 H   0  0  0  0  0  0  0  0  0  0  0  0
    2.5050    3.4700   -2.3870 N   0  0  0  0  0  0  0  0  0  0  0  0
    1.9290    2.7510   -1.3100 C   0  0  0  0  0  0  0  0  0  0  0  0
    2.4360    2.8620   -0.1750 O   0  0  0  0  0  0  0  0  0  0  0  0
    0.7660    1.9030   -1.5330 C   0  0  0  0  0  0  0  0  0  0  0  0
    0.2550    1.1920   -0.2960 C   0  0  2  0  0  0  0  0  0  0  0  0
    1.2860    0.3390    0.2480 N   0  0  0  0  0  0  0  0  0  0  0  0
   -0.9370    0.4100   -0.7620 C   0  0  0  0  0  0  0  0  0  0  0  0
   -1.8850    1.0810   -1.2290 O   0  0  0  0  0  0  0  0  0  0  0  0
    2.7100    4.4900   -2.3330 H   0  0  0  0  0  0  0  0  0  0  0  0
    2.7630    3.0190   -3.3060 H   0  0  0  0  0  0  0  0  0  0  0  0
    0.9810    1.0740   -2.2720 H   0  0  0  0  0  0  0  0  0  0  0  0
   -0.0690    2.4750   -2.0320 H   0  0  0  0  0  0  0  0  0  0  0  0
   -0.0630    1.9590    0.4330 H   0  0  0  0  0  0  0  0  0  0  0  0
    1.6700   -0.4210   -0.3780 H   0  0  0  0  0  0  0  0  0  0  0  0
   -1.0190   -0.9760   -0.6940 N   0  0  0  0  0  0  0  0  0  0  0  0
   -2.0910   -1.8150   -1.0800 C   0  0  1  0  0  0  0  0  0  0  0  0
   -3.4460   -1.2000   -1.2340 C   0  0  0  0  0  0  0  0  0  0  0  0
   -4.0880   -0.6140   -0.0460 C   0  0  0  0  0  0  0  0  0  0  0  0
   -4.3590   -1.5720    1.0690 C   0  0  0  0  0  0  0  0  0  0  0  0
   -4.8070   -1.0740    2.1320 O   0  0  0  0  0  0  0  0  0  0  0  0
   -1.8280   -2.6960   -2.2310 C   0  0  0  0  0  0  0  0  0  0  0  0
   -0.7040   -2.6520   -2.7830 O   0  0  0  0  0  0  0  0  0  0  0  0
   -4.1610   -2.9300    1.0190 O   0  0  0  0  0  0  0  0  0  0  0  0
   -2.7780   -3.5540   -2.7050 O   0  0  0  0  0  0  0  0  0  0  0  0
   -0.1510   -1.4590   -0.2980 H   0  0  0  0  0  0  0  0  0  0  0  0
   -2.2700   -2.5360   -0.1860 H   0  0  0  0  0  0  0  0  0  0  0  0
   -3.4510   -0.4150   -2.0420 H   0  0  0  0  0  0  0  0  0  0  0  0
   -4.1020   -2.0050   -1.6600 H   0  0  0  0  0  0  0  0  0  0  0  0
   -3.6810    0.2930    0.3890 H   0  0  0  0  0  0  0  0  0  0  0  0
   -5.1390   -0.3100   -0.3790 H   0  0  0  0  0  0  0  0  0  0  0  0
   -4.2120   -3.4570    1.8810 H   0  0  0  0  0  0  0  0  0  0  0  0
  1 10  1  0  0  0  0
  1 11  1  0  0  0  0
  1  9  1  0  0  0  0
  2  1  1  0  0  0  0
  3  2  1  0  0  0  0
  3 15  1  0  0  0  0
  4  5  1  0  0  0  0
  4 17  1  0  0  0  0
  4  2  1  0  0  0  0
  5 18  1  6  0  0  0
  5  6  1  0  0  0  0
  6 19  1  0  0  0  0
  6 20  1  0  0  0  0
  7  5  1  0  0  0  0
  7  8  2  0  0  0  0
 12  2  1  0  0  0  0
 13  3  1  0  0  0  0
 14  3  1  0  0  0  0
 16  4  1  0  0  0  0
 21 29  1  0  0  0  0
 21 22  1  0  0  0  0
 22 23  2  0  0  0  0
 24 22  1  0  0  0  0
 24 25  1  0  0  0  0
 25 26  1  0  0  0  0
 25 33  1  1  0  0  0
 26  7  1  0  0  0  0
 27 35  1  0  0  0  0
 27 25  1  0  0  0  0
 28 27  2  0  0  0  0
 30 21  1  0  0  0  0
 31 24  1  0  0  0  0
 32 24  1  0  0  0  0
 34 26  1  0  0  0  0
 35 45  1  0  0  0  0
 36 35  1  0  0  0  0
 36 46  1  1  0  0  0
 37 36  1  0  0  0  0
 37 38  1  0  0  0  0
 38 49  1  0  0  0  0
 38 39  1  0  0  0  0
 39 40  2  0  0  0  0
 41 36  1  0  0  0  0
 42 41  2  0  0  0  0
 43 39  1  0  0  0  0
 43 51  1  0  0  0  0
 44 41  1  0  0  0  0
 47 37  1  0  0  0  0
 48 37  1  0  0  0  0
 50 38  1  0  0  0  0
M  END
$$$$
