LNF.pdb
 OpenBabel07022418443D

 55 55  0  0  1  0  0  0  0  0999 V2000
    1.5850   -2.0570    2.7460 C   0  0  0  0  0  0  0  0  0  0  0  0
    3.0870   -1.9040    2.6420 C   0  0  0  0  0  0  0  0  0  0  0  0
    3.5220   -2.1040    1.2100 C   0  0  0  0  0  0  0  0  0  0  0  0
    3.5940   -0.7150    3.3070 C   0  0  0  0  0  0  0  0  0  0  0  0
    3.2150    0.6490    2.9340 C   0  0  2  0  0  0  0  0  0  0  0  0
    3.9410    1.5760    3.8710 N   0  0  0  0  0  0  0  0  0  0  0  0
    1.8520    1.0910    2.9500 C   0  0  0  0  0  0  0  0  0  0  0  0
    1.3480    1.6480    3.9560 O   0  0  0  0  0  0  0  0  0  0  0  0
    1.1130   -1.3100    3.4070 H   0  0  0  0  0  0  0  0  0  0  0  0
    1.3070   -3.0460    3.2390 H   0  0  0  0  0  0  0  0  0  0  0  0
    1.1530   -2.1430    1.7400 H   0  0  0  0  0  0  0  0  0  0  0  0
    3.5110   -2.8060    3.1840 H   0  0  0  0  0  0  0  0  0  0  0  0
    4.5180   -1.7250    0.9890 H   0  0  0  0  0  0  0  0  0  0  0  0
    2.7260   -1.6720    0.5320 H   0  0  0  0  0  0  0  0  0  0  0  0
    3.5160   -3.1880    0.9650 H   0  0  0  0  0  0  0  0  0  0  0  0
    4.7300   -0.7870    3.3690 H   0  0  0  0  0  0  0  0  0  0  0  0
    3.3270   -0.8360    4.4110 H   0  0  0  0  0  0  0  0  0  0  0  0
    3.7170    0.8940    1.9490 H   0  0  0  0  0  0  0  0  0  0  0  0
    3.3090    1.7200    4.6680 H   0  0  0  0  0  0  0  0  0  0  0  0
    4.8080    1.0970    4.1980 H   0  0  0  0  0  0  0  0  0  0  0  0
    0.5710    1.9450   -0.9120 N   0  0  0  0  0  0  0  0  0  0  0  0
    0.0730    2.9590   -0.0710 C   0  0  0  0  0  0  0  0  0  0  0  0
    0.0750    4.1280   -0.6210 O   0  0  0  0  0  0  0  0  0  0  0  0
   -0.4210    2.8260    1.2990 C   0  0  0  0  0  0  0  0  0  0  0  0
   -0.3830    1.3880    1.8420 C   0  0  2  0  0  0  0  0  0  0  0  0
    0.9710    0.9370    1.8190 N   0  0  0  0  0  0  0  0  0  0  0  0
   -1.3580    0.5970    1.0900 C   0  0  0  0  0  0  0  0  0  0  0  0
   -2.6040    0.8930    1.1040 O   0  0  0  0  0  0  0  0  0  0  0  0
    1.5930    1.7820   -0.9840 H   0  0  0  0  0  0  0  0  0  0  0  0
   -0.0610    1.3490   -1.4770 H   0  0  0  0  0  0  0  0  0  0  0  0
    0.2230    3.4570    1.9580 H   0  0  0  0  0  0  0  0  0  0  0  0
   -1.4560    3.2140    1.3320 H   0  0  0  0  0  0  0  0  0  0  0  0
   -0.7530    1.5390    2.9070 H   0  0  0  0  0  0  0  0  0  0  0  0
    1.3550    0.4730    0.9700 H   0  0  0  0  0  0  0  0  0  0  0  0
   -1.0270   -0.5300    0.3020 N   0  0  0  0  0  0  0  0  0  0  0  0
   -2.0330   -1.2910   -0.4280 C   0  0  1  0  0  0  0  0  0  0  0  0
   -1.7810   -1.2470   -1.9110 C   0  0  0  0  0  0  0  0  0  0  0  0
   -2.7890   -2.0160   -2.6770 C   0  0  0  0  0  0  0  0  0  0  0  0
   -3.9400   -1.3240   -3.0530 C   0  0  0  0  0  0  0  0  0  0  0  0
   -4.9290   -1.9510   -3.7740 C   0  0  0  0  0  0  0  0  0  0  0  0
   -4.7300   -3.2790   -4.1020 C   0  0  0  0  0  0  0  0  0  0  0  0
   -3.6090   -3.9650   -3.7390 C   0  0  0  0  0  0  0  0  0  0  0  0
   -2.6170   -3.3470   -3.0200 C   0  0  0  0  0  0  0  0  0  0  0  0
   -2.1420   -2.6490    0.1290 C   0  0  0  0  0  0  0  0  0  0  0  0
   -1.3780   -2.9860    1.0980 O   0  0  0  0  0  0  0  0  0  0  0  0
   -3.0260   -3.6160   -0.3210 O   0  0  0  0  0  0  0  0  0  0  0  0
   -0.0340   -0.8240    0.2300 H   0  0  0  0  0  0  0  0  0  0  0  0
   -3.0210   -0.8010   -0.2390 H   0  0  0  0  0  0  0  0  0  0  0  0
   -1.7840   -0.2120   -2.3060 H   0  0  0  0  0  0  0  0  0  0  0  0
   -0.8010   -1.7490   -2.1010 H   0  0  0  0  0  0  0  0  0  0  0  0
   -4.0620   -0.2700   -2.7740 H   0  0  0  0  0  0  0  0  0  0  0  0
   -5.8280   -1.4040   -4.0660 H   0  0  0  0  0  0  0  0  0  0  0  0
   -5.5120   -3.7700   -4.6700 H   0  0  0  0  0  0  0  0  0  0  0  0
   -3.4710   -5.0070   -4.0060 H   0  0  0  0  0  0  0  0  0  0  0  0
   -1.7100   -3.8350   -2.7090 H   0  0  0  0  0  0  0  0  0  0  0  0
  1 10  1  0  0  0  0
  1  9  1  0  0  0  0
  2  1  1  0  0  0  0
  2 12  1  0  0  0  0
  2  4  1  0  0  0  0
  3  2  1  0  0  0  0
  4 16  1  0  0  0  0
  4 17  1  0  0  0  0
  5 18  1  6  0  0  0
  5  7  1  0  0  0  0
  5  4  1  0  0  0  0
  5  6  1  0  0  0  0
  6 20  1  0  0  0  0
  6 19  1  0  0  0  0
  7  8  2  0  0  0  0
 11  1  1  0  0  0  0
 13  3  1  0  0  0  0
 14  3  1  0  0  0  0
 15  3  1  0  0  0  0
 21 22  1  0  0  0  0
 22 24  1  0  0  0  0
 23 22  2  0  0  0  0
 24 32  1  0  0  0  0
 24 25  1  0  0  0  0
 24 31  1  0  0  0  0
 25 33  1  1  0  0  0
 26 25  1  0  0  0  0
 26  7  1  0  0  0  0
 27 28  2  0  0  0  0
 27 25  1  0  0  0  0
 29 21  1  0  0  0  0
 30 21  1  0  0  0  0
 34 26  1  0  0  0  0
 35 27  1  0  0  0  0
 36 48  1  1  0  0  0
 36 44  1  0  0  0  0
 36 35  1  0  0  0  0
 37 36  1  0  0  0  0
 38 37  1  0  0  0  0
 39 51  1  0  0  0  0
 39 38  2  0  0  0  0
 40 39  1  0  0  0  0
 41 40  2  0  0  0  0
 41 42  1  0  0  0  0
 42 43  2  0  0  0  0
 43 55  1  0  0  0  0
 43 38  1  0  0  0  0
 44 45  1  0  0  0  0
 46 44  2  0  0  0  0
 47 35  1  0  0  0  0
 49 37  1  0  0  0  0
 50 37  1  0  0  0  0
 52 40  1  0  0  0  0
 53 41  1  0  0  0  0
 54 42  1  0  0  0  0
M  END
$$$$
