LNH.pdb
 OpenBabel07022418443D

 52 52  0  0  1  0  0  0  0  0999 V2000
    4.2440   -1.4870    0.1610 C   0  0  0  0  0  0  0  0  0  0  0  0
    3.5770   -1.1410    1.4760 C   0  0  0  0  0  0  0  0  0  0  0  0
    4.2800   -1.8830    2.5660 C   0  0  0  0  0  0  0  0  0  0  0  0
    3.5970    0.3460    1.6280 C   0  0  0  0  0  0  0  0  0  0  0  0
    2.9640    0.8420    2.8970 C   0  0  2  0  0  0  0  0  0  0  0  0
    3.6250    0.3220    4.0800 N   0  0  0  0  0  0  0  0  0  0  0  0
    1.5070    0.5970    2.9470 C   0  0  0  0  0  0  0  0  0  0  0  0
    0.9420    0.0120    3.9040 O   0  0  0  0  0  0  0  0  0  0  0  0
    5.0610   -0.8130   -0.0960 H   0  0  0  0  0  0  0  0  0  0  0  0
    4.6690   -2.5260    0.1840 H   0  0  0  0  0  0  0  0  0  0  0  0
    3.4960   -1.5110   -0.6830 H   0  0  0  0  0  0  0  0  0  0  0  0
    2.5400   -1.5290    1.4190 H   0  0  0  0  0  0  0  0  0  0  0  0
    4.4380   -2.9370    2.1910 H   0  0  0  0  0  0  0  0  0  0  0  0
    3.6190   -1.9730    3.4410 H   0  0  0  0  0  0  0  0  0  0  0  0
    5.2880   -1.5030    2.7950 H   0  0  0  0  0  0  0  0  0  0  0  0
    3.0230    0.7760    0.7810 H   0  0  0  0  0  0  0  0  0  0  0  0
    4.6170    0.7400    1.5760 H   0  0  0  0  0  0  0  0  0  0  0  0
    3.1030    1.9440    2.9220 H   0  0  0  0  0  0  0  0  0  0  0  0
    4.5520    0.7740    4.2320 H   0  0  0  0  0  0  0  0  0  0  0  0
    2.9700    0.4610    4.8890 H   0  0  0  0  0  0  0  0  0  0  0  0
   -0.5410    2.7200   -0.2650 N   0  0  0  0  0  0  0  0  0  0  0  0
   -1.3750    2.9590    0.8460 C   0  0  0  0  0  0  0  0  0  0  0  0
   -2.0200    4.0580    0.8210 O   0  0  0  0  0  0  0  0  0  0  0  0
   -1.5300    2.0520    1.9730 C   0  0  0  0  0  0  0  0  0  0  0  0
   -0.7340    0.7930    1.9300 C   0  0  2  0  0  0  0  0  0  0  0  0
    0.6920    1.0370    1.8740 N   0  0  0  0  0  0  0  0  0  0  0  0
   -1.0600   -0.0860    0.7630 C   0  0  0  0  0  0  0  0  0  0  0  0
   -0.1960   -0.5030   -0.0470 O   0  0  0  0  0  0  0  0  0  0  0  0
   -0.7810    1.9990   -0.9700 H   0  0  0  0  0  0  0  0  0  0  0  0
    0.3290    3.2720   -0.3910 H   0  0  0  0  0  0  0  0  0  0  0  0
   -1.1840    2.6060    2.8880 H   0  0  0  0  0  0  0  0  0  0  0  0
   -2.5880    1.7830    2.1890 H   0  0  0  0  0  0  0  0  0  0  0  0
   -1.0000    0.2390    2.8840 H   0  0  0  0  0  0  0  0  0  0  0  0
    1.0800    1.5270    1.0460 H   0  0  0  0  0  0  0  0  0  0  0  0
   -2.3970   -0.4770    0.5470 N   0  0  0  0  0  0  0  0  0  0  0  0
   -2.7190   -1.3310   -0.5850 C   0  0  1  0  0  0  0  0  0  0  0  0
   -3.3530   -2.6050   -0.1890 C   0  0  0  0  0  0  0  0  0  0  0  0
   -3.6450   -3.4270   -1.3790 C   0  0  0  0  0  0  0  0  0  0  0  0
   -2.7620   -4.3530   -1.9550 C   0  0  0  0  0  0  0  0  0  0  0  0
   -3.3170   -4.9340   -3.0150 N   0  0  0  0  0  0  0  0  0  0  0  0
   -4.5480   -4.4150   -3.1550 C   0  0  0  0  0  0  0  0  0  0  0  0
   -4.7320   -3.5130   -2.1680 N   0  0  0  0  0  0  0  0  0  0  0  0
   -3.6030   -0.5500   -1.4590 C   0  0  0  0  0  0  0  0  0  0  0  0
   -3.9910    0.5960   -1.1420 O   0  0  0  0  0  0  0  0  0  0  0  0
   -4.0250   -1.0690   -2.6620 O   0  0  0  0  0  0  0  0  0  0  0  0
   -3.2050   -0.1940    1.1540 H   0  0  0  0  0  0  0  0  0  0  0  0
   -1.7880   -1.5700   -1.1610 H   0  0  0  0  0  0  0  0  0  0  0  0
   -2.7160   -3.2400    0.4740 H   0  0  0  0  0  0  0  0  0  0  0  0
   -4.3400   -2.3920    0.2960 H   0  0  0  0  0  0  0  0  0  0  0  0
   -1.7730   -4.5290   -1.5470 H   0  0  0  0  0  0  0  0  0  0  0  0
   -2.8350   -5.6600   -3.5980 H   0  0  0  0  0  0  0  0  0  0  0  0
   -5.2280   -4.7070   -3.9400 H   0  0  0  0  0  0  0  0  0  0  0  0
  1 10  1  0  0  0  0
  1  2  1  0  0  0  0
  2  4  1  0  0  0  0
  2  3  1  0  0  0  0
  3 15  1  0  0  0  0
  3 14  1  0  0  0  0
  4  5  1  0  0  0  0
  5 18  1  1  0  0  0
  5  7  1  0  0  0  0
  5  6  1  0  0  0  0
  6 19  1  0  0  0  0
  6 20  1  0  0  0  0
  7  8  2  0  0  0  0
  9  1  1  0  0  0  0
 11  1  1  0  0  0  0
 12  2  1  0  0  0  0
 13  3  1  0  0  0  0
 16  4  1  0  0  0  0
 17  4  1  0  0  0  0
 21 22  1  0  0  0  0
 22 24  1  0  0  0  0
 23 22  2  0  0  0  0
 24 32  1  0  0  0  0
 24 31  1  0  0  0  0
 25 24  1  0  0  0  0
 25 33  1  1  0  0  0
 26 25  1  0  0  0  0
 26  7  1  0  0  0  0
 27 25  1  0  0  0  0
 28 27  2  0  0  0  0
 29 21  1  0  0  0  0
 30 21  1  0  0  0  0
 34 26  1  0  0  0  0
 35 27  1  0  0  0  0
 35 46  1  0  0  0  0
 36 47  1  6  0  0  0
 36 37  1  0  0  0  0
 36 35  1  0  0  0  0
 37 49  1  0  0  0  0
 37 48  1  0  0  0  0
 38 37  1  0  0  0  0
 39 50  1  0  0  0  0
 39 38  2  0  0  0  0
 40 39  1  0  0  0  0
 41 40  1  0  0  0  0
 41 42  2  0  0  0  0
 42 38  1  0  0  0  0
 43 44  1  0  0  0  0
 43 36  1  0  0  0  0
 45 43  2  0  0  0  0
 51 40  1  0  0  0  0
 52 41  1  0  0  0  0
M  END
$$$$
