LNL.pdb
 OpenBabel07022418443D

 54 53  0  0  1  0  0  0  0  0999 V2000
    2.3930   -4.7580    2.0670 C   0  0  0  0  0  0  0  0  0  0  0  0
    2.6130   -3.3060    2.5290 C   0  0  0  0  0  0  0  0  0  0  0  0
    1.2260   -2.7100    2.6080 C   0  0  0  0  0  0  0  0  0  0  0  0
    3.5390   -2.6120    1.5910 C   0  0  0  0  0  0  0  0  0  0  0  0
    3.8570   -1.1940    1.9080 C   0  0  2  0  0  0  0  0  0  0  0  0
    4.4720   -1.1690    3.2420 N   0  0  0  0  0  0  0  0  0  0  0  0
    2.7700   -0.2280    1.7760 C   0  0  0  0  0  0  0  0  0  0  0  0
    2.4860    0.4690    2.8010 O   0  0  0  0  0  0  0  0  0  0  0  0
    1.7370   -4.7230    1.1560 H   0  0  0  0  0  0  0  0  0  0  0  0
    3.3410   -5.2630    1.8580 H   0  0  0  0  0  0  0  0  0  0  0  0
    1.7800   -5.2440    2.8600 H   0  0  0  0  0  0  0  0  0  0  0  0
    3.0030   -3.3410    3.5710 H   0  0  0  0  0  0  0  0  0  0  0  0
    0.5960   -3.5230    3.0870 H   0  0  0  0  0  0  0  0  0  0  0  0
    0.8070   -2.5910    1.5950 H   0  0  0  0  0  0  0  0  0  0  0  0
    1.1360   -1.8470    3.2680 H   0  0  0  0  0  0  0  0  0  0  0  0
    4.4970   -3.1870    1.5600 H   0  0  0  0  0  0  0  0  0  0  0  0
    3.1190   -2.6670    0.5650 H   0  0  0  0  0  0  0  0  0  0  0  0
    4.7030   -0.8440    1.2340 H   0  0  0  0  0  0  0  0  0  0  0  0
    5.3350   -1.7280    3.2680 H   0  0  0  0  0  0  0  0  0  0  0  0
    3.8000   -1.4090    3.9780 H   0  0  0  0  0  0  0  0  0  0  0  0
    0.4960    4.2760    0.4670 N   0  0  0  0  0  0  0  0  0  0  0  0
    0.5360    3.2160   -0.4670 C   0  0  0  0  0  0  0  0  0  0  0  0
   -0.2390    3.2540   -1.4530 O   0  0  0  0  0  0  0  0  0  0  0  0
    1.4480    2.0920   -0.3110 C   0  0  0  0  0  0  0  0  0  0  0  0
    0.9670    0.9910    0.6130 C   0  0  2  0  0  0  0  0  0  0  0  0
    2.0170   -0.0080    0.6060 N   0  0  0  0  0  0  0  0  0  0  0  0
   -0.3080    0.3850    0.2200 C   0  0  0  0  0  0  0  0  0  0  0  0
   -0.3220   -0.8370   -0.1490 O   0  0  0  0  0  0  0  0  0  0  0  0
   -0.1950    5.0380    0.3280 H   0  0  0  0  0  0  0  0  0  0  0  0
    1.1230    4.3460    1.2990 H   0  0  0  0  0  0  0  0  0  0  0  0
    2.3830    2.4930    0.1820 H   0  0  0  0  0  0  0  0  0  0  0  0
    1.7980    1.6550   -1.2700 H   0  0  0  0  0  0  0  0  0  0  0  0
    0.8920    1.3970    1.6370 H   0  0  0  0  0  0  0  0  0  0  0  0
    2.2390   -0.5800   -0.2540 H   0  0  0  0  0  0  0  0  0  0  0  0
   -5.2280   -0.0550   -2.2470 C   0  0  0  0  0  0  0  0  0  0  0  0
   -3.8780   -0.7180   -2.2980 C   0  0  0  0  0  0  0  0  0  0  0  0
   -3.9550   -2.1850   -2.0020 C   0  0  0  0  0  0  0  0  0  0  0  0
   -2.7830   -0.0160   -1.6330 C   0  0  0  0  0  0  0  0  0  0  0  0
   -2.8070    0.3220   -0.2140 C   0  0  2  0  0  0  0  0  0  0  0  0
   -1.5680    1.0280    0.2060 N   0  0  0  0  0  0  0  0  0  0  0  0
   -3.0550   -0.6860    0.7950 C   0  0  0  0  0  0  0  0  0  0  0  0
   -4.0880   -1.3870    0.7570 O   0  0  0  0  0  0  0  0  0  0  0  0
   -2.1930   -0.9630    1.8700 O   0  0  0  0  0  0  0  0  0  0  0  0
   -5.1770    1.0380   -2.3170 H   0  0  0  0  0  0  0  0  0  0  0  0
   -5.8400   -0.3880   -3.1240 H   0  0  0  0  0  0  0  0  0  0  0  0
   -5.8190   -0.3990   -1.3580 H   0  0  0  0  0  0  0  0  0  0  0  0
   -3.6310   -0.6960   -3.4300 H   0  0  0  0  0  0  0  0  0  0  0  0
   -3.9280   -2.8000   -2.9620 H   0  0  0  0  0  0  0  0  0  0  0  0
   -4.9260   -2.4860   -1.5560 H   0  0  0  0  0  0  0  0  0  0  0  0
   -3.0650   -2.5310   -1.4450 H   0  0  0  0  0  0  0  0  0  0  0  0
   -2.5700    0.9320   -2.2300 H   0  0  0  0  0  0  0  0  0  0  0  0
   -1.8400   -0.6080   -1.8710 H   0  0  0  0  0  0  0  0  0  0  0  0
   -3.6240    1.1030   -0.0770 H   0  0  0  0  0  0  0  0  0  0  0  0
   -1.5870    2.0240    0.5180 H   0  0  0  0  0  0  0  0  0  0  0  0
  1  2  1  0  0  0  0
  1 11  1  0  0  0  0
  2  3  1  0  0  0  0
  2 12  1  0  0  0  0
  3 13  1  0  0  0  0
  3 15  1  0  0  0  0
  4  5  1  0  0  0  0
  4  2  1  0  0  0  0
  5 18  1  6  0  0  0
  5  6  1  0  0  0  0
  6 19  1  0  0  0  0
  6 20  1  0  0  0  0
  7  5  1  0  0  0  0
  7  8  2  0  0  0  0
  9  1  1  0  0  0  0
 10  1  1  0  0  0  0
 14  3  1  0  0  0  0
 16  4  1  0  0  0  0
 17  4  1  0  0  0  0
 21 30  1  0  0  0  0
 22 24  1  0  0  0  0
 22 21  1  0  0  0  0
 23 22  2  0  0  0  0
 24 31  1  0  0  0  0
 24 25  1  0  0  0  0
 25 33  1  1  0  0  0
 26 25  1  0  0  0  0
 26  7  1  0  0  0  0
 27 25  1  0  0  0  0
 28 27  2  0  0  0  0
 29 21  1  0  0  0  0
 32 24  1  0  0  0  0
 34 26  1  0  0  0  0
 35 46  1  0  0  0  0
 36 35  1  0  0  0  0
 36 37  1  0  0  0  0
 36 38  1  0  0  0  0
 37 49  1  0  0  0  0
 37 50  1  0  0  0  0
 38 39  1  0  0  0  0
 39 53  1  1  0  0  0
 39 40  1  0  0  0  0
 39 41  1  0  0  0  0
 40 27  1  0  0  0  0
 40 54  1  0  0  0  0
 41 43  1  0  0  0  0
 42 41  2  0  0  0  0
 44 35  1  0  0  0  0
 45 35  1  0  0  0  0
 47 36  1  0  0  0  0
 48 37  1  0  0  0  0
 51 38  1  0  0  0  0
 52 38  1  0  0  0  0
M  END
$$$$
