LNM.pdb
 OpenBabel07022418443D

 52 51  0  0  1  0  0  0  0  0999 V2000
    0.6810   -3.5110    4.4940 C   0  0  0  0  0  0  0  0  0  0  0  0
    1.1070   -2.0370    4.2930 C   0  0  0  0  0  0  0  0  0  0  0  0
   -0.0050   -1.4410    3.4550 C   0  0  0  0  0  0  0  0  0  0  0  0
    2.3870   -2.0970    3.5160 C   0  0  0  0  0  0  0  0  0  0  0  0
    3.0190   -0.7800    3.2010 C   0  0  2  0  0  0  0  0  0  0  0  0
    3.2940   -0.0890    4.4490 N   0  0  0  0  0  0  0  0  0  0  0  0
    2.3750    0.0410    2.1810 C   0  0  0  0  0  0  0  0  0  0  0  0
    2.1360    1.2650    2.4530 O   0  0  0  0  0  0  0  0  0  0  0  0
    0.1030   -3.8410    3.6000 H   0  0  0  0  0  0  0  0  0  0  0  0
    1.5590   -4.1670    4.6080 H   0  0  0  0  0  0  0  0  0  0  0  0
    0.0100   -3.5220    5.3670 H   0  0  0  0  0  0  0  0  0  0  0  0
    1.1890   -1.5400    5.2740 H   0  0  0  0  0  0  0  0  0  0  0  0
    0.1850   -0.3890    3.2820 H   0  0  0  0  0  0  0  0  0  0  0  0
   -0.1650   -2.0530    2.5350 H   0  0  0  0  0  0  0  0  0  0  0  0
   -0.9760   -1.5040    4.0030 H   0  0  0  0  0  0  0  0  0  0  0  0
    3.1260   -2.7060    4.0980 H   0  0  0  0  0  0  0  0  0  0  0  0
    2.1440   -2.6210    2.5580 H   0  0  0  0  0  0  0  0  0  0  0  0
    4.0740   -0.9870    2.7850 H   0  0  0  0  0  0  0  0  0  0  0  0
    3.4830   -0.7910    5.1970 H   0  0  0  0  0  0  0  0  0  0  0  0
    2.5570    0.5950    4.7100 H   0  0  0  0  0  0  0  0  0  0  0  0
    1.5870    3.0820   -1.8860 N   0  0  0  0  0  0  0  0  0  0  0  0
    1.7460    1.6990   -2.1560 C   0  0  0  0  0  0  0  0  0  0  0  0
    1.3840    1.2510   -3.2510 O   0  0  0  0  0  0  0  0  0  0  0  0
    2.3280    0.7930   -1.1730 C   0  0  0  0  0  0  0  0  0  0  0  0
    1.3520    0.4930   -0.0720 C   0  0  2  0  0  0  0  0  0  0  0  0
    1.9940   -0.4280    0.8980 N   0  0  0  0  0  0  0  0  0  0  0  0
    0.1000   -0.1440   -0.4720 C   0  0  0  0  0  0  0  0  0  0  0  0
   -0.1840   -1.3320   -0.0750 O   0  0  0  0  0  0  0  0  0  0  0  0
    1.4350    3.7820   -2.6500 H   0  0  0  0  0  0  0  0  0  0  0  0
    1.6130    3.4720   -0.9190 H   0  0  0  0  0  0  0  0  0  0  0  0
    3.1810    1.3330   -0.6820 H   0  0  0  0  0  0  0  0  0  0  0  0
    2.6990   -0.1560   -1.6110 H   0  0  0  0  0  0  0  0  0  0  0  0
    1.2190    1.4450    0.4810 H   0  0  0  0  0  0  0  0  0  0  0  0
    2.1750   -1.4140    0.6610 H   0  0  0  0  0  0  0  0  0  0  0  0
   -3.6060   -3.1930   -1.0150 C   0  0  0  0  0  0  0  0  0  0  0  0
   -4.7250   -1.9180   -0.5290 S   0  0  0  0  0  0  0  0  0  0  0  0
   -4.5970   -0.3320   -1.3280 C   0  0  0  0  0  0  0  0  0  0  0  0
   -3.3260    0.4180   -1.0700 C   0  0  0  0  0  0  0  0  0  0  0  0
   -2.1520   -0.3160   -1.6210 C   0  0  2  0  0  0  0  0  0  0  0  0
   -0.9040    0.4250   -1.2920 N   0  0  0  0  0  0  0  0  0  0  0  0
   -2.2410   -0.4760   -3.0850 C   0  0  0  0  0  0  0  0  0  0  0  0
   -1.3340    0.0060   -3.8060 O   0  0  0  0  0  0  0  0  0  0  0  0
   -3.2590   -1.1230   -3.7350 O   0  0  0  0  0  0  0  0  0  0  0  0
   -2.7740   -3.3750   -0.2670 H   0  0  0  0  0  0  0  0  0  0  0  0
   -4.1730   -4.1840   -0.9630 H   0  0  0  0  0  0  0  0  0  0  0  0
   -3.2150   -3.1650   -2.0400 H   0  0  0  0  0  0  0  0  0  0  0  0
   -5.4320    0.3300   -0.8970 H   0  0  0  0  0  0  0  0  0  0  0  0
   -4.8870   -0.3690   -2.4150 H   0  0  0  0  0  0  0  0  0  0  0  0
   -3.2200    0.5230    0.0340 H   0  0  0  0  0  0  0  0  0  0  0  0
   -3.4050    1.4120   -1.5660 H   0  0  0  0  0  0  0  0  0  0  0  0
   -2.0600   -1.2830   -1.1250 H   0  0  0  0  0  0  0  0  0  0  0  0
   -0.8060    1.3630   -1.6750 H   0  0  0  0  0  0  0  0  0  0  0  0
  1 10  1  0  0  0  0
  1 11  1  0  0  0  0
  2  1  1  0  0  0  0
  2 12  1  0  0  0  0
  3 15  1  0  0  0  0
  3  2  1  0  0  0  0
  4 16  1  0  0  0  0
  4  2  1  0  0  0  0
  5 18  1  6  0  0  0
  5  4  1  0  0  0  0
  5  6  1  0  0  0  0
  6 20  1  0  0  0  0
  6 19  1  0  0  0  0
  7  8  2  0  0  0  0
  7  5  1  0  0  0  0
  9  1  1  0  0  0  0
 13  3  1  0  0  0  0
 14  3  1  0  0  0  0
 17  4  1  0  0  0  0
 21 30  1  0  0  0  0
 22 21  1  0  0  0  0
 22 24  1  0  0  0  0
 23 22  2  0  0  0  0
 24 31  1  0  0  0  0
 24 25  1  0  0  0  0
 25 33  1  1  0  0  0
 25 26  1  0  0  0  0
 26  7  1  0  0  0  0
 27 28  2  0  0  0  0
 27 25  1  0  0  0  0
 29 21  1  0  0  0  0
 32 24  1  0  0  0  0
 34 26  1  0  0  0  0
 35 45  1  0  0  0  0
 35 36  1  0  0  0  0
 35 44  1  0  0  0  0
 37 38  1  0  0  0  0
 37 47  1  0  0  0  0
 37 36  1  0  0  0  0
 38 49  1  0  0  0  0
 39 40  1  0  0  0  0
 39 51  1  1  0  0  0
 39 38  1  0  0  0  0
 40 27  1  0  0  0  0
 41 39  1  0  0  0  0
 42 41  2  0  0  0  0
 43 41  1  0  0  0  0
 46 35  1  0  0  0  0
 48 37  1  0  0  0  0
 50 38  1  0  0  0  0
 52 40  1  0  0  0  0
M  END
$$$$
