LNN.pdb
 OpenBabel07022418443D

 49 48  0  0  1  0  0  0  0  0999 V2000
    1.7830   -5.0690    2.1130 C   0  0  0  0  0  0  0  0  0  0  0  0
    1.7620   -3.6800    2.7460 C   0  0  0  0  0  0  0  0  0  0  0  0
    0.4090   -3.0900    2.4860 C   0  0  0  0  0  0  0  0  0  0  0  0
    2.9080   -2.8770    2.2370 C   0  0  0  0  0  0  0  0  0  0  0  0
    3.0170   -1.4900    2.7700 C   0  0  2  0  0  0  0  0  0  0  0  0
    3.1490   -1.5340    4.1930 N   0  0  0  0  0  0  0  0  0  0  0  0
    2.0070   -0.5400    2.2940 C   0  0  0  0  0  0  0  0  0  0  0  0
    1.2680    0.1090    3.1130 O   0  0  0  0  0  0  0  0  0  0  0  0
    1.3390   -5.0540    1.0910 H   0  0  0  0  0  0  0  0  0  0  0  0
    2.8190   -5.4620    2.0480 H   0  0  0  0  0  0  0  0  0  0  0  0
    1.1510   -5.7250    2.7270 H   0  0  0  0  0  0  0  0  0  0  0  0
    1.8920   -3.8440    3.8430 H   0  0  0  0  0  0  0  0  0  0  0  0
    0.0880   -2.3630    3.2680 H   0  0  0  0  0  0  0  0  0  0  0  0
   -0.3860   -3.8910    2.4220 H   0  0  0  0  0  0  0  0  0  0  0  0
    0.4260   -2.6490    1.4720 H   0  0  0  0  0  0  0  0  0  0  0  0
    3.8420   -3.4150    2.5390 H   0  0  0  0  0  0  0  0  0  0  0  0
    2.8960   -2.9220    1.1280 H   0  0  0  0  0  0  0  0  0  0  0  0
    4.0070   -1.0910    2.3840 H   0  0  0  0  0  0  0  0  0  0  0  0
    3.6640   -2.4030    4.4490 H   0  0  0  0  0  0  0  0  0  0  0  0
    3.7310   -0.7240    4.4990 H   0  0  0  0  0  0  0  0  0  0  0  0
    0.1010    3.8990    0.2200 N   0  0  0  0  0  0  0  0  0  0  0  0
    0.6230    2.9140   -0.6500 C   0  0  0  0  0  0  0  0  0  0  0  0
    0.3250    2.9800   -1.8680 O   0  0  0  0  0  0  0  0  0  0  0  0
    1.4800    1.8490   -0.1630 C   0  0  0  0  0  0  0  0  0  0  0  0
    0.7370    0.7090    0.4900 C   0  0  2  0  0  0  0  0  0  0  0  0
    1.7710   -0.2650    0.9200 N   0  0  0  0  0  0  0  0  0  0  0  0
   -0.1210   -0.0300   -0.4490 C   0  0  0  0  0  0  0  0  0  0  0  0
    0.1540   -1.2210   -0.8410 O   0  0  0  0  0  0  0  0  0  0  0  0
   -0.3030    4.8070   -0.1510 H   0  0  0  0  0  0  0  0  0  0  0  0
    0.1120    3.7280    1.2520 H   0  0  0  0  0  0  0  0  0  0  0  0
    2.0900    1.3680   -0.9810 H   0  0  0  0  0  0  0  0  0  0  0  0
    2.2240    2.2300    0.5950 H   0  0  0  0  0  0  0  0  0  0  0  0
    0.2230    1.0450    1.4170 H   0  0  0  0  0  0  0  0  0  0  0  0
    2.3240   -0.7460    0.1830 H   0  0  0  0  0  0  0  0  0  0  0  0
   -4.3030    0.9410    0.5190 N   0  0  0  0  0  0  0  0  0  0  0  0
   -4.2650    0.5170   -0.8330 C   0  0  0  0  0  0  0  0  0  0  0  0
   -4.9300    1.1710   -1.6710 O   0  0  0  0  0  0  0  0  0  0  0  0
   -3.4850   -0.6390   -1.2580 C   0  0  0  0  0  0  0  0  0  0  0  0
   -2.1600   -0.2400   -1.9070 C   0  0  2  0  0  0  0  0  0  0  0  0
   -1.3370    0.5090   -1.0010 N   0  0  0  0  0  0  0  0  0  0  0  0
   -2.3870    0.3800   -3.2180 C   0  0  0  0  0  0  0  0  0  0  0  0
   -3.0860   -0.2070   -4.0750 O   0  0  0  0  0  0  0  0  0  0  0  0
   -1.8410    1.6030   -3.5200 O   0  0  0  0  0  0  0  0  0  0  0  0
   -4.5380    1.9470    0.7570 H   0  0  0  0  0  0  0  0  0  0  0  0
   -4.1050    0.2820    1.2940 H   0  0  0  0  0  0  0  0  0  0  0  0
   -4.0180   -1.2540   -2.0270 H   0  0  0  0  0  0  0  0  0  0  0  0
   -3.2940   -1.3300   -0.4030 H   0  0  0  0  0  0  0  0  0  0  0  0
   -1.6580   -1.2350   -2.0980 H   0  0  0  0  0  0  0  0  0  0  0  0
   -1.5870    1.4700   -0.6980 H   0  0  0  0  0  0  0  0  0  0  0  0
  1 11  1  0  0  0  0
  1  2  1  0  0  0  0
  2 12  1  0  0  0  0
  3  2  1  0  0  0  0
  3 13  1  0  0  0  0
  4 16  1  0  0  0  0
  4  2  1  0  0  0  0
  4  5  1  0  0  0  0
  5 18  1  6  0  0  0
  5  6  1  0  0  0  0
  6 19  1  0  0  0  0
  6 20  1  0  0  0  0
  7  5  1  0  0  0  0
  7  8  2  0  0  0  0
  9  1  1  0  0  0  0
 10  1  1  0  0  0  0
 14  3  1  0  0  0  0
 15  3  1  0  0  0  0
 17  4  1  0  0  0  0
 21 30  1  0  0  0  0
 22 24  1  0  0  0  0
 22 21  1  0  0  0  0
 23 22  2  0  0  0  0
 24 25  1  0  0  0  0
 24 32  1  0  0  0  0
 25 26  1  0  0  0  0
 25 33  1  1  0  0  0
 26  7  1  0  0  0  0
 27 25  1  0  0  0  0
 28 27  2  0  0  0  0
 29 21  1  0  0  0  0
 31 24  1  0  0  0  0
 34 26  1  0  0  0  0
 35 44  1  0  0  0  0
 35 45  1  0  0  0  0
 36 35  1  0  0  0  0
 37 36  2  0  0  0  0
 38 36  1  0  0  0  0
 38 47  1  0  0  0  0
 39 48  1  6  0  0  0
 39 38  1  0  0  0  0
 39 40  1  0  0  0  0
 40 49  1  0  0  0  0
 40 27  1  0  0  0  0
 41 39  1  0  0  0  0
 42 41  2  0  0  0  0
 43 41  1  0  0  0  0
 46 38  1  0  0  0  0
M  END
$$$$
