LNP.pdb
 OpenBabel07022418443D

 49 49  0  0  1  0  0  0  0  0999 V2000
    0.4990   -4.5640   -0.0200 C   0  0  0  0  0  0  0  0  0  0  0  0
    1.2690   -3.6840    0.9740 C   0  0  0  0  0  0  0  0  0  0  0  0
    0.3310   -3.2510    2.0360 C   0  0  0  0  0  0  0  0  0  0  0  0
    1.9180   -2.6050    0.1740 C   0  0  0  0  0  0  0  0  0  0  0  0
    2.7240   -1.6270    0.9600 C   0  0  2  0  0  0  0  0  0  0  0  0
    3.7940   -2.3060    1.7030 N   0  0  0  0  0  0  0  0  0  0  0  0
    1.9580   -0.6960    1.7890 C   0  0  0  0  0  0  0  0  0  0  0  0
    2.0460   -0.7650    3.0640 O   0  0  0  0  0  0  0  0  0  0  0  0
   -0.0970   -5.2800    0.5750 H   0  0  0  0  0  0  0  0  0  0  0  0
    1.1930   -5.0970   -0.7080 H   0  0  0  0  0  0  0  0  0  0  0  0
   -0.2040   -3.9040   -0.5520 H   0  0  0  0  0  0  0  0  0  0  0  0
    2.0950   -4.2990    1.4280 H   0  0  0  0  0  0  0  0  0  0  0  0
    0.7400   -3.4300    3.0750 H   0  0  0  0  0  0  0  0  0  0  0  0
    0.0320   -2.2120    1.8920 H   0  0  0  0  0  0  0  0  0  0  0  0
   -0.6270   -3.8530    2.0420 H   0  0  0  0  0  0  0  0  0  0  0  0
    1.2090   -2.0490   -0.4650 H   0  0  0  0  0  0  0  0  0  0  0  0
    2.6310   -3.0850   -0.5570 H   0  0  0  0  0  0  0  0  0  0  0  0
    3.3020   -1.0230    0.1880 H   0  0  0  0  0  0  0  0  0  0  0  0
    4.4670   -1.5260    1.9510 H   0  0  0  0  0  0  0  0  0  0  0  0
    4.2940   -2.8780    0.9890 H   0  0  0  0  0  0  0  0  0  0  0  0
    1.9840    2.5090   -0.4920 N   0  0  0  0  0  0  0  0  0  0  0  0
    1.2060    3.0850    0.5500 C   0  0  0  0  0  0  0  0  0  0  0  0
    0.5330    4.1410    0.3120 O   0  0  0  0  0  0  0  0  0  0  0  0
    1.1170    2.5440    1.9000 C   0  0  0  0  0  0  0  0  0  0  0  0
    0.3820    1.2040    1.9770 C   0  0  2  0  0  0  0  0  0  0  0  0
    1.1140    0.2970    1.1700 N   0  0  0  0  0  0  0  0  0  0  0  0
   -1.0340    1.3960    1.7410 C   0  0  0  0  0  0  0  0  0  0  0  0
   -1.5920    2.2630    2.5350 O   0  0  0  0  0  0  0  0  0  0  0  0
    2.9820    2.3060   -0.3510 H   0  0  0  0  0  0  0  0  0  0  0  0
    1.5840    2.2610   -1.4380 H   0  0  0  0  0  0  0  0  0  0  0  0
    0.6010    3.2280    2.5880 H   0  0  0  0  0  0  0  0  0  0  0  0
    2.1160    2.3620    2.3140 H   0  0  0  0  0  0  0  0  0  0  0  0
    0.5160    0.9190    3.0660 H   0  0  0  0  0  0  0  0  0  0  0  0
    1.1120    0.2960    0.1280 H   0  0  0  0  0  0  0  0  0  0  0  0
   -1.8890    0.8130    0.8150 N   0  0  0  0  0  0  0  0  0  0  0  0
   -3.3180    1.1370    0.6680 C   0  0  0  0  0  0  0  0  0  0  0  0
   -3.9680   -0.1070    0.1760 C   0  0  0  0  0  0  0  0  0  0  0  0
   -2.8900   -0.9740   -0.3450 C   0  0  0  0  0  0  0  0  0  0  0  0
   -1.6100   -0.1980   -0.1730 C   0  0  1  0  0  0  0  0  0  0  0  0
   -1.2740    0.3970   -1.4960 C   0  0  0  0  0  0  0  0  0  0  0  0
   -1.3260    1.6170   -1.7240 O   0  0  0  0  0  0  0  0  0  0  0  0
   -0.8880   -0.4710   -2.5040 O   0  0  0  0  0  0  0  0  0  0  0  0
   -3.7720    1.4860    1.5890 H   0  0  0  0  0  0  0  0  0  0  0  0
   -3.4170    1.9100   -0.1560 H   0  0  0  0  0  0  0  0  0  0  0  0
   -4.7130    0.0830   -0.6440 H   0  0  0  0  0  0  0  0  0  0  0  0
   -4.4940   -0.6700    0.9880 H   0  0  0  0  0  0  0  0  0  0  0  0
   -2.8090   -1.9280    0.2330 H   0  0  0  0  0  0  0  0  0  0  0  0
   -3.0310   -1.2250   -1.4340 H   0  0  0  0  0  0  0  0  0  0  0  0
   -0.8400   -0.9260    0.1260 H   0  0  0  0  0  0  0  0  0  0  0  0
  1  9  1  0  0  0  0
  1  2  1  0  0  0  0
  2 12  1  0  0  0  0
  2  3  1  0  0  0  0
  3 15  1  0  0  0  0
  3 13  1  0  0  0  0
  4  5  1  0  0  0  0
  4  2  1  0  0  0  0
  5 18  1  6  0  0  0
  5  6  1  0  0  0  0
  5  7  1  0  0  0  0
  6 19  1  0  0  0  0
  7  8  2  0  0  0  0
 10  1  1  0  0  0  0
 11  1  1  0  0  0  0
 14  3  1  0  0  0  0
 16  4  1  0  0  0  0
 17  4  1  0  0  0  0
 20  6  1  0  0  0  0
 21 29  1  0  0  0  0
 21 22  1  0  0  0  0
 22 24  1  0  0  0  0
 23 22  2  0  0  0  0
 24 25  1  0  0  0  0
 24 32  1  0  0  0  0
 24 31  1  0  0  0  0
 25 33  1  1  0  0  0
 26  7  1  0  0  0  0
 26 25  1  0  0  0  0
 27 25  1  0  0  0  0
 27 28  2  0  0  0  0
 30 21  1  0  0  0  0
 34 26  1  0  0  0  0
 35 27  1  0  0  0  0
 36 35  1  0  0  0  0
 36 43  1  0  0  0  0
 37 36  1  0  0  0  0
 37 46  1  0  0  0  0
 38 39  1  0  0  0  0
 38 37  1  0  0  0  0
 38 47  1  0  0  0  0
 39 49  1  1  0  0  0
 39 35  1  0  0  0  0
 40 39  1  0  0  0  0
 41 40  1  0  0  0  0
 42 40  2  0  0  0  0
 44 36  1  0  0  0  0
 45 37  1  0  0  0  0
 48 38  1  0  0  0  0
M  END
$$$$
