LNQ.pdb
 OpenBabel07022418443D

 52 51  0  0  1  0  0  0  0  0999 V2000
    2.3240   -2.9350    3.6470 C   0  0  0  0  0  0  0  0  0  0  0  0
    1.6150   -2.7680    2.3060 C   0  0  0  0  0  0  0  0  0  0  0  0
    0.3290   -2.0270    2.4740 C   0  0  0  0  0  0  0  0  0  0  0  0
    2.5210   -2.2700    1.2440 C   0  0  0  0  0  0  0  0  0  0  0  0
    3.1670   -0.9590    1.4530 C   0  0  2  0  0  0  0  0  0  0  0  0
    3.9800   -0.8630    2.6250 N   0  0  0  0  0  0  0  0  0  0  0  0
    2.3130    0.2290    1.3290 C   0  0  0  0  0  0  0  0  0  0  0  0
    2.2350    1.0930    2.2340 O   0  0  0  0  0  0  0  0  0  0  0  0
    1.6460   -3.6100    4.2450 H   0  0  0  0  0  0  0  0  0  0  0  0
    3.2440   -3.4980    3.4920 H   0  0  0  0  0  0  0  0  0  0  0  0
    2.4030   -2.0100    4.2120 H   0  0  0  0  0  0  0  0  0  0  0  0
    1.3470   -3.8300    2.0190 H   0  0  0  0  0  0  0  0  0  0  0  0
    0.3970   -0.9430    2.3970 H   0  0  0  0  0  0  0  0  0  0  0  0
   -0.0410   -2.2430    3.5170 H   0  0  0  0  0  0  0  0  0  0  0  0
   -0.4150   -2.4780    1.7840 H   0  0  0  0  0  0  0  0  0  0  0  0
    3.3010   -3.0330    1.0600 H   0  0  0  0  0  0  0  0  0  0  0  0
    1.9100   -2.1990    0.3010 H   0  0  0  0  0  0  0  0  0  0  0  0
    3.9130   -0.8590    0.5890 H   0  0  0  0  0  0  0  0  0  0  0  0
    4.5990   -1.6320    2.8380 H   0  0  0  0  0  0  0  0  0  0  0  0
    3.7070   -0.1980    3.3370 H   0  0  0  0  0  0  0  0  0  0  0  0
    3.4380    2.6270   -0.1580 N   0  0  0  0  0  0  0  0  0  0  0  0
    2.5270    2.8460   -1.2050 C   0  0  0  0  0  0  0  0  0  0  0  0
    2.9320    3.5250   -2.2070 O   0  0  0  0  0  0  0  0  0  0  0  0
    1.1460    2.3710   -1.2690 C   0  0  0  0  0  0  0  0  0  0  0  0
    0.7300    1.5800   -0.0340 C   0  0  2  0  0  0  0  0  0  0  0  0
    1.5530    0.4210    0.1470 N   0  0  0  0  0  0  0  0  0  0  0  0
   -0.7030    1.2480   -0.1760 C   0  0  0  0  0  0  0  0  0  0  0  0
   -1.4950    2.2340   -0.3790 O   0  0  0  0  0  0  0  0  0  0  0  0
    3.3300    3.1380    0.7460 H   0  0  0  0  0  0  0  0  0  0  0  0
    4.2220    1.9480   -0.2980 H   0  0  0  0  0  0  0  0  0  0  0  0
    0.4740    3.2580   -1.3000 H   0  0  0  0  0  0  0  0  0  0  0  0
    0.9980    1.7100   -2.1440 H   0  0  0  0  0  0  0  0  0  0  0  0
    0.8900    2.2530    0.8400 H   0  0  0  0  0  0  0  0  0  0  0  0
    1.5740   -0.2970   -0.6430 H   0  0  0  0  0  0  0  0  0  0  0  0
   -6.2110   -2.7000   -0.7220 N   0  0  0  0  0  0  0  0  0  0  0  0
   -4.8100   -2.5440   -0.8720 C   0  0  0  0  0  0  0  0  0  0  0  0
   -4.0480   -3.2470   -0.1300 O   0  0  0  0  0  0  0  0  0  0  0  0
   -4.1830   -1.6290   -1.8340 C   0  0  0  0  0  0  0  0  0  0  0  0
   -2.8280   -1.1730   -1.4620 C   0  0  0  0  0  0  0  0  0  0  0  0
   -2.7380   -0.2680   -0.2810 C   0  0  2  0  0  0  0  0  0  0  0  0
   -1.2860   -0.0240   -0.1140 N   0  0  0  0  0  0  0  0  0  0  0  0
   -3.3970   -0.6450    0.9540 C   0  0  0  0  0  0  0  0  0  0  0  0
   -4.6500   -0.6590    1.0560 O   0  0  0  0  0  0  0  0  0  0  0  0
   -2.7000   -1.0120    2.0960 O   0  0  0  0  0  0  0  0  0  0  0  0
   -6.7080   -3.3260   -1.4070 H   0  0  0  0  0  0  0  0  0  0  0  0
   -6.7070   -2.2050    0.0440 H   0  0  0  0  0  0  0  0  0  0  0  0
   -4.8220   -0.7000   -1.9690 H   0  0  0  0  0  0  0  0  0  0  0  0
   -4.1080   -2.1090   -2.8420 H   0  0  0  0  0  0  0  0  0  0  0  0
   -2.1650   -2.0530   -1.2270 H   0  0  0  0  0  0  0  0  0  0  0  0
   -2.3690   -0.6910   -2.3760 H   0  0  0  0  0  0  0  0  0  0  0  0
   -3.1050    0.7710   -0.6140 H   0  0  0  0  0  0  0  0  0  0  0  0
   -0.6800   -0.8420    0.0530 H   0  0  0  0  0  0  0  0  0  0  0  0
  1 11  1  0  0  0  0
  1  9  1  0  0  0  0
  2  3  1  0  0  0  0
  2  1  1  0  0  0  0
  3 14  1  0  0  0  0
  4  5  1  0  0  0  0
  4  2  1  0  0  0  0
  5 18  1  6  0  0  0
  5  6  1  0  0  0  0
  6 19  1  0  0  0  0
  6 20  1  0  0  0  0
  7  5  1  0  0  0  0
  7  8  2  0  0  0  0
 10  1  1  0  0  0  0
 12  2  1  0  0  0  0
 13  3  1  0  0  0  0
 15  3  1  0  0  0  0
 16  4  1  0  0  0  0
 17  4  1  0  0  0  0
 21 29  1  0  0  0  0
 22 21  1  0  0  0  0
 23 22  2  0  0  0  0
 24 22  1  0  0  0  0
 24 25  1  0  0  0  0
 25 26  1  0  0  0  0
 25 33  1  1  0  0  0
 26  7  1  0  0  0  0
 27 41  1  0  0  0  0
 27 25  1  0  0  0  0
 28 27  2  0  0  0  0
 30 21  1  0  0  0  0
 31 24  1  0  0  0  0
 32 24  1  0  0  0  0
 34 26  1  0  0  0  0
 35 46  1  0  0  0  0
 36 35  1  0  0  0  0
 36 37  2  0  0  0  0
 38 39  1  0  0  0  0
 38 36  1  0  0  0  0
 39 49  1  0  0  0  0
 39 40  1  0  0  0  0
 40 51  1  6  0  0  0
 40 41  1  0  0  0  0
 40 42  1  0  0  0  0
 41 52  1  0  0  0  0
 42 43  2  0  0  0  0
 42 44  1  0  0  0  0
 45 35  1  0  0  0  0
 47 38  1  0  0  0  0
 48 38  1  0  0  0  0
 50 39  1  0  0  0  0
M  END
$$$$
