LNR.pdb
 OpenBabel07022418443D

 58 57  0  0  1  0  0  0  0  0999 V2000
    0.3450   -2.6960    4.1510 C   0  0  0  0  0  0  0  0  0  0  0  0
    0.0520   -1.2330    3.7750 C   0  0  0  0  0  0  0  0  0  0  0  0
   -0.7890   -1.2820    2.5500 C   0  0  0  0  0  0  0  0  0  0  0  0
    1.3710   -0.5620    3.6510 C   0  0  0  0  0  0  0  0  0  0  0  0
    1.3720    0.8750    3.2940 C   0  0  2  0  0  0  0  0  0  0  0  0
    0.6460    1.6770    4.2580 N   0  0  0  0  0  0  0  0  0  0  0  0
    1.0090    1.2380    1.9290 C   0  0  0  0  0  0  0  0  0  0  0  0
    0.1300    2.1430    1.7150 O   0  0  0  0  0  0  0  0  0  0  0  0
   -0.5830   -3.2370    4.3850 H   0  0  0  0  0  0  0  0  0  0  0  0
    1.0910   -2.7330    4.9550 H   0  0  0  0  0  0  0  0  0  0  0  0
    0.7910   -3.1860    3.2610 H   0  0  0  0  0  0  0  0  0  0  0  0
   -0.5440   -0.8520    4.6500 H   0  0  0  0  0  0  0  0  0  0  0  0
   -1.8250   -1.6100    2.8720 H   0  0  0  0  0  0  0  0  0  0  0  0
   -0.9200   -0.3440    2.0150 H   0  0  0  0  0  0  0  0  0  0  0  0
   -0.4300   -2.1330    1.9280 H   0  0  0  0  0  0  0  0  0  0  0  0
    1.8710   -0.6450    4.6590 H   0  0  0  0  0  0  0  0  0  0  0  0
    2.0290   -1.1290    2.9560 H   0  0  0  0  0  0  0  0  0  0  0  0
    2.4640    1.2100    3.4160 H   0  0  0  0  0  0  0  0  0  0  0  0
   -0.2020    1.2030    4.6180 H   0  0  0  0  0  0  0  0  0  0  0  0
    1.2230    1.9390    5.0890 H   0  0  0  0  0  0  0  0  0  0  0  0
    4.5970    1.7530   -2.0900 N   0  0  0  0  0  0  0  0  0  0  0  0
    3.5300    1.1090   -1.4130 C   0  0  0  0  0  0  0  0  0  0  0  0
    3.7080   -0.0550   -0.9910 O   0  0  0  0  0  0  0  0  0  0  0  0
    2.2760    1.8470   -1.2480 C   0  0  0  0  0  0  0  0  0  0  0  0
    1.1860    1.0580   -0.5440 C   0  0  2  0  0  0  0  0  0  0  0  0
    1.5790    0.6470    0.7680 N   0  0  0  0  0  0  0  0  0  0  0  0
    0.7230   -0.0500   -1.3950 C   0  0  0  0  0  0  0  0  0  0  0  0
    0.3960    0.2770   -2.5880 O   0  0  0  0  0  0  0  0  0  0  0  0
    4.3750    2.4610   -2.8390 H   0  0  0  0  0  0  0  0  0  0  0  0
    5.5670    1.5040   -1.8220 H   0  0  0  0  0  0  0  0  0  0  0  0
    2.4040    2.8240   -0.7490 H   0  0  0  0  0  0  0  0  0  0  0  0
    1.8800    2.0710   -2.2670 H   0  0  0  0  0  0  0  0  0  0  0  0
    0.3190    1.7930   -0.4990 H   0  0  0  0  0  0  0  0  0  0  0  0
    2.2980   -0.1050    0.8640 H   0  0  0  0  0  0  0  0  0  0  0  0
   -5.3210   -1.5040    1.3080 N   0  0  0  0  0  0  0  0  0  0  0  0
   -4.1100   -1.6020    0.5670 C   0  0  0  0  0  0  0  0  0  0  0  0
   -3.3840   -2.6200    0.7800 N   0  0  0  0  0  0  0  0  0  0  0  0
   -3.6890   -0.6400   -0.3720 N   0  0  0  0  0  0  0  0  0  0  0  0
   -2.3960   -0.8170   -1.0040 C   0  0  0  0  0  0  0  0  0  0  0  0
   -2.3360   -1.9720   -1.9210 C   0  0  0  0  0  0  0  0  0  0  0  0
   -1.0600   -2.2190   -2.6420 C   0  0  0  0  0  0  0  0  0  0  0  0
    0.1650   -2.4560   -1.8360 C   0  0  2  0  0  0  0  0  0  0  0  0
    0.6190   -1.4120   -0.9880 N   0  0  0  0  0  0  0  0  0  0  0  0
    1.2890   -2.9330   -2.6810 C   0  0  0  0  0  0  0  0  0  0  0  0
    1.1340   -3.8610   -3.5230 O   0  0  0  0  0  0  0  0  0  0  0  0
    2.5640   -2.4000   -2.6050 O   0  0  0  0  0  0  0  0  0  0  0  0
   -5.2400   -1.4930    2.3470 H   0  0  0  0  0  0  0  0  0  0  0  0
   -6.2620   -1.4440    0.8940 H   0  0  0  0  0  0  0  0  0  0  0  0
   -3.5690   -3.3890    1.4290 H   0  0  0  0  0  0  0  0  0  0  0  0
   -4.2990    0.1640   -0.5920 H   0  0  0  0  0  0  0  0  0  0  0  0
   -1.6160   -0.9210   -0.1890 H   0  0  0  0  0  0  0  0  0  0  0  0
   -2.1390    0.1080   -1.5440 H   0  0  0  0  0  0  0  0  0  0  0  0
   -2.6460   -2.9380   -1.4530 H   0  0  0  0  0  0  0  0  0  0  0  0
   -3.1220   -1.8420   -2.7370 H   0  0  0  0  0  0  0  0  0  0  0  0
   -0.8550   -1.4640   -3.4420 H   0  0  0  0  0  0  0  0  0  0  0  0
   -1.2280   -3.1850   -3.2280 H   0  0  0  0  0  0  0  0  0  0  0  0
   -0.0830   -3.3580   -1.1840 H   0  0  0  0  0  0  0  0  0  0  0  0
    0.9060   -1.6410    0.0140 H   0  0  0  0  0  0  0  0  0  0  0  0
  1  9  1  0  0  0  0
  1 10  1  0  0  0  0
  2  1  1  0  0  0  0
  2 12  1  0  0  0  0
  3 13  1  0  0  0  0
  3  2  1  0  0  0  0
  4  2  1  0  0  0  0
  4 16  1  0  0  0  0
  5 18  1  1  0  0  0
  5  4  1  0  0  0  0
  5  6  1  0  0  0  0
  6 19  1  0  0  0  0
  6 20  1  0  0  0  0
  7  5  1  0  0  0  0
  8  7  2  0  0  0  0
 11  1  1  0  0  0  0
 14  3  1  0  0  0  0
 15  3  1  0  0  0  0
 17  4  1  0  0  0  0
 21 30  1  0  0  0  0
 21 22  1  0  0  0  0
 22 24  1  0  0  0  0
 22 23  2  0  0  0  0
 24 31  1  0  0  0  0
 24 25  1  0  0  0  0
 25 33  1  1  0  0  0
 25 26  1  0  0  0  0
 26 34  1  0  0  0  0
 26  7  1  0  0  0  0
 27 43  1  0  0  0  0
 27 25  1  0  0  0  0
 28 27  2  0  0  0  0
 29 21  1  0  0  0  0
 32 24  1  0  0  0  0
 35 47  1  0  0  0  0
 36 37  2  0  0  0  0
 36 35  1  0  0  0  0
 37 49  1  0  0  0  0
 38 36  1  0  0  0  0
 39 38  1  0  0  0  0
 39 51  1  0  0  0  0
 40 53  1  0  0  0  0
 40 39  1  0  0  0  0
 41 40  1  0  0  0  0
 41 42  1  0  0  0  0
 42 57  1  1  0  0  0
 42 43  1  0  0  0  0
 43 58  1  0  0  0  0
 44 46  1  0  0  0  0
 44 42  1  0  0  0  0
 45 44  2  0  0  0  0
 48 35  1  0  0  0  0
 50 38  1  0  0  0  0
 52 39  1  0  0  0  0
 54 40  1  0  0  0  0
 55 41  1  0  0  0  0
 56 41  1  0  0  0  0
M  END
$$$$
