LNS.pdb
 OpenBabel07022418443D

 46 45  0  0  1  0  0  0  0  0999 V2000
    0.8940   -5.0350    3.7570 C   0  0  0  0  0  0  0  0  0  0  0  0
    0.5610   -3.5520    3.5680 C   0  0  0  0  0  0  0  0  0  0  0  0
    0.0080   -3.0340    4.8520 C   0  0  0  0  0  0  0  0  0  0  0  0
   -0.3680   -3.4560    2.4080 C   0  0  0  0  0  0  0  0  0  0  0  0
   -0.8160   -2.0770    2.0600 C   0  0  2  0  0  0  0  0  0  0  0  0
   -1.7160   -2.2070    0.9020 N   0  0  0  0  0  0  0  0  0  0  0  0
    0.2800   -1.1790    1.6130 C   0  0  0  0  0  0  0  0  0  0  0  0
    1.1860   -0.9160    2.4560 O   0  0  0  0  0  0  0  0  0  0  0  0
    1.8280   -5.1890    4.2970 H   0  0  0  0  0  0  0  0  0  0  0  0
    0.0190   -5.5700    4.1990 H   0  0  0  0  0  0  0  0  0  0  0  0
    1.0300   -5.4690    2.7390 H   0  0  0  0  0  0  0  0  0  0  0  0
    1.5210   -3.0590    3.3190 H   0  0  0  0  0  0  0  0  0  0  0  0
    0.8710   -2.9240    5.5710 H   0  0  0  0  0  0  0  0  0  0  0  0
   -0.6710   -3.7730    5.3020 H   0  0  0  0  0  0  0  0  0  0  0  0
   -0.4550   -2.0240    4.7380 H   0  0  0  0  0  0  0  0  0  0  0  0
   -1.2610   -4.0970    2.4980 H   0  0  0  0  0  0  0  0  0  0  0  0
    0.1910   -3.8500    1.5110 H   0  0  0  0  0  0  0  0  0  0  0  0
   -1.4400   -1.6060    2.8510 H   0  0  0  0  0  0  0  0  0  0  0  0
   -1.1940   -2.6110    0.0950 H   0  0  0  0  0  0  0  0  0  0  0  0
   -2.0430   -1.2480    0.6860 H   0  0  0  0  0  0  0  0  0  0  0  0
    4.0180   -0.0680   -2.9010 N   0  0  0  0  0  0  0  0  0  0  0  0
    3.3360    0.4590   -1.7390 C   0  0  0  0  0  0  0  0  0  0  0  0
    3.8080    1.5300   -1.3100 O   0  0  0  0  0  0  0  0  0  0  0  0
    2.2160   -0.3110   -1.2360 C   0  0  0  0  0  0  0  0  0  0  0  0
    1.4700    0.2790   -0.0900 C   0  0  2  0  0  0  0  0  0  0  0  0
    0.3830   -0.6080    0.3430 N   0  0  0  0  0  0  0  0  0  0  0  0
    0.8390    1.5960   -0.4000 C   0  0  0  0  0  0  0  0  0  0  0  0
    1.5470    2.5440   -0.7740 O   0  0  0  0  0  0  0  0  0  0  0  0
    5.0530   -0.0860   -2.9670 H   0  0  0  0  0  0  0  0  0  0  0  0
    3.4540   -0.4370   -3.6870 H   0  0  0  0  0  0  0  0  0  0  0  0
    2.6140   -1.3060   -0.8920 H   0  0  0  0  0  0  0  0  0  0  0  0
    1.5280   -0.5040   -2.1080 H   0  0  0  0  0  0  0  0  0  0  0  0
    2.1470    0.3850    0.7710 H   0  0  0  0  0  0  0  0  0  0  0  0
   -0.3500   -0.8120   -0.3640 H   0  0  0  0  0  0  0  0  0  0  0  0
   -3.2920    2.1150   -1.1440 O   0  0  0  0  0  0  0  0  0  0  0  0
   -2.2870    2.9630   -1.6020 C   0  0  0  0  0  0  0  0  0  0  0  0
   -1.1760    3.1040   -0.5860 C   0  0  2  0  0  0  0  0  0  0  0  0
   -0.5600    1.8260   -0.2860 N   0  0  0  0  0  0  0  0  0  0  0  0
   -1.7900    3.6170    0.6620 C   0  0  0  0  0  0  0  0  0  0  0  0
   -2.4060    4.7260    0.7010 O   0  0  0  0  0  0  0  0  0  0  0  0
   -1.7110    2.8920    1.8400 O   0  0  0  0  0  0  0  0  0  0  0  0
   -4.0970    2.6320   -0.9300 H   0  0  0  0  0  0  0  0  0  0  0  0
   -2.7140    3.9740   -1.7510 H   0  0  0  0  0  0  0  0  0  0  0  0
   -1.9210    2.6050   -2.5870 H   0  0  0  0  0  0  0  0  0  0  0  0
   -0.4120    3.8260   -0.8920 H   0  0  0  0  0  0  0  0  0  0  0  0
   -1.1460    1.0230    0.0290 H   0  0  0  0  0  0  0  0  0  0  0  0
  1 10  1  0  0  0  0
  1  9  1  0  0  0  0
  2  1  1  0  0  0  0
  2  3  1  0  0  0  0
  3 14  1  0  0  0  0
  3 13  1  0  0  0  0
  4 16  1  0  0  0  0
  4  2  1  0  0  0  0
  5  4  1  0  0  0  0
  5 18  1  1  0  0  0
  6  5  1  0  0  0  0
  7  5  1  0  0  0  0
  7  8  2  0  0  0  0
 11  1  1  0  0  0  0
 12  2  1  0  0  0  0
 15  3  1  0  0  0  0
 17  4  1  0  0  0  0
 19  6  1  0  0  0  0
 20  6  1  0  0  0  0
 21 22  1  0  0  0  0
 22 23  2  0  0  0  0
 22 24  1  0  0  0  0
 24 31  1  0  0  0  0
 24 25  1  0  0  0  0
 25 26  1  0  0  0  0
 25 33  1  1  0  0  0
 26  7  1  0  0  0  0
 27 38  1  0  0  0  0
 27 25  1  0  0  0  0
 28 27  2  0  0  0  0
 29 21  1  0  0  0  0
 30 21  1  0  0  0  0
 32 24  1  0  0  0  0
 34 26  1  0  0  0  0
 35 42  1  0  0  0  0
 36 35  1  0  0  0  0
 36 37  1  0  0  0  0
 37 45  1  6  0  0  0
 37 38  1  0  0  0  0
 37 39  1  0  0  0  0
 38 46  1  0  0  0  0
 39 40  2  0  0  0  0
 39 41  1  0  0  0  0
 43 36  1  0  0  0  0
 44 36  1  0  0  0  0
M  END
$$$$
