LNT.pdb
 OpenBabel07022418443D

 49 48  0  0  1  0  0  0  0  0999 V2000
    2.5550   -4.8710   -0.0580 C   0  0  0  0  0  0  0  0  0  0  0  0
    2.3880   -3.9480    1.1670 C   0  0  0  0  0  0  0  0  0  0  0  0
    0.9310   -3.5400    1.1290 C   0  0  0  0  0  0  0  0  0  0  0  0
    3.3470   -2.8250    0.9790 C   0  0  0  0  0  0  0  0  0  0  0  0
    3.3860   -1.7930    2.0430 C   0  0  2  0  0  0  0  0  0  0  0  0
    3.7360   -2.3210    3.3480 N   0  0  0  0  0  0  0  0  0  0  0  0
    2.2110   -0.9130    2.1440 C   0  0  0  0  0  0  0  0  0  0  0  0
    1.6740   -0.7060    3.2600 O   0  0  0  0  0  0  0  0  0  0  0  0
    1.8290   -5.6980   -0.0250 H   0  0  0  0  0  0  0  0  0  0  0  0
    2.2430   -4.2280   -0.9240 H   0  0  0  0  0  0  0  0  0  0  0  0
    3.5970   -5.1670   -0.1880 H   0  0  0  0  0  0  0  0  0  0  0  0
    2.6100   -4.5750    2.0360 H   0  0  0  0  0  0  0  0  0  0  0  0
    0.6400   -2.7900    1.8540 H   0  0  0  0  0  0  0  0  0  0  0  0
    0.3380   -4.4540    1.3590 H   0  0  0  0  0  0  0  0  0  0  0  0
    0.7240   -3.2720    0.0660 H   0  0  0  0  0  0  0  0  0  0  0  0
    3.1640   -2.3100    0.0120 H   0  0  0  0  0  0  0  0  0  0  0  0
    4.3670   -3.2560    0.8910 H   0  0  0  0  0  0  0  0  0  0  0  0
    4.2620   -1.1170    1.7790 H   0  0  0  0  0  0  0  0  0  0  0  0
    4.7450   -2.5990    3.2910 H   0  0  0  0  0  0  0  0  0  0  0  0
    3.2140   -3.2370    3.4540 H   0  0  0  0  0  0  0  0  0  0  0  0
    1.4940    3.4900   -1.0720 N   0  0  0  0  0  0  0  0  0  0  0  0
    1.1540    2.1990   -0.5490 C   0  0  0  0  0  0  0  0  0  0  0  0
    1.1980    1.2470   -1.3440 O   0  0  0  0  0  0  0  0  0  0  0  0
    0.7750    2.0360    0.8660 C   0  0  0  0  0  0  0  0  0  0  0  0
    0.4840    0.5770    1.2320 C   0  0  2  0  0  0  0  0  0  0  0  0
    1.6330   -0.2670    1.0220 N   0  0  0  0  0  0  0  0  0  0  0  0
   -0.5910    0.1340    0.3260 C   0  0  0  0  0  0  0  0  0  0  0  0
   -0.3890   -0.8230   -0.4440 O   0  0  0  0  0  0  0  0  0  0  0  0
    1.0220    4.3540   -0.7300 H   0  0  0  0  0  0  0  0  0  0  0  0
    2.2220    3.5720   -1.8030 H   0  0  0  0  0  0  0  0  0  0  0  0
    1.5840    2.4390    1.5080 H   0  0  0  0  0  0  0  0  0  0  0  0
   -0.1420    2.6360    1.0320 H   0  0  0  0  0  0  0  0  0  0  0  0
    0.1500    0.5690    2.2950 H   0  0  0  0  0  0  0  0  0  0  0  0
    2.0080   -0.3830    0.0620 H   0  0  0  0  0  0  0  0  0  0  0  0
   -4.4330    0.9030    1.3290 C   0  0  0  0  0  0  0  0  0  0  0  0
   -4.0530   -0.1500    0.3270 C   0  0  1  0  0  0  0  0  0  0  0  0
   -5.1360   -0.5710   -0.4240 O   0  0  0  0  0  0  0  0  0  0  0  0
   -2.9210    0.3630   -0.5620 C   0  0  2  0  0  0  0  0  0  0  0  0
   -1.8560    0.7710    0.3080 N   0  0  0  0  0  0  0  0  0  0  0  0
   -3.3900    1.4560   -1.4410 C   0  0  0  0  0  0  0  0  0  0  0  0
   -4.3170    1.2360   -2.2500 O   0  0  0  0  0  0  0  0  0  0  0  0
   -2.8280    2.7170   -1.3880 O   0  0  0  0  0  0  0  0  0  0  0  0
   -3.9670    0.7090    2.3070 H   0  0  0  0  0  0  0  0  0  0  0  0
   -4.0770    1.8720    0.9640 H   0  0  0  0  0  0  0  0  0  0  0  0
   -5.5500    0.9400    1.4400 H   0  0  0  0  0  0  0  0  0  0  0  0
   -3.6900   -1.0270    0.8950 H   0  0  0  0  0  0  0  0  0  0  0  0
   -5.9530   -0.4400    0.1100 H   0  0  0  0  0  0  0  0  0  0  0  0
   -2.6370   -0.4960   -1.2060 H   0  0  0  0  0  0  0  0  0  0  0  0
   -2.0450    1.5760    0.9480 H   0  0  0  0  0  0  0  0  0  0  0  0
  1  9  1  0  0  0  0
  1  2  1  0  0  0  0
  2 12  1  0  0  0  0
  3  2  1  0  0  0  0
  3 14  1  0  0  0  0
  3 13  1  0  0  0  0
  4  2  1  0  0  0  0
  4  5  1  0  0  0  0
  5 18  1  6  0  0  0
  5  7  1  0  0  0  0
  5  6  1  0  0  0  0
  6 20  1  0  0  0  0
  7  8  2  0  0  0  0
 10  1  1  0  0  0  0
 11  1  1  0  0  0  0
 15  3  1  0  0  0  0
 16  4  1  0  0  0  0
 17  4  1  0  0  0  0
 19  6  1  0  0  0  0
 21 29  1  0  0  0  0
 21 22  1  0  0  0  0
 22 24  1  0  0  0  0
 23 22  2  0  0  0  0
 24 32  1  0  0  0  0
 24 25  1  0  0  0  0
 24 31  1  0  0  0  0
 25 33  1  1  0  0  0
 26 25  1  0  0  0  0
 26  7  1  0  0  0  0
 27 25  1  0  0  0  0
 28 27  2  0  0  0  0
 30 21  1  0  0  0  0
 34 26  1  0  0  0  0
 35 45  1  0  0  0  0
 35 43  1  0  0  0  0
 36 46  1  1  0  0  0
 36 35  1  0  0  0  0
 37 47  1  0  0  0  0
 37 36  1  0  0  0  0
 38 48  1  6  0  0  0
 38 39  1  0  0  0  0
 38 36  1  0  0  0  0
 39 27  1  0  0  0  0
 39 49  1  0  0  0  0
 40 42  1  0  0  0  0
 40 38  1  0  0  0  0
 41 40  2  0  0  0  0
 44 35  1  0  0  0  0
M  END
$$$$
