LNV.pdb
 OpenBabel07022418443D

 51 50  0  0  1  0  0  0  0  0999 V2000
    1.9280   -4.8840   -0.1050 C   0  0  0  0  0  0  0  0  0  0  0  0
    2.1510   -4.0010    1.1410 C   0  0  0  0  0  0  0  0  0  0  0  0
    0.8100   -3.4800    1.5150 C   0  0  0  0  0  0  0  0  0  0  0  0
    3.1810   -3.0000    0.7480 C   0  0  0  0  0  0  0  0  0  0  0  0
    3.5720   -2.0190    1.8200 C   0  0  2  0  0  0  0  0  0  0  0  0
    4.0730   -2.7160    2.9660 N   0  0  0  0  0  0  0  0  0  0  0  0
    2.4600   -1.0890    2.0820 C   0  0  0  0  0  0  0  0  0  0  0  0
    1.8940   -1.0030    3.2220 O   0  0  0  0  0  0  0  0  0  0  0  0
    1.1210   -5.5830    0.1790 H   0  0  0  0  0  0  0  0  0  0  0  0
    1.5310   -4.1960   -0.8790 H   0  0  0  0  0  0  0  0  0  0  0  0
    2.8650   -5.3740   -0.4110 H   0  0  0  0  0  0  0  0  0  0  0  0
    2.5470   -4.7400    1.9010 H   0  0  0  0  0  0  0  0  0  0  0  0
    0.6680   -3.3490    2.6100 H   0  0  0  0  0  0  0  0  0  0  0  0
   -0.0160   -4.2160    1.2440 H   0  0  0  0  0  0  0  0  0  0  0  0
    0.5000   -2.5500    1.0180 H   0  0  0  0  0  0  0  0  0  0  0  0
    2.7170   -2.3900   -0.0850 H   0  0  0  0  0  0  0  0  0  0  0  0
    4.0660   -3.4690    0.2630 H   0  0  0  0  0  0  0  0  0  0  0  0
    4.3990   -1.3850    1.3800 H   0  0  0  0  0  0  0  0  0  0  0  0
    4.8100   -2.2230    3.4880 H   0  0  0  0  0  0  0  0  0  0  0  0
    4.5270   -3.6070    2.6010 H   0  0  0  0  0  0  0  0  0  0  0  0
    0.8400    4.5830    1.0910 N   0  0  0  0  0  0  0  0  0  0  0  0
    0.4760    3.2350    1.4760 C   0  0  0  0  0  0  0  0  0  0  0  0
   -0.6290    3.1660    2.0590 O   0  0  0  0  0  0  0  0  0  0  0  0
    1.3450    2.1080    1.1880 C   0  0  0  0  0  0  0  0  0  0  0  0
    0.7980    0.7170    1.4170 C   0  0  2  0  0  0  0  0  0  0  0  0
    1.9310   -0.2170    1.1020 N   0  0  0  0  0  0  0  0  0  0  0  0
   -0.2010    0.3280    0.3650 C   0  0  0  0  0  0  0  0  0  0  0  0
    0.1660   -0.4010   -0.6360 O   0  0  0  0  0  0  0  0  0  0  0  0
    1.8160    4.8750    1.2200 H   0  0  0  0  0  0  0  0  0  0  0  0
    0.1380    5.2200    0.7020 H   0  0  0  0  0  0  0  0  0  0  0  0
    1.6450    2.1470    0.0890 H   0  0  0  0  0  0  0  0  0  0  0  0
    2.3020    2.2280    1.7610 H   0  0  0  0  0  0  0  0  0  0  0  0
    0.4390    0.6210    2.4190 H   0  0  0  0  0  0  0  0  0  0  0  0
    2.2990   -0.1900    0.1460 H   0  0  0  0  0  0  0  0  0  0  0  0
   -4.3250    0.2630    0.8160 C   0  0  0  0  0  0  0  0  0  0  0  0
   -3.5360   -0.5910   -0.1570 C   0  0  0  0  0  0  0  0  0  0  0  0
   -4.4110   -1.1830   -1.2320 C   0  0  0  0  0  0  0  0  0  0  0  0
   -2.4260    0.2280   -0.7600 C   0  0  2  0  0  0  0  0  0  0  0  0
   -1.5620    0.6810    0.3480 N   0  0  0  0  0  0  0  0  0  0  0  0
   -2.9340    1.3900   -1.5260 C   0  0  0  0  0  0  0  0  0  0  0  0
   -2.6780    2.5780   -1.2830 O   0  0  0  0  0  0  0  0  0  0  0  0
   -3.7660    1.1130   -2.6040 O   0  0  0  0  0  0  0  0  0  0  0  0
   -4.0090    0.0240    1.8480 H   0  0  0  0  0  0  0  0  0  0  0  0
   -4.2100    1.3390    0.5930 H   0  0  0  0  0  0  0  0  0  0  0  0
   -5.3930    0.0140    0.7000 H   0  0  0  0  0  0  0  0  0  0  0  0
   -3.0370   -1.4380    0.3890 H   0  0  0  0  0  0  0  0  0  0  0  0
   -4.8790   -2.1110   -0.8950 H   0  0  0  0  0  0  0  0  0  0  0  0
   -5.1850   -0.4400   -1.4950 H   0  0  0  0  0  0  0  0  0  0  0  0
   -3.7560   -1.4470   -2.0920 H   0  0  0  0  0  0  0  0  0  0  0  0
   -1.8570   -0.3970   -1.4710 H   0  0  0  0  0  0  0  0  0  0  0  0
   -1.9770    1.2400    1.1210 H   0  0  0  0  0  0  0  0  0  0  0  0
  1  9  1  0  0  0  0
  1  2  1  0  0  0  0
  2  3  1  0  0  0  0
  2 12  1  0  0  0  0
  3 13  1  0  0  0  0
  4  2  1  0  0  0  0
  4  5  1  0  0  0  0
  5 18  1  6  0  0  0
  5  7  1  0  0  0  0
  5  6  1  0  0  0  0
  6 19  1  0  0  0  0
  7  8  2  0  0  0  0
 10  1  1  0  0  0  0
 11  1  1  0  0  0  0
 14  3  1  0  0  0  0
 15  3  1  0  0  0  0
 16  4  1  0  0  0  0
 17  4  1  0  0  0  0
 20  6  1  0  0  0  0
 21 29  1  0  0  0  0
 21 22  1  0  0  0  0
 22 23  2  0  0  0  0
 24 25  1  0  0  0  0
 24 22  1  0  0  0  0
 24 32  1  0  0  0  0
 25 33  1  1  0  0  0
 26 25  1  0  0  0  0
 26  7  1  0  0  0  0
 27 25  1  0  0  0  0
 28 27  2  0  0  0  0
 30 21  1  0  0  0  0
 31 24  1  0  0  0  0
 34 26  1  0  0  0  0
 35 43  1  0  0  0  0
 36 46  1  0  0  0  0
 36 35  1  0  0  0  0
 37 47  1  0  0  0  0
 37 36  1  0  0  0  0
 38 50  1  6  0  0  0
 38 36  1  0  0  0  0
 38 39  1  0  0  0  0
 39 27  1  0  0  0  0
 39 51  1  0  0  0  0
 40 41  1  0  0  0  0
 40 38  1  0  0  0  0
 42 40  2  0  0  0  0
 44 35  1  0  0  0  0
 45 35  1  0  0  0  0
 48 37  1  0  0  0  0
 49 37  1  0  0  0  0
M  END
$$$$
