LNW.pdb
 OpenBabel07022418443D

 59 60  0  0  1  0  0  0  0  0999 V2000
    0.5080    0.2520    3.2390 C   0  0  0  0  0  0  0  0  0  0  0  0
    1.6820   -0.6580    3.2020 C   0  0  0  0  0  0  0  0  0  0  0  0
    1.1480   -2.0780    3.4490 C   0  0  0  0  0  0  0  0  0  0  0  0
    2.4450   -0.7120    1.9280 C   0  0  0  0  0  0  0  0  0  0  0  0
    3.0220    0.6220    1.5020 C   0  0  2  0  0  0  0  0  0  0  0  0
    3.9110    1.1770    2.4700 N   0  0  0  0  0  0  0  0  0  0  0  0
    2.0140    1.5570    0.9670 C   0  0  0  0  0  0  0  0  0  0  0  0
    1.8370    2.7240    1.4600 O   0  0  0  0  0  0  0  0  0  0  0  0
   -0.3150   -0.2010    3.8710 H   0  0  0  0  0  0  0  0  0  0  0  0
    0.7190    1.2250    3.7590 H   0  0  0  0  0  0  0  0  0  0  0  0
    0.0350    0.4940    2.2910 H   0  0  0  0  0  0  0  0  0  0  0  0
    2.3440   -0.4430    4.0680 H   0  0  0  0  0  0  0  0  0  0  0  0
    1.9680   -2.7620    3.7370 H   0  0  0  0  0  0  0  0  0  0  0  0
    0.6050   -2.4470    2.5360 H   0  0  0  0  0  0  0  0  0  0  0  0
    0.4050   -2.0940    4.2660 H   0  0  0  0  0  0  0  0  0  0  0  0
    3.2290   -1.4910    1.9880 H   0  0  0  0  0  0  0  0  0  0  0  0
    1.7740   -1.0350    1.0890 H   0  0  0  0  0  0  0  0  0  0  0  0
    3.6830    0.3670    0.6150 H   0  0  0  0  0  0  0  0  0  0  0  0
    4.6680    0.5330    2.7090 H   0  0  0  0  0  0  0  0  0  0  0  0
    3.4640    1.6840    3.2390 H   0  0  0  0  0  0  0  0  0  0  0  0
   -1.3690    4.2500   -2.0190 N   0  0  0  0  0  0  0  0  0  0  0  0
   -0.3810    3.4950   -2.6650 C   0  0  0  0  0  0  0  0  0  0  0  0
   -0.2670    3.6660   -3.9290 O   0  0  0  0  0  0  0  0  0  0  0  0
    0.5460    2.5280   -2.0670 C   0  0  0  0  0  0  0  0  0  0  0  0
    0.1800    2.1670   -0.6470 C   0  0  2  0  0  0  0  0  0  0  0  0
    1.1760    1.2270   -0.1290 N   0  0  0  0  0  0  0  0  0  0  0  0
   -1.1010    1.4190   -0.6570 C   0  0  0  0  0  0  0  0  0  0  0  0
   -2.1790    2.0010   -1.0130 O   0  0  0  0  0  0  0  0  0  0  0  0
   -1.2690    4.7570   -1.1180 H   0  0  0  0  0  0  0  0  0  0  0  0
   -2.3130    4.3090   -2.4950 H   0  0  0  0  0  0  0  0  0  0  0  0
    0.4910    1.5920   -2.6790 H   0  0  0  0  0  0  0  0  0  0  0  0
    1.5720    2.9790   -2.1190 H   0  0  0  0  0  0  0  0  0  0  0  0
    0.1140    3.0850   -0.0720 H   0  0  0  0  0  0  0  0  0  0  0  0
    1.2820    0.3030   -0.5730 H   0  0  0  0  0  0  0  0  0  0  0  0
   -1.2500    0.0590   -0.2940 N   0  0  0  0  0  0  0  0  0  0  0  0
   -2.5640   -0.6050   -0.3380 C   0  0  1  0  0  0  0  0  0  0  0  0
   -2.5420   -1.6190   -1.4560 C   0  0  0  0  0  0  0  0  0  0  0  0
   -1.4890   -2.6440   -1.3280 C   0  0  0  0  0  0  0  0  0  0  0  0
   -0.2300   -2.5270   -1.9210 C   0  0  0  0  0  0  0  0  0  0  0  0
    0.4740   -3.5880   -1.5670 N   0  0  0  0  0  0  0  0  0  0  0  0
   -0.2370   -4.3910   -0.7840 C   0  0  0  0  0  0  0  0  0  0  0  0
    0.0580   -5.6020   -0.1820 C   0  0  0  0  0  0  0  0  0  0  0  0
   -0.8930   -6.2320    0.5810 C   0  0  0  0  0  0  0  0  0  0  0  0
   -2.1330   -5.6590    0.7430 C   0  0  0  0  0  0  0  0  0  0  0  0
   -2.4400   -4.4680    0.1580 C   0  0  0  0  0  0  0  0  0  0  0  0
   -1.4880   -3.8150   -0.6160 C   0  0  0  0  0  0  0  0  0  0  0  0
   -2.9130   -1.2270    0.9310 C   0  0  0  0  0  0  0  0  0  0  0  0
   -4.0780   -1.6980    1.1410 O   0  0  0  0  0  0  0  0  0  0  0  0
   -1.9880   -1.3260    1.9450 O   0  0  0  0  0  0  0  0  0  0  0  0
   -0.4490   -0.5060    0.0130 H   0  0  0  0  0  0  0  0  0  0  0  0
   -3.3500    0.1700   -0.5630 H   0  0  0  0  0  0  0  0  0  0  0  0
   -2.3760   -1.0590   -2.3970 H   0  0  0  0  0  0  0  0  0  0  0  0
   -3.5330   -2.1070   -1.5710 H   0  0  0  0  0  0  0  0  0  0  0  0
    0.1080   -1.7100   -2.5590 H   0  0  0  0  0  0  0  0  0  0  0  0
    1.4770   -3.7850   -1.8620 H   0  0  0  0  0  0  0  0  0  0  0  0
    1.0490   -6.0040   -0.3460 H   0  0  0  0  0  0  0  0  0  0  0  0
   -0.6480   -7.1770    1.0460 H   0  0  0  0  0  0  0  0  0  0  0  0
   -2.8380   -6.2260    1.3660 H   0  0  0  0  0  0  0  0  0  0  0  0
   -3.4020   -4.0390    0.2690 H   0  0  0  0  0  0  0  0  0  0  0  0
  1 10  1  0  0  0  0
  1  9  1  0  0  0  0
  2  1  1  0  0  0  0
  2  3  1  0  0  0  0
  2 12  1  0  0  0  0
  3 13  1  0  0  0  0
  3 15  1  0  0  0  0
  4 16  1  0  0  0  0
  4  2  1  0  0  0  0
  5 18  1  6  0  0  0
  5  4  1  0  0  0  0
  5  6  1  0  0  0  0
  6 19  1  0  0  0  0
  6 20  1  0  0  0  0
  7  8  2  0  0  0  0
  7  5  1  0  0  0  0
 11  1  1  0  0  0  0
 14  3  1  0  0  0  0
 17  4  1  0  0  0  0
 21 29  1  0  0  0  0
 22 24  1  0  0  0  0
 22 21  1  0  0  0  0
 23 22  2  0  0  0  0
 24 25  1  0  0  0  0
 25 26  1  0  0  0  0
 25 33  1  1  0  0  0
 26  7  1  0  0  0  0
 27 25  1  0  0  0  0
 27 35  1  0  0  0  0
 28 27  2  0  0  0  0
 30 21  1  0  0  0  0
 31 24  1  0  0  0  0
 32 24  1  0  0  0  0
 34 26  1  0  0  0  0
 35 50  1  0  0  0  0
 36 51  1  6  0  0  0
 36 35  1  0  0  0  0
 36 47  1  0  0  0  0
 37 38  1  0  0  0  0
 37 36  1  0  0  0  0
 38 46  1  0  0  0  0
 39 40  1  0  0  0  0
 39 38  2  0  0  0  0
 40 41  1  0  0  0  0
 41 46  2  0  0  0  0
 41 42  1  0  0  0  0
 42 43  2  0  0  0  0
 43 44  1  0  0  0  0
 43 57  1  0  0  0  0
 44 58  1  0  0  0  0
 45 59  1  0  0  0  0
 45 44  2  0  0  0  0
 46 45  1  0  0  0  0
 47 48  2  0  0  0  0
 47 49  1  0  0  0  0
 52 37  1  0  0  0  0
 53 37  1  0  0  0  0
 54 39  1  0  0  0  0
 55 40  1  0  0  0  0
 56 42  1  0  0  0  0
M  END
$$$$
