LPD.pdb
 OpenBabel07022418473D

 48 48  0  0  1  0  0  0  0  0999 V2000
    0.3500   -5.0440    1.2420 C   0  0  0  0  0  0  0  0  0  0  0  0
    0.3430   -3.4930    1.2520 C   0  0  0  0  0  0  0  0  0  0  0  0
   -1.1620   -3.1690    1.2520 C   0  0  0  0  0  0  0  0  0  0  0  0
    0.9950   -3.0060    0.0400 C   0  0  0  0  0  0  0  0  0  0  0  0
    1.1470   -1.5250   -0.1800 C   0  0  2  0  0  0  0  0  0  0  0  0
    1.8490   -1.3990   -1.5230 N   0  0  0  0  0  0  0  0  0  0  0  0
    2.0620   -0.8640    0.7140 C   0  0  0  0  0  0  0  0  0  0  0  0
    3.1790   -1.5020    0.8880 O   0  0  0  0  0  0  0  0  0  0  0  0
   -0.4810   -5.4300    1.8470 H   0  0  0  0  0  0  0  0  0  0  0  0
    0.1360   -5.3070    0.1810 H   0  0  0  0  0  0  0  0  0  0  0  0
    1.3340   -5.4290    1.5010 H   0  0  0  0  0  0  0  0  0  0  0  0
    0.7260   -3.1920    2.2170 H   0  0  0  0  0  0  0  0  0  0  0  0
   -1.4600   -2.6490    2.1810 H   0  0  0  0  0  0  0  0  0  0  0  0
   -1.7980   -4.0380    1.1200 H   0  0  0  0  0  0  0  0  0  0  0  0
   -1.3620   -2.5060    0.3580 H   0  0  0  0  0  0  0  0  0  0  0  0
    0.4810   -3.4640   -0.8480 H   0  0  0  0  0  0  0  0  0  0  0  0
    2.0390   -3.4330   -0.0100 H   0  0  0  0  0  0  0  0  0  0  0  0
    0.1850   -1.0840   -0.3810 H   0  0  0  0  0  0  0  0  0  0  0  0
    2.2700   -0.4520   -1.5780 H   0  0  0  0  0  0  0  0  0  0  0  0
    2.5150   -2.1780   -1.5490 H   0  0  0  0  0  0  0  0  0  0  0  0
    1.9010    0.3290    1.3800 N   0  0  0  0  0  0  0  0  0  0  0  0
    3.0430    0.8430    2.2790 C   0  0  0  0  0  0  0  0  0  0  0  0
    3.1790    2.2730    1.8090 C   0  0  0  0  0  0  0  0  0  0  0  0
    1.8580    2.6310    1.1080 C   0  0  0  0  0  0  0  0  0  0  0  0
    1.0260    1.4250    1.5680 C   0  0  1  0  0  0  0  0  0  0  0  0
   -0.3170    1.5080    1.1100 C   0  0  0  0  0  0  0  0  0  0  0  0
   -0.7030    2.6620    0.6450 O   0  0  0  0  0  0  0  0  0  0  0  0
    2.6360    0.8560    3.3020 H   0  0  0  0  0  0  0  0  0  0  0  0
    3.9300    0.2420    2.1130 H   0  0  0  0  0  0  0  0  0  0  0  0
    4.0100    2.4390    1.1240 H   0  0  0  0  0  0  0  0  0  0  0  0
    3.3080    2.9770    2.6670 H   0  0  0  0  0  0  0  0  0  0  0  0
    1.4230    3.5630    1.5030 H   0  0  0  0  0  0  0  0  0  0  0  0
    2.0240    2.6510    0.0360 H   0  0  0  0  0  0  0  0  0  0  0  0
    1.0480    1.6090    2.7360 H   0  0  0  0  0  0  0  0  0  0  0  0
   -1.3500    0.5520    1.0650 N   0  0  0  0  0  0  0  0  0  0  0  0
   -2.6870    0.7940    0.5590 C   0  0  1  0  0  0  0  0  0  0  0  0
   -3.0640   -0.1080   -0.5890 C   0  0  0  0  0  0  0  0  0  0  0  0
   -2.1730    0.0310   -1.7570 C   0  0  0  0  0  0  0  0  0  0  0  0
   -1.2010    0.8270   -1.7850 O   0  0  0  0  0  0  0  0  0  0  0  0
   -3.6360    0.6020    1.6730 C   0  0  0  0  0  0  0  0  0  0  0  0
   -4.8580    0.7550    1.4830 O   0  0  0  0  0  0  0  0  0  0  0  0
   -2.3680   -0.7280   -2.9120 O   0  0  0  0  0  0  0  0  0  0  0  0
   -3.1830    0.2540    2.9210 O   0  0  0  0  0  0  0  0  0  0  0  0
   -1.1150   -0.3830    1.4450 H   0  0  0  0  0  0  0  0  0  0  0  0
   -2.7790    1.8450    0.1580 H   0  0  0  0  0  0  0  0  0  0  0  0
   -4.0750    0.2650   -0.9300 H   0  0  0  0  0  0  0  0  0  0  0  0
   -3.2180   -1.1500   -0.3140 H   0  0  0  0  0  0  0  0  0  0  0  0
   -1.6700   -0.7670   -3.6460 H   0  0  0  0  0  0  0  0  0  0  0  0
  1  2  1  0  0  0  0
  1 11  1  0  0  0  0
  1  9  1  0  0  0  0
  2  3  1  0  0  0  0
  2 12  1  0  0  0  0
  3 13  1  0  0  0  0
  4  2  1  0  0  0  0
  5 18  1  6  0  0  0
  5  4  1  0  0  0  0
  5  7  1  0  0  0  0
  6  5  1  0  0  0  0
  7  8  2  0  0  0  0
  7 21  1  0  0  0  0
 10  1  1  0  0  0  0
 14  3  1  0  0  0  0
 15  3  1  0  0  0  0
 16  4  1  0  0  0  0
 17  4  1  0  0  0  0
 19  6  1  0  0  0  0
 20  6  1  0  0  0  0
 21 25  1  0  0  0  0
 21 22  1  0  0  0  0
 22 28  1  0  0  0  0
 23 22  1  0  0  0  0
 23 31  1  0  0  0  0
 24 32  1  0  0  0  0
 24 25  1  0  0  0  0
 24 23  1  0  0  0  0
 25 34  1  1  0  0  0
 26 25  1  0  0  0  0
 27 26  2  0  0  0  0
 29 22  1  0  0  0  0
 30 23  1  0  0  0  0
 33 24  1  0  0  0  0
 35 26  1  0  0  0  0
 35 44  1  0  0  0  0
 36 45  1  6  0  0  0
 36 35  1  0  0  0  0
 36 40  1  0  0  0  0
 37 47  1  0  0  0  0
 37 36  1  0  0  0  0
 38 37  1  0  0  0  0
 39 38  2  0  0  0  0
 40 43  1  0  0  0  0
 41 40  2  0  0  0  0
 42 38  1  0  0  0  0
 46 37  1  0  0  0  0
 48 42  1  0  0  0  0
M  END
$$$$
