LPE.pdb
 OpenBabel07022418473D

 51 51  0  0  1  0  0  0  0  0999 V2000
    2.6930   -3.8660    1.8830 C   0  0  0  0  0  0  0  0  0  0  0  0
    2.0440   -2.6300    2.5400 C   0  0  0  0  0  0  0  0  0  0  0  0
    0.6650   -2.5480    1.9370 C   0  0  0  0  0  0  0  0  0  0  0  0
    2.9270   -1.4830    2.1430 C   0  0  0  0  0  0  0  0  0  0  0  0
    2.5630   -0.1430    2.6460 C   0  0  2  0  0  0  0  0  0  0  0  0
    2.5560   -0.1870    4.1330 N   0  0  0  0  0  0  0  0  0  0  0  0
    1.3840    0.5330    2.1410 C   0  0  0  0  0  0  0  0  0  0  0  0
    0.4430    0.8070    2.9210 O   0  0  0  0  0  0  0  0  0  0  0  0
    2.3460   -3.8520    0.8260 H   0  0  0  0  0  0  0  0  0  0  0  0
    3.7970   -3.7250    1.8350 H   0  0  0  0  0  0  0  0  0  0  0  0
    2.3760   -4.7920    2.3470 H   0  0  0  0  0  0  0  0  0  0  0  0
    1.9480   -2.7460    3.6270 H   0  0  0  0  0  0  0  0  0  0  0  0
    0.7760   -2.0240    0.9640 H   0  0  0  0  0  0  0  0  0  0  0  0
    0.2720   -3.5570    1.6800 H   0  0  0  0  0  0  0  0  0  0  0  0
   -0.0510   -2.0430    2.5980 H   0  0  0  0  0  0  0  0  0  0  0  0
    3.9400   -1.7460    2.6100 H   0  0  0  0  0  0  0  0  0  0  0  0
    3.0160   -1.4860    1.0510 H   0  0  0  0  0  0  0  0  0  0  0  0
    3.4980    0.5050    2.4640 H   0  0  0  0  0  0  0  0  0  0  0  0
    3.5100   -0.5410    4.3620 H   0  0  0  0  0  0  0  0  0  0  0  0
    1.8030   -0.8170    4.4850 H   0  0  0  0  0  0  0  0  0  0  0  0
    1.2020    0.9390    0.7710 N   0  0  0  0  0  0  0  0  0  0  0  0
    2.2110    0.6230   -0.2070 C   0  0  0  0  0  0  0  0  0  0  0  0
    2.1110    1.7770   -1.2050 C   0  0  0  0  0  0  0  0  0  0  0  0
    0.6740    2.1870   -1.1510 C   0  0  0  0  0  0  0  0  0  0  0  0
    0.1930    1.6680    0.1640 C   0  0  1  0  0  0  0  0  0  0  0  0
   -1.1800    1.2300    0.0550 C   0  0  0  0  0  0  0  0  0  0  0  0
   -1.9410    2.0870   -0.5260 O   0  0  0  0  0  0  0  0  0  0  0  0
    3.2430    0.6630    0.2280 H   0  0  0  0  0  0  0  0  0  0  0  0
    2.0430   -0.3070   -0.7450 H   0  0  0  0  0  0  0  0  0  0  0  0
    2.7590    2.6130   -0.9200 H   0  0  0  0  0  0  0  0  0  0  0  0
    2.3200    1.4270   -2.2430 H   0  0  0  0  0  0  0  0  0  0  0  0
    0.5320    3.2860   -1.1970 H   0  0  0  0  0  0  0  0  0  0  0  0
    0.0600    1.6760   -1.9400 H   0  0  0  0  0  0  0  0  0  0  0  0
    0.1040    2.6380    0.8170 H   0  0  0  0  0  0  0  0  0  0  0  0
   -1.7950    0.0380    0.4790 N   0  0  0  0  0  0  0  0  0  0  0  0
   -3.2210   -0.1720    0.2540 C   0  0  1  0  0  0  0  0  0  0  0  0
   -3.5140   -1.2860   -0.7130 C   0  0  0  0  0  0  0  0  0  0  0  0
   -2.8780   -1.0170   -2.0800 C   0  0  0  0  0  0  0  0  0  0  0  0
   -3.2440   -2.1540   -2.9410 C   0  0  0  0  0  0  0  0  0  0  0  0
   -4.4290   -2.5420   -3.0280 O   0  0  0  0  0  0  0  0  0  0  0  0
   -3.9350   -0.4340    1.5150 C   0  0  0  0  0  0  0  0  0  0  0  0
   -5.1640   -0.6560    1.5600 O   0  0  0  0  0  0  0  0  0  0  0  0
   -2.2660   -2.8090   -3.6650 O   0  0  0  0  0  0  0  0  0  0  0  0
   -3.2230   -0.4350    2.7030 O   0  0  0  0  0  0  0  0  0  0  0  0
   -1.1860   -0.6550    0.9460 H   0  0  0  0  0  0  0  0  0  0  0  0
   -3.6410    0.7490   -0.2200 H   0  0  0  0  0  0  0  0  0  0  0  0
   -3.2260   -2.2940   -0.3540 H   0  0  0  0  0  0  0  0  0  0  0  0
   -4.6070   -1.2910   -0.8850 H   0  0  0  0  0  0  0  0  0  0  0  0
   -3.3720   -0.1120   -2.4890 H   0  0  0  0  0  0  0  0  0  0  0  0
   -1.7880   -0.8770   -2.0200 H   0  0  0  0  0  0  0  0  0  0  0  0
   -2.2860   -3.8360   -3.7720 H   0  0  0  0  0  0  0  0  0  0  0  0
  1 11  1  0  0  0  0
  1  2  1  0  0  0  0
  2 12  1  0  0  0  0
  3  2  1  0  0  0  0
  3 15  1  0  0  0  0
  4  2  1  0  0  0  0
  4 16  1  0  0  0  0
  4  5  1  0  0  0  0
  5 18  1  6  0  0  0
  5  6  1  0  0  0  0
  6 19  1  0  0  0  0
  6 20  1  0  0  0  0
  7  5  1  0  0  0  0
  7  8  2  0  0  0  0
  9  1  1  0  0  0  0
 10  1  1  0  0  0  0
 13  3  1  0  0  0  0
 14  3  1  0  0  0  0
 17  4  1  0  0  0  0
 21  7  1  0  0  0  0
 22 28  1  0  0  0  0
 22 21  1  0  0  0  0
 23 24  1  0  0  0  0
 23 30  1  0  0  0  0
 23 22  1  0  0  0  0
 24 25  1  0  0  0  0
 25 21  1  0  0  0  0
 25 34  1  1  0  0  0
 26 25  1  0  0  0  0
 26 35  1  0  0  0  0
 27 26  2  0  0  0  0
 29 22  1  0  0  0  0
 31 23  1  0  0  0  0
 32 24  1  0  0  0  0
 33 24  1  0  0  0  0
 35 45  1  0  0  0  0
 36 46  1  6  0  0  0
 36 35  1  0  0  0  0
 36 41  1  0  0  0  0
 37 47  1  0  0  0  0
 37 36  1  0  0  0  0
 38 50  1  0  0  0  0
 38 37  1  0  0  0  0
 39 38  1  0  0  0  0
 40 39  2  0  0  0  0
 41 42  2  0  0  0  0
 41 44  1  0  0  0  0
 43 39  1  0  0  0  0
 48 37  1  0  0  0  0
 49 38  1  0  0  0  0
 51 43  1  0  0  0  0
M  END
$$$$
