LPG.pdb
 OpenBabel07022418473D

 42 42  0  0  1  0  0  0  0  0999 V2000
   -2.8330   -1.0190    3.9010 C   0  0  0  0  0  0  0  0  0  0  0  0
   -1.8500   -2.0270    3.3350 C   0  0  0  0  0  0  0  0  0  0  0  0
   -2.3590   -2.7760    2.1510 C   0  0  0  0  0  0  0  0  0  0  0  0
   -0.5580   -1.3370    3.0810 C   0  0  0  0  0  0  0  0  0  0  0  0
   -0.6870   -0.1750    2.0890 C   0  0  2  0  0  0  0  0  0  0  0  0
   -1.1570   -0.6830    0.8730 N   0  0  0  0  0  0  0  0  0  0  0  0
    0.5600    0.5840    2.1060 C   0  0  0  0  0  0  0  0  0  0  0  0
    1.0450    0.8570    3.2780 O   0  0  0  0  0  0  0  0  0  0  0  0
   -2.2360   -0.2770    4.4760 H   0  0  0  0  0  0  0  0  0  0  0  0
   -3.5360   -1.5700    4.5850 H   0  0  0  0  0  0  0  0  0  0  0  0
   -3.3950   -0.5220    3.0980 H   0  0  0  0  0  0  0  0  0  0  0  0
   -1.6860   -2.7870    4.1580 H   0  0  0  0  0  0  0  0  0  0  0  0
   -2.9090   -3.7160    2.4700 H   0  0  0  0  0  0  0  0  0  0  0  0
   -3.0650   -2.1460    1.5670 H   0  0  0  0  0  0  0  0  0  0  0  0
   -1.5090   -3.1670    1.5550 H   0  0  0  0  0  0  0  0  0  0  0  0
   -0.2060   -0.8880    4.0520 H   0  0  0  0  0  0  0  0  0  0  0  0
    0.2410   -2.0030    2.6990 H   0  0  0  0  0  0  0  0  0  0  0  0
   -1.4660    0.5340    2.5350 H   0  0  0  0  0  0  0  0  0  0  0  0
   -1.9990   -0.3130    0.4770 H   0  0  0  0  0  0  0  0  0  0  0  0
   -0.5450   -1.3190    0.4000 H   0  0  0  0  0  0  0  0  0  0  0  0
    1.2590    1.0290    0.9800 N   0  0  0  0  0  0  0  0  0  0  0  0
    2.5160    1.7410    1.0420 C   0  0  0  0  0  0  0  0  0  0  0  0
    2.5860    2.5240   -0.2460 C   0  0  0  0  0  0  0  0  0  0  0  0
    1.2490    2.3090   -0.9190 C   0  0  0  0  0  0  0  0  0  0  0  0
    0.9180    0.9080   -0.3880 C   0  0  1  0  0  0  0  0  0  0  0  0
    1.6020   -0.1500   -1.1470 C   0  0  0  0  0  0  0  0  0  0  0  0
    1.3440   -0.2190   -2.3820 O   0  0  0  0  0  0  0  0  0  0  0  0
    3.3990    1.0890    1.1880 H   0  0  0  0  0  0  0  0  0  0  0  0
    2.4320    2.4560    1.9140 H   0  0  0  0  0  0  0  0  0  0  0  0
    3.4410    2.2330   -0.8870 H   0  0  0  0  0  0  0  0  0  0  0  0
    2.6230    3.6280   -0.0050 H   0  0  0  0  0  0  0  0  0  0  0  0
    0.4910    3.0400   -0.6200 H   0  0  0  0  0  0  0  0  0  0  0  0
    1.4030    2.3000   -2.0000 H   0  0  0  0  0  0  0  0  0  0  0  0
   -0.1910    0.8360   -0.5370 H   0  0  0  0  0  0  0  0  0  0  0  0
    2.5050   -1.0750   -0.6120 N   0  0  0  0  0  0  0  0  0  0  0  0
    3.1210   -2.0780   -1.4590 C   0  0  0  0  0  0  0  0  0  0  0  0
    2.0680   -2.9530   -2.0850 C   0  0  0  0  0  0  0  0  0  0  0  0
    2.3790   -3.8910   -2.8590 O   0  0  0  0  0  0  0  0  0  0  0  0
    0.7220   -2.7600   -1.8350 O   0  0  0  0  0  0  0  0  0  0  0  0
    2.7390   -1.0520    0.3970 H   0  0  0  0  0  0  0  0  0  0  0  0
    3.6350   -1.5740   -2.2970 H   0  0  0  0  0  0  0  0  0  0  0  0
    3.8640   -2.6620   -0.9010 H   0  0  0  0  0  0  0  0  0  0  0  0
  1  9  1  0  0  0  0
  1 10  1  0  0  0  0
  2  1  1  0  0  0  0
  2 12  1  0  0  0  0
  3 13  1  0  0  0  0
  3  2  1  0  0  0  0
  4  2  1  0  0  0  0
  4 16  1  0  0  0  0
  5  7  1  0  0  0  0
  5 18  1  1  0  0  0
  5  4  1  0  0  0  0
  6  5  1  0  0  0  0
  7  8  2  0  0  0  0
 11  1  1  0  0  0  0
 14  3  1  0  0  0  0
 15  3  1  0  0  0  0
 17  4  1  0  0  0  0
 19  6  1  0  0  0  0
 20  6  1  0  0  0  0
 21 22  1  0  0  0  0
 21  7  1  0  0  0  0
 22 28  1  0  0  0  0
 22 29  1  0  0  0  0
 23 31  1  0  0  0  0
 23 22  1  0  0  0  0
 24 32  1  0  0  0  0
 24 25  1  0  0  0  0
 24 23  1  0  0  0  0
 25 34  1  6  0  0  0
 25 21  1  0  0  0  0
 26 35  1  0  0  0  0
 26 25  1  0  0  0  0
 27 26  2  0  0  0  0
 30 23  1  0  0  0  0
 33 24  1  0  0  0  0
 35 40  1  0  0  0  0
 36 42  1  0  0  0  0
 36 35  1  0  0  0  0
 37 39  1  0  0  0  0
 37 36  1  0  0  0  0
 38 37  2  0  0  0  0
 41 36  1  0  0  0  0
M  END
$$$$
