LPH.pdb
 OpenBabel07022418473D

 52 53  0  0  1  0  0  0  0  0999 V2000
    0.2050   -2.3910    5.3040 C   0  0  0  0  0  0  0  0  0  0  0  0
    1.1000   -2.5270    4.0650 C   0  0  0  0  0  0  0  0  0  0  0  0
    0.2900   -3.3880    3.1070 C   0  0  0  0  0  0  0  0  0  0  0  0
    1.2940   -1.1570    3.4850 C   0  0  0  0  0  0  0  0  0  0  0  0
    2.1870   -1.2200    2.2540 C   0  0  2  0  0  0  0  0  0  0  0  0
    3.4530   -1.7990    2.8300 N   0  0  0  0  0  0  0  0  0  0  0  0
    2.4780    0.0880    1.6780 C   0  0  0  0  0  0  0  0  0  0  0  0
    3.5110    0.6790    2.2120 O   0  0  0  0  0  0  0  0  0  0  0  0
    0.0470   -3.4440    5.6820 H   0  0  0  0  0  0  0  0  0  0  0  0
    0.6620   -1.7420    6.0530 H   0  0  0  0  0  0  0  0  0  0  0  0
   -0.7770   -2.0310    4.9590 H   0  0  0  0  0  0  0  0  0  0  0  0
    2.0550   -3.0150    4.3190 H   0  0  0  0  0  0  0  0  0  0  0  0
   -0.0500   -4.2970    3.6690 H   0  0  0  0  0  0  0  0  0  0  0  0
   -0.6220   -2.7870    2.8660 H   0  0  0  0  0  0  0  0  0  0  0  0
    0.8720   -3.6440    2.2250 H   0  0  0  0  0  0  0  0  0  0  0  0
    0.3480   -0.6970    3.2260 H   0  0  0  0  0  0  0  0  0  0  0  0
    1.7810   -0.4870    4.2390 H   0  0  0  0  0  0  0  0  0  0  0  0
    1.8540   -2.0010    1.5740 H   0  0  0  0  0  0  0  0  0  0  0  0
    3.6880   -1.0870    3.5830 H   0  0  0  0  0  0  0  0  0  0  0  0
    4.1940   -1.7020    2.1050 H   0  0  0  0  0  0  0  0  0  0  0  0
    1.8330    0.7750    0.6640 N   0  0  0  0  0  0  0  0  0  0  0  0
    2.3500    2.1560    0.2720 C   0  0  0  0  0  0  0  0  0  0  0  0
    2.5770    1.8650   -1.2130 C   0  0  0  0  0  0  0  0  0  0  0  0
    1.5400    0.8010   -1.5890 C   0  0  0  0  0  0  0  0  0  0  0  0
    0.7900    0.6570   -0.2690 C   0  0  1  0  0  0  0  0  0  0  0  0
   -0.1950   -0.3760   -0.2540 C   0  0  0  0  0  0  0  0  0  0  0  0
   -0.4660   -1.0570    0.7550 O   0  0  0  0  0  0  0  0  0  0  0  0
    3.2450    2.4010    0.8200 H   0  0  0  0  0  0  0  0  0  0  0  0
    1.4810    2.7970    0.3760 H   0  0  0  0  0  0  0  0  0  0  0  0
    3.6010    1.4620   -1.2930 H   0  0  0  0  0  0  0  0  0  0  0  0
    2.4780    2.7590   -1.8370 H   0  0  0  0  0  0  0  0  0  0  0  0
    2.0870   -0.0900   -1.8800 H   0  0  0  0  0  0  0  0  0  0  0  0
    0.8010    1.1860   -2.3150 H   0  0  0  0  0  0  0  0  0  0  0  0
    0.2030    1.6490   -0.1910 H   0  0  0  0  0  0  0  0  0  0  0  0
   -0.9780   -0.7340   -1.4190 N   0  0  0  0  0  0  0  0  0  0  0  0
   -1.9740   -1.7740   -1.3930 C   0  0  1  0  0  0  0  0  0  0  0  0
   -3.1900   -1.2890   -2.1520 C   0  0  0  0  0  0  0  0  0  0  0  0
   -3.7720   -0.0530   -1.5700 C   0  0  0  0  0  0  0  0  0  0  0  0
   -3.4410    1.2640   -1.9050 C   0  0  0  0  0  0  0  0  0  0  0  0
   -4.2030    2.0610   -1.1450 N   0  0  0  0  0  0  0  0  0  0  0  0
   -4.9870    1.3220   -0.3580 C   0  0  0  0  0  0  0  0  0  0  0  0
   -4.7170    0.0240   -0.6250 N   0  0  0  0  0  0  0  0  0  0  0  0
   -1.4410   -2.9720   -2.1370 C   0  0  0  0  0  0  0  0  0  0  0  0
   -0.2900   -2.8870   -2.6180 O   0  0  0  0  0  0  0  0  0  0  0  0
   -2.1690   -4.1320   -2.3010 O   0  0  0  0  0  0  0  0  0  0  0  0
   -0.7890   -0.2050   -2.2760 H   0  0  0  0  0  0  0  0  0  0  0  0
   -2.2220   -2.1030   -0.3610 H   0  0  0  0  0  0  0  0  0  0  0  0
   -2.9310   -1.0330   -3.2020 H   0  0  0  0  0  0  0  0  0  0  0  0
   -3.9450   -2.1080   -2.2280 H   0  0  0  0  0  0  0  0  0  0  0  0
   -2.7010    1.5150   -2.6470 H   0  0  0  0  0  0  0  0  0  0  0  0
   -4.1640    3.1140   -1.1850 H   0  0  0  0  0  0  0  0  0  0  0  0
   -5.7040    1.6840    0.3580 H   0  0  0  0  0  0  0  0  0  0  0  0
  1  9  1  0  0  0  0
  1 10  1  0  0  0  0
  2 12  1  0  0  0  0
  2  1  1  0  0  0  0
  3 13  1  0  0  0  0
  3  2  1  0  0  0  0
  4  2  1  0  0  0  0
  4 17  1  0  0  0  0
  5 18  1  6  0  0  0
  5  6  1  0  0  0  0
  5  4  1  0  0  0  0
  6 19  1  0  0  0  0
  7  8  2  0  0  0  0
  7  5  1  0  0  0  0
 11  1  1  0  0  0  0
 14  3  1  0  0  0  0
 15  3  1  0  0  0  0
 16  4  1  0  0  0  0
 20  6  1  0  0  0  0
 21  7  1  0  0  0  0
 22 29  1  0  0  0  0
 22 21  1  0  0  0  0
 22 28  1  0  0  0  0
 23 22  1  0  0  0  0
 24 23  1  0  0  0  0
 24 25  1  0  0  0  0
 25 26  1  0  0  0  0
 25 34  1  1  0  0  0
 25 21  1  0  0  0  0
 26 27  2  0  0  0  0
 30 23  1  0  0  0  0
 31 23  1  0  0  0  0
 32 24  1  0  0  0  0
 33 24  1  0  0  0  0
 35 36  1  0  0  0  0
 35 26  1  0  0  0  0
 36 47  1  1  0  0  0
 37 38  1  0  0  0  0
 37 36  1  0  0  0  0
 38 42  1  0  0  0  0
 39 38  2  0  0  0  0
 39 40  1  0  0  0  0
 40 41  1  0  0  0  0
 41 52  1  0  0  0  0
 42 41  2  0  0  0  0
 43 36  1  0  0  0  0
 44 43  2  0  0  0  0
 45 43  1  0  0  0  0
 46 35  1  0  0  0  0
 48 37  1  0  0  0  0
 49 37  1  0  0  0  0
 50 39  1  0  0  0  0
 51 40  1  0  0  0  0
M  END
$$$$
