LPI.pdb
 OpenBabel07022418473D

 54 54  0  0  1  0  0  0  0  0999 V2000
   -0.7790   -3.6720    3.5040 C   0  0  0  0  0  0  0  0  0  0  0  0
    0.6130   -3.0950    3.1980 C   0  0  0  0  0  0  0  0  0  0  0  0
    0.8490   -2.0470    4.2380 C   0  0  0  0  0  0  0  0  0  0  0  0
    0.5400   -2.5710    1.7800 C   0  0  0  0  0  0  0  0  0  0  0  0
    1.8270   -1.9670    1.2900 C   0  0  2  0  0  0  0  0  0  0  0  0
    2.8210   -3.0580    1.4030 N   0  0  0  0  0  0  0  0  0  0  0  0
    2.2630   -0.7630    1.9530 C   0  0  0  0  0  0  0  0  0  0  0  0
    3.3440   -0.8670    2.6770 O   0  0  0  0  0  0  0  0  0  0  0  0
   -0.6750   -4.3420    4.3790 H   0  0  0  0  0  0  0  0  0  0  0  0
   -1.3970   -2.8120    3.8330 H   0  0  0  0  0  0  0  0  0  0  0  0
   -1.2130   -4.1700    2.6240 H   0  0  0  0  0  0  0  0  0  0  0  0
    1.3320   -3.9370    3.2580 H   0  0  0  0  0  0  0  0  0  0  0  0
    1.9110   -2.1610    4.6070 H   0  0  0  0  0  0  0  0  0  0  0  0
    0.2480   -2.2550    5.1780 H   0  0  0  0  0  0  0  0  0  0  0  0
    0.5880   -1.0280    3.9620 H   0  0  0  0  0  0  0  0  0  0  0  0
   -0.2750   -1.8110    1.7130 H   0  0  0  0  0  0  0  0  0  0  0  0
    0.2700   -3.3940    1.0990 H   0  0  0  0  0  0  0  0  0  0  0  0
    1.7490   -1.7950    0.2010 H   0  0  0  0  0  0  0  0  0  0  0  0
    3.2330   -3.0840    2.3640 H   0  0  0  0  0  0  0  0  0  0  0  0
    3.5490   -2.9380    0.6580 H   0  0  0  0  0  0  0  0  0  0  0  0
    1.6580    0.4890    1.9040 N   0  0  0  0  0  0  0  0  0  0  0  0
    2.3390    1.5610    2.7890 C   0  0  0  0  0  0  0  0  0  0  0  0
    2.4850    2.6650    1.8060 C   0  0  0  0  0  0  0  0  0  0  0  0
    1.5130    2.3940    0.6890 C   0  0  0  0  0  0  0  0  0  0  0  0
    0.6390    1.2610    1.3760 C   0  0  1  0  0  0  0  0  0  0  0  0
   -0.3860    0.9690    0.4380 C   0  0  0  0  0  0  0  0  0  0  0  0
   -1.2680    1.9630    0.3230 O   0  0  0  0  0  0  0  0  0  0  0  0
    1.5370    1.8080    3.5030 H   0  0  0  0  0  0  0  0  0  0  0  0
    3.2540    1.1730    3.2030 H   0  0  0  0  0  0  0  0  0  0  0  0
    3.5390    2.7240    1.4420 H   0  0  0  0  0  0  0  0  0  0  0  0
    2.2360    3.6750    2.2440 H   0  0  0  0  0  0  0  0  0  0  0  0
    2.0360    1.9540   -0.1730 H   0  0  0  0  0  0  0  0  0  0  0  0
    0.8650    3.2380    0.4480 H   0  0  0  0  0  0  0  0  0  0  0  0
    0.2010    1.9070    2.2530 H   0  0  0  0  0  0  0  0  0  0  0  0
   -3.3740    0.9450   -3.6390 C   0  0  0  0  0  0  0  0  0  0  0  0
   -2.5670   -0.3350   -3.7180 C   0  0  0  0  0  0  0  0  0  0  0  0
   -1.4380   -0.3320   -2.7160 C   0  0  2  0  0  0  0  0  0  0  0  0
   -0.6570   -1.6120   -2.8230 C   0  0  0  0  0  0  0  0  0  0  0  0
   -1.8960   -0.0700   -1.2970 C   0  0  2  0  0  0  0  0  0  0  0  0
   -0.7250   -0.0750   -0.4050 N   0  0  0  0  0  0  0  0  0  0  0  0
   -2.7660   -1.1800   -0.8440 C   0  0  0  0  0  0  0  0  0  0  0  0
   -2.4640   -1.9430    0.1250 O   0  0  0  0  0  0  0  0  0  0  0  0
   -3.9970   -1.4930   -1.4370 O   0  0  0  0  0  0  0  0  0  0  0  0
   -4.1730    0.8150   -2.8850 H   0  0  0  0  0  0  0  0  0  0  0  0
   -3.8680    1.1750   -4.6100 H   0  0  0  0  0  0  0  0  0  0  0  0
   -2.6790    1.7760   -3.3820 H   0  0  0  0  0  0  0  0  0  0  0  0
   -2.0760   -0.3400   -4.7340 H   0  0  0  0  0  0  0  0  0  0  0  0
   -3.1850   -1.2400   -3.5790 H   0  0  0  0  0  0  0  0  0  0  0  0
   -0.7330    0.5050   -2.9880 H   0  0  0  0  0  0  0  0  0  0  0  0
   -0.8190   -2.1920   -1.8910 H   0  0  0  0  0  0  0  0  0  0  0  0
    0.4140   -1.4280   -3.0250 H   0  0  0  0  0  0  0  0  0  0  0  0
   -1.0560   -2.2060   -3.6540 H   0  0  0  0  0  0  0  0  0  0  0  0
   -2.4630    0.8560   -1.2450 H   0  0  0  0  0  0  0  0  0  0  0  0
   -0.1550   -0.9050   -0.4470 H   0  0  0  0  0  0  0  0  0  0  0  0
  1 10  1  0  0  0  0
  1  9  1  0  0  0  0
  2 12  1  0  0  0  0
  2  1  1  0  0  0  0
  2  3  1  0  0  0  0
  3 13  1  0  0  0  0
  3 14  1  0  0  0  0
  4  2  1  0  0  0  0
  5 18  1  6  0  0  0
  5  6  1  0  0  0  0
  5  4  1  0  0  0  0
  5  7  1  0  0  0  0
  6 19  1  0  0  0  0
  7  8  2  0  0  0  0
 11  1  1  0  0  0  0
 15  3  1  0  0  0  0
 16  4  1  0  0  0  0
 17  4  1  0  0  0  0
 20  6  1  0  0  0  0
 21  7  1  0  0  0  0
 21 22  1  0  0  0  0
 22 29  1  0  0  0  0
 22 28  1  0  0  0  0
 23 31  1  0  0  0  0
 23 22  1  0  0  0  0
 24 25  1  0  0  0  0
 24 23  1  0  0  0  0
 25 21  1  0  0  0  0
 25 34  1  1  0  0  0
 26 25  1  0  0  0  0
 27 26  2  0  0  0  0
 30 23  1  0  0  0  0
 32 24  1  0  0  0  0
 33 24  1  0  0  0  0
 35 46  1  0  0  0  0
 35 44  1  0  0  0  0
 36 35  1  0  0  0  0
 36 48  1  0  0  0  0
 36 37  1  0  0  0  0
 37 49  1  6  0  0  0
 37 39  1  0  0  0  0
 38 37  1  0  0  0  0
 38 50  1  0  0  0  0
 39 53  1  1  0  0  0
 39 41  1  0  0  0  0
 39 40  1  0  0  0  0
 40 26  1  0  0  0  0
 41 42  1  0  0  0  0
 43 41  2  0  0  0  0
 45 35  1  0  0  0  0
 47 36  1  0  0  0  0
 51 38  1  0  0  0  0
 52 38  1  0  0  0  0
 54 40  1  0  0  0  0
M  END
$$$$
