LPK.pdb
 OpenBabel07022418473D

 56 56  0  0  1  0  0  0  0  0999 V2000
   -1.1930   -1.6000    3.5810 C   0  0  0  0  0  0  0  0  0  0  0  0
    0.3030   -1.2480    3.5540 C   0  0  0  0  0  0  0  0  0  0  0  0
    0.3490    0.2600    3.4440 C   0  0  0  0  0  0  0  0  0  0  0  0
    0.8670   -1.9490    2.3460 C   0  0  0  0  0  0  0  0  0  0  0  0
    2.3300   -1.7380    2.1360 C   0  0  2  0  0  0  0  0  0  0  0  0
    2.9710   -2.2810    3.3850 N   0  0  0  0  0  0  0  0  0  0  0  0
    2.7900   -0.4060    1.8760 C   0  0  0  0  0  0  0  0  0  0  0  0
    3.6960    0.0220    2.7180 O   0  0  0  0  0  0  0  0  0  0  0  0
   -1.6040   -1.2710    2.6040 H   0  0  0  0  0  0  0  0  0  0  0  0
   -1.2650   -2.7090    3.5860 H   0  0  0  0  0  0  0  0  0  0  0  0
   -1.7080   -1.1170    4.4150 H   0  0  0  0  0  0  0  0  0  0  0  0
    0.7140   -1.5880    4.5130 H   0  0  0  0  0  0  0  0  0  0  0  0
   -0.4660    0.7310    4.0700 H   0  0  0  0  0  0  0  0  0  0  0  0
    0.1180    0.5940    2.4120 H   0  0  0  0  0  0  0  0  0  0  0  0
    1.2880    0.6870    3.8510 H   0  0  0  0  0  0  0  0  0  0  0  0
    0.7590   -3.0530    2.5830 H   0  0  0  0  0  0  0  0  0  0  0  0
    0.2020   -1.7670    1.5190 H   0  0  0  0  0  0  0  0  0  0  0  0
    2.6880   -2.4770    1.3920 H   0  0  0  0  0  0  0  0  0  0  0  0
    2.4670   -3.1560    3.6300 H   0  0  0  0  0  0  0  0  0  0  0  0
    2.7500   -1.5760    4.1060 H   0  0  0  0  0  0  0  0  0  0  0  0
    2.4620    0.5500    0.8960 N   0  0  0  0  0  0  0  0  0  0  0  0
    3.0990    1.9390    0.9330 C   0  0  0  0  0  0  0  0  0  0  0  0
    3.5870    2.0060   -0.4890 C   0  0  0  0  0  0  0  0  0  0  0  0
    2.4720    1.3980   -1.2830 C   0  0  0  0  0  0  0  0  0  0  0  0
    1.6020    0.6540   -0.2250 C   0  0  1  0  0  0  0  0  0  0  0  0
    1.1670   -0.5700   -0.8590 C   0  0  0  0  0  0  0  0  0  0  0  0
    1.6960   -1.6660   -0.7580 O   0  0  0  0  0  0  0  0  0  0  0  0
    2.2780    2.6690    1.0610 H   0  0  0  0  0  0  0  0  0  0  0  0
    3.8810    1.9670    1.6850 H   0  0  0  0  0  0  0  0  0  0  0  0
    4.5160    1.4000   -0.5990 H   0  0  0  0  0  0  0  0  0  0  0  0
    3.7990    3.0410   -0.8200 H   0  0  0  0  0  0  0  0  0  0  0  0
    1.8530    2.1180   -1.8320 H   0  0  0  0  0  0  0  0  0  0  0  0
    2.8600    0.6250   -1.9460 H   0  0  0  0  0  0  0  0  0  0  0  0
    0.7320    1.3500    0.0030 H   0  0  0  0  0  0  0  0  0  0  0  0
   -0.0110   -0.5030   -1.6990 N   0  0  0  0  0  0  0  0  0  0  0  0
   -0.5330   -1.6630   -2.3800 C   0  0  1  0  0  0  0  0  0  0  0  0
   -1.8830   -2.0260   -1.7890 C   0  0  0  0  0  0  0  0  0  0  0  0
   -2.8750   -0.9180   -1.9260 C   0  0  0  0  0  0  0  0  0  0  0  0
   -4.1930   -1.3370   -1.3300 C   0  0  0  0  0  0  0  0  0  0  0  0
   -4.0800   -1.6740    0.1390 C   0  0  0  0  0  0  0  0  0  0  0  0
   -5.4140   -2.0630    0.6260 N   0  0  0  0  0  0  0  0  0  0  0  0
   -0.6170   -1.4590   -3.8390 C   0  0  0  0  0  0  0  0  0  0  0  0
   -0.2580   -0.3780   -4.3630 O   0  0  0  0  0  0  0  0  0  0  0  0
   -1.0950   -2.4620   -4.6590 O   0  0  0  0  0  0  0  0  0  0  0  0
   -0.5130    0.4000   -1.8300 H   0  0  0  0  0  0  0  0  0  0  0  0
    0.1450   -2.5250   -2.1110 H   0  0  0  0  0  0  0  0  0  0  0  0
   -2.2720   -2.9230   -2.2980 H   0  0  0  0  0  0  0  0  0  0  0  0
   -1.6940   -2.2460   -0.6980 H   0  0  0  0  0  0  0  0  0  0  0  0
   -3.0170   -0.6970   -3.0070 H   0  0  0  0  0  0  0  0  0  0  0  0
   -2.5170    0.0220   -1.4490 H   0  0  0  0  0  0  0  0  0  0  0  0
   -4.6370   -2.2030   -1.8700 H   0  0  0  0  0  0  0  0  0  0  0  0
   -4.9590   -0.5170   -1.4460 H   0  0  0  0  0  0  0  0  0  0  0  0
   -3.4380   -2.5870    0.2620 H   0  0  0  0  0  0  0  0  0  0  0  0
   -3.6960   -0.8430    0.7280 H   0  0  0  0  0  0  0  0  0  0  0  0
   -6.1180   -1.4290    0.1520 H   0  0  0  0  0  0  0  0  0  0  0  0
   -5.4190   -1.8080    1.6470 H   0  0  0  0  0  0  0  0  0  0  0  0
  1 10  1  0  0  0  0
  1 11  1  0  0  0  0
  2  1  1  0  0  0  0
  2 12  1  0  0  0  0
  3  2  1  0  0  0  0
  3 15  1  0  0  0  0
  3 13  1  0  0  0  0
  4 16  1  0  0  0  0
  4  2  1  0  0  0  0
  5 18  1  6  0  0  0
  5  4  1  0  0  0  0
  5  6  1  0  0  0  0
  6 19  1  0  0  0  0
  6 20  1  0  0  0  0
  7  5  1  0  0  0  0
  7  8  2  0  0  0  0
  9  1  1  0  0  0  0
 14  3  1  0  0  0  0
 17  4  1  0  0  0  0
 21 22  1  0  0  0  0
 21  7  1  0  0  0  0
 22 28  1  0  0  0  0
 22 29  1  0  0  0  0
 23 22  1  0  0  0  0
 24 23  1  0  0  0  0
 24 25  1  0  0  0  0
 25 34  1  1  0  0  0
 25 21  1  0  0  0  0
 26 27  2  0  0  0  0
 26 25  1  0  0  0  0
 30 23  1  0  0  0  0
 31 23  1  0  0  0  0
 32 24  1  0  0  0  0
 33 24  1  0  0  0  0
 35 26  1  0  0  0  0
 36 46  1  1  0  0  0
 36 37  1  0  0  0  0
 36 35  1  0  0  0  0
 37 48  1  0  0  0  0
 38 37  1  0  0  0  0
 38 50  1  0  0  0  0
 38 39  1  0  0  0  0
 39 40  1  0  0  0  0
 40 53  1  0  0  0  0
 40 41  1  0  0  0  0
 40 54  1  0  0  0  0
 41 56  1  0  0  0  0
 42 36  1  0  0  0  0
 43 42  1  0  0  0  0
 44 42  2  0  0  0  0
 45 35  1  0  0  0  0
 47 37  1  0  0  0  0
 49 38  1  0  0  0  0
 51 39  1  0  0  0  0
 52 39  1  0  0  0  0
 55 41  1  0  0  0  0
M  END
$$$$
