LPL.pdb
 OpenBabel07022418473D

 54 54  0  0  1  0  0  0  0  0999 V2000
    1.1860   -4.8240    0.4420 C   0  0  0  0  0  0  0  0  0  0  0  0
    1.3930   -3.7940    1.5800 C   0  0  0  0  0  0  0  0  0  0  0  0
    0.0680   -3.1310    1.7510 C   0  0  0  0  0  0  0  0  0  0  0  0
    2.4670   -2.8870    1.1190 C   0  0  0  0  0  0  0  0  0  0  0  0
    2.9100   -1.7940    2.0010 C   0  0  2  0  0  0  0  0  0  0  0  0
    3.3790   -2.3480    3.2860 N   0  0  0  0  0  0  0  0  0  0  0  0
    2.0910   -0.6060    2.1850 C   0  0  0  0  0  0  0  0  0  0  0  0
    1.7220   -0.3400    3.3840 O   0  0  0  0  0  0  0  0  0  0  0  0
    0.2460   -5.3620    0.5700 H   0  0  0  0  0  0  0  0  0  0  0  0
    1.1920   -4.2740   -0.5260 H   0  0  0  0  0  0  0  0  0  0  0  0
    2.0750   -5.4850    0.4270 H   0  0  0  0  0  0  0  0  0  0  0  0
    1.6580   -4.3870    2.4860 H   0  0  0  0  0  0  0  0  0  0  0  0
    0.1250   -2.2080    2.3370 H   0  0  0  0  0  0  0  0  0  0  0  0
   -0.4030   -2.9580    0.7560 H   0  0  0  0  0  0  0  0  0  0  0  0
   -0.6120   -3.8520    2.2880 H   0  0  0  0  0  0  0  0  0  0  0  0
    3.3950   -3.5230    0.9170 H   0  0  0  0  0  0  0  0  0  0  0  0
    2.2000   -2.5300    0.0910 H   0  0  0  0  0  0  0  0  0  0  0  0
    3.9290   -1.4570    1.5400 H   0  0  0  0  0  0  0  0  0  0  0  0
    3.8020   -1.5290    3.7870 H   0  0  0  0  0  0  0  0  0  0  0  0
    4.1560   -3.0260    3.1000 H   0  0  0  0  0  0  0  0  0  0  0  0
    1.6760    0.2830    1.1570 N   0  0  0  0  0  0  0  0  0  0  0  0
    1.9720    0.1080   -0.2710 C   0  0  0  0  0  0  0  0  0  0  0  0
    2.0110    1.5080   -0.8360 C   0  0  0  0  0  0  0  0  0  0  0  0
    1.5570    2.4470    0.2650 C   0  0  0  0  0  0  0  0  0  0  0  0
    0.9750    1.5170    1.3230 C   0  0  1  0  0  0  0  0  0  0  0  0
   -0.4920    1.4680    1.2280 C   0  0  0  0  0  0  0  0  0  0  0  0
   -1.1520    2.5580    1.4470 O   0  0  0  0  0  0  0  0  0  0  0  0
    1.2210   -0.5290   -0.7420 H   0  0  0  0  0  0  0  0  0  0  0  0
    2.9810   -0.3210   -0.4090 H   0  0  0  0  0  0  0  0  0  0  0  0
    1.3260    1.6010   -1.7260 H   0  0  0  0  0  0  0  0  0  0  0  0
    3.0190    1.7830   -1.2070 H   0  0  0  0  0  0  0  0  0  0  0  0
    2.4580    2.9320    0.6660 H   0  0  0  0  0  0  0  0  0  0  0  0
    0.8040    3.1700   -0.1070 H   0  0  0  0  0  0  0  0  0  0  0  0
    1.2400    1.9970    2.3100 H   0  0  0  0  0  0  0  0  0  0  0  0
   -3.1490    1.9880   -1.5970 C   0  0  0  0  0  0  0  0  0  0  0  0
   -2.6420    0.5650   -1.6790 C   0  0  0  0  0  0  0  0  0  0  0  0
   -3.2600   -0.0140   -2.9620 C   0  0  0  0  0  0  0  0  0  0  0  0
   -3.0460   -0.2830   -0.5320 C   0  0  0  0  0  0  0  0  0  0  0  0
   -2.5650    0.1990    0.8110 C   0  0  2  0  0  0  0  0  0  0  0  0
   -1.1450    0.2750    0.9090 N   0  0  0  0  0  0  0  0  0  0  0  0
   -3.1600   -0.6400    1.8980 C   0  0  0  0  0  0  0  0  0  0  0  0
   -4.4030   -0.7940    1.9340 O   0  0  0  0  0  0  0  0  0  0  0  0
   -2.4210   -1.2700    2.8830 O   0  0  0  0  0  0  0  0  0  0  0  0
   -4.2650    1.9050   -1.4810 H   0  0  0  0  0  0  0  0  0  0  0  0
   -2.8880    2.5090   -2.5420 H   0  0  0  0  0  0  0  0  0  0  0  0
   -2.7790    2.5630   -0.7530 H   0  0  0  0  0  0  0  0  0  0  0  0
   -1.5370    0.5410   -1.8830 H   0  0  0  0  0  0  0  0  0  0  0  0
   -4.2640    0.4550   -3.1090 H   0  0  0  0  0  0  0  0  0  0  0  0
   -3.3070   -1.1050   -2.8700 H   0  0  0  0  0  0  0  0  0  0  0  0
   -2.6400    0.2860   -3.8320 H   0  0  0  0  0  0  0  0  0  0  0  0
   -2.6070   -1.2940   -0.6840 H   0  0  0  0  0  0  0  0  0  0  0  0
   -4.1430   -0.4230   -0.5610 H   0  0  0  0  0  0  0  0  0  0  0  0
   -2.9880    1.2120    0.9730 H   0  0  0  0  0  0  0  0  0  0  0  0
   -0.5990   -0.5850    0.7350 H   0  0  0  0  0  0  0  0  0  0  0  0
  1  9  1  0  0  0  0
  1  2  1  0  0  0  0
  2  3  1  0  0  0  0
  2 12  1  0  0  0  0
  3 15  1  0  0  0  0
  3 13  1  0  0  0  0
  4  2  1  0  0  0  0
  4  5  1  0  0  0  0
  5 18  1  6  0  0  0
  5  7  1  0  0  0  0
  5  6  1  0  0  0  0
  6 19  1  0  0  0  0
  7  8  2  0  0  0  0
 10  1  1  0  0  0  0
 11  1  1  0  0  0  0
 14  3  1  0  0  0  0
 16  4  1  0  0  0  0
 17  4  1  0  0  0  0
 20  6  1  0  0  0  0
 21 25  1  0  0  0  0
 21  7  1  0  0  0  0
 22 21  1  0  0  0  0
 23 22  1  0  0  0  0
 23 24  1  0  0  0  0
 24 32  1  0  0  0  0
 24 25  1  0  0  0  0
 25 34  1  1  0  0  0
 26 25  1  0  0  0  0
 26 27  2  0  0  0  0
 28 22  1  0  0  0  0
 29 22  1  0  0  0  0
 30 23  1  0  0  0  0
 31 23  1  0  0  0  0
 33 24  1  0  0  0  0
 35 44  1  0  0  0  0
 35 46  1  0  0  0  0
 36 35  1  0  0  0  0
 36 38  1  0  0  0  0
 37 49  1  0  0  0  0
 37 36  1  0  0  0  0
 38 39  1  0  0  0  0
 39 40  1  0  0  0  0
 39 53  1  1  0  0  0
 39 41  1  0  0  0  0
 40 26  1  0  0  0  0
 41 42  2  0  0  0  0
 41 43  1  0  0  0  0
 45 35  1  0  0  0  0
 47 36  1  0  0  0  0
 48 37  1  0  0  0  0
 50 37  1  0  0  0  0
 51 38  1  0  0  0  0
 52 38  1  0  0  0  0
 54 40  1  0  0  0  0
M  END
$$$$
