LPM.pdb
 OpenBabel07022418473D

 52 52  0  0  1  0  0  0  0  0999 V2000
    0.1710   -4.0420    3.6430 C   0  0  0  0  0  0  0  0  0  0  0  0
    1.1970   -2.9640    3.2300 C   0  0  0  0  0  0  0  0  0  0  0  0
    0.9890   -1.8420    4.1960 C   0  0  0  0  0  0  0  0  0  0  0  0
    0.8780   -2.6400    1.8110 C   0  0  0  0  0  0  0  0  0  0  0  0
    1.7610   -1.6040    1.1640 C   0  0  2  0  0  0  0  0  0  0  0  0
    3.1450   -2.2020    1.2400 N   0  0  0  0  0  0  0  0  0  0  0  0
    1.8300   -0.3180    1.7870 C   0  0  0  0  0  0  0  0  0  0  0  0
    2.9570    0.0080    2.3270 O   0  0  0  0  0  0  0  0  0  0  0  0
    0.2050   -4.1200    4.7490 H   0  0  0  0  0  0  0  0  0  0  0  0
   -0.8140   -3.6380    3.3450 H   0  0  0  0  0  0  0  0  0  0  0  0
    0.3690   -4.9860    3.1270 H   0  0  0  0  0  0  0  0  0  0  0  0
    2.1790   -3.4550    3.3150 H   0  0  0  0  0  0  0  0  0  0  0  0
    1.9120   -1.2930    4.4720 H   0  0  0  0  0  0  0  0  0  0  0  0
    0.1590   -1.2170    3.8470 H   0  0  0  0  0  0  0  0  0  0  0  0
    0.6300   -2.2640    5.1850 H   0  0  0  0  0  0  0  0  0  0  0  0
   -0.1960   -2.4240    1.7380 H   0  0  0  0  0  0  0  0  0  0  0  0
    1.0080   -3.6100    1.2380 H   0  0  0  0  0  0  0  0  0  0  0  0
    1.5840   -1.6160    0.0800 H   0  0  0  0  0  0  0  0  0  0  0  0
    3.8270   -1.4450    1.0060 H   0  0  0  0  0  0  0  0  0  0  0  0
    3.1880   -3.0050    0.5720 H   0  0  0  0  0  0  0  0  0  0  0  0
    0.8050    0.6380    1.8840 N   0  0  0  0  0  0  0  0  0  0  0  0
    1.0540    1.9180    2.6720 C   0  0  0  0  0  0  0  0  0  0  0  0
    0.3530    2.9650    1.8740 C   0  0  0  0  0  0  0  0  0  0  0  0
   -0.4680    2.2450    0.8460 C   0  0  0  0  0  0  0  0  0  0  0  0
   -0.5350    0.8280    1.4680 C   0  0  1  0  0  0  0  0  0  0  0  0
   -1.2150   -0.0670    0.5730 C   0  0  0  0  0  0  0  0  0  0  0  0
   -2.3770   -0.4740    0.9640 O   0  0  0  0  0  0  0  0  0  0  0  0
    0.5450    1.6890    3.6440 H   0  0  0  0  0  0  0  0  0  0  0  0
    2.1230    2.0780    2.7940 H   0  0  0  0  0  0  0  0  0  0  0  0
    1.0530    3.7020    1.4230 H   0  0  0  0  0  0  0  0  0  0  0  0
   -0.3640    3.4770    2.5680 H   0  0  0  0  0  0  0  0  0  0  0  0
    0.1170    2.2040   -0.0900 H   0  0  0  0  0  0  0  0  0  0  0  0
   -1.4780    2.6670    0.7130 H   0  0  0  0  0  0  0  0  0  0  0  0
   -1.1410    0.9990    2.3980 H   0  0  0  0  0  0  0  0  0  0  0  0
   -0.6880    2.1130   -3.2200 C   0  0  0  0  0  0  0  0  0  0  0  0
   -2.0630    1.6930   -2.1290 S   0  0  0  0  0  0  0  0  0  0  0  0
   -2.9150    0.2560   -2.7870 C   0  0  0  0  0  0  0  0  0  0  0  0
   -2.1120   -0.9970   -2.7780 C   0  0  0  0  0  0  0  0  0  0  0  0
   -1.6690   -1.4750   -1.4320 C   0  0  2  0  0  0  0  0  0  0  0  0
   -0.8370   -0.5860   -0.6860 N   0  0  0  0  0  0  0  0  0  0  0  0
   -1.1230   -2.8430   -1.6210 C   0  0  0  0  0  0  0  0  0  0  0  0
   -0.0530   -3.2940   -1.2370 O   0  0  0  0  0  0  0  0  0  0  0  0
   -1.9570   -3.7250   -2.3380 O   0  0  0  0  0  0  0  0  0  0  0  0
   -1.0590    2.5060   -4.1800 H   0  0  0  0  0  0  0  0  0  0  0  0
    0.0390    2.7960   -2.7220 H   0  0  0  0  0  0  0  0  0  0  0  0
   -0.1070    1.1660   -3.4030 H   0  0  0  0  0  0  0  0  0  0  0  0
   -3.1560    0.4820   -3.8510 H   0  0  0  0  0  0  0  0  0  0  0  0
   -3.8850    0.0640   -2.2750 H   0  0  0  0  0  0  0  0  0  0  0  0
   -2.7930   -1.8080   -3.1750 H   0  0  0  0  0  0  0  0  0  0  0  0
   -1.2610   -0.9590   -3.4960 H   0  0  0  0  0  0  0  0  0  0  0  0
   -2.6330   -1.6410   -0.8510 H   0  0  0  0  0  0  0  0  0  0  0  0
    0.0870   -0.2690   -1.0520 H   0  0  0  0  0  0  0  0  0  0  0  0
  1  9  1  0  0  0  0
  2 12  1  0  0  0  0
  2  1  1  0  0  0  0
  2  3  1  0  0  0  0
  3 13  1  0  0  0  0
  3 15  1  0  0  0  0
  4  2  1  0  0  0  0
  5 18  1  6  0  0  0
  5  6  1  0  0  0  0
  5  7  1  0  0  0  0
  5  4  1  0  0  0  0
  7 21  1  0  0  0  0
  7  8  2  0  0  0  0
 10  1  1  0  0  0  0
 11  1  1  0  0  0  0
 14  3  1  0  0  0  0
 16  4  1  0  0  0  0
 17  4  1  0  0  0  0
 19  6  1  0  0  0  0
 20  6  1  0  0  0  0
 21 22  1  0  0  0  0
 22 29  1  0  0  0  0
 22 28  1  0  0  0  0
 23 31  1  0  0  0  0
 23 22  1  0  0  0  0
 24 25  1  0  0  0  0
 24 23  1  0  0  0  0
 25 21  1  0  0  0  0
 25 34  1  1  0  0  0
 26 27  2  0  0  0  0
 26 25  1  0  0  0  0
 30 23  1  0  0  0  0
 32 24  1  0  0  0  0
 33 24  1  0  0  0  0
 35 45  1  0  0  0  0
 35 36  1  0  0  0  0
 37 38  1  0  0  0  0
 37 48  1  0  0  0  0
 37 36  1  0  0  0  0
 38 39  1  0  0  0  0
 39 51  1  1  0  0  0
 39 40  1  0  0  0  0
 40 26  1  0  0  0  0
 41 39  1  0  0  0  0
 41 42  1  0  0  0  0
 43 41  2  0  0  0  0
 44 35  1  0  0  0  0
 46 35  1  0  0  0  0
 47 37  1  0  0  0  0
 49 38  1  0  0  0  0
 50 38  1  0  0  0  0
 52 40  1  0  0  0  0
M  END
$$$$
