LPN.pdb
 OpenBabel07022418473D

 49 49  0  0  1  0  0  0  0  0999 V2000
    5.0580   -2.2840    1.1070 C   0  0  0  0  0  0  0  0  0  0  0  0
    3.6220   -2.7400    1.1420 C   0  0  0  0  0  0  0  0  0  0  0  0
    3.6040   -4.2270    0.8700 C   0  0  0  0  0  0  0  0  0  0  0  0
    2.7620   -1.9980    0.1530 C   0  0  0  0  0  0  0  0  0  0  0  0
    2.7300   -0.5180    0.3900 C   0  0  2  0  0  0  0  0  0  0  0  0
    4.0790    0.0470    0.2890 N   0  0  0  0  0  0  0  0  0  0  0  0
    2.1640   -0.1240    1.7020 C   0  0  0  0  0  0  0  0  0  0  0  0
    2.9900    0.3020    2.5910 O   0  0  0  0  0  0  0  0  0  0  0  0
    5.6850   -3.1550    1.4440 H   0  0  0  0  0  0  0  0  0  0  0  0
    5.2540   -1.4090    1.7560 H   0  0  0  0  0  0  0  0  0  0  0  0
    5.3200   -2.1130    0.0470 H   0  0  0  0  0  0  0  0  0  0  0  0
    3.1900   -2.5530    2.1590 H   0  0  0  0  0  0  0  0  0  0  0  0
    3.2260   -4.8120    1.7340 H   0  0  0  0  0  0  0  0  0  0  0  0
    4.5840   -4.6220    0.5520 H   0  0  0  0  0  0  0  0  0  0  0  0
    2.8960   -4.4220    0.0260 H   0  0  0  0  0  0  0  0  0  0  0  0
    3.2590   -2.1340   -0.8480 H   0  0  0  0  0  0  0  0  0  0  0  0
    1.7580   -2.4060    0.0550 H   0  0  0  0  0  0  0  0  0  0  0  0
    2.1300   -0.0440   -0.3970 H   0  0  0  0  0  0  0  0  0  0  0  0
    4.1400    0.9780    0.7560 H   0  0  0  0  0  0  0  0  0  0  0  0
    4.4330    0.0320   -0.6770 H   0  0  0  0  0  0  0  0  0  0  0  0
    0.8200   -0.1630    2.0810 N   0  0  0  0  0  0  0  0  0  0  0  0
    0.2880    0.1900    3.3750 C   0  0  0  0  0  0  0  0  0  0  0  0
   -0.7240   -0.9330    3.6080 C   0  0  0  0  0  0  0  0  0  0  0  0
   -1.1280   -1.4120    2.2340 C   0  0  0  0  0  0  0  0  0  0  0  0
   -0.3230   -0.5280    1.2930 C   0  0  1  0  0  0  0  0  0  0  0  0
   -1.1190    0.6660    0.8830 C   0  0  0  0  0  0  0  0  0  0  0  0
   -0.8170    1.8430    1.1920 O   0  0  0  0  0  0  0  0  0  0  0  0
   -0.2800    1.1400    3.3580 H   0  0  0  0  0  0  0  0  0  0  0  0
    1.0490    0.2200    4.1650 H   0  0  0  0  0  0  0  0  0  0  0  0
   -1.6280   -0.5470    4.1030 H   0  0  0  0  0  0  0  0  0  0  0  0
   -0.2710   -1.7290    4.2230 H   0  0  0  0  0  0  0  0  0  0  0  0
   -2.1980   -1.3640    2.0380 H   0  0  0  0  0  0  0  0  0  0  0  0
   -0.7660   -2.4640    2.1460 H   0  0  0  0  0  0  0  0  0  0  0  0
   -0.1290   -1.1040    0.3920 H   0  0  0  0  0  0  0  0  0  0  0  0
   -4.0310    0.5000   -3.8800 N   0  0  0  0  0  0  0  0  0  0  0  0
   -3.8520    0.4760   -2.4660 C   0  0  0  0  0  0  0  0  0  0  0  0
   -4.1900   -0.5530   -1.8500 O   0  0  0  0  0  0  0  0  0  0  0  0
   -3.2780    1.6710   -1.8300 C   0  0  0  0  0  0  0  0  0  0  0  0
   -3.1280    1.5580   -0.3530 C   0  0  2  0  0  0  0  0  0  0  0  0
   -2.2890    0.5000    0.0980 N   0  0  0  0  0  0  0  0  0  0  0  0
   -4.4480    1.4260    0.3190 C   0  0  0  0  0  0  0  0  0  0  0  0
   -5.3730    2.2530    0.0830 O   0  0  0  0  0  0  0  0  0  0  0  0
   -4.7450    0.4160    1.2230 O   0  0  0  0  0  0  0  0  0  0  0  0
   -4.4530   -0.3050   -4.4140 H   0  0  0  0  0  0  0  0  0  0  0  0
   -3.7550    1.3190   -4.4780 H   0  0  0  0  0  0  0  0  0  0  0  0
   -2.3170    1.9910   -2.2820 H   0  0  0  0  0  0  0  0  0  0  0  0
   -3.9910    2.5130   -2.0240 H   0  0  0  0  0  0  0  0  0  0  0  0
   -2.6950    2.5180    0.0180 H   0  0  0  0  0  0  0  0  0  0  0  0
   -2.5510   -0.4830   -0.1660 H   0  0  0  0  0  0  0  0  0  0  0  0
  1  2  1  0  0  0  0
  1  9  1  0  0  0  0
  1 10  1  0  0  0  0
  2 12  1  0  0  0  0
  3  2  1  0  0  0  0
  3 13  1  0  0  0  0
  4  5  1  0  0  0  0
  4  2  1  0  0  0  0
  5 18  1  6  0  0  0
  5  7  1  0  0  0  0
  6  5  1  0  0  0  0
  6 19  1  0  0  0  0
  7 21  1  0  0  0  0
  7  8  2  0  0  0  0
 11  1  1  0  0  0  0
 14  3  1  0  0  0  0
 15  3  1  0  0  0  0
 16  4  1  0  0  0  0
 17  4  1  0  0  0  0
 20  6  1  0  0  0  0
 21 22  1  0  0  0  0
 22 23  1  0  0  0  0
 22 29  1  0  0  0  0
 23 30  1  0  0  0  0
 23 31  1  0  0  0  0
 24 23  1  0  0  0  0
 25 34  1  6  0  0  0
 25 21  1  0  0  0  0
 25 24  1  0  0  0  0
 26 27  2  0  0  0  0
 26 25  1  0  0  0  0
 28 22  1  0  0  0  0
 32 24  1  0  0  0  0
 33 24  1  0  0  0  0
 35 36  1  0  0  0  0
 36 37  2  0  0  0  0
 36 38  1  0  0  0  0
 38 39  1  0  0  0  0
 39 48  1  1  0  0  0
 39 40  1  0  0  0  0
 39 41  1  0  0  0  0
 40 26  1  0  0  0  0
 41 43  1  0  0  0  0
 42 41  2  0  0  0  0
 44 35  1  0  0  0  0
 45 35  1  0  0  0  0
 46 38  1  0  0  0  0
 47 38  1  0  0  0  0
 49 40  1  0  0  0  0
M  END
$$$$
