LPR.pdb
 OpenBabel07022418473D

 58 58  0  0  1  0  0  0  0  0999 V2000
    3.8250   -1.5730    2.9520 C   0  0  0  0  0  0  0  0  0  0  0  0
    2.8450   -1.4730    1.7710 C   0  0  0  0  0  0  0  0  0  0  0  0
    1.5300   -1.9910    2.1920 C   0  0  0  0  0  0  0  0  0  0  0  0
    2.9090   -0.0980    1.2050 C   0  0  0  0  0  0  0  0  0  0  0  0
    2.5680    1.0300    2.1000 C   0  0  2  0  0  0  0  0  0  0  0  0
    3.4230    1.0830    3.2780 N   0  0  0  0  0  0  0  0  0  0  0  0
    1.1510    1.2280    2.4290 C   0  0  0  0  0  0  0  0  0  0  0  0
    0.8170    1.0250    3.6270 O   0  0  0  0  0  0  0  0  0  0  0  0
    4.7300   -0.9850    2.7250 H   0  0  0  0  0  0  0  0  0  0  0  0
    3.3710   -1.2010    3.8900 H   0  0  0  0  0  0  0  0  0  0  0  0
    4.1420   -2.6140    3.1300 H   0  0  0  0  0  0  0  0  0  0  0  0
    3.2750   -2.1520    1.0020 H   0  0  0  0  0  0  0  0  0  0  0  0
    1.2310   -2.8360    1.5220 H   0  0  0  0  0  0  0  0  0  0  0  0
    0.7380   -1.2420    2.1340 H   0  0  0  0  0  0  0  0  0  0  0  0
    1.5070   -2.4340    3.2080 H   0  0  0  0  0  0  0  0  0  0  0  0
    3.9880    0.0770    0.9020 H   0  0  0  0  0  0  0  0  0  0  0  0
    2.3530   -0.0050    0.2540 H   0  0  0  0  0  0  0  0  0  0  0  0
    2.8580    1.9660    1.5270 H   0  0  0  0  0  0  0  0  0  0  0  0
    2.9240    1.3160    4.1370 H   0  0  0  0  0  0  0  0  0  0  0  0
    4.3210    1.5550    3.1210 H   0  0  0  0  0  0  0  0  0  0  0  0
    0.1700    1.6270    1.5160 N   0  0  0  0  0  0  0  0  0  0  0  0
    0.3520    1.9100    0.1250 C   0  0  0  0  0  0  0  0  0  0  0  0
   -0.7550    2.8370   -0.2740 C   0  0  0  0  0  0  0  0  0  0  0  0
   -1.5120    3.1320    0.9840 C   0  0  0  0  0  0  0  0  0  0  0  0
   -1.2210    1.8810    1.8140 C   0  0  1  0  0  0  0  0  0  0  0  0
   -2.1560    0.8030    1.5140 C   0  0  0  0  0  0  0  0  0  0  0  0
   -3.3910    0.9470    1.8480 O   0  0  0  0  0  0  0  0  0  0  0  0
    1.3040    2.4890   -0.0170 H   0  0  0  0  0  0  0  0  0  0  0  0
    0.3730    1.0120   -0.5370 H   0  0  0  0  0  0  0  0  0  0  0  0
   -0.3590    3.8300   -0.6370 H   0  0  0  0  0  0  0  0  0  0  0  0
   -1.4150    2.3930   -1.0620 H   0  0  0  0  0  0  0  0  0  0  0  0
   -1.0570    4.0310    1.4830 H   0  0  0  0  0  0  0  0  0  0  0  0
   -2.5740    3.3300    0.8600 H   0  0  0  0  0  0  0  0  0  0  0  0
   -1.3410    2.1780    2.8730 H   0  0  0  0  0  0  0  0  0  0  0  0
    0.5020   -3.2040   -4.6020 N   0  0  0  0  0  0  0  0  0  0  0  0
   -0.4350   -3.7050   -3.6620 C   0  0  0  0  0  0  0  0  0  0  0  0
   -1.4740   -4.3720   -4.0070 N   0  0  0  0  0  0  0  0  0  0  0  0
   -0.2300   -3.4650   -2.2630 N   0  0  0  0  0  0  0  0  0  0  0  0
   -1.3340   -3.2550   -1.3540 C   0  0  0  0  0  0  0  0  0  0  0  0
   -1.9670   -1.9540   -1.7040 C   0  0  0  0  0  0  0  0  0  0  0  0
   -3.1300   -1.6040   -0.8540 C   0  0  0  0  0  0  0  0  0  0  0  0
   -2.8570   -1.4570    0.6110 C   0  0  2  0  0  0  0  0  0  0  0  0
   -1.8740   -0.4280    0.8790 N   0  0  0  0  0  0  0  0  0  0  0  0
   -2.6280   -2.7080    1.3410 C   0  0  0  0  0  0  0  0  0  0  0  0
   -3.3900   -3.6830    1.1370 O   0  0  0  0  0  0  0  0  0  0  0  0
   -1.6040   -2.8750    2.2560 O   0  0  0  0  0  0  0  0  0  0  0  0
    0.1790   -2.9010   -5.5290 H   0  0  0  0  0  0  0  0  0  0  0  0
    1.4950   -3.1490   -4.3480 H   0  0  0  0  0  0  0  0  0  0  0  0
   -2.1570   -4.7380   -3.3320 H   0  0  0  0  0  0  0  0  0  0  0  0
    0.7400   -3.4380   -1.8880 H   0  0  0  0  0  0  0  0  0  0  0  0
   -0.9160   -3.2770   -0.3220 H   0  0  0  0  0  0  0  0  0  0  0  0
   -2.1120   -4.0570   -1.4550 H   0  0  0  0  0  0  0  0  0  0  0  0
   -2.2580   -1.9990   -2.7810 H   0  0  0  0  0  0  0  0  0  0  0  0
   -1.2100   -1.1490   -1.5830 H   0  0  0  0  0  0  0  0  0  0  0  0
   -3.7260   -0.7430   -1.2590 H   0  0  0  0  0  0  0  0  0  0  0  0
   -3.8600   -2.4690   -0.9360 H   0  0  0  0  0  0  0  0  0  0  0  0
   -3.8260   -1.0260    1.0510 H   0  0  0  0  0  0  0  0  0  0  0  0
   -0.8980   -0.6140    0.5790 H   0  0  0  0  0  0  0  0  0  0  0  0
  1 11  1  0  0  0  0
  1 10  1  0  0  0  0
  2  3  1  0  0  0  0
  2  1  1  0  0  0  0
  3 15  1  0  0  0  0
  4  2  1  0  0  0  0
  4  5  1  0  0  0  0
  5 18  1  6  0  0  0
  5  7  1  0  0  0  0
  5  6  1  0  0  0  0
  6 19  1  0  0  0  0
  7  8  2  0  0  0  0
  9  1  1  0  0  0  0
 12  2  1  0  0  0  0
 13  3  1  0  0  0  0
 14  3  1  0  0  0  0
 16  4  1  0  0  0  0
 17  4  1  0  0  0  0
 20  6  1  0  0  0  0
 21 25  1  0  0  0  0
 21  7  1  0  0  0  0
 22 21  1  0  0  0  0
 23 22  1  0  0  0  0
 23 24  1  0  0  0  0
 24 32  1  0  0  0  0
 24 25  1  0  0  0  0
 25 34  1  1  0  0  0
 26 25  1  0  0  0  0
 26 27  2  0  0  0  0
 28 22  1  0  0  0  0
 29 22  1  0  0  0  0
 30 23  1  0  0  0  0
 31 23  1  0  0  0  0
 33 24  1  0  0  0  0
 35 48  1  0  0  0  0
 35 36  1  0  0  0  0
 36 38  1  0  0  0  0
 37 36  2  0  0  0  0
 37 49  1  0  0  0  0
 38 50  1  0  0  0  0
 38 39  1  0  0  0  0
 39 51  1  0  0  0  0
 40 54  1  0  0  0  0
 40 39  1  0  0  0  0
 40 41  1  0  0  0  0
 41 42  1  0  0  0  0
 42 43  1  0  0  0  0
 42 57  1  1  0  0  0
 42 44  1  0  0  0  0
 43 26  1  0  0  0  0
 44 46  1  0  0  0  0
 45 44  2  0  0  0  0
 47 35  1  0  0  0  0
 52 39  1  0  0  0  0
 53 40  1  0  0  0  0
 55 41  1  0  0  0  0
 56 41  1  0  0  0  0
 58 43  1  0  0  0  0
M  END
$$$$
