LPS.pdb
 OpenBabel07022418473D

 46 46  0  0  1  0  0  0  0  0999 V2000
   -3.5660   -2.9890    0.8190 C   0  0  0  0  0  0  0  0  0  0  0  0
   -2.1510   -3.3500    1.1220 C   0  0  0  0  0  0  0  0  0  0  0  0
   -1.8410   -2.9940    2.5390 C   0  0  0  0  0  0  0  0  0  0  0  0
   -1.1600   -2.7930    0.1370 C   0  0  0  0  0  0  0  0  0  0  0  0
   -1.1920   -1.2820    0.0800 C   0  0  2  0  0  0  0  0  0  0  0  0
   -2.5710   -0.9360   -0.3300 N   0  0  0  0  0  0  0  0  0  0  0  0
   -0.2790   -0.7300   -0.9400 C   0  0  0  0  0  0  0  0  0  0  0  0
   -0.8110   -0.3210   -2.0340 O   0  0  0  0  0  0  0  0  0  0  0  0
   -3.7600   -3.0190   -0.2680 H   0  0  0  0  0  0  0  0  0  0  0  0
   -4.2150   -3.7970    1.2580 H   0  0  0  0  0  0  0  0  0  0  0  0
   -3.9070   -2.0520    1.3040 H   0  0  0  0  0  0  0  0  0  0  0  0
   -2.0730   -4.4690    1.0410 H   0  0  0  0  0  0  0  0  0  0  0  0
   -0.7480   -3.1080    2.7290 H   0  0  0  0  0  0  0  0  0  0  0  0
   -2.4700   -3.5730    3.2180 H   0  0  0  0  0  0  0  0  0  0  0  0
   -2.0670   -1.9230    2.7080 H   0  0  0  0  0  0  0  0  0  0  0  0
   -0.1510   -3.1480    0.3950 H   0  0  0  0  0  0  0  0  0  0  0  0
   -1.4000   -3.1760   -0.8750 H   0  0  0  0  0  0  0  0  0  0  0  0
   -1.0110   -0.7880    1.0250 H   0  0  0  0  0  0  0  0  0  0  0  0
   -2.6980   -1.0570   -1.3540 H   0  0  0  0  0  0  0  0  0  0  0  0
   -2.8330    0.0090    0.0220 H   0  0  0  0  0  0  0  0  0  0  0  0
    1.1220   -0.6080   -0.8260 N   0  0  0  0  0  0  0  0  0  0  0  0
    1.9460   -0.0650   -1.9340 C   0  0  0  0  0  0  0  0  0  0  0  0
    3.1860   -0.9720   -1.8130 C   0  0  0  0  0  0  0  0  0  0  0  0
    3.4080   -0.8860   -0.3290 C   0  0  0  0  0  0  0  0  0  0  0  0
    2.0270   -0.9150    0.2340 C   0  0  1  0  0  0  0  0  0  0  0  0
    1.8740   -0.0180    1.4090 C   0  0  0  0  0  0  0  0  0  0  0  0
    2.6200   -0.2810    2.4050 O   0  0  0  0  0  0  0  0  0  0  0  0
    2.2920    0.9520   -1.6780 H   0  0  0  0  0  0  0  0  0  0  0  0
    1.4530   -0.1540   -2.8980 H   0  0  0  0  0  0  0  0  0  0  0  0
    4.0180   -0.5900   -2.4090 H   0  0  0  0  0  0  0  0  0  0  0  0
    2.8870   -2.0120   -2.0630 H   0  0  0  0  0  0  0  0  0  0  0  0
    3.9660    0.0420   -0.0790 H   0  0  0  0  0  0  0  0  0  0  0  0
    4.0050   -1.7990   -0.0530 H   0  0  0  0  0  0  0  0  0  0  0  0
    1.8490   -1.9530    0.5710 H   0  0  0  0  0  0  0  0  0  0  0  0
    2.6580    3.3930    1.9630 O   0  0  0  0  0  0  0  0  0  0  0  0
    1.3740    3.2920    2.4790 C   0  0  0  0  0  0  0  0  0  0  0  0
    0.9710    1.8580    2.7370 C   0  0  2  0  0  0  0  0  0  0  0  0
    1.0000    1.0690    1.5150 N   0  0  0  0  0  0  0  0  0  0  0  0
   -0.3750    1.8640    3.3630 C   0  0  0  0  0  0  0  0  0  0  0  0
   -1.3230    1.2410    2.8330 O   0  0  0  0  0  0  0  0  0  0  0  0
   -0.6470    2.5450    4.5400 O   0  0  0  0  0  0  0  0  0  0  0  0
    2.7340    4.2680    1.4920 H   0  0  0  0  0  0  0  0  0  0  0  0
    1.3340    3.8270    3.4500 H   0  0  0  0  0  0  0  0  0  0  0  0
    0.6100    3.7710    1.8270 H   0  0  0  0  0  0  0  0  0  0  0  0
    1.6890    1.4370    3.4740 H   0  0  0  0  0  0  0  0  0  0  0  0
    0.3910    1.2820    0.7040 H   0  0  0  0  0  0  0  0  0  0  0  0
  1  2  1  0  0  0  0
  1 10  1  0  0  0  0
  1 11  1  0  0  0  0
  2  3  1  0  0  0  0
  3 15  1  0  0  0  0
  3 13  1  0  0  0  0
  3 14  1  0  0  0  0
  4 16  1  0  0  0  0
  4  2  1  0  0  0  0
  5  4  1  0  0  0  0
  5 18  1  1  0  0  0
  6 20  1  0  0  0  0
  6  5  1  0  0  0  0
  7 21  1  0  0  0  0
  7  5  1  0  0  0  0
  8  7  2  0  0  0  0
  9  1  1  0  0  0  0
 12  2  1  0  0  0  0
 17  4  1  0  0  0  0
 19  6  1  0  0  0  0
 21 25  1  0  0  0  0
 22 23  1  0  0  0  0
 22 28  1  0  0  0  0
 22 21  1  0  0  0  0
 23 24  1  0  0  0  0
 24 32  1  0  0  0  0
 24 33  1  0  0  0  0
 24 25  1  0  0  0  0
 25 34  1  1  0  0  0
 25 26  1  0  0  0  0
 26 38  1  0  0  0  0
 26 27  2  0  0  0  0
 29 22  1  0  0  0  0
 30 23  1  0  0  0  0
 31 23  1  0  0  0  0
 35 36  1  0  0  0  0
 36 37  1  0  0  0  0
 36 43  1  0  0  0  0
 37 39  1  0  0  0  0
 37 45  1  1  0  0  0
 38 37  1  0  0  0  0
 39 41  1  0  0  0  0
 40 39  2  0  0  0  0
 42 35  1  0  0  0  0
 44 36  1  0  0  0  0
 46 38  1  0  0  0  0
M  END
$$$$
