LPV.pdb
 OpenBabel07022418473D

 51 51  0  0  1  0  0  0  0  0999 V2000
    0.6270   -3.5130   -3.7830 C   0  0  0  0  0  0  0  0  0  0  0  0
    0.9190   -3.3310   -2.2750 C   0  0  0  0  0  0  0  0  0  0  0  0
   -0.1860   -4.0750   -1.5770 C   0  0  0  0  0  0  0  0  0  0  0  0
    1.0250   -1.8810   -1.9860 C   0  0  0  0  0  0  0  0  0  0  0  0
    1.3210   -1.4760   -0.5880 C   0  0  2  0  0  0  0  0  0  0  0  0
    2.6120   -2.1140   -0.2560 N   0  0  0  0  0  0  0  0  0  0  0  0
    0.3110   -1.9260    0.3770 C   0  0  0  0  0  0  0  0  0  0  0  0
    0.6220   -2.9550    1.0820 O   0  0  0  0  0  0  0  0  0  0  0  0
    0.9100   -4.5420   -4.0730 H   0  0  0  0  0  0  0  0  0  0  0  0
   -0.4570   -3.3920   -3.9280 H   0  0  0  0  0  0  0  0  0  0  0  0
    1.2100   -2.7990   -4.3770 H   0  0  0  0  0  0  0  0  0  0  0  0
    1.8760   -3.8850   -2.1220 H   0  0  0  0  0  0  0  0  0  0  0  0
    0.2170   -4.8160   -0.8370 H   0  0  0  0  0  0  0  0  0  0  0  0
   -0.9630   -3.4290   -1.1330 H   0  0  0  0  0  0  0  0  0  0  0  0
   -0.7600   -4.7460   -2.2980 H   0  0  0  0  0  0  0  0  0  0  0  0
    1.8550   -1.4850   -2.6320 H   0  0  0  0  0  0  0  0  0  0  0  0
    0.0980   -1.3830   -2.3990 H   0  0  0  0  0  0  0  0  0  0  0  0
    1.5090   -0.3710   -0.5100 H   0  0  0  0  0  0  0  0  0  0  0  0
    2.5000   -3.1550   -0.3170 H   0  0  0  0  0  0  0  0  0  0  0  0
    2.7750   -1.8920    0.7500 H   0  0  0  0  0  0  0  0  0  0  0  0
   -0.9570   -1.3040    0.5740 N   0  0  0  0  0  0  0  0  0  0  0  0
   -1.9480   -1.8070    1.5420 C   0  0  0  0  0  0  0  0  0  0  0  0
   -3.2260   -1.5150    0.7400 C   0  0  0  0  0  0  0  0  0  0  0  0
   -2.9680   -0.0850    0.3350 C   0  0  0  0  0  0  0  0  0  0  0  0
   -1.4850   -0.1410   -0.0660 C   0  0  1  0  0  0  0  0  0  0  0  0
   -0.8410    1.1170    0.4330 C   0  0  0  0  0  0  0  0  0  0  0  0
   -1.1690    2.2180   -0.0630 O   0  0  0  0  0  0  0  0  0  0  0  0
   -1.8410   -2.8780    1.7160 H   0  0  0  0  0  0  0  0  0  0  0  0
   -1.9730   -1.1840    2.4530 H   0  0  0  0  0  0  0  0  0  0  0  0
   -3.2300   -2.1240   -0.1830 H   0  0  0  0  0  0  0  0  0  0  0  0
   -4.1190   -1.6440    1.3660 H   0  0  0  0  0  0  0  0  0  0  0  0
   -3.6000    0.2660   -0.4830 H   0  0  0  0  0  0  0  0  0  0  0  0
   -3.0530    0.5270    1.2630 H   0  0  0  0  0  0  0  0  0  0  0  0
   -1.4930   -0.1880   -1.1650 H   0  0  0  0  0  0  0  0  0  0  0  0
   -1.0980    2.4480    3.6330 C   0  0  0  0  0  0  0  0  0  0  0  0
    0.3770    2.2950    3.4540 C   0  0  0  0  0  0  0  0  0  0  0  0
    0.8700    1.1170    4.2460 C   0  0  0  0  0  0  0  0  0  0  0  0
    0.7960    2.2160    1.9970 C   0  0  2  0  0  0  0  0  0  0  0  0
    0.1190    1.0540    1.4470 N   0  0  0  0  0  0  0  0  0  0  0  0
    2.2700    2.0410    1.9960 C   0  0  0  0  0  0  0  0  0  0  0  0
    3.0300    2.9430    2.4300 O   0  0  0  0  0  0  0  0  0  0  0  0
    2.8620    0.8830    1.5190 O   0  0  0  0  0  0  0  0  0  0  0  0
   -1.3800    3.0520    4.5190 H   0  0  0  0  0  0  0  0  0  0  0  0
   -1.5380    2.9830    2.7530 H   0  0  0  0  0  0  0  0  0  0  0  0
   -1.6030    1.4550    3.7810 H   0  0  0  0  0  0  0  0  0  0  0  0
    0.8610    3.2080    3.8790 H   0  0  0  0  0  0  0  0  0  0  0  0
    0.5860    1.2980    5.3060 H   0  0  0  0  0  0  0  0  0  0  0  0
    0.5170    0.1550    3.8740 H   0  0  0  0  0  0  0  0  0  0  0  0
    1.9910    1.0650    4.2490 H   0  0  0  0  0  0  0  0  0  0  0  0
    0.5000    3.1580    1.5290 H   0  0  0  0  0  0  0  0  0  0  0  0
    0.3720    0.1300    1.8400 H   0  0  0  0  0  0  0  0  0  0  0  0
  1  2  1  0  0  0  0
  2 12  1  0  0  0  0
  2  4  1  0  0  0  0
  2  3  1  0  0  0  0
  3 14  1  0  0  0  0
  3 13  1  0  0  0  0
  4  5  1  0  0  0  0
  5 18  1  1  0  0  0
  5  6  1  0  0  0  0
  5  7  1  0  0  0  0
  6 20  1  0  0  0  0
  7 21  1  0  0  0  0
  7  8  2  0  0  0  0
  9  1  1  0  0  0  0
 10  1  1  0  0  0  0
 11  1  1  0  0  0  0
 15  3  1  0  0  0  0
 16  4  1  0  0  0  0
 17  4  1  0  0  0  0
 19  6  1  0  0  0  0
 21 22  1  0  0  0  0
 22 28  1  0  0  0  0
 22 29  1  0  0  0  0
 23 31  1  0  0  0  0
 23 22  1  0  0  0  0
 24 23  1  0  0  0  0
 24 33  1  0  0  0  0
 25 34  1  6  0  0  0
 25 24  1  0  0  0  0
 25 26  1  0  0  0  0
 25 21  1  0  0  0  0
 26 39  1  0  0  0  0
 27 26  2  0  0  0  0
 30 23  1  0  0  0  0
 32 24  1  0  0  0  0
 35 45  1  0  0  0  0
 35 43  1  0  0  0  0
 36 35  1  0  0  0  0
 36 46  1  0  0  0  0
 36 37  1  0  0  0  0
 37 49  1  0  0  0  0
 37 47  1  0  0  0  0
 38 50  1  6  0  0  0
 38 36  1  0  0  0  0
 39 51  1  0  0  0  0
 39 38  1  0  0  0  0
 40 38  1  0  0  0  0
 40 41  1  0  0  0  0
 42 40  2  0  0  0  0
 44 35  1  0  0  0  0
 48 37  1  0  0  0  0
M  END
$$$$
