LQA.pdb
 OpenBabel07022418453D

 48 47  0  0  1  0  0  0  0  0999 V2000
    0.5120   -4.9580    3.4450 C   0  0  0  0  0  0  0  0  0  0  0  0
    0.5480   -3.4260    3.3100 C   0  0  0  0  0  0  0  0  0  0  0  0
   -0.5340   -3.0170    2.3920 C   0  0  0  0  0  0  0  0  0  0  0  0
    1.9350   -3.0490    2.9890 C   0  0  0  0  0  0  0  0  0  0  0  0
    2.2660   -1.6220    2.8030 C   0  0  2  0  0  0  0  0  0  0  0  0
    2.0180   -0.7700    3.9150 N   0  0  0  0  0  0  0  0  0  0  0  0
    1.5930   -1.1320    1.5360 C   0  0  0  0  0  0  0  0  0  0  0  0
    1.7020   -1.8360    0.5090 O   0  0  0  0  0  0  0  0  0  0  0  0
    1.3000   -5.3290    4.0980 H   0  0  0  0  0  0  0  0  0  0  0  0
   -0.5150   -5.2410    3.7890 H   0  0  0  0  0  0  0  0  0  0  0  0
    0.6730   -5.3890    2.4190 H   0  0  0  0  0  0  0  0  0  0  0  0
    0.2770   -3.0560    4.3380 H   0  0  0  0  0  0  0  0  0  0  0  0
   -0.7840   -1.9420    2.5090 H   0  0  0  0  0  0  0  0  0  0  0  0
   -1.4740   -3.5440    2.7440 H   0  0  0  0  0  0  0  0  0  0  0  0
   -0.4210   -3.3470    1.3500 H   0  0  0  0  0  0  0  0  0  0  0  0
    2.2510   -3.6430    2.0760 H   0  0  0  0  0  0  0  0  0  0  0  0
    2.5800   -3.5150    3.7960 H   0  0  0  0  0  0  0  0  0  0  0  0
    3.3910   -1.5740    2.6500 H   0  0  0  0  0  0  0  0  0  0  0  0
    0.9950   -0.6940    4.1070 H   0  0  0  0  0  0  0  0  0  0  0  0
    2.3960    0.1820    3.8320 H   0  0  0  0  0  0  0  0  0  0  0  0
    3.7290   -0.0690   -3.0630 N   0  0  0  0  0  0  0  0  0  0  0  0
    2.4220   -0.1450   -2.5170 C   0  0  0  0  0  0  0  0  0  0  0  0
    1.5330   -0.7320   -3.1710 O   0  0  0  0  0  0  0  0  0  0  0  0
    2.0670    0.4490   -1.1950 C   0  0  0  0  0  0  0  0  0  0  0  0
    0.6280    0.1930   -0.9190 C   0  0  0  0  0  0  0  0  0  0  0  0
    0.1920    0.7270    0.4370 C   0  0  2  0  0  0  0  0  0  0  0  0
    0.8740    0.0670    1.5050 N   0  0  0  0  0  0  0  0  0  0  0  0
   -1.2470    0.8660    0.5790 C   0  0  0  0  0  0  0  0  0  0  0  0
   -1.8200    0.4230    1.6090 O   0  0  0  0  0  0  0  0  0  0  0  0
    4.3970   -0.8770   -3.0790 H   0  0  0  0  0  0  0  0  0  0  0  0
    4.1080    0.8180   -3.4910 H   0  0  0  0  0  0  0  0  0  0  0  0
    2.2450    1.5720   -1.3490 H   0  0  0  0  0  0  0  0  0  0  0  0
    2.8150    0.1720   -0.4800 H   0  0  0  0  0  0  0  0  0  0  0  0
    0.0490    0.7400   -1.7310 H   0  0  0  0  0  0  0  0  0  0  0  0
    0.4150   -0.8820   -0.9850 H   0  0  0  0  0  0  0  0  0  0  0  0
    0.7170    1.7820    0.3820 H   0  0  0  0  0  0  0  0  0  0  0  0
    0.8610    0.5450    2.4930 H   0  0  0  0  0  0  0  0  0  0  0  0
   -3.8500    3.0930   -0.3420 C   0  0  0  0  0  0  0  0  0  0  0  0
   -3.5140    1.6130   -0.2270 C   0  0  2  0  0  0  0  0  0  0  0  0
   -2.0960    1.4830   -0.3810 N   0  0  0  0  0  0  0  0  0  0  0  0
   -4.2580    0.9240   -1.3360 C   0  0  0  0  0  0  0  0  0  0  0  0
   -5.4970    0.9110   -1.4000 O   0  0  0  0  0  0  0  0  0  0  0  0
   -3.5550    0.2650   -2.3450 O   0  0  0  0  0  0  0  0  0  0  0  0
   -2.9560    3.7050   -0.5940 H   0  0  0  0  0  0  0  0  0  0  0  0
   -4.3080    3.4000    0.6340 H   0  0  0  0  0  0  0  0  0  0  0  0
   -4.6100    3.2930   -1.1090 H   0  0  0  0  0  0  0  0  0  0  0  0
   -3.8850    1.1840    0.7180 H   0  0  0  0  0  0  0  0  0  0  0  0
   -1.6690    1.8680   -1.2550 H   0  0  0  0  0  0  0  0  0  0  0  0
  1 10  1  0  0  0  0
  1  9  1  0  0  0  0
  2  1  1  0  0  0  0
  2 12  1  0  0  0  0
  3 13  1  0  0  0  0
  3 14  1  0  0  0  0
  3  2  1  0  0  0  0
  4  2  1  0  0  0  0
  4 17  1  0  0  0  0
  5 18  1  6  0  0  0
  5  4  1  0  0  0  0
  5  6  1  0  0  0  0
  6 19  1  0  0  0  0
  7  5  1  0  0  0  0
  8  7  2  0  0  0  0
 11  1  1  0  0  0  0
 15  3  1  0  0  0  0
 16  4  1  0  0  0  0
 20  6  1  0  0  0  0
 21 22  1  0  0  0  0
 22 24  1  0  0  0  0
 23 22  2  0  0  0  0
 24 25  1  0  0  0  0
 24 33  1  0  0  0  0
 25 26  1  0  0  0  0
 26 36  1  1  0  0  0
 26 28  1  0  0  0  0
 26 27  1  0  0  0  0
 27  7  1  0  0  0  0
 27 37  1  0  0  0  0
 28 29  2  0  0  0  0
 30 21  1  0  0  0  0
 31 21  1  0  0  0  0
 32 24  1  0  0  0  0
 34 25  1  0  0  0  0
 35 25  1  0  0  0  0
 38 39  1  0  0  0  0
 38 45  1  0  0  0  0
 39 47  1  1  0  0  0
 40 39  1  0  0  0  0
 40 28  1  0  0  0  0
 41 39  1  0  0  0  0
 42 41  1  0  0  0  0
 43 41  2  0  0  0  0
 44 38  1  0  0  0  0
 46 38  1  0  0  0  0
 48 40  1  0  0  0  0
M  END
$$$$
