LQC.pdb
 OpenBabel07022418453D

 49 48  0  0  1  0  0  0  0  0999 V2000
    1.6360   -4.3130   -0.5480 C   0  0  0  0  0  0  0  0  0  0  0  0
    1.8010   -3.6100    0.7970 C   0  0  0  0  0  0  0  0  0  0  0  0
    0.4390   -3.4030    1.3720 C   0  0  0  0  0  0  0  0  0  0  0  0
    2.5970   -2.3660    0.5890 C   0  0  0  0  0  0  0  0  0  0  0  0
    2.8460   -1.5580    1.8160 C   0  0  2  0  0  0  0  0  0  0  0  0
    3.5580   -2.3320    2.8100 N   0  0  0  0  0  0  0  0  0  0  0  0
    1.6750   -0.8460    2.3560 C   0  0  0  0  0  0  0  0  0  0  0  0
    1.3340   -1.0580    3.5480 O   0  0  0  0  0  0  0  0  0  0  0  0
    0.7420   -4.9900   -0.4300 H   0  0  0  0  0  0  0  0  0  0  0  0
    1.3460   -3.5430   -1.2970 H   0  0  0  0  0  0  0  0  0  0  0  0
    2.5190   -4.8910   -0.8210 H   0  0  0  0  0  0  0  0  0  0  0  0
    2.3610   -4.2520    1.5120 H   0  0  0  0  0  0  0  0  0  0  0  0
   -0.2210   -4.2170    0.9980 H   0  0  0  0  0  0  0  0  0  0  0  0
    0.4140   -3.4150    2.4810 H   0  0  0  0  0  0  0  0  0  0  0  0
    0.0410   -2.4680    0.9330 H   0  0  0  0  0  0  0  0  0  0  0  0
    2.1230   -1.7230   -0.1820 H   0  0  0  0  0  0  0  0  0  0  0  0
    3.5890   -2.6530    0.1740 H   0  0  0  0  0  0  0  0  0  0  0  0
    3.5720   -0.7430    1.5090 H   0  0  0  0  0  0  0  0  0  0  0  0
    4.1080   -1.6670    3.3980 H   0  0  0  0  0  0  0  0  0  0  0  0
    4.2330   -2.9540    2.3390 H   0  0  0  0  0  0  0  0  0  0  0  0
    0.0180    3.6500   -1.1550 N   0  0  0  0  0  0  0  0  0  0  0  0
   -0.4410    3.2000    0.1360 C   0  0  0  0  0  0  0  0  0  0  0  0
   -1.6650    2.9910    0.2030 O   0  0  0  0  0  0  0  0  0  0  0  0
    0.4440    3.0100    1.2590 C   0  0  0  0  0  0  0  0  0  0  0  0
    0.0540    2.2130    2.4200 C   0  0  0  0  0  0  0  0  0  0  0  0
   -0.2410    0.7500    2.2090 C   0  0  2  0  0  0  0  0  0  0  0  0
    0.8960    0.0780    1.6150 N   0  0  0  0  0  0  0  0  0  0  0  0
   -1.5080    0.5310    1.5270 C   0  0  0  0  0  0  0  0  0  0  0  0
   -2.6250    0.9360    2.0270 O   0  0  0  0  0  0  0  0  0  0  0  0
    0.8380    3.1570   -1.5690 H   0  0  0  0  0  0  0  0  0  0  0  0
   -0.4330    4.4280   -1.6670 H   0  0  0  0  0  0  0  0  0  0  0  0
    1.4730    2.6540    0.9420 H   0  0  0  0  0  0  0  0  0  0  0  0
    0.6920    4.0580    1.6620 H   0  0  0  0  0  0  0  0  0  0  0  0
   -0.7770    2.6900    3.0290 H   0  0  0  0  0  0  0  0  0  0  0  0
    0.9160    2.2340    3.1610 H   0  0  0  0  0  0  0  0  0  0  0  0
   -0.3980    0.2750    3.2560 H   0  0  0  0  0  0  0  0  0  0  0  0
    1.1430    0.2800    0.6230 H   0  0  0  0  0  0  0  0  0  0  0  0
   -1.6030   -0.1390    0.2680 N   0  0  0  0  0  0  0  0  0  0  0  0
   -2.8810   -0.3180   -0.3570 C   0  0  1  0  0  0  0  0  0  0  0  0
   -2.9500    0.3570   -1.7170 C   0  0  0  0  0  0  0  0  0  0  0  0
   -1.6950   -0.3220   -2.8350 S   0  0  0  0  0  0  0  0  0  0  0  0
   -3.3030   -1.7370   -0.4800 C   0  0  0  0  0  0  0  0  0  0  0  0
   -4.3950   -2.0640   -1.0070 O   0  0  0  0  0  0  0  0  0  0  0  0
   -2.4950   -2.7300   -0.0110 O   0  0  0  0  0  0  0  0  0  0  0  0
   -0.7240   -0.5070   -0.2080 H   0  0  0  0  0  0  0  0  0  0  0  0
   -3.6680    0.1680    0.2630 H   0  0  0  0  0  0  0  0  0  0  0  0
   -3.9450    0.0820   -2.1770 H   0  0  0  0  0  0  0  0  0  0  0  0
   -2.9490    1.4510   -1.6650 H   0  0  0  0  0  0  0  0  0  0  0  0
   -1.0960    0.6740   -3.6100 H   0  0  0  0  0  0  0  0  0  0  0  0
  1  9  1  0  0  0  0
  1  2  1  0  0  0  0
  2  3  1  0  0  0  0
  2 12  1  0  0  0  0
  3 14  1  0  0  0  0
  4  2  1  0  0  0  0
  4  5  1  0  0  0  0
  5 18  1  6  0  0  0
  5  7  1  0  0  0  0
  5  6  1  0  0  0  0
  6 19  1  0  0  0  0
  7  8  2  0  0  0  0
 10  1  1  0  0  0  0
 11  1  1  0  0  0  0
 13  3  1  0  0  0  0
 15  3  1  0  0  0  0
 16  4  1  0  0  0  0
 17  4  1  0  0  0  0
 20  6  1  0  0  0  0
 21 22  1  0  0  0  0
 22 23  2  0  0  0  0
 22 24  1  0  0  0  0
 24 33  1  0  0  0  0
 24 25  1  0  0  0  0
 25 34  1  0  0  0  0
 25 35  1  0  0  0  0
 26 25  1  0  0  0  0
 26 36  1  1  0  0  0
 27 26  1  0  0  0  0
 27  7  1  0  0  0  0
 28 29  2  0  0  0  0
 28 26  1  0  0  0  0
 30 21  1  0  0  0  0
 31 21  1  0  0  0  0
 32 24  1  0  0  0  0
 37 27  1  0  0  0  0
 38 28  1  0  0  0  0
 39 46  1  1  0  0  0
 39 38  1  0  0  0  0
 40 48  1  0  0  0  0
 40 39  1  0  0  0  0
 41 40  1  0  0  0  0
 42 39  1  0  0  0  0
 42 44  1  0  0  0  0
 43 42  2  0  0  0  0
 45 38  1  0  0  0  0
 47 40  1  0  0  0  0
 49 41  1  0  0  0  0
M  END
$$$$
