LQF.pdb
 OpenBabel07022418453D

 58 58  0  0  1  0  0  0  0  0999 V2000
   -5.1430   -0.4500   -1.5960 C   0  0  0  0  0  0  0  0  0  0  0  0
   -3.9900   -0.6350   -2.5670 C   0  0  0  0  0  0  0  0  0  0  0  0
   -2.8470   -1.4130   -2.0260 C   0  0  0  0  0  0  0  0  0  0  0  0
   -3.6520    0.6830   -3.1580 C   0  0  0  0  0  0  0  0  0  0  0  0
   -3.2610    1.7930   -2.2660 C   0  0  2  0  0  0  0  0  0  0  0  0
   -3.0450    2.9480   -3.2260 N   0  0  0  0  0  0  0  0  0  0  0  0
   -1.9890    1.6100   -1.5420 C   0  0  0  0  0  0  0  0  0  0  0  0
   -0.9210    2.1140   -2.0720 O   0  0  0  0  0  0  0  0  0  0  0  0
   -4.7390   -0.6530   -0.5820 H   0  0  0  0  0  0  0  0  0  0  0  0
   -5.9680   -1.1240   -1.8670 H   0  0  0  0  0  0  0  0  0  0  0  0
   -5.5330    0.5850   -1.6170 H   0  0  0  0  0  0  0  0  0  0  0  0
   -4.4340   -1.2400   -3.4530 H   0  0  0  0  0  0  0  0  0  0  0  0
   -2.8540   -2.4620   -2.4540 H   0  0  0  0  0  0  0  0  0  0  0  0
   -2.9040   -1.5660   -0.9320 H   0  0  0  0  0  0  0  0  0  0  0  0
   -1.8910   -0.9340   -2.2700 H   0  0  0  0  0  0  0  0  0  0  0  0
   -4.4590    0.9880   -3.8880 H   0  0  0  0  0  0  0  0  0  0  0  0
   -2.7830    0.4720   -3.8770 H   0  0  0  0  0  0  0  0  0  0  0  0
   -4.0790    2.1420   -1.6230 H   0  0  0  0  0  0  0  0  0  0  0  0
   -2.4870    3.6670   -2.7260 H   0  0  0  0  0  0  0  0  0  0  0  0
   -2.4620    2.5740   -4.0060 H   0  0  0  0  0  0  0  0  0  0  0  0
   -0.4810    5.1920    0.2020 N   0  0  0  0  0  0  0  0  0  0  0  0
   -0.1180    3.8730    0.6280 C   0  0  0  0  0  0  0  0  0  0  0  0
    1.0070    3.3910    0.3340 O   0  0  0  0  0  0  0  0  0  0  0  0
   -1.0470    3.0390    1.4240 C   0  0  0  0  0  0  0  0  0  0  0  0
   -0.6130    1.6160    1.6060 C   0  0  0  0  0  0  0  0  0  0  0  0
   -0.5050    0.8870    0.2790 C   0  0  2  0  0  0  0  0  0  0  0  0
   -1.8220    0.9390   -0.3020 N   0  0  0  0  0  0  0  0  0  0  0  0
    0.0190   -0.4740    0.5350 C   0  0  0  0  0  0  0  0  0  0  0  0
   -0.5620   -1.5530    0.2910 O   0  0  0  0  0  0  0  0  0  0  0  0
   -0.9950    5.3160   -0.6720 H   0  0  0  0  0  0  0  0  0  0  0  0
   -0.2160    5.9990    0.7870 H   0  0  0  0  0  0  0  0  0  0  0  0
   -2.0560    3.0550    0.9150 H   0  0  0  0  0  0  0  0  0  0  0  0
   -1.2530    3.4970    2.4190 H   0  0  0  0  0  0  0  0  0  0  0  0
   -1.3460    1.1370    2.2780 H   0  0  0  0  0  0  0  0  0  0  0  0
    0.3690    1.6340    2.1350 H   0  0  0  0  0  0  0  0  0  0  0  0
    0.2570    1.3770   -0.3750 H   0  0  0  0  0  0  0  0  0  0  0  0
   -2.6280    0.5050    0.1710 H   0  0  0  0  0  0  0  0  0  0  0  0
    1.3270   -0.6290    1.1250 N   0  0  0  0  0  0  0  0  0  0  0  0
    1.8760   -1.9480    1.3930 C   0  0  1  0  0  0  0  0  0  0  0  0
    3.1200   -2.1510    0.5540 C   0  0  0  0  0  0  0  0  0  0  0  0
    2.8420   -2.0540   -0.9030 C   0  0  0  0  0  0  0  0  0  0  0  0
    2.9260   -0.8420   -1.5500 C   0  0  0  0  0  0  0  0  0  0  0  0
    2.6700   -0.7630   -2.9020 C   0  0  0  0  0  0  0  0  0  0  0  0
    2.3260   -1.8770   -3.6450 C   0  0  0  0  0  0  0  0  0  0  0  0
    2.2420   -3.0840   -3.0000 C   0  0  0  0  0  0  0  0  0  0  0  0
    2.4980   -3.1580   -1.6530 C   0  0  0  0  0  0  0  0  0  0  0  0
    2.1940   -2.1500    2.8070 C   0  0  0  0  0  0  0  0  0  0  0  0
    1.9840   -1.2220    3.6250 O   0  0  0  0  0  0  0  0  0  0  0  0
    2.7230   -3.3350    3.2850 O   0  0  0  0  0  0  0  0  0  0  0  0
    1.8410    0.2500    1.3430 H   0  0  0  0  0  0  0  0  0  0  0  0
    1.1490   -2.7450    1.0540 H   0  0  0  0  0  0  0  0  0  0  0  0
    3.9210   -1.4620    0.8860 H   0  0  0  0  0  0  0  0  0  0  0  0
    3.4390   -3.2180    0.7360 H   0  0  0  0  0  0  0  0  0  0  0  0
    3.1990    0.0700   -0.9880 H   0  0  0  0  0  0  0  0  0  0  0  0
    2.7500    0.2280   -3.3760 H   0  0  0  0  0  0  0  0  0  0  0  0
    2.1300   -1.7710   -4.7160 H   0  0  0  0  0  0  0  0  0  0  0  0
    1.9770   -3.9660   -3.5520 H   0  0  0  0  0  0  0  0  0  0  0  0
    2.4250   -4.1220   -1.1700 H   0  0  0  0  0  0  0  0  0  0  0  0
  1  9  1  0  0  0  0
  2  3  1  0  0  0  0
  2  1  1  0  0  0  0
  3 14  1  0  0  0  0
  4  2  1  0  0  0  0
  4  5  1  0  0  0  0
  5 18  1  1  0  0  0
  5  7  1  0  0  0  0
  6 19  1  0  0  0  0
  6  5  1  0  0  0  0
  7 27  1  0  0  0  0
  8  7  2  0  0  0  0
 10  1  1  0  0  0  0
 11  1  1  0  0  0  0
 12  2  1  0  0  0  0
 13  3  1  0  0  0  0
 15  3  1  0  0  0  0
 16  4  1  0  0  0  0
 17  4  1  0  0  0  0
 20  6  1  0  0  0  0
 21 22  1  0  0  0  0
 21 31  1  0  0  0  0
 22 24  1  0  0  0  0
 23 22  2  0  0  0  0
 24 25  1  0  0  0  0
 24 33  1  0  0  0  0
 25 35  1  0  0  0  0
 25 34  1  0  0  0  0
 26 36  1  6  0  0  0
 26 28  1  0  0  0  0
 26 25  1  0  0  0  0
 27 37  1  0  0  0  0
 27 26  1  0  0  0  0
 28 38  1  0  0  0  0
 29 28  2  0  0  0  0
 30 21  1  0  0  0  0
 32 24  1  0  0  0  0
 38 50  1  0  0  0  0
 38 39  1  0  0  0  0
 39 51  1  6  0  0  0
 39 47  1  0  0  0  0
 40 53  1  0  0  0  0
 40 52  1  0  0  0  0
 40 39  1  0  0  0  0
 41 40  1  0  0  0  0
 42 54  1  0  0  0  0
 42 41  1  0  0  0  0
 43 42  2  0  0  0  0
 44 45  2  0  0  0  0
 44 43  1  0  0  0  0
 45 46  1  0  0  0  0
 46 58  1  0  0  0  0
 46 41  2  0  0  0  0
 47 49  2  0  0  0  0
 47 48  1  0  0  0  0
 55 43  1  0  0  0  0
 56 44  1  0  0  0  0
 57 45  1  0  0  0  0
M  END
$$$$
