LQG.pdb
 OpenBabel07022418453D

 45 44  0  0  1  0  0  0  0  0999 V2000
    0.5760   -5.5480    1.7400 C   0  0  0  0  0  0  0  0  0  0  0  0
    0.5740   -4.1410    1.1170 C   0  0  0  0  0  0  0  0  0  0  0  0
    1.0760   -3.2210    2.1690 C   0  0  0  0  0  0  0  0  0  0  0  0
   -0.7910   -3.9020    0.6090 C   0  0  0  0  0  0  0  0  0  0  0  0
   -1.0780   -2.6100   -0.0490 C   0  0  2  0  0  0  0  0  0  0  0  0
   -0.2690   -2.3480   -1.2190 N   0  0  0  0  0  0  0  0  0  0  0  0
   -1.0270   -1.4890    0.9240 C   0  0  0  0  0  0  0  0  0  0  0  0
   -1.6520   -1.5190    2.0150 O   0  0  0  0  0  0  0  0  0  0  0  0
    0.0870   -6.2740    1.0530 H   0  0  0  0  0  0  0  0  0  0  0  0
    1.5700   -5.8460    2.0720 H   0  0  0  0  0  0  0  0  0  0  0  0
   -0.0720   -5.4400    2.6580 H   0  0  0  0  0  0  0  0  0  0  0  0
    1.3220   -4.2090    0.2850 H   0  0  0  0  0  0  0  0  0  0  0  0
    1.9950   -3.6950    2.6290 H   0  0  0  0  0  0  0  0  0  0  0  0
    1.3930   -2.2400    1.8320 H   0  0  0  0  0  0  0  0  0  0  0  0
    0.3600   -3.1020    3.0000 H   0  0  0  0  0  0  0  0  0  0  0  0
   -1.0520   -4.7660   -0.0640 H   0  0  0  0  0  0  0  0  0  0  0  0
   -1.5050   -4.0170    1.4710 H   0  0  0  0  0  0  0  0  0  0  0  0
   -2.1280   -2.7090   -0.4750 H   0  0  0  0  0  0  0  0  0  0  0  0
   -0.7750   -1.6330   -1.7900 H   0  0  0  0  0  0  0  0  0  0  0  0
   -0.2480   -3.2330   -1.7750 H   0  0  0  0  0  0  0  0  0  0  0  0
    4.6630    1.4180    0.2510 N   0  0  0  0  0  0  0  0  0  0  0  0
    3.6500    1.2400    1.2090 C   0  0  0  0  0  0  0  0  0  0  0  0
    3.9430    1.1870    2.4150 O   0  0  0  0  0  0  0  0  0  0  0  0
    2.2480    1.1160    0.7870 C   0  0  0  0  0  0  0  0  0  0  0  0
    1.3020    0.9320    1.9490 C   0  0  0  0  0  0  0  0  0  0  0  0
   -0.1330    0.8070    1.4940 C   0  0  2  0  0  0  0  0  0  0  0  0
   -0.2480   -0.3240    0.6300 N   0  0  0  0  0  0  0  0  0  0  0  0
   -0.6410    2.0610    0.8950 C   0  0  0  0  0  0  0  0  0  0  0  0
   -0.5700    3.1020    1.6060 O   0  0  0  0  0  0  0  0  0  0  0  0
    4.9520    2.3370   -0.1430 H   0  0  0  0  0  0  0  0  0  0  0  0
    5.1630    0.5450   -0.0880 H   0  0  0  0  0  0  0  0  0  0  0  0
    2.1700    0.2510    0.1190 H   0  0  0  0  0  0  0  0  0  0  0  0
    1.8890    2.0150    0.2300 H   0  0  0  0  0  0  0  0  0  0  0  0
    1.3350    1.7930    2.6510 H   0  0  0  0  0  0  0  0  0  0  0  0
    1.5300    0.0350    2.5590 H   0  0  0  0  0  0  0  0  0  0  0  0
   -0.7440    0.6070    2.4080 H   0  0  0  0  0  0  0  0  0  0  0  0
    0.2600   -0.3320   -0.2870 H   0  0  0  0  0  0  0  0  0  0  0  0
   -1.1890    2.1680   -0.3920 N   0  0  0  0  0  0  0  0  0  0  0  0
   -1.6590    3.4330   -0.8940 C   0  0  0  0  0  0  0  0  0  0  0  0
   -2.7420    3.9760   -0.0410 C   0  0  0  0  0  0  0  0  0  0  0  0
   -3.2750    5.0790   -0.3310 O   0  0  0  0  0  0  0  0  0  0  0  0
   -3.1430    3.2500    1.0600 O   0  0  0  0  0  0  0  0  0  0  0  0
   -1.2470    1.3130   -0.9770 H   0  0  0  0  0  0  0  0  0  0  0  0
   -0.8200    4.1790   -0.9540 H   0  0  0  0  0  0  0  0  0  0  0  0
   -2.0800    3.3270   -1.9150 H   0  0  0  0  0  0  0  0  0  0  0  0
  1 10  1  0  0  0  0
  1 11  1  0  0  0  0
  2  1  1  0  0  0  0
  2  3  1  0  0  0  0
  3 13  1  0  0  0  0
  3 15  1  0  0  0  0
  4  2  1  0  0  0  0
  4 17  1  0  0  0  0
  5 18  1  6  0  0  0
  5  4  1  0  0  0  0
  5  7  1  0  0  0  0
  6  5  1  0  0  0  0
  7  8  2  0  0  0  0
  9  1  1  0  0  0  0
 12  2  1  0  0  0  0
 14  3  1  0  0  0  0
 16  4  1  0  0  0  0
 19  6  1  0  0  0  0
 20  6  1  0  0  0  0
 21 22  1  0  0  0  0
 22 23  2  0  0  0  0
 24 22  1  0  0  0  0
 24 25  1  0  0  0  0
 25 35  1  0  0  0  0
 25 34  1  0  0  0  0
 26 25  1  0  0  0  0
 26 36  1  1  0  0  0
 27  7  1  0  0  0  0
 27 26  1  0  0  0  0
 28 26  1  0  0  0  0
 28 29  2  0  0  0  0
 30 21  1  0  0  0  0
 31 21  1  0  0  0  0
 32 24  1  0  0  0  0
 33 24  1  0  0  0  0
 37 27  1  0  0  0  0
 38 28  1  0  0  0  0
 39 38  1  0  0  0  0
 39 40  1  0  0  0  0
 40 42  1  0  0  0  0
 41 40  2  0  0  0  0
 43 38  1  0  0  0  0
 44 39  1  0  0  0  0
 45 39  1  0  0  0  0
M  END
$$$$
