LQH.pdb
 OpenBabel07022418453D

 55 55  0  0  1  0  0  0  0  0999 V2000
    0.6040   -1.8560    2.9970 C   0  0  0  0  0  0  0  0  0  0  0  0
    1.3490   -1.1590    4.0890 C   0  0  0  0  0  0  0  0  0  0  0  0
    2.8540   -1.4170    3.9910 C   0  0  0  0  0  0  0  0  0  0  0  0
    1.0250    0.2510    4.3210 C   0  0  0  0  0  0  0  0  0  0  0  0
    1.2190    1.2780    3.2940 C   0  0  2  0  0  0  0  0  0  0  0  0
    0.7700    2.5490    3.9870 N   0  0  0  0  0  0  0  0  0  0  0  0
    0.5280    1.1980    2.0170 C   0  0  0  0  0  0  0  0  0  0  0  0
   -0.5410    1.8840    1.8790 O   0  0  0  0  0  0  0  0  0  0  0  0
   -0.2950   -1.3250    2.6340 H   0  0  0  0  0  0  0  0  0  0  0  0
    0.1930   -2.8590    3.3410 H   0  0  0  0  0  0  0  0  0  0  0  0
    1.3190   -2.1470    2.1960 H   0  0  0  0  0  0  0  0  0  0  0  0
    1.0660   -1.7090    5.0440 H   0  0  0  0  0  0  0  0  0  0  0  0
    3.1080   -1.3470    2.9180 H   0  0  0  0  0  0  0  0  0  0  0  0
    3.4170   -0.7360    4.6300 H   0  0  0  0  0  0  0  0  0  0  0  0
    3.1040   -2.4540    4.3030 H   0  0  0  0  0  0  0  0  0  0  0  0
    1.5930    0.5740    5.2590 H   0  0  0  0  0  0  0  0  0  0  0  0
   -0.0490    0.2650    4.7210 H   0  0  0  0  0  0  0  0  0  0  0  0
    2.3230    1.4820    3.1630 H   0  0  0  0  0  0  0  0  0  0  0  0
   -0.2220    2.3230    4.3000 H   0  0  0  0  0  0  0  0  0  0  0  0
    1.3340    2.5330    4.8650 H   0  0  0  0  0  0  0  0  0  0  0  0
    3.9310   -0.6230   -2.7630 N   0  0  0  0  0  0  0  0  0  0  0  0
    2.5760   -0.3430   -2.3280 C   0  0  0  0  0  0  0  0  0  0  0  0
    1.7960   -1.3060   -2.4760 O   0  0  0  0  0  0  0  0  0  0  0  0
    2.2480    0.9590   -1.7850 C   0  0  0  0  0  0  0  0  0  0  0  0
    0.8670    1.2650   -1.3920 C   0  0  0  0  0  0  0  0  0  0  0  0
    0.2050    0.4300   -0.3430 C   0  0  2  0  0  0  0  0  0  0  0  0
    0.9380    0.4330    0.9020 N   0  0  0  0  0  0  0  0  0  0  0  0
   -0.3380   -0.8560   -0.7340 C   0  0  0  0  0  0  0  0  0  0  0  0
   -0.0680   -1.9240   -0.1190 O   0  0  0  0  0  0  0  0  0  0  0  0
    4.2980   -0.1090   -3.5700 H   0  0  0  0  0  0  0  0  0  0  0  0
    4.4340   -1.3390   -2.2100 H   0  0  0  0  0  0  0  0  0  0  0  0
    3.0150    1.2370   -1.0130 H   0  0  0  0  0  0  0  0  0  0  0  0
    2.4950    1.7050   -2.6130 H   0  0  0  0  0  0  0  0  0  0  0  0
    0.8550    2.3370   -1.0410 H   0  0  0  0  0  0  0  0  0  0  0  0
    0.2290    1.2770   -2.3080 H   0  0  0  0  0  0  0  0  0  0  0  0
   -0.7410    1.0450   -0.1000 H   0  0  0  0  0  0  0  0  0  0  0  0
    1.8190   -0.1290    1.0390 H   0  0  0  0  0  0  0  0  0  0  0  0
   -1.2340   -1.0100   -1.8540 N   0  0  0  0  0  0  0  0  0  0  0  0
   -1.7720   -2.2900   -2.2170 C   0  0  1  0  0  0  0  0  0  0  0  0
   -3.2910   -2.2940   -2.1570 C   0  0  0  0  0  0  0  0  0  0  0  0
   -3.7960   -1.9840   -0.8230 C   0  0  0  0  0  0  0  0  0  0  0  0
   -5.1550   -1.9260   -0.5110 C   0  0  0  0  0  0  0  0  0  0  0  0
   -5.2610   -1.6210    0.7840 N   0  0  0  0  0  0  0  0  0  0  0  0
   -4.0050   -1.4900    1.2730 C   0  0  0  0  0  0  0  0  0  0  0  0
   -3.1300   -1.7110    0.2940 N   0  0  0  0  0  0  0  0  0  0  0  0
   -1.3210   -2.7220   -3.5720 C   0  0  0  0  0  0  0  0  0  0  0  0
   -0.5990   -1.9660   -4.2420 O   0  0  0  0  0  0  0  0  0  0  0  0
   -1.7030   -3.9480   -4.0730 O   0  0  0  0  0  0  0  0  0  0  0  0
   -1.4620   -0.1480   -2.3750 H   0  0  0  0  0  0  0  0  0  0  0  0
   -1.4200   -3.0750   -1.5210 H   0  0  0  0  0  0  0  0  0  0  0  0
   -3.7070   -3.2550   -2.5190 H   0  0  0  0  0  0  0  0  0  0  0  0
   -3.6220   -1.5210   -2.8900 H   0  0  0  0  0  0  0  0  0  0  0  0
   -5.9600   -2.1050   -1.2230 H   0  0  0  0  0  0  0  0  0  0  0  0
   -6.1690   -1.5130    1.2870 H   0  0  0  0  0  0  0  0  0  0  0  0
   -3.7260   -1.2470    2.2860 H   0  0  0  0  0  0  0  0  0  0  0  0
  1 10  1  0  0  0  0
  1  2  1  0  0  0  0
  2  4  1  0  0  0  0
  2 12  1  0  0  0  0
  3  2  1  0  0  0  0
  3 15  1  0  0  0  0
  3 14  1  0  0  0  0
  4 17  1  0  0  0  0
  4 16  1  0  0  0  0
  5 18  1  6  0  0  0
  5  6  1  0  0  0  0
  5  4  1  0  0  0  0
  6 19  1  0  0  0  0
  6 20  1  0  0  0  0
  7  5  1  0  0  0  0
  8  7  2  0  0  0  0
  9  1  1  0  0  0  0
 11  1  1  0  0  0  0
 13  3  1  0  0  0  0
 21 22  1  0  0  0  0
 21 31  1  0  0  0  0
 22 24  1  0  0  0  0
 23 22  2  0  0  0  0
 24 25  1  0  0  0  0
 24 32  1  0  0  0  0
 25 34  1  0  0  0  0
 25 26  1  0  0  0  0
 26 36  1  1  0  0  0
 26 27  1  0  0  0  0
 27 37  1  0  0  0  0
 27  7  1  0  0  0  0
 28 26  1  0  0  0  0
 28 29  2  0  0  0  0
 30 21  1  0  0  0  0
 33 24  1  0  0  0  0
 35 25  1  0  0  0  0
 38 28  1  0  0  0  0
 39 40  1  0  0  0  0
 39 38  1  0  0  0  0
 39 50  1  1  0  0  0
 40 41  1  0  0  0  0
 41 42  2  0  0  0  0
 41 45  1  0  0  0  0
 42 43  1  0  0  0  0
 43 44  1  0  0  0  0
 43 54  1  0  0  0  0
 44 55  1  0  0  0  0
 45 44  2  0  0  0  0
 46 39  1  0  0  0  0
 47 46  2  0  0  0  0
 48 46  1  0  0  0  0
 49 38  1  0  0  0  0
 51 40  1  0  0  0  0
 52 40  1  0  0  0  0
 53 42  1  0  0  0  0
M  END
$$$$
