LQI.pdb
 OpenBabel07022418453D

 57 56  0  0  1  0  0  0  0  0999 V2000
    3.5360   -0.8110    0.1220 C   0  0  0  0  0  0  0  0  0  0  0  0
    3.3950   -0.3780    1.5840 C   0  0  0  0  0  0  0  0  0  0  0  0
    2.2910   -1.1070    2.2310 C   0  0  0  0  0  0  0  0  0  0  0  0
    3.4930    1.0800    1.7450 C   0  0  0  0  0  0  0  0  0  0  0  0
    2.5580    1.9760    1.0440 C   0  0  2  0  0  0  0  0  0  0  0  0
    2.9870    3.3550    1.4610 N   0  0  0  0  0  0  0  0  0  0  0  0
    1.1420    1.9280    1.3560 C   0  0  0  0  0  0  0  0  0  0  0  0
    0.6270    2.7200    2.2150 O   0  0  0  0  0  0  0  0  0  0  0  0
    2.7730   -0.2530   -0.4510 H   0  0  0  0  0  0  0  0  0  0  0  0
    4.5630   -0.5630   -0.2350 H   0  0  0  0  0  0  0  0  0  0  0  0
    3.3170   -1.8870    0.0980 H   0  0  0  0  0  0  0  0  0  0  0  0
    4.3640   -0.7870    2.0710 H   0  0  0  0  0  0  0  0  0  0  0  0
    2.6910   -1.6040    3.1750 H   0  0  0  0  0  0  0  0  0  0  0  0
    1.4660   -0.4740    2.6400 H   0  0  0  0  0  0  0  0  0  0  0  0
    1.9160   -1.9800    1.6450 H   0  0  0  0  0  0  0  0  0  0  0  0
    3.5430    1.3950    2.8350 H   0  0  0  0  0  0  0  0  0  0  0  0
    4.5340    1.3720    1.3830 H   0  0  0  0  0  0  0  0  0  0  0  0
    2.7870    1.9540   -0.0410 H   0  0  0  0  0  0  0  0  0  0  0  0
    3.9220    3.5250    1.0430 H   0  0  0  0  0  0  0  0  0  0  0  0
    3.1100    3.2750    2.4990 H   0  0  0  0  0  0  0  0  0  0  0  0
   -2.7180    1.4600   -3.6160 N   0  0  0  0  0  0  0  0  0  0  0  0
   -2.6430    1.9070   -2.2710 C   0  0  0  0  0  0  0  0  0  0  0  0
   -3.2390    2.9640   -1.9640 O   0  0  0  0  0  0  0  0  0  0  0  0
   -1.8920    1.1690   -1.2440 C   0  0  0  0  0  0  0  0  0  0  0  0
   -1.9990    1.8970    0.0740 C   0  0  0  0  0  0  0  0  0  0  0  0
   -1.2060    1.1170    1.1580 C   0  0  2  0  0  0  0  0  0  0  0  0
    0.1780    1.0310    0.7600 N   0  0  0  0  0  0  0  0  0  0  0  0
   -1.8670   -0.1820    1.3640 C   0  0  0  0  0  0  0  0  0  0  0  0
   -3.1000   -0.1670    1.7420 O   0  0  0  0  0  0  0  0  0  0  0  0
   -2.9460    2.0490   -4.4260 H   0  0  0  0  0  0  0  0  0  0  0  0
   -2.5230    0.4500   -3.7840 H   0  0  0  0  0  0  0  0  0  0  0  0
   -0.8270    1.0160   -1.5160 H   0  0  0  0  0  0  0  0  0  0  0  0
   -2.3330    0.1490   -1.1900 H   0  0  0  0  0  0  0  0  0  0  0  0
   -3.0640    1.9270    0.3780 H   0  0  0  0  0  0  0  0  0  0  0  0
   -1.6250    2.9210    0.0110 H   0  0  0  0  0  0  0  0  0  0  0  0
   -1.3440    1.7410    2.0620 H   0  0  0  0  0  0  0  0  0  0  0  0
    0.5130    0.3580    0.0670 H   0  0  0  0  0  0  0  0  0  0  0  0
   -0.6490   -5.0090   -1.3350 C   0  0  0  0  0  0  0  0  0  0  0  0
   -0.5500   -3.9620   -0.2510 C   0  0  0  0  0  0  0  0  0  0  0  0
   -1.9390   -3.5710    0.1770 C   0  0  2  0  0  0  0  0  0  0  0  0
   -2.7360   -3.0030   -0.9730 C   0  0  0  0  0  0  0  0  0  0  0  0
   -1.9470   -2.6800    1.3840 C   0  0  2  0  0  0  0  0  0  0  0  0
   -1.2340   -1.4410    1.1710 N   0  0  0  0  0  0  0  0  0  0  0  0
   -1.2770   -3.4110    2.4910 C   0  0  0  0  0  0  0  0  0  0  0  0
   -1.7610   -4.5310    2.8090 O   0  0  0  0  0  0  0  0  0  0  0  0
   -0.1890   -2.9330    3.1630 O   0  0  0  0  0  0  0  0  0  0  0  0
   -1.5610   -5.6500   -1.2080 H   0  0  0  0  0  0  0  0  0  0  0  0
   -0.7000   -4.5560   -2.3550 H   0  0  0  0  0  0  0  0  0  0  0  0
    0.2190   -5.7020   -1.3400 H   0  0  0  0  0  0  0  0  0  0  0  0
    0.0320   -3.1130   -0.6590 H   0  0  0  0  0  0  0  0  0  0  0  0
   -0.0450   -4.4330    0.6230 H   0  0  0  0  0  0  0  0  0  0  0  0
   -2.4540   -4.5200    0.4790 H   0  0  0  0  0  0  0  0  0  0  0  0
   -3.6530   -2.5340   -0.5180 H   0  0  0  0  0  0  0  0  0  0  0  0
   -3.0800   -3.8630   -1.5860 H   0  0  0  0  0  0  0  0  0  0  0  0
   -2.1770   -2.2610   -1.5690 H   0  0  0  0  0  0  0  0  0  0  0  0
   -3.0200   -2.4780    1.6360 H   0  0  0  0  0  0  0  0  0  0  0  0
   -0.2450   -1.4800    0.8660 H   0  0  0  0  0  0  0  0  0  0  0  0
  1  2  1  0  0  0  0
  2  4  1  0  0  0  0
  2 12  1  0  0  0  0
  2  3  1  0  0  0  0
  3 14  1  0  0  0  0
  3 13  1  0  0  0  0
  4 16  1  0  0  0  0
  5 18  1  6  0  0  0
  5  7  1  0  0  0  0
  5  6  1  0  0  0  0
  5  4  1  0  0  0  0
  6 20  1  0  0  0  0
  7  8  2  0  0  0  0
  9  1  1  0  0  0  0
 10  1  1  0  0  0  0
 11  1  1  0  0  0  0
 15  3  1  0  0  0  0
 17  4  1  0  0  0  0
 19  6  1  0  0  0  0
 21 22  1  0  0  0  0
 22 23  2  0  0  0  0
 22 24  1  0  0  0  0
 24 33  1  0  0  0  0
 24 25  1  0  0  0  0
 25 34  1  0  0  0  0
 25 26  1  0  0  0  0
 26 28  1  0  0  0  0
 26 36  1  1  0  0  0
 27 26  1  0  0  0  0
 27  7  1  0  0  0  0
 28 29  2  0  0  0  0
 30 21  1  0  0  0  0
 31 21  1  0  0  0  0
 32 24  1  0  0  0  0
 35 25  1  0  0  0  0
 37 27  1  0  0  0  0
 38 47  1  0  0  0  0
 38 39  1  0  0  0  0
 39 40  1  0  0  0  0
 39 51  1  0  0  0  0
 40 52  1  1  0  0  0
 40 42  1  0  0  0  0
 41 53  1  0  0  0  0
 41 40  1  0  0  0  0
 42 56  1  1  0  0  0
 42 44  1  0  0  0  0
 43 28  1  0  0  0  0
 43 42  1  0  0  0  0
 44 45  2  0  0  0  0
 44 46  1  0  0  0  0
 48 38  1  0  0  0  0
 49 38  1  0  0  0  0
 50 39  1  0  0  0  0
 54 41  1  0  0  0  0
 55 41  1  0  0  0  0
 57 43  1  0  0  0  0
M  END
$$$$
