LQK.pdb
 OpenBabel07022418453D

 59 58  0  0  1  0  0  0  0  0999 V2000
   -3.2640   -0.4690    4.6560 C   0  0  0  0  0  0  0  0  0  0  0  0
   -2.2390   -0.9600    3.6640 C   0  0  0  0  0  0  0  0  0  0  0  0
   -2.7690   -0.5480    2.3070 C   0  0  0  0  0  0  0  0  0  0  0  0
   -0.8530   -0.5340    3.8930 C   0  0  0  0  0  0  0  0  0  0  0  0
   -0.5180    0.8940    3.8990 C   0  0  2  0  0  0  0  0  0  0  0  0
   -1.2000    1.7030    4.8730 N   0  0  0  0  0  0  0  0  0  0  0  0
   -0.6210    1.5750    2.5900 C   0  0  0  0  0  0  0  0  0  0  0  0
   -1.3810    2.5930    2.4400 O   0  0  0  0  0  0  0  0  0  0  0  0
   -3.0090   -0.6980    5.7010 H   0  0  0  0  0  0  0  0  0  0  0  0
   -3.5530    0.5870    4.4880 H   0  0  0  0  0  0  0  0  0  0  0  0
   -4.1870   -1.0570    4.4410 H   0  0  0  0  0  0  0  0  0  0  0  0
   -2.3170   -2.0720    3.6950 H   0  0  0  0  0  0  0  0  0  0  0  0
   -3.6180   -1.1810    1.9770 H   0  0  0  0  0  0  0  0  0  0  0  0
   -1.9760   -0.6970    1.5620 H   0  0  0  0  0  0  0  0  0  0  0  0
   -3.1300    0.4890    2.2750 H   0  0  0  0  0  0  0  0  0  0  0  0
   -0.2100   -1.0410    3.1380 H   0  0  0  0  0  0  0  0  0  0  0  0
   -0.5090   -0.9840    4.8690 H   0  0  0  0  0  0  0  0  0  0  0  0
    0.5780    0.9990    4.1810 H   0  0  0  0  0  0  0  0  0  0  0  0
   -0.7000    1.7390    5.7910 H   0  0  0  0  0  0  0  0  0  0  0  0
   -1.3130    2.6980    4.5710 H   0  0  0  0  0  0  0  0  0  0  0  0
    4.0330    0.2110   -0.8260 N   0  0  0  0  0  0  0  0  0  0  0  0
    2.8660    1.0060   -1.0630 C   0  0  0  0  0  0  0  0  0  0  0  0
    2.2080    0.7420   -2.0790 O   0  0  0  0  0  0  0  0  0  0  0  0
    2.5240    2.0510   -0.1350 C   0  0  0  0  0  0  0  0  0  0  0  0
    1.2000    2.6860   -0.1370 C   0  0  0  0  0  0  0  0  0  0  0  0
    0.0010    1.8310    0.1530 C   0  0  2  0  0  0  0  0  0  0  0  0
    0.0960    1.1740    1.4210 N   0  0  0  0  0  0  0  0  0  0  0  0
   -0.3600    1.0030   -0.9950 C   0  0  0  0  0  0  0  0  0  0  0  0
   -0.6280    1.5210   -2.1400 O   0  0  0  0  0  0  0  0  0  0  0  0
    4.9810    0.6300   -0.7560 H   0  0  0  0  0  0  0  0  0  0  0  0
    3.9650   -0.8260   -0.7130 H   0  0  0  0  0  0  0  0  0  0  0  0
    3.2800    2.8870   -0.2940 H   0  0  0  0  0  0  0  0  0  0  0  0
    2.7470    1.7490    0.9370 H   0  0  0  0  0  0  0  0  0  0  0  0
    1.0360    3.2860   -1.0900 H   0  0  0  0  0  0  0  0  0  0  0  0
    1.2380    3.5140    0.6430 H   0  0  0  0  0  0  0  0  0  0  0  0
   -0.8680    2.5960    0.2580 H   0  0  0  0  0  0  0  0  0  0  0  0
    0.7210    0.3500    1.5180 H   0  0  0  0  0  0  0  0  0  0  0  0
   -0.4430   -0.4380   -0.9310 N   0  0  0  0  0  0  0  0  0  0  0  0
   -0.8110   -1.1880   -2.0990 C   0  0  1  0  0  0  0  0  0  0  0  0
    0.2520   -2.2150   -2.4100 C   0  0  0  0  0  0  0  0  0  0  0  0
    0.4230   -3.1720   -1.2600 C   0  0  0  0  0  0  0  0  0  0  0  0
    1.4760   -4.2140   -1.5360 C   0  0  0  0  0  0  0  0  0  0  0  0
    1.1390   -5.0510   -2.7530 C   0  0  0  0  0  0  0  0  0  0  0  0
    2.2130   -6.0140   -2.9220 N   0  0  0  0  0  0  0  0  0  0  0  0
   -2.1080   -1.9040   -1.9100 C   0  0  0  0  0  0  0  0  0  0  0  0
   -2.7880   -1.8610   -0.8740 O   0  0  0  0  0  0  0  0  0  0  0  0
   -2.5590   -2.6600   -2.9810 O   0  0  0  0  0  0  0  0  0  0  0  0
   -0.2170   -0.8680   -0.0070 H   0  0  0  0  0  0  0  0  0  0  0  0
   -0.9470   -0.4980   -2.9520 H   0  0  0  0  0  0  0  0  0  0  0  0
    1.1640   -1.7000   -2.7160 H   0  0  0  0  0  0  0  0  0  0  0  0
   -0.1150   -2.7810   -3.3130 H   0  0  0  0  0  0  0  0  0  0  0  0
    0.8000   -2.5870   -0.3820 H   0  0  0  0  0  0  0  0  0  0  0  0
   -0.5480   -3.5980   -1.0050 H   0  0  0  0  0  0  0  0  0  0  0  0
    1.5410   -4.8540   -0.6320 H   0  0  0  0  0  0  0  0  0  0  0  0
    2.4500   -3.7380   -1.6760 H   0  0  0  0  0  0  0  0  0  0  0  0
    0.1910   -5.6090   -2.5310 H   0  0  0  0  0  0  0  0  0  0  0  0
    1.0690   -4.4300   -3.6450 H   0  0  0  0  0  0  0  0  0  0  0  0
    3.0880   -5.6100   -2.5160 H   0  0  0  0  0  0  0  0  0  0  0  0
    1.9660   -6.8590   -2.3300 H   0  0  0  0  0  0  0  0  0  0  0  0
  1  9  1  0  0  0  0
  2 12  1  0  0  0  0
  2  4  1  0  0  0  0
  2  1  1  0  0  0  0
  3  2  1  0  0  0  0
  4  5  1  0  0  0  0
  4 17  1  0  0  0  0
  5 18  1  1  0  0  0
  5  6  1  0  0  0  0
  6 19  1  0  0  0  0
  7  5  1  0  0  0  0
  8  7  2  0  0  0  0
 10  1  1  0  0  0  0
 11  1  1  0  0  0  0
 13  3  1  0  0  0  0
 14  3  1  0  0  0  0
 15  3  1  0  0  0  0
 16  4  1  0  0  0  0
 20  6  1  0  0  0  0
 21 30  1  0  0  0  0
 21 31  1  0  0  0  0
 22 21  1  0  0  0  0
 22 24  1  0  0  0  0
 23 22  2  0  0  0  0
 24 33  1  0  0  0  0
 25 24  1  0  0  0  0
 25 26  1  0  0  0  0
 25 35  1  0  0  0  0
 26 36  1  1  0  0  0
 26 27  1  0  0  0  0
 27 37  1  0  0  0  0
 27  7  1  0  0  0  0
 28 38  1  0  0  0  0
 28 26  1  0  0  0  0
 29 28  2  0  0  0  0
 32 24  1  0  0  0  0
 34 25  1  0  0  0  0
 38 48  1  0  0  0  0
 39 49  1  6  0  0  0
 39 45  1  0  0  0  0
 39 38  1  0  0  0  0
 40 39  1  0  0  0  0
 40 41  1  0  0  0  0
 41 53  1  0  0  0  0
 41 52  1  0  0  0  0
 42 41  1  0  0  0  0
 42 54  1  0  0  0  0
 43 56  1  0  0  0  0
 43 42  1  0  0  0  0
 44 43  1  0  0  0  0
 44 58  1  0  0  0  0
 44 59  1  0  0  0  0
 45 46  1  0  0  0  0
 47 45  2  0  0  0  0
 50 40  1  0  0  0  0
 51 40  1  0  0  0  0
 55 42  1  0  0  0  0
 57 43  1  0  0  0  0
M  END
$$$$
