LQN.pdb
 OpenBabel07022418453D

 52 51  0  0  1  0  0  0  0  0999 V2000
   -0.3600   -3.2150    5.1340 C   0  0  0  0  0  0  0  0  0  0  0  0
    0.2770   -3.3040    3.7810 C   0  0  0  0  0  0  0  0  0  0  0  0
   -0.7260   -2.7990    2.7690 C   0  0  0  0  0  0  0  0  0  0  0  0
    1.6240   -2.7590    3.6370 C   0  0  0  0  0  0  0  0  0  0  0  0
    1.8910   -1.3390    3.9170 C   0  0  2  0  0  0  0  0  0  0  0  0
    1.5820   -0.9070    5.2630 N   0  0  0  0  0  0  0  0  0  0  0  0
    1.4060   -0.3730    2.8980 C   0  0  0  0  0  0  0  0  0  0  0  0
    0.7560    0.6770    3.2530 O   0  0  0  0  0  0  0  0  0  0  0  0
   -1.2500   -3.9060    5.0970 H   0  0  0  0  0  0  0  0  0  0  0  0
    0.2700   -3.6250    5.9500 H   0  0  0  0  0  0  0  0  0  0  0  0
   -0.7820   -2.2230    5.3650 H   0  0  0  0  0  0  0  0  0  0  0  0
    0.3310   -4.4200    3.5680 H   0  0  0  0  0  0  0  0  0  0  0  0
   -0.5740   -3.2960    1.7730 H   0  0  0  0  0  0  0  0  0  0  0  0
   -0.6590   -1.7090    2.5850 H   0  0  0  0  0  0  0  0  0  0  0  0
   -1.7730   -3.0000    3.0750 H   0  0  0  0  0  0  0  0  0  0  0  0
    1.9210   -2.9200    2.5530 H   0  0  0  0  0  0  0  0  0  0  0  0
    2.3640   -3.4200    4.1810 H   0  0  0  0  0  0  0  0  0  0  0  0
    3.0230   -1.2240    3.8610 H   0  0  0  0  0  0  0  0  0  0  0  0
    2.3180   -1.2010    5.9440 H   0  0  0  0  0  0  0  0  0  0  0  0
    1.5920    0.1430    5.2530 H   0  0  0  0  0  0  0  0  0  0  0  0
    1.3490    2.5340   -3.4240 N   0  0  0  0  0  0  0  0  0  0  0  0
    1.7450    1.5950   -2.3890 C   0  0  0  0  0  0  0  0  0  0  0  0
    1.6530    0.3780   -2.6250 O   0  0  0  0  0  0  0  0  0  0  0  0
    2.2450    2.1020   -1.1080 C   0  0  0  0  0  0  0  0  0  0  0  0
    2.3260    1.0720   -0.0650 C   0  0  0  0  0  0  0  0  0  0  0  0
    1.1370    0.4380    0.5090 C   0  0  2  0  0  0  0  0  0  0  0  0
    1.6400   -0.5690    1.5180 N   0  0  0  0  0  0  0  0  0  0  0  0
    0.1120   -0.2070   -0.2370 C   0  0  0  0  0  0  0  0  0  0  0  0
    0.0310   -1.4910   -0.1780 O   0  0  0  0  0  0  0  0  0  0  0  0
    0.9350    3.4240   -3.0890 H   0  0  0  0  0  0  0  0  0  0  0  0
    1.5020    2.2570   -4.4060 H   0  0  0  0  0  0  0  0  0  0  0  0
    1.6670    3.0190   -0.7730 H   0  0  0  0  0  0  0  0  0  0  0  0
    3.2620    2.5570   -1.3480 H   0  0  0  0  0  0  0  0  0  0  0  0
    2.8550    1.5800    0.8260 H   0  0  0  0  0  0  0  0  0  0  0  0
    3.1400    0.2920   -0.3200 H   0  0  0  0  0  0  0  0  0  0  0  0
    0.6280    1.2410    1.1520 H   0  0  0  0  0  0  0  0  0  0  0  0
    2.1570   -1.4050    1.2130 H   0  0  0  0  0  0  0  0  0  0  0  0
   -4.2060   -2.0570   -2.5170 N   0  0  0  0  0  0  0  0  0  0  0  0
   -4.3420   -0.9800   -1.6240 C   0  0  0  0  0  0  0  0  0  0  0  0
   -5.5290   -0.6810   -1.2580 O   0  0  0  0  0  0  0  0  0  0  0  0
   -3.2560   -0.1870   -1.0860 C   0  0  0  0  0  0  0  0  0  0  0  0
   -1.8930   -0.4490   -1.7340 C   0  0  2  0  0  0  0  0  0  0  0  0
   -0.8970    0.3950   -1.0690 N   0  0  0  0  0  0  0  0  0  0  0  0
   -1.9370   -0.0610   -3.1560 C   0  0  0  0  0  0  0  0  0  0  0  0
   -1.2300    0.8950   -3.6090 O   0  0  0  0  0  0  0  0  0  0  0  0
   -2.7300   -0.6790   -4.1260 O   0  0  0  0  0  0  0  0  0  0  0  0
   -4.9290   -2.1540   -3.2750 H   0  0  0  0  0  0  0  0  0  0  0  0
   -3.4380   -2.7620   -2.4750 H   0  0  0  0  0  0  0  0  0  0  0  0
   -3.1960   -0.3380    0.0140 H   0  0  0  0  0  0  0  0  0  0  0  0
   -3.4360    0.8980   -1.2360 H   0  0  0  0  0  0  0  0  0  0  0  0
   -1.6770   -1.5140   -1.6520 H   0  0  0  0  0  0  0  0  0  0  0  0
   -0.8600    1.4210   -1.1510 H   0  0  0  0  0  0  0  0  0  0  0  0
  1 11  1  0  0  0  0
  1 10  1  0  0  0  0
  2  1  1  0  0  0  0
  3 15  1  0  0  0  0
  3  2  1  0  0  0  0
  4  2  1  0  0  0  0
  4  5  1  0  0  0  0
  4 17  1  0  0  0  0
  5 18  1  6  0  0  0
  5  6  1  0  0  0  0
  6 19  1  0  0  0  0
  7  8  2  0  0  0  0
  7  5  1  0  0  0  0
  9  1  1  0  0  0  0
 12  2  1  0  0  0  0
 13  3  1  0  0  0  0
 14  3  1  0  0  0  0
 16  4  1  0  0  0  0
 20  6  1  0  0  0  0
 21 30  1  0  0  0  0
 21 22  1  0  0  0  0
 22 24  1  0  0  0  0
 23 22  2  0  0  0  0
 24 32  1  0  0  0  0
 24 25  1  0  0  0  0
 25 26  1  0  0  0  0
 25 34  1  0  0  0  0
 26 36  1  1  0  0  0
 26 27  1  0  0  0  0
 27  7  1  0  0  0  0
 28 29  2  0  0  0  0
 28 26  1  0  0  0  0
 31 21  1  0  0  0  0
 33 24  1  0  0  0  0
 35 25  1  0  0  0  0
 37 27  1  0  0  0  0
 38 48  1  0  0  0  0
 38 39  1  0  0  0  0
 39 40  2  0  0  0  0
 39 41  1  0  0  0  0
 41 49  1  0  0  0  0
 42 51  1  1  0  0  0
 42 41  1  0  0  0  0
 42 43  1  0  0  0  0
 43 28  1  0  0  0  0
 44 42  1  0  0  0  0
 45 44  1  0  0  0  0
 46 44  2  0  0  0  0
 47 38  1  0  0  0  0
 50 41  1  0  0  0  0
 52 43  1  0  0  0  0
M  END
$$$$
