LQP.pdb
 OpenBabel07022418453D

 52 52  0  0  1  0  0  0  0  0999 V2000
    1.2660   -4.1970    2.9970 C   0  0  0  0  0  0  0  0  0  0  0  0
    1.7650   -2.7540    2.8110 C   0  0  0  0  0  0  0  0  0  0  0  0
    0.6700   -1.8400    3.2570 C   0  0  0  0  0  0  0  0  0  0  0  0
    2.1820   -2.6400    1.3880 C   0  0  0  0  0  0  0  0  0  0  0  0
    2.7050   -1.3120    0.9570 C   0  0  2  0  0  0  0  0  0  0  0  0
    3.8640   -0.9190    1.7460 N   0  0  0  0  0  0  0  0  0  0  0  0
    1.7300   -0.2340    0.8500 C   0  0  0  0  0  0  0  0  0  0  0  0
    1.7940    0.7750    1.6090 O   0  0  0  0  0  0  0  0  0  0  0  0
    0.3350   -4.2700    2.3730 H   0  0  0  0  0  0  0  0  0  0  0  0
    2.0540   -4.8720    2.6660 H   0  0  0  0  0  0  0  0  0  0  0  0
    1.0430   -4.3010    4.0700 H   0  0  0  0  0  0  0  0  0  0  0  0
    2.6230   -2.5760    3.5220 H   0  0  0  0  0  0  0  0  0  0  0  0
    0.2190   -1.3180    2.4210 H   0  0  0  0  0  0  0  0  0  0  0  0
   -0.1750   -2.4190    3.7410 H   0  0  0  0  0  0  0  0  0  0  0  0
    0.9960   -1.1480    4.0780 H   0  0  0  0  0  0  0  0  0  0  0  0
    2.9040   -3.4650    1.1360 H   0  0  0  0  0  0  0  0  0  0  0  0
    1.2900   -2.8670    0.7570 H   0  0  0  0  0  0  0  0  0  0  0  0
    3.1250   -1.4670   -0.0880 H   0  0  0  0  0  0  0  0  0  0  0  0
    4.5420   -1.7150    1.6770 H   0  0  0  0  0  0  0  0  0  0  0  0
    3.6190   -0.6900    2.7270 H   0  0  0  0  0  0  0  0  0  0  0  0
    2.8920    3.7340   -2.7490 N   0  0  0  0  0  0  0  0  0  0  0  0
    1.6350    3.1040   -2.5520 C   0  0  0  0  0  0  0  0  0  0  0  0
    0.7450    3.2660   -3.4230 O   0  0  0  0  0  0  0  0  0  0  0  0
    1.4180    2.2760   -1.3220 C   0  0  0  0  0  0  0  0  0  0  0  0
    0.0030    1.7250   -1.4200 C   0  0  0  0  0  0  0  0  0  0  0  0
   -0.2910    0.8560   -0.1700 C   0  0  2  0  0  0  0  0  0  0  0  0
    0.6430   -0.2240   -0.1030 N   0  0  0  0  0  0  0  0  0  0  0  0
   -1.7030    0.5940   -0.0400 C   0  0  0  0  0  0  0  0  0  0  0  0
   -2.4780    1.6190    0.0280 O   0  0  0  0  0  0  0  0  0  0  0  0
    3.6090    3.7890   -1.9650 H   0  0  0  0  0  0  0  0  0  0  0  0
    3.1130    4.1460   -3.6770 H   0  0  0  0  0  0  0  0  0  0  0  0
    1.5530    2.8820   -0.4130 H   0  0  0  0  0  0  0  0  0  0  0  0
    2.1310    1.4350   -1.3910 H   0  0  0  0  0  0  0  0  0  0  0  0
   -0.0040    1.0830   -2.3230 H   0  0  0  0  0  0  0  0  0  0  0  0
   -0.6770    2.5810   -1.4480 H   0  0  0  0  0  0  0  0  0  0  0  0
   -0.0190    1.5780    0.6800 H   0  0  0  0  0  0  0  0  0  0  0  0
    0.6220   -1.0470   -0.7290 H   0  0  0  0  0  0  0  0  0  0  0  0
   -2.4020   -0.6780    0.0290 N   0  0  0  0  0  0  0  0  0  0  0  0
   -1.8200   -1.9700   -0.1110 C   0  0  0  0  0  0  0  0  0  0  0  0
   -2.9300   -2.9580   -0.0020 C   0  0  0  0  0  0  0  0  0  0  0  0
   -4.1550   -2.2100    0.3970 C   0  0  0  0  0  0  0  0  0  0  0  0
   -3.8110   -0.7890    0.2790 C   0  0  1  0  0  0  0  0  0  0  0  0
   -4.2260   -0.0030    1.4770 C   0  0  0  0  0  0  0  0  0  0  0  0
   -3.3660    0.5440    2.1750 O   0  0  0  0  0  0  0  0  0  0  0  0
   -5.5540    0.0970    1.7800 O   0  0  0  0  0  0  0  0  0  0  0  0
   -1.3890   -2.0000   -1.1600 H   0  0  0  0  0  0  0  0  0  0  0  0
   -0.9900   -2.1710    0.5940 H   0  0  0  0  0  0  0  0  0  0  0  0
   -2.7030   -3.7800    0.7230 H   0  0  0  0  0  0  0  0  0  0  0  0
   -3.0860   -3.4650   -0.9850 H   0  0  0  0  0  0  0  0  0  0  0  0
   -4.4330   -2.4200    1.4600 H   0  0  0  0  0  0  0  0  0  0  0  0
   -5.0170   -2.5230   -0.2680 H   0  0  0  0  0  0  0  0  0  0  0  0
   -4.3540   -0.3920   -0.6370 H   0  0  0  0  0  0  0  0  0  0  0  0
  1 11  1  0  0  0  0
  2  1  1  0  0  0  0
  2  3  1  0  0  0  0
  2 12  1  0  0  0  0
  3 14  1  0  0  0  0
  3 15  1  0  0  0  0
  4  2  1  0  0  0  0
  5 18  1  6  0  0  0
  5  4  1  0  0  0  0
  5  6  1  0  0  0  0
  6 20  1  0  0  0  0
  7  5  1  0  0  0  0
  7  8  2  0  0  0  0
  9  1  1  0  0  0  0
 10  1  1  0  0  0  0
 13  3  1  0  0  0  0
 16  4  1  0  0  0  0
 17  4  1  0  0  0  0
 19  6  1  0  0  0  0
 21 22  1  0  0  0  0
 21 30  1  0  0  0  0
 22 24  1  0  0  0  0
 23 22  2  0  0  0  0
 24 32  1  0  0  0  0
 25 24  1  0  0  0  0
 25 26  1  0  0  0  0
 26 27  1  0  0  0  0
 26 28  1  0  0  0  0
 26 36  1  1  0  0  0
 27  7  1  0  0  0  0
 28 29  2  0  0  0  0
 28 38  1  0  0  0  0
 31 21  1  0  0  0  0
 33 24  1  0  0  0  0
 34 25  1  0  0  0  0
 35 25  1  0  0  0  0
 37 27  1  0  0  0  0
 38 42  1  0  0  0  0
 39 40  1  0  0  0  0
 39 38  1  0  0  0  0
 39 47  1  0  0  0  0
 40 41  1  0  0  0  0
 40 48  1  0  0  0  0
 41 50  1  0  0  0  0
 42 52  1  6  0  0  0
 42 41  1  0  0  0  0
 42 43  1  0  0  0  0
 43 45  2  0  0  0  0
 43 44  1  0  0  0  0
 46 39  1  0  0  0  0
 49 40  1  0  0  0  0
 51 41  1  0  0  0  0
M  END
$$$$
