LQR.pdb
 OpenBabel07022418453D

 61 60  0  0  1  0  0  0  0  0999 V2000
   -1.1160    1.9770   -3.6460 C   0  0  0  0  0  0  0  0  0  0  0  0
    0.0960    1.2550   -4.1390 C   0  0  0  0  0  0  0  0  0  0  0  0
   -0.1380    0.7150   -5.5460 C   0  0  0  0  0  0  0  0  0  0  0  0
    0.6130    0.1570   -3.2930 C   0  0  0  0  0  0  0  0  0  0  0  0
    1.0860    0.4810   -1.9210 C   0  0  2  0  0  0  0  0  0  0  0  0
    1.5320   -0.8080   -1.3140 N   0  0  0  0  0  0  0  0  0  0  0  0
    0.1330    1.0330   -0.9730 C   0  0  0  0  0  0  0  0  0  0  0  0
   -0.1000    2.2610   -0.9370 O   0  0  0  0  0  0  0  0  0  0  0  0
   -1.7050    1.4230   -2.8830 H   0  0  0  0  0  0  0  0  0  0  0  0
   -0.9340    3.0200   -3.3720 H   0  0  0  0  0  0  0  0  0  0  0  0
   -1.8260    2.0280   -4.5350 H   0  0  0  0  0  0  0  0  0  0  0  0
    0.8870    2.0500   -4.2720 H   0  0  0  0  0  0  0  0  0  0  0  0
   -0.3830   -0.3660   -5.4370 H   0  0  0  0  0  0  0  0  0  0  0  0
    0.7960    0.7730   -6.1070 H   0  0  0  0  0  0  0  0  0  0  0  0
   -1.0100    1.2070   -6.0270 H   0  0  0  0  0  0  0  0  0  0  0  0
   -0.0730   -0.7330   -3.3120 H   0  0  0  0  0  0  0  0  0  0  0  0
    1.5290   -0.2500   -3.8360 H   0  0  0  0  0  0  0  0  0  0  0  0
    1.9760    1.1480   -2.0200 H   0  0  0  0  0  0  0  0  0  0  0  0
    2.4280   -1.0750   -1.7280 H   0  0  0  0  0  0  0  0  0  0  0  0
    0.8000   -1.4990   -1.6410 H   0  0  0  0  0  0  0  0  0  0  0  0
   -5.0430   -2.8390    0.9680 N   0  0  0  0  0  0  0  0  0  0  0  0
   -4.6100   -1.4850    0.8650 C   0  0  0  0  0  0  0  0  0  0  0  0
   -5.4830   -0.5960    0.7050 O   0  0  0  0  0  0  0  0  0  0  0  0
   -3.1600   -1.1830    0.9500 C   0  0  0  0  0  0  0  0  0  0  0  0
   -2.9340    0.3030    0.8280 C   0  0  0  0  0  0  0  0  0  0  0  0
   -1.5220    0.7230    0.9050 C   0  0  2  0  0  0  0  0  0  0  0  0
   -0.5920    0.2410   -0.0340 N   0  0  0  0  0  0  0  0  0  0  0  0
   -1.0110    0.4880    2.2700 C   0  0  0  0  0  0  0  0  0  0  0  0
   -1.7010    0.7700    3.2860 O   0  0  0  0  0  0  0  0  0  0  0  0
   -4.4650   -3.5710    0.4870 H   0  0  0  0  0  0  0  0  0  0  0  0
   -5.8980   -3.0800    1.5010 H   0  0  0  0  0  0  0  0  0  0  0  0
   -2.5660   -1.7670    0.2240 H   0  0  0  0  0  0  0  0  0  0  0  0
   -2.8290   -1.4830    1.9630 H   0  0  0  0  0  0  0  0  0  0  0  0
   -3.5080    0.7500   -0.0120 H   0  0  0  0  0  0  0  0  0  0  0  0
   -3.4390    0.7470    1.7430 H   0  0  0  0  0  0  0  0  0  0  0  0
   -1.5540    1.8770    0.8320 H   0  0  0  0  0  0  0  0  0  0  0  0
   -0.4020   -0.7840   -0.0680 H   0  0  0  0  0  0  0  0  0  0  0  0
    0.1200   -5.0760    2.5740 N   0  0  0  0  0  0  0  0  0  0  0  0
    0.7090   -3.9100    2.0270 C   0  0  0  0  0  0  0  0  0  0  0  0
   -0.0490   -2.9930    1.5570 N   0  0  0  0  0  0  0  0  0  0  0  0
    2.0990   -3.7000    1.9690 N   0  0  0  0  0  0  0  0  0  0  0  0
    2.7840   -2.4430    2.1970 C   0  0  0  0  0  0  0  0  0  0  0  0
    2.7150   -1.9610    3.5810 C   0  0  0  0  0  0  0  0  0  0  0  0
    1.4850   -1.5210    4.2250 C   0  0  0  0  0  0  0  0  0  0  0  0
    0.8000   -0.2830    3.8360 C   0  0  2  0  0  0  0  0  0  0  0  0
    0.3050   -0.0730    2.5230 N   0  0  0  0  0  0  0  0  0  0  0  0
    1.6090    0.9340    4.2750 C   0  0  0  0  0  0  0  0  0  0  0  0
    2.1150    0.9240    5.3890 O   0  0  0  0  0  0  0  0  0  0  0  0
    1.7290    1.9680    3.4090 O   0  0  0  0  0  0  0  0  0  0  0  0
   -0.8860   -5.2800    2.4180 H   0  0  0  0  0  0  0  0  0  0  0  0
    0.6570   -5.7620    3.1430 H   0  0  0  0  0  0  0  0  0  0  0  0
   -1.0820   -3.0580    1.5560 H   0  0  0  0  0  0  0  0  0  0  0  0
    2.6720   -4.5800    1.7360 H   0  0  0  0  0  0  0  0  0  0  0  0
    3.8920   -2.6900    2.0140 H   0  0  0  0  0  0  0  0  0  0  0  0
    2.5540   -1.7570    1.3850 H   0  0  0  0  0  0  0  0  0  0  0  0
    3.1060   -2.8330    4.2240 H   0  0  0  0  0  0  0  0  0  0  0  0
    3.5330   -1.1930    3.7850 H   0  0  0  0  0  0  0  0  0  0  0  0
    0.7250   -2.3800    4.2670 H   0  0  0  0  0  0  0  0  0  0  0  0
    1.7330   -1.4330    5.3420 H   0  0  0  0  0  0  0  0  0  0  0  0
   -0.1220   -0.1500    4.5190 H   0  0  0  0  0  0  0  0  0  0  0  0
    0.8250   -0.2870    1.6570 H   0  0  0  0  0  0  0  0  0  0  0  0
  1 10  1  0  0  0  0
  1  9  1  0  0  0  0
  2  1  1  0  0  0  0
  2  4  1  0  0  0  0
  3 13  1  0  0  0  0
  3  2  1  0  0  0  0
  4  5  1  0  0  0  0
  5 18  1  6  0  0  0
  5  6  1  0  0  0  0
  5  7  1  0  0  0  0
  7  8  2  0  0  0  0
  7 27  1  0  0  0  0
 11  1  1  0  0  0  0
 12  2  1  0  0  0  0
 14  3  1  0  0  0  0
 15  3  1  0  0  0  0
 16  4  1  0  0  0  0
 17  4  1  0  0  0  0
 19  6  1  0  0  0  0
 20  6  1  0  0  0  0
 21 31  1  0  0  0  0
 22 24  1  0  0  0  0
 22 21  1  0  0  0  0
 23 22  2  0  0  0  0
 24 33  1  0  0  0  0
 25 26  1  0  0  0  0
 25 24  1  0  0  0  0
 25 35  1  0  0  0  0
 26 36  1  6  0  0  0
 26 28  1  0  0  0  0
 27 26  1  0  0  0  0
 28 46  1  0  0  0  0
 28 29  2  0  0  0  0
 30 21  1  0  0  0  0
 32 24  1  0  0  0  0
 34 25  1  0  0  0  0
 37 27  1  0  0  0  0
 38 51  1  0  0  0  0
 39 38  1  0  0  0  0
 40 39  2  0  0  0  0
 41 39  1  0  0  0  0
 41 42  1  0  0  0  0
 42 43  1  0  0  0  0
 43 57  1  0  0  0  0
 43 56  1  0  0  0  0
 43 44  1  0  0  0  0
 44 58  1  0  0  0  0
 44 59  1  0  0  0  0
 45 44  1  0  0  0  0
 45 47  1  0  0  0  0
 45 60  1  1  0  0  0
 46 45  1  0  0  0  0
 47 48  1  0  0  0  0
 49 47  2  0  0  0  0
 50 38  1  0  0  0  0
 52 40  1  0  0  0  0
 53 41  1  0  0  0  0
 54 42  1  0  0  0  0
 55 42  1  0  0  0  0
 61 46  1  0  0  0  0
M  END
$$$$
