LQV.pdb
 OpenBabel07022418453D

 54 53  0  0  1  0  0  0  0  0999 V2000
    3.0060   -3.7000    0.1700 C   0  0  0  0  0  0  0  0  0  0  0  0
    2.7850   -2.8100    1.3860 C   0  0  0  0  0  0  0  0  0  0  0  0
    1.3900   -3.0690    1.8930 C   0  0  0  0  0  0  0  0  0  0  0  0
    3.0470   -1.3850    1.0180 C   0  0  0  0  0  0  0  0  0  0  0  0
    2.8600   -0.3950    2.1250 C   0  0  2  0  0  0  0  0  0  0  0  0
    3.7030   -0.6590    3.2610 N   0  0  0  0  0  0  0  0  0  0  0  0
    1.4630   -0.1250    2.4990 C   0  0  0  0  0  0  0  0  0  0  0  0
    1.1240   -0.3450    3.6960 O   0  0  0  0  0  0  0  0  0  0  0  0
    2.0450   -3.6890   -0.4080 H   0  0  0  0  0  0  0  0  0  0  0  0
    3.8280   -3.3320   -0.4700 H   0  0  0  0  0  0  0  0  0  0  0  0
    3.1520   -4.7400    0.5150 H   0  0  0  0  0  0  0  0  0  0  0  0
    3.5140   -3.1900    2.1480 H   0  0  0  0  0  0  0  0  0  0  0  0
    1.0920   -4.1070    1.5650 H   0  0  0  0  0  0  0  0  0  0  0  0
    0.7100   -2.3880    1.3640 H   0  0  0  0  0  0  0  0  0  0  0  0
    1.3280   -2.9910    3.0040 H   0  0  0  0  0  0  0  0  0  0  0  0
    4.0530   -1.3210    0.5600 H   0  0  0  0  0  0  0  0  0  0  0  0
    2.3380   -1.1330    0.1770 H   0  0  0  0  0  0  0  0  0  0  0  0
    3.2420    0.5950    1.7110 H   0  0  0  0  0  0  0  0  0  0  0  0
    4.5210   -1.2370    3.0300 H   0  0  0  0  0  0  0  0  0  0  0  0
    3.1920   -0.9240    4.1110 H   0  0  0  0  0  0  0  0  0  0  0  0
   -1.2550    4.0070   -0.9050 N   0  0  0  0  0  0  0  0  0  0  0  0
   -1.6470    3.0800    0.1390 C   0  0  0  0  0  0  0  0  0  0  0  0
   -2.6040    2.3010   -0.0440 O   0  0  0  0  0  0  0  0  0  0  0  0
   -0.8910    3.0940    1.3960 C   0  0  0  0  0  0  0  0  0  0  0  0
   -1.1400    2.0410    2.3810 C   0  0  0  0  0  0  0  0  0  0  0  0
   -0.8880    0.6190    2.0430 C   0  0  2  0  0  0  0  0  0  0  0  0
    0.4750    0.3600    1.6380 N   0  0  0  0  0  0  0  0  0  0  0  0
   -1.8930   -0.1240    1.3020 C   0  0  0  0  0  0  0  0  0  0  0  0
   -3.1280   -0.1360    1.5530 O   0  0  0  0  0  0  0  0  0  0  0  0
   -1.0010    4.9830   -0.7040 H   0  0  0  0  0  0  0  0  0  0  0  0
   -1.2370    3.6520   -1.8840 H   0  0  0  0  0  0  0  0  0  0  0  0
    0.1810    3.2300    1.1100 H   0  0  0  0  0  0  0  0  0  0  0  0
   -1.1940    4.0780    1.8910 H   0  0  0  0  0  0  0  0  0  0  0  0
   -2.2330    2.1290    2.6750 H   0  0  0  0  0  0  0  0  0  0  0  0
   -0.6300    2.2530    3.3700 H   0  0  0  0  0  0  0  0  0  0  0  0
   -0.9250    0.1060    3.0840 H   0  0  0  0  0  0  0  0  0  0  0  0
    0.7660    0.5440    0.6300 H   0  0  0  0  0  0  0  0  0  0  0  0
   -2.7800    0.0450   -2.3420 C   0  0  0  0  0  0  0  0  0  0  0  0
   -2.4550   -1.4020   -2.0570 C   0  0  0  0  0  0  0  0  0  0  0  0
   -1.1600   -1.8090   -2.7200 C   0  0  0  0  0  0  0  0  0  0  0  0
   -2.4520   -1.6810   -0.5830 C   0  0  2  0  0  0  0  0  0  0  0  0
   -1.5100   -0.9290    0.1810 N   0  0  0  0  0  0  0  0  0  0  0  0
   -2.3770   -3.1470   -0.3730 C   0  0  0  0  0  0  0  0  0  0  0  0
   -3.1690   -3.8740   -1.0150 O   0  0  0  0  0  0  0  0  0  0  0  0
   -1.4850   -3.7420    0.4890 O   0  0  0  0  0  0  0  0  0  0  0  0
   -1.9280    0.7240   -2.2780 H   0  0  0  0  0  0  0  0  0  0  0  0
   -3.6230    0.3280   -1.6560 H   0  0  0  0  0  0  0  0  0  0  0  0
   -3.2620    0.0640   -3.3640 H   0  0  0  0  0  0  0  0  0  0  0  0
   -3.3030   -2.0080   -2.4820 H   0  0  0  0  0  0  0  0  0  0  0  0
   -0.5900   -2.5320   -2.1220 H   0  0  0  0  0  0  0  0  0  0  0  0
   -0.6090   -0.8620   -2.9300 H   0  0  0  0  0  0  0  0  0  0  0  0
   -1.4070   -2.3060   -3.6800 H   0  0  0  0  0  0  0  0  0  0  0  0
   -3.4820   -1.4020   -0.2020 H   0  0  0  0  0  0  0  0  0  0  0  0
   -0.4970   -0.9910   -0.1270 H   0  0  0  0  0  0  0  0  0  0  0  0
  1 11  1  0  0  0  0
  1  2  1  0  0  0  0
  2  3  1  0  0  0  0
  2 12  1  0  0  0  0
  3 15  1  0  0  0  0
  4  2  1  0  0  0  0
  4  5  1  0  0  0  0
  5 18  1  6  0  0  0
  5  7  1  0  0  0  0
  5  6  1  0  0  0  0
  6 20  1  0  0  0  0
  7  8  2  0  0  0  0
  9  1  1  0  0  0  0
 10  1  1  0  0  0  0
 13  3  1  0  0  0  0
 14  3  1  0  0  0  0
 16  4  1  0  0  0  0
 17  4  1  0  0  0  0
 19  6  1  0  0  0  0
 21 30  1  0  0  0  0
 21 22  1  0  0  0  0
 22 24  1  0  0  0  0
 23 22  2  0  0  0  0
 24 33  1  0  0  0  0
 24 25  1  0  0  0  0
 25 34  1  0  0  0  0
 25 35  1  0  0  0  0
 26 25  1  0  0  0  0
 26 36  1  1  0  0  0
 27 26  1  0  0  0  0
 27  7  1  0  0  0  0
 28 29  2  0  0  0  0
 28 26  1  0  0  0  0
 31 21  1  0  0  0  0
 32 24  1  0  0  0  0
 37 27  1  0  0  0  0
 38 46  1  0  0  0  0
 38 39  1  0  0  0  0
 38 47  1  0  0  0  0
 39 41  1  0  0  0  0
 40 50  1  0  0  0  0
 40 39  1  0  0  0  0
 41 43  1  0  0  0  0
 41 53  1  1  0  0  0
 41 42  1  0  0  0  0
 42 28  1  0  0  0  0
 43 45  1  0  0  0  0
 44 43  2  0  0  0  0
 48 38  1  0  0  0  0
 49 39  1  0  0  0  0
 51 40  1  0  0  0  0
 52 40  1  0  0  0  0
 54 42  1  0  0  0  0
M  END
$$$$
