LRA.pdb
 OpenBabel07022418443D

 54 53  0  0  1  0  0  0  0  0999 V2000
    1.2140   -4.9800    0.7630 C   0  0  0  0  0  0  0  0  0  0  0  0
    1.0100   -3.7980    1.7350 C   0  0  0  0  0  0  0  0  0  0  0  0
   -0.4740   -3.5510    1.7280 C   0  0  0  0  0  0  0  0  0  0  0  0
    1.8320   -2.6720    1.2390 C   0  0  0  0  0  0  0  0  0  0  0  0
    1.8110   -1.4040    2.0210 C   0  0  2  0  0  0  0  0  0  0  0  0
    2.2650   -1.7380    3.3690 N   0  0  0  0  0  0  0  0  0  0  0  0
    0.5000   -0.7430    2.1060 C   0  0  0  0  0  0  0  0  0  0  0  0
   -0.1610   -0.6660    3.2000 O   0  0  0  0  0  0  0  0  0  0  0  0
    0.5080   -4.8490   -0.0950 H   0  0  0  0  0  0  0  0  0  0  0  0
    2.2370   -4.9240    0.3350 H   0  0  0  0  0  0  0  0  0  0  0  0
    1.0070   -5.9310    1.2750 H   0  0  0  0  0  0  0  0  0  0  0  0
    1.3210   -4.1830    2.7310 H   0  0  0  0  0  0  0  0  0  0  0  0
   -0.8050   -3.2540    2.7450 H   0  0  0  0  0  0  0  0  0  0  0  0
   -0.7210   -2.8200    0.9470 H   0  0  0  0  0  0  0  0  0  0  0  0
   -1.0150   -4.5180    1.4900 H   0  0  0  0  0  0  0  0  0  0  0  0
    2.8960   -3.0280    1.1880 H   0  0  0  0  0  0  0  0  0  0  0  0
    1.5090   -2.4910    0.1660 H   0  0  0  0  0  0  0  0  0  0  0  0
    2.5510   -0.6850    1.5640 H   0  0  0  0  0  0  0  0  0  0  0  0
    3.1140   -2.3350    3.3460 H   0  0  0  0  0  0  0  0  0  0  0  0
    2.4150   -0.8580    3.9280 H   0  0  0  0  0  0  0  0  0  0  0  0
    3.5270    3.1280    2.2140 N   0  0  0  0  0  0  0  0  0  0  0  0
    2.8320    2.9930    0.9900 C   0  0  0  0  0  0  0  0  0  0  0  0
    3.4830    2.8450   -0.1010 N   0  0  0  0  0  0  0  0  0  0  0  0
    1.4150    3.0250    1.0080 N   0  0  0  0  0  0  0  0  0  0  0  0
    0.6470    2.7520   -0.1890 C   0  0  0  0  0  0  0  0  0  0  0  0
   -0.7980    2.8520    0.1050 C   0  0  0  0  0  0  0  0  0  0  0  0
   -1.4090    2.0040    1.1060 C   0  0  0  0  0  0  0  0  0  0  0  0
   -1.4120    0.5250    1.0130 C   0  0  2  0  0  0  0  0  0  0  0  0
   -0.1450   -0.1290    0.9820 N   0  0  0  0  0  0  0  0  0  0  0  0
   -2.3870   -0.0070    0.0240 C   0  0  0  0  0  0  0  0  0  0  0  0
   -3.5500    0.4770    0.0080 O   0  0  0  0  0  0  0  0  0  0  0  0
    3.2570    3.7990    2.9540 H   0  0  0  0  0  0  0  0  0  0  0  0
    4.3670    2.5320    2.4200 H   0  0  0  0  0  0  0  0  0  0  0  0
    3.0670    2.7400   -1.0360 H   0  0  0  0  0  0  0  0  0  0  0  0
    0.9320    3.2490    1.8950 H   0  0  0  0  0  0  0  0  0  0  0  0
    0.8790    3.6430   -0.8650 H   0  0  0  0  0  0  0  0  0  0  0  0
    1.0120    1.9010   -0.7450 H   0  0  0  0  0  0  0  0  0  0  0  0
   -1.4340    2.8600   -0.8360 H   0  0  0  0  0  0  0  0  0  0  0  0
   -0.9540    3.9200    0.4680 H   0  0  0  0  0  0  0  0  0  0  0  0
   -2.4920    2.3120    1.2000 H   0  0  0  0  0  0  0  0  0  0  0  0
   -0.9890    2.2830    2.1200 H   0  0  0  0  0  0  0  0  0  0  0  0
   -1.8600    0.2380    2.0230 H   0  0  0  0  0  0  0  0  0  0  0  0
    0.3740   -0.1910    0.0900 H   0  0  0  0  0  0  0  0  0  0  0  0
   -2.6160   -1.3900   -3.2960 C   0  0  0  0  0  0  0  0  0  0  0  0
   -3.0760   -1.5280   -1.8680 C   0  0  2  0  0  0  0  0  0  0  0  0
   -2.1020   -1.0310   -0.9170 N   0  0  0  0  0  0  0  0  0  0  0  0
   -3.3980   -2.9540   -1.5920 C   0  0  0  0  0  0  0  0  0  0  0  0
   -2.8430   -3.5430   -0.6420 O   0  0  0  0  0  0  0  0  0  0  0  0
   -4.2980   -3.6560   -2.3580 O   0  0  0  0  0  0  0  0  0  0  0  0
   -1.5290   -1.0960   -3.3550 H   0  0  0  0  0  0  0  0  0  0  0  0
   -3.2550   -0.6480   -3.8100 H   0  0  0  0  0  0  0  0  0  0  0  0
   -2.7030   -2.3470   -3.8380 H   0  0  0  0  0  0  0  0  0  0  0  0
   -4.0270   -0.9650   -1.7070 H   0  0  0  0  0  0  0  0  0  0  0  0
   -1.1520   -1.4580   -0.9460 H   0  0  0  0  0  0  0  0  0  0  0  0
  1 11  1  0  0  0  0
  1  2  1  0  0  0  0
  2 12  1  0  0  0  0
  3  2  1  0  0  0  0
  3 13  1  0  0  0  0
  4  2  1  0  0  0  0
  4  5  1  0  0  0  0
  5 18  1  6  0  0  0
  5  7  1  0  0  0  0
  5  6  1  0  0  0  0
  6 20  1  0  0  0  0
  7  8  2  0  0  0  0
  9  1  1  0  0  0  0
 10  1  1  0  0  0  0
 14  3  1  0  0  0  0
 15  3  1  0  0  0  0
 16  4  1  0  0  0  0
 17  4  1  0  0  0  0
 19  6  1  0  0  0  0
 21 33  1  0  0  0  0
 21 32  1  0  0  0  0
 22 24  1  0  0  0  0
 22 21  1  0  0  0  0
 23 22  2  0  0  0  0
 24 35  1  0  0  0  0
 25 26  1  0  0  0  0
 25 24  1  0  0  0  0
 26 39  1  0  0  0  0
 26 27  1  0  0  0  0
 27 40  1  0  0  0  0
 27 41  1  0  0  0  0
 28 27  1  0  0  0  0
 28 42  1  1  0  0  0
 29 28  1  0  0  0  0
 29  7  1  0  0  0  0
 30 28  1  0  0  0  0
 31 30  2  0  0  0  0
 34 23  1  0  0  0  0
 36 25  1  0  0  0  0
 37 25  1  0  0  0  0
 38 26  1  0  0  0  0
 43 29  1  0  0  0  0
 44 45  1  0  0  0  0
 45 53  1  1  0  0  0
 45 47  1  0  0  0  0
 45 46  1  0  0  0  0
 46 30  1  0  0  0  0
 47 48  1  0  0  0  0
 49 47  2  0  0  0  0
 50 44  1  0  0  0  0
 51 44  1  0  0  0  0
 52 44  1  0  0  0  0
 54 46  1  0  0  0  0
M  END
$$$$
