LRE.pdb
 OpenBabel07022418443D

 60 59  0  0  1  0  0  0  0  0999 V2000
    2.6340    1.6520    3.9880 C   0  0  0  0  0  0  0  0  0  0  0  0
    1.2880    2.2960    3.9960 C   0  0  0  0  0  0  0  0  0  0  0  0
    1.3470    3.7560    4.3540 C   0  0  0  0  0  0  0  0  0  0  0  0
    0.3090    1.6080    4.9250 C   0  0  0  0  0  0  0  0  0  0  0  0
    0.0980    0.1590    4.5280 C   0  0  2  0  0  0  0  0  0  0  0  0
    1.3400   -0.5870    4.5720 N   0  0  0  0  0  0  0  0  0  0  0  0
   -0.4820    0.1880    3.1540 C   0  0  0  0  0  0  0  0  0  0  0  0
   -1.5860    0.7550    3.0220 O   0  0  0  0  0  0  0  0  0  0  0  0
    3.3930    2.4580    3.7660 H   0  0  0  0  0  0  0  0  0  0  0  0
    2.8420    1.2130    4.9640 H   0  0  0  0  0  0  0  0  0  0  0  0
    2.7000    0.8250    3.2390 H   0  0  0  0  0  0  0  0  0  0  0  0
    0.8990    2.2440    2.9380 H   0  0  0  0  0  0  0  0  0  0  0  0
    0.4550    4.2440    3.8830 H   0  0  0  0  0  0  0  0  0  0  0  0
    1.3820    3.9280    5.4370 H   0  0  0  0  0  0  0  0  0  0  0  0
    2.2920    4.1620    3.9040 H   0  0  0  0  0  0  0  0  0  0  0  0
    0.6650    1.7390    5.9470 H   0  0  0  0  0  0  0  0  0  0  0  0
   -0.6730    2.1120    4.8310 H   0  0  0  0  0  0  0  0  0  0  0  0
   -0.6670   -0.2600    5.1990 H   0  0  0  0  0  0  0  0  0  0  0  0
    1.1800   -1.4770    4.0520 H   0  0  0  0  0  0  0  0  0  0  0  0
    1.4990   -0.8210    5.5890 H   0  0  0  0  0  0  0  0  0  0  0  0
    3.7250   -1.0190   -2.4260 N   0  0  0  0  0  0  0  0  0  0  0  0
    2.6490   -0.2240   -2.9080 C   0  0  0  0  0  0  0  0  0  0  0  0
    1.9990   -0.5410   -3.9540 N   0  0  0  0  0  0  0  0  0  0  0  0
    2.2750    0.9670   -2.2080 N   0  0  0  0  0  0  0  0  0  0  0  0
    0.9610    1.5520   -2.3060 C   0  0  0  0  0  0  0  0  0  0  0  0
   -0.0510    0.5990   -1.6210 C   0  0  0  0  0  0  0  0  0  0  0  0
    0.4050    0.4900   -0.2090 C   0  0  0  0  0  0  0  0  0  0  0  0
   -0.4370   -0.3460    0.6820 C   0  0  2  0  0  0  0  0  0  0  0  0
    0.1340   -0.3730    2.0330 N   0  0  0  0  0  0  0  0  0  0  0  0
   -0.7230   -1.7210    0.2260 C   0  0  0  0  0  0  0  0  0  0  0  0
   -0.3030   -2.7170    0.9320 O   0  0  0  0  0  0  0  0  0  0  0  0
    4.3950   -0.5880   -1.7620 H   0  0  0  0  0  0  0  0  0  0  0  0
    3.8720   -2.0070   -2.7040 H   0  0  0  0  0  0  0  0  0  0  0  0
    1.2190    0.0560   -4.2860 H   0  0  0  0  0  0  0  0  0  0  0  0
    2.9960    1.4120   -1.6090 H   0  0  0  0  0  0  0  0  0  0  0  0
    0.6460    1.7740   -3.3400 H   0  0  0  0  0  0  0  0  0  0  0  0
    0.9440    2.4780   -1.7020 H   0  0  0  0  0  0  0  0  0  0  0  0
   -1.0820    0.9190   -1.7740 H   0  0  0  0  0  0  0  0  0  0  0  0
    0.1420   -0.3680   -2.1840 H   0  0  0  0  0  0  0  0  0  0  0  0
    1.4350    0.0720   -0.2350 H   0  0  0  0  0  0  0  0  0  0  0  0
    0.3900    1.5220    0.2070 H   0  0  0  0  0  0  0  0  0  0  0  0
   -1.4220    0.1720    0.7930 H   0  0  0  0  0  0  0  0  0  0  0  0
    1.0520   -0.8440    2.1260 H   0  0  0  0  0  0  0  0  0  0  0  0
   -1.4260   -2.1040   -0.9210 N   0  0  0  0  0  0  0  0  0  0  0  0
   -1.6630   -3.5000   -1.2880 C   0  0  1  0  0  0  0  0  0  0  0  0
   -3.1040   -3.8260   -1.2910 C   0  0  0  0  0  0  0  0  0  0  0  0
   -3.3510   -5.2590   -1.6530 C   0  0  0  0  0  0  0  0  0  0  0  0
   -4.8330   -5.5650   -1.6050 C   0  0  0  0  0  0  0  0  0  0  0  0
   -5.6690   -4.6730   -1.2960 O   0  0  0  0  0  0  0  0  0  0  0  0
   -1.0500   -3.7260   -2.6010 C   0  0  0  0  0  0  0  0  0  0  0  0
   -0.5390   -2.7620   -3.2490 O   0  0  0  0  0  0  0  0  0  0  0  0
   -5.3090   -6.8330   -1.8990 O   0  0  0  0  0  0  0  0  0  0  0  0
   -0.9660   -4.9610   -3.2400 O   0  0  0  0  0  0  0  0  0  0  0  0
   -1.8220   -1.3940   -1.5520 H   0  0  0  0  0  0  0  0  0  0  0  0
   -1.1640   -4.1410   -0.5270 H   0  0  0  0  0  0  0  0  0  0  0  0
   -3.6580   -3.2020   -2.0510 H   0  0  0  0  0  0  0  0  0  0  0  0
   -3.5810   -3.6790   -0.2840 H   0  0  0  0  0  0  0  0  0  0  0  0
   -3.0330   -5.5230   -2.7020 H   0  0  0  0  0  0  0  0  0  0  0  0
   -2.8710   -5.9890   -0.9890 H   0  0  0  0  0  0  0  0  0  0  0  0
   -6.2750   -6.9790   -2.2270 H   0  0  0  0  0  0  0  0  0  0  0  0
  1  2  1  0  0  0  0
  1 10  1  0  0  0  0
  2  3  1  0  0  0  0
  2  4  1  0  0  0  0
  3 14  1  0  0  0  0
  4 16  1  0  0  0  0
  5  6  1  0  0  0  0
  5  4  1  0  0  0  0
  5 18  1  1  0  0  0
  6 20  1  0  0  0  0
  7  5  1  0  0  0  0
  8  7  2  0  0  0  0
  9  1  1  0  0  0  0
 11  1  1  0  0  0  0
 12  2  1  0  0  0  0
 13  3  1  0  0  0  0
 15  3  1  0  0  0  0
 17  4  1  0  0  0  0
 19  6  1  0  0  0  0
 21 32  1  0  0  0  0
 22 21  1  0  0  0  0
 22 24  1  0  0  0  0
 23 22  2  0  0  0  0
 24 35  1  0  0  0  0
 25 24  1  0  0  0  0
 25 37  1  0  0  0  0
 25 26  1  0  0  0  0
 26 27  1  0  0  0  0
 27 41  1  0  0  0  0
 27 28  1  0  0  0  0
 28 42  1  1  0  0  0
 28 29  1  0  0  0  0
 29 43  1  0  0  0  0
 29  7  1  0  0  0  0
 30 28  1  0  0  0  0
 30 31  2  0  0  0  0
 33 21  1  0  0  0  0
 34 23  1  0  0  0  0
 36 25  1  0  0  0  0
 38 26  1  0  0  0  0
 39 26  1  0  0  0  0
 40 27  1  0  0  0  0
 44 30  1  0  0  0  0
 45 44  1  0  0  0  0
 45 55  1  1  0  0  0
 46 45  1  0  0  0  0
 46 57  1  0  0  0  0
 47 48  1  0  0  0  0
 47 46  1  0  0  0  0
 47 59  1  0  0  0  0
 48 49  2  0  0  0  0
 50 45  1  0  0  0  0
 51 50  2  0  0  0  0
 52 48  1  0  0  0  0
 53 50  1  0  0  0  0
 54 44  1  0  0  0  0
 56 46  1  0  0  0  0
 58 47  1  0  0  0  0
 60 52  1  0  0  0  0
M  END
$$$$
