LRG.pdb
 OpenBabel07022418443D

 51 50  0  0  1  0  0  0  0  0999 V2000
    0.0550   -4.7370    0.2060 C   0  0  0  0  0  0  0  0  0  0  0  0
   -0.0850   -3.7170    1.3150 C   0  0  0  0  0  0  0  0  0  0  0  0
   -0.1640   -4.4740    2.6180 C   0  0  0  0  0  0  0  0  0  0  0  0
    1.0830   -2.7820    1.2380 C   0  0  0  0  0  0  0  0  0  0  0  0
    1.0500   -1.7140    2.3070 C   0  0  2  0  0  0  0  0  0  0  0  0
    1.0650   -2.2530    3.6320 N   0  0  0  0  0  0  0  0  0  0  0  0
   -0.1150   -0.8040    2.1660 C   0  0  0  0  0  0  0  0  0  0  0  0
   -0.9110   -0.6230    3.1250 O   0  0  0  0  0  0  0  0  0  0  0  0
   -0.9590   -5.1020   -0.0800 H   0  0  0  0  0  0  0  0  0  0  0  0
    0.6170   -4.3320   -0.6600 H   0  0  0  0  0  0  0  0  0  0  0  0
    0.6110   -5.6100    0.6400 H   0  0  0  0  0  0  0  0  0  0  0  0
   -1.0260   -3.1550    1.1260 H   0  0  0  0  0  0  0  0  0  0  0  0
   -0.7280   -5.4140    2.4530 H   0  0  0  0  0  0  0  0  0  0  0  0
    0.8080   -4.7210    3.0400 H   0  0  0  0  0  0  0  0  0  0  0  0
   -0.8010   -3.8660    3.3120 H   0  0  0  0  0  0  0  0  0  0  0  0
    1.0620   -2.3130    0.2330 H   0  0  0  0  0  0  0  0  0  0  0  0
    2.0190   -3.3510    1.3020 H   0  0  0  0  0  0  0  0  0  0  0  0
    1.9660   -1.0960    2.1810 H   0  0  0  0  0  0  0  0  0  0  0  0
    0.5210   -1.7250    4.3250 H   0  0  0  0  0  0  0  0  0  0  0  0
    1.9690   -2.6210    3.9430 H   0  0  0  0  0  0  0  0  0  0  0  0
    3.7880    2.9320    1.8500 N   0  0  0  0  0  0  0  0  0  0  0  0
    3.0030    2.5220    0.7530 C   0  0  0  0  0  0  0  0  0  0  0  0
    3.5000    1.8880   -0.2680 N   0  0  0  0  0  0  0  0  0  0  0  0
    1.5900    2.7800    0.6910 N   0  0  0  0  0  0  0  0  0  0  0  0
    0.8330    2.4730   -0.5120 C   0  0  0  0  0  0  0  0  0  0  0  0
   -0.5870    2.8400   -0.2900 C   0  0  0  0  0  0  0  0  0  0  0  0
   -1.3270    2.2240    0.8160 C   0  0  0  0  0  0  0  0  0  0  0  0
   -1.5340    0.7690    0.8870 C   0  0  2  0  0  0  0  0  0  0  0  0
   -0.4080   -0.0870    0.9630 N   0  0  0  0  0  0  0  0  0  0  0  0
   -2.4790    0.3340   -0.2050 C   0  0  0  0  0  0  0  0  0  0  0  0
   -3.5330    0.9190   -0.4600 O   0  0  0  0  0  0  0  0  0  0  0  0
    4.2040    2.2300    2.4800 H   0  0  0  0  0  0  0  0  0  0  0  0
    3.9460    3.9360    2.0210 H   0  0  0  0  0  0  0  0  0  0  0  0
    4.5320    1.6890   -0.2430 H   0  0  0  0  0  0  0  0  0  0  0  0
    1.1630    3.1920    1.5490 H   0  0  0  0  0  0  0  0  0  0  0  0
    1.0560    1.5270   -0.9800 H   0  0  0  0  0  0  0  0  0  0  0  0
    1.2120    3.2430   -1.2830 H   0  0  0  0  0  0  0  0  0  0  0  0
   -0.5720    3.9590   -0.0660 H   0  0  0  0  0  0  0  0  0  0  0  0
   -1.1610    2.8280   -1.2700 H   0  0  0  0  0  0  0  0  0  0  0  0
   -0.9390    2.6220    1.7890 H   0  0  0  0  0  0  0  0  0  0  0  0
   -2.3740    2.6780    0.7800 H   0  0  0  0  0  0  0  0  0  0  0  0
   -2.1830    0.6280    1.8270 H   0  0  0  0  0  0  0  0  0  0  0  0
    0.2370   -0.2490    0.1770 H   0  0  0  0  0  0  0  0  0  0  0  0
   -2.1240   -0.8110   -0.9700 N   0  0  0  0  0  0  0  0  0  0  0  0
   -3.0080   -1.2580   -2.0290 C   0  0  0  0  0  0  0  0  0  0  0  0
   -2.3960   -2.4540   -2.6540 C   0  0  0  0  0  0  0  0  0  0  0  0
   -2.9750   -3.0500   -3.6170 O   0  0  0  0  0  0  0  0  0  0  0  0
   -1.1840   -2.9570   -2.2130 O   0  0  0  0  0  0  0  0  0  0  0  0
   -1.2310   -1.3090   -0.7560 H   0  0  0  0  0  0  0  0  0  0  0  0
   -3.9920   -1.5510   -1.6020 H   0  0  0  0  0  0  0  0  0  0  0  0
   -3.1660   -0.4640   -2.7960 H   0  0  0  0  0  0  0  0  0  0  0  0
  1 11  1  0  0  0  0
  1  2  1  0  0  0  0
  2  3  1  0  0  0  0
  3 14  1  0  0  0  0
  3 15  1  0  0  0  0
  4 17  1  0  0  0  0
  4  2  1  0  0  0  0
  4  5  1  0  0  0  0
  5 18  1  6  0  0  0
  5  6  1  0  0  0  0
  6 20  1  0  0  0  0
  6 19  1  0  0  0  0
  7  5  1  0  0  0  0
  7  8  2  0  0  0  0
  9  1  1  0  0  0  0
 10  1  1  0  0  0  0
 12  2  1  0  0  0  0
 13  3  1  0  0  0  0
 16  4  1  0  0  0  0
 21 33  1  0  0  0  0
 21 32  1  0  0  0  0
 22 21  1  0  0  0  0
 23 34  1  0  0  0  0
 23 22  2  0  0  0  0
 24 22  1  0  0  0  0
 24 35  1  0  0  0  0
 25 26  1  0  0  0  0
 25 24  1  0  0  0  0
 26 38  1  0  0  0  0
 26 27  1  0  0  0  0
 27 28  1  0  0  0  0
 27 40  1  0  0  0  0
 28 29  1  0  0  0  0
 28 42  1  1  0  0  0
 29  7  1  0  0  0  0
 30 28  1  0  0  0  0
 31 30  2  0  0  0  0
 36 25  1  0  0  0  0
 37 25  1  0  0  0  0
 39 26  1  0  0  0  0
 41 27  1  0  0  0  0
 43 29  1  0  0  0  0
 44 49  1  0  0  0  0
 44 30  1  0  0  0  0
 45 50  1  0  0  0  0
 45 44  1  0  0  0  0
 46 48  1  0  0  0  0
 46 45  1  0  0  0  0
 47 46  2  0  0  0  0
 51 45  1  0  0  0  0
M  END
$$$$
