LRH.pdb
 OpenBabel07022418443D

 61 61  0  0  1  0  0  0  0  0999 V2000
    2.3090   -2.7260    1.0810 C   0  0  0  0  0  0  0  0  0  0  0  0
    3.6140   -2.1590    0.6770 C   0  0  0  0  0  0  0  0  0  0  0  0
    3.9780   -2.7900   -0.6850 C   0  0  0  0  0  0  0  0  0  0  0  0
    3.8000   -0.7060    0.6590 C   0  0  0  0  0  0  0  0  0  0  0  0
    2.9390    0.1270   -0.2490 C   0  0  2  0  0  0  0  0  0  0  0  0
    3.4100    1.5420   -0.0440 N   0  0  0  0  0  0  0  0  0  0  0  0
    1.5500    0.1680    0.2580 C   0  0  0  0  0  0  0  0  0  0  0  0
    1.2640    0.9750    1.1930 O   0  0  0  0  0  0  0  0  0  0  0  0
    1.6650   -2.1260    1.7140 H   0  0  0  0  0  0  0  0  0  0  0  0
    1.7100   -3.0820    0.2020 H   0  0  0  0  0  0  0  0  0  0  0  0
    2.4560   -3.6930    1.6770 H   0  0  0  0  0  0  0  0  0  0  0  0
    4.3900   -2.6240    1.3680 H   0  0  0  0  0  0  0  0  0  0  0  0
    4.9760   -2.4620   -1.0210 H   0  0  0  0  0  0  0  0  0  0  0  0
    3.1800   -2.5660   -1.4130 H   0  0  0  0  0  0  0  0  0  0  0  0
    4.0040   -3.8820   -0.5070 H   0  0  0  0  0  0  0  0  0  0  0  0
    3.7930   -0.2310    1.6730 H   0  0  0  0  0  0  0  0  0  0  0  0
    4.8630   -0.5120    0.2920 H   0  0  0  0  0  0  0  0  0  0  0  0
    3.0270   -0.1170   -1.3060 H   0  0  0  0  0  0  0  0  0  0  0  0
    3.4820    1.9870   -1.0090 H   0  0  0  0  0  0  0  0  0  0  0  0
    4.3330    1.5490    0.4180 H   0  0  0  0  0  0  0  0  0  0  0  0
    0.9250    4.8430   -2.5080 N   0  0  0  0  0  0  0  0  0  0  0  0
   -0.0300    3.8230   -2.7490 C   0  0  0  0  0  0  0  0  0  0  0  0
    0.2240    2.9190   -3.6250 N   0  0  0  0  0  0  0  0  0  0  0  0
   -1.2640    3.7620   -2.0560 N   0  0  0  0  0  0  0  0  0  0  0  0
   -1.9450    2.5070   -1.8480 C   0  0  0  0  0  0  0  0  0  0  0  0
   -1.1000    1.6980   -0.8880 C   0  0  0  0  0  0  0  0  0  0  0  0
   -1.7340    0.3500   -0.6010 C   0  0  0  0  0  0  0  0  0  0  0  0
   -0.8320   -0.4390    0.3820 C   0  0  2  0  0  0  0  0  0  0  0  0
    0.4730   -0.6260   -0.2220 N   0  0  0  0  0  0  0  0  0  0  0  0
   -1.4510   -1.7590    0.6020 C   0  0  0  0  0  0  0  0  0  0  0  0
   -0.9550   -2.8670    0.2890 O   0  0  0  0  0  0  0  0  0  0  0  0
    1.5910    5.1100   -3.2550 H   0  0  0  0  0  0  0  0  0  0  0  0
    0.9790    5.3370   -1.5980 H   0  0  0  0  0  0  0  0  0  0  0  0
   -0.3660    2.1320   -3.8990 H   0  0  0  0  0  0  0  0  0  0  0  0
   -1.6950    4.6300   -1.6870 H   0  0  0  0  0  0  0  0  0  0  0  0
   -2.9680    2.6800   -1.4530 H   0  0  0  0  0  0  0  0  0  0  0  0
   -2.0680    1.9440   -2.8080 H   0  0  0  0  0  0  0  0  0  0  0  0
   -0.9430    2.2870    0.0280 H   0  0  0  0  0  0  0  0  0  0  0  0
   -0.1300    1.4980   -1.4200 H   0  0  0  0  0  0  0  0  0  0  0  0
   -1.7490   -0.2560   -1.5260 H   0  0  0  0  0  0  0  0  0  0  0  0
   -2.7420    0.4680   -0.1600 H   0  0  0  0  0  0  0  0  0  0  0  0
   -0.8010    0.2000    1.2700 H   0  0  0  0  0  0  0  0  0  0  0  0
    0.6540   -1.3060   -0.9860 H   0  0  0  0  0  0  0  0  0  0  0  0
   -2.7530   -1.8420    1.2350 N   0  0  0  0  0  0  0  0  0  0  0  0
   -3.3940   -3.1200    1.4660 C   0  0  1  0  0  0  0  0  0  0  0  0
   -3.7540   -3.3030    2.9300 C   0  0  0  0  0  0  0  0  0  0  0  0
   -2.5890   -3.2530    3.8220 C   0  0  0  0  0  0  0  0  0  0  0  0
   -1.7990   -4.3040    4.2220 C   0  0  0  0  0  0  0  0  0  0  0  0
   -0.8570   -3.7920    5.0290 N   0  0  0  0  0  0  0  0  0  0  0  0
   -1.0380   -2.4610    5.1420 C   0  0  0  0  0  0  0  0  0  0  0  0
   -2.0950   -2.1500    4.4010 N   0  0  0  0  0  0  0  0  0  0  0  0
   -4.6810   -3.1180    0.7050 C   0  0  0  0  0  0  0  0  0  0  0  0
   -5.4320   -4.1270    0.7320 O   0  0  0  0  0  0  0  0  0  0  0  0
   -5.0870   -2.0160   -0.0460 O   0  0  0  0  0  0  0  0  0  0  0  0
   -3.1850   -0.9330    1.5050 H   0  0  0  0  0  0  0  0  0  0  0  0
   -2.7670   -3.9480    1.0920 H   0  0  0  0  0  0  0  0  0  0  0  0
   -4.2620   -4.2740    3.0990 H   0  0  0  0  0  0  0  0  0  0  0  0
   -4.5080   -2.5210    3.1730 H   0  0  0  0  0  0  0  0  0  0  0  0
   -1.8800   -5.3600    3.9620 H   0  0  0  0  0  0  0  0  0  0  0  0
   -0.0740   -4.2970    5.5270 H   0  0  0  0  0  0  0  0  0  0  0  0
   -0.4180   -1.7780    5.7380 H   0  0  0  0  0  0  0  0  0  0  0  0
  1 11  1  0  0  0  0
  1  9  1  0  0  0  0
  2  1  1  0  0  0  0
  2 12  1  0  0  0  0
  3 15  1  0  0  0  0
  3  2  1  0  0  0  0
  4  2  1  0  0  0  0
  4 16  1  0  0  0  0
  5 18  1  6  0  0  0
  5  6  1  0  0  0  0
  5  7  1  0  0  0  0
  5  4  1  0  0  0  0
  6 20  1  0  0  0  0
  7  8  2  0  0  0  0
 10  1  1  0  0  0  0
 13  3  1  0  0  0  0
 14  3  1  0  0  0  0
 17  4  1  0  0  0  0
 19  6  1  0  0  0  0
 21 33  1  0  0  0  0
 22 21  1  0  0  0  0
 22 24  1  0  0  0  0
 23 22  2  0  0  0  0
 24 25  1  0  0  0  0
 24 35  1  0  0  0  0
 25 36  1  0  0  0  0
 25 26  1  0  0  0  0
 26 27  1  0  0  0  0
 26 38  1  0  0  0  0
 27 41  1  0  0  0  0
 27 28  1  0  0  0  0
 28 30  1  0  0  0  0
 28 42  1  1  0  0  0
 29  7  1  0  0  0  0
 29 28  1  0  0  0  0
 30 44  1  0  0  0  0
 31 30  2  0  0  0  0
 32 21  1  0  0  0  0
 34 23  1  0  0  0  0
 37 25  1  0  0  0  0
 39 26  1  0  0  0  0
 40 27  1  0  0  0  0
 43 29  1  0  0  0  0
 44 45  1  0  0  0  0
 44 55  1  0  0  0  0
 45 56  1  6  0  0  0
 45 46  1  0  0  0  0
 46 57  1  0  0  0  0
 46 58  1  0  0  0  0
 46 47  1  0  0  0  0
 47 48  2  0  0  0  0
 47 51  1  0  0  0  0
 48 49  1  0  0  0  0
 49 50  1  0  0  0  0
 49 60  1  0  0  0  0
 50 61  1  0  0  0  0
 51 50  2  0  0  0  0
 52 53  1  0  0  0  0
 52 45  1  0  0  0  0
 54 52  2  0  0  0  0
 59 48  1  0  0  0  0
M  END
$$$$
