LRI.pdb
 OpenBabel07022418443D

 63 62  0  0  1  0  0  0  0  0999 V2000
    1.8870    2.0630    4.8450 C   0  0  0  0  0  0  0  0  0  0  0  0
    1.5610    1.2950    3.5620 C   0  0  0  0  0  0  0  0  0  0  0  0
    2.0370    2.1390    2.4220 C   0  0  0  0  0  0  0  0  0  0  0  0
    2.2250   -0.0370    3.6550 C   0  0  0  0  0  0  0  0  0  0  0  0
    2.0040   -0.9260    2.4630 C   0  0  2  0  0  0  0  0  0  0  0  0
    2.5100   -0.2950    1.2860 N   0  0  0  0  0  0  0  0  0  0  0  0
    0.5630   -1.2610    2.3900 C   0  0  0  0  0  0  0  0  0  0  0  0
    0.0440   -1.7830    3.4100 O   0  0  0  0  0  0  0  0  0  0  0  0
    2.1170    3.1300    4.6320 H   0  0  0  0  0  0  0  0  0  0  0  0
    2.7660    1.6220    5.3670 H   0  0  0  0  0  0  0  0  0  0  0  0
    0.9680    2.0550    5.4840 H   0  0  0  0  0  0  0  0  0  0  0  0
    0.4800    1.1370    3.4660 H   0  0  0  0  0  0  0  0  0  0  0  0
    3.1560    2.1380    2.3300 H   0  0  0  0  0  0  0  0  0  0  0  0
    1.7820    3.2060    2.6890 H   0  0  0  0  0  0  0  0  0  0  0  0
    1.5400    1.9430    1.4640 H   0  0  0  0  0  0  0  0  0  0  0  0
    1.7650   -0.5700    4.5310 H   0  0  0  0  0  0  0  0  0  0  0  0
    3.3150    0.0200    3.8560 H   0  0  0  0  0  0  0  0  0  0  0  0
    2.5290   -1.8870    2.6560 H   0  0  0  0  0  0  0  0  0  0  0  0
    3.5590   -0.4030    1.3010 H   0  0  0  0  0  0  0  0  0  0  0  0
    2.1930   -0.7310    0.3910 H   0  0  0  0  0  0  0  0  0  0  0  0
   -0.9770    2.8440   -1.4840 N   0  0  0  0  0  0  0  0  0  0  0  0
   -1.6300    3.0750   -0.2520 C   0  0  0  0  0  0  0  0  0  0  0  0
   -1.1150    3.8750    0.6450 N   0  0  0  0  0  0  0  0  0  0  0  0
   -2.8630    2.4560    0.0660 N   0  0  0  0  0  0  0  0  0  0  0  0
   -3.1830    2.0700    1.4220 C   0  0  0  0  0  0  0  0  0  0  0  0
   -2.2870    0.9300    1.8710 C   0  0  0  0  0  0  0  0  0  0  0  0
   -2.5210   -0.2500    0.9260 C   0  0  0  0  0  0  0  0  0  0  0  0
   -1.6610   -1.4130    1.3220 C   0  0  2  0  0  0  0  0  0  0  0  0
   -0.2560   -1.0360    1.2630 N   0  0  0  0  0  0  0  0  0  0  0  0
   -1.9020   -2.5070    0.3400 C   0  0  0  0  0  0  0  0  0  0  0  0
   -3.0550   -2.9840    0.2130 O   0  0  0  0  0  0  0  0  0  0  0  0
    0.0390    3.1010   -1.5910 H   0  0  0  0  0  0  0  0  0  0  0  0
   -1.5040    2.4230   -2.2760 H   0  0  0  0  0  0  0  0  0  0  0  0
   -0.2080    4.3490    0.4450 H   0  0  0  0  0  0  0  0  0  0  0  0
   -3.5420    2.2820   -0.7160 H   0  0  0  0  0  0  0  0  0  0  0  0
   -4.2380    1.7370    1.4470 H   0  0  0  0  0  0  0  0  0  0  0  0
   -3.0330    2.9510    2.0690 H   0  0  0  0  0  0  0  0  0  0  0  0
   -1.2190    1.2220    1.7800 H   0  0  0  0  0  0  0  0  0  0  0  0
   -2.5000    0.6470    2.9120 H   0  0  0  0  0  0  0  0  0  0  0  0
   -3.5890   -0.5410    0.9650 H   0  0  0  0  0  0  0  0  0  0  0  0
   -2.2590    0.0500   -0.0990 H   0  0  0  0  0  0  0  0  0  0  0  0
   -1.9260   -1.8130    2.3060 H   0  0  0  0  0  0  0  0  0  0  0  0
    0.1530   -0.6120    0.4240 H   0  0  0  0  0  0  0  0  0  0  0  0
    1.1780   -2.8420   -4.2710 C   0  0  0  0  0  0  0  0  0  0  0  0
    0.8190   -3.2180   -2.8520 C   0  0  0  0  0  0  0  0  0  0  0  0
   -0.6380   -3.6290   -2.8320 C   0  0  2  0  0  0  0  0  0  0  0  0
   -1.5080   -2.4970   -3.2930 C   0  0  0  0  0  0  0  0  0  0  0  0
   -1.0420   -4.0920   -1.4310 C   0  0  2  0  0  0  0  0  0  0  0  0
   -0.8560   -3.0330   -0.4680 N   0  0  0  0  0  0  0  0  0  0  0  0
   -0.2220   -5.2910   -1.0800 C   0  0  0  0  0  0  0  0  0  0  0  0
   -0.2650   -6.2980   -1.8050 O   0  0  0  0  0  0  0  0  0  0  0  0
    0.5950   -5.3100    0.0480 O   0  0  0  0  0  0  0  0  0  0  0  0
    0.4770   -2.0600   -4.6030 H   0  0  0  0  0  0  0  0  0  0  0  0
    1.0990   -3.6980   -4.9530 H   0  0  0  0  0  0  0  0  0  0  0  0
    2.2280   -2.4640   -4.3290 H   0  0  0  0  0  0  0  0  0  0  0  0
    1.3980   -4.1260   -2.5520 H   0  0  0  0  0  0  0  0  0  0  0  0
    1.0480   -2.4200   -2.1440 H   0  0  0  0  0  0  0  0  0  0  0  0
   -0.7500   -4.4650   -3.5510 H   0  0  0  0  0  0  0  0  0  0  0  0
   -2.5660   -2.6680   -2.9500 H   0  0  0  0  0  0  0  0  0  0  0  0
   -1.1840   -1.5040   -2.9630 H   0  0  0  0  0  0  0  0  0  0  0  0
   -1.5310   -2.4790   -4.4130 H   0  0  0  0  0  0  0  0  0  0  0  0
   -2.0890   -4.4480   -1.4860 H   0  0  0  0  0  0  0  0  0  0  0  0
    0.0890   -2.6350   -0.3580 H   0  0  0  0  0  0  0  0  0  0  0  0
  1 10  1  0  0  0  0
  1 11  1  0  0  0  0
  2  4  1  0  0  0  0
  2  1  1  0  0  0  0
  3 14  1  0  0  0  0
  3  2  1  0  0  0  0
  4 17  1  0  0  0  0
  4 16  1  0  0  0  0
  5 18  1  1  0  0  0
  5  4  1  0  0  0  0
  6 19  1  0  0  0  0
  6  5  1  0  0  0  0
  7  5  1  0  0  0  0
  7  8  2  0  0  0  0
  9  1  1  0  0  0  0
 12  2  1  0  0  0  0
 13  3  1  0  0  0  0
 15  3  1  0  0  0  0
 20  6  1  0  0  0  0
 21 22  1  0  0  0  0
 22 24  1  0  0  0  0
 22 23  2  0  0  0  0
 24 25  1  0  0  0  0
 25 36  1  0  0  0  0
 25 26  1  0  0  0  0
 25 37  1  0  0  0  0
 26 39  1  0  0  0  0
 27 40  1  0  0  0  0
 27 28  1  0  0  0  0
 27 26  1  0  0  0  0
 28 42  1  1  0  0  0
 29 28  1  0  0  0  0
 29  7  1  0  0  0  0
 30 28  1  0  0  0  0
 31 30  2  0  0  0  0
 32 21  1  0  0  0  0
 33 21  1  0  0  0  0
 34 23  1  0  0  0  0
 35 24  1  0  0  0  0
 38 26  1  0  0  0  0
 41 27  1  0  0  0  0
 43 29  1  0  0  0  0
 44 45  1  0  0  0  0
 45 46  1  0  0  0  0
 45 56  1  0  0  0  0
 45 57  1  0  0  0  0
 46 58  1  6  0  0  0
 46 48  1  0  0  0  0
 47 60  1  0  0  0  0
 47 59  1  0  0  0  0
 47 46  1  0  0  0  0
 48 62  1  6  0  0  0
 48 50  1  0  0  0  0
 48 49  1  0  0  0  0
 49 63  1  0  0  0  0
 49 30  1  0  0  0  0
 50 52  1  0  0  0  0
 51 50  2  0  0  0  0
 53 44  1  0  0  0  0
 54 44  1  0  0  0  0
 55 44  1  0  0  0  0
 61 47  1  0  0  0  0
M  END
$$$$
