LRK.pdb
 OpenBabel07022418443D

 65 64  0  0  1  0  0  0  0  0999 V2000
    0.8420    1.0140    4.7190 C   0  0  0  0  0  0  0  0  0  0  0  0
    0.9570   -0.2510    5.5010 C   0  0  0  0  0  0  0  0  0  0  0  0
    1.0350    0.1030    6.9940 C   0  0  0  0  0  0  0  0  0  0  0  0
   -0.1040   -1.2560    5.2900 C   0  0  0  0  0  0  0  0  0  0  0  0
   -0.2970   -1.8160    3.9370 C   0  0  2  0  0  0  0  0  0  0  0  0
    0.9600   -2.4440    3.5130 N   0  0  0  0  0  0  0  0  0  0  0  0
   -0.8870   -0.9800    2.9070 C   0  0  0  0  0  0  0  0  0  0  0  0
   -2.0090   -0.4250    3.1570 O   0  0  0  0  0  0  0  0  0  0  0  0
    0.6510    1.8770    5.4260 H   0  0  0  0  0  0  0  0  0  0  0  0
    0.0550    1.0190    3.9690 H   0  0  0  0  0  0  0  0  0  0  0  0
    1.8350    1.2620    4.2260 H   0  0  0  0  0  0  0  0  0  0  0  0
    1.9380   -0.7490    5.2830 H   0  0  0  0  0  0  0  0  0  0  0  0
    1.9310    0.7720    7.1340 H   0  0  0  0  0  0  0  0  0  0  0  0
    0.1280    0.6300    7.3200 H   0  0  0  0  0  0  0  0  0  0  0  0
    1.2390   -0.8350    7.5510 H   0  0  0  0  0  0  0  0  0  0  0  0
    0.0720   -2.0970    6.0360 H   0  0  0  0  0  0  0  0  0  0  0  0
   -1.0660   -0.7940    5.6820 H   0  0  0  0  0  0  0  0  0  0  0  0
   -0.9660   -2.7510    4.1120 H   0  0  0  0  0  0  0  0  0  0  0  0
    1.4520   -2.8420    4.3360 H   0  0  0  0  0  0  0  0  0  0  0  0
    0.7270   -3.2080    2.8450 H   0  0  0  0  0  0  0  0  0  0  0  0
   -0.0900    3.8320   -2.4620 N   0  0  0  0  0  0  0  0  0  0  0  0
    1.0480    3.2450   -1.7950 C   0  0  0  0  0  0  0  0  0  0  0  0
    1.7300    2.3840   -2.2980 N   0  0  0  0  0  0  0  0  0  0  0  0
    1.4020    3.7070   -0.4710 N   0  0  0  0  0  0  0  0  0  0  0  0
    1.7820    2.7910    0.5380 C   0  0  0  0  0  0  0  0  0  0  0  0
    0.7420    1.9010    1.1120 C   0  0  0  0  0  0  0  0  0  0  0  0
    0.1300    1.0370    0.0720 C   0  0  0  0  0  0  0  0  0  0  0  0
   -0.9490    0.1140    0.6280 C   0  0  2  0  0  0  0  0  0  0  0  0
   -0.3290   -0.7210    1.6310 N   0  0  0  0  0  0  0  0  0  0  0  0
   -1.4850   -0.7430   -0.4990 C   0  0  0  0  0  0  0  0  0  0  0  0
   -2.0630   -0.1690   -1.4480 O   0  0  0  0  0  0  0  0  0  0  0  0
   -0.3710    3.4310   -3.3710 H   0  0  0  0  0  0  0  0  0  0  0  0
   -0.6260    4.6230   -2.0790 H   0  0  0  0  0  0  0  0  0  0  0  0
    2.1350    1.7240   -2.8600 H   0  0  0  0  0  0  0  0  0  0  0  0
    1.3500    4.7620   -0.3150 H   0  0  0  0  0  0  0  0  0  0  0  0
    2.7080    2.2010    0.2460 H   0  0  0  0  0  0  0  0  0  0  0  0
    2.1770    3.4080    1.4070 H   0  0  0  0  0  0  0  0  0  0  0  0
   -0.0030    2.4630    1.7140 H   0  0  0  0  0  0  0  0  0  0  0  0
    1.1950    1.1890    1.8750 H   0  0  0  0  0  0  0  0  0  0  0  0
   -0.4120    1.6760   -0.6600 H   0  0  0  0  0  0  0  0  0  0  0  0
    0.8780    0.4600   -0.5080 H   0  0  0  0  0  0  0  0  0  0  0  0
   -1.8090    0.6370    1.0410 H   0  0  0  0  0  0  0  0  0  0  0  0
    0.5810   -1.1590    1.4010 H   0  0  0  0  0  0  0  0  0  0  0  0
   -1.3480   -2.1530   -0.5030 N   0  0  0  0  0  0  0  0  0  0  0  0
   -1.8460   -3.0030   -1.5610 C   0  0  1  0  0  0  0  0  0  0  0  0
   -0.6980   -3.7760   -2.1440 C   0  0  0  0  0  0  0  0  0  0  0  0
    0.3910   -2.9530   -2.7370 C   0  0  0  0  0  0  0  0  0  0  0  0
   -0.0460   -2.0750   -3.8650 C   0  0  0  0  0  0  0  0  0  0  0  0
   -0.6290   -2.8470   -5.0220 C   0  0  0  0  0  0  0  0  0  0  0  0
   -1.0220   -1.9170   -6.0630 N   0  0  0  0  0  0  0  0  0  0  0  0
   -2.8040   -4.0240   -1.0190 C   0  0  0  0  0  0  0  0  0  0  0  0
   -3.3620   -4.8690   -1.7530 O   0  0  0  0  0  0  0  0  0  0  0  0
   -3.0830   -4.0350    0.3330 O   0  0  0  0  0  0  0  0  0  0  0  0
   -0.8550   -2.5610    0.3220 H   0  0  0  0  0  0  0  0  0  0  0  0
   -2.3260   -2.4290   -2.3730 H   0  0  0  0  0  0  0  0  0  0  0  0
   -0.2330   -4.3310   -1.2740 H   0  0  0  0  0  0  0  0  0  0  0  0
   -1.0510   -4.5910   -2.8340 H   0  0  0  0  0  0  0  0  0  0  0  0
    1.2040   -3.6250   -3.0380 H   0  0  0  0  0  0  0  0  0  0  0  0
    0.8010   -2.3000   -1.9370 H   0  0  0  0  0  0  0  0  0  0  0  0
    0.8560   -1.5560   -4.2660 H   0  0  0  0  0  0  0  0  0  0  0  0
   -0.7630   -1.3150   -3.5660 H   0  0  0  0  0  0  0  0  0  0  0  0
    0.0920   -3.5560   -5.4740 H   0  0  0  0  0  0  0  0  0  0  0  0
   -1.5150   -3.4420   -4.7300 H   0  0  0  0  0  0  0  0  0  0  0  0
   -1.3900   -1.0190   -5.6300 H   0  0  0  0  0  0  0  0  0  0  0  0
   -1.8310   -2.2930   -6.6210 H   0  0  0  0  0  0  0  0  0  0  0  0
  1  9  1  0  0  0  0
  1  2  1  0  0  0  0
  2  3  1  0  0  0  0
  3 13  1  0  0  0  0
  3 14  1  0  0  0  0
  3 15  1  0  0  0  0
  4  2  1  0  0  0  0
  4 17  1  0  0  0  0
  4 16  1  0  0  0  0
  5 18  1  1  0  0  0
  5  4  1  0  0  0  0
  6  5  1  0  0  0  0
  6 19  1  0  0  0  0
  7  8  2  0  0  0  0
  7  5  1  0  0  0  0
 10  1  1  0  0  0  0
 11  1  1  0  0  0  0
 12  2  1  0  0  0  0
 20  6  1  0  0  0  0
 21 33  1  0  0  0  0
 21 22  1  0  0  0  0
 22 24  1  0  0  0  0
 23 22  2  0  0  0  0
 24 35  1  0  0  0  0
 24 25  1  0  0  0  0
 25 26  1  0  0  0  0
 25 37  1  0  0  0  0
 26 38  1  0  0  0  0
 26 39  1  0  0  0  0
 27 28  1  0  0  0  0
 27 26  1  0  0  0  0
 28 42  1  1  0  0  0
 28 29  1  0  0  0  0
 29  7  1  0  0  0  0
 30 28  1  0  0  0  0
 31 30  2  0  0  0  0
 32 21  1  0  0  0  0
 34 23  1  0  0  0  0
 36 25  1  0  0  0  0
 40 27  1  0  0  0  0
 41 27  1  0  0  0  0
 43 29  1  0  0  0  0
 44 30  1  0  0  0  0
 44 54  1  0  0  0  0
 45 55  1  6  0  0  0
 45 51  1  0  0  0  0
 45 44  1  0  0  0  0
 46 45  1  0  0  0  0
 46 56  1  0  0  0  0
 47 46  1  0  0  0  0
 47 59  1  0  0  0  0
 48 61  1  0  0  0  0
 48 47  1  0  0  0  0
 49 63  1  0  0  0  0
 49 48  1  0  0  0  0
 50 64  1  0  0  0  0
 50 49  1  0  0  0  0
 51 53  1  0  0  0  0
 52 51  2  0  0  0  0
 57 46  1  0  0  0  0
 58 47  1  0  0  0  0
 60 48  1  0  0  0  0
 62 49  1  0  0  0  0
 65 50  1  0  0  0  0
M  END
$$$$
