LRL.pdb
 OpenBabel07022418443D

 63 62  0  0  1  0  0  0  0  0999 V2000
    2.4920   -2.3990    3.4400 C   0  0  0  0  0  0  0  0  0  0  0  0
    1.8160   -1.0430    3.5240 C   0  0  0  0  0  0  0  0  0  0  0  0
    2.1660   -0.4270    4.8440 C   0  0  0  0  0  0  0  0  0  0  0  0
    2.2610   -0.2460    2.3340 C   0  0  0  0  0  0  0  0  0  0  0  0
    1.6450    1.1390    2.3140 C   0  0  2  0  0  0  0  0  0  0  0  0
    2.0600    1.8150    3.5200 N   0  0  0  0  0  0  0  0  0  0  0  0
    0.1600    1.0280    2.2670 C   0  0  0  0  0  0  0  0  0  0  0  0
   -0.5480    1.4150    3.2340 O   0  0  0  0  0  0  0  0  0  0  0  0
    3.5010   -2.2860    3.9160 H   0  0  0  0  0  0  0  0  0  0  0  0
    2.6500   -2.6840    2.3730 H   0  0  0  0  0  0  0  0  0  0  0  0
    1.9290   -3.1770    4.0070 H   0  0  0  0  0  0  0  0  0  0  0  0
    0.7080   -1.2010    3.4540 H   0  0  0  0  0  0  0  0  0  0  0  0
    1.3360    0.2580    5.1620 H   0  0  0  0  0  0  0  0  0  0  0  0
    2.2620   -1.1740    5.6580 H   0  0  0  0  0  0  0  0  0  0  0  0
    3.1070    0.1500    4.8450 H   0  0  0  0  0  0  0  0  0  0  0  0
    1.9100   -0.7710    1.4280 H   0  0  0  0  0  0  0  0  0  0  0  0
    3.3620   -0.2090    2.3300 H   0  0  0  0  0  0  0  0  0  0  0  0
    1.9830    1.7210    1.4530 H   0  0  0  0  0  0  0  0  0  0  0  0
    2.9840    2.3020    3.3100 H   0  0  0  0  0  0  0  0  0  0  0  0
    1.4140    2.6320    3.7440 H   0  0  0  0  0  0  0  0  0  0  0  0
    1.6360    1.4190   -2.5690 N   0  0  0  0  0  0  0  0  0  0  0  0
    0.7850    2.3080   -1.8690 C   0  0  0  0  0  0  0  0  0  0  0  0
    1.1460    3.4970   -1.5360 N   0  0  0  0  0  0  0  0  0  0  0  0
   -0.5470    1.9090   -1.4860 N   0  0  0  0  0  0  0  0  0  0  0  0
   -1.5340    2.8440   -1.0670 C   0  0  0  0  0  0  0  0  0  0  0  0
   -2.7540    2.2450   -0.5160 C   0  0  0  0  0  0  0  0  0  0  0  0
   -2.7360    1.5570    0.7540 C   0  0  0  0  0  0  0  0  0  0  0  0
   -1.9240    0.3890    1.1050 C   0  0  2  0  0  0  0  0  0  0  0  0
   -0.5080    0.4700    1.0990 N   0  0  0  0  0  0  0  0  0  0  0  0
   -2.4740   -0.8750    0.5240 C   0  0  0  0  0  0  0  0  0  0  0  0
   -3.7320   -0.9810    0.5140 O   0  0  0  0  0  0  0  0  0  0  0  0
    2.4470    1.0050   -2.0620 H   0  0  0  0  0  0  0  0  0  0  0  0
    1.4870    1.1590   -3.5660 H   0  0  0  0  0  0  0  0  0  0  0  0
    2.0850    3.8750   -1.7640 H   0  0  0  0  0  0  0  0  0  0  0  0
   -0.8000    0.9200   -1.5530 H   0  0  0  0  0  0  0  0  0  0  0  0
   -1.0940    3.5930   -0.3520 H   0  0  0  0  0  0  0  0  0  0  0  0
   -1.8120    3.4440   -1.9910 H   0  0  0  0  0  0  0  0  0  0  0  0
   -3.5200    3.1110   -0.4460 H   0  0  0  0  0  0  0  0  0  0  0  0
   -3.2680    1.6220   -1.3410 H   0  0  0  0  0  0  0  0  0  0  0  0
   -3.8400    1.2610    0.9840 H   0  0  0  0  0  0  0  0  0  0  0  0
   -2.5980    2.3580    1.5780 H   0  0  0  0  0  0  0  0  0  0  0  0
   -2.1880    0.2370    2.2450 H   0  0  0  0  0  0  0  0  0  0  0  0
    0.1580    0.1440    0.3660 H   0  0  0  0  0  0  0  0  0  0  0  0
    0.0520   -2.2420   -2.4360 C   0  0  0  0  0  0  0  0  0  0  0  0
   -0.8510   -3.4380   -2.6150 C   0  0  0  0  0  0  0  0  0  0  0  0
   -0.1250   -4.7300   -2.2920 C   0  0  0  0  0  0  0  0  0  0  0  0
   -2.1850   -3.3310   -2.0080 C   0  0  0  0  0  0  0  0  0  0  0  0
   -2.3240   -3.1410   -0.5510 C   0  0  2  0  0  0  0  0  0  0  0  0
   -1.7230   -1.9370   -0.0020 N   0  0  0  0  0  0  0  0  0  0  0  0
   -1.8860   -4.3260    0.2350 C   0  0  0  0  0  0  0  0  0  0  0  0
   -2.3250   -5.4490   -0.1040 O   0  0  0  0  0  0  0  0  0  0  0  0
   -1.0260   -4.2380    1.3110 O   0  0  0  0  0  0  0  0  0  0  0  0
   -0.5810   -1.3430   -2.2880 H   0  0  0  0  0  0  0  0  0  0  0  0
    0.5940   -2.0170   -3.4100 H   0  0  0  0  0  0  0  0  0  0  0  0
    0.8360   -2.3950   -1.6900 H   0  0  0  0  0  0  0  0  0  0  0  0
   -1.0260   -3.5140   -3.7350 H   0  0  0  0  0  0  0  0  0  0  0  0
    0.6540   -4.8570   -3.0760 H   0  0  0  0  0  0  0  0  0  0  0  0
    0.4140   -4.6940   -1.3270 H   0  0  0  0  0  0  0  0  0  0  0  0
   -0.8350   -5.5530   -2.4060 H   0  0  0  0  0  0  0  0  0  0  0  0
   -2.7730   -4.2470   -2.2750 H   0  0  0  0  0  0  0  0  0  0  0  0
   -2.7350   -2.4940   -2.5090 H   0  0  0  0  0  0  0  0  0  0  0  0
   -3.4510   -3.1000   -0.3780 H   0  0  0  0  0  0  0  0  0  0  0  0
   -0.6890   -1.8430    0.0210 H   0  0  0  0  0  0  0  0  0  0  0  0
  1  2  1  0  0  0  0
  1  9  1  0  0  0  0
  1 11  1  0  0  0  0
  2  3  1  0  0  0  0
  3 15  1  0  0  0  0
  3 13  1  0  0  0  0
  3 14  1  0  0  0  0
  4  2  1  0  0  0  0
  5 18  1  6  0  0  0
  5  4  1  0  0  0  0
  5  6  1  0  0  0  0
  6 20  1  0  0  0  0
  7  5  1  0  0  0  0
  7  8  2  0  0  0  0
 10  1  1  0  0  0  0
 12  2  1  0  0  0  0
 16  4  1  0  0  0  0
 17  4  1  0  0  0  0
 19  6  1  0  0  0  0
 21 32  1  0  0  0  0
 21 22  1  0  0  0  0
 22 23  2  0  0  0  0
 22 24  1  0  0  0  0
 24 25  1  0  0  0  0
 25 26  1  0  0  0  0
 25 36  1  0  0  0  0
 26 38  1  0  0  0  0
 26 27  1  0  0  0  0
 27 40  1  0  0  0  0
 27 28  1  0  0  0  0
 27 41  1  0  0  0  0
 28 42  1  1  0  0  0
 29 28  1  0  0  0  0
 29  7  1  0  0  0  0
 30 28  1  0  0  0  0
 31 30  2  0  0  0  0
 33 21  1  0  0  0  0
 34 23  1  0  0  0  0
 35 24  1  0  0  0  0
 37 25  1  0  0  0  0
 39 26  1  0  0  0  0
 43 29  1  0  0  0  0
 44 53  1  0  0  0  0
 44 55  1  0  0  0  0
 45 44  1  0  0  0  0
 45 46  1  0  0  0  0
 45 47  1  0  0  0  0
 46 58  1  0  0  0  0
 47 48  1  0  0  0  0
 48 62  1  1  0  0  0
 48 49  1  0  0  0  0
 48 50  1  0  0  0  0
 49 63  1  0  0  0  0
 49 30  1  0  0  0  0
 50 52  1  0  0  0  0
 51 50  2  0  0  0  0
 54 44  1  0  0  0  0
 56 45  1  0  0  0  0
 57 46  1  0  0  0  0
 59 46  1  0  0  0  0
 60 47  1  0  0  0  0
 61 47  1  0  0  0  0
M  END
$$$$
