LRN.pdb
 OpenBabel07022418443D

 58 57  0  0  1  0  0  0  0  0999 V2000
   -0.8790   -2.3670    3.5550 C   0  0  0  0  0  0  0  0  0  0  0  0
    0.1590   -1.8740    4.5360 C   0  0  0  0  0  0  0  0  0  0  0  0
   -0.4930   -1.5770    5.8490 C   0  0  0  0  0  0  0  0  0  0  0  0
    1.0110   -0.7950    3.9900 C   0  0  0  0  0  0  0  0  0  0  0  0
    0.3370    0.4490    3.5570 C   0  0  2  0  0  0  0  0  0  0  0  0
   -0.3970    1.1090    4.6140 N   0  0  0  0  0  0  0  0  0  0  0  0
   -0.4320    0.3500    2.2940 C   0  0  0  0  0  0  0  0  0  0  0  0
   -1.6350    0.7460    2.2010 O   0  0  0  0  0  0  0  0  0  0  0  0
   -1.7490   -1.6700    3.5020 H   0  0  0  0  0  0  0  0  0  0  0  0
   -1.3360   -3.3390    3.9100 H   0  0  0  0  0  0  0  0  0  0  0  0
   -0.4510   -2.6130    2.5710 H   0  0  0  0  0  0  0  0  0  0  0  0
    0.8400   -2.7600    4.7170 H   0  0  0  0  0  0  0  0  0  0  0  0
    0.2800   -1.3100    6.6150 H   0  0  0  0  0  0  0  0  0  0  0  0
   -0.9250   -2.5500    6.2230 H   0  0  0  0  0  0  0  0  0  0  0  0
   -1.3220   -0.8690    5.8090 H   0  0  0  0  0  0  0  0  0  0  0  0
    1.5370   -1.2150    3.0810 H   0  0  0  0  0  0  0  0  0  0  0  0
    1.8420   -0.5250    4.6770 H   0  0  0  0  0  0  0  0  0  0  0  0
    1.1740    1.1780    3.3160 H   0  0  0  0  0  0  0  0  0  0  0  0
    0.3040    1.4900    5.2870 H   0  0  0  0  0  0  0  0  0  0  0  0
   -0.9390    1.9290    4.2650 H   0  0  0  0  0  0  0  0  0  0  0  0
    4.6240    2.2270   -1.1900 N   0  0  0  0  0  0  0  0  0  0  0  0
    3.2780    2.5080   -0.8670 C   0  0  0  0  0  0  0  0  0  0  0  0
    2.9900    2.8770    0.3280 N   0  0  0  0  0  0  0  0  0  0  0  0
    2.2700    2.3810   -1.8570 N   0  0  0  0  0  0  0  0  0  0  0  0
    0.9260    2.8490   -1.6770 C   0  0  0  0  0  0  0  0  0  0  0  0
    0.1690    2.0470   -0.6310 C   0  0  0  0  0  0  0  0  0  0  0  0
    0.1480    0.6220   -1.1220 C   0  0  0  0  0  0  0  0  0  0  0  0
   -0.6000   -0.2960   -0.1380 C   0  0  2  0  0  0  0  0  0  0  0  0
    0.1310   -0.1930    1.1080 N   0  0  0  0  0  0  0  0  0  0  0  0
   -0.4430   -1.6580   -0.7020 C   0  0  0  0  0  0  0  0  0  0  0  0
    0.2710   -2.4800   -0.0580 O   0  0  0  0  0  0  0  0  0  0  0  0
    5.4430    2.7220   -0.7630 H   0  0  0  0  0  0  0  0  0  0  0  0
    4.8920    1.4830   -1.8970 H   0  0  0  0  0  0  0  0  0  0  0  0
    3.7030    2.9780    1.0680 H   0  0  0  0  0  0  0  0  0  0  0  0
    2.5320    1.9210   -2.7550 H   0  0  0  0  0  0  0  0  0  0  0  0
    0.3600    2.8340   -2.6280 H   0  0  0  0  0  0  0  0  0  0  0  0
    0.9980    3.9310   -1.3630 H   0  0  0  0  0  0  0  0  0  0  0  0
   -0.8760    2.4120   -0.5740 H   0  0  0  0  0  0  0  0  0  0  0  0
    0.6640    2.1270    0.3570 H   0  0  0  0  0  0  0  0  0  0  0  0
   -0.3930    0.5820   -2.0820 H   0  0  0  0  0  0  0  0  0  0  0  0
    1.1780    0.2130   -1.1720 H   0  0  0  0  0  0  0  0  0  0  0  0
   -1.6470    0.0370   -0.0380 H   0  0  0  0  0  0  0  0  0  0  0  0
    1.1280   -0.5350    1.1460 H   0  0  0  0  0  0  0  0  0  0  0  0
   -4.2650   -4.7930   -1.5470 N   0  0  0  0  0  0  0  0  0  0  0  0
   -2.9770   -4.1640   -1.4640 C   0  0  0  0  0  0  0  0  0  0  0  0
   -2.5480   -3.6790   -0.3900 O   0  0  0  0  0  0  0  0  0  0  0  0
   -2.1550   -4.0960   -2.6750 C   0  0  0  0  0  0  0  0  0  0  0  0
   -0.8470   -3.4110   -2.3890 C   0  0  2  0  0  0  0  0  0  0  0  0
   -1.0530   -2.0630   -1.9140 N   0  0  0  0  0  0  0  0  0  0  0  0
   -0.0160   -3.3810   -3.6390 C   0  0  0  0  0  0  0  0  0  0  0  0
    0.2900   -4.4310   -4.2350 O   0  0  0  0  0  0  0  0  0  0  0  0
    0.4150   -2.1730   -4.1360 O   0  0  0  0  0  0  0  0  0  0  0  0
   -4.6020   -5.2490   -0.6680 H   0  0  0  0  0  0  0  0  0  0  0  0
   -4.7870   -4.7690   -2.4420 H   0  0  0  0  0  0  0  0  0  0  0  0
   -2.6730   -3.5820   -3.5120 H   0  0  0  0  0  0  0  0  0  0  0  0
   -1.9000   -5.1310   -3.0470 H   0  0  0  0  0  0  0  0  0  0  0  0
   -0.2760   -3.9620   -1.6100 H   0  0  0  0  0  0  0  0  0  0  0  0
   -1.6300   -1.3570   -2.4140 H   0  0  0  0  0  0  0  0  0  0  0  0
  1 10  1  0  0  0  0
  1  2  1  0  0  0  0
  2 12  1  0  0  0  0
  2  3  1  0  0  0  0
  3 14  1  0  0  0  0
  3 13  1  0  0  0  0
  4  2  1  0  0  0  0
  4 17  1  0  0  0  0
  5 18  1  6  0  0  0
  5  4  1  0  0  0  0
  5  6  1  0  0  0  0
  6 19  1  0  0  0  0
  7  5  1  0  0  0  0
  8  7  2  0  0  0  0
  9  1  1  0  0  0  0
 11  1  1  0  0  0  0
 15  3  1  0  0  0  0
 16  4  1  0  0  0  0
 20  6  1  0  0  0  0
 21 22  1  0  0  0  0
 21 32  1  0  0  0  0
 22 23  2  0  0  0  0
 23 34  1  0  0  0  0
 24 25  1  0  0  0  0
 24 22  1  0  0  0  0
 25 37  1  0  0  0  0
 25 26  1  0  0  0  0
 26 38  1  0  0  0  0
 26 39  1  0  0  0  0
 27 26  1  0  0  0  0
 27 28  1  0  0  0  0
 28 42  1  1  0  0  0
 28 29  1  0  0  0  0
 29 43  1  0  0  0  0
 29  7  1  0  0  0  0
 30 28  1  0  0  0  0
 30 31  2  0  0  0  0
 33 21  1  0  0  0  0
 35 24  1  0  0  0  0
 36 25  1  0  0  0  0
 40 27  1  0  0  0  0
 41 27  1  0  0  0  0
 44 45  1  0  0  0  0
 44 53  1  0  0  0  0
 45 46  2  0  0  0  0
 47 48  1  0  0  0  0
 47 45  1  0  0  0  0
 48 49  1  0  0  0  0
 48 57  1  1  0  0  0
 49 30  1  0  0  0  0
 50 48  1  0  0  0  0
 51 50  2  0  0  0  0
 52 50  1  0  0  0  0
 54 44  1  0  0  0  0
 55 47  1  0  0  0  0
 56 47  1  0  0  0  0
 58 49  1  0  0  0  0
M  END
$$$$
