LRP.pdb
 OpenBabel07022418443D

 58 58  0  0  1  0  0  0  0  0999 V2000
    0.2530   -3.9580    6.0320 C   0  0  0  0  0  0  0  0  0  0  0  0
    0.5520   -2.9340    4.9230 C   0  0  0  0  0  0  0  0  0  0  0  0
    1.0460   -1.7040    5.6520 C   0  0  0  0  0  0  0  0  0  0  0  0
    1.5550   -3.5620    4.0250 C   0  0  0  0  0  0  0  0  0  0  0  0
    2.0060   -2.7650    2.8550 C   0  0  2  0  0  0  0  0  0  0  0  0
    2.6070   -1.5440    3.2830 N   0  0  0  0  0  0  0  0  0  0  0  0
    0.9720   -2.5980    1.8140 C   0  0  0  0  0  0  0  0  0  0  0  0
    0.3960   -3.6330    1.4040 O   0  0  0  0  0  0  0  0  0  0  0  0
    0.2550   -4.9430    5.5430 H   0  0  0  0  0  0  0  0  0  0  0  0
    0.9810   -3.8630    6.8630 H   0  0  0  0  0  0  0  0  0  0  0  0
   -0.7720   -3.7560    6.4000 H   0  0  0  0  0  0  0  0  0  0  0  0
   -0.4230   -2.7520    4.4280 H   0  0  0  0  0  0  0  0  0  0  0  0
    0.7810   -1.7270    6.7510 H   0  0  0  0  0  0  0  0  0  0  0  0
    0.5340   -0.8130    5.2480 H   0  0  0  0  0  0  0  0  0  0  0  0
    2.1200   -1.5440    5.6080 H   0  0  0  0  0  0  0  0  0  0  0  0
    1.1270   -4.5500    3.7000 H   0  0  0  0  0  0  0  0  0  0  0  0
    2.4350   -3.8550    4.6650 H   0  0  0  0  0  0  0  0  0  0  0  0
    2.8340   -3.3660    2.3660 H   0  0  0  0  0  0  0  0  0  0  0  0
    2.0020   -0.7250    3.3670 H   0  0  0  0  0  0  0  0  0  0  0  0
    3.4010   -1.2510    2.6410 H   0  0  0  0  0  0  0  0  0  0  0  0
    1.9590    2.9290   -1.3420 N   0  0  0  0  0  0  0  0  0  0  0  0
    0.6020    2.9930   -0.9830 C   0  0  0  0  0  0  0  0  0  0  0  0
   -0.2040    3.9050   -1.4440 N   0  0  0  0  0  0  0  0  0  0  0  0
    0.0870    2.0060   -0.0700 N   0  0  0  0  0  0  0  0  0  0  0  0
   -1.2970    1.9680    0.2900 C   0  0  0  0  0  0  0  0  0  0  0  0
   -1.6820    0.8320    1.1230 C   0  0  0  0  0  0  0  0  0  0  0  0
   -1.6490   -0.5480    0.6610 C   0  0  0  0  0  0  0  0  0  0  0  0
   -0.4520   -1.2570    0.2130 C   0  0  2  0  0  0  0  0  0  0  0  0
    0.5860   -1.3440    1.2460 N   0  0  0  0  0  0  0  0  0  0  0  0
    0.1040   -0.9740   -1.1090 C   0  0  0  0  0  0  0  0  0  0  0  0
    1.3550   -0.7080   -1.2170 O   0  0  0  0  0  0  0  0  0  0  0  0
    2.3110    2.2170   -2.0340 H   0  0  0  0  0  0  0  0  0  0  0  0
    2.6930    3.5670   -0.9560 H   0  0  0  0  0  0  0  0  0  0  0  0
    0.2060    4.6030   -2.1050 H   0  0  0  0  0  0  0  0  0  0  0  0
    0.7690    1.3660    0.3210 H   0  0  0  0  0  0  0  0  0  0  0  0
   -1.4630    2.9300    0.8840 H   0  0  0  0  0  0  0  0  0  0  0  0
   -1.9660    2.1320   -0.5980 H   0  0  0  0  0  0  0  0  0  0  0  0
   -2.7690    1.0230    1.4540 H   0  0  0  0  0  0  0  0  0  0  0  0
   -1.1450    0.9140    2.1180 H   0  0  0  0  0  0  0  0  0  0  0  0
   -2.4770   -0.7730   -0.0700 H   0  0  0  0  0  0  0  0  0  0  0  0
   -2.0320   -1.1710    1.5730 H   0  0  0  0  0  0  0  0  0  0  0  0
   -0.7930   -2.3610    0.1150 H   0  0  0  0  0  0  0  0  0  0  0  0
    1.0720   -0.4910    1.5990 H   0  0  0  0  0  0  0  0  0  0  0  0
   -0.6560   -0.9760   -2.2980 N   0  0  0  0  0  0  0  0  0  0  0  0
   -2.0470   -1.2740   -2.5660 C   0  0  0  0  0  0  0  0  0  0  0  0
   -2.1910   -1.6580   -4.0200 C   0  0  0  0  0  0  0  0  0  0  0  0
   -0.7990   -1.5850   -4.5560 C   0  0  0  0  0  0  0  0  0  0  0  0
   -0.0790   -0.6230   -3.6230 C   0  0  1  0  0  0  0  0  0  0  0  0
   -0.4430    0.7690   -3.9570 C   0  0  0  0  0  0  0  0  0  0  0  0
   -1.1680    1.4660   -3.2050 O   0  0  0  0  0  0  0  0  0  0  0  0
    0.0090    1.3490   -5.1160 O   0  0  0  0  0  0  0  0  0  0  0  0
   -2.3880   -2.1380   -1.9160 H   0  0  0  0  0  0  0  0  0  0  0  0
   -2.7080   -0.4110   -2.3810 H   0  0  0  0  0  0  0  0  0  0  0  0
   -2.6260   -2.6770   -4.1200 H   0  0  0  0  0  0  0  0  0  0  0  0
   -2.8580   -0.9090   -4.5160 H   0  0  0  0  0  0  0  0  0  0  0  0
   -0.3390   -2.5830   -4.5210 H   0  0  0  0  0  0  0  0  0  0  0  0
   -0.8180   -1.1980   -5.5770 H   0  0  0  0  0  0  0  0  0  0  0  0
    0.9800   -0.8060   -3.6880 H   0  0  0  0  0  0  0  0  0  0  0  0
  1 11  1  0  0  0  0
  1 10  1  0  0  0  0
  2  3  1  0  0  0  0
  2  1  1  0  0  0  0
  3 13  1  0  0  0  0
  4 17  1  0  0  0  0
  4  2  1  0  0  0  0
  5 18  1  6  0  0  0
  5  6  1  0  0  0  0
  5  4  1  0  0  0  0
  6 19  1  0  0  0  0
  7  5  1  0  0  0  0
  8  7  2  0  0  0  0
  9  1  1  0  0  0  0
 12  2  1  0  0  0  0
 14  3  1  0  0  0  0
 15  3  1  0  0  0  0
 16  4  1  0  0  0  0
 20  6  1  0  0  0  0
 21 22  1  0  0  0  0
 21 33  1  0  0  0  0
 22 24  1  0  0  0  0
 23 22  2  0  0  0  0
 24 25  1  0  0  0  0
 24 35  1  0  0  0  0
 25 36  1  0  0  0  0
 25 26  1  0  0  0  0
 26 38  1  0  0  0  0
 26 39  1  0  0  0  0
 27 26  1  0  0  0  0
 27 41  1  0  0  0  0
 28 42  1  6  0  0  0
 28 27  1  0  0  0  0
 28 29  1  0  0  0  0
 29 43  1  0  0  0  0
 29  7  1  0  0  0  0
 30 28  1  0  0  0  0
 31 30  2  0  0  0  0
 32 21  1  0  0  0  0
 34 23  1  0  0  0  0
 37 25  1  0  0  0  0
 40 27  1  0  0  0  0
 44 30  1  0  0  0  0
 45 53  1  0  0  0  0
 45 44  1  0  0  0  0
 45 52  1  0  0  0  0
 46 45  1  0  0  0  0
 47 56  1  0  0  0  0
 47 46  1  0  0  0  0
 47 48  1  0  0  0  0
 48 58  1  6  0  0  0
 48 44  1  0  0  0  0
 49 48  1  0  0  0  0
 49 50  1  0  0  0  0
 51 49  2  0  0  0  0
 54 46  1  0  0  0  0
 55 46  1  0  0  0  0
 57 47  1  0  0  0  0
M  END
$$$$
