LRR.pdb
 OpenBabel07022418443D

 67 66  0  0  1  0  0  0  0  0999 V2000
    1.5230   -0.8980    3.5370 C   0  0  0  0  0  0  0  0  0  0  0  0
    2.8930   -0.3420    3.5420 C   0  0  0  0  0  0  0  0  0  0  0  0
    3.8620   -1.5350    3.5380 C   0  0  0  0  0  0  0  0  0  0  0  0
    3.2930    0.5400    2.4290 C   0  0  0  0  0  0  0  0  0  0  0  0
    2.5080    1.7870    2.2260 C   0  0  2  0  0  0  0  0  0  0  0  0
    2.5230    2.6590    3.3790 N   0  0  0  0  0  0  0  0  0  0  0  0
    1.1490    1.5930    1.6650 C   0  0  0  0  0  0  0  0  0  0  0  0
    0.1140    2.0650    2.2070 O   0  0  0  0  0  0  0  0  0  0  0  0
    0.9940   -0.9300    2.5960 H   0  0  0  0  0  0  0  0  0  0  0  0
    0.8690   -0.2980    4.2380 H   0  0  0  0  0  0  0  0  0  0  0  0
    1.4660   -1.9410    3.9690 H   0  0  0  0  0  0  0  0  0  0  0  0
    3.0870    0.1630    4.5290 H   0  0  0  0  0  0  0  0  0  0  0  0
    4.8770   -1.2260    3.2980 H   0  0  0  0  0  0  0  0  0  0  0  0
    3.7480   -2.1620    4.4240 H   0  0  0  0  0  0  0  0  0  0  0  0
    3.5170   -2.1630    2.6650 H   0  0  0  0  0  0  0  0  0  0  0  0
    3.2920   -0.0600    1.4880 H   0  0  0  0  0  0  0  0  0  0  0  0
    4.3650    0.8160    2.5860 H   0  0  0  0  0  0  0  0  0  0  0  0
    3.0650    2.3740    1.4260 H   0  0  0  0  0  0  0  0  0  0  0  0
    2.0680    3.5700    3.1210 H   0  0  0  0  0  0  0  0  0  0  0  0
    2.1040    2.2430    4.2250 H   0  0  0  0  0  0  0  0  0  0  0  0
    2.0110    4.8640   -3.2040 N   0  0  0  0  0  0  0  0  0  0  0  0
    1.8140    3.4630   -3.3340 C   0  0  0  0  0  0  0  0  0  0  0  0
    2.8690    2.7080   -3.1790 N   0  0  0  0  0  0  0  0  0  0  0  0
    0.5510    2.8860   -3.6180 N   0  0  0  0  0  0  0  0  0  0  0  0
    0.3390    1.4630   -3.7230 C   0  0  0  0  0  0  0  0  0  0  0  0
    0.4970    0.7660   -2.3890 C   0  0  0  0  0  0  0  0  0  0  0  0
   -0.5170    1.3490   -1.4470 C   0  0  0  0  0  0  0  0  0  0  0  0
   -0.3890    0.6610   -0.1000 C   0  0  2  0  0  0  0  0  0  0  0  0
    0.9360    0.8490    0.4550 N   0  0  0  0  0  0  0  0  0  0  0  0
   -0.6250   -0.8070   -0.2310 C   0  0  0  0  0  0  0  0  0  0  0  0
    0.2210   -1.6780    0.0910 O   0  0  0  0  0  0  0  0  0  0  0  0
    1.5560    5.5720   -3.8420 H   0  0  0  0  0  0  0  0  0  0  0  0
    2.6390    5.1930   -2.4360 H   0  0  0  0  0  0  0  0  0  0  0  0
    3.8020    3.0810   -2.9740 H   0  0  0  0  0  0  0  0  0  0  0  0
   -0.2600    3.5240   -3.7560 H   0  0  0  0  0  0  0  0  0  0  0  0
    1.1280    1.0280   -4.3960 H   0  0  0  0  0  0  0  0  0  0  0  0
   -0.6330    1.2330   -4.1710 H   0  0  0  0  0  0  0  0  0  0  0  0
    1.4960    0.9300   -1.9510 H   0  0  0  0  0  0  0  0  0  0  0  0
    0.2950   -0.3150   -2.4690 H   0  0  0  0  0  0  0  0  0  0  0  0
   -1.5570    1.2150   -1.8060 H   0  0  0  0  0  0  0  0  0  0  0  0
   -0.3860    2.4350   -1.2650 H   0  0  0  0  0  0  0  0  0  0  0  0
   -1.1780    1.1030    0.5320 H   0  0  0  0  0  0  0  0  0  0  0  0
    1.7960    0.4610    0.0150 H   0  0  0  0  0  0  0  0  0  0  0  0
   -4.2140   -6.7530    2.0980 N   0  0  0  0  0  0  0  0  0  0  0  0
   -3.7540   -5.4940    2.5500 C   0  0  0  0  0  0  0  0  0  0  0  0
   -4.3570   -4.8980    3.5080 N   0  0  0  0  0  0  0  0  0  0  0  0
   -2.6190   -4.9120    1.9250 N   0  0  0  0  0  0  0  0  0  0  0  0
   -2.3480   -3.4840    2.0430 C   0  0  0  0  0  0  0  0  0  0  0  0
   -3.3890   -2.6980    1.3060 C   0  0  0  0  0  0  0  0  0  0  0  0
   -3.4500   -3.0160   -0.1670 C   0  0  0  0  0  0  0  0  0  0  0  0
   -2.1590   -2.7240   -0.8950 C   0  0  2  0  0  0  0  0  0  0  0  0
   -1.8720   -1.3080   -0.7490 N   0  0  0  0  0  0  0  0  0  0  0  0
   -2.2740   -3.0920   -2.3410 C   0  0  0  0  0  0  0  0  0  0  0  0
   -2.5150   -4.2710   -2.6720 O   0  0  0  0  0  0  0  0  0  0  0  0
   -2.1180   -2.1470   -3.3350 O   0  0  0  0  0  0  0  0  0  0  0  0
   -4.1150   -7.5830    2.7090 H   0  0  0  0  0  0  0  0  0  0  0  0
   -4.6480   -6.8630    1.1690 H   0  0  0  0  0  0  0  0  0  0  0  0
   -4.0730   -3.9710    3.8910 H   0  0  0  0  0  0  0  0  0  0  0  0
   -2.0030   -5.5560    1.3850 H   0  0  0  0  0  0  0  0  0  0  0  0
   -2.3400   -3.1450    3.0900 H   0  0  0  0  0  0  0  0  0  0  0  0
   -1.3550   -3.3160    1.5940 H   0  0  0  0  0  0  0  0  0  0  0  0
   -3.0510   -1.6200    1.3630 H   0  0  0  0  0  0  0  0  0  0  0  0
   -4.3730   -2.7070    1.7860 H   0  0  0  0  0  0  0  0  0  0  0  0
   -4.3070   -2.4590   -0.6010 H   0  0  0  0  0  0  0  0  0  0  0  0
   -3.6810   -4.1030   -0.3350 H   0  0  0  0  0  0  0  0  0  0  0  0
   -1.3460   -3.3380   -0.4570 H   0  0  0  0  0  0  0  0  0  0  0  0
   -2.5720   -0.5890   -1.0190 H   0  0  0  0  0  0  0  0  0  0  0  0
  1  2  1  0  0  0  0
  1 11  1  0  0  0  0
  1 10  1  0  0  0  0
  2 12  1  0  0  0  0
  3  2  1  0  0  0  0
  3 14  1  0  0  0  0
  4 17  1  0  0  0  0
  4  2  1  0  0  0  0
  5 18  1  6  0  0  0
  5  4  1  0  0  0  0
  5  6  1  0  0  0  0
  6 20  1  0  0  0  0
  7  8  2  0  0  0  0
  7  5  1  0  0  0  0
  9  1  1  0  0  0  0
 13  3  1  0  0  0  0
 15  3  1  0  0  0  0
 16  4  1  0  0  0  0
 19  6  1  0  0  0  0
 21 33  1  0  0  0  0
 22 21  1  0  0  0  0
 22 23  2  0  0  0  0
 23 34  1  0  0  0  0
 24 22  1  0  0  0  0
 25 24  1  0  0  0  0
 25 26  1  0  0  0  0
 26 38  1  0  0  0  0
 26 27  1  0  0  0  0
 27 41  1  0  0  0  0
 27 28  1  0  0  0  0
 28 29  1  0  0  0  0
 28 42  1  1  0  0  0
 29  7  1  0  0  0  0
 30 28  1  0  0  0  0
 30 31  2  0  0  0  0
 32 21  1  0  0  0  0
 35 24  1  0  0  0  0
 36 25  1  0  0  0  0
 37 25  1  0  0  0  0
 39 26  1  0  0  0  0
 40 27  1  0  0  0  0
 43 29  1  0  0  0  0
 44 45  1  0  0  0  0
 44 56  1  0  0  0  0
 45 46  2  0  0  0  0
 46 58  1  0  0  0  0
 47 48  1  0  0  0  0
 47 45  1  0  0  0  0
 48 60  1  0  0  0  0
 49 62  1  0  0  0  0
 49 63  1  0  0  0  0
 49 48  1  0  0  0  0
 50 49  1  0  0  0  0
 51 52  1  0  0  0  0
 51 66  1  1  0  0  0
 51 50  1  0  0  0  0
 52 30  1  0  0  0  0
 53 51  1  0  0  0  0
 54 53  1  0  0  0  0
 55 53  2  0  0  0  0
 57 44  1  0  0  0  0
 59 47  1  0  0  0  0
 61 48  1  0  0  0  0
 64 50  1  0  0  0  0
 65 50  1  0  0  0  0
 67 52  1  0  0  0  0
M  END
$$$$
