LRS.pdb
 OpenBabel07022418443D

 55 54  0  0  1  0  0  0  0  0999 V2000
    0.4060   -3.6680    4.9880 C   0  0  0  0  0  0  0  0  0  0  0  0
    0.9000   -3.3770    3.5900 C   0  0  0  0  0  0  0  0  0  0  0  0
   -0.2560   -3.3370    2.6520 C   0  0  0  0  0  0  0  0  0  0  0  0
    1.8490   -2.2390    3.5070 C   0  0  0  0  0  0  0  0  0  0  0  0
    1.3530   -0.9190    3.9670 C   0  0  2  0  0  0  0  0  0  0  0  0
    0.9590   -0.9730    5.3470 N   0  0  0  0  0  0  0  0  0  0  0  0
    0.3060   -0.3000    3.1460 C   0  0  0  0  0  0  0  0  0  0  0  0
   -0.7540    0.1000    3.6930 O   0  0  0  0  0  0  0  0  0  0  0  0
   -0.6060   -3.1910    5.1050 H   0  0  0  0  0  0  0  0  0  0  0  0
    0.2420   -4.7570    5.1220 H   0  0  0  0  0  0  0  0  0  0  0  0
    1.1100   -3.3530    5.7750 H   0  0  0  0  0  0  0  0  0  0  0  0
    1.4970   -4.2960    3.2990 H   0  0  0  0  0  0  0  0  0  0  0  0
   -0.9480   -4.1760    2.9620 H   0  0  0  0  0  0  0  0  0  0  0  0
   -0.8640   -2.4350    2.6600 H   0  0  0  0  0  0  0  0  0  0  0  0
    0.0890   -3.6330    1.6350 H   0  0  0  0  0  0  0  0  0  0  0  0
    2.2500   -2.2090    2.4730 H   0  0  0  0  0  0  0  0  0  0  0  0
    2.7320   -2.4990    4.1500 H   0  0  0  0  0  0  0  0  0  0  0  0
    2.2380   -0.2140    3.9180 H   0  0  0  0  0  0  0  0  0  0  0  0
    1.8440   -1.0240    5.9230 H   0  0  0  0  0  0  0  0  0  0  0  0
    0.5340   -0.0490    5.5930 H   0  0  0  0  0  0  0  0  0  0  0  0
    3.4390    0.4200   -4.1930 N   0  0  0  0  0  0  0  0  0  0  0  0
    2.1270    0.7270   -3.7600 C   0  0  0  0  0  0  0  0  0  0  0  0
    1.0750    0.4430   -4.4890 N   0  0  0  0  0  0  0  0  0  0  0  0
    1.9840    1.3600   -2.4940 N   0  0  0  0  0  0  0  0  0  0  0  0
    0.7440    1.1280   -1.7240 C   0  0  0  0  0  0  0  0  0  0  0  0
    0.8800    1.9090   -0.4680 C   0  0  0  0  0  0  0  0  0  0  0  0
   -0.2780    1.8240    0.4380 C   0  0  0  0  0  0  0  0  0  0  0  0
   -0.6430    0.4960    0.9910 C   0  0  2  0  0  0  0  0  0  0  0  0
    0.4240   -0.1230    1.7470 N   0  0  0  0  0  0  0  0  0  0  0  0
   -1.1700   -0.4460   -0.0030 C   0  0  0  0  0  0  0  0  0  0  0  0
   -0.7340   -1.6520   -0.0840 O   0  0  0  0  0  0  0  0  0  0  0  0
    4.2220    1.0230   -3.9060 H   0  0  0  0  0  0  0  0  0  0  0  0
    3.6050   -0.3960   -4.7850 H   0  0  0  0  0  0  0  0  0  0  0  0
    1.2580   -0.0180   -5.3980 H   0  0  0  0  0  0  0  0  0  0  0  0
    2.7540    1.9650   -2.1520 H   0  0  0  0  0  0  0  0  0  0  0  0
   -0.0780    1.5230   -2.3770 H   0  0  0  0  0  0  0  0  0  0  0  0
    0.6000    0.0610   -1.5780 H   0  0  0  0  0  0  0  0  0  0  0  0
    1.0410    2.9980   -0.7600 H   0  0  0  0  0  0  0  0  0  0  0  0
    1.8540    1.6640    0.0590 H   0  0  0  0  0  0  0  0  0  0  0  0
   -0.1410    2.5930    1.2740 H   0  0  0  0  0  0  0  0  0  0  0  0
   -1.1590    2.2870   -0.1250 H   0  0  0  0  0  0  0  0  0  0  0  0
   -1.5000    0.7470    1.7400 H   0  0  0  0  0  0  0  0  0  0  0  0
    1.2750   -0.4320    1.2330 H   0  0  0  0  0  0  0  0  0  0  0  0
   -4.0260   -2.0830   -0.1800 O   0  0  0  0  0  0  0  0  0  0  0  0
   -4.0650   -1.5390   -1.4450 C   0  0  0  0  0  0  0  0  0  0  0  0
   -2.6690   -1.1200   -1.9080 C   0  0  2  0  0  0  0  0  0  0  0  0
   -2.1930   -0.1320   -0.9550 N   0  0  0  0  0  0  0  0  0  0  0  0
   -2.7100   -0.6420   -3.2950 C   0  0  0  0  0  0  0  0  0  0  0  0
   -3.0850   -1.4030   -4.2170 O   0  0  0  0  0  0  0  0  0  0  0  0
   -2.3390    0.6480   -3.6170 O   0  0  0  0  0  0  0  0  0  0  0  0
   -4.6980   -2.7950   -0.0230 H   0  0  0  0  0  0  0  0  0  0  0  0
   -4.4630   -2.3160   -2.1390 H   0  0  0  0  0  0  0  0  0  0  0  0
   -4.7710   -0.6980   -1.4460 H   0  0  0  0  0  0  0  0  0  0  0  0
   -2.0650   -2.0600   -1.8260 H   0  0  0  0  0  0  0  0  0  0  0  0
   -2.5860    0.8320   -0.9420 H   0  0  0  0  0  0  0  0  0  0  0  0
  1  9  1  0  0  0  0
  1 10  1  0  0  0  0
  1 11  1  0  0  0  0
  2  1  1  0  0  0  0
  3 14  1  0  0  0  0
  3 13  1  0  0  0  0
  3  2  1  0  0  0  0
  4  2  1  0  0  0  0
  4  5  1  0  0  0  0
  4 17  1  0  0  0  0
  5 18  1  6  0  0  0
  5  6  1  0  0  0  0
  6 20  1  0  0  0  0
  6 19  1  0  0  0  0
  7  8  2  0  0  0  0
  7  5  1  0  0  0  0
 12  2  1  0  0  0  0
 15  3  1  0  0  0  0
 16  4  1  0  0  0  0
 21 32  1  0  0  0  0
 21 22  1  0  0  0  0
 22 24  1  0  0  0  0
 23 22  2  0  0  0  0
 24 35  1  0  0  0  0
 24 25  1  0  0  0  0
 25 37  1  0  0  0  0
 25 26  1  0  0  0  0
 26 39  1  0  0  0  0
 26 27  1  0  0  0  0
 27 28  1  0  0  0  0
 27 40  1  0  0  0  0
 28 42  1  1  0  0  0
 28 29  1  0  0  0  0
 29  7  1  0  0  0  0
 30 28  1  0  0  0  0
 31 30  2  0  0  0  0
 33 21  1  0  0  0  0
 34 23  1  0  0  0  0
 36 25  1  0  0  0  0
 38 26  1  0  0  0  0
 41 27  1  0  0  0  0
 43 29  1  0  0  0  0
 44 51  1  0  0  0  0
 45 44  1  0  0  0  0
 46 54  1  1  0  0  0
 46 45  1  0  0  0  0
 46 47  1  0  0  0  0
 47 55  1  0  0  0  0
 47 30  1  0  0  0  0
 48 46  1  0  0  0  0
 49 48  2  0  0  0  0
 50 48  1  0  0  0  0
 52 45  1  0  0  0  0
 53 45  1  0  0  0  0
M  END
$$$$
