LRT.pdb
 OpenBabel07022418443D

 58 57  0  0  1  0  0  0  0  0999 V2000
    2.9190   -0.2770    5.8600 C   0  0  0  0  0  0  0  0  0  0  0  0
    2.2690   -0.3510    4.4680 C   0  0  0  0  0  0  0  0  0  0  0  0
    2.1640    1.0790    3.9960 C   0  0  0  0  0  0  0  0  0  0  0  0
    3.1390   -1.2140    3.6330 C   0  0  0  0  0  0  0  0  0  0  0  0
    2.6970   -1.4280    2.2300 C   0  0  2  0  0  0  0  0  0  0  0  0
    2.6270   -0.1480    1.5510 N   0  0  0  0  0  0  0  0  0  0  0  0
    1.4420   -2.1780    2.0850 C   0  0  0  0  0  0  0  0  0  0  0  0
    1.2280   -3.3140    2.5610 O   0  0  0  0  0  0  0  0  0  0  0  0
    3.9770    0.0070    5.7960 H   0  0  0  0  0  0  0  0  0  0  0  0
    2.3810    0.4770    6.4800 H   0  0  0  0  0  0  0  0  0  0  0  0
    2.8560   -1.2690    6.3600 H   0  0  0  0  0  0  0  0  0  0  0  0
    1.2740   -0.8080    4.6410 H   0  0  0  0  0  0  0  0  0  0  0  0
    3.1490    1.4830    3.6890 H   0  0  0  0  0  0  0  0  0  0  0  0
    1.8530    1.7190    4.8740 H   0  0  0  0  0  0  0  0  0  0  0  0
    1.4820    1.1860    3.1500 H   0  0  0  0  0  0  0  0  0  0  0  0
    4.1650   -0.7900    3.6400 H   0  0  0  0  0  0  0  0  0  0  0  0
    3.2260   -2.2000    4.1540 H   0  0  0  0  0  0  0  0  0  0  0  0
    3.4910   -2.0100    1.7090 H   0  0  0  0  0  0  0  0  0  0  0  0
    2.4020   -0.2500    0.5370 H   0  0  0  0  0  0  0  0  0  0  0  0
    3.5330    0.3710    1.6030 H   0  0  0  0  0  0  0  0  0  0  0  0
   -3.2020    3.3560   -1.7000 N   0  0  0  0  0  0  0  0  0  0  0  0
   -3.4230    1.9880   -1.3390 C   0  0  0  0  0  0  0  0  0  0  0  0
   -4.0170    1.1750   -2.1710 N   0  0  0  0  0  0  0  0  0  0  0  0
   -3.0200    1.4580   -0.0930 N   0  0  0  0  0  0  0  0  0  0  0  0
   -2.7420    0.0220    0.0800 C   0  0  0  0  0  0  0  0  0  0  0  0
   -2.3410   -0.2140    1.5070 C   0  0  0  0  0  0  0  0  0  0  0  0
   -2.0300   -1.6070    1.8830 C   0  0  0  0  0  0  0  0  0  0  0  0
   -0.8950   -2.2790    1.1720 C   0  0  2  0  0  0  0  0  0  0  0  0
    0.3770   -1.5850    1.3520 N   0  0  0  0  0  0  0  0  0  0  0  0
   -1.1970   -2.5630   -0.2400 C   0  0  0  0  0  0  0  0  0  0  0  0
   -2.2890   -3.0890   -0.5630 O   0  0  0  0  0  0  0  0  0  0  0  0
   -2.5850    3.9090   -1.0730 H   0  0  0  0  0  0  0  0  0  0  0  0
   -3.6500    3.7360   -2.5470 H   0  0  0  0  0  0  0  0  0  0  0  0
   -4.3430    1.4970   -3.1120 H   0  0  0  0  0  0  0  0  0  0  0  0
   -2.9210    2.1080    0.7140 H   0  0  0  0  0  0  0  0  0  0  0  0
   -2.0100   -0.2480   -0.6750 H   0  0  0  0  0  0  0  0  0  0  0  0
   -3.6740   -0.5510   -0.1530 H   0  0  0  0  0  0  0  0  0  0  0  0
   -3.2540    0.0780    2.1130 H   0  0  0  0  0  0  0  0  0  0  0  0
   -1.5760    0.5290    1.8550 H   0  0  0  0  0  0  0  0  0  0  0  0
   -2.9520   -2.2170    1.7080 H   0  0  0  0  0  0  0  0  0  0  0  0
   -1.8740   -1.6140    3.0020 H   0  0  0  0  0  0  0  0  0  0  0  0
   -0.8080   -3.2950    1.7110 H   0  0  0  0  0  0  0  0  0  0  0  0
    0.4380   -0.6350    0.9060 H   0  0  0  0  0  0  0  0  0  0  0  0
    0.7810   -0.5670   -3.4580 C   0  0  0  0  0  0  0  0  0  0  0  0
   -0.5760   -1.2490   -3.4970 C   0  0  1  0  0  0  0  0  0  0  0  0
   -0.8220   -1.5670   -4.8320 O   0  0  0  0  0  0  0  0  0  0  0  0
   -0.5290   -2.5230   -2.6680 C   0  0  2  0  0  0  0  0  0  0  0  0
   -0.2780   -2.2620   -1.2850 N   0  0  0  0  0  0  0  0  0  0  0  0
    0.4080   -3.5080   -3.2660 C   0  0  0  0  0  0  0  0  0  0  0  0
    0.2410   -3.7830   -4.4810 O   0  0  0  0  0  0  0  0  0  0  0  0
    1.4260   -4.1270   -2.5840 O   0  0  0  0  0  0  0  0  0  0  0  0
    1.3430   -0.7130   -4.4110 H   0  0  0  0  0  0  0  0  0  0  0  0
    0.6370    0.5350   -3.2770 H   0  0  0  0  0  0  0  0  0  0  0  0
    1.4290   -0.9740   -2.6590 H   0  0  0  0  0  0  0  0  0  0  0  0
   -1.3640   -0.5690   -3.1750 H   0  0  0  0  0  0  0  0  0  0  0  0
   -1.5060   -2.2570   -4.9510 H   0  0  0  0  0  0  0  0  0  0  0  0
   -1.5480   -2.9890   -2.7380 H   0  0  0  0  0  0  0  0  0  0  0  0
    0.6310   -1.8180   -0.9660 H   0  0  0  0  0  0  0  0  0  0  0  0
  1 11  1  0  0  0  0
  1 10  1  0  0  0  0
  2 12  1  0  0  0  0
  2  1  1  0  0  0  0
  3  2  1  0  0  0  0
  3 14  1  0  0  0  0
  4 16  1  0  0  0  0
  4 17  1  0  0  0  0
  4  2  1  0  0  0  0
  5 18  1  6  0  0  0
  5  4  1  0  0  0  0
  6 20  1  0  0  0  0
  6  5  1  0  0  0  0
  7  5  1  0  0  0  0
  7  8  2  0  0  0  0
  9  1  1  0  0  0  0
 13  3  1  0  0  0  0
 15  3  1  0  0  0  0
 19  6  1  0  0  0  0
 21 22  1  0  0  0  0
 21 32  1  0  0  0  0
 22 24  1  0  0  0  0
 23 22  2  0  0  0  0
 24 25  1  0  0  0  0
 24 35  1  0  0  0  0
 25 26  1  0  0  0  0
 26 39  1  0  0  0  0
 26 27  1  0  0  0  0
 26 38  1  0  0  0  0
 27 41  1  0  0  0  0
 28 29  1  0  0  0  0
 28 42  1  1  0  0  0
 28 27  1  0  0  0  0
 29  7  1  0  0  0  0
 30 28  1  0  0  0  0
 31 30  2  0  0  0  0
 33 21  1  0  0  0  0
 34 23  1  0  0  0  0
 36 25  1  0  0  0  0
 37 25  1  0  0  0  0
 40 27  1  0  0  0  0
 43 29  1  0  0  0  0
 44 53  1  0  0  0  0
 44 54  1  0  0  0  0
 45 44  1  0  0  0  0
 45 55  1  1  0  0  0
 45 47  1  0  0  0  0
 46 45  1  0  0  0  0
 47 57  1  6  0  0  0
 47 48  1  0  0  0  0
 48 58  1  0  0  0  0
 48 30  1  0  0  0  0
 49 47  1  0  0  0  0
 49 51  1  0  0  0  0
 50 49  2  0  0  0  0
 52 44  1  0  0  0  0
 56 46  1  0  0  0  0
M  END
$$$$
