LRY.pdb
 OpenBabel07022418443D

 65 65  0  0  1  0  0  0  0  0999 V2000
    3.4230    3.6030    1.9620 C   0  0  0  0  0  0  0  0  0  0  0  0
    2.3630    2.5000    2.1420 C   0  0  0  0  0  0  0  0  0  0  0  0
    1.7560    2.6330    3.4980 C   0  0  0  0  0  0  0  0  0  0  0  0
    2.9790    1.1600    1.8890 C   0  0  0  0  0  0  0  0  0  0  0  0
    2.0270    0.0240    2.0490 C   0  0  2  0  0  0  0  0  0  0  0  0
    2.7410   -1.2360    1.7830 N   0  0  0  0  0  0  0  0  0  0  0  0
    0.8730    0.1570    1.1380 C   0  0  0  0  0  0  0  0  0  0  0  0
    0.0280    1.0820    1.1750 O   0  0  0  0  0  0  0  0  0  0  0  0
    2.9300    4.5970    1.9490 H   0  0  0  0  0  0  0  0  0  0  0  0
    4.1070    3.6000    2.8330 H   0  0  0  0  0  0  0  0  0  0  0  0
    4.0250    3.4190    1.0460 H   0  0  0  0  0  0  0  0  0  0  0  0
    1.5820    2.7360    1.3810 H   0  0  0  0  0  0  0  0  0  0  0  0
    2.3400    2.0630    4.2750 H   0  0  0  0  0  0  0  0  0  0  0  0
    1.7360    3.7060    3.8380 H   0  0  0  0  0  0  0  0  0  0  0  0
    0.7160    2.2490    3.5650 H   0  0  0  0  0  0  0  0  0  0  0  0
    3.4810    1.1490    0.8990 H   0  0  0  0  0  0  0  0  0  0  0  0
    3.7770    1.0260    2.6780 H   0  0  0  0  0  0  0  0  0  0  0  0
    1.7300   -0.0250    3.1250 H   0  0  0  0  0  0  0  0  0  0  0  0
    3.1240   -1.2060    0.8070 H   0  0  0  0  0  0  0  0  0  0  0  0
    2.0600   -2.0390    1.8900 H   0  0  0  0  0  0  0  0  0  0  0  0
   -1.9980    1.7080   -5.2200 N   0  0  0  0  0  0  0  0  0  0  0  0
   -0.6520    1.5720   -4.8440 C   0  0  0  0  0  0  0  0  0  0  0  0
    0.0150    2.6260   -4.5050 N   0  0  0  0  0  0  0  0  0  0  0  0
    0.0230    0.3220   -4.8180 N   0  0  0  0  0  0  0  0  0  0  0  0
    1.2680    0.2280   -4.0580 C   0  0  0  0  0  0  0  0  0  0  0  0
    0.8900    0.3690   -2.5960 C   0  0  0  0  0  0  0  0  0  0  0  0
   -0.0510   -0.7450   -2.2580 C   0  0  0  0  0  0  0  0  0  0  0  0
   -0.4980   -0.7030   -0.8110 C   0  0  2  0  0  0  0  0  0  0  0  0
    0.6260   -0.8120    0.0940 N   0  0  0  0  0  0  0  0  0  0  0  0
   -1.3510   -1.9260   -0.5780 C   0  0  0  0  0  0  0  0  0  0  0  0
   -2.3980   -2.0550   -1.2640 O   0  0  0  0  0  0  0  0  0  0  0  0
   -2.5580    2.5060   -4.8390 H   0  0  0  0  0  0  0  0  0  0  0  0
   -2.4940    1.0440   -5.8740 H   0  0  0  0  0  0  0  0  0  0  0  0
   -0.4170    3.5680   -4.5020 H   0  0  0  0  0  0  0  0  0  0  0  0
   -0.3750   -0.4870   -5.3320 H   0  0  0  0  0  0  0  0  0  0  0  0
    1.9860    1.0140   -4.3740 H   0  0  0  0  0  0  0  0  0  0  0  0
    1.6670   -0.7990   -4.1990 H   0  0  0  0  0  0  0  0  0  0  0  0
    1.8300    0.2450   -1.9900 H   0  0  0  0  0  0  0  0  0  0  0  0
    0.4190    1.3520   -2.4270 H   0  0  0  0  0  0  0  0  0  0  0  0
    0.4180   -1.7240   -2.4610 H   0  0  0  0  0  0  0  0  0  0  0  0
   -0.9420   -0.6820   -2.9150 H   0  0  0  0  0  0  0  0  0  0  0  0
   -1.1160    0.1920   -0.6060 H   0  0  0  0  0  0  0  0  0  0  0  0
    1.2820   -1.6100   -0.0030 H   0  0  0  0  0  0  0  0  0  0  0  0
   -1.4850   -1.7380    6.4150 O   0  0  0  0  0  0  0  0  0  0  0  0
   -1.8720   -2.1940    5.1470 C   0  0  0  0  0  0  0  0  0  0  0  0
   -2.1070   -3.5280    4.9780 C   0  0  0  0  0  0  0  0  0  0  0  0
   -2.4940   -3.9990    3.7210 C   0  0  0  0  0  0  0  0  0  0  0  0
   -2.6420   -3.1510    2.6500 C   0  0  0  0  0  0  0  0  0  0  0  0
   -3.0550   -3.7020    1.3380 C   0  0  0  0  0  0  0  0  0  0  0  0
   -1.8310   -4.0730    0.5780 C   0  0  2  0  0  0  0  0  0  0  0  0
   -1.0000   -2.9090    0.3800 N   0  0  0  0  0  0  0  0  0  0  0  0
   -2.0910   -4.8310   -0.6760 C   0  0  0  0  0  0  0  0  0  0  0  0
   -1.5590   -4.4440   -1.7390 O   0  0  0  0  0  0  0  0  0  0  0  0
   -2.4020   -1.8070    2.8300 C   0  0  0  0  0  0  0  0  0  0  0  0
   -2.0170   -1.3370    4.0820 C   0  0  0  0  0  0  0  0  0  0  0  0
   -2.8920   -5.9440   -0.7310 O   0  0  0  0  0  0  0  0  0  0  0  0
   -1.8250   -0.8220    6.7480 H   0  0  0  0  0  0  0  0  0  0  0  0
   -1.9910   -4.1980    5.8210 H   0  0  0  0  0  0  0  0  0  0  0  0
   -2.6790   -5.0570    3.5930 H   0  0  0  0  0  0  0  0  0  0  0  0
   -3.7170   -2.9990    0.7920 H   0  0  0  0  0  0  0  0  0  0  0  0
   -3.6910   -4.6020    1.5520 H   0  0  0  0  0  0  0  0  0  0  0  0
   -1.2510   -4.8170    1.2170 H   0  0  0  0  0  0  0  0  0  0  0  0
   -0.1070   -2.7610    0.9440 H   0  0  0  0  0  0  0  0  0  0  0  0
   -2.5200   -1.1310    1.9810 H   0  0  0  0  0  0  0  0  0  0  0  0
   -1.8290   -0.2780    4.2220 H   0  0  0  0  0  0  0  0  0  0  0  0
  1  2  1  0  0  0  0
  1 10  1  0  0  0  0
  2  3  1  0  0  0  0
  3 15  1  0  0  0  0
  3 14  1  0  0  0  0
  3 13  1  0  0  0  0
  4  5  1  0  0  0  0
  4  2  1  0  0  0  0
  4 17  1  0  0  0  0
  5 18  1  1  0  0  0
  6 20  1  0  0  0  0
  6  5  1  0  0  0  0
  7  8  2  0  0  0  0
  7  5  1  0  0  0  0
  9  1  1  0  0  0  0
 11  1  1  0  0  0  0
 12  2  1  0  0  0  0
 16  4  1  0  0  0  0
 19  6  1  0  0  0  0
 21 22  1  0  0  0  0
 21 32  1  0  0  0  0
 22 24  1  0  0  0  0
 22 23  2  0  0  0  0
 23 34  1  0  0  0  0
 24 25  1  0  0  0  0
 25 26  1  0  0  0  0
 26 39  1  0  0  0  0
 26 27  1  0  0  0  0
 26 38  1  0  0  0  0
 27 28  1  0  0  0  0
 28 42  1  1  0  0  0
 28 30  1  0  0  0  0
 28 29  1  0  0  0  0
 29  7  1  0  0  0  0
 30 51  1  0  0  0  0
 31 30  2  0  0  0  0
 33 21  1  0  0  0  0
 35 24  1  0  0  0  0
 36 25  1  0  0  0  0
 37 25  1  0  0  0  0
 40 27  1  0  0  0  0
 41 27  1  0  0  0  0
 43 29  1  0  0  0  0
 44 57  1  0  0  0  0
 45 44  1  0  0  0  0
 46 45  1  0  0  0  0
 46 58  1  0  0  0  0
 47 46  2  0  0  0  0
 48 54  2  0  0  0  0
 48 47  1  0  0  0  0
 49 61  1  0  0  0  0
 49 48  1  0  0  0  0
 50 62  1  1  0  0  0
 50 49  1  0  0  0  0
 51 50  1  0  0  0  0
 51 63  1  0  0  0  0
 52 50  1  0  0  0  0
 53 52  2  0  0  0  0
 54 55  1  0  0  0  0
 55 65  1  0  0  0  0
 55 45  2  0  0  0  0
 56 52  1  0  0  0  0
 59 47  1  0  0  0  0
 60 49  1  0  0  0  0
 64 54  1  0  0  0  0
M  END
$$$$
