LSE.pdb
 OpenBabel07022418473D

 48 47  0  0  1  0  0  0  0  0999 V2000
    2.2650   -3.0130    4.7800 C   0  0  0  0  0  0  0  0  0  0  0  0
    2.6300   -1.8060    3.8920 C   0  0  0  0  0  0  0  0  0  0  0  0
    1.2880   -1.2190    3.4590 C   0  0  0  0  0  0  0  0  0  0  0  0
    3.3480   -2.3640    2.7150 C   0  0  0  0  0  0  0  0  0  0  0  0
    3.8210   -1.3650    1.6990 C   0  0  2  0  0  0  0  0  0  0  0  0
    4.7510   -0.3800    2.2660 N   0  0  0  0  0  0  0  0  0  0  0  0
    2.7830   -0.7250    0.8940 C   0  0  0  0  0  0  0  0  0  0  0  0
    2.8160    0.5430    0.7350 O   0  0  0  0  0  0  0  0  0  0  0  0
    1.7150   -2.6250    5.6430 H   0  0  0  0  0  0  0  0  0  0  0  0
    1.5420   -3.6270    4.1780 H   0  0  0  0  0  0  0  0  0  0  0  0
    3.1340   -3.6260    5.0060 H   0  0  0  0  0  0  0  0  0  0  0  0
    3.2170   -1.0800    4.4720 H   0  0  0  0  0  0  0  0  0  0  0  0
    1.4220   -0.2730    2.9090 H   0  0  0  0  0  0  0  0  0  0  0  0
    0.6990   -0.9130    4.3790 H   0  0  0  0  0  0  0  0  0  0  0  0
    0.6750   -1.9660    2.9500 H   0  0  0  0  0  0  0  0  0  0  0  0
    2.7360   -3.1080    2.1580 H   0  0  0  0  0  0  0  0  0  0  0  0
    4.2640   -2.9460    3.0240 H   0  0  0  0  0  0  0  0  0  0  0  0
    4.5090   -1.9730    1.0120 H   0  0  0  0  0  0  0  0  0  0  0  0
    4.5300   -0.1310    3.2360 H   0  0  0  0  0  0  0  0  0  0  0  0
    4.7180    0.5120    1.7140 H   0  0  0  0  0  0  0  0  0  0  0  0
    0.9430   -2.3990   -2.2320 O   0  0  0  0  0  0  0  0  0  0  0  0
    1.0200   -1.0480   -1.9970 C   0  0  0  0  0  0  0  0  0  0  0  0
    0.7220   -0.6920   -0.5320 C   0  0  2  0  0  0  0  0  0  0  0  0
    1.7120   -1.3790    0.2510 N   0  0  0  0  0  0  0  0  0  0  0  0
   -0.6660   -0.9600   -0.1800 C   0  0  0  0  0  0  0  0  0  0  0  0
   -0.9370   -1.7450    0.7530 O   0  0  0  0  0  0  0  0  0  0  0  0
    0.7370   -2.9530   -1.4600 H   0  0  0  0  0  0  0  0  0  0  0  0
    2.0820   -0.7400   -2.1620 H   0  0  0  0  0  0  0  0  0  0  0  0
    0.4090   -0.4230   -2.6770 H   0  0  0  0  0  0  0  0  0  0  0  0
    0.9760    0.4080   -0.4810 H   0  0  0  0  0  0  0  0  0  0  0  0
    1.6450   -2.4150    0.3570 H   0  0  0  0  0  0  0  0  0  0  0  0
   -1.7110   -0.3240   -0.9020 N   0  0  0  0  0  0  0  0  0  0  0  0
   -3.0850   -0.5770   -0.5670 C   0  0  1  0  0  0  0  0  0  0  0  0
   -3.6630    0.6850    0.0410 C   0  0  0  0  0  0  0  0  0  0  0  0
   -3.5650    1.7850   -0.9720 C   0  0  0  0  0  0  0  0  0  0  0  0
   -4.1350    3.0710   -0.4340 C   0  0  0  0  0  0  0  0  0  0  0  0
   -4.6060    3.1310    0.7270 O   0  0  0  0  0  0  0  0  0  0  0  0
   -3.9240   -0.9240   -1.7210 C   0  0  0  0  0  0  0  0  0  0  0  0
   -5.1420   -1.1680   -1.5290 O   0  0  0  0  0  0  0  0  0  0  0  0
   -4.1570    4.2240   -1.2000 O   0  0  0  0  0  0  0  0  0  0  0  0
   -3.4940   -1.0110   -3.0340 O   0  0  0  0  0  0  0  0  0  0  0  0
   -1.5000    0.3360   -1.6960 H   0  0  0  0  0  0  0  0  0  0  0  0
   -3.1510   -1.3400    0.2660 H   0  0  0  0  0  0  0  0  0  0  0  0
   -3.0610    0.9830    0.9400 H   0  0  0  0  0  0  0  0  0  0  0  0
   -4.7320    0.5520    0.3060 H   0  0  0  0  0  0  0  0  0  0  0  0
   -4.1720    1.5400   -1.8700 H   0  0  0  0  0  0  0  0  0  0  0  0
   -2.5350    2.0040   -1.3110 H   0  0  0  0  0  0  0  0  0  0  0  0
   -4.4930    5.1160   -0.9190 H   0  0  0  0  0  0  0  0  0  0  0  0
  1 11  1  0  0  0  0
  1  9  1  0  0  0  0
  2 12  1  0  0  0  0
  2  1  1  0  0  0  0
  3  2  1  0  0  0  0
  3 14  1  0  0  0  0
  4 17  1  0  0  0  0
  4  2  1  0  0  0  0
  5 18  1  6  0  0  0
  5  6  1  0  0  0  0
  5  4  1  0  0  0  0
  6 19  1  0  0  0  0
  7  5  1  0  0  0  0
  8  7  2  0  0  0  0
 10  1  1  0  0  0  0
 13  3  1  0  0  0  0
 15  3  1  0  0  0  0
 16  4  1  0  0  0  0
 20  6  1  0  0  0  0
 21 22  1  0  0  0  0
 21 27  1  0  0  0  0
 22 23  1  0  0  0  0
 23 30  1  1  0  0  0
 23 25  1  0  0  0  0
 23 24  1  0  0  0  0
 24 31  1  0  0  0  0
 24  7  1  0  0  0  0
 25 26  2  0  0  0  0
 28 22  1  0  0  0  0
 29 22  1  0  0  0  0
 32 33  1  0  0  0  0
 32 25  1  0  0  0  0
 33 34  1  0  0  0  0
 33 43  1  1  0  0  0
 34 45  1  0  0  0  0
 34 44  1  0  0  0  0
 35 36  1  0  0  0  0
 35 34  1  0  0  0  0
 36 37  2  0  0  0  0
 38 39  1  0  0  0  0
 38 33  1  0  0  0  0
 40 48  1  0  0  0  0
 40 36  1  0  0  0  0
 41 38  2  0  0  0  0
 42 32  1  0  0  0  0
 46 35  1  0  0  0  0
 47 35  1  0  0  0  0
M  END
$$$$
