LSF.pdb
 OpenBabel07022418473D

 52 52  0  0  1  0  0  0  0  0999 V2000
    3.9950   -2.2960   -0.9350 C   0  0  0  0  0  0  0  0  0  0  0  0
    4.4230   -1.3990    0.2040 C   0  0  0  0  0  0  0  0  0  0  0  0
    4.4240    0.0300   -0.2430 C   0  0  0  0  0  0  0  0  0  0  0  0
    3.7010   -1.6690    1.4710 C   0  0  0  0  0  0  0  0  0  0  0  0
    2.2230   -1.5060    1.4270 C   0  0  2  0  0  0  0  0  0  0  0  0
    1.5550   -2.3540    0.4880 N   0  0  0  0  0  0  0  0  0  0  0  0
    1.7980   -0.0850    1.3140 C   0  0  0  0  0  0  0  0  0  0  0  0
    2.2860    0.8080    2.0520 O   0  0  0  0  0  0  0  0  0  0  0  0
    4.7390   -2.1270   -1.7630 H   0  0  0  0  0  0  0  0  0  0  0  0
    4.0750   -3.3460   -0.6430 H   0  0  0  0  0  0  0  0  0  0  0  0
    3.0160   -2.0210   -1.3630 H   0  0  0  0  0  0  0  0  0  0  0  0
    5.5070   -1.6650    0.3930 H   0  0  0  0  0  0  0  0  0  0  0  0
    4.9300    0.6740    0.5270 H   0  0  0  0  0  0  0  0  0  0  0  0
    3.4590    0.4300   -0.5430 H   0  0  0  0  0  0  0  0  0  0  0  0
    5.1050    0.0860   -1.1340 H   0  0  0  0  0  0  0  0  0  0  0  0
    4.0900   -0.9460    2.2360 H   0  0  0  0  0  0  0  0  0  0  0  0
    3.9860   -2.6680    1.8460 H   0  0  0  0  0  0  0  0  0  0  0  0
    1.8470   -1.8290    2.4470 H   0  0  0  0  0  0  0  0  0  0  0  0
    0.5150   -2.1920    0.6220 H   0  0  0  0  0  0  0  0  0  0  0  0
    1.7000   -3.3500    0.8070 H   0  0  0  0  0  0  0  0  0  0  0  0
    0.0990    1.7400   -2.1410 O   0  0  0  0  0  0  0  0  0  0  0  0
    0.6920    2.3490   -1.0780 C   0  0  0  0  0  0  0  0  0  0  0  0
    0.4030    1.7260    0.2560 C   0  0  2  0  0  0  0  0  0  0  0  0
    0.8180    0.3640    0.3720 N   0  0  0  0  0  0  0  0  0  0  0  0
   -1.0290    1.8540    0.6370 C   0  0  0  0  0  0  0  0  0  0  0  0
   -1.6350    2.9580    0.6200 O   0  0  0  0  0  0  0  0  0  0  0  0
    0.6640    1.4920   -2.8860 H   0  0  0  0  0  0  0  0  0  0  0  0
    0.3150    3.4020   -1.0270 H   0  0  0  0  0  0  0  0  0  0  0  0
    1.7830    2.4250   -1.2490 H   0  0  0  0  0  0  0  0  0  0  0  0
    0.9820    2.3120    1.0160 H   0  0  0  0  0  0  0  0  0  0  0  0
    0.3720   -0.3410   -0.2750 H   0  0  0  0  0  0  0  0  0  0  0  0
   -1.8030    0.7230    1.0460 N   0  0  0  0  0  0  0  0  0  0  0  0
   -3.2140    0.8640    1.4180 C   0  0  1  0  0  0  0  0  0  0  0  0
   -4.1000    0.0260    0.5220 C   0  0  0  0  0  0  0  0  0  0  0  0
   -3.7770   -1.4060    0.5910 C   0  0  0  0  0  0  0  0  0  0  0  0
   -4.3670   -2.2600    1.4920 C   0  0  0  0  0  0  0  0  0  0  0  0
   -4.0220   -3.5920    1.5080 C   0  0  0  0  0  0  0  0  0  0  0  0
   -3.0900   -4.1390    0.6470 C   0  0  0  0  0  0  0  0  0  0  0  0
   -2.5070   -3.2580   -0.2540 C   0  0  0  0  0  0  0  0  0  0  0  0
   -2.8390   -1.9330   -0.2820 C   0  0  0  0  0  0  0  0  0  0  0  0
   -3.3600    0.5010    2.8490 C   0  0  0  0  0  0  0  0  0  0  0  0
   -2.3640    0.1480    3.5270 O   0  0  0  0  0  0  0  0  0  0  0  0
   -4.5860    0.5360    3.4920 O   0  0  0  0  0  0  0  0  0  0  0  0
   -1.3360   -0.1960    1.0700 H   0  0  0  0  0  0  0  0  0  0  0  0
   -3.5290    1.9230    1.3260 H   0  0  0  0  0  0  0  0  0  0  0  0
   -5.1430    0.2580    0.7990 H   0  0  0  0  0  0  0  0  0  0  0  0
   -3.9360    0.3970   -0.5140 H   0  0  0  0  0  0  0  0  0  0  0  0
   -5.1010   -1.8850    2.1870 H   0  0  0  0  0  0  0  0  0  0  0  0
   -4.4810   -4.2950    2.2200 H   0  0  0  0  0  0  0  0  0  0  0  0
   -2.8180   -5.1830    0.6570 H   0  0  0  0  0  0  0  0  0  0  0  0
   -1.7760   -3.6920   -0.9280 H   0  0  0  0  0  0  0  0  0  0  0  0
   -2.3720   -1.2450   -0.9980 H   0  0  0  0  0  0  0  0  0  0  0  0
  1 10  1  0  0  0  0
  1  2  1  0  0  0  0
  2 12  1  0  0  0  0
  2  4  1  0  0  0  0
  3  2  1  0  0  0  0
  3 13  1  0  0  0  0
  4 17  1  0  0  0  0
  4 16  1  0  0  0  0
  5  4  1  0  0  0  0
  5 18  1  1  0  0  0
  6 19  1  0  0  0  0
  6 20  1  0  0  0  0
  6  5  1  0  0  0  0
  7  5  1  0  0  0  0
  7  8  2  0  0  0  0
  9  1  1  0  0  0  0
 11  1  1  0  0  0  0
 14  3  1  0  0  0  0
 15  3  1  0  0  0  0
 21 22  1  0  0  0  0
 22 28  1  0  0  0  0
 22 23  1  0  0  0  0
 23 24  1  0  0  0  0
 23 25  1  0  0  0  0
 23 30  1  1  0  0  0
 24  7  1  0  0  0  0
 25 32  1  0  0  0  0
 26 25  2  0  0  0  0
 27 21  1  0  0  0  0
 29 22  1  0  0  0  0
 31 24  1  0  0  0  0
 32 44  1  0  0  0  0
 32 33  1  0  0  0  0
 33 45  1  6  0  0  0
 33 41  1  0  0  0  0
 34 35  1  0  0  0  0
 34 46  1  0  0  0  0
 34 33  1  0  0  0  0
 35 36  1  0  0  0  0
 36 37  2  0  0  0  0
 36 48  1  0  0  0  0
 37 49  1  0  0  0  0
 38 50  1  0  0  0  0
 38 37  1  0  0  0  0
 39 38  2  0  0  0  0
 40 39  1  0  0  0  0
 40 35  2  0  0  0  0
 41 43  2  0  0  0  0
 41 42  1  0  0  0  0
 47 34  1  0  0  0  0
 51 39  1  0  0  0  0
 52 40  1  0  0  0  0
M  END
$$$$
