LSG.pdb
 OpenBabel07022418473D

 39 38  0  0  1  0  0  0  0  0999 V2000
    0.7570   -4.0410    1.2370 C   0  0  0  0  0  0  0  0  0  0  0  0
    1.8710   -3.2300    1.7900 C   0  0  0  0  0  0  0  0  0  0  0  0
    2.8680   -4.2040    2.4360 C   0  0  0  0  0  0  0  0  0  0  0  0
    1.4840   -2.2530    2.8400 C   0  0  0  0  0  0  0  0  0  0  0  0
    0.4930   -1.2210    2.4200 C   0  0  2  0  0  0  0  0  0  0  0  0
   -0.7610   -1.7620    1.9770 N   0  0  0  0  0  0  0  0  0  0  0  0
    1.0490   -0.2860    1.4090 C   0  0  0  0  0  0  0  0  0  0  0  0
    2.1470    0.2970    1.5990 O   0  0  0  0  0  0  0  0  0  0  0  0
    1.2110   -4.9510    0.7440 H   0  0  0  0  0  0  0  0  0  0  0  0
    0.2170   -3.5260    0.3960 H   0  0  0  0  0  0  0  0  0  0  0  0
    0.0580   -4.4400    1.9850 H   0  0  0  0  0  0  0  0  0  0  0  0
    2.4250   -2.7770    0.9380 H   0  0  0  0  0  0  0  0  0  0  0  0
    3.7930   -3.6890    2.7410 H   0  0  0  0  0  0  0  0  0  0  0  0
    2.3940   -4.6280    3.3420 H   0  0  0  0  0  0  0  0  0  0  0  0
    3.0770   -5.0520    1.7610 H   0  0  0  0  0  0  0  0  0  0  0  0
    2.4230   -1.7010    3.1360 H   0  0  0  0  0  0  0  0  0  0  0  0
    1.1770   -2.7960    3.7530 H   0  0  0  0  0  0  0  0  0  0  0  0
    0.2700   -0.5950    3.3240 H   0  0  0  0  0  0  0  0  0  0  0  0
   -1.5220   -1.0690    1.9270 H   0  0  0  0  0  0  0  0  0  0  0  0
   -1.0690   -2.4560    2.7220 H   0  0  0  0  0  0  0  0  0  0  0  0
    1.7290    1.3040   -2.9290 O   0  0  0  0  0  0  0  0  0  0  0  0
    1.1820    0.3180   -2.1090 C   0  0  0  0  0  0  0  0  0  0  0  0
    0.9450    0.9060   -0.7650 C   0  0  2  0  0  0  0  0  0  0  0  0
    0.3790   -0.0030    0.1890 N   0  0  0  0  0  0  0  0  0  0  0  0
    0.0160    2.0540   -0.9000 C   0  0  0  0  0  0  0  0  0  0  0  0
    0.3280    2.9720   -1.6940 O   0  0  0  0  0  0  0  0  0  0  0  0
    2.5870    1.0410   -3.3090 H   0  0  0  0  0  0  0  0  0  0  0  0
    0.2590   -0.0400   -2.5920 H   0  0  0  0  0  0  0  0  0  0  0  0
    1.9480   -0.4910   -2.0280 H   0  0  0  0  0  0  0  0  0  0  0  0
    1.9280    1.3050   -0.3870 H   0  0  0  0  0  0  0  0  0  0  0  0
   -0.5330   -0.4470   -0.0390 H   0  0  0  0  0  0  0  0  0  0  0  0
   -1.2040    2.1760   -0.1860 N   0  0  0  0  0  0  0  0  0  0  0  0
   -2.0930    3.3090   -0.3380 C   0  0  0  0  0  0  0  0  0  0  0  0
   -3.2620    3.1060    0.5520 C   0  0  0  0  0  0  0  0  0  0  0  0
   -3.3760    2.0860    1.2810 O   0  0  0  0  0  0  0  0  0  0  0  0
   -4.2880    4.0570    0.6070 O   0  0  0  0  0  0  0  0  0  0  0  0
   -1.4310    1.3810    0.4720 H   0  0  0  0  0  0  0  0  0  0  0  0
   -2.4110    3.4420   -1.3890 H   0  0  0  0  0  0  0  0  0  0  0  0
   -1.6150    4.2590   -0.0290 H   0  0  0  0  0  0  0  0  0  0  0  0
  1  2  1  0  0  0  0
  1 11  1  0  0  0  0
  2  3  1  0  0  0  0
  2  4  1  0  0  0  0
  3 13  1  0  0  0  0
  3 14  1  0  0  0  0
  4 16  1  0  0  0  0
  4 17  1  0  0  0  0
  5  4  1  0  0  0  0
  5 18  1  1  0  0  0
  6  5  1  0  0  0  0
  6 20  1  0  0  0  0
  7  8  2  0  0  0  0
  7  5  1  0  0  0  0
  9  1  1  0  0  0  0
 10  1  1  0  0  0  0
 12  2  1  0  0  0  0
 15  3  1  0  0  0  0
 19  6  1  0  0  0  0
 21 22  1  0  0  0  0
 22 29  1  0  0  0  0
 22 23  1  0  0  0  0
 23 30  1  1  0  0  0
 23 24  1  0  0  0  0
 24  7  1  0  0  0  0
 25 23  1  0  0  0  0
 25 32  1  0  0  0  0
 26 25  2  0  0  0  0
 27 21  1  0  0  0  0
 28 22  1  0  0  0  0
 31 24  1  0  0  0  0
 32 37  1  0  0  0  0
 33 32  1  0  0  0  0
 33 39  1  0  0  0  0
 33 34  1  0  0  0  0
 34 36  2  0  0  0  0
 34 35  1  0  0  0  0
 38 33  1  0  0  0  0
M  END
$$$$
