LSH.pdb
 OpenBabel07022418473D

 49 49  0  0  1  0  0  0  0  0999 V2000
    3.4980   -4.1890    0.3810 C   0  0  0  0  0  0  0  0  0  0  0  0
    3.3450   -3.1750    1.5340 C   0  0  0  0  0  0  0  0  0  0  0  0
    1.8880   -2.9600    1.7120 C   0  0  0  0  0  0  0  0  0  0  0  0
    4.1610   -1.9930    1.1460 C   0  0  0  0  0  0  0  0  0  0  0  0
    4.1780   -0.8580    2.1290 C   0  0  2  0  0  0  0  0  0  0  0  0
    4.6970   -1.3940    3.3740 N   0  0  0  0  0  0  0  0  0  0  0  0
    2.8540   -0.2570    2.3610 C   0  0  0  0  0  0  0  0  0  0  0  0
    2.2680   -0.2980    3.4960 O   0  0  0  0  0  0  0  0  0  0  0  0
    2.8590   -3.8160   -0.4500 H   0  0  0  0  0  0  0  0  0  0  0  0
    4.5500   -4.2630    0.0750 H   0  0  0  0  0  0  0  0  0  0  0  0
    3.0690   -5.1310    0.7470 H   0  0  0  0  0  0  0  0  0  0  0  0
    3.7270   -3.6580    2.4710 H   0  0  0  0  0  0  0  0  0  0  0  0
    1.3800   -3.9450    1.4540 H   0  0  0  0  0  0  0  0  0  0  0  0
    1.4180   -2.2350    1.0430 H   0  0  0  0  0  0  0  0  0  0  0  0
    1.5900   -2.8220    2.7890 H   0  0  0  0  0  0  0  0  0  0  0  0
    5.2220   -2.2840    0.9390 H   0  0  0  0  0  0  0  0  0  0  0  0
    3.7790   -1.5400    0.1810 H   0  0  0  0  0  0  0  0  0  0  0  0
    4.9170   -0.0910    1.7690 H   0  0  0  0  0  0  0  0  0  0  0  0
    5.5090   -2.0150    3.2100 H   0  0  0  0  0  0  0  0  0  0  0  0
    3.9730   -1.7860    3.9890 H   0  0  0  0  0  0  0  0  0  0  0  0
    1.4520    2.9490    0.2730 O   0  0  0  0  0  0  0  0  0  0  0  0
    0.9660    2.5420    1.5140 C   0  0  0  0  0  0  0  0  0  0  0  0
    0.8130    1.0210    1.5690 C   0  0  2  0  0  0  0  0  0  0  0  0
    2.1180    0.4240    1.3430 N   0  0  0  0  0  0  0  0  0  0  0  0
   -0.1150    0.5530    0.5080 C   0  0  0  0  0  0  0  0  0  0  0  0
    0.2680   -0.2240   -0.4050 O   0  0  0  0  0  0  0  0  0  0  0  0
    1.9670    3.7930    0.3320 H   0  0  0  0  0  0  0  0  0  0  0  0
    1.7310    2.8020    2.2690 H   0  0  0  0  0  0  0  0  0  0  0  0
    0.0290    3.0290    1.7980 H   0  0  0  0  0  0  0  0  0  0  0  0
    0.4460    0.8190    2.5990 H   0  0  0  0  0  0  0  0  0  0  0  0
    2.5580    0.4810    0.4010 H   0  0  0  0  0  0  0  0  0  0  0  0
   -1.4790    0.9490    0.4580 N   0  0  0  0  0  0  0  0  0  0  0  0
   -2.4060    0.5030   -0.5700 C   0  0  1  0  0  0  0  0  0  0  0  0
   -3.4760   -0.2850    0.1480 C   0  0  0  0  0  0  0  0  0  0  0  0
   -4.5210   -0.8310   -0.7140 C   0  0  0  0  0  0  0  0  0  0  0  0
   -5.7030   -0.2350   -1.0600 C   0  0  0  0  0  0  0  0  0  0  0  0
   -6.3730   -1.0630   -1.8490 N   0  0  0  0  0  0  0  0  0  0  0  0
   -5.6400   -2.1680   -2.0090 C   0  0  0  0  0  0  0  0  0  0  0  0
   -4.5050   -2.0300   -1.3150 N   0  0  0  0  0  0  0  0  0  0  0  0
   -3.0180    1.6180   -1.2940 C   0  0  0  0  0  0  0  0  0  0  0  0
   -3.8240    1.3790   -2.2250 O   0  0  0  0  0  0  0  0  0  0  0  0
   -2.7660    2.9600   -1.0190 O   0  0  0  0  0  0  0  0  0  0  0  0
   -1.8240    1.5910    1.2000 H   0  0  0  0  0  0  0  0  0  0  0  0
   -1.9340   -0.1680   -1.2970 H   0  0  0  0  0  0  0  0  0  0  0  0
   -3.9010    0.4100    0.9280 H   0  0  0  0  0  0  0  0  0  0  0  0
   -2.9570   -1.1220    0.6940 H   0  0  0  0  0  0  0  0  0  0  0  0
   -6.0580    0.7350   -0.7610 H   0  0  0  0  0  0  0  0  0  0  0  0
   -7.3230   -0.9380   -2.3080 H   0  0  0  0  0  0  0  0  0  0  0  0
   -5.9040   -3.0430   -2.6000 H   0  0  0  0  0  0  0  0  0  0  0  0
  1 11  1  0  0  0  0
  1  2  1  0  0  0  0
  2  3  1  0  0  0  0
  2 12  1  0  0  0  0
  3 15  1  0  0  0  0
  4  2  1  0  0  0  0
  4  5  1  0  0  0  0
  5 18  1  6  0  0  0
  5  7  1  0  0  0  0
  5  6  1  0  0  0  0
  6 20  1  0  0  0  0
  7  8  2  0  0  0  0
  9  1  1  0  0  0  0
 10  1  1  0  0  0  0
 13  3  1  0  0  0  0
 14  3  1  0  0  0  0
 16  4  1  0  0  0  0
 17  4  1  0  0  0  0
 19  6  1  0  0  0  0
 21 27  1  0  0  0  0
 21 22  1  0  0  0  0
 22 23  1  0  0  0  0
 22 29  1  0  0  0  0
 22 28  1  0  0  0  0
 23 30  1  1  0  0  0
 24 23  1  0  0  0  0
 24  7  1  0  0  0  0
 25 23  1  0  0  0  0
 26 25  2  0  0  0  0
 31 24  1  0  0  0  0
 32 25  1  0  0  0  0
 32 43  1  0  0  0  0
 33 44  1  6  0  0  0
 33 34  1  0  0  0  0
 33 32  1  0  0  0  0
 34 46  1  0  0  0  0
 34 45  1  0  0  0  0
 35 34  1  0  0  0  0
 36 47  1  0  0  0  0
 36 35  2  0  0  0  0
 37 36  1  0  0  0  0
 38 37  1  0  0  0  0
 38 39  2  0  0  0  0
 39 35  1  0  0  0  0
 40 42  1  0  0  0  0
 40 33  1  0  0  0  0
 41 40  2  0  0  0  0
 48 37  1  0  0  0  0
 49 38  1  0  0  0  0
M  END
$$$$
