LSI.pdb
 OpenBabel07022418473D

 51 50  0  0  1  0  0  0  0  0999 V2000
    1.1590   -2.5240    3.5750 C   0  0  0  0  0  0  0  0  0  0  0  0
    1.9560   -1.2930    3.0980 C   0  0  0  0  0  0  0  0  0  0  0  0
    0.9970   -0.1750    2.9690 C   0  0  0  0  0  0  0  0  0  0  0  0
    2.6930   -1.7320    1.9010 C   0  0  0  0  0  0  0  0  0  0  0  0
    3.5670   -0.7680    1.2030 C   0  0  2  0  0  0  0  0  0  0  0  0
    4.6300   -0.2250    2.0190 N   0  0  0  0  0  0  0  0  0  0  0  0
    2.8730    0.2590    0.3950 C   0  0  0  0  0  0  0  0  0  0  0  0
    3.1880    1.4800    0.4180 O   0  0  0  0  0  0  0  0  0  0  0  0
    0.8050   -2.4080    4.5980 H   0  0  0  0  0  0  0  0  0  0  0  0
    0.2990   -2.6410    2.8570 H   0  0  0  0  0  0  0  0  0  0  0  0
    1.7800   -3.4410    3.4080 H   0  0  0  0  0  0  0  0  0  0  0  0
    2.6750   -1.0950    3.9360 H   0  0  0  0  0  0  0  0  0  0  0  0
    1.3210    0.5920    2.2400 H   0  0  0  0  0  0  0  0  0  0  0  0
   -0.0560   -0.4900    2.8220 H   0  0  0  0  0  0  0  0  0  0  0  0
    0.9750    0.3860    3.9530 H   0  0  0  0  0  0  0  0  0  0  0  0
    1.9410   -2.1000    1.1580 H   0  0  0  0  0  0  0  0  0  0  0  0
    3.2450   -2.6770    2.1840 H   0  0  0  0  0  0  0  0  0  0  0  0
    4.1340   -1.3800    0.4210 H   0  0  0  0  0  0  0  0  0  0  0  0
    5.2910    0.2590    1.3650 H   0  0  0  0  0  0  0  0  0  0  0  0
    5.1580   -1.0400    2.4060 H   0  0  0  0  0  0  0  0  0  0  0  0
    2.8230    0.7090   -2.8410 O   0  0  0  0  0  0  0  0  0  0  0  0
    1.4410    0.5820   -2.7370 C   0  0  0  0  0  0  0  0  0  0  0  0
    1.0990    0.8920   -1.2770 C   0  0  2  0  0  0  0  0  0  0  0  0
    1.7920   -0.0610   -0.4740 N   0  0  0  0  0  0  0  0  0  0  0  0
   -0.3390    1.0030   -1.0610 C   0  0  0  0  0  0  0  0  0  0  0  0
   -1.0290    1.8200   -1.7690 O   0  0  0  0  0  0  0  0  0  0  0  0
    3.2530   -0.1540   -3.0300 H   0  0  0  0  0  0  0  0  0  0  0  0
    1.1550   -0.4790   -2.8950 H   0  0  0  0  0  0  0  0  0  0  0  0
    0.9380    1.2820   -3.4210 H   0  0  0  0  0  0  0  0  0  0  0  0
    1.5600    1.9040   -1.0910 H   0  0  0  0  0  0  0  0  0  0  0  0
    1.4760   -1.0640   -0.5340 H   0  0  0  0  0  0  0  0  0  0  0  0
   -3.6260   -3.2210    0.5060 C   0  0  0  0  0  0  0  0  0  0  0  0
   -2.8350   -1.9610    0.7040 C   0  0  0  0  0  0  0  0  0  0  0  0
   -3.2850   -0.8550   -0.2290 C   0  0  2  0  0  0  0  0  0  0  0  0
   -3.1450   -1.2150   -1.6780 C   0  0  0  0  0  0  0  0  0  0  0  0
   -2.5350    0.4270    0.0570 C   0  0  2  0  0  0  0  0  0  0  0  0
   -1.1090    0.2790   -0.1110 N   0  0  0  0  0  0  0  0  0  0  0  0
   -2.8970    1.0110    1.3590 C   0  0  0  0  0  0  0  0  0  0  0  0
   -1.9870    1.3250    2.1600 O   0  0  0  0  0  0  0  0  0  0  0  0
   -4.2070    1.2340    1.7460 O   0  0  0  0  0  0  0  0  0  0  0  0
   -3.0730   -3.9570   -0.1220 H   0  0  0  0  0  0  0  0  0  0  0  0
   -4.6370   -3.0220    0.0990 H   0  0  0  0  0  0  0  0  0  0  0  0
   -3.7550   -3.7040    1.4960 H   0  0  0  0  0  0  0  0  0  0  0  0
   -1.7680   -2.1970    0.5200 H   0  0  0  0  0  0  0  0  0  0  0  0
   -2.9570   -1.6140    1.7290 H   0  0  0  0  0  0  0  0  0  0  0  0
   -4.3620   -0.6350   -0.0160 H   0  0  0  0  0  0  0  0  0  0  0  0
   -3.0570   -2.3090   -1.8510 H   0  0  0  0  0  0  0  0  0  0  0  0
   -4.0210   -0.8260   -2.2370 H   0  0  0  0  0  0  0  0  0  0  0  0
   -2.2440   -0.7410   -2.1570 H   0  0  0  0  0  0  0  0  0  0  0  0
   -2.8560    1.1590   -0.7470 H   0  0  0  0  0  0  0  0  0  0  0  0
   -0.6130   -0.3920    0.4920 H   0  0  0  0  0  0  0  0  0  0  0  0
  1  9  1  0  0  0  0
  2  1  1  0  0  0  0
  2 12  1  0  0  0  0
  3  2  1  0  0  0  0
  3 15  1  0  0  0  0
  4 17  1  0  0  0  0
  4  2  1  0  0  0  0
  5 18  1  6  0  0  0
  5  4  1  0  0  0  0
  5  6  1  0  0  0  0
  6 20  1  0  0  0  0
  7  8  2  0  0  0  0
  7  5  1  0  0  0  0
 10  1  1  0  0  0  0
 11  1  1  0  0  0  0
 13  3  1  0  0  0  0
 14  3  1  0  0  0  0
 16  4  1  0  0  0  0
 19  6  1  0  0  0  0
 21 22  1  0  0  0  0
 22 23  1  0  0  0  0
 23 30  1  1  0  0  0
 23 25  1  0  0  0  0
 23 24  1  0  0  0  0
 24  7  1  0  0  0  0
 25 37  1  0  0  0  0
 26 25  2  0  0  0  0
 27 21  1  0  0  0  0
 28 22  1  0  0  0  0
 29 22  1  0  0  0  0
 31 24  1  0  0  0  0
 32 33  1  0  0  0  0
 32 43  1  0  0  0  0
 33 45  1  0  0  0  0
 34 46  1  1  0  0  0
 34 36  1  0  0  0  0
 34 33  1  0  0  0  0
 35 34  1  0  0  0  0
 36 50  1  6  0  0  0
 36 38  1  0  0  0  0
 37 36  1  0  0  0  0
 37 51  1  0  0  0  0
 38 40  2  0  0  0  0
 38 39  1  0  0  0  0
 41 32  1  0  0  0  0
 42 32  1  0  0  0  0
 44 33  1  0  0  0  0
 47 35  1  0  0  0  0
 48 35  1  0  0  0  0
 49 35  1  0  0  0  0
M  END
$$$$
