LSK.pdb
 OpenBabel07022418473D

 53 52  0  0  1  0  0  0  0  0999 V2000
    2.0360   -5.1220    2.6040 C   0  0  0  0  0  0  0  0  0  0  0  0
    2.5610   -3.8400    1.9230 C   0  0  0  0  0  0  0  0  0  0  0  0
    3.4070   -4.3390    0.7710 C   0  0  0  0  0  0  0  0  0  0  0  0
    3.3300   -3.1250    2.9560 C   0  0  0  0  0  0  0  0  0  0  0  0
    3.9730   -1.8260    2.5900 C   0  0  2  0  0  0  0  0  0  0  0  0
    4.6930   -1.2870    3.7770 N   0  0  0  0  0  0  0  0  0  0  0  0
    3.1060   -0.7620    2.1210 C   0  0  0  0  0  0  0  0  0  0  0  0
    2.8800    0.3080    2.7840 O   0  0  0  0  0  0  0  0  0  0  0  0
    1.0340   -5.3760    2.2390 H   0  0  0  0  0  0  0  0  0  0  0  0
    1.9460   -4.9570    3.7140 H   0  0  0  0  0  0  0  0  0  0  0  0
    2.6950   -5.9770    2.3770 H   0  0  0  0  0  0  0  0  0  0  0  0
    1.6400   -3.3190    1.6130 H   0  0  0  0  0  0  0  0  0  0  0  0
    2.7340   -4.3920   -0.1280 H   0  0  0  0  0  0  0  0  0  0  0  0
    4.3020   -3.7130    0.5980 H   0  0  0  0  0  0  0  0  0  0  0  0
    3.7680   -5.3770    0.9310 H   0  0  0  0  0  0  0  0  0  0  0  0
    2.6210   -2.8950    3.8020 H   0  0  0  0  0  0  0  0  0  0  0  0
    4.0580   -3.8350    3.4080 H   0  0  0  0  0  0  0  0  0  0  0  0
    4.7670   -2.0350    1.8520 H   0  0  0  0  0  0  0  0  0  0  0  0
    3.8970   -0.9440    4.3930 H   0  0  0  0  0  0  0  0  0  0  0  0
    5.1640   -2.1140    4.2500 H   0  0  0  0  0  0  0  0  0  0  0  0
    3.4760    1.1890   -0.6650 O   0  0  0  0  0  0  0  0  0  0  0  0
    2.1850    0.7150   -0.9120 C   0  0  0  0  0  0  0  0  0  0  0  0
    1.5680    0.2230    0.3930 C   0  0  2  0  0  0  0  0  0  0  0  0
    2.4470   -0.8510    0.8700 N   0  0  0  0  0  0  0  0  0  0  0  0
    0.2000   -0.2720    0.1410 C   0  0  0  0  0  0  0  0  0  0  0  0
   -0.1210   -1.4670    0.3400 O   0  0  0  0  0  0  0  0  0  0  0  0
    3.6170    2.1140   -0.9950 H   0  0  0  0  0  0  0  0  0  0  0  0
    1.5460    1.4720   -1.3940 H   0  0  0  0  0  0  0  0  0  0  0  0
    2.3060   -0.2000   -1.5450 H   0  0  0  0  0  0  0  0  0  0  0  0
    1.5510    1.0180    1.1660 H   0  0  0  0  0  0  0  0  0  0  0  0
    2.5460   -1.6600    0.2120 H   0  0  0  0  0  0  0  0  0  0  0  0
   -0.7840    0.6190   -0.3400 N   0  0  0  0  0  0  0  0  0  0  0  0
   -2.1620    0.0430   -0.5760 C   0  0  1  0  0  0  0  0  0  0  0  0
   -3.0350    0.9430    0.2040 C   0  0  0  0  0  0  0  0  0  0  0  0
   -4.4700    0.7620    0.3380 C   0  0  0  0  0  0  0  0  0  0  0  0
   -5.3940    0.7790   -0.8060 C   0  0  0  0  0  0  0  0  0  0  0  0
   -5.3930    2.0280   -1.6410 C   0  0  0  0  0  0  0  0  0  0  0  0
   -5.7590    3.1970   -0.8580 N   0  0  0  0  0  0  0  0  0  0  0  0
   -2.3280    0.2050   -2.0250 C   0  0  0  0  0  0  0  0  0  0  0  0
   -1.4890    0.8560   -2.6960 O   0  0  0  0  0  0  0  0  0  0  0  0
   -3.3790   -0.3390   -2.7080 O   0  0  0  0  0  0  0  0  0  0  0  0
   -0.6560    1.6180   -0.5450 H   0  0  0  0  0  0  0  0  0  0  0  0
   -2.1840   -1.0070   -0.2970 H   0  0  0  0  0  0  0  0  0  0  0  0
   -2.8000    2.0140   -0.1030 H   0  0  0  0  0  0  0  0  0  0  0  0
   -2.6030    0.9200    1.2730 H   0  0  0  0  0  0  0  0  0  0  0  0
   -4.8200    1.4960    1.1390 H   0  0  0  0  0  0  0  0  0  0  0  0
   -4.6710   -0.2360    0.8790 H   0  0  0  0  0  0  0  0  0  0  0  0
   -6.4550    0.8380   -0.2890 H   0  0  0  0  0  0  0  0  0  0  0  0
   -5.4830   -0.1640   -1.3270 H   0  0  0  0  0  0  0  0  0  0  0  0
   -6.1060    1.9590   -2.4870 H   0  0  0  0  0  0  0  0  0  0  0  0
   -4.3960    2.1680   -2.0910 H   0  0  0  0  0  0  0  0  0  0  0  0
   -5.6030    4.0310   -1.4830 H   0  0  0  0  0  0  0  0  0  0  0  0
   -6.8080    3.1550   -0.7010 H   0  0  0  0  0  0  0  0  0  0  0  0
  1 10  1  0  0  0  0
  2  1  1  0  0  0  0
  2  4  1  0  0  0  0
  3 15  1  0  0  0  0
  3  2  1  0  0  0  0
  4 17  1  0  0  0  0
  4 16  1  0  0  0  0
  5 18  1  6  0  0  0
  5  4  1  0  0  0  0
  5  6  1  0  0  0  0
  6 20  1  0  0  0  0
  6 19  1  0  0  0  0
  7  5  1  0  0  0  0
  7  8  2  0  0  0  0
  9  1  1  0  0  0  0
 11  1  1  0  0  0  0
 12  2  1  0  0  0  0
 13  3  1  0  0  0  0
 14  3  1  0  0  0  0
 22 21  1  0  0  0  0
 22 23  1  0  0  0  0
 23 24  1  0  0  0  0
 23 30  1  1  0  0  0
 24  7  1  0  0  0  0
 25 26  2  0  0  0  0
 25 23  1  0  0  0  0
 27 21  1  0  0  0  0
 28 22  1  0  0  0  0
 29 22  1  0  0  0  0
 31 24  1  0  0  0  0
 32 25  1  0  0  0  0
 33 32  1  0  0  0  0
 33 43  1  1  0  0  0
 33 34  1  0  0  0  0
 34 35  1  0  0  0  0
 34 45  1  0  0  0  0
 35 47  1  0  0  0  0
 35 46  1  0  0  0  0
 36 48  1  0  0  0  0
 36 35  1  0  0  0  0
 37 38  1  0  0  0  0
 37 36  1  0  0  0  0
 38 53  1  0  0  0  0
 39 33  1  0  0  0  0
 40 39  1  0  0  0  0
 41 39  2  0  0  0  0
 42 32  1  0  0  0  0
 44 34  1  0  0  0  0
 49 36  1  0  0  0  0
 50 37  1  0  0  0  0
 51 37  1  0  0  0  0
 52 38  1  0  0  0  0
M  END
$$$$
