LSM.pdb
 OpenBabel07022418473D

 49 48  0  0  1  0  0  0  0  0999 V2000
    0.3200   -2.1960    3.8690 C   0  0  0  0  0  0  0  0  0  0  0  0
    1.7140   -2.0360    3.2620 C   0  0  0  0  0  0  0  0  0  0  0  0
    2.6250   -1.5740    4.3670 C   0  0  0  0  0  0  0  0  0  0  0  0
    1.5870   -1.0630    2.1380 C   0  0  0  0  0  0  0  0  0  0  0  0
    2.8740   -0.7850    1.4210 C   0  0  2  0  0  0  0  0  0  0  0  0
    3.8950   -0.2380    2.2590 N   0  0  0  0  0  0  0  0  0  0  0  0
    2.7130    0.0230    0.2060 C   0  0  0  0  0  0  0  0  0  0  0  0
    3.4340    1.0520    0.0210 O   0  0  0  0  0  0  0  0  0  0  0  0
    0.3390   -2.7340    4.8240 H   0  0  0  0  0  0  0  0  0  0  0  0
   -0.1210   -1.1720    3.9930 H   0  0  0  0  0  0  0  0  0  0  0  0
   -0.3010   -2.6940    3.0930 H   0  0  0  0  0  0  0  0  0  0  0  0
    2.0120   -3.0080    2.8680 H   0  0  0  0  0  0  0  0  0  0  0  0
    2.3200   -2.0810    5.3060 H   0  0  0  0  0  0  0  0  0  0  0  0
    2.5630   -0.4900    4.5480 H   0  0  0  0  0  0  0  0  0  0  0  0
    3.6890   -1.9010    4.1930 H   0  0  0  0  0  0  0  0  0  0  0  0
    1.1220   -0.1340    2.5560 H   0  0  0  0  0  0  0  0  0  0  0  0
    0.8370   -1.4690    1.4280 H   0  0  0  0  0  0  0  0  0  0  0  0
    3.2540   -1.7920    1.0710 H   0  0  0  0  0  0  0  0  0  0  0  0
    3.9200    0.7980    2.2250 H   0  0  0  0  0  0  0  0  0  0  0  0
    4.8450   -0.6280    2.0040 H   0  0  0  0  0  0  0  0  0  0  0  0
    0.9270   -1.3850   -3.3400 O   0  0  0  0  0  0  0  0  0  0  0  0
    1.8250   -0.3110   -3.2540 C   0  0  0  0  0  0  0  0  0  0  0  0
    1.5950    0.4900   -1.9990 C   0  0  2  0  0  0  0  0  0  0  0  0
    1.7630   -0.3020   -0.7950 N   0  0  0  0  0  0  0  0  0  0  0  0
    0.2100    1.0570   -2.0070 C   0  0  0  0  0  0  0  0  0  0  0  0
   -0.1740    1.7850   -2.9590 O   0  0  0  0  0  0  0  0  0  0  0  0
    0.9080   -1.8930   -2.5010 H   0  0  0  0  0  0  0  0  0  0  0  0
    1.6900    0.3670   -4.1080 H   0  0  0  0  0  0  0  0  0  0  0  0
    2.8630   -0.6850   -3.2630 H   0  0  0  0  0  0  0  0  0  0  0  0
    2.2890    1.3530   -2.0240 H   0  0  0  0  0  0  0  0  0  0  0  0
    1.1820   -1.1500   -0.6220 H   0  0  0  0  0  0  0  0  0  0  0  0
   -3.9570   -3.4370    1.0210 C   0  0  0  0  0  0  0  0  0  0  0  0
   -4.0430   -2.1710   -0.2540 S   0  0  0  0  0  0  0  0  0  0  0  0
   -2.8480   -0.8300    0.0400 C   0  0  0  0  0  0  0  0  0  0  0  0
   -2.9980    0.1640   -1.0680 C   0  0  0  0  0  0  0  0  0  0  0  0
   -2.0550    1.3360   -0.9400 C   0  0  2  0  0  0  0  0  0  0  0  0
   -0.7070    0.8040   -0.9650 N   0  0  0  0  0  0  0  0  0  0  0  0
   -2.3010    2.1450    0.2570 C   0  0  0  0  0  0  0  0  0  0  0  0
   -1.4660    2.3630    1.1600 O   0  0  0  0  0  0  0  0  0  0  0  0
   -3.5590    2.7190    0.4100 O   0  0  0  0  0  0  0  0  0  0  0  0
   -2.9460   -3.4340    1.4830 H   0  0  0  0  0  0  0  0  0  0  0  0
   -4.1310   -4.4190    0.5380 H   0  0  0  0  0  0  0  0  0  0  0  0
   -4.7360   -3.2720    1.7890 H   0  0  0  0  0  0  0  0  0  0  0  0
   -1.8100   -1.2530    0.0870 H   0  0  0  0  0  0  0  0  0  0  0  0
   -3.1260   -0.3850    1.0310 H   0  0  0  0  0  0  0  0  0  0  0  0
   -2.7720   -0.3520   -2.0230 H   0  0  0  0  0  0  0  0  0  0  0  0
   -4.0570    0.4840   -1.0920 H   0  0  0  0  0  0  0  0  0  0  0  0
   -2.1710    1.9440   -1.8750 H   0  0  0  0  0  0  0  0  0  0  0  0
   -0.4020    0.2010   -0.1680 H   0  0  0  0  0  0  0  0  0  0  0  0
  1 10  1  0  0  0  0
  1  9  1  0  0  0  0
  2  1  1  0  0  0  0
  2  3  1  0  0  0  0
  3 14  1  0  0  0  0
  3 13  1  0  0  0  0
  4 16  1  0  0  0  0
  4  2  1  0  0  0  0
  5 18  1  6  0  0  0
  5  4  1  0  0  0  0
  5  6  1  0  0  0  0
  7  5  1  0  0  0  0
  8  7  2  0  0  0  0
 11  1  1  0  0  0  0
 12  2  1  0  0  0  0
 15  3  1  0  0  0  0
 17  4  1  0  0  0  0
 19  6  1  0  0  0  0
 20  6  1  0  0  0  0
 21 22  1  0  0  0  0
 21 27  1  0  0  0  0
 22 23  1  0  0  0  0
 23 30  1  1  0  0  0
 23 24  1  0  0  0  0
 24 31  1  0  0  0  0
 24  7  1  0  0  0  0
 25 23  1  0  0  0  0
 25 37  1  0  0  0  0
 26 25  2  0  0  0  0
 28 22  1  0  0  0  0
 29 22  1  0  0  0  0
 32 41  1  0  0  0  0
 32 43  1  0  0  0  0
 33 34  1  0  0  0  0
 33 32  1  0  0  0  0
 34 44  1  0  0  0  0
 34 45  1  0  0  0  0
 35 36  1  0  0  0  0
 35 34  1  0  0  0  0
 36 48  1  6  0  0  0
 36 38  1  0  0  0  0
 37 36  1  0  0  0  0
 37 49  1  0  0  0  0
 38 40  2  0  0  0  0
 38 39  1  0  0  0  0
 42 32  1  0  0  0  0
 46 35  1  0  0  0  0
 47 35  1  0  0  0  0
M  END
$$$$
