LSN.pdb
 OpenBabel07022418473D

 46 45  0  0  1  0  0  0  0  0999 V2000
    0.9590   -3.1440    0.8070 C   0  0  0  0  0  0  0  0  0  0  0  0
    1.2410   -3.9050   -0.4670 C   0  0  0  0  0  0  0  0  0  0  0  0
    2.5520   -4.6110   -0.3010 C   0  0  0  0  0  0  0  0  0  0  0  0
    1.1020   -3.1170   -1.7040 C   0  0  0  0  0  0  0  0  0  0  0  0
    1.9630   -1.9270   -1.8730 C   0  0  2  0  0  0  0  0  0  0  0  0
    3.3900   -2.2440   -1.8480 N   0  0  0  0  0  0  0  0  0  0  0  0
    1.6690   -0.7660   -1.0410 C   0  0  0  0  0  0  0  0  0  0  0  0
    2.5890   -0.2020   -0.4260 O   0  0  0  0  0  0  0  0  0  0  0  0
    1.0910   -3.8900    1.6470 H   0  0  0  0  0  0  0  0  0  0  0  0
    1.6690   -2.3430    1.0200 H   0  0  0  0  0  0  0  0  0  0  0  0
   -0.1050   -2.8350    0.7960 H   0  0  0  0  0  0  0  0  0  0  0  0
    0.4530   -4.7160   -0.5070 H   0  0  0  0  0  0  0  0  0  0  0  0
    2.3660   -5.4590    0.4230 H   0  0  0  0  0  0  0  0  0  0  0  0
    3.3430   -4.0070    0.1600 H   0  0  0  0  0  0  0  0  0  0  0  0
    2.8810   -5.1220   -1.2390 H   0  0  0  0  0  0  0  0  0  0  0  0
    1.2220   -3.7650   -2.5940 H   0  0  0  0  0  0  0  0  0  0  0  0
    0.0360   -2.7600   -1.7560 H   0  0  0  0  0  0  0  0  0  0  0  0
    1.7920   -1.5780   -2.9400 H   0  0  0  0  0  0  0  0  0  0  0  0
    3.9210   -1.7030   -2.5670 H   0  0  0  0  0  0  0  0  0  0  0  0
    3.8040   -1.9170   -0.9230 H   0  0  0  0  0  0  0  0  0  0  0  0
    0.7820    2.2130   -1.9010 O   0  0  0  0  0  0  0  0  0  0  0  0
   -0.2750    2.0330   -1.0080 C   0  0  0  0  0  0  0  0  0  0  0  0
    0.1400    0.8960   -0.0720 C   0  0  2  0  0  0  0  0  0  0  0  0
    0.3580   -0.2700   -0.9210 N   0  0  0  0  0  0  0  0  0  0  0  0
   -0.9330    0.6430    0.9210 C   0  0  0  0  0  0  0  0  0  0  0  0
   -1.4990   -0.4760    0.9150 O   0  0  0  0  0  0  0  0  0  0  0  0
    0.4810    2.5900   -2.7720 H   0  0  0  0  0  0  0  0  0  0  0  0
   -0.4960    2.9340   -0.4240 H   0  0  0  0  0  0  0  0  0  0  0  0
   -1.1530    1.7000   -1.5960 H   0  0  0  0  0  0  0  0  0  0  0  0
    1.0870    1.2270    0.3930 H   0  0  0  0  0  0  0  0  0  0  0  0
   -0.4670   -0.7140   -1.4240 H   0  0  0  0  0  0  0  0  0  0  0  0
   -0.1320    0.8010    5.8630 N   0  0  0  0  0  0  0  0  0  0  0  0
   -0.7430    0.7170    4.5960 C   0  0  0  0  0  0  0  0  0  0  0  0
   -0.3390   -0.1110    3.7600 O   0  0  0  0  0  0  0  0  0  0  0  0
   -1.8640    1.6130    4.2640 C   0  0  0  0  0  0  0  0  0  0  0  0
   -2.3900    1.3690    2.8480 C   0  0  2  0  0  0  0  0  0  0  0  0
   -1.3480    1.5920    1.8700 N   0  0  0  0  0  0  0  0  0  0  0  0
   -3.5210    2.2970    2.6480 C   0  0  0  0  0  0  0  0  0  0  0  0
   -3.4760    3.1290    1.7190 O   0  0  0  0  0  0  0  0  0  0  0  0
   -4.6150    2.2500    3.4740 O   0  0  0  0  0  0  0  0  0  0  0  0
    0.7570    1.3250    6.0500 H   0  0  0  0  0  0  0  0  0  0  0  0
   -0.5640    0.3250    6.6930 H   0  0  0  0  0  0  0  0  0  0  0  0
   -2.6460    1.4740    5.0120 H   0  0  0  0  0  0  0  0  0  0  0  0
   -1.4940    2.6520    4.3710 H   0  0  0  0  0  0  0  0  0  0  0  0
   -2.8070    0.3460    2.7770 H   0  0  0  0  0  0  0  0  0  0  0  0
   -0.8680    2.5350    1.8720 H   0  0  0  0  0  0  0  0  0  0  0  0
  1 10  1  0  0  0  0
  1  9  1  0  0  0  0
  2  3  1  0  0  0  0
  2  1  1  0  0  0  0
  3 14  1  0  0  0  0
  3 13  1  0  0  0  0
  4  2  1  0  0  0  0
  5 18  1  6  0  0  0
  5  6  1  0  0  0  0
  5  4  1  0  0  0  0
  5  7  1  0  0  0  0
  6 20  1  0  0  0  0
  7 24  1  0  0  0  0
  7  8  2  0  0  0  0
 11  1  1  0  0  0  0
 12  2  1  0  0  0  0
 15  3  1  0  0  0  0
 16  4  1  0  0  0  0
 17  4  1  0  0  0  0
 19  6  1  0  0  0  0
 21 22  1  0  0  0  0
 22 28  1  0  0  0  0
 22 23  1  0  0  0  0
 23 30  1  1  0  0  0
 23 25  1  0  0  0  0
 24 23  1  0  0  0  0
 25 37  1  0  0  0  0
 26 25  2  0  0  0  0
 27 21  1  0  0  0  0
 29 22  1  0  0  0  0
 31 24  1  0  0  0  0
 32 41  1  0  0  0  0
 32 42  1  0  0  0  0
 33 32  1  0  0  0  0
 34 33  2  0  0  0  0
 35 44  1  0  0  0  0
 35 33  1  0  0  0  0
 35 43  1  0  0  0  0
 36 45  1  6  0  0  0
 36 35  1  0  0  0  0
 37 46  1  0  0  0  0
 37 36  1  0  0  0  0
 38 36  1  0  0  0  0
 38 40  1  0  0  0  0
 39 38  2  0  0  0  0
M  END
$$$$
