LSS.pdb
 OpenBabel07022418473D

 43 42  0  0  1  0  0  0  0  0999 V2000
    2.0640   -4.1750    1.6190 C   0  0  0  0  0  0  0  0  0  0  0  0
    1.1570   -4.3610    0.4120 C   0  0  0  0  0  0  0  0  0  0  0  0
    1.8090   -5.3380   -0.5080 C   0  0  0  0  0  0  0  0  0  0  0  0
    0.8420   -3.0450   -0.2460 C   0  0  0  0  0  0  0  0  0  0  0  0
    0.1410   -2.1090    0.7150 C   0  0  2  0  0  0  0  0  0  0  0  0
   -1.0940   -2.6330    1.2010 N   0  0  0  0  0  0  0  0  0  0  0  0
   -0.0450   -0.7560    0.0930 C   0  0  0  0  0  0  0  0  0  0  0  0
   -1.1850   -0.2360    0.0550 O   0  0  0  0  0  0  0  0  0  0  0  0
    1.4910   -3.8860    2.5210 H   0  0  0  0  0  0  0  0  0  0  0  0
    2.5300   -5.1610    1.8310 H   0  0  0  0  0  0  0  0  0  0  0  0
    2.8850   -3.4720    1.4190 H   0  0  0  0  0  0  0  0  0  0  0  0
    0.1890   -4.7470    0.8240 H   0  0  0  0  0  0  0  0  0  0  0  0
    1.0300   -5.9410   -1.0120 H   0  0  0  0  0  0  0  0  0  0  0  0
    2.4440   -4.8170   -1.2650 H   0  0  0  0  0  0  0  0  0  0  0  0
    2.4760   -6.0570    0.0230 H   0  0  0  0  0  0  0  0  0  0  0  0
    1.7230   -2.5550   -0.6970 H   0  0  0  0  0  0  0  0  0  0  0  0
    0.1230   -3.2490   -1.0660 H   0  0  0  0  0  0  0  0  0  0  0  0
    0.8210   -1.9580    1.5790 H   0  0  0  0  0  0  0  0  0  0  0  0
   -0.9670   -3.1390    2.1040 H   0  0  0  0  0  0  0  0  0  0  0  0
   -1.6830   -3.1120    0.5170 H   0  0  0  0  0  0  0  0  0  0  0  0
   -1.1630    0.8090   -2.3110 O   0  0  0  0  0  0  0  0  0  0  0  0
    0.1170    1.2940   -2.3410 C   0  0  0  0  0  0  0  0  0  0  0  0
    0.8550    1.2570   -1.0500 C   0  0  2  0  0  0  0  0  0  0  0  0
    1.0390   -0.0330   -0.4610 N   0  0  0  0  0  0  0  0  0  0  0  0
    0.3620    2.2940   -0.1040 C   0  0  0  0  0  0  0  0  0  0  0  0
    0.0680    3.4490   -0.5010 O   0  0  0  0  0  0  0  0  0  0  0  0
   -1.4220    0.5540   -3.2340 H   0  0  0  0  0  0  0  0  0  0  0  0
    0.7350    0.7550   -3.1050 H   0  0  0  0  0  0  0  0  0  0  0  0
    0.1460    2.3670   -2.6920 H   0  0  0  0  0  0  0  0  0  0  0  0
    1.9160    1.6080   -1.3110 H   0  0  0  0  0  0  0  0  0  0  0  0
    2.0010   -0.4840   -0.4260 H   0  0  0  0  0  0  0  0  0  0  0  0
   -2.2350    3.5440    3.5510 O   0  0  0  0  0  0  0  0  0  0  0  0
   -1.6800    2.6410    2.6560 C   0  0  0  0  0  0  0  0  0  0  0  0
   -0.2960    3.1000    2.1870 C   0  0  2  0  0  0  0  0  0  0  0  0
    0.1750    2.1190    1.2890 N   0  0  0  0  0  0  0  0  0  0  0  0
    0.4470    3.4320    3.3720 C   0  0  0  0  0  0  0  0  0  0  0  0
   -0.0770    4.3270    4.1000 O   0  0  0  0  0  0  0  0  0  0  0  0
    1.6200    2.9580    3.8620 O   0  0  0  0  0  0  0  0  0  0  0  0
   -2.1790    3.2160    4.4950 H   0  0  0  0  0  0  0  0  0  0  0  0
   -1.5860    1.6700    3.1880 H   0  0  0  0  0  0  0  0  0  0  0  0
   -2.3670    2.5210    1.7970 H   0  0  0  0  0  0  0  0  0  0  0  0
   -0.4950    4.0350    1.6190 H   0  0  0  0  0  0  0  0  0  0  0  0
    0.4150    1.1830    1.6870 H   0  0  0  0  0  0  0  0  0  0  0  0
  1 10  1  0  0  0  0
  1  9  1  0  0  0  0
  2 12  1  0  0  0  0
  2  1  1  0  0  0  0
  3 15  1  0  0  0  0
  3  2  1  0  0  0  0
  4  2  1  0  0  0  0
  4  5  1  0  0  0  0
  5  6  1  0  0  0  0
  5 18  1  1  0  0  0
  6 19  1  0  0  0  0
  7  5  1  0  0  0  0
  8  7  2  0  0  0  0
 11  1  1  0  0  0  0
 13  3  1  0  0  0  0
 14  3  1  0  0  0  0
 16  4  1  0  0  0  0
 17  4  1  0  0  0  0
 20  6  1  0  0  0  0
 22 21  1  0  0  0  0
 22 23  1  0  0  0  0
 23 30  1  6  0  0  0
 23 24  1  0  0  0  0
 23 25  1  0  0  0  0
 24 31  1  0  0  0  0
 24  7  1  0  0  0  0
 25 35  1  0  0  0  0
 26 25  2  0  0  0  0
 27 21  1  0  0  0  0
 28 22  1  0  0  0  0
 29 22  1  0  0  0  0
 32 39  1  0  0  0  0
 33 40  1  0  0  0  0
 33 32  1  0  0  0  0
 34 42  1  6  0  0  0
 34 33  1  0  0  0  0
 34 36  1  0  0  0  0
 35 43  1  0  0  0  0
 35 34  1  0  0  0  0
 36 38  2  0  0  0  0
 36 37  1  0  0  0  0
 41 33  1  0  0  0  0
M  END
$$$$
