LST.pdb
 OpenBabel07022418473D

 46 45  0  0  1  0  0  0  0  0999 V2000
   -0.2030   -5.3790   -0.7100 C   0  0  0  0  0  0  0  0  0  0  0  0
    1.2600   -5.0830   -0.6250 C   0  0  0  0  0  0  0  0  0  0  0  0
    1.8510   -5.5700    0.6810 C   0  0  0  0  0  0  0  0  0  0  0  0
    1.5900   -3.6380   -0.8080 C   0  0  0  0  0  0  0  0  0  0  0  0
    0.9180   -2.7960    0.2520 C   0  0  2  0  0  0  0  0  0  0  0  0
   -0.5100   -2.9820    0.1290 N   0  0  0  0  0  0  0  0  0  0  0  0
    1.3050   -1.3770    0.0070 C   0  0  0  0  0  0  0  0  0  0  0  0
    2.5320   -1.0830    0.0680 O   0  0  0  0  0  0  0  0  0  0  0  0
   -0.6880   -4.7790   -1.4790 H   0  0  0  0  0  0  0  0  0  0  0  0
   -0.2820   -6.4590   -1.0400 H   0  0  0  0  0  0  0  0  0  0  0  0
   -0.7320   -5.3380    0.2670 H   0  0  0  0  0  0  0  0  0  0  0  0
    1.7750   -5.6400   -1.4520 H   0  0  0  0  0  0  0  0  0  0  0  0
    2.0590   -6.6620    0.5810 H   0  0  0  0  0  0  0  0  0  0  0  0
    2.8060   -5.0730    0.8670 H   0  0  0  0  0  0  0  0  0  0  0  0
    1.0920   -5.3700    1.4750 H   0  0  0  0  0  0  0  0  0  0  0  0
    2.6760   -3.4840   -0.8070 H   0  0  0  0  0  0  0  0  0  0  0  0
    1.2140   -3.3290   -1.8280 H   0  0  0  0  0  0  0  0  0  0  0  0
    1.2910   -3.1340    1.2430 H   0  0  0  0  0  0  0  0  0  0  0  0
   -0.8630   -2.5200   -0.7180 H   0  0  0  0  0  0  0  0  0  0  0  0
   -1.0280   -2.8010    0.9960 H   0  0  0  0  0  0  0  0  0  0  0  0
    0.8040    2.8750   -1.9600 O   0  0  0  0  0  0  0  0  0  0  0  0
    0.3550    1.5550   -1.8560 C   0  0  0  0  0  0  0  0  0  0  0  0
    0.8130    1.0340   -0.5220 C   0  0  2  0  0  0  0  0  0  0  0  0
    0.4080   -0.3360   -0.2890 N   0  0  0  0  0  0  0  0  0  0  0  0
    0.1510    1.8810    0.5270 C   0  0  0  0  0  0  0  0  0  0  0  0
    0.3780    3.1090    0.4960 O   0  0  0  0  0  0  0  0  0  0  0  0
    1.8000    2.9000   -1.9600 H   0  0  0  0  0  0  0  0  0  0  0  0
   -0.7480    1.5860   -1.8880 H   0  0  0  0  0  0  0  0  0  0  0  0
    0.8010    1.0020   -2.7070 H   0  0  0  0  0  0  0  0  0  0  0  0
    1.8950    1.1110   -0.4320 H   0  0  0  0  0  0  0  0  0  0  0  0
   -0.6000   -0.5420   -0.3450 H   0  0  0  0  0  0  0  0  0  0  0  0
   -1.0960    3.4120    4.6400 C   0  0  0  0  0  0  0  0  0  0  0  0
   -0.4130    2.5290    3.6350 C   0  0  1  0  0  0  0  0  0  0  0  0
    0.0220    1.3910    4.3170 O   0  0  0  0  0  0  0  0  0  0  0  0
   -1.3140    2.1630    2.4930 C   0  0  2  0  0  0  0  0  0  0  0  0
   -0.6930    1.3160    1.5110 N   0  0  0  0  0  0  0  0  0  0  0  0
   -2.0250    3.3350    1.9060 C   0  0  0  0  0  0  0  0  0  0  0  0
   -2.1250    3.5200    0.6750 O   0  0  0  0  0  0  0  0  0  0  0  0
   -2.6100    4.2770    2.7340 O   0  0  0  0  0  0  0  0  0  0  0  0
   -0.6380    3.3000    5.6640 H   0  0  0  0  0  0  0  0  0  0  0  0
   -0.9280    4.4740    4.3400 H   0  0  0  0  0  0  0  0  0  0  0  0
   -2.1640    3.1850    4.7470 H   0  0  0  0  0  0  0  0  0  0  0  0
    0.4790    3.0450    3.1820 H   0  0  0  0  0  0  0  0  0  0  0  0
    0.1740    1.5840    5.2830 H   0  0  0  0  0  0  0  0  0  0  0  0
   -2.1740    1.5360    2.9160 H   0  0  0  0  0  0  0  0  0  0  0  0
   -0.8670    0.2580    1.5240 H   0  0  0  0  0  0  0  0  0  0  0  0
  1  2  1  0  0  0  0
  1 11  1  0  0  0  0
  2  3  1  0  0  0  0
  3 14  1  0  0  0  0
  3 15  1  0  0  0  0
  4 16  1  0  0  0  0
  4  2  1  0  0  0  0
  4  5  1  0  0  0  0
  5 18  1  1  0  0  0
  6  5  1  0  0  0  0
  6 20  1  0  0  0  0
  7  8  2  0  0  0  0
  7  5  1  0  0  0  0
  9  1  1  0  0  0  0
 10  1  1  0  0  0  0
 12  2  1  0  0  0  0
 13  3  1  0  0  0  0
 17  4  1  0  0  0  0
 19  6  1  0  0  0  0
 21 27  1  0  0  0  0
 21 22  1  0  0  0  0
 22 23  1  0  0  0  0
 23 30  1  1  0  0  0
 23 24  1  0  0  0  0
 23 25  1  0  0  0  0
 24  7  1  0  0  0  0
 25 36  1  0  0  0  0
 26 25  2  0  0  0  0
 28 22  1  0  0  0  0
 29 22  1  0  0  0  0
 31 24  1  0  0  0  0
 32 42  1  0  0  0  0
 32 40  1  0  0  0  0
 33 43  1  6  0  0  0
 33 34  1  0  0  0  0
 33 32  1  0  0  0  0
 34 44  1  0  0  0  0
 35 45  1  1  0  0  0
 35 33  1  0  0  0  0
 36 46  1  0  0  0  0
 36 35  1  0  0  0  0
 37 35  1  0  0  0  0
 37 39  1  0  0  0  0
 38 37  2  0  0  0  0
 41 32  1  0  0  0  0
M  END
$$$$
