LSV.pdb
 OpenBabel07022418473D

 48 47  0  0  1  0  0  0  0  0999 V2000
    1.5610   -4.2190   -2.6050 C   0  0  0  0  0  0  0  0  0  0  0  0
    2.6360   -4.2320   -1.5530 C   0  0  0  0  0  0  0  0  0  0  0  0
    2.4130   -5.3320   -0.5670 C   0  0  0  0  0  0  0  0  0  0  0  0
    2.7970   -2.8710   -0.9140 C   0  0  0  0  0  0  0  0  0  0  0  0
    1.5530   -2.3820   -0.2430 C   0  0  2  0  0  0  0  0  0  0  0  0
    0.4370   -2.2520   -1.1400 N   0  0  0  0  0  0  0  0  0  0  0  0
    1.8790   -1.1200    0.4670 C   0  0  0  0  0  0  0  0  0  0  0  0
    2.8320   -1.1210    1.2650 O   0  0  0  0  0  0  0  0  0  0  0  0
    1.5520   -3.2560   -3.1460 H   0  0  0  0  0  0  0  0  0  0  0  0
    1.8080   -5.0190   -3.3620 H   0  0  0  0  0  0  0  0  0  0  0  0
    0.5860   -4.4430   -2.1520 H   0  0  0  0  0  0  0  0  0  0  0  0
    3.6060   -4.4250   -2.0990 H   0  0  0  0  0  0  0  0  0  0  0  0
    3.3560   -5.6940   -0.0950 H   0  0  0  0  0  0  0  0  0  0  0  0
    2.0040   -6.2140   -1.1170 H   0  0  0  0  0  0  0  0  0  0  0  0
    1.6420   -5.0670    0.1820 H   0  0  0  0  0  0  0  0  0  0  0  0
    3.6100   -2.8960   -0.1650 H   0  0  0  0  0  0  0  0  0  0  0  0
    3.0610   -2.1630   -1.7290 H   0  0  0  0  0  0  0  0  0  0  0  0
    1.2410   -3.1060    0.5650 H   0  0  0  0  0  0  0  0  0  0  0  0
    0.5580   -1.4380   -1.7850 H   0  0  0  0  0  0  0  0  0  0  0  0
   -0.4150   -2.0820   -0.5620 H   0  0  0  0  0  0  0  0  0  0  0  0
    2.9370    2.1780   -0.7300 O   0  0  0  0  0  0  0  0  0  0  0  0
    1.8210    2.4570    0.0570 C   0  0  0  0  0  0  0  0  0  0  0  0
    1.4740    1.3100    0.9690 C   0  0  2  0  0  0  0  0  0  0  0  0
    1.1710    0.0960    0.2950 N   0  0  0  0  0  0  0  0  0  0  0  0
    0.3360    1.7420    1.8480 C   0  0  0  0  0  0  0  0  0  0  0  0
    0.3810    2.7820    2.5380 O   0  0  0  0  0  0  0  0  0  0  0  0
    3.7830    2.3620   -0.2150 H   0  0  0  0  0  0  0  0  0  0  0  0
    2.1440    3.3020    0.7360 H   0  0  0  0  0  0  0  0  0  0  0  0
    0.9680    2.8440   -0.5110 H   0  0  0  0  0  0  0  0  0  0  0  0
    2.3400    1.1500    1.6420 H   0  0  0  0  0  0  0  0  0  0  0  0
    0.3710    0.0850   -0.3800 H   0  0  0  0  0  0  0  0  0  0  0  0
   -4.3100    2.0660    3.0100 C   0  0  0  0  0  0  0  0  0  0  0  0
   -3.2330    1.6770    2.0150 C   0  0  0  0  0  0  0  0  0  0  0  0
   -3.7520    0.5030    1.2360 C   0  0  0  0  0  0  0  0  0  0  0  0
   -1.9760    1.3730    2.7790 C   0  0  2  0  0  0  0  0  0  0  0  0
   -0.8690    0.9890    1.9490 N   0  0  0  0  0  0  0  0  0  0  0  0
   -2.1960    0.3920    3.8900 C   0  0  0  0  0  0  0  0  0  0  0  0
   -1.4780   -0.6350    4.0410 O   0  0  0  0  0  0  0  0  0  0  0  0
   -3.2100    0.5600    4.8220 O   0  0  0  0  0  0  0  0  0  0  0  0
   -3.8400    2.6060    3.8390 H   0  0  0  0  0  0  0  0  0  0  0  0
   -5.0090    2.8110    2.5260 H   0  0  0  0  0  0  0  0  0  0  0  0
   -4.8820    1.1640    3.3150 H   0  0  0  0  0  0  0  0  0  0  0  0
   -3.0460    2.5710    1.4040 H   0  0  0  0  0  0  0  0  0  0  0  0
   -3.1280   -0.4040    1.3510 H   0  0  0  0  0  0  0  0  0  0  0  0
   -3.7950    0.7820    0.1570 H   0  0  0  0  0  0  0  0  0  0  0  0
   -4.7860    0.2080    1.5170 H   0  0  0  0  0  0  0  0  0  0  0  0
   -1.6750    2.3210    3.2760 H   0  0  0  0  0  0  0  0  0  0  0  0
   -0.9430    0.1140    1.3860 H   0  0  0  0  0  0  0  0  0  0  0  0
  1 11  1  0  0  0  0
  1  2  1  0  0  0  0
  2  4  1  0  0  0  0
  2  3  1  0  0  0  0
  3 13  1  0  0  0  0
  3 15  1  0  0  0  0
  4  5  1  0  0  0  0
  4 16  1  0  0  0  0
  5  7  1  0  0  0  0
  5 18  1  1  0  0  0
  6 20  1  0  0  0  0
  6  5  1  0  0  0  0
  7  8  2  0  0  0  0
  9  1  1  0  0  0  0
 10  1  1  0  0  0  0
 12  2  1  0  0  0  0
 14  3  1  0  0  0  0
 17  4  1  0  0  0  0
 19  6  1  0  0  0  0
 21 27  1  0  0  0  0
 21 22  1  0  0  0  0
 22 28  1  0  0  0  0
 22 23  1  0  0  0  0
 23 30  1  1  0  0  0
 23 25  1  0  0  0  0
 24  7  1  0  0  0  0
 24 23  1  0  0  0  0
 25 36  1  0  0  0  0
 25 26  2  0  0  0  0
 29 22  1  0  0  0  0
 31 24  1  0  0  0  0
 32 42  1  0  0  0  0
 32 40  1  0  0  0  0
 33 35  1  0  0  0  0
 33 32  1  0  0  0  0
 34 44  1  0  0  0  0
 34 46  1  0  0  0  0
 34 33  1  0  0  0  0
 35 47  1  1  0  0  0
 35 37  1  0  0  0  0
 36 35  1  0  0  0  0
 37 38  2  0  0  0  0
 37 39  1  0  0  0  0
 41 32  1  0  0  0  0
 43 33  1  0  0  0  0
 45 34  1  0  0  0  0
 48 36  1  0  0  0  0
M  END
$$$$
