LSW.pdb
 OpenBabel07022418473D

 56 57  0  0  1  0  0  0  0  0999 V2000
   -2.8540    0.1960   -4.0110 C   0  0  0  0  0  0  0  0  0  0  0  0
   -1.3910    0.5260   -4.2020 C   0  0  0  0  0  0  0  0  0  0  0  0
   -0.8550   -0.2980   -5.3310 C   0  0  0  0  0  0  0  0  0  0  0  0
   -0.6480    0.2970   -2.9060 C   0  0  0  0  0  0  0  0  0  0  0  0
    0.8240    0.6100   -3.0420 C   0  0  2  0  0  0  0  0  0  0  0  0
    1.4530   -0.2200   -4.0510 N   0  0  0  0  0  0  0  0  0  0  0  0
    1.4520    0.3550   -1.7260 C   0  0  0  0  0  0  0  0  0  0  0  0
    2.3700   -0.4990   -1.6260 O   0  0  0  0  0  0  0  0  0  0  0  0
   -2.9910   -0.5990   -3.2380 H   0  0  0  0  0  0  0  0  0  0  0  0
   -3.2950   -0.2440   -4.9520 H   0  0  0  0  0  0  0  0  0  0  0  0
   -3.4510    1.0930   -3.7900 H   0  0  0  0  0  0  0  0  0  0  0  0
   -1.3560    1.5990   -4.5170 H   0  0  0  0  0  0  0  0  0  0  0  0
   -0.4680   -1.2970   -4.9890 H   0  0  0  0  0  0  0  0  0  0  0  0
   -0.0930    0.2330   -5.9430 H   0  0  0  0  0  0  0  0  0  0  0  0
   -1.6960   -0.5360   -6.0130 H   0  0  0  0  0  0  0  0  0  0  0  0
   -1.0650    1.0000   -2.1580 H   0  0  0  0  0  0  0  0  0  0  0  0
   -0.8530   -0.7210   -2.5710 H   0  0  0  0  0  0  0  0  0  0  0  0
    0.9370    1.6680   -3.3050 H   0  0  0  0  0  0  0  0  0  0  0  0
    1.9890   -0.9890   -3.5560 H   0  0  0  0  0  0  0  0  0  0  0  0
    2.1200    0.3630   -4.5790 H   0  0  0  0  0  0  0  0  0  0  0  0
    3.3450    2.3810    0.2060 O   0  0  0  0  0  0  0  0  0  0  0  0
    2.3860    2.0670    1.1450 C   0  0  0  0  0  0  0  0  0  0  0  0
    1.6750    0.7900    0.7440 C   0  0  2  0  0  0  0  0  0  0  0  0
    1.0680    1.0350   -0.5390 N   0  0  0  0  0  0  0  0  0  0  0  0
    0.6390    0.3910    1.7000 C   0  0  0  0  0  0  0  0  0  0  0  0
   -0.5450    0.3110    1.3480 O   0  0  0  0  0  0  0  0  0  0  0  0
    3.0630    3.1570   -0.3530 H   0  0  0  0  0  0  0  0  0  0  0  0
    2.8820    1.8950    2.1190 H   0  0  0  0  0  0  0  0  0  0  0  0
    1.6560    2.9090    1.2730 H   0  0  0  0  0  0  0  0  0  0  0  0
    2.4530    0.0070    0.7110 H   0  0  0  0  0  0  0  0  0  0  0  0
    0.3140    1.7350   -0.6270 H   0  0  0  0  0  0  0  0  0  0  0  0
    0.9540    0.0830    3.0670 N   0  0  0  0  0  0  0  0  0  0  0  0
   -0.0170   -0.3090    4.0330 C   0  0  1  0  0  0  0  0  0  0  0  0
    0.2050   -1.6880    4.5940 C   0  0  0  0  0  0  0  0  0  0  0  0
    0.1770   -2.7470    3.5910 C   0  0  0  0  0  0  0  0  0  0  0  0
    1.2800   -3.3970    3.0840 C   0  0  0  0  0  0  0  0  0  0  0  0
    0.8860   -4.2940    2.1970 N   0  0  0  0  0  0  0  0  0  0  0  0
   -0.4630   -4.2440    2.1130 C   0  0  0  0  0  0  0  0  0  0  0  0
   -1.3510   -4.9700    1.3400 C   0  0  0  0  0  0  0  0  0  0  0  0
   -2.7030   -4.7240    1.4410 C   0  0  0  0  0  0  0  0  0  0  0  0
   -3.1820   -3.7540    2.3120 C   0  0  0  0  0  0  0  0  0  0  0  0
   -2.3000   -3.0370    3.0760 C   0  0  0  0  0  0  0  0  0  0  0  0
   -0.9370   -3.2830    2.9760 C   0  0  0  0  0  0  0  0  0  0  0  0
   -0.1420    0.6400    5.1650 C   0  0  0  0  0  0  0  0  0  0  0  0
    0.5230    1.6950    5.2950 O   0  0  0  0  0  0  0  0  0  0  0  0
   -1.0640    0.3380    6.1540 O   0  0  0  0  0  0  0  0  0  0  0  0
    1.9750    0.1690    3.3090 H   0  0  0  0  0  0  0  0  0  0  0  0
   -1.0210   -0.3260    3.5310 H   0  0  0  0  0  0  0  0  0  0  0  0
   -0.5600   -1.8900    5.3670 H   0  0  0  0  0  0  0  0  0  0  0  0
    1.1830   -1.6930    5.1140 H   0  0  0  0  0  0  0  0  0  0  0  0
    2.3300   -3.2170    3.3570 H   0  0  0  0  0  0  0  0  0  0  0  0
    1.4990   -4.9340    1.6510 H   0  0  0  0  0  0  0  0  0  0  0  0
   -0.9680   -5.7360    0.6530 H   0  0  0  0  0  0  0  0  0  0  0  0
   -3.4060   -5.2940    0.8330 H   0  0  0  0  0  0  0  0  0  0  0  0
   -4.2350   -3.5850    2.3690 H   0  0  0  0  0  0  0  0  0  0  0  0
   -2.6350   -2.2720    3.7670 H   0  0  0  0  0  0  0  0  0  0  0  0
  1 11  1  0  0  0  0
  1  9  1  0  0  0  0
  2  1  1  0  0  0  0
  2  4  1  0  0  0  0
  3 13  1  0  0  0  0
  3  2  1  0  0  0  0
  4 17  1  0  0  0  0
  4 16  1  0  0  0  0
  5 18  1  6  0  0  0
  5  4  1  0  0  0  0
  5  7  1  0  0  0  0
  6 19  1  0  0  0  0
  6  5  1  0  0  0  0
  7  8  2  0  0  0  0
  7 24  1  0  0  0  0
 10  1  1  0  0  0  0
 12  2  1  0  0  0  0
 14  3  1  0  0  0  0
 15  3  1  0  0  0  0
 20  6  1  0  0  0  0
 21 22  1  0  0  0  0
 22 29  1  0  0  0  0
 22 28  1  0  0  0  0
 23 30  1  6  0  0  0
 23 22  1  0  0  0  0
 23 25  1  0  0  0  0
 24 23  1  0  0  0  0
 25 32  1  0  0  0  0
 26 25  2  0  0  0  0
 27 21  1  0  0  0  0
 31 24  1  0  0  0  0
 32 47  1  0  0  0  0
 32 33  1  0  0  0  0
 33 48  1  6  0  0  0
 33 34  1  0  0  0  0
 33 44  1  0  0  0  0
 34 50  1  0  0  0  0
 34 49  1  0  0  0  0
 35 34  1  0  0  0  0
 36 51  1  0  0  0  0
 36 35  2  0  0  0  0
 37 36  1  0  0  0  0
 38 37  1  0  0  0  0
 38 43  1  0  0  0  0
 39 40  1  0  0  0  0
 39 38  2  0  0  0  0
 40 41  2  0  0  0  0
 41 55  1  0  0  0  0
 41 42  1  0  0  0  0
 42 56  1  0  0  0  0
 43 42  2  0  0  0  0
 43 35  1  0  0  0  0
 44 45  2  0  0  0  0
 44 46  1  0  0  0  0
 52 37  1  0  0  0  0
 53 39  1  0  0  0  0
 54 40  1  0  0  0  0
M  END
$$$$
