LTC.pdb
 OpenBabel07022418473D

 46 45  0  0  1  0  0  0  0  0999 V2000
   -2.6540   -3.3280    0.7670 C   0  0  0  0  0  0  0  0  0  0  0  0
   -1.1610   -3.3770    0.4250 C   0  0  0  0  0  0  0  0  0  0  0  0
   -0.4300   -2.9650    1.6560 C   0  0  0  0  0  0  0  0  0  0  0  0
   -0.9430   -2.5350   -0.7800 C   0  0  0  0  0  0  0  0  0  0  0  0
    0.4560   -2.4490   -1.2810 C   0  0  2  0  0  0  0  0  0  0  0  0
    1.0090   -3.7400   -1.6310 N   0  0  0  0  0  0  0  0  0  0  0  0
    1.3270   -1.6760   -0.3700 C   0  0  0  0  0  0  0  0  0  0  0  0
    2.3790   -2.1680    0.1620 O   0  0  0  0  0  0  0  0  0  0  0  0
   -3.2650   -3.1940   -0.1420 H   0  0  0  0  0  0  0  0  0  0  0  0
   -2.9680   -4.2900    1.2590 H   0  0  0  0  0  0  0  0  0  0  0  0
   -2.8080   -2.5340    1.5270 H   0  0  0  0  0  0  0  0  0  0  0  0
   -0.9720   -4.4570    0.1600 H   0  0  0  0  0  0  0  0  0  0  0  0
   -0.3610   -1.8690    1.7660 H   0  0  0  0  0  0  0  0  0  0  0  0
    0.5740   -3.4670    1.7550 H   0  0  0  0  0  0  0  0  0  0  0  0
   -0.9720   -3.2980    2.5930 H   0  0  0  0  0  0  0  0  0  0  0  0
   -1.2690   -1.4780   -0.5580 H   0  0  0  0  0  0  0  0  0  0  0  0
   -1.6050   -2.8700   -1.6100 H   0  0  0  0  0  0  0  0  0  0  0  0
    0.4200   -1.8590   -2.2440 H   0  0  0  0  0  0  0  0  0  0  0  0
    1.9830   -3.5490   -1.9930 H   0  0  0  0  0  0  0  0  0  0  0  0
    0.4700   -4.0710   -2.4870 H   0  0  0  0  0  0  0  0  0  0  0  0
    3.5990    0.9340   -0.9020 C   0  0  0  0  0  0  0  0  0  0  0  0
    2.6430    1.5370    0.0980 C   0  0  1  0  0  0  0  0  0  0  0  0
    1.7570    2.4350   -0.4650 O   0  0  0  0  0  0  0  0  0  0  0  0
    1.8990    0.4170    0.8550 C   0  0  2  0  0  0  0  0  0  0  0  0
    1.0400   -0.3100   -0.0260 N   0  0  0  0  0  0  0  0  0  0  0  0
    1.2130    1.1050    1.9680 C   0  0  0  0  0  0  0  0  0  0  0  0
    1.9100    1.7500    2.7810 O   0  0  0  0  0  0  0  0  0  0  0  0
    3.1120    0.7080   -1.8610 H   0  0  0  0  0  0  0  0  0  0  0  0
    4.4630    1.5960   -1.1110 H   0  0  0  0  0  0  0  0  0  0  0  0
    4.0420    0.0190   -0.4200 H   0  0  0  0  0  0  0  0  0  0  0  0
    3.2520    2.0940    0.8420 H   0  0  0  0  0  0  0  0  0  0  0  0
    1.9030    2.5930   -1.4300 H   0  0  0  0  0  0  0  0  0  0  0  0
    2.7130   -0.2000    1.2860 H   0  0  0  0  0  0  0  0  0  0  0  0
    0.2050    0.1280   -0.4280 H   0  0  0  0  0  0  0  0  0  0  0  0
   -0.1990    1.0330    2.1040 N   0  0  0  0  0  0  0  0  0  0  0  0
   -0.9070    1.7020    3.1850 C   0  0  1  0  0  0  0  0  0  0  0  0
   -1.7960    2.8040    2.6130 C   0  0  0  0  0  0  0  0  0  0  0  0
   -0.7730    4.0110    1.7280 S   0  0  0  0  0  0  0  0  0  0  0  0
   -1.6750    0.8010    4.0440 C   0  0  0  0  0  0  0  0  0  0  0  0
   -2.3390    1.2680    5.0250 O   0  0  0  0  0  0  0  0  0  0  0  0
   -1.6710   -0.5590    3.7760 O   0  0  0  0  0  0  0  0  0  0  0  0
   -0.7010    0.4700    1.3780 H   0  0  0  0  0  0  0  0  0  0  0  0
   -0.1360    2.2260    3.8080 H   0  0  0  0  0  0  0  0  0  0  0  0
   -2.2550    3.3270    3.4720 H   0  0  0  0  0  0  0  0  0  0  0  0
   -2.5070    2.3350    1.9330 H   0  0  0  0  0  0  0  0  0  0  0  0
   -1.3160    4.2020    0.4450 H   0  0  0  0  0  0  0  0  0  0  0  0
  1 10  1  0  0  0  0
  1 11  1  0  0  0  0
  2  1  1  0  0  0  0
  2  3  1  0  0  0  0
  3 14  1  0  0  0  0
  3 13  1  0  0  0  0
  3 15  1  0  0  0  0
  4 16  1  0  0  0  0
  4  2  1  0  0  0  0
  5 18  1  6  0  0  0
  5  4  1  0  0  0  0
  5  7  1  0  0  0  0
  6  5  1  0  0  0  0
  7 25  1  0  0  0  0
  7  8  2  0  0  0  0
  9  1  1  0  0  0  0
 12  2  1  0  0  0  0
 17  4  1  0  0  0  0
 19  6  1  0  0  0  0
 20  6  1  0  0  0  0
 21 30  1  0  0  0  0
 21 22  1  0  0  0  0
 22 31  1  1  0  0  0
 22 24  1  0  0  0  0
 23 22  1  0  0  0  0
 24 33  1  1  0  0  0
 24 26  1  0  0  0  0
 25 24  1  0  0  0  0
 26 35  1  0  0  0  0
 26 27  2  0  0  0  0
 28 21  1  0  0  0  0
 29 21  1  0  0  0  0
 32 23  1  0  0  0  0
 34 25  1  0  0  0  0
 35 36  1  0  0  0  0
 36 43  1  1  0  0  0
 36 39  1  0  0  0  0
 37 36  1  0  0  0  0
 37 44  1  0  0  0  0
 38 37  1  0  0  0  0
 39 40  1  0  0  0  0
 41 39  2  0  0  0  0
 42 35  1  0  0  0  0
 45 37  1  0  0  0  0
 46 38  1  0  0  0  0
M  END
$$$$
