LTE.pdb
 OpenBabel07022418473D

 51 50  0  0  1  0  0  0  0  0999 V2000
    0.9820   -4.2830    1.6640 C   0  0  0  0  0  0  0  0  0  0  0  0
    1.2270   -3.0230    2.5230 C   0  0  0  0  0  0  0  0  0  0  0  0
   -0.1280   -2.3880    2.6640 C   0  0  0  0  0  0  0  0  0  0  0  0
    2.1880   -2.1920    1.7700 C   0  0  0  0  0  0  0  0  0  0  0  0
    2.6290   -0.9100    2.3610 C   0  0  2  0  0  0  0  0  0  0  0  0
    3.2710   -1.0590    3.6530 N   0  0  0  0  0  0  0  0  0  0  0  0
    1.6730    0.1900    2.3030 C   0  0  0  0  0  0  0  0  0  0  0  0
    1.3490    0.9100    3.2850 O   0  0  0  0  0  0  0  0  0  0  0  0
    0.1240   -4.1210    0.9750 H   0  0  0  0  0  0  0  0  0  0  0  0
    1.8660   -4.4710    1.0220 H   0  0  0  0  0  0  0  0  0  0  0  0
    0.7210   -5.1220    2.3140 H   0  0  0  0  0  0  0  0  0  0  0  0
    1.6100   -3.4130    3.4880 H   0  0  0  0  0  0  0  0  0  0  0  0
   -0.1460   -1.3150    2.8220 H   0  0  0  0  0  0  0  0  0  0  0  0
   -0.7150   -2.6100    1.7330 H   0  0  0  0  0  0  0  0  0  0  0  0
   -0.7260   -2.8640    3.4800 H   0  0  0  0  0  0  0  0  0  0  0  0
    3.1000   -2.7580    1.4560 H   0  0  0  0  0  0  0  0  0  0  0  0
    1.6930   -1.9360    0.7850 H   0  0  0  0  0  0  0  0  0  0  0  0
    3.4980   -0.5640    1.6930 H   0  0  0  0  0  0  0  0  0  0  0  0
    4.2570   -1.3670    3.5620 H   0  0  0  0  0  0  0  0  0  0  0  0
    2.7170   -1.5870    4.3370 H   0  0  0  0  0  0  0  0  0  0  0  0
    1.8570    3.3500    0.9250 C   0  0  0  0  0  0  0  0  0  0  0  0
    0.7070    2.7090    0.1740 C   0  0  1  0  0  0  0  0  0  0  0  0
    1.1350    2.4180   -1.0970 O   0  0  0  0  0  0  0  0  0  0  0  0
    0.0910    1.5770    0.9320 C   0  0  2  0  0  0  0  0  0  0  0  0
    1.0360    0.5090    1.0620 N   0  0  0  0  0  0  0  0  0  0  0  0
   -1.2010    1.1840    0.3260 C   0  0  0  0  0  0  0  0  0  0  0  0
   -2.1070    2.0350    0.1060 O   0  0  0  0  0  0  0  0  0  0  0  0
    1.6160    3.4740    1.9970 H   0  0  0  0  0  0  0  0  0  0  0  0
    2.8130    2.8310    0.7670 H   0  0  0  0  0  0  0  0  0  0  0  0
    1.9690    4.3820    0.5070 H   0  0  0  0  0  0  0  0  0  0  0  0
   -0.0720    3.5200    0.0950 H   0  0  0  0  0  0  0  0  0  0  0  0
    0.4020    2.6160   -1.7320 H   0  0  0  0  0  0  0  0  0  0  0  0
   -0.0790    1.9780    1.9840 H   0  0  0  0  0  0  0  0  0  0  0  0
    1.2460   -0.0430    0.1780 H   0  0  0  0  0  0  0  0  0  0  0  0
   -1.5320   -0.1560   -0.0520 N   0  0  0  0  0  0  0  0  0  0  0  0
   -2.7900   -0.5110   -0.6240 C   0  0  1  0  0  0  0  0  0  0  0  0
   -2.8040   -1.5390   -1.6830 C   0  0  0  0  0  0  0  0  0  0  0  0
   -2.0320   -1.2800   -2.9230 C   0  0  0  0  0  0  0  0  0  0  0  0
   -0.5830   -1.1020   -2.7330 C   0  0  0  0  0  0  0  0  0  0  0  0
   -0.1280    0.0310   -2.5000 O   0  0  0  0  0  0  0  0  0  0  0  0
   -3.7250   -1.0280    0.4610 C   0  0  0  0  0  0  0  0  0  0  0  0
   -3.3860   -1.1060    1.6540 O   0  0  0  0  0  0  0  0  0  0  0  0
    0.2650   -2.1850   -2.8140 O   0  0  0  0  0  0  0  0  0  0  0  0
   -4.9860   -1.4150    0.0710 O   0  0  0  0  0  0  0  0  0  0  0  0
   -0.8100   -0.8850    0.1030 H   0  0  0  0  0  0  0  0  0  0  0  0
   -3.3000    0.4420   -0.9410 H   0  0  0  0  0  0  0  0  0  0  0  0
   -3.8620   -1.7270   -1.9900 H   0  0  0  0  0  0  0  0  0  0  0  0
   -2.4440   -2.5440   -1.2960 H   0  0  0  0  0  0  0  0  0  0  0  0
   -2.1570   -2.2030   -3.5690 H   0  0  0  0  0  0  0  0  0  0  0  0
   -2.4750   -0.4710   -3.5560 H   0  0  0  0  0  0  0  0  0  0  0  0
    1.2300   -2.1730   -2.4490 H   0  0  0  0  0  0  0  0  0  0  0  0
  1 11  1  0  0  0  0
  1  2  1  0  0  0  0
  2  3  1  0  0  0  0
  2 12  1  0  0  0  0
  3 13  1  0  0  0  0
  3 15  1  0  0  0  0
  4  5  1  0  0  0  0
  4  2  1  0  0  0  0
  5 18  1  6  0  0  0
  5  6  1  0  0  0  0
  6 20  1  0  0  0  0
  7  5  1  0  0  0  0
  7  8  2  0  0  0  0
  9  1  1  0  0  0  0
 10  1  1  0  0  0  0
 14  3  1  0  0  0  0
 16  4  1  0  0  0  0
 17  4  1  0  0  0  0
 19  6  1  0  0  0  0
 21 28  1  0  0  0  0
 22 31  1  6  0  0  0
 22 21  1  0  0  0  0
 22 24  1  0  0  0  0
 23 22  1  0  0  0  0
 24 25  1  0  0  0  0
 24 33  1  1  0  0  0
 25  7  1  0  0  0  0
 26 24  1  0  0  0  0
 27 26  2  0  0  0  0
 29 21  1  0  0  0  0
 30 21  1  0  0  0  0
 32 23  1  0  0  0  0
 34 25  1  0  0  0  0
 35 45  1  0  0  0  0
 35 26  1  0  0  0  0
 36 46  1  6  0  0  0
 36 35  1  0  0  0  0
 36 41  1  0  0  0  0
 37 48  1  0  0  0  0
 37 36  1  0  0  0  0
 38 39  1  0  0  0  0
 38 37  1  0  0  0  0
 39 40  2  0  0  0  0
 41 42  1  0  0  0  0
 43 39  1  0  0  0  0
 43 51  1  0  0  0  0
 44 41  2  0  0  0  0
 47 37  1  0  0  0  0
 49 38  1  0  0  0  0
 50 38  1  0  0  0  0
M  END
$$$$
