LTF.pdb
 OpenBabel07022418473D

 55 55  0  0  1  0  0  0  0  0999 V2000
    2.4490   -3.6960    3.8390 C   0  0  0  0  0  0  0  0  0  0  0  0
    1.9560   -2.2550    3.8440 C   0  0  0  0  0  0  0  0  0  0  0  0
    1.5480   -1.9360    5.2580 C   0  0  0  0  0  0  0  0  0  0  0  0
    3.0930   -1.4060    3.3540 C   0  0  0  0  0  0  0  0  0  0  0  0
    2.7640    0.0630    3.2990 C   0  0  2  0  0  0  0  0  0  0  0  0
    2.4050    0.5890    4.5940 N   0  0  0  0  0  0  0  0  0  0  0  0
    1.7300    0.3730    2.2720 C   0  0  0  0  0  0  0  0  0  0  0  0
    0.7050    1.0200    2.5970 O   0  0  0  0  0  0  0  0  0  0  0  0
    3.5560   -3.6900    4.0640 H   0  0  0  0  0  0  0  0  0  0  0  0
    1.9350   -4.2930    4.6260 H   0  0  0  0  0  0  0  0  0  0  0  0
    2.3390   -4.1600    2.8520 H   0  0  0  0  0  0  0  0  0  0  0  0
    1.0680   -2.2170    3.2010 H   0  0  0  0  0  0  0  0  0  0  0  0
    1.0780   -2.8050    5.7630 H   0  0  0  0  0  0  0  0  0  0  0  0
    0.8130   -1.1060    5.3040 H   0  0  0  0  0  0  0  0  0  0  0  0
    2.4020   -1.6340    5.8940 H   0  0  0  0  0  0  0  0  0  0  0  0
    3.9550   -1.5490    4.0070 H   0  0  0  0  0  0  0  0  0  0  0  0
    3.3320   -1.7400    2.3240 H   0  0  0  0  0  0  0  0  0  0  0  0
    3.6970    0.5850    2.9950 H   0  0  0  0  0  0  0  0  0  0  0  0
    1.6640    1.2900    4.5870 H   0  0  0  0  0  0  0  0  0  0  0  0
    3.2250    0.8180    5.1880 H   0  0  0  0  0  0  0  0  0  0  0  0
    1.7630    2.4970   -0.4720 C   0  0  0  0  0  0  0  0  0  0  0  0
    1.2870    1.2100   -1.1150 C   0  0  1  0  0  0  0  0  0  0  0  0
    2.2850    0.6320   -1.8640 O   0  0  0  0  0  0  0  0  0  0  0  0
    0.7890    0.3150   -0.0030 C   0  0  2  0  0  0  0  0  0  0  0  0
    1.8420   -0.0320    0.9210 N   0  0  0  0  0  0  0  0  0  0  0  0
    0.1690   -0.9200   -0.5090 C   0  0  0  0  0  0  0  0  0  0  0  0
    0.6320   -2.0310   -0.0770 O   0  0  0  0  0  0  0  0  0  0  0  0
    2.1680    3.2090   -1.2200 H   0  0  0  0  0  0  0  0  0  0  0  0
    0.8860    2.9950   -0.0100 H   0  0  0  0  0  0  0  0  0  0  0  0
    2.4950    2.3240    0.3380 H   0  0  0  0  0  0  0  0  0  0  0  0
    0.4250    1.4620   -1.7490 H   0  0  0  0  0  0  0  0  0  0  0  0
    2.3720    1.1740   -2.7050 H   0  0  0  0  0  0  0  0  0  0  0  0
   -0.0110    0.8870    0.5110 H   0  0  0  0  0  0  0  0  0  0  0  0
    2.6720   -0.5710    0.5970 H   0  0  0  0  0  0  0  0  0  0  0  0
   -0.9060   -0.9200   -1.4440 N   0  0  0  0  0  0  0  0  0  0  0  0
   -1.4400   -2.1890   -1.8730 C   0  0  1  0  0  0  0  0  0  0  0  0
   -2.8430   -2.2750   -1.2680 C   0  0  0  0  0  0  0  0  0  0  0  0
   -3.6910   -1.1720   -1.7410 C   0  0  0  0  0  0  0  0  0  0  0  0
   -3.7340    0.0080   -1.0470 C   0  0  0  0  0  0  0  0  0  0  0  0
   -4.5250    1.0600   -1.4730 C   0  0  0  0  0  0  0  0  0  0  0  0
   -5.2810    0.9270   -2.6070 C   0  0  0  0  0  0  0  0  0  0  0  0
   -5.2420   -0.2700   -3.3170 C   0  0  0  0  0  0  0  0  0  0  0  0
   -4.4470   -1.3120   -2.8790 C   0  0  0  0  0  0  0  0  0  0  0  0
   -1.4640   -2.3500   -3.3240 C   0  0  0  0  0  0  0  0  0  0  0  0
   -1.0490   -1.4400   -4.0630 O   0  0  0  0  0  0  0  0  0  0  0  0
   -1.9450   -3.5090   -3.8840 O   0  0  0  0  0  0  0  0  0  0  0  0
   -1.2500    0.0010   -1.7660 H   0  0  0  0  0  0  0  0  0  0  0  0
   -0.8690   -2.9940   -1.3560 H   0  0  0  0  0  0  0  0  0  0  0  0
   -3.2770   -3.2800   -1.5320 H   0  0  0  0  0  0  0  0  0  0  0  0
   -2.7810   -2.2490   -0.1660 H   0  0  0  0  0  0  0  0  0  0  0  0
   -3.1620    0.1830   -0.1410 H   0  0  0  0  0  0  0  0  0  0  0  0
   -4.5770    1.9990   -0.9460 H   0  0  0  0  0  0  0  0  0  0  0  0
   -5.9260    1.7260   -2.9910 H   0  0  0  0  0  0  0  0  0  0  0  0
   -5.8270   -0.4040   -4.2150 H   0  0  0  0  0  0  0  0  0  0  0  0
   -4.4510   -2.2230   -3.4670 H   0  0  0  0  0  0  0  0  0  0  0  0
  1  2  1  0  0  0  0
  1  9  1  0  0  0  0
  1 10  1  0  0  0  0
  2  3  1  0  0  0  0
  3 14  1  0  0  0  0
  3 13  1  0  0  0  0
  3 15  1  0  0  0  0
  4  2  1  0  0  0  0
  4 16  1  0  0  0  0
  5 18  1  6  0  0  0
  5  4  1  0  0  0  0
  5  6  1  0  0  0  0
  6 20  1  0  0  0  0
  7  8  2  0  0  0  0
  7  5  1  0  0  0  0
 11  1  1  0  0  0  0
 12  2  1  0  0  0  0
 17  4  1  0  0  0  0
 19  6  1  0  0  0  0
 21 29  1  0  0  0  0
 21 30  1  0  0  0  0
 22 31  1  6  0  0  0
 22 21  1  0  0  0  0
 22 24  1  0  0  0  0
 23 22  1  0  0  0  0
 24 33  1  1  0  0  0
 24 25  1  0  0  0  0
 25  7  1  0  0  0  0
 26 27  2  0  0  0  0
 26 24  1  0  0  0  0
 28 21  1  0  0  0  0
 32 23  1  0  0  0  0
 34 25  1  0  0  0  0
 35 26  1  0  0  0  0
 36 35  1  0  0  0  0
 36 48  1  1  0  0  0
 36 37  1  0  0  0  0
 37 50  1  0  0  0  0
 38 37  1  0  0  0  0
 38 39  1  0  0  0  0
 39 51  1  0  0  0  0
 40 39  2  0  0  0  0
 40 52  1  0  0  0  0
 41 40  1  0  0  0  0
 42 43  1  0  0  0  0
 42 41  2  0  0  0  0
 43 38  2  0  0  0  0
 44 36  1  0  0  0  0
 45 44  2  0  0  0  0
 46 44  1  0  0  0  0
 47 35  1  0  0  0  0
 49 37  1  0  0  0  0
 53 41  1  0  0  0  0
 54 42  1  0  0  0  0
 55 43  1  0  0  0  0
M  END
$$$$
