LTG.pdb
 OpenBabel07022418473D

 42 41  0  0  1  0  0  0  0  0999 V2000
    0.3730   -4.5880    3.3030 C   0  0  0  0  0  0  0  0  0  0  0  0
    1.1730   -4.5970    2.0100 C   0  0  0  0  0  0  0  0  0  0  0  0
    0.2850   -5.1260    0.9060 C   0  0  0  0  0  0  0  0  0  0  0  0
    1.7260   -3.2240    1.6940 C   0  0  0  0  0  0  0  0  0  0  0  0
    0.6070   -2.2180    1.5390 C   0  0  2  0  0  0  0  0  0  0  0  0
   -0.3020   -2.5500    0.4920 N   0  0  0  0  0  0  0  0  0  0  0  0
    1.1550   -0.8400    1.4450 C   0  0  0  0  0  0  0  0  0  0  0  0
    1.9610   -0.4840    2.3350 O   0  0  0  0  0  0  0  0  0  0  0  0
    0.7000   -3.8010    3.9890 H   0  0  0  0  0  0  0  0  0  0  0  0
    0.5080   -5.5760    3.7900 H   0  0  0  0  0  0  0  0  0  0  0  0
   -0.7050   -4.4820    3.0550 H   0  0  0  0  0  0  0  0  0  0  0  0
    2.0450   -5.2850    2.1280 H   0  0  0  0  0  0  0  0  0  0  0  0
    0.2970   -6.2450    0.9940 H   0  0  0  0  0  0  0  0  0  0  0  0
   -0.7780   -4.8150    1.0470 H   0  0  0  0  0  0  0  0  0  0  0  0
    0.6670   -4.8400   -0.1010 H   0  0  0  0  0  0  0  0  0  0  0  0
    2.4350   -2.9530    2.4810 H   0  0  0  0  0  0  0  0  0  0  0  0
    2.2730   -3.3080    0.7390 H   0  0  0  0  0  0  0  0  0  0  0  0
    0.0290   -2.2520    2.5040 H   0  0  0  0  0  0  0  0  0  0  0  0
   -1.2250   -2.0750    0.6470 H   0  0  0  0  0  0  0  0  0  0  0  0
    0.0470   -2.4270   -0.4630 H   0  0  0  0  0  0  0  0  0  0  0  0
    2.8430    3.0110   -0.7390 C   0  0  0  0  0  0  0  0  0  0  0  0
    2.2090    1.6280   -0.8560 C   0  0  1  0  0  0  0  0  0  0  0  0
    3.2610    0.7250   -0.9640 O   0  0  0  0  0  0  0  0  0  0  0  0
    1.3990    1.4020    0.4020 C   0  0  2  0  0  0  0  0  0  0  0  0
    0.8290    0.0790    0.4330 N   0  0  0  0  0  0  0  0  0  0  0  0
    0.3270    2.4550    0.4010 C   0  0  0  0  0  0  0  0  0  0  0  0
    0.6240    3.6740    0.3760 O   0  0  0  0  0  0  0  0  0  0  0  0
    2.2780    3.7790   -1.2830 H   0  0  0  0  0  0  0  0  0  0  0  0
    2.9370    3.3380    0.3130 H   0  0  0  0  0  0  0  0  0  0  0  0
    3.8790    3.0090   -1.1600 H   0  0  0  0  0  0  0  0  0  0  0  0
    1.5850    1.6300   -1.7530 H   0  0  0  0  0  0  0  0  0  0  0  0
    3.6870    0.5710   -0.0910 H   0  0  0  0  0  0  0  0  0  0  0  0
    2.0730    1.5060    1.2660 H   0  0  0  0  0  0  0  0  0  0  0  0
    0.1440   -0.2620   -0.3000 H   0  0  0  0  0  0  0  0  0  0  0  0
   -1.0210    2.0760    0.4270 N   0  0  0  0  0  0  0  0  0  0  0  0
   -2.1150    3.0300    0.4280 C   0  0  0  0  0  0  0  0  0  0  0  0
   -3.4080    2.3510    0.4580 C   0  0  0  0  0  0  0  0  0  0  0  0
   -3.4720    1.1030    0.4800 O   0  0  0  0  0  0  0  0  0  0  0  0
   -4.5750    3.0850    0.4630 O   0  0  0  0  0  0  0  0  0  0  0  0
   -1.2390    1.0480    0.4470 H   0  0  0  0  0  0  0  0  0  0  0  0
   -2.0290    3.7230   -0.4400 H   0  0  0  0  0  0  0  0  0  0  0  0
   -2.0240    3.6350    1.3660 H   0  0  0  0  0  0  0  0  0  0  0  0
  1 10  1  0  0  0  0
  1  9  1  0  0  0  0
  2 12  1  0  0  0  0
  2  1  1  0  0  0  0
  3 13  1  0  0  0  0
  3 14  1  0  0  0  0
  3  2  1  0  0  0  0
  4  2  1  0  0  0  0
  4 16  1  0  0  0  0
  5  4  1  0  0  0  0
  5 18  1  1  0  0  0
  6 19  1  0  0  0  0
  6  5  1  0  0  0  0
  7  5  1  0  0  0  0
  7  8  2  0  0  0  0
 11  1  1  0  0  0  0
 15  3  1  0  0  0  0
 17  4  1  0  0  0  0
 20  6  1  0  0  0  0
 21 29  1  0  0  0  0
 22 31  1  6  0  0  0
 22 21  1  0  0  0  0
 22 24  1  0  0  0  0
 23 22  1  0  0  0  0
 23 32  1  0  0  0  0
 24 25  1  0  0  0  0
 24 33  1  1  0  0  0
 25  7  1  0  0  0  0
 26 24  1  0  0  0  0
 26 35  1  0  0  0  0
 27 26  2  0  0  0  0
 28 21  1  0  0  0  0
 30 21  1  0  0  0  0
 34 25  1  0  0  0  0
 35 36  1  0  0  0  0
 35 40  1  0  0  0  0
 36 37  1  0  0  0  0
 36 42  1  0  0  0  0
 37 39  2  0  0  0  0
 37 38  1  0  0  0  0
 41 36  1  0  0  0  0
M  END
$$$$
