LTH.pdb
 OpenBabel07022418473D

 52 52  0  0  1  0  0  0  0  0999 V2000
    1.1830   -3.3290    1.0510 C   0  0  0  0  0  0  0  0  0  0  0  0
    2.5680   -3.2000    0.5110 C   0  0  0  0  0  0  0  0  0  0  0  0
    2.5120   -2.9710   -0.9950 C   0  0  0  0  0  0  0  0  0  0  0  0
    3.4990   -2.3050    1.2010 C   0  0  0  0  0  0  0  0  0  0  0  0
    3.2700   -0.8640    1.3330 C   0  0  2  0  0  0  0  0  0  0  0  0
    4.4870   -0.3990    2.1110 N   0  0  0  0  0  0  0  0  0  0  0  0
    2.1060   -0.3310    1.9840 C   0  0  0  0  0  0  0  0  0  0  0  0
    2.1240   -0.0990    3.2200 O   0  0  0  0  0  0  0  0  0  0  0  0
    1.0040   -4.3760    1.4800 H   0  0  0  0  0  0  0  0  0  0  0  0
    0.9320   -2.6740    1.8800 H   0  0  0  0  0  0  0  0  0  0  0  0
    0.4710   -3.3170    0.1900 H   0  0  0  0  0  0  0  0  0  0  0  0
    3.0270   -4.2410    0.5860 H   0  0  0  0  0  0  0  0  0  0  0  0
    2.3960   -3.9220   -1.5550 H   0  0  0  0  0  0  0  0  0  0  0  0
    1.5950   -2.3780   -1.2040 H   0  0  0  0  0  0  0  0  0  0  0  0
    3.4180   -2.4340   -1.3050 H   0  0  0  0  0  0  0  0  0  0  0  0
    3.7020   -2.7930    2.2180 H   0  0  0  0  0  0  0  0  0  0  0  0
    4.5170   -2.4640    0.7020 H   0  0  0  0  0  0  0  0  0  0  0  0
    3.4480   -0.3590    0.3370 H   0  0  0  0  0  0  0  0  0  0  0  0
    4.7140   -1.1080    2.8170 H   0  0  0  0  0  0  0  0  0  0  0  0
    4.2880    0.5440    2.4940 H   0  0  0  0  0  0  0  0  0  0  0  0
    0.7740    2.8090    2.2960 C   0  0  0  0  0  0  0  0  0  0  0  0
   -0.3950    2.0310    1.7710 C   0  0  1  0  0  0  0  0  0  0  0  0
   -0.5900    2.1900    0.4160 O   0  0  0  0  0  0  0  0  0  0  0  0
   -0.2440    0.5320    2.0370 C   0  0  2  0  0  0  0  0  0  0  0  0
    0.8690   -0.0150    1.3240 N   0  0  0  0  0  0  0  0  0  0  0  0
   -1.5530   -0.0560    1.7300 C   0  0  0  0  0  0  0  0  0  0  0  0
   -2.6110    0.3400    2.3560 O   0  0  0  0  0  0  0  0  0  0  0  0
    0.9610    2.5390    3.3440 H   0  0  0  0  0  0  0  0  0  0  0  0
    1.6690    2.6940    1.6490 H   0  0  0  0  0  0  0  0  0  0  0  0
    0.4960    3.8830    2.2690 H   0  0  0  0  0  0  0  0  0  0  0  0
   -1.3100    2.3580    2.2960 H   0  0  0  0  0  0  0  0  0  0  0  0
   -0.3150    3.0990    0.1570 H   0  0  0  0  0  0  0  0  0  0  0  0
   -0.0200    0.4590    3.1300 H   0  0  0  0  0  0  0  0  0  0  0  0
    0.7720   -0.1810    0.2950 H   0  0  0  0  0  0  0  0  0  0  0  0
   -1.6660   -1.0620    0.7450 N   0  0  0  0  0  0  0  0  0  0  0  0
   -2.9510   -1.6440    0.4380 C   0  0  1  0  0  0  0  0  0  0  0  0
   -3.2670   -1.4720   -1.0130 C   0  0  0  0  0  0  0  0  0  0  0  0
   -3.3210   -0.0530   -1.4410 C   0  0  0  0  0  0  0  0  0  0  0  0
   -2.3380    0.7710   -1.9250 C   0  0  0  0  0  0  0  0  0  0  0  0
   -2.8630    1.9770   -2.1790 N   0  0  0  0  0  0  0  0  0  0  0  0
   -4.1690    1.9150   -1.8580 C   0  0  0  0  0  0  0  0  0  0  0  0
   -4.4510    0.6890   -1.4120 N   0  0  0  0  0  0  0  0  0  0  0  0
   -3.0020   -3.1020    0.7530 C   0  0  0  0  0  0  0  0  0  0  0  0
   -2.0330   -3.7000    1.2310 O   0  0  0  0  0  0  0  0  0  0  0  0
   -4.1800   -3.7720    0.4910 O   0  0  0  0  0  0  0  0  0  0  0  0
   -0.8360   -1.3860    0.2330 H   0  0  0  0  0  0  0  0  0  0  0  0
   -3.7410   -1.1310    1.0390 H   0  0  0  0  0  0  0  0  0  0  0  0
   -4.2490   -1.9480   -1.2320 H   0  0  0  0  0  0  0  0  0  0  0  0
   -2.4880   -1.9950   -1.6320 H   0  0  0  0  0  0  0  0  0  0  0  0
   -1.3190    0.4650   -2.0640 H   0  0  0  0  0  0  0  0  0  0  0  0
   -2.3230    2.7870   -2.5560 H   0  0  0  0  0  0  0  0  0  0  0  0
   -4.8400    2.7590   -1.9670 H   0  0  0  0  0  0  0  0  0  0  0  0
  1  9  1  0  0  0  0
  1 10  1  0  0  0  0
  2 12  1  0  0  0  0
  2  1  1  0  0  0  0
  2  4  1  0  0  0  0
  3  2  1  0  0  0  0
  4  5  1  0  0  0  0
  4 16  1  0  0  0  0
  5 18  1  6  0  0  0
  5  7  1  0  0  0  0
  5  6  1  0  0  0  0
  6 20  1  0  0  0  0
  6 19  1  0  0  0  0
  7  8  2  0  0  0  0
 11  1  1  0  0  0  0
 13  3  1  0  0  0  0
 14  3  1  0  0  0  0
 15  3  1  0  0  0  0
 17  4  1  0  0  0  0
 21 28  1  0  0  0  0
 22 24  1  0  0  0  0
 22 31  1  1  0  0  0
 22 21  1  0  0  0  0
 23 22  1  0  0  0  0
 24 33  1  1  0  0  0
 25  7  1  0  0  0  0
 25 24  1  0  0  0  0
 26 24  1  0  0  0  0
 26 27  2  0  0  0  0
 29 21  1  0  0  0  0
 30 21  1  0  0  0  0
 32 23  1  0  0  0  0
 34 25  1  0  0  0  0
 35 26  1  0  0  0  0
 36 35  1  0  0  0  0
 36 43  1  0  0  0  0
 36 47  1  1  0  0  0
 37 36  1  0  0  0  0
 38 42  1  0  0  0  0
 38 37  1  0  0  0  0
 39 38  2  0  0  0  0
 40 39  1  0  0  0  0
 40 41  1  0  0  0  0
 41 42  2  0  0  0  0
 43 44  1  0  0  0  0
 45 43  2  0  0  0  0
 46 35  1  0  0  0  0
 48 37  1  0  0  0  0
 49 37  1  0  0  0  0
 50 39  1  0  0  0  0
 51 40  1  0  0  0  0
 52 41  1  0  0  0  0
M  END
$$$$
