LTK.pdb
 OpenBabel07022418473D

 56 55  0  0  1  0  0  0  0  0999 V2000
   -2.9430   -0.0690    3.6600 C   0  0  0  0  0  0  0  0  0  0  0  0
   -2.0560    1.0590    4.0280 C   0  0  0  0  0  0  0  0  0  0  0  0
   -2.6540    1.7710    5.2240 C   0  0  0  0  0  0  0  0  0  0  0  0
   -1.8130    2.0630    2.9550 C   0  0  0  0  0  0  0  0  0  0  0  0
   -1.1720    1.5140    1.7140 C   0  0  2  0  0  0  0  0  0  0  0  0
   -1.9900    0.4810    1.1020 N   0  0  0  0  0  0  0  0  0  0  0  0
    0.2090    1.0570    1.9150 C   0  0  0  0  0  0  0  0  0  0  0  0
    1.1190    1.7360    2.4150 O   0  0  0  0  0  0  0  0  0  0  0  0
   -3.8600    0.2880    3.1210 H   0  0  0  0  0  0  0  0  0  0  0  0
   -2.4400   -0.8870    3.1040 H   0  0  0  0  0  0  0  0  0  0  0  0
   -3.3270   -0.5320    4.5980 H   0  0  0  0  0  0  0  0  0  0  0  0
   -1.0670    0.6530    4.3560 H   0  0  0  0  0  0  0  0  0  0  0  0
   -3.7720    1.7380    5.1590 H   0  0  0  0  0  0  0  0  0  0  0  0
   -2.3240    2.8310    5.2880 H   0  0  0  0  0  0  0  0  0  0  0  0
   -2.3930    1.2350    6.1510 H   0  0  0  0  0  0  0  0  0  0  0  0
   -2.7690    2.5390    2.6450 H   0  0  0  0  0  0  0  0  0  0  0  0
   -1.1680    2.8770    3.3440 H   0  0  0  0  0  0  0  0  0  0  0  0
   -1.1360    2.3510    0.9790 H   0  0  0  0  0  0  0  0  0  0  0  0
   -2.9490    0.8270    0.8770 H   0  0  0  0  0  0  0  0  0  0  0  0
   -1.5460    0.3040    0.1520 H   0  0  0  0  0  0  0  0  0  0  0  0
    3.3490   -2.4760    2.6770 C   0  0  0  0  0  0  0  0  0  0  0  0
    1.9060   -2.0410    2.5410 C   0  0  1  0  0  0  0  0  0  0  0  0
    1.4470   -1.7030    3.8130 O   0  0  0  0  0  0  0  0  0  0  0  0
    1.8690   -0.8260    1.6560 C   0  0  2  0  0  0  0  0  0  0  0  0
    0.5480   -0.2710    1.5080 N   0  0  0  0  0  0  0  0  0  0  0  0
    2.3900   -1.1110    0.2940 C   0  0  0  0  0  0  0  0  0  0  0  0
    3.5440   -1.6040    0.2100 O   0  0  0  0  0  0  0  0  0  0  0  0
    3.5730   -3.3700    2.0410 H   0  0  0  0  0  0  0  0  0  0  0  0
    4.0630   -1.6430    2.4900 H   0  0  0  0  0  0  0  0  0  0  0  0
    3.5750   -2.8170    3.7270 H   0  0  0  0  0  0  0  0  0  0  0  0
    1.3310   -2.8970    2.1150 H   0  0  0  0  0  0  0  0  0  0  0  0
    2.1260   -1.0620    4.1810 H   0  0  0  0  0  0  0  0  0  0  0  0
    2.5300   -0.0650    2.1190 H   0  0  0  0  0  0  0  0  0  0  0  0
   -0.1770   -0.8870    1.0820 H   0  0  0  0  0  0  0  0  0  0  0  0
    1.6750   -0.8620   -0.8860 N   0  0  0  0  0  0  0  0  0  0  0  0
    2.1630   -1.1310   -2.2170 C   0  0  1  0  0  0  0  0  0  0  0  0
    1.3550   -2.2240   -2.8760 C   0  0  0  0  0  0  0  0  0  0  0  0
   -0.0990   -1.8830   -3.0070 C   0  0  0  0  0  0  0  0  0  0  0  0
   -0.7830   -3.0590   -3.6800 C   0  0  0  0  0  0  0  0  0  0  0  0
   -2.2700   -2.7160   -3.8170 C   0  0  0  0  0  0  0  0  0  0  0  0
   -2.9800   -3.8040   -4.4550 N   0  0  0  0  0  0  0  0  0  0  0  0
    2.2970    0.0680   -3.0430 C   0  0  0  0  0  0  0  0  0  0  0  0
    2.0060    1.1970   -2.5990 O   0  0  0  0  0  0  0  0  0  0  0  0
    2.7540   -0.0470   -4.3380 O   0  0  0  0  0  0  0  0  0  0  0  0
    0.7160   -0.4520   -0.8080 H   0  0  0  0  0  0  0  0  0  0  0  0
    3.1990   -1.5630   -2.0820 H   0  0  0  0  0  0  0  0  0  0  0  0
    1.4740   -3.1570   -2.3170 H   0  0  0  0  0  0  0  0  0  0  0  0
    1.7520   -2.4000   -3.8970 H   0  0  0  0  0  0  0  0  0  0  0  0
   -0.2830   -1.0000   -3.6230 H   0  0  0  0  0  0  0  0  0  0  0  0
   -0.5990   -1.7200   -2.0330 H   0  0  0  0  0  0  0  0  0  0  0  0
   -0.6640   -3.9790   -3.0920 H   0  0  0  0  0  0  0  0  0  0  0  0
   -0.3670   -3.1800   -4.7060 H   0  0  0  0  0  0  0  0  0  0  0  0
   -2.3730   -1.8290   -4.4760 H   0  0  0  0  0  0  0  0  0  0  0  0
   -2.7140   -2.4970   -2.8370 H   0  0  0  0  0  0  0  0  0  0  0  0
   -3.8310   -3.4800   -4.9610 H   0  0  0  0  0  0  0  0  0  0  0  0
   -3.1550   -4.5670   -3.7890 H   0  0  0  0  0  0  0  0  0  0  0  0
  1  2  1  0  0  0  0
  1 11  1  0  0  0  0
  2 12  1  0  0  0  0
  2  3  1  0  0  0  0
  3 14  1  0  0  0  0
  3 15  1  0  0  0  0
  4 17  1  0  0  0  0
  4  2  1  0  0  0  0
  5 18  1  6  0  0  0
  5  7  1  0  0  0  0
  5  4  1  0  0  0  0
  6  5  1  0  0  0  0
  7  8  2  0  0  0  0
  9  1  1  0  0  0  0
 10  1  1  0  0  0  0
 13  3  1  0  0  0  0
 16  4  1  0  0  0  0
 19  6  1  0  0  0  0
 20  6  1  0  0  0  0
 21 30  1  0  0  0  0
 22 31  1  6  0  0  0
 22 21  1  0  0  0  0
 22 23  1  0  0  0  0
 23 32  1  0  0  0  0
 24 33  1  1  0  0  0
 24 22  1  0  0  0  0
 25 24  1  0  0  0  0
 25  7  1  0  0  0  0
 26 24  1  0  0  0  0
 27 26  2  0  0  0  0
 28 21  1  0  0  0  0
 29 21  1  0  0  0  0
 34 25  1  0  0  0  0
 35 45  1  0  0  0  0
 35 26  1  0  0  0  0
 36 46  1  1  0  0  0
 36 35  1  0  0  0  0
 37 47  1  0  0  0  0
 37 36  1  0  0  0  0
 38 37  1  0  0  0  0
 38 50  1  0  0  0  0
 39 51  1  0  0  0  0
 39 38  1  0  0  0  0
 40 39  1  0  0  0  0
 40 54  1  0  0  0  0
 41 40  1  0  0  0  0
 41 56  1  0  0  0  0
 42 43  1  0  0  0  0
 42 36  1  0  0  0  0
 44 42  2  0  0  0  0
 48 37  1  0  0  0  0
 49 38  1  0  0  0  0
 52 39  1  0  0  0  0
 53 40  1  0  0  0  0
 55 41  1  0  0  0  0
M  END
$$$$
