LTL.pdb
 OpenBabel07022418473D

 54 53  0  0  1  0  0  0  0  0999 V2000
    0.5200   -4.8410    1.6100 C   0  0  0  0  0  0  0  0  0  0  0  0
    1.3560   -3.6800    2.1540 C   0  0  0  0  0  0  0  0  0  0  0  0
    0.4350   -2.7770    2.9130 C   0  0  0  0  0  0  0  0  0  0  0  0
    2.1340   -3.0320    1.0610 C   0  0  0  0  0  0  0  0  0  0  0  0
    2.9860   -1.8810    1.4770 C   0  0  2  0  0  0  0  0  0  0  0  0
    3.9500   -2.3370    2.4840 N   0  0  0  0  0  0  0  0  0  0  0  0
    2.2760   -0.6600    1.8570 C   0  0  0  0  0  0  0  0  0  0  0  0
    2.4330   -0.1880    3.0070 O   0  0  0  0  0  0  0  0  0  0  0  0
    0.0050   -5.2980    2.4950 H   0  0  0  0  0  0  0  0  0  0  0  0
   -0.2710   -4.4770    0.9380 H   0  0  0  0  0  0  0  0  0  0  0  0
    1.1650   -5.6010    1.1180 H   0  0  0  0  0  0  0  0  0  0  0  0
    2.1060   -4.1710    2.8340 H   0  0  0  0  0  0  0  0  0  0  0  0
    1.0190   -2.4020    3.8040 H   0  0  0  0  0  0  0  0  0  0  0  0
    0.0100   -1.9760    2.3070 H   0  0  0  0  0  0  0  0  0  0  0  0
   -0.4230   -3.3480    3.3730 H   0  0  0  0  0  0  0  0  0  0  0  0
    1.5040   -2.7300    0.1960 H   0  0  0  0  0  0  0  0  0  0  0  0
    2.8260   -3.8140    0.6520 H   0  0  0  0  0  0  0  0  0  0  0  0
    3.6430   -1.6410    0.5830 H   0  0  0  0  0  0  0  0  0  0  0  0
    4.3300   -1.5320    3.0210 H   0  0  0  0  0  0  0  0  0  0  0  0
    4.7630   -2.8110    2.0310 H   0  0  0  0  0  0  0  0  0  0  0  0
    2.8040    2.3580    0.8020 C   0  0  0  0  0  0  0  0  0  0  0  0
    1.3330    2.3170    0.4440 C   0  0  1  0  0  0  0  0  0  0  0  0
    1.2410    1.9690   -0.9020 O   0  0  0  0  0  0  0  0  0  0  0  0
    0.6900    1.1970    1.2460 C   0  0  2  0  0  0  0  0  0  0  0  0
    1.4190    0.0040    0.9600 N   0  0  0  0  0  0  0  0  0  0  0  0
   -0.7520    1.0980    0.9980 C   0  0  0  0  0  0  0  0  0  0  0  0
   -1.5570    2.0600    1.2260 O   0  0  0  0  0  0  0  0  0  0  0  0
    3.3250    1.4770    0.3880 H   0  0  0  0  0  0  0  0  0  0  0  0
    3.2790    3.3180    0.5190 H   0  0  0  0  0  0  0  0  0  0  0  0
    2.9170    2.2910    1.9190 H   0  0  0  0  0  0  0  0  0  0  0  0
    0.8430    3.2810    0.5990 H   0  0  0  0  0  0  0  0  0  0  0  0
    1.3910    2.7530   -1.5080 H   0  0  0  0  0  0  0  0  0  0  0  0
    0.8460    1.4640    2.3120 H   0  0  0  0  0  0  0  0  0  0  0  0
    1.3090   -0.4170    0.0020 H   0  0  0  0  0  0  0  0  0  0  0  0
   -3.1730    1.8010   -1.7880 C   0  0  0  0  0  0  0  0  0  0  0  0
   -2.4570    0.5310   -2.1460 C   0  0  0  0  0  0  0  0  0  0  0  0
   -2.8330    0.1800   -3.5700 C   0  0  0  0  0  0  0  0  0  0  0  0
   -2.9510   -0.5710   -1.2580 C   0  0  0  0  0  0  0  0  0  0  0  0
   -2.6970   -0.2700    0.2200 C   0  0  2  0  0  0  0  0  0  0  0  0
   -1.2930   -0.1040    0.4860 N   0  0  0  0  0  0  0  0  0  0  0  0
   -3.3350   -1.3400    0.9900 C   0  0  0  0  0  0  0  0  0  0  0  0
   -4.5640   -1.5400    0.8070 O   0  0  0  0  0  0  0  0  0  0  0  0
   -2.7010   -2.1590    1.9130 O   0  0  0  0  0  0  0  0  0  0  0  0
   -4.0610    1.6210   -1.1180 H   0  0  0  0  0  0  0  0  0  0  0  0
   -3.6180    2.2940   -2.6950 H   0  0  0  0  0  0  0  0  0  0  0  0
   -2.5520    2.5500   -1.2900 H   0  0  0  0  0  0  0  0  0  0  0  0
   -1.3540    0.6390   -2.1310 H   0  0  0  0  0  0  0  0  0  0  0  0
   -3.8970    0.4030   -3.7860 H   0  0  0  0  0  0  0  0  0  0  0  0
   -2.5960   -0.8920   -3.7320 H   0  0  0  0  0  0  0  0  0  0  0  0
   -2.1500    0.7600   -4.2400 H   0  0  0  0  0  0  0  0  0  0  0  0
   -2.5030   -1.5140   -1.5660 H   0  0  0  0  0  0  0  0  0  0  0  0
   -4.0470   -0.6520   -1.4060 H   0  0  0  0  0  0  0  0  0  0  0  0
   -3.2110    0.6800    0.4790 H   0  0  0  0  0  0  0  0  0  0  0  0
   -0.6690   -0.9110    0.2850 H   0  0  0  0  0  0  0  0  0  0  0  0
  1  2  1  0  0  0  0
  1  9  1  0  0  0  0
  2 12  1  0  0  0  0
  2  3  1  0  0  0  0
  3 15  1  0  0  0  0
  3 13  1  0  0  0  0
  4  5  1  0  0  0  0
  4  2  1  0  0  0  0
  5 18  1  6  0  0  0
  5  7  1  0  0  0  0
  5  6  1  0  0  0  0
  6 19  1  0  0  0  0
  7  8  2  0  0  0  0
 10  1  1  0  0  0  0
 11  1  1  0  0  0  0
 14  3  1  0  0  0  0
 16  4  1  0  0  0  0
 17  4  1  0  0  0  0
 20  6  1  0  0  0  0
 21 30  1  0  0  0  0
 22 31  1  1  0  0  0
 22 21  1  0  0  0  0
 22 24  1  0  0  0  0
 23 22  1  0  0  0  0
 24 33  1  1  0  0  0
 25 24  1  0  0  0  0
 25  7  1  0  0  0  0
 26 27  2  0  0  0  0
 26 24  1  0  0  0  0
 28 21  1  0  0  0  0
 29 21  1  0  0  0  0
 32 23  1  0  0  0  0
 34 25  1  0  0  0  0
 35 46  1  0  0  0  0
 35 44  1  0  0  0  0
 36 47  1  0  0  0  0
 36 35  1  0  0  0  0
 36 38  1  0  0  0  0
 37 36  1  0  0  0  0
 38 39  1  0  0  0  0
 39 53  1  1  0  0  0
 39 40  1  0  0  0  0
 39 41  1  0  0  0  0
 40 26  1  0  0  0  0
 41 43  1  0  0  0  0
 42 41  2  0  0  0  0
 45 35  1  0  0  0  0
 48 37  1  0  0  0  0
 49 37  1  0  0  0  0
 50 37  1  0  0  0  0
 51 38  1  0  0  0  0
 52 38  1  0  0  0  0
 54 40  1  0  0  0  0
M  END
$$$$
