LTN.pdb
 OpenBabel07022418473D

 49 48  0  0  1  0  0  0  0  0999 V2000
    0.7490   -4.0270   -1.1060 C   0  0  0  0  0  0  0  0  0  0  0  0
    1.4230   -3.4720    0.1370 C   0  0  0  0  0  0  0  0  0  0  0  0
    0.3580   -3.2180    1.1540 C   0  0  0  0  0  0  0  0  0  0  0  0
    2.2050   -2.2630   -0.2820 C   0  0  0  0  0  0  0  0  0  0  0  0
    2.9340   -1.5910    0.8510 C   0  0  2  0  0  0  0  0  0  0  0  0
    3.8690   -2.4650    1.5030 N   0  0  0  0  0  0  0  0  0  0  0  0
    2.0940   -0.8950    1.8150 C   0  0  0  0  0  0  0  0  0  0  0  0
    2.0940   -1.1550    3.0500 O   0  0  0  0  0  0  0  0  0  0  0  0
   -0.1050   -4.6880   -0.8580 H   0  0  0  0  0  0  0  0  0  0  0  0
    1.4620   -4.4950   -1.8020 H   0  0  0  0  0  0  0  0  0  0  0  0
    0.3090   -3.1530   -1.6430 H   0  0  0  0  0  0  0  0  0  0  0  0
    2.1330   -4.2790    0.4560 H   0  0  0  0  0  0  0  0  0  0  0  0
   -0.4470   -3.9940    0.9970 H   0  0  0  0  0  0  0  0  0  0  0  0
    0.6950   -3.3680    2.1970 H   0  0  0  0  0  0  0  0  0  0  0  0
   -0.1030   -2.2560    0.9510 H   0  0  0  0  0  0  0  0  0  0  0  0
    1.5570   -1.5580   -0.7990 H   0  0  0  0  0  0  0  0  0  0  0  0
    2.9750   -2.6080   -1.0020 H   0  0  0  0  0  0  0  0  0  0  0  0
    3.5700   -0.7960    0.3550 H   0  0  0  0  0  0  0  0  0  0  0  0
    4.6340   -1.8640    1.9250 H   0  0  0  0  0  0  0  0  0  0  0  0
    4.3710   -3.0750    0.8050 H   0  0  0  0  0  0  0  0  0  0  0  0
    2.3320    2.0970    3.0960 C   0  0  0  0  0  0  0  0  0  0  0  0
    0.9260    2.2510    2.5960 C   0  0  1  0  0  0  0  0  0  0  0  0
    0.8930    2.9210    1.3890 O   0  0  0  0  0  0  0  0  0  0  0  0
    0.3790    0.8370    2.3670 C   0  0  2  0  0  0  0  0  0  0  0  0
    1.1980    0.1580    1.3970 N   0  0  0  0  0  0  0  0  0  0  0  0
   -1.0430    0.8840    1.9910 C   0  0  0  0  0  0  0  0  0  0  0  0
   -1.8580    1.4330    2.7600 O   0  0  0  0  0  0  0  0  0  0  0  0
    2.8870    1.4170    2.4030 H   0  0  0  0  0  0  0  0  0  0  0  0
    2.8530    3.0720    3.2020 H   0  0  0  0  0  0  0  0  0  0  0  0
    2.2970    1.5580    4.0760 H   0  0  0  0  0  0  0  0  0  0  0  0
    0.2820    2.7170    3.3610 H   0  0  0  0  0  0  0  0  0  0  0  0
    1.3750    3.7930    1.5330 H   0  0  0  0  0  0  0  0  0  0  0  0
    0.4640    0.3400    3.3650 H   0  0  0  0  0  0  0  0  0  0  0  0
    1.1300    0.4420    0.3940 H   0  0  0  0  0  0  0  0  0  0  0  0
   -2.7030    1.0890   -3.2660 N   0  0  0  0  0  0  0  0  0  0  0  0
   -2.5900    0.5300   -1.9710 C   0  0  0  0  0  0  0  0  0  0  0  0
   -1.9250   -0.5290   -1.8200 O   0  0  0  0  0  0  0  0  0  0  0  0
   -3.2300    1.1580   -0.8090 C   0  0  0  0  0  0  0  0  0  0  0  0
   -2.9320    0.4020    0.4520 C   0  0  2  0  0  0  0  0  0  0  0  0
   -1.5240    0.3250    0.7770 N   0  0  0  0  0  0  0  0  0  0  0  0
   -3.5130   -0.9440    0.3360 C   0  0  0  0  0  0  0  0  0  0  0  0
   -4.7340   -1.0480    0.0540 O   0  0  0  0  0  0  0  0  0  0  0  0
   -2.7930   -2.1110    0.5200 O   0  0  0  0  0  0  0  0  0  0  0  0
   -3.4220    0.7520   -3.9250 H   0  0  0  0  0  0  0  0  0  0  0  0
   -2.0520    1.8450   -3.5490 H   0  0  0  0  0  0  0  0  0  0  0  0
   -4.3260    1.1100   -0.9640 H   0  0  0  0  0  0  0  0  0  0  0  0
   -2.9290    2.2320   -0.7360 H   0  0  0  0  0  0  0  0  0  0  0  0
   -3.4910    0.9320    1.2770 H   0  0  0  0  0  0  0  0  0  0  0  0
   -0.8320   -0.1260    0.1580 H   0  0  0  0  0  0  0  0  0  0  0  0
  1  9  1  0  0  0  0
  1  2  1  0  0  0  0
  2 12  1  0  0  0  0
  2  3  1  0  0  0  0
  3 14  1  0  0  0  0
  4  2  1  0  0  0  0
  4  5  1  0  0  0  0
  5 18  1  6  0  0  0
  5  6  1  0  0  0  0
  5  7  1  0  0  0  0
  6 19  1  0  0  0  0
  7  8  2  0  0  0  0
 10  1  1  0  0  0  0
 11  1  1  0  0  0  0
 13  3  1  0  0  0  0
 15  3  1  0  0  0  0
 16  4  1  0  0  0  0
 17  4  1  0  0  0  0
 20  6  1  0  0  0  0
 21 29  1  0  0  0  0
 21 30  1  0  0  0  0
 22 21  1  0  0  0  0
 22 31  1  1  0  0  0
 23 32  1  0  0  0  0
 23 22  1  0  0  0  0
 24 22  1  0  0  0  0
 24 33  1  1  0  0  0
 25  7  1  0  0  0  0
 25 24  1  0  0  0  0
 26 24  1  0  0  0  0
 26 27  2  0  0  0  0
 28 21  1  0  0  0  0
 34 25  1  0  0  0  0
 35 36  1  0  0  0  0
 36 37  2  0  0  0  0
 36 38  1  0  0  0  0
 38 47  1  0  0  0  0
 38 39  1  0  0  0  0
 39 40  1  0  0  0  0
 39 48  1  1  0  0  0
 40 26  1  0  0  0  0
 41 39  1  0  0  0  0
 41 43  1  0  0  0  0
 42 41  2  0  0  0  0
 44 35  1  0  0  0  0
 45 35  1  0  0  0  0
 46 38  1  0  0  0  0
 49 40  1  0  0  0  0
M  END
$$$$
