LTP.pdb
 OpenBabel07022418473D

 49 49  0  0  1  0  0  0  0  0999 V2000
   -1.7840   -4.2450    1.9280 C   0  0  0  0  0  0  0  0  0  0  0  0
   -1.5440   -3.0000    1.0440 C   0  0  0  0  0  0  0  0  0  0  0  0
   -2.5740   -2.0100    1.4660 C   0  0  0  0  0  0  0  0  0  0  0  0
   -1.5470   -3.3680   -0.3740 C   0  0  0  0  0  0  0  0  0  0  0  0
   -1.3350   -2.3260   -1.4070 C   0  0  2  0  0  0  0  0  0  0  0  0
   -1.4270   -3.1180   -2.6940 N   0  0  0  0  0  0  0  0  0  0  0  0
   -0.0160   -1.6640   -1.3990 C   0  0  0  0  0  0  0  0  0  0  0  0
    0.9840   -2.1830   -2.0080 O   0  0  0  0  0  0  0  0  0  0  0  0
   -1.4340   -3.9620    2.9360 H   0  0  0  0  0  0  0  0  0  0  0  0
   -2.8620   -4.4650    2.0090 H   0  0  0  0  0  0  0  0  0  0  0  0
   -1.2510   -5.1240    1.5160 H   0  0  0  0  0  0  0  0  0  0  0  0
   -0.5460   -2.6420    1.3370 H   0  0  0  0  0  0  0  0  0  0  0  0
   -2.3750   -1.6710    2.4960 H   0  0  0  0  0  0  0  0  0  0  0  0
   -2.7460   -1.1870    0.7530 H   0  0  0  0  0  0  0  0  0  0  0  0
   -3.5580   -2.5610    1.5230 H   0  0  0  0  0  0  0  0  0  0  0  0
   -2.5430   -3.8580   -0.5990 H   0  0  0  0  0  0  0  0  0  0  0  0
   -0.8150   -4.2000   -0.5760 H   0  0  0  0  0  0  0  0  0  0  0  0
   -2.1340   -1.5820   -1.5110 H   0  0  0  0  0  0  0  0  0  0  0  0
   -0.5380   -3.6050   -2.8530 H   0  0  0  0  0  0  0  0  0  0  0  0
   -1.7350   -2.4910   -3.4450 H   0  0  0  0  0  0  0  0  0  0  0  0
    2.9200    1.9540   -1.8900 C   0  0  0  0  0  0  0  0  0  0  0  0
    1.5400    1.3670   -1.7760 C   0  0  1  0  0  0  0  0  0  0  0  0
    1.1280    0.9290   -3.0380 O   0  0  0  0  0  0  0  0  0  0  0  0
    1.5710    0.1780   -0.7950 C   0  0  2  0  0  0  0  0  0  0  0  0
    0.2640   -0.4080   -0.7410 N   0  0  0  0  0  0  0  0  0  0  0  0
    2.1170    0.6540    0.4430 C   0  0  0  0  0  0  0  0  0  0  0  0
    3.3610    1.0520    0.3660 O   0  0  0  0  0  0  0  0  0  0  0  0
    3.1550    2.7190   -1.1360 H   0  0  0  0  0  0  0  0  0  0  0  0
    2.9820    2.5020   -2.8820 H   0  0  0  0  0  0  0  0  0  0  0  0
    3.7150    1.1700   -1.8600 H   0  0  0  0  0  0  0  0  0  0  0  0
    0.8480    2.1550   -1.4600 H   0  0  0  0  0  0  0  0  0  0  0  0
    0.9700    1.7490   -3.5700 H   0  0  0  0  0  0  0  0  0  0  0  0
    2.2510   -0.5970   -1.2760 H   0  0  0  0  0  0  0  0  0  0  0  0
   -0.5260    0.0540   -0.2630 H   0  0  0  0  0  0  0  0  0  0  0  0
    1.5210    0.7590    1.7100 N   0  0  0  0  0  0  0  0  0  0  0  0
    2.3170    1.3310    2.8410 C   0  0  0  0  0  0  0  0  0  0  0  0
    1.8570    0.6010    4.0660 C   0  0  0  0  0  0  0  0  0  0  0  0
    0.4790    0.1090    3.7620 C   0  0  0  0  0  0  0  0  0  0  0  0
    0.2530    0.4550    2.2770 C   0  0  1  0  0  0  0  0  0  0  0  0
   -0.7090    1.5880    2.1710 C   0  0  0  0  0  0  0  0  0  0  0  0
   -0.3240    2.6400    1.6190 O   0  0  0  0  0  0  0  0  0  0  0  0
   -1.9990    1.5230    2.6530 O   0  0  0  0  0  0  0  0  0  0  0  0
    3.3680    1.0950    2.6770 H   0  0  0  0  0  0  0  0  0  0  0  0
    2.0610    2.3970    2.8430 H   0  0  0  0  0  0  0  0  0  0  0  0
    2.5050   -0.2670    4.3130 H   0  0  0  0  0  0  0  0  0  0  0  0
    1.7950    1.3240    4.8900 H   0  0  0  0  0  0  0  0  0  0  0  0
   -0.3010    0.6260    4.3290 H   0  0  0  0  0  0  0  0  0  0  0  0
    0.3620   -0.9740    3.9560 H   0  0  0  0  0  0  0  0  0  0  0  0
   -0.2610   -0.4190    1.8870 H   0  0  0  0  0  0  0  0  0  0  0  0
  1 10  1  0  0  0  0
  1  9  1  0  0  0  0
  2 12  1  0  0  0  0
  2  3  1  0  0  0  0
  2  1  1  0  0  0  0
  3 15  1  0  0  0  0
  3 13  1  0  0  0  0
  4  2  1  0  0  0  0
  5 18  1  1  0  0  0
  5  7  1  0  0  0  0
  5  4  1  0  0  0  0
  6  5  1  0  0  0  0
  7 25  1  0  0  0  0
  8  7  2  0  0  0  0
 11  1  1  0  0  0  0
 14  3  1  0  0  0  0
 16  4  1  0  0  0  0
 17  4  1  0  0  0  0
 19  6  1  0  0  0  0
 20  6  1  0  0  0  0
 21 30  1  0  0  0  0
 21 22  1  0  0  0  0
 21 28  1  0  0  0  0
 22 31  1  1  0  0  0
 22 24  1  0  0  0  0
 23 22  1  0  0  0  0
 24 33  1  6  0  0  0
 24 25  1  0  0  0  0
 24 26  1  0  0  0  0
 25 34  1  0  0  0  0
 26 35  1  0  0  0  0
 27 26  2  0  0  0  0
 29 21  1  0  0  0  0
 32 23  1  0  0  0  0
 35 39  1  0  0  0  0
 35 36  1  0  0  0  0
 36 44  1  0  0  0  0
 36 37  1  0  0  0  0
 37 45  1  0  0  0  0
 37 46  1  0  0  0  0
 38 48  1  0  0  0  0
 38 37  1  0  0  0  0
 38 47  1  0  0  0  0
 39 49  1  6  0  0  0
 39 38  1  0  0  0  0
 40 39  1  0  0  0  0
 40 42  1  0  0  0  0
 41 40  2  0  0  0  0
 43 36  1  0  0  0  0
M  END
$$$$
