LTR.pdb
 OpenBabel07022418473D

 58 57  0  0  1  0  0  0  0  0999 V2000
    1.8180   -0.5630    6.2820 C   0  0  0  0  0  0  0  0  0  0  0  0
    1.9700   -1.4320    5.0400 C   0  0  0  0  0  0  0  0  0  0  0  0
    0.6520   -1.4680    4.3620 C   0  0  0  0  0  0  0  0  0  0  0  0
    3.1470   -1.0850    4.2280 C   0  0  0  0  0  0  0  0  0  0  0  0
    3.2480    0.2820    3.6680 C   0  0  2  0  0  0  0  0  0  0  0  0
    3.2520    1.3420    4.6200 N   0  0  0  0  0  0  0  0  0  0  0  0
    2.3460    0.5590    2.5220 C   0  0  0  0  0  0  0  0  0  0  0  0
    1.6840    1.6240    2.4870 O   0  0  0  0  0  0  0  0  0  0  0  0
    2.7780   -0.5260    6.8440 H   0  0  0  0  0  0  0  0  0  0  0  0
    1.3850    0.4200    6.0780 H   0  0  0  0  0  0  0  0  0  0  0  0
    1.0990   -1.0770    6.9850 H   0  0  0  0  0  0  0  0  0  0  0  0
    2.1580   -2.4720    5.4480 H   0  0  0  0  0  0  0  0  0  0  0  0
   -0.1860   -1.3670    5.1140 H   0  0  0  0  0  0  0  0  0  0  0  0
    0.4660   -2.4790    3.8990 H   0  0  0  0  0  0  0  0  0  0  0  0
    0.4690   -0.7300    3.5890 H   0  0  0  0  0  0  0  0  0  0  0  0
    3.2890   -1.8070    3.3850 H   0  0  0  0  0  0  0  0  0  0  0  0
    4.0580   -1.2510    4.8740 H   0  0  0  0  0  0  0  0  0  0  0  0
    4.2830    0.3270    3.1940 H   0  0  0  0  0  0  0  0  0  0  0  0
    2.6460    2.1340    4.4270 H   0  0  0  0  0  0  0  0  0  0  0  0
    4.1510    1.5380    5.0810 H   0  0  0  0  0  0  0  0  0  0  0  0
    3.0450   -1.2620   -1.0600 C   0  0  0  0  0  0  0  0  0  0  0  0
    2.1840   -0.0420   -0.9150 C   0  0  1  0  0  0  0  0  0  0  0  0
    1.4310    0.2150   -2.0700 O   0  0  0  0  0  0  0  0  0  0  0  0
    1.3240   -0.0850    0.3260 C   0  0  2  0  0  0  0  0  0  0  0  0
    2.2030   -0.3540    1.4450 N   0  0  0  0  0  0  0  0  0  0  0  0
    0.3080   -1.1610    0.2830 C   0  0  0  0  0  0  0  0  0  0  0  0
    0.3160   -2.0750    1.1220 O   0  0  0  0  0  0  0  0  0  0  0  0
    2.7150   -2.1070   -0.4370 H   0  0  0  0  0  0  0  0  0  0  0  0
    4.1020   -1.0460   -0.7630 H   0  0  0  0  0  0  0  0  0  0  0  0
    3.0890   -1.5920   -2.1230 H   0  0  0  0  0  0  0  0  0  0  0  0
    2.8610    0.8360   -0.7930 H   0  0  0  0  0  0  0  0  0  0  0  0
    2.0510    0.6640   -2.7270 H   0  0  0  0  0  0  0  0  0  0  0  0
    0.8710    0.9130    0.4950 H   0  0  0  0  0  0  0  0  0  0  0  0
    2.7680   -1.2460    1.4910 H   0  0  0  0  0  0  0  0  0  0  0  0
   -4.2800    2.0240   -4.5710 N   0  0  0  0  0  0  0  0  0  0  0  0
   -3.5580    0.8890   -4.0700 C   0  0  0  0  0  0  0  0  0  0  0  0
   -2.3030    0.9830   -3.8400 N   0  0  0  0  0  0  0  0  0  0  0  0
   -4.2420   -0.3380   -3.8320 N   0  0  0  0  0  0  0  0  0  0  0  0
   -3.6740   -1.3750   -2.9800 C   0  0  0  0  0  0  0  0  0  0  0  0
   -3.6580   -0.8750   -1.5810 C   0  0  0  0  0  0  0  0  0  0  0  0
   -3.1170   -1.8220   -0.5760 C   0  0  0  0  0  0  0  0  0  0  0  0
   -1.7130   -2.2670   -0.7370 C   0  0  2  0  0  0  0  0  0  0  0  0
   -0.7250   -1.2080   -0.7100 N   0  0  0  0  0  0  0  0  0  0  0  0
   -1.4390   -3.1160   -1.9200 C   0  0  0  0  0  0  0  0  0  0  0  0
   -0.4480   -2.9090   -2.7020 O   0  0  0  0  0  0  0  0  0  0  0  0
   -2.2450   -4.2050   -2.2670 O   0  0  0  0  0  0  0  0  0  0  0  0
   -3.7640    2.9010   -4.7560 H   0  0  0  0  0  0  0  0  0  0  0  0
   -5.2920    1.9920   -4.7500 H   0  0  0  0  0  0  0  0  0  0  0  0
   -1.7660    0.1690   -3.4770 H   0  0  0  0  0  0  0  0  0  0  0  0
   -5.1680   -0.4650   -4.2920 H   0  0  0  0  0  0  0  0  0  0  0  0
   -4.3080   -2.2810   -3.0860 H   0  0  0  0  0  0  0  0  0  0  0  0
   -2.7040   -1.6260   -3.4220 H   0  0  0  0  0  0  0  0  0  0  0  0
   -4.7320   -0.6670   -1.3050 H   0  0  0  0  0  0  0  0  0  0  0  0
   -3.1610    0.1180   -1.5300 H   0  0  0  0  0  0  0  0  0  0  0  0
   -3.1790   -1.3390    0.4460 H   0  0  0  0  0  0  0  0  0  0  0  0
   -3.7500   -2.7450   -0.5120 H   0  0  0  0  0  0  0  0  0  0  0  0
   -1.5270   -2.9760    0.1440 H   0  0  0  0  0  0  0  0  0  0  0  0
   -0.7210   -0.4370   -1.4080 H   0  0  0  0  0  0  0  0  0  0  0  0
  1  9  1  0  0  0  0
  1 11  1  0  0  0  0
  2 12  1  0  0  0  0
  2  1  1  0  0  0  0
  3  2  1  0  0  0  0
  3 13  1  0  0  0  0
  4 17  1  0  0  0  0
  4  2  1  0  0  0  0
  5 18  1  6  0  0  0
  5  4  1  0  0  0  0
  5  6  1  0  0  0  0
  6 20  1  0  0  0  0
  7  5  1  0  0  0  0
  8  7  2  0  0  0  0
 10  1  1  0  0  0  0
 14  3  1  0  0  0  0
 15  3  1  0  0  0  0
 16  4  1  0  0  0  0
 19  6  1  0  0  0  0
 21 22  1  0  0  0  0
 21 29  1  0  0  0  0
 21 28  1  0  0  0  0
 22 31  1  1  0  0  0
 22 24  1  0  0  0  0
 23 22  1  0  0  0  0
 24 33  1  1  0  0  0
 24 25  1  0  0  0  0
 25 34  1  0  0  0  0
 25  7  1  0  0  0  0
 26 24  1  0  0  0  0
 26 27  2  0  0  0  0
 30 21  1  0  0  0  0
 32 23  1  0  0  0  0
 35 36  1  0  0  0  0
 36 37  2  0  0  0  0
 36 38  1  0  0  0  0
 37 49  1  0  0  0  0
 38 39  1  0  0  0  0
 39 40  1  0  0  0  0
 40 54  1  0  0  0  0
 40 53  1  0  0  0  0
 40 41  1  0  0  0  0
 41 56  1  0  0  0  0
 41 55  1  0  0  0  0
 42 43  1  0  0  0  0
 42 41  1  0  0  0  0
 42 57  1  1  0  0  0
 43 26  1  0  0  0  0
 44 42  1  0  0  0  0
 45 44  2  0  0  0  0
 46 44  1  0  0  0  0
 47 35  1  0  0  0  0
 48 35  1  0  0  0  0
 50 38  1  0  0  0  0
 51 39  1  0  0  0  0
 52 39  1  0  0  0  0
 58 43  1  0  0  0  0
M  END
$$$$
