LTT.pdb
 OpenBabel07022418483D

 49 48  0  0  1  0  0  0  0  0999 V2000
    1.3210   -2.6530    4.1750 C   0  0  0  0  0  0  0  0  0  0  0  0
    1.7780   -1.3750    3.4380 C   0  0  0  0  0  0  0  0  0  0  0  0
    0.5190   -0.6650    3.0930 C   0  0  0  0  0  0  0  0  0  0  0  0
    2.6160   -1.8350    2.3190 C   0  0  0  0  0  0  0  0  0  0  0  0
    3.2420   -0.8930    1.3990 C   0  0  2  0  0  0  0  0  0  0  0  0
    4.1440    0.0670    2.0250 N   0  0  0  0  0  0  0  0  0  0  0  0
    2.5310   -0.3560    0.2460 C   0  0  0  0  0  0  0  0  0  0  0  0
    2.9770    0.7690   -0.1890 O   0  0  0  0  0  0  0  0  0  0  0  0
    2.1440   -3.3650    4.3010 H   0  0  0  0  0  0  0  0  0  0  0  0
    0.9510   -2.3830    5.2020 H   0  0  0  0  0  0  0  0  0  0  0  0
    0.4770   -3.1240    3.6540 H   0  0  0  0  0  0  0  0  0  0  0  0
    2.3500   -0.7940    4.1770 H   0  0  0  0  0  0  0  0  0  0  0  0
    0.6080    0.2160    2.4760 H   0  0  0  0  0  0  0  0  0  0  0  0
   -0.0120   -0.4350    4.0350 H   0  0  0  0  0  0  0  0  0  0  0  0
   -0.1480   -1.4100    2.5610 H   0  0  0  0  0  0  0  0  0  0  0  0
    2.1060   -2.6350    1.6890 H   0  0  0  0  0  0  0  0  0  0  0  0
    3.4510   -2.4510    2.7960 H   0  0  0  0  0  0  0  0  0  0  0  0
    4.0480   -1.5730    0.8520 H   0  0  0  0  0  0  0  0  0  0  0  0
    3.6350    0.7130    2.6680 H   0  0  0  0  0  0  0  0  0  0  0  0
    4.6160    0.6670    1.3120 H   0  0  0  0  0  0  0  0  0  0  0  0
    0.1390   -0.8830   -3.9570 C   0  0  0  0  0  0  0  0  0  0  0  0
    0.7960   -1.3650   -2.7060 C   0  0  1  0  0  0  0  0  0  0  0  0
    2.0940   -1.8310   -2.9620 O   0  0  0  0  0  0  0  0  0  0  0  0
    0.8610   -0.2610   -1.6340 C   0  0  2  0  0  0  0  0  0  0  0  0
    1.4480   -0.8720   -0.4680 N   0  0  0  0  0  0  0  0  0  0  0  0
   -0.5210    0.1930   -1.4150 C   0  0  0  0  0  0  0  0  0  0  0  0
   -1.1670    0.7010   -2.4180 O   0  0  0  0  0  0  0  0  0  0  0  0
    0.5940   -1.4390   -4.8210 H   0  0  0  0  0  0  0  0  0  0  0  0
    0.3440    0.2000   -4.0990 H   0  0  0  0  0  0  0  0  0  0  0  0
   -0.9450   -1.1100   -3.8990 H   0  0  0  0  0  0  0  0  0  0  0  0
    0.2490   -2.1990   -2.2370 H   0  0  0  0  0  0  0  0  0  0  0  0
    2.6550   -1.7770   -2.1420 H   0  0  0  0  0  0  0  0  0  0  0  0
    1.5060    0.5850   -2.0130 H   0  0  0  0  0  0  0  0  0  0  0  0
    1.0270   -1.7640   -0.1370 H   0  0  0  0  0  0  0  0  0  0  0  0
   -3.3230   -0.7810    1.8190 C   0  0  0  0  0  0  0  0  0  0  0  0
   -3.6040   -0.3450    0.4090 C   0  0  1  0  0  0  0  0  0  0  0  0
   -4.8990    0.2190    0.4280 O   0  0  0  0  0  0  0  0  0  0  0  0
   -2.6420    0.6440   -0.1320 C   0  0  2  0  0  0  0  0  0  0  0  0
   -1.2620    0.1510   -0.2300 N   0  0  0  0  0  0  0  0  0  0  0  0
   -2.6630    1.9440    0.5970 C   0  0  0  0  0  0  0  0  0  0  0  0
   -3.7040    2.6040    0.8230 O   0  0  0  0  0  0  0  0  0  0  0  0
   -1.4810    2.4990    1.0730 O   0  0  0  0  0  0  0  0  0  0  0  0
   -2.2890   -0.5090    2.1020 H   0  0  0  0  0  0  0  0  0  0  0  0
   -4.0760   -0.4000    2.5490 H   0  0  0  0  0  0  0  0  0  0  0  0
   -3.3840   -1.8780    1.8540 H   0  0  0  0  0  0  0  0  0  0  0  0
   -3.6410   -1.2310   -0.2340 H   0  0  0  0  0  0  0  0  0  0  0  0
   -5.3980   -0.1360   -0.3350 H   0  0  0  0  0  0  0  0  0  0  0  0
   -2.9470    0.8750   -1.1620 H   0  0  0  0  0  0  0  0  0  0  0  0
   -0.7860   -0.2520    0.6040 H   0  0  0  0  0  0  0  0  0  0  0  0
  1  9  1  0  0  0  0
  1 10  1  0  0  0  0
  2  1  1  0  0  0  0
  2 12  1  0  0  0  0
  3  2  1  0  0  0  0
  3 14  1  0  0  0  0
  4 17  1  0  0  0  0
  4  2  1  0  0  0  0
  5 18  1  6  0  0  0
  5  6  1  0  0  0  0
  5  4  1  0  0  0  0
  6 19  1  0  0  0  0
  7  5  1  0  0  0  0
  8  7  2  0  0  0  0
 11  1  1  0  0  0  0
 13  3  1  0  0  0  0
 15  3  1  0  0  0  0
 16  4  1  0  0  0  0
 20  6  1  0  0  0  0
 21 30  1  0  0  0  0
 21 22  1  0  0  0  0
 22 31  1  1  0  0  0
 22 24  1  0  0  0  0
 23 22  1  0  0  0  0
 23 32  1  0  0  0  0
 24 33  1  6  0  0  0
 24 26  1  0  0  0  0
 24 25  1  0  0  0  0
 25 34  1  0  0  0  0
 25  7  1  0  0  0  0
 26 39  1  0  0  0  0
 27 26  2  0  0  0  0
 28 21  1  0  0  0  0
 29 21  1  0  0  0  0
 35 45  1  0  0  0  0
 35 43  1  0  0  0  0
 35 44  1  0  0  0  0
 36 46  1  6  0  0  0
 36 37  1  0  0  0  0
 36 35  1  0  0  0  0
 38 48  1  6  0  0  0
 38 36  1  0  0  0  0
 38 40  1  0  0  0  0
 39 38  1  0  0  0  0
 39 49  1  0  0  0  0
 40 41  2  0  0  0  0
 40 42  1  0  0  0  0
 47 37  1  0  0  0  0
M  END
$$$$
