LTW.pdb
 OpenBabel07022418483D

 59 60  0  0  1  0  0  0  0  0999 V2000
    2.6620    1.1690    5.0710 C   0  0  0  0  0  0  0  0  0  0  0  0
    3.3330    1.5660    3.7700 C   0  0  0  0  0  0  0  0  0  0  0  0
    4.2020    0.4340    3.2470 C   0  0  0  0  0  0  0  0  0  0  0  0
    2.3600    2.0470    2.7480 C   0  0  0  0  0  0  0  0  0  0  0  0
    1.3220    1.0130    2.3720 C   0  0  2  0  0  0  0  0  0  0  0  0
    1.9230   -0.1620    1.8280 N   0  0  0  0  0  0  0  0  0  0  0  0
    0.3100    1.6320    1.4790 C   0  0  0  0  0  0  0  0  0  0  0  0
   -0.3260    2.6520    1.8360 O   0  0  0  0  0  0  0  0  0  0  0  0
    3.4260    0.8400    5.8050 H   0  0  0  0  0  0  0  0  0  0  0  0
    1.9840    0.2830    4.9170 H   0  0  0  0  0  0  0  0  0  0  0  0
    2.1050    2.0550    5.4410 H   0  0  0  0  0  0  0  0  0  0  0  0
    4.0100    2.4150    4.0060 H   0  0  0  0  0  0  0  0  0  0  0  0
    5.2330    0.4790    3.6780 H   0  0  0  0  0  0  0  0  0  0  0  0
    4.3060    0.4800    2.1500 H   0  0  0  0  0  0  0  0  0  0  0  0
    3.7920   -0.5620    3.5570 H   0  0  0  0  0  0  0  0  0  0  0  0
    1.8780    2.9740    3.1060 H   0  0  0  0  0  0  0  0  0  0  0  0
    2.9450    2.2710    1.8120 H   0  0  0  0  0  0  0  0  0  0  0  0
    0.7950    0.7240    3.3220 H   0  0  0  0  0  0  0  0  0  0  0  0
    2.3030   -0.0750    0.8830 H   0  0  0  0  0  0  0  0  0  0  0  0
    1.2900   -0.9810    1.9180 H   0  0  0  0  0  0  0  0  0  0  0  0
    0.7080    3.3400   -1.4530 C   0  0  0  0  0  0  0  0  0  0  0  0
   -0.3690    2.3720   -1.8910 C   0  0  1  0  0  0  0  0  0  0  0  0
    0.2510    1.4150   -2.6860 O   0  0  0  0  0  0  0  0  0  0  0  0
   -0.9750    1.7460   -0.6390 C   0  0  2  0  0  0  0  0  0  0  0  0
    0.0070    1.1050    0.1730 N   0  0  0  0  0  0  0  0  0  0  0  0
   -2.0900    0.8150   -1.0230 C   0  0  0  0  0  0  0  0  0  0  0  0
   -3.0590    1.2270   -1.7120 O   0  0  0  0  0  0  0  0  0  0  0  0
    1.3130    3.6830   -2.3250 H   0  0  0  0  0  0  0  0  0  0  0  0
    0.3100    4.2030   -0.9000 H   0  0  0  0  0  0  0  0  0  0  0  0
    1.3600    2.7680   -0.7370 H   0  0  0  0  0  0  0  0  0  0  0  0
   -1.1640    2.9290   -2.4150 H   0  0  0  0  0  0  0  0  0  0  0  0
    0.8630    1.8860   -3.3040 H   0  0  0  0  0  0  0  0  0  0  0  0
   -1.4220    2.5850   -0.0760 H   0  0  0  0  0  0  0  0  0  0  0  0
    0.5460    0.2560   -0.1070 H   0  0  0  0  0  0  0  0  0  0  0  0
   -2.1010   -0.5490   -0.6360 N   0  0  0  0  0  0  0  0  0  0  0  0
   -3.1950   -1.4560   -1.0160 C   0  0  1  0  0  0  0  0  0  0  0  0
   -2.7470   -2.4020   -2.0840 C   0  0  0  0  0  0  0  0  0  0  0  0
   -1.6190   -3.2580   -1.7850 C   0  0  0  0  0  0  0  0  0  0  0  0
   -0.3050   -2.9940   -2.1930 C   0  0  0  0  0  0  0  0  0  0  0  0
    0.4810   -3.9540   -1.7400 N   0  0  0  0  0  0  0  0  0  0  0  0
   -0.2530   -4.8550   -1.0410 C   0  0  0  0  0  0  0  0  0  0  0  0
    0.0960   -6.0220   -0.3840 C   0  0  0  0  0  0  0  0  0  0  0  0
   -0.8340   -6.7970    0.2640 C   0  0  0  0  0  0  0  0  0  0  0  0
   -2.1420   -6.3710    0.2390 C   0  0  0  0  0  0  0  0  0  0  0  0
   -2.4900   -5.2140   -0.4130 C   0  0  0  0  0  0  0  0  0  0  0  0
   -1.5680   -4.4240   -1.0680 C   0  0  0  0  0  0  0  0  0  0  0  0
   -3.9020   -2.0020    0.1240 C   0  0  0  0  0  0  0  0  0  0  0  0
   -3.5440   -1.8090    1.3420 O   0  0  0  0  0  0  0  0  0  0  0  0
   -5.0420   -2.7850    0.0050 O   0  0  0  0  0  0  0  0  0  0  0  0
   -1.2870   -0.9110   -0.0530 H   0  0  0  0  0  0  0  0  0  0  0  0
   -3.9400   -0.7750   -1.5480 H   0  0  0  0  0  0  0  0  0  0  0  0
   -2.5500   -1.7610   -3.0000 H   0  0  0  0  0  0  0  0  0  0  0  0
   -3.6200   -3.0330   -2.4280 H   0  0  0  0  0  0  0  0  0  0  0  0
    0.0040   -2.1420   -2.7820 H   0  0  0  0  0  0  0  0  0  0  0  0
    1.5260   -4.0570   -1.8680 H   0  0  0  0  0  0  0  0  0  0  0  0
    1.1460   -6.3360   -0.3810 H   0  0  0  0  0  0  0  0  0  0  0  0
   -0.5490   -7.7130    0.7790 H   0  0  0  0  0  0  0  0  0  0  0  0
   -2.8770   -7.0030    0.7630 H   0  0  0  0  0  0  0  0  0  0  0  0
   -3.5090   -4.9040   -0.4300 H   0  0  0  0  0  0  0  0  0  0  0  0
  1 11  1  0  0  0  0
  1  9  1  0  0  0  0
  2 12  1  0  0  0  0
  2  1  1  0  0  0  0
  3 15  1  0  0  0  0
  3 13  1  0  0  0  0
  3  2  1  0  0  0  0
  4 16  1  0  0  0  0
  4  2  1  0  0  0  0
  5  4  1  0  0  0  0
  5 18  1  1  0  0  0
  6 20  1  0  0  0  0
  6  5  1  0  0  0  0
  7  8  2  0  0  0  0
  7  5  1  0  0  0  0
 10  1  1  0  0  0  0
 14  3  1  0  0  0  0
 17  4  1  0  0  0  0
 19  6  1  0  0  0  0
 21 29  1  0  0  0  0
 21 30  1  0  0  0  0
 22 31  1  6  0  0  0
 22 21  1  0  0  0  0
 22 24  1  0  0  0  0
 23 22  1  0  0  0  0
 24 33  1  1  0  0  0
 24 25  1  0  0  0  0
 25  7  1  0  0  0  0
 26 24  1  0  0  0  0
 26 35  1  0  0  0  0
 27 26  2  0  0  0  0
 28 21  1  0  0  0  0
 32 23  1  0  0  0  0
 34 25  1  0  0  0  0
 35 50  1  0  0  0  0
 36 51  1  6  0  0  0
 36 35  1  0  0  0  0
 36 47  1  0  0  0  0
 37 38  1  0  0  0  0
 37 36  1  0  0  0  0
 38 46  1  0  0  0  0
 39 38  2  0  0  0  0
 39 40  1  0  0  0  0
 40 41  1  0  0  0  0
 41 42  1  0  0  0  0
 42 56  1  0  0  0  0
 42 43  2  0  0  0  0
 43 57  1  0  0  0  0
 44 43  1  0  0  0  0
 44 58  1  0  0  0  0
 45 44  2  0  0  0  0
 46 41  2  0  0  0  0
 46 45  1  0  0  0  0
 47 48  1  0  0  0  0
 49 47  2  0  0  0  0
 52 37  1  0  0  0  0
 53 37  1  0  0  0  0
 54 39  1  0  0  0  0
 55 40  1  0  0  0  0
 59 45  1  0  0  0  0
M  END
$$$$
