LTY.pdb
 OpenBabel07022418483D

 56 56  0  0  1  0  0  0  0  0999 V2000
    2.4650   -1.4270    0.6660 C   0  0  0  0  0  0  0  0  0  0  0  0
    3.0960   -2.2410    1.7380 C   0  0  0  0  0  0  0  0  0  0  0  0
    3.9200   -1.3320    2.6590 C   0  0  0  0  0  0  0  0  0  0  0  0
    2.2460   -3.1730    2.4930 C   0  0  0  0  0  0  0  0  0  0  0  0
    1.0990   -2.6740    3.2790 C   0  0  2  0  0  0  0  0  0  0  0  0
    0.5410   -3.9340    3.9000 N   0  0  0  0  0  0  0  0  0  0  0  0
   -0.0480   -2.1270    2.5560 C   0  0  0  0  0  0  0  0  0  0  0  0
   -1.0090   -2.8840    2.2530 O   0  0  0  0  0  0  0  0  0  0  0  0
    2.4290   -0.3420    0.9110 H   0  0  0  0  0  0  0  0  0  0  0  0
    1.5330   -1.8620    0.3040 H   0  0  0  0  0  0  0  0  0  0  0  0
    3.1540   -1.4580   -0.2390 H   0  0  0  0  0  0  0  0  0  0  0  0
    3.9000   -2.8810    1.2450 H   0  0  0  0  0  0  0  0  0  0  0  0
    4.4730   -0.6410    1.9880 H   0  0  0  0  0  0  0  0  0  0  0  0
    3.2940   -0.8150    3.3910 H   0  0  0  0  0  0  0  0  0  0  0  0
    4.6580   -1.9760    3.1900 H   0  0  0  0  0  0  0  0  0  0  0  0
    1.9290   -3.9890    1.7890 H   0  0  0  0  0  0  0  0  0  0  0  0
    2.9260   -3.6980    3.2380 H   0  0  0  0  0  0  0  0  0  0  0  0
    1.4220   -2.0780    4.1420 H   0  0  0  0  0  0  0  0  0  0  0  0
    1.2980   -4.3630    4.4870 H   0  0  0  0  0  0  0  0  0  0  0  0
    0.4340   -4.5630    3.0670 H   0  0  0  0  0  0  0  0  0  0  0  0
   -1.4950    1.7170    2.8780 C   0  0  0  0  0  0  0  0  0  0  0  0
   -2.2390    0.4760    2.4280 C   0  0  1  0  0  0  0  0  0  0  0  0
   -3.3820    0.8580    1.7800 O   0  0  0  0  0  0  0  0  0  0  0  0
   -1.3710   -0.3660    1.4770 C   0  0  2  0  0  0  0  0  0  0  0  0
   -0.1650   -0.7740    2.1700 N   0  0  0  0  0  0  0  0  0  0  0  0
   -0.9960    0.4280    0.2850 C   0  0  0  0  0  0  0  0  0  0  0  0
    0.1800    0.7620   -0.0180 O   0  0  0  0  0  0  0  0  0  0  0  0
   -0.9940    1.5330    3.8540 H   0  0  0  0  0  0  0  0  0  0  0  0
   -0.8190    2.1200    2.1060 H   0  0  0  0  0  0  0  0  0  0  0  0
   -2.2820    2.4930    3.0920 H   0  0  0  0  0  0  0  0  0  0  0  0
   -2.4530   -0.1090    3.3450 H   0  0  0  0  0  0  0  0  0  0  0  0
   -4.2150    0.6380    2.2340 H   0  0  0  0  0  0  0  0  0  0  0  0
   -2.0050   -1.2390    1.2470 H   0  0  0  0  0  0  0  0  0  0  0  0
    0.5590   -0.0550    2.3570 H   0  0  0  0  0  0  0  0  0  0  0  0
    0.9820   -4.0040   -3.0410 O   0  0  0  0  0  0  0  0  0  0  0  0
    0.2580   -2.8200   -3.0450 C   0  0  0  0  0  0  0  0  0  0  0  0
    0.7700   -1.6770   -3.6280 C   0  0  0  0  0  0  0  0  0  0  0  0
    0.0530   -0.4960   -3.6340 C   0  0  0  0  0  0  0  0  0  0  0  0
   -1.2000   -0.4010   -3.0630 C   0  0  0  0  0  0  0  0  0  0  0  0
   -1.9750    0.8680   -3.0670 C   0  0  0  0  0  0  0  0  0  0  0  0
   -1.6420    1.6700   -1.8200 C   0  0  2  0  0  0  0  0  0  0  0  0
   -1.9890    0.8940   -0.6530 N   0  0  0  0  0  0  0  0  0  0  0  0
   -2.2860    2.9940   -1.8290 C   0  0  0  0  0  0  0  0  0  0  0  0
   -2.0820    3.7880   -2.7820 O   0  0  0  0  0  0  0  0  0  0  0  0
   -1.7110   -1.5430   -2.4810 C   0  0  0  0  0  0  0  0  0  0  0  0
   -0.9940   -2.7290   -2.4740 C   0  0  0  0  0  0  0  0  0  0  0  0
   -3.1330    3.4340   -0.8160 O   0  0  0  0  0  0  0  0  0  0  0  0
    0.5890   -4.9100   -2.9370 H   0  0  0  0  0  0  0  0  0  0  0  0
    1.7640   -1.7600   -4.0780 H   0  0  0  0  0  0  0  0  0  0  0  0
    0.4660    0.3890   -4.0930 H   0  0  0  0  0  0  0  0  0  0  0  0
   -3.0550    0.6150   -3.0780 H   0  0  0  0  0  0  0  0  0  0  0  0
   -1.7350    1.4410   -3.9780 H   0  0  0  0  0  0  0  0  0  0  0  0
   -0.5420    1.8100   -1.8230 H   0  0  0  0  0  0  0  0  0  0  0  0
   -2.9780    0.6460   -0.4660 H   0  0  0  0  0  0  0  0  0  0  0  0
   -2.6910   -1.4910   -2.0280 H   0  0  0  0  0  0  0  0  0  0  0  0
   -1.3990   -3.6320   -2.0130 H   0  0  0  0  0  0  0  0  0  0  0  0
  1  9  1  0  0  0  0
  1  2  1  0  0  0  0
  2  4  1  0  0  0  0
  2  3  1  0  0  0  0
  3 15  1  0  0  0  0
  3 14  1  0  0  0  0
  4 17  1  0  0  0  0
  4  5  1  0  0  0  0
  5  6  1  0  0  0  0
  5 18  1  1  0  0  0
  6 19  1  0  0  0  0
  7  5  1  0  0  0  0
  8  7  2  0  0  0  0
 10  1  1  0  0  0  0
 11  1  1  0  0  0  0
 12  2  1  0  0  0  0
 13  3  1  0  0  0  0
 16  4  1  0  0  0  0
 20  6  1  0  0  0  0
 21 30  1  0  0  0  0
 21 28  1  0  0  0  0
 22 21  1  0  0  0  0
 22 31  1  1  0  0  0
 23 32  1  0  0  0  0
 23 22  1  0  0  0  0
 24 33  1  6  0  0  0
 24 25  1  0  0  0  0
 24 22  1  0  0  0  0
 25 34  1  0  0  0  0
 25  7  1  0  0  0  0
 26 24  1  0  0  0  0
 27 26  2  0  0  0  0
 29 21  1  0  0  0  0
 35 48  1  0  0  0  0
 36 35  1  0  0  0  0
 36 46  1  0  0  0  0
 37 36  2  0  0  0  0
 38 37  1  0  0  0  0
 38 39  2  0  0  0  0
 39 45  1  0  0  0  0
 40 39  1  0  0  0  0
 40 41  1  0  0  0  0
 41 53  1  1  0  0  0
 41 42  1  0  0  0  0
 42 54  1  0  0  0  0
 42 26  1  0  0  0  0
 43 41  1  0  0  0  0
 43 47  1  0  0  0  0
 44 43  2  0  0  0  0
 45 46  2  0  0  0  0
 45 55  1  0  0  0  0
 46 56  1  0  0  0  0
 49 37  1  0  0  0  0
 50 38  1  0  0  0  0
 51 40  1  0  0  0  0
 52 40  1  0  0  0  0
M  END
$$$$
