LVA.pdb
 OpenBabel07022418483D

 47 46  0  0  1  0  0  0  0  0999 V2000
   -0.3550   -4.4320    1.3140 C   0  0  0  0  0  0  0  0  0  0  0  0
   -0.8510   -4.4020   -0.0770 C   0  0  0  0  0  0  0  0  0  0  0  0
   -0.5310   -5.7970   -0.6680 C   0  0  0  0  0  0  0  0  0  0  0  0
   -0.3400   -3.3660   -1.0140 C   0  0  0  0  0  0  0  0  0  0  0  0
   -0.5510   -1.9460   -0.7640 C   0  0  2  0  0  0  0  0  0  0  0  0
    0.0710   -1.1820   -1.9010 N   0  0  0  0  0  0  0  0  0  0  0  0
   -0.1290   -1.2640    0.4220 C   0  0  0  0  0  0  0  0  0  0  0  0
   -0.5100   -1.5880    1.5690 O   0  0  0  0  0  0  0  0  0  0  0  0
   -1.1600   -4.1110    2.0160 H   0  0  0  0  0  0  0  0  0  0  0  0
   -0.1860   -5.5220    1.6620 H   0  0  0  0  0  0  0  0  0  0  0  0
    0.6090   -3.9770    1.5180 H   0  0  0  0  0  0  0  0  0  0  0  0
   -1.9940   -4.3180   -0.1070 H   0  0  0  0  0  0  0  0  0  0  0  0
   -0.8320   -5.8860   -1.7130 H   0  0  0  0  0  0  0  0  0  0  0  0
    0.5480   -6.0110   -0.4940 H   0  0  0  0  0  0  0  0  0  0  0  0
   -1.0690   -6.5690   -0.0440 H   0  0  0  0  0  0  0  0  0  0  0  0
    0.7210   -3.6180   -1.3300 H   0  0  0  0  0  0  0  0  0  0  0  0
   -0.8930   -3.5880   -1.9990 H   0  0  0  0  0  0  0  0  0  0  0  0
   -1.6520   -1.7210   -0.9190 H   0  0  0  0  0  0  0  0  0  0  0  0
   -0.4900   -0.3690   -2.1570 H   0  0  0  0  0  0  0  0  0  0  0  0
    0.3400   -1.8120   -2.6620 H   0  0  0  0  0  0  0  0  0  0  0  0
    3.5280   -0.3120    1.7630 C   0  0  0  0  0  0  0  0  0  0  0  0
    2.6210    0.8600    1.7770 C   0  0  0  0  0  0  0  0  0  0  0  0
    3.0940    1.9900    0.8600 C   0  0  0  0  0  0  0  0  0  0  0  0
    1.1870    0.5320    1.6220 C   0  0  2  0  0  0  0  0  0  0  0  0
    0.7700   -0.1320    0.4510 N   0  0  0  0  0  0  0  0  0  0  0  0
    0.2910    1.6570    2.0410 C   0  0  0  0  0  0  0  0  0  0  0  0
    0.5460    2.3960    3.0330 O   0  0  0  0  0  0  0  0  0  0  0  0
    3.3820   -0.8670    2.7320 H   0  0  0  0  0  0  0  0  0  0  0  0
    4.5810    0.0290    1.7970 H   0  0  0  0  0  0  0  0  0  0  0  0
    3.3370   -1.0560    0.9710 H   0  0  0  0  0  0  0  0  0  0  0  0
    2.7550    1.3390    2.7970 H   0  0  0  0  0  0  0  0  0  0  0  0
    4.0040    2.4500    1.2920 H   0  0  0  0  0  0  0  0  0  0  0  0
    2.3000    2.7640    0.8900 H   0  0  0  0  0  0  0  0  0  0  0  0
    3.3600    1.6380   -0.1340 H   0  0  0  0  0  0  0  0  0  0  0  0
    0.9480   -0.2000    2.4510 H   0  0  0  0  0  0  0  0  0  0  0  0
    1.0870    0.1410   -0.5360 H   0  0  0  0  0  0  0  0  0  0  0  0
   -2.1090    3.8200    0.4430 C   0  0  0  0  0  0  0  0  0  0  0  0
   -1.8150    3.0030    1.6720 C   0  0  2  0  0  0  0  0  0  0  0  0
   -0.9010    1.9390    1.3270 N   0  0  0  0  0  0  0  0  0  0  0  0
   -3.0900    2.4410    2.2090 C   0  0  0  0  0  0  0  0  0  0  0  0
   -4.0560    3.1640    2.5070 O   0  0  0  0  0  0  0  0  0  0  0  0
   -3.1900    1.0750    2.3770 O   0  0  0  0  0  0  0  0  0  0  0  0
   -1.2870    4.5780    0.3190 H   0  0  0  0  0  0  0  0  0  0  0  0
   -2.0680    3.1670   -0.4680 H   0  0  0  0  0  0  0  0  0  0  0  0
   -3.1120    4.3020    0.5140 H   0  0  0  0  0  0  0  0  0  0  0  0
   -1.3220    3.5880    2.4830 H   0  0  0  0  0  0  0  0  0  0  0  0
   -1.1260    1.3460    0.5140 H   0  0  0  0  0  0  0  0  0  0  0  0
  1 11  1  0  0  0  0
  1 10  1  0  0  0  0
  1  9  1  0  0  0  0
  2  1  1  0  0  0  0
  3 14  1  0  0  0  0
  3  2  1  0  0  0  0
  3 15  1  0  0  0  0
  4  5  1  0  0  0  0
  4  2  1  0  0  0  0
  5 18  1  6  0  0  0
  5  7  1  0  0  0  0
  6  5  1  0  0  0  0
  7 25  1  0  0  0  0
  7  8  2  0  0  0  0
 12  2  1  0  0  0  0
 13  3  1  0  0  0  0
 16  4  1  0  0  0  0
 17  4  1  0  0  0  0
 19  6  1  0  0  0  0
 20  6  1  0  0  0  0
 21 22  1  0  0  0  0
 21 29  1  0  0  0  0
 21 28  1  0  0  0  0
 22 31  1  0  0  0  0
 23 33  1  0  0  0  0
 23 32  1  0  0  0  0
 23 22  1  0  0  0  0
 24 22  1  0  0  0  0
 24 26  1  0  0  0  0
 24 35  1  1  0  0  0
 25 24  1  0  0  0  0
 26 27  2  0  0  0  0
 30 21  1  0  0  0  0
 34 23  1  0  0  0  0
 36 25  1  0  0  0  0
 37 45  1  0  0  0  0
 37 38  1  0  0  0  0
 38 40  1  0  0  0  0
 38 46  1  1  0  0  0
 39 38  1  0  0  0  0
 39 26  1  0  0  0  0
 40 42  2  0  0  0  0
 40 41  1  0  0  0  0
 43 37  1  0  0  0  0
 44 37  1  0  0  0  0
 47 39  1  0  0  0  0
M  END
$$$$
