LVE.pdb
 OpenBabel07022418483D

 53 52  0  0  1  0  0  0  0  0999 V2000
    1.0650   -5.5510    2.4590 C   0  0  0  0  0  0  0  0  0  0  0  0
    0.0970   -5.3780    1.2970 C   0  0  0  0  0  0  0  0  0  0  0  0
    0.1180   -6.6520    0.4800 C   0  0  0  0  0  0  0  0  0  0  0  0
    0.5250   -4.2530    0.4100 C   0  0  0  0  0  0  0  0  0  0  0  0
    0.5920   -2.9220    1.1190 C   0  0  2  0  0  0  0  0  0  0  0  0
   -0.7210   -2.5950    1.6410 N   0  0  0  0  0  0  0  0  0  0  0  0
    0.9490   -1.9220    0.0760 C   0  0  0  0  0  0  0  0  0  0  0  0
    2.0740   -2.0720   -0.4650 O   0  0  0  0  0  0  0  0  0  0  0  0
    0.8960   -6.5180    2.9750 H   0  0  0  0  0  0  0  0  0  0  0  0
    2.1140   -5.5320    2.1330 H   0  0  0  0  0  0  0  0  0  0  0  0
    0.8410   -4.7480    3.2170 H   0  0  0  0  0  0  0  0  0  0  0  0
   -0.9210   -5.2500    1.7030 H   0  0  0  0  0  0  0  0  0  0  0  0
    0.0840   -6.4540   -0.6100 H   0  0  0  0  0  0  0  0  0  0  0  0
    1.0600   -7.2420    0.6410 H   0  0  0  0  0  0  0  0  0  0  0  0
   -0.7800   -7.2900    0.7030 H   0  0  0  0  0  0  0  0  0  0  0  0
    1.5440   -4.4960    0.0300 H   0  0  0  0  0  0  0  0  0  0  0  0
   -0.2170   -4.1580   -0.4030 H   0  0  0  0  0  0  0  0  0  0  0  0
    1.2990   -2.9080    1.9540 H   0  0  0  0  0  0  0  0  0  0  0  0
   -0.7440   -1.6250    2.0460 H   0  0  0  0  0  0  0  0  0  0  0  0
   -1.4610   -2.7250    0.9350 H   0  0  0  0  0  0  0  0  0  0  0  0
    0.0940    1.1390   -3.5080 C   0  0  0  0  0  0  0  0  0  0  0  0
   -0.4090    0.0760   -2.5510 C   0  0  0  0  0  0  0  0  0  0  0  0
   -0.2460   -1.2580   -3.2450 C   0  0  0  0  0  0  0  0  0  0  0  0
    0.5010    0.1140   -1.3510 C   0  0  2  0  0  0  0  0  0  0  0  0
    0.1470   -0.8520   -0.3390 N   0  0  0  0  0  0  0  0  0  0  0  0
    0.5910    1.4860   -0.7780 C   0  0  0  0  0  0  0  0  0  0  0  0
    0.9070    2.4860   -1.4690 O   0  0  0  0  0  0  0  0  0  0  0  0
   -0.1160    0.7940   -4.5540 H   0  0  0  0  0  0  0  0  0  0  0  0
   -0.4210    2.1180   -3.3470 H   0  0  0  0  0  0  0  0  0  0  0  0
    1.1830    1.2180   -3.4220 H   0  0  0  0  0  0  0  0  0  0  0  0
   -1.4470    0.3220   -2.3260 H   0  0  0  0  0  0  0  0  0  0  0  0
   -0.7300   -2.0930   -2.6910 H   0  0  0  0  0  0  0  0  0  0  0  0
    0.8350   -1.4320   -3.4220 H   0  0  0  0  0  0  0  0  0  0  0  0
   -0.7240   -1.2560   -4.2540 H   0  0  0  0  0  0  0  0  0  0  0  0
    1.5150   -0.1480   -1.7120 H   0  0  0  0  0  0  0  0  0  0  0  0
   -0.7840   -0.7390    0.1170 H   0  0  0  0  0  0  0  0  0  0  0  0
    0.3160    1.7390    0.6080 N   0  0  0  0  0  0  0  0  0  0  0  0
    0.3930    3.0590    1.1980 C   0  0  1  0  0  0  0  0  0  0  0  0
   -0.9770    3.5450    1.6360 C   0  0  0  0  0  0  0  0  0  0  0  0
   -1.5710    2.6040    2.6630 C   0  0  0  0  0  0  0  0  0  0  0  0
   -2.9110    3.0600    3.1060 C   0  0  0  0  0  0  0  0  0  0  0  0
   -3.4780    4.0930    2.6780 O   0  0  0  0  0  0  0  0  0  0  0  0
    1.2770    3.1020    2.3740 C   0  0  0  0  0  0  0  0  0  0  0  0
    1.4420    4.1750    2.9860 O   0  0  0  0  0  0  0  0  0  0  0  0
   -3.5680    2.2810    4.0540 O   0  0  0  0  0  0  0  0  0  0  0  0
    1.9170    1.9580    2.7930 O   0  0  0  0  0  0  0  0  0  0  0  0
    0.0510    0.9520    1.2180 H   0  0  0  0  0  0  0  0  0  0  0  0
    0.7260    3.7450    0.3660 H   0  0  0  0  0  0  0  0  0  0  0  0
   -0.8590    4.5560    2.0740 H   0  0  0  0  0  0  0  0  0  0  0  0
   -1.6380    3.5950    0.7640 H   0  0  0  0  0  0  0  0  0  0  0  0
   -0.9400    2.5580    3.5830 H   0  0  0  0  0  0  0  0  0  0  0  0
   -1.6350    1.6090    2.2150 H   0  0  0  0  0  0  0  0  0  0  0  0
   -4.5870    2.2220    4.0670 H   0  0  0  0  0  0  0  0  0  0  0  0
  1  9  1  0  0  0  0
  1 11  1  0  0  0  0
  2 12  1  0  0  0  0
  2  1  1  0  0  0  0
  3 14  1  0  0  0  0
  3 15  1  0  0  0  0
  3  2  1  0  0  0  0
  4  5  1  0  0  0  0
  4  2  1  0  0  0  0
  5  6  1  0  0  0  0
  5 18  1  1  0  0  0
  6 19  1  0  0  0  0
  7  5  1  0  0  0  0
  8  7  2  0  0  0  0
 10  1  1  0  0  0  0
 13  3  1  0  0  0  0
 16  4  1  0  0  0  0
 17  4  1  0  0  0  0
 20  6  1  0  0  0  0
 21 30  1  0  0  0  0
 21 29  1  0  0  0  0
 21 22  1  0  0  0  0
 22 31  1  0  0  0  0
 22 24  1  0  0  0  0
 23 32  1  0  0  0  0
 23 22  1  0  0  0  0
 24 35  1  6  0  0  0
 24 26  1  0  0  0  0
 24 25  1  0  0  0  0
 25  7  1  0  0  0  0
 25 36  1  0  0  0  0
 26 37  1  0  0  0  0
 27 26  2  0  0  0  0
 28 21  1  0  0  0  0
 33 23  1  0  0  0  0
 34 23  1  0  0  0  0
 37 38  1  0  0  0  0
 37 47  1  0  0  0  0
 38 48  1  6  0  0  0
 38 39  1  0  0  0  0
 38 43  1  0  0  0  0
 39 49  1  0  0  0  0
 39 40  1  0  0  0  0
 40 41  1  0  0  0  0
 40 51  1  0  0  0  0
 41 45  1  0  0  0  0
 42 41  2  0  0  0  0
 43 46  2  0  0  0  0
 43 44  1  0  0  0  0
 45 53  1  0  0  0  0
 50 39  1  0  0  0  0
 52 40  1  0  0  0  0
M  END
$$$$
