LVF.pdb
 OpenBabel07022418483D

 57 57  0  0  1  0  0  0  0  0999 V2000
    0.4090   -4.4110    0.7190 C   0  0  0  0  0  0  0  0  0  0  0  0
    0.1150   -5.3330   -0.3970 C   0  0  0  0  0  0  0  0  0  0  0  0
   -1.0580   -6.2350    0.0130 C   0  0  0  0  0  0  0  0  0  0  0  0
   -0.2330   -4.7440   -1.7100 C   0  0  0  0  0  0  0  0  0  0  0  0
    0.7840   -3.8670   -2.3540 C   0  0  2  0  0  0  0  0  0  0  0  0
    2.0350   -4.5140   -2.6200 N   0  0  0  0  0  0  0  0  0  0  0  0
    1.0140   -2.5640   -1.7470 C   0  0  0  0  0  0  0  0  0  0  0  0
    2.1880   -2.1630   -1.5470 O   0  0  0  0  0  0  0  0  0  0  0  0
    0.8050   -5.0020    1.5980 H   0  0  0  0  0  0  0  0  0  0  0  0
    1.0090   -3.5300    0.5090 H   0  0  0  0  0  0  0  0  0  0  0  0
   -0.5820   -4.0260    1.1050 H   0  0  0  0  0  0  0  0  0  0  0  0
    0.9840   -6.0480   -0.4860 H   0  0  0  0  0  0  0  0  0  0  0  0
   -2.0240   -5.7760   -0.3310 H   0  0  0  0  0  0  0  0  0  0  0  0
   -0.9510   -7.2510   -0.3660 H   0  0  0  0  0  0  0  0  0  0  0  0
   -1.1460   -6.2890    1.1220 H   0  0  0  0  0  0  0  0  0  0  0  0
   -1.2180   -4.2150   -1.6550 H   0  0  0  0  0  0  0  0  0  0  0  0
   -0.4470   -5.6130   -2.4020 H   0  0  0  0  0  0  0  0  0  0  0  0
    0.3690   -3.6340   -3.3890 H   0  0  0  0  0  0  0  0  0  0  0  0
    1.9040   -5.4300   -3.1020 H   0  0  0  0  0  0  0  0  0  0  0  0
    2.6600   -4.5630   -1.8010 H   0  0  0  0  0  0  0  0  0  0  0  0
    0.3140    0.5520   -3.0210 C   0  0  0  0  0  0  0  0  0  0  0  0
   -0.4410    0.6390   -1.7230 C   0  0  0  0  0  0  0  0  0  0  0  0
   -1.9210    0.5030   -1.8990 C   0  0  0  0  0  0  0  0  0  0  0  0
    0.1090   -0.4180   -0.7620 C   0  0  2  0  0  0  0  0  0  0  0  0
   -0.0710   -1.7040   -1.3610 N   0  0  0  0  0  0  0  0  0  0  0  0
   -0.5750   -0.3620    0.5430 C   0  0  0  0  0  0  0  0  0  0  0  0
   -1.2130   -1.3540    1.0010 O   0  0  0  0  0  0  0  0  0  0  0  0
   -0.2690    0.0570   -3.8320 H   0  0  0  0  0  0  0  0  0  0  0  0
    0.5590    1.5690   -3.4250 H   0  0  0  0  0  0  0  0  0  0  0  0
    1.2790    0.0250   -2.9410 H   0  0  0  0  0  0  0  0  0  0  0  0
   -0.2590    1.6480   -1.2550 H   0  0  0  0  0  0  0  0  0  0  0  0
   -2.3920    1.4770   -2.1750 H   0  0  0  0  0  0  0  0  0  0  0  0
   -2.3470    0.1480   -0.9470 H   0  0  0  0  0  0  0  0  0  0  0  0
   -2.1180   -0.2140   -2.7210 H   0  0  0  0  0  0  0  0  0  0  0  0
    1.1770   -0.1790   -0.6360 H   0  0  0  0  0  0  0  0  0  0  0  0
   -1.0190   -2.0900   -1.5500 H   0  0  0  0  0  0  0  0  0  0  0  0
   -0.5660    0.8000    1.3700 N   0  0  0  0  0  0  0  0  0  0  0  0
   -1.2520    0.8130    2.6480 C   0  0  1  0  0  0  0  0  0  0  0  0
   -0.1870    0.9840    3.7120 C   0  0  0  0  0  0  0  0  0  0  0  0
    0.5420    2.2500    3.5020 C   0  0  0  0  0  0  0  0  0  0  0  0
    0.1550    3.4450    4.0680 C   0  0  0  0  0  0  0  0  0  0  0  0
    0.8440    4.6220    3.8640 C   0  0  0  0  0  0  0  0  0  0  0  0
    1.9710    4.6410    3.0650 C   0  0  0  0  0  0  0  0  0  0  0  0
    2.3630    3.4470    2.4950 C   0  0  0  0  0  0  0  0  0  0  0  0
    1.6770    2.2700    2.6970 C   0  0  0  0  0  0  0  0  0  0  0  0
   -2.2140    1.9180    2.7530 C   0  0  0  0  0  0  0  0  0  0  0  0
   -2.4360    2.7670    1.8600 O   0  0  0  0  0  0  0  0  0  0  0  0
   -2.9380    2.0380    3.9310 O   0  0  0  0  0  0  0  0  0  0  0  0
   -0.0670    1.6530    1.0680 H   0  0  0  0  0  0  0  0  0  0  0  0
   -1.7390   -0.1860    2.8240 H   0  0  0  0  0  0  0  0  0  0  0  0
   -0.6150    0.9020    4.7410 H   0  0  0  0  0  0  0  0  0  0  0  0
    0.5400    0.1460    3.5950 H   0  0  0  0  0  0  0  0  0  0  0  0
   -0.7220    3.4700    4.6990 H   0  0  0  0  0  0  0  0  0  0  0  0
    0.5250    5.5640    4.3200 H   0  0  0  0  0  0  0  0  0  0  0  0
    2.5250    5.5680    2.8950 H   0  0  0  0  0  0  0  0  0  0  0  0
    3.2510    3.4830    1.8700 H   0  0  0  0  0  0  0  0  0  0  0  0
    2.0310    1.3800    2.2290 H   0  0  0  0  0  0  0  0  0  0  0  0
  1 11  1  0  0  0  0
  1  9  1  0  0  0  0
  2  3  1  0  0  0  0
  2  1  1  0  0  0  0
  3 15  1  0  0  0  0
  4 16  1  0  0  0  0
  4  2  1  0  0  0  0
  5 18  1  6  0  0  0
  5  7  1  0  0  0  0
  5  4  1  0  0  0  0
  6  5  1  0  0  0  0
  6 20  1  0  0  0  0
  7  8  2  0  0  0  0
  7 25  1  0  0  0  0
 10  1  1  0  0  0  0
 12  2  1  0  0  0  0
 13  3  1  0  0  0  0
 14  3  1  0  0  0  0
 17  4  1  0  0  0  0
 19  6  1  0  0  0  0
 21 30  1  0  0  0  0
 21 22  1  0  0  0  0
 22 31  1  0  0  0  0
 22 24  1  0  0  0  0
 23 22  1  0  0  0  0
 23 33  1  0  0  0  0
 24 35  1  1  0  0  0
 24 26  1  0  0  0  0
 25 24  1  0  0  0  0
 26 27  2  0  0  0  0
 26 37  1  0  0  0  0
 28 21  1  0  0  0  0
 29 21  1  0  0  0  0
 32 23  1  0  0  0  0
 34 23  1  0  0  0  0
 36 25  1  0  0  0  0
 37 38  1  0  0  0  0
 38 46  1  0  0  0  0
 38 50  1  1  0  0  0
 38 39  1  0  0  0  0
 39 51  1  0  0  0  0
 40 39  1  0  0  0  0
 40 41  1  0  0  0  0
 41 53  1  0  0  0  0
 42 41  2  0  0  0  0
 42 54  1  0  0  0  0
 43 42  1  0  0  0  0
 44 45  1  0  0  0  0
 44 43  2  0  0  0  0
 45 40  2  0  0  0  0
 46 48  1  0  0  0  0
 47 46  2  0  0  0  0
 49 37  1  0  0  0  0
 52 39  1  0  0  0  0
 55 43  1  0  0  0  0
 56 44  1  0  0  0  0
 57 45  1  0  0  0  0
M  END
$$$$
