LVH.pdb
 OpenBabel07022418483D

 54 54  0  0  1  0  0  0  0  0999 V2000
    2.5700   -2.6370    3.3440 C   0  0  0  0  0  0  0  0  0  0  0  0
    2.8960   -2.4240    1.8750 C   0  0  0  0  0  0  0  0  0  0  0  0
    1.6620   -2.7910    1.1090 C   0  0  0  0  0  0  0  0  0  0  0  0
    3.5310   -1.1420    1.5590 C   0  0  0  0  0  0  0  0  0  0  0  0
    2.8270    0.1240    1.8330 C   0  0  2  0  0  0  0  0  0  0  0  0
    2.4140    0.4070    3.1510 N   0  0  0  0  0  0  0  0  0  0  0  0
    1.8130    0.5180    0.8100 C   0  0  0  0  0  0  0  0  0  0  0  0
    2.1420    0.4670   -0.4120 O   0  0  0  0  0  0  0  0  0  0  0  0
    2.5850   -3.7510    3.5450 H   0  0  0  0  0  0  0  0  0  0  0  0
    3.3950   -2.2560    3.9720 H   0  0  0  0  0  0  0  0  0  0  0  0
    1.5690   -2.3220    3.6310 H   0  0  0  0  0  0  0  0  0  0  0  0
    3.6590   -3.2310    1.6380 H   0  0  0  0  0  0  0  0  0  0  0  0
    1.7090   -3.8280    0.6700 H   0  0  0  0  0  0  0  0  0  0  0  0
    1.5300   -2.1130    0.2400 H   0  0  0  0  0  0  0  0  0  0  0  0
    0.7540   -2.6810    1.7420 H   0  0  0  0  0  0  0  0  0  0  0  0
    4.5440   -1.1220    2.0550 H   0  0  0  0  0  0  0  0  0  0  0  0
    3.7860   -1.1400    0.4580 H   0  0  0  0  0  0  0  0  0  0  0  0
    3.6470    0.9470    1.6340 H   0  0  0  0  0  0  0  0  0  0  0  0
    3.0940    0.1030    3.8590 H   0  0  0  0  0  0  0  0  0  0  0  0
    1.5010   -0.0190    3.3570 H   0  0  0  0  0  0  0  0  0  0  0  0
    0.9350    2.7520   -1.2760 C   0  0  0  0  0  0  0  0  0  0  0  0
   -0.1190    1.6390   -1.1950 C   0  0  0  0  0  0  0  0  0  0  0  0
   -1.3300    2.1960   -1.9050 C   0  0  0  0  0  0  0  0  0  0  0  0
   -0.5170    1.3910    0.2430 C   0  0  2  0  0  0  0  0  0  0  0  0
    0.5230    0.9470    1.1090 N   0  0  0  0  0  0  0  0  0  0  0  0
   -1.6880    0.5460    0.3160 C   0  0  0  0  0  0  0  0  0  0  0  0
   -2.7720    0.7710   -0.3170 O   0  0  0  0  0  0  0  0  0  0  0  0
    1.3650    2.9920   -0.2930 H   0  0  0  0  0  0  0  0  0  0  0  0
    1.6640    2.5460   -2.0640 H   0  0  0  0  0  0  0  0  0  0  0  0
    0.4530    3.7330   -1.5860 H   0  0  0  0  0  0  0  0  0  0  0  0
    0.1880    0.7500   -1.7500 H   0  0  0  0  0  0  0  0  0  0  0  0
   -1.9550    1.3850   -2.3460 H   0  0  0  0  0  0  0  0  0  0  0  0
   -1.0160    2.9160   -2.7130 H   0  0  0  0  0  0  0  0  0  0  0  0
   -1.9530    2.7140   -1.1570 H   0  0  0  0  0  0  0  0  0  0  0  0
   -0.7150    2.4730    0.5890 H   0  0  0  0  0  0  0  0  0  0  0  0
    0.2410    0.9520    2.1370 H   0  0  0  0  0  0  0  0  0  0  0  0
   -1.6410   -0.6330    1.1540 N   0  0  0  0  0  0  0  0  0  0  0  0
   -2.8430   -1.4480    1.1850 C   0  0  1  0  0  0  0  0  0  0  0  0
   -2.6200   -2.7010    0.3070 C   0  0  0  0  0  0  0  0  0  0  0  0
   -2.3310   -2.2340   -1.0760 C   0  0  0  0  0  0  0  0  0  0  0  0
   -3.2590   -2.0100   -2.0510 C   0  0  0  0  0  0  0  0  0  0  0  0
   -2.5780   -1.5940   -3.1660 N   0  0  0  0  0  0  0  0  0  0  0  0
   -1.2780   -1.5640   -2.8860 C   0  0  0  0  0  0  0  0  0  0  0  0
   -1.1370   -1.9570   -1.6070 N   0  0  0  0  0  0  0  0  0  0  0  0
   -3.0800   -1.9010    2.5580 C   0  0  0  0  0  0  0  0  0  0  0  0
   -2.2430   -1.5850    3.4600 O   0  0  0  0  0  0  0  0  0  0  0  0
   -4.1920   -2.6640    2.8960 O   0  0  0  0  0  0  0  0  0  0  0  0
   -0.8260   -0.8950    1.7020 H   0  0  0  0  0  0  0  0  0  0  0  0
   -3.7020   -0.9280    0.7100 H   0  0  0  0  0  0  0  0  0  0  0  0
   -1.8100   -3.3320    0.6910 H   0  0  0  0  0  0  0  0  0  0  0  0
   -3.5430   -3.2990    0.2890 H   0  0  0  0  0  0  0  0  0  0  0  0
   -4.3280   -2.1110   -2.0340 H   0  0  0  0  0  0  0  0  0  0  0  0
   -3.0080   -1.3440   -4.0750 H   0  0  0  0  0  0  0  0  0  0  0  0
   -0.4660   -1.2920   -3.5200 H   0  0  0  0  0  0  0  0  0  0  0  0
  1  9  1  0  0  0  0
  1 11  1  0  0  0  0
  1 10  1  0  0  0  0
  2  1  1  0  0  0  0
  3 15  1  0  0  0  0
  3  2  1  0  0  0  0
  4  5  1  0  0  0  0
  4  2  1  0  0  0  0
  4 16  1  0  0  0  0
  5 18  1  6  0  0  0
  5  6  1  0  0  0  0
  6 20  1  0  0  0  0
  6 19  1  0  0  0  0
  7 25  1  0  0  0  0
  7  5  1  0  0  0  0
  8  7  2  0  0  0  0
 12  2  1  0  0  0  0
 13  3  1  0  0  0  0
 14  3  1  0  0  0  0
 17  4  1  0  0  0  0
 21 22  1  0  0  0  0
 21 28  1  0  0  0  0
 22 24  1  0  0  0  0
 23 22  1  0  0  0  0
 23 34  1  0  0  0  0
 24 26  1  0  0  0  0
 24 35  1  1  0  0  0
 24 25  1  0  0  0  0
 25 36  1  0  0  0  0
 26 37  1  0  0  0  0
 27 26  2  0  0  0  0
 29 21  1  0  0  0  0
 30 21  1  0  0  0  0
 31 22  1  0  0  0  0
 32 23  1  0  0  0  0
 33 23  1  0  0  0  0
 37 38  1  0  0  0  0
 37 48  1  0  0  0  0
 38 49  1  6  0  0  0
 38 45  1  0  0  0  0
 39 50  1  0  0  0  0
 39 38  1  0  0  0  0
 40 39  1  0  0  0  0
 41 52  1  0  0  0  0
 41 40  2  0  0  0  0
 42 43  1  0  0  0  0
 42 41  1  0  0  0  0
 43 44  2  0  0  0  0
 44 40  1  0  0  0  0
 45 47  2  0  0  0  0
 45 46  1  0  0  0  0
 51 39  1  0  0  0  0
 53 42  1  0  0  0  0
 54 43  1  0  0  0  0
M  END
$$$$
