LVK.pdb
 OpenBabel07022418483D

 58 57  0  0  1  0  0  0  0  0999 V2000
   -1.9540   -2.5560    4.7140 C   0  0  0  0  0  0  0  0  0  0  0  0
   -1.2350   -3.8320    4.5280 C   0  0  0  0  0  0  0  0  0  0  0  0
   -2.0220   -4.9040    5.2990 C   0  0  0  0  0  0  0  0  0  0  0  0
   -1.0600   -4.3230    3.1570 C   0  0  0  0  0  0  0  0  0  0  0  0
   -0.3190   -3.4950    2.1810 C   0  0  2  0  0  0  0  0  0  0  0  0
    1.0470   -3.1880    2.5210 N   0  0  0  0  0  0  0  0  0  0  0  0
   -1.0800   -2.3350    1.7040 C   0  0  0  0  0  0  0  0  0  0  0  0
   -2.3120   -2.4350    1.4760 O   0  0  0  0  0  0  0  0  0  0  0  0
   -1.9810   -2.3370    5.8160 H   0  0  0  0  0  0  0  0  0  0  0  0
   -1.5360   -1.6810    4.2360 H   0  0  0  0  0  0  0  0  0  0  0  0
   -3.0300   -2.6350    4.4210 H   0  0  0  0  0  0  0  0  0  0  0  0
   -0.2390   -3.7930    5.0400 H   0  0  0  0  0  0  0  0  0  0  0  0
   -1.8440   -5.9090    4.8960 H   0  0  0  0  0  0  0  0  0  0  0  0
   -3.1010   -4.6650    5.1850 H   0  0  0  0  0  0  0  0  0  0  0  0
   -1.7950   -4.8020    6.3760 H   0  0  0  0  0  0  0  0  0  0  0  0
   -2.0580   -4.5590    2.6800 H   0  0  0  0  0  0  0  0  0  0  0  0
   -0.5570   -5.3360    3.1760 H   0  0  0  0  0  0  0  0  0  0  0  0
   -0.2090   -4.1660    1.2620 H   0  0  0  0  0  0  0  0  0  0  0  0
    1.6980   -3.2330    1.7080 H   0  0  0  0  0  0  0  0  0  0  0  0
    1.4260   -3.7960    3.2810 H   0  0  0  0  0  0  0  0  0  0  0  0
    0.2640    1.8020    2.0120 C   0  0  0  0  0  0  0  0  0  0  0  0
   -1.1370    1.3090    1.8730 C   0  0  0  0  0  0  0  0  0  0  0  0
   -1.6950    1.0130    3.2360 C   0  0  0  0  0  0  0  0  0  0  0  0
   -1.2570    0.0950    0.9920 C   0  0  2  0  0  0  0  0  0  0  0  0
   -0.4990   -1.0440    1.4670 N   0  0  0  0  0  0  0  0  0  0  0  0
   -0.8380    0.3680   -0.4000 C   0  0  0  0  0  0  0  0  0  0  0  0
   -1.3590    1.3100   -1.0230 O   0  0  0  0  0  0  0  0  0  0  0  0
    0.5160    2.5190    1.1790 H   0  0  0  0  0  0  0  0  0  0  0  0
    1.0150    0.9970    2.1070 H   0  0  0  0  0  0  0  0  0  0  0  0
    0.3180    2.4120    2.9400 H   0  0  0  0  0  0  0  0  0  0  0  0
   -1.7460    2.1290    1.4270 H   0  0  0  0  0  0  0  0  0  0  0  0
   -2.0080    1.9510    3.7720 H   0  0  0  0  0  0  0  0  0  0  0  0
   -0.8860    0.5910    3.8970 H   0  0  0  0  0  0  0  0  0  0  0  0
   -2.5100    0.2680    3.2350 H   0  0  0  0  0  0  0  0  0  0  0  0
   -2.3480   -0.2050    0.9780 H   0  0  0  0  0  0  0  0  0  0  0  0
    0.5120   -0.9280    1.6450 H   0  0  0  0  0  0  0  0  0  0  0  0
    0.1400   -0.4290   -1.0150 N   0  0  0  0  0  0  0  0  0  0  0  0
    0.6060   -0.2260   -2.3810 C   0  0  1  0  0  0  0  0  0  0  0  0
    2.0710    0.0750   -2.2950 C   0  0  0  0  0  0  0  0  0  0  0  0
    2.7510    0.3220   -3.5990 C   0  0  0  0  0  0  0  0  0  0  0  0
    2.1800    1.4820   -4.3660 C   0  0  0  0  0  0  0  0  0  0  0  0
    2.2760    2.7870   -3.6020 C   0  0  0  0  0  0  0  0  0  0  0  0
    1.6850    3.8040   -4.4700 N   0  0  0  0  0  0  0  0  0  0  0  0
    0.2850   -1.3990   -3.2300 C   0  0  0  0  0  0  0  0  0  0  0  0
   -0.2980   -2.4260   -2.7940 O   0  0  0  0  0  0  0  0  0  0  0  0
    0.6260   -1.4000   -4.5720 O   0  0  0  0  0  0  0  0  0  0  0  0
    0.5710   -1.2260   -0.4680 H   0  0  0  0  0  0  0  0  0  0  0  0
    0.0770    0.6370   -2.8170 H   0  0  0  0  0  0  0  0  0  0  0  0
    2.5510   -0.8550   -1.8650 H   0  0  0  0  0  0  0  0  0  0  0  0
    2.2930    0.8630   -1.5620 H   0  0  0  0  0  0  0  0  0  0  0  0
    2.7640   -0.5590   -4.2500 H   0  0  0  0  0  0  0  0  0  0  0  0
    3.8100    0.6230   -3.3470 H   0  0  0  0  0  0  0  0  0  0  0  0
    1.1460    1.3100   -4.7290 H   0  0  0  0  0  0  0  0  0  0  0  0
    2.8090    1.6110   -5.2800 H   0  0  0  0  0  0  0  0  0  0  0  0
    1.7830    2.7610   -2.6260 H   0  0  0  0  0  0  0  0  0  0  0  0
    3.3340    3.0740   -3.4390 H   0  0  0  0  0  0  0  0  0  0  0  0
    1.2050    3.3930   -5.3000 H   0  0  0  0  0  0  0  0  0  0  0  0
    1.0470    4.4430   -3.9420 H   0  0  0  0  0  0  0  0  0  0  0  0
  1  9  1  0  0  0  0
  2  1  1  0  0  0  0
  2 12  1  0  0  0  0
  2  3  1  0  0  0  0
  3 15  1  0  0  0  0
  4 17  1  0  0  0  0
  4  2  1  0  0  0  0
  5 18  1  6  0  0  0
  5  6  1  0  0  0  0
  5  4  1  0  0  0  0
  6 20  1  0  0  0  0
  7  5  1  0  0  0  0
  8  7  2  0  0  0  0
 10  1  1  0  0  0  0
 11  1  1  0  0  0  0
 13  3  1  0  0  0  0
 14  3  1  0  0  0  0
 16  4  1  0  0  0  0
 19  6  1  0  0  0  0
 21 29  1  0  0  0  0
 21 30  1  0  0  0  0
 22 21  1  0  0  0  0
 22 23  1  0  0  0  0
 23 32  1  0  0  0  0
 23 33  1  0  0  0  0
 24 35  1  6  0  0  0
 24 25  1  0  0  0  0
 24 22  1  0  0  0  0
 25 36  1  0  0  0  0
 25  7  1  0  0  0  0
 26 24  1  0  0  0  0
 27 26  2  0  0  0  0
 28 21  1  0  0  0  0
 31 22  1  0  0  0  0
 34 23  1  0  0  0  0
 37 47  1  0  0  0  0
 37 26  1  0  0  0  0
 38 48  1  6  0  0  0
 38 39  1  0  0  0  0
 38 37  1  0  0  0  0
 39 49  1  0  0  0  0
 39 50  1  0  0  0  0
 40 52  1  0  0  0  0
 40 39  1  0  0  0  0
 41 42  1  0  0  0  0
 41 40  1  0  0  0  0
 42 56  1  0  0  0  0
 42 55  1  0  0  0  0
 43 58  1  0  0  0  0
 43 42  1  0  0  0  0
 44 45  1  0  0  0  0
 44 38  1  0  0  0  0
 46 44  2  0  0  0  0
 51 40  1  0  0  0  0
 53 41  1  0  0  0  0
 54 41  1  0  0  0  0
 57 43  1  0  0  0  0
M  END
$$$$
