LVM.pdb
 OpenBabel07022418483D

 54 53  0  0  1  0  0  0  0  0999 V2000
    1.1160   -3.4710    0.9370 C   0  0  0  0  0  0  0  0  0  0  0  0
    2.2350   -3.3110   -0.0290 C   0  0  0  0  0  0  0  0  0  0  0  0
    1.7510   -3.8320   -1.3890 C   0  0  0  0  0  0  0  0  0  0  0  0
    2.7230   -1.9220   -0.2510 C   0  0  0  0  0  0  0  0  0  0  0  0
    3.2430   -1.2150    0.9540 C   0  0  2  0  0  0  0  0  0  0  0  0
    4.3460   -1.9390    1.5420 N   0  0  0  0  0  0  0  0  0  0  0  0
    2.2220   -0.8280    1.9480 C   0  0  0  0  0  0  0  0  0  0  0  0
    2.2960   -1.2910    3.1150 O   0  0  0  0  0  0  0  0  0  0  0  0
    0.5480   -2.5470    0.9820 H   0  0  0  0  0  0  0  0  0  0  0  0
    0.4220   -4.2600    0.5560 H   0  0  0  0  0  0  0  0  0  0  0  0
    1.5210   -3.8010    1.9170 H   0  0  0  0  0  0  0  0  0  0  0  0
    3.0920   -3.9910    0.2310 H   0  0  0  0  0  0  0  0  0  0  0  0
    1.7570   -4.9430   -1.3810 H   0  0  0  0  0  0  0  0  0  0  0  0
    0.7070   -3.4690   -1.5340 H   0  0  0  0  0  0  0  0  0  0  0  0
    2.4350   -3.5080   -2.1920 H   0  0  0  0  0  0  0  0  0  0  0  0
    3.5480   -1.9650   -0.9920 H   0  0  0  0  0  0  0  0  0  0  0  0
    1.9260   -1.3100   -0.7240 H   0  0  0  0  0  0  0  0  0  0  0  0
    3.6820   -0.2380    0.5820 H   0  0  0  0  0  0  0  0  0  0  0  0
    5.0210   -1.3170    2.0360 H   0  0  0  0  0  0  0  0  0  0  0  0
    4.8410   -2.5360    0.8680 H   0  0  0  0  0  0  0  0  0  0  0  0
   -0.1080    2.6290    1.7350 C   0  0  0  0  0  0  0  0  0  0  0  0
    0.2420    1.8750    2.9970 C   0  0  0  0  0  0  0  0  0  0  0  0
    1.5360    2.2990    3.6050 C   0  0  0  0  0  0  0  0  0  0  0  0
    0.2070    0.3810    2.6720 C   0  0  2  0  0  0  0  0  0  0  0  0
    1.1530    0.0550    1.6370 N   0  0  0  0  0  0  0  0  0  0  0  0
   -1.1670    0.1260    2.1650 C   0  0  0  0  0  0  0  0  0  0  0  0
   -2.1800    0.3690    2.9180 O   0  0  0  0  0  0  0  0  0  0  0  0
   -0.8640    3.4270    1.9250 H   0  0  0  0  0  0  0  0  0  0  0  0
   -0.5900    1.9390    1.0040 H   0  0  0  0  0  0  0  0  0  0  0  0
    0.7650    3.1460    1.2950 H   0  0  0  0  0  0  0  0  0  0  0  0
   -0.5700    2.0860    3.7280 H   0  0  0  0  0  0  0  0  0  0  0  0
    1.4200    3.0910    4.3940 H   0  0  0  0  0  0  0  0  0  0  0  0
    2.0680    1.4660    4.1310 H   0  0  0  0  0  0  0  0  0  0  0  0
    2.1670    2.7580    2.8190 H   0  0  0  0  0  0  0  0  0  0  0  0
    0.3460   -0.2210    3.5860 H   0  0  0  0  0  0  0  0  0  0  0  0
    1.1030    0.4290    0.6660 H   0  0  0  0  0  0  0  0  0  0  0  0
   -4.5800    0.6030   -3.7380 C   0  0  0  0  0  0  0  0  0  0  0  0
   -2.9110    1.0660   -3.2660 S   0  0  0  0  0  0  0  0  0  0  0  0
   -2.3590   -0.0100   -1.9200 C   0  0  0  0  0  0  0  0  0  0  0  0
   -3.2080    0.2840   -0.7070 C   0  0  0  0  0  0  0  0  0  0  0  0
   -2.8120   -0.5790    0.4760 C   0  0  2  0  0  0  0  0  0  0  0  0
   -1.4550   -0.3810    0.8680 N   0  0  0  0  0  0  0  0  0  0  0  0
   -3.0840   -1.9990    0.2490 C   0  0  0  0  0  0  0  0  0  0  0  0
   -4.2120   -2.4140   -0.1090 O   0  0  0  0  0  0  0  0  0  0  0  0
   -2.0800   -2.9250    0.4300 O   0  0  0  0  0  0  0  0  0  0  0  0
   -5.0030   -0.2050   -3.1270 H   0  0  0  0  0  0  0  0  0  0  0  0
   -5.2280    1.5090   -3.6250 H   0  0  0  0  0  0  0  0  0  0  0  0
   -4.6010    0.2390   -4.7970 H   0  0  0  0  0  0  0  0  0  0  0  0
   -2.4580   -1.0830   -2.1780 H   0  0  0  0  0  0  0  0  0  0  0  0
   -1.2810    0.1610   -1.7170 H   0  0  0  0  0  0  0  0  0  0  0  0
   -4.2580    0.0510   -0.9420 H   0  0  0  0  0  0  0  0  0  0  0  0
   -3.1470    1.3370   -0.3900 H   0  0  0  0  0  0  0  0  0  0  0  0
   -3.4900   -0.2490    1.3020 H   0  0  0  0  0  0  0  0  0  0  0  0
   -0.6300   -0.5960    0.2310 H   0  0  0  0  0  0  0  0  0  0  0  0
  1  9  1  0  0  0  0
  1 11  1  0  0  0  0
  2 12  1  0  0  0  0
  2  1  1  0  0  0  0
  3 13  1  0  0  0  0
  3  2  1  0  0  0  0
  4  2  1  0  0  0  0
  4  5  1  0  0  0  0
  5 18  1  6  0  0  0
  5  6  1  0  0  0  0
  5  7  1  0  0  0  0
  6 19  1  0  0  0  0
  7  8  2  0  0  0  0
 10  1  1  0  0  0  0
 14  3  1  0  0  0  0
 15  3  1  0  0  0  0
 16  4  1  0  0  0  0
 17  4  1  0  0  0  0
 20  6  1  0  0  0  0
 21 28  1  0  0  0  0
 21 22  1  0  0  0  0
 22 23  1  0  0  0  0
 22 31  1  0  0  0  0
 23 33  1  0  0  0  0
 23 32  1  0  0  0  0
 24 22  1  0  0  0  0
 24 35  1  1  0  0  0
 25  7  1  0  0  0  0
 25 24  1  0  0  0  0
 26 24  1  0  0  0  0
 26 27  2  0  0  0  0
 29 21  1  0  0  0  0
 30 21  1  0  0  0  0
 34 23  1  0  0  0  0
 36 25  1  0  0  0  0
 37 47  1  0  0  0  0
 37 38  1  0  0  0  0
 37 46  1  0  0  0  0
 38 39  1  0  0  0  0
 39 50  1  0  0  0  0
 39 40  1  0  0  0  0
 40 52  1  0  0  0  0
 40 41  1  0  0  0  0
 41 42  1  0  0  0  0
 41 53  1  1  0  0  0
 42 26  1  0  0  0  0
 43 45  1  0  0  0  0
 43 41  1  0  0  0  0
 44 43  2  0  0  0  0
 48 37  1  0  0  0  0
 49 39  1  0  0  0  0
 51 40  1  0  0  0  0
 54 42  1  0  0  0  0
M  END
$$$$
