LVN.pdb
 OpenBabel07022418483D

 51 50  0  0  1  0  0  0  0  0999 V2000
    4.8590   -2.8080    1.7600 C   0  0  0  0  0  0  0  0  0  0  0  0
    3.8530   -3.6420    1.0180 C   0  0  0  0  0  0  0  0  0  0  0  0
    2.6530   -3.8320    1.8860 C   0  0  0  0  0  0  0  0  0  0  0  0
    3.5790   -3.1910   -0.3660 C   0  0  0  0  0  0  0  0  0  0  0  0
    3.0410   -1.8180   -0.5430 C   0  0  2  0  0  0  0  0  0  0  0  0
    3.8780   -0.7560   -0.0450 N   0  0  0  0  0  0  0  0  0  0  0  0
    1.6190   -1.6970   -0.1760 C   0  0  0  0  0  0  0  0  0  0  0  0
    0.8690   -2.6550   -0.4920 O   0  0  0  0  0  0  0  0  0  0  0  0
    4.3980   -1.9630    2.3320 H   0  0  0  0  0  0  0  0  0  0  0  0
    5.2890   -3.4750    2.5660 H   0  0  0  0  0  0  0  0  0  0  0  0
    5.7130   -2.5010    1.1470 H   0  0  0  0  0  0  0  0  0  0  0  0
    4.3230   -4.6680    0.9200 H   0  0  0  0  0  0  0  0  0  0  0  0
    2.3670   -2.8630    2.2890 H   0  0  0  0  0  0  0  0  0  0  0  0
    1.8310   -4.3910    1.4260 H   0  0  0  0  0  0  0  0  0  0  0  0
    2.9780   -4.4570    2.7700 H   0  0  0  0  0  0  0  0  0  0  0  0
    4.4630   -3.3760   -1.0140 H   0  0  0  0  0  0  0  0  0  0  0  0
    2.7930   -3.8900   -0.7800 H   0  0  0  0  0  0  0  0  0  0  0  0
    3.0430   -1.6510   -1.6770 H   0  0  0  0  0  0  0  0  0  0  0  0
    3.5530    0.1420   -0.4340 H   0  0  0  0  0  0  0  0  0  0  0  0
    4.8360   -0.9230   -0.4320 H   0  0  0  0  0  0  0  0  0  0  0  0
   -0.0860    0.9770    2.6750 C   0  0  0  0  0  0  0  0  0  0  0  0
   -0.6440   -0.3690    2.2500 C   0  0  0  0  0  0  0  0  0  0  0  0
   -0.0630   -1.5030    3.0450 C   0  0  0  0  0  0  0  0  0  0  0  0
   -0.3710   -0.6050    0.7860 C   0  0  2  0  0  0  0  0  0  0  0  0
    1.0440   -0.5960    0.4940 N   0  0  0  0  0  0  0  0  0  0  0  0
   -0.9790    0.4850   -0.0490 C   0  0  0  0  0  0  0  0  0  0  0  0
   -0.3010    1.2120   -0.8180 O   0  0  0  0  0  0  0  0  0  0  0  0
   -0.6990    1.3460    3.5320 H   0  0  0  0  0  0  0  0  0  0  0  0
   -0.1460    1.7060    1.8270 H   0  0  0  0  0  0  0  0  0  0  0  0
    0.9490    0.9070    3.0430 H   0  0  0  0  0  0  0  0  0  0  0  0
   -1.7490   -0.3960    2.4420 H   0  0  0  0  0  0  0  0  0  0  0  0
   -0.1010   -2.4650    2.4940 H   0  0  0  0  0  0  0  0  0  0  0  0
    0.9680   -1.2710    3.3880 H   0  0  0  0  0  0  0  0  0  0  0  0
   -0.6700   -1.7050    3.9770 H   0  0  0  0  0  0  0  0  0  0  0  0
   -0.8340   -1.5910    0.5180 H   0  0  0  0  0  0  0  0  0  0  0  0
    1.6470    0.2070    0.7680 H   0  0  0  0  0  0  0  0  0  0  0  0
   -6.2080    0.8380   -0.8640 N   0  0  0  0  0  0  0  0  0  0  0  0
   -4.8910    0.3450   -1.1080 C   0  0  0  0  0  0  0  0  0  0  0  0
   -4.6680   -0.8150   -0.6360 O   0  0  0  0  0  0  0  0  0  0  0  0
   -3.8690    1.1090   -1.8420 C   0  0  0  0  0  0  0  0  0  0  0  0
   -2.9730    1.8000   -0.8110 C   0  0  2  0  0  0  0  0  0  0  0  0
   -2.3840    0.7510   -0.0060 N   0  0  0  0  0  0  0  0  0  0  0  0
   -3.8210    2.7200   -0.0410 C   0  0  0  0  0  0  0  0  0  0  0  0
   -4.0510    2.6510    1.1840 O   0  0  0  0  0  0  0  0  0  0  0  0
   -4.4310    3.7720   -0.7360 O   0  0  0  0  0  0  0  0  0  0  0  0
   -7.0580    0.2810   -1.0990 H   0  0  0  0  0  0  0  0  0  0  0  0
   -6.2970    1.7840   -0.4390 H   0  0  0  0  0  0  0  0  0  0  0  0
   -4.2710    1.7950   -2.5840 H   0  0  0  0  0  0  0  0  0  0  0  0
   -3.2630    0.3490   -2.4170 H   0  0  0  0  0  0  0  0  0  0  0  0
   -2.1730    2.3270   -1.3900 H   0  0  0  0  0  0  0  0  0  0  0  0
   -2.9800    0.1770    0.6160 H   0  0  0  0  0  0  0  0  0  0  0  0
  1  9  1  0  0  0  0
  1 10  1  0  0  0  0
  2  1  1  0  0  0  0
  2  3  1  0  0  0  0
  3 13  1  0  0  0  0
  3 15  1  0  0  0  0
  4  2  1  0  0  0  0
  5 18  1  6  0  0  0
  5  4  1  0  0  0  0
  5  7  1  0  0  0  0
  5  6  1  0  0  0  0
  7 25  1  0  0  0  0
  8  7  2  0  0  0  0
 11  1  1  0  0  0  0
 12  2  1  0  0  0  0
 14  3  1  0  0  0  0
 16  4  1  0  0  0  0
 17  4  1  0  0  0  0
 19  6  1  0  0  0  0
 20  6  1  0  0  0  0
 21 30  1  0  0  0  0
 21 28  1  0  0  0  0
 22 31  1  0  0  0  0
 22 21  1  0  0  0  0
 22 23  1  0  0  0  0
 23 33  1  0  0  0  0
 23 34  1  0  0  0  0
 24 35  1  6  0  0  0
 24 22  1  0  0  0  0
 25 36  1  0  0  0  0
 25 24  1  0  0  0  0
 26 42  1  0  0  0  0
 26 24  1  0  0  0  0
 27 26  2  0  0  0  0
 29 21  1  0  0  0  0
 32 23  1  0  0  0  0
 37 47  1  0  0  0  0
 38 37  1  0  0  0  0
 38 39  2  0  0  0  0
 40 38  1  0  0  0  0
 40 41  1  0  0  0  0
 41 50  1  6  0  0  0
 41 43  1  0  0  0  0
 41 42  1  0  0  0  0
 42 51  1  0  0  0  0
 43 44  1  0  0  0  0
 45 43  2  0  0  0  0
 46 37  1  0  0  0  0
 48 40  1  0  0  0  0
 49 40  1  0  0  0  0
M  END
$$$$
