LVP.pdb
 OpenBabel07022418483D

 51 51  0  0  1  0  0  0  0  0999 V2000
   -4.3350    0.1410    1.1940 C   0  0  0  0  0  0  0  0  0  0  0  0
   -3.0720    0.0950    2.0660 C   0  0  0  0  0  0  0  0  0  0  0  0
   -3.5520    0.3070    3.4870 C   0  0  0  0  0  0  0  0  0  0  0  0
   -2.1790    1.1830    1.5880 C   0  0  0  0  0  0  0  0  0  0  0  0
   -0.8810    1.3370    2.2880 C   0  0  2  0  0  0  0  0  0  0  0  0
   -0.1850    2.4730    1.6530 N   0  0  0  0  0  0  0  0  0  0  0  0
    0.0220    0.1800    2.2380 C   0  0  0  0  0  0  0  0  0  0  0  0
    0.8810    0.0280    3.1730 O   0  0  0  0  0  0  0  0  0  0  0  0
   -4.8810   -0.8230    1.2280 H   0  0  0  0  0  0  0  0  0  0  0  0
   -5.0260    0.9040    1.6160 H   0  0  0  0  0  0  0  0  0  0  0  0
   -4.0830    0.4490    0.1630 H   0  0  0  0  0  0  0  0  0  0  0  0
   -2.6360   -0.8930    1.9120 H   0  0  0  0  0  0  0  0  0  0  0  0
   -2.7970    0.0110    4.2320 H   0  0  0  0  0  0  0  0  0  0  0  0
   -3.8150    1.3680    3.5880 H   0  0  0  0  0  0  0  0  0  0  0  0
   -4.4260   -0.3730    3.6390 H   0  0  0  0  0  0  0  0  0  0  0  0
   -2.7290    2.1580    1.6770 H   0  0  0  0  0  0  0  0  0  0  0  0
   -2.0040    1.0510    0.5060 H   0  0  0  0  0  0  0  0  0  0  0  0
   -0.9880    1.6430    3.3500 H   0  0  0  0  0  0  0  0  0  0  0  0
   -0.8750    3.2050    1.3690 H   0  0  0  0  0  0  0  0  0  0  0  0
    0.4550    2.9330    2.3470 H   0  0  0  0  0  0  0  0  0  0  0  0
   -0.8100   -3.2910    2.3690 C   0  0  0  0  0  0  0  0  0  0  0  0
    0.0840   -3.2070    1.1470 C   0  0  0  0  0  0  0  0  0  0  0  0
    1.1130   -4.3060    1.3030 C   0  0  0  0  0  0  0  0  0  0  0  0
    0.8570   -1.8760    1.1600 C   0  0  2  0  0  0  0  0  0  0  0  0
   -0.0480   -0.7690    1.1630 N   0  0  0  0  0  0  0  0  0  0  0  0
    1.7180   -1.8860   -0.0290 C   0  0  0  0  0  0  0  0  0  0  0  0
    2.5430   -2.8890   -0.0510 O   0  0  0  0  0  0  0  0  0  0  0  0
   -0.4320   -2.5710    3.1060 H   0  0  0  0  0  0  0  0  0  0  0  0
   -0.7380   -4.3210    2.7640 H   0  0  0  0  0  0  0  0  0  0  0  0
   -1.8780   -3.1460    2.1020 H   0  0  0  0  0  0  0  0  0  0  0  0
   -0.4570   -3.2350    0.1940 H   0  0  0  0  0  0  0  0  0  0  0  0
    1.3740   -4.8130    0.3560 H   0  0  0  0  0  0  0  0  0  0  0  0
    1.9850   -3.9680    1.8950 H   0  0  0  0  0  0  0  0  0  0  0  0
    0.6680   -5.1390    1.9330 H   0  0  0  0  0  0  0  0  0  0  0  0
    1.4730   -1.8220    2.0940 H   0  0  0  0  0  0  0  0  0  0  0  0
   -0.7870   -0.5790    0.4550 H   0  0  0  0  0  0  0  0  0  0  0  0
    1.7410   -0.9580   -1.1040 N   0  0  0  0  0  0  0  0  0  0  0  0
    0.9580    0.1890   -1.2620 C   0  0  0  0  0  0  0  0  0  0  0  0
    1.6520    0.9830   -2.3840 C   0  0  0  0  0  0  0  0  0  0  0  0
    2.1720   -0.1790   -3.2510 C   0  0  0  0  0  0  0  0  0  0  0  0
    2.6410   -1.1510   -2.2030 C   0  0  1  0  0  0  0  0  0  0  0  0
    4.0560   -0.9180   -1.8230 C   0  0  0  0  0  0  0  0  0  0  0  0
    4.3690   -0.5920   -0.6680 O   0  0  0  0  0  0  0  0  0  0  0  0
    5.0310   -1.0700   -2.7850 O   0  0  0  0  0  0  0  0  0  0  0  0
    0.8800    0.8440   -0.3630 H   0  0  0  0  0  0  0  0  0  0  0  0
   -0.0510   -0.0590   -1.6840 H   0  0  0  0  0  0  0  0  0  0  0  0
    2.5240    1.4970   -1.9820 H   0  0  0  0  0  0  0  0  0  0  0  0
    0.9640    1.6290   -2.9240 H   0  0  0  0  0  0  0  0  0  0  0  0
    3.0290    0.1540   -3.8750 H   0  0  0  0  0  0  0  0  0  0  0  0
    1.3130   -0.5460   -3.8280 H   0  0  0  0  0  0  0  0  0  0  0  0
    2.5010   -2.2150   -2.5470 H   0  0  0  0  0  0  0  0  0  0  0  0
  1  9  1  0  0  0  0
  1 10  1  0  0  0  0
  1  2  1  0  0  0  0
  2  3  1  0  0  0  0
  3 14  1  0  0  0  0
  3 15  1  0  0  0  0
  3 13  1  0  0  0  0
  4 16  1  0  0  0  0
  4  2  1  0  0  0  0
  4  5  1  0  0  0  0
  5 18  1  1  0  0  0
  6  5  1  0  0  0  0
  6 20  1  0  0  0  0
  7  5  1  0  0  0  0
  7  8  2  0  0  0  0
 11  1  1  0  0  0  0
 12  2  1  0  0  0  0
 17  4  1  0  0  0  0
 19  6  1  0  0  0  0
 21 29  1  0  0  0  0
 21 28  1  0  0  0  0
 22 24  1  0  0  0  0
 22 23  1  0  0  0  0
 22 21  1  0  0  0  0
 23 33  1  0  0  0  0
 23 34  1  0  0  0  0
 24 25  1  0  0  0  0
 24 35  1  1  0  0  0
 25  7  1  0  0  0  0
 26 24  1  0  0  0  0
 27 26  2  0  0  0  0
 30 21  1  0  0  0  0
 31 22  1  0  0  0  0
 32 23  1  0  0  0  0
 36 25  1  0  0  0  0
 37 26  1  0  0  0  0
 38 37  1  0  0  0  0
 38 45  1  0  0  0  0
 39 47  1  0  0  0  0
 39 38  1  0  0  0  0
 40 39  1  0  0  0  0
 40 41  1  0  0  0  0
 41 51  1  6  0  0  0
 41 42  1  0  0  0  0
 41 37  1  0  0  0  0
 42 43  1  0  0  0  0
 44 42  2  0  0  0  0
 46 38  1  0  0  0  0
 48 39  1  0  0  0  0
 49 40  1  0  0  0  0
 50 40  1  0  0  0  0
M  END
$$$$
