LVQ.pdb
 OpenBabel07022418483D

 54 53  0  0  1  0  0  0  0  0999 V2000
   -0.3930    0.9450    2.8310 C   0  0  0  0  0  0  0  0  0  0  0  0
    0.4430    2.0950    3.2110 C   0  0  0  0  0  0  0  0  0  0  0  0
   -0.5060    3.2210    3.6880 C   0  0  0  0  0  0  0  0  0  0  0  0
    1.3470    2.7120    2.2440 C   0  0  0  0  0  0  0  0  0  0  0  0
    2.4450    1.9510    1.6130 C   0  0  2  0  0  0  0  0  0  0  0  0
    3.1350    2.9690    0.7290 N   0  0  0  0  0  0  0  0  0  0  0  0
    1.9530    0.9180    0.6820 C   0  0  0  0  0  0  0  0  0  0  0  0
    1.7920    1.2590   -0.5320 O   0  0  0  0  0  0  0  0  0  0  0  0
   -0.6230    0.9250    1.7490 H   0  0  0  0  0  0  0  0  0  0  0  0
   -0.0640   -0.0250    3.2560 H   0  0  0  0  0  0  0  0  0  0  0  0
   -1.4200    1.0810    3.3040 H   0  0  0  0  0  0  0  0  0  0  0  0
    1.0130    1.8530    4.1730 H   0  0  0  0  0  0  0  0  0  0  0  0
   -1.3940    3.1510    3.0090 H   0  0  0  0  0  0  0  0  0  0  0  0
   -0.0570    4.2040    3.5310 H   0  0  0  0  0  0  0  0  0  0  0  0
   -0.8700    3.0220    4.6990 H   0  0  0  0  0  0  0  0  0  0  0  0
    0.7400    3.2310    1.4260 H   0  0  0  0  0  0  0  0  0  0  0  0
    1.7970    3.6210    2.7710 H   0  0  0  0  0  0  0  0  0  0  0  0
    3.2390    1.6230    2.2820 H   0  0  0  0  0  0  0  0  0  0  0  0
    3.9830    2.5120    0.3260 H   0  0  0  0  0  0  0  0  0  0  0  0
    3.4890    3.7200    1.3890 H   0  0  0  0  0  0  0  0  0  0  0  0
    3.4910   -1.3650   -0.8940 C   0  0  0  0  0  0  0  0  0  0  0  0
    2.3540   -2.2790   -0.4000 C   0  0  0  0  0  0  0  0  0  0  0  0
    2.0790   -3.2960   -1.4450 C   0  0  0  0  0  0  0  0  0  0  0  0
    1.1780   -1.3560   -0.0780 C   0  0  2  0  0  0  0  0  0  0  0  0
    1.6440   -0.4180    0.9630 N   0  0  0  0  0  0  0  0  0  0  0  0
   -0.0420   -2.0640    0.2920 C   0  0  0  0  0  0  0  0  0  0  0  0
   -0.5150   -1.9810    1.4790 O   0  0  0  0  0  0  0  0  0  0  0  0
    4.3560   -1.9650   -1.2360 H   0  0  0  0  0  0  0  0  0  0  0  0
    3.7280   -0.6460   -0.1120 H   0  0  0  0  0  0  0  0  0  0  0  0
    3.0880   -0.8250   -1.7690 H   0  0  0  0  0  0  0  0  0  0  0  0
    2.7120   -2.7090    0.5550 H   0  0  0  0  0  0  0  0  0  0  0  0
    3.0980   -3.7050   -1.7550 H   0  0  0  0  0  0  0  0  0  0  0  0
    1.4820   -4.1570   -1.1170 H   0  0  0  0  0  0  0  0  0  0  0  0
    1.6920   -2.8100   -2.3510 H   0  0  0  0  0  0  0  0  0  0  0  0
    1.0400   -0.7510   -0.9870 H   0  0  0  0  0  0  0  0  0  0  0  0
    1.7390   -0.7880    1.9140 H   0  0  0  0  0  0  0  0  0  0  0  0
   -4.5910    0.5470   -1.2940 N   0  0  0  0  0  0  0  0  0  0  0  0
   -4.3480   -0.8350   -1.3670 C   0  0  0  0  0  0  0  0  0  0  0  0
   -5.0740   -1.5810   -2.0700 O   0  0  0  0  0  0  0  0  0  0  0  0
   -3.2340   -1.4790   -0.6250 C   0  0  0  0  0  0  0  0  0  0  0  0
   -3.1760   -2.9610   -0.8600 C   0  0  0  0  0  0  0  0  0  0  0  0
   -2.0210   -3.5490   -0.0760 C   0  0  2  0  0  0  0  0  0  0  0  0
   -0.8160   -2.8880   -0.5720 N   0  0  0  0  0  0  0  0  0  0  0  0
   -1.9490   -5.0090   -0.2140 C   0  0  0  0  0  0  0  0  0  0  0  0
   -0.9760   -5.6390   -0.7000 O   0  0  0  0  0  0  0  0  0  0  0  0
   -3.0360   -5.7520    0.2230 O   0  0  0  0  0  0  0  0  0  0  0  0
   -3.8920    1.1720   -0.8670 H   0  0  0  0  0  0  0  0  0  0  0  0
   -5.4700    0.9340   -1.6670 H   0  0  0  0  0  0  0  0  0  0  0  0
   -2.2920   -0.9800   -0.9770 H   0  0  0  0  0  0  0  0  0  0  0  0
   -3.4200   -1.2530    0.4570 H   0  0  0  0  0  0  0  0  0  0  0  0
   -4.1520   -3.3870   -0.5340 H   0  0  0  0  0  0  0  0  0  0  0  0
   -3.0240   -3.1010   -1.9660 H   0  0  0  0  0  0  0  0  0  0  0  0
   -2.2070   -3.3180    0.9830 H   0  0  0  0  0  0  0  0  0  0  0  0
   -0.5120   -2.9990   -1.5650 H   0  0  0  0  0  0  0  0  0  0  0  0
  1  2  1  0  0  0  0
  1 10  1  0  0  0  0
  1 11  1  0  0  0  0
  2  3  1  0  0  0  0
  2 12  1  0  0  0  0
  3 15  1  0  0  0  0
  4 17  1  0  0  0  0
  4  2  1  0  0  0  0
  5  4  1  0  0  0  0
  5 18  1  1  0  0  0
  6 20  1  0  0  0  0
  6  5  1  0  0  0  0
  7 25  1  0  0  0  0
  7  5  1  0  0  0  0
  8  7  2  0  0  0  0
  9  1  1  0  0  0  0
 13  3  1  0  0  0  0
 14  3  1  0  0  0  0
 16  4  1  0  0  0  0
 19  6  1  0  0  0  0
 21 22  1  0  0  0  0
 21 29  1  0  0  0  0
 22 24  1  0  0  0  0
 22 31  1  0  0  0  0
 23 33  1  0  0  0  0
 23 22  1  0  0  0  0
 24 35  1  6  0  0  0
 24 26  1  0  0  0  0
 24 25  1  0  0  0  0
 25 36  1  0  0  0  0
 26 27  2  0  0  0  0
 28 21  1  0  0  0  0
 30 21  1  0  0  0  0
 32 23  1  0  0  0  0
 34 23  1  0  0  0  0
 37 47  1  0  0  0  0
 38 37  1  0  0  0  0
 38 40  1  0  0  0  0
 39 38  2  0  0  0  0
 40 50  1  0  0  0  0
 41 40  1  0  0  0  0
 41 51  1  0  0  0  0
 41 42  1  0  0  0  0
 42 53  1  1  0  0  0
 43 42  1  0  0  0  0
 43 26  1  0  0  0  0
 44 42  1  0  0  0  0
 44 46  1  0  0  0  0
 45 44  2  0  0  0  0
 48 37  1  0  0  0  0
 49 40  1  0  0  0  0
 52 41  1  0  0  0  0
 54 43  1  0  0  0  0
M  END
$$$$
