LVR.pdb
 OpenBabel07022418483D

 60 59  0  0  1  0  0  0  0  0999 V2000
    0.6630   -3.9410    2.3640 C   0  0  0  0  0  0  0  0  0  0  0  0
    1.0370   -2.5440    2.8240 C   0  0  0  0  0  0  0  0  0  0  0  0
    1.4730   -2.6490    4.2520 C   0  0  0  0  0  0  0  0  0  0  0  0
    2.0620   -2.0120    1.8890 C   0  0  0  0  0  0  0  0  0  0  0  0
    2.5520   -0.6320    2.1900 C   0  0  2  0  0  0  0  0  0  0  0  0
    3.1300   -0.6790    3.5140 N   0  0  0  0  0  0  0  0  0  0  0  0
    1.5450    0.4190    2.0630 C   0  0  0  0  0  0  0  0  0  0  0  0
    1.2680    1.0920    3.1120 O   0  0  0  0  0  0  0  0  0  0  0  0
   -0.3340   -4.2420    2.7440 H   0  0  0  0  0  0  0  0  0  0  0  0
    1.3890   -4.6360    2.8790 H   0  0  0  0  0  0  0  0  0  0  0  0
    0.8010   -4.1070    1.2970 H   0  0  0  0  0  0  0  0  0  0  0  0
    0.1130   -1.9330    2.7680 H   0  0  0  0  0  0  0  0  0  0  0  0
    0.9210   -3.4350    4.8080 H   0  0  0  0  0  0  0  0  0  0  0  0
    1.2910   -1.6950    4.7870 H   0  0  0  0  0  0  0  0  0  0  0  0
    2.5450   -2.8800    4.3770 H   0  0  0  0  0  0  0  0  0  0  0  0
    2.9480   -2.6760    1.8390 H   0  0  0  0  0  0  0  0  0  0  0  0
    1.6200   -1.9920    0.8730 H   0  0  0  0  0  0  0  0  0  0  0  0
    3.3790   -0.4070    1.4860 H   0  0  0  0  0  0  0  0  0  0  0  0
    4.1420   -0.9310    3.5000 H   0  0  0  0  0  0  0  0  0  0  0  0
    2.9230    0.1660    4.0850 H   0  0  0  0  0  0  0  0  0  0  0  0
    1.6780    3.5400    0.5970 C   0  0  0  0  0  0  0  0  0  0  0  0
    0.3360    3.0080    0.0750 C   0  0  0  0  0  0  0  0  0  0  0  0
   -0.6730    4.1160    0.2700 C   0  0  0  0  0  0  0  0  0  0  0  0
   -0.1200    1.8310    0.9250 C   0  0  2  0  0  0  0  0  0  0  0  0
    0.8550    0.7550    0.8820 N   0  0  0  0  0  0  0  0  0  0  0  0
   -1.4430    1.4240    0.4190 C   0  0  0  0  0  0  0  0  0  0  0  0
   -2.4080    2.2580    0.4500 O   0  0  0  0  0  0  0  0  0  0  0  0
    1.9700    4.3680   -0.0790 H   0  0  0  0  0  0  0  0  0  0  0  0
    1.4840    3.9870    1.5940 H   0  0  0  0  0  0  0  0  0  0  0  0
    2.4430    2.7540    0.6390 H   0  0  0  0  0  0  0  0  0  0  0  0
    0.4360    2.6820   -0.9610 H   0  0  0  0  0  0  0  0  0  0  0  0
   -1.1510    4.0490    1.2570 H   0  0  0  0  0  0  0  0  0  0  0  0
   -0.1310    5.0850    0.2330 H   0  0  0  0  0  0  0  0  0  0  0  0
   -1.4370    4.1330   -0.5350 H   0  0  0  0  0  0  0  0  0  0  0  0
   -0.2460    2.2120    1.9550 H   0  0  0  0  0  0  0  0  0  0  0  0
    1.0630    0.2270    0.0270 H   0  0  0  0  0  0  0  0  0  0  0  0
    0.9390   -4.3250   -3.4240 N   0  0  0  0  0  0  0  0  0  0  0  0
    0.0080   -3.8160   -2.4590 C   0  0  0  0  0  0  0  0  0  0  0  0
    0.4270   -3.3210   -1.3570 N   0  0  0  0  0  0  0  0  0  0  0  0
   -1.3720   -3.8540   -2.7140 N   0  0  0  0  0  0  0  0  0  0  0  0
   -2.3210   -2.9340   -2.0650 C   0  0  0  0  0  0  0  0  0  0  0  0
   -2.0620   -1.5410   -2.5840 C   0  0  0  0  0  0  0  0  0  0  0  0
   -2.9530   -0.4880   -2.0510 C   0  0  0  0  0  0  0  0  0  0  0  0
   -2.9440   -0.2490   -0.5830 C   0  0  2  0  0  0  0  0  0  0  0  0
   -1.6440    0.1370   -0.0940 N   0  0  0  0  0  0  0  0  0  0  0  0
   -3.4810   -1.3510    0.2440 C   0  0  0  0  0  0  0  0  0  0  0  0
   -4.5770   -1.9080   -0.0010 O   0  0  0  0  0  0  0  0  0  0  0  0
   -2.7770   -1.8310    1.3610 O   0  0  0  0  0  0  0  0  0  0  0  0
    1.6290   -5.0440   -3.1440 H   0  0  0  0  0  0  0  0  0  0  0  0
    0.9480   -3.9930   -4.4160 H   0  0  0  0  0  0  0  0  0  0  0  0
    1.4660   -3.2780   -1.1370 H   0  0  0  0  0  0  0  0  0  0  0  0
   -1.7820   -4.5380   -3.3770 H   0  0  0  0  0  0  0  0  0  0  0  0
   -2.1090   -2.9840   -0.9840 H   0  0  0  0  0  0  0  0  0  0  0  0
   -3.3540   -3.1910   -2.2960 H   0  0  0  0  0  0  0  0  0  0  0  0
   -0.9730   -1.3470   -2.3630 H   0  0  0  0  0  0  0  0  0  0  0  0
   -2.1630   -1.5380   -3.7110 H   0  0  0  0  0  0  0  0  0  0  0  0
   -2.6480    0.4900   -2.5290 H   0  0  0  0  0  0  0  0  0  0  0  0
   -3.9890   -0.7080   -2.4220 H   0  0  0  0  0  0  0  0  0  0  0  0
   -3.6460    0.6220   -0.3690 H   0  0  0  0  0  0  0  0  0  0  0  0
   -0.8850   -0.5870   -0.1450 H   0  0  0  0  0  0  0  0  0  0  0  0
  1  9  1  0  0  0  0
  1  2  1  0  0  0  0
  1 10  1  0  0  0  0
  2  3  1  0  0  0  0
  3 15  1  0  0  0  0
  3 14  1  0  0  0  0
  3 13  1  0  0  0  0
  4  5  1  0  0  0  0
  4  2  1  0  0  0  0
  5 18  1  6  0  0  0
  5  6  1  0  0  0  0
  6 20  1  0  0  0  0
  7  5  1  0  0  0  0
  7  8  2  0  0  0  0
 11  1  1  0  0  0  0
 12  2  1  0  0  0  0
 16  4  1  0  0  0  0
 17  4  1  0  0  0  0
 19  6  1  0  0  0  0
 21 30  1  0  0  0  0
 21 29  1  0  0  0  0
 22 23  1  0  0  0  0
 22 21  1  0  0  0  0
 22 24  1  0  0  0  0
 23 32  1  0  0  0  0
 24 35  1  1  0  0  0
 25 24  1  0  0  0  0
 25  7  1  0  0  0  0
 26 27  2  0  0  0  0
 26 24  1  0  0  0  0
 28 21  1  0  0  0  0
 31 22  1  0  0  0  0
 33 23  1  0  0  0  0
 34 23  1  0  0  0  0
 36 25  1  0  0  0  0
 37 49  1  0  0  0  0
 37 38  1  0  0  0  0
 38 39  2  0  0  0  0
 39 51  1  0  0  0  0
 40 38  1  0  0  0  0
 40 41  1  0  0  0  0
 41 53  1  0  0  0  0
 42 55  1  0  0  0  0
 42 41  1  0  0  0  0
 42 43  1  0  0  0  0
 43 44  1  0  0  0  0
 44 59  1  1  0  0  0
 44 45  1  0  0  0  0
 44 46  1  0  0  0  0
 45 26  1  0  0  0  0
 46 48  1  0  0  0  0
 47 46  2  0  0  0  0
 50 37  1  0  0  0  0
 52 40  1  0  0  0  0
 54 41  1  0  0  0  0
 56 42  1  0  0  0  0
 57 43  1  0  0  0  0
 58 43  1  0  0  0  0
 60 45  1  0  0  0  0
M  END
$$$$
