LVW.pdb
 OpenBabel07022418483D

 61 62  0  0  1  0  0  0  0  0999 V2000
    3.3110   -1.7650    4.8650 C   0  0  0  0  0  0  0  0  0  0  0  0
    3.9050   -0.9780    3.7320 C   0  0  0  0  0  0  0  0  0  0  0  0
    4.4700   -1.8790    2.6900 C   0  0  0  0  0  0  0  0  0  0  0  0
    2.9840    0.0890    3.2330 C   0  0  0  0  0  0  0  0  0  0  0  0
    1.6660   -0.4010    2.7130 C   0  0  2  0  0  0  0  0  0  0  0  0
    1.7960   -1.3140    1.5980 N   0  0  0  0  0  0  0  0  0  0  0  0
    0.9520    0.8150    2.1750 C   0  0  0  0  0  0  0  0  0  0  0  0
    0.7270    1.7520    2.9920 O   0  0  0  0  0  0  0  0  0  0  0  0
    2.3420   -1.2770    5.1460 H   0  0  0  0  0  0  0  0  0  0  0  0
    3.1160   -2.7900    4.4940 H   0  0  0  0  0  0  0  0  0  0  0  0
    3.9300   -1.7890    5.7710 H   0  0  0  0  0  0  0  0  0  0  0  0
    4.7850   -0.4280    4.1820 H   0  0  0  0  0  0  0  0  0  0  0  0
    4.8610   -1.2980    1.8290 H   0  0  0  0  0  0  0  0  0  0  0  0
    3.8200   -2.7170    2.4180 H   0  0  0  0  0  0  0  0  0  0  0  0
    5.3900   -2.3560    3.1420 H   0  0  0  0  0  0  0  0  0  0  0  0
    2.7450    0.7370    4.1250 H   0  0  0  0  0  0  0  0  0  0  0  0
    3.4600    0.7440    2.5010 H   0  0  0  0  0  0  0  0  0  0  0  0
    1.0580   -0.8790    3.5130 H   0  0  0  0  0  0  0  0  0  0  0  0
    2.6190   -1.1450    1.0040 H   0  0  0  0  0  0  0  0  0  0  0  0
    1.5470   -2.2850    1.8000 H   0  0  0  0  0  0  0  0  0  0  0  0
   -0.1850    4.0880   -1.0550 C   0  0  0  0  0  0  0  0  0  0  0  0
    0.6090    2.8510   -0.6910 C   0  0  0  0  0  0  0  0  0  0  0  0
    0.7200    2.0140   -1.9450 C   0  0  0  0  0  0  0  0  0  0  0  0
   -0.1410    2.1440    0.4060 C   0  0  2  0  0  0  0  0  0  0  0  0
    0.5430    0.9320    0.8380 N   0  0  0  0  0  0  0  0  0  0  0  0
   -1.4800    1.7840   -0.1580 C   0  0  0  0  0  0  0  0  0  0  0  0
   -2.2760    2.6180   -0.6050 O   0  0  0  0  0  0  0  0  0  0  0  0
   -0.8530    3.9070   -1.9250 H   0  0  0  0  0  0  0  0  0  0  0  0
   -0.8510    4.4190   -0.2120 H   0  0  0  0  0  0  0  0  0  0  0  0
    0.4770    4.9360   -1.3260 H   0  0  0  0  0  0  0  0  0  0  0  0
    1.6110    3.1970   -0.3740 H   0  0  0  0  0  0  0  0  0  0  0  0
    0.9920    2.7160   -2.7730 H   0  0  0  0  0  0  0  0  0  0  0  0
   -0.2770    1.6120   -2.2120 H   0  0  0  0  0  0  0  0  0  0  0  0
    1.5060    1.2590   -1.8980 H   0  0  0  0  0  0  0  0  0  0  0  0
   -0.2390    2.8420    1.2450 H   0  0  0  0  0  0  0  0  0  0  0  0
    0.7470    0.1420    0.1970 H   0  0  0  0  0  0  0  0  0  0  0  0
   -1.8600    0.4170   -0.1810 N   0  0  0  0  0  0  0  0  0  0  0  0
   -3.1730    0.0550   -0.7340 C   0  0  1  0  0  0  0  0  0  0  0  0
   -3.0080   -0.7580   -1.9800 C   0  0  0  0  0  0  0  0  0  0  0  0
   -2.2690   -2.0010   -1.8570 C   0  0  0  0  0  0  0  0  0  0  0  0
   -0.9240   -2.1460   -2.1530 C   0  0  0  0  0  0  0  0  0  0  0  0
   -0.5350   -3.4050   -1.9020 N   0  0  0  0  0  0  0  0  0  0  0  0
   -1.6000   -4.0900   -1.4470 C   0  0  0  0  0  0  0  0  0  0  0  0
   -1.7020   -5.4080   -1.0650 C   0  0  0  0  0  0  0  0  0  0  0  0
   -2.9030   -5.9230   -0.6330 C   0  0  0  0  0  0  0  0  0  0  0  0
   -3.9730   -5.0830   -0.6000 C   0  0  0  0  0  0  0  0  0  0  0  0
   -3.8750   -3.7680   -0.9800 C   0  0  0  0  0  0  0  0  0  0  0  0
   -2.6960   -3.2180   -1.4150 C   0  0  0  0  0  0  0  0  0  0  0  0
   -4.0300   -0.4980    0.3090 C   0  0  0  0  0  0  0  0  0  0  0  0
   -5.2220   -0.7970    0.1560 O   0  0  0  0  0  0  0  0  0  0  0  0
   -3.4940   -0.7190    1.5930 O   0  0  0  0  0  0  0  0  0  0  0  0
   -1.2310   -0.3310    0.1830 H   0  0  0  0  0  0  0  0  0  0  0  0
   -3.6950    1.0070   -1.0780 H   0  0  0  0  0  0  0  0  0  0  0  0
   -4.0470   -0.9020   -2.3910 H   0  0  0  0  0  0  0  0  0  0  0  0
   -2.5240   -0.0880   -2.7560 H   0  0  0  0  0  0  0  0  0  0  0  0
   -0.2610   -1.3900   -2.5270 H   0  0  0  0  0  0  0  0  0  0  0  0
    0.4230   -3.8050   -2.0300 H   0  0  0  0  0  0  0  0  0  0  0  0
   -0.8300   -6.0660   -1.1000 H   0  0  0  0  0  0  0  0  0  0  0  0
   -2.9760   -6.9570   -0.3350 H   0  0  0  0  0  0  0  0  0  0  0  0
   -4.9300   -5.4410   -0.2700 H   0  0  0  0  0  0  0  0  0  0  0  0
   -4.7300   -3.1350   -0.9580 H   0  0  0  0  0  0  0  0  0  0  0  0
  1  9  1  0  0  0  0
  1 11  1  0  0  0  0
  2 12  1  0  0  0  0
  2  1  1  0  0  0  0
  3 15  1  0  0  0  0
  3  2  1  0  0  0  0
  4  2  1  0  0  0  0
  4 16  1  0  0  0  0
  5  4  1  0  0  0  0
  5 18  1  1  0  0  0
  6 20  1  0  0  0  0
  6  5  1  0  0  0  0
  7  5  1  0  0  0  0
  7  8  2  0  0  0  0
 10  1  1  0  0  0  0
 13  3  1  0  0  0  0
 14  3  1  0  0  0  0
 17  4  1  0  0  0  0
 19  6  1  0  0  0  0
 21 22  1  0  0  0  0
 21 29  1  0  0  0  0
 22 31  1  0  0  0  0
 22 24  1  0  0  0  0
 23 34  1  0  0  0  0
 23 22  1  0  0  0  0
 24 25  1  0  0  0  0
 24 35  1  1  0  0  0
 25  7  1  0  0  0  0
 26 24  1  0  0  0  0
 27 26  2  0  0  0  0
 28 21  1  0  0  0  0
 30 21  1  0  0  0  0
 32 23  1  0  0  0  0
 33 23  1  0  0  0  0
 36 25  1  0  0  0  0
 37 26  1  0  0  0  0
 37 52  1  0  0  0  0
 38 53  1  6  0  0  0
 38 37  1  0  0  0  0
 38 49  1  0  0  0  0
 39 40  1  0  0  0  0
 39 38  1  0  0  0  0
 40 48  1  0  0  0  0
 41 42  1  0  0  0  0
 41 40  2  0  0  0  0
 42 43  1  0  0  0  0
 43 48  2  0  0  0  0
 43 44  1  0  0  0  0
 44 45  2  0  0  0  0
 45 46  1  0  0  0  0
 45 59  1  0  0  0  0
 46 60  1  0  0  0  0
 47 61  1  0  0  0  0
 47 46  2  0  0  0  0
 48 47  1  0  0  0  0
 49 51  1  0  0  0  0
 50 49  2  0  0  0  0
 54 39  1  0  0  0  0
 55 39  1  0  0  0  0
 56 41  1  0  0  0  0
 57 42  1  0  0  0  0
 58 44  1  0  0  0  0
M  END
$$$$
