LWD.pdb
 OpenBabel07022418483D

 58 59  0  0  1  0  0  0  0  0999 V2000
    2.9240    0.7050    5.2630 C   0  0  0  0  0  0  0  0  0  0  0  0
    3.2170    1.4940    4.0190 C   0  0  0  0  0  0  0  0  0  0  0  0
    4.0690    2.7040    4.2570 C   0  0  0  0  0  0  0  0  0  0  0  0
    1.9400    1.7990    3.2760 C   0  0  0  0  0  0  0  0  0  0  0  0
    1.3010    0.4700    2.9140 C   0  0  2  0  0  0  0  0  0  0  0  0
    2.2010   -0.2820    2.0840 N   0  0  0  0  0  0  0  0  0  0  0  0
   -0.0380    0.6370    2.3100 C   0  0  0  0  0  0  0  0  0  0  0  0
   -0.9060    1.2700    2.9610 O   0  0  0  0  0  0  0  0  0  0  0  0
    1.9310    0.9900    5.6840 H   0  0  0  0  0  0  0  0  0  0  0  0
    2.8650   -0.3940    5.0540 H   0  0  0  0  0  0  0  0  0  0  0  0
    3.7190    0.8430    6.0460 H   0  0  0  0  0  0  0  0  0  0  0  0
    3.8130    0.8130    3.3430 H   0  0  0  0  0  0  0  0  0  0  0  0
    4.7630    2.4500    5.1020 H   0  0  0  0  0  0  0  0  0  0  0  0
    4.7120    2.8810    3.3760 H   0  0  0  0  0  0  0  0  0  0  0  0
    3.5090    3.6030    4.5610 H   0  0  0  0  0  0  0  0  0  0  0  0
    1.2920    2.3990    3.9220 H   0  0  0  0  0  0  0  0  0  0  0  0
    2.1620    2.4030    2.3690 H   0  0  0  0  0  0  0  0  0  0  0  0
    1.1690   -0.0890    3.8620 H   0  0  0  0  0  0  0  0  0  0  0  0
    1.9620   -1.3130    2.1270 H   0  0  0  0  0  0  0  0  0  0  0  0
    2.2820    0.0700    1.1140 H   0  0  0  0  0  0  0  0  0  0  0  0
   -0.4080    0.1280    1.0430 N   0  0  0  0  0  0  0  0  0  0  0  0
   -1.7310    0.2970    0.4540 C   0  0  1  0  0  0  0  0  0  0  0  0
   -1.6990    1.1600   -0.7560 C   0  0  0  0  0  0  0  0  0  0  0  0
   -0.8560    0.7570   -1.8610 C   0  0  0  0  0  0  0  0  0  0  0  0
    0.4290    1.2720   -2.0540 C   0  0  0  0  0  0  0  0  0  0  0  0
    0.9700    0.6920   -3.1260 N   0  0  0  0  0  0  0  0  0  0  0  0
    0.0690   -0.1930   -3.6440 C   0  0  0  0  0  0  0  0  0  0  0  0
    0.1750   -1.0160   -4.7490 C   0  0  0  0  0  0  0  0  0  0  0  0
   -0.8700   -1.8400   -5.1130 C   0  0  0  0  0  0  0  0  0  0  0  0
   -2.0010   -1.7920   -4.3230 C   0  0  0  0  0  0  0  0  0  0  0  0
   -2.1190   -0.9770   -3.2210 C   0  0  0  0  0  0  0  0  0  0  0  0
   -1.0660   -0.1530   -2.8600 C   0  0  0  0  0  0  0  0  0  0  0  0
   -2.4630   -0.9580    0.2660 C   0  0  0  0  0  0  0  0  0  0  0  0
   -3.6810   -0.9420   -0.0980 O   0  0  0  0  0  0  0  0  0  0  0  0
    0.3150   -0.3970    0.5060 H   0  0  0  0  0  0  0  0  0  0  0  0
   -2.3670    0.8840    1.2020 H   0  0  0  0  0  0  0  0  0  0  0  0
   -2.7710    1.2180   -1.1230 H   0  0  0  0  0  0  0  0  0  0  0  0
   -1.5100    2.2320   -0.4390 H   0  0  0  0  0  0  0  0  0  0  0  0
    0.9250    2.0310   -1.4310 H   0  0  0  0  0  0  0  0  0  0  0  0
    1.9400    0.8870   -3.5110 H   0  0  0  0  0  0  0  0  0  0  0  0
    1.0780   -1.0450   -5.3690 H   0  0  0  0  0  0  0  0  0  0  0  0
   -0.8040   -2.4900   -5.9740 H   0  0  0  0  0  0  0  0  0  0  0  0
   -2.8340   -2.4280   -4.5880 H   0  0  0  0  0  0  0  0  0  0  0  0
   -2.9930   -0.9260   -2.6150 H   0  0  0  0  0  0  0  0  0  0  0  0
   -1.7920   -2.2020    0.4970 N   0  0  0  0  0  0  0  0  0  0  0  0
   -2.4530   -3.4580    0.3310 C   0  0  1  0  0  0  0  0  0  0  0  0
   -1.8480   -4.3170   -0.7430 C   0  0  0  0  0  0  0  0  0  0  0  0
   -0.4410   -4.6520   -0.4980 C   0  0  0  0  0  0  0  0  0  0  0  0
    0.1510   -5.3700   -1.3440 O   0  0  0  0  0  0  0  0  0  0  0  0
   -2.5180   -4.2450    1.5890 C   0  0  0  0  0  0  0  0  0  0  0  0
   -2.0430   -3.8540    2.6890 O   0  0  0  0  0  0  0  0  0  0  0  0
    0.2970   -4.2370    0.6020 O   0  0  0  0  0  0  0  0  0  0  0  0
   -3.1310   -5.4980    1.6060 O   0  0  0  0  0  0  0  0  0  0  0  0
   -0.7950   -2.1530    0.7930 H   0  0  0  0  0  0  0  0  0  0  0  0
   -3.5140   -3.2650    0.0200 H   0  0  0  0  0  0  0  0  0  0  0  0
   -2.4280   -5.2600   -0.7890 H   0  0  0  0  0  0  0  0  0  0  0  0
   -1.9770   -3.8450   -1.7580 H   0  0  0  0  0  0  0  0  0  0  0  0
    1.3290   -4.2540    0.5850 H   0  0  0  0  0  0  0  0  0  0  0  0
  1  9  1  0  0  0  0
  1 11  1  0  0  0  0
  2  3  1  0  0  0  0
  2  1  1  0  0  0  0
  3 15  1  0  0  0  0
  3 13  1  0  0  0  0
  4 16  1  0  0  0  0
  4  2  1  0  0  0  0
  5  4  1  0  0  0  0
  5 18  1  1  0  0  0
  6 19  1  0  0  0  0
  6  5  1  0  0  0  0
  7  5  1  0  0  0  0
  7  8  2  0  0  0  0
 10  1  1  0  0  0  0
 12  2  1  0  0  0  0
 14  3  1  0  0  0  0
 17  4  1  0  0  0  0
 20  6  1  0  0  0  0
 21  7  1  0  0  0  0
 22 21  1  0  0  0  0
 22 36  1  1  0  0  0
 23 38  1  0  0  0  0
 23 22  1  0  0  0  0
 24 23  1  0  0  0  0
 25 24  2  0  0  0  0
 25 39  1  0  0  0  0
 26 25  1  0  0  0  0
 27 26  1  0  0  0  0
 27 32  1  0  0  0  0
 28 27  2  0  0  0  0
 29 28  1  0  0  0  0
 29 30  2  0  0  0  0
 30 31  1  0  0  0  0
 31 32  2  0  0  0  0
 31 44  1  0  0  0  0
 32 24  1  0  0  0  0
 33 22  1  0  0  0  0
 33 45  1  0  0  0  0
 34 33  2  0  0  0  0
 35 21  1  0  0  0  0
 37 23  1  0  0  0  0
 40 26  1  0  0  0  0
 41 28  1  0  0  0  0
 42 29  1  0  0  0  0
 43 30  1  0  0  0  0
 45 54  1  0  0  0  0
 46 55  1  6  0  0  0
 46 45  1  0  0  0  0
 46 50  1  0  0  0  0
 47 48  1  0  0  0  0
 47 46  1  0  0  0  0
 48 52  1  0  0  0  0
 49 48  2  0  0  0  0
 50 53  2  0  0  0  0
 50 51  1  0  0  0  0
 56 47  1  0  0  0  0
 57 47  1  0  0  0  0
 58 52  1  0  0  0  0
M  END
$$$$
