LWE.pdb
 OpenBabel07022418483D

 61 62  0  0  1  0  0  0  0  0999 V2000
    3.2160   -0.3320    4.1590 C   0  0  0  0  0  0  0  0  0  0  0  0
    2.4200   -1.1510    3.2040 C   0  0  0  0  0  0  0  0  0  0  0  0
    1.8970   -2.4170    3.8490 C   0  0  0  0  0  0  0  0  0  0  0  0
    3.1740   -1.5580    1.9630 C   0  0  0  0  0  0  0  0  0  0  0  0
    3.6550   -0.3700    1.1720 C   0  0  2  0  0  0  0  0  0  0  0  0
    4.5500    0.4690    1.9390 N   0  0  0  0  0  0  0  0  0  0  0  0
    2.4670    0.3940    0.7380 C   0  0  0  0  0  0  0  0  0  0  0  0
    2.3130    1.6100    1.0290 O   0  0  0  0  0  0  0  0  0  0  0  0
    2.7840   -0.4960    5.1880 H   0  0  0  0  0  0  0  0  0  0  0  0
    3.1260    0.7690    3.9680 H   0  0  0  0  0  0  0  0  0  0  0  0
    4.2780   -0.5990    4.2280 H   0  0  0  0  0  0  0  0  0  0  0  0
    1.5130   -0.5500    2.9130 H   0  0  0  0  0  0  0  0  0  0  0  0
    0.9340   -2.1910    4.3360 H   0  0  0  0  0  0  0  0  0  0  0  0
    1.6770   -3.1300    3.0200 H   0  0  0  0  0  0  0  0  0  0  0  0
    2.6530   -2.8250    4.5560 H   0  0  0  0  0  0  0  0  0  0  0  0
    2.4810   -2.1460    1.3270 H   0  0  0  0  0  0  0  0  0  0  0  0
    4.0260   -2.1980    2.2230 H   0  0  0  0  0  0  0  0  0  0  0  0
    4.1950   -0.7180    0.2810 H   0  0  0  0  0  0  0  0  0  0  0  0
    5.4310   -0.0360    2.1810 H   0  0  0  0  0  0  0  0  0  0  0  0
    4.7150    1.3650    1.4500 H   0  0  0  0  0  0  0  0  0  0  0  0
    1.4580   -0.2340   -0.0270 N   0  0  0  0  0  0  0  0  0  0  0  0
    0.2660    0.4750   -0.4770 C   0  0  1  0  0  0  0  0  0  0  0  0
    0.2530    0.6520   -1.9560 C   0  0  0  0  0  0  0  0  0  0  0  0
   -0.9500    1.3470   -2.4420 C   0  0  0  0  0  0  0  0  0  0  0  0
   -1.1010    2.7390   -2.6110 C   0  0  0  0  0  0  0  0  0  0  0  0
   -2.3410    3.0080   -3.0330 N   0  0  0  0  0  0  0  0  0  0  0  0
   -3.0590    1.8650   -3.1640 C   0  0  0  0  0  0  0  0  0  0  0  0
   -4.3570    1.6440   -3.5800 C   0  0  0  0  0  0  0  0  0  0  0  0
   -4.8380    0.3550   -3.6440 C   0  0  0  0  0  0  0  0  0  0  0  0
   -3.9780   -0.6640   -3.2820 C   0  0  0  0  0  0  0  0  0  0  0  0
   -2.6870   -0.4450   -2.8670 C   0  0  0  0  0  0  0  0  0  0  0  0
   -2.1860    0.8470   -2.7960 C   0  0  0  0  0  0  0  0  0  0  0  0
   -0.9430   -0.0280    0.1730 C   0  0  0  0  0  0  0  0  0  0  0  0
   -2.1060    0.4170    0.0300 O   0  0  0  0  0  0  0  0  0  0  0  0
    1.5450   -1.2450   -0.2960 H   0  0  0  0  0  0  0  0  0  0  0  0
    0.4090    1.5390   -0.0690 H   0  0  0  0  0  0  0  0  0  0  0  0
    1.1620    1.2480   -2.2300 H   0  0  0  0  0  0  0  0  0  0  0  0
    0.2780   -0.3410   -2.4830 H   0  0  0  0  0  0  0  0  0  0  0  0
   -0.2770    3.4160   -2.4060 H   0  0  0  0  0  0  0  0  0  0  0  0
   -2.7060    3.9600   -3.2330 H   0  0  0  0  0  0  0  0  0  0  0  0
   -5.0310    2.4400   -3.8640 H   0  0  0  0  0  0  0  0  0  0  0  0
   -5.8540    0.1470   -3.9680 H   0  0  0  0  0  0  0  0  0  0  0  0
   -4.2980   -1.7090   -3.3110 H   0  0  0  0  0  0  0  0  0  0  0  0
   -2.0070   -1.2260   -2.5860 H   0  0  0  0  0  0  0  0  0  0  0  0
   -0.8470   -1.1530    1.0890 N   0  0  0  0  0  0  0  0  0  0  0  0
   -2.0060   -1.6740    1.7450 C   0  0  1  0  0  0  0  0  0  0  0  0
   -1.9950   -3.1420    1.9590 C   0  0  0  0  0  0  0  0  0  0  0  0
   -1.8890   -3.9130    0.6840 C   0  0  0  0  0  0  0  0  0  0  0  0
   -0.6640   -3.7040   -0.0830 C   0  0  0  0  0  0  0  0  0  0  0  0
   -0.5630   -2.9220   -1.0590 O   0  0  0  0  0  0  0  0  0  0  0  0
   -2.1690   -1.0050    3.0910 C   0  0  0  0  0  0  0  0  0  0  0  0
   -1.3360   -0.1560    3.4300 O   0  0  0  0  0  0  0  0  0  0  0  0
    0.4820   -4.4190    0.2870 O   0  0  0  0  0  0  0  0  0  0  0  0
   -3.2180   -1.3420    3.8990 O   0  0  0  0  0  0  0  0  0  0  0  0
    0.0790   -1.5780    1.2610 H   0  0  0  0  0  0  0  0  0  0  0  0
   -2.9270   -1.3840    1.1610 H   0  0  0  0  0  0  0  0  0  0  0  0
   -1.1100   -3.4710    2.5840 H   0  0  0  0  0  0  0  0  0  0  0  0
   -2.8970   -3.4860    2.5360 H   0  0  0  0  0  0  0  0  0  0  0  0
   -2.7600   -3.6940   -0.0060 H   0  0  0  0  0  0  0  0  0  0  0  0
   -1.9710   -5.0090    0.8990 H   0  0  0  0  0  0  0  0  0  0  0  0
    1.3720   -4.1070   -0.0740 H   0  0  0  0  0  0  0  0  0  0  0  0
  1 11  1  0  0  0  0
  1  9  1  0  0  0  0
  2  3  1  0  0  0  0
  2  1  1  0  0  0  0
  3 13  1  0  0  0  0
  3 15  1  0  0  0  0
  4 17  1  0  0  0  0
  4  2  1  0  0  0  0
  5 18  1  6  0  0  0
  5  6  1  0  0  0  0
  5  4  1  0  0  0  0
  6 19  1  0  0  0  0
  7  8  2  0  0  0  0
  7  5  1  0  0  0  0
 10  1  1  0  0  0  0
 12  2  1  0  0  0  0
 14  3  1  0  0  0  0
 16  4  1  0  0  0  0
 20  6  1  0  0  0  0
 21  7  1  0  0  0  0
 22 36  1  1  0  0  0
 22 21  1  0  0  0  0
 22 33  1  0  0  0  0
 23 22  1  0  0  0  0
 24 23  1  0  0  0  0
 25 24  2  0  0  0  0
 25 39  1  0  0  0  0
 26 25  1  0  0  0  0
 27 26  1  0  0  0  0
 27 32  1  0  0  0  0
 28 27  2  0  0  0  0
 29 28  1  0  0  0  0
 29 30  2  0  0  0  0
 30 31  1  0  0  0  0
 31 32  2  0  0  0  0
 31 44  1  0  0  0  0
 32 24  1  0  0  0  0
 33 45  1  0  0  0  0
 34 33  2  0  0  0  0
 35 21  1  0  0  0  0
 37 23  1  0  0  0  0
 38 23  1  0  0  0  0
 40 26  1  0  0  0  0
 41 28  1  0  0  0  0
 42 29  1  0  0  0  0
 43 30  1  0  0  0  0
 45 55  1  0  0  0  0
 45 46  1  0  0  0  0
 46 56  1  6  0  0  0
 46 47  1  0  0  0  0
 46 51  1  0  0  0  0
 47 58  1  0  0  0  0
 47 57  1  0  0  0  0
 48 60  1  0  0  0  0
 48 47  1  0  0  0  0
 49 53  1  0  0  0  0
 49 48  1  0  0  0  0
 50 49  2  0  0  0  0
 51 52  2  0  0  0  0
 51 54  1  0  0  0  0
 59 48  1  0  0  0  0
 61 53  1  0  0  0  0
M  END
$$$$
