LWF.pdb
 OpenBabel07022418483D

 65 67  0  0  1  0  0  0  0  0999 V2000
    6.2100   -0.4060    3.2690 C   0  0  0  0  0  0  0  0  0  0  0  0
    5.3180    0.7830    2.8740 C   0  0  0  0  0  0  0  0  0  0  0  0
    4.9780    1.4790    4.1700 C   0  0  0  0  0  0  0  0  0  0  0  0
    4.1510    0.2180    2.1610 C   0  0  0  0  0  0  0  0  0  0  0  0
    3.1220    1.1570    1.6600 C   0  0  2  0  0  0  0  0  0  0  0  0
    2.4640    1.9720    2.6190 N   0  0  0  0  0  0  0  0  0  0  0  0
    2.1330    0.3330    0.8700 C   0  0  0  0  0  0  0  0  0  0  0  0
    2.5350   -0.4660   -0.0120 O   0  0  0  0  0  0  0  0  0  0  0  0
    6.8440   -0.7290    2.4460 H   0  0  0  0  0  0  0  0  0  0  0  0
    5.5120   -1.2280    3.5310 H   0  0  0  0  0  0  0  0  0  0  0  0
    6.7530   -0.1650    4.2110 H   0  0  0  0  0  0  0  0  0  0  0  0
    5.9410    1.4500    2.2650 H   0  0  0  0  0  0  0  0  0  0  0  0
    5.0190    2.5930    4.0520 H   0  0  0  0  0  0  0  0  0  0  0  0
    4.0560    1.1170    4.6430 H   0  0  0  0  0  0  0  0  0  0  0  0
    5.7910    1.2790    4.9320 H   0  0  0  0  0  0  0  0  0  0  0  0
    3.7040   -0.5800    2.8110 H   0  0  0  0  0  0  0  0  0  0  0  0
    4.5560   -0.3560    1.2790 H   0  0  0  0  0  0  0  0  0  0  0  0
    3.5720    1.8410    0.8870 H   0  0  0  0  0  0  0  0  0  0  0  0
    2.9240    2.8280    2.9220 H   0  0  0  0  0  0  0  0  0  0  0  0
    2.0490    1.4200    3.3770 H   0  0  0  0  0  0  0  0  0  0  0  0
    0.7380    0.4470    1.1100 N   0  0  0  0  0  0  0  0  0  0  0  0
   -0.2690   -0.3090    0.3980 C   0  0  1  0  0  0  0  0  0  0  0  0
   -0.3490    0.1050   -1.0580 C   0  0  0  0  0  0  0  0  0  0  0  0
   -0.6910    1.5420   -1.1960 C   0  0  0  0  0  0  0  0  0  0  0  0
    0.1540    2.5940   -1.5200 C   0  0  0  0  0  0  0  0  0  0  0  0
   -0.5550    3.7380   -1.5400 N   0  0  0  0  0  0  0  0  0  0  0  0
   -1.8530    3.4890   -1.2390 C   0  0  0  0  0  0  0  0  0  0  0  0
   -2.9650    4.3070   -1.1310 C   0  0  0  0  0  0  0  0  0  0  0  0
   -4.2040    3.7960   -0.8050 C   0  0  0  0  0  0  0  0  0  0  0  0
   -4.2930    2.4360   -0.5910 C   0  0  0  0  0  0  0  0  0  0  0  0
   -3.1860    1.6190   -0.6990 C   0  0  0  0  0  0  0  0  0  0  0  0
   -1.9350    2.1310   -1.0270 C   0  0  0  0  0  0  0  0  0  0  0  0
   -0.0200   -1.7720    0.5280 C   0  0  0  0  0  0  0  0  0  0  0  0
    0.9630   -2.1890    1.1920 O   0  0  0  0  0  0  0  0  0  0  0  0
    0.4760    1.1450    1.8700 H   0  0  0  0  0  0  0  0  0  0  0  0
   -1.2620   -0.0420    0.8540 H   0  0  0  0  0  0  0  0  0  0  0  0
   -1.0660   -0.4920   -1.6260 H   0  0  0  0  0  0  0  0  0  0  0  0
    0.6990   -0.0090   -1.4550 H   0  0  0  0  0  0  0  0  0  0  0  0
    1.2170    2.4560   -1.7180 H   0  0  0  0  0  0  0  0  0  0  0  0
   -0.2020    4.6970   -1.7510 H   0  0  0  0  0  0  0  0  0  0  0  0
   -2.8820    5.3640   -1.2990 H   0  0  0  0  0  0  0  0  0  0  0  0
   -5.0950    4.4140   -0.7130 H   0  0  0  0  0  0  0  0  0  0  0  0
   -5.2650    2.0340   -0.3350 H   0  0  0  0  0  0  0  0  0  0  0  0
   -3.2340    0.5520   -0.5350 H   0  0  0  0  0  0  0  0  0  0  0  0
   -0.8690   -2.7350   -0.0820 N   0  0  0  0  0  0  0  0  0  0  0  0
   -0.6510   -4.1570    0.0270 C   0  0  1  0  0  0  0  0  0  0  0  0
   -1.7920   -4.8500    0.7430 C   0  0  0  0  0  0  0  0  0  0  0  0
   -3.0890   -4.6830    0.0630 C   0  0  0  0  0  0  0  0  0  0  0  0
   -3.9010   -3.6180    0.3740 C   0  0  0  0  0  0  0  0  0  0  0  0
   -5.1290   -3.4350   -0.2490 C   0  0  0  0  0  0  0  0  0  0  0  0
   -5.5150   -4.3770   -1.2080 C   0  0  0  0  0  0  0  0  0  0  0  0
   -4.7220   -5.4500   -1.5370 C   0  0  0  0  0  0  0  0  0  0  0  0
   -3.5090   -5.5860   -0.8870 C   0  0  0  0  0  0  0  0  0  0  0  0
   -0.4130   -4.7230   -1.3160 C   0  0  0  0  0  0  0  0  0  0  0  0
   -0.1990   -5.9530   -1.4560 O   0  0  0  0  0  0  0  0  0  0  0  0
   -0.4280   -3.8830   -2.4160 O   0  0  0  0  0  0  0  0  0  0  0  0
   -1.6750   -2.3450   -0.6240 H   0  0  0  0  0  0  0  0  0  0  0  0
    0.2620   -4.3740    0.6370 H   0  0  0  0  0  0  0  0  0  0  0  0
   -1.8210   -4.4470    1.7880 H   0  0  0  0  0  0  0  0  0  0  0  0
   -1.5790   -5.9290    0.7880 H   0  0  0  0  0  0  0  0  0  0  0  0
   -3.5670   -2.9250    1.1110 H   0  0  0  0  0  0  0  0  0  0  0  0
   -5.7850   -2.6180   -0.0320 H   0  0  0  0  0  0  0  0  0  0  0  0
   -6.4770   -4.2450   -1.7050 H   0  0  0  0  0  0  0  0  0  0  0  0
   -5.0410   -6.1600   -2.2770 H   0  0  0  0  0  0  0  0  0  0  0  0
   -2.9050   -6.4420   -1.1690 H   0  0  0  0  0  0  0  0  0  0  0  0
  1 10  1  0  0  0  0
  1 11  1  0  0  0  0
  2  1  1  0  0  0  0
  2  3  1  0  0  0  0
  3 14  1  0  0  0  0
  3 15  1  0  0  0  0
  4 16  1  0  0  0  0
  4  2  1  0  0  0  0
  5 18  1  6  0  0  0
  5  4  1  0  0  0  0
  5  6  1  0  0  0  0
  6 19  1  0  0  0  0
  6 20  1  0  0  0  0
  7 21  1  0  0  0  0
  7  5  1  0  0  0  0
  8  7  2  0  0  0  0
  9  1  1  0  0  0  0
 12  2  1  0  0  0  0
 13  3  1  0  0  0  0
 17  4  1  0  0  0  0
 21 35  1  0  0  0  0
 22 33  1  0  0  0  0
 22 36  1  1  0  0  0
 22 21  1  0  0  0  0
 23 22  1  0  0  0  0
 24 23  1  0  0  0  0
 24 32  1  0  0  0  0
 25 24  2  0  0  0  0
 26 25  1  0  0  0  0
 26 27  1  0  0  0  0
 27 28  2  0  0  0  0
 27 32  1  0  0  0  0
 28 29  1  0  0  0  0
 29 42  1  0  0  0  0
 29 30  2  0  0  0  0
 30 43  1  0  0  0  0
 31 30  1  0  0  0  0
 31 44  1  0  0  0  0
 32 31  2  0  0  0  0
 33 34  2  0  0  0  0
 37 23  1  0  0  0  0
 38 23  1  0  0  0  0
 39 25  1  0  0  0  0
 40 26  1  0  0  0  0
 41 28  1  0  0  0  0
 45 46  1  0  0  0  0
 45 33  1  0  0  0  0
 46 58  1  1  0  0  0
 46 47  1  0  0  0  0
 47 60  1  0  0  0  0
 47 59  1  0  0  0  0
 48 49  1  0  0  0  0
 48 47  1  0  0  0  0
 49 61  1  0  0  0  0
 50 62  1  0  0  0  0
 50 49  2  0  0  0  0
 51 50  1  0  0  0  0
 52 51  2  0  0  0  0
 52 53  1  0  0  0  0
 53 48  2  0  0  0  0
 54 46  1  0  0  0  0
 55 54  1  0  0  0  0
 56 54  2  0  0  0  0
 57 45  1  0  0  0  0
 63 51  1  0  0  0  0
 64 52  1  0  0  0  0
 65 53  1  0  0  0  0
M  END
$$$$
