LWG.pdb
 OpenBabel07022418483D

 52 53  0  0  1  0  0  0  0  0999 V2000
   -0.8020   -0.1300    5.0510 C   0  0  0  0  0  0  0  0  0  0  0  0
    0.1120   -0.0320    3.8630 C   0  0  0  0  0  0  0  0  0  0  0  0
    0.6960    1.3550    3.8060 C   0  0  0  0  0  0  0  0  0  0  0  0
    1.1650   -1.1110    3.9410 C   0  0  0  0  0  0  0  0  0  0  0  0
    2.1220   -1.0730    2.7720 C   0  0  2  0  0  0  0  0  0  0  0  0
    2.8040    0.2080    2.7440 N   0  0  0  0  0  0  0  0  0  0  0  0
    1.4380   -1.3710    1.4950 C   0  0  0  0  0  0  0  0  0  0  0  0
    0.7940   -2.4460    1.4060 O   0  0  0  0  0  0  0  0  0  0  0  0
   -0.6620   -1.0870    5.6120 H   0  0  0  0  0  0  0  0  0  0  0  0
   -0.5990    0.7270    5.7190 H   0  0  0  0  0  0  0  0  0  0  0  0
   -1.8700   -0.0320    4.7280 H   0  0  0  0  0  0  0  0  0  0  0  0
   -0.4880   -0.2560    2.9310 H   0  0  0  0  0  0  0  0  0  0  0  0
    0.9100    1.6440    2.7590 H   0  0  0  0  0  0  0  0  0  0  0  0
   -0.0440    2.1240    4.1660 H   0  0  0  0  0  0  0  0  0  0  0  0
    1.5560    1.4620    4.4880 H   0  0  0  0  0  0  0  0  0  0  0  0
    0.6150   -2.0870    3.9460 H   0  0  0  0  0  0  0  0  0  0  0  0
    1.7670   -1.0380    4.8740 H   0  0  0  0  0  0  0  0  0  0  0  0
    2.9170   -1.8200    3.0050 H   0  0  0  0  0  0  0  0  0  0  0  0
    3.4360    0.2890    1.9070 H   0  0  0  0  0  0  0  0  0  0  0  0
    3.4000    0.2060    3.6290 H   0  0  0  0  0  0  0  0  0  0  0  0
    1.4660   -0.5160    0.3610 N   0  0  0  0  0  0  0  0  0  0  0  0
    0.7810   -0.8490   -0.8780 C   0  0  1  0  0  0  0  0  0  0  0  0
   -0.2280    0.1740   -1.2950 C   0  0  0  0  0  0  0  0  0  0  0  0
   -1.2570    0.3020   -0.2330 C   0  0  0  0  0  0  0  0  0  0  0  0
   -1.3950    1.3420    0.6940 C   0  0  0  0  0  0  0  0  0  0  0  0
   -2.4580    1.0880    1.4840 N   0  0  0  0  0  0  0  0  0  0  0  0
   -3.0380   -0.0720    1.1290 C   0  0  0  0  0  0  0  0  0  0  0  0
   -4.1320   -0.7630    1.6120 C   0  0  0  0  0  0  0  0  0  0  0  0
   -4.5340   -1.9630    1.0640 C   0  0  0  0  0  0  0  0  0  0  0  0
   -3.7870   -2.4450    0.0010 C   0  0  0  0  0  0  0  0  0  0  0  0
   -2.6930   -1.7640   -0.4890 C   0  0  0  0  0  0  0  0  0  0  0  0
   -2.2980   -0.5610    0.0680 C   0  0  0  0  0  0  0  0  0  0  0  0
    1.7560   -1.1550   -1.9610 C   0  0  0  0  0  0  0  0  0  0  0  0
    2.9800   -1.0920   -1.6910 O   0  0  0  0  0  0  0  0  0  0  0  0
    2.0130    0.3820    0.4640 H   0  0  0  0  0  0  0  0  0  0  0  0
    0.2360   -1.8060   -0.6990 H   0  0  0  0  0  0  0  0  0  0  0  0
    0.2080    1.1740   -1.4800 H   0  0  0  0  0  0  0  0  0  0  0  0
   -0.7510   -0.2090   -2.1940 H   0  0  0  0  0  0  0  0  0  0  0  0
   -0.7200    2.1870    0.7180 H   0  0  0  0  0  0  0  0  0  0  0  0
   -2.7520    1.7340    2.2530 H   0  0  0  0  0  0  0  0  0  0  0  0
   -4.7170   -0.3840    2.4460 H   0  0  0  0  0  0  0  0  0  0  0  0
   -5.3960   -2.5160    1.4380 H   0  0  0  0  0  0  0  0  0  0  0  0
   -4.0710   -3.3810   -0.4550 H   0  0  0  0  0  0  0  0  0  0  0  0
   -2.1000   -2.1250   -1.3160 H   0  0  0  0  0  0  0  0  0  0  0  0
    1.3470   -1.5090   -3.2670 N   0  0  0  0  0  0  0  0  0  0  0  0
    2.2940   -1.8090   -4.3310 C   0  0  0  0  0  0  0  0  0  0  0  0
    1.5220   -2.1360   -5.5480 C   0  0  0  0  0  0  0  0  0  0  0  0
    2.1370   -2.4270   -6.5990 O   0  0  0  0  0  0  0  0  0  0  0  0
    0.1440   -2.1310   -5.5650 O   0  0  0  0  0  0  0  0  0  0  0  0
    0.3020   -1.5440   -3.4290 H   0  0  0  0  0  0  0  0  0  0  0  0
    2.8830   -2.7290   -4.0790 H   0  0  0  0  0  0  0  0  0  0  0  0
    2.9480   -0.9590   -4.5640 H   0  0  0  0  0  0  0  0  0  0  0  0
  1  9  1  0  0  0  0
  1 10  1  0  0  0  0
  2  4  1  0  0  0  0
  2  1  1  0  0  0  0
  3  2  1  0  0  0  0
  3 14  1  0  0  0  0
  3 15  1  0  0  0  0
  4 16  1  0  0  0  0
  4 17  1  0  0  0  0
  5 18  1  1  0  0  0
  5  4  1  0  0  0  0
  6  5  1  0  0  0  0
  6 20  1  0  0  0  0
  7  5  1  0  0  0  0
  8  7  2  0  0  0  0
 11  1  1  0  0  0  0
 12  2  1  0  0  0  0
 13  3  1  0  0  0  0
 19  6  1  0  0  0  0
 21 35  1  0  0  0  0
 21  7  1  0  0  0  0
 22 36  1  1  0  0  0
 22 21  1  0  0  0  0
 23 22  1  0  0  0  0
 23 24  1  0  0  0  0
 24 32  1  0  0  0  0
 24 25  2  0  0  0  0
 25 39  1  0  0  0  0
 25 26  1  0  0  0  0
 26 40  1  0  0  0  0
 27 26  1  0  0  0  0
 27 28  1  0  0  0  0
 28 41  1  0  0  0  0
 29 42  1  0  0  0  0
 29 28  2  0  0  0  0
 30 29  1  0  0  0  0
 31 30  2  0  0  0  0
 31 32  1  0  0  0  0
 32 27  2  0  0  0  0
 33 34  2  0  0  0  0
 33 22  1  0  0  0  0
 37 23  1  0  0  0  0
 38 23  1  0  0  0  0
 43 30  1  0  0  0  0
 44 31  1  0  0  0  0
 45 33  1  0  0  0  0
 46 51  1  0  0  0  0
 46 45  1  0  0  0  0
 47 46  1  0  0  0  0
 48 47  2  0  0  0  0
 49 47  1  0  0  0  0
 50 45  1  0  0  0  0
 52 46  1  0  0  0  0
M  END
$$$$
