LWH.pdb
 OpenBabel07022418483D

 62 64  0  0  1  0  0  0  0  0999 V2000
    4.6060   -0.6080    3.3740 C   0  0  0  0  0  0  0  0  0  0  0  0
    3.3940    0.0740    3.9470 C   0  0  0  0  0  0  0  0  0  0  0  0
    3.5850    1.5570    4.0260 C   0  0  0  0  0  0  0  0  0  0  0  0
    2.1200   -0.3470    3.2910 C   0  0  0  0  0  0  0  0  0  0  0  0
    2.0600   -0.0780    1.8370 C   0  0  2  0  0  0  0  0  0  0  0  0
    2.2040    1.3520    1.5620 N   0  0  0  0  0  0  0  0  0  0  0  0
    0.7730   -0.5310    1.2680 C   0  0  0  0  0  0  0  0  0  0  0  0
    0.0340   -1.2570    1.9820 O   0  0  0  0  0  0  0  0  0  0  0  0
    5.5060   -0.2360    3.8810 H   0  0  0  0  0  0  0  0  0  0  0  0
    4.6870   -0.3850    2.2950 H   0  0  0  0  0  0  0  0  0  0  0  0
    4.5210   -1.7150    3.5510 H   0  0  0  0  0  0  0  0  0  0  0  0
    3.3190   -0.2940    5.0190 H   0  0  0  0  0  0  0  0  0  0  0  0
    4.4820    1.7120    4.7010 H   0  0  0  0  0  0  0  0  0  0  0  0
    2.7580    2.0870    4.5060 H   0  0  0  0  0  0  0  0  0  0  0  0
    3.9010    2.0110    3.0530 H   0  0  0  0  0  0  0  0  0  0  0  0
    1.2890    0.1400    3.8380 H   0  0  0  0  0  0  0  0  0  0  0  0
    1.9850   -1.4460    3.4820 H   0  0  0  0  0  0  0  0  0  0  0  0
    2.8990   -0.6390    1.3460 H   0  0  0  0  0  0  0  0  0  0  0  0
    1.6300    1.8240    2.3250 H   0  0  0  0  0  0  0  0  0  0  0  0
    1.9060    1.6060    0.6220 H   0  0  0  0  0  0  0  0  0  0  0  0
    0.3050   -0.2070   -0.0320 N   0  0  0  0  0  0  0  0  0  0  0  0
   -0.9390   -0.5970   -0.6240 C   0  0  1  0  0  0  0  0  0  0  0  0
   -1.6870    0.6130   -1.2010 C   0  0  0  0  0  0  0  0  0  0  0  0
   -1.9650    1.6120   -0.1480 C   0  0  0  0  0  0  0  0  0  0  0  0
   -1.2950    2.8220    0.0670 C   0  0  0  0  0  0  0  0  0  0  0  0
   -1.8410    3.4470    1.1160 N   0  0  0  0  0  0  0  0  0  0  0  0
   -2.8480    2.7080    1.6170 C   0  0  0  0  0  0  0  0  0  0  0  0
   -3.6910    2.9400    2.6740 C   0  0  0  0  0  0  0  0  0  0  0  0
   -4.6610    2.0160    2.9860 C   0  0  0  0  0  0  0  0  0  0  0  0
   -4.7390    0.8850    2.2070 C   0  0  0  0  0  0  0  0  0  0  0  0
   -3.9010    0.6400    1.1460 C   0  0  0  0  0  0  0  0  0  0  0  0
   -2.9270    1.5620    0.8290 C   0  0  0  0  0  0  0  0  0  0  0  0
   -0.7640   -1.6240   -1.7160 C   0  0  0  0  0  0  0  0  0  0  0  0
   -1.7950   -1.9720   -2.3350 O   0  0  0  0  0  0  0  0  0  0  0  0
    0.9900    0.3880   -0.6010 H   0  0  0  0  0  0  0  0  0  0  0  0
   -1.5910   -1.0130    0.1650 H   0  0  0  0  0  0  0  0  0  0  0  0
   -2.6610    0.1850   -1.5590 H   0  0  0  0  0  0  0  0  0  0  0  0
   -1.1220    1.0760   -2.0460 H   0  0  0  0  0  0  0  0  0  0  0  0
   -0.4780    3.1590   -0.5370 H   0  0  0  0  0  0  0  0  0  0  0  0
   -1.5260    4.3670    1.4800 H   0  0  0  0  0  0  0  0  0  0  0  0
   -3.6180    3.8320    3.2770 H   0  0  0  0  0  0  0  0  0  0  0  0
   -5.3510    2.1750    3.8240 H   0  0  0  0  0  0  0  0  0  0  0  0
   -5.5180    0.1670    2.4680 H   0  0  0  0  0  0  0  0  0  0  0  0
   -3.9750   -0.2630    0.5410 H   0  0  0  0  0  0  0  0  0  0  0  0
    0.5210   -2.1360   -1.9880 N   0  0  0  0  0  0  0  0  0  0  0  0
    0.7450   -3.1060   -3.0190 C   0  0  1  0  0  0  0  0  0  0  0  0
    0.4950   -4.5210   -2.6620 C   0  0  0  0  0  0  0  0  0  0  0  0
   -0.8640   -4.8610   -2.2350 C   0  0  0  0  0  0  0  0  0  0  0  0
   -1.3170   -4.8310   -0.9360 C   0  0  0  0  0  0  0  0  0  0  0  0
   -2.6040   -5.2120   -0.9740 N   0  0  0  0  0  0  0  0  0  0  0  0
   -2.9380   -5.4670   -2.2480 C   0  0  0  0  0  0  0  0  0  0  0  0
   -1.8690   -5.2510   -3.0200 N   0  0  0  0  0  0  0  0  0  0  0  0
    0.1080   -2.7120   -4.3320 C   0  0  0  0  0  0  0  0  0  0  0  0
    0.1390   -3.4830   -5.3160 O   0  0  0  0  0  0  0  0  0  0  0  0
   -0.5200   -1.4870   -4.4740 O   0  0  0  0  0  0  0  0  0  0  0  0
    1.3800   -1.8140   -1.4280 H   0  0  0  0  0  0  0  0  0  0  0  0
    1.8590   -3.0520   -3.3110 H   0  0  0  0  0  0  0  0  0  0  0  0
    0.7060   -5.1330   -3.5800 H   0  0  0  0  0  0  0  0  0  0  0  0
    1.2750   -4.8400   -1.9380 H   0  0  0  0  0  0  0  0  0  0  0  0
   -0.7560   -4.5530   -0.0280 H   0  0  0  0  0  0  0  0  0  0  0  0
   -3.2090   -5.2790   -0.1070 H   0  0  0  0  0  0  0  0  0  0  0  0
   -3.9430   -5.8030   -2.5560 H   0  0  0  0  0  0  0  0  0  0  0  0
  1 11  1  0  0  0  0
  1  9  1  0  0  0  0
  1  2  1  0  0  0  0
  2  3  1  0  0  0  0
  2 12  1  0  0  0  0
  3 14  1  0  0  0  0
  3 13  1  0  0  0  0
  4 17  1  0  0  0  0
  4 16  1  0  0  0  0
  4  2  1  0  0  0  0
  5 18  1  6  0  0  0
  5  4  1  0  0  0  0
  6  5  1  0  0  0  0
  6 19  1  0  0  0  0
  7  5  1  0  0  0  0
  7  8  2  0  0  0  0
 10  1  1  0  0  0  0
 15  3  1  0  0  0  0
 20  6  1  0  0  0  0
 21  7  1  0  0  0  0
 22 21  1  0  0  0  0
 22 36  1  1  0  0  0
 23 22  1  0  0  0  0
 23 24  1  0  0  0  0
 24 25  2  0  0  0  0
 24 32  1  0  0  0  0
 25 26  1  0  0  0  0
 26 40  1  0  0  0  0
 26 27  1  0  0  0  0
 27 28  1  0  0  0  0
 28 29  2  0  0  0  0
 28 41  1  0  0  0  0
 29 42  1  0  0  0  0
 30 43  1  0  0  0  0
 30 29  1  0  0  0  0
 31 30  2  0  0  0  0
 32 31  1  0  0  0  0
 32 27  2  0  0  0  0
 33 22  1  0  0  0  0
 34 33  2  0  0  0  0
 35 21  1  0  0  0  0
 37 23  1  0  0  0  0
 38 23  1  0  0  0  0
 39 25  1  0  0  0  0
 44 31  1  0  0  0  0
 45 33  1  0  0  0  0
 45 56  1  0  0  0  0
 46 57  1  6  0  0  0
 46 47  1  0  0  0  0
 46 45  1  0  0  0  0
 47 48  1  0  0  0  0
 47 59  1  0  0  0  0
 48 49  2  0  0  0  0
 49 60  1  0  0  0  0
 50 49  1  0  0  0  0
 50 61  1  0  0  0  0
 51 50  1  0  0  0  0
 52 51  2  0  0  0  0
 52 48  1  0  0  0  0
 53 46  1  0  0  0  0
 54 53  2  0  0  0  0
 55 53  1  0  0  0  0
 58 47  1  0  0  0  0
 62 51  1  0  0  0  0
M  END
$$$$
