LWI.pdb
 OpenBabel07022418483D

 64 65  0  0  1  0  0  0  0  0999 V2000
    0.3150   -0.4920    4.1100 C   0  0  0  0  0  0  0  0  0  0  0  0
    1.7850   -0.3760    4.2600 C   0  0  0  0  0  0  0  0  0  0  0  0
    2.3630   -1.7960    4.3890 C   0  0  0  0  0  0  0  0  0  0  0  0
    2.5360    0.2850    3.1720 C   0  0  0  0  0  0  0  0  0  0  0  0
    2.2020    1.6910    2.8520 C   0  0  2  0  0  0  0  0  0  0  0  0
    2.3770    2.5910    3.9750 N   0  0  0  0  0  0  0  0  0  0  0  0
    0.9400    1.9390    2.1590 C   0  0  0  0  0  0  0  0  0  0  0  0
    0.1410    2.8260    2.6180 O   0  0  0  0  0  0  0  0  0  0  0  0
   -0.1880    0.2390    3.4840 H   0  0  0  0  0  0  0  0  0  0  0  0
    0.0900   -1.4960    3.6410 H   0  0  0  0  0  0  0  0  0  0  0  0
   -0.2130   -0.5700    5.1090 H   0  0  0  0  0  0  0  0  0  0  0  0
    1.9900    0.0870    5.2600 H   0  0  0  0  0  0  0  0  0  0  0  0
    3.3930   -1.7540    4.7930 H   0  0  0  0  0  0  0  0  0  0  0  0
    2.4530   -2.2590    3.3690 H   0  0  0  0  0  0  0  0  0  0  0  0
    1.6950   -2.4540    4.9690 H   0  0  0  0  0  0  0  0  0  0  0  0
    3.6260    0.2740    3.4750 H   0  0  0  0  0  0  0  0  0  0  0  0
    2.5150   -0.2960    2.2260 H   0  0  0  0  0  0  0  0  0  0  0  0
    3.0090    2.0300    2.1160 H   0  0  0  0  0  0  0  0  0  0  0  0
    3.3190    2.4360    4.3970 H   0  0  0  0  0  0  0  0  0  0  0  0
    2.3310    3.5620    3.6470 H   0  0  0  0  0  0  0  0  0  0  0  0
    0.5370    1.2490    0.9890 N   0  0  0  0  0  0  0  0  0  0  0  0
   -0.7270    1.5070    0.2940 C   0  0  1  0  0  0  0  0  0  0  0  0
   -0.5050    2.2410   -0.9840 C   0  0  0  0  0  0  0  0  0  0  0  0
    0.3650    1.5990   -1.9750 C   0  0  0  0  0  0  0  0  0  0  0  0
    1.7510    1.8480   -2.1190 C   0  0  0  0  0  0  0  0  0  0  0  0
    2.2290    1.0690   -3.0900 N   0  0  0  0  0  0  0  0  0  0  0  0
    1.2300    0.3160   -3.6000 C   0  0  0  0  0  0  0  0  0  0  0  0
    1.2380   -0.6310   -4.6350 C   0  0  0  0  0  0  0  0  0  0  0  0
    0.0730   -1.2630   -4.9910 C   0  0  0  0  0  0  0  0  0  0  0  0
   -1.0650   -0.9270   -4.3000 C   0  0  0  0  0  0  0  0  0  0  0  0
   -1.0940   -0.0080   -3.2880 C   0  0  0  0  0  0  0  0  0  0  0  0
    0.0800    0.6430   -2.9130 C   0  0  0  0  0  0  0  0  0  0  0  0
   -1.6550    0.3920    0.3110 C   0  0  0  0  0  0  0  0  0  0  0  0
   -2.7740    0.5350   -0.2350 O   0  0  0  0  0  0  0  0  0  0  0  0
    1.1670    0.5070    0.5810 H   0  0  0  0  0  0  0  0  0  0  0  0
   -1.2290    2.3010    0.9770 H   0  0  0  0  0  0  0  0  0  0  0  0
   -1.5090    2.4970   -1.4120 H   0  0  0  0  0  0  0  0  0  0  0  0
   -0.0390    3.2410   -0.7330 H   0  0  0  0  0  0  0  0  0  0  0  0
    2.2810    2.5630   -1.5120 H   0  0  0  0  0  0  0  0  0  0  0  0
    3.2230    1.0080   -3.4480 H   0  0  0  0  0  0  0  0  0  0  0  0
    2.1670   -0.8480   -5.1380 H   0  0  0  0  0  0  0  0  0  0  0  0
    0.0640   -2.0080   -5.8010 H   0  0  0  0  0  0  0  0  0  0  0  0
   -2.0030   -1.4150   -4.5680 H   0  0  0  0  0  0  0  0  0  0  0  0
   -1.9750    0.2690   -2.7480 H   0  0  0  0  0  0  0  0  0  0  0  0
   -2.6460   -2.8590   -2.0260 C   0  0  0  0  0  0  0  0  0  0  0  0
   -1.4170   -3.0150   -1.1470 C   0  0  0  0  0  0  0  0  0  0  0  0
   -1.8460   -3.1900    0.3020 C   0  0  2  0  0  0  0  0  0  0  0  0
   -2.7160   -4.3880    0.5010 C   0  0  0  0  0  0  0  0  0  0  0  0
   -2.3730   -1.9190    0.8930 C   0  0  2  0  0  0  0  0  0  0  0  0
   -1.4040   -0.8670    0.9050 N   0  0  0  0  0  0  0  0  0  0  0  0
   -3.0020   -2.1380    2.2210 C   0  0  0  0  0  0  0  0  0  0  0  0
   -3.8660   -3.0430    2.3420 O   0  0  0  0  0  0  0  0  0  0  0  0
   -2.6910   -1.3960    3.3460 O   0  0  0  0  0  0  0  0  0  0  0  0
   -2.3910   -3.2110   -3.0410 H   0  0  0  0  0  0  0  0  0  0  0  0
   -2.9990   -1.8180   -2.0850 H   0  0  0  0  0  0  0  0  0  0  0  0
   -3.4860   -3.5010   -1.6850 H   0  0  0  0  0  0  0  0  0  0  0  0
   -0.7250   -3.7840   -1.4890 H   0  0  0  0  0  0  0  0  0  0  0  0
   -0.8830   -2.0330   -1.1790 H   0  0  0  0  0  0  0  0  0  0  0  0
   -0.8730   -3.4340    0.8400 H   0  0  0  0  0  0  0  0  0  0  0  0
   -3.7810   -4.2260    0.2610 H   0  0  0  0  0  0  0  0  0  0  0  0
   -2.3370   -5.1830   -0.1980 H   0  0  0  0  0  0  0  0  0  0  0  0
   -2.6170   -4.8340    1.5130 H   0  0  0  0  0  0  0  0  0  0  0  0
   -3.2260   -1.5740    0.2300 H   0  0  0  0  0  0  0  0  0  0  0  0
   -0.4900   -1.0320    1.3630 H   0  0  0  0  0  0  0  0  0  0  0  0
  1  2  1  0  0  0  0
  1 11  1  0  0  0  0
  2  3  1  0  0  0  0
  2 12  1  0  0  0  0
  3 13  1  0  0  0  0
  3 15  1  0  0  0  0
  4 16  1  0  0  0  0
  4  2  1  0  0  0  0
  5 18  1  6  0  0  0
  5  4  1  0  0  0  0
  5  6  1  0  0  0  0
  6 19  1  0  0  0  0
  7  8  2  0  0  0  0
  7  5  1  0  0  0  0
  9  1  1  0  0  0  0
 10  1  1  0  0  0  0
 14  3  1  0  0  0  0
 17  4  1  0  0  0  0
 20  6  1  0  0  0  0
 21  7  1  0  0  0  0
 22 33  1  0  0  0  0
 22 36  1  1  0  0  0
 22 21  1  0  0  0  0
 23 38  1  0  0  0  0
 23 22  1  0  0  0  0
 24 23  1  0  0  0  0
 25 24  2  0  0  0  0
 25 39  1  0  0  0  0
 26 25  1  0  0  0  0
 27 26  1  0  0  0  0
 27 32  1  0  0  0  0
 28 27  2  0  0  0  0
 29 28  1  0  0  0  0
 29 30  2  0  0  0  0
 30 31  1  0  0  0  0
 31 32  2  0  0  0  0
 31 44  1  0  0  0  0
 32 24  1  0  0  0  0
 33 50  1  0  0  0  0
 34 33  2  0  0  0  0
 35 21  1  0  0  0  0
 37 23  1  0  0  0  0
 40 26  1  0  0  0  0
 41 28  1  0  0  0  0
 42 29  1  0  0  0  0
 43 30  1  0  0  0  0
 45 56  1  0  0  0  0
 45 46  1  0  0  0  0
 46 47  1  0  0  0  0
 47 48  1  0  0  0  0
 47 59  1  1  0  0  0
 47 49  1  0  0  0  0
 48 62  1  0  0  0  0
 49 63  1  6  0  0  0
 49 50  1  0  0  0  0
 49 51  1  0  0  0  0
 50 64  1  0  0  0  0
 51 52  2  0  0  0  0
 51 53  1  0  0  0  0
 54 45  1  0  0  0  0
 55 45  1  0  0  0  0
 57 46  1  0  0  0  0
 58 46  1  0  0  0  0
 60 48  1  0  0  0  0
 61 48  1  0  0  0  0
M  END
$$$$
