LWL.pdb
 OpenBabel07022418483D

 64 65  0  0  1  0  0  0  0  0999 V2000
   -0.0750   -0.6070    4.0970 C   0  0  0  0  0  0  0  0  0  0  0  0
    1.3890   -0.5690    4.3290 C   0  0  0  0  0  0  0  0  0  0  0  0
    1.8620   -2.0320    4.3710 C   0  0  0  0  0  0  0  0  0  0  0  0
    2.2250    0.1230    3.3160 C   0  0  0  0  0  0  0  0  0  0  0  0
    1.9590    1.5630    3.0790 C   0  0  2  0  0  0  0  0  0  0  0  0
    2.1150    2.3750    4.2760 N   0  0  0  0  0  0  0  0  0  0  0  0
    0.7360    1.8990    2.3490 C   0  0  0  0  0  0  0  0  0  0  0  0
   -0.0410    2.7980    2.8310 O   0  0  0  0  0  0  0  0  0  0  0  0
   -0.5230    0.2010    3.5340 H   0  0  0  0  0  0  0  0  0  0  0  0
   -0.4050   -1.5620    3.5850 H   0  0  0  0  0  0  0  0  0  0  0  0
   -0.5740   -0.6850    5.1110 H   0  0  0  0  0  0  0  0  0  0  0  0
    1.6610   -0.1590    5.3330 H   0  0  0  0  0  0  0  0  0  0  0  0
    2.7740   -2.1810    3.7590 H   0  0  0  0  0  0  0  0  0  0  0  0
    1.0790   -2.7130    3.9260 H   0  0  0  0  0  0  0  0  0  0  0  0
    2.0400   -2.3710    5.4050 H   0  0  0  0  0  0  0  0  0  0  0  0
    3.2960   -0.0220    3.6360 H   0  0  0  0  0  0  0  0  0  0  0  0
    2.1790   -0.3870    2.3250 H   0  0  0  0  0  0  0  0  0  0  0  0
    2.8150    1.9220    2.4070 H   0  0  0  0  0  0  0  0  0  0  0  0
    1.3930    2.1350    5.0000 H   0  0  0  0  0  0  0  0  0  0  0  0
    3.0730    2.1960    4.6320 H   0  0  0  0  0  0  0  0  0  0  0  0
    0.4090    1.2500    1.1280 N   0  0  0  0  0  0  0  0  0  0  0  0
   -0.7920    1.5700    0.3840 C   0  0  1  0  0  0  0  0  0  0  0  0
   -0.5040    2.2700   -0.8920 C   0  0  0  0  0  0  0  0  0  0  0  0
    0.3440    1.5940   -1.8680 C   0  0  0  0  0  0  0  0  0  0  0  0
    1.7480    1.7220   -1.9520 C   0  0  0  0  0  0  0  0  0  0  0  0
    2.2290    0.9390   -2.9150 N   0  0  0  0  0  0  0  0  0  0  0  0
    1.1790    0.2820   -3.4890 C   0  0  0  0  0  0  0  0  0  0  0  0
    1.1270   -0.6260   -4.5350 C   0  0  0  0  0  0  0  0  0  0  0  0
   -0.0700   -1.1620   -4.9770 C   0  0  0  0  0  0  0  0  0  0  0  0
   -1.2250   -0.7620   -4.3420 C   0  0  0  0  0  0  0  0  0  0  0  0
   -1.1770    0.1410   -3.3000 C   0  0  0  0  0  0  0  0  0  0  0  0
    0.0260    0.6830   -2.8480 C   0  0  0  0  0  0  0  0  0  0  0  0
   -1.7650    0.5060    0.2710 C   0  0  0  0  0  0  0  0  0  0  0  0
   -2.8460    0.7420   -0.3270 O   0  0  0  0  0  0  0  0  0  0  0  0
    1.0890    0.5230    0.7930 H   0  0  0  0  0  0  0  0  0  0  0  0
   -1.3090    2.3710    1.0340 H   0  0  0  0  0  0  0  0  0  0  0  0
   -0.0250    3.2840   -0.7110 H   0  0  0  0  0  0  0  0  0  0  0  0
   -1.4650    2.5650   -1.4180 H   0  0  0  0  0  0  0  0  0  0  0  0
    2.3340    2.3710   -1.3130 H   0  0  0  0  0  0  0  0  0  0  0  0
    3.2190    0.7990   -3.2340 H   0  0  0  0  0  0  0  0  0  0  0  0
    2.0510   -0.9200   -5.0130 H   0  0  0  0  0  0  0  0  0  0  0  0
   -0.0600   -1.8660   -5.7960 H   0  0  0  0  0  0  0  0  0  0  0  0
   -2.1950   -1.1640   -4.6640 H   0  0  0  0  0  0  0  0  0  0  0  0
   -2.0670    0.4770   -2.8000 H   0  0  0  0  0  0  0  0  0  0  0  0
   -1.9290   -3.1400   -2.0560 C   0  0  0  0  0  0  0  0  0  0  0  0
   -1.2650   -3.4420   -0.7550 C   0  0  0  0  0  0  0  0  0  0  0  0
    0.1090   -2.7900   -0.6430 C   0  0  0  0  0  0  0  0  0  0  0  0
   -2.1030   -3.1970    0.4440 C   0  0  0  0  0  0  0  0  0  0  0  0
   -2.5880   -1.8100    0.6590 C   0  0  2  0  0  0  0  0  0  0  0  0
   -1.5710   -0.8100    0.8080 N   0  0  0  0  0  0  0  0  0  0  0  0
   -3.3790   -1.8600    1.9520 C   0  0  0  0  0  0  0  0  0  0  0  0
   -3.0370   -1.0680    2.8540 O   0  0  0  0  0  0  0  0  0  0  0  0
   -4.4250   -2.7450    2.1120 O   0  0  0  0  0  0  0  0  0  0  0  0
   -2.6770   -3.9360   -2.3340 H   0  0  0  0  0  0  0  0  0  0  0  0
   -1.1390   -3.2420   -2.8570 H   0  0  0  0  0  0  0  0  0  0  0  0
   -2.4590   -2.1850   -2.0990 H   0  0  0  0  0  0  0  0  0  0  0  0
   -1.0450   -4.5510   -0.7650 H   0  0  0  0  0  0  0  0  0  0  0  0
    0.4320   -2.9060    0.4260 H   0  0  0  0  0  0  0  0  0  0  0  0
    0.8160   -3.3700   -1.2790 H   0  0  0  0  0  0  0  0  0  0  0  0
    0.1180   -1.7550   -0.9810 H   0  0  0  0  0  0  0  0  0  0  0  0
   -1.5700   -3.5890    1.3300 H   0  0  0  0  0  0  0  0  0  0  0  0
   -3.0140   -3.8580    0.3440 H   0  0  0  0  0  0  0  0  0  0  0  0
   -3.3380   -1.4830   -0.0910 H   0  0  0  0  0  0  0  0  0  0  0  0
   -0.6680   -0.9550    1.2860 H   0  0  0  0  0  0  0  0  0  0  0  0
  1  2  1  0  0  0  0
  1 11  1  0  0  0  0
  2  3  1  0  0  0  0
  2 12  1  0  0  0  0
  3 15  1  0  0  0  0
  4 16  1  0  0  0  0
  4  2  1  0  0  0  0
  5 18  1  6  0  0  0
  5  4  1  0  0  0  0
  5  6  1  0  0  0  0
  6 20  1  0  0  0  0
  6 19  1  0  0  0  0
  7  8  2  0  0  0  0
  7  5  1  0  0  0  0
  9  1  1  0  0  0  0
 10  1  1  0  0  0  0
 13  3  1  0  0  0  0
 14  3  1  0  0  0  0
 17  4  1  0  0  0  0
 21  7  1  0  0  0  0
 22 36  1  1  0  0  0
 22 21  1  0  0  0  0
 23 37  1  0  0  0  0
 23 22  1  0  0  0  0
 24 23  1  0  0  0  0
 25 24  2  0  0  0  0
 25 39  1  0  0  0  0
 26 25  1  0  0  0  0
 27 26  1  0  0  0  0
 27 32  1  0  0  0  0
 28 27  2  0  0  0  0
 29 28  1  0  0  0  0
 29 30  2  0  0  0  0
 30 31  1  0  0  0  0
 31 32  2  0  0  0  0
 31 44  1  0  0  0  0
 32 24  1  0  0  0  0
 33 22  1  0  0  0  0
 33 50  1  0  0  0  0
 34 33  2  0  0  0  0
 35 21  1  0  0  0  0
 38 23  1  0  0  0  0
 40 26  1  0  0  0  0
 41 28  1  0  0  0  0
 42 29  1  0  0  0  0
 43 30  1  0  0  0  0
 45 46  1  0  0  0  0
 46 47  1  0  0  0  0
 46 48  1  0  0  0  0
 47 58  1  0  0  0  0
 48 49  1  0  0  0  0
 48 61  1  0  0  0  0
 49 63  1  6  0  0  0
 49 50  1  0  0  0  0
 49 51  1  0  0  0  0
 50 64  1  0  0  0  0
 51 53  2  0  0  0  0
 51 52  1  0  0  0  0
 54 45  1  0  0  0  0
 55 45  1  0  0  0  0
 56 45  1  0  0  0  0
 57 46  1  0  0  0  0
 59 47  1  0  0  0  0
 60 47  1  0  0  0  0
 62 48  1  0  0  0  0
M  END
$$$$
