LWM.pdb
 OpenBabel07022418483D

 62 63  0  0  1  0  0  0  0  0999 V2000
   -0.9490   -0.5140    3.8450 C   0  0  0  0  0  0  0  0  0  0  0  0
    0.2380   -0.0000    4.5740 C   0  0  0  0  0  0  0  0  0  0  0  0
    1.1120   -1.2090    4.9420 C   0  0  0  0  0  0  0  0  0  0  0  0
    1.1070    0.9590    3.8620 C   0  0  0  0  0  0  0  0  0  0  0  0
    0.5180    2.2350    3.4100 C   0  0  2  0  0  0  0  0  0  0  0  0
   -0.0380    3.0500    4.4620 N   0  0  0  0  0  0  0  0  0  0  0  0
   -0.3890    2.1860    2.2550 C   0  0  0  0  0  0  0  0  0  0  0  0
   -1.4910    2.8400    2.2650 O   0  0  0  0  0  0  0  0  0  0  0  0
   -1.4590    0.1880    3.1920 H   0  0  0  0  0  0  0  0  0  0  0  0
   -0.6870   -1.4270    3.2290 H   0  0  0  0  0  0  0  0  0  0  0  0
   -1.7180   -0.9040    4.5630 H   0  0  0  0  0  0  0  0  0  0  0  0
   -0.0690    0.4290    5.5550 H   0  0  0  0  0  0  0  0  0  0  0  0
    0.9930   -2.0090    4.1690 H   0  0  0  0  0  0  0  0  0  0  0  0
    2.1630   -0.9230    5.0470 H   0  0  0  0  0  0  0  0  0  0  0  0
    0.7820   -1.6520    5.9080 H   0  0  0  0  0  0  0  0  0  0  0  0
    1.9990    1.1510    4.5180 H   0  0  0  0  0  0  0  0  0  0  0  0
    1.5320    0.4230    2.9600 H   0  0  0  0  0  0  0  0  0  0  0  0
    1.4080    2.8610    3.0340 H   0  0  0  0  0  0  0  0  0  0  0  0
   -0.6660    3.7550    4.0240 H   0  0  0  0  0  0  0  0  0  0  0  0
    0.7200    3.4840    5.0110 H   0  0  0  0  0  0  0  0  0  0  0  0
   -0.1550    1.4540    1.0640 N   0  0  0  0  0  0  0  0  0  0  0  0
   -1.0660    1.4470   -0.0660 C   0  0  1  0  0  0  0  0  0  0  0  0
   -0.3320    2.1430   -1.1920 C   0  0  0  0  0  0  0  0  0  0  0  0
    0.9470    1.5390   -1.5720 C   0  0  0  0  0  0  0  0  0  0  0  0
    2.2120    1.9340   -1.0700 C   0  0  0  0  0  0  0  0  0  0  0  0
    3.1580    1.1540   -1.5850 N   0  0  0  0  0  0  0  0  0  0  0  0
    2.5860    0.2500   -2.4150 C   0  0  0  0  0  0  0  0  0  0  0  0
    3.1590   -0.7650   -3.1920 C   0  0  0  0  0  0  0  0  0  0  0  0
    2.3760   -1.5690   -3.9860 C   0  0  0  0  0  0  0  0  0  0  0  0
    1.0260   -1.3170   -3.9670 C   0  0  0  0  0  0  0  0  0  0  0  0
    0.4320   -0.3310   -3.2170 C   0  0  0  0  0  0  0  0  0  0  0  0
    1.2300    0.4880   -2.4070 C   0  0  0  0  0  0  0  0  0  0  0  0
   -1.5540    0.1240   -0.4730 C   0  0  0  0  0  0  0  0  0  0  0  0
   -2.4370    0.0760   -1.4090 O   0  0  0  0  0  0  0  0  0  0  0  0
    0.7210    0.8850    0.9890 H   0  0  0  0  0  0  0  0  0  0  0  0
   -1.9380    2.1020    0.2420 H   0  0  0  0  0  0  0  0  0  0  0  0
   -1.0170    2.1960   -2.0870 H   0  0  0  0  0  0  0  0  0  0  0  0
   -0.1310    3.1910   -0.8760 H   0  0  0  0  0  0  0  0  0  0  0  0
    2.3400    2.7540   -0.3720 H   0  0  0  0  0  0  0  0  0  0  0  0
    4.2080    1.1840   -1.4130 H   0  0  0  0  0  0  0  0  0  0  0  0
    4.2360   -0.9030   -3.1540 H   0  0  0  0  0  0  0  0  0  0  0  0
    2.8330   -2.3480   -4.5780 H   0  0  0  0  0  0  0  0  0  0  0  0
    0.3820   -1.9390   -4.5880 H   0  0  0  0  0  0  0  0  0  0  0  0
   -0.6090   -0.1280   -3.2190 H   0  0  0  0  0  0  0  0  0  0  0  0
   -3.8440   -5.1180   -1.8540 C   0  0  0  0  0  0  0  0  0  0  0  0
   -2.2770   -5.6580   -1.0860 S   0  0  0  0  0  0  0  0  0  0  0  0
   -0.9360   -4.5770   -1.4140 C   0  0  0  0  0  0  0  0  0  0  0  0
   -0.6880   -3.3420   -0.6820 C   0  0  0  0  0  0  0  0  0  0  0  0
   -1.7540   -2.3610   -0.4920 C   0  0  2  0  0  0  0  0  0  0  0  0
   -1.1420   -1.0900    0.0700 N   0  0  0  0  0  0  0  0  0  0  0  0
   -2.6570   -2.7860    0.6460 C   0  0  0  0  0  0  0  0  0  0  0  0
   -2.7940   -1.9590    1.6030 O   0  0  0  0  0  0  0  0  0  0  0  0
   -3.3220   -3.9420    0.7510 O   0  0  0  0  0  0  0  0  0  0  0  0
   -3.9820   -5.7320   -2.7740 H   0  0  0  0  0  0  0  0  0  0  0  0
   -3.8160   -4.0540   -2.1140 H   0  0  0  0  0  0  0  0  0  0  0  0
   -4.6770   -5.3320   -1.1770 H   0  0  0  0  0  0  0  0  0  0  0  0
    0.0350   -5.2080   -1.4760 H   0  0  0  0  0  0  0  0  0  0  0  0
   -1.0820   -4.2340   -2.5280 H   0  0  0  0  0  0  0  0  0  0  0  0
    0.2340   -2.8500   -1.1810 H   0  0  0  0  0  0  0  0  0  0  0  0
   -0.2630   -3.6030    0.3740 H   0  0  0  0  0  0  0  0  0  0  0  0
   -2.2840   -2.0820   -1.3760 H   0  0  0  0  0  0  0  0  0  0  0  0
   -0.4680   -1.2070    0.8090 H   0  0  0  0  0  0  0  0  0  0  0  0
  1 11  1  0  0  0  0
  1  2  1  0  0  0  0
  2  3  1  0  0  0  0
  2 12  1  0  0  0  0
  3 14  1  0  0  0  0
  3 15  1  0  0  0  0
  4 16  1  0  0  0  0
  4  2  1  0  0  0  0
  5 18  1  6  0  0  0
  5  4  1  0  0  0  0
  5  6  1  0  0  0  0
  6 20  1  0  0  0  0
  7  8  2  0  0  0  0
  7  5  1  0  0  0  0
  9  1  1  0  0  0  0
 10  1  1  0  0  0  0
 13  3  1  0  0  0  0
 17  4  1  0  0  0  0
 19  6  1  0  0  0  0
 21  7  1  0  0  0  0
 22 36  1  1  0  0  0
 22 21  1  0  0  0  0
 23 38  1  0  0  0  0
 23 22  1  0  0  0  0
 24 23  1  0  0  0  0
 24 25  2  0  0  0  0
 25 39  1  0  0  0  0
 26 40  1  0  0  0  0
 26 25  1  0  0  0  0
 27 32  1  0  0  0  0
 27 26  1  0  0  0  0
 28 41  1  0  0  0  0
 28 27  2  0  0  0  0
 29 30  2  0  0  0  0
 29 28  1  0  0  0  0
 30 31  1  0  0  0  0
 31 32  2  0  0  0  0
 32 24  1  0  0  0  0
 33 22  1  0  0  0  0
 33 50  1  0  0  0  0
 34 33  2  0  0  0  0
 35 21  1  0  0  0  0
 37 23  1  0  0  0  0
 42 29  1  0  0  0  0
 43 30  1  0  0  0  0
 44 31  1  0  0  0  0
 45 56  1  0  0  0  0
 45 46  1  0  0  0  0
 47 46  1  0  0  0  0
 47 48  1  0  0  0  0
 48 49  1  0  0  0  0
 48 60  1  0  0  0  0
 49 61  1  6  0  0  0
 49 50  1  0  0  0  0
 49 51  1  0  0  0  0
 50 62  1  0  0  0  0
 51 53  2  0  0  0  0
 51 52  1  0  0  0  0
 54 45  1  0  0  0  0
 55 45  1  0  0  0  0
 57 47  1  0  0  0  0
 58 47  1  0  0  0  0
 59 48  1  0  0  0  0
M  END
$$$$
