LWP.pdb
 OpenBabel07022418483D

 59 61  0  0  1  0  0  0  0  0999 V2000
    2.2870    2.2790    4.9270 C   0  0  0  0  0  0  0  0  0  0  0  0
    2.9480    1.4600    3.8390 C   0  0  0  0  0  0  0  0  0  0  0  0
    4.0460    0.6610    4.4330 C   0  0  0  0  0  0  0  0  0  0  0  0
    1.9440    0.6940    3.0510 C   0  0  0  0  0  0  0  0  0  0  0  0
    2.4870   -0.1460    1.9550 C   0  0  2  0  0  0  0  0  0  0  0  0
    3.2100    0.6210    0.9570 N   0  0  0  0  0  0  0  0  0  0  0  0
    1.3540   -0.8010    1.2290 C   0  0  0  0  0  0  0  0  0  0  0  0
    0.5360   -1.5470    1.8680 O   0  0  0  0  0  0  0  0  0  0  0  0
    1.2890    1.8070    5.1610 H   0  0  0  0  0  0  0  0  0  0  0  0
    2.0520    3.2970    4.5710 H   0  0  0  0  0  0  0  0  0  0  0  0
    2.9360    2.2990    5.8270 H   0  0  0  0  0  0  0  0  0  0  0  0
    3.4190    2.2160    3.1450 H   0  0  0  0  0  0  0  0  0  0  0  0
    4.9720    0.6410    3.7870 H   0  0  0  0  0  0  0  0  0  0  0  0
    3.7500   -0.3700    4.7230 H   0  0  0  0  0  0  0  0  0  0  0  0
    4.3710    1.1580    5.3720 H   0  0  0  0  0  0  0  0  0  0  0  0
    1.4040    0.0160    3.7580 H   0  0  0  0  0  0  0  0  0  0  0  0
    1.1710    1.3670    2.6270 H   0  0  0  0  0  0  0  0  0  0  0  0
    3.1340   -0.9800    2.3020 H   0  0  0  0  0  0  0  0  0  0  0  0
    3.3750    1.5980    1.2060 H   0  0  0  0  0  0  0  0  0  0  0  0
    4.0950    0.1830    0.6790 H   0  0  0  0  0  0  0  0  0  0  0  0
    1.1200   -0.6480   -0.1450 N   0  0  0  0  0  0  0  0  0  0  0  0
   -0.0110   -1.3110   -0.8250 C   0  0  1  0  0  0  0  0  0  0  0  0
   -0.9010   -0.1440   -1.2710 C   0  0  0  0  0  0  0  0  0  0  0  0
   -1.3550    0.6430   -0.1000 C   0  0  0  0  0  0  0  0  0  0  0  0
   -0.9170    1.8690    0.3560 C   0  0  0  0  0  0  0  0  0  0  0  0
   -1.6100    2.2090    1.4560 N   0  0  0  0  0  0  0  0  0  0  0  0
   -2.5040    1.2500    1.7600 C   0  0  0  0  0  0  0  0  0  0  0  0
   -3.4410    1.1320    2.7870 C   0  0  0  0  0  0  0  0  0  0  0  0
   -4.2470    0.0180    2.8610 C   0  0  0  0  0  0  0  0  0  0  0  0
   -4.0890   -0.9550    1.8940 C   0  0  0  0  0  0  0  0  0  0  0  0
   -3.1590   -0.8390    0.8740 C   0  0  0  0  0  0  0  0  0  0  0  0
   -2.3580    0.2710    0.8030 C   0  0  0  0  0  0  0  0  0  0  0  0
    0.4700   -2.0950   -1.9580 C   0  0  0  0  0  0  0  0  0  0  0  0
    1.6990   -1.9890   -2.2610 O   0  0  0  0  0  0  0  0  0  0  0  0
    1.7820   -0.0370   -0.6920 H   0  0  0  0  0  0  0  0  0  0  0  0
   -0.5390   -1.8790   -0.0390 H   0  0  0  0  0  0  0  0  0  0  0  0
   -0.2360    0.5610   -1.8580 H   0  0  0  0  0  0  0  0  0  0  0  0
   -1.6750   -0.4480   -1.9630 H   0  0  0  0  0  0  0  0  0  0  0  0
   -0.1250    2.4580   -0.1220 H   0  0  0  0  0  0  0  0  0  0  0  0
   -1.4990    3.0930    2.0310 H   0  0  0  0  0  0  0  0  0  0  0  0
   -3.5590    1.8940    3.5380 H   0  0  0  0  0  0  0  0  0  0  0  0
   -4.9920   -0.1160    3.6450 H   0  0  0  0  0  0  0  0  0  0  0  0
   -4.7250   -1.8230    1.9610 H   0  0  0  0  0  0  0  0  0  0  0  0
   -3.0280   -1.5970    0.1120 H   0  0  0  0  0  0  0  0  0  0  0  0
   -0.3020   -2.9740   -2.7640 N   0  0  0  0  0  0  0  0  0  0  0  0
    0.1820   -3.7410   -3.9300 C   0  0  0  0  0  0  0  0  0  0  0  0
   -0.8850   -3.3740   -4.9490 C   0  0  0  0  0  0  0  0  0  0  0  0
   -2.1380   -3.5360   -4.1180 C   0  0  0  0  0  0  0  0  0  0  0  0
   -1.6920   -3.3690   -2.6700 C   0  0  1  0  0  0  0  0  0  0  0  0
   -1.7900   -4.7430   -2.0500 C   0  0  0  0  0  0  0  0  0  0  0  0
   -2.8950   -5.2850   -1.9010 O   0  0  0  0  0  0  0  0  0  0  0  0
   -0.6520   -5.4070   -1.6450 O   0  0  0  0  0  0  0  0  0  0  0  0
    1.1860   -3.4310   -4.2250 H   0  0  0  0  0  0  0  0  0  0  0  0
    0.1850   -4.8150   -3.7260 H   0  0  0  0  0  0  0  0  0  0  0  0
   -0.7780   -2.3060   -5.1780 H   0  0  0  0  0  0  0  0  0  0  0  0
   -0.8700   -4.0190   -5.8310 H   0  0  0  0  0  0  0  0  0  0  0  0
   -2.5500   -4.5380   -4.3220 H   0  0  0  0  0  0  0  0  0  0  0  0
   -2.9190   -2.7860   -4.3800 H   0  0  0  0  0  0  0  0  0  0  0  0
   -2.3330   -2.6750   -2.1220 H   0  0  0  0  0  0  0  0  0  0  0  0
  1  9  1  0  0  0  0
  1 11  1  0  0  0  0
  2  3  1  0  0  0  0
  2  1  1  0  0  0  0
  3 14  1  0  0  0  0
  3 15  1  0  0  0  0
  4 16  1  0  0  0  0
  4  2  1  0  0  0  0
  5 18  1  1  0  0  0
  5  4  1  0  0  0  0
  6 19  1  0  0  0  0
  6  5  1  0  0  0  0
  7  8  2  0  0  0  0
  7  5  1  0  0  0  0
 10  1  1  0  0  0  0
 12  2  1  0  0  0  0
 13  3  1  0  0  0  0
 17  4  1  0  0  0  0
 20  6  1  0  0  0  0
 21  7  1  0  0  0  0
 22 21  1  0  0  0  0
 22 36  1  1  0  0  0
 23 22  1  0  0  0  0
 23 24  1  0  0  0  0
 24 25  2  0  0  0  0
 24 32  1  0  0  0  0
 25 26  1  0  0  0  0
 26 27  1  0  0  0  0
 26 40  1  0  0  0  0
 27 28  1  0  0  0  0
 28 29  2  0  0  0  0
 28 41  1  0  0  0  0
 29 42  1  0  0  0  0
 30 43  1  0  0  0  0
 30 29  1  0  0  0  0
 31 30  2  0  0  0  0
 32 31  1  0  0  0  0
 32 27  2  0  0  0  0
 33 22  1  0  0  0  0
 34 33  2  0  0  0  0
 35 21  1  0  0  0  0
 37 23  1  0  0  0  0
 38 23  1  0  0  0  0
 39 25  1  0  0  0  0
 44 31  1  0  0  0  0
 45 49  1  0  0  0  0
 45 33  1  0  0  0  0
 46 54  1  0  0  0  0
 46 45  1  0  0  0  0
 47 48  1  0  0  0  0
 47 46  1  0  0  0  0
 48 49  1  0  0  0  0
 49 59  1  1  0  0  0
 49 50  1  0  0  0  0
 50 51  2  0  0  0  0
 50 52  1  0  0  0  0
 53 46  1  0  0  0  0
 55 47  1  0  0  0  0
 56 47  1  0  0  0  0
 57 48  1  0  0  0  0
 58 48  1  0  0  0  0
M  END
$$$$
