LWQ.pdb
 OpenBabel07022418483D

 62 63  0  0  1  0  0  0  0  0999 V2000
    2.5470    0.6330    4.3970 C   0  0  0  0  0  0  0  0  0  0  0  0
    2.8940   -0.0800    3.1090 C   0  0  0  0  0  0  0  0  0  0  0  0
    3.9700   -1.1390    3.3500 C   0  0  0  0  0  0  0  0  0  0  0  0
    3.3190    0.8850    2.0550 C   0  0  0  0  0  0  0  0  0  0  0  0
    2.2730    1.8840    1.7130 C   0  0  2  0  0  0  0  0  0  0  0  0
    1.8920    2.6880    2.8550 N   0  0  0  0  0  0  0  0  0  0  0  0
    1.0630    1.2390    1.0910 C   0  0  0  0  0  0  0  0  0  0  0  0
    1.2720    0.5260    0.0910 O   0  0  0  0  0  0  0  0  0  0  0  0
    2.6200   -0.1540    5.2010 H   0  0  0  0  0  0  0  0  0  0  0  0
    3.2150    1.4830    4.6230 H   0  0  0  0  0  0  0  0  0  0  0  0
    1.4800    0.9030    4.3610 H   0  0  0  0  0  0  0  0  0  0  0  0
    1.9890   -0.6580    2.8130 H   0  0  0  0  0  0  0  0  0  0  0  0
    3.6350   -1.6910    4.2600 H   0  0  0  0  0  0  0  0  0  0  0  0
    3.9030   -1.8620    2.5090 H   0  0  0  0  0  0  0  0  0  0  0  0
    4.9660   -0.7040    3.4850 H   0  0  0  0  0  0  0  0  0  0  0  0
    4.2180    1.4180    2.4420 H   0  0  0  0  0  0  0  0  0  0  0  0
    3.6250    0.3470    1.1310 H   0  0  0  0  0  0  0  0  0  0  0  0
    2.6930    2.5880    0.9430 H   0  0  0  0  0  0  0  0  0  0  0  0
    1.1760    3.4200    2.5670 H   0  0  0  0  0  0  0  0  0  0  0  0
    2.7340    3.2800    3.1160 H   0  0  0  0  0  0  0  0  0  0  0  0
   -0.2320    1.4190    1.5940 N   0  0  0  0  0  0  0  0  0  0  0  0
   -1.3660    0.7750    0.9690 C   0  0  1  0  0  0  0  0  0  0  0  0
   -1.9660    1.5790   -0.1180 C   0  0  0  0  0  0  0  0  0  0  0  0
   -1.1220    1.9690   -1.2360 C   0  0  0  0  0  0  0  0  0  0  0  0
   -0.5060    3.2010   -1.3750 C   0  0  0  0  0  0  0  0  0  0  0  0
    0.1990    3.1780   -2.5030 N   0  0  0  0  0  0  0  0  0  0  0  0
    0.0780    1.9880   -3.1190 C   0  0  0  0  0  0  0  0  0  0  0  0
    0.6060    1.4830   -4.3070 C   0  0  0  0  0  0  0  0  0  0  0  0
    0.2910    0.1940   -4.6960 C   0  0  0  0  0  0  0  0  0  0  0  0
   -0.5410   -0.5740   -3.9050 C   0  0  0  0  0  0  0  0  0  0  0  0
   -1.0630   -0.0770   -2.7330 C   0  0  0  0  0  0  0  0  0  0  0  0
   -0.7540    1.2300   -2.3200 C   0  0  0  0  0  0  0  0  0  0  0  0
   -1.2850   -0.6740    0.8320 C   0  0  0  0  0  0  0  0  0  0  0  0
   -0.1860   -1.2430    1.1620 O   0  0  0  0  0  0  0  0  0  0  0  0
   -0.3120    2.0510    2.4490 H   0  0  0  0  0  0  0  0  0  0  0  0
   -2.1760    0.8670    1.8220 H   0  0  0  0  0  0  0  0  0  0  0  0
   -2.3660    2.5300    0.3550 H   0  0  0  0  0  0  0  0  0  0  0  0
   -2.8970    1.0510   -0.4370 H   0  0  0  0  0  0  0  0  0  0  0  0
   -0.5620    4.0540   -0.7090 H   0  0  0  0  0  0  0  0  0  0  0  0
    0.7950    3.9440   -2.9250 H   0  0  0  0  0  0  0  0  0  0  0  0
    1.2590    2.1050   -4.9140 H   0  0  0  0  0  0  0  0  0  0  0  0
    0.6850   -0.2340   -5.6170 H   0  0  0  0  0  0  0  0  0  0  0  0
   -0.8120   -1.5850   -4.1740 H   0  0  0  0  0  0  0  0  0  0  0  0
   -1.7210   -0.6560   -2.1040 H   0  0  0  0  0  0  0  0  0  0  0  0
   -3.1830   -7.1490    0.1110 N   0  0  0  0  0  0  0  0  0  0  0  0
   -3.4800   -5.8020    0.4880 C   0  0  0  0  0  0  0  0  0  0  0  0
   -4.4520   -5.2470   -0.1000 O   0  0  0  0  0  0  0  0  0  0  0  0
   -2.7040   -5.0850    1.5170 C   0  0  0  0  0  0  0  0  0  0  0  0
   -2.7730   -3.6080    1.4810 C   0  0  0  0  0  0  0  0  0  0  0  0
   -2.0920   -2.9750    0.3020 C   0  0  2  0  0  0  0  0  0  0  0  0
   -2.3040   -1.5180    0.3790 N   0  0  0  0  0  0  0  0  0  0  0  0
   -2.4100   -3.5310   -1.0000 C   0  0  0  0  0  0  0  0  0  0  0  0
   -3.1550   -2.9310   -1.8520 O   0  0  0  0  0  0  0  0  0  0  0  0
   -1.9210   -4.7760   -1.4540 O   0  0  0  0  0  0  0  0  0  0  0  0
   -2.2890   -7.3370   -0.3810 H   0  0  0  0  0  0  0  0  0  0  0  0
   -3.8170   -7.9440    0.3060 H   0  0  0  0  0  0  0  0  0  0  0  0
   -3.0010   -5.4990    2.5340 H   0  0  0  0  0  0  0  0  0  0  0  0
   -1.6340   -5.4620    1.4260 H   0  0  0  0  0  0  0  0  0  0  0  0
   -3.8330   -3.2490    1.5850 H   0  0  0  0  0  0  0  0  0  0  0  0
   -2.2570   -3.2450    2.4220 H   0  0  0  0  0  0  0  0  0  0  0  0
   -0.9820   -3.1450    0.5070 H   0  0  0  0  0  0  0  0  0  0  0  0
   -3.2060   -1.1090    0.0980 H   0  0  0  0  0  0  0  0  0  0  0  0
  1 10  1  0  0  0  0
  1  9  1  0  0  0  0
  2  3  1  0  0  0  0
  2  1  1  0  0  0  0
  3 15  1  0  0  0  0
  3 13  1  0  0  0  0
  4 16  1  0  0  0  0
  4  2  1  0  0  0  0
  5 18  1  6  0  0  0
  5  4  1  0  0  0  0
  5  6  1  0  0  0  0
  6 20  1  0  0  0  0
  7 21  1  0  0  0  0
  7  5  1  0  0  0  0
  8  7  2  0  0  0  0
 11  1  1  0  0  0  0
 12  2  1  0  0  0  0
 14  3  1  0  0  0  0
 17  4  1  0  0  0  0
 19  6  1  0  0  0  0
 21 35  1  0  0  0  0
 22 21  1  0  0  0  0
 22 36  1  1  0  0  0
 23 37  1  0  0  0  0
 23 22  1  0  0  0  0
 24 23  1  0  0  0  0
 25 24  2  0  0  0  0
 25 39  1  0  0  0  0
 26 25  1  0  0  0  0
 27 26  1  0  0  0  0
 27 32  1  0  0  0  0
 28 27  2  0  0  0  0
 29 28  1  0  0  0  0
 29 30  2  0  0  0  0
 30 31  1  0  0  0  0
 31 32  2  0  0  0  0
 31 44  1  0  0  0  0
 32 24  1  0  0  0  0
 33 22  1  0  0  0  0
 33 34  2  0  0  0  0
 38 23  1  0  0  0  0
 40 26  1  0  0  0  0
 41 28  1  0  0  0  0
 42 29  1  0  0  0  0
 43 30  1  0  0  0  0
 45 56  1  0  0  0  0
 45 46  1  0  0  0  0
 46 48  1  0  0  0  0
 47 46  2  0  0  0  0
 48 57  1  0  0  0  0
 49 48  1  0  0  0  0
 49 59  1  0  0  0  0
 49 60  1  0  0  0  0
 50 51  1  0  0  0  0
 50 61  1  1  0  0  0
 50 49  1  0  0  0  0
 51 33  1  0  0  0  0
 52 50  1  0  0  0  0
 53 52  2  0  0  0  0
 54 52  1  0  0  0  0
 55 45  1  0  0  0  0
 58 48  1  0  0  0  0
 62 51  1  0  0  0  0
M  END
$$$$
