LWS.pdb
 OpenBabel07022418483D

 56 57  0  0  1  0  0  0  0  0999 V2000
   -0.0440    1.3560    4.8880 C   0  0  0  0  0  0  0  0  0  0  0  0
    0.1620    0.0590    4.1060 C   0  0  0  0  0  0  0  0  0  0  0  0
   -0.1600   -1.0820    5.0120 C   0  0  0  0  0  0  0  0  0  0  0  0
    1.5270    0.0290    3.5290 C   0  0  0  0  0  0  0  0  0  0  0  0
    1.7930   -1.2380    2.7600 C   0  0  2  0  0  0  0  0  0  0  0  0
    3.1620   -1.2020    2.2260 N   0  0  0  0  0  0  0  0  0  0  0  0
    0.8210   -1.3560    1.6520 C   0  0  0  0  0  0  0  0  0  0  0  0
   -0.4090   -1.5640    1.7800 O   0  0  0  0  0  0  0  0  0  0  0  0
    0.5050    1.2850    5.8650 H   0  0  0  0  0  0  0  0  0  0  0  0
    0.3700    2.2230    4.3400 H   0  0  0  0  0  0  0  0  0  0  0  0
   -1.1130    1.5140    5.1080 H   0  0  0  0  0  0  0  0  0  0  0  0
   -0.6050    0.0850    3.2830 H   0  0  0  0  0  0  0  0  0  0  0  0
    0.7010   -1.2660    5.6960 H   0  0  0  0  0  0  0  0  0  0  0  0
   -1.0630   -0.8360    5.6290 H   0  0  0  0  0  0  0  0  0  0  0  0
   -0.3360   -2.0420    4.4870 H   0  0  0  0  0  0  0  0  0  0  0  0
    2.2890    0.2000    4.3260 H   0  0  0  0  0  0  0  0  0  0  0  0
    1.6040    0.8570    2.7660 H   0  0  0  0  0  0  0  0  0  0  0  0
    1.7650   -2.0780    3.4610 H   0  0  0  0  0  0  0  0  0  0  0  0
    3.3720   -2.1730    1.9020 H   0  0  0  0  0  0  0  0  0  0  0  0
    3.7720   -1.0190    3.0530 H   0  0  0  0  0  0  0  0  0  0  0  0
    1.2460   -1.2340    0.2720 N   0  0  0  0  0  0  0  0  0  0  0  0
    0.3170   -1.3480   -0.8330 C   0  0  1  0  0  0  0  0  0  0  0  0
    0.2180   -0.0570   -1.6090 C   0  0  0  0  0  0  0  0  0  0  0  0
   -0.2510    1.0640   -0.7540 C   0  0  0  0  0  0  0  0  0  0  0  0
    0.5080    2.1040   -0.2170 C   0  0  0  0  0  0  0  0  0  0  0  0
   -0.2900    2.9090    0.4940 N   0  0  0  0  0  0  0  0  0  0  0  0
   -1.5610    2.4630    0.4660 C   0  0  0  0  0  0  0  0  0  0  0  0
   -2.7190    2.9450    1.0380 C   0  0  0  0  0  0  0  0  0  0  0  0
   -3.9130    2.2820    0.8470 C   0  0  0  0  0  0  0  0  0  0  0  0
   -3.8970    1.1400    0.0750 C   0  0  0  0  0  0  0  0  0  0  0  0
   -2.7300    0.6670   -0.4920 C   0  0  0  0  0  0  0  0  0  0  0  0
   -1.5370    1.3210   -0.3070 C   0  0  0  0  0  0  0  0  0  0  0  0
    0.6980   -2.4940   -1.6570 C   0  0  0  0  0  0  0  0  0  0  0  0
    1.7090   -3.1720   -1.3500 O   0  0  0  0  0  0  0  0  0  0  0  0
    2.2600   -1.0590    0.1050 H   0  0  0  0  0  0  0  0  0  0  0  0
   -0.7120   -1.5250   -0.4060 H   0  0  0  0  0  0  0  0  0  0  0  0
    1.2720    0.1990   -1.9280 H   0  0  0  0  0  0  0  0  0  0  0  0
   -0.3710   -0.1290   -2.5150 H   0  0  0  0  0  0  0  0  0  0  0  0
    1.5790    2.1670   -0.4030 H   0  0  0  0  0  0  0  0  0  0  0  0
    0.0260    3.7720    1.0070 H   0  0  0  0  0  0  0  0  0  0  0  0
   -2.7290    3.8400    1.6400 H   0  0  0  0  0  0  0  0  0  0  0  0
   -4.8420    2.6560    1.2960 H   0  0  0  0  0  0  0  0  0  0  0  0
   -4.8310    0.6020   -0.0870 H   0  0  0  0  0  0  0  0  0  0  0  0
   -2.7040   -0.2330   -1.1030 H   0  0  0  0  0  0  0  0  0  0  0  0
   -0.7510   -5.5840   -2.2040 O   0  0  0  0  0  0  0  0  0  0  0  0
   -0.6260   -5.1810   -3.5350 C   0  0  0  0  0  0  0  0  0  0  0  0
    0.3910   -4.0530   -3.6130 C   0  0  2  0  0  0  0  0  0  0  0  0
   -0.0110   -2.9220   -2.8250 N   0  0  0  0  0  0  0  0  0  0  0  0
    0.6440   -3.6700   -5.0210 C   0  0  0  0  0  0  0  0  0  0  0  0
    1.0100   -4.5110   -5.8790 O   0  0  0  0  0  0  0  0  0  0  0  0
    0.4650   -2.3420   -5.3820 O   0  0  0  0  0  0  0  0  0  0  0  0
   -1.5950   -5.2470   -1.8560 H   0  0  0  0  0  0  0  0  0  0  0  0
   -0.2120   -6.0140   -4.1350 H   0  0  0  0  0  0  0  0  0  0  0  0
   -1.5990   -4.8390   -3.9120 H   0  0  0  0  0  0  0  0  0  0  0  0
    1.3410   -4.4440   -3.1490 H   0  0  0  0  0  0  0  0  0  0  0  0
   -0.8390   -2.3840   -3.0940 H   0  0  0  0  0  0  0  0  0  0  0  0
  1 11  1  0  0  0  0
  1  9  1  0  0  0  0
  2  1  1  0  0  0  0
  2  3  1  0  0  0  0
  3 14  1  0  0  0  0
  3 13  1  0  0  0  0
  4  2  1  0  0  0  0
  4 16  1  0  0  0  0
  5 18  1  1  0  0  0
  5  4  1  0  0  0  0
  6  5  1  0  0  0  0
  6 20  1  0  0  0  0
  7  8  2  0  0  0  0
  7  5  1  0  0  0  0
 10  1  1  0  0  0  0
 12  2  1  0  0  0  0
 15  3  1  0  0  0  0
 17  4  1  0  0  0  0
 19  6  1  0  0  0  0
 21  7  1  0  0  0  0
 22 36  1  1  0  0  0
 22 21  1  0  0  0  0
 23 22  1  0  0  0  0
 23 24  1  0  0  0  0
 24 32  1  0  0  0  0
 24 25  2  0  0  0  0
 25 26  1  0  0  0  0
 26 40  1  0  0  0  0
 27 26  1  0  0  0  0
 27 28  1  0  0  0  0
 28 41  1  0  0  0  0
 29 28  2  0  0  0  0
 29 42  1  0  0  0  0
 30 29  1  0  0  0  0
 31 32  1  0  0  0  0
 31 30  2  0  0  0  0
 32 27  2  0  0  0  0
 33 34  2  0  0  0  0
 33 22  1  0  0  0  0
 35 21  1  0  0  0  0
 37 23  1  0  0  0  0
 38 23  1  0  0  0  0
 39 25  1  0  0  0  0
 43 30  1  0  0  0  0
 44 31  1  0  0  0  0
 45 52  1  0  0  0  0
 46 45  1  0  0  0  0
 47 46  1  0  0  0  0
 47 55  1  1  0  0  0
 47 48  1  0  0  0  0
 48 33  1  0  0  0  0
 49 47  1  0  0  0  0
 50 49  2  0  0  0  0
 51 49  1  0  0  0  0
 53 46  1  0  0  0  0
 54 46  1  0  0  0  0
 56 48  1  0  0  0  0
M  END
$$$$
