LWV.pdb
 OpenBabel07022418483D

 61 62  0  0  1  0  0  0  0  0999 V2000
    3.7280   -0.4840    2.6770 C   0  0  0  0  0  0  0  0  0  0  0  0
    2.7950    0.6150    3.0810 C   0  0  0  0  0  0  0  0  0  0  0  0
    3.6160    1.8470    3.3820 C   0  0  0  0  0  0  0  0  0  0  0  0
    1.6860    0.8580    2.1230 C   0  0  0  0  0  0  0  0  0  0  0  0
    2.1510    1.2430    0.7400 C   0  0  2  0  0  0  0  0  0  0  0  0
    2.9300    2.4680    0.8420 N   0  0  0  0  0  0  0  0  0  0  0  0
    1.0090    1.5230   -0.1670 C   0  0  0  0  0  0  0  0  0  0  0  0
    0.8300    2.6640   -0.7040 O   0  0  0  0  0  0  0  0  0  0  0  0
    3.2140   -1.3330    2.1820 H   0  0  0  0  0  0  0  0  0  0  0  0
    4.5110   -0.1550    1.9440 H   0  0  0  0  0  0  0  0  0  0  0  0
    4.2790   -0.9210    3.5340 H   0  0  0  0  0  0  0  0  0  0  0  0
    2.3250    0.2990    4.0500 H   0  0  0  0  0  0  0  0  0  0  0  0
    2.9890    2.7610    3.4420 H   0  0  0  0  0  0  0  0  0  0  0  0
    4.4850    1.9650    2.7020 H   0  0  0  0  0  0  0  0  0  0  0  0
    4.0460    1.7110    4.3970 H   0  0  0  0  0  0  0  0  0  0  0  0
    1.0400   -0.0420    2.0960 H   0  0  0  0  0  0  0  0  0  0  0  0
    1.0510    1.6880    2.4940 H   0  0  0  0  0  0  0  0  0  0  0  0
    2.8050    0.4710    0.3170 H   0  0  0  0  0  0  0  0  0  0  0  0
    2.3550    3.2890    1.1210 H   0  0  0  0  0  0  0  0  0  0  0  0
    3.5160    2.6460    0.0020 H   0  0  0  0  0  0  0  0  0  0  0  0
    0.0710    0.4960   -0.4620 N   0  0  0  0  0  0  0  0  0  0  0  0
   -1.0570    0.6480   -1.3140 C   0  0  1  0  0  0  0  0  0  0  0  0
   -1.0230   -0.1120   -2.6020 C   0  0  0  0  0  0  0  0  0  0  0  0
   -0.9150   -1.5640   -2.4890 C   0  0  0  0  0  0  0  0  0  0  0  0
   -1.9650   -2.4490   -2.6040 C   0  0  0  0  0  0  0  0  0  0  0  0
   -1.4560   -3.6740   -2.4250 N   0  0  0  0  0  0  0  0  0  0  0  0
   -0.1150   -3.6140   -2.1970 C   0  0  0  0  0  0  0  0  0  0  0  0
    0.8540   -4.5600   -1.9640 C   0  0  0  0  0  0  0  0  0  0  0  0
    2.1680   -4.2130   -1.7680 C   0  0  0  0  0  0  0  0  0  0  0  0
    2.5390   -2.8820   -1.8040 C   0  0  0  0  0  0  0  0  0  0  0  0
    1.5740   -1.9330   -2.0370 C   0  0  0  0  0  0  0  0  0  0  0  0
    0.2470   -2.2850   -2.2340 C   0  0  0  0  0  0  0  0  0  0  0  0
   -2.3260    0.3270   -0.6180 C   0  0  0  0  0  0  0  0  0  0  0  0
   -3.3810    0.4520   -1.3280 O   0  0  0  0  0  0  0  0  0  0  0  0
    0.2310   -0.4280   -0.0080 H   0  0  0  0  0  0  0  0  0  0  0  0
   -1.0980    1.7420   -1.6260 H   0  0  0  0  0  0  0  0  0  0  0  0
   -1.9710    0.1320   -3.1390 H   0  0  0  0  0  0  0  0  0  0  0  0
   -0.2240    0.2850   -3.3010 H   0  0  0  0  0  0  0  0  0  0  0  0
   -3.0250   -2.2430   -2.8030 H   0  0  0  0  0  0  0  0  0  0  0  0
   -2.0030   -4.5780   -2.4510 H   0  0  0  0  0  0  0  0  0  0  0  0
    0.5960   -5.6070   -1.9300 H   0  0  0  0  0  0  0  0  0  0  0  0
    2.9470   -4.9690   -1.5810 H   0  0  0  0  0  0  0  0  0  0  0  0
    3.5920   -2.6520   -1.6440 H   0  0  0  0  0  0  0  0  0  0  0  0
    1.8740   -0.8990   -2.0650 H   0  0  0  0  0  0  0  0  0  0  0  0
   -3.6950   -2.7480    0.5920 C   0  0  0  0  0  0  0  0  0  0  0  0
   -3.8340   -1.8030    1.7730 C   0  0  0  0  0  0  0  0  0  0  0  0
   -2.9460   -2.2420    2.8680 C   0  0  0  0  0  0  0  0  0  0  0  0
   -3.6550   -0.3810    1.3290 C   0  0  2  0  0  0  0  0  0  0  0  0
   -2.3950   -0.0930    0.7390 N   0  0  0  0  0  0  0  0  0  0  0  0
   -3.9030    0.5420    2.4670 C   0  0  0  0  0  0  0  0  0  0  0  0
   -4.9790    0.4320    3.1090 O   0  0  0  0  0  0  0  0  0  0  0  0
   -3.0100    1.5240    2.8670 O   0  0  0  0  0  0  0  0  0  0  0  0
   -4.1820   -2.3140   -0.3160 H   0  0  0  0  0  0  0  0  0  0  0  0
   -4.1870   -3.7210    0.7740 H   0  0  0  0  0  0  0  0  0  0  0  0
   -2.6150   -2.9300    0.3780 H   0  0  0  0  0  0  0  0  0  0  0  0
   -4.8960   -1.8980    2.1180 H   0  0  0  0  0  0  0  0  0  0  0  0
   -2.0170   -2.7280    2.4490 H   0  0  0  0  0  0  0  0  0  0  0  0
   -3.4190   -3.0430    3.4930 H   0  0  0  0  0  0  0  0  0  0  0  0
   -2.5980   -1.4740    3.5540 H   0  0  0  0  0  0  0  0  0  0  0  0
   -4.4790   -0.1990    0.5800 H   0  0  0  0  0  0  0  0  0  0  0  0
   -1.4850   -0.1680    1.2380 H   0  0  0  0  0  0  0  0  0  0  0  0
  1  2  1  0  0  0  0
  1 11  1  0  0  0  0
  2  3  1  0  0  0  0
  2 12  1  0  0  0  0
  3 13  1  0  0  0  0
  3 15  1  0  0  0  0
  4 17  1  0  0  0  0
  4  2  1  0  0  0  0
  5 18  1  6  0  0  0
  5  6  1  0  0  0  0
  5  4  1  0  0  0  0
  6 19  1  0  0  0  0
  7  5  1  0  0  0  0
  8  7  2  0  0  0  0
  9  1  1  0  0  0  0
 10  1  1  0  0  0  0
 14  3  1  0  0  0  0
 16  4  1  0  0  0  0
 20  6  1  0  0  0  0
 21  7  1  0  0  0  0
 21 35  1  0  0  0  0
 22 36  1  6  0  0  0
 22 33  1  0  0  0  0
 22 21  1  0  0  0  0
 23 24  1  0  0  0  0
 23 22  1  0  0  0  0
 24 32  1  0  0  0  0
 25 24  2  0  0  0  0
 25 26  1  0  0  0  0
 26 27  1  0  0  0  0
 27 28  1  0  0  0  0
 28 41  1  0  0  0  0
 28 29  2  0  0  0  0
 29 42  1  0  0  0  0
 30 29  1  0  0  0  0
 30 43  1  0  0  0  0
 31 30  2  0  0  0  0
 32 27  2  0  0  0  0
 32 31  1  0  0  0  0
 33 49  1  0  0  0  0
 34 33  2  0  0  0  0
 37 23  1  0  0  0  0
 38 23  1  0  0  0  0
 39 25  1  0  0  0  0
 40 26  1  0  0  0  0
 44 31  1  0  0  0  0
 45 54  1  0  0  0  0
 45 46  1  0  0  0  0
 46 56  1  0  0  0  0
 46 47  1  0  0  0  0
 47 58  1  0  0  0  0
 47 59  1  0  0  0  0
 48 60  1  6  0  0  0
 48 46  1  0  0  0  0
 48 50  1  0  0  0  0
 49 61  1  0  0  0  0
 49 48  1  0  0  0  0
 50 52  2  0  0  0  0
 50 51  1  0  0  0  0
 53 45  1  0  0  0  0
 55 45  1  0  0  0  0
 57 47  1  0  0  0  0
M  END
$$$$
