LWW.pdb
 OpenBabel07022418483D

 69 72  0  0  1  0  0  0  0  0999 V2000
   -1.3070   -2.5980    2.7640 C   0  0  0  0  0  0  0  0  0  0  0  0
   -1.6670   -4.0620    2.7480 C   0  0  0  0  0  0  0  0  0  0  0  0
   -1.1740   -4.7520    3.9700 C   0  0  0  0  0  0  0  0  0  0  0  0
   -1.3160   -4.7090    1.4610 C   0  0  0  0  0  0  0  0  0  0  0  0
    0.1090   -4.6830    1.0610 C   0  0  2  0  0  0  0  0  0  0  0  0
    0.9410   -5.3450    2.0550 N   0  0  0  0  0  0  0  0  0  0  0  0
    0.6390   -3.4040    0.5910 C   0  0  0  0  0  0  0  0  0  0  0  0
    1.6900   -2.9210    1.0720 O   0  0  0  0  0  0  0  0  0  0  0  0
   -1.6210   -2.0990    1.8270 H   0  0  0  0  0  0  0  0  0  0  0  0
   -1.8330   -2.0560    3.5930 H   0  0  0  0  0  0  0  0  0  0  0  0
   -0.2180   -2.4270    2.9720 H   0  0  0  0  0  0  0  0  0  0  0  0
   -2.7970   -4.0850    2.8140 H   0  0  0  0  0  0  0  0  0  0  0  0
   -0.1080   -4.6430    4.1860 H   0  0  0  0  0  0  0  0  0  0  0  0
   -1.5370   -5.8060    3.9890 H   0  0  0  0  0  0  0  0  0  0  0  0
   -1.7020   -4.2630    4.8440 H   0  0  0  0  0  0  0  0  0  0  0  0
   -1.6690   -5.7660    1.4210 H   0  0  0  0  0  0  0  0  0  0  0  0
   -1.9020   -4.1950    0.6420 H   0  0  0  0  0  0  0  0  0  0  0  0
    0.1770   -5.3790    0.1640 H   0  0  0  0  0  0  0  0  0  0  0  0
    0.3890   -6.1870    2.3700 H   0  0  0  0  0  0  0  0  0  0  0  0
    1.8280   -5.6720    1.6510 H   0  0  0  0  0  0  0  0  0  0  0  0
   -0.0370   -2.6960   -0.4210 N   0  0  0  0  0  0  0  0  0  0  0  0
    0.4890   -1.4060   -0.9030 C   0  0  1  0  0  0  0  0  0  0  0  0
    1.0320   -1.6150   -2.2780 C   0  0  0  0  0  0  0  0  0  0  0  0
    1.6180   -0.4320   -2.9080 C   0  0  0  0  0  0  0  0  0  0  0  0
    1.1430    0.3450   -3.9540 C   0  0  0  0  0  0  0  0  0  0  0  0
    2.0120    1.3260   -4.2460 N   0  0  0  0  0  0  0  0  0  0  0  0
    3.0790    1.2420   -3.4220 C   0  0  0  0  0  0  0  0  0  0  0  0
    4.2350    1.9740   -3.2870 C   0  0  0  0  0  0  0  0  0  0  0  0
    5.1590    1.6440   -2.3380 C   0  0  0  0  0  0  0  0  0  0  0  0
    4.9590    0.5720   -1.4940 C   0  0  0  0  0  0  0  0  0  0  0  0
    3.7930   -0.1510   -1.6440 C   0  0  0  0  0  0  0  0  0  0  0  0
    2.8420    0.1540   -2.5890 C   0  0  0  0  0  0  0  0  0  0  0  0
   -0.5700   -0.3910   -0.8700 C   0  0  0  0  0  0  0  0  0  0  0  0
   -1.7530   -0.8050   -0.5710 O   0  0  0  0  0  0  0  0  0  0  0  0
   -0.9100   -3.0280   -0.8670 H   0  0  0  0  0  0  0  0  0  0  0  0
    1.3460   -1.1610   -0.2500 H   0  0  0  0  0  0  0  0  0  0  0  0
    1.7010   -2.5090   -2.3420 H   0  0  0  0  0  0  0  0  0  0  0  0
    0.1550   -1.9120   -2.9380 H   0  0  0  0  0  0  0  0  0  0  0  0
    0.1970    0.1690   -4.4550 H   0  0  0  0  0  0  0  0  0  0  0  0
    1.9460    2.0800   -4.9840 H   0  0  0  0  0  0  0  0  0  0  0  0
    4.4130    2.8100   -3.9300 H   0  0  0  0  0  0  0  0  0  0  0  0
    6.0940    2.2040   -2.2000 H   0  0  0  0  0  0  0  0  0  0  0  0
    5.6560    0.2650   -0.7260 H   0  0  0  0  0  0  0  0  0  0  0  0
    3.6010   -1.0160   -0.9890 H   0  0  0  0  0  0  0  0  0  0  0  0
   -0.4290    0.9950   -1.1230 N   0  0  0  0  0  0  0  0  0  0  0  0
   -1.5390    1.8930   -1.0400 C   0  0  1  0  0  0  0  0  0  0  0  0
   -1.3790    2.9060    0.0800 C   0  0  0  0  0  0  0  0  0  0  0  0
   -1.2590    2.2740    1.4200 C   0  0  0  0  0  0  0  0  0  0  0  0
   -0.1220    2.1070    2.1790 C   0  0  0  0  0  0  0  0  0  0  0  0
   -0.4740    1.4920    3.3200 N   0  0  0  0  0  0  0  0  0  0  0  0
   -1.7890    1.2510    3.3370 C   0  0  0  0  0  0  0  0  0  0  0  0
   -2.6110    0.6420    4.2930 C   0  0  0  0  0  0  0  0  0  0  0  0
   -3.9630    0.5090    4.0730 C   0  0  0  0  0  0  0  0  0  0  0  0
   -4.4740    0.9930    2.8870 C   0  0  0  0  0  0  0  0  0  0  0  0
   -3.6530    1.6000    1.9340 C   0  0  0  0  0  0  0  0  0  0  0  0
   -2.2960    1.7340    2.1550 C   0  0  0  0  0  0  0  0  0  0  0  0
   -1.8530    2.6570   -2.2570 C   0  0  0  0  0  0  0  0  0  0  0  0
   -2.8220    3.4650   -2.3120 O   0  0  0  0  0  0  0  0  0  0  0  0
   -1.0860    2.5110   -3.3910 O   0  0  0  0  0  0  0  0  0  0  0  0
    0.5120    1.3560   -1.3670 H   0  0  0  0  0  0  0  0  0  0  0  0
   -2.4600    1.2860   -0.7850 H   0  0  0  0  0  0  0  0  0  0  0  0
   -0.4920    3.5460   -0.0830 H   0  0  0  0  0  0  0  0  0  0  0  0
   -2.3070    3.5310    0.0980 H   0  0  0  0  0  0  0  0  0  0  0  0
    0.8730    2.4150    1.9080 H   0  0  0  0  0  0  0  0  0  0  0  0
    0.1980    1.2370    4.0930 H   0  0  0  0  0  0  0  0  0  0  0  0
   -2.2070    0.2610    5.2260 H   0  0  0  0  0  0  0  0  0  0  0  0
   -4.6390    0.0410    4.7900 H   0  0  0  0  0  0  0  0  0  0  0  0
   -5.5400    0.8910    2.7090 H   0  0  0  0  0  0  0  0  0  0  0  0
   -4.0480    1.9790    1.0090 H   0  0  0  0  0  0  0  0  0  0  0  0
  1 11  1  0  0  0  0
  1 10  1  0  0  0  0
  2  1  1  0  0  0  0
  2 12  1  0  0  0  0
  2  3  1  0  0  0  0
  3 14  1  0  0  0  0
  3 13  1  0  0  0  0
  3 15  1  0  0  0  0
  4  2  1  0  0  0  0
  5 18  1  6  0  0  0
  5  4  1  0  0  0  0
  5  6  1  0  0  0  0
  6 19  1  0  0  0  0
  7  5  1  0  0  0  0
  7  8  2  0  0  0  0
  9  1  1  0  0  0  0
 16  4  1  0  0  0  0
 17  4  1  0  0  0  0
 20  6  1  0  0  0  0
 21  7  1  0  0  0  0
 22 33  1  0  0  0  0
 22 21  1  0  0  0  0
 22 36  1  1  0  0  0
 23 22  1  0  0  0  0
 24 32  1  0  0  0  0
 24 23  1  0  0  0  0
 25 24  2  0  0  0  0
 26 25  1  0  0  0  0
 26 27  1  0  0  0  0
 27 28  2  0  0  0  0
 27 32  1  0  0  0  0
 28 29  1  0  0  0  0
 29 42  1  0  0  0  0
 29 30  2  0  0  0  0
 30 43  1  0  0  0  0
 31 30  1  0  0  0  0
 31 44  1  0  0  0  0
 32 31  2  0  0  0  0
 33 34  2  0  0  0  0
 35 21  1  0  0  0  0
 37 23  1  0  0  0  0
 38 23  1  0  0  0  0
 39 25  1  0  0  0  0
 40 26  1  0  0  0  0
 41 28  1  0  0  0  0
 45 46  1  0  0  0  0
 45 33  1  0  0  0  0
 46 61  1  1  0  0  0
 46 47  1  0  0  0  0
 47 63  1  0  0  0  0
 47 48  1  0  0  0  0
 48 56  1  0  0  0  0
 48 49  2  0  0  0  0
 49 50  1  0  0  0  0
 50 51  1  0  0  0  0
 50 65  1  0  0  0  0
 51 52  1  0  0  0  0
 52 66  1  0  0  0  0
 53 52  2  0  0  0  0
 53 67  1  0  0  0  0
 54 53  1  0  0  0  0
 55 56  1  0  0  0  0
 55 54  2  0  0  0  0
 56 51  2  0  0  0  0
 57 46  1  0  0  0  0
 58 57  1  0  0  0  0
 59 57  2  0  0  0  0
 60 45  1  0  0  0  0
 62 47  1  0  0  0  0
 64 49  1  0  0  0  0
 68 54  1  0  0  0  0
 69 55  1  0  0  0  0
M  END
$$$$
