LWY.pdb
 OpenBabel07022418483D

 66 68  0  0  1  0  0  0  0  0999 V2000
    4.5220   -1.0320    4.3340 C   0  0  0  0  0  0  0  0  0  0  0  0
    4.2330   -2.0170    3.2260 C   0  0  0  0  0  0  0  0  0  0  0  0
    5.3450   -3.0720    3.3030 C   0  0  0  0  0  0  0  0  0  0  0  0
    2.9040   -2.6960    3.4390 C   0  0  0  0  0  0  0  0  0  0  0  0
    1.8160   -1.6720    3.4710 C   0  0  2  0  0  0  0  0  0  0  0  0
    0.5650   -2.4240    3.6850 N   0  0  0  0  0  0  0  0  0  0  0  0
    1.6830   -0.8790    2.2230 C   0  0  0  0  0  0  0  0  0  0  0  0
    2.5500   -0.0820    1.7880 O   0  0  0  0  0  0  0  0  0  0  0  0
    5.5280   -0.5840    4.0860 H   0  0  0  0  0  0  0  0  0  0  0  0
    4.6830   -1.5790    5.2850 H   0  0  0  0  0  0  0  0  0  0  0  0
    3.7940   -0.2260    4.4160 H   0  0  0  0  0  0  0  0  0  0  0  0
    4.2410   -1.5610    2.2270 H   0  0  0  0  0  0  0  0  0  0  0  0
    5.5130   -3.3050    4.3640 H   0  0  0  0  0  0  0  0  0  0  0  0
    6.2800   -2.6870    2.8640 H   0  0  0  0  0  0  0  0  0  0  0  0
    4.9970   -3.9800    2.7580 H   0  0  0  0  0  0  0  0  0  0  0  0
    2.7300   -3.4390    2.6330 H   0  0  0  0  0  0  0  0  0  0  0  0
    2.9140   -3.2820    4.3850 H   0  0  0  0  0  0  0  0  0  0  0  0
    1.8910   -0.9750    4.3160 H   0  0  0  0  0  0  0  0  0  0  0  0
    0.7460   -3.3380    4.1210 H   0  0  0  0  0  0  0  0  0  0  0  0
   -0.1440   -1.8490    4.1830 H   0  0  0  0  0  0  0  0  0  0  0  0
    0.4910   -0.9910    1.4110 N   0  0  0  0  0  0  0  0  0  0  0  0
    0.3340   -0.2310    0.1910 C   0  0  1  0  0  0  0  0  0  0  0  0
    0.1150   -1.2510   -0.9360 C   0  0  0  0  0  0  0  0  0  0  0  0
   -0.0570   -0.5680   -2.2360 C   0  0  0  0  0  0  0  0  0  0  0  0
   -1.2160   -0.3380   -2.9730 C   0  0  0  0  0  0  0  0  0  0  0  0
   -0.8780    0.3230   -4.0900 N   0  0  0  0  0  0  0  0  0  0  0  0
    0.4440    0.5510   -4.1480 C   0  0  0  0  0  0  0  0  0  0  0  0
    1.2530    1.1820   -5.0830 C   0  0  0  0  0  0  0  0  0  0  0  0
    2.6100    1.2750   -4.8860 C   0  0  0  0  0  0  0  0  0  0  0  0
    3.1320    0.7240   -3.7340 C   0  0  0  0  0  0  0  0  0  0  0  0
    2.3310    0.0960   -2.8020 C   0  0  0  0  0  0  0  0  0  0  0  0
    0.9630   -0.0030   -2.9930 C   0  0  0  0  0  0  0  0  0  0  0  0
   -0.8920    0.6080    0.2160 C   0  0  0  0  0  0  0  0  0  0  0  0
   -1.1980    1.3300   -0.7540 O   0  0  0  0  0  0  0  0  0  0  0  0
   -0.2450   -1.6450    1.7490 H   0  0  0  0  0  0  0  0  0  0  0  0
    1.1950    0.4050   -0.0290 H   0  0  0  0  0  0  0  0  0  0  0  0
    1.0290   -1.8700   -0.9600 H   0  0  0  0  0  0  0  0  0  0  0  0
   -0.7250   -1.8900   -0.6690 H   0  0  0  0  0  0  0  0  0  0  0  0
   -2.1940   -0.6670   -2.6350 H   0  0  0  0  0  0  0  0  0  0  0  0
   -1.5460    0.6240   -4.8240 H   0  0  0  0  0  0  0  0  0  0  0  0
    0.8470    1.6140   -5.9860 H   0  0  0  0  0  0  0  0  0  0  0  0
    3.2670    1.7710   -5.6140 H   0  0  0  0  0  0  0  0  0  0  0  0
    4.1940    0.7960   -3.5780 H   0  0  0  0  0  0  0  0  0  0  0  0
    2.7210   -0.3460   -1.8870 H   0  0  0  0  0  0  0  0  0  0  0  0
   -4.8570   -3.3460   -2.3530 O   0  0  0  0  0  0  0  0  0  0  0  0
   -4.6990   -2.3810   -1.3660 C   0  0  0  0  0  0  0  0  0  0  0  0
   -3.8950   -2.6700   -0.2710 C   0  0  0  0  0  0  0  0  0  0  0  0
   -3.7250   -1.7350    0.7100 C   0  0  0  0  0  0  0  0  0  0  0  0
   -4.3300   -0.4970    0.6570 C   0  0  0  0  0  0  0  0  0  0  0  0
   -4.1250    0.4950    1.7410 C   0  0  0  0  0  0  0  0  0  0  0  0
   -2.9410    1.3750    1.4680 C   0  0  2  0  0  0  0  0  0  0  0  0
   -1.7290    0.5900    1.3590 N   0  0  0  0  0  0  0  0  0  0  0  0
   -2.7870    2.3900    2.5670 C   0  0  0  0  0  0  0  0  0  0  0  0
   -3.7090    3.1880    2.8480 O   0  0  0  0  0  0  0  0  0  0  0  0
   -5.1280   -0.2130   -0.4320 C   0  0  0  0  0  0  0  0  0  0  0  0
   -5.2980   -1.1570   -1.4210 C   0  0  0  0  0  0  0  0  0  0  0  0
   -1.6100    2.4630    3.2950 O   0  0  0  0  0  0  0  0  0  0  0  0
   -4.9900   -4.3360   -2.1530 H   0  0  0  0  0  0  0  0  0  0  0  0
   -3.3900   -3.6230   -0.1680 H   0  0  0  0  0  0  0  0  0  0  0  0
   -3.0890   -1.9740    1.5710 H   0  0  0  0  0  0  0  0  0  0  0  0
   -5.0630    1.0710    1.8490 H   0  0  0  0  0  0  0  0  0  0  0  0
   -3.9580   -0.0170    2.7100 H   0  0  0  0  0  0  0  0  0  0  0  0
   -3.1350    1.9640    0.5550 H   0  0  0  0  0  0  0  0  0  0  0  0
   -1.4640   -0.0190    2.1700 H   0  0  0  0  0  0  0  0  0  0  0  0
   -5.6340    0.7370   -0.5400 H   0  0  0  0  0  0  0  0  0  0  0  0
   -5.9240   -0.9330   -2.2750 H   0  0  0  0  0  0  0  0  0  0  0  0
  1 11  1  0  0  0  0
  1 10  1  0  0  0  0
  2  3  1  0  0  0  0
  2  4  1  0  0  0  0
  2  1  1  0  0  0  0
  3 13  1  0  0  0  0
  4  5  1  0  0  0  0
  4 17  1  0  0  0  0
  5  6  1  0  0  0  0
  5 18  1  1  0  0  0
  6 19  1  0  0  0  0
  6 20  1  0  0  0  0
  7  5  1  0  0  0  0
  8  7  2  0  0  0  0
  9  1  1  0  0  0  0
 12  2  1  0  0  0  0
 14  3  1  0  0  0  0
 15  3  1  0  0  0  0
 16  4  1  0  0  0  0
 21 35  1  0  0  0  0
 21  7  1  0  0  0  0
 22 36  1  6  0  0  0
 22 33  1  0  0  0  0
 22 21  1  0  0  0  0
 23 38  1  0  0  0  0
 23 22  1  0  0  0  0
 24 23  1  0  0  0  0
 25 39  1  0  0  0  0
 25 24  2  0  0  0  0
 26 25  1  0  0  0  0
 27 26  1  0  0  0  0
 27 32  1  0  0  0  0
 28 29  1  0  0  0  0
 28 27  2  0  0  0  0
 29 30  2  0  0  0  0
 30 43  1  0  0  0  0
 30 31  1  0  0  0  0
 31 44  1  0  0  0  0
 32 31  2  0  0  0  0
 32 24  1  0  0  0  0
 33 52  1  0  0  0  0
 34 33  2  0  0  0  0
 37 23  1  0  0  0  0
 40 26  1  0  0  0  0
 41 28  1  0  0  0  0
 42 29  1  0  0  0  0
 45 58  1  0  0  0  0
 45 46  1  0  0  0  0
 46 47  1  0  0  0  0
 47 59  1  0  0  0  0
 47 48  2  0  0  0  0
 48 60  1  0  0  0  0
 49 48  1  0  0  0  0
 49 50  1  0  0  0  0
 50 61  1  0  0  0  0
 50 62  1  0  0  0  0
 51 63  1  6  0  0  0
 51 50  1  0  0  0  0
 51 53  1  0  0  0  0
 52 51  1  0  0  0  0
 52 64  1  0  0  0  0
 53 54  2  0  0  0  0
 53 57  1  0  0  0  0
 55 49  2  0  0  0  0
 56 46  2  0  0  0  0
 56 55  1  0  0  0  0
 65 55  1  0  0  0  0
 66 56  1  0  0  0  0
M  END
$$$$
