LYC.pdb
 OpenBabel07022418483D

 53 53  0  0  1  0  0  0  0  0999 V2000
    1.3660   -1.8350    5.1190 C   0  0  0  0  0  0  0  0  0  0  0  0
    1.3600   -1.9630    3.6170 C   0  0  0  0  0  0  0  0  0  0  0  0
   -0.0110   -2.3220    3.1470 C   0  0  0  0  0  0  0  0  0  0  0  0
    2.0170   -0.8400    2.9110 C   0  0  0  0  0  0  0  0  0  0  0  0
    1.4640    0.5170    3.1220 C   0  0  2  0  0  0  0  0  0  0  0  0
    1.5070    0.9030    4.5260 N   0  0  0  0  0  0  0  0  0  0  0  0
    0.1620    0.8070    2.5370 C   0  0  0  0  0  0  0  0  0  0  0  0
   -0.7430    1.3010    3.2570 O   0  0  0  0  0  0  0  0  0  0  0  0
    2.3590   -1.5050    5.4910 H   0  0  0  0  0  0  0  0  0  0  0  0
    0.5440   -1.2030    5.4990 H   0  0  0  0  0  0  0  0  0  0  0  0
    1.2000   -2.8530    5.5330 H   0  0  0  0  0  0  0  0  0  0  0  0
    1.9950   -2.8790    3.4090 H   0  0  0  0  0  0  0  0  0  0  0  0
   -0.6450   -1.4390    3.1480 H   0  0  0  0  0  0  0  0  0  0  0  0
   -0.4670   -3.0420    3.8770 H   0  0  0  0  0  0  0  0  0  0  0  0
    0.0180   -2.8780    2.1820 H   0  0  0  0  0  0  0  0  0  0  0  0
    2.0000   -1.0610    1.8230 H   0  0  0  0  0  0  0  0  0  0  0  0
    3.0890   -0.8240    3.2060 H   0  0  0  0  0  0  0  0  0  0  0  0
    2.1950    1.2300    2.6290 H   0  0  0  0  0  0  0  0  0  0  0  0
    1.0870    1.8480    4.6410 H   0  0  0  0  0  0  0  0  0  0  0  0
    2.4710    0.9170    4.8820 H   0  0  0  0  0  0  0  0  0  0  0  0
    2.4100    0.6930   -4.5160 O   0  0  0  0  0  0  0  0  0  0  0  0
    1.5000    1.0100   -3.5160 C   0  0  0  0  0  0  0  0  0  0  0  0
    1.9170    1.5920   -2.3290 C   0  0  0  0  0  0  0  0  0  0  0  0
    1.0310    1.9110   -1.3320 C   0  0  0  0  0  0  0  0  0  0  0  0
   -0.3090    1.6510   -1.5080 C   0  0  0  0  0  0  0  0  0  0  0  0
   -1.2750    2.0050   -0.4240 C   0  0  0  0  0  0  0  0  0  0  0  0
   -1.4270    0.8500    0.5830 C   0  0  2  0  0  0  0  0  0  0  0  0
   -0.1420    0.5600    1.1740 N   0  0  0  0  0  0  0  0  0  0  0  0
   -2.0280   -0.2940   -0.1430 C   0  0  0  0  0  0  0  0  0  0  0  0
   -3.1790   -0.1550   -0.6880 O   0  0  0  0  0  0  0  0  0  0  0  0
   -0.7350    1.0760   -2.6790 C   0  0  0  0  0  0  0  0  0  0  0  0
    0.1510    0.7530   -3.6830 C   0  0  0  0  0  0  0  0  0  0  0  0
    2.5770    1.2570   -5.3230 H   0  0  0  0  0  0  0  0  0  0  0  0
    2.9870    1.7990   -2.1910 H   0  0  0  0  0  0  0  0  0  0  0  0
    1.3610    2.3730   -0.3890 H   0  0  0  0  0  0  0  0  0  0  0  0
   -0.9500    2.9260    0.1030 H   0  0  0  0  0  0  0  0  0  0  0  0
   -2.2760    2.1180   -0.8900 H   0  0  0  0  0  0  0  0  0  0  0  0
   -2.1220    1.2360    1.3620 H   0  0  0  0  0  0  0  0  0  0  0  0
    0.6190    0.1470    0.5940 H   0  0  0  0  0  0  0  0  0  0  0  0
   -1.8160    0.8790   -2.8010 H   0  0  0  0  0  0  0  0  0  0  0  0
   -0.2250    0.2920   -4.6100 H   0  0  0  0  0  0  0  0  0  0  0  0
   -1.4060   -1.5650   -0.2840 N   0  0  0  0  0  0  0  0  0  0  0  0
   -2.0950   -2.6010   -1.0210 C   0  0  1  0  0  0  0  0  0  0  0  0
   -1.2990   -3.0980   -2.1890 C   0  0  0  0  0  0  0  0  0  0  0  0
   -2.2740   -4.3910   -3.0240 S   0  0  0  0  0  0  0  0  0  0  0  0
   -2.4750   -3.7680   -0.1890 C   0  0  0  0  0  0  0  0  0  0  0  0
   -2.2510   -3.8850    1.0330 O   0  0  0  0  0  0  0  0  0  0  0  0
   -3.1330   -4.8070   -0.8330 O   0  0  0  0  0  0  0  0  0  0  0  0
   -0.4680   -1.7140    0.1480 H   0  0  0  0  0  0  0  0  0  0  0  0
   -3.0710   -2.2150   -1.4380 H   0  0  0  0  0  0  0  0  0  0  0  0
   -0.3360   -3.5540   -1.8680 H   0  0  0  0  0  0  0  0  0  0  0  0
   -1.1270   -2.3000   -2.9610 H   0  0  0  0  0  0  0  0  0  0  0  0
   -1.6170   -5.6280   -2.9550 H   0  0  0  0  0  0  0  0  0  0  0  0
  1  9  1  0  0  0  0
  1 10  1  0  0  0  0
  1 11  1  0  0  0  0
  2  1  1  0  0  0  0
  3 13  1  0  0  0  0
  3  2  1  0  0  0  0
  3 14  1  0  0  0  0
  4  5  1  0  0  0  0
  4 17  1  0  0  0  0
  4  2  1  0  0  0  0
  5 18  1  6  0  0  0
  5  6  1  0  0  0  0
  6 19  1  0  0  0  0
  6 20  1  0  0  0  0
  7  5  1  0  0  0  0
  7  8  2  0  0  0  0
 12  2  1  0  0  0  0
 15  3  1  0  0  0  0
 16  4  1  0  0  0  0
 21 22  1  0  0  0  0
 22 23  1  0  0  0  0
 23 34  1  0  0  0  0
 23 24  2  0  0  0  0
 24 35  1  0  0  0  0
 25 24  1  0  0  0  0
 25 26  1  0  0  0  0
 26 36  1  0  0  0  0
 26 27  1  0  0  0  0
 27 28  1  0  0  0  0
 27 38  1  1  0  0  0
 28  7  1  0  0  0  0
 29 27  1  0  0  0  0
 30 29  2  0  0  0  0
 31 25  2  0  0  0  0
 32 22  2  0  0  0  0
 32 31  1  0  0  0  0
 33 21  1  0  0  0  0
 37 26  1  0  0  0  0
 39 28  1  0  0  0  0
 40 31  1  0  0  0  0
 41 32  1  0  0  0  0
 42 29  1  0  0  0  0
 42 49  1  0  0  0  0
 43 50  1  6  0  0  0
 43 42  1  0  0  0  0
 43 46  1  0  0  0  0
 44 51  1  0  0  0  0
 44 43  1  0  0  0  0
 45 53  1  0  0  0  0
 45 44  1  0  0  0  0
 46 47  1  0  0  0  0
 48 46  2  0  0  0  0
 52 44  1  0  0  0  0
M  END
$$$$
