LYE.pdb
 OpenBabel07022418483D

 58 58  0  0  1  0  0  0  0  0999 V2000
    1.4190    1.0720    4.1710 C   0  0  0  0  0  0  0  0  0  0  0  0
    2.8980    1.0780    4.2360 C   0  0  0  0  0  0  0  0  0  0  0  0
    3.2900    1.3390    5.6990 C   0  0  0  0  0  0  0  0  0  0  0  0
    3.5790   -0.1720    3.8260 C   0  0  0  0  0  0  0  0  0  0  0  0
    3.3450   -0.6350    2.4340 C   0  0  2  0  0  0  0  0  0  0  0  0
    3.7540    0.2930    1.4100 N   0  0  0  0  0  0  0  0  0  0  0  0
    1.9780   -1.1700    2.1930 C   0  0  0  0  0  0  0  0  0  0  0  0
    1.5300   -1.9770    3.0500 O   0  0  0  0  0  0  0  0  0  0  0  0
    0.9550    0.1800    4.6550 H   0  0  0  0  0  0  0  0  0  0  0  0
    0.9750    1.2000    3.1870 H   0  0  0  0  0  0  0  0  0  0  0  0
    1.0520    1.9410    4.7950 H   0  0  0  0  0  0  0  0  0  0  0  0
    3.2860    1.9500    3.6730 H   0  0  0  0  0  0  0  0  0  0  0  0
    2.4720    1.8710    6.2150 H   0  0  0  0  0  0  0  0  0  0  0  0
    3.3670    0.3340    6.2070 H   0  0  0  0  0  0  0  0  0  0  0  0
    4.2630    1.8370    5.7660 H   0  0  0  0  0  0  0  0  0  0  0  0
    3.3710   -1.0250    4.5060 H   0  0  0  0  0  0  0  0  0  0  0  0
    4.6890   -0.0010    3.9260 H   0  0  0  0  0  0  0  0  0  0  0  0
    4.0210   -1.5350    2.2980 H   0  0  0  0  0  0  0  0  0  0  0  0
    4.5580   -0.0160    0.8470 H   0  0  0  0  0  0  0  0  0  0  0  0
    3.9810    1.2280    1.8530 H   0  0  0  0  0  0  0  0  0  0  0  0
   -0.3320    3.3550   -3.1940 O   0  0  0  0  0  0  0  0  0  0  0  0
   -0.5380    2.4580   -2.1510 C   0  0  0  0  0  0  0  0  0  0  0  0
    0.0000    2.7310   -0.9140 C   0  0  0  0  0  0  0  0  0  0  0  0
   -0.2340    1.8100    0.0850 C   0  0  0  0  0  0  0  0  0  0  0  0
   -0.9790    0.6600   -0.1490 C   0  0  0  0  0  0  0  0  0  0  0  0
   -1.2120   -0.3270    0.9520 C   0  0  0  0  0  0  0  0  0  0  0  0
   -0.1330   -1.4000    0.9370 C   0  0  2  0  0  0  0  0  0  0  0  0
    1.1740   -0.8400    1.0970 N   0  0  0  0  0  0  0  0  0  0  0  0
   -0.2480   -2.2560   -0.2860 C   0  0  0  0  0  0  0  0  0  0  0  0
    0.6960   -2.3370   -1.0770 O   0  0  0  0  0  0  0  0  0  0  0  0
   -1.5020    0.4190   -1.3990 C   0  0  0  0  0  0  0  0  0  0  0  0
   -1.2730    1.3360   -2.4040 C   0  0  0  0  0  0  0  0  0  0  0  0
   -0.7390    3.2310   -4.1040 H   0  0  0  0  0  0  0  0  0  0  0  0
    0.5700    3.6330   -0.7790 H   0  0  0  0  0  0  0  0  0  0  0  0
    0.1700    1.9850    1.0700 H   0  0  0  0  0  0  0  0  0  0  0  0
   -2.2030   -0.8060    0.8810 H   0  0  0  0  0  0  0  0  0  0  0  0
   -1.1670    0.2180    1.9120 H   0  0  0  0  0  0  0  0  0  0  0  0
   -0.3380   -2.0650    1.8000 H   0  0  0  0  0  0  0  0  0  0  0  0
    1.5500   -0.1710    0.3910 H   0  0  0  0  0  0  0  0  0  0  0  0
   -2.0900   -0.4920   -1.5970 H   0  0  0  0  0  0  0  0  0  0  0  0
   -1.7000    1.1210   -3.3900 H   0  0  0  0  0  0  0  0  0  0  0  0
   -1.4080   -2.9980   -0.5880 N   0  0  0  0  0  0  0  0  0  0  0  0
   -1.7560   -3.8540   -1.5980 C   0  0  1  0  0  0  0  0  0  0  0  0
   -2.6630   -3.6500   -2.6940 C   0  0  0  0  0  0  0  0  0  0  0  0
   -4.0990   -3.3700   -2.3940 C   0  0  0  0  0  0  0  0  0  0  0  0
   -4.4510   -2.1750   -1.6530 C   0  0  0  0  0  0  0  0  0  0  0  0
   -4.6140   -2.0850   -0.4140 O   0  0  0  0  0  0  0  0  0  0  0  0
   -0.5480   -4.6320   -2.0840 C   0  0  0  0  0  0  0  0  0  0  0  0
    0.5360   -4.6320   -1.5270 O   0  0  0  0  0  0  0  0  0  0  0  0
   -4.6400   -0.9670   -2.3570 O   0  0  0  0  0  0  0  0  0  0  0  0
   -0.6810   -5.4050   -3.2530 O   0  0  0  0  0  0  0  0  0  0  0  0
   -2.1810   -2.8530    0.1680 H   0  0  0  0  0  0  0  0  0  0  0  0
   -2.2420   -4.7790   -1.0080 H   0  0  0  0  0  0  0  0  0  0  0  0
   -2.7100   -4.6500   -3.2610 H   0  0  0  0  0  0  0  0  0  0  0  0
   -2.2940   -3.0010   -3.5360 H   0  0  0  0  0  0  0  0  0  0  0  0
   -4.5690   -4.2420   -1.8200 H   0  0  0  0  0  0  0  0  0  0  0  0
   -4.7020   -3.4270   -3.3680 H   0  0  0  0  0  0  0  0  0  0  0  0
   -4.4470   -0.1170   -1.8450 H   0  0  0  0  0  0  0  0  0  0  0  0
  1  2  1  0  0  0  0
  1  9  1  0  0  0  0
  1 11  1  0  0  0  0
  2  3  1  0  0  0  0
  3 15  1  0  0  0  0
  3 14  1  0  0  0  0
  3 13  1  0  0  0  0
  4 17  1  0  0  0  0
  4  2  1  0  0  0  0
  4 16  1  0  0  0  0
  5 18  1  6  0  0  0
  5  4  1  0  0  0  0
  6 20  1  0  0  0  0
  6  5  1  0  0  0  0
  7  5  1  0  0  0  0
  7  8  2  0  0  0  0
 10  1  1  0  0  0  0
 12  2  1  0  0  0  0
 19  6  1  0  0  0  0
 21 22  1  0  0  0  0
 22 23  1  0  0  0  0
 23 34  1  0  0  0  0
 23 24  2  0  0  0  0
 24 35  1  0  0  0  0
 25 24  1  0  0  0  0
 25 26  1  0  0  0  0
 26 37  1  0  0  0  0
 27 26  1  0  0  0  0
 27 28  1  0  0  0  0
 27 38  1  1  0  0  0
 28  7  1  0  0  0  0
 29 27  1  0  0  0  0
 30 29  2  0  0  0  0
 31 25  2  0  0  0  0
 32 22  2  0  0  0  0
 32 31  1  0  0  0  0
 33 21  1  0  0  0  0
 36 26  1  0  0  0  0
 39 28  1  0  0  0  0
 40 31  1  0  0  0  0
 41 32  1  0  0  0  0
 42 29  1  0  0  0  0
 42 52  1  0  0  0  0
 43 53  1  1  0  0  0
 43 42  1  0  0  0  0
 44 45  1  0  0  0  0
 44 43  1  0  0  0  0
 45 56  1  0  0  0  0
 45 46  1  0  0  0  0
 46 47  2  0  0  0  0
 48 43  1  0  0  0  0
 48 49  1  0  0  0  0
 50 58  1  0  0  0  0
 50 46  1  0  0  0  0
 51 48  2  0  0  0  0
 54 44  1  0  0  0  0
 55 44  1  0  0  0  0
 57 45  1  0  0  0  0
M  END
$$$$
