LYH.pdb
 OpenBabel07022418483D

 59 60  0  0  1  0  0  0  0  0999 V2000
    0.3940   -0.5750    3.8970 C   0  0  0  0  0  0  0  0  0  0  0  0
    1.8300   -0.7570    3.5610 C   0  0  0  0  0  0  0  0  0  0  0  0
    2.1140   -2.2630    3.5150 C   0  0  0  0  0  0  0  0  0  0  0  0
    2.3000   -0.1900    2.2740 C   0  0  0  0  0  0  0  0  0  0  0  0
    2.1130    1.3030    2.1510 C   0  0  2  0  0  0  0  0  0  0  0  0
    2.8050    2.0310    3.1730 N   0  0  0  0  0  0  0  0  0  0  0  0
    0.6950    1.6700    1.9720 C   0  0  0  0  0  0  0  0  0  0  0  0
    0.0430    2.4490    2.6960 O   0  0  0  0  0  0  0  0  0  0  0  0
    0.2130    0.3070    4.5520 H   0  0  0  0  0  0  0  0  0  0  0  0
    0.0880   -1.4510    4.5440 H   0  0  0  0  0  0  0  0  0  0  0  0
   -0.2990   -0.6110    3.0400 H   0  0  0  0  0  0  0  0  0  0  0  0
    2.4270   -0.3650    4.4350 H   0  0  0  0  0  0  0  0  0  0  0  0
    1.3510   -2.7800    2.8870 H   0  0  0  0  0  0  0  0  0  0  0  0
    3.1180   -2.4660    3.1040 H   0  0  0  0  0  0  0  0  0  0  0  0
    2.0640   -2.7190    4.5140 H   0  0  0  0  0  0  0  0  0  0  0  0
    1.8030   -0.6710    1.4300 H   0  0  0  0  0  0  0  0  0  0  0  0
    3.3900   -0.3840    2.1950 H   0  0  0  0  0  0  0  0  0  0  0  0
    2.6200    1.5830    1.1780 H   0  0  0  0  0  0  0  0  0  0  0  0
    3.6940    1.5200    3.3750 H   0  0  0  0  0  0  0  0  0  0  0  0
    3.0820    2.9960    2.8830 H   0  0  0  0  0  0  0  0  0  0  0  0
    0.3110   -0.3430   -5.3030 O   0  0  0  0  0  0  0  0  0  0  0  0
   -0.1460    0.3000   -4.1370 C   0  0  0  0  0  0  0  0  0  0  0  0
    0.7350    1.0790   -3.4150 C   0  0  0  0  0  0  0  0  0  0  0  0
    0.2450    1.7000   -2.2650 C   0  0  0  0  0  0  0  0  0  0  0  0
   -1.0580    1.5550   -1.8500 C   0  0  0  0  0  0  0  0  0  0  0  0
   -1.5310    2.2220   -0.6440 C   0  0  0  0  0  0  0  0  0  0  0  0
   -1.3530    1.3820    0.6240 C   0  0  2  0  0  0  0  0  0  0  0  0
    0.0220    1.0630    0.8500 N   0  0  0  0  0  0  0  0  0  0  0  0
   -2.1520    0.1410    0.5200 C   0  0  0  0  0  0  0  0  0  0  0  0
   -3.4160    0.2180    0.3340 O   0  0  0  0  0  0  0  0  0  0  0  0
   -1.9130    0.7750   -2.5860 C   0  0  0  0  0  0  0  0  0  0  0  0
   -1.4510    0.1500   -3.7280 C   0  0  0  0  0  0  0  0  0  0  0  0
   -0.3430   -0.4430   -6.0530 H   0  0  0  0  0  0  0  0  0  0  0  0
    1.7500    1.1890   -3.7430 H   0  0  0  0  0  0  0  0  0  0  0  0
    0.9460    2.3130   -1.7020 H   0  0  0  0  0  0  0  0  0  0  0  0
   -1.0400    3.1900   -0.4330 H   0  0  0  0  0  0  0  0  0  0  0  0
   -2.6200    2.4010   -0.7400 H   0  0  0  0  0  0  0  0  0  0  0  0
   -1.7720    1.9990    1.4290 H   0  0  0  0  0  0  0  0  0  0  0  0
    0.5100    0.4060    0.2080 H   0  0  0  0  0  0  0  0  0  0  0  0
   -2.9520    0.6000   -2.3430 H   0  0  0  0  0  0  0  0  0  0  0  0
   -2.1250   -0.4770   -4.3250 H   0  0  0  0  0  0  0  0  0  0  0  0
   -1.6320   -1.1710    0.6100 N   0  0  0  0  0  0  0  0  0  0  0  0
   -2.4630   -2.3420    0.4960 C   0  0  1  0  0  0  0  0  0  0  0  0
   -2.1320   -3.0880   -0.7820 C   0  0  0  0  0  0  0  0  0  0  0  0
   -0.7350   -3.5290   -0.8330 C   0  0  0  0  0  0  0  0  0  0  0  0
   -0.1940   -4.7160   -0.3930 C   0  0  0  0  0  0  0  0  0  0  0  0
    1.1180   -4.6890   -0.6410 N   0  0  0  0  0  0  0  0  0  0  0  0
    1.4090   -3.5170   -1.2250 C   0  0  0  0  0  0  0  0  0  0  0  0
    0.2830   -2.8170   -1.3390 N   0  0  0  0  0  0  0  0  0  0  0  0
   -2.3620   -3.2540    1.6510 C   0  0  0  0  0  0  0  0  0  0  0  0
   -1.6030   -2.9660    2.5950 O   0  0  0  0  0  0  0  0  0  0  0  0
   -3.1020   -4.4130    1.6810 O   0  0  0  0  0  0  0  0  0  0  0  0
   -0.6110   -1.3020    0.7650 H   0  0  0  0  0  0  0  0  0  0  0  0
   -3.5210   -1.9840    0.3490 H   0  0  0  0  0  0  0  0  0  0  0  0
   -2.4300   -2.4410   -1.6310 H   0  0  0  0  0  0  0  0  0  0  0  0
   -2.7980   -3.9790   -0.8150 H   0  0  0  0  0  0  0  0  0  0  0  0
   -0.7230   -5.5570    0.0840 H   0  0  0  0  0  0  0  0  0  0  0  0
    1.7660   -5.4740   -0.4020 H   0  0  0  0  0  0  0  0  0  0  0  0
    2.4230   -3.2600   -1.5240 H   0  0  0  0  0  0  0  0  0  0  0  0
  1 10  1  0  0  0  0
  1  9  1  0  0  0  0
  2  1  1  0  0  0  0
  2 12  1  0  0  0  0
  3  2  1  0  0  0  0
  3 15  1  0  0  0  0
  4  2  1  0  0  0  0
  5 18  1  6  0  0  0
  5  4  1  0  0  0  0
  5  6  1  0  0  0  0
  6 19  1  0  0  0  0
  7  5  1  0  0  0  0
  7  8  2  0  0  0  0
 11  1  1  0  0  0  0
 13  3  1  0  0  0  0
 14  3  1  0  0  0  0
 16  4  1  0  0  0  0
 17  4  1  0  0  0  0
 20  6  1  0  0  0  0
 21 22  1  0  0  0  0
 22 32  2  0  0  0  0
 22 23  1  0  0  0  0
 23 24  2  0  0  0  0
 24 25  1  0  0  0  0
 24 35  1  0  0  0  0
 25 26  1  0  0  0  0
 26 36  1  0  0  0  0
 26 27  1  0  0  0  0
 27 28  1  0  0  0  0
 27 38  1  1  0  0  0
 28  7  1  0  0  0  0
 29 42  1  0  0  0  0
 29 27  1  0  0  0  0
 30 29  2  0  0  0  0
 31 40  1  0  0  0  0
 31 25  2  0  0  0  0
 32 31  1  0  0  0  0
 33 21  1  0  0  0  0
 34 23  1  0  0  0  0
 37 26  1  0  0  0  0
 39 28  1  0  0  0  0
 41 32  1  0  0  0  0
 42 53  1  0  0  0  0
 43 54  1  6  0  0  0
 43 42  1  0  0  0  0
 43 50  1  0  0  0  0
 44 43  1  0  0  0  0
 45 44  1  0  0  0  0
 45 46  2  0  0  0  0
 46 57  1  0  0  0  0
 47 58  1  0  0  0  0
 47 46  1  0  0  0  0
 48 47  1  0  0  0  0
 49 48  2  0  0  0  0
 49 45  1  0  0  0  0
 50 52  2  0  0  0  0
 50 51  1  0  0  0  0
 55 44  1  0  0  0  0
 56 44  1  0  0  0  0
 59 48  1  0  0  0  0
M  END
$$$$
