LYI.pdb
 OpenBabel07022418483D

 61 61  0  0  1  0  0  0  0  0999 V2000
    3.1570   -2.3740   -0.6620 C   0  0  0  0  0  0  0  0  0  0  0  0
    3.6020   -0.9490   -0.4040 C   0  0  0  0  0  0  0  0  0  0  0  0
    5.0620   -0.8210   -0.8350 C   0  0  0  0  0  0  0  0  0  0  0  0
    3.5310   -0.5750    1.0390 C   0  0  0  0  0  0  0  0  0  0  0  0
    2.1570   -0.6730    1.6280 C   0  0  2  0  0  0  0  0  0  0  0  0
    1.6290   -2.0050    1.5460 N   0  0  0  0  0  0  0  0  0  0  0  0
    1.2180    0.3460    1.0900 C   0  0  0  0  0  0  0  0  0  0  0  0
    1.5150    1.5690    1.0790 O   0  0  0  0  0  0  0  0  0  0  0  0
    3.5130   -3.0640    0.1380 H   0  0  0  0  0  0  0  0  0  0  0  0
    3.6150   -2.7530   -1.6050 H   0  0  0  0  0  0  0  0  0  0  0  0
    2.0650   -2.3950   -0.7760 H   0  0  0  0  0  0  0  0  0  0  0  0
    3.0250   -0.2730   -1.0480 H   0  0  0  0  0  0  0  0  0  0  0  0
    5.4720   -1.8100   -1.1210 H   0  0  0  0  0  0  0  0  0  0  0  0
    5.6900   -0.3840   -0.0400 H   0  0  0  0  0  0  0  0  0  0  0  0
    5.1740   -0.1630   -1.7210 H   0  0  0  0  0  0  0  0  0  0  0  0
    4.1910   -1.2520    1.6080 H   0  0  0  0  0  0  0  0  0  0  0  0
    3.9320    0.4410    1.1550 H   0  0  0  0  0  0  0  0  0  0  0  0
    2.2620   -0.4370    2.7220 H   0  0  0  0  0  0  0  0  0  0  0  0
    2.2560   -2.6150    2.1440 H   0  0  0  0  0  0  0  0  0  0  0  0
    0.7010   -2.0100    2.0640 H   0  0  0  0  0  0  0  0  0  0  0  0
    2.9700    0.4370   -4.9980 O   0  0  0  0  0  0  0  0  0  0  0  0
    1.9000    0.5030   -4.1040 C   0  0  0  0  0  0  0  0  0  0  0  0
    1.2530    1.6970   -3.8320 C   0  0  0  0  0  0  0  0  0  0  0  0
    0.1970    1.7980   -2.9580 C   0  0  0  0  0  0  0  0  0  0  0  0
   -0.2410    0.6610   -2.3190 C   0  0  0  0  0  0  0  0  0  0  0  0
   -1.3620    0.6760   -1.3700 C   0  0  0  0  0  0  0  0  0  0  0  0
   -0.9510    0.9240    0.0540 C   0  0  2  0  0  0  0  0  0  0  0  0
   -0.0440   -0.0610    0.5740 N   0  0  0  0  0  0  0  0  0  0  0  0
   -2.1760    0.9220    0.8880 C   0  0  0  0  0  0  0  0  0  0  0  0
   -3.1360    1.7060    0.6360 O   0  0  0  0  0  0  0  0  0  0  0  0
    0.4000   -0.5270   -2.5870 C   0  0  0  0  0  0  0  0  0  0  0  0
    1.4470   -0.6140   -3.4560 C   0  0  0  0  0  0  0  0  0  0  0  0
    3.6830   -0.2540   -4.8490 H   0  0  0  0  0  0  0  0  0  0  0  0
    1.6120    2.5830   -4.3460 H   0  0  0  0  0  0  0  0  0  0  0  0
   -0.2970    2.7600   -2.7630 H   0  0  0  0  0  0  0  0  0  0  0  0
   -2.0430    1.4970   -1.6640 H   0  0  0  0  0  0  0  0  0  0  0  0
   -1.8560   -0.3180   -1.4030 H   0  0  0  0  0  0  0  0  0  0  0  0
   -0.5230    1.9460    0.1240 H   0  0  0  0  0  0  0  0  0  0  0  0
   -0.3260   -1.0660    0.5660 H   0  0  0  0  0  0  0  0  0  0  0  0
    0.0800   -1.4550   -2.0970 H   0  0  0  0  0  0  0  0  0  0  0  0
    1.9210   -1.5900   -3.6310 H   0  0  0  0  0  0  0  0  0  0  0  0
   -3.8620   -3.8090    3.1590 C   0  0  0  0  0  0  0  0  0  0  0  0
   -3.0910   -2.4930    3.1930 C   0  0  0  0  0  0  0  0  0  0  0  0
   -4.0770   -1.4140    2.7780 C   0  0  2  0  0  0  0  0  0  0  0  0
   -4.5600   -1.7460    1.3970 C   0  0  0  0  0  0  0  0  0  0  0  0
   -3.4340   -0.0370    2.8490 C   0  0  2  0  0  0  0  0  0  0  0  0
   -2.3000    0.0470    1.9810 N   0  0  0  0  0  0  0  0  0  0  0  0
   -3.0970    0.2300    4.2620 C   0  0  0  0  0  0  0  0  0  0  0  0
   -1.9050    0.4930    4.5520 O   0  0  0  0  0  0  0  0  0  0  0  0
   -4.0240    0.2080    5.2880 O   0  0  0  0  0  0  0  0  0  0  0  0
   -3.3790   -4.5450    3.8330 H   0  0  0  0  0  0  0  0  0  0  0  0
   -3.9180   -4.2140    2.1210 H   0  0  0  0  0  0  0  0  0  0  0  0
   -4.9230   -3.6580    3.4830 H   0  0  0  0  0  0  0  0  0  0  0  0
   -2.7360   -2.3630    4.2270 H   0  0  0  0  0  0  0  0  0  0  0  0
   -2.2610   -2.5920    2.4740 H   0  0  0  0  0  0  0  0  0  0  0  0
   -4.9200   -1.4520    3.4890 H   0  0  0  0  0  0  0  0  0  0  0  0
   -3.7300   -2.1400    0.7610 H   0  0  0  0  0  0  0  0  0  0  0  0
   -5.0610   -0.8950    0.9150 H   0  0  0  0  0  0  0  0  0  0  0  0
   -5.3040   -2.5820    1.5030 H   0  0  0  0  0  0  0  0  0  0  0  0
   -4.2030    0.6920    2.5290 H   0  0  0  0  0  0  0  0  0  0  0  0
   -1.4950   -0.5950    2.1750 H   0  0  0  0  0  0  0  0  0  0  0  0
  1  2  1  0  0  0  0
  1  9  1  0  0  0  0
  2  4  1  0  0  0  0
  3  2  1  0  0  0  0
  3 14  1  0  0  0  0
  4 17  1  0  0  0  0
  4 16  1  0  0  0  0
  4  5  1  0  0  0  0
  5 18  1  1  0  0  0
  6  5  1  0  0  0  0
  6 20  1  0  0  0  0
  6 19  1  0  0  0  0
  7  5  1  0  0  0  0
  8  7  2  0  0  0  0
 10  1  1  0  0  0  0
 11  1  1  0  0  0  0
 12  2  1  0  0  0  0
 13  3  1  0  0  0  0
 15  3  1  0  0  0  0
 21 33  1  0  0  0  0
 21 22  1  0  0  0  0
 22 23  2  0  0  0  0
 22 32  1  0  0  0  0
 23 24  1  0  0  0  0
 24 35  1  0  0  0  0
 24 25  2  0  0  0  0
 25 26  1  0  0  0  0
 26 27  1  0  0  0  0
 27 38  1  1  0  0  0
 27 28  1  0  0  0  0
 27 29  1  0  0  0  0
 28  7  1  0  0  0  0
 29 47  1  0  0  0  0
 30 29  2  0  0  0  0
 31 25  1  0  0  0  0
 31 40  1  0  0  0  0
 32 31  2  0  0  0  0
 34 23  1  0  0  0  0
 36 26  1  0  0  0  0
 37 26  1  0  0  0  0
 39 28  1  0  0  0  0
 41 32  1  0  0  0  0
 42 43  1  0  0  0  0
 42 53  1  0  0  0  0
 42 51  1  0  0  0  0
 43 54  1  0  0  0  0
 44 46  1  0  0  0  0
 44 43  1  0  0  0  0
 44 56  1  1  0  0  0
 45 59  1  0  0  0  0
 45 44  1  0  0  0  0
 46 60  1  6  0  0  0
 46 48  1  0  0  0  0
 47 61  1  0  0  0  0
 47 46  1  0  0  0  0
 48 49  2  0  0  0  0
 48 50  1  0  0  0  0
 52 42  1  0  0  0  0
 55 43  1  0  0  0  0
 57 45  1  0  0  0  0
 58 45  1  0  0  0  0
M  END
$$$$
