LYK.pdb
 OpenBabel07022418483D

 63 63  0  0  1  0  0  0  0  0999 V2000
    0.7460    0.6060    4.6420 C   0  0  0  0  0  0  0  0  0  0  0  0
    2.0050   -0.1790    4.5590 C   0  0  0  0  0  0  0  0  0  0  0  0
    1.9280   -1.3200    5.5720 C   0  0  0  0  0  0  0  0  0  0  0  0
    2.4980   -0.6100    3.2500 C   0  0  0  0  0  0  0  0  0  0  0  0
    1.7120   -1.5200    2.3910 C   0  0  2  0  0  0  0  0  0  0  0  0
    2.5220   -1.7450    1.1470 N   0  0  0  0  0  0  0  0  0  0  0  0
    0.4150   -0.9770    2.0050 C   0  0  0  0  0  0  0  0  0  0  0  0
   -0.6070   -1.0430    2.7250 O   0  0  0  0  0  0  0  0  0  0  0  0
    0.4570    1.1620    3.7370 H   0  0  0  0  0  0  0  0  0  0  0  0
   -0.1090    0.0370    5.0880 H   0  0  0  0  0  0  0  0  0  0  0  0
    0.8690    1.4530    5.4140 H   0  0  0  0  0  0  0  0  0  0  0  0
    2.8130    0.4960    5.0010 H   0  0  0  0  0  0  0  0  0  0  0  0
    2.9320   -1.6080    5.9150 H   0  0  0  0  0  0  0  0  0  0  0  0
    1.4010   -2.1940    5.1710 H   0  0  0  0  0  0  0  0  0  0  0  0
    1.3360   -0.9370    6.4280 H   0  0  0  0  0  0  0  0  0  0  0  0
    2.7690    0.2940    2.6180 H   0  0  0  0  0  0  0  0  0  0  0  0
    3.5130   -1.1210    3.3980 H   0  0  0  0  0  0  0  0  0  0  0  0
    1.6730   -2.5200    2.8610 H   0  0  0  0  0  0  0  0  0  0  0  0
    3.4050   -2.2160    1.4850 H   0  0  0  0  0  0  0  0  0  0  0  0
    1.9790   -2.5170    0.6550 H   0  0  0  0  0  0  0  0  0  0  0  0
    2.4670    4.2400   -3.3630 O   0  0  0  0  0  0  0  0  0  0  0  0
    1.6080    3.6190   -2.4450 C   0  0  0  0  0  0  0  0  0  0  0  0
    0.3520    3.2400   -2.8710 C   0  0  0  0  0  0  0  0  0  0  0  0
   -0.5110    2.6220   -1.9700 C   0  0  0  0  0  0  0  0  0  0  0  0
   -0.1400    2.3790   -0.6640 C   0  0  0  0  0  0  0  0  0  0  0  0
   -1.0830    1.7290    0.2240 C   0  0  0  0  0  0  0  0  0  0  0  0
   -1.0340    0.2400    0.3120 C   0  0  2  0  0  0  0  0  0  0  0  0
    0.1930   -0.3090    0.7520 N   0  0  0  0  0  0  0  0  0  0  0  0
   -1.5390   -0.4650   -0.8940 C   0  0  0  0  0  0  0  0  0  0  0  0
   -2.6000   -0.1190   -1.4780 O   0  0  0  0  0  0  0  0  0  0  0  0
    1.1250    2.7760   -0.2870 C   0  0  0  0  0  0  0  0  0  0  0  0
    2.0080    3.3890   -1.1420 C   0  0  0  0  0  0  0  0  0  0  0  0
    2.2210    5.1980   -3.6390 H   0  0  0  0  0  0  0  0  0  0  0  0
    0.0290    3.4180   -3.8970 H   0  0  0  0  0  0  0  0  0  0  0  0
   -1.4830    2.3470   -2.3540 H   0  0  0  0  0  0  0  0  0  0  0  0
   -2.1200    1.9970   -0.1080 H   0  0  0  0  0  0  0  0  0  0  0  0
   -1.0400    2.1150    1.2830 H   0  0  0  0  0  0  0  0  0  0  0  0
   -1.7940   -0.0130    1.1210 H   0  0  0  0  0  0  0  0  0  0  0  0
    1.0460   -0.2400    0.1280 H   0  0  0  0  0  0  0  0  0  0  0  0
    1.4160    2.5870    0.7310 H   0  0  0  0  0  0  0  0  0  0  0  0
    2.9950    3.6920   -0.8270 H   0  0  0  0  0  0  0  0  0  0  0  0
   -0.7690   -1.5710   -1.3800 N   0  0  0  0  0  0  0  0  0  0  0  0
   -1.1350   -2.3220   -2.5230 C   0  0  1  0  0  0  0  0  0  0  0  0
   -2.2130   -3.3250   -2.4060 C   0  0  0  0  0  0  0  0  0  0  0  0
   -1.9870   -4.4210   -1.4410 C   0  0  0  0  0  0  0  0  0  0  0  0
   -1.8520   -4.0660   -0.0060 C   0  0  0  0  0  0  0  0  0  0  0  0
   -3.0850   -3.3800    0.5490 C   0  0  0  0  0  0  0  0  0  0  0  0
   -2.8710   -3.0700    1.9460 N   0  0  0  0  0  0  0  0  0  0  0  0
   -1.3900   -1.4170   -3.7180 C   0  0  0  0  0  0  0  0  0  0  0  0
   -1.7720   -1.9150   -4.8070 O   0  0  0  0  0  0  0  0  0  0  0  0
   -1.2140   -0.0520   -3.6520 O   0  0  0  0  0  0  0  0  0  0  0  0
    0.1280   -1.8090   -0.8440 H   0  0  0  0  0  0  0  0  0  0  0  0
   -0.1920   -2.8720   -2.8820 H   0  0  0  0  0  0  0  0  0  0  0  0
   -3.2080   -2.8220   -2.2780 H   0  0  0  0  0  0  0  0  0  0  0  0
   -2.2890   -3.8210   -3.4290 H   0  0  0  0  0  0  0  0  0  0  0  0
   -2.7250   -5.2560   -1.5430 H   0  0  0  0  0  0  0  0  0  0  0  0
   -1.0100   -4.9160   -1.7310 H   0  0  0  0  0  0  0  0  0  0  0  0
   -0.9540   -3.5290    0.2690 H   0  0  0  0  0  0  0  0  0  0  0  0
   -1.7820   -5.0570    0.5490 H   0  0  0  0  0  0  0  0  0  0  0  0
   -3.9540   -4.1020    0.4940 H   0  0  0  0  0  0  0  0  0  0  0  0
   -3.3780   -2.4730    0.0280 H   0  0  0  0  0  0  0  0  0  0  0  0
   -3.1310   -2.1040    2.2000 H   0  0  0  0  0  0  0  0  0  0  0  0
   -3.3170   -3.7280    2.5970 H   0  0  0  0  0  0  0  0  0  0  0  0
  1 10  1  0  0  0  0
  1 11  1  0  0  0  0
  2  1  1  0  0  0  0
  2 12  1  0  0  0  0
  2  3  1  0  0  0  0
  3 13  1  0  0  0  0
  3 15  1  0  0  0  0
  4 17  1  0  0  0  0
  4  2  1  0  0  0  0
  5 18  1  1  0  0  0
  5  4  1  0  0  0  0
  6 19  1  0  0  0  0
  6  5  1  0  0  0  0
  7  5  1  0  0  0  0
  7  8  2  0  0  0  0
  9  1  1  0  0  0  0
 14  3  1  0  0  0  0
 16  4  1  0  0  0  0
 20  6  1  0  0  0  0
 21 22  1  0  0  0  0
 22 32  1  0  0  0  0
 23 22  2  0  0  0  0
 23 24  1  0  0  0  0
 24 25  2  0  0  0  0
 25 31  1  0  0  0  0
 25 26  1  0  0  0  0
 26 27  1  0  0  0  0
 26 37  1  0  0  0  0
 27 28  1  0  0  0  0
 27 38  1  1  0  0  0
 28  7  1  0  0  0  0
 29 27  1  0  0  0  0
 30 29  2  0  0  0  0
 31 40  1  0  0  0  0
 32 41  1  0  0  0  0
 32 31  2  0  0  0  0
 33 21  1  0  0  0  0
 34 23  1  0  0  0  0
 35 24  1  0  0  0  0
 36 26  1  0  0  0  0
 39 28  1  0  0  0  0
 42 29  1  0  0  0  0
 42 52  1  0  0  0  0
 43 53  1  6  0  0  0
 43 44  1  0  0  0  0
 43 42  1  0  0  0  0
 44 54  1  0  0  0  0
 44 45  1  0  0  0  0
 45 46  1  0  0  0  0
 46 58  1  0  0  0  0
 46 47  1  0  0  0  0
 46 59  1  0  0  0  0
 47 48  1  0  0  0  0
 48 62  1  0  0  0  0
 48 63  1  0  0  0  0
 49 51  1  0  0  0  0
 49 43  1  0  0  0  0
 50 49  2  0  0  0  0
 55 44  1  0  0  0  0
 56 45  1  0  0  0  0
 57 45  1  0  0  0  0
 60 47  1  0  0  0  0
 61 47  1  0  0  0  0
M  END
$$$$
