LYL.pdb
 OpenBabel07022418483D

 61 61  0  0  1  0  0  0  0  0999 V2000
    2.3970    3.3750    0.5070 C   0  0  0  0  0  0  0  0  0  0  0  0
    3.3710    3.0290    1.5500 C   0  0  0  0  0  0  0  0  0  0  0  0
    4.4710    2.1780    0.8870 C   0  0  0  0  0  0  0  0  0  0  0  0
    2.9140    2.4090    2.8060 C   0  0  0  0  0  0  0  0  0  0  0  0
    2.2120    1.1170    2.7650 C   0  0  2  0  0  0  0  0  0  0  0  0
    2.9770    0.0410    2.1730 N   0  0  0  0  0  0  0  0  0  0  0  0
    0.7980    1.1430    2.3220 C   0  0  0  0  0  0  0  0  0  0  0  0
   -0.0130    1.9860    2.7860 O   0  0  0  0  0  0  0  0  0  0  0  0
    1.3220    3.2080    0.7530 H   0  0  0  0  0  0  0  0  0  0  0  0
    2.4450    4.4860    0.3200 H   0  0  0  0  0  0  0  0  0  0  0  0
    2.6500    2.9520   -0.4960 H   0  0  0  0  0  0  0  0  0  0  0  0
    3.9360    3.9650    1.8400 H   0  0  0  0  0  0  0  0  0  0  0  0
    5.3170    2.0110    1.5550 H   0  0  0  0  0  0  0  0  0  0  0  0
    4.0640    1.2810    0.4060 H   0  0  0  0  0  0  0  0  0  0  0  0
    4.8600    2.8430    0.0650 H   0  0  0  0  0  0  0  0  0  0  0  0
    3.8380    2.2530    3.4410 H   0  0  0  0  0  0  0  0  0  0  0  0
    2.3000    3.1190    3.4090 H   0  0  0  0  0  0  0  0  0  0  0  0
    2.1380    0.7870    3.8540 H   0  0  0  0  0  0  0  0  0  0  0  0
    3.8640   -0.0290    2.7090 H   0  0  0  0  0  0  0  0  0  0  0  0
    2.4460   -0.8420    2.3790 H   0  0  0  0  0  0  0  0  0  0  0  0
    2.0320   -2.0360   -4.4160 O   0  0  0  0  0  0  0  0  0  0  0  0
    1.2570   -1.3920   -3.4520 C   0  0  0  0  0  0  0  0  0  0  0  0
    1.7770   -0.4840   -2.5650 C   0  0  0  0  0  0  0  0  0  0  0  0
    0.9920    0.1370   -1.6230 C   0  0  0  0  0  0  0  0  0  0  0  0
   -0.3680   -0.1330   -1.5340 C   0  0  0  0  0  0  0  0  0  0  0  0
   -1.1630    0.6050   -0.5300 C   0  0  0  0  0  0  0  0  0  0  0  0
   -1.0630    0.1670    0.8690 C   0  0  2  0  0  0  0  0  0  0  0  0
    0.3140    0.2310    1.3740 N   0  0  0  0  0  0  0  0  0  0  0  0
   -1.7470   -0.9720    1.4080 C   0  0  0  0  0  0  0  0  0  0  0  0
   -1.1030   -1.6900    2.2610 O   0  0  0  0  0  0  0  0  0  0  0  0
   -0.9040   -1.0340   -2.4100 C   0  0  0  0  0  0  0  0  0  0  0  0
   -0.1040   -1.6420   -3.3400 C   0  0  0  0  0  0  0  0  0  0  0  0
    2.8870   -1.5950   -4.7350 H   0  0  0  0  0  0  0  0  0  0  0  0
    2.8340   -0.2710   -2.6320 H   0  0  0  0  0  0  0  0  0  0  0  0
    1.4940    0.8450   -0.9630 H   0  0  0  0  0  0  0  0  0  0  0  0
   -0.8260    1.6850   -0.6470 H   0  0  0  0  0  0  0  0  0  0  0  0
   -2.2310    0.6640   -0.9000 H   0  0  0  0  0  0  0  0  0  0  0  0
   -1.5600    1.0710    1.4630 H   0  0  0  0  0  0  0  0  0  0  0  0
    0.9730   -0.4710    0.9810 H   0  0  0  0  0  0  0  0  0  0  0  0
   -1.9490   -1.2440   -2.3870 H   0  0  0  0  0  0  0  0  0  0  0  0
   -0.5070   -2.3600   -4.0450 H   0  0  0  0  0  0  0  0  0  0  0  0
   -2.8840   -3.4910   -1.1020 C   0  0  0  0  0  0  0  0  0  0  0  0
   -3.5970   -4.2930   -0.0590 C   0  0  0  0  0  0  0  0  0  0  0  0
   -3.0230   -5.7200   -0.1740 C   0  0  0  0  0  0  0  0  0  0  0  0
   -3.3410   -3.8680    1.3440 C   0  0  0  0  0  0  0  0  0  0  0  0
   -3.6920   -2.5190    1.7670 C   0  0  2  0  0  0  0  0  0  0  0  0
   -3.0500   -1.4150    1.1390 N   0  0  0  0  0  0  0  0  0  0  0  0
   -3.6090   -2.4130    3.2810 C   0  0  0  0  0  0  0  0  0  0  0  0
   -4.0780   -3.3410    3.9710 O   0  0  0  0  0  0  0  0  0  0  0  0
   -3.0380   -1.3320    3.9060 O   0  0  0  0  0  0  0  0  0  0  0  0
   -2.0430   -2.9880   -0.6220 H   0  0  0  0  0  0  0  0  0  0  0  0
   -2.4270   -4.1540   -1.8970 H   0  0  0  0  0  0  0  0  0  0  0  0
   -3.5700   -2.8310   -1.6780 H   0  0  0  0  0  0  0  0  0  0  0  0
   -4.6900   -4.3840   -0.2630 H   0  0  0  0  0  0  0  0  0  0  0  0
   -1.9260   -5.6370   -0.3220 H   0  0  0  0  0  0  0  0  0  0  0  0
   -3.4650   -6.1780   -1.0670 H   0  0  0  0  0  0  0  0  0  0  0  0
   -3.2120   -6.2820    0.7660 H   0  0  0  0  0  0  0  0  0  0  0  0
   -3.8910   -4.6180    2.0120 H   0  0  0  0  0  0  0  0  0  0  0  0
   -2.2670   -4.1460    1.5460 H   0  0  0  0  0  0  0  0  0  0  0  0
   -4.8290   -2.3960    1.6060 H   0  0  0  0  0  0  0  0  0  0  0  0
   -3.5730   -0.8670    0.4100 H   0  0  0  0  0  0  0  0  0  0  0  0
  1  9  1  0  0  0  0
  1  2  1  0  0  0  0
  2 12  1  0  0  0  0
  2  4  1  0  0  0  0
  3  2  1  0  0  0  0
  3 13  1  0  0  0  0
  4 17  1  0  0  0  0
  4 16  1  0  0  0  0
  5  4  1  0  0  0  0
  5 18  1  1  0  0  0
  6 20  1  0  0  0  0
  6 19  1  0  0  0  0
  6  5  1  0  0  0  0
  7  5  1  0  0  0  0
  7  8  2  0  0  0  0
 10  1  1  0  0  0  0
 11  1  1  0  0  0  0
 14  3  1  0  0  0  0
 15  3  1  0  0  0  0
 21 22  1  0  0  0  0
 22 32  2  0  0  0  0
 22 23  1  0  0  0  0
 23 24  2  0  0  0  0
 24 25  1  0  0  0  0
 24 35  1  0  0  0  0
 25 26  1  0  0  0  0
 26 27  1  0  0  0  0
 27 28  1  0  0  0  0
 27 29  1  0  0  0  0
 27 38  1  1  0  0  0
 28  7  1  0  0  0  0
 29 30  2  0  0  0  0
 31 40  1  0  0  0  0
 31 25  2  0  0  0  0
 32 31  1  0  0  0  0
 33 21  1  0  0  0  0
 34 23  1  0  0  0  0
 36 26  1  0  0  0  0
 37 26  1  0  0  0  0
 39 28  1  0  0  0  0
 41 32  1  0  0  0  0
 42 51  1  0  0  0  0
 42 43  1  0  0  0  0
 43 45  1  0  0  0  0
 44 43  1  0  0  0  0
 44 57  1  0  0  0  0
 45 59  1  0  0  0  0
 45 46  1  0  0  0  0
 45 58  1  0  0  0  0
 46 60  1  6  0  0  0
 46 48  1  0  0  0  0
 47 29  1  0  0  0  0
 47 46  1  0  0  0  0
 48 50  2  0  0  0  0
 48 49  1  0  0  0  0
 52 42  1  0  0  0  0
 53 42  1  0  0  0  0
 54 43  1  0  0  0  0
 55 44  1  0  0  0  0
 56 44  1  0  0  0  0
 61 47  1  0  0  0  0
M  END
$$$$
