LYM.pdb
 OpenBabel07022418483D

 59 59  0  0  1  0  0  0  0  0999 V2000
    3.0400   -2.2330    3.2360 C   0  0  0  0  0  0  0  0  0  0  0  0
    2.6020   -1.0700    2.3450 C   0  0  0  0  0  0  0  0  0  0  0  0
    3.3000   -1.1660    1.0020 C   0  0  0  0  0  0  0  0  0  0  0  0
    2.9300    0.2440    2.9810 C   0  0  0  0  0  0  0  0  0  0  0  0
    2.4640    1.3770    2.0940 C   0  0  2  0  0  0  0  0  0  0  0  0
    2.8560    2.6400    2.7880 N   0  0  0  0  0  0  0  0  0  0  0  0
    0.9900    1.3310    2.0180 C   0  0  0  0  0  0  0  0  0  0  0  0
    0.3480    2.0150    2.8820 O   0  0  0  0  0  0  0  0  0  0  0  0
    2.7440   -1.9610    4.2710 H   0  0  0  0  0  0  0  0  0  0  0  0
    2.4290   -3.1270    2.9670 H   0  0  0  0  0  0  0  0  0  0  0  0
    4.0980   -2.4770    3.1220 H   0  0  0  0  0  0  0  0  0  0  0  0
    1.5290   -1.1960    2.1890 H   0  0  0  0  0  0  0  0  0  0  0  0
    4.0040   -0.3300    0.8320 H   0  0  0  0  0  0  0  0  0  0  0  0
    3.9360   -2.0870    0.9550 H   0  0  0  0  0  0  0  0  0  0  0  0
    2.6150   -1.2050    0.1400 H   0  0  0  0  0  0  0  0  0  0  0  0
    4.0360    0.3600    3.0910 H   0  0  0  0  0  0  0  0  0  0  0  0
    2.4310    0.3040    3.9890 H   0  0  0  0  0  0  0  0  0  0  0  0
    2.9340    1.3410    1.1060 H   0  0  0  0  0  0  0  0  0  0  0  0
    2.4280    3.4260    2.2460 H   0  0  0  0  0  0  0  0  0  0  0  0
    3.8930    2.6440    2.7860 H   0  0  0  0  0  0  0  0  0  0  0  0
   -0.1590    0.5190   -5.2190 O   0  0  0  0  0  0  0  0  0  0  0  0
   -0.5300    0.7960   -3.9070 C   0  0  0  0  0  0  0  0  0  0  0  0
    0.3420    1.4020   -3.0290 C   0  0  0  0  0  0  0  0  0  0  0  0
   -0.0010    1.6820   -1.7430 C   0  0  0  0  0  0  0  0  0  0  0  0
   -1.2720    1.3560   -1.2680 C   0  0  0  0  0  0  0  0  0  0  0  0
   -1.6860    1.6700    0.0990 C   0  0  0  0  0  0  0  0  0  0  0  0
   -1.2600    0.6740    1.1350 C   0  0  2  0  0  0  0  0  0  0  0  0
    0.1940    0.6200    1.0930 N   0  0  0  0  0  0  0  0  0  0  0  0
   -1.9520   -0.5990    1.1120 C   0  0  0  0  0  0  0  0  0  0  0  0
   -3.2370   -0.5860    1.1770 O   0  0  0  0  0  0  0  0  0  0  0  0
   -2.1180    0.7570   -2.1570 C   0  0  0  0  0  0  0  0  0  0  0  0
   -1.7780    0.4740   -3.4510 C   0  0  0  0  0  0  0  0  0  0  0  0
    0.8230    0.3150   -5.3810 H   0  0  0  0  0  0  0  0  0  0  0  0
    1.3230    1.6480   -3.4120 H   0  0  0  0  0  0  0  0  0  0  0  0
    0.6760    2.1510   -1.0630 H   0  0  0  0  0  0  0  0  0  0  0  0
   -1.2220    2.6620    0.3610 H   0  0  0  0  0  0  0  0  0  0  0  0
   -2.8080    1.8090    0.1200 H   0  0  0  0  0  0  0  0  0  0  0  0
   -1.5440    1.1580    2.1390 H   0  0  0  0  0  0  0  0  0  0  0  0
    0.6590    0.0590    0.3720 H   0  0  0  0  0  0  0  0  0  0  0  0
   -3.1210    0.5050   -1.8150 H   0  0  0  0  0  0  0  0  0  0  0  0
   -2.4780   -0.0040   -4.1280 H   0  0  0  0  0  0  0  0  0  0  0  0
   -3.7200   -2.5460   -1.7140 C   0  0  0  0  0  0  0  0  0  0  0  0
   -2.6920   -3.9470   -2.1350 S   0  0  0  0  0  0  0  0  0  0  0  0
   -1.1720   -3.9860   -1.1910 C   0  0  0  0  0  0  0  0  0  0  0  0
   -1.3400   -4.2120    0.2640 C   0  0  0  0  0  0  0  0  0  0  0  0
   -2.0350   -3.1420    1.0330 C   0  0  2  0  0  0  0  0  0  0  0  0
   -1.3640   -1.8680    1.0300 N   0  0  0  0  0  0  0  0  0  0  0  0
   -2.0750   -3.6620    2.4670 C   0  0  0  0  0  0  0  0  0  0  0  0
   -2.6130   -4.7530    2.6930 O   0  0  0  0  0  0  0  0  0  0  0  0
   -1.5100   -2.8910    3.4370 O   0  0  0  0  0  0  0  0  0  0  0  0
   -4.5940   -2.8180   -1.0830 H   0  0  0  0  0  0  0  0  0  0  0  0
   -3.1120   -1.7580   -1.2400 H   0  0  0  0  0  0  0  0  0  0  0  0
   -4.1150   -2.1160   -2.6690 H   0  0  0  0  0  0  0  0  0  0  0  0
   -0.4750   -4.7780   -1.5790 H   0  0  0  0  0  0  0  0  0  0  0  0
   -0.5850   -3.0340   -1.3240 H   0  0  0  0  0  0  0  0  0  0  0  0
   -1.9860   -5.1420    0.3820 H   0  0  0  0  0  0  0  0  0  0  0  0
   -0.3410   -4.4260    0.7380 H   0  0  0  0  0  0  0  0  0  0  0  0
   -3.0830   -3.0580    0.7440 H   0  0  0  0  0  0  0  0  0  0  0  0
   -0.3030   -1.8810    0.9480 H   0  0  0  0  0  0  0  0  0  0  0  0
  1  9  1  0  0  0  0
  2  4  1  0  0  0  0
  2  1  1  0  0  0  0
  3  2  1  0  0  0  0
  4 16  1  0  0  0  0
  4 17  1  0  0  0  0
  5 18  1  6  0  0  0
  5  6  1  0  0  0  0
  5  4  1  0  0  0  0
  7  5  1  0  0  0  0
  7  8  2  0  0  0  0
 10  1  1  0  0  0  0
 11  1  1  0  0  0  0
 12  2  1  0  0  0  0
 13  3  1  0  0  0  0
 14  3  1  0  0  0  0
 15  3  1  0  0  0  0
 19  6  1  0  0  0  0
 20  6  1  0  0  0  0
 21 22  1  0  0  0  0
 22 32  2  0  0  0  0
 22 23  1  0  0  0  0
 23 24  2  0  0  0  0
 24 25  1  0  0  0  0
 24 35  1  0  0  0  0
 25 26  1  0  0  0  0
 26 37  1  0  0  0  0
 26 36  1  0  0  0  0
 26 27  1  0  0  0  0
 27 38  1  1  0  0  0
 28 27  1  0  0  0  0
 28  7  1  0  0  0  0
 29 27  1  0  0  0  0
 29 30  2  0  0  0  0
 31 40  1  0  0  0  0
 31 25  2  0  0  0  0
 32 31  1  0  0  0  0
 33 21  1  0  0  0  0
 34 23  1  0  0  0  0
 39 28  1  0  0  0  0
 41 32  1  0  0  0  0
 42 52  1  0  0  0  0
 42 51  1  0  0  0  0
 43 42  1  0  0  0  0
 43 44  1  0  0  0  0
 44 45  1  0  0  0  0
 45 56  1  0  0  0  0
 45 57  1  0  0  0  0
 45 46  1  0  0  0  0
 46 58  1  6  0  0  0
 46 48  1  0  0  0  0
 47 46  1  0  0  0  0
 47 29  1  0  0  0  0
 48 49  2  0  0  0  0
 48 50  1  0  0  0  0
 53 42  1  0  0  0  0
 54 44  1  0  0  0  0
 55 44  1  0  0  0  0
 59 47  1  0  0  0  0
M  END
$$$$
