LYP.pdb
 OpenBabel07022418483D

 56 57  0  0  1  0  0  0  0  0999 V2000
    2.3320   -1.9420    2.3510 C   0  0  0  0  0  0  0  0  0  0  0  0
    3.2580   -0.9260    2.9430 C   0  0  0  0  0  0  0  0  0  0  0  0
    4.2670   -0.4440    1.9070 C   0  0  0  0  0  0  0  0  0  0  0  0
    2.6450    0.1640    3.7070 C   0  0  0  0  0  0  0  0  0  0  0  0
    1.7020    1.1080    3.0970 C   0  0  2  0  0  0  0  0  0  0  0  0
    1.3660    2.0540    4.2390 N   0  0  0  0  0  0  0  0  0  0  0  0
    0.4340    0.6820    2.5740 C   0  0  0  0  0  0  0  0  0  0  0  0
   -0.6240    0.7880    3.2940 O   0  0  0  0  0  0  0  0  0  0  0  0
    1.3000   -1.9170    2.7390 H   0  0  0  0  0  0  0  0  0  0  0  0
    2.6830   -2.9980    2.5600 H   0  0  0  0  0  0  0  0  0  0  0  0
    2.3840   -1.8750    1.2430 H   0  0  0  0  0  0  0  0  0  0  0  0
    3.9070   -1.5050    3.6800 H   0  0  0  0  0  0  0  0  0  0  0  0
    5.1420   -1.1220    1.8330 H   0  0  0  0  0  0  0  0  0  0  0  0
    4.6460    0.5600    2.1290 H   0  0  0  0  0  0  0  0  0  0  0  0
    3.8080   -0.4350    0.8900 H   0  0  0  0  0  0  0  0  0  0  0  0
    3.4850    0.7800    4.1590 H   0  0  0  0  0  0  0  0  0  0  0  0
    2.1350   -0.2880    4.6140 H   0  0  0  0  0  0  0  0  0  0  0  0
    2.2800    1.7930    2.4130 H   0  0  0  0  0  0  0  0  0  0  0  0
    0.9400    1.4320    4.9630 H   0  0  0  0  0  0  0  0  0  0  0  0
    2.2920    2.3660    4.6270 H   0  0  0  0  0  0  0  0  0  0  0  0
    1.8310    1.4700   -4.6430 O   0  0  0  0  0  0  0  0  0  0  0  0
    0.9920    1.3110   -3.5340 C   0  0  0  0  0  0  0  0  0  0  0  0
    1.1910    2.0080   -2.3570 C   0  0  0  0  0  0  0  0  0  0  0  0
    0.3850    1.8730   -1.2500 C   0  0  0  0  0  0  0  0  0  0  0  0
   -0.6770    1.0050   -1.3060 C   0  0  0  0  0  0  0  0  0  0  0  0
   -1.5560    0.8490   -0.1280 C   0  0  0  0  0  0  0  0  0  0  0  0
   -1.0910   -0.2310    0.8310 C   0  0  2  0  0  0  0  0  0  0  0  0
    0.2410    0.1440    1.2820 N   0  0  0  0  0  0  0  0  0  0  0  0
   -1.1420   -1.5680    0.2870 C   0  0  0  0  0  0  0  0  0  0  0  0
   -0.0420   -2.2050    0.1970 O   0  0  0  0  0  0  0  0  0  0  0  0
   -0.9200    0.2890   -2.4520 C   0  0  0  0  0  0  0  0  0  0  0  0
   -0.0870    0.4530   -3.5380 C   0  0  0  0  0  0  0  0  0  0  0  0
    2.4050    0.6470   -4.8690 H   0  0  0  0  0  0  0  0  0  0  0  0
    2.0330    2.6970   -2.3090 H   0  0  0  0  0  0  0  0  0  0  0  0
    0.5900    2.4580   -0.3290 H   0  0  0  0  0  0  0  0  0  0  0  0
   -2.5980    0.7140   -0.4140 H   0  0  0  0  0  0  0  0  0  0  0  0
   -1.5080    1.8060    0.4490 H   0  0  0  0  0  0  0  0  0  0  0  0
   -1.7700   -0.1430    1.7030 H   0  0  0  0  0  0  0  0  0  0  0  0
    1.0450    0.0090    0.6320 H   0  0  0  0  0  0  0  0  0  0  0  0
   -1.7770   -0.4140   -2.5050 H   0  0  0  0  0  0  0  0  0  0  0  0
   -0.2870   -0.1210   -4.4490 H   0  0  0  0  0  0  0  0  0  0  0  0
   -2.2790   -2.2580   -0.1600 N   0  0  0  0  0  0  0  0  0  0  0  0
   -3.6360   -1.7840   -0.1870 C   0  0  0  0  0  0  0  0  0  0  0  0
   -4.5140   -3.0250   -0.1350 C   0  0  0  0  0  0  0  0  0  0  0  0
   -3.5190   -4.1410    0.1050 C   0  0  0  0  0  0  0  0  0  0  0  0
   -2.3120   -3.5940   -0.6650 C   0  0  1  0  0  0  0  0  0  0  0  0
   -2.6310   -3.7490   -2.0810 C   0  0  0  0  0  0  0  0  0  0  0  0
   -2.8930   -2.8740   -2.9140 O   0  0  0  0  0  0  0  0  0  0  0  0
   -2.6410   -5.0740   -2.5620 O   0  0  0  0  0  0  0  0  0  0  0  0
   -3.8550   -1.1820   -1.1000 H   0  0  0  0  0  0  0  0  0  0  0  0
   -3.9240   -1.1610    0.6780 H   0  0  0  0  0  0  0  0  0  0  0  0
   -5.0050   -3.2220   -1.1180 H   0  0  0  0  0  0  0  0  0  0  0  0
   -5.2360   -2.9980    0.6950 H   0  0  0  0  0  0  0  0  0  0  0  0
   -3.8280   -5.1010   -0.3200 H   0  0  0  0  0  0  0  0  0  0  0  0
   -3.2440   -4.1980    1.1760 H   0  0  0  0  0  0  0  0  0  0  0  0
   -1.4020   -4.1820   -0.4460 H   0  0  0  0  0  0  0  0  0  0  0  0
  1 10  1  0  0  0  0
  1  9  1  0  0  0  0
  1  2  1  0  0  0  0
  2 12  1  0  0  0  0
  2  4  1  0  0  0  0
  3 14  1  0  0  0  0
  3  2  1  0  0  0  0
  4 16  1  0  0  0  0
  4 17  1  0  0  0  0
  5 18  1  6  0  0  0
  5  4  1  0  0  0  0
  5  6  1  0  0  0  0
  6 20  1  0  0  0  0
  6 19  1  0  0  0  0
  7  5  1  0  0  0  0
  7  8  2  0  0  0  0
 11  1  1  0  0  0  0
 13  3  1  0  0  0  0
 15  3  1  0  0  0  0
 21 22  1  0  0  0  0
 22 23  1  0  0  0  0
 23 34  1  0  0  0  0
 23 24  2  0  0  0  0
 24 35  1  0  0  0  0
 25 24  1  0  0  0  0
 25 26  1  0  0  0  0
 26 37  1  0  0  0  0
 26 27  1  0  0  0  0
 27 28  1  0  0  0  0
 27 38  1  1  0  0  0
 28  7  1  0  0  0  0
 29 27  1  0  0  0  0
 30 29  2  0  0  0  0
 31 25  2  0  0  0  0
 32 22  2  0  0  0  0
 32 31  1  0  0  0  0
 33 21  1  0  0  0  0
 36 26  1  0  0  0  0
 39 28  1  0  0  0  0
 40 31  1  0  0  0  0
 41 32  1  0  0  0  0
 42 29  1  0  0  0  0
 43 42  1  0  0  0  0
 43 44  1  0  0  0  0
 43 51  1  0  0  0  0
 44 45  1  0  0  0  0
 44 53  1  0  0  0  0
 45 55  1  0  0  0  0
 46 56  1  1  0  0  0
 46 42  1  0  0  0  0
 46 45  1  0  0  0  0
 47 46  1  0  0  0  0
 48 47  2  0  0  0  0
 49 47  1  0  0  0  0
 50 43  1  0  0  0  0
 52 44  1  0  0  0  0
 54 45  1  0  0  0  0
M  END
$$$$
