LYQ.pdb
 OpenBabel07022418483D

 59 59  0  0  1  0  0  0  0  0999 V2000
    1.5350    0.7070    5.1440 C   0  0  0  0  0  0  0  0  0  0  0  0
    3.0020    0.5000    5.0010 C   0  0  0  0  0  0  0  0  0  0  0  0
    3.3990   -0.7600    5.7740 C   0  0  0  0  0  0  0  0  0  0  0  0
    3.5350    0.4760    3.6100 C   0  0  0  0  0  0  0  0  0  0  0  0
    3.0910   -0.5590    2.6780 C   0  0  2  0  0  0  0  0  0  0  0  0
    3.7690   -0.3500    1.3500 N   0  0  0  0  0  0  0  0  0  0  0  0
    1.6990   -0.7750    2.3730 C   0  0  0  0  0  0  0  0  0  0  0  0
    0.9630   -1.3710    3.1930 O   0  0  0  0  0  0  0  0  0  0  0  0
    1.0170   -0.1890    5.5570 H   0  0  0  0  0  0  0  0  0  0  0  0
    1.1110    1.0770    4.1920 H   0  0  0  0  0  0  0  0  0  0  0  0
    1.3840    1.5630    5.8680 H   0  0  0  0  0  0  0  0  0  0  0  0
    3.5360    1.3280    5.5740 H   0  0  0  0  0  0  0  0  0  0  0  0
    2.7840   -0.7690    6.7000 H   0  0  0  0  0  0  0  0  0  0  0  0
    3.1290   -1.6790    5.2120 H   0  0  0  0  0  0  0  0  0  0  0  0
    4.4550   -0.7290    6.0900 H   0  0  0  0  0  0  0  0  0  0  0  0
    3.5010    1.5190    3.1850 H   0  0  0  0  0  0  0  0  0  0  0  0
    4.6640    0.3300    3.7360 H   0  0  0  0  0  0  0  0  0  0  0  0
    3.5270   -1.5530    2.9970 H   0  0  0  0  0  0  0  0  0  0  0  0
    3.5340   -1.2230    0.8230 H   0  0  0  0  0  0  0  0  0  0  0  0
    4.7810   -0.2340    1.5020 H   0  0  0  0  0  0  0  0  0  0  0  0
    0.5940    4.4680   -2.9820 O   0  0  0  0  0  0  0  0  0  0  0  0
    0.1730    3.5290   -2.0190 C   0  0  0  0  0  0  0  0  0  0  0  0
    0.7060    3.5390   -0.7440 C   0  0  0  0  0  0  0  0  0  0  0  0
    0.2550    2.5980    0.1530 C   0  0  0  0  0  0  0  0  0  0  0  0
   -0.6960    1.6550   -0.1620 C   0  0  0  0  0  0  0  0  0  0  0  0
   -1.1330    0.6860    0.8350 C   0  0  0  0  0  0  0  0  0  0  0  0
   -0.3520   -0.5860    0.8860 C   0  0  2  0  0  0  0  0  0  0  0  0
    1.0470   -0.3570    1.1700 N   0  0  0  0  0  0  0  0  0  0  0  0
   -0.5600   -1.5030   -0.2440 C   0  0  0  0  0  0  0  0  0  0  0  0
    0.4310   -1.9720   -0.9030 O   0  0  0  0  0  0  0  0  0  0  0  0
   -1.2300    1.6400   -1.4250 C   0  0  0  0  0  0  0  0  0  0  0  0
   -0.7810    2.5910   -2.3490 C   0  0  0  0  0  0  0  0  0  0  0  0
    1.2130    4.1210   -3.7100 H   0  0  0  0  0  0  0  0  0  0  0  0
    1.4510    4.2900   -0.5230 H   0  0  0  0  0  0  0  0  0  0  0  0
    0.6970    2.6320    1.1540 H   0  0  0  0  0  0  0  0  0  0  0  0
   -2.2080    0.4050    0.6740 H   0  0  0  0  0  0  0  0  0  0  0  0
   -1.1200    1.1130    1.8800 H   0  0  0  0  0  0  0  0  0  0  0  0
   -0.7420   -1.1360    1.7980 H   0  0  0  0  0  0  0  0  0  0  0  0
    1.6140    0.1350    0.4710 H   0  0  0  0  0  0  0  0  0  0  0  0
   -1.9840    0.9260   -1.7440 H   0  0  0  0  0  0  0  0  0  0  0  0
   -1.2100    2.5710   -3.3500 H   0  0  0  0  0  0  0  0  0  0  0  0
   -4.2220   -5.6270   -4.2040 N   0  0  0  0  0  0  0  0  0  0  0  0
   -4.0290   -5.0440   -2.9240 C   0  0  0  0  0  0  0  0  0  0  0  0
   -4.9460   -4.2760   -2.4690 O   0  0  0  0  0  0  0  0  0  0  0  0
   -2.8490   -5.2590   -2.0660 C   0  0  0  0  0  0  0  0  0  0  0  0
   -2.5160   -4.1250   -1.1770 C   0  0  0  0  0  0  0  0  0  0  0  0
   -2.0420   -2.8540   -1.8120 C   0  0  2  0  0  0  0  0  0  0  0  0
   -1.8430   -1.9250   -0.6730 N   0  0  0  0  0  0  0  0  0  0  0  0
   -2.9190   -2.2130   -2.7800 C   0  0  0  0  0  0  0  0  0  0  0  0
   -3.5530   -1.1690   -2.4890 O   0  0  0  0  0  0  0  0  0  0  0  0
   -3.1080   -2.6930   -4.0740 O   0  0  0  0  0  0  0  0  0  0  0  0
   -3.4220   -5.9410   -4.7970 H   0  0  0  0  0  0  0  0  0  0  0  0
   -5.1840   -5.7540   -4.5780 H   0  0  0  0  0  0  0  0  0  0  0  0
   -3.0420   -6.1590   -1.4170 H   0  0  0  0  0  0  0  0  0  0  0  0
   -2.0090   -5.5130   -2.7600 H   0  0  0  0  0  0  0  0  0  0  0  0
   -3.4570   -3.8550   -0.6090 H   0  0  0  0  0  0  0  0  0  0  0  0
   -1.7890   -4.4060   -0.3780 H   0  0  0  0  0  0  0  0  0  0  0  0
   -0.9900   -2.9850   -2.2180 H   0  0  0  0  0  0  0  0  0  0  0  0
   -2.7020   -1.5880   -0.1910 H   0  0  0  0  0  0  0  0  0  0  0  0
  1  9  1  0  0  0  0
  1 11  1  0  0  0  0
  2  1  1  0  0  0  0
  2 12  1  0  0  0  0
  2  3  1  0  0  0  0
  3 15  1  0  0  0  0
  3 13  1  0  0  0  0
  4 17  1  0  0  0  0
  4  2  1  0  0  0  0
  5 18  1  1  0  0  0
  5  4  1  0  0  0  0
  6 20  1  0  0  0  0
  6  5  1  0  0  0  0
  7  5  1  0  0  0  0
  7  8  2  0  0  0  0
 10  1  1  0  0  0  0
 14  3  1  0  0  0  0
 16  4  1  0  0  0  0
 19  6  1  0  0  0  0
 21 22  1  0  0  0  0
 22 23  1  0  0  0  0
 23 34  1  0  0  0  0
 23 24  2  0  0  0  0
 24 35  1  0  0  0  0
 25 24  1  0  0  0  0
 25 26  1  0  0  0  0
 26 27  1  0  0  0  0
 26 37  1  0  0  0  0
 27 28  1  0  0  0  0
 27 38  1  1  0  0  0
 28  7  1  0  0  0  0
 29 27  1  0  0  0  0
 30 29  2  0  0  0  0
 31 25  2  0  0  0  0
 32 22  2  0  0  0  0
 32 31  1  0  0  0  0
 33 21  1  0  0  0  0
 36 26  1  0  0  0  0
 39 28  1  0  0  0  0
 40 31  1  0  0  0  0
 41 32  1  0  0  0  0
 42 43  1  0  0  0  0
 43 44  2  0  0  0  0
 43 45  1  0  0  0  0
 45 54  1  0  0  0  0
 45 46  1  0  0  0  0
 46 56  1  0  0  0  0
 46 57  1  0  0  0  0
 47 58  1  6  0  0  0
 47 46  1  0  0  0  0
 47 48  1  0  0  0  0
 48 29  1  0  0  0  0
 48 59  1  0  0  0  0
 49 50  1  0  0  0  0
 49 47  1  0  0  0  0
 51 49  2  0  0  0  0
 52 42  1  0  0  0  0
 53 42  1  0  0  0  0
 55 45  1  0  0  0  0
M  END
$$$$
