LYR.pdb
 OpenBabel07022418483D

 65 65  0  0  1  0  0  0  0  0999 V2000
    1.5090    0.2800    6.1850 C   0  0  0  0  0  0  0  0  0  0  0  0
    2.5250   -0.0130    5.1320 C   0  0  0  0  0  0  0  0  0  0  0  0
    3.6370   -0.8310    5.8040 C   0  0  0  0  0  0  0  0  0  0  0  0
    3.1780    1.1870    4.5390 C   0  0  0  0  0  0  0  0  0  0  0  0
    2.2560    2.1490    3.8670 C   0  0  2  0  0  0  0  0  0  0  0  0
    1.2450    2.7140    4.6990 N   0  0  0  0  0  0  0  0  0  0  0  0
    1.6540    1.5710    2.6190 C   0  0  0  0  0  0  0  0  0  0  0  0
    2.3870    1.0080    1.7660 O   0  0  0  0  0  0  0  0  0  0  0  0
    1.4180   -0.6540    6.8140 H   0  0  0  0  0  0  0  0  0  0  0  0
    1.8310    1.0630    6.8960 H   0  0  0  0  0  0  0  0  0  0  0  0
    0.4940    0.4500    5.7890 H   0  0  0  0  0  0  0  0  0  0  0  0
    2.0720   -0.6960    4.3920 H   0  0  0  0  0  0  0  0  0  0  0  0
    4.4930   -0.9600    5.1160 H   0  0  0  0  0  0  0  0  0  0  0  0
    4.0180   -0.3090    6.6990 H   0  0  0  0  0  0  0  0  0  0  0  0
    3.2980   -1.8260    6.1030 H   0  0  0  0  0  0  0  0  0  0  0  0
    3.8800    0.8070    3.7430 H   0  0  0  0  0  0  0  0  0  0  0  0
    3.8080    1.6620    5.2910 H   0  0  0  0  0  0  0  0  0  0  0  0
    2.9020    3.0090    3.5200 H   0  0  0  0  0  0  0  0  0  0  0  0
    1.6790    3.0620    5.5790 H   0  0  0  0  0  0  0  0  0  0  0  0
    0.8980    3.5910    4.2070 H   0  0  0  0  0  0  0  0  0  0  0  0
   -1.0410    0.5180   -5.1980 O   0  0  0  0  0  0  0  0  0  0  0  0
   -0.7750    0.8920   -3.8850 C   0  0  0  0  0  0  0  0  0  0  0  0
    0.3970    0.4860   -3.3060 C   0  0  0  0  0  0  0  0  0  0  0  0
    0.6460    0.8620   -2.0140 C   0  0  0  0  0  0  0  0  0  0  0  0
   -0.2330    1.6350   -1.2620 C   0  0  0  0  0  0  0  0  0  0  0  0
    0.1580    1.9620    0.1030 C   0  0  0  0  0  0  0  0  0  0  0  0
   -0.3100    1.1050    1.2030 C   0  0  2  0  0  0  0  0  0  0  0  0
    0.2490    1.6850    2.4430 N   0  0  0  0  0  0  0  0  0  0  0  0
   -0.0820   -0.3280    1.1390 C   0  0  0  0  0  0  0  0  0  0  0  0
    0.6190   -0.8940    2.0580 O   0  0  0  0  0  0  0  0  0  0  0  0
   -1.4120    2.0390   -1.8530 C   0  0  0  0  0  0  0  0  0  0  0  0
   -1.6600    1.6620   -3.1500 C   0  0  0  0  0  0  0  0  0  0  0  0
   -1.8990    0.8130   -5.6290 H   0  0  0  0  0  0  0  0  0  0  0  0
    1.1280   -0.1210   -3.8430 H   0  0  0  0  0  0  0  0  0  0  0  0
    1.5900    0.5250   -1.5720 H   0  0  0  0  0  0  0  0  0  0  0  0
    1.2560    2.1460    0.0920 H   0  0  0  0  0  0  0  0  0  0  0  0
   -0.2720    2.9960    0.3040 H   0  0  0  0  0  0  0  0  0  0  0  0
   -1.4240    1.2720    1.2980 H   0  0  0  0  0  0  0  0  0  0  0  0
   -0.3690    2.1550    3.1530 H   0  0  0  0  0  0  0  0  0  0  0  0
   -2.0860    2.6380   -1.2620 H   0  0  0  0  0  0  0  0  0  0  0  0
   -2.5830    1.9760   -3.6180 H   0  0  0  0  0  0  0  0  0  0  0  0
   -4.5500   -3.2620   -5.1230 N   0  0  0  0  0  0  0  0  0  0  0  0
   -3.5000   -3.7010   -4.2770 C   0  0  0  0  0  0  0  0  0  0  0  0
   -2.4630   -4.3360   -4.7650 N   0  0  0  0  0  0  0  0  0  0  0  0
   -3.5160   -3.4780   -2.8730 N   0  0  0  0  0  0  0  0  0  0  0  0
   -2.2850   -3.6750   -2.0860 C   0  0  0  0  0  0  0  0  0  0  0  0
   -2.6070   -3.3600   -0.6670 C   0  0  0  0  0  0  0  0  0  0  0  0
   -1.5120   -3.4960    0.3180 C   0  0  0  0  0  0  0  0  0  0  0  0
   -0.3070   -2.6500    0.1350 C   0  0  2  0  0  0  0  0  0  0  0  0
   -0.5550   -1.2300    0.1520 N   0  0  0  0  0  0  0  0  0  0  0  0
    0.5060   -3.1310   -0.9840 C   0  0  0  0  0  0  0  0  0  0  0  0
    0.9960   -2.3330   -1.8130 O   0  0  0  0  0  0  0  0  0  0  0  0
    0.7530   -4.4820   -1.1500 O   0  0  0  0  0  0  0  0  0  0  0  0
   -4.4260   -3.2630   -6.1500 H   0  0  0  0  0  0  0  0  0  0  0  0
   -5.4370   -2.9420   -4.7160 H   0  0  0  0  0  0  0  0  0  0  0  0
   -1.6740   -4.6780   -4.2140 H   0  0  0  0  0  0  0  0  0  0  0  0
   -4.4140   -3.1760   -2.4410 H   0  0  0  0  0  0  0  0  0  0  0  0
   -1.4680   -3.1030   -2.5400 H   0  0  0  0  0  0  0  0  0  0  0  0
   -2.0260   -4.7640   -2.2180 H   0  0  0  0  0  0  0  0  0  0  0  0
   -3.0630   -2.3320   -0.5710 H   0  0  0  0  0  0  0  0  0  0  0  0
   -3.4350   -4.0700   -0.3680 H   0  0  0  0  0  0  0  0  0  0  0  0
   -1.1480   -4.5670    0.3930 H   0  0  0  0  0  0  0  0  0  0  0  0
   -1.8950   -3.3030    1.3620 H   0  0  0  0  0  0  0  0  0  0  0  0
    0.3260   -2.8270    1.0800 H   0  0  0  0  0  0  0  0  0  0  0  0
   -1.1290   -0.8500   -0.6100 H   0  0  0  0  0  0  0  0  0  0  0  0
  1  9  1  0  0  0  0
  1 10  1  0  0  0  0
  2  3  1  0  0  0  0
  2  1  1  0  0  0  0
  3 15  1  0  0  0  0
  3 14  1  0  0  0  0
  4  2  1  0  0  0  0
  4 17  1  0  0  0  0
  5 18  1  6  0  0  0
  5  4  1  0  0  0  0
  5  6  1  0  0  0  0
  6 19  1  0  0  0  0
  7  5  1  0  0  0  0
  8  7  2  0  0  0  0
 11  1  1  0  0  0  0
 12  2  1  0  0  0  0
 13  3  1  0  0  0  0
 16  4  1  0  0  0  0
 20  6  1  0  0  0  0
 21 22  1  0  0  0  0
 22 23  2  0  0  0  0
 22 32  1  0  0  0  0
 23 24  1  0  0  0  0
 24 35  1  0  0  0  0
 24 25  2  0  0  0  0
 25 26  1  0  0  0  0
 26 37  1  0  0  0  0
 26 27  1  0  0  0  0
 27 38  1  1  0  0  0
 27 28  1  0  0  0  0
 28  7  1  0  0  0  0
 28 39  1  0  0  0  0
 29 27  1  0  0  0  0
 29 30  2  0  0  0  0
 31 40  1  0  0  0  0
 31 25  1  0  0  0  0
 32 31  2  0  0  0  0
 33 21  1  0  0  0  0
 34 23  1  0  0  0  0
 36 26  1  0  0  0  0
 41 32  1  0  0  0  0
 42 55  1  0  0  0  0
 42 43  1  0  0  0  0
 43 45  1  0  0  0  0
 44 43  2  0  0  0  0
 44 56  1  0  0  0  0
 45 57  1  0  0  0  0
 45 46  1  0  0  0  0
 46 47  1  0  0  0  0
 47 60  1  0  0  0  0
 47 61  1  0  0  0  0
 47 48  1  0  0  0  0
 48 62  1  0  0  0  0
 48 63  1  0  0  0  0
 49 50  1  0  0  0  0
 49 48  1  0  0  0  0
 49 64  1  1  0  0  0
 50 29  1  0  0  0  0
 51 49  1  0  0  0  0
 52 51  2  0  0  0  0
 53 51  1  0  0  0  0
 54 42  1  0  0  0  0
 58 46  1  0  0  0  0
 59 46  1  0  0  0  0
 65 50  1  0  0  0  0
M  END
$$$$
