LYS.pdb
 OpenBabel07022418483D

 53 53  0  0  1  0  0  0  0  0999 V2000
    2.0410    1.9780    3.9820 C   0  0  0  0  0  0  0  0  0  0  0  0
    1.5240    1.9370    2.5590 C   0  0  0  0  0  0  0  0  0  0  0  0
    2.2690    2.9960    1.7750 C   0  0  0  0  0  0  0  0  0  0  0  0
    0.0520    2.2500    2.4840 C   0  0  0  0  0  0  0  0  0  0  0  0
   -0.7850    1.2710    3.2750 C   0  0  2  0  0  0  0  0  0  0  0  0
   -0.4430    1.2590    4.6600 N   0  0  0  0  0  0  0  0  0  0  0  0
   -0.8360   -0.0790    2.6570 C   0  0  0  0  0  0  0  0  0  0  0  0
   -0.5800   -1.1320    3.2820 O   0  0  0  0  0  0  0  0  0  0  0  0
    1.6520    2.8240    4.5620 H   0  0  0  0  0  0  0  0  0  0  0  0
    1.9150    0.9920    4.4840 H   0  0  0  0  0  0  0  0  0  0  0  0
    3.1560    2.1120    3.8940 H   0  0  0  0  0  0  0  0  0  0  0  0
    1.7880    0.9640    2.1500 H   0  0  0  0  0  0  0  0  0  0  0  0
    3.3320    2.6800    1.5870 H   0  0  0  0  0  0  0  0  0  0  0  0
    1.8280    3.1420    0.7610 H   0  0  0  0  0  0  0  0  0  0  0  0
    2.2130    3.9590    2.2970 H   0  0  0  0  0  0  0  0  0  0  0  0
   -0.1220    3.2560    2.8660 H   0  0  0  0  0  0  0  0  0  0  0  0
   -0.2400    2.2250    1.4160 H   0  0  0  0  0  0  0  0  0  0  0  0
   -1.8430    1.6640    3.2070 H   0  0  0  0  0  0  0  0  0  0  0  0
   -0.7090    0.3570    5.1050 H   0  0  0  0  0  0  0  0  0  0  0  0
   -0.8110    2.1000    5.1420 H   0  0  0  0  0  0  0  0  0  0  0  0
   -2.5480   -7.1860   -1.9540 O   0  0  0  0  0  0  0  0  0  0  0  0
   -2.5560   -5.8960   -1.4070 C   0  0  0  0  0  0  0  0  0  0  0  0
   -2.6200   -5.6890   -0.0460 C   0  0  0  0  0  0  0  0  0  0  0  0
   -2.6270   -4.4110    0.4640 C   0  0  0  0  0  0  0  0  0  0  0  0
   -2.5710   -3.2680   -0.3470 C   0  0  0  0  0  0  0  0  0  0  0  0
   -2.6110   -1.9260    0.2760 C   0  0  0  0  0  0  0  0  0  0  0  0
   -1.2420   -1.5210    0.6850 C   0  0  2  0  0  0  0  0  0  0  0  0
   -1.1850   -0.2180    1.3040 N   0  0  0  0  0  0  0  0  0  0  0  0
   -0.2720   -1.6090   -0.4150 C   0  0  0  0  0  0  0  0  0  0  0  0
   -0.0340   -2.6270   -1.1120 O   0  0  0  0  0  0  0  0  0  0  0  0
   -2.5080   -3.4920   -1.6960 C   0  0  0  0  0  0  0  0  0  0  0  0
   -2.5010   -4.7730   -2.2040 C   0  0  0  0  0  0  0  0  0  0  0  0
   -2.3260   -7.9440   -1.3130 H   0  0  0  0  0  0  0  0  0  0  0  0
   -2.6640   -6.5630    0.5860 H   0  0  0  0  0  0  0  0  0  0  0  0
   -2.6780   -4.2500    1.5470 H   0  0  0  0  0  0  0  0  0  0  0  0
   -3.0660   -1.2220   -0.4540 H   0  0  0  0  0  0  0  0  0  0  0  0
   -3.2770   -2.0480    1.1780 H   0  0  0  0  0  0  0  0  0  0  0  0
   -0.9280   -2.2520    1.4590 H   0  0  0  0  0  0  0  0  0  0  0  0
   -1.4230    0.5910    0.6650 H   0  0  0  0  0  0  0  0  0  0  0  0
   -2.4670   -2.6280   -2.3530 H   0  0  0  0  0  0  0  0  0  0  0  0
   -2.4510   -4.9460   -3.2810 H   0  0  0  0  0  0  0  0  0  0  0  0
    2.1500    0.2950   -3.9740 O   0  0  0  0  0  0  0  0  0  0  0  0
    1.1650    0.4460   -2.9900 C   0  0  0  0  0  0  0  0  0  0  0  0
    1.4900   -0.5340   -1.8850 C   0  0  2  0  0  0  0  0  0  0  0  0
    0.5320   -0.4680   -0.8040 N   0  0  0  0  0  0  0  0  0  0  0  0
    2.8360   -0.2710   -1.3350 C   0  0  0  0  0  0  0  0  0  0  0  0
    2.9620   -0.0470   -0.1100 O   0  0  0  0  0  0  0  0  0  0  0  0
    3.9750   -0.2610   -2.1240 O   0  0  0  0  0  0  0  0  0  0  0  0
    1.8860   -0.3950   -4.6340 H   0  0  0  0  0  0  0  0  0  0  0  0
    1.1800    1.4560   -2.5450 H   0  0  0  0  0  0  0  0  0  0  0  0
    0.1930    0.1610   -3.4090 H   0  0  0  0  0  0  0  0  0  0  0  0
    1.5050   -1.5400   -2.3550 H   0  0  0  0  0  0  0  0  0  0  0  0
    0.4020    0.4180   -0.2780 H   0  0  0  0  0  0  0  0  0  0  0  0
  1 10  1  0  0  0  0
  1  9  1  0  0  0  0
  2  1  1  0  0  0  0
  3 15  1  0  0  0  0
  3  2  1  0  0  0  0
  4  2  1  0  0  0  0
  4 16  1  0  0  0  0
  4  5  1  0  0  0  0
  5 18  1  6  0  0  0
  5  6  1  0  0  0  0
  6 19  1  0  0  0  0
  6 20  1  0  0  0  0
  7  5  1  0  0  0  0
  7  8  2  0  0  0  0
 11  1  1  0  0  0  0
 12  2  1  0  0  0  0
 13  3  1  0  0  0  0
 14  3  1  0  0  0  0
 17  4  1  0  0  0  0
 21 22  1  0  0  0  0
 21 33  1  0  0  0  0
 22 23  1  0  0  0  0
 23 24  2  0  0  0  0
 23 34  1  0  0  0  0
 24 35  1  0  0  0  0
 25 26  1  0  0  0  0
 25 24  1  0  0  0  0
 26 27  1  0  0  0  0
 26 37  1  0  0  0  0
 27 28  1  0  0  0  0
 27 38  1  1  0  0  0
 28  7  1  0  0  0  0
 29 27  1  0  0  0  0
 30 29  2  0  0  0  0
 31 25  2  0  0  0  0
 32 31  1  0  0  0  0
 32 22  2  0  0  0  0
 36 26  1  0  0  0  0
 39 28  1  0  0  0  0
 40 31  1  0  0  0  0
 41 32  1  0  0  0  0
 42 43  1  0  0  0  0
 43 50  1  0  0  0  0
 43 44  1  0  0  0  0
 44 52  1  6  0  0  0
 44 46  1  0  0  0  0
 44 45  1  0  0  0  0
 45 29  1  0  0  0  0
 45 53  1  0  0  0  0
 46 47  1  0  0  0  0
 48 46  2  0  0  0  0
 49 42  1  0  0  0  0
 51 43  1  0  0  0  0
M  END
$$$$
