LYV.pdb
 OpenBabel07022418483D

 58 58  0  0  1  0  0  0  0  0999 V2000
    1.2920   -1.9750    3.2420 C   0  0  0  0  0  0  0  0  0  0  0  0
    2.1150   -1.1020    4.1250 C   0  0  0  0  0  0  0  0  0  0  0  0
    3.5430   -0.9920    3.5860 C   0  0  0  0  0  0  0  0  0  0  0  0
    1.5670    0.1740    4.5800 C   0  0  0  0  0  0  0  0  0  0  0  0
    1.1810    1.2590    3.6770 C   0  0  2  0  0  0  0  0  0  0  0  0
    0.6990    2.3450    4.6250 N   0  0  0  0  0  0  0  0  0  0  0  0
    0.1630    1.0890    2.6700 C   0  0  0  0  0  0  0  0  0  0  0  0
   -1.0130    1.5170    2.8810 O   0  0  0  0  0  0  0  0  0  0  0  0
    1.3290   -3.0530    3.5550 H   0  0  0  0  0  0  0  0  0  0  0  0
    1.7000   -1.9950    2.2080 H   0  0  0  0  0  0  0  0  0  0  0  0
    0.2480   -1.6200    3.1660 H   0  0  0  0  0  0  0  0  0  0  0  0
    2.2660   -1.7170    5.0760 H   0  0  0  0  0  0  0  0  0  0  0  0
    3.4430   -0.9990    2.4740 H   0  0  0  0  0  0  0  0  0  0  0  0
    4.0720   -0.1240    3.9750 H   0  0  0  0  0  0  0  0  0  0  0  0
    4.1400   -1.8940    3.8360 H   0  0  0  0  0  0  0  0  0  0  0  0
    0.6900   -0.0930    5.2740 H   0  0  0  0  0  0  0  0  0  0  0  0
    2.3080    0.5610    5.3630 H   0  0  0  0  0  0  0  0  0  0  0  0
    2.1290    1.7350    3.2820 H   0  0  0  0  0  0  0  0  0  0  0  0
   -0.0270    1.8690    5.2350 H   0  0  0  0  0  0  0  0  0  0  0  0
    1.5300    2.4970    5.2520 H   0  0  0  0  0  0  0  0  0  0  0  0
    4.7550    0.0580   -2.9020 O   0  0  0  0  0  0  0  0  0  0  0  0
    3.4890    0.3420   -2.3830 C   0  0  0  0  0  0  0  0  0  0  0  0
    3.3350    1.2260   -1.3300 C   0  0  0  0  0  0  0  0  0  0  0  0
    2.1160    1.5450   -0.7770 C   0  0  0  0  0  0  0  0  0  0  0  0
    0.9920    0.9320   -1.3230 C   0  0  0  0  0  0  0  0  0  0  0  0
   -0.3180    1.2800   -0.7220 C   0  0  0  0  0  0  0  0  0  0  0  0
   -0.6690    0.3420    0.4320 C   0  0  2  0  0  0  0  0  0  0  0  0
    0.3880    0.4700    1.4210 N   0  0  0  0  0  0  0  0  0  0  0  0
   -0.9500   -1.0270   -0.0080 C   0  0  0  0  0  0  0  0  0  0  0  0
   -0.2780   -1.9800    0.3980 O   0  0  0  0  0  0  0  0  0  0  0  0
    1.0790    0.0440   -2.3700 C   0  0  0  0  0  0  0  0  0  0  0  0
    2.3370   -0.2320   -2.8790 C   0  0  0  0  0  0  0  0  0  0  0  0
    4.7780   -0.5170   -3.7330 H   0  0  0  0  0  0  0  0  0  0  0  0
    4.2380    1.6790   -0.9370 H   0  0  0  0  0  0  0  0  0  0  0  0
    2.0220    2.2460    0.0540 H   0  0  0  0  0  0  0  0  0  0  0  0
   -1.1250    1.3030   -1.4770 H   0  0  0  0  0  0  0  0  0  0  0  0
   -0.2490    2.2930   -0.2880 H   0  0  0  0  0  0  0  0  0  0  0  0
   -1.5900    0.8110    0.8870 H   0  0  0  0  0  0  0  0  0  0  0  0
    1.3230    0.0860    1.1590 H   0  0  0  0  0  0  0  0  0  0  0  0
    0.1840   -0.4290   -2.7890 H   0  0  0  0  0  0  0  0  0  0  0  0
    2.3950   -0.9410   -3.7130 H   0  0  0  0  0  0  0  0  0  0  0  0
   -4.7320   -2.0870   -1.1040 C   0  0  0  0  0  0  0  0  0  0  0  0
   -3.6330   -3.0590   -0.7270 C   0  0  0  0  0  0  0  0  0  0  0  0
   -4.0600   -4.4220   -1.1470 C   0  0  0  0  0  0  0  0  0  0  0  0
   -2.3430   -2.6070   -1.3850 C   0  0  2  0  0  0  0  0  0  0  0  0
   -2.0120   -1.2750   -0.9160 N   0  0  0  0  0  0  0  0  0  0  0  0
   -2.3730   -2.7400   -2.8390 C   0  0  0  0  0  0  0  0  0  0  0  0
   -2.6130   -3.7970   -3.4610 O   0  0  0  0  0  0  0  0  0  0  0  0
   -2.1200   -1.6180   -3.6150 O   0  0  0  0  0  0  0  0  0  0  0  0
   -5.6870   -2.6370   -1.0160 H   0  0  0  0  0  0  0  0  0  0  0  0
   -4.5130   -1.7440   -2.1350 H   0  0  0  0  0  0  0  0  0  0  0  0
   -4.7220   -1.2480   -0.3760 H   0  0  0  0  0  0  0  0  0  0  0  0
   -3.5540   -3.0480    0.3760 H   0  0  0  0  0  0  0  0  0  0  0  0
   -4.4640   -4.4520   -2.1950 H   0  0  0  0  0  0  0  0  0  0  0  0
   -4.9360   -4.7020   -0.5060 H   0  0  0  0  0  0  0  0  0  0  0  0
   -3.3040   -5.2130   -0.9680 H   0  0  0  0  0  0  0  0  0  0  0  0
   -1.5670   -3.2940   -0.9880 H   0  0  0  0  0  0  0  0  0  0  0  0
   -2.5620   -0.4510   -1.2440 H   0  0  0  0  0  0  0  0  0  0  0  0
  1  9  1  0  0  0  0
  1  2  1  0  0  0  0
  2  4  1  0  0  0  0
  2 12  1  0  0  0  0
  3 15  1  0  0  0  0
  3 14  1  0  0  0  0
  3  2  1  0  0  0  0
  4 16  1  0  0  0  0
  4 17  1  0  0  0  0
  5 18  1  6  0  0  0
  5  4  1  0  0  0  0
  5  6  1  0  0  0  0
  6 19  1  0  0  0  0
  6 20  1  0  0  0  0
  7  8  2  0  0  0  0
  7  5  1  0  0  0  0
 10  1  1  0  0  0  0
 11  1  1  0  0  0  0
 13  3  1  0  0  0  0
 21 22  1  0  0  0  0
 22 23  1  0  0  0  0
 23 34  1  0  0  0  0
 23 24  2  0  0  0  0
 24 35  1  0  0  0  0
 25 24  1  0  0  0  0
 25 26  1  0  0  0  0
 26 37  1  0  0  0  0
 26 27  1  0  0  0  0
 27 38  1  1  0  0  0
 27 28  1  0  0  0  0
 28  7  1  0  0  0  0
 29 30  2  0  0  0  0
 29 27  1  0  0  0  0
 31 25  2  0  0  0  0
 32 22  2  0  0  0  0
 32 31  1  0  0  0  0
 33 21  1  0  0  0  0
 36 26  1  0  0  0  0
 39 28  1  0  0  0  0
 40 31  1  0  0  0  0
 41 32  1  0  0  0  0
 42 50  1  0  0  0  0
 42 43  1  0  0  0  0
 42 52  1  0  0  0  0
 43 53  1  0  0  0  0
 44 56  1  0  0  0  0
 44 43  1  0  0  0  0
 44 55  1  0  0  0  0
 45 57  1  1  0  0  0
 45 46  1  0  0  0  0
 45 43  1  0  0  0  0
 46 29  1  0  0  0  0
 47 45  1  0  0  0  0
 48 47  1  0  0  0  0
 49 47  2  0  0  0  0
 51 42  1  0  0  0  0
 54 44  1  0  0  0  0
 58 46  1  0  0  0  0
M  END
$$$$
