LYW.pdb
 OpenBabel07022418483D

 66 68  0  0  1  0  0  0  0  0999 V2000
    3.7340    1.2450    6.0560 C   0  0  0  0  0  0  0  0  0  0  0  0
    4.0070    0.7140    4.6870 C   0  0  0  0  0  0  0  0  0  0  0  0
    4.6880   -0.6500    4.8610 C   0  0  0  0  0  0  0  0  0  0  0  0
    2.7900    0.4860    3.8580 C   0  0  0  0  0  0  0  0  0  0  0  0
    1.9820    1.7410    3.6280 C   0  0  2  0  0  0  0  0  0  0  0  0
    1.5130    2.3400    4.8350 N   0  0  0  0  0  0  0  0  0  0  0  0
    0.8260    1.4700    2.7450 C   0  0  0  0  0  0  0  0  0  0  0  0
   -0.3380    1.7730    3.1160 O   0  0  0  0  0  0  0  0  0  0  0  0
    3.8560    2.3610    6.1220 H   0  0  0  0  0  0  0  0  0  0  0  0
    4.5140    0.8470    6.7710 H   0  0  0  0  0  0  0  0  0  0  0  0
    2.7680    0.9140    6.4880 H   0  0  0  0  0  0  0  0  0  0  0  0
    4.7620    1.3660    4.1890 H   0  0  0  0  0  0  0  0  0  0  0  0
    3.9720   -1.3680    5.3460 H   0  0  0  0  0  0  0  0  0  0  0  0
    4.9290   -1.1100    3.8830 H   0  0  0  0  0  0  0  0  0  0  0  0
    5.5570   -0.5970    5.5290 H   0  0  0  0  0  0  0  0  0  0  0  0
    3.1420    0.1420    2.8500 H   0  0  0  0  0  0  0  0  0  0  0  0
    2.1990   -0.3340    4.2730 H   0  0  0  0  0  0  0  0  0  0  0  0
    2.6170    2.4900    3.0960 H   0  0  0  0  0  0  0  0  0  0  0  0
    0.6820    1.8430    5.2320 H   0  0  0  0  0  0  0  0  0  0  0  0
    1.3370    3.3530    4.7590 H   0  0  0  0  0  0  0  0  0  0  0  0
    4.6930    0.5530   -3.7990 O   0  0  0  0  0  0  0  0  0  0  0  0
    3.5270    0.7390   -3.0410 C   0  0  0  0  0  0  0  0  0  0  0  0
    3.5350    1.7170   -2.0610 C   0  0  0  0  0  0  0  0  0  0  0  0
    2.3820    1.9200   -1.2930 C   0  0  0  0  0  0  0  0  0  0  0  0
    1.2480    1.1660   -1.4960 C   0  0  0  0  0  0  0  0  0  0  0  0
    0.0370    1.3670   -0.7060 C   0  0  0  0  0  0  0  0  0  0  0  0
   -0.0630    0.5700    0.5540 C   0  0  2  0  0  0  0  0  0  0  0  0
    1.0380    0.8610    1.4640 N   0  0  0  0  0  0  0  0  0  0  0  0
   -0.2320   -0.8830    0.3760 C   0  0  0  0  0  0  0  0  0  0  0  0
    0.5850   -1.6450    0.9810 O   0  0  0  0  0  0  0  0  0  0  0  0
    1.2820    0.2060   -2.4780 C   0  0  0  0  0  0  0  0  0  0  0  0
    2.4070   -0.0190   -3.2550 C   0  0  0  0  0  0  0  0  0  0  0  0
    4.6680    0.5000   -4.8160 H   0  0  0  0  0  0  0  0  0  0  0  0
    4.4190    2.3130   -1.8940 H   0  0  0  0  0  0  0  0  0  0  0  0
    2.4420    2.6920   -0.5450 H   0  0  0  0  0  0  0  0  0  0  0  0
   -0.9010    1.2910   -1.3130 H   0  0  0  0  0  0  0  0  0  0  0  0
    0.0430    2.4490   -0.3740 H   0  0  0  0  0  0  0  0  0  0  0  0
   -0.9990    0.9490    1.0740 H   0  0  0  0  0  0  0  0  0  0  0  0
    2.0270    0.6390    1.2210 H   0  0  0  0  0  0  0  0  0  0  0  0
    0.4230   -0.4140   -2.6850 H   0  0  0  0  0  0  0  0  0  0  0  0
    2.4500   -0.7720   -4.0340 H   0  0  0  0  0  0  0  0  0  0  0  0
   -1.2190   -1.5200   -0.4010 N   0  0  0  0  0  0  0  0  0  0  0  0
   -1.3560   -2.9620   -0.5430 C   0  0  1  0  0  0  0  0  0  0  0  0
   -2.5520   -3.4660    0.2120 C   0  0  0  0  0  0  0  0  0  0  0  0
   -3.8400   -2.8750   -0.1800 C   0  0  0  0  0  0  0  0  0  0  0  0
   -4.4620   -1.7950    0.4800 C   0  0  0  0  0  0  0  0  0  0  0  0
   -5.5910   -1.4980   -0.1590 N   0  0  0  0  0  0  0  0  0  0  0  0
   -5.7270   -2.3390   -1.2020 C   0  0  0  0  0  0  0  0  0  0  0  0
   -6.7030   -2.4840   -2.1830 C   0  0  0  0  0  0  0  0  0  0  0  0
   -6.6350   -3.4450   -3.1670 C   0  0  0  0  0  0  0  0  0  0  0  0
   -5.5560   -4.3030   -3.1860 C   0  0  0  0  0  0  0  0  0  0  0  0
   -4.5720   -4.1850   -2.2290 C   0  0  0  0  0  0  0  0  0  0  0  0
   -4.6450   -3.2070   -1.2310 C   0  0  0  0  0  0  0  0  0  0  0  0
   -1.1750   -3.4650   -1.8990 C   0  0  0  0  0  0  0  0  0  0  0  0
   -1.0670   -2.6800   -2.8850 O   0  0  0  0  0  0  0  0  0  0  0  0
   -1.1030   -4.8150   -2.2140 O   0  0  0  0  0  0  0  0  0  0  0  0
   -1.9010   -0.9250   -0.9120 H   0  0  0  0  0  0  0  0  0  0  0  0
   -0.4670   -3.3670    0.0500 H   0  0  0  0  0  0  0  0  0  0  0  0
   -2.5830   -4.5810    0.0210 H   0  0  0  0  0  0  0  0  0  0  0  0
   -2.4060   -3.3970    1.3160 H   0  0  0  0  0  0  0  0  0  0  0  0
   -4.0460   -1.3160    1.3630 H   0  0  0  0  0  0  0  0  0  0  0  0
   -6.2870   -0.7550    0.0640 H   0  0  0  0  0  0  0  0  0  0  0  0
   -7.5530   -1.8050   -2.1630 H   0  0  0  0  0  0  0  0  0  0  0  0
   -7.4200   -3.5310   -3.9230 H   0  0  0  0  0  0  0  0  0  0  0  0
   -5.4370   -5.0860   -3.9330 H   0  0  0  0  0  0  0  0  0  0  0  0
   -3.7220   -4.8460   -2.2040 H   0  0  0  0  0  0  0  0  0  0  0  0
  1  9  1  0  0  0  0
  1 11  1  0  0  0  0
  1 10  1  0  0  0  0
  2  3  1  0  0  0  0
  2  1  1  0  0  0  0
  3 13  1  0  0  0  0
  3 15  1  0  0  0  0
  4 17  1  0  0  0  0
  4  2  1  0  0  0  0
  5 18  1  6  0  0  0
  5  4  1  0  0  0  0
  5  6  1  0  0  0  0
  6 19  1  0  0  0  0
  7  8  2  0  0  0  0
  7  5  1  0  0  0  0
 12  2  1  0  0  0  0
 14  3  1  0  0  0  0
 16  4  1  0  0  0  0
 20  6  1  0  0  0  0
 21 22  1  0  0  0  0
 22 23  1  0  0  0  0
 23 34  1  0  0  0  0
 23 24  2  0  0  0  0
 24 35  1  0  0  0  0
 25 24  1  0  0  0  0
 25 26  1  0  0  0  0
 26 37  1  0  0  0  0
 26 27  1  0  0  0  0
 27 38  1  1  0  0  0
 27 28  1  0  0  0  0
 28  7  1  0  0  0  0
 29 27  1  0  0  0  0
 29 30  2  0  0  0  0
 31 25  2  0  0  0  0
 32 22  2  0  0  0  0
 32 31  1  0  0  0  0
 33 21  1  0  0  0  0
 36 26  1  0  0  0  0
 39 28  1  0  0  0  0
 40 31  1  0  0  0  0
 41 32  1  0  0  0  0
 42 29  1  0  0  0  0
 43 42  1  0  0  0  0
 43 58  1  1  0  0  0
 43 44  1  0  0  0  0
 44 60  1  0  0  0  0
 45 44  1  0  0  0  0
 45 46  2  0  0  0  0
 46 61  1  0  0  0  0
 47 62  1  0  0  0  0
 47 46  1  0  0  0  0
 48 47  1  0  0  0  0
 49 63  1  0  0  0  0
 49 48  2  0  0  0  0
 50 49  1  0  0  0  0
 51 50  2  0  0  0  0
 51 52  1  0  0  0  0
 52 66  1  0  0  0  0
 52 53  2  0  0  0  0
 53 48  1  0  0  0  0
 53 45  1  0  0  0  0
 54 43  1  0  0  0  0
 55 54  2  0  0  0  0
 56 54  1  0  0  0  0
 57 42  1  0  0  0  0
 59 44  1  0  0  0  0
 64 50  1  0  0  0  0
 65 51  1  0  0  0  0
M  END
$$$$
