LYY.pdb
 OpenBabel07022418483D

 63 64  0  0  1  0  0  0  0  0999 V2000
   -1.1050    1.4660    2.5530 C   0  0  0  0  0  0  0  0  0  0  0  0
   -0.3240    1.4710    3.8420 C   0  0  0  0  0  0  0  0  0  0  0  0
   -0.3610    0.0870    4.4860 C   0  0  0  0  0  0  0  0  0  0  0  0
    1.0500    1.9990    3.7390 C   0  0  0  0  0  0  0  0  0  0  0  0
    2.0130    1.3030    2.8400 C   0  0  2  0  0  0  0  0  0  0  0  0
    3.2920    2.0890    2.9640 N   0  0  0  0  0  0  0  0  0  0  0  0
    1.7240    1.3140    1.4110 C   0  0  0  0  0  0  0  0  0  0  0  0
    2.0550    2.3250    0.6980 O   0  0  0  0  0  0  0  0  0  0  0  0
   -1.2470    0.4280    2.2010 H   0  0  0  0  0  0  0  0  0  0  0  0
   -2.1400    1.8770    2.7060 H   0  0  0  0  0  0  0  0  0  0  0  0
   -0.6530    2.1040    1.7820 H   0  0  0  0  0  0  0  0  0  0  0  0
   -0.9050    2.1370    4.5500 H   0  0  0  0  0  0  0  0  0  0  0  0
   -0.6520    0.1480    5.5320 H   0  0  0  0  0  0  0  0  0  0  0  0
    0.6620   -0.3320    4.3390 H   0  0  0  0  0  0  0  0  0  0  0  0
   -1.0630   -0.5800    3.9630 H   0  0  0  0  0  0  0  0  0  0  0  0
    0.9820    3.0990    3.5250 H   0  0  0  0  0  0  0  0  0  0  0  0
    1.5060    1.9750    4.7740 H   0  0  0  0  0  0  0  0  0  0  0  0
    2.2690    0.3190    3.2520 H   0  0  0  0  0  0  0  0  0  0  0  0
    3.7310    1.8530    3.8980 H   0  0  0  0  0  0  0  0  0  0  0  0
    3.9120    1.8670    2.1720 H   0  0  0  0  0  0  0  0  0  0  0  0
    1.4820    0.2280   -7.0870 O   0  0  0  0  0  0  0  0  0  0  0  0
    1.6290    0.1340   -5.7210 C   0  0  0  0  0  0  0  0  0  0  0  0
    1.2370   -1.0150   -5.0520 C   0  0  0  0  0  0  0  0  0  0  0  0
    1.3690   -1.1490   -3.6730 C   0  0  0  0  0  0  0  0  0  0  0  0
    1.9140   -0.0840   -2.9600 C   0  0  0  0  0  0  0  0  0  0  0  0
    2.0740   -0.1720   -1.5140 C   0  0  0  0  0  0  0  0  0  0  0  0
    0.8520    0.3800   -0.7540 C   0  0  2  0  0  0  0  0  0  0  0  0
    1.0820    0.2600    0.6670 N   0  0  0  0  0  0  0  0  0  0  0  0
   -0.3800   -0.2260   -1.2260 C   0  0  0  0  0  0  0  0  0  0  0  0
   -0.8120   -0.0940   -2.4180 O   0  0  0  0  0  0  0  0  0  0  0  0
    2.3000    1.0530   -3.6430 C   0  0  0  0  0  0  0  0  0  0  0  0
    2.1680    1.1860   -5.0170 C   0  0  0  0  0  0  0  0  0  0  0  0
    1.1110    1.0510   -7.5690 H   0  0  0  0  0  0  0  0  0  0  0  0
    0.8140   -1.8200   -5.6620 H   0  0  0  0  0  0  0  0  0  0  0  0
    1.0550   -2.0610   -3.1630 H   0  0  0  0  0  0  0  0  0  0  0  0
    2.9250    0.4680   -1.2050 H   0  0  0  0  0  0  0  0  0  0  0  0
    2.2920   -1.2060   -1.2170 H   0  0  0  0  0  0  0  0  0  0  0  0
    0.9340    1.4840   -0.9830 H   0  0  0  0  0  0  0  0  0  0  0  0
    0.8130   -0.5700    1.2270 H   0  0  0  0  0  0  0  0  0  0  0  0
    2.7210    1.8580   -3.0470 H   0  0  0  0  0  0  0  0  0  0  0  0
    2.4940    2.1150   -5.4970 H   0  0  0  0  0  0  0  0  0  0  0  0
   -1.4200   -4.7120    4.6420 O   0  0  0  0  0  0  0  0  0  0  0  0
   -1.6440   -4.3230    3.3240 C   0  0  0  0  0  0  0  0  0  0  0  0
   -0.5970   -3.9960    2.4810 C   0  0  0  0  0  0  0  0  0  0  0  0
   -0.7700   -3.6050    1.1690 C   0  0  0  0  0  0  0  0  0  0  0  0
   -2.0460   -3.5290    0.6500 C   0  0  0  0  0  0  0  0  0  0  0  0
   -2.2670   -3.1160   -0.7450 C   0  0  0  0  0  0  0  0  0  0  0  0
   -2.4460   -1.6210   -0.9010 C   0  0  2  0  0  0  0  0  0  0  0  0
   -1.2000   -1.0170   -0.3950 N   0  0  0  0  0  0  0  0  0  0  0  0
   -3.6210   -1.2180   -0.1090 C   0  0  0  0  0  0  0  0  0  0  0  0
   -3.4670   -0.4390    0.8640 O   0  0  0  0  0  0  0  0  0  0  0  0
   -3.1130   -3.8510    1.4730 C   0  0  0  0  0  0  0  0  0  0  0  0
   -2.9280   -4.2440    2.7920 C   0  0  0  0  0  0  0  0  0  0  0  0
   -4.9040   -1.6420   -0.3640 O   0  0  0  0  0  0  0  0  0  0  0  0
   -2.1190   -4.5430    5.3600 H   0  0  0  0  0  0  0  0  0  0  0  0
    0.4360   -4.0430    2.8560 H   0  0  0  0  0  0  0  0  0  0  0  0
    0.1170   -3.3620    0.5660 H   0  0  0  0  0  0  0  0  0  0  0  0
   -1.3570   -3.3980   -1.3180 H   0  0  0  0  0  0  0  0  0  0  0  0
   -3.1320   -3.6830   -1.1620 H   0  0  0  0  0  0  0  0  0  0  0  0
   -2.6020   -1.3850   -1.9550 H   0  0  0  0  0  0  0  0  0  0  0  0
   -0.9570   -1.2170    0.5950 H   0  0  0  0  0  0  0  0  0  0  0  0
   -4.1410   -3.8160    1.1360 H   0  0  0  0  0  0  0  0  0  0  0  0
   -3.7430   -4.4990    3.4500 H   0  0  0  0  0  0  0  0  0  0  0  0
  1 10  1  0  0  0  0
  1  2  1  0  0  0  0
  2  3  1  0  0  0  0
  2 12  1  0  0  0  0
  3 13  1  0  0  0  0
  4  2  1  0  0  0  0
  4 17  1  0  0  0  0
  5  6  1  0  0  0  0
  5 18  1  1  0  0  0
  5  4  1  0  0  0  0
  6 19  1  0  0  0  0
  7  5  1  0  0  0  0
  8  7  2  0  0  0  0
  9  1  1  0  0  0  0
 11  1  1  0  0  0  0
 14  3  1  0  0  0  0
 15  3  1  0  0  0  0
 16  4  1  0  0  0  0
 20  6  1  0  0  0  0
 21 22  1  0  0  0  0
 22 23  2  0  0  0  0
 22 32  1  0  0  0  0
 23 24  1  0  0  0  0
 24 35  1  0  0  0  0
 24 25  2  0  0  0  0
 25 26  1  0  0  0  0
 26 37  1  0  0  0  0
 26 36  1  0  0  0  0
 26 27  1  0  0  0  0
 27 38  1  6  0  0  0
 27 28  1  0  0  0  0
 28 39  1  0  0  0  0
 28  7  1  0  0  0  0
 29 27  1  0  0  0  0
 29 49  1  0  0  0  0
 30 29  2  0  0  0  0
 31 40  1  0  0  0  0
 31 25  1  0  0  0  0
 32 31  2  0  0  0  0
 33 21  1  0  0  0  0
 34 23  1  0  0  0  0
 41 32  1  0  0  0  0
 42 55  1  0  0  0  0
 43 42  1  0  0  0  0
 44 56  1  0  0  0  0
 44 43  2  0  0  0  0
 45 44  1  0  0  0  0
 46 45  2  0  0  0  0
 46 52  1  0  0  0  0
 47 46  1  0  0  0  0
 48 60  1  6  0  0  0
 48 47  1  0  0  0  0
 48 49  1  0  0  0  0
 48 50  1  0  0  0  0
 49 61  1  0  0  0  0
 50 51  1  0  0  0  0
 52 53  2  0  0  0  0
 53 43  1  0  0  0  0
 53 63  1  0  0  0  0
 54 50  2  0  0  0  0
 57 45  1  0  0  0  0
 58 47  1  0  0  0  0
 59 47  1  0  0  0  0
 62 52  1  0  0  0  0
M  END
$$$$
