MAA.pdb
 OpenBabel07022418533D

 39 38  0  0  1  0  0  0  0  0999 V2000
   -1.1090   -4.6640    2.9780 C   0  0  0  0  0  0  0  0  0  0  0  0
    0.4730   -4.8520    2.1660 S   0  0  0  0  0  0  0  0  0  0  0  0
    0.3540   -5.0180    0.3870 C   0  0  0  0  0  0  0  0  0  0  0  0
   -0.1560   -3.7730   -0.2900 C   0  0  0  0  0  0  0  0  0  0  0  0
    0.7370   -2.5720   -0.0420 C   0  0  2  0  0  0  0  0  0  0  0  0
    0.8320   -2.2800    1.3800 N   0  0  0  0  0  0  0  0  0  0  0  0
    0.0560   -1.4200   -0.7090 C   0  0  0  0  0  0  0  0  0  0  0  0
   -0.1420   -1.4110   -1.9510 O   0  0  0  0  0  0  0  0  0  0  0  0
   -1.1750   -3.6440    3.4270 H   0  0  0  0  0  0  0  0  0  0  0  0
   -1.9830   -4.8590    2.3470 H   0  0  0  0  0  0  0  0  0  0  0  0
   -1.1740   -5.3790    3.8350 H   0  0  0  0  0  0  0  0  0  0  0  0
   -0.4130   -5.8130    0.1750 H   0  0  0  0  0  0  0  0  0  0  0  0
    1.3200   -5.3020   -0.0440 H   0  0  0  0  0  0  0  0  0  0  0  0
   -1.1660   -3.4880    0.0460 H   0  0  0  0  0  0  0  0  0  0  0  0
   -0.2060   -3.9400   -1.3830 H   0  0  0  0  0  0  0  0  0  0  0  0
    1.7620   -2.7300   -0.4110 H   0  0  0  0  0  0  0  0  0  0  0  0
    1.4750   -1.5130    1.5860 H   0  0  0  0  0  0  0  0  0  0  0  0
   -0.1000   -2.2000    1.8300 H   0  0  0  0  0  0  0  0  0  0  0  0
   -2.4560    1.0240   -0.0020 C   0  0  0  0  0  0  0  0  0  0  0  0
   -1.0550    0.8410   -0.5500 C   0  0  2  0  0  0  0  0  0  0  0  0
   -0.3910   -0.3000    0.0290 N   0  0  0  0  0  0  0  0  0  0  0  0
   -0.3080    2.0830   -0.2170 C   0  0  0  0  0  0  0  0  0  0  0  0
   -0.7140    3.2200   -0.6330 O   0  0  0  0  0  0  0  0  0  0  0  0
   -2.5050    0.9020    1.0920 H   0  0  0  0  0  0  0  0  0  0  0  0
   -2.7570    2.0660   -0.2300 H   0  0  0  0  0  0  0  0  0  0  0  0
   -3.1830    0.3600   -0.5140 H   0  0  0  0  0  0  0  0  0  0  0  0
   -1.1560    0.7360   -1.6410 H   0  0  0  0  0  0  0  0  0  0  0  0
   -0.2240   -0.3130    1.0610 H   0  0  0  0  0  0  0  0  0  0  0  0
    1.5320    3.5120    2.3820 C   0  0  0  0  0  0  0  0  0  0  0  0
    1.5710    3.3700    0.8590 C   0  0  2  0  0  0  0  0  0  0  0  0
    0.8830    2.1040    0.5680 N   0  0  0  0  0  0  0  0  0  0  0  0
    2.9990    3.2300    0.4920 C   0  0  0  0  0  0  0  0  0  0  0  0
    3.7950    4.1870    0.6470 O   0  0  0  0  0  0  0  0  0  0  0  0
    3.4780    2.0390   -0.0300 O   0  0  0  0  0  0  0  0  0  0  0  0
    2.0340    2.6220    2.8220 H   0  0  0  0  0  0  0  0  0  0  0  0
    2.1230    4.3950    2.7130 H   0  0  0  0  0  0  0  0  0  0  0  0
    0.4950    3.5170    2.7490 H   0  0  0  0  0  0  0  0  0  0  0  0
    1.0610    4.2170    0.4030 H   0  0  0  0  0  0  0  0  0  0  0  0
    1.2450    1.1970    0.9250 H   0  0  0  0  0  0  0  0  0  0  0  0
  1  9  1  0  0  0  0
  1 11  1  0  0  0  0
  2  1  1  0  0  0  0
  3  2  1  0  0  0  0
  4  5  1  0  0  0  0
  4 14  1  0  0  0  0
  4  3  1  0  0  0  0
  5 16  1  6  0  0  0
  5  6  1  0  0  0  0
  6 17  1  0  0  0  0
  6 18  1  0  0  0  0
  7  5  1  0  0  0  0
  7 21  1  0  0  0  0
  8  7  2  0  0  0  0
 10  1  1  0  0  0  0
 12  3  1  0  0  0  0
 13  3  1  0  0  0  0
 15  4  1  0  0  0  0
 19 24  1  0  0  0  0
 20 27  1  6  0  0  0
 20 22  1  0  0  0  0
 20 19  1  0  0  0  0
 20 21  1  0  0  0  0
 21 28  1  0  0  0  0
 22 31  1  0  0  0  0
 23 22  2  0  0  0  0
 25 19  1  0  0  0  0
 26 19  1  0  0  0  0
 29 36  1  0  0  0  0
 29 37  1  0  0  0  0
 29 35  1  0  0  0  0
 30 38  1  6  0  0  0
 30 29  1  0  0  0  0
 31 30  1  0  0  0  0
 31 39  1  0  0  0  0
 32 33  1  0  0  0  0
 32 30  1  0  0  0  0
 34 32  2  0  0  0  0
M  END
$$$$
