MAC.pdb
 OpenBabel07022418533D

 40 39  0  0  1  0  0  0  0  0999 V2000
    3.5860   -4.0390    2.8960 C   0  0  0  0  0  0  0  0  0  0  0  0
    3.4520   -2.2390    2.7710 S   0  0  0  0  0  0  0  0  0  0  0  0
    4.0500   -1.7040    1.1650 C   0  0  0  0  0  0  0  0  0  0  0  0
    3.9800   -0.2260    0.9630 C   0  0  0  0  0  0  0  0  0  0  0  0
    2.5920    0.3290    1.0660 C   0  0  2  0  0  0  0  0  0  0  0  0
    1.9790    0.0950    2.3420 N   0  0  0  0  0  0  0  0  0  0  0  0
    1.7120   -0.2140    0.0070 C   0  0  0  0  0  0  0  0  0  0  0  0
    2.0580   -0.1170   -1.2060 O   0  0  0  0  0  0  0  0  0  0  0  0
    2.9990   -4.4350    3.7690 H   0  0  0  0  0  0  0  0  0  0  0  0
    4.6300   -4.3730    3.0590 H   0  0  0  0  0  0  0  0  0  0  0  0
    3.2070   -4.5550    1.9860 H   0  0  0  0  0  0  0  0  0  0  0  0
    5.1210   -2.0030    1.0170 H   0  0  0  0  0  0  0  0  0  0  0  0
    3.5020   -2.2090    0.3270 H   0  0  0  0  0  0  0  0  0  0  0  0
    4.3820   -0.0030   -0.0450 H   0  0  0  0  0  0  0  0  0  0  0  0
    4.6540    0.2540    1.6850 H   0  0  0  0  0  0  0  0  0  0  0  0
    2.6500    1.4290    0.9230 H   0  0  0  0  0  0  0  0  0  0  0  0
    1.1100    0.6140    2.4900 H   0  0  0  0  0  0  0  0  0  0  0  0
    2.6520    0.1530    3.1380 H   0  0  0  0  0  0  0  0  0  0  0  0
   -0.5710   -2.8520   -0.5610 C   0  0  0  0  0  0  0  0  0  0  0  0
   -0.3550   -1.3640   -0.7030 C   0  0  2  0  0  0  0  0  0  0  0  0
    0.4870   -0.8420    0.3300 N   0  0  0  0  0  0  0  0  0  0  0  0
   -1.6690   -0.6360   -0.7590 C   0  0  0  0  0  0  0  0  0  0  0  0
   -2.5520   -0.9400   -1.5960 O   0  0  0  0  0  0  0  0  0  0  0  0
   -1.5640   -3.0780   -0.9990 H   0  0  0  0  0  0  0  0  0  0  0  0
    0.1950   -3.3680   -1.1570 H   0  0  0  0  0  0  0  0  0  0  0  0
   -0.4610   -3.2090    0.4820 H   0  0  0  0  0  0  0  0  0  0  0  0
    0.1250   -1.1780   -1.6830 H   0  0  0  0  0  0  0  0  0  0  0  0
    0.1700   -0.9380    1.3440 H   0  0  0  0  0  0  0  0  0  0  0  0
   -1.9670    0.4290    0.1370 N   0  0  0  0  0  0  0  0  0  0  0  0
   -3.2460    1.1280    0.0750 C   0  0  1  0  0  0  0  0  0  0  0  0
   -3.9330    0.8840    1.4070 C   0  0  0  0  0  0  0  0  0  0  0  0
   -2.8610    1.5540    2.7190 S   0  0  0  0  0  0  0  0  0  0  0  0
   -3.0400    2.5960   -0.0900 C   0  0  0  0  0  0  0  0  0  0  0  0
   -4.0350    3.3610   -0.1630 O   0  0  0  0  0  0  0  0  0  0  0  0
   -1.7860    3.1860   -0.1700 O   0  0  0  0  0  0  0  0  0  0  0  0
   -1.2460    0.6970    0.8410 H   0  0  0  0  0  0  0  0  0  0  0  0
   -3.8970    0.7390   -0.7080 H   0  0  0  0  0  0  0  0  0  0  0  0
   -4.1010   -0.2020    1.5530 H   0  0  0  0  0  0  0  0  0  0  0  0
   -4.8850    1.4650    1.3930 H   0  0  0  0  0  0  0  0  0  0  0  0
   -1.8980    0.5690    3.0330 H   0  0  0  0  0  0  0  0  0  0  0  0
  1 10  1  0  0  0  0
  1  9  1  0  0  0  0
  2  1  1  0  0  0  0
  3  2  1  0  0  0  0
  4  5  1  0  0  0  0
  4  3  1  0  0  0  0
  4 15  1  0  0  0  0
  5 16  1  6  0  0  0
  5  6  1  0  0  0  0
  6 17  1  0  0  0  0
  6 18  1  0  0  0  0
  7 21  1  0  0  0  0
  7  5  1  0  0  0  0
  8  7  2  0  0  0  0
 11  1  1  0  0  0  0
 12  3  1  0  0  0  0
 13  3  1  0  0  0  0
 14  4  1  0  0  0  0
 19 26  1  0  0  0  0
 20 27  1  6  0  0  0
 20 19  1  0  0  0  0
 20 21  1  0  0  0  0
 21 28  1  0  0  0  0
 22 20  1  0  0  0  0
 22 29  1  0  0  0  0
 23 22  2  0  0  0  0
 24 19  1  0  0  0  0
 25 19  1  0  0  0  0
 29 36  1  0  0  0  0
 30 37  1  6  0  0  0
 30 29  1  0  0  0  0
 30 31  1  0  0  0  0
 31 38  1  0  0  0  0
 31 32  1  0  0  0  0
 32 40  1  0  0  0  0
 33 30  1  0  0  0  0
 34 33  1  0  0  0  0
 35 33  2  0  0  0  0
 39 31  1  0  0  0  0
M  END
$$$$
