MAD.pdb
 OpenBabel07022418533D

 42 41  0  0  1  0  0  0  0  0999 V2000
   -1.1440   -4.8890    2.3410 C   0  0  0  0  0  0  0  0  0  0  0  0
   -0.3180   -5.9890    1.1940 S   0  0  0  0  0  0  0  0  0  0  0  0
   -0.3010   -5.4410   -0.5040 C   0  0  0  0  0  0  0  0  0  0  0  0
    0.5090   -4.2270   -0.7860 C   0  0  0  0  0  0  0  0  0  0  0  0
    0.0780   -3.0050   -0.0420 C   0  0  2  0  0  0  0  0  0  0  0  0
   -1.2640   -2.6590   -0.3630 N   0  0  0  0  0  0  0  0  0  0  0  0
    1.0300   -1.8730   -0.2340 C   0  0  0  0  0  0  0  0  0  0  0  0
    2.2420   -2.1030   -0.0400 O   0  0  0  0  0  0  0  0  0  0  0  0
   -1.8810   -4.1960    1.8810 H   0  0  0  0  0  0  0  0  0  0  0  0
   -0.4590   -4.3840    3.0660 H   0  0  0  0  0  0  0  0  0  0  0  0
   -1.7850   -5.5560    2.9980 H   0  0  0  0  0  0  0  0  0  0  0  0
   -1.3330   -5.3940   -0.9370 H   0  0  0  0  0  0  0  0  0  0  0  0
    0.1790   -6.2810   -1.1010 H   0  0  0  0  0  0  0  0  0  0  0  0
    0.4650   -3.9690   -1.8880 H   0  0  0  0  0  0  0  0  0  0  0  0
    1.6100   -4.4370   -0.6200 H   0  0  0  0  0  0  0  0  0  0  0  0
    0.1510   -3.2320    1.0630 H   0  0  0  0  0  0  0  0  0  0  0  0
   -1.7330   -2.0090    0.2960 H   0  0  0  0  0  0  0  0  0  0  0  0
   -1.8400   -3.5230   -0.4130 H   0  0  0  0  0  0  0  0  0  0  0  0
    1.3830    1.1170   -2.1530 C   0  0  0  0  0  0  0  0  0  0  0  0
    1.6140    0.5060   -0.7980 C   0  0  2  0  0  0  0  0  0  0  0  0
    0.6260   -0.5590   -0.6240 N   0  0  0  0  0  0  0  0  0  0  0  0
    1.4890    1.5440    0.3010 C   0  0  0  0  0  0  0  0  0  0  0  0
    2.2770    2.4850    0.2790 O   0  0  0  0  0  0  0  0  0  0  0  0
    1.0450    0.3070   -2.8640 H   0  0  0  0  0  0  0  0  0  0  0  0
    0.6130    1.9190   -2.1140 H   0  0  0  0  0  0  0  0  0  0  0  0
    2.3400    1.5060   -2.6010 H   0  0  0  0  0  0  0  0  0  0  0  0
    2.6450    0.1020   -0.6860 H   0  0  0  0  0  0  0  0  0  0  0  0
   -0.3950   -0.4160   -0.7730 H   0  0  0  0  0  0  0  0  0  0  0  0
    0.5300    1.4510    1.3010 N   0  0  0  0  0  0  0  0  0  0  0  0
    0.2190    2.2230    2.4270 C   0  0  1  0  0  0  0  0  0  0  0  0
    0.8100    3.5980    2.5860 C   0  0  0  0  0  0  0  0  0  0  0  0
    2.2620    3.5530    2.7620 C   0  0  0  0  0  0  0  0  0  0  0  0
    2.7860    2.4240    3.0690 O   0  0  0  0  0  0  0  0  0  0  0  0
   -1.1540    2.1850    2.9210 C   0  0  0  0  0  0  0  0  0  0  0  0
   -2.0130    1.4840    2.3190 O   0  0  0  0  0  0  0  0  0  0  0  0
    3.1390    4.6150    2.6310 O   0  0  0  0  0  0  0  0  0  0  0  0
   -1.5940    2.8820    4.0350 O   0  0  0  0  0  0  0  0  0  0  0  0
   -0.1250    0.5830    1.1820 H   0  0  0  0  0  0  0  0  0  0  0  0
    0.8580    1.6790    3.2740 H   0  0  0  0  0  0  0  0  0  0  0  0
    0.4640    4.3380    1.8380 H   0  0  0  0  0  0  0  0  0  0  0  0
    0.3850    3.9880    3.5640 H   0  0  0  0  0  0  0  0  0  0  0  0
    4.1240    4.4320    2.7520 H   0  0  0  0  0  0  0  0  0  0  0  0
  1 11  1  0  0  0  0
  1 10  1  0  0  0  0
  2  1  1  0  0  0  0
  3  2  1  0  0  0  0
  4 15  1  0  0  0  0
  4  3  1  0  0  0  0
  4  5  1  0  0  0  0
  5 16  1  1  0  0  0
  6  5  1  0  0  0  0
  6 17  1  0  0  0  0
  7  5  1  0  0  0  0
  7  8  2  0  0  0  0
  9  1  1  0  0  0  0
 12  3  1  0  0  0  0
 13  3  1  0  0  0  0
 14  4  1  0  0  0  0
 18  6  1  0  0  0  0
 19 25  1  0  0  0  0
 19 20  1  0  0  0  0
 20 27  1  1  0  0  0
 20 21  1  0  0  0  0
 20 22  1  0  0  0  0
 21  7  1  0  0  0  0
 22 29  1  0  0  0  0
 23 22  2  0  0  0  0
 24 19  1  0  0  0  0
 26 19  1  0  0  0  0
 28 21  1  0  0  0  0
 29 30  1  0  0  0  0
 30 31  1  0  0  0  0
 30 34  1  0  0  0  0
 30 39  1  1  0  0  0
 31 32  1  0  0  0  0
 31 41  1  0  0  0  0
 32 33  2  0  0  0  0
 34 37  1  0  0  0  0
 35 34  2  0  0  0  0
 36 42  1  0  0  0  0
 36 32  1  0  0  0  0
 38 29  1  0  0  0  0
 40 31  1  0  0  0  0
M  END
$$$$
