MAE.pdb
 OpenBabel07022418533D

 45 44  0  0  1  0  0  0  0  0999 V2000
    3.5690   -7.5660   -0.5890 C   0  0  0  0  0  0  0  0  0  0  0  0
    3.7730   -6.2320    0.6150 S   0  0  0  0  0  0  0  0  0  0  0  0
    2.3820   -5.0500    0.5130 C   0  0  0  0  0  0  0  0  0  0  0  0
    2.3980   -4.3300   -0.8070 C   0  0  0  0  0  0  0  0  0  0  0  0
    1.2510   -3.3880   -0.9050 C   0  0  2  0  0  0  0  0  0  0  0  0
    1.3420   -2.7380   -2.2110 N   0  0  0  0  0  0  0  0  0  0  0  0
    1.1280   -2.4150    0.1780 C   0  0  0  0  0  0  0  0  0  0  0  0
    0.9070   -2.7830    1.3460 O   0  0  0  0  0  0  0  0  0  0  0  0
    3.5010   -8.5630   -0.0890 H   0  0  0  0  0  0  0  0  0  0  0  0
    2.6440   -7.4380   -1.1870 H   0  0  0  0  0  0  0  0  0  0  0  0
    4.4360   -7.6040   -1.2700 H   0  0  0  0  0  0  0  0  0  0  0  0
    2.5420   -4.3320    1.3660 H   0  0  0  0  0  0  0  0  0  0  0  0
    1.4260   -5.5670    0.6800 H   0  0  0  0  0  0  0  0  0  0  0  0
    2.2250   -5.1300   -1.5850 H   0  0  0  0  0  0  0  0  0  0  0  0
    3.3830   -3.8480   -0.9860 H   0  0  0  0  0  0  0  0  0  0  0  0
    0.3120   -4.0020   -0.9460 H   0  0  0  0  0  0  0  0  0  0  0  0
    2.3060   -2.4080   -2.4140 H   0  0  0  0  0  0  0  0  0  0  0  0
    0.8990   -3.2860   -2.9610 H   0  0  0  0  0  0  0  0  0  0  0  0
    2.4550    0.6620    1.2020 C   0  0  0  0  0  0  0  0  0  0  0  0
    1.1240   -0.0400    1.0670 C   0  0  2  0  0  0  0  0  0  0  0  0
    1.2460   -0.9990   -0.0070 N   0  0  0  0  0  0  0  0  0  0  0  0
    0.0350    0.8960    0.7030 C   0  0  0  0  0  0  0  0  0  0  0  0
   -0.5760    0.7430   -0.3820 O   0  0  0  0  0  0  0  0  0  0  0  0
    2.6000    1.4340    0.4420 H   0  0  0  0  0  0  0  0  0  0  0  0
    2.5800    1.0370    2.2450 H   0  0  0  0  0  0  0  0  0  0  0  0
    3.2410   -0.1100    1.0660 H   0  0  0  0  0  0  0  0  0  0  0  0
    0.9340   -0.5490    2.0350 H   0  0  0  0  0  0  0  0  0  0  0  0
    1.4310   -0.6670   -0.9760 H   0  0  0  0  0  0  0  0  0  0  0  0
   -0.3760    1.9770    1.5100 N   0  0  0  0  0  0  0  0  0  0  0  0
   -1.4490    2.9110    1.1660 C   0  0  1  0  0  0  0  0  0  0  0  0
   -2.4910    2.7000    2.2330 C   0  0  0  0  0  0  0  0  0  0  0  0
   -3.6590    3.5830    2.0140 C   0  0  0  0  0  0  0  0  0  0  0  0
   -4.7280    3.3660    3.0420 C   0  0  0  0  0  0  0  0  0  0  0  0
   -5.7560    4.0760    2.9320 O   0  0  0  0  0  0  0  0  0  0  0  0
   -0.9690    4.3000    1.1980 C   0  0  0  0  0  0  0  0  0  0  0  0
    0.2090    4.5210    1.5900 O   0  0  0  0  0  0  0  0  0  0  0  0
   -4.6360    2.4550    4.0670 O   0  0  0  0  0  0  0  0  0  0  0  0
   -1.7190    5.3900    0.8240 O   0  0  0  0  0  0  0  0  0  0  0  0
    0.1190    2.1200    2.4130 H   0  0  0  0  0  0  0  0  0  0  0  0
   -1.9050    2.6760    0.1980 H   0  0  0  0  0  0  0  0  0  0  0  0
   -1.9950    2.8570    3.2280 H   0  0  0  0  0  0  0  0  0  0  0  0
   -2.7620    1.6050    2.2090 H   0  0  0  0  0  0  0  0  0  0  0  0
   -4.0890    3.4550    1.0240 H   0  0  0  0  0  0  0  0  0  0  0  0
   -3.3250    4.6470    2.1700 H   0  0  0  0  0  0  0  0  0  0  0  0
   -5.4370    2.2770    4.6690 H   0  0  0  0  0  0  0  0  0  0  0  0
  1  9  1  0  0  0  0
  1  2  1  0  0  0  0
  3  2  1  0  0  0  0
  3 13  1  0  0  0  0
  3 12  1  0  0  0  0
  4  3  1  0  0  0  0
  5 16  1  6  0  0  0
  5  4  1  0  0  0  0
  5  7  1  0  0  0  0
  6  5  1  0  0  0  0
  7  8  2  0  0  0  0
 10  1  1  0  0  0  0
 11  1  1  0  0  0  0
 14  4  1  0  0  0  0
 15  4  1  0  0  0  0
 17  6  1  0  0  0  0
 18  6  1  0  0  0  0
 19 25  1  0  0  0  0
 20 19  1  0  0  0  0
 20 27  1  1  0  0  0
 21  7  1  0  0  0  0
 21 20  1  0  0  0  0
 22 20  1  0  0  0  0
 22 29  1  0  0  0  0
 23 22  2  0  0  0  0
 24 19  1  0  0  0  0
 26 19  1  0  0  0  0
 28 21  1  0  0  0  0
 29 39  1  0  0  0  0
 30 40  1  6  0  0  0
 30 35  1  0  0  0  0
 30 29  1  0  0  0  0
 30 31  1  0  0  0  0
 31 41  1  0  0  0  0
 32 44  1  0  0  0  0
 32 31  1  0  0  0  0
 32 33  1  0  0  0  0
 33 37  1  0  0  0  0
 34 33  2  0  0  0  0
 35 36  1  0  0  0  0
 37 45  1  0  0  0  0
 38 35  2  0  0  0  0
 42 31  1  0  0  0  0
 43 32  1  0  0  0  0
M  END
$$$$
