MAF.pdb
 OpenBabel07022418533D

 49 49  0  0  1  0  0  0  0  0999 V2000
    4.5580   -4.2560    1.9580 C   0  0  0  0  0  0  0  0  0  0  0  0
    4.0610   -3.9060    0.2350 S   0  0  0  0  0  0  0  0  0  0  0  0
    2.3110   -3.4280    0.2830 C   0  0  0  0  0  0  0  0  0  0  0  0
    1.7930   -3.1130   -1.1030 C   0  0  0  0  0  0  0  0  0  0  0  0
    2.5370   -1.9820   -1.7580 C   0  0  2  0  0  0  0  0  0  0  0  0
    3.9420   -2.3030   -1.8900 N   0  0  0  0  0  0  0  0  0  0  0  0
    2.3990   -0.7050   -1.0640 C   0  0  0  0  0  0  0  0  0  0  0  0
    3.4230   -0.0870   -0.6930 O   0  0  0  0  0  0  0  0  0  0  0  0
    3.6810   -4.7250    2.4500 H   0  0  0  0  0  0  0  0  0  0  0  0
    5.4210   -4.9670    1.9740 H   0  0  0  0  0  0  0  0  0  0  0  0
    4.8750   -3.3100    2.4460 H   0  0  0  0  0  0  0  0  0  0  0  0
    2.2380   -2.5560    0.9620 H   0  0  0  0  0  0  0  0  0  0  0  0
    1.7490   -4.3130    0.6460 H   0  0  0  0  0  0  0  0  0  0  0  0
    0.7110   -2.9390   -1.1130 H   0  0  0  0  0  0  0  0  0  0  0  0
    1.9810   -4.0230   -1.7260 H   0  0  0  0  0  0  0  0  0  0  0  0
    2.1050   -1.8650   -2.7770 H   0  0  0  0  0  0  0  0  0  0  0  0
    4.4650   -1.7880   -1.1270 H   0  0  0  0  0  0  0  0  0  0  0  0
    4.2750   -1.8330   -2.7810 H   0  0  0  0  0  0  0  0  0  0  0  0
    0.4840    2.2440   -0.9850 C   0  0  0  0  0  0  0  0  0  0  0  0
    1.0970    1.1840   -0.0710 C   0  0  2  0  0  0  0  0  0  0  0  0
    1.1460   -0.0910   -0.7670 N   0  0  0  0  0  0  0  0  0  0  0  0
    0.2320    1.1120    1.1310 C   0  0  0  0  0  0  0  0  0  0  0  0
    0.1170    2.1650    1.8120 O   0  0  0  0  0  0  0  0  0  0  0  0
    1.2530    2.7650   -1.5830 H   0  0  0  0  0  0  0  0  0  0  0  0
    0.0090    3.0170   -0.3360 H   0  0  0  0  0  0  0  0  0  0  0  0
   -0.3370    1.8140   -1.5930 H   0  0  0  0  0  0  0  0  0  0  0  0
    2.1240    1.5370    0.1550 H   0  0  0  0  0  0  0  0  0  0  0  0
    0.2960   -0.6020   -1.0730 H   0  0  0  0  0  0  0  0  0  0  0  0
   -0.4600   -0.0280    1.5580 N   0  0  0  0  0  0  0  0  0  0  0  0
   -1.2870   -0.0290    2.7380 C   0  0  1  0  0  0  0  0  0  0  0  0
   -2.7170   -0.3940    2.4560 C   0  0  0  0  0  0  0  0  0  0  0  0
   -3.3850    0.5100    1.5210 C   0  0  0  0  0  0  0  0  0  0  0  0
   -3.3330    0.2360    0.1730 C   0  0  0  0  0  0  0  0  0  0  0  0
   -3.9510    1.0670   -0.7310 C   0  0  0  0  0  0  0  0  0  0  0  0
   -4.6350    2.1900   -0.3190 C   0  0  0  0  0  0  0  0  0  0  0  0
   -4.6910    2.4720    1.0410 C   0  0  0  0  0  0  0  0  0  0  0  0
   -4.0680    1.6310    1.9400 C   0  0  0  0  0  0  0  0  0  0  0  0
   -0.7190   -0.9890    3.7130 C   0  0  0  0  0  0  0  0  0  0  0  0
   -1.3090   -1.1290    4.8120 O   0  0  0  0  0  0  0  0  0  0  0  0
    0.4260   -1.7050    3.4090 O   0  0  0  0  0  0  0  0  0  0  0  0
   -0.3750   -0.9030    1.0060 H   0  0  0  0  0  0  0  0  0  0  0  0
   -1.2940    0.9620    3.2350 H   0  0  0  0  0  0  0  0  0  0  0  0
   -2.7170   -1.4600    2.1160 H   0  0  0  0  0  0  0  0  0  0  0  0
   -3.2550   -0.3880    3.4270 H   0  0  0  0  0  0  0  0  0  0  0  0
   -2.8090   -0.6370   -0.2260 H   0  0  0  0  0  0  0  0  0  0  0  0
   -3.9220    0.8710   -1.7890 H   0  0  0  0  0  0  0  0  0  0  0  0
   -5.1210    2.8410   -1.0500 H   0  0  0  0  0  0  0  0  0  0  0  0
   -5.2350    3.3590    1.3310 H   0  0  0  0  0  0  0  0  0  0  0  0
   -4.1460    1.9040    2.9930 H   0  0  0  0  0  0  0  0  0  0  0  0
  1 10  1  0  0  0  0
  1 11  1  0  0  0  0
  1  9  1  0  0  0  0
  2  3  1  0  0  0  0
  2  1  1  0  0  0  0
  3 13  1  0  0  0  0
  3 12  1  0  0  0  0
  4  3  1  0  0  0  0
  5 16  1  6  0  0  0
  5  4  1  0  0  0  0
  5  7  1  0  0  0  0
  6  5  1  0  0  0  0
  6 17  1  0  0  0  0
  7 21  1  0  0  0  0
  7  8  2  0  0  0  0
 14  4  1  0  0  0  0
 15  4  1  0  0  0  0
 18  6  1  0  0  0  0
 19 25  1  0  0  0  0
 19 20  1  0  0  0  0
 20 27  1  1  0  0  0
 20 22  1  0  0  0  0
 21 20  1  0  0  0  0
 22 29  1  0  0  0  0
 22 23  2  0  0  0  0
 24 19  1  0  0  0  0
 26 19  1  0  0  0  0
 28 21  1  0  0  0  0
 29 30  1  0  0  0  0
 30 42  1  1  0  0  0
 30 38  1  0  0  0  0
 31 30  1  0  0  0  0
 31 44  1  0  0  0  0
 32 37  1  0  0  0  0
 32 31  1  0  0  0  0
 33 32  2  0  0  0  0
 34 35  2  0  0  0  0
 34 33  1  0  0  0  0
 35 36  1  0  0  0  0
 36 48  1  0  0  0  0
 36 37  2  0  0  0  0
 37 49  1  0  0  0  0
 38 39  1  0  0  0  0
 40 38  2  0  0  0  0
 41 29  1  0  0  0  0
 43 31  1  0  0  0  0
 45 33  1  0  0  0  0
 46 34  1  0  0  0  0
 47 35  1  0  0  0  0
M  END
$$$$
