MAG.pdb
 OpenBabel07022418533D

 36 35  0  0  1  0  0  0  0  0999 V2000
    2.8190   -4.3630    2.9880 C   0  0  0  0  0  0  0  0  0  0  0  0
    1.8340   -4.5240    1.4530 S   0  0  0  0  0  0  0  0  0  0  0  0
    0.4250   -3.4220    1.6070 C   0  0  0  0  0  0  0  0  0  0  0  0
   -0.4830   -3.4410    0.4190 C   0  0  0  0  0  0  0  0  0  0  0  0
    0.1680   -3.0400   -0.8620 C   0  0  2  0  0  0  0  0  0  0  0  0
    1.2730   -3.9060   -1.2130 N   0  0  0  0  0  0  0  0  0  0  0  0
    0.5780   -1.6480   -0.9450 C   0  0  0  0  0  0  0  0  0  0  0  0
    1.7600   -1.3960   -1.2860 O   0  0  0  0  0  0  0  0  0  0  0  0
    2.9320   -3.2780    3.2060 H   0  0  0  0  0  0  0  0  0  0  0  0
    2.2420   -4.7740    3.8630 H   0  0  0  0  0  0  0  0  0  0  0  0
    3.7670   -4.8980    2.9280 H   0  0  0  0  0  0  0  0  0  0  0  0
   -0.1680   -3.7440    2.4880 H   0  0  0  0  0  0  0  0  0  0  0  0
    0.8080   -2.4080    1.8480 H   0  0  0  0  0  0  0  0  0  0  0  0
   -0.8640   -4.4780    0.3050 H   0  0  0  0  0  0  0  0  0  0  0  0
   -1.3430   -2.7930    0.6200 H   0  0  0  0  0  0  0  0  0  0  0  0
   -0.6030   -3.2050   -1.6720 H   0  0  0  0  0  0  0  0  0  0  0  0
    1.6040   -3.7800   -2.1740 H   0  0  0  0  0  0  0  0  0  0  0  0
    1.0810   -4.9070   -0.9730 H   0  0  0  0  0  0  0  0  0  0  0  0
   -0.6390    1.4770   -1.8390 C   0  0  0  0  0  0  0  0  0  0  0  0
    0.1650    0.7830   -0.7550 C   0  0  2  0  0  0  0  0  0  0  0  0
   -0.3220   -0.5780   -0.6490 N   0  0  0  0  0  0  0  0  0  0  0  0
   -0.0100    1.5170    0.5390 C   0  0  0  0  0  0  0  0  0  0  0  0
   -0.5190    0.9800    1.5570 O   0  0  0  0  0  0  0  0  0  0  0  0
   -0.2070    2.4470   -2.1230 H   0  0  0  0  0  0  0  0  0  0  0  0
   -1.6610    1.6750   -1.4660 H   0  0  0  0  0  0  0  0  0  0  0  0
   -0.7320    0.7750   -2.7010 H   0  0  0  0  0  0  0  0  0  0  0  0
    1.2270    0.7960   -1.0690 H   0  0  0  0  0  0  0  0  0  0  0  0
   -1.3080   -0.7640   -0.3640 H   0  0  0  0  0  0  0  0  0  0  0  0
    0.4050    2.8680    0.6460 N   0  0  0  0  0  0  0  0  0  0  0  0
    0.2720    3.6430    1.8550 C   0  0  0  0  0  0  0  0  0  0  0  0
   -1.1580    3.7240    2.2330 C   0  0  0  0  0  0  0  0  0  0  0  0
   -2.0100    3.1530    1.5120 O   0  0  0  0  0  0  0  0  0  0  0  0
   -1.6060    4.4050    3.3540 O   0  0  0  0  0  0  0  0  0  0  0  0
    0.8350    3.3500   -0.1830 H   0  0  0  0  0  0  0  0  0  0  0  0
    0.7250    4.6360    1.7750 H   0  0  0  0  0  0  0  0  0  0  0  0
    0.7670    3.0350    2.6690 H   0  0  0  0  0  0  0  0  0  0  0  0
  1  9  1  0  0  0  0
  1 10  1  0  0  0  0
  2  3  1  0  0  0  0
  2  1  1  0  0  0  0
  3 13  1  0  0  0  0
  3 12  1  0  0  0  0
  4 15  1  0  0  0  0
  4  3  1  0  0  0  0
  5 16  1  6  0  0  0
  5  4  1  0  0  0  0
  6 18  1  0  0  0  0
  6  5  1  0  0  0  0
  7  5  1  0  0  0  0
  7 21  1  0  0  0  0
  8  7  2  0  0  0  0
 11  1  1  0  0  0  0
 14  4  1  0  0  0  0
 17  6  1  0  0  0  0
 19 25  1  0  0  0  0
 19 20  1  0  0  0  0
 20 27  1  6  0  0  0
 20 21  1  0  0  0  0
 20 22  1  0  0  0  0
 21 28  1  0  0  0  0
 22 29  1  0  0  0  0
 22 23  2  0  0  0  0
 24 19  1  0  0  0  0
 26 19  1  0  0  0  0
 29 30  1  0  0  0  0
 30 31  1  0  0  0  0
 30 36  1  0  0  0  0
 31 33  1  0  0  0  0
 32 31  2  0  0  0  0
 34 29  1  0  0  0  0
 35 30  1  0  0  0  0
M  END
$$$$
