MAH.pdb
 OpenBabel07022418533D

 46 46  0  0  1  0  0  0  0  0999 V2000
    0.6480   -7.1960    3.4520 C   0  0  0  0  0  0  0  0  0  0  0  0
    1.8960   -6.1420    2.6730 S   0  0  0  0  0  0  0  0  0  0  0  0
    1.4790   -4.3740    2.8670 C   0  0  0  0  0  0  0  0  0  0  0  0
    0.2370   -4.0210    2.1170 C   0  0  0  0  0  0  0  0  0  0  0  0
   -0.1400   -2.5720    2.2790 C   0  0  2  0  0  0  0  0  0  0  0  0
   -1.3680   -2.3110    1.5220 N   0  0  0  0  0  0  0  0  0  0  0  0
    0.9480   -1.6900    1.8100 C   0  0  0  0  0  0  0  0  0  0  0  0
    2.0890   -1.5980    2.3200 O   0  0  0  0  0  0  0  0  0  0  0  0
    0.3430   -6.7500    4.4260 H   0  0  0  0  0  0  0  0  0  0  0  0
   -0.2060   -7.2780    2.7500 H   0  0  0  0  0  0  0  0  0  0  0  0
    1.1220   -8.1760    3.6710 H   0  0  0  0  0  0  0  0  0  0  0  0
    2.3630   -3.8410    2.4510 H   0  0  0  0  0  0  0  0  0  0  0  0
    1.3290   -4.1390    3.9410 H   0  0  0  0  0  0  0  0  0  0  0  0
    0.3660   -4.1930    1.0140 H   0  0  0  0  0  0  0  0  0  0  0  0
   -0.6380   -4.6290    2.4820 H   0  0  0  0  0  0  0  0  0  0  0  0
   -0.3990   -2.4130    3.3460 H   0  0  0  0  0  0  0  0  0  0  0  0
   -1.8200   -1.4840    1.9890 H   0  0  0  0  0  0  0  0  0  0  0  0
   -1.9970   -3.1240    1.7280 H   0  0  0  0  0  0  0  0  0  0  0  0
    2.1220   -0.2430   -1.2910 C   0  0  0  0  0  0  0  0  0  0  0  0
    1.7930    0.0550    0.1720 C   0  0  2  0  0  0  0  0  0  0  0  0
    0.7640   -0.8210    0.6670 N   0  0  0  0  0  0  0  0  0  0  0  0
    1.3140    1.4730    0.2910 C   0  0  0  0  0  0  0  0  0  0  0  0
    2.0320    2.4410   -0.0760 O   0  0  0  0  0  0  0  0  0  0  0  0
    2.5950    0.6480   -1.7100 H   0  0  0  0  0  0  0  0  0  0  0  0
    2.8380   -1.0860   -1.3790 H   0  0  0  0  0  0  0  0  0  0  0  0
    1.2050   -0.5530   -1.8430 H   0  0  0  0  0  0  0  0  0  0  0  0
    2.7270    0.0040    0.7290 H   0  0  0  0  0  0  0  0  0  0  0  0
   -0.1620   -0.8430    0.1880 H   0  0  0  0  0  0  0  0  0  0  0  0
    0.0450    1.7550    0.8170 N   0  0  0  0  0  0  0  0  0  0  0  0
   -0.5270    3.0500    0.9830 C   0  0  1  0  0  0  0  0  0  0  0  0
   -1.7500    3.1810    0.1350 C   0  0  0  0  0  0  0  0  0  0  0  0
   -1.3980    2.9890   -1.2900 C   0  0  0  0  0  0  0  0  0  0  0  0
   -1.3900    1.7960   -1.9770 C   0  0  0  0  0  0  0  0  0  0  0  0
   -1.0080    2.0820   -3.2520 N   0  0  0  0  0  0  0  0  0  0  0  0
   -0.7860    3.3980   -3.3590 C   0  0  0  0  0  0  0  0  0  0  0  0
   -1.0280    3.9410   -2.1530 N   0  0  0  0  0  0  0  0  0  0  0  0
   -0.7960    3.3970    2.3990 C   0  0  0  0  0  0  0  0  0  0  0  0
   -1.3080    4.5300    2.6520 O   0  0  0  0  0  0  0  0  0  0  0  0
   -0.5240    2.5610    3.4710 O   0  0  0  0  0  0  0  0  0  0  0  0
   -0.5480    0.9270    1.1230 H   0  0  0  0  0  0  0  0  0  0  0  0
    0.2170    3.8170    0.6190 H   0  0  0  0  0  0  0  0  0  0  0  0
   -2.4490    2.3530    0.4360 H   0  0  0  0  0  0  0  0  0  0  0  0
   -2.2480    4.1550    0.3080 H   0  0  0  0  0  0  0  0  0  0  0  0
   -1.6460    0.8410   -1.5410 H   0  0  0  0  0  0  0  0  0  0  0  0
   -0.9220    1.3440   -3.9790 H   0  0  0  0  0  0  0  0  0  0  0  0
   -0.4720    3.8860   -4.2670 H   0  0  0  0  0  0  0  0  0  0  0  0
  1 11  1  0  0  0  0
  1  9  1  0  0  0  0
  2  3  1  0  0  0  0
  2  1  1  0  0  0  0
  3 13  1  0  0  0  0
  4  5  1  0  0  0  0
  4 15  1  0  0  0  0
  4  3  1  0  0  0  0
  5 16  1  1  0  0  0
  6 18  1  0  0  0  0
  6 17  1  0  0  0  0
  6  5  1  0  0  0  0
  7  5  1  0  0  0  0
  7  8  2  0  0  0  0
 10  1  1  0  0  0  0
 12  3  1  0  0  0  0
 14  4  1  0  0  0  0
 19 20  1  0  0  0  0
 20 22  1  0  0  0  0
 20 21  1  0  0  0  0
 20 27  1  1  0  0  0
 21  7  1  0  0  0  0
 22 29  1  0  0  0  0
 23 22  2  0  0  0  0
 24 19  1  0  0  0  0
 25 19  1  0  0  0  0
 26 19  1  0  0  0  0
 28 21  1  0  0  0  0
 29 30  1  0  0  0  0
 29 40  1  0  0  0  0
 30 41  1  6  0  0  0
 30 37  1  0  0  0  0
 31 43  1  0  0  0  0
 31 42  1  0  0  0  0
 31 30  1  0  0  0  0
 32 31  1  0  0  0  0
 33 44  1  0  0  0  0
 33 32  2  0  0  0  0
 34 33  1  0  0  0  0
 35 34  1  0  0  0  0
 35 36  2  0  0  0  0
 36 32  1  0  0  0  0
 37 38  2  0  0  0  0
 37 39  1  0  0  0  0
 45 34  1  0  0  0  0
 46 35  1  0  0  0  0
M  END
$$$$
