MAK.pdb
 OpenBabel07022418533D

 50 49  0  0  1  0  0  0  0  0999 V2000
    3.9960   -7.1370    1.0830 C   0  0  0  0  0  0  0  0  0  0  0  0
    4.7080   -5.4650    1.0460 S   0  0  0  0  0  0  0  0  0  0  0  0
    3.4900   -4.2800    1.7510 C   0  0  0  0  0  0  0  0  0  0  0  0
    2.2820   -4.1900    0.8610 C   0  0  0  0  0  0  0  0  0  0  0  0
    1.2640   -3.2510    1.4410 C   0  0  2  0  0  0  0  0  0  0  0  0
    0.0850   -3.1840    0.5540 N   0  0  0  0  0  0  0  0  0  0  0  0
    1.8130   -1.8980    1.6290 C   0  0  0  0  0  0  0  0  0  0  0  0
    2.7100   -1.6400    2.4550 O   0  0  0  0  0  0  0  0  0  0  0  0
    3.8750   -7.5110    2.1010 H   0  0  0  0  0  0  0  0  0  0  0  0
    2.9800   -7.0560    0.6410 H   0  0  0  0  0  0  0  0  0  0  0  0
    4.5780   -7.8060    0.4300 H   0  0  0  0  0  0  0  0  0  0  0  0
    4.0400   -3.3070    1.7890 H   0  0  0  0  0  0  0  0  0  0  0  0
    3.2440   -4.6100    2.7710 H   0  0  0  0  0  0  0  0  0  0  0  0
    1.8080   -5.2080    0.7540 H   0  0  0  0  0  0  0  0  0  0  0  0
    2.5950   -3.8560   -0.1550 H   0  0  0  0  0  0  0  0  0  0  0  0
    0.8920   -3.6990    2.3860 H   0  0  0  0  0  0  0  0  0  0  0  0
   -0.6250   -2.6410    1.1290 H   0  0  0  0  0  0  0  0  0  0  0  0
   -0.2980   -4.1690    0.5230 H   0  0  0  0  0  0  0  0  0  0  0  0
    2.4550    1.0240   -0.2630 C   0  0  0  0  0  0  0  0  0  0  0  0
    1.8650    0.5630    1.0310 C   0  0  2  0  0  0  0  0  0  0  0  0
    1.3420   -0.7750    0.8640 N   0  0  0  0  0  0  0  0  0  0  0  0
    0.7410    1.4540    1.4880 C   0  0  0  0  0  0  0  0  0  0  0  0
    0.9410    2.6730    1.7040 O   0  0  0  0  0  0  0  0  0  0  0  0
    1.8040    1.7250   -0.8160 H   0  0  0  0  0  0  0  0  0  0  0  0
    3.4380    1.5090   -0.0880 H   0  0  0  0  0  0  0  0  0  0  0  0
    2.6440    0.1670   -0.9340 H   0  0  0  0  0  0  0  0  0  0  0  0
    2.6510    0.5630    1.8130 H   0  0  0  0  0  0  0  0  0  0  0  0
    0.5920   -0.9580    0.1640 H   0  0  0  0  0  0  0  0  0  0  0  0
   -0.5700    0.9510    1.6880 N   0  0  0  0  0  0  0  0  0  0  0  0
   -1.6970    1.7480    2.1250 C   0  0  1  0  0  0  0  0  0  0  0  0
   -2.8000    1.7040    1.0930 C   0  0  0  0  0  0  0  0  0  0  0  0
   -2.3490    2.2440   -0.2550 C   0  0  0  0  0  0  0  0  0  0  0  0
   -3.5500    2.1350   -1.1710 C   0  0  0  0  0  0  0  0  0  0  0  0
   -3.2640    2.6360   -2.5680 C   0  0  0  0  0  0  0  0  0  0  0  0
   -2.2090    1.9150   -3.2110 N   0  0  0  0  0  0  0  0  0  0  0  0
   -2.2630    1.2430    3.3970 C   0  0  0  0  0  0  0  0  0  0  0  0
   -1.8050    0.2470    4.0040 O   0  0  0  0  0  0  0  0  0  0  0  0
   -3.3510    1.9040    3.9390 O   0  0  0  0  0  0  0  0  0  0  0  0
   -0.7360   -0.0610    1.5080 H   0  0  0  0  0  0  0  0  0  0  0  0
   -1.3150    2.7900    2.2530 H   0  0  0  0  0  0  0  0  0  0  0  0
   -3.6770    2.3010    1.4130 H   0  0  0  0  0  0  0  0  0  0  0  0
   -3.1260    0.6610    1.0090 H   0  0  0  0  0  0  0  0  0  0  0  0
   -1.5550    1.6020   -0.6910 H   0  0  0  0  0  0  0  0  0  0  0  0
   -1.9730    3.2670   -0.1520 H   0  0  0  0  0  0  0  0  0  0  0  0
   -4.4070    2.6560   -0.7170 H   0  0  0  0  0  0  0  0  0  0  0  0
   -3.7800    1.0550   -1.2590 H   0  0  0  0  0  0  0  0  0  0  0  0
   -4.2030    2.4150   -3.1540 H   0  0  0  0  0  0  0  0  0  0  0  0
   -3.1510    3.7210   -2.5750 H   0  0  0  0  0  0  0  0  0  0  0  0
   -1.8960    1.0700   -2.7250 H   0  0  0  0  0  0  0  0  0  0  0  0
   -2.2770    1.8650   -4.2320 H   0  0  0  0  0  0  0  0  0  0  0  0
  1  9  1  0  0  0  0
  2  1  1  0  0  0  0
  2  3  1  0  0  0  0
  3 12  1  0  0  0  0
  3 13  1  0  0  0  0
  4  5  1  0  0  0  0
  4  3  1  0  0  0  0
  5  7  1  0  0  0  0
  5 16  1  1  0  0  0
  6 17  1  0  0  0  0
  6  5  1  0  0  0  0
  7  8  2  0  0  0  0
 10  1  1  0  0  0  0
 11  1  1  0  0  0  0
 14  4  1  0  0  0  0
 15  4  1  0  0  0  0
 18  6  1  0  0  0  0
 19 25  1  0  0  0  0
 19 20  1  0  0  0  0
 20 22  1  0  0  0  0
 20 27  1  1  0  0  0
 21 20  1  0  0  0  0
 21  7  1  0  0  0  0
 22 29  1  0  0  0  0
 22 23  2  0  0  0  0
 24 19  1  0  0  0  0
 26 19  1  0  0  0  0
 28 21  1  0  0  0  0
 29 30  1  0  0  0  0
 30 40  1  1  0  0  0
 30 36  1  0  0  0  0
 31 41  1  0  0  0  0
 31 30  1  0  0  0  0
 32 44  1  0  0  0  0
 32 31  1  0  0  0  0
 33 45  1  0  0  0  0
 33 32  1  0  0  0  0
 34 33  1  0  0  0  0
 35 49  1  0  0  0  0
 35 34  1  0  0  0  0
 36 38  2  0  0  0  0
 36 37  1  0  0  0  0
 39 29  1  0  0  0  0
 42 31  1  0  0  0  0
 43 32  1  0  0  0  0
 46 33  1  0  0  0  0
 47 34  1  0  0  0  0
 48 34  1  0  0  0  0
 50 35  1  0  0  0  0
M  END
$$$$
