MAL.pdb
 OpenBabel07022418533D

 48 47  0  0  1  0  0  0  0  0999 V2000
    2.3150   -4.2240    0.7690 C   0  0  0  0  0  0  0  0  0  0  0  0
    3.7510   -4.2860   -0.2750 S   0  0  0  0  0  0  0  0  0  0  0  0
    3.7630   -3.2590   -1.7150 C   0  0  0  0  0  0  0  0  0  0  0  0
    3.9210   -1.8000   -1.5140 C   0  0  0  0  0  0  0  0  0  0  0  0
    2.9330   -1.0710   -0.6910 C   0  0  2  0  0  0  0  0  0  0  0  0
    2.8290   -1.4670    0.6710 N   0  0  0  0  0  0  0  0  0  0  0  0
    1.5870   -0.9830   -1.3550 C   0  0  0  0  0  0  0  0  0  0  0  0
    1.5050   -0.6820   -2.5700 O   0  0  0  0  0  0  0  0  0  0  0  0
    1.4070   -3.7670    0.3310 H   0  0  0  0  0  0  0  0  0  0  0  0
    2.5270   -3.9120    1.8190 H   0  0  0  0  0  0  0  0  0  0  0  0
    1.9850   -5.3150    0.9160 H   0  0  0  0  0  0  0  0  0  0  0  0
    2.9290   -3.5020   -2.4400 H   0  0  0  0  0  0  0  0  0  0  0  0
    4.6800   -3.5750   -2.3230 H   0  0  0  0  0  0  0  0  0  0  0  0
    4.0080   -1.3110   -2.5400 H   0  0  0  0  0  0  0  0  0  0  0  0
    4.9820   -1.6600   -1.1170 H   0  0  0  0  0  0  0  0  0  0  0  0
    3.2810    0.0070   -0.6670 H   0  0  0  0  0  0  0  0  0  0  0  0
    3.7920   -1.6740    1.0210 H   0  0  0  0  0  0  0  0  0  0  0  0
    2.4160   -0.7740    1.3020 H   0  0  0  0  0  0  0  0  0  0  0  0
   -1.7160   -2.4610   -0.9390 C   0  0  0  0  0  0  0  0  0  0  0  0
   -0.9410   -1.1830   -1.1780 C   0  0  2  0  0  0  0  0  0  0  0  0
    0.3870   -1.2320   -0.6540 N   0  0  0  0  0  0  0  0  0  0  0  0
   -1.7410   -0.0860   -0.5220 C   0  0  0  0  0  0  0  0  0  0  0  0
   -2.9280    0.1000   -0.8390 O   0  0  0  0  0  0  0  0  0  0  0  0
   -1.7770   -2.6470    0.1570 H   0  0  0  0  0  0  0  0  0  0  0  0
   -2.7370   -2.3290   -1.3540 H   0  0  0  0  0  0  0  0  0  0  0  0
   -1.2730   -3.3390   -1.4530 H   0  0  0  0  0  0  0  0  0  0  0  0
   -0.9920   -0.9600   -2.2560 H   0  0  0  0  0  0  0  0  0  0  0  0
    0.5100   -1.4800    0.3660 H   0  0  0  0  0  0  0  0  0  0  0  0
   -2.5560    0.8390    4.7620 C   0  0  0  0  0  0  0  0  0  0  0  0
   -2.5930    0.6540    3.2390 C   0  0  0  0  0  0  0  0  0  0  0  0
   -1.9810   -0.6670    2.9280 C   0  0  0  0  0  0  0  0  0  0  0  0
   -1.8980    1.8390    2.6090 C   0  0  0  0  0  0  0  0  0  0  0  0
   -1.8480    1.8180    1.1410 C   0  0  2  0  0  0  0  0  0  0  0  0
   -1.2050    0.7660    0.4590 N   0  0  0  0  0  0  0  0  0  0  0  0
   -1.3640    3.1760    0.6790 C   0  0  0  0  0  0  0  0  0  0  0  0
   -0.4790    3.2700   -0.2060 O   0  0  0  0  0  0  0  0  0  0  0  0
   -1.8690    4.3430    1.2060 O   0  0  0  0  0  0  0  0  0  0  0  0
   -3.5540    1.1480    5.1410 H   0  0  0  0  0  0  0  0  0  0  0  0
   -2.2010   -0.0820    5.2390 H   0  0  0  0  0  0  0  0  0  0  0  0
   -1.8180    1.6330    4.9890 H   0  0  0  0  0  0  0  0  0  0  0  0
   -3.6720    0.7020    2.9170 H   0  0  0  0  0  0  0  0  0  0  0  0
   -0.8850   -0.6070    2.9440 H   0  0  0  0  0  0  0  0  0  0  0  0
   -2.4130   -1.1820    2.0540 H   0  0  0  0  0  0  0  0  0  0  0  0
   -2.2420   -1.3440    3.7970 H   0  0  0  0  0  0  0  0  0  0  0  0
   -2.5560    2.7230    2.8850 H   0  0  0  0  0  0  0  0  0  0  0  0
   -0.9400    2.0720    3.1210 H   0  0  0  0  0  0  0  0  0  0  0  0
   -2.9220    1.8140    0.7910 H   0  0  0  0  0  0  0  0  0  0  0  0
   -0.1830    0.5800    0.7050 H   0  0  0  0  0  0  0  0  0  0  0  0
  1 11  1  0  0  0  0
  1 10  1  0  0  0  0
  2  1  1  0  0  0  0
  3  4  1  0  0  0  0
  3  2  1  0  0  0  0
  4 15  1  0  0  0  0
  4  5  1  0  0  0  0
  5 16  1  1  0  0  0
  5  6  1  0  0  0  0
  6 17  1  0  0  0  0
  6 18  1  0  0  0  0
  7  5  1  0  0  0  0
  7 21  1  0  0  0  0
  8  7  2  0  0  0  0
  9  1  1  0  0  0  0
 12  3  1  0  0  0  0
 13  3  1  0  0  0  0
 14  4  1  0  0  0  0
 19 24  1  0  0  0  0
 20 27  1  6  0  0  0
 20 19  1  0  0  0  0
 20 21  1  0  0  0  0
 20 22  1  0  0  0  0
 21 28  1  0  0  0  0
 22 34  1  0  0  0  0
 23 22  2  0  0  0  0
 25 19  1  0  0  0  0
 26 19  1  0  0  0  0
 29 40  1  0  0  0  0
 29 38  1  0  0  0  0
 29 39  1  0  0  0  0
 30 29  1  0  0  0  0
 31 42  1  0  0  0  0
 31 30  1  0  0  0  0
 31 44  1  0  0  0  0
 32 45  1  0  0  0  0
 32 46  1  0  0  0  0
 32 30  1  0  0  0  0
 33 47  1  6  0  0  0
 33 32  1  0  0  0  0
 34 48  1  0  0  0  0
 34 33  1  0  0  0  0
 35 33  1  0  0  0  0
 35 37  1  0  0  0  0
 36 35  2  0  0  0  0
 41 30  1  0  0  0  0
 43 31  1  0  0  0  0
M  END
$$$$
