MAP.pdb
 OpenBabel07022418533D

 43 43  0  0  1  0  0  0  0  0999 V2000
    2.1750   -3.6820    3.7310 C   0  0  0  0  0  0  0  0  0  0  0  0
    2.7090   -4.9530    2.6000 S   0  0  0  0  0  0  0  0  0  0  0  0
    1.6560   -5.2100    1.1730 C   0  0  0  0  0  0  0  0  0  0  0  0
    1.6540   -4.1150    0.1770 C   0  0  0  0  0  0  0  0  0  0  0  0
    1.1700   -2.8250    0.7370 C   0  0  2  0  0  0  0  0  0  0  0  0
   -0.1690   -2.9260    1.2310 N   0  0  0  0  0  0  0  0  0  0  0  0
    1.2750   -1.7120   -0.2530 C   0  0  0  0  0  0  0  0  0  0  0  0
    2.3730   -1.4670   -0.8080 O   0  0  0  0  0  0  0  0  0  0  0  0
    2.3020   -4.0610    4.8000 H   0  0  0  0  0  0  0  0  0  0  0  0
    1.1010   -3.4320    3.6430 H   0  0  0  0  0  0  0  0  0  0  0  0
    2.8460   -2.7810    3.6820 H   0  0  0  0  0  0  0  0  0  0  0  0
    0.6130   -5.4230    1.5770 H   0  0  0  0  0  0  0  0  0  0  0  0
    1.9540   -6.2020    0.7180 H   0  0  0  0  0  0  0  0  0  0  0  0
    0.9910   -4.4170   -0.6660 H   0  0  0  0  0  0  0  0  0  0  0  0
    2.6990   -3.9830   -0.1810 H   0  0  0  0  0  0  0  0  0  0  0  0
    1.8350   -2.5350    1.5810 H   0  0  0  0  0  0  0  0  0  0  0  0
   -0.4260   -2.0770    1.7580 H   0  0  0  0  0  0  0  0  0  0  0  0
   -0.8500   -3.1780    0.4880 H   0  0  0  0  0  0  0  0  0  0  0  0
   -0.8920   -0.1800   -2.5760 C   0  0  0  0  0  0  0  0  0  0  0  0
    0.1260    0.1280   -1.4760 C   0  0  2  0  0  0  0  0  0  0  0  0
    0.1130   -0.9450   -0.5480 N   0  0  0  0  0  0  0  0  0  0  0  0
   -0.1680    1.4730   -0.9690 C   0  0  0  0  0  0  0  0  0  0  0  0
   -0.1250    2.3810   -1.8810 O   0  0  0  0  0  0  0  0  0  0  0  0
   -1.9010   -0.1840   -2.1100 H   0  0  0  0  0  0  0  0  0  0  0  0
   -0.6460   -1.1120   -3.1040 H   0  0  0  0  0  0  0  0  0  0  0  0
   -0.8500    0.6670   -3.2890 H   0  0  0  0  0  0  0  0  0  0  0  0
    1.1290    0.1230   -1.9940 H   0  0  0  0  0  0  0  0  0  0  0  0
   -0.7580   -1.2270   -0.0550 H   0  0  0  0  0  0  0  0  0  0  0  0
   -0.4780    1.8420    0.3770 N   0  0  0  0  0  0  0  0  0  0  0  0
   -0.6360    0.9510    1.4760 C   0  0  0  0  0  0  0  0  0  0  0  0
   -0.8580    1.8010    2.6920 C   0  0  0  0  0  0  0  0  0  0  0  0
   -0.5440    3.2010    2.2870 C   0  0  0  0  0  0  0  0  0  0  0  0
   -0.6680    3.1840    0.7900 C   0  0  1  0  0  0  0  0  0  0  0  0
    0.3670    4.1140    0.2100 C   0  0  0  0  0  0  0  0  0  0  0  0
    1.3710    3.6080   -0.3020 O   0  0  0  0  0  0  0  0  0  0  0  0
    0.1850    5.4790    0.2580 O   0  0  0  0  0  0  0  0  0  0  0  0
    0.1940    0.2300    1.5990 H   0  0  0  0  0  0  0  0  0  0  0  0
   -1.6260    0.4170    1.2880 H   0  0  0  0  0  0  0  0  0  0  0  0
   -0.2680    1.4520    3.5680 H   0  0  0  0  0  0  0  0  0  0  0  0
   -1.9350    1.8020    3.0310 H   0  0  0  0  0  0  0  0  0  0  0  0
    0.5110    3.4780    2.5700 H   0  0  0  0  0  0  0  0  0  0  0  0
   -1.2230    3.9490    2.7580 H   0  0  0  0  0  0  0  0  0  0  0  0
   -1.6920    3.5750    0.5490 H   0  0  0  0  0  0  0  0  0  0  0  0
  1  9  1  0  0  0  0
  2  1  1  0  0  0  0
  3 12  1  0  0  0  0
  3  2  1  0  0  0  0
  4  5  1  0  0  0  0
  4  3  1  0  0  0  0
  5  6  1  0  0  0  0
  5 16  1  1  0  0  0
  6 17  1  0  0  0  0
  7  5  1  0  0  0  0
  8  7  2  0  0  0  0
 10  1  1  0  0  0  0
 11  1  1  0  0  0  0
 13  3  1  0  0  0  0
 14  4  1  0  0  0  0
 15  4  1  0  0  0  0
 18  6  1  0  0  0  0
 19 24  1  0  0  0  0
 19 20  1  0  0  0  0
 20 27  1  6  0  0  0
 20 22  1  0  0  0  0
 20 21  1  0  0  0  0
 21  7  1  0  0  0  0
 21 28  1  0  0  0  0
 22 29  1  0  0  0  0
 23 22  2  0  0  0  0
 25 19  1  0  0  0  0
 26 19  1  0  0  0  0
 29 33  1  0  0  0  0
 29 30  1  0  0  0  0
 30 37  1  0  0  0  0
 30 31  1  0  0  0  0
 31 40  1  0  0  0  0
 31 39  1  0  0  0  0
 32 41  1  0  0  0  0
 32 31  1  0  0  0  0
 32 42  1  0  0  0  0
 33 43  1  6  0  0  0
 33 32  1  0  0  0  0
 34 36  1  0  0  0  0
 34 33  1  0  0  0  0
 35 34  2  0  0  0  0
 38 30  1  0  0  0  0
M  END
$$$$
