MAQ.pdb
 OpenBabel07022418533D

 46 45  0  0  1  0  0  0  0  0999 V2000
    0.3150   -4.8570    3.4560 C   0  0  0  0  0  0  0  0  0  0  0  0
    0.2530   -3.2610    2.6100 S   0  0  0  0  0  0  0  0  0  0  0  0
    1.5720   -3.0460    1.4250 C   0  0  0  0  0  0  0  0  0  0  0  0
    1.4860   -3.9830    0.2520 C   0  0  0  0  0  0  0  0  0  0  0  0
    0.1940   -3.8170   -0.5200 C   0  0  2  0  0  0  0  0  0  0  0  0
    0.2580   -4.8030   -1.6350 N   0  0  0  0  0  0  0  0  0  0  0  0
    0.0130   -2.5090   -1.1550 C   0  0  0  0  0  0  0  0  0  0  0  0
    0.2450   -2.3820   -2.4050 O   0  0  0  0  0  0  0  0  0  0  0  0
   -0.6710   -5.3370    3.5370 H   0  0  0  0  0  0  0  0  0  0  0  0
    0.6590   -4.6570    4.4990 H   0  0  0  0  0  0  0  0  0  0  0  0
    1.0900   -5.5260    3.0150 H   0  0  0  0  0  0  0  0  0  0  0  0
    2.5370   -3.2420    1.9820 H   0  0  0  0  0  0  0  0  0  0  0  0
    1.6030   -1.9900    1.0980 H   0  0  0  0  0  0  0  0  0  0  0  0
    1.5150   -5.0250    0.6510 H   0  0  0  0  0  0  0  0  0  0  0  0
    2.3750   -3.8810   -0.3900 H   0  0  0  0  0  0  0  0  0  0  0  0
   -0.6240   -4.1280    0.1330 H   0  0  0  0  0  0  0  0  0  0  0  0
   -0.6120   -4.6440   -2.2210 H   0  0  0  0  0  0  0  0  0  0  0  0
    1.0440   -4.4600   -2.2380 H   0  0  0  0  0  0  0  0  0  0  0  0
   -2.0430    0.2530   -1.4610 C   0  0  0  0  0  0  0  0  0  0  0  0
   -0.5650   -0.0630   -1.2450 C   0  0  2  0  0  0  0  0  0  0  0  0
   -0.4120   -1.3070   -0.5230 N   0  0  0  0  0  0  0  0  0  0  0  0
    0.0100    1.0780   -0.5160 C   0  0  0  0  0  0  0  0  0  0  0  0
    0.0460    2.2480   -1.0420 O   0  0  0  0  0  0  0  0  0  0  0  0
   -2.4160   -0.2400   -2.3640 H   0  0  0  0  0  0  0  0  0  0  0  0
   -2.6430    0.0430   -0.5500 H   0  0  0  0  0  0  0  0  0  0  0  0
   -2.1030    1.3480   -1.6280 H   0  0  0  0  0  0  0  0  0  0  0  0
   -0.1330   -0.1190   -2.2470 H   0  0  0  0  0  0  0  0  0  0  0  0
   -0.6140   -1.3500    0.4790 H   0  0  0  0  0  0  0  0  0  0  0  0
   -2.6970    4.0750    1.2450 N   0  0  0  0  0  0  0  0  0  0  0  0
   -1.3990    3.7200    1.7560 C   0  0  0  0  0  0  0  0  0  0  0  0
   -0.4860    4.5390    1.5520 O   0  0  0  0  0  0  0  0  0  0  0  0
   -1.1800    2.4590    2.4790 C   0  0  0  0  0  0  0  0  0  0  0  0
    0.2660    2.2340    2.7580 C   0  0  0  0  0  0  0  0  0  0  0  0
    1.1180    2.1270    1.4890 C   0  0  2  0  0  0  0  0  0  0  0  0
    0.5440    0.9750    0.7740 N   0  0  0  0  0  0  0  0  0  0  0  0
    2.4960    1.7570    1.8750 C   0  0  0  0  0  0  0  0  0  0  0  0
    2.9440    0.6330    1.5790 O   0  0  0  0  0  0  0  0  0  0  0  0
    3.2990    2.6440    2.5650 O   0  0  0  0  0  0  0  0  0  0  0  0
   -3.4930    4.2940    1.8720 H   0  0  0  0  0  0  0  0  0  0  0  0
   -2.8190    4.1060    0.2250 H   0  0  0  0  0  0  0  0  0  0  0  0
   -1.7080    2.5770    3.4690 H   0  0  0  0  0  0  0  0  0  0  0  0
   -1.6510    1.6160    1.9200 H   0  0  0  0  0  0  0  0  0  0  0  0
    0.6830    3.0140    3.4150 H   0  0  0  0  0  0  0  0  0  0  0  0
    0.3420    1.2810    3.3470 H   0  0  0  0  0  0  0  0  0  0  0  0
    1.0800    3.0280    0.8800 H   0  0  0  0  0  0  0  0  0  0  0  0
    0.5650    0.0880    1.3130 H   0  0  0  0  0  0  0  0  0  0  0  0
  1  9  1  0  0  0  0
  1 10  1  0  0  0  0
  2  1  1  0  0  0  0
  3 12  1  0  0  0  0
  3  2  1  0  0  0  0
  4 14  1  0  0  0  0
  4  3  1  0  0  0  0
  5 16  1  1  0  0  0
  5  4  1  0  0  0  0
  6  5  1  0  0  0  0
  7 21  1  0  0  0  0
  7  5  1  0  0  0  0
  8  7  2  0  0  0  0
 11  1  1  0  0  0  0
 13  3  1  0  0  0  0
 15  4  1  0  0  0  0
 17  6  1  0  0  0  0
 18  6  1  0  0  0  0
 19 20  1  0  0  0  0
 19 25  1  0  0  0  0
 20 27  1  6  0  0  0
 20 21  1  0  0  0  0
 20 22  1  0  0  0  0
 21 28  1  0  0  0  0
 22 35  1  0  0  0  0
 23 22  2  0  0  0  0
 24 19  1  0  0  0  0
 26 19  1  0  0  0  0
 29 30  1  0  0  0  0
 29 39  1  0  0  0  0
 30 32  1  0  0  0  0
 31 30  2  0  0  0  0
 32 33  1  0  0  0  0
 32 41  1  0  0  0  0
 33 44  1  0  0  0  0
 33 43  1  0  0  0  0
 34 45  1  6  0  0  0
 34 36  1  0  0  0  0
 34 33  1  0  0  0  0
 35 46  1  0  0  0  0
 35 34  1  0  0  0  0
 36 38  1  0  0  0  0
 37 36  2  0  0  0  0
 40 29  1  0  0  0  0
 42 32  1  0  0  0  0
M  END
$$$$
