MAS.pdb
 OpenBabel07022418533D

 40 39  0  0  1  0  0  0  0  0999 V2000
   -1.3140   -4.5820    3.2170 C   0  0  0  0  0  0  0  0  0  0  0  0
   -1.4590   -4.9360    1.4440 S   0  0  0  0  0  0  0  0  0  0  0  0
   -2.0090   -3.4380    0.5800 C   0  0  0  0  0  0  0  0  0  0  0  0
   -0.9300   -2.3750    0.6600 C   0  0  0  0  0  0  0  0  0  0  0  0
    0.2940   -2.9230    0.0090 C   0  0  2  0  0  0  0  0  0  0  0  0
    0.8040   -4.1300    0.6280 N   0  0  0  0  0  0  0  0  0  0  0  0
    1.3890   -1.9310   -0.1450 C   0  0  0  0  0  0  0  0  0  0  0  0
    2.5560   -2.2190    0.2270 O   0  0  0  0  0  0  0  0  0  0  0  0
   -1.9250   -3.6690    3.4530 H   0  0  0  0  0  0  0  0  0  0  0  0
   -1.6110   -5.4210    3.8530 H   0  0  0  0  0  0  0  0  0  0  0  0
   -0.2500   -4.3520    3.4270 H   0  0  0  0  0  0  0  0  0  0  0  0
   -2.9240   -3.0560    1.0620 H   0  0  0  0  0  0  0  0  0  0  0  0
   -2.1470   -3.6660   -0.4950 H   0  0  0  0  0  0  0  0  0  0  0  0
   -0.7930   -2.0530    1.6940 H   0  0  0  0  0  0  0  0  0  0  0  0
   -1.2800   -1.5180    0.0700 H   0  0  0  0  0  0  0  0  0  0  0  0
    0.0130   -3.2170   -1.0390 H   0  0  0  0  0  0  0  0  0  0  0  0
    1.4340   -3.8070    1.4220 H   0  0  0  0  0  0  0  0  0  0  0  0
    1.4430   -4.6170   -0.0390 H   0  0  0  0  0  0  0  0  0  0  0  0
    2.3460    0.6970   -2.3160 C   0  0  0  0  0  0  0  0  0  0  0  0
    2.1590    0.3620   -0.8920 C   0  0  2  0  0  0  0  0  0  0  0  0
    1.1370   -0.6570   -0.7100 N   0  0  0  0  0  0  0  0  0  0  0  0
    1.9160    1.5100    0.0030 C   0  0  0  0  0  0  0  0  0  0  0  0
    2.7260    2.4720   -0.0550 O   0  0  0  0  0  0  0  0  0  0  0  0
    1.9090   -0.1210   -2.9520 H   0  0  0  0  0  0  0  0  0  0  0  0
    3.4290    0.7190   -2.6020 H   0  0  0  0  0  0  0  0  0  0  0  0
    1.9090    1.6300   -2.6670 H   0  0  0  0  0  0  0  0  0  0  0  0
    3.1160   -0.1100   -0.5170 H   0  0  0  0  0  0  0  0  0  0  0  0
    0.1300   -0.4770   -1.0030 H   0  0  0  0  0  0  0  0  0  0  0  0
   -0.7210    3.8930    0.1700 O   0  0  0  0  0  0  0  0  0  0  0  0
   -0.7140    3.4390    1.4740 C   0  0  0  0  0  0  0  0  0  0  0  0
    0.6220    2.7510    1.7890 C   0  0  2  0  0  0  0  0  0  0  0  0
    0.8510    1.6230    0.9190 N   0  0  0  0  0  0  0  0  0  0  0  0
    0.5790    2.2550    3.1790 C   0  0  0  0  0  0  0  0  0  0  0  0
    0.3880    3.0610    4.1120 O   0  0  0  0  0  0  0  0  0  0  0  0
    0.7430    0.9210    3.4740 O   0  0  0  0  0  0  0  0  0  0  0  0
   -0.2910    4.8050    0.1840 H   0  0  0  0  0  0  0  0  0  0  0  0
   -1.5590    2.7670    1.7080 H   0  0  0  0  0  0  0  0  0  0  0  0
   -0.7430    4.3190    2.1730 H   0  0  0  0  0  0  0  0  0  0  0  0
    1.3870    3.5520    1.6530 H   0  0  0  0  0  0  0  0  0  0  0  0
    0.1800    0.8360    0.9730 H   0  0  0  0  0  0  0  0  0  0  0  0
  1 11  1  0  0  0  0
  1  9  1  0  0  0  0
  1 10  1  0  0  0  0
  2  1  1  0  0  0  0
  3  4  1  0  0  0  0
  3 12  1  0  0  0  0
  3  2  1  0  0  0  0
  4 14  1  0  0  0  0
  5 16  1  6  0  0  0
  5  6  1  0  0  0  0
  5  4  1  0  0  0  0
  6 17  1  0  0  0  0
  7  5  1  0  0  0  0
  7  8  2  0  0  0  0
 13  3  1  0  0  0  0
 15  4  1  0  0  0  0
 18  6  1  0  0  0  0
 19 20  1  0  0  0  0
 20 21  1  0  0  0  0
 20 27  1  1  0  0  0
 20 22  1  0  0  0  0
 21  7  1  0  0  0  0
 22 32  1  0  0  0  0
 23 22  2  0  0  0  0
 24 19  1  0  0  0  0
 25 19  1  0  0  0  0
 26 19  1  0  0  0  0
 28 21  1  0  0  0  0
 29 36  1  0  0  0  0
 29 30  1  0  0  0  0
 30 37  1  0  0  0  0
 30 31  1  0  0  0  0
 30 38  1  0  0  0  0
 31 39  1  6  0  0  0
 31 33  1  0  0  0  0
 32 40  1  0  0  0  0
 32 31  1  0  0  0  0
 33 35  2  0  0  0  0
 33 34  1  0  0  0  0
M  END
$$$$
