MAT.pdb
 OpenBabel07022418533D

 43 42  0  0  1  0  0  0  0  0999 V2000
   -2.4670   -4.4650   -0.2680 C   0  0  0  0  0  0  0  0  0  0  0  0
   -1.4380   -5.4340   -1.3620 S   0  0  0  0  0  0  0  0  0  0  0  0
   -0.3210   -4.5200   -2.4040 C   0  0  0  0  0  0  0  0  0  0  0  0
    0.8240   -3.8490   -1.7050 C   0  0  0  0  0  0  0  0  0  0  0  0
    0.3420   -2.8550   -0.7180 C   0  0  2  0  0  0  0  0  0  0  0  0
   -0.4490   -1.8440   -1.3850 N   0  0  0  0  0  0  0  0  0  0  0  0
    1.4610   -2.2340    0.0610 C   0  0  0  0  0  0  0  0  0  0  0  0
    2.2290   -2.9830    0.6980 O   0  0  0  0  0  0  0  0  0  0  0  0
   -3.5350   -4.8770   -0.2490 H   0  0  0  0  0  0  0  0  0  0  0  0
   -2.5730   -3.4050   -0.5200 H   0  0  0  0  0  0  0  0  0  0  0  0
   -2.1140   -4.6200    0.7890 H   0  0  0  0  0  0  0  0  0  0  0  0
   -0.9530   -3.7500   -2.9570 H   0  0  0  0  0  0  0  0  0  0  0  0
    0.0490   -5.1890   -3.2280 H   0  0  0  0  0  0  0  0  0  0  0  0
    1.5310   -3.4300   -2.4540 H   0  0  0  0  0  0  0  0  0  0  0  0
    1.3510   -4.6730   -1.1320 H   0  0  0  0  0  0  0  0  0  0  0  0
   -0.2890   -3.3510    0.0340 H   0  0  0  0  0  0  0  0  0  0  0  0
   -0.8200   -1.1170   -0.7530 H   0  0  0  0  0  0  0  0  0  0  0  0
   -0.0540   -1.5120   -2.2730 H   0  0  0  0  0  0  0  0  0  0  0  0
    3.6610    0.5090   -0.1180 C   0  0  0  0  0  0  0  0  0  0  0  0
    2.7640   -0.2320    0.8560 C   0  0  2  0  0  0  0  0  0  0  0  0
    1.6700   -0.8290    0.0930 N   0  0  0  0  0  0  0  0  0  0  0  0
    2.2390    0.7820    1.8180 C   0  0  0  0  0  0  0  0  0  0  0  0
    3.0040    1.4250    2.5790 O   0  0  0  0  0  0  0  0  0  0  0  0
    4.5150   -0.1170   -0.4480 H   0  0  0  0  0  0  0  0  0  0  0  0
    3.1200    0.8240   -1.0330 H   0  0  0  0  0  0  0  0  0  0  0  0
    4.0930    1.4280    0.3380 H   0  0  0  0  0  0  0  0  0  0  0  0
    3.3570   -1.0090    1.3640 H   0  0  0  0  0  0  0  0  0  0  0  0
    1.0010   -0.2480   -0.4570 H   0  0  0  0  0  0  0  0  0  0  0  0
   -0.9470    4.1730    2.9990 C   0  0  0  0  0  0  0  0  0  0  0  0
   -0.3990    3.1440    2.0350 C   0  0  1  0  0  0  0  0  0  0  0  0
    0.5810    3.7740    1.2650 O   0  0  0  0  0  0  0  0  0  0  0  0
    0.2610    1.9970    2.7880 C   0  0  2  0  0  0  0  0  0  0  0  0
    0.8400    1.0430    1.8940 N   0  0  0  0  0  0  0  0  0  0  0  0
   -0.6690    1.3590    3.7400 C   0  0  0  0  0  0  0  0  0  0  0  0
   -0.8430    0.1120    3.6680 O   0  0  0  0  0  0  0  0  0  0  0  0
   -1.3560    2.0490    4.7040 O   0  0  0  0  0  0  0  0  0  0  0  0
   -0.7300    5.1920    2.6280 H   0  0  0  0  0  0  0  0  0  0  0  0
   -2.0490    4.0430    3.0990 H   0  0  0  0  0  0  0  0  0  0  0  0
   -0.4680    4.0930    3.9980 H   0  0  0  0  0  0  0  0  0  0  0  0
   -1.1760    2.7710    1.3360 H   0  0  0  0  0  0  0  0  0  0  0  0
    1.0440    4.4960    1.7840 H   0  0  0  0  0  0  0  0  0  0  0  0
    1.1020    2.4510    3.3740 H   0  0  0  0  0  0  0  0  0  0  0  0
    0.2120    0.5060    1.2600 H   0  0  0  0  0  0  0  0  0  0  0  0
  1  9  1  0  0  0  0
  1 11  1  0  0  0  0
  2  1  1  0  0  0  0
  3  4  1  0  0  0  0
  3  2  1  0  0  0  0
  4 15  1  0  0  0  0
  4  5  1  0  0  0  0
  5 16  1  1  0  0  0
  5  7  1  0  0  0  0
  6 17  1  0  0  0  0
  6  5  1  0  0  0  0
  7 21  1  0  0  0  0
  7  8  2  0  0  0  0
 10  1  1  0  0  0  0
 12  3  1  0  0  0  0
 13  3  1  0  0  0  0
 14  4  1  0  0  0  0
 18  6  1  0  0  0  0
 19 26  1  0  0  0  0
 19 20  1  0  0  0  0
 20 27  1  1  0  0  0
 20 22  1  0  0  0  0
 21 20  1  0  0  0  0
 22 33  1  0  0  0  0
 22 23  2  0  0  0  0
 24 19  1  0  0  0  0
 25 19  1  0  0  0  0
 28 21  1  0  0  0  0
 29 38  1  0  0  0  0
 29 39  1  0  0  0  0
 30 40  1  6  0  0  0
 30 32  1  0  0  0  0
 30 29  1  0  0  0  0
 31 41  1  0  0  0  0
 31 30  1  0  0  0  0
 32 42  1  1  0  0  0
 32 34  1  0  0  0  0
 33 32  1  0  0  0  0
 34 36  1  0  0  0  0
 35 34  2  0  0  0  0
 37 29  1  0  0  0  0
 43 33  1  0  0  0  0
M  END
$$$$
