MAW.pdb
 OpenBabel07022418533D

 53 54  0  0  1  0  0  0  0  0999 V2000
    4.5120   -4.0030    4.5410 C   0  0  0  0  0  0  0  0  0  0  0  0
    5.4110   -2.7960    3.5680 S   0  0  0  0  0  0  0  0  0  0  0  0
    4.5460   -2.2260    2.1120 C   0  0  0  0  0  0  0  0  0  0  0  0
    3.3330   -1.4310    2.4430 C   0  0  0  0  0  0  0  0  0  0  0  0
    3.5800   -0.1780    3.2330 C   0  0  2  0  0  0  0  0  0  0  0  0
    4.1930   -0.4100    4.4990 N   0  0  0  0  0  0  0  0  0  0  0  0
    2.2870    0.5520    3.3480 C   0  0  0  0  0  0  0  0  0  0  0  0
    1.7880    0.8570    4.4850 O   0  0  0  0  0  0  0  0  0  0  0  0
    4.7550   -3.8000    5.6240 H   0  0  0  0  0  0  0  0  0  0  0  0
    3.4290   -3.9510    4.4470 H   0  0  0  0  0  0  0  0  0  0  0  0
    4.8320   -5.0430    4.3620 H   0  0  0  0  0  0  0  0  0  0  0  0
    4.2250   -3.1050    1.4990 H   0  0  0  0  0  0  0  0  0  0  0  0
    5.2650   -1.6580    1.4860 H   0  0  0  0  0  0  0  0  0  0  0  0
    2.6570   -2.0610    3.0570 H   0  0  0  0  0  0  0  0  0  0  0  0
    2.7740   -1.2130    1.5170 H   0  0  0  0  0  0  0  0  0  0  0  0
    4.2660    0.5300    2.6780 H   0  0  0  0  0  0  0  0  0  0  0  0
    5.2240   -0.4040    4.3880 H   0  0  0  0  0  0  0  0  0  0  0  0
    3.9060   -1.2310    5.0260 H   0  0  0  0  0  0  0  0  0  0  0  0
    0.6100    3.0160    1.5840 C   0  0  0  0  0  0  0  0  0  0  0  0
    0.3410    1.6240    2.1780 C   0  0  2  0  0  0  0  0  0  0  0  0
    1.6110    0.9090    2.1550 N   0  0  0  0  0  0  0  0  0  0  0  0
   -0.6720    1.0030    1.3170 C   0  0  0  0  0  0  0  0  0  0  0  0
   -1.8090    1.5660    1.2870 O   0  0  0  0  0  0  0  0  0  0  0  0
    1.2180    2.8250    0.6730 H   0  0  0  0  0  0  0  0  0  0  0  0
   -0.3280    3.5070    1.2980 H   0  0  0  0  0  0  0  0  0  0  0  0
    1.2420    3.6180    2.2680 H   0  0  0  0  0  0  0  0  0  0  0  0
    0.0020    1.8180    3.2070 H   0  0  0  0  0  0  0  0  0  0  0  0
    2.0430    0.6510    1.2450 H   0  0  0  0  0  0  0  0  0  0  0  0
   -0.5120   -0.1470    0.5250 N   0  0  0  0  0  0  0  0  0  0  0  0
   -1.5510   -0.7040   -0.2990 C   0  0  1  0  0  0  0  0  0  0  0  0
   -1.2220   -0.6310   -1.7730 C   0  0  0  0  0  0  0  0  0  0  0  0
   -2.3110   -1.2120   -2.6010 C   0  0  0  0  0  0  0  0  0  0  0  0
   -2.3600   -2.4400   -3.2450 C   0  0  0  0  0  0  0  0  0  0  0  0
   -3.5360   -2.5730   -3.8880 N   0  0  0  0  0  0  0  0  0  0  0  0
   -4.2860   -1.4680   -3.6980 C   0  0  0  0  0  0  0  0  0  0  0  0
   -5.5560   -1.1070   -4.1390 C   0  0  0  0  0  0  0  0  0  0  0  0
   -6.0760    0.1110   -3.7800 C   0  0  0  0  0  0  0  0  0  0  0  0
   -5.3140    0.9520   -2.9820 C   0  0  0  0  0  0  0  0  0  0  0  0
   -4.0680    0.5910   -2.5530 C   0  0  0  0  0  0  0  0  0  0  0  0
   -3.5440   -0.6240   -2.9090 C   0  0  0  0  0  0  0  0  0  0  0  0
   -1.9520   -2.0640    0.1130 C   0  0  0  0  0  0  0  0  0  0  0  0
   -2.8510   -2.6420   -0.5330 O   0  0  0  0  0  0  0  0  0  0  0  0
   -1.3750   -2.7210    1.1800 O   0  0  0  0  0  0  0  0  0  0  0  0
    0.4420   -0.6080    0.5590 H   0  0  0  0  0  0  0  0  0  0  0  0
   -2.4630   -0.0550   -0.1630 H   0  0  0  0  0  0  0  0  0  0  0  0
   -0.2780   -1.1320   -2.0370 H   0  0  0  0  0  0  0  0  0  0  0  0
   -1.1170    0.4250   -2.1090 H   0  0  0  0  0  0  0  0  0  0  0  0
   -1.5760   -3.1830   -3.2350 H   0  0  0  0  0  0  0  0  0  0  0  0
   -3.8530   -3.3900   -4.4560 H   0  0  0  0  0  0  0  0  0  0  0  0
   -6.1570   -1.7580   -4.7620 H   0  0  0  0  0  0  0  0  0  0  0  0
   -7.0660    0.4260   -4.1070 H   0  0  0  0  0  0  0  0  0  0  0  0
   -5.7190    1.9260   -2.6890 H   0  0  0  0  0  0  0  0  0  0  0  0
   -3.4820    1.2540   -1.9310 H   0  0  0  0  0  0  0  0  0  0  0  0
  1  9  1  0  0  0  0
  2  1  1  0  0  0  0
  3  4  1  0  0  0  0
  3  2  1  0  0  0  0
  4 14  1  0  0  0  0
  4  5  1  0  0  0  0
  5 16  1  6  0  0  0
  5  7  1  0  0  0  0
  5  6  1  0  0  0  0
  6 18  1  0  0  0  0
  7  8  2  0  0  0  0
 10  1  1  0  0  0  0
 11  1  1  0  0  0  0
 12  3  1  0  0  0  0
 13  3  1  0  0  0  0
 15  4  1  0  0  0  0
 17  6  1  0  0  0  0
 19 20  1  0  0  0  0
 19 26  1  0  0  0  0
 20 27  1  1  0  0  0
 21 20  1  0  0  0  0
 21  7  1  0  0  0  0
 22 20  1  0  0  0  0
 23 22  2  0  0  0  0
 24 19  1  0  0  0  0
 25 19  1  0  0  0  0
 28 21  1  0  0  0  0
 29 44  1  0  0  0  0
 29 22  1  0  0  0  0
 30 45  1  1  0  0  0
 30 41  1  0  0  0  0
 30 29  1  0  0  0  0
 31 30  1  0  0  0  0
 32 31  1  0  0  0  0
 33 48  1  0  0  0  0
 33 32  2  0  0  0  0
 34 35  1  0  0  0  0
 34 33  1  0  0  0  0
 35 40  1  0  0  0  0
 36 37  1  0  0  0  0
 36 35  2  0  0  0  0
 37 38  2  0  0  0  0
 38 52  1  0  0  0  0
 38 39  1  0  0  0  0
 39 53  1  0  0  0  0
 40 32  1  0  0  0  0
 40 39  2  0  0  0  0
 41 43  1  0  0  0  0
 42 41  2  0  0  0  0
 46 31  1  0  0  0  0
 47 31  1  0  0  0  0
 49 34  1  0  0  0  0
 50 36  1  0  0  0  0
 51 37  1  0  0  0  0
M  END
$$$$
