MAY.pdb
 OpenBabel07022418533D

 50 50  0  0  1  0  0  0  0  0999 V2000
    3.4680   -5.2630   -1.5720 C   0  0  0  0  0  0  0  0  0  0  0  0
    4.2640   -3.6580   -1.8890 S   0  0  0  0  0  0  0  0  0  0  0  0
    3.0230   -2.5440   -2.5510 C   0  0  0  0  0  0  0  0  0  0  0  0
    3.5800   -1.1720   -2.8540 C   0  0  0  0  0  0  0  0  0  0  0  0
    4.1420   -0.5060   -1.6190 C   0  0  2  0  0  0  0  0  0  0  0  0
    5.2040   -1.3610   -1.1220 N   0  0  0  0  0  0  0  0  0  0  0  0
    3.1260   -0.3090   -0.5710 C   0  0  0  0  0  0  0  0  0  0  0  0
    3.2710   -0.8560    0.5520 O   0  0  0  0  0  0  0  0  0  0  0  0
    4.1660   -6.1020   -1.6930 H   0  0  0  0  0  0  0  0  0  0  0  0
    3.0690   -5.2220   -0.5350 H   0  0  0  0  0  0  0  0  0  0  0  0
    2.5840   -5.3640   -2.2340 H   0  0  0  0  0  0  0  0  0  0  0  0
    2.1650   -2.5110   -1.8550 H   0  0  0  0  0  0  0  0  0  0  0  0
    2.6490   -2.9590   -3.5100 H   0  0  0  0  0  0  0  0  0  0  0  0
    2.7990   -0.5110   -3.2730 H   0  0  0  0  0  0  0  0  0  0  0  0
    4.4050   -1.2980   -3.5770 H   0  0  0  0  0  0  0  0  0  0  0  0
    4.5750    0.4590   -1.9270 H   0  0  0  0  0  0  0  0  0  0  0  0
    5.7910   -0.8200   -0.4380 H   0  0  0  0  0  0  0  0  0  0  0  0
    5.8520   -1.6640   -1.8730 H   0  0  0  0  0  0  0  0  0  0  0  0
    0.9600    2.1040    0.7910 C   0  0  0  0  0  0  0  0  0  0  0  0
    0.9850    0.6430    0.3200 C   0  0  2  0  0  0  0  0  0  0  0  0
    1.9580    0.4790   -0.7440 N   0  0  0  0  0  0  0  0  0  0  0  0
   -0.3710    0.2220   -0.1100 C   0  0  0  0  0  0  0  0  0  0  0  0
   -0.5460   -0.2090   -1.2760 O   0  0  0  0  0  0  0  0  0  0  0  0
    1.9990    2.3540    1.0700 H   0  0  0  0  0  0  0  0  0  0  0  0
    0.5510    2.7660    0.0250 H   0  0  0  0  0  0  0  0  0  0  0  0
    0.3720    2.0870    1.7380 H   0  0  0  0  0  0  0  0  0  0  0  0
    1.3390    0.0620    1.2110 H   0  0  0  0  0  0  0  0  0  0  0  0
    1.8160    0.9430   -1.6650 H   0  0  0  0  0  0  0  0  0  0  0  0
   -3.1630    0.4570    6.7970 O   0  0  0  0  0  0  0  0  0  0  0  0
   -3.2340    0.0720    5.4690 C   0  0  0  0  0  0  0  0  0  0  0  0
   -2.1500   -0.5250    4.8690 C   0  0  0  0  0  0  0  0  0  0  0  0
   -2.1720   -0.9200    3.5640 C   0  0  0  0  0  0  0  0  0  0  0  0
   -3.3130   -0.7240    2.8010 C   0  0  0  0  0  0  0  0  0  0  0  0
   -3.3180   -1.1720    1.3630 C   0  0  0  0  0  0  0  0  0  0  0  0
   -2.8120   -0.0870    0.4360 C   0  0  2  0  0  0  0  0  0  0  0  0
   -1.4580    0.2990    0.7660 N   0  0  0  0  0  0  0  0  0  0  0  0
   -3.7260    1.0730    0.5480 C   0  0  0  0  0  0  0  0  0  0  0  0
   -3.2890    2.2020    0.9180 O   0  0  0  0  0  0  0  0  0  0  0  0
   -4.4030   -0.1260    3.3930 C   0  0  0  0  0  0  0  0  0  0  0  0
   -4.3750    0.2750    4.7240 C   0  0  0  0  0  0  0  0  0  0  0  0
   -5.0740    0.9890    0.2600 O   0  0  0  0  0  0  0  0  0  0  0  0
   -2.3440    0.2540    7.3440 H   0  0  0  0  0  0  0  0  0  0  0  0
   -1.2460   -0.6790    5.4810 H   0  0  0  0  0  0  0  0  0  0  0  0
   -1.3350   -1.3830    3.0950 H   0  0  0  0  0  0  0  0  0  0  0  0
   -2.6600   -2.0610    1.2270 H   0  0  0  0  0  0  0  0  0  0  0  0
   -4.3400   -1.4520    1.0910 H   0  0  0  0  0  0  0  0  0  0  0  0
   -2.9010   -0.4580   -0.6040 H   0  0  0  0  0  0  0  0  0  0  0  0
   -1.3010    0.6610    1.7360 H   0  0  0  0  0  0  0  0  0  0  0  0
   -5.3180    0.0350    2.8020 H   0  0  0  0  0  0  0  0  0  0  0  0
   -5.2430    0.7490    5.1890 H   0  0  0  0  0  0  0  0  0  0  0  0
  1 10  1  0  0  0  0
  2  1  1  0  0  0  0
  3  2  1  0  0  0  0
  3 12  1  0  0  0  0
  4  3  1  0  0  0  0
  4  5  1  0  0  0  0
  5 16  1  6  0  0  0
  5  6  1  0  0  0  0
  5  7  1  0  0  0  0
  6 17  1  0  0  0  0
  7  8  2  0  0  0  0
  9  1  1  0  0  0  0
 11  1  1  0  0  0  0
 13  3  1  0  0  0  0
 14  4  1  0  0  0  0
 15  4  1  0  0  0  0
 18  6  1  0  0  0  0
 19 24  1  0  0  0  0
 19 26  1  0  0  0  0
 20 19  1  0  0  0  0
 20 27  1  1  0  0  0
 21  7  1  0  0  0  0
 21 20  1  0  0  0  0
 22 20  1  0  0  0  0
 22 36  1  0  0  0  0
 23 22  2  0  0  0  0
 25 19  1  0  0  0  0
 28 21  1  0  0  0  0
 29 42  1  0  0  0  0
 30 29  1  0  0  0  0
 31 30  1  0  0  0  0
 31 43  1  0  0  0  0
 32 31  2  0  0  0  0
 33 39  2  0  0  0  0
 33 32  1  0  0  0  0
 34 33  1  0  0  0  0
 35 47  1  6  0  0  0
 35 37  1  0  0  0  0
 35 36  1  0  0  0  0
 35 34  1  0  0  0  0
 36 48  1  0  0  0  0
 37 38  1  0  0  0  0
 39 40  1  0  0  0  0
 40 50  1  0  0  0  0
 40 30  2  0  0  0  0
 41 37  2  0  0  0  0
 44 32  1  0  0  0  0
 45 34  1  0  0  0  0
 46 34  1  0  0  0  0
 49 39  1  0  0  0  0
M  END
$$$$
