MCA.pdb
 OpenBabel07022418543D

 40 39  0  0  1  0  0  0  0  0999 V2000
   -2.6310   -5.4340    0.5500 C   0  0  0  0  0  0  0  0  0  0  0  0
   -0.8710   -5.7620    0.4490 S   0  0  0  0  0  0  0  0  0  0  0  0
   -0.1910   -5.3320   -1.1880 C   0  0  0  0  0  0  0  0  0  0  0  0
   -0.2710   -3.8230   -1.4040 C   0  0  0  0  0  0  0  0  0  0  0  0
    0.5530   -3.1970   -0.2890 C   0  0  2  0  0  0  0  0  0  0  0  0
   -0.0260   -3.5890    0.9550 N   0  0  0  0  0  0  0  0  0  0  0  0
    0.6700   -1.7290   -0.4430 C   0  0  0  0  0  0  0  0  0  0  0  0
    1.1600   -1.2350   -1.4890 O   0  0  0  0  0  0  0  0  0  0  0  0
   -2.8370   -4.5200    1.1600 H   0  0  0  0  0  0  0  0  0  0  0  0
   -3.1220   -6.3130    1.0040 H   0  0  0  0  0  0  0  0  0  0  0  0
   -3.0070   -5.1980   -0.4700 H   0  0  0  0  0  0  0  0  0  0  0  0
    0.8830   -5.5800   -1.1610 H   0  0  0  0  0  0  0  0  0  0  0  0
   -0.7580   -5.8870   -1.9450 H   0  0  0  0  0  0  0  0  0  0  0  0
   -1.3110   -3.4640   -1.3630 H   0  0  0  0  0  0  0  0  0  0  0  0
    0.1840   -3.5980   -2.3740 H   0  0  0  0  0  0  0  0  0  0  0  0
    1.5660   -3.6290   -0.3700 H   0  0  0  0  0  0  0  0  0  0  0  0
   -0.8680   -3.0860    1.2460 H   0  0  0  0  0  0  0  0  0  0  0  0
    0.6270   -3.8760    1.6890 H   0  0  0  0  0  0  0  0  0  0  0  0
    0.2460   -0.8000    0.5570 N   0  0  0  0  0  0  0  0  0  0  0  0
    0.3900    0.6480    0.3420 C   0  0  1  0  0  0  0  0  0  0  0  0
   -1.0200    1.2010    0.3240 C   0  0  0  0  0  0  0  0  0  0  0  0
   -1.0660    2.9800    0.0660 S   0  0  0  0  0  0  0  0  0  0  0  0
    1.1890    1.1840    1.4650 C   0  0  0  0  0  0  0  0  0  0  0  0
    1.5550    0.3910    2.3680 O   0  0  0  0  0  0  0  0  0  0  0  0
   -0.1620   -1.1820    1.4300 H   0  0  0  0  0  0  0  0  0  0  0  0
    0.8400    0.8220   -0.6390 H   0  0  0  0  0  0  0  0  0  0  0  0
   -1.5210    0.7160   -0.5600 H   0  0  0  0  0  0  0  0  0  0  0  0
   -1.5960    0.8790    1.2180 H   0  0  0  0  0  0  0  0  0  0  0  0
   -2.3360    3.3950   -0.3380 H   0  0  0  0  0  0  0  0  0  0  0  0
    3.7010    3.5880    2.2380 C   0  0  0  0  0  0  0  0  0  0  0  0
    2.3700    3.0230    2.7340 C   0  0  2  0  0  0  0  0  0  0  0  0
    1.5860    2.5320    1.6150 N   0  0  0  0  0  0  0  0  0  0  0  0
    1.5930    4.0850    3.4230 C   0  0  0  0  0  0  0  0  0  0  0  0
    2.0620    4.6690    4.4290 O   0  0  0  0  0  0  0  0  0  0  0  0
    0.3330    4.4680    2.9870 O   0  0  0  0  0  0  0  0  0  0  0  0
    4.3130    3.7720    3.1350 H   0  0  0  0  0  0  0  0  0  0  0  0
    4.1760    2.8030    1.6420 H   0  0  0  0  0  0  0  0  0  0  0  0
    3.5490    4.5390    1.7010 H   0  0  0  0  0  0  0  0  0  0  0  0
    2.6210    2.2390    3.4550 H   0  0  0  0  0  0  0  0  0  0  0  0
    1.3080    3.2140    0.8880 H   0  0  0  0  0  0  0  0  0  0  0  0
  1 10  1  0  0  0  0
  1  9  1  0  0  0  0
  2  1  1  0  0  0  0
  3 12  1  0  0  0  0
  3  2  1  0  0  0  0
  4 14  1  0  0  0  0
  4  3  1  0  0  0  0
  4  5  1  0  0  0  0
  5 16  1  6  0  0  0
  5  6  1  0  0  0  0
  6 17  1  0  0  0  0
  6 18  1  0  0  0  0
  7  5  1  0  0  0  0
  7 19  1  0  0  0  0
  8  7  2  0  0  0  0
 11  1  1  0  0  0  0
 13  3  1  0  0  0  0
 15  4  1  0  0  0  0
 19 25  1  0  0  0  0
 20 26  1  6  0  0  0
 20 19  1  0  0  0  0
 20 23  1  0  0  0  0
 21 20  1  0  0  0  0
 21 28  1  0  0  0  0
 22 21  1  0  0  0  0
 23 32  1  0  0  0  0
 23 24  2  0  0  0  0
 27 21  1  0  0  0  0
 29 22  1  0  0  0  0
 30 31  1  0  0  0  0
 30 36  1  0  0  0  0
 31 33  1  0  0  0  0
 31 39  1  1  0  0  0
 32 31  1  0  0  0  0
 33 34  1  0  0  0  0
 35 33  2  0  0  0  0
 37 30  1  0  0  0  0
 38 30  1  0  0  0  0
 40 32  1  0  0  0  0
M  END
$$$$
