MCD.pdb
 OpenBabel07022418543D

 43 42  0  0  1  0  0  0  0  0999 V2000
   -1.8840   -3.0450    4.2960 C   0  0  0  0  0  0  0  0  0  0  0  0
   -1.0880   -1.5740    3.5990 S   0  0  0  0  0  0  0  0  0  0  0  0
    0.4640   -1.9580    2.7900 C   0  0  0  0  0  0  0  0  0  0  0  0
    0.2760   -2.8150    1.5540 C   0  0  0  0  0  0  0  0  0  0  0  0
    1.6260   -3.0930    0.9290 C   0  0  2  0  0  0  0  0  0  0  0  0
    2.4280   -3.7900    1.9100 N   0  0  0  0  0  0  0  0  0  0  0  0
    2.3130   -1.8570    0.5140 C   0  0  0  0  0  0  0  0  0  0  0  0
    3.4480   -1.5620    1.0170 O   0  0  0  0  0  0  0  0  0  0  0  0
   -2.2440   -3.7030    3.4620 H   0  0  0  0  0  0  0  0  0  0  0  0
   -2.7440   -2.7580    4.9250 H   0  0  0  0  0  0  0  0  0  0  0  0
   -1.1270   -3.5740    4.9100 H   0  0  0  0  0  0  0  0  0  0  0  0
    1.1260   -2.4350    3.5270 H   0  0  0  0  0  0  0  0  0  0  0  0
    0.9470   -0.9980    2.5080 H   0  0  0  0  0  0  0  0  0  0  0  0
   -0.4220   -2.3160    0.8520 H   0  0  0  0  0  0  0  0  0  0  0  0
   -0.1840   -3.7650    1.8860 H   0  0  0  0  0  0  0  0  0  0  0  0
    1.4620   -3.8080    0.0890 H   0  0  0  0  0  0  0  0  0  0  0  0
    2.1930   -4.7950    1.9350 H   0  0  0  0  0  0  0  0  0  0  0  0
    3.4520   -3.6620    1.6590 H   0  0  0  0  0  0  0  0  0  0  0  0
    1.8040   -0.9390   -0.4260 N   0  0  0  0  0  0  0  0  0  0  0  0
    2.4890    0.2510   -0.8110 C   0  0  1  0  0  0  0  0  0  0  0  0
    2.8200    0.3090   -2.2800 C   0  0  0  0  0  0  0  0  0  0  0  0
    3.8770   -1.0410   -2.8240 S   0  0  0  0  0  0  0  0  0  0  0  0
    1.6280    1.4350   -0.5320 C   0  0  0  0  0  0  0  0  0  0  0  0
    2.0510    2.5900   -0.7900 O   0  0  0  0  0  0  0  0  0  0  0  0
    0.8800   -1.1410   -0.8630 H   0  0  0  0  0  0  0  0  0  0  0  0
    3.4690    0.3350   -0.2610 H   0  0  0  0  0  0  0  0  0  0  0  0
    3.3990    1.2600   -2.4310 H   0  0  0  0  0  0  0  0  0  0  0  0
    1.9060    0.4320   -2.9060 H   0  0  0  0  0  0  0  0  0  0  0  0
    5.2230   -0.7700   -2.5570 H   0  0  0  0  0  0  0  0  0  0  0  0
    0.3040    1.3110    0.0320 N   0  0  0  0  0  0  0  0  0  0  0  0
   -0.5130    2.4650    0.2960 C   0  0  1  0  0  0  0  0  0  0  0  0
   -1.7490    2.4710   -0.5720 C   0  0  0  0  0  0  0  0  0  0  0  0
   -2.6040    1.2820   -0.3530 C   0  0  0  0  0  0  0  0  0  0  0  0
   -2.3050    0.3910    0.4820 O   0  0  0  0  0  0  0  0  0  0  0  0
   -0.9250    2.5600    1.7090 C   0  0  0  0  0  0  0  0  0  0  0  0
   -0.5460    1.6750    2.5090 O   0  0  0  0  0  0  0  0  0  0  0  0
   -3.7760    1.1200   -1.0750 O   0  0  0  0  0  0  0  0  0  0  0  0
   -1.7130    3.5890    2.1840 O   0  0  0  0  0  0  0  0  0  0  0  0
    0.0060    0.3460    0.2230 H   0  0  0  0  0  0  0  0  0  0  0  0
    0.0670    3.3870    0.0260 H   0  0  0  0  0  0  0  0  0  0  0  0
   -2.3700    3.3710   -0.3900 H   0  0  0  0  0  0  0  0  0  0  0  0
   -1.4720    2.5310   -1.6650 H   0  0  0  0  0  0  0  0  0  0  0  0
   -4.1710    0.1870   -1.1250 H   0  0  0  0  0  0  0  0  0  0  0  0
  1 11  1  0  0  0  0
  1 10  1  0  0  0  0
  2  1  1  0  0  0  0
  3 12  1  0  0  0  0
  3  2  1  0  0  0  0
  4 15  1  0  0  0  0
  4  3  1  0  0  0  0
  5 16  1  6  0  0  0
  5  4  1  0  0  0  0
  5  6  1  0  0  0  0
  6 17  1  0  0  0  0
  7  5  1  0  0  0  0
  7  8  2  0  0  0  0
  9  1  1  0  0  0  0
 13  3  1  0  0  0  0
 14  4  1  0  0  0  0
 18  6  1  0  0  0  0
 19  7  1  0  0  0  0
 20 23  1  0  0  0  0
 20 19  1  0  0  0  0
 20 26  1  1  0  0  0
 21 20  1  0  0  0  0
 22 29  1  0  0  0  0
 22 21  1  0  0  0  0
 23 30  1  0  0  0  0
 24 23  2  0  0  0  0
 25 19  1  0  0  0  0
 27 21  1  0  0  0  0
 28 21  1  0  0  0  0
 30 39  1  0  0  0  0
 30 31  1  0  0  0  0
 31 40  1  6  0  0  0
 31 35  1  0  0  0  0
 32 41  1  0  0  0  0
 32 33  1  0  0  0  0
 32 31  1  0  0  0  0
 33 34  2  0  0  0  0
 35 38  2  0  0  0  0
 35 36  1  0  0  0  0
 37 33  1  0  0  0  0
 42 32  1  0  0  0  0
 43 37  1  0  0  0  0
M  END
$$$$
