MCF.pdb
 OpenBabel07022418543D

 50 50  0  0  1  0  0  0  0  0999 V2000
    4.1190   -4.4830    2.4780 C   0  0  0  0  0  0  0  0  0  0  0  0
    4.1120   -4.5490    0.6910 S   0  0  0  0  0  0  0  0  0  0  0  0
    3.4700   -3.1230   -0.1200 C   0  0  0  0  0  0  0  0  0  0  0  0
    4.2500   -1.8770   -0.1550 C   0  0  0  0  0  0  0  0  0  0  0  0
    4.6520   -1.2050    1.0990 C   0  0  2  0  0  0  0  0  0  0  0  0
    5.4970   -1.9810    1.9400 N   0  0  0  0  0  0  0  0  0  0  0  0
    3.4840   -0.6340    1.8430 C   0  0  0  0  0  0  0  0  0  0  0  0
    3.3830   -0.8870    3.0580 O   0  0  0  0  0  0  0  0  0  0  0  0
    3.5520   -5.3800    2.9180 H   0  0  0  0  0  0  0  0  0  0  0  0
    5.1540   -4.4960    2.8800 H   0  0  0  0  0  0  0  0  0  0  0  0
    3.5600   -3.6210    2.8860 H   0  0  0  0  0  0  0  0  0  0  0  0
    2.4080   -2.9430    0.2310 H   0  0  0  0  0  0  0  0  0  0  0  0
    3.3030   -3.4120   -1.2180 H   0  0  0  0  0  0  0  0  0  0  0  0
    5.1940   -2.0620   -0.7420 H   0  0  0  0  0  0  0  0  0  0  0  0
    3.6670   -1.1590   -0.8190 H   0  0  0  0  0  0  0  0  0  0  0  0
    5.2240   -0.2720    0.7710 H   0  0  0  0  0  0  0  0  0  0  0  0
    6.1490   -1.3420    2.4690 H   0  0  0  0  0  0  0  0  0  0  0  0
    6.0720   -2.6100    1.3360 H   0  0  0  0  0  0  0  0  0  0  0  0
    2.5410    0.1590    1.1790 N   0  0  0  0  0  0  0  0  0  0  0  0
    1.3720    0.7460    1.8690 C   0  0  1  0  0  0  0  0  0  0  0  0
    1.5700    2.2620    1.7710 C   0  0  0  0  0  0  0  0  0  0  0  0
    0.2420    3.1640    2.5670 S   0  0  0  0  0  0  0  0  0  0  0  0
    0.1780    0.2890    1.1160 C   0  0  0  0  0  0  0  0  0  0  0  0
    0.3710   -0.3840    0.1030 O   0  0  0  0  0  0  0  0  0  0  0  0
    2.6740    0.3390    0.1600 H   0  0  0  0  0  0  0  0  0  0  0  0
    1.3590    0.4750    2.9220 H   0  0  0  0  0  0  0  0  0  0  0  0
    2.5290    2.5100    2.2350 H   0  0  0  0  0  0  0  0  0  0  0  0
    1.6420    2.5660    0.6960 H   0  0  0  0  0  0  0  0  0  0  0  0
    0.6180    3.5210    3.8910 H   0  0  0  0  0  0  0  0  0  0  0  0
   -1.1580    0.5620    1.4680 N   0  0  0  0  0  0  0  0  0  0  0  0
   -2.3700    0.1880    0.8610 C   0  0  1  0  0  0  0  0  0  0  0  0
   -3.0060    1.0650   -0.1130 C   0  0  0  0  0  0  0  0  0  0  0  0
   -4.2760    0.5740   -0.6940 C   0  0  0  0  0  0  0  0  0  0  0  0
   -5.4840    0.8210   -0.0750 C   0  0  0  0  0  0  0  0  0  0  0  0
   -6.6970    0.4110   -0.5710 C   0  0  0  0  0  0  0  0  0  0  0  0
   -6.7560   -0.2890   -1.7480 C   0  0  0  0  0  0  0  0  0  0  0  0
   -5.5710   -0.5560   -2.3990 C   0  0  0  0  0  0  0  0  0  0  0  0
   -4.3580   -0.1380   -1.8910 C   0  0  0  0  0  0  0  0  0  0  0  0
   -2.3480   -1.2710    0.5460 C   0  0  0  0  0  0  0  0  0  0  0  0
   -1.3600   -1.9450    0.9220 O   0  0  0  0  0  0  0  0  0  0  0  0
   -3.3600   -1.9210   -0.1350 O   0  0  0  0  0  0  0  0  0  0  0  0
   -1.2270    1.1580    2.3570 H   0  0  0  0  0  0  0  0  0  0  0  0
   -3.1260    0.1290    1.7480 H   0  0  0  0  0  0  0  0  0  0  0  0
   -2.3950    1.4010   -0.9710 H   0  0  0  0  0  0  0  0  0  0  0  0
   -3.2980    2.0530    0.3700 H   0  0  0  0  0  0  0  0  0  0  0  0
   -5.4610    1.3780    0.8670 H   0  0  0  0  0  0  0  0  0  0  0  0
   -7.5960    0.6400   -0.0320 H   0  0  0  0  0  0  0  0  0  0  0  0
   -7.7170   -0.6310   -2.1700 H   0  0  0  0  0  0  0  0  0  0  0  0
   -5.6090   -1.1100   -3.3330 H   0  0  0  0  0  0  0  0  0  0  0  0
   -3.4380   -0.3570   -2.4140 H   0  0  0  0  0  0  0  0  0  0  0  0
  1 10  1  0  0  0  0
  1 11  1  0  0  0  0
  1  9  1  0  0  0  0
  2  1  1  0  0  0  0
  3 12  1  0  0  0  0
  3  2  1  0  0  0  0
  4  3  1  0  0  0  0
  4  5  1  0  0  0  0
  5 16  1  6  0  0  0
  5  7  1  0  0  0  0
  5  6  1  0  0  0  0
  6 17  1  0  0  0  0
  7  8  2  0  0  0  0
 13  3  1  0  0  0  0
 14  4  1  0  0  0  0
 15  4  1  0  0  0  0
 18  6  1  0  0  0  0
 19  7  1  0  0  0  0
 19 20  1  0  0  0  0
 20 26  1  1  0  0  0
 21 20  1  0  0  0  0
 21 27  1  0  0  0  0
 21 22  1  0  0  0  0
 22 29  1  0  0  0  0
 23 30  1  0  0  0  0
 23 20  1  0  0  0  0
 24 23  2  0  0  0  0
 25 19  1  0  0  0  0
 28 21  1  0  0  0  0
 30 42  1  0  0  0  0
 31 30  1  0  0  0  0
 31 43  1  1  0  0  0
 32 45  1  0  0  0  0
 32 31  1  0  0  0  0
 33 32  1  0  0  0  0
 33 34  1  0  0  0  0
 34 46  1  0  0  0  0
 35 34  2  0  0  0  0
 35 47  1  0  0  0  0
 36 35  1  0  0  0  0
 37 38  1  0  0  0  0
 37 36  2  0  0  0  0
 38 33  2  0  0  0  0
 39 31  1  0  0  0  0
 39 40  1  0  0  0  0
 41 39  2  0  0  0  0
 44 32  1  0  0  0  0
 48 36  1  0  0  0  0
 49 37  1  0  0  0  0
 50 38  1  0  0  0  0
M  END
$$$$
