MCG.pdb
 OpenBabel07022418543D

 37 36  0  0  1  0  0  0  0  0999 V2000
   -2.6990   -4.5410    2.0190 C   0  0  0  0  0  0  0  0  0  0  0  0
   -1.0820   -5.0770    1.4510 S   0  0  0  0  0  0  0  0  0  0  0  0
   -0.7330   -4.5230   -0.2290 C   0  0  0  0  0  0  0  0  0  0  0  0
   -0.6100   -3.0310   -0.3210 C   0  0  0  0  0  0  0  0  0  0  0  0
    0.5040   -2.4740    0.5450 C   0  0  2  0  0  0  0  0  0  0  0  0
    0.2080   -2.8340    1.9150 N   0  0  0  0  0  0  0  0  0  0  0  0
    0.4320   -1.0030    0.4310 C   0  0  0  0  0  0  0  0  0  0  0  0
    0.1470   -0.3520    1.4580 O   0  0  0  0  0  0  0  0  0  0  0  0
   -2.5500   -3.8240    2.8770 H   0  0  0  0  0  0  0  0  0  0  0  0
   -3.2300   -3.9860    1.2110 H   0  0  0  0  0  0  0  0  0  0  0  0
   -3.3260   -5.4030    2.3700 H   0  0  0  0  0  0  0  0  0  0  0  0
    0.2260   -4.9600   -0.5650 H   0  0  0  0  0  0  0  0  0  0  0  0
   -1.5130   -4.8320   -0.9480 H   0  0  0  0  0  0  0  0  0  0  0  0
   -1.5870   -2.5850   -0.0690 H   0  0  0  0  0  0  0  0  0  0  0  0
   -0.4350   -2.7860   -1.4010 H   0  0  0  0  0  0  0  0  0  0  0  0
    1.4920   -2.8740    0.2300 H   0  0  0  0  0  0  0  0  0  0  0  0
    0.8080   -3.5840    2.2860 H   0  0  0  0  0  0  0  0  0  0  0  0
    0.1410   -1.9950    2.5410 H   0  0  0  0  0  0  0  0  0  0  0  0
    0.6780   -0.3390   -0.8020 N   0  0  0  0  0  0  0  0  0  0  0  0
    0.5870    1.1050   -0.8250 C   0  0  1  0  0  0  0  0  0  0  0  0
   -0.8460    1.4530   -0.6130 C   0  0  0  0  0  0  0  0  0  0  0  0
   -1.2050    3.2180   -0.6070 S   0  0  0  0  0  0  0  0  0  0  0  0
    1.5670    1.6750    0.0730 C   0  0  0  0  0  0  0  0  0  0  0  0
    2.3230    0.8860    0.7250 O   0  0  0  0  0  0  0  0  0  0  0  0
    0.9190   -0.8900   -1.6710 H   0  0  0  0  0  0  0  0  0  0  0  0
    0.8410    1.4260   -1.8690 H   0  0  0  0  0  0  0  0  0  0  0  0
   -1.3900    1.0410   -1.5200 H   0  0  0  0  0  0  0  0  0  0  0  0
   -1.3380    0.9360    0.2340 H   0  0  0  0  0  0  0  0  0  0  0  0
   -1.9930    3.5090    0.5360 H   0  0  0  0  0  0  0  0  0  0  0  0
    1.7940    3.0470    0.3200 N   0  0  0  0  0  0  0  0  0  0  0  0
    2.8040    3.5200    1.2420 C   0  0  0  0  0  0  0  0  0  0  0  0
    2.5700    3.0220    2.6190 C   0  0  0  0  0  0  0  0  0  0  0  0
    3.3830    3.3660    3.5130 O   0  0  0  0  0  0  0  0  0  0  0  0
    1.5140    2.2030    2.9870 O   0  0  0  0  0  0  0  0  0  0  0  0
    1.2230    3.7410   -0.1750 H   0  0  0  0  0  0  0  0  0  0  0  0
    2.7960    4.6260    1.2870 H   0  0  0  0  0  0  0  0  0  0  0  0
    3.8310    3.2510    0.8810 H   0  0  0  0  0  0  0  0  0  0  0  0
  1 11  1  0  0  0  0
  1  9  1  0  0  0  0
  2  1  1  0  0  0  0
  3  2  1  0  0  0  0
  4  3  1  0  0  0  0
  4 14  1  0  0  0  0
  4  5  1  0  0  0  0
  5 16  1  6  0  0  0
  5  6  1  0  0  0  0
  6 17  1  0  0  0  0
  6 18  1  0  0  0  0
  7  5  1  0  0  0  0
  7  8  2  0  0  0  0
 10  1  1  0  0  0  0
 12  3  1  0  0  0  0
 13  3  1  0  0  0  0
 15  4  1  0  0  0  0
 19  7  1  0  0  0  0
 20 26  1  6  0  0  0
 20 19  1  0  0  0  0
 20 21  1  0  0  0  0
 20 23  1  0  0  0  0
 21 22  1  0  0  0  0
 21 28  1  0  0  0  0
 22 29  1  0  0  0  0
 23 30  1  0  0  0  0
 23 24  2  0  0  0  0
 25 19  1  0  0  0  0
 27 21  1  0  0  0  0
 30 31  1  0  0  0  0
 31 36  1  0  0  0  0
 31 32  1  0  0  0  0
 32 34  2  0  0  0  0
 32 33  1  0  0  0  0
 35 30  1  0  0  0  0
 37 31  1  0  0  0  0
M  END
$$$$
