MCH.pdb
 OpenBabel07022418543D

 47 47  0  0  1  0  0  0  0  0999 V2000
    2.1540   -4.6970   -1.6840 C   0  0  0  0  0  0  0  0  0  0  0  0
    3.2670   -3.2990   -1.3500 S   0  0  0  0  0  0  0  0  0  0  0  0
    2.2460   -1.8140   -1.1860 C   0  0  0  0  0  0  0  0  0  0  0  0
    3.0860   -0.5870   -0.9060 C   0  0  0  0  0  0  0  0  0  0  0  0
    3.8730   -0.7520    0.3890 C   0  0  2  0  0  0  0  0  0  0  0  0
    4.7230   -1.9200    0.1930 N   0  0  0  0  0  0  0  0  0  0  0  0
    2.9730   -0.9330    1.5510 C   0  0  0  0  0  0  0  0  0  0  0  0
    3.0020   -2.0030    2.2260 O   0  0  0  0  0  0  0  0  0  0  0  0
    1.7030   -4.5430   -2.6840 H   0  0  0  0  0  0  0  0  0  0  0  0
    2.7210   -5.6460   -1.5980 H   0  0  0  0  0  0  0  0  0  0  0  0
    1.3330   -4.6430   -0.9390 H   0  0  0  0  0  0  0  0  0  0  0  0
    1.5160   -1.9780   -0.3790 H   0  0  0  0  0  0  0  0  0  0  0  0
    1.6770   -1.6120   -2.1190 H   0  0  0  0  0  0  0  0  0  0  0  0
    2.4340    0.2930   -0.8990 H   0  0  0  0  0  0  0  0  0  0  0  0
    3.8240   -0.4520   -1.7160 H   0  0  0  0  0  0  0  0  0  0  0  0
    4.4510    0.1730    0.5330 H   0  0  0  0  0  0  0  0  0  0  0  0
    4.8850   -2.4280    1.0950 H   0  0  0  0  0  0  0  0  0  0  0  0
    5.6210   -1.6500   -0.2720 H   0  0  0  0  0  0  0  0  0  0  0  0
    2.0460    0.0550    1.9720 N   0  0  0  0  0  0  0  0  0  0  0  0
    1.1890   -0.1450    3.0970 C   0  0  1  0  0  0  0  0  0  0  0  0
    1.4430    0.8430    4.2130 C   0  0  0  0  0  0  0  0  0  0  0  0
    0.3100    0.4840    5.5550 S   0  0  0  0  0  0  0  0  0  0  0  0
   -0.2400   -0.1590    2.6900 C   0  0  0  0  0  0  0  0  0  0  0  0
   -1.1460   -0.3250    3.5420 O   0  0  0  0  0  0  0  0  0  0  0  0
    1.9770    0.9610    1.4530 H   0  0  0  0  0  0  0  0  0  0  0  0
    1.3970   -1.1570    3.5180 H   0  0  0  0  0  0  0  0  0  0  0  0
    2.4720    0.6660    4.5730 H   0  0  0  0  0  0  0  0  0  0  0  0
    1.3620    1.8760    3.8300 H   0  0  0  0  0  0  0  0  0  0  0  0
    0.9470   -0.2540    6.5600 H   0  0  0  0  0  0  0  0  0  0  0  0
   -0.6460    0.0110    1.3400 N   0  0  0  0  0  0  0  0  0  0  0  0
   -2.0310    0.0010    0.9140 C   0  0  1  0  0  0  0  0  0  0  0  0
   -2.4530    1.3470    0.3660 C   0  0  0  0  0  0  0  0  0  0  0  0
   -3.8670    1.3710   -0.0790 C   0  0  0  0  0  0  0  0  0  0  0  0
   -4.9590    1.6970    0.7210 C   0  0  0  0  0  0  0  0  0  0  0  0
   -6.0790    1.6090   -0.0200 N   0  0  0  0  0  0  0  0  0  0  0  0
   -5.7400    1.2360   -1.2730 C   0  0  0  0  0  0  0  0  0  0  0  0
   -4.4050    1.1000   -1.2800 N   0  0  0  0  0  0  0  0  0  0  0  0
   -2.3400   -1.1290    0.0280 C   0  0  0  0  0  0  0  0  0  0  0  0
   -1.4450   -1.9340   -0.2880 O   0  0  0  0  0  0  0  0  0  0  0  0
   -3.6150   -1.2960   -0.4510 O   0  0  0  0  0  0  0  0  0  0  0  0
    0.1180    0.1490    0.6390 H   0  0  0  0  0  0  0  0  0  0  0  0
   -2.6360   -0.1570    1.8540 H   0  0  0  0  0  0  0  0  0  0  0  0
   -2.3040    2.1350    1.1320 H   0  0  0  0  0  0  0  0  0  0  0  0
   -1.7770    1.6410   -0.4890 H   0  0  0  0  0  0  0  0  0  0  0  0
   -4.8510    1.9680    1.7600 H   0  0  0  0  0  0  0  0  0  0  0  0
   -7.0570    1.7960    0.3090 H   0  0  0  0  0  0  0  0  0  0  0  0
   -6.4560    1.0890   -2.0810 H   0  0  0  0  0  0  0  0  0  0  0  0
  1 10  1  0  0  0  0
  1  2  1  0  0  0  0
  1 11  1  0  0  0  0
  2  3  1  0  0  0  0
  3  4  1  0  0  0  0
  3 12  1  0  0  0  0
  4 14  1  0  0  0  0
  4  5  1  0  0  0  0
  5 16  1  1  0  0  0
  5  7  1  0  0  0  0
  6  5  1  0  0  0  0
  6 17  1  0  0  0  0
  7 19  1  0  0  0  0
  7  8  2  0  0  0  0
  9  1  1  0  0  0  0
 13  3  1  0  0  0  0
 15  4  1  0  0  0  0
 18  6  1  0  0  0  0
 19 20  1  0  0  0  0
 20 26  1  1  0  0  0
 20 21  1  0  0  0  0
 21 27  1  0  0  0  0
 21 22  1  0  0  0  0
 22 29  1  0  0  0  0
 23 20  1  0  0  0  0
 23 24  2  0  0  0  0
 25 19  1  0  0  0  0
 28 21  1  0  0  0  0
 30 23  1  0  0  0  0
 31 30  1  0  0  0  0
 31 42  1  1  0  0  0
 32 31  1  0  0  0  0
 32 43  1  0  0  0  0
 33 32  1  0  0  0  0
 33 34  2  0  0  0  0
 34 45  1  0  0  0  0
 35 46  1  0  0  0  0
 35 34  1  0  0  0  0
 36 35  1  0  0  0  0
 37 36  2  0  0  0  0
 37 33  1  0  0  0  0
 38 31  1  0  0  0  0
 39 38  1  0  0  0  0
 40 38  2  0  0  0  0
 41 30  1  0  0  0  0
 44 32  1  0  0  0  0
 47 36  1  0  0  0  0
M  END
$$$$
