MCI.pdb
 OpenBabel07022418543D

 49 48  0  0  1  0  0  0  0  0999 V2000
    1.6760   -4.4760    3.1850 C   0  0  0  0  0  0  0  0  0  0  0  0
    3.4220   -4.6990    2.9610 S   0  0  0  0  0  0  0  0  0  0  0  0
    4.2810   -3.4340    2.0500 C   0  0  0  0  0  0  0  0  0  0  0  0
    3.9010   -3.3190    0.5990 C   0  0  0  0  0  0  0  0  0  0  0  0
    2.4570   -2.9410    0.3960 C   0  0  2  0  0  0  0  0  0  0  0  0
    2.2230   -2.9050   -1.0700 N   0  0  0  0  0  0  0  0  0  0  0  0
    2.1780   -1.5480    0.8270 C   0  0  0  0  0  0  0  0  0  0  0  0
    2.3130   -1.2430    2.0290 O   0  0  0  0  0  0  0  0  0  0  0  0
    1.2870   -3.4530    3.1420 H   0  0  0  0  0  0  0  0  0  0  0  0
    1.4280   -4.8240    4.2360 H   0  0  0  0  0  0  0  0  0  0  0  0
    1.1060   -5.1780    2.5330 H   0  0  0  0  0  0  0  0  0  0  0  0
    5.3740   -3.6950    2.0710 H   0  0  0  0  0  0  0  0  0  0  0  0
    4.1800   -2.4400    2.5700 H   0  0  0  0  0  0  0  0  0  0  0  0
    4.0730   -4.3310    0.1340 H   0  0  0  0  0  0  0  0  0  0  0  0
    4.5570   -2.5680    0.0810 H   0  0  0  0  0  0  0  0  0  0  0  0
    1.8160   -3.7060    0.7990 H   0  0  0  0  0  0  0  0  0  0  0  0
    1.2080   -3.1490   -1.2590 H   0  0  0  0  0  0  0  0  0  0  0  0
    2.7570   -3.7080   -1.5210 H   0  0  0  0  0  0  0  0  0  0  0  0
    1.7600   -0.5000   -0.0260 N   0  0  0  0  0  0  0  0  0  0  0  0
    1.4940    0.8360    0.3940 C   0  0  1  0  0  0  0  0  0  0  0  0
    2.2460    1.9090   -0.2920 C   0  0  0  0  0  0  0  0  0  0  0  0
    4.0400    1.7390   -0.0940 S   0  0  0  0  0  0  0  0  0  0  0  0
    0.0210    1.1320    0.2630 C   0  0  0  0  0  0  0  0  0  0  0  0
   -0.4390    2.2490    0.5870 O   0  0  0  0  0  0  0  0  0  0  0  0
    1.6390   -0.7260   -1.0350 H   0  0  0  0  0  0  0  0  0  0  0  0
    1.6950    0.8940    1.4870 H   0  0  0  0  0  0  0  0  0  0  0  0
    1.9750    2.8750    0.2220 H   0  0  0  0  0  0  0  0  0  0  0  0
    1.9590    2.0680   -1.3500 H   0  0  0  0  0  0  0  0  0  0  0  0
    4.3400    2.1540    1.2350 H   0  0  0  0  0  0  0  0  0  0  0  0
   -3.8110    2.4660    2.2960 C   0  0  0  0  0  0  0  0  0  0  0  0
   -3.0060    1.3500    1.6640 C   0  0  0  0  0  0  0  0  0  0  0  0
   -3.0770    1.3510    0.1720 C   0  0  2  0  0  0  0  0  0  0  0  0
   -4.5290    1.1550   -0.2000 C   0  0  0  0  0  0  0  0  0  0  0  0
   -2.2850    0.2310   -0.3990 C   0  0  2  0  0  0  0  0  0  0  0  0
   -0.8880    0.1880   -0.2180 N   0  0  0  0  0  0  0  0  0  0  0  0
   -2.6710   -0.2520   -1.7220 C   0  0  0  0  0  0  0  0  0  0  0  0
   -3.8600   -0.3120   -2.1030 O   0  0  0  0  0  0  0  0  0  0  0  0
   -1.7190   -0.6860   -2.6690 O   0  0  0  0  0  0  0  0  0  0  0  0
   -4.8470    2.1620    2.5230 H   0  0  0  0  0  0  0  0  0  0  0  0
   -3.7480    3.4210    1.7390 H   0  0  0  0  0  0  0  0  0  0  0  0
   -3.3230    2.6650    3.2970 H   0  0  0  0  0  0  0  0  0  0  0  0
   -3.6260    0.4080    1.9500 H   0  0  0  0  0  0  0  0  0  0  0  0
   -2.0750    1.1720    2.1600 H   0  0  0  0  0  0  0  0  0  0  0  0
   -2.8330    2.3440   -0.2740 H   0  0  0  0  0  0  0  0  0  0  0  0
   -4.7770    1.6020   -1.1850 H   0  0  0  0  0  0  0  0  0  0  0  0
   -4.8800    0.1080   -0.0750 H   0  0  0  0  0  0  0  0  0  0  0  0
   -5.0940    1.8110    0.5350 H   0  0  0  0  0  0  0  0  0  0  0  0
   -2.6310   -0.6280    0.3390 H   0  0  0  0  0  0  0  0  0  0  0  0
   -0.4500   -0.7510   -0.5070 H   0  0  0  0  0  0  0  0  0  0  0  0
  1 10  1  0  0  0  0
  2  1  1  0  0  0  0
  3 12  1  0  0  0  0
  3 13  1  0  0  0  0
  3  2  1  0  0  0  0
  4  3  1  0  0  0  0
  5  4  1  0  0  0  0
  5 16  1  1  0  0  0
  5  7  1  0  0  0  0
  6  5  1  0  0  0  0
  7  8  2  0  0  0  0
  9  1  1  0  0  0  0
 11  1  1  0  0  0  0
 14  4  1  0  0  0  0
 15  4  1  0  0  0  0
 17  6  1  0  0  0  0
 18  6  1  0  0  0  0
 19 20  1  0  0  0  0
 19  7  1  0  0  0  0
 20 26  1  1  0  0  0
 21 22  1  0  0  0  0
 21 27  1  0  0  0  0
 21 20  1  0  0  0  0
 22 29  1  0  0  0  0
 23 20  1  0  0  0  0
 23 24  2  0  0  0  0
 25 19  1  0  0  0  0
 28 21  1  0  0  0  0
 30 39  1  0  0  0  0
 30 41  1  0  0  0  0
 31 42  1  0  0  0  0
 31 43  1  0  0  0  0
 31 30  1  0  0  0  0
 32 44  1  6  0  0  0
 32 31  1  0  0  0  0
 33 46  1  0  0  0  0
 33 32  1  0  0  0  0
 33 47  1  0  0  0  0
 34 35  1  0  0  0  0
 34 32  1  0  0  0  0
 34 48  1  1  0  0  0
 35 23  1  0  0  0  0
 36 34  1  0  0  0  0
 37 36  1  0  0  0  0
 38 36  2  0  0  0  0
 40 30  1  0  0  0  0
 45 33  1  0  0  0  0
 49 35  1  0  0  0  0
M  END
$$$$
