MCK.pdb
 OpenBabel07022418543D

 51 50  0  0  1  0  0  0  0  0999 V2000
   -0.1560   -3.9030    4.3060 C   0  0  0  0  0  0  0  0  0  0  0  0
    1.5110   -3.9520    4.9120 S   0  0  0  0  0  0  0  0  0  0  0  0
    2.3600   -2.4450    5.2010 C   0  0  0  0  0  0  0  0  0  0  0  0
    2.8760   -1.6840    4.0360 C   0  0  0  0  0  0  0  0  0  0  0  0
    1.8770   -1.2650    3.0450 C   0  0  2  0  0  0  0  0  0  0  0  0
    1.1930   -2.3410    2.3920 N   0  0  0  0  0  0  0  0  0  0  0  0
    2.4010   -0.2640    2.0640 C   0  0  0  0  0  0  0  0  0  0  0  0
    3.0380    0.7430    2.4640 O   0  0  0  0  0  0  0  0  0  0  0  0
   -0.6390   -2.9210    4.2400 H   0  0  0  0  0  0  0  0  0  0  0  0
   -0.2250   -4.4160    3.3260 H   0  0  0  0  0  0  0  0  0  0  0  0
   -0.8550   -4.5410    4.9750 H   0  0  0  0  0  0  0  0  0  0  0  0
    3.2320   -2.6830    5.9140 H   0  0  0  0  0  0  0  0  0  0  0  0
    1.7390   -1.7110    5.8310 H   0  0  0  0  0  0  0  0  0  0  0  0
    3.3870   -0.7560    4.4670 H   0  0  0  0  0  0  0  0  0  0  0  0
    3.7500   -2.2320    3.5730 H   0  0  0  0  0  0  0  0  0  0  0  0
    1.0650   -0.7000    3.6070 H   0  0  0  0  0  0  0  0  0  0  0  0
    1.8420   -2.7610    1.6850 H   0  0  0  0  0  0  0  0  0  0  0  0
    0.3710   -1.9810    1.8560 H   0  0  0  0  0  0  0  0  0  0  0  0
    2.2110   -0.3960    0.6610 N   0  0  0  0  0  0  0  0  0  0  0  0
    2.7000    0.5480   -0.3110 C   0  0  1  0  0  0  0  0  0  0  0  0
    3.5810   -0.0930   -1.3490 C   0  0  0  0  0  0  0  0  0  0  0  0
    4.1610    1.1470   -2.5380 S   0  0  0  0  0  0  0  0  0  0  0  0
    1.4910    1.1480   -0.9680 C   0  0  0  0  0  0  0  0  0  0  0  0
    1.6400    2.0070   -1.8710 O   0  0  0  0  0  0  0  0  0  0  0  0
    1.6800   -1.2370    0.3310 H   0  0  0  0  0  0  0  0  0  0  0  0
    3.2540    1.3860    0.1390 H   0  0  0  0  0  0  0  0  0  0  0  0
    4.4760   -0.5160   -0.8460 H   0  0  0  0  0  0  0  0  0  0  0  0
    3.0460   -0.8680   -1.9360 H   0  0  0  0  0  0  0  0  0  0  0  0
    4.1060    2.4480   -1.9910 H   0  0  0  0  0  0  0  0  0  0  0  0
    0.1600    0.7740   -0.6010 N   0  0  0  0  0  0  0  0  0  0  0  0
   -1.0150    1.3340   -1.2160 C   0  0  1  0  0  0  0  0  0  0  0  0
   -1.8150    0.2590   -1.8890 C   0  0  0  0  0  0  0  0  0  0  0  0
   -2.2320   -0.7600   -0.8660 C   0  0  0  0  0  0  0  0  0  0  0  0
   -3.0530   -1.8790   -1.4710 C   0  0  0  0  0  0  0  0  0  0  0  0
   -4.3170   -1.3700   -2.1100 C   0  0  0  0  0  0  0  0  0  0  0  0
   -5.1900   -0.6910   -1.2020 N   0  0  0  0  0  0  0  0  0  0  0  0
   -1.8910    2.0110   -0.2230 C   0  0  0  0  0  0  0  0  0  0  0  0
   -1.6140    2.0730    0.9960 O   0  0  0  0  0  0  0  0  0  0  0  0
   -3.0580    2.5910   -0.6890 O   0  0  0  0  0  0  0  0  0  0  0  0
    0.1030    0.0580    0.1540 H   0  0  0  0  0  0  0  0  0  0  0  0
   -0.7620    2.0840   -1.9960 H   0  0  0  0  0  0  0  0  0  0  0  0
   -1.3110   -0.1860   -2.7570 H   0  0  0  0  0  0  0  0  0  0  0  0
   -2.7690    0.7010   -2.2930 H   0  0  0  0  0  0  0  0  0  0  0  0
   -2.7160   -0.2980   -0.0080 H   0  0  0  0  0  0  0  0  0  0  0  0
   -1.2950   -1.2570   -0.4960 H   0  0  0  0  0  0  0  0  0  0  0  0
   -2.4460   -2.3450   -2.2750 H   0  0  0  0  0  0  0  0  0  0  0  0
   -3.3250   -2.5700   -0.6640 H   0  0  0  0  0  0  0  0  0  0  0  0
   -4.8670   -2.2790   -2.4760 H   0  0  0  0  0  0  0  0  0  0  0  0
   -4.1240   -0.7430   -2.9980 H   0  0  0  0  0  0  0  0  0  0  0  0
   -5.8360   -0.0570   -1.6930 H   0  0  0  0  0  0  0  0  0  0  0  0
   -4.7220   -0.2610   -0.3930 H   0  0  0  0  0  0  0  0  0  0  0  0
  1  2  1  0  0  0  0
  1 11  1  0  0  0  0
  2  3  1  0  0  0  0
  3 13  1  0  0  0  0
  3 12  1  0  0  0  0
  4 14  1  0  0  0  0
  4  3  1  0  0  0  0
  5 16  1  1  0  0  0
  5  4  1  0  0  0  0
  6  5  1  0  0  0  0
  7  8  2  0  0  0  0
  7  5  1  0  0  0  0
  9  1  1  0  0  0  0
 10  1  1  0  0  0  0
 15  4  1  0  0  0  0
 17  6  1  0  0  0  0
 18  6  1  0  0  0  0
 19  7  1  0  0  0  0
 20 26  1  1  0  0  0
 20 19  1  0  0  0  0
 21 27  1  0  0  0  0
 21 20  1  0  0  0  0
 22 29  1  0  0  0  0
 22 21  1  0  0  0  0
 23 30  1  0  0  0  0
 23 20  1  0  0  0  0
 24 23  2  0  0  0  0
 25 19  1  0  0  0  0
 28 21  1  0  0  0  0
 30 40  1  0  0  0  0
 31 41  1  6  0  0  0
 31 30  1  0  0  0  0
 31 37  1  0  0  0  0
 32 31  1  0  0  0  0
 32 33  1  0  0  0  0
 33 45  1  0  0  0  0
 33 44  1  0  0  0  0
 34 33  1  0  0  0  0
 34 47  1  0  0  0  0
 35 34  1  0  0  0  0
 35 36  1  0  0  0  0
 36 51  1  0  0  0  0
 37 38  1  0  0  0  0
 39 37  2  0  0  0  0
 42 32  1  0  0  0  0
 43 32  1  0  0  0  0
 46 34  1  0  0  0  0
 48 35  1  0  0  0  0
 49 35  1  0  0  0  0
 50 36  1  0  0  0  0
M  END
$$$$
