MCN.pdb
 OpenBabel07022418543D

 44 43  0  0  1  0  0  0  0  0999 V2000
    3.2150   -6.1540   -3.3590 C   0  0  0  0  0  0  0  0  0  0  0  0
    3.6710   -5.3860   -1.7620 S   0  0  0  0  0  0  0  0  0  0  0  0
    2.2200   -4.4560   -1.1300 C   0  0  0  0  0  0  0  0  0  0  0  0
    1.9890   -3.3270   -2.0780 C   0  0  0  0  0  0  0  0  0  0  0  0
    0.8340   -2.4380   -1.7450 C   0  0  2  0  0  0  0  0  0  0  0  0
    0.7530   -1.4030   -2.7620 N   0  0  0  0  0  0  0  0  0  0  0  0
    0.8430   -1.8920   -0.3880 C   0  0  0  0  0  0  0  0  0  0  0  0
    0.9050   -2.6020    0.6440 O   0  0  0  0  0  0  0  0  0  0  0  0
    2.1020   -6.3320   -3.2940 H   0  0  0  0  0  0  0  0  0  0  0  0
    3.7820   -7.0740   -3.5380 H   0  0  0  0  0  0  0  0  0  0  0  0
    3.3800   -5.4190   -4.1990 H   0  0  0  0  0  0  0  0  0  0  0  0
    2.5370   -4.0680   -0.1370 H   0  0  0  0  0  0  0  0  0  0  0  0
    1.3910   -5.1740   -1.0760 H   0  0  0  0  0  0  0  0  0  0  0  0
    1.9120   -3.7600   -3.0950 H   0  0  0  0  0  0  0  0  0  0  0  0
    2.9510   -2.7340   -2.1020 H   0  0  0  0  0  0  0  0  0  0  0  0
   -0.0970   -3.0560   -1.8730 H   0  0  0  0  0  0  0  0  0  0  0  0
    1.0540   -1.8350   -3.6630 H   0  0  0  0  0  0  0  0  0  0  0  0
   -0.2480   -1.1320   -2.9030 H   0  0  0  0  0  0  0  0  0  0  0  0
    0.7770   -0.4740   -0.1650 N   0  0  0  0  0  0  0  0  0  0  0  0
    0.7830    0.0820    1.1730 C   0  0  1  0  0  0  0  0  0  0  0  0
    2.0460    0.9220    1.3690 C   0  0  0  0  0  0  0  0  0  0  0  0
    2.0550    2.2600    0.1490 S   0  0  0  0  0  0  0  0  0  0  0  0
   -0.4440    0.8950    1.3190 C   0  0  0  0  0  0  0  0  0  0  0  0
   -1.2510    0.9880    0.3630 O   0  0  0  0  0  0  0  0  0  0  0  0
    0.7250    0.1760   -0.9790 H   0  0  0  0  0  0  0  0  0  0  0  0
    0.8480   -0.7210    1.9380 H   0  0  0  0  0  0  0  0  0  0  0  0
    2.8940    0.2120    1.2050 H   0  0  0  0  0  0  0  0  0  0  0  0
    2.0620    1.2890    2.4080 H   0  0  0  0  0  0  0  0  0  0  0  0
    2.6630    3.3900    0.7190 H   0  0  0  0  0  0  0  0  0  0  0  0
   -2.9490    1.0740    6.0560 N   0  0  0  0  0  0  0  0  0  0  0  0
   -2.2040    1.7170    4.9940 C   0  0  0  0  0  0  0  0  0  0  0  0
   -1.0680    2.1910    5.2130 O   0  0  0  0  0  0  0  0  0  0  0  0
   -2.8780    1.7600    3.6840 C   0  0  0  0  0  0  0  0  0  0  0  0
   -1.9740    2.3900    2.6490 C   0  0  2  0  0  0  0  0  0  0  0  0
   -0.7870    1.6070    2.5160 N   0  0  0  0  0  0  0  0  0  0  0  0
   -1.7010    3.8110    2.9550 C   0  0  0  0  0  0  0  0  0  0  0  0
   -0.5210    4.1950    3.0660 O   0  0  0  0  0  0  0  0  0  0  0  0
   -2.7330    4.7010    3.1160 O   0  0  0  0  0  0  0  0  0  0  0  0
   -3.0250    1.5450    6.9840 H   0  0  0  0  0  0  0  0  0  0  0  0
   -3.3790    0.1520    5.8240 H   0  0  0  0  0  0  0  0  0  0  0  0
   -3.7980    2.4000    3.8420 H   0  0  0  0  0  0  0  0  0  0  0  0
   -3.1820    0.7300    3.3900 H   0  0  0  0  0  0  0  0  0  0  0  0
   -2.5810    2.4060    1.7080 H   0  0  0  0  0  0  0  0  0  0  0  0
   -0.1000    1.5130    3.2820 H   0  0  0  0  0  0  0  0  0  0  0  0
  1  9  1  0  0  0  0
  1  2  1  0  0  0  0
  2  3  1  0  0  0  0
  3 13  1  0  0  0  0
  3 12  1  0  0  0  0
  4  5  1  0  0  0  0
  4  3  1  0  0  0  0
  5 16  1  6  0  0  0
  5  7  1  0  0  0  0
  6  5  1  0  0  0  0
  7 19  1  0  0  0  0
  7  8  2  0  0  0  0
 10  1  1  0  0  0  0
 11  1  1  0  0  0  0
 14  4  1  0  0  0  0
 15  4  1  0  0  0  0
 17  6  1  0  0  0  0
 18  6  1  0  0  0  0
 19 20  1  0  0  0  0
 20 23  1  0  0  0  0
 20 21  1  0  0  0  0
 20 26  1  1  0  0  0
 21 28  1  0  0  0  0
 22 29  1  0  0  0  0
 22 21  1  0  0  0  0
 23 35  1  0  0  0  0
 24 23  2  0  0  0  0
 25 19  1  0  0  0  0
 27 21  1  0  0  0  0
 30 39  1  0  0  0  0
 31 32  2  0  0  0  0
 31 30  1  0  0  0  0
 33 41  1  0  0  0  0
 33 31  1  0  0  0  0
 34 43  1  6  0  0  0
 34 36  1  0  0  0  0
 34 33  1  0  0  0  0
 35 34  1  0  0  0  0
 35 44  1  0  0  0  0
 36 37  2  0  0  0  0
 36 38  1  0  0  0  0
 40 30  1  0  0  0  0
 42 33  1  0  0  0  0
M  END
$$$$
