MCP.pdb
 OpenBabel07022418543D

 44 44  0  0  1  0  0  0  0  0999 V2000
   -1.2040   -5.0850    1.0030 C   0  0  0  0  0  0  0  0  0  0  0  0
    0.3030   -5.7690    0.3170 S   0  0  0  0  0  0  0  0  0  0  0  0
    1.0810   -4.8240   -0.9660 C   0  0  0  0  0  0  0  0  0  0  0  0
    1.6960   -3.5450   -0.4940 C   0  0  0  0  0  0  0  0  0  0  0  0
    0.7680   -2.5500    0.1330 C   0  0  2  0  0  0  0  0  0  0  0  0
   -0.2850   -2.1140   -0.7440 N   0  0  0  0  0  0  0  0  0  0  0  0
    1.5920   -1.3830    0.6020 C   0  0  0  0  0  0  0  0  0  0  0  0
    2.5380   -1.6260    1.3690 O   0  0  0  0  0  0  0  0  0  0  0  0
   -1.9700   -5.8940    1.1860 H   0  0  0  0  0  0  0  0  0  0  0  0
   -0.9870   -4.7100    2.0340 H   0  0  0  0  0  0  0  0  0  0  0  0
   -1.6190   -4.2640    0.4210 H   0  0  0  0  0  0  0  0  0  0  0  0
    1.9090   -5.4270   -1.4190 H   0  0  0  0  0  0  0  0  0  0  0  0
    0.3380   -4.6350   -1.7970 H   0  0  0  0  0  0  0  0  0  0  0  0
    2.4800   -3.8490    0.2640 H   0  0  0  0  0  0  0  0  0  0  0  0
    2.2860   -3.0690   -1.3390 H   0  0  0  0  0  0  0  0  0  0  0  0
    0.3000   -3.0410    1.0080 H   0  0  0  0  0  0  0  0  0  0  0  0
   -1.0980   -1.8190   -0.1500 H   0  0  0  0  0  0  0  0  0  0  0  0
   -0.6130   -2.9350   -1.2920 H   0  0  0  0  0  0  0  0  0  0  0  0
    1.3230   -0.0480    0.2030 N   0  0  0  0  0  0  0  0  0  0  0  0
    2.0820    1.0800    0.6280 C   0  0  1  0  0  0  0  0  0  0  0  0
    2.8460    1.6830   -0.5760 C   0  0  0  0  0  0  0  0  0  0  0  0
    3.9590    0.4440   -1.2670 S   0  0  0  0  0  0  0  0  0  0  0  0
    1.3920    2.1380    1.3520 C   0  0  0  0  0  0  0  0  0  0  0  0
    2.0950    3.1750    1.6560 O   0  0  0  0  0  0  0  0  0  0  0  0
    0.5080    0.0640   -0.4640 H   0  0  0  0  0  0  0  0  0  0  0  0
    2.8930    0.6880    1.3070 H   0  0  0  0  0  0  0  0  0  0  0  0
    3.4480    2.5450   -0.2280 H   0  0  0  0  0  0  0  0  0  0  0  0
    2.1030    2.0160   -1.3160 H   0  0  0  0  0  0  0  0  0  0  0  0
    5.1670    0.3700   -0.5680 H   0  0  0  0  0  0  0  0  0  0  0  0
    0.0510    2.1410    1.7460 N   0  0  0  0  0  0  0  0  0  0  0  0
   -0.6010    3.2790    2.4490 C   0  0  0  0  0  0  0  0  0  0  0  0
   -1.5190    2.6580    3.4520 C   0  0  0  0  0  0  0  0  0  0  0  0
   -1.7980    1.3130    2.8760 C   0  0  0  0  0  0  0  0  0  0  0  0
   -0.9630    1.1590    1.6100 C   0  0  1  0  0  0  0  0  0  0  0  0
   -1.8700    1.4090    0.4830 C   0  0  0  0  0  0  0  0  0  0  0  0
   -1.7090    2.4040   -0.2440 O   0  0  0  0  0  0  0  0  0  0  0  0
   -2.9060    0.5360    0.2290 O   0  0  0  0  0  0  0  0  0  0  0  0
   -1.1880    3.8700    1.7060 H   0  0  0  0  0  0  0  0  0  0  0  0
    0.1730    3.8820    2.9490 H   0  0  0  0  0  0  0  0  0  0  0  0
   -2.4710    3.1880    3.5980 H   0  0  0  0  0  0  0  0  0  0  0  0
   -1.0220    2.5950    4.4530 H   0  0  0  0  0  0  0  0  0  0  0  0
   -1.4800    0.5450    3.5920 H   0  0  0  0  0  0  0  0  0  0  0  0
   -2.8610    1.1300    2.6530 H   0  0  0  0  0  0  0  0  0  0  0  0
   -0.6020    0.1060    1.5820 H   0  0  0  0  0  0  0  0  0  0  0  0
  1  9  1  0  0  0  0
  1 10  1  0  0  0  0
  2  1  1  0  0  0  0
  3  4  1  0  0  0  0
  3  2  1  0  0  0  0
  4  5  1  0  0  0  0
  4 14  1  0  0  0  0
  5  7  1  0  0  0  0
  5 16  1  1  0  0  0
  6 17  1  0  0  0  0
  6  5  1  0  0  0  0
  7  8  2  0  0  0  0
 11  1  1  0  0  0  0
 12  3  1  0  0  0  0
 13  3  1  0  0  0  0
 15  4  1  0  0  0  0
 18  6  1  0  0  0  0
 19  7  1  0  0  0  0
 19 20  1  0  0  0  0
 20 26  1  1  0  0  0
 20 23  1  0  0  0  0
 21 27  1  0  0  0  0
 21 20  1  0  0  0  0
 22 21  1  0  0  0  0
 22 29  1  0  0  0  0
 23 24  2  0  0  0  0
 23 30  1  0  0  0  0
 25 19  1  0  0  0  0
 28 21  1  0  0  0  0
 30 31  1  0  0  0  0
 31 39  1  0  0  0  0
 31 32  1  0  0  0  0
 32 40  1  0  0  0  0
 32 41  1  0  0  0  0
 33 32  1  0  0  0  0
 33 42  1  0  0  0  0
 34 44  1  6  0  0  0
 34 30  1  0  0  0  0
 34 33  1  0  0  0  0
 35 34  1  0  0  0  0
 36 35  2  0  0  0  0
 37 35  1  0  0  0  0
 38 31  1  0  0  0  0
 43 33  1  0  0  0  0
M  END
$$$$
