MCQ.pdb
 OpenBabel07022418543D

 47 46  0  0  1  0  0  0  0  0999 V2000
    4.6200   -5.5790    1.5170 C   0  0  0  0  0  0  0  0  0  0  0  0
    4.7550   -4.0720    0.5380 S   0  0  0  0  0  0  0  0  0  0  0  0
    4.8400   -2.6020    1.6120 C   0  0  0  0  0  0  0  0  0  0  0  0
    4.9520   -1.3520    0.7950 C   0  0  0  0  0  0  0  0  0  0  0  0
    3.7640   -1.2280   -0.1080 C   0  0  2  0  0  0  0  0  0  0  0  0
    3.9550    0.0120   -0.8690 N   0  0  0  0  0  0  0  0  0  0  0  0
    2.4710   -1.2100    0.5990 C   0  0  0  0  0  0  0  0  0  0  0  0
    2.0090   -2.1480    1.2850 O   0  0  0  0  0  0  0  0  0  0  0  0
    4.8170   -5.3690    2.5910 H   0  0  0  0  0  0  0  0  0  0  0  0
    5.3290   -6.3680    1.1790 H   0  0  0  0  0  0  0  0  0  0  0  0
    3.5920   -5.9610    1.4540 H   0  0  0  0  0  0  0  0  0  0  0  0
    5.7740   -2.7170    2.2110 H   0  0  0  0  0  0  0  0  0  0  0  0
    4.0130   -2.5920    2.3170 H   0  0  0  0  0  0  0  0  0  0  0  0
    5.0450   -0.5020    1.5050 H   0  0  0  0  0  0  0  0  0  0  0  0
    5.8620   -1.4400    0.1570 H   0  0  0  0  0  0  0  0  0  0  0  0
    3.8250   -2.0590   -0.8490 H   0  0  0  0  0  0  0  0  0  0  0  0
    4.8060   -0.1320   -1.4600 H   0  0  0  0  0  0  0  0  0  0  0  0
    3.1570    0.0970   -1.5610 H   0  0  0  0  0  0  0  0  0  0  0  0
    1.6520   -0.0470    0.5210 N   0  0  0  0  0  0  0  0  0  0  0  0
    0.3500    0.0550    1.1960 C   0  0  1  0  0  0  0  0  0  0  0  0
    0.5330    1.2410    2.1530 C   0  0  0  0  0  0  0  0  0  0  0  0
   -0.9460    1.5780    3.1240 S   0  0  0  0  0  0  0  0  0  0  0  0
   -0.6290    0.4800    0.1770 C   0  0  0  0  0  0  0  0  0  0  0  0
   -0.1950    0.7360   -0.9920 O   0  0  0  0  0  0  0  0  0  0  0  0
    1.9540    0.7800   -0.0250 H   0  0  0  0  0  0  0  0  0  0  0  0
    0.0860   -0.8390    1.7510 H   0  0  0  0  0  0  0  0  0  0  0  0
    1.4410    1.1040    2.7700 H   0  0  0  0  0  0  0  0  0  0  0  0
    0.7270    2.1400    1.5030 H   0  0  0  0  0  0  0  0  0  0  0  0
   -0.5820    2.3660    4.2180 H   0  0  0  0  0  0  0  0  0  0  0  0
   -6.2390   -0.4300    2.0050 N   0  0  0  0  0  0  0  0  0  0  0  0
   -5.6270    0.1300    0.8240 C   0  0  0  0  0  0  0  0  0  0  0  0
   -6.0020    1.2530    0.4970 O   0  0  0  0  0  0  0  0  0  0  0  0
   -4.6450   -0.6610    0.1360 C   0  0  0  0  0  0  0  0  0  0  0  0
   -3.8120   -0.0960   -0.9340 C   0  0  0  0  0  0  0  0  0  0  0  0
   -2.8960    1.0350   -0.6040 C   0  0  2  0  0  0  0  0  0  0  0  0
   -2.0150    0.6140    0.4380 N   0  0  0  0  0  0  0  0  0  0  0  0
   -3.5840    2.3000   -0.4170 C   0  0  0  0  0  0  0  0  0  0  0  0
   -4.2780    2.7070   -1.4150 O   0  0  0  0  0  0  0  0  0  0  0  0
   -3.5680    3.0990    0.7030 O   0  0  0  0  0  0  0  0  0  0  0  0
   -6.6320    0.1780    2.7560 H   0  0  0  0  0  0  0  0  0  0  0  0
   -6.3070   -1.4590    2.1460 H   0  0  0  0  0  0  0  0  0  0  0  0
   -3.9480   -1.2010    0.8510 H   0  0  0  0  0  0  0  0  0  0  0  0
   -5.1890   -1.5550   -0.3420 H   0  0  0  0  0  0  0  0  0  0  0  0
   -4.4430    0.1420   -1.8490 H   0  0  0  0  0  0  0  0  0  0  0  0
   -3.1490   -0.9280   -1.3300 H   0  0  0  0  0  0  0  0  0  0  0  0
   -2.2320    1.1940   -1.5350 H   0  0  0  0  0  0  0  0  0  0  0  0
   -2.3260    0.3830    1.4130 H   0  0  0  0  0  0  0  0  0  0  0  0
  1  9  1  0  0  0  0
  2  1  1  0  0  0  0
  2  3  1  0  0  0  0
  3 12  1  0  0  0  0
  3 13  1  0  0  0  0
  4 14  1  0  0  0  0
  4  3  1  0  0  0  0
  5 16  1  6  0  0  0
  5  7  1  0  0  0  0
  5  4  1  0  0  0  0
  6  5  1  0  0  0  0
  7  8  2  0  0  0  0
 10  1  1  0  0  0  0
 11  1  1  0  0  0  0
 15  4  1  0  0  0  0
 17  6  1  0  0  0  0
 18  6  1  0  0  0  0
 19  7  1  0  0  0  0
 19 20  1  0  0  0  0
 20 26  1  1  0  0  0
 20 21  1  0  0  0  0
 21 27  1  0  0  0  0
 21 22  1  0  0  0  0
 22 29  1  0  0  0  0
 23 36  1  0  0  0  0
 23 20  1  0  0  0  0
 24 23  2  0  0  0  0
 25 19  1  0  0  0  0
 28 21  1  0  0  0  0
 30 41  1  0  0  0  0
 30 40  1  0  0  0  0
 31 30  1  0  0  0  0
 32 31  2  0  0  0  0
 33 31  1  0  0  0  0
 33 42  1  0  0  0  0
 34 35  1  0  0  0  0
 34 33  1  0  0  0  0
 35 46  1  6  0  0  0
 35 37  1  0  0  0  0
 35 36  1  0  0  0  0
 36 47  1  0  0  0  0
 37 39  1  0  0  0  0
 38 37  2  0  0  0  0
 43 33  1  0  0  0  0
 44 34  1  0  0  0  0
 45 34  1  0  0  0  0
M  END
$$$$
