MCR.pdb
 OpenBabel07022418543D

 53 52  0  0  1  0  0  0  0  0999 V2000
    1.4900   -5.4860    2.3730 C   0  0  0  0  0  0  0  0  0  0  0  0
    3.0060   -5.3380    1.4510 S   0  0  0  0  0  0  0  0  0  0  0  0
    3.4250   -3.7300    0.8400 C   0  0  0  0  0  0  0  0  0  0  0  0
    3.9130   -2.7600    1.8230 C   0  0  0  0  0  0  0  0  0  0  0  0
    3.0890   -2.3350    2.9630 C   0  0  2  0  0  0  0  0  0  0  0  0
    2.7410   -3.4130    3.8400 N   0  0  0  0  0  0  0  0  0  0  0  0
    1.8480   -1.6050    2.5650 C   0  0  0  0  0  0  0  0  0  0  0  0
    0.7380   -1.9680    3.0250 O   0  0  0  0  0  0  0  0  0  0  0  0
    0.9270   -6.3750    1.9190 H   0  0  0  0  0  0  0  0  0  0  0  0
    1.6790   -5.8480    3.4170 H   0  0  0  0  0  0  0  0  0  0  0  0
    0.8440   -4.5960    2.3200 H   0  0  0  0  0  0  0  0  0  0  0  0
    4.2300   -3.8370    0.0420 H   0  0  0  0  0  0  0  0  0  0  0  0
    2.5610   -3.2940    0.2250 H   0  0  0  0  0  0  0  0  0  0  0  0
    4.8800   -3.1740    2.2520 H   0  0  0  0  0  0  0  0  0  0  0  0
    4.2040   -1.8050    1.2660 H   0  0  0  0  0  0  0  0  0  0  0  0
    3.7310   -1.6390    3.5920 H   0  0  0  0  0  0  0  0  0  0  0  0
    2.3680   -3.0500    4.7340 H   0  0  0  0  0  0  0  0  0  0  0  0
    3.5560   -4.0310    4.0370 H   0  0  0  0  0  0  0  0  0  0  0  0
    1.9660   -0.5010    1.6590 N   0  0  0  0  0  0  0  0  0  0  0  0
    0.7680    0.2210    1.2630 C   0  0  1  0  0  0  0  0  0  0  0  0
    0.8250    1.6620    1.7250 C   0  0  0  0  0  0  0  0  0  0  0  0
    2.2460    2.5350    1.0220 S   0  0  0  0  0  0  0  0  0  0  0  0
    0.5330    0.1170   -0.1930 C   0  0  0  0  0  0  0  0  0  0  0  0
    1.3110   -0.5330   -0.9050 O   0  0  0  0  0  0  0  0  0  0  0  0
    2.9110   -0.2430    1.3080 H   0  0  0  0  0  0  0  0  0  0  0  0
   -0.1230   -0.2280    1.7580 H   0  0  0  0  0  0  0  0  0  0  0  0
    0.9670    1.6420    2.8260 H   0  0  0  0  0  0  0  0  0  0  0  0
   -0.1330    2.1230    1.4980 H   0  0  0  0  0  0  0  0  0  0  0  0
    2.0480    3.9180    1.2960 H   0  0  0  0  0  0  0  0  0  0  0  0
   -3.7890    1.7680    1.9700 N   0  0  0  0  0  0  0  0  0  0  0  0
   -4.1850    0.7060    1.0860 C   0  0  0  0  0  0  0  0  0  0  0  0
   -4.9270   -0.2380    1.5010 N   0  0  0  0  0  0  0  0  0  0  0  0
   -3.7340    0.7240   -0.2680 N   0  0  0  0  0  0  0  0  0  0  0  0
   -3.8570   -0.4000   -1.1450 C   0  0  0  0  0  0  0  0  0  0  0  0
   -3.2400   -0.3160   -2.4700 C   0  0  0  0  0  0  0  0  0  0  0  0
   -1.8160   -0.2770   -2.7090 C   0  0  0  0  0  0  0  0  0  0  0  0
   -0.8420    0.6820   -2.2090 C   0  0  2  0  0  0  0  0  0  0  0  0
   -0.6130    0.7770   -0.8140 N   0  0  0  0  0  0  0  0  0  0  0  0
   -0.9510    2.0420   -2.8010 C   0  0  0  0  0  0  0  0  0  0  0  0
   -0.8310    3.0260   -2.0390 O   0  0  0  0  0  0  0  0  0  0  0  0
   -1.1780    2.2900   -4.1430 O   0  0  0  0  0  0  0  0  0  0  0  0
   -3.6220    1.5300    2.9660 H   0  0  0  0  0  0  0  0  0  0  0  0
   -3.6680    2.7360    1.6540 H   0  0  0  0  0  0  0  0  0  0  0  0
   -5.2080   -1.0010    0.8570 H   0  0  0  0  0  0  0  0  0  0  0  0
   -3.3280    1.6440   -0.5850 H   0  0  0  0  0  0  0  0  0  0  0  0
   -3.4930   -1.3540   -0.6340 H   0  0  0  0  0  0  0  0  0  0  0  0
   -4.9770   -0.6050   -1.2010 H   0  0  0  0  0  0  0  0  0  0  0  0
   -3.8100    0.4940   -3.0490 H   0  0  0  0  0  0  0  0  0  0  0  0
   -3.6300   -1.2510   -3.0370 H   0  0  0  0  0  0  0  0  0  0  0  0
   -1.6140   -0.4370   -3.8510 H   0  0  0  0  0  0  0  0  0  0  0  0
   -1.4170   -1.3180   -2.3460 H   0  0  0  0  0  0  0  0  0  0  0  0
    0.1710    0.3120   -2.6540 H   0  0  0  0  0  0  0  0  0  0  0  0
   -1.1590    1.3060   -0.1150 H   0  0  0  0  0  0  0  0  0  0  0  0
  1 10  1  0  0  0  0
  2  1  1  0  0  0  0
  3  2  1  0  0  0  0
  3  4  1  0  0  0  0
  4 14  1  0  0  0  0
  4  5  1  0  0  0  0
  5 16  1  1  0  0  0
  5  6  1  0  0  0  0
  6 18  1  0  0  0  0
  6 17  1  0  0  0  0
  7  5  1  0  0  0  0
  7  8  2  0  0  0  0
  9  1  1  0  0  0  0
 11  1  1  0  0  0  0
 12  3  1  0  0  0  0
 13  3  1  0  0  0  0
 15  4  1  0  0  0  0
 19  7  1  0  0  0  0
 20 19  1  0  0  0  0
 20 21  1  0  0  0  0
 20 26  1  1  0  0  0
 21 27  1  0  0  0  0
 22 29  1  0  0  0  0
 22 21  1  0  0  0  0
 23 20  1  0  0  0  0
 24 23  2  0  0  0  0
 25 19  1  0  0  0  0
 28 21  1  0  0  0  0
 30 42  1  0  0  0  0
 31 32  2  0  0  0  0
 31 30  1  0  0  0  0
 33 31  1  0  0  0  0
 34 46  1  0  0  0  0
 34 33  1  0  0  0  0
 35 34  1  0  0  0  0
 36 35  1  0  0  0  0
 36 51  1  0  0  0  0
 36 37  1  0  0  0  0
 37 52  1  6  0  0  0
 37 38  1  0  0  0  0
 38 23  1  0  0  0  0
 38 53  1  0  0  0  0
 39 37  1  0  0  0  0
 39 40  1  0  0  0  0
 41 39  2  0  0  0  0
 43 30  1  0  0  0  0
 44 32  1  0  0  0  0
 45 33  1  0  0  0  0
 47 34  1  0  0  0  0
 48 35  1  0  0  0  0
 49 35  1  0  0  0  0
 50 36  1  0  0  0  0
M  END
$$$$
