MCS.pdb
 OpenBabel07022418543D

 41 40  0  0  1  0  0  0  0  0999 V2000
   -0.7570   -6.0790    1.7240 C   0  0  0  0  0  0  0  0  0  0  0  0
    0.7820   -6.6030    0.9810 S   0  0  0  0  0  0  0  0  0  0  0  0
    1.2400   -5.6950   -0.4980 C   0  0  0  0  0  0  0  0  0  0  0  0
    1.6370   -4.2700   -0.2650 C   0  0  0  0  0  0  0  0  0  0  0  0
    0.6070   -3.3840    0.3220 C   0  0  2  0  0  0  0  0  0  0  0  0
   -0.5850   -3.2370   -0.4550 N   0  0  0  0  0  0  0  0  0  0  0  0
    1.2430   -2.0240    0.5450 C   0  0  0  0  0  0  0  0  0  0  0  0
    2.3080   -1.9340    1.1980 O   0  0  0  0  0  0  0  0  0  0  0  0
   -0.6330   -5.4620    2.6560 H   0  0  0  0  0  0  0  0  0  0  0  0
   -1.3190   -5.4590    1.0090 H   0  0  0  0  0  0  0  0  0  0  0  0
   -1.4370   -6.9460    1.9470 H   0  0  0  0  0  0  0  0  0  0  0  0
    0.3450   -5.6750   -1.1960 H   0  0  0  0  0  0  0  0  0  0  0  0
    2.0320   -6.2530   -1.0700 H   0  0  0  0  0  0  0  0  0  0  0  0
    1.9260   -3.8270   -1.2620 H   0  0  0  0  0  0  0  0  0  0  0  0
    2.5750   -4.2870    0.3570 H   0  0  0  0  0  0  0  0  0  0  0  0
    0.3290   -3.7720    1.3380 H   0  0  0  0  0  0  0  0  0  0  0  0
   -1.4720   -3.2690    0.0630 H   0  0  0  0  0  0  0  0  0  0  0  0
   -0.6340   -3.9110   -1.2420 H   0  0  0  0  0  0  0  0  0  0  0  0
    0.6610   -0.8430    0.0310 N   0  0  0  0  0  0  0  0  0  0  0  0
    1.2340    0.4740    0.2230 C   0  0  1  0  0  0  0  0  0  0  0  0
    1.5560    0.9860   -1.1700 C   0  0  0  0  0  0  0  0  0  0  0  0
    2.2900    2.6170   -1.1980 S   0  0  0  0  0  0  0  0  0  0  0  0
    0.2520    1.3280    0.9390 C   0  0  0  0  0  0  0  0  0  0  0  0
   -0.8790    0.8290    1.2070 O   0  0  0  0  0  0  0  0  0  0  0  0
   -0.2180   -0.9160   -0.5090 H   0  0  0  0  0  0  0  0  0  0  0  0
    2.1640    0.3360    0.8000 H   0  0  0  0  0  0  0  0  0  0  0  0
    0.6950    0.8720   -1.8370 H   0  0  0  0  0  0  0  0  0  0  0  0
    2.3390    0.2700   -1.5590 H   0  0  0  0  0  0  0  0  0  0  0  0
    3.6400    2.6140   -0.8230 H   0  0  0  0  0  0  0  0  0  0  0  0
    0.2820    2.7270    4.1220 O   0  0  0  0  0  0  0  0  0  0  0  0
   -0.0610    3.8620    3.3910 C   0  0  0  0  0  0  0  0  0  0  0  0
   -0.5210    3.3930    2.0260 C   0  0  2  0  0  0  0  0  0  0  0  0
    0.5190    2.6650    1.3340 N   0  0  0  0  0  0  0  0  0  0  0  0
   -0.8880    4.5460    1.1520 C   0  0  0  0  0  0  0  0  0  0  0  0
   -1.7790    5.3470    1.5310 O   0  0  0  0  0  0  0  0  0  0  0  0
   -0.2990    4.7980   -0.0780 O   0  0  0  0  0  0  0  0  0  0  0  0
   -0.4790    2.4610    4.6850 H   0  0  0  0  0  0  0  0  0  0  0  0
   -0.8760    4.3710    3.9310 H   0  0  0  0  0  0  0  0  0  0  0  0
    0.8130    4.5440    3.3040 H   0  0  0  0  0  0  0  0  0  0  0  0
   -1.4020    2.7370    2.1180 H   0  0  0  0  0  0  0  0  0  0  0  0
    1.4530    3.0940    1.1240 H   0  0  0  0  0  0  0  0  0  0  0  0
  1 11  1  0  0  0  0
  1  9  1  0  0  0  0
  2  1  1  0  0  0  0
  3  4  1  0  0  0  0
  3  2  1  0  0  0  0
  4  5  1  0  0  0  0
  4 15  1  0  0  0  0
  5  7  1  0  0  0  0
  5 16  1  1  0  0  0
  6 17  1  0  0  0  0
  6  5  1  0  0  0  0
  7  8  2  0  0  0  0
 10  1  1  0  0  0  0
 12  3  1  0  0  0  0
 13  3  1  0  0  0  0
 14  4  1  0  0  0  0
 18  6  1  0  0  0  0
 19 20  1  0  0  0  0
 19  7  1  0  0  0  0
 20 26  1  1  0  0  0
 20 23  1  0  0  0  0
 21 20  1  0  0  0  0
 22 21  1  0  0  0  0
 22 29  1  0  0  0  0
 23 24  2  0  0  0  0
 23 33  1  0  0  0  0
 25 19  1  0  0  0  0
 27 21  1  0  0  0  0
 28 21  1  0  0  0  0
 30 37  1  0  0  0  0
 31 38  1  0  0  0  0
 31 30  1  0  0  0  0
 32 40  1  1  0  0  0
 32 31  1  0  0  0  0
 33 32  1  0  0  0  0
 34 35  1  0  0  0  0
 34 32  1  0  0  0  0
 36 34  2  0  0  0  0
 39 31  1  0  0  0  0
 41 33  1  0  0  0  0
M  END
$$$$
