MCT.pdb
 OpenBabel07022418543D

 44 43  0  0  1  0  0  0  0  0999 V2000
   -1.4700   -6.1900   -0.9280 C   0  0  0  0  0  0  0  0  0  0  0  0
   -1.8230   -4.7230   -1.9110 S   0  0  0  0  0  0  0  0  0  0  0  0
   -0.3110   -4.0010   -2.6050 C   0  0  0  0  0  0  0  0  0  0  0  0
    0.5900   -3.4520   -1.5100 C   0  0  0  0  0  0  0  0  0  0  0  0
   -0.1000   -2.3770   -0.7120 C   0  0  2  0  0  0  0  0  0  0  0  0
   -0.4710   -1.2910   -1.5690 N   0  0  0  0  0  0  0  0  0  0  0  0
    0.8610   -1.9430    0.3460 C   0  0  0  0  0  0  0  0  0  0  0  0
    1.2930   -2.7660    1.1970 O   0  0  0  0  0  0  0  0  0  0  0  0
   -1.3510   -5.9720    0.1560 H   0  0  0  0  0  0  0  0  0  0  0  0
   -0.5840   -6.7490   -1.2970 H   0  0  0  0  0  0  0  0  0  0  0  0
   -2.3580   -6.8730   -1.0030 H   0  0  0  0  0  0  0  0  0  0  0  0
   -0.5570   -3.2120   -3.3310 H   0  0  0  0  0  0  0  0  0  0  0  0
    0.2240   -4.8040   -3.1510 H   0  0  0  0  0  0  0  0  0  0  0  0
    1.4460   -2.9650   -2.0310 H   0  0  0  0  0  0  0  0  0  0  0  0
    0.9950   -4.2610   -0.8840 H   0  0  0  0  0  0  0  0  0  0  0  0
   -1.0220   -2.8060   -0.2760 H   0  0  0  0  0  0  0  0  0  0  0  0
   -1.1980   -0.6640   -1.1740 H   0  0  0  0  0  0  0  0  0  0  0  0
    0.3420   -0.7610   -1.9460 H   0  0  0  0  0  0  0  0  0  0  0  0
    1.3440   -0.6120    0.4650 N   0  0  0  0  0  0  0  0  0  0  0  0
    2.2750   -0.2150    1.4980 C   0  0  1  0  0  0  0  0  0  0  0  0
    3.5930    0.2290    0.8890 C   0  0  0  0  0  0  0  0  0  0  0  0
    4.7770    0.7310    2.1380 S   0  0  0  0  0  0  0  0  0  0  0  0
    1.7050    0.8390    2.3790 C   0  0  0  0  0  0  0  0  0  0  0  0
    2.3710    1.2960    3.3190 O   0  0  0  0  0  0  0  0  0  0  0  0
    1.0100    0.0930   -0.2190 H   0  0  0  0  0  0  0  0  0  0  0  0
    2.5070   -1.1090    2.1330 H   0  0  0  0  0  0  0  0  0  0  0  0
    3.4560    1.0510    0.1640 H   0  0  0  0  0  0  0  0  0  0  0  0
    4.0120   -0.6610    0.3570 H   0  0  0  0  0  0  0  0  0  0  0  0
    6.0630    0.2430    1.9080 H   0  0  0  0  0  0  0  0  0  0  0  0
   -1.6700    3.3260    1.2690 C   0  0  0  0  0  0  0  0  0  0  0  0
   -0.5670    3.6270    2.2750 C   0  0  1  0  0  0  0  0  0  0  0  0
   -1.1570    4.4870    3.2230 O   0  0  0  0  0  0  0  0  0  0  0  0
   -0.2090    2.3670    2.9890 C   0  0  2  0  0  0  0  0  0  0  0  0
    0.4050    1.3630    2.1940 N   0  0  0  0  0  0  0  0  0  0  0  0
   -1.3850    1.8380    3.7090 C   0  0  0  0  0  0  0  0  0  0  0  0
   -2.0680    2.5590    4.4640 O   0  0  0  0  0  0  0  0  0  0  0  0
   -1.7410    0.5150    3.5450 O   0  0  0  0  0  0  0  0  0  0  0  0
   -1.4210    2.4620    0.6310 H   0  0  0  0  0  0  0  0  0  0  0  0
   -1.8940    4.2280    0.6460 H   0  0  0  0  0  0  0  0  0  0  0  0
   -2.6180    3.0850    1.7930 H   0  0  0  0  0  0  0  0  0  0  0  0
    0.2660    4.1690    1.8410 H   0  0  0  0  0  0  0  0  0  0  0  0
   -0.4270    4.7350    3.8530 H   0  0  0  0  0  0  0  0  0  0  0  0
    0.5400    2.6540    3.7870 H   0  0  0  0  0  0  0  0  0  0  0  0
   -0.1510    0.9620    1.3860 H   0  0  0  0  0  0  0  0  0  0  0  0
  1  9  1  0  0  0  0
  2  1  1  0  0  0  0
  3  2  1  0  0  0  0
  3  4  1  0  0  0  0
  4 15  1  0  0  0  0
  4  5  1  0  0  0  0
  5 16  1  1  0  0  0
  5  7  1  0  0  0  0
  6 17  1  0  0  0  0
  6  5  1  0  0  0  0
  7 19  1  0  0  0  0
  7  8  2  0  0  0  0
 10  1  1  0  0  0  0
 11  1  1  0  0  0  0
 12  3  1  0  0  0  0
 13  3  1  0  0  0  0
 14  4  1  0  0  0  0
 18  6  1  0  0  0  0
 19 20  1  0  0  0  0
 20 26  1  1  0  0  0
 20 23  1  0  0  0  0
 21 20  1  0  0  0  0
 21 22  1  0  0  0  0
 23 24  2  0  0  0  0
 25 19  1  0  0  0  0
 27 21  1  0  0  0  0
 28 21  1  0  0  0  0
 29 22  1  0  0  0  0
 30 40  1  0  0  0  0
 30 31  1  0  0  0  0
 31 41  1  6  0  0  0
 31 33  1  0  0  0  0
 31 32  1  0  0  0  0
 32 42  1  0  0  0  0
 33 35  1  0  0  0  0
 33 43  1  1  0  0  0
 34 23  1  0  0  0  0
 34 33  1  0  0  0  0
 35 36  1  0  0  0  0
 37 35  2  0  0  0  0
 38 30  1  0  0  0  0
 39 30  1  0  0  0  0
 44 34  1  0  0  0  0
M  END
$$$$
