MCV.pdb
 OpenBabel07022418553D

 46 45  0  0  1  0  0  0  0  0999 V2000
   -0.4100   -5.9530   -2.3650 C   0  0  0  0  0  0  0  0  0  0  0  0
   -0.8560   -4.3670   -3.0750 S   0  0  0  0  0  0  0  0  0  0  0  0
    0.5910   -3.3320   -3.4110 C   0  0  0  0  0  0  0  0  0  0  0  0
    1.2960   -2.9130   -2.1590 C   0  0  0  0  0  0  0  0  0  0  0  0
    0.4110   -2.1190   -1.2410 C   0  0  2  0  0  0  0  0  0  0  0  0
   -0.0460   -0.9330   -1.8890 N   0  0  0  0  0  0  0  0  0  0  0  0
    1.0570   -1.9130    0.0530 C   0  0  0  0  0  0  0  0  0  0  0  0
    1.4830   -2.9280    0.6820 O   0  0  0  0  0  0  0  0  0  0  0  0
   -1.0350   -6.7910   -2.7720 H   0  0  0  0  0  0  0  0  0  0  0  0
    0.6370   -6.2430   -2.5530 H   0  0  0  0  0  0  0  0  0  0  0  0
   -0.6600   -5.9240   -1.2740 H   0  0  0  0  0  0  0  0  0  0  0  0
    0.3010   -2.4570   -3.9930 H   0  0  0  0  0  0  0  0  0  0  0  0
    1.3180   -3.9170   -4.0310 H   0  0  0  0  0  0  0  0  0  0  0  0
    2.2190   -2.3870   -2.4330 H   0  0  0  0  0  0  0  0  0  0  0  0
    1.5860   -3.8360   -1.6100 H   0  0  0  0  0  0  0  0  0  0  0  0
   -0.4910   -2.7730   -1.0480 H   0  0  0  0  0  0  0  0  0  0  0  0
   -0.4470   -0.2130   -1.2560 H   0  0  0  0  0  0  0  0  0  0  0  0
   -0.8580   -1.2180   -2.5170 H   0  0  0  0  0  0  0  0  0  0  0  0
    1.2590   -0.6600    0.6910 N   0  0  0  0  0  0  0  0  0  0  0  0
    1.9030   -0.5140    1.9700 C   0  0  1  0  0  0  0  0  0  0  0  0
    3.1620    0.3260    1.7600 C   0  0  0  0  0  0  0  0  0  0  0  0
    4.0640    0.5810    3.3040 S   0  0  0  0  0  0  0  0  0  0  0  0
    1.0320    0.1730    2.9570 C   0  0  0  0  0  0  0  0  0  0  0  0
    1.4340    0.3890    4.1180 O   0  0  0  0  0  0  0  0  0  0  0  0
    0.9240    0.1800    0.2010 H   0  0  0  0  0  0  0  0  0  0  0  0
    2.2140   -1.5230    2.3420 H   0  0  0  0  0  0  0  0  0  0  0  0
    2.9020    1.3190    1.3500 H   0  0  0  0  0  0  0  0  0  0  0  0
    3.8420   -0.1490    1.0400 H   0  0  0  0  0  0  0  0  0  0  0  0
    4.7850    1.7880    3.2720 H   0  0  0  0  0  0  0  0  0  0  0  0
   -2.1970    2.6340    1.6520 C   0  0  0  0  0  0  0  0  0  0  0  0
   -1.5390    2.6540    3.0170 C   0  0  0  0  0  0  0  0  0  0  0  0
   -0.3340    3.5610    2.9580 C   0  0  0  0  0  0  0  0  0  0  0  0
   -1.1830    1.2580    3.4670 C   0  0  2  0  0  0  0  0  0  0  0  0
   -0.2750    0.5900    2.5830 N   0  0  0  0  0  0  0  0  0  0  0  0
   -2.4010    0.4550    3.7510 C   0  0  0  0  0  0  0  0  0  0  0  0
   -2.5840   -0.6950    3.2490 O   0  0  0  0  0  0  0  0  0  0  0  0
   -3.4080    0.9200    4.5840 O   0  0  0  0  0  0  0  0  0  0  0  0
   -1.4660    2.8940    0.8440 H   0  0  0  0  0  0  0  0  0  0  0  0
   -2.9970    3.4110    1.5910 H   0  0  0  0  0  0  0  0  0  0  0  0
   -2.6770    1.6560    1.4780 H   0  0  0  0  0  0  0  0  0  0  0  0
   -2.2680    3.1270    3.7060 H   0  0  0  0  0  0  0  0  0  0  0  0
    0.1790    3.6560    3.9240 H   0  0  0  0  0  0  0  0  0  0  0  0
    0.3480    3.1910    2.1400 H   0  0  0  0  0  0  0  0  0  0  0  0
   -0.6280    4.5830    2.6420 H   0  0  0  0  0  0  0  0  0  0  0  0
   -0.6600    1.3690    4.4510 H   0  0  0  0  0  0  0  0  0  0  0  0
   -0.5450    0.3740    1.5920 H   0  0  0  0  0  0  0  0  0  0  0  0
  1 11  1  0  0  0  0
  2  1  1  0  0  0  0
  3  2  1  0  0  0  0
  3  4  1  0  0  0  0
  4 15  1  0  0  0  0
  4  5  1  0  0  0  0
  5 16  1  1  0  0  0
  5  7  1  0  0  0  0
  6 17  1  0  0  0  0
  6  5  1  0  0  0  0
  7  8  2  0  0  0  0
  7 19  1  0  0  0  0
  9  1  1  0  0  0  0
 10  1  1  0  0  0  0
 12  3  1  0  0  0  0
 13  3  1  0  0  0  0
 14  4  1  0  0  0  0
 18  6  1  0  0  0  0
 19 20  1  0  0  0  0
 20 26  1  1  0  0  0
 20 23  1  0  0  0  0
 21 20  1  0  0  0  0
 21 22  1  0  0  0  0
 23 24  2  0  0  0  0
 25 19  1  0  0  0  0
 27 21  1  0  0  0  0
 28 21  1  0  0  0  0
 29 22  1  0  0  0  0
 30 31  1  0  0  0  0
 31 33  1  0  0  0  0
 31 41  1  0  0  0  0
 32 31  1  0  0  0  0
 32 42  1  0  0  0  0
 33 35  1  0  0  0  0
 33 45  1  1  0  0  0
 34 23  1  0  0  0  0
 34 33  1  0  0  0  0
 35 37  1  0  0  0  0
 36 35  2  0  0  0  0
 38 30  1  0  0  0  0
 39 30  1  0  0  0  0
 40 30  1  0  0  0  0
 43 32  1  0  0  0  0
 44 32  1  0  0  0  0
 46 34  1  0  0  0  0
M  END
$$$$
