MCW.pdb
 OpenBabel07022418553D

 54 55  0  0  1  0  0  0  0  0999 V2000
    0.4550   -4.1060    3.4350 C   0  0  0  0  0  0  0  0  0  0  0  0
    2.0610   -3.5020    2.8390 S   0  0  0  0  0  0  0  0  0  0  0  0
    1.7690   -2.8800    1.1440 C   0  0  0  0  0  0  0  0  0  0  0  0
    3.0290   -2.3630    0.5450 C   0  0  0  0  0  0  0  0  0  0  0  0
    3.7060   -1.2540    1.2330 C   0  0  2  0  0  0  0  0  0  0  0  0
    4.0770   -1.5780    2.5960 N   0  0  0  0  0  0  0  0  0  0  0  0
    3.1550    0.0940    1.1540 C   0  0  0  0  0  0  0  0  0  0  0  0
    3.2800    0.8200    2.2100 O   0  0  0  0  0  0  0  0  0  0  0  0
    0.2730   -3.6340    4.4290 H   0  0  0  0  0  0  0  0  0  0  0  0
   -0.3820   -3.8530    2.7390 H   0  0  0  0  0  0  0  0  0  0  0  0
    0.4930   -5.2210    3.5570 H   0  0  0  0  0  0  0  0  0  0  0  0
    1.4800   -3.8000    0.5430 H   0  0  0  0  0  0  0  0  0  0  0  0
    0.9260   -2.1870    1.1520 H   0  0  0  0  0  0  0  0  0  0  0  0
    2.9320   -2.1620   -0.5500 H   0  0  0  0  0  0  0  0  0  0  0  0
    3.7550   -3.2450    0.5700 H   0  0  0  0  0  0  0  0  0  0  0  0
    4.7430   -1.1630    0.7180 H   0  0  0  0  0  0  0  0  0  0  0  0
    3.2860   -1.3050    3.2530 H   0  0  0  0  0  0  0  0  0  0  0  0
    4.8960   -0.9840    2.8600 H   0  0  0  0  0  0  0  0  0  0  0  0
    2.5060    0.6810    0.0360 N   0  0  0  0  0  0  0  0  0  0  0  0
    2.0420    2.0370    0.0890 C   0  0  1  0  0  0  0  0  0  0  0  0
    2.4050    2.9030   -1.0590 C   0  0  0  0  0  0  0  0  0  0  0  0
    1.6910    4.5540   -0.7530 S   0  0  0  0  0  0  0  0  0  0  0  0
    0.6190    2.0730    0.4860 C   0  0  0  0  0  0  0  0  0  0  0  0
    0.0020    3.1660    0.4190 O   0  0  0  0  0  0  0  0  0  0  0  0
    2.3880    0.0740   -0.8220 H   0  0  0  0  0  0  0  0  0  0  0  0
    2.5820    2.4980    1.0000 H   0  0  0  0  0  0  0  0  0  0  0  0
    2.1990    2.5420   -2.0570 H   0  0  0  0  0  0  0  0  0  0  0  0
    3.5240    3.0480   -1.0010 H   0  0  0  0  0  0  0  0  0  0  0  0
    1.6400    4.8410    0.6030 H   0  0  0  0  0  0  0  0  0  0  0  0
   -0.0040    0.8990    0.9310 N   0  0  0  0  0  0  0  0  0  0  0  0
   -1.3860    0.8110    1.3560 C   0  0  1  0  0  0  0  0  0  0  0  0
   -2.0770   -0.4410    0.9550 C   0  0  0  0  0  0  0  0  0  0  0  0
   -2.2040   -0.7160   -0.4720 C   0  0  0  0  0  0  0  0  0  0  0  0
   -1.3640   -0.3390   -1.4960 C   0  0  0  0  0  0  0  0  0  0  0  0
   -1.9310   -0.8120   -2.6210 N   0  0  0  0  0  0  0  0  0  0  0  0
   -3.0820   -1.4650   -2.3490 C   0  0  0  0  0  0  0  0  0  0  0  0
   -4.0160   -2.1260   -3.1410 C   0  0  0  0  0  0  0  0  0  0  0  0
   -5.1120   -2.7200   -2.5640 C   0  0  0  0  0  0  0  0  0  0  0  0
   -5.2950   -2.6660   -1.2130 C   0  0  0  0  0  0  0  0  0  0  0  0
   -4.3960   -2.0230   -0.4040 C   0  0  0  0  0  0  0  0  0  0  0  0
   -3.2990   -1.4300   -0.9830 C   0  0  0  0  0  0  0  0  0  0  0  0
   -1.4250    0.8180    2.8760 C   0  0  0  0  0  0  0  0  0  0  0  0
   -0.3530    0.9150    3.5060 O   0  0  0  0  0  0  0  0  0  0  0  0
   -2.6120    0.7210    3.5790 O   0  0  0  0  0  0  0  0  0  0  0  0
    0.5870    0.0430    0.9440 H   0  0  0  0  0  0  0  0  0  0  0  0
   -1.8840    1.7560    1.0220 H   0  0  0  0  0  0  0  0  0  0  0  0
   -3.1120   -0.3790    1.4140 H   0  0  0  0  0  0  0  0  0  0  0  0
   -1.6040   -1.2990    1.4830 H   0  0  0  0  0  0  0  0  0  0  0  0
   -0.4390    0.2180   -1.4530 H   0  0  0  0  0  0  0  0  0  0  0  0
   -1.5130   -0.6820   -3.5920 H   0  0  0  0  0  0  0  0  0  0  0  0
   -3.8790   -2.1770   -4.2330 H   0  0  0  0  0  0  0  0  0  0  0  0
   -5.8310   -3.2340   -3.2140 H   0  0  0  0  0  0  0  0  0  0  0  0
   -6.1890   -3.1570   -0.7950 H   0  0  0  0  0  0  0  0  0  0  0  0
   -4.5640   -1.9950    0.6480 H   0  0  0  0  0  0  0  0  0  0  0  0
  1 11  1  0  0  0  0
  1  9  1  0  0  0  0
  2  1  1  0  0  0  0
  3 13  1  0  0  0  0
  3  2  1  0  0  0  0
  4 15  1  0  0  0  0
  4  3  1  0  0  0  0
  4  5  1  0  0  0  0
  5 16  1  6  0  0  0
  5  6  1  0  0  0  0
  6 18  1  0  0  0  0
  6 17  1  0  0  0  0
  7  5  1  0  0  0  0
  7  8  2  0  0  0  0
 10  1  1  0  0  0  0
 12  3  1  0  0  0  0
 14  4  1  0  0  0  0
 19 20  1  0  0  0  0
 19  7  1  0  0  0  0
 20 23  1  0  0  0  0
 20 26  1  1  0  0  0
 21 28  1  0  0  0  0
 21 22  1  0  0  0  0
 21 20  1  0  0  0  0
 22 29  1  0  0  0  0
 23 30  1  0  0  0  0
 24 23  2  0  0  0  0
 25 19  1  0  0  0  0
 27 21  1  0  0  0  0
 30 45  1  0  0  0  0
 30 31  1  0  0  0  0
 31 46  1  6  0  0  0
 31 42  1  0  0  0  0
 32 31  1  0  0  0  0
 32 47  1  0  0  0  0
 32 48  1  0  0  0  0
 33 32  1  0  0  0  0
 34 49  1  0  0  0  0
 34 33  2  0  0  0  0
 35 36  1  0  0  0  0
 35 34  1  0  0  0  0
 36 41  1  0  0  0  0
 37 38  1  0  0  0  0
 37 36  2  0  0  0  0
 38 39  2  0  0  0  0
 39 53  1  0  0  0  0
 39 40  1  0  0  0  0
 40 54  1  0  0  0  0
 41 33  1  0  0  0  0
 41 40  2  0  0  0  0
 42 43  2  0  0  0  0
 42 44  1  0  0  0  0
 50 35  1  0  0  0  0
 51 37  1  0  0  0  0
 52 38  1  0  0  0  0
M  END
$$$$
