MDD.pdb
 OpenBabel07022418543D

 45 44  0  0  1  0  0  0  0  0999 V2000
    1.2380   -4.7130    2.0790 C   0  0  0  0  0  0  0  0  0  0  0  0
    2.4110   -3.7020    1.1040 S   0  0  0  0  0  0  0  0  0  0  0  0
    1.4560   -2.9890   -0.2900 C   0  0  0  0  0  0  0  0  0  0  0  0
    2.3140   -2.1170   -1.1370 C   0  0  0  0  0  0  0  0  0  0  0  0
    2.9510   -0.9700   -0.4460 C   0  0  2  0  0  0  0  0  0  0  0  0
    3.8160   -1.4050    0.6630 N   0  0  0  0  0  0  0  0  0  0  0  0
    1.9530    0.0200    0.0090 C   0  0  0  0  0  0  0  0  0  0  0  0
    1.1030    0.4750   -0.7790 O   0  0  0  0  0  0  0  0  0  0  0  0
    0.4950   -5.1470    1.3850 H   0  0  0  0  0  0  0  0  0  0  0  0
    1.7910   -5.5120    2.5930 H   0  0  0  0  0  0  0  0  0  0  0  0
    0.7310   -4.0300    2.8210 H   0  0  0  0  0  0  0  0  0  0  0  0
    0.5570   -2.5480    0.1260 H   0  0  0  0  0  0  0  0  0  0  0  0
    1.1890   -3.8860   -0.9370 H   0  0  0  0  0  0  0  0  0  0  0  0
    1.6830   -1.6870   -1.9620 H   0  0  0  0  0  0  0  0  0  0  0  0
    3.0780   -2.7340   -1.6830 H   0  0  0  0  0  0  0  0  0  0  0  0
    3.6590   -0.4860   -1.1900 H   0  0  0  0  0  0  0  0  0  0  0  0
    4.4860   -2.1210    0.3190 H   0  0  0  0  0  0  0  0  0  0  0  0
    4.4220   -0.5830    0.9500 H   0  0  0  0  0  0  0  0  0  0  0  0
    1.9420    0.4870    1.3720 N   0  0  0  0  0  0  0  0  0  0  0  0
    1.0730    1.4360    1.9370 C   0  0  1  0  0  0  0  0  0  0  0  0
    1.4610    2.8750    1.6660 C   0  0  0  0  0  0  0  0  0  0  0  0
    1.5220    3.2740    0.2780 C   0  0  0  0  0  0  0  0  0  0  0  0
    0.4770    3.4780   -0.3720 O   0  0  0  0  0  0  0  0  0  0  0  0
   -0.3810    1.2260    1.8550 C   0  0  0  0  0  0  0  0  0  0  0  0
   -1.1850    2.1410    2.2900 O   0  0  0  0  0  0  0  0  0  0  0  0
    2.7270    3.4440   -0.3730 O   0  0  0  0  0  0  0  0  0  0  0  0
    2.7190    0.0070    1.9460 H   0  0  0  0  0  0  0  0  0  0  0  0
    1.2660    1.3640    3.0800 H   0  0  0  0  0  0  0  0  0  0  0  0
    0.7710    3.4880    2.3030 H   0  0  0  0  0  0  0  0  0  0  0  0
    2.4730    3.0530    2.1360 H   0  0  0  0  0  0  0  0  0  0  0  0
    2.7250    4.0840   -1.1810 H   0  0  0  0  0  0  0  0  0  0  0  0
   -1.0570    0.0960    1.3410 N   0  0  0  0  0  0  0  0  0  0  0  0
   -2.5080    0.0030    1.3130 C   0  0  1  0  0  0  0  0  0  0  0  0
   -3.0320   -0.0730   -0.1130 C   0  0  0  0  0  0  0  0  0  0  0  0
   -4.5090   -0.1620   -0.0840 C   0  0  0  0  0  0  0  0  0  0  0  0
   -5.2040    0.8490    0.1860 O   0  0  0  0  0  0  0  0  0  0  0  0
   -2.9930   -1.2040    2.0090 C   0  0  0  0  0  0  0  0  0  0  0  0
   -4.2110   -1.4720    2.1210 O   0  0  0  0  0  0  0  0  0  0  0  0
   -5.1490   -1.3560   -0.3530 O   0  0  0  0  0  0  0  0  0  0  0  0
   -2.0830   -2.0850    2.5670 O   0  0  0  0  0  0  0  0  0  0  0  0
   -0.5310   -0.7150    0.9730 H   0  0  0  0  0  0  0  0  0  0  0  0
   -2.9430    0.9240    1.7550 H   0  0  0  0  0  0  0  0  0  0  0  0
   -2.5980   -0.9010   -0.6880 H   0  0  0  0  0  0  0  0  0  0  0  0
   -2.7690    0.8770   -0.6170 H   0  0  0  0  0  0  0  0  0  0  0  0
   -6.1610   -1.3900   -0.4550 H   0  0  0  0  0  0  0  0  0  0  0  0
  1 10  1  0  0  0  0
  1 11  1  0  0  0  0
  2  1  1  0  0  0  0
  3 12  1  0  0  0  0
  3  2  1  0  0  0  0
  4  5  1  0  0  0  0
  4  3  1  0  0  0  0
  5 16  1  6  0  0  0
  5  7  1  0  0  0  0
  5  6  1  0  0  0  0
  6 18  1  0  0  0  0
  7 19  1  0  0  0  0
  8  7  2  0  0  0  0
  9  1  1  0  0  0  0
 13  3  1  0  0  0  0
 14  4  1  0  0  0  0
 15  4  1  0  0  0  0
 17  6  1  0  0  0  0
 19 20  1  0  0  0  0
 19 27  1  0  0  0  0
 20 28  1  1  0  0  0
 21 20  1  0  0  0  0
 21 30  1  0  0  0  0
 21 29  1  0  0  0  0
 22 21  1  0  0  0  0
 23 22  2  0  0  0  0
 24 20  1  0  0  0  0
 24 25  2  0  0  0  0
 26 22  1  0  0  0  0
 31 26  1  0  0  0  0
 32 24  1  0  0  0  0
 33 32  1  0  0  0  0
 33 42  1  1  0  0  0
 33 37  1  0  0  0  0
 34 35  1  0  0  0  0
 34 33  1  0  0  0  0
 35 36  2  0  0  0  0
 37 38  2  0  0  0  0
 37 40  1  0  0  0  0
 39 35  1  0  0  0  0
 41 32  1  0  0  0  0
 43 34  1  0  0  0  0
 44 34  1  0  0  0  0
 45 39  1  0  0  0  0
M  END
$$$$
