MDF.pdb
 OpenBabel07022418543D

 52 52  0  0  1  0  0  0  0  0999 V2000
    1.3500   -3.9400    4.3300 C   0  0  0  0  0  0  0  0  0  0  0  0
    2.7440   -3.6790    3.2070 S   0  0  0  0  0  0  0  0  0  0  0  0
    2.2020   -3.1810    1.5600 C   0  0  0  0  0  0  0  0  0  0  0  0
    1.5500   -1.8280    1.5440 C   0  0  0  0  0  0  0  0  0  0  0  0
    2.4520   -0.7270    2.0190 C   0  0  2  0  0  0  0  0  0  0  0  0
    2.9070   -0.9310    3.3800 N   0  0  0  0  0  0  0  0  0  0  0  0
    1.7880    0.5890    1.8690 C   0  0  0  0  0  0  0  0  0  0  0  0
    1.6610    1.3990    2.8400 O   0  0  0  0  0  0  0  0  0  0  0  0
    1.5120   -3.5040    5.3360 H   0  0  0  0  0  0  0  0  0  0  0  0
    1.1460   -5.0290    4.4800 H   0  0  0  0  0  0  0  0  0  0  0  0
    0.4110   -3.5170    3.9170 H   0  0  0  0  0  0  0  0  0  0  0  0
    1.4920   -3.9020    1.0960 H   0  0  0  0  0  0  0  0  0  0  0  0
    3.0980   -3.1340    0.9150 H   0  0  0  0  0  0  0  0  0  0  0  0
    0.6170   -1.7870    2.1410 H   0  0  0  0  0  0  0  0  0  0  0  0
    1.2680   -1.6210    0.4910 H   0  0  0  0  0  0  0  0  0  0  0  0
    3.3550   -0.7120    1.3730 H   0  0  0  0  0  0  0  0  0  0  0  0
    2.8140   -0.0830    3.9720 H   0  0  0  0  0  0  0  0  0  0  0  0
    3.8960   -1.2640    3.4020 H   0  0  0  0  0  0  0  0  0  0  0  0
    1.2770    0.9570    0.5990 N   0  0  0  0  0  0  0  0  0  0  0  0
    0.6090    2.2120    0.3230 C   0  0  1  0  0  0  0  0  0  0  0  0
    1.2860    3.0270   -0.7130 C   0  0  0  0  0  0  0  0  0  0  0  0
    0.5580    4.2930   -0.9460 C   0  0  0  0  0  0  0  0  0  0  0  0
   -0.3450    4.4290   -1.8120 O   0  0  0  0  0  0  0  0  0  0  0  0
   -0.7970    1.8780    0.0160 C   0  0  0  0  0  0  0  0  0  0  0  0
   -1.5940    2.8160   -0.2200 O   0  0  0  0  0  0  0  0  0  0  0  0
    0.8310    5.4500   -0.2020 O   0  0  0  0  0  0  0  0  0  0  0  0
    1.3860    0.2880   -0.1870 H   0  0  0  0  0  0  0  0  0  0  0  0
    0.6030    2.7700    1.2870 H   0  0  0  0  0  0  0  0  0  0  0  0
    2.3300    3.2930   -0.4790 H   0  0  0  0  0  0  0  0  0  0  0  0
    1.3350    2.5190   -1.7150 H   0  0  0  0  0  0  0  0  0  0  0  0
    0.7120    6.3800   -0.6030 H   0  0  0  0  0  0  0  0  0  0  0  0
   -1.3230    0.5560   -0.0320 N   0  0  0  0  0  0  0  0  0  0  0  0
   -2.7220    0.2950   -0.3390 C   0  0  1  0  0  0  0  0  0  0  0  0
   -2.8870   -0.5920   -1.5500 C   0  0  0  0  0  0  0  0  0  0  0  0
   -2.2150   -1.8800   -1.3030 C   0  0  0  0  0  0  0  0  0  0  0  0
   -0.8670   -2.0250   -1.6390 C   0  0  0  0  0  0  0  0  0  0  0  0
   -0.1790   -3.2010   -1.4450 C   0  0  0  0  0  0  0  0  0  0  0  0
   -0.8200   -4.2970   -0.8990 C   0  0  0  0  0  0  0  0  0  0  0  0
   -2.1410   -4.1660   -0.5660 C   0  0  0  0  0  0  0  0  0  0  0  0
   -2.8210   -2.9870   -0.7630 C   0  0  0  0  0  0  0  0  0  0  0  0
   -3.4100   -0.3540    0.8040 C   0  0  0  0  0  0  0  0  0  0  0  0
   -2.7750   -0.6370    1.8510 O   0  0  0  0  0  0  0  0  0  0  0  0
   -4.7570   -0.6730    0.7820 O   0  0  0  0  0  0  0  0  0  0  0  0
   -0.7160   -0.2480    0.1520 H   0  0  0  0  0  0  0  0  0  0  0  0
   -3.2700    1.2520   -0.5120 H   0  0  0  0  0  0  0  0  0  0  0  0
   -2.4660   -0.1330   -2.4680 H   0  0  0  0  0  0  0  0  0  0  0  0
   -3.9800   -0.7710   -1.6590 H   0  0  0  0  0  0  0  0  0  0  0  0
   -0.3650   -1.1530   -2.0720 H   0  0  0  0  0  0  0  0  0  0  0  0
    0.8720   -3.2620   -1.7250 H   0  0  0  0  0  0  0  0  0  0  0  0
   -0.2680   -5.2380   -0.7440 H   0  0  0  0  0  0  0  0  0  0  0  0
   -2.6700   -4.9980   -0.1400 H   0  0  0  0  0  0  0  0  0  0  0  0
   -3.8810   -2.9060   -0.4930 H   0  0  0  0  0  0  0  0  0  0  0  0
  1 10  1  0  0  0  0
  1  9  1  0  0  0  0
  2  1  1  0  0  0  0
  3  2  1  0  0  0  0
  4  3  1  0  0  0  0
  4  5  1  0  0  0  0
  4 14  1  0  0  0  0
  5 16  1  6  0  0  0
  5  6  1  0  0  0  0
  6 18  1  0  0  0  0
  6 17  1  0  0  0  0
  7  5  1  0  0  0  0
  7  8  2  0  0  0  0
 11  1  1  0  0  0  0
 12  3  1  0  0  0  0
 13  3  1  0  0  0  0
 15  4  1  0  0  0  0
 19  7  1  0  0  0  0
 20 19  1  0  0  0  0
 20 28  1  1  0  0  0
 21 29  1  0  0  0  0
 21 20  1  0  0  0  0
 22 21  1  0  0  0  0
 22 26  1  0  0  0  0
 23 22  2  0  0  0  0
 24 20  1  0  0  0  0
 25 24  2  0  0  0  0
 27 19  1  0  0  0  0
 30 21  1  0  0  0  0
 31 26  1  0  0  0  0
 32 24  1  0  0  0  0
 32 44  1  0  0  0  0
 33 45  1  6  0  0  0
 33 32  1  0  0  0  0
 33 41  1  0  0  0  0
 34 35  1  0  0  0  0
 34 33  1  0  0  0  0
 35 40  1  0  0  0  0
 36 37  1  0  0  0  0
 36 35  2  0  0  0  0
 37 38  2  0  0  0  0
 38 50  1  0  0  0  0
 38 39  1  0  0  0  0
 39 51  1  0  0  0  0
 40 39  2  0  0  0  0
 40 52  1  0  0  0  0
 41 42  1  0  0  0  0
 43 41  2  0  0  0  0
 46 34  1  0  0  0  0
 47 34  1  0  0  0  0
 48 36  1  0  0  0  0
 49 37  1  0  0  0  0
M  END
$$$$
