MDG.pdb
 OpenBabel07022418543D

 39 38  0  0  1  0  0  0  0  0999 V2000
    1.7220   -4.4270    2.9390 C   0  0  0  0  0  0  0  0  0  0  0  0
    2.6960   -4.9020    1.5230 S   0  0  0  0  0  0  0  0  0  0  0  0
    2.0790   -4.4080   -0.0680 C   0  0  0  0  0  0  0  0  0  0  0  0
    2.1200   -2.9380   -0.3740 C   0  0  0  0  0  0  0  0  0  0  0  0
    1.3010   -2.1750    0.5950 C   0  0  2  0  0  0  0  0  0  0  0  0
   -0.0640   -2.6420    0.5210 N   0  0  0  0  0  0  0  0  0  0  0  0
    1.3810   -0.6990    0.3960 C   0  0  0  0  0  0  0  0  0  0  0  0
    2.5140   -0.1640    0.4370 O   0  0  0  0  0  0  0  0  0  0  0  0
    1.6370   -5.2740    3.6940 H   0  0  0  0  0  0  0  0  0  0  0  0
    0.6670   -4.1680    2.7290 H   0  0  0  0  0  0  0  0  0  0  0  0
    2.2610   -3.6120    3.5080 H   0  0  0  0  0  0  0  0  0  0  0  0
    1.0290   -4.8110   -0.2330 H   0  0  0  0  0  0  0  0  0  0  0  0
    2.6710   -4.9940   -0.8420 H   0  0  0  0  0  0  0  0  0  0  0  0
    1.7900   -2.8030   -1.4350 H   0  0  0  0  0  0  0  0  0  0  0  0
    3.1950   -2.6430   -0.3720 H   0  0  0  0  0  0  0  0  0  0  0  0
    1.6720   -2.3490    1.6160 H   0  0  0  0  0  0  0  0  0  0  0  0
   -0.6730   -2.1960    1.2460 H   0  0  0  0  0  0  0  0  0  0  0  0
   -0.4680   -2.5480   -0.4360 H   0  0  0  0  0  0  0  0  0  0  0  0
    0.2690    0.1370    0.1640 N   0  0  0  0  0  0  0  0  0  0  0  0
    0.3070    1.5660   -0.0350 C   0  0  1  0  0  0  0  0  0  0  0  0
   -0.3870    2.0040   -1.2890 C   0  0  0  0  0  0  0  0  0  0  0  0
    0.2390    1.3890   -2.4650 C   0  0  0  0  0  0  0  0  0  0  0  0
   -0.2100    1.6390   -3.6040 O   0  0  0  0  0  0  0  0  0  0  0  0
   -0.3690    2.1890    1.1440 C   0  0  0  0  0  0  0  0  0  0  0  0
   -0.4700    3.4610    1.2100 O   0  0  0  0  0  0  0  0  0  0  0  0
    1.3120    0.5430   -2.3100 O   0  0  0  0  0  0  0  0  0  0  0  0
   -0.6740   -0.3140    0.1320 H   0  0  0  0  0  0  0  0  0  0  0  0
    1.3400    1.9690   -0.0550 H   0  0  0  0  0  0  0  0  0  0  0  0
   -1.4940    1.7840   -1.2400 H   0  0  0  0  0  0  0  0  0  0  0  0
   -0.3450    3.1090   -1.4300 H   0  0  0  0  0  0  0  0  0  0  0  0
    2.0000    0.4060   -3.0430 H   0  0  0  0  0  0  0  0  0  0  0  0
   -0.8990    1.3900    2.1870 N   0  0  0  0  0  0  0  0  0  0  0  0
   -1.5630    1.9620    3.3490 C   0  0  0  0  0  0  0  0  0  0  0  0
   -2.7540    2.7560    2.9400 C   0  0  0  0  0  0  0  0  0  0  0  0
   -3.4900    3.3460    3.7670 O   0  0  0  0  0  0  0  0  0  0  0  0
   -3.0700    2.8510    1.5940 O   0  0  0  0  0  0  0  0  0  0  0  0
   -0.7910    0.3440    2.0860 H   0  0  0  0  0  0  0  0  0  0  0  0
   -0.8640    2.5500    3.9780 H   0  0  0  0  0  0  0  0  0  0  0  0
   -1.9260    1.1330    3.9760 H   0  0  0  0  0  0  0  0  0  0  0  0
  1 11  1  0  0  0  0
  1  9  1  0  0  0  0
  2  1  1  0  0  0  0
  3  2  1  0  0  0  0
  4 15  1  0  0  0  0
  4  3  1  0  0  0  0
  4  5  1  0  0  0  0
  5 16  1  1  0  0  0
  6  5  1  0  0  0  0
  6 17  1  0  0  0  0
  7  8  2  0  0  0  0
  7  5  1  0  0  0  0
 10  1  1  0  0  0  0
 12  3  1  0  0  0  0
 13  3  1  0  0  0  0
 14  4  1  0  0  0  0
 18  6  1  0  0  0  0
 19  7  1  0  0  0  0
 20 28  1  6  0  0  0
 20 19  1  0  0  0  0
 20 24  1  0  0  0  0
 21 29  1  0  0  0  0
 21 20  1  0  0  0  0
 22 26  1  0  0  0  0
 22 21  1  0  0  0  0
 23 22  2  0  0  0  0
 24 25  2  0  0  0  0
 24 32  1  0  0  0  0
 27 19  1  0  0  0  0
 30 21  1  0  0  0  0
 31 26  1  0  0  0  0
 32 33  1  0  0  0  0
 33 39  1  0  0  0  0
 33 38  1  0  0  0  0
 34 33  1  0  0  0  0
 34 35  1  0  0  0  0
 36 34  2  0  0  0  0
 37 32  1  0  0  0  0
M  END
$$$$
