MDH.pdb
 OpenBabel07022418543D

 49 49  0  0  1  0  0  0  0  0999 V2000
    2.8580   -3.5740    4.0790 C   0  0  0  0  0  0  0  0  0  0  0  0
    3.2420   -4.5730    2.6300 S   0  0  0  0  0  0  0  0  0  0  0  0
    3.0210   -3.7110    1.1050 C   0  0  0  0  0  0  0  0  0  0  0  0
    3.9580   -2.6620    0.6970 C   0  0  0  0  0  0  0  0  0  0  0  0
    4.1930   -1.4700    1.5160 C   0  0  2  0  0  0  0  0  0  0  0  0
    4.7240   -1.7180    2.8130 N   0  0  0  0  0  0  0  0  0  0  0  0
    3.0470   -0.5440    1.6300 C   0  0  0  0  0  0  0  0  0  0  0  0
    2.7380   -0.1330    2.7690 O   0  0  0  0  0  0  0  0  0  0  0  0
    3.7240   -3.3920    4.7350 H   0  0  0  0  0  0  0  0  0  0  0  0
    2.0840   -4.1330    4.6920 H   0  0  0  0  0  0  0  0  0  0  0  0
    2.3650   -2.6270    3.8290 H   0  0  0  0  0  0  0  0  0  0  0  0
    3.0340   -4.5060    0.2800 H   0  0  0  0  0  0  0  0  0  0  0  0
    1.9430   -3.3290    0.9880 H   0  0  0  0  0  0  0  0  0  0  0  0
    3.7240   -2.4030   -0.3710 H   0  0  0  0  0  0  0  0  0  0  0  0
    4.9790   -3.1650    0.5780 H   0  0  0  0  0  0  0  0  0  0  0  0
    4.9920   -0.8590    0.9780 H   0  0  0  0  0  0  0  0  0  0  0  0
    5.7480   -1.9220    2.8340 H   0  0  0  0  0  0  0  0  0  0  0  0
    4.4600   -1.0040    3.5340 H   0  0  0  0  0  0  0  0  0  0  0  0
    2.2800   -0.0940    0.5350 N   0  0  0  0  0  0  0  0  0  0  0  0
    1.1790    0.8140    0.7720 C   0  0  1  0  0  0  0  0  0  0  0  0
    1.4440    2.1690    0.1400 C   0  0  0  0  0  0  0  0  0  0  0  0
    1.6240    2.0500   -1.3280 C   0  0  0  0  0  0  0  0  0  0  0  0
    0.7300    1.5110   -2.0660 O   0  0  0  0  0  0  0  0  0  0  0  0
   -0.0540    0.1840    0.2470 C   0  0  0  0  0  0  0  0  0  0  0  0
   -0.0130   -0.9500   -0.2640 O   0  0  0  0  0  0  0  0  0  0  0  0
    2.7600    2.5040   -2.0060 O   0  0  0  0  0  0  0  0  0  0  0  0
    2.4820   -0.3910   -0.4160 H   0  0  0  0  0  0  0  0  0  0  0  0
    1.0260    1.0220    1.8500 H   0  0  0  0  0  0  0  0  0  0  0  0
    2.3660    2.5730    0.5800 H   0  0  0  0  0  0  0  0  0  0  0  0
    0.5680    2.8190    0.3130 H   0  0  0  0  0  0  0  0  0  0  0  0
    3.1380    1.8700   -2.7310 H   0  0  0  0  0  0  0  0  0  0  0  0
   -1.3210    0.8410    0.3010 N   0  0  0  0  0  0  0  0  0  0  0  0
   -2.5400    0.2260   -0.2170 C   0  0  1  0  0  0  0  0  0  0  0  0
   -3.5820    0.1040    0.8530 C   0  0  0  0  0  0  0  0  0  0  0  0
   -4.7980   -0.5290    0.3100 C   0  0  0  0  0  0  0  0  0  0  0  0
   -5.9460   -0.0050   -0.2400 C   0  0  0  0  0  0  0  0  0  0  0  0
   -6.7910   -0.9970   -0.5700 N   0  0  0  0  0  0  0  0  0  0  0  0
   -6.2020   -2.1510   -0.2380 C   0  0  0  0  0  0  0  0  0  0  0  0
   -5.0040   -1.8830    0.2920 N   0  0  0  0  0  0  0  0  0  0  0  0
   -2.9990    1.0300   -1.3610 C   0  0  0  0  0  0  0  0  0  0  0  0
   -4.0040    0.6860   -2.0340 O   0  0  0  0  0  0  0  0  0  0  0  0
   -2.3560    2.2010   -1.7570 O   0  0  0  0  0  0  0  0  0  0  0  0
   -1.3530    1.7830    0.7270 H   0  0  0  0  0  0  0  0  0  0  0  0
   -2.3240   -0.7950   -0.6180 H   0  0  0  0  0  0  0  0  0  0  0  0
   -3.1660   -0.4600    1.7250 H   0  0  0  0  0  0  0  0  0  0  0  0
   -3.8380    1.1040    1.2690 H   0  0  0  0  0  0  0  0  0  0  0  0
   -6.1250    1.0540   -0.3730 H   0  0  0  0  0  0  0  0  0  0  0  0
   -7.7560   -0.8960   -1.0170 H   0  0  0  0  0  0  0  0  0  0  0  0
   -6.6190   -3.1290   -0.3720 H   0  0  0  0  0  0  0  0  0  0  0  0
  1 10  1  0  0  0  0
  1  9  1  0  0  0  0
  2  1  1  0  0  0  0
  3  2  1  0  0  0  0
  4  3  1  0  0  0  0
  4  5  1  0  0  0  0
  5 16  1  6  0  0  0
  5  7  1  0  0  0  0
  5  6  1  0  0  0  0
  6 17  1  0  0  0  0
  6 18  1  0  0  0  0
  7  8  2  0  0  0  0
 11  1  1  0  0  0  0
 12  3  1  0  0  0  0
 13  3  1  0  0  0  0
 14  4  1  0  0  0  0
 15  4  1  0  0  0  0
 19 20  1  0  0  0  0
 19  7  1  0  0  0  0
 20 28  1  1  0  0  0
 21 30  1  0  0  0  0
 21 29  1  0  0  0  0
 21 20  1  0  0  0  0
 22 21  1  0  0  0  0
 23 22  2  0  0  0  0
 24 32  1  0  0  0  0
 24 20  1  0  0  0  0
 25 24  2  0  0  0  0
 26 22  1  0  0  0  0
 27 19  1  0  0  0  0
 31 26  1  0  0  0  0
 32 43  1  0  0  0  0
 33 44  1  6  0  0  0
 33 32  1  0  0  0  0
 33 34  1  0  0  0  0
 34 46  1  0  0  0  0
 34 45  1  0  0  0  0
 35 34  1  0  0  0  0
 36 35  2  0  0  0  0
 37 36  1  0  0  0  0
 37 38  1  0  0  0  0
 38 39  2  0  0  0  0
 39 35  1  0  0  0  0
 40 33  1  0  0  0  0
 41 40  2  0  0  0  0
 42 40  1  0  0  0  0
 47 36  1  0  0  0  0
 48 37  1  0  0  0  0
 49 38  1  0  0  0  0
M  END
$$$$
