MDI.pdb
 OpenBabel07022418543D

 51 50  0  0  1  0  0  0  0  0999 V2000
    0.9270   -5.0040    1.5440 C   0  0  0  0  0  0  0  0  0  0  0  0
    1.7740   -4.1060    0.1900 S   0  0  0  0  0  0  0  0  0  0  0  0
    2.4840   -2.6150    0.9180 C   0  0  0  0  0  0  0  0  0  0  0  0
    3.2140   -1.7770   -0.1070 C   0  0  0  0  0  0  0  0  0  0  0  0
    3.8030   -0.5300    0.5200 C   0  0  2  0  0  0  0  0  0  0  0  0
    4.7280   -0.9970    1.5440 N   0  0  0  0  0  0  0  0  0  0  0  0
    2.7570    0.3320    1.1130 C   0  0  0  0  0  0  0  0  0  0  0  0
    2.7790    0.5340    2.3500 O   0  0  0  0  0  0  0  0  0  0  0  0
   -0.1540   -4.7250    1.4530 H   0  0  0  0  0  0  0  0  0  0  0  0
    1.0580   -6.0930    1.4560 H   0  0  0  0  0  0  0  0  0  0  0  0
    1.2380   -4.6150    2.5420 H   0  0  0  0  0  0  0  0  0  0  0  0
    3.2130   -2.9280    1.6910 H   0  0  0  0  0  0  0  0  0  0  0  0
    1.6500   -2.0050    1.3180 H   0  0  0  0  0  0  0  0  0  0  0  0
    2.5460   -1.4720   -0.9170 H   0  0  0  0  0  0  0  0  0  0  0  0
    4.0430   -2.3640   -0.5460 H   0  0  0  0  0  0  0  0  0  0  0  0
    4.4050   -0.0230   -0.2600 H   0  0  0  0  0  0  0  0  0  0  0  0
    4.3150   -0.9840    2.4820 H   0  0  0  0  0  0  0  0  0  0  0  0
    5.6610   -0.5830    1.4520 H   0  0  0  0  0  0  0  0  0  0  0  0
    1.7250    0.9460    0.3620 N   0  0  0  0  0  0  0  0  0  0  0  0
    0.7240    1.7790    0.9870 C   0  0  1  0  0  0  0  0  0  0  0  0
    0.7210    3.1750    0.4220 C   0  0  0  0  0  0  0  0  0  0  0  0
    0.4460    3.2200   -1.0230 C   0  0  0  0  0  0  0  0  0  0  0  0
   -0.7110    3.0330   -1.5210 O   0  0  0  0  0  0  0  0  0  0  0  0
   -0.6550    1.1630    0.8120 C   0  0  0  0  0  0  0  0  0  0  0  0
   -1.6580    1.7410    1.2810 O   0  0  0  0  0  0  0  0  0  0  0  0
    1.4720    3.4770   -1.9360 O   0  0  0  0  0  0  0  0  0  0  0  0
    1.6990    0.7870   -0.6670 H   0  0  0  0  0  0  0  0  0  0  0  0
    0.9060    1.8170    2.0600 H   0  0  0  0  0  0  0  0  0  0  0  0
    0.0040    3.7950    0.9880 H   0  0  0  0  0  0  0  0  0  0  0  0
    1.7230    3.6110    0.6000 H   0  0  0  0  0  0  0  0  0  0  0  0
    1.3270    3.5150   -2.9350 H   0  0  0  0  0  0  0  0  0  0  0  0
   -2.4680   -2.5040    2.3380 C   0  0  0  0  0  0  0  0  0  0  0  0
   -2.7560   -1.0130    2.2780 C   0  0  0  0  0  0  0  0  0  0  0  0
   -3.0880   -0.5790    0.8650 C   0  0  2  0  0  0  0  0  0  0  0  0
   -4.3260   -1.3810    0.4310 C   0  0  0  0  0  0  0  0  0  0  0  0
   -1.9820   -0.7570   -0.1100 C   0  0  2  0  0  0  0  0  0  0  0  0
   -0.7730   -0.0440    0.1250 N   0  0  0  0  0  0  0  0  0  0  0  0
   -2.4580   -0.6600   -1.4930 C   0  0  0  0  0  0  0  0  0  0  0  0
   -1.8420    0.0480   -2.3550 O   0  0  0  0  0  0  0  0  0  0  0  0
   -3.5730   -1.3090   -1.9520 O   0  0  0  0  0  0  0  0  0  0  0  0
   -1.4110   -2.6100    2.6710 H   0  0  0  0  0  0  0  0  0  0  0  0
   -3.0750   -2.9840    3.1410 H   0  0  0  0  0  0  0  0  0  0  0  0
   -2.6890   -3.0300    1.4110 H   0  0  0  0  0  0  0  0  0  0  0  0
   -3.6560   -0.8250    2.8960 H   0  0  0  0  0  0  0  0  0  0  0  0
   -1.9410   -0.4200    2.6810 H   0  0  0  0  0  0  0  0  0  0  0  0
   -3.4400    0.4640    0.9020 H   0  0  0  0  0  0  0  0  0  0  0  0
   -4.9600   -0.7870   -0.2340 H   0  0  0  0  0  0  0  0  0  0  0  0
   -3.9990   -2.3300    0.0210 H   0  0  0  0  0  0  0  0  0  0  0  0
   -4.9480   -1.6170    1.3320 H   0  0  0  0  0  0  0  0  0  0  0  0
   -1.6960   -1.8760    0.0500 H   0  0  0  0  0  0  0  0  0  0  0  0
    0.1450   -0.4640   -0.2560 H   0  0  0  0  0  0  0  0  0  0  0  0
  1 11  1  0  0  0  0
  2  3  1  0  0  0  0
  2  1  1  0  0  0  0
  3 13  1  0  0  0  0
  3 12  1  0  0  0  0
  4  5  1  0  0  0  0
  4  3  1  0  0  0  0
  5 16  1  6  0  0  0
  5  7  1  0  0  0  0
  5  6  1  0  0  0  0
  6 17  1  0  0  0  0
  7  8  2  0  0  0  0
  9  1  1  0  0  0  0
 10  1  1  0  0  0  0
 14  4  1  0  0  0  0
 15  4  1  0  0  0  0
 18  6  1  0  0  0  0
 19 20  1  0  0  0  0
 19  7  1  0  0  0  0
 20 28  1  1  0  0  0
 21 30  1  0  0  0  0
 21 20  1  0  0  0  0
 21 29  1  0  0  0  0
 22 21  1  0  0  0  0
 23 22  2  0  0  0  0
 24 20  1  0  0  0  0
 24 25  2  0  0  0  0
 26 22  1  0  0  0  0
 27 19  1  0  0  0  0
 31 26  1  0  0  0  0
 32 41  1  0  0  0  0
 32 42  1  0  0  0  0
 33 32  1  0  0  0  0
 33 45  1  0  0  0  0
 33 44  1  0  0  0  0
 34 46  1  1  0  0  0
 34 33  1  0  0  0  0
 35 34  1  0  0  0  0
 35 49  1  0  0  0  0
 36 50  1  1  0  0  0
 36 37  1  0  0  0  0
 36 34  1  0  0  0  0
 37 24  1  0  0  0  0
 38 36  1  0  0  0  0
 39 38  2  0  0  0  0
 40 38  1  0  0  0  0
 43 32  1  0  0  0  0
 47 35  1  0  0  0  0
 48 35  1  0  0  0  0
 51 37  1  0  0  0  0
M  END
$$$$
