MDK.pdb
 OpenBabel07022418543D

 53 52  0  0  1  0  0  0  0  0999 V2000
    2.9680   -4.1200    2.0560 C   0  0  0  0  0  0  0  0  0  0  0  0
    2.5860   -4.1970    0.3030 S   0  0  0  0  0  0  0  0  0  0  0  0
    2.0050   -2.7050   -0.4350 C   0  0  0  0  0  0  0  0  0  0  0  0
    2.9280   -1.5880   -0.6800 C   0  0  0  0  0  0  0  0  0  0  0  0
    3.6570   -0.9450    0.4210 C   0  0  2  0  0  0  0  0  0  0  0  0
    4.5200   -1.8490    1.1010 N   0  0  0  0  0  0  0  0  0  0  0  0
    2.7880   -0.2360    1.3950 C   0  0  0  0  0  0  0  0  0  0  0  0
    2.9410   -0.4810    2.6130 O   0  0  0  0  0  0  0  0  0  0  0  0
    2.4130   -4.9520    2.6080 H   0  0  0  0  0  0  0  0  0  0  0  0
    4.0620   -4.2640    2.2460 H   0  0  0  0  0  0  0  0  0  0  0  0
    2.6470   -3.1930    2.5430 H   0  0  0  0  0  0  0  0  0  0  0  0
    1.1850   -2.3020    0.2300 H   0  0  0  0  0  0  0  0  0  0  0  0
    1.4510   -2.9150   -1.4140 H   0  0  0  0  0  0  0  0  0  0  0  0
    3.7010   -1.8600   -1.4710 H   0  0  0  0  0  0  0  0  0  0  0  0
    2.3220   -0.7750   -1.2110 H   0  0  0  0  0  0  0  0  0  0  0  0
    4.3150   -0.1510   -0.0420 H   0  0  0  0  0  0  0  0  0  0  0  0
    5.1620   -1.3950    1.7870 H   0  0  0  0  0  0  0  0  0  0  0  0
    5.0140   -2.4900    0.4360 H   0  0  0  0  0  0  0  0  0  0  0  0
    1.7900    0.7060    1.0290 N   0  0  0  0  0  0  0  0  0  0  0  0
    0.9830    1.3590    2.0270 C   0  0  1  0  0  0  0  0  0  0  0  0
    1.0930    2.8670    1.9520 C   0  0  0  0  0  0  0  0  0  0  0  0
    2.4730    3.3220    2.1550 C   0  0  0  0  0  0  0  0  0  0  0  0
    3.4500    2.5560    2.3620 O   0  0  0  0  0  0  0  0  0  0  0  0
   -0.4590    0.9440    1.9060 C   0  0  0  0  0  0  0  0  0  0  0  0
   -1.2310    1.4780    2.7630 O   0  0  0  0  0  0  0  0  0  0  0  0
    2.7700    4.6830    2.1250 O   0  0  0  0  0  0  0  0  0  0  0  0
    1.6700    0.9020    0.0160 H   0  0  0  0  0  0  0  0  0  0  0  0
    1.2930    1.0330    3.0320 H   0  0  0  0  0  0  0  0  0  0  0  0
    0.4270    3.3630    2.6830 H   0  0  0  0  0  0  0  0  0  0  0  0
    0.7430    3.2140    0.9400 H   0  0  0  0  0  0  0  0  0  0  0  0
    3.7410    4.9960    2.0950 H   0  0  0  0  0  0  0  0  0  0  0  0
   -0.9100    0.0420    0.9270 N   0  0  0  0  0  0  0  0  0  0  0  0
   -2.3820   -0.2900    0.9170 C   0  0  1  0  0  0  0  0  0  0  0  0
   -2.8240    0.1760   -0.4110 C   0  0  0  0  0  0  0  0  0  0  0  0
   -4.1980    0.1060   -0.8770 C   0  0  0  0  0  0  0  0  0  0  0  0
   -4.9280   -1.1600   -1.0210 C   0  0  0  0  0  0  0  0  0  0  0  0
   -4.2900   -2.1830   -1.9310 C   0  0  0  0  0  0  0  0  0  0  0  0
   -5.1350   -3.3620   -1.9580 N   0  0  0  0  0  0  0  0  0  0  0  0
   -2.5080   -1.7130    1.2370 C   0  0  0  0  0  0  0  0  0  0  0  0
   -3.5500   -2.3520    1.4430 O   0  0  0  0  0  0  0  0  0  0  0  0
   -1.3370   -2.5080    1.3370 O   0  0  0  0  0  0  0  0  0  0  0  0
   -0.2670   -0.3750    0.2460 H   0  0  0  0  0  0  0  0  0  0  0  0
   -2.7970    0.2850    1.7610 H   0  0  0  0  0  0  0  0  0  0  0  0
   -2.1170   -0.2290   -1.2200 H   0  0  0  0  0  0  0  0  0  0  0  0
   -2.5230    1.2880   -0.4420 H   0  0  0  0  0  0  0  0  0  0  0  0
   -4.8780    0.8060   -0.2980 H   0  0  0  0  0  0  0  0  0  0  0  0
   -4.2300    0.6000   -1.9160 H   0  0  0  0  0  0  0  0  0  0  0  0
   -5.3660   -1.6420   -0.1660 H   0  0  0  0  0  0  0  0  0  0  0  0
   -5.8830   -0.8640   -1.6340 H   0  0  0  0  0  0  0  0  0  0  0  0
   -4.1410   -1.7840   -2.9550 H   0  0  0  0  0  0  0  0  0  0  0  0
   -3.3150   -2.4810   -1.5130 H   0  0  0  0  0  0  0  0  0  0  0  0
   -4.5750   -4.1580   -2.3520 H   0  0  0  0  0  0  0  0  0  0  0  0
   -5.9780   -3.2250   -2.5740 H   0  0  0  0  0  0  0  0  0  0  0  0
  1 10  1  0  0  0  0
  1 11  1  0  0  0  0
  1  9  1  0  0  0  0
  2  1  1  0  0  0  0
  3 12  1  0  0  0  0
  3  2  1  0  0  0  0
  4  3  1  0  0  0  0
  4  5  1  0  0  0  0
  5 16  1  6  0  0  0
  5  6  1  0  0  0  0
  5  7  1  0  0  0  0
  6 17  1  0  0  0  0
  7  8  2  0  0  0  0
 13  3  1  0  0  0  0
 14  4  1  0  0  0  0
 15  4  1  0  0  0  0
 18  6  1  0  0  0  0
 19  7  1  0  0  0  0
 19 20  1  0  0  0  0
 20 28  1  1  0  0  0
 21 20  1  0  0  0  0
 21 22  1  0  0  0  0
 21 29  1  0  0  0  0
 22 23  2  0  0  0  0
 24 20  1  0  0  0  0
 24 25  2  0  0  0  0
 26 22  1  0  0  0  0
 27 19  1  0  0  0  0
 30 21  1  0  0  0  0
 31 26  1  0  0  0  0
 32 24  1  0  0  0  0
 33 32  1  0  0  0  0
 33 39  1  0  0  0  0
 33 43  1  1  0  0  0
 34 33  1  0  0  0  0
 35 34  1  0  0  0  0
 35 46  1  0  0  0  0
 36 35  1  0  0  0  0
 36 48  1  0  0  0  0
 37 51  1  0  0  0  0
 37 36  1  0  0  0  0
 38 37  1  0  0  0  0
 39 41  2  0  0  0  0
 39 40  1  0  0  0  0
 42 32  1  0  0  0  0
 44 34  1  0  0  0  0
 45 34  1  0  0  0  0
 47 35  1  0  0  0  0
 49 36  1  0  0  0  0
 50 37  1  0  0  0  0
 52 38  1  0  0  0  0
 53 38  1  0  0  0  0
M  END
$$$$
