MDQ.pdb
 OpenBabel07022418543D

 49 48  0  0  1  0  0  0  0  0999 V2000
    2.6020   -0.8460    5.4190 C   0  0  0  0  0  0  0  0  0  0  0  0
    2.3000   -2.3910    4.5910 S   0  0  0  0  0  0  0  0  0  0  0  0
    1.7300   -2.3120    2.9260 C   0  0  0  0  0  0  0  0  0  0  0  0
    2.6520   -1.9100    1.8500 C   0  0  0  0  0  0  0  0  0  0  0  0
    3.3090   -0.5940    1.8800 C   0  0  2  0  0  0  0  0  0  0  0  0
    4.1810   -0.3520    3.0060 N   0  0  0  0  0  0  0  0  0  0  0  0
    2.3290    0.5360    1.7200 C   0  0  0  0  0  0  0  0  0  0  0  0
    2.2700    1.4920    2.5240 O   0  0  0  0  0  0  0  0  0  0  0  0
    2.2250    0.0290    4.8500 H   0  0  0  0  0  0  0  0  0  0  0  0
    3.6560   -0.6900    5.6470 H   0  0  0  0  0  0  0  0  0  0  0  0
    2.0590   -0.8790    6.4300 H   0  0  0  0  0  0  0  0  0  0  0  0
    1.3210   -3.3480    2.6600 H   0  0  0  0  0  0  0  0  0  0  0  0
    0.7570   -1.7020    2.8830 H   0  0  0  0  0  0  0  0  0  0  0  0
    2.1250   -1.9910    0.8460 H   0  0  0  0  0  0  0  0  0  0  0  0
    3.4540   -2.7200    1.7360 H   0  0  0  0  0  0  0  0  0  0  0  0
    3.9960   -0.5520    0.9800 H   0  0  0  0  0  0  0  0  0  0  0  0
    4.5710    0.6130    2.9350 H   0  0  0  0  0  0  0  0  0  0  0  0
    4.9990   -1.0050    2.8900 H   0  0  0  0  0  0  0  0  0  0  0  0
    1.4480    0.5010    0.6120 N   0  0  0  0  0  0  0  0  0  0  0  0
    0.4640    1.5080    0.3390 C   0  0  1  0  0  0  0  0  0  0  0  0
    0.8510    2.2630   -0.9010 C   0  0  0  0  0  0  0  0  0  0  0  0
    0.9640    1.4580   -2.1190 C   0  0  0  0  0  0  0  0  0  0  0  0
    0.7480    0.2240   -2.1350 O   0  0  0  0  0  0  0  0  0  0  0  0
   -0.9230    1.0340    0.3060 C   0  0  0  0  0  0  0  0  0  0  0  0
   -1.8120    1.8960    0.0460 O   0  0  0  0  0  0  0  0  0  0  0  0
    1.3190    2.0160   -3.3450 O   0  0  0  0  0  0  0  0  0  0  0  0
    1.5170   -0.3020   -0.0410 H   0  0  0  0  0  0  0  0  0  0  0  0
    0.5120    2.2780    1.1770 H   0  0  0  0  0  0  0  0  0  0  0  0
    0.1570    3.1170   -1.0680 H   0  0  0  0  0  0  0  0  0  0  0  0
    1.8700    2.6960   -0.6960 H   0  0  0  0  0  0  0  0  0  0  0  0
    1.8010    1.4450   -4.0110 H   0  0  0  0  0  0  0  0  0  0  0  0
   -2.6670   -2.3960   -4.2410 N   0  0  0  0  0  0  0  0  0  0  0  0
   -2.9220   -2.4920   -2.8680 C   0  0  0  0  0  0  0  0  0  0  0  0
   -3.4010   -3.5660   -2.4220 O   0  0  0  0  0  0  0  0  0  0  0  0
   -2.6650   -1.4030   -1.8930 C   0  0  0  0  0  0  0  0  0  0  0  0
   -3.0210   -1.8100   -0.4900 C   0  0  0  0  0  0  0  0  0  0  0  0
   -2.7600   -0.7020    0.4980 C   0  0  2  0  0  0  0  0  0  0  0  0
   -1.3670   -0.2850    0.5370 N   0  0  0  0  0  0  0  0  0  0  0  0
   -3.2330   -1.1540    1.8210 C   0  0  0  0  0  0  0  0  0  0  0  0
   -2.4560   -1.1410    2.7940 O   0  0  0  0  0  0  0  0  0  0  0  0
   -4.5260   -1.5890    1.9860 O   0  0  0  0  0  0  0  0  0  0  0  0
   -1.7520   -2.0470   -4.5810 H   0  0  0  0  0  0  0  0  0  0  0  0
   -3.3750   -2.6680   -4.9590 H   0  0  0  0  0  0  0  0  0  0  0  0
   -1.5980   -1.1460   -1.9350 H   0  0  0  0  0  0  0  0  0  0  0  0
   -3.2460   -0.5140   -2.2060 H   0  0  0  0  0  0  0  0  0  0  0  0
   -4.1010   -2.0640   -0.4950 H   0  0  0  0  0  0  0  0  0  0  0  0
   -2.4930   -2.7230   -0.1630 H   0  0  0  0  0  0  0  0  0  0  0  0
   -3.3250    0.2190    0.2040 H   0  0  0  0  0  0  0  0  0  0  0  0
   -0.6610   -1.0010    0.7460 H   0  0  0  0  0  0  0  0  0  0  0  0
  1 10  1  0  0  0  0
  1 11  1  0  0  0  0
  2  1  1  0  0  0  0
  3  2  1  0  0  0  0
  4  5  1  0  0  0  0
  4  3  1  0  0  0  0
  5 16  1  6  0  0  0
  5  6  1  0  0  0  0
  7  5  1  0  0  0  0
  7  8  2  0  0  0  0
  9  1  1  0  0  0  0
 12  3  1  0  0  0  0
 13  3  1  0  0  0  0
 14  4  1  0  0  0  0
 15  4  1  0  0  0  0
 17  6  1  0  0  0  0
 18  6  1  0  0  0  0
 19  7  1  0  0  0  0
 20 19  1  0  0  0  0
 20 28  1  1  0  0  0
 21 30  1  0  0  0  0
 21 20  1  0  0  0  0
 22 21  1  0  0  0  0
 23 22  2  0  0  0  0
 24 20  1  0  0  0  0
 24 38  1  0  0  0  0
 25 24  2  0  0  0  0
 26 22  1  0  0  0  0
 27 19  1  0  0  0  0
 29 21  1  0  0  0  0
 31 26  1  0  0  0  0
 32 33  1  0  0  0  0
 33 34  2  0  0  0  0
 33 35  1  0  0  0  0
 35 36  1  0  0  0  0
 36 47  1  0  0  0  0
 36 37  1  0  0  0  0
 37 48  1  6  0  0  0
 37 38  1  0  0  0  0
 37 39  1  0  0  0  0
 38 49  1  0  0  0  0
 39 41  2  0  0  0  0
 39 40  1  0  0  0  0
 42 32  1  0  0  0  0
 43 32  1  0  0  0  0
 44 35  1  0  0  0  0
 45 35  1  0  0  0  0
 46 36  1  0  0  0  0
M  END
$$$$
