MDR.pdb
 OpenBabel07022418543D

 55 54  0  0  1  0  0  0  0  0999 V2000
    2.6650   -3.5390    6.0120 C   0  0  0  0  0  0  0  0  0  0  0  0
    4.3120   -3.0880    5.4120 S   0  0  0  0  0  0  0  0  0  0  0  0
    4.5380   -3.5680    3.6890 C   0  0  0  0  0  0  0  0  0  0  0  0
    3.6460   -2.8140    2.7420 C   0  0  0  0  0  0  0  0  0  0  0  0
    3.8980   -1.3010    2.7790 C   0  0  2  0  0  0  0  0  0  0  0  0
    3.6470   -0.8510    4.1080 N   0  0  0  0  0  0  0  0  0  0  0  0
    3.0280   -0.7240    1.7350 C   0  0  0  0  0  0  0  0  0  0  0  0
    3.3080   -1.0390    0.5390 O   0  0  0  0  0  0  0  0  0  0  0  0
    2.1440   -2.6050    6.3600 H   0  0  0  0  0  0  0  0  0  0  0  0
    2.7570   -4.1860    6.9160 H   0  0  0  0  0  0  0  0  0  0  0  0
    2.0690   -4.0300    5.2270 H   0  0  0  0  0  0  0  0  0  0  0  0
    4.3260   -4.6440    3.6040 H   0  0  0  0  0  0  0  0  0  0  0  0
    5.6120   -3.4330    3.4180 H   0  0  0  0  0  0  0  0  0  0  0  0
    2.5870   -3.0280    3.0010 H   0  0  0  0  0  0  0  0  0  0  0  0
    3.7940   -3.1890    1.7060 H   0  0  0  0  0  0  0  0  0  0  0  0
    4.9640   -1.1490    2.5130 H   0  0  0  0  0  0  0  0  0  0  0  0
    3.2130    0.1070    4.1710 H   0  0  0  0  0  0  0  0  0  0  0  0
    4.5780   -0.7200    4.5970 H   0  0  0  0  0  0  0  0  0  0  0  0
    1.9290    0.1320    1.9480 N   0  0  0  0  0  0  0  0  0  0  0  0
    1.1170    0.6600    0.8280 C   0  0  1  0  0  0  0  0  0  0  0  0
    1.9520    1.5420   -0.0300 C   0  0  0  0  0  0  0  0  0  0  0  0
    1.2400    2.1150   -1.1850 C   0  0  0  0  0  0  0  0  0  0  0  0
    1.3090    1.6410   -2.3500 O   0  0  0  0  0  0  0  0  0  0  0  0
    0.4540   -0.4650    0.1910 C   0  0  0  0  0  0  0  0  0  0  0  0
    0.7580   -1.6470    0.5800 O   0  0  0  0  0  0  0  0  0  0  0  0
    0.4490    3.2390   -0.9940 O   0  0  0  0  0  0  0  0  0  0  0  0
    1.6900    0.3930    2.9280 H   0  0  0  0  0  0  0  0  0  0  0  0
    0.3260    1.2960    1.2880 H   0  0  0  0  0  0  0  0  0  0  0  0
    2.2420    2.4240    0.6190 H   0  0  0  0  0  0  0  0  0  0  0  0
    2.9320    1.0980   -0.3080 H   0  0  0  0  0  0  0  0  0  0  0  0
    0.0090    3.7500   -1.7350 H   0  0  0  0  0  0  0  0  0  0  0  0
   -6.3550    2.4290   -2.5450 N   0  0  0  0  0  0  0  0  0  0  0  0
   -5.7800    1.4000   -1.7520 C   0  0  0  0  0  0  0  0  0  0  0  0
   -5.3100    1.6710   -0.5680 N   0  0  0  0  0  0  0  0  0  0  0  0
   -5.6980    0.0650   -2.2030 N   0  0  0  0  0  0  0  0  0  0  0  0
   -4.8210   -0.9060   -1.6280 C   0  0  0  0  0  0  0  0  0  0  0  0
   -3.3440   -0.6050   -1.8950 C   0  0  0  0  0  0  0  0  0  0  0  0
   -2.5650   -1.6990   -1.2370 C   0  0  0  0  0  0  0  0  0  0  0  0
   -1.0850   -1.5980   -1.3780 C   0  0  2  0  0  0  0  0  0  0  0  0
   -0.5120   -0.4050   -0.8300 N   0  0  0  0  0  0  0  0  0  0  0  0
   -0.7500   -1.7600   -2.8250 C   0  0  0  0  0  0  0  0  0  0  0  0
   -0.0390   -0.9180   -3.4510 O   0  0  0  0  0  0  0  0  0  0  0  0
   -1.2060   -2.8480   -3.5530 O   0  0  0  0  0  0  0  0  0  0  0  0
   -7.3320    2.7490   -2.4050 H   0  0  0  0  0  0  0  0  0  0  0  0
   -5.7800    2.8750   -3.2870 H   0  0  0  0  0  0  0  0  0  0  0  0
   -4.8900    0.9580    0.0300 H   0  0  0  0  0  0  0  0  0  0  0  0
   -6.3140   -0.2120   -2.9960 H   0  0  0  0  0  0  0  0  0  0  0  0
   -5.0250   -1.9190   -2.0520 H   0  0  0  0  0  0  0  0  0  0  0  0
   -5.0200   -0.9900   -0.5430 H   0  0  0  0  0  0  0  0  0  0  0  0
   -3.1430    0.3980   -1.5110 H   0  0  0  0  0  0  0  0  0  0  0  0
   -3.1860   -0.5830   -2.9960 H   0  0  0  0  0  0  0  0  0  0  0  0
   -2.9170   -1.8170   -0.2000 H   0  0  0  0  0  0  0  0  0  0  0  0
   -2.8670   -2.6540   -1.7610 H   0  0  0  0  0  0  0  0  0  0  0  0
   -0.6640   -2.5270   -0.8920 H   0  0  0  0  0  0  0  0  0  0  0  0
   -0.8200    0.5170   -1.1800 H   0  0  0  0  0  0  0  0  0  0  0  0
  1  9  1  0  0  0  0
  1 10  1  0  0  0  0
  2  1  1  0  0  0  0
  3  2  1  0  0  0  0
  4  5  1  0  0  0  0
  4 14  1  0  0  0  0
  4  3  1  0  0  0  0
  5 16  1  6  0  0  0
  5  6  1  0  0  0  0
  6 17  1  0  0  0  0
  6 18  1  0  0  0  0
  7 19  1  0  0  0  0
  7  5  1  0  0  0  0
  8  7  2  0  0  0  0
 11  1  1  0  0  0  0
 12  3  1  0  0  0  0
 13  3  1  0  0  0  0
 15  4  1  0  0  0  0
 19 27  1  0  0  0  0
 20 28  1  1  0  0  0
 20 19  1  0  0  0  0
 21 29  1  0  0  0  0
 21 20  1  0  0  0  0
 22 26  1  0  0  0  0
 22 21  1  0  0  0  0
 23 22  2  0  0  0  0
 24 25  2  0  0  0  0
 24 20  1  0  0  0  0
 30 21  1  0  0  0  0
 31 26  1  0  0  0  0
 32 44  1  0  0  0  0
 32 33  1  0  0  0  0
 33 34  2  0  0  0  0
 34 46  1  0  0  0  0
 35 33  1  0  0  0  0
 35 36  1  0  0  0  0
 36 49  1  0  0  0  0
 37 36  1  0  0  0  0
 37 50  1  0  0  0  0
 37 38  1  0  0  0  0
 38 52  1  0  0  0  0
 39 38  1  0  0  0  0
 39 54  1  1  0  0  0
 39 40  1  0  0  0  0
 40 24  1  0  0  0  0
 41 39  1  0  0  0  0
 42 41  1  0  0  0  0
 43 41  2  0  0  0  0
 45 32  1  0  0  0  0
 47 35  1  0  0  0  0
 48 36  1  0  0  0  0
 51 37  1  0  0  0  0
 53 38  1  0  0  0  0
 55 40  1  0  0  0  0
M  END
$$$$
