MDS.pdb
 OpenBabel07022418543D

 43 42  0  0  1  0  0  0  0  0999 V2000
   -0.5430   -2.2110   -2.3630 C   0  0  0  0  0  0  0  0  0  0  0  0
   -0.5750   -3.5250   -1.1870 S   0  0  0  0  0  0  0  0  0  0  0  0
    0.4650   -3.4540    0.2350 C   0  0  0  0  0  0  0  0  0  0  0  0
    1.9330   -3.5610    0.0290 C   0  0  0  0  0  0  0  0  0  0  0  0
    2.4960   -2.4180   -0.7620 C   0  0  2  0  0  0  0  0  0  0  0  0
    3.9710   -2.7600   -0.9040 N   0  0  0  0  0  0  0  0  0  0  0  0
    2.5490   -1.1310   -0.0600 C   0  0  0  0  0  0  0  0  0  0  0  0
    3.6480   -0.7100    0.4090 O   0  0  0  0  0  0  0  0  0  0  0  0
   -0.6410   -1.1900   -1.9820 H   0  0  0  0  0  0  0  0  0  0  0  0
   -1.4710   -2.3260   -3.0330 H   0  0  0  0  0  0  0  0  0  0  0  0
    0.2790   -2.3410   -3.1050 H   0  0  0  0  0  0  0  0  0  0  0  0
    0.1770   -4.3250    0.9040 H   0  0  0  0  0  0  0  0  0  0  0  0
    0.2420   -2.5730    0.9140 H   0  0  0  0  0  0  0  0  0  0  0  0
    2.1110   -4.5030   -0.5800 H   0  0  0  0  0  0  0  0  0  0  0  0
    2.4850   -3.6970    1.0040 H   0  0  0  0  0  0  0  0  0  0  0  0
    2.1590   -2.4230   -1.7810 H   0  0  0  0  0  0  0  0  0  0  0  0
    4.3070   -2.6600    0.0770 H   0  0  0  0  0  0  0  0  0  0  0  0
    4.3750   -1.9590   -1.4740 H   0  0  0  0  0  0  0  0  0  0  0  0
    1.5080   -0.2160    0.1950 N   0  0  0  0  0  0  0  0  0  0  0  0
    1.6650    1.0160    0.8790 C   0  0  1  0  0  0  0  0  0  0  0  0
    1.7230    2.2530    0.0610 C   0  0  0  0  0  0  0  0  0  0  0  0
    0.4830    2.4460   -0.7430 C   0  0  0  0  0  0  0  0  0  0  0  0
   -0.4220    1.5780   -0.6240 O   0  0  0  0  0  0  0  0  0  0  0  0
    0.6420    1.2020    1.9120 C   0  0  0  0  0  0  0  0  0  0  0  0
    0.7060    2.2230    2.6740 O   0  0  0  0  0  0  0  0  0  0  0  0
    0.2990    3.5230   -1.5930 O   0  0  0  0  0  0  0  0  0  0  0  0
    0.5650   -0.4780   -0.1450 H   0  0  0  0  0  0  0  0  0  0  0  0
    2.6440    0.9680    1.4090 H   0  0  0  0  0  0  0  0  0  0  0  0
    1.7890    3.1380    0.7330 H   0  0  0  0  0  0  0  0  0  0  0  0
    2.5380    2.3440   -0.6430 H   0  0  0  0  0  0  0  0  0  0  0  0
   -0.4610    3.4780   -2.2550 H   0  0  0  0  0  0  0  0  0  0  0  0
   -2.7520    2.0120    1.8460 O   0  0  0  0  0  0  0  0  0  0  0  0
   -2.7850    0.9180    2.7010 C   0  0  0  0  0  0  0  0  0  0  0  0
   -1.3930    0.6390    3.2200 C   0  0  2  0  0  0  0  0  0  0  0  0
   -0.4550    0.3390    2.1660 N   0  0  0  0  0  0  0  0  0  0  0  0
   -1.4250   -0.4150    4.2590 C   0  0  0  0  0  0  0  0  0  0  0  0
   -0.6860   -1.4090    4.1320 O   0  0  0  0  0  0  0  0  0  0  0  0
   -2.2510   -0.3210    5.3580 O   0  0  0  0  0  0  0  0  0  0  0  0
   -3.4030    2.7090    2.0650 H   0  0  0  0  0  0  0  0  0  0  0  0
   -3.2630    0.0350    2.2360 H   0  0  0  0  0  0  0  0  0  0  0  0
   -3.4080    1.1990    3.5740 H   0  0  0  0  0  0  0  0  0  0  0  0
   -1.0970    1.5860    3.7500 H   0  0  0  0  0  0  0  0  0  0  0  0
   -0.6170   -0.5230    1.5990 H   0  0  0  0  0  0  0  0  0  0  0  0
  1  9  1  0  0  0  0
  1  2  1  0  0  0  0
  2  3  1  0  0  0  0
  3 12  1  0  0  0  0
  3 13  1  0  0  0  0
  4  3  1  0  0  0  0
  4 15  1  0  0  0  0
  5 16  1  6  0  0  0
  5  7  1  0  0  0  0
  5  4  1  0  0  0  0
  6  5  1  0  0  0  0
  6 17  1  0  0  0  0
  7 19  1  0  0  0  0
  7  8  2  0  0  0  0
 10  1  1  0  0  0  0
 11  1  1  0  0  0  0
 14  4  1  0  0  0  0
 18  6  1  0  0  0  0
 19 20  1  0  0  0  0
 20 28  1  1  0  0  0
 20 24  1  0  0  0  0
 21 29  1  0  0  0  0
 21 20  1  0  0  0  0
 22 23  2  0  0  0  0
 22 21  1  0  0  0  0
 24 35  1  0  0  0  0
 24 25  2  0  0  0  0
 26 22  1  0  0  0  0
 27 19  1  0  0  0  0
 30 21  1  0  0  0  0
 31 26  1  0  0  0  0
 32 39  1  0  0  0  0
 32 33  1  0  0  0  0
 33 34  1  0  0  0  0
 33 41  1  0  0  0  0
 34 42  1  1  0  0  0
 34 36  1  0  0  0  0
 35 34  1  0  0  0  0
 36 38  1  0  0  0  0
 37 36  2  0  0  0  0
 40 33  1  0  0  0  0
 43 35  1  0  0  0  0
M  END
$$$$
