MDT.pdb
 OpenBabel07022418543D

 46 45  0  0  1  0  0  0  0  0999 V2000
    3.1650   -6.6180    0.8490 C   0  0  0  0  0  0  0  0  0  0  0  0
    3.6160   -5.2380    1.9100 S   0  0  0  0  0  0  0  0  0  0  0  0
    2.1520   -4.1390    2.0380 C   0  0  0  0  0  0  0  0  0  0  0  0
    1.8550   -3.5170    0.6920 C   0  0  0  0  0  0  0  0  0  0  0  0
    0.6550   -2.6030    0.7090 C   0  0  2  0  0  0  0  0  0  0  0  0
    0.5050   -2.0900   -0.6560 N   0  0  0  0  0  0  0  0  0  0  0  0
    0.7940   -1.4820    1.6660 C   0  0  0  0  0  0  0  0  0  0  0  0
    0.8840   -1.6410    2.9090 O   0  0  0  0  0  0  0  0  0  0  0  0
    2.3410   -7.2330    1.2780 H   0  0  0  0  0  0  0  0  0  0  0  0
    2.7950   -6.2280   -0.1210 H   0  0  0  0  0  0  0  0  0  0  0  0
    4.0420   -7.2960    0.6730 H   0  0  0  0  0  0  0  0  0  0  0  0
    2.3990   -3.3760    2.7800 H   0  0  0  0  0  0  0  0  0  0  0  0
    1.2640   -4.7590    2.3120 H   0  0  0  0  0  0  0  0  0  0  0  0
    2.7460   -2.8960    0.3960 H   0  0  0  0  0  0  0  0  0  0  0  0
    1.7510   -4.2800   -0.1010 H   0  0  0  0  0  0  0  0  0  0  0  0
   -0.2480   -3.2030    0.9050 H   0  0  0  0  0  0  0  0  0  0  0  0
    0.3170   -2.9440   -1.2530 H   0  0  0  0  0  0  0  0  0  0  0  0
   -0.3640   -1.5040   -0.7440 H   0  0  0  0  0  0  0  0  0  0  0  0
    0.8340   -0.1120    1.2110 N   0  0  0  0  0  0  0  0  0  0  0  0
    0.9670    0.9940    2.1160 C   0  0  1  0  0  0  0  0  0  0  0  0
    2.2390    1.7820    1.9240 C   0  0  0  0  0  0  0  0  0  0  0  0
    2.3590    2.3640    0.5750 C   0  0  0  0  0  0  0  0  0  0  0  0
    1.5000    2.2240   -0.3290 O   0  0  0  0  0  0  0  0  0  0  0  0
   -0.2440    1.8190    2.0620 C   0  0  0  0  0  0  0  0  0  0  0  0
   -0.4150    2.8650    2.7450 O   0  0  0  0  0  0  0  0  0  0  0  0
    3.5010    3.1100    0.3070 O   0  0  0  0  0  0  0  0  0  0  0  0
    0.7600    0.0130    0.1780 H   0  0  0  0  0  0  0  0  0  0  0  0
    1.0250    0.6020    3.1760 H   0  0  0  0  0  0  0  0  0  0  0  0
    3.0930    1.1250    2.1620 H   0  0  0  0  0  0  0  0  0  0  0  0
    2.2310    2.5830    2.7010 H   0  0  0  0  0  0  0  0  0  0  0  0
    3.6690    3.6120   -0.5450 H   0  0  0  0  0  0  0  0  0  0  0  0
   -2.6440    1.3030   -1.2280 C   0  0  0  0  0  0  0  0  0  0  0  0
   -2.6710    2.5700   -0.3960 C   0  0  1  0  0  0  0  0  0  0  0  0
   -3.8520    3.2790   -0.6160 O   0  0  0  0  0  0  0  0  0  0  0  0
   -2.5340    2.1620    1.0550 C   0  0  2  0  0  0  0  0  0  0  0  0
   -1.3020    1.4420    1.2000 N   0  0  0  0  0  0  0  0  0  0  0  0
   -3.7220    1.3550    1.4100 C   0  0  0  0  0  0  0  0  0  0  0  0
   -4.8440    1.9150    1.3100 O   0  0  0  0  0  0  0  0  0  0  0  0
   -3.6920    0.0440    1.8370 O   0  0  0  0  0  0  0  0  0  0  0  0
   -1.6650    1.1550   -1.7240 H   0  0  0  0  0  0  0  0  0  0  0  0
   -3.4740    1.3060   -1.9720 H   0  0  0  0  0  0  0  0  0  0  0  0
   -2.8230    0.3890   -0.6050 H   0  0  0  0  0  0  0  0  0  0  0  0
   -1.7660    3.1690   -0.6480 H   0  0  0  0  0  0  0  0  0  0  0  0
   -4.5470    2.6380   -0.9470 H   0  0  0  0  0  0  0  0  0  0  0  0
   -2.5740    3.0760    1.6910 H   0  0  0  0  0  0  0  0  0  0  0  0
   -1.1960    0.5730    0.6120 H   0  0  0  0  0  0  0  0  0  0  0  0
  1  9  1  0  0  0  0
  1  2  1  0  0  0  0
  2  3  1  0  0  0  0
  3 13  1  0  0  0  0
  3 12  1  0  0  0  0
  4  5  1  0  0  0  0
  4  3  1  0  0  0  0
  5 16  1  1  0  0  0
  5  7  1  0  0  0  0
  6  5  1  0  0  0  0
  7  8  2  0  0  0  0
 10  1  1  0  0  0  0
 11  1  1  0  0  0  0
 14  4  1  0  0  0  0
 15  4  1  0  0  0  0
 17  6  1  0  0  0  0
 18  6  1  0  0  0  0
 19  7  1  0  0  0  0
 19 20  1  0  0  0  0
 20 28  1  1  0  0  0
 21 20  1  0  0  0  0
 21 29  1  0  0  0  0
 21 30  1  0  0  0  0
 22 21  1  0  0  0  0
 23 22  2  0  0  0  0
 24 20  1  0  0  0  0
 24 25  2  0  0  0  0
 26 22  1  0  0  0  0
 27 19  1  0  0  0  0
 31 26  1  0  0  0  0
 32 42  1  0  0  0  0
 32 33  1  0  0  0  0
 33 43  1  6  0  0  0
 33 35  1  0  0  0  0
 34 33  1  0  0  0  0
 35 36  1  0  0  0  0
 35 37  1  0  0  0  0
 35 45  1  1  0  0  0
 36 24  1  0  0  0  0
 37 39  1  0  0  0  0
 38 37  2  0  0  0  0
 40 32  1  0  0  0  0
 41 32  1  0  0  0  0
 44 34  1  0  0  0  0
 46 36  1  0  0  0  0
M  END
$$$$
