MDV.pdb
 OpenBabel07022418543D

 48 47  0  0  1  0  0  0  0  0999 V2000
    1.6960   -4.4310    3.5280 C   0  0  0  0  0  0  0  0  0  0  0  0
    3.4210   -4.5800    3.1340 S   0  0  0  0  0  0  0  0  0  0  0  0
    4.1680   -3.2020    2.2790 C   0  0  0  0  0  0  0  0  0  0  0  0
    3.6770   -2.9480    0.9010 C   0  0  0  0  0  0  0  0  0  0  0  0
    2.2450   -2.5700    0.7520 C   0  0  2  0  0  0  0  0  0  0  0  0
    2.0270   -2.4170   -0.7100 N   0  0  0  0  0  0  0  0  0  0  0  0
    1.9240   -1.2760    1.4080 C   0  0  0  0  0  0  0  0  0  0  0  0
    2.1420   -1.1270    2.6170 O   0  0  0  0  0  0  0  0  0  0  0  0
    1.3050   -3.4290    3.6900 H   0  0  0  0  0  0  0  0  0  0  0  0
    1.1150   -4.9960    2.7380 H   0  0  0  0  0  0  0  0  0  0  0  0
    1.4470   -5.0070    4.4780 H   0  0  0  0  0  0  0  0  0  0  0  0
    5.2690   -3.4450    2.1790 H   0  0  0  0  0  0  0  0  0  0  0  0
    4.1610   -2.3000    2.9300 H   0  0  0  0  0  0  0  0  0  0  0  0
    4.3120   -2.2360    0.3340 H   0  0  0  0  0  0  0  0  0  0  0  0
    3.8000   -3.9220    0.3380 H   0  0  0  0  0  0  0  0  0  0  0  0
    1.5410   -3.3550    1.0720 H   0  0  0  0  0  0  0  0  0  0  0  0
    2.5500   -3.2090   -1.1460 H   0  0  0  0  0  0  0  0  0  0  0  0
    0.9900   -2.5020   -0.9110 H   0  0  0  0  0  0  0  0  0  0  0  0
    1.3710   -0.2140    0.6580 N   0  0  0  0  0  0  0  0  0  0  0  0
    1.0470    1.0470    1.2460 C   0  0  1  0  0  0  0  0  0  0  0  0
    1.7840    2.2230    0.6750 C   0  0  0  0  0  0  0  0  0  0  0  0
    1.5500    2.4290   -0.7630 C   0  0  0  0  0  0  0  0  0  0  0  0
    0.7960    1.6750   -1.4130 O   0  0  0  0  0  0  0  0  0  0  0  0
   -0.4380    1.2920    1.2550 C   0  0  0  0  0  0  0  0  0  0  0  0
   -0.8820    2.3620    1.7430 O   0  0  0  0  0  0  0  0  0  0  0  0
    2.1720    3.4740   -1.4120 O   0  0  0  0  0  0  0  0  0  0  0  0
    1.1950   -0.3720   -0.3750 H   0  0  0  0  0  0  0  0  0  0  0  0
    1.3210    0.9980    2.3310 H   0  0  0  0  0  0  0  0  0  0  0  0
    2.8710    2.1410    0.9060 H   0  0  0  0  0  0  0  0  0  0  0  0
    1.4450    3.1140    1.2820 H   0  0  0  0  0  0  0  0  0  0  0  0
    2.2600    3.4800   -2.4150 H   0  0  0  0  0  0  0  0  0  0  0  0
   -3.1160   -0.4970   -1.4440 C   0  0  0  0  0  0  0  0  0  0  0  0
   -3.3340    0.7580   -0.6540 C   0  0  0  0  0  0  0  0  0  0  0  0
   -4.8120    1.0640   -0.6500 C   0  0  0  0  0  0  0  0  0  0  0  0
   -2.7930    0.6380    0.7620 C   0  0  2  0  0  0  0  0  0  0  0  0
   -1.3690    0.3720    0.7380 N   0  0  0  0  0  0  0  0  0  0  0  0
   -3.5370   -0.3720    1.5360 C   0  0  0  0  0  0  0  0  0  0  0  0
   -2.9200   -1.3140    2.0720 O   0  0  0  0  0  0  0  0  0  0  0  0
   -4.9040   -0.2960    1.6790 O   0  0  0  0  0  0  0  0  0  0  0  0
   -2.4560   -0.2650   -2.3020 H   0  0  0  0  0  0  0  0  0  0  0  0
   -2.5610   -1.2520   -0.8330 H   0  0  0  0  0  0  0  0  0  0  0  0
   -4.0530   -0.9090   -1.8700 H   0  0  0  0  0  0  0  0  0  0  0  0
   -2.8020    1.6220   -1.1110 H   0  0  0  0  0  0  0  0  0  0  0  0
   -5.1210    1.5550   -1.5890 H   0  0  0  0  0  0  0  0  0  0  0  0
   -5.0940    1.6820    0.2500 H   0  0  0  0  0  0  0  0  0  0  0  0
   -5.3930    0.1110   -0.5720 H   0  0  0  0  0  0  0  0  0  0  0  0
   -2.9800    1.6370    1.2380 H   0  0  0  0  0  0  0  0  0  0  0  0
   -1.0070   -0.5120    0.3350 H   0  0  0  0  0  0  0  0  0  0  0  0
  1  9  1  0  0  0  0
  1 11  1  0  0  0  0
  2  1  1  0  0  0  0
  3 13  1  0  0  0  0
  3  2  1  0  0  0  0
  4  3  1  0  0  0  0
  5  4  1  0  0  0  0
  5 16  1  1  0  0  0
  5  7  1  0  0  0  0
  6  5  1  0  0  0  0
  7  8  2  0  0  0  0
 10  1  1  0  0  0  0
 12  3  1  0  0  0  0
 14  4  1  0  0  0  0
 15  4  1  0  0  0  0
 17  6  1  0  0  0  0
 18  6  1  0  0  0  0
 19 20  1  0  0  0  0
 19  7  1  0  0  0  0
 20 24  1  0  0  0  0
 20 28  1  1  0  0  0
 21 29  1  0  0  0  0
 21 20  1  0  0  0  0
 21 30  1  0  0  0  0
 22 21  1  0  0  0  0
 23 22  2  0  0  0  0
 24 25  2  0  0  0  0
 26 22  1  0  0  0  0
 27 19  1  0  0  0  0
 31 26  1  0  0  0  0
 32 41  1  0  0  0  0
 32 33  1  0  0  0  0
 33 34  1  0  0  0  0
 33 35  1  0  0  0  0
 34 46  1  0  0  0  0
 34 45  1  0  0  0  0
 35 47  1  1  0  0  0
 35 37  1  0  0  0  0
 36 35  1  0  0  0  0
 36 24  1  0  0  0  0
 37 39  2  0  0  0  0
 37 38  1  0  0  0  0
 40 32  1  0  0  0  0
 42 32  1  0  0  0  0
 43 33  1  0  0  0  0
 44 34  1  0  0  0  0
 48 36  1  0  0  0  0
M  END
$$$$
