MDW.pdb
 OpenBabel07022418543D

 56 57  0  0  1  0  0  0  0  0999 V2000
   -2.2860   -2.3210    2.8730 C   0  0  0  0  0  0  0  0  0  0  0  0
   -1.1870   -1.3200    3.9050 S   0  0  0  0  0  0  0  0  0  0  0  0
    0.2590   -0.7250    2.9360 C   0  0  0  0  0  0  0  0  0  0  0  0
    1.1110    0.1040    3.8510 C   0  0  0  0  0  0  0  0  0  0  0  0
    2.3490    0.6610    3.1770 C   0  0  2  0  0  0  0  0  0  0  0  0
    3.0730    1.4560    4.2080 N   0  0  0  0  0  0  0  0  0  0  0  0
    2.0830    1.5980    2.0920 C   0  0  0  0  0  0  0  0  0  0  0  0
    2.0980    2.8700    2.2520 O   0  0  0  0  0  0  0  0  0  0  0  0
   -2.0710   -2.0510    1.8230 H   0  0  0  0  0  0  0  0  0  0  0  0
   -2.1100   -3.3960    2.9950 H   0  0  0  0  0  0  0  0  0  0  0  0
   -3.3540   -2.0540    3.0380 H   0  0  0  0  0  0  0  0  0  0  0  0
    0.7860   -1.6060    2.5300 H   0  0  0  0  0  0  0  0  0  0  0  0
   -0.1330   -0.0920    2.1010 H   0  0  0  0  0  0  0  0  0  0  0  0
    0.5770    0.9190    4.3360 H   0  0  0  0  0  0  0  0  0  0  0  0
    1.5030   -0.6030    4.6410 H   0  0  0  0  0  0  0  0  0  0  0  0
    3.0130   -0.1840    2.9480 H   0  0  0  0  0  0  0  0  0  0  0  0
    3.4790    0.7570    4.8490 H   0  0  0  0  0  0  0  0  0  0  0  0
    3.8810    1.8950    3.6820 H   0  0  0  0  0  0  0  0  0  0  0  0
    1.7840    1.1930    0.7380 N   0  0  0  0  0  0  0  0  0  0  0  0
    1.5310    2.1700   -0.2760 C   0  0  1  0  0  0  0  0  0  0  0  0
    2.7060    2.4610   -1.1800 C   0  0  0  0  0  0  0  0  0  0  0  0
    3.1990    1.2910   -1.9280 C   0  0  0  0  0  0  0  0  0  0  0  0
    4.1860    1.4230   -2.7130 O   0  0  0  0  0  0  0  0  0  0  0  0
    0.4180    1.7240   -1.1270 C   0  0  0  0  0  0  0  0  0  0  0  0
    0.0040    2.4540   -2.1040 O   0  0  0  0  0  0  0  0  0  0  0  0
    2.6700    0.0150   -1.8550 O   0  0  0  0  0  0  0  0  0  0  0  0
    1.7670    0.1660    0.5590 H   0  0  0  0  0  0  0  0  0  0  0  0
    1.2690    3.1580    0.2300 H   0  0  0  0  0  0  0  0  0  0  0  0
    3.5640    2.8980   -0.6390 H   0  0  0  0  0  0  0  0  0  0  0  0
    2.3780    3.2160   -1.9170 H   0  0  0  0  0  0  0  0  0  0  0  0
    2.8610   -0.7020   -2.5310 H   0  0  0  0  0  0  0  0  0  0  0  0
   -0.3010    0.5050   -0.9890 N   0  0  0  0  0  0  0  0  0  0  0  0
   -1.4040    0.1680   -1.9020 C   0  0  1  0  0  0  0  0  0  0  0  0
   -1.0350   -1.1520   -2.5090 C   0  0  0  0  0  0  0  0  0  0  0  0
   -0.8490   -2.2700   -1.5590 C   0  0  0  0  0  0  0  0  0  0  0  0
    0.3600   -2.6830   -0.9980 C   0  0  0  0  0  0  0  0  0  0  0  0
    0.1360   -3.6970   -0.1570 N   0  0  0  0  0  0  0  0  0  0  0  0
   -1.1850   -3.9930   -0.1250 C   0  0  0  0  0  0  0  0  0  0  0  0
   -1.8900   -4.9690    0.5830 C   0  0  0  0  0  0  0  0  0  0  0  0
   -3.2490   -5.0850    0.4320 C   0  0  0  0  0  0  0  0  0  0  0  0
   -3.8660   -4.2120   -0.4320 C   0  0  0  0  0  0  0  0  0  0  0  0
   -3.1590   -3.2430   -1.1330 C   0  0  0  0  0  0  0  0  0  0  0  0
   -1.7870   -3.1080   -0.9930 C   0  0  0  0  0  0  0  0  0  0  0  0
   -2.6920    0.0860   -1.2000 C   0  0  0  0  0  0  0  0  0  0  0  0
   -2.7850    0.1030    0.0510 O   0  0  0  0  0  0  0  0  0  0  0  0
   -3.8430   -0.0080   -1.9640 O   0  0  0  0  0  0  0  0  0  0  0  0
   -0.0690   -0.1620   -0.2610 H   0  0  0  0  0  0  0  0  0  0  0  0
   -1.4620    0.9370   -2.7160 H   0  0  0  0  0  0  0  0  0  0  0  0
   -1.7990   -1.4590   -3.2650 H   0  0  0  0  0  0  0  0  0  0  0  0
   -0.0820   -1.0950   -3.0930 H   0  0  0  0  0  0  0  0  0  0  0  0
    1.2920   -2.2130   -1.2510 H   0  0  0  0  0  0  0  0  0  0  0  0
    0.8420   -4.2260    0.4200 H   0  0  0  0  0  0  0  0  0  0  0  0
   -1.3640   -5.6330    1.2490 H   0  0  0  0  0  0  0  0  0  0  0  0
   -3.8340   -5.8390    0.9720 H   0  0  0  0  0  0  0  0  0  0  0  0
   -4.9310   -4.2940   -0.5580 H   0  0  0  0  0  0  0  0  0  0  0  0
   -3.6460   -2.5800   -1.8210 H   0  0  0  0  0  0  0  0  0  0  0  0
  1 10  1  0  0  0  0
  1 11  1  0  0  0  0
  1  2  1  0  0  0  0
  3  4  1  0  0  0  0
  3  2  1  0  0  0  0
  4 14  1  0  0  0  0
  4 15  1  0  0  0  0
  5 16  1  6  0  0  0
  5  4  1  0  0  0  0
  5  6  1  0  0  0  0
  6 17  1  0  0  0  0
  7  8  2  0  0  0  0
  7  5  1  0  0  0  0
  9  1  1  0  0  0  0
 12  3  1  0  0  0  0
 13  3  1  0  0  0  0
 18  6  1  0  0  0  0
 19  7  1  0  0  0  0
 20 28  1  1  0  0  0
 20 19  1  0  0  0  0
 21 29  1  0  0  0  0
 21 20  1  0  0  0  0
 22 26  1  0  0  0  0
 22 21  1  0  0  0  0
 23 22  2  0  0  0  0
 24 32  1  0  0  0  0
 24 20  1  0  0  0  0
 25 24  2  0  0  0  0
 27 19  1  0  0  0  0
 30 21  1  0  0  0  0
 31 26  1  0  0  0  0
 32 47  1  0  0  0  0
 33 48  1  6  0  0  0
 33 44  1  0  0  0  0
 33 32  1  0  0  0  0
 34 33  1  0  0  0  0
 34 35  1  0  0  0  0
 35 36  2  0  0  0  0
 35 43  1  0  0  0  0
 36 37  1  0  0  0  0
 37 38  1  0  0  0  0
 37 52  1  0  0  0  0
 38 39  1  0  0  0  0
 39 53  1  0  0  0  0
 40 39  2  0  0  0  0
 40 54  1  0  0  0  0
 41 40  1  0  0  0  0
 42 43  1  0  0  0  0
 42 41  2  0  0  0  0
 43 38  2  0  0  0  0
 44 45  1  0  0  0  0
 46 44  2  0  0  0  0
 49 34  1  0  0  0  0
 50 34  1  0  0  0  0
 51 36  1  0  0  0  0
 55 41  1  0  0  0  0
 56 42  1  0  0  0  0
M  END
$$$$
