MDY.pdb
 OpenBabel07022418543D

 53 53  0  0  1  0  0  0  0  0999 V2000
   -0.2810   -2.6880    5.4350 C   0  0  0  0  0  0  0  0  0  0  0  0
    1.4700   -2.5580    5.0970 S   0  0  0  0  0  0  0  0  0  0  0  0
    1.9000   -2.7210    3.3740 C   0  0  0  0  0  0  0  0  0  0  0  0
    1.4020   -1.6190    2.4950 C   0  0  0  0  0  0  0  0  0  0  0  0
    1.9090   -0.2580    2.8660 C   0  0  2  0  0  0  0  0  0  0  0  0
    1.5620    0.1660    4.1920 N   0  0  0  0  0  0  0  0  0  0  0  0
    1.4820    0.7860    1.8990 C   0  0  0  0  0  0  0  0  0  0  0  0
    0.9200    1.8600    2.3080 O   0  0  0  0  0  0  0  0  0  0  0  0
   -0.3960   -2.9360    6.5190 H   0  0  0  0  0  0  0  0  0  0  0  0
   -0.8020   -3.4870    4.8710 H   0  0  0  0  0  0  0  0  0  0  0  0
   -0.8460   -1.7540    5.2900 H   0  0  0  0  0  0  0  0  0  0  0  0
    3.0220   -2.8120    3.3030 H   0  0  0  0  0  0  0  0  0  0  0  0
    1.5250   -3.6980    3.0100 H   0  0  0  0  0  0  0  0  0  0  0  0
    0.2990   -1.6530    2.4590 H   0  0  0  0  0  0  0  0  0  0  0  0
    1.7470   -1.8270    1.4590 H   0  0  0  0  0  0  0  0  0  0  0  0
    3.0390   -0.2450    2.8240 H   0  0  0  0  0  0  0  0  0  0  0  0
    1.1710    1.1140    4.2270 H   0  0  0  0  0  0  0  0  0  0  0  0
    2.3390   -0.0160    4.8600 H   0  0  0  0  0  0  0  0  0  0  0  0
    1.6850    0.6210    0.4970 N   0  0  0  0  0  0  0  0  0  0  0  0
    1.2970    1.5900   -0.4700 C   0  0  1  0  0  0  0  0  0  0  0  0
    2.5740    2.0690   -1.1770 C   0  0  0  0  0  0  0  0  0  0  0  0
    2.2740    3.0810   -2.1920 C   0  0  0  0  0  0  0  0  0  0  0  0
    1.6330    4.1410   -1.8480 O   0  0  0  0  0  0  0  0  0  0  0  0
    0.3490    1.0760   -1.5070 C   0  0  0  0  0  0  0  0  0  0  0  0
   -0.0190    1.8490   -2.4210 O   0  0  0  0  0  0  0  0  0  0  0  0
    2.6210    3.0120   -3.5420 O   0  0  0  0  0  0  0  0  0  0  0  0
    2.1450   -0.2740    0.1940 H   0  0  0  0  0  0  0  0  0  0  0  0
    0.8580    2.4790    0.0210 H   0  0  0  0  0  0  0  0  0  0  0  0
    3.0980    1.2200   -1.6730 H   0  0  0  0  0  0  0  0  0  0  0  0
    3.2770    2.5120   -0.4550 H   0  0  0  0  0  0  0  0  0  0  0  0
    1.9570    3.3200   -4.2600 H   0  0  0  0  0  0  0  0  0  0  0  0
   -3.4870   -3.9190    2.7120 O   0  0  0  0  0  0  0  0  0  0  0  0
   -3.2320   -3.2560    1.5180 C   0  0  0  0  0  0  0  0  0  0  0  0
   -3.0000   -1.9000    1.5710 C   0  0  0  0  0  0  0  0  0  0  0  0
   -2.7410   -1.1850    0.4110 C   0  0  0  0  0  0  0  0  0  0  0  0
   -2.7080   -1.8090   -0.8200 C   0  0  0  0  0  0  0  0  0  0  0  0
   -2.4430   -1.0190   -2.0190 C   0  0  0  0  0  0  0  0  0  0  0  0
   -1.0260   -0.8710   -2.4240 C   0  0  2  0  0  0  0  0  0  0  0  0
   -0.1460   -0.2480   -1.4960 N   0  0  0  0  0  0  0  0  0  0  0  0
   -0.9490   -0.4340   -3.8330 C   0  0  0  0  0  0  0  0  0  0  0  0
   -1.8380   -0.8710   -4.6310 O   0  0  0  0  0  0  0  0  0  0  0  0
   -2.9420   -3.1690   -0.8630 C   0  0  0  0  0  0  0  0  0  0  0  0
   -3.2010   -3.8870    0.2930 C   0  0  0  0  0  0  0  0  0  0  0  0
   -0.0090    0.3980   -4.3820 O   0  0  0  0  0  0  0  0  0  0  0  0
   -3.8980   -3.4140    3.4990 H   0  0  0  0  0  0  0  0  0  0  0  0
   -3.0160   -1.3750    2.5100 H   0  0  0  0  0  0  0  0  0  0  0  0
   -2.5710   -0.1230    0.5200 H   0  0  0  0  0  0  0  0  0  0  0  0
   -3.0070   -1.5040   -2.8760 H   0  0  0  0  0  0  0  0  0  0  0  0
   -2.8880    0.0160   -1.9710 H   0  0  0  0  0  0  0  0  0  0  0  0
   -0.5910   -1.9560   -2.5090 H   0  0  0  0  0  0  0  0  0  0  0  0
    0.2060   -0.8220   -0.6680 H   0  0  0  0  0  0  0  0  0  0  0  0
   -2.9290   -3.7160   -1.8160 H   0  0  0  0  0  0  0  0  0  0  0  0
   -3.3870   -4.9520    0.2750 H   0  0  0  0  0  0  0  0  0  0  0  0
  1  9  1  0  0  0  0
  2  1  1  0  0  0  0
  3  2  1  0  0  0  0
  4  5  1  0  0  0  0
  4  3  1  0  0  0  0
  5 16  1  6  0  0  0
  5  6  1  0  0  0  0
  6 17  1  0  0  0  0
  6 18  1  0  0  0  0
  7  8  2  0  0  0  0
  7  5  1  0  0  0  0
 10  1  1  0  0  0  0
 11  1  1  0  0  0  0
 12  3  1  0  0  0  0
 13  3  1  0  0  0  0
 14  4  1  0  0  0  0
 15  4  1  0  0  0  0
 19  7  1  0  0  0  0
 20 28  1  1  0  0  0
 20 19  1  0  0  0  0
 21 20  1  0  0  0  0
 21 30  1  0  0  0  0
 22 23  2  0  0  0  0
 22 21  1  0  0  0  0
 24 39  1  0  0  0  0
 24 20  1  0  0  0  0
 25 24  2  0  0  0  0
 26 22  1  0  0  0  0
 27 19  1  0  0  0  0
 29 21  1  0  0  0  0
 31 26  1  0  0  0  0
 32 45  1  0  0  0  0
 33 34  1  0  0  0  0
 33 32  1  0  0  0  0
 34 46  1  0  0  0  0
 35 47  1  0  0  0  0
 35 34  2  0  0  0  0
 36 35  1  0  0  0  0
 37 49  1  0  0  0  0
 37 36  1  0  0  0  0
 38 50  1  6  0  0  0
 38 37  1  0  0  0  0
 38 39  1  0  0  0  0
 39 51  1  0  0  0  0
 40 38  1  0  0  0  0
 41 40  2  0  0  0  0
 42 36  2  0  0  0  0
 42 43  1  0  0  0  0
 43 33  2  0  0  0  0
 44 40  1  0  0  0  0
 48 37  1  0  0  0  0
 52 42  1  0  0  0  0
 53 43  1  0  0  0  0
M  END
$$$$
