MEA.pdb
 OpenBabel07022418543D

 45 44  0  0  1  0  0  0  0  0999 V2000
    3.3680   -7.0150    2.0580 C   0  0  0  0  0  0  0  0  0  0  0  0
    3.4870   -5.3330    2.7650 S   0  0  0  0  0  0  0  0  0  0  0  0
    1.9290   -4.4370    2.3920 C   0  0  0  0  0  0  0  0  0  0  0  0
    1.8590   -4.2430    0.9190 C   0  0  0  0  0  0  0  0  0  0  0  0
    0.6460   -3.5300    0.4170 C   0  0  2  0  0  0  0  0  0  0  0  0
    0.7250   -3.4170   -1.0320 N   0  0  0  0  0  0  0  0  0  0  0  0
    0.4020   -2.2230    1.0530 C   0  0  0  0  0  0  0  0  0  0  0  0
    0.2800   -2.0630    2.2920 O   0  0  0  0  0  0  0  0  0  0  0  0
    4.3440   -7.5260    2.1160 H   0  0  0  0  0  0  0  0  0  0  0  0
    2.5360   -7.5700    2.5230 H   0  0  0  0  0  0  0  0  0  0  0  0
    3.1400   -6.9160    0.9580 H   0  0  0  0  0  0  0  0  0  0  0  0
    2.0630   -3.4340    2.8780 H   0  0  0  0  0  0  0  0  0  0  0  0
    1.1230   -5.0270    2.8210 H   0  0  0  0  0  0  0  0  0  0  0  0
    1.9690   -5.2350    0.4380 H   0  0  0  0  0  0  0  0  0  0  0  0
    2.7550   -3.6580    0.5780 H   0  0  0  0  0  0  0  0  0  0  0  0
   -0.2320   -4.2130    0.6100 H   0  0  0  0  0  0  0  0  0  0  0  0
   -0.2270   -3.4450   -1.4520 H   0  0  0  0  0  0  0  0  0  0  0  0
    1.3000   -4.2170   -1.4150 H   0  0  0  0  0  0  0  0  0  0  0  0
    0.2940   -1.0630    0.2590 N   0  0  0  0  0  0  0  0  0  0  0  0
    0.0470    0.2570    0.8970 C   0  0  1  0  0  0  0  0  0  0  0  0
    1.2540    1.0830    0.5190 C   0  0  0  0  0  0  0  0  0  0  0  0
    1.2900    2.4710    1.0190 C   0  0  0  0  0  0  0  0  0  0  0  0
    2.5950    3.0700    0.5410 C   0  0  0  0  0  0  0  0  0  0  0  0
    3.4060    2.4040   -0.1450 O   0  0  0  0  0  0  0  0  0  0  0  0
   -1.2050    0.7940    0.3340 C   0  0  0  0  0  0  0  0  0  0  0  0
   -1.7390    0.1940   -0.6640 O   0  0  0  0  0  0  0  0  0  0  0  0
    2.9450    4.3780    0.8400 O   0  0  0  0  0  0  0  0  0  0  0  0
    0.3850   -1.1270   -0.7700 H   0  0  0  0  0  0  0  0  0  0  0  0
   -0.0230    0.1420    1.9850 H   0  0  0  0  0  0  0  0  0  0  0  0
    1.3750    0.9950   -0.5880 H   0  0  0  0  0  0  0  0  0  0  0  0
    2.1550    0.5330    0.9200 H   0  0  0  0  0  0  0  0  0  0  0  0
    0.4510    3.0950    0.6430 H   0  0  0  0  0  0  0  0  0  0  0  0
    1.3410    2.4880    2.1230 H   0  0  0  0  0  0  0  0  0  0  0  0
    3.4420    4.9200    0.1320 H   0  0  0  0  0  0  0  0  0  0  0  0
   -4.3020    2.3440    1.1580 C   0  0  0  0  0  0  0  0  0  0  0  0
   -3.1310    2.4100    0.1890 C   0  0  2  0  0  0  0  0  0  0  0  0
   -1.9150    1.9270    0.7790 N   0  0  0  0  0  0  0  0  0  0  0  0
   -2.9650    3.8320   -0.1680 C   0  0  0  0  0  0  0  0  0  0  0  0
   -1.8760    4.4010    0.0730 O   0  0  0  0  0  0  0  0  0  0  0  0
   -3.9960    4.5690   -0.7730 O   0  0  0  0  0  0  0  0  0  0  0  0
   -3.9420    2.4640    2.2210 H   0  0  0  0  0  0  0  0  0  0  0  0
   -4.7040    1.3130    1.0950 H   0  0  0  0  0  0  0  0  0  0  0  0
   -5.0930    3.0480    0.9060 H   0  0  0  0  0  0  0  0  0  0  0  0
   -3.4440    1.7940   -0.6990 H   0  0  0  0  0  0  0  0  0  0  0  0
   -1.5480    2.4450    1.5970 H   0  0  0  0  0  0  0  0  0  0  0  0
  1  9  1  0  0  0  0
  1 10  1  0  0  0  0
  1  2  1  0  0  0  0
  3  2  1  0  0  0  0
  3 13  1  0  0  0  0
  3 12  1  0  0  0  0
  4  3  1  0  0  0  0
  5 16  1  1  0  0  0
  5  4  1  0  0  0  0
  5  7  1  0  0  0  0
  6  5  1  0  0  0  0
  7  8  2  0  0  0  0
 11  1  1  0  0  0  0
 14  4  1  0  0  0  0
 15  4  1  0  0  0  0
 17  6  1  0  0  0  0
 18  6  1  0  0  0  0
 19 20  1  0  0  0  0
 19  7  1  0  0  0  0
 20 29  1  1  0  0  0
 21 20  1  0  0  0  0
 21 31  1  0  0  0  0
 21 22  1  0  0  0  0
 22 33  1  0  0  0  0
 23 27  1  0  0  0  0
 23 22  1  0  0  0  0
 24 23  2  0  0  0  0
 25 37  1  0  0  0  0
 25 20  1  0  0  0  0
 26 25  2  0  0  0  0
 28 19  1  0  0  0  0
 30 21  1  0  0  0  0
 32 22  1  0  0  0  0
 34 27  1  0  0  0  0
 35 41  1  0  0  0  0
 36 44  1  6  0  0  0
 36 37  1  0  0  0  0
 36 35  1  0  0  0  0
 37 45  1  0  0  0  0
 38 39  1  0  0  0  0
 38 36  1  0  0  0  0
 40 38  2  0  0  0  0
 42 35  1  0  0  0  0
 43 35  1  0  0  0  0
M  END
$$$$
