MEC.pdb
 OpenBabel07022418543D

 46 45  0  0  1  0  0  0  0  0999 V2000
    1.1570   -6.9300   -1.7400 C   0  0  0  0  0  0  0  0  0  0  0  0
    2.2380   -5.8950   -0.7370 S   0  0  0  0  0  0  0  0  0  0  0  0
    1.2530   -4.6970    0.2560 C   0  0  0  0  0  0  0  0  0  0  0  0
    0.5650   -3.7180   -0.6360 C   0  0  0  0  0  0  0  0  0  0  0  0
   -0.2800   -2.7240    0.1070 C   0  0  2  0  0  0  0  0  0  0  0  0
   -0.9180   -1.8220   -0.8490 N   0  0  0  0  0  0  0  0  0  0  0  0
    0.5770   -1.9350    1.0400 C   0  0  0  0  0  0  0  0  0  0  0  0
    1.1800   -2.4380    2.0190 O   0  0  0  0  0  0  0  0  0  0  0  0
    0.7910   -7.7630   -1.0890 H   0  0  0  0  0  0  0  0  0  0  0  0
    1.8030   -7.4160   -2.5210 H   0  0  0  0  0  0  0  0  0  0  0  0
    0.3310   -6.3590   -2.2110 H   0  0  0  0  0  0  0  0  0  0  0  0
    2.0300   -4.2310    0.9260 H   0  0  0  0  0  0  0  0  0  0  0  0
    0.4920   -5.2150    0.8590 H   0  0  0  0  0  0  0  0  0  0  0  0
    1.2890   -3.1920   -1.3170 H   0  0  0  0  0  0  0  0  0  0  0  0
   -0.1220   -4.3060   -1.3080 H   0  0  0  0  0  0  0  0  0  0  0  0
   -1.0850   -3.2760    0.6180 H   0  0  0  0  0  0  0  0  0  0  0  0
   -1.7590   -1.4030   -0.3470 H   0  0  0  0  0  0  0  0  0  0  0  0
   -1.3550   -2.4520   -1.5720 H   0  0  0  0  0  0  0  0  0  0  0  0
    0.7510   -0.5320    0.8530 N   0  0  0  0  0  0  0  0  0  0  0  0
    1.5710    0.2790    1.7290 C   0  0  1  0  0  0  0  0  0  0  0  0
    2.7450    0.8520    1.0080 C   0  0  0  0  0  0  0  0  0  0  0  0
    2.4590    1.7120   -0.1610 C   0  0  0  0  0  0  0  0  0  0  0  0
    1.6710    2.9290    0.1080 C   0  0  0  0  0  0  0  0  0  0  0  0
    2.0190    3.7980    0.9470 O   0  0  0  0  0  0  0  0  0  0  0  0
    0.7050    1.2370    2.4250 C   0  0  0  0  0  0  0  0  0  0  0  0
    1.1870    2.0150    3.2750 O   0  0  0  0  0  0  0  0  0  0  0  0
    0.4910    3.1390   -0.5850 O   0  0  0  0  0  0  0  0  0  0  0  0
    0.2410   -0.1010    0.0270 H   0  0  0  0  0  0  0  0  0  0  0  0
    2.0150   -0.4660    2.4700 H   0  0  0  0  0  0  0  0  0  0  0  0
    3.4270    1.4220    1.7010 H   0  0  0  0  0  0  0  0  0  0  0  0
    3.3720   -0.0160    0.6630 H   0  0  0  0  0  0  0  0  0  0  0  0
    2.0420    1.1570   -1.0340 H   0  0  0  0  0  0  0  0  0  0  0  0
    3.4690    2.0620   -0.5480 H   0  0  0  0  0  0  0  0  0  0  0  0
    0.0580    4.0330   -0.7210 H   0  0  0  0  0  0  0  0  0  0  0  0
   -0.6830    1.2980    2.1540 N   0  0  0  0  0  0  0  0  0  0  0  0
   -1.5800    2.2260    2.8260 C   0  0  1  0  0  0  0  0  0  0  0  0
   -2.2880    3.0750    1.7940 C   0  0  0  0  0  0  0  0  0  0  0  0
   -3.4280    4.2500    2.5750 S   0  0  0  0  0  0  0  0  0  0  0  0
   -2.6610    1.4620    3.5450 C   0  0  0  0  0  0  0  0  0  0  0  0
   -2.6560    0.1870    3.4730 O   0  0  0  0  0  0  0  0  0  0  0  0
   -3.6510    2.0840    4.2750 O   0  0  0  0  0  0  0  0  0  0  0  0
   -1.0810    0.6290    1.4230 H   0  0  0  0  0  0  0  0  0  0  0  0
   -0.9970    2.8220    3.5360 H   0  0  0  0  0  0  0  0  0  0  0  0
   -1.5160    3.6550    1.2070 H   0  0  0  0  0  0  0  0  0  0  0  0
   -2.7830    2.4140    1.0550 H   0  0  0  0  0  0  0  0  0  0  0  0
   -4.3560    4.6610    1.6010 H   0  0  0  0  0  0  0  0  0  0  0  0
  1  9  1  0  0  0  0
  1  2  1  0  0  0  0
  2  3  1  0  0  0  0
  3 13  1  0  0  0  0
  3 12  1  0  0  0  0
  4  5  1  0  0  0  0
  4  3  1  0  0  0  0
  5 16  1  1  0  0  0
  5  7  1  0  0  0  0
  6 17  1  0  0  0  0
  6  5  1  0  0  0  0
  7  8  2  0  0  0  0
 10  1  1  0  0  0  0
 11  1  1  0  0  0  0
 14  4  1  0  0  0  0
 15  4  1  0  0  0  0
 18  6  1  0  0  0  0
 19  7  1  0  0  0  0
 19 20  1  0  0  0  0
 20 25  1  0  0  0  0
 20 29  1  1  0  0  0
 21 30  1  0  0  0  0
 21 20  1  0  0  0  0
 22 23  1  0  0  0  0
 22 21  1  0  0  0  0
 23 24  2  0  0  0  0
 25 26  2  0  0  0  0
 27 23  1  0  0  0  0
 28 19  1  0  0  0  0
 31 21  1  0  0  0  0
 32 22  1  0  0  0  0
 33 22  1  0  0  0  0
 34 27  1  0  0  0  0
 35 25  1  0  0  0  0
 35 36  1  0  0  0  0
 36 43  1  1  0  0  0
 36 39  1  0  0  0  0
 37 38  1  0  0  0  0
 37 36  1  0  0  0  0
 39 41  1  0  0  0  0
 40 39  2  0  0  0  0
 42 35  1  0  0  0  0
 44 37  1  0  0  0  0
 45 37  1  0  0  0  0
 46 38  1  0  0  0  0
M  END
$$$$
