MEE.pdb
 OpenBabel07022418543D

 51 50  0  0  1  0  0  0  0  0999 V2000
    2.5540   -3.6670    3.9680 C   0  0  0  0  0  0  0  0  0  0  0  0
    2.8590   -4.2220    2.3010 S   0  0  0  0  0  0  0  0  0  0  0  0
    2.2800   -3.1790    1.0130 C   0  0  0  0  0  0  0  0  0  0  0  0
    2.9150   -1.8920    0.7340 C   0  0  0  0  0  0  0  0  0  0  0  0
    2.9830   -0.8320    1.7490 C   0  0  2  0  0  0  0  0  0  0  0  0
    3.6800   -1.1030    2.9580 N   0  0  0  0  0  0  0  0  0  0  0  0
    1.6460   -0.2090    2.0410 C   0  0  0  0  0  0  0  0  0  0  0  0
    1.3030   -0.0320    3.2500 O   0  0  0  0  0  0  0  0  0  0  0  0
    3.5120   -3.3940    4.4460 H   0  0  0  0  0  0  0  0  0  0  0  0
    2.1390   -4.5300    4.5570 H   0  0  0  0  0  0  0  0  0  0  0  0
    1.8340   -2.8140    4.0280 H   0  0  0  0  0  0  0  0  0  0  0  0
    1.1520   -3.0530    1.1520 H   0  0  0  0  0  0  0  0  0  0  0  0
    2.3030   -3.7860    0.0460 H   0  0  0  0  0  0  0  0  0  0  0  0
    2.3590   -1.4370   -0.1510 H   0  0  0  0  0  0  0  0  0  0  0  0
    3.9450   -2.0530    0.2670 H   0  0  0  0  0  0  0  0  0  0  0  0
    3.5510    0.0300    1.2710 H   0  0  0  0  0  0  0  0  0  0  0  0
    4.6820   -1.3550    2.7030 H   0  0  0  0  0  0  0  0  0  0  0  0
    3.6380   -0.2640    3.5590 H   0  0  0  0  0  0  0  0  0  0  0  0
    0.7340    0.1970    1.0510 N   0  0  0  0  0  0  0  0  0  0  0  0
   -0.5390    0.7920    1.3580 C   0  0  1  0  0  0  0  0  0  0  0  0
   -0.6570    2.2080    0.8320 C   0  0  0  0  0  0  0  0  0  0  0  0
    0.4320    3.0790    1.4560 C   0  0  0  0  0  0  0  0  0  0  0  0
    0.3370    4.4760    0.9550 C   0  0  0  0  0  0  0  0  0  0  0  0
    1.1510    5.3450    1.3580 O   0  0  0  0  0  0  0  0  0  0  0  0
   -1.5940   -0.0580    0.7890 C   0  0  0  0  0  0  0  0  0  0  0  0
   -2.7840    0.2900    0.9380 O   0  0  0  0  0  0  0  0  0  0  0  0
   -0.6230    4.8930    0.0420 O   0  0  0  0  0  0  0  0  0  0  0  0
    1.0000    0.0580    0.0500 H   0  0  0  0  0  0  0  0  0  0  0  0
   -0.7160    0.8700    2.4560 H   0  0  0  0  0  0  0  0  0  0  0  0
   -1.6240    2.6070    1.2020 H   0  0  0  0  0  0  0  0  0  0  0  0
   -0.6670    2.2800   -0.2550 H   0  0  0  0  0  0  0  0  0  0  0  0
    1.4440    2.7150    1.1820 H   0  0  0  0  0  0  0  0  0  0  0  0
    0.3720    3.0560    2.5590 H   0  0  0  0  0  0  0  0  0  0  0  0
   -0.3640    5.4960   -0.7410 H   0  0  0  0  0  0  0  0  0  0  0  0
   -1.2820   -1.2400    0.0900 N   0  0  0  0  0  0  0  0  0  0  0  0
   -2.3100   -2.1040   -0.4870 C   0  0  1  0  0  0  0  0  0  0  0  0
   -2.1380   -2.2750   -1.9600 C   0  0  0  0  0  0  0  0  0  0  0  0
   -2.1950   -1.0340   -2.7700 C   0  0  0  0  0  0  0  0  0  0  0  0
   -3.4500   -0.2790   -2.6940 C   0  0  0  0  0  0  0  0  0  0  0  0
   -3.5720    0.8210   -3.3310 O   0  0  0  0  0  0  0  0  0  0  0  0
   -2.3100   -3.4350    0.1880 C   0  0  0  0  0  0  0  0  0  0  0  0
   -1.5120   -3.7090    1.1170 O   0  0  0  0  0  0  0  0  0  0  0  0
   -4.5570   -0.6740   -1.9620 O   0  0  0  0  0  0  0  0  0  0  0  0
   -3.2080   -4.4130   -0.2040 O   0  0  0  0  0  0  0  0  0  0  0  0
   -0.2830   -1.5570   -0.0490 H   0  0  0  0  0  0  0  0  0  0  0  0
   -3.2890   -1.6530   -0.2880 H   0  0  0  0  0  0  0  0  0  0  0  0
   -1.1990   -2.8140   -2.2260 H   0  0  0  0  0  0  0  0  0  0  0  0
   -2.9580   -2.9510   -2.3320 H   0  0  0  0  0  0  0  0  0  0  0  0
   -2.0720   -1.3370   -3.8490 H   0  0  0  0  0  0  0  0  0  0  0  0
   -1.3490   -0.3420   -2.5760 H   0  0  0  0  0  0  0  0  0  0  0  0
   -5.2270   -0.0060   -1.6600 H   0  0  0  0  0  0  0  0  0  0  0  0
  1 11  1  0  0  0  0
  1  9  1  0  0  0  0
  1 10  1  0  0  0  0
  2  1  1  0  0  0  0
  3 12  1  0  0  0  0
  3  2  1  0  0  0  0
  4  3  1  0  0  0  0
  4  5  1  0  0  0  0
  5 16  1  6  0  0  0
  5  7  1  0  0  0  0
  5  6  1  0  0  0  0
  6 18  1  0  0  0  0
  7  8  2  0  0  0  0
 13  3  1  0  0  0  0
 14  4  1  0  0  0  0
 15  4  1  0  0  0  0
 17  6  1  0  0  0  0
 19 20  1  0  0  0  0
 19  7  1  0  0  0  0
 20 29  1  1  0  0  0
 21 30  1  0  0  0  0
 21 20  1  0  0  0  0
 21 22  1  0  0  0  0
 22 33  1  0  0  0  0
 23 24  2  0  0  0  0
 23 22  1  0  0  0  0
 25 26  2  0  0  0  0
 25 20  1  0  0  0  0
 27 23  1  0  0  0  0
 28 19  1  0  0  0  0
 31 21  1  0  0  0  0
 32 22  1  0  0  0  0
 34 27  1  0  0  0  0
 35 25  1  0  0  0  0
 36 46  1  1  0  0  0
 36 35  1  0  0  0  0
 36 41  1  0  0  0  0
 37 36  1  0  0  0  0
 38 39  1  0  0  0  0
 38 50  1  0  0  0  0
 38 37  1  0  0  0  0
 39 43  1  0  0  0  0
 40 39  2  0  0  0  0
 41 42  1  0  0  0  0
 43 51  1  0  0  0  0
 44 41  2  0  0  0  0
 45 35  1  0  0  0  0
 47 37  1  0  0  0  0
 48 37  1  0  0  0  0
 49 38  1  0  0  0  0
M  END
$$$$
