MEG.pdb
 OpenBabel07022418543D

 42 41  0  0  1  0  0  0  0  0999 V2000
    0.9060   -4.0340    4.5130 C   0  0  0  0  0  0  0  0  0  0  0  0
    2.0990   -4.4970    3.2480 S   0  0  0  0  0  0  0  0  0  0  0  0
    1.4070   -4.6550    1.6070 C   0  0  0  0  0  0  0  0  0  0  0  0
    0.9190   -3.3910    0.9920 C   0  0  0  0  0  0  0  0  0  0  0  0
   -0.1690   -2.6870    1.7320 C   0  0  2  0  0  0  0  0  0  0  0  0
   -1.3370   -3.5170    1.8580 N   0  0  0  0  0  0  0  0  0  0  0  0
   -0.5320   -1.3870    1.0740 C   0  0  0  0  0  0  0  0  0  0  0  0
   -1.7130   -1.1360    0.7230 O   0  0  0  0  0  0  0  0  0  0  0  0
   -0.1350   -4.2470    4.2680 H   0  0  0  0  0  0  0  0  0  0  0  0
    1.0800   -2.9820    4.8790 H   0  0  0  0  0  0  0  0  0  0  0  0
    1.1500   -4.6630    5.4220 H   0  0  0  0  0  0  0  0  0  0  0  0
    0.6410   -5.4800    1.5770 H   0  0  0  0  0  0  0  0  0  0  0  0
    2.2290   -5.0440    0.9360 H   0  0  0  0  0  0  0  0  0  0  0  0
    1.8210   -2.7310    0.8510 H   0  0  0  0  0  0  0  0  0  0  0  0
    0.5900   -3.6300   -0.0500 H   0  0  0  0  0  0  0  0  0  0  0  0
    0.1560   -2.4140    2.7510 H   0  0  0  0  0  0  0  0  0  0  0  0
   -1.0670   -4.4890    2.0730 H   0  0  0  0  0  0  0  0  0  0  0  0
   -1.9930   -3.4210    1.0660 H   0  0  0  0  0  0  0  0  0  0  0  0
    0.4840   -0.4170    0.8430 N   0  0  0  0  0  0  0  0  0  0  0  0
    0.2100    0.8480    0.2200 C   0  0  1  0  0  0  0  0  0  0  0  0
    0.4600    2.0240    1.1340 C   0  0  0  0  0  0  0  0  0  0  0  0
   -0.4680    1.8370    2.3330 C   0  0  0  0  0  0  0  0  0  0  0  0
   -0.2590    2.9700    3.2650 C   0  0  0  0  0  0  0  0  0  0  0  0
    0.5610    3.8780    3.0270 O   0  0  0  0  0  0  0  0  0  0  0  0
    0.8870    0.9870   -1.0970 C   0  0  0  0  0  0  0  0  0  0  0  0
    1.6080    0.0650   -1.5710 O   0  0  0  0  0  0  0  0  0  0  0  0
   -0.9850    3.0490    4.4490 O   0  0  0  0  0  0  0  0  0  0  0  0
    1.4670   -0.6800    1.1590 H   0  0  0  0  0  0  0  0  0  0  0  0
   -0.8880    0.8700   -0.0060 H   0  0  0  0  0  0  0  0  0  0  0  0
    0.0970    2.9310    0.6070 H   0  0  0  0  0  0  0  0  0  0  0  0
    1.5090    2.1120    1.4640 H   0  0  0  0  0  0  0  0  0  0  0  0
   -0.2950    0.8600    2.8200 H   0  0  0  0  0  0  0  0  0  0  0  0
   -1.5160    1.9230    1.9640 H   0  0  0  0  0  0  0  0  0  0  0  0
   -0.8260    3.7780    5.1390 H   0  0  0  0  0  0  0  0  0  0  0  0
    0.7630    2.1580   -1.8920 N   0  0  0  0  0  0  0  0  0  0  0  0
    1.4340    2.2680   -3.1750 C   0  0  0  0  0  0  0  0  0  0  0  0
    0.9270    1.1700   -4.0520 C   0  0  0  0  0  0  0  0  0  0  0  0
    1.3800    1.0750   -5.2160 O   0  0  0  0  0  0  0  0  0  0  0  0
   -0.0210    0.2540   -3.6340 O   0  0  0  0  0  0  0  0  0  0  0  0
    0.1740    2.9440   -1.5330 H   0  0  0  0  0  0  0  0  0  0  0  0
    2.5240    2.1250   -2.9830 H   0  0  0  0  0  0  0  0  0  0  0  0
    1.3200    3.2510   -3.6310 H   0  0  0  0  0  0  0  0  0  0  0  0
  1 10  1  0  0  0  0
  1 11  1  0  0  0  0
  2  1  1  0  0  0  0
  3  2  1  0  0  0  0
  4  3  1  0  0  0  0
  4  5  1  0  0  0  0
  5  6  1  0  0  0  0
  5 16  1  1  0  0  0
  6 17  1  0  0  0  0
  7  5  1  0  0  0  0
  8  7  2  0  0  0  0
  9  1  1  0  0  0  0
 12  3  1  0  0  0  0
 13  3  1  0  0  0  0
 14  4  1  0  0  0  0
 15  4  1  0  0  0  0
 18  6  1  0  0  0  0
 19  7  1  0  0  0  0
 19 28  1  0  0  0  0
 20 29  1  6  0  0  0
 20 19  1  0  0  0  0
 20 21  1  0  0  0  0
 21 31  1  0  0  0  0
 21 22  1  0  0  0  0
 22 32  1  0  0  0  0
 22 23  1  0  0  0  0
 23 27  1  0  0  0  0
 24 23  2  0  0  0  0
 25 20  1  0  0  0  0
 26 25  2  0  0  0  0
 27 34  1  0  0  0  0
 30 21  1  0  0  0  0
 33 22  1  0  0  0  0
 35 40  1  0  0  0  0
 35 25  1  0  0  0  0
 36 41  1  0  0  0  0
 36 35  1  0  0  0  0
 37 39  1  0  0  0  0
 37 36  1  0  0  0  0
 38 37  2  0  0  0  0
 42 36  1  0  0  0  0
M  END
$$$$
