MEK.pdb
 OpenBabel07022418543D

 56 55  0  0  1  0  0  0  0  0999 V2000
   -0.4320   -1.0180    6.2190 C   0  0  0  0  0  0  0  0  0  0  0  0
    0.2380   -2.6750    6.0870 S   0  0  0  0  0  0  0  0  0  0  0  0
    0.9450   -3.0610    4.5200 C   0  0  0  0  0  0  0  0  0  0  0  0
    2.2300   -2.4810    4.1150 C   0  0  0  0  0  0  0  0  0  0  0  0
    2.4140   -1.0220    4.0200 C   0  0  2  0  0  0  0  0  0  0  0  0
    2.2480   -0.2980    5.2160 N   0  0  0  0  0  0  0  0  0  0  0  0
    1.6230   -0.3990    2.9160 C   0  0  0  0  0  0  0  0  0  0  0  0
    0.9680    0.6440    3.1330 O   0  0  0  0  0  0  0  0  0  0  0  0
    0.1160   -0.3890    6.9230 H   0  0  0  0  0  0  0  0  0  0  0  0
   -1.4990   -1.0390    6.6180 H   0  0  0  0  0  0  0  0  0  0  0  0
   -0.4850   -0.4920    5.2360 H   0  0  0  0  0  0  0  0  0  0  0  0
    0.1750   -2.8370    3.7230 H   0  0  0  0  0  0  0  0  0  0  0  0
    1.0640   -4.1940    4.3990 H   0  0  0  0  0  0  0  0  0  0  0  0
    3.0120   -2.8440    4.8650 H   0  0  0  0  0  0  0  0  0  0  0  0
    2.5090   -2.9650    3.1280 H   0  0  0  0  0  0  0  0  0  0  0  0
    3.5020   -0.8660    3.7040 H   0  0  0  0  0  0  0  0  0  0  0  0
    2.4300   -0.7980    6.0750 H   0  0  0  0  0  0  0  0  0  0  0  0
    1.7330    0.5800    5.2090 H   0  0  0  0  0  0  0  0  0  0  0  0
    1.6110   -0.9780    1.6350 N   0  0  0  0  0  0  0  0  0  0  0  0
    0.8740   -0.4420    0.5060 C   0  0  1  0  0  0  0  0  0  0  0  0
    1.8920   -0.1350   -0.5700 C   0  0  0  0  0  0  0  0  0  0  0  0
    2.9110    0.8770   -0.0820 C   0  0  0  0  0  0  0  0  0  0  0  0
    3.8950    1.1600   -1.1530 C   0  0  0  0  0  0  0  0  0  0  0  0
    4.8430    1.9710   -0.9740 O   0  0  0  0  0  0  0  0  0  0  0  0
   -0.0950   -1.4460   -0.0210 C   0  0  0  0  0  0  0  0  0  0  0  0
   -0.1430   -2.5540    0.5440 O   0  0  0  0  0  0  0  0  0  0  0  0
    3.7740    0.5200   -2.3870 O   0  0  0  0  0  0  0  0  0  0  0  0
    2.1620   -1.8450    1.4740 H   0  0  0  0  0  0  0  0  0  0  0  0
    0.3660    0.5100    0.7630 H   0  0  0  0  0  0  0  0  0  0  0  0
    1.4480    0.1790   -1.5250 H   0  0  0  0  0  0  0  0  0  0  0  0
    2.4700   -1.0680   -0.7930 H   0  0  0  0  0  0  0  0  0  0  0  0
    2.4160    1.8360    0.2050 H   0  0  0  0  0  0  0  0  0  0  0  0
    3.4310    0.5100    0.8220 H   0  0  0  0  0  0  0  0  0  0  0  0
    4.5110    0.5290   -3.0790 H   0  0  0  0  0  0  0  0  0  0  0  0
   -0.9540   -1.1970   -1.1220 N   0  0  0  0  0  0  0  0  0  0  0  0
   -1.9030   -2.1540   -1.6480 C   0  0  1  0  0  0  0  0  0  0  0  0
   -3.3280   -1.7470   -1.4050 C   0  0  0  0  0  0  0  0  0  0  0  0
   -3.7340   -0.4530   -2.0070 C   0  0  0  0  0  0  0  0  0  0  0  0
   -3.6180   -0.3660   -3.4890 C   0  0  0  0  0  0  0  0  0  0  0  0
   -4.0840    1.0430   -3.8860 C   0  0  0  0  0  0  0  0  0  0  0  0
   -3.2580    2.0550   -3.2580 N   0  0  0  0  0  0  0  0  0  0  0  0
   -1.6020   -2.6140   -3.0000 C   0  0  0  0  0  0  0  0  0  0  0  0
   -2.3790   -3.4390   -3.5440 O   0  0  0  0  0  0  0  0  0  0  0  0
   -0.5080   -2.2200   -3.7730 O   0  0  0  0  0  0  0  0  0  0  0  0
   -0.8530   -0.2300   -1.5540 H   0  0  0  0  0  0  0  0  0  0  0  0
   -1.7690   -3.0740   -0.9910 H   0  0  0  0  0  0  0  0  0  0  0  0
   -3.4600   -1.6690   -0.3040 H   0  0  0  0  0  0  0  0  0  0  0  0
   -4.0070   -2.5330   -1.7520 H   0  0  0  0  0  0  0  0  0  0  0  0
   -3.2550    0.4340   -1.4950 H   0  0  0  0  0  0  0  0  0  0  0  0
   -4.8270   -0.3240   -1.7690 H   0  0  0  0  0  0  0  0  0  0  0  0
   -2.6170   -0.4700   -3.9000 H   0  0  0  0  0  0  0  0  0  0  0  0
   -4.3660   -1.0540   -3.9310 H   0  0  0  0  0  0  0  0  0  0  0  0
   -4.0080    1.1720   -4.9750 H   0  0  0  0  0  0  0  0  0  0  0  0
   -5.1290    1.2300   -3.5480 H   0  0  0  0  0  0  0  0  0  0  0  0
   -2.2840    1.6480   -3.2060 H   0  0  0  0  0  0  0  0  0  0  0  0
   -3.1860    2.8680   -3.9070 H   0  0  0  0  0  0  0  0  0  0  0  0
  1 10  1  0  0  0  0
  1  9  1  0  0  0  0
  2  1  1  0  0  0  0
  3  2  1  0  0  0  0
  4  3  1  0  0  0  0
  4 14  1  0  0  0  0
  5 16  1  6  0  0  0
  5  4  1  0  0  0  0
  5  6  1  0  0  0  0
  6 17  1  0  0  0  0
  7  8  2  0  0  0  0
  7  5  1  0  0  0  0
 11  1  1  0  0  0  0
 12  3  1  0  0  0  0
 13  3  1  0  0  0  0
 15  4  1  0  0  0  0
 18  6  1  0  0  0  0
 19  7  1  0  0  0  0
 20 29  1  1  0  0  0
 20 19  1  0  0  0  0
 21 22  1  0  0  0  0
 21 20  1  0  0  0  0
 22 32  1  0  0  0  0
 22 33  1  0  0  0  0
 23 24  2  0  0  0  0
 23 22  1  0  0  0  0
 25 20  1  0  0  0  0
 25 26  2  0  0  0  0
 27 23  1  0  0  0  0
 28 19  1  0  0  0  0
 30 21  1  0  0  0  0
 31 21  1  0  0  0  0
 34 27  1  0  0  0  0
 35 25  1  0  0  0  0
 36 37  1  0  0  0  0
 36 35  1  0  0  0  0
 36 46  1  1  0  0  0
 37 47  1  0  0  0  0
 38 50  1  0  0  0  0
 38 49  1  0  0  0  0
 38 37  1  0  0  0  0
 39 38  1  0  0  0  0
 40 54  1  0  0  0  0
 40 39  1  0  0  0  0
 40 41  1  0  0  0  0
 41 55  1  0  0  0  0
 42 36  1  0  0  0  0
 43 42  1  0  0  0  0
 44 42  2  0  0  0  0
 45 35  1  0  0  0  0
 48 37  1  0  0  0  0
 51 39  1  0  0  0  0
 52 39  1  0  0  0  0
 53 40  1  0  0  0  0
 56 41  1  0  0  0  0
M  END
$$$$
