MEL.pdb
 OpenBabel07022418543D

 54 53  0  0  1  0  0  0  0  0999 V2000
    4.7410   -2.4890    5.4230 C   0  0  0  0  0  0  0  0  0  0  0  0
    4.8000   -3.4870    3.9130 S   0  0  0  0  0  0  0  0  0  0  0  0
    3.9900   -2.5590    2.5830 C   0  0  0  0  0  0  0  0  0  0  0  0
    4.0040   -3.3420    1.2830 C   0  0  0  0  0  0  0  0  0  0  0  0
    3.3380   -2.5810    0.1830 C   0  0  2  0  0  0  0  0  0  0  0  0
    4.0570   -1.3340   -0.0000 N   0  0  0  0  0  0  0  0  0  0  0  0
    1.9090   -2.3480    0.5060 C   0  0  0  0  0  0  0  0  0  0  0  0
    1.1690   -3.3430    0.6960 O   0  0  0  0  0  0  0  0  0  0  0  0
    5.0210   -3.0970    6.3190 H   0  0  0  0  0  0  0  0  0  0  0  0
    5.4500   -1.6420    5.3100 H   0  0  0  0  0  0  0  0  0  0  0  0
    3.6980   -2.1550    5.5870 H   0  0  0  0  0  0  0  0  0  0  0  0
    4.5280   -1.5980    2.4900 H   0  0  0  0  0  0  0  0  0  0  0  0
    2.9490   -2.3810    2.9030 H   0  0  0  0  0  0  0  0  0  0  0  0
    3.4500   -4.2870    1.4350 H   0  0  0  0  0  0  0  0  0  0  0  0
    5.0400   -3.6010    1.0650 H   0  0  0  0  0  0  0  0  0  0  0  0
    3.4080   -3.1860   -0.7510 H   0  0  0  0  0  0  0  0  0  0  0  0
    3.7640   -0.8250   -0.8520 H   0  0  0  0  0  0  0  0  0  0  0  0
    5.0640   -1.5930   -0.1140 H   0  0  0  0  0  0  0  0  0  0  0  0
    1.3160   -1.0620    0.6170 N   0  0  0  0  0  0  0  0  0  0  0  0
   -0.0900   -0.9370    0.9360 C   0  0  1  0  0  0  0  0  0  0  0  0
   -0.3220   -0.0710    2.1560 C   0  0  0  0  0  0  0  0  0  0  0  0
    0.3510   -0.6220    3.3870 C   0  0  0  0  0  0  0  0  0  0  0  0
    0.0800    0.2750    4.5380 C   0  0  0  0  0  0  0  0  0  0  0  0
   -0.6170    1.3030    4.3800 O   0  0  0  0  0  0  0  0  0  0  0  0
   -0.7380   -0.2250   -0.1890 C   0  0  0  0  0  0  0  0  0  0  0  0
   -0.0460    0.1370   -1.1710 O   0  0  0  0  0  0  0  0  0  0  0  0
    0.5710    0.0250    5.8040 O   0  0  0  0  0  0  0  0  0  0  0  0
    1.9110   -0.2100    0.4630 H   0  0  0  0  0  0  0  0  0  0  0  0
   -0.5340   -1.9480    1.0590 H   0  0  0  0  0  0  0  0  0  0  0  0
    0.0400    0.9420    1.8950 H   0  0  0  0  0  0  0  0  0  0  0  0
   -1.4210   -0.0050    2.2910 H   0  0  0  0  0  0  0  0  0  0  0  0
    0.1230   -1.6690    3.5720 H   0  0  0  0  0  0  0  0  0  0  0  0
    1.4610   -0.5230    3.1920 H   0  0  0  0  0  0  0  0  0  0  0  0
    0.8160    0.7910    6.4310 H   0  0  0  0  0  0  0  0  0  0  0  0
   -3.3020    0.9510   -4.3420 C   0  0  0  0  0  0  0  0  0  0  0  0
   -4.3030    0.5720   -3.2820 C   0  0  0  0  0  0  0  0  0  0  0  0
   -5.2150   -0.4780   -3.9420 C   0  0  0  0  0  0  0  0  0  0  0  0
   -3.6910   -0.0740   -2.0900 C   0  0  0  0  0  0  0  0  0  0  0  0
   -2.6770    0.7860   -1.3780 C   0  0  2  0  0  0  0  0  0  0  0  0
   -2.1240    0.0780   -0.2230 N   0  0  0  0  0  0  0  0  0  0  0  0
   -3.1950    2.0980   -0.9470 C   0  0  0  0  0  0  0  0  0  0  0  0
   -3.7140    2.9470   -1.7060 O   0  0  0  0  0  0  0  0  0  0  0  0
   -3.1140    2.4500    0.4110 O   0  0  0  0  0  0  0  0  0  0  0  0
   -3.8370    0.9560   -5.3140 H   0  0  0  0  0  0  0  0  0  0  0  0
   -2.9150    1.9860   -4.2070 H   0  0  0  0  0  0  0  0  0  0  0  0
   -2.4860    0.2090   -4.4270 H   0  0  0  0  0  0  0  0  0  0  0  0
   -4.8980    1.4340   -2.9810 H   0  0  0  0  0  0  0  0  0  0  0  0
   -6.2400   -0.3060   -3.5490 H   0  0  0  0  0  0  0  0  0  0  0  0
   -4.8360   -1.4850   -3.7690 H   0  0  0  0  0  0  0  0  0  0  0  0
   -5.2640   -0.2880   -5.0270 H   0  0  0  0  0  0  0  0  0  0  0  0
   -4.5280   -0.2310   -1.3480 H   0  0  0  0  0  0  0  0  0  0  0  0
   -3.3140   -1.0740   -2.3160 H   0  0  0  0  0  0  0  0  0  0  0  0
   -1.8620    0.9850   -2.1030 H   0  0  0  0  0  0  0  0  0  0  0  0
   -2.6980   -0.2150    0.5760 H   0  0  0  0  0  0  0  0  0  0  0  0
  1 11  1  0  0  0  0
  1  9  1  0  0  0  0
  2  1  1  0  0  0  0
  3 13  1  0  0  0  0
  3  2  1  0  0  0  0
  4 14  1  0  0  0  0
  4  3  1  0  0  0  0
  5 16  1  6  0  0  0
  5  7  1  0  0  0  0
  5  4  1  0  0  0  0
  6  5  1  0  0  0  0
  7 19  1  0  0  0  0
  7  8  2  0  0  0  0
 10  1  1  0  0  0  0
 12  3  1  0  0  0  0
 15  4  1  0  0  0  0
 17  6  1  0  0  0  0
 18  6  1  0  0  0  0
 19 20  1  0  0  0  0
 20 29  1  1  0  0  0
 20 21  1  0  0  0  0
 21 31  1  0  0  0  0
 21 22  1  0  0  0  0
 22 32  1  0  0  0  0
 22 23  1  0  0  0  0
 23 27  1  0  0  0  0
 24 23  2  0  0  0  0
 25 20  1  0  0  0  0
 26 25  2  0  0  0  0
 27 34  1  0  0  0  0
 28 19  1  0  0  0  0
 30 21  1  0  0  0  0
 33 22  1  0  0  0  0
 35 45  1  0  0  0  0
 35 36  1  0  0  0  0
 36 47  1  0  0  0  0
 36 38  1  0  0  0  0
 37 49  1  0  0  0  0
 37 48  1  0  0  0  0
 37 36  1  0  0  0  0
 38 39  1  0  0  0  0
 38 51  1  0  0  0  0
 39 53  1  6  0  0  0
 39 41  1  0  0  0  0
 39 40  1  0  0  0  0
 40 25  1  0  0  0  0
 40 54  1  0  0  0  0
 41 43  1  0  0  0  0
 42 41  2  0  0  0  0
 44 35  1  0  0  0  0
 46 35  1  0  0  0  0
 50 37  1  0  0  0  0
 52 38  1  0  0  0  0
M  END
$$$$
