MEP.pdb
 OpenBabel07022418543D

 49 49  0  0  1  0  0  0  0  0999 V2000
    4.3900   -3.8690    4.0560 C   0  0  0  0  0  0  0  0  0  0  0  0
    4.4940   -3.1770    2.4050 S   0  0  0  0  0  0  0  0  0  0  0  0
    4.2230   -1.3890    2.4370 C   0  0  0  0  0  0  0  0  0  0  0  0
    4.2960   -0.7930    1.0560 C   0  0  0  0  0  0  0  0  0  0  0  0
    3.2680   -1.4160    0.1480 C   0  0  2  0  0  0  0  0  0  0  0  0
    3.3590   -0.8290   -1.1920 N   0  0  0  0  0  0  0  0  0  0  0  0
    1.8940   -1.2020    0.6490 C   0  0  0  0  0  0  0  0  0  0  0  0
    1.4800   -1.6360    1.7460 O   0  0  0  0  0  0  0  0  0  0  0  0
    4.1970   -3.1090    4.8430 H   0  0  0  0  0  0  0  0  0  0  0  0
    3.5710   -4.6220    4.0560 H   0  0  0  0  0  0  0  0  0  0  0  0
    5.3410   -4.3860    4.2890 H   0  0  0  0  0  0  0  0  0  0  0  0
    3.3090   -1.1030    2.9580 H   0  0  0  0  0  0  0  0  0  0  0  0
    5.0860   -0.9410    3.0330 H   0  0  0  0  0  0  0  0  0  0  0  0
    5.3280   -1.0020    0.6510 H   0  0  0  0  0  0  0  0  0  0  0  0
    4.1340    0.3030    1.0680 H   0  0  0  0  0  0  0  0  0  0  0  0
    3.4410   -2.5260    0.0610 H   0  0  0  0  0  0  0  0  0  0  0  0
    3.6040    0.1760   -1.0290 H   0  0  0  0  0  0  0  0  0  0  0  0
    4.1620   -1.2380   -1.7320 H   0  0  0  0  0  0  0  0  0  0  0  0
    0.9720   -0.4690   -0.1370 N   0  0  0  0  0  0  0  0  0  0  0  0
   -0.3800   -0.2570    0.3550 C   0  0  1  0  0  0  0  0  0  0  0  0
   -0.6650    1.2320    0.4410 C   0  0  0  0  0  0  0  0  0  0  0  0
    0.3430    1.8600    1.3940 C   0  0  0  0  0  0  0  0  0  0  0  0
    0.1070    3.3220    1.5140 C   0  0  0  0  0  0  0  0  0  0  0  0
   -0.8360    3.7560    2.2250 O   0  0  0  0  0  0  0  0  0  0  0  0
   -1.3350   -0.9300   -0.5260 C   0  0  0  0  0  0  0  0  0  0  0  0
   -0.8920   -1.4990   -1.5780 O   0  0  0  0  0  0  0  0  0  0  0  0
    0.8960    4.2670    0.8620 O   0  0  0  0  0  0  0  0  0  0  0  0
    1.1990   -0.0590   -1.0710 H   0  0  0  0  0  0  0  0  0  0  0  0
   -0.4530   -0.6840    1.3630 H   0  0  0  0  0  0  0  0  0  0  0  0
   -0.5760    1.6900   -0.5460 H   0  0  0  0  0  0  0  0  0  0  0  0
   -1.6730    1.3570    0.8660 H   0  0  0  0  0  0  0  0  0  0  0  0
    0.2110    1.3700    2.3900 H   0  0  0  0  0  0  0  0  0  0  0  0
    1.3710    1.6220    1.0720 H   0  0  0  0  0  0  0  0  0  0  0  0
    0.7650    5.2740    1.0460 H   0  0  0  0  0  0  0  0  0  0  0  0
   -2.7150   -0.9900   -0.2840 N   0  0  0  0  0  0  0  0  0  0  0  0
   -3.4030   -0.4110    0.8510 C   0  0  0  0  0  0  0  0  0  0  0  0
   -4.5970   -1.3850    0.9880 C   0  0  0  0  0  0  0  0  0  0  0  0
   -5.0070   -1.4460   -0.4700 C   0  0  0  0  0  0  0  0  0  0  0  0
   -3.6740   -1.6630   -1.1430 C   0  0  1  0  0  0  0  0  0  0  0  0
   -3.6380   -1.1790   -2.5230 C   0  0  0  0  0  0  0  0  0  0  0  0
   -4.4170   -1.6780   -3.3740 O   0  0  0  0  0  0  0  0  0  0  0  0
   -2.7760   -0.1830   -2.9560 O   0  0  0  0  0  0  0  0  0  0  0  0
   -2.8790   -0.4710    1.7980 H   0  0  0  0  0  0  0  0  0  0  0  0
   -3.8790    0.5690    0.6250 H   0  0  0  0  0  0  0  0  0  0  0  0
   -5.3590   -0.9840    1.6500 H   0  0  0  0  0  0  0  0  0  0  0  0
   -4.1680   -2.3470    1.2640 H   0  0  0  0  0  0  0  0  0  0  0  0
   -5.4320   -0.4480   -0.7190 H   0  0  0  0  0  0  0  0  0  0  0  0
   -5.7210   -2.2700   -0.6720 H   0  0  0  0  0  0  0  0  0  0  0  0
   -3.4980   -2.7800   -1.0950 H   0  0  0  0  0  0  0  0  0  0  0  0
  1 11  1  0  0  0  0
  1  9  1  0  0  0  0
  2  3  1  0  0  0  0
  2  1  1  0  0  0  0
  3 12  1  0  0  0  0
  3 13  1  0  0  0  0
  4 15  1  0  0  0  0
  4  3  1  0  0  0  0
  5 16  1  6  0  0  0
  5  7  1  0  0  0  0
  5  4  1  0  0  0  0
  6 17  1  0  0  0  0
  6  5  1  0  0  0  0
  7  8  2  0  0  0  0
 10  1  1  0  0  0  0
 14  4  1  0  0  0  0
 18  6  1  0  0  0  0
 19 20  1  0  0  0  0
 19  7  1  0  0  0  0
 20 21  1  0  0  0  0
 20 29  1  1  0  0  0
 21 31  1  0  0  0  0
 21 22  1  0  0  0  0
 22 23  1  0  0  0  0
 22 32  1  0  0  0  0
 23 24  2  0  0  0  0
 25 35  1  0  0  0  0
 25 20  1  0  0  0  0
 26 25  2  0  0  0  0
 27 34  1  0  0  0  0
 27 23  1  0  0  0  0
 28 19  1  0  0  0  0
 30 21  1  0  0  0  0
 33 22  1  0  0  0  0
 35 36  1  0  0  0  0
 36 37  1  0  0  0  0
 36 43  1  0  0  0  0
 37 46  1  0  0  0  0
 37 45  1  0  0  0  0
 38 37  1  0  0  0  0
 39 49  1  1  0  0  0
 39 38  1  0  0  0  0
 39 35  1  0  0  0  0
 40 39  1  0  0  0  0
 41 40  2  0  0  0  0
 42 40  1  0  0  0  0
 44 36  1  0  0  0  0
 47 38  1  0  0  0  0
 48 38  1  0  0  0  0
M  END
$$$$
