MEQ.pdb
 OpenBabel07022418543D

 52 51  0  0  1  0  0  0  0  0999 V2000
   -1.2110   -4.7800    3.1570 C   0  0  0  0  0  0  0  0  0  0  0  0
    0.3020   -4.4890    2.1980 S   0  0  0  0  0  0  0  0  0  0  0  0
    1.0340   -2.8890    2.6690 C   0  0  0  0  0  0  0  0  0  0  0  0
    2.3010   -2.7190    1.8200 C   0  0  0  0  0  0  0  0  0  0  0  0
    2.9650   -1.4100    2.1570 C   0  0  2  0  0  0  0  0  0  0  0  0
    3.3100   -1.4220    3.5590 N   0  0  0  0  0  0  0  0  0  0  0  0
    2.1470   -0.2330    1.7890 C   0  0  0  0  0  0  0  0  0  0  0  0
    1.8260    0.6290    2.6730 O   0  0  0  0  0  0  0  0  0  0  0  0
   -0.9870   -5.3200    4.1030 H   0  0  0  0  0  0  0  0  0  0  0  0
   -1.9140   -5.3340    2.5010 H   0  0  0  0  0  0  0  0  0  0  0  0
   -1.6270   -3.8080    3.4300 H   0  0  0  0  0  0  0  0  0  0  0  0
    0.2920   -2.1070    2.4100 H   0  0  0  0  0  0  0  0  0  0  0  0
    1.2610   -2.8280    3.7400 H   0  0  0  0  0  0  0  0  0  0  0  0
    2.0440   -2.8360    0.7650 H   0  0  0  0  0  0  0  0  0  0  0  0
    3.0190   -3.5220    2.0870 H   0  0  0  0  0  0  0  0  0  0  0  0
    3.9160   -1.3290    1.5920 H   0  0  0  0  0  0  0  0  0  0  0  0
    3.9070   -2.2790    3.7070 H   0  0  0  0  0  0  0  0  0  0  0  0
    3.9360   -0.6110    3.7680 H   0  0  0  0  0  0  0  0  0  0  0  0
    1.7200   -0.0670    0.4500 N   0  0  0  0  0  0  0  0  0  0  0  0
    0.9190    1.0770    0.0680 C   0  0  1  0  0  0  0  0  0  0  0  0
    1.6340    1.8790   -0.9680 C   0  0  0  0  0  0  0  0  0  0  0  0
    0.9090    3.1040   -1.4470 C   0  0  0  0  0  0  0  0  0  0  0  0
    1.7540    3.8210   -2.4780 C   0  0  0  0  0  0  0  0  0  0  0  0
    2.8810    3.3750   -2.8130 O   0  0  0  0  0  0  0  0  0  0  0  0
   -0.4150    0.5610   -0.3710 C   0  0  0  0  0  0  0  0  0  0  0  0
   -1.3250    1.3710   -0.7470 O   0  0  0  0  0  0  0  0  0  0  0  0
    1.2760    4.9830   -3.0570 O   0  0  0  0  0  0  0  0  0  0  0  0
    1.9780   -0.7590   -0.2770 H   0  0  0  0  0  0  0  0  0  0  0  0
    0.7930    1.7370    0.9740 H   0  0  0  0  0  0  0  0  0  0  0  0
    2.6060    2.2360   -0.5300 H   0  0  0  0  0  0  0  0  0  0  0  0
    1.9120    1.2740   -1.8630 H   0  0  0  0  0  0  0  0  0  0  0  0
    0.7660    3.8560   -0.6360 H   0  0  0  0  0  0  0  0  0  0  0  0
   -0.0880    2.9140   -1.8720 H   0  0  0  0  0  0  0  0  0  0  0  0
    1.9300    5.7170   -3.3700 H   0  0  0  0  0  0  0  0  0  0  0  0
   -3.6390   -1.3030    3.0230 N   0  0  0  0  0  0  0  0  0  0  0  0
   -3.7280   -1.3770    1.6100 C   0  0  0  0  0  0  0  0  0  0  0  0
   -4.0820   -2.4430    1.0910 O   0  0  0  0  0  0  0  0  0  0  0  0
   -3.4030   -0.1800    0.7480 C   0  0  0  0  0  0  0  0  0  0  0  0
   -3.1570   -0.5860   -0.6510 C   0  0  0  0  0  0  0  0  0  0  0  0
   -1.9220   -1.4600   -0.7510 C   0  0  2  0  0  0  0  0  0  0  0  0
   -0.6970   -0.8250   -0.3800 N   0  0  0  0  0  0  0  0  0  0  0  0
   -1.8730   -2.2980   -1.9500 C   0  0  0  0  0  0  0  0  0  0  0  0
   -2.9010   -2.8900   -2.3450 O   0  0  0  0  0  0  0  0  0  0  0  0
   -0.7010   -2.4510   -2.6640 O   0  0  0  0  0  0  0  0  0  0  0  0
   -3.9200   -0.4290    3.5140 H   0  0  0  0  0  0  0  0  0  0  0  0
   -3.3020   -2.0970    3.5870 H   0  0  0  0  0  0  0  0  0  0  0  0
   -4.3170    0.4740    0.7460 H   0  0  0  0  0  0  0  0  0  0  0  0
   -2.6200    0.4070    1.2370 H   0  0  0  0  0  0  0  0  0  0  0  0
   -3.2100    0.2130   -1.3930 H   0  0  0  0  0  0  0  0  0  0  0  0
   -4.0080   -1.2850   -0.9320 H   0  0  0  0  0  0  0  0  0  0  0  0
   -2.1130   -2.1840    0.1380 H   0  0  0  0  0  0  0  0  0  0  0  0
    0.1050   -1.4640   -0.0690 H   0  0  0  0  0  0  0  0  0  0  0  0
  1 11  1  0  0  0  0
  1  9  1  0  0  0  0
  2  3  1  0  0  0  0
  2  1  1  0  0  0  0
  3 13  1  0  0  0  0
  4 15  1  0  0  0  0
  4  5  1  0  0  0  0
  4  3  1  0  0  0  0
  5 16  1  6  0  0  0
  5  6  1  0  0  0  0
  6 17  1  0  0  0  0
  6 18  1  0  0  0  0
  7  5  1  0  0  0  0
  7  8  2  0  0  0  0
 10  1  1  0  0  0  0
 12  3  1  0  0  0  0
 14  4  1  0  0  0  0
 19  7  1  0  0  0  0
 20 19  1  0  0  0  0
 20 29  1  1  0  0  0
 21 30  1  0  0  0  0
 21 20  1  0  0  0  0
 22 21  1  0  0  0  0
 22 32  1  0  0  0  0
 23 22  1  0  0  0  0
 24 23  2  0  0  0  0
 25 20  1  0  0  0  0
 26 25  2  0  0  0  0
 27 23  1  0  0  0  0
 28 19  1  0  0  0  0
 31 21  1  0  0  0  0
 33 22  1  0  0  0  0
 34 27  1  0  0  0  0
 35 45  1  0  0  0  0
 35 46  1  0  0  0  0
 36 35  1  0  0  0  0
 37 36  2  0  0  0  0
 38 48  1  0  0  0  0
 38 36  1  0  0  0  0
 39 38  1  0  0  0  0
 40 39  1  0  0  0  0
 40 41  1  0  0  0  0
 40 51  1  1  0  0  0
 41 25  1  0  0  0  0
 41 52  1  0  0  0  0
 42 40  1  0  0  0  0
 43 42  1  0  0  0  0
 44 42  2  0  0  0  0
 47 38  1  0  0  0  0
 49 39  1  0  0  0  0
 50 39  1  0  0  0  0
M  END
$$$$
