MES.pdb
 OpenBabel07022418543D

 46 45  0  0  1  0  0  0  0  0999 V2000
    2.8790   -6.6670    1.2300 C   0  0  0  0  0  0  0  0  0  0  0  0
    3.0450   -5.1580    2.2490 S   0  0  0  0  0  0  0  0  0  0  0  0
    1.5200   -4.1530    2.0140 C   0  0  0  0  0  0  0  0  0  0  0  0
    1.4470   -3.6560    0.5970 C   0  0  0  0  0  0  0  0  0  0  0  0
    0.2040   -2.8530    0.3370 C   0  0  2  0  0  0  0  0  0  0  0  0
    0.2740   -2.4550   -1.0650 N   0  0  0  0  0  0  0  0  0  0  0  0
    0.2150   -1.6490    1.2140 C   0  0  0  0  0  0  0  0  0  0  0  0
    0.0320   -1.6870    2.4560 O   0  0  0  0  0  0  0  0  0  0  0  0
    1.8940   -7.1510    1.4130 H   0  0  0  0  0  0  0  0  0  0  0  0
    3.6970   -7.3390    1.5180 H   0  0  0  0  0  0  0  0  0  0  0  0
    2.9420   -6.4300    0.1410 H   0  0  0  0  0  0  0  0  0  0  0  0
    1.5680   -3.2890    2.7360 H   0  0  0  0  0  0  0  0  0  0  0  0
    0.6810   -4.8280    2.2690 H   0  0  0  0  0  0  0  0  0  0  0  0
    2.3610   -3.0770    0.3240 H   0  0  0  0  0  0  0  0  0  0  0  0
    1.3540   -4.5710   -0.0540 H   0  0  0  0  0  0  0  0  0  0  0  0
   -0.6650   -3.5040    0.4700 H   0  0  0  0  0  0  0  0  0  0  0  0
    0.6900   -3.1980   -1.6600 H   0  0  0  0  0  0  0  0  0  0  0  0
   -0.6340   -2.0880   -1.4200 H   0  0  0  0  0  0  0  0  0  0  0  0
    0.4410   -0.3450    0.6920 N   0  0  0  0  0  0  0  0  0  0  0  0
    0.4490    0.8300    1.5860 C   0  0  1  0  0  0  0  0  0  0  0  0
    1.7470    1.5500    1.4860 C   0  0  0  0  0  0  0  0  0  0  0  0
    1.8890    2.7640    2.3510 C   0  0  0  0  0  0  0  0  0  0  0  0
    1.7720    2.4950    3.7980 C   0  0  0  0  0  0  0  0  0  0  0  0
    1.7680    3.4540    4.5940 O   0  0  0  0  0  0  0  0  0  0  0  0
   -0.6530    1.6880    1.1260 C   0  0  0  0  0  0  0  0  0  0  0  0
   -0.8890    2.7510    1.7260 O   0  0  0  0  0  0  0  0  0  0  0  0
    1.6690    1.2170    4.2960 O   0  0  0  0  0  0  0  0  0  0  0  0
    0.6060   -0.1850   -0.3150 H   0  0  0  0  0  0  0  0  0  0  0  0
    0.3000    0.4880    2.6380 H   0  0  0  0  0  0  0  0  0  0  0  0
    2.5820    0.8520    1.7990 H   0  0  0  0  0  0  0  0  0  0  0  0
    1.9400    1.8100    0.4130 H   0  0  0  0  0  0  0  0  0  0  0  0
    1.1830    3.5890    2.1170 H   0  0  0  0  0  0  0  0  0  0  0  0
    2.9020    3.2360    2.1280 H   0  0  0  0  0  0  0  0  0  0  0  0
    2.0610    0.9450    5.2110 H   0  0  0  0  0  0  0  0  0  0  0  0
   -3.3940    3.4590   -2.2430 O   0  0  0  0  0  0  0  0  0  0  0  0
   -2.3380    2.6380   -1.8490 C   0  0  0  0  0  0  0  0  0  0  0  0
   -2.5260    2.1870   -0.4160 C   0  0  2  0  0  0  0  0  0  0  0  0
   -1.4450    1.3330    0.0220 N   0  0  0  0  0  0  0  0  0  0  0  0
   -3.8380    1.5000   -0.3020 C   0  0  0  0  0  0  0  0  0  0  0  0
   -4.9200    2.0390   -0.6190 O   0  0  0  0  0  0  0  0  0  0  0  0
   -3.8550    0.1960    0.1800 O   0  0  0  0  0  0  0  0  0  0  0  0
   -4.0590    2.9870   -2.7960 H   0  0  0  0  0  0  0  0  0  0  0  0
   -2.3090    1.7650   -2.5360 H   0  0  0  0  0  0  0  0  0  0  0  0
   -1.4200    3.2740   -1.9550 H   0  0  0  0  0  0  0  0  0  0  0  0
   -2.5880    3.0870    0.2150 H   0  0  0  0  0  0  0  0  0  0  0  0
   -1.3020    0.4490   -0.5320 H   0  0  0  0  0  0  0  0  0  0  0  0
  1  9  1  0  0  0  0
  1 10  1  0  0  0  0
  1  2  1  0  0  0  0
  3  2  1  0  0  0  0
  3 13  1  0  0  0  0
  3 12  1  0  0  0  0
  4  3  1  0  0  0  0
  5 16  1  1  0  0  0
  5  4  1  0  0  0  0
  5  7  1  0  0  0  0
  6  5  1  0  0  0  0
  7  8  2  0  0  0  0
 11  1  1  0  0  0  0
 14  4  1  0  0  0  0
 15  4  1  0  0  0  0
 17  6  1  0  0  0  0
 18  6  1  0  0  0  0
 19  7  1  0  0  0  0
 19 20  1  0  0  0  0
 20 29  1  1  0  0  0
 21 20  1  0  0  0  0
 21 30  1  0  0  0  0
 21 22  1  0  0  0  0
 22 23  1  0  0  0  0
 23 27  1  0  0  0  0
 23 24  2  0  0  0  0
 25 20  1  0  0  0  0
 25 26  2  0  0  0  0
 27 34  1  0  0  0  0
 28 19  1  0  0  0  0
 31 21  1  0  0  0  0
 32 22  1  0  0  0  0
 33 22  1  0  0  0  0
 35 36  1  0  0  0  0
 36 37  1  0  0  0  0
 37 39  1  0  0  0  0
 37 38  1  0  0  0  0
 37 45  1  1  0  0  0
 38 25  1  0  0  0  0
 39 41  1  0  0  0  0
 40 39  2  0  0  0  0
 42 35  1  0  0  0  0
 43 36  1  0  0  0  0
 44 36  1  0  0  0  0
 46 38  1  0  0  0  0
M  END
$$$$
