MET.pdb
 OpenBabel07022418543D

 49 48  0  0  1  0  0  0  0  0999 V2000
   -1.2620   -5.7050   -0.0690 C   0  0  0  0  0  0  0  0  0  0  0  0
    0.1740   -6.3740   -0.8940 S   0  0  0  0  0  0  0  0  0  0  0  0
    0.9240   -5.2920   -2.0960 C   0  0  0  0  0  0  0  0  0  0  0  0
    1.6000   -4.0750   -1.5340 C   0  0  0  0  0  0  0  0  0  0  0  0
    0.7080   -3.1700   -0.7670 C   0  0  2  0  0  0  0  0  0  0  0  0
   -0.3630   -2.6680   -1.5820 N   0  0  0  0  0  0  0  0  0  0  0  0
    1.4600   -2.0130   -0.1740 C   0  0  0  0  0  0  0  0  0  0  0  0
    2.5130   -2.2320    0.4750 O   0  0  0  0  0  0  0  0  0  0  0  0
   -1.7790   -4.8860   -0.5750 H   0  0  0  0  0  0  0  0  0  0  0  0
   -2.0260   -6.5490   -0.0370 H   0  0  0  0  0  0  0  0  0  0  0  0
   -1.0910   -5.4590    1.0030 H   0  0  0  0  0  0  0  0  0  0  0  0
    0.1390   -4.9600   -2.8370 H   0  0  0  0  0  0  0  0  0  0  0  0
    1.6640   -5.8750   -2.7340 H   0  0  0  0  0  0  0  0  0  0  0  0
    2.4830   -4.4260   -0.9400 H   0  0  0  0  0  0  0  0  0  0  0  0
    2.0210   -3.5340   -2.4370 H   0  0  0  0  0  0  0  0  0  0  0  0
    0.2390   -3.7750    0.0430 H   0  0  0  0  0  0  0  0  0  0  0  0
   -0.8460   -3.3710   -2.1530 H   0  0  0  0  0  0  0  0  0  0  0  0
   -1.0750   -2.1960   -0.9960 H   0  0  0  0  0  0  0  0  0  0  0  0
    1.0430   -0.6790   -0.3050 N   0  0  0  0  0  0  0  0  0  0  0  0
    1.7800    0.4700    0.2690 C   0  0  1  0  0  0  0  0  0  0  0  0
    2.0640    1.4580   -0.7760 C   0  0  0  0  0  0  0  0  0  0  0  0
    2.8020    2.6760   -0.4680 C   0  0  0  0  0  0  0  0  0  0  0  0
    2.2860    3.6870    0.4310 C   0  0  0  0  0  0  0  0  0  0  0  0
    3.0330    4.1510    1.3410 O   0  0  0  0  0  0  0  0  0  0  0  0
    1.0010    0.9780    1.3980 C   0  0  0  0  0  0  0  0  0  0  0  0
    1.3870    1.8520    2.2000 O   0  0  0  0  0  0  0  0  0  0  0  0
    0.9940    4.2120    0.3770 O   0  0  0  0  0  0  0  0  0  0  0  0
    0.1790   -0.4560   -0.8270 H   0  0  0  0  0  0  0  0  0  0  0  0
    2.7440    0.0280    0.6470 H   0  0  0  0  0  0  0  0  0  0  0  0
    2.6460    0.9600   -1.6430 H   0  0  0  0  0  0  0  0  0  0  0  0
    1.0770    1.7800   -1.2880 H   0  0  0  0  0  0  0  0  0  0  0  0
    3.0770    3.2510   -1.4270 H   0  0  0  0  0  0  0  0  0  0  0  0
    3.8210    2.3500   -0.0430 H   0  0  0  0  0  0  0  0  0  0  0  0
    0.8630    5.1290    0.7790 H   0  0  0  0  0  0  0  0  0  0  0  0
   -3.2990    1.9670    3.4380 C   0  0  0  0  0  0  0  0  0  0  0  0
   -2.3990    1.5840    2.3080 C   0  0  1  0  0  0  0  0  0  0  0  0
   -2.1180    2.6690    1.4510 O   0  0  0  0  0  0  0  0  0  0  0  0
   -1.1080    0.9550    2.7680 C   0  0  2  0  0  0  0  0  0  0  0  0
   -0.3260    0.4650    1.6580 N   0  0  0  0  0  0  0  0  0  0  0  0
   -1.3110   -0.1390    3.7240 C   0  0  0  0  0  0  0  0  0  0  0  0
   -1.9870    0.0770    4.7600 O   0  0  0  0  0  0  0  0  0  0  0  0
   -0.7920   -1.4060    3.5440 O   0  0  0  0  0  0  0  0  0  0  0  0
   -2.7980    2.5010    4.2520 H   0  0  0  0  0  0  0  0  0  0  0  0
   -4.0780    2.6530    3.0320 H   0  0  0  0  0  0  0  0  0  0  0  0
   -3.8690    1.0640    3.7880 H   0  0  0  0  0  0  0  0  0  0  0  0
   -2.9400    0.8390    1.6910 H   0  0  0  0  0  0  0  0  0  0  0  0
   -2.3270    3.5030    1.9230 H   0  0  0  0  0  0  0  0  0  0  0  0
   -0.5140    1.7730    3.2620 H   0  0  0  0  0  0  0  0  0  0  0  0
   -0.6660   -0.2700    0.9980 H   0  0  0  0  0  0  0  0  0  0  0  0
  1 10  1  0  0  0  0
  1 11  1  0  0  0  0
  2  1  1  0  0  0  0
  3  4  1  0  0  0  0
  3  2  1  0  0  0  0
  4 14  1  0  0  0  0
  4  5  1  0  0  0  0
  5  7  1  0  0  0  0
  5 16  1  1  0  0  0
  6 18  1  0  0  0  0
  6  5  1  0  0  0  0
  7  8  2  0  0  0  0
  9  1  1  0  0  0  0
 12  3  1  0  0  0  0
 13  3  1  0  0  0  0
 15  4  1  0  0  0  0
 17  6  1  0  0  0  0
 19  7  1  0  0  0  0
 19 20  1  0  0  0  0
 20 29  1  1  0  0  0
 20 25  1  0  0  0  0
 21 22  1  0  0  0  0
 21 20  1  0  0  0  0
 22 33  1  0  0  0  0
 22 23  1  0  0  0  0
 23 24  2  0  0  0  0
 25 39  1  0  0  0  0
 25 26  2  0  0  0  0
 27 23  1  0  0  0  0
 27 34  1  0  0  0  0
 28 19  1  0  0  0  0
 30 21  1  0  0  0  0
 31 21  1  0  0  0  0
 32 22  1  0  0  0  0
 35 45  1  0  0  0  0
 35 43  1  0  0  0  0
 36 46  1  6  0  0  0
 36 38  1  0  0  0  0
 36 35  1  0  0  0  0
 37 47  1  0  0  0  0
 37 36  1  0  0  0  0
 38 48  1  1  0  0  0
 38 40  1  0  0  0  0
 39 38  1  0  0  0  0
 40 41  1  0  0  0  0
 42 40  2  0  0  0  0
 44 35  1  0  0  0  0
 49 39  1  0  0  0  0
M  END
$$$$
