MEW.pdb
 OpenBabel07022418543D

 59 60  0  0  1  0  0  0  0  0999 V2000
    0.8130   -0.4790    6.5280 C   0  0  0  0  0  0  0  0  0  0  0  0
    2.4090   -0.8820    5.7270 S   0  0  0  0  0  0  0  0  0  0  0  0
    2.1100   -1.6950    4.1160 C   0  0  0  0  0  0  0  0  0  0  0  0
    1.4640   -0.6430    3.1990 C   0  0  0  0  0  0  0  0  0  0  0  0
    1.1760   -1.2000    1.8560 C   0  0  2  0  0  0  0  0  0  0  0  0
    2.4690   -1.6310    1.2920 N   0  0  0  0  0  0  0  0  0  0  0  0
    0.4830   -0.2990    0.9330 C   0  0  0  0  0  0  0  0  0  0  0  0
    0.8910   -0.2360   -0.2840 O   0  0  0  0  0  0  0  0  0  0  0  0
    0.9400   -0.6950    7.6120 H   0  0  0  0  0  0  0  0  0  0  0  0
    0.5530    0.5890    6.4320 H   0  0  0  0  0  0  0  0  0  0  0  0
    0.0050   -1.1460    6.1810 H   0  0  0  0  0  0  0  0  0  0  0  0
    1.3920   -2.5030    4.3090 H   0  0  0  0  0  0  0  0  0  0  0  0
    3.0690   -2.0470    3.7140 H   0  0  0  0  0  0  0  0  0  0  0  0
    2.2650    0.1380    3.1050 H   0  0  0  0  0  0  0  0  0  0  0  0
    0.5670   -0.2900    3.7380 H   0  0  0  0  0  0  0  0  0  0  0  0
    0.5950   -2.1460    2.0040 H   0  0  0  0  0  0  0  0  0  0  0  0
    3.2380   -1.0080    1.6850 H   0  0  0  0  0  0  0  0  0  0  0  0
    2.6800   -2.5890    1.6000 H   0  0  0  0  0  0  0  0  0  0  0  0
   -0.6420    0.5440    1.2630 N   0  0  0  0  0  0  0  0  0  0  0  0
   -1.2930    1.3730    0.3530 C   0  0  1  0  0  0  0  0  0  0  0  0
   -0.7490    2.7440    0.1710 C   0  0  0  0  0  0  0  0  0  0  0  0
   -0.7940    3.5980    1.3610 C   0  0  0  0  0  0  0  0  0  0  0  0
    0.0190    3.2550    2.5220 C   0  0  0  0  0  0  0  0  0  0  0  0
    0.9050    2.3920    2.5870 O   0  0  0  0  0  0  0  0  0  0  0  0
   -1.7690    0.8290   -0.9140 C   0  0  0  0  0  0  0  0  0  0  0  0
   -2.0990    1.6670   -1.8160 O   0  0  0  0  0  0  0  0  0  0  0  0
   -0.2120    3.9700    3.7120 O   0  0  0  0  0  0  0  0  0  0  0  0
   -0.9380    0.4730    2.2560 H   0  0  0  0  0  0  0  0  0  0  0  0
   -2.3170    1.6300    0.9560 H   0  0  0  0  0  0  0  0  0  0  0  0
   -1.1770    3.2460   -0.7460 H   0  0  0  0  0  0  0  0  0  0  0  0
    0.3520    2.5950   -0.0920 H   0  0  0  0  0  0  0  0  0  0  0  0
   -1.8650    3.6940    1.7720 H   0  0  0  0  0  0  0  0  0  0  0  0
   -0.5340    4.6570    1.0060 H   0  0  0  0  0  0  0  0  0  0  0  0
    0.4190    3.8770    4.4890 H   0  0  0  0  0  0  0  0  0  0  0  0
   -1.9150   -0.5420   -1.2500 N   0  0  0  0  0  0  0  0  0  0  0  0
   -2.4120   -0.9190   -2.5460 C   0  0  1  0  0  0  0  0  0  0  0  0
   -2.0710   -2.2750   -2.9840 C   0  0  0  0  0  0  0  0  0  0  0  0
   -0.6790   -2.6800   -3.1000 C   0  0  0  0  0  0  0  0  0  0  0  0
    0.0890   -2.5510   -4.2360 C   0  0  0  0  0  0  0  0  0  0  0  0
    1.3240   -2.9870   -3.9780 N   0  0  0  0  0  0  0  0  0  0  0  0
    1.3720   -3.3990   -2.6950 C   0  0  0  0  0  0  0  0  0  0  0  0
    2.4090   -3.9480   -1.9810 C   0  0  0  0  0  0  0  0  0  0  0  0
    2.1920   -4.3180   -0.6780 C   0  0  0  0  0  0  0  0  0  0  0  0
    0.9740   -4.1490   -0.0940 C   0  0  0  0  0  0  0  0  0  0  0  0
   -0.0520   -3.6010   -0.8140 C   0  0  0  0  0  0  0  0  0  0  0  0
    0.1280   -3.2130   -2.1330 C   0  0  0  0  0  0  0  0  0  0  0  0
   -3.9540   -0.9140   -2.4920 C   0  0  0  0  0  0  0  0  0  0  0  0
   -4.4470   -0.5950   -1.3880 O   0  0  0  0  0  0  0  0  0  0  0  0
   -4.7120   -1.2380   -3.5790 O   0  0  0  0  0  0  0  0  0  0  0  0
   -1.6500   -1.2160   -0.5120 H   0  0  0  0  0  0  0  0  0  0  0  0
   -2.1770   -0.1570   -3.3260 H   0  0  0  0  0  0  0  0  0  0  0  0
   -2.6160   -2.5040   -3.9740 H   0  0  0  0  0  0  0  0  0  0  0  0
   -2.6410   -2.9980   -2.2880 H   0  0  0  0  0  0  0  0  0  0  0  0
   -0.1870   -2.1680   -5.2190 H   0  0  0  0  0  0  0  0  0  0  0  0
    2.1490   -3.0220   -4.6380 H   0  0  0  0  0  0  0  0  0  0  0  0
    3.3940   -4.1020   -2.4020 H   0  0  0  0  0  0  0  0  0  0  0  0
    2.9840   -4.7530   -0.0830 H   0  0  0  0  0  0  0  0  0  0  0  0
    0.7550   -4.4290    0.9360 H   0  0  0  0  0  0  0  0  0  0  0  0
   -1.0210   -3.4660   -0.3840 H   0  0  0  0  0  0  0  0  0  0  0  0
  1  9  1  0  0  0  0
  2  1  1  0  0  0  0
  3 12  1  0  0  0  0
  3  2  1  0  0  0  0
  4 15  1  0  0  0  0
  4  3  1  0  0  0  0
  5 16  1  1  0  0  0
  5  4  1  0  0  0  0
  6 18  1  0  0  0  0
  6 17  1  0  0  0  0
  6  5  1  0  0  0  0
  7 19  1  0  0  0  0
  7  5  1  0  0  0  0
  8  7  2  0  0  0  0
 10  1  1  0  0  0  0
 11  1  1  0  0  0  0
 13  3  1  0  0  0  0
 14  4  1  0  0  0  0
 19 28  1  0  0  0  0
 20 29  1  1  0  0  0
 20 19  1  0  0  0  0
 21 20  1  0  0  0  0
 21 22  1  0  0  0  0
 22 32  1  0  0  0  0
 22 23  1  0  0  0  0
 23 24  2  0  0  0  0
 23 27  1  0  0  0  0
 25 20  1  0  0  0  0
 26 25  2  0  0  0  0
 27 34  1  0  0  0  0
 30 21  1  0  0  0  0
 31 21  1  0  0  0  0
 33 22  1  0  0  0  0
 35 25  1  0  0  0  0
 35 50  1  0  0  0  0
 36 51  1  6  0  0  0
 36 47  1  0  0  0  0
 36 35  1  0  0  0  0
 37 36  1  0  0  0  0
 37 53  1  0  0  0  0
 38 37  1  0  0  0  0
 38 46  1  0  0  0  0
 39 40  1  0  0  0  0
 39 38  2  0  0  0  0
 40 41  1  0  0  0  0
 41 46  2  0  0  0  0
 41 42  1  0  0  0  0
 42 43  2  0  0  0  0
 43 44  1  0  0  0  0
 43 57  1  0  0  0  0
 44 58  1  0  0  0  0
 45 59  1  0  0  0  0
 45 44  2  0  0  0  0
 46 45  1  0  0  0  0
 47 48  1  0  0  0  0
 49 47  2  0  0  0  0
 52 37  1  0  0  0  0
 54 39  1  0  0  0  0
 55 40  1  0  0  0  0
 56 42  1  0  0  0  0
M  END
$$$$
