MEY.pdb
 OpenBabel07022418543D

 56 56  0  0  1  0  0  0  0  0999 V2000
   -1.9090    2.3520    5.0690 C   0  0  0  0  0  0  0  0  0  0  0  0
   -0.4220    1.8130    4.1950 S   0  0  0  0  0  0  0  0  0  0  0  0
    0.9790    1.6360    5.2900 C   0  0  0  0  0  0  0  0  0  0  0  0
    2.2100    1.1980    4.6110 C   0  0  0  0  0  0  0  0  0  0  0  0
    2.1900   -0.1440    3.9810 C   0  0  2  0  0  0  0  0  0  0  0  0
    3.5300   -0.3200    3.3830 N   0  0  0  0  0  0  0  0  0  0  0  0
    1.1590   -0.4020    2.9710 C   0  0  0  0  0  0  0  0  0  0  0  0
   -0.0530   -0.6550    3.2310 O   0  0  0  0  0  0  0  0  0  0  0  0
   -2.0110    3.4430    4.9240 H   0  0  0  0  0  0  0  0  0  0  0  0
   -2.7870    1.8740    4.5950 H   0  0  0  0  0  0  0  0  0  0  0  0
   -1.8280    2.1210    6.1540 H   0  0  0  0  0  0  0  0  0  0  0  0
    1.1410    2.6180    5.7990 H   0  0  0  0  0  0  0  0  0  0  0  0
    0.7210    0.8730    6.0640 H   0  0  0  0  0  0  0  0  0  0  0  0
    3.0230    1.1470    5.4100 H   0  0  0  0  0  0  0  0  0  0  0  0
    2.6160    1.9800    3.9080 H   0  0  0  0  0  0  0  0  0  0  0  0
    2.1330   -0.9120    4.7820 H   0  0  0  0  0  0  0  0  0  0  0  0
    3.8160    0.5200    2.8480 H   0  0  0  0  0  0  0  0  0  0  0  0
    3.5820   -1.1850    2.8280 H   0  0  0  0  0  0  0  0  0  0  0  0
    1.5820   -0.3600    1.5860 N   0  0  0  0  0  0  0  0  0  0  0  0
    0.6140   -0.6060    0.5380 C   0  0  1  0  0  0  0  0  0  0  0  0
    0.4890    0.6680   -0.3070 C   0  0  0  0  0  0  0  0  0  0  0  0
    0.0280    1.7660    0.6280 C   0  0  0  0  0  0  0  0  0  0  0  0
   -0.1310    3.0560   -0.0790 C   0  0  0  0  0  0  0  0  0  0  0  0
    0.1160    3.1150   -1.3080 O   0  0  0  0  0  0  0  0  0  0  0  0
    1.1030   -1.7360   -0.2870 C   0  0  0  0  0  0  0  0  0  0  0  0
    2.1920   -2.3110   -0.0300 O   0  0  0  0  0  0  0  0  0  0  0  0
   -0.5420    4.2040    0.5640 O   0  0  0  0  0  0  0  0  0  0  0  0
    2.5800   -0.1520    1.3630 H   0  0  0  0  0  0  0  0  0  0  0  0
   -0.3590   -0.7830    0.9930 H   0  0  0  0  0  0  0  0  0  0  0  0
    1.4890    0.9760   -0.6840 H   0  0  0  0  0  0  0  0  0  0  0  0
   -0.2510    0.5470   -1.1060 H   0  0  0  0  0  0  0  0  0  0  0  0
   -0.9210    1.4810    1.1420 H   0  0  0  0  0  0  0  0  0  0  0  0
    0.7870    1.8750    1.4540 H   0  0  0  0  0  0  0  0  0  0  0  0
   -0.4020    5.1360    0.1970 H   0  0  0  0  0  0  0  0  0  0  0  0
   -5.3290   -2.7980   -3.5800 O   0  0  0  0  0  0  0  0  0  0  0  0
   -4.0580   -3.2030   -3.1640 C   0  0  0  0  0  0  0  0  0  0  0  0
   -3.6230   -3.0160   -1.8700 C   0  0  0  0  0  0  0  0  0  0  0  0
   -2.3490   -3.4450   -1.5340 C   0  0  0  0  0  0  0  0  0  0  0  0
   -1.5020   -4.0490   -2.4440 C   0  0  0  0  0  0  0  0  0  0  0  0
   -0.1490   -4.4820   -2.0100 C   0  0  0  0  0  0  0  0  0  0  0  0
    0.8570   -3.3450   -2.2210 C   0  0  2  0  0  0  0  0  0  0  0  0
    0.3790   -2.2390   -1.4130 N   0  0  0  0  0  0  0  0  0  0  0  0
    0.9860   -2.9950   -3.6380 C   0  0  0  0  0  0  0  0  0  0  0  0
    1.3910   -3.8660   -4.4410 O   0  0  0  0  0  0  0  0  0  0  0  0
   -1.9460   -4.2320   -3.7380 C   0  0  0  0  0  0  0  0  0  0  0  0
   -3.2260   -3.8060   -4.0910 C   0  0  0  0  0  0  0  0  0  0  0  0
    0.6780   -1.7430   -4.1140 O   0  0  0  0  0  0  0  0  0  0  0  0
   -5.5270   -2.5170   -4.5290 H   0  0  0  0  0  0  0  0  0  0  0  0
   -4.2800   -2.5380   -1.1310 H   0  0  0  0  0  0  0  0  0  0  0  0
   -2.0000   -3.3020   -0.5220 H   0  0  0  0  0  0  0  0  0  0  0  0
   -0.2000   -4.6670   -0.9100 H   0  0  0  0  0  0  0  0  0  0  0  0
    0.1940   -5.4030   -2.4860 H   0  0  0  0  0  0  0  0  0  0  0  0
    1.8340   -3.7270   -1.8470 H   0  0  0  0  0  0  0  0  0  0  0  0
   -0.5150   -1.7960   -1.6560 H   0  0  0  0  0  0  0  0  0  0  0  0
   -1.2850   -4.7080   -4.4650 H   0  0  0  0  0  0  0  0  0  0  0  0
   -3.5820   -3.9460   -5.1070 H   0  0  0  0  0  0  0  0  0  0  0  0
  1 11  1  0  0  0  0
  2  1  1  0  0  0  0
  2  3  1  0  0  0  0
  3 12  1  0  0  0  0
  3 13  1  0  0  0  0
  4  3  1  0  0  0  0
  4 14  1  0  0  0  0
  5  4  1  0  0  0  0
  5 16  1  1  0  0  0
  6  5  1  0  0  0  0
  7  8  2  0  0  0  0
  7  5  1  0  0  0  0
  9  1  1  0  0  0  0
 10  1  1  0  0  0  0
 15  4  1  0  0  0  0
 17  6  1  0  0  0  0
 18  6  1  0  0  0  0
 19  7  1  0  0  0  0
 20 29  1  1  0  0  0
 20 19  1  0  0  0  0
 21 20  1  0  0  0  0
 21 22  1  0  0  0  0
 22 32  1  0  0  0  0
 22 33  1  0  0  0  0
 23 27  1  0  0  0  0
 23 22  1  0  0  0  0
 24 23  2  0  0  0  0
 25 26  2  0  0  0  0
 25 20  1  0  0  0  0
 28 19  1  0  0  0  0
 30 21  1  0  0  0  0
 31 21  1  0  0  0  0
 34 27  1  0  0  0  0
 35 36  1  0  0  0  0
 36 37  1  0  0  0  0
 37 38  2  0  0  0  0
 37 49  1  0  0  0  0
 38 50  1  0  0  0  0
 39 40  1  0  0  0  0
 39 38  1  0  0  0  0
 40 51  1  0  0  0  0
 41 40  1  0  0  0  0
 41 53  1  1  0  0  0
 41 42  1  0  0  0  0
 42 25  1  0  0  0  0
 43 41  1  0  0  0  0
 44 43  2  0  0  0  0
 45 39  2  0  0  0  0
 46 45  1  0  0  0  0
 46 36  2  0  0  0  0
 47 43  1  0  0  0  0
 48 35  1  0  0  0  0
 52 40  1  0  0  0  0
 54 42  1  0  0  0  0
 55 45  1  0  0  0  0
 56 46  1  0  0  0  0
M  END
$$$$
