MFA.pdb
 OpenBabel07022418563D

 49 49  0  0  1  0  0  0  0  0999 V2000
    0.8110   -5.2400    0.4850 C   0  0  0  0  0  0  0  0  0  0  0  0
    1.5490   -5.0450    2.1250 S   0  0  0  0  0  0  0  0  0  0  0  0
    1.7740   -3.3010    2.5590 C   0  0  0  0  0  0  0  0  0  0  0  0
    2.8130   -2.6470    1.6440 C   0  0  0  0  0  0  0  0  0  0  0  0
    2.9230   -1.1840    2.0940 C   0  0  2  0  0  0  0  0  0  0  0  0
    3.3400   -1.1180    3.4610 N   0  0  0  0  0  0  0  0  0  0  0  0
    1.5600   -0.5730    1.9210 C   0  0  0  0  0  0  0  0  0  0  0  0
    0.9150   -0.0950    2.8910 O   0  0  0  0  0  0  0  0  0  0  0  0
    1.0330   -6.2800    0.1380 H   0  0  0  0  0  0  0  0  0  0  0  0
    1.2150   -4.4990   -0.2500 H   0  0  0  0  0  0  0  0  0  0  0  0
   -0.2920   -5.1610    0.5080 H   0  0  0  0  0  0  0  0  0  0  0  0
    0.8170   -2.7280    2.4610 H   0  0  0  0  0  0  0  0  0  0  0  0
    2.1620   -3.2670    3.5870 H   0  0  0  0  0  0  0  0  0  0  0  0
    2.5340   -2.7030    0.5850 H   0  0  0  0  0  0  0  0  0  0  0  0
    3.7800   -3.1620    1.7530 H   0  0  0  0  0  0  0  0  0  0  0  0
    3.6190   -0.6610    1.4380 H   0  0  0  0  0  0  0  0  0  0  0  0
    2.9770   -0.2270    3.8640 H   0  0  0  0  0  0  0  0  0  0  0  0
    4.3970   -1.0760    3.4680 H   0  0  0  0  0  0  0  0  0  0  0  0
    0.9330   -0.5070    0.6480 N   0  0  0  0  0  0  0  0  0  0  0  0
   -0.3760    0.0820    0.5050 C   0  0  1  0  0  0  0  0  0  0  0  0
   -0.3730    1.2480   -0.4600 C   0  0  0  0  0  0  0  0  0  0  0  0
    0.5740    2.2680    0.0840 C   0  0  0  0  0  0  0  0  0  0  0  0
    1.8980    2.2590   -0.2520 C   0  0  0  0  0  0  0  0  0  0  0  0
    2.8040    3.1940    0.2370 C   0  0  0  0  0  0  0  0  0  0  0  0
    2.3220    4.1600    1.0950 C   0  0  0  0  0  0  0  0  0  0  0  0
    0.9920    4.2090    1.4630 C   0  0  0  0  0  0  0  0  0  0  0  0
    0.1240    3.2450    0.9430 C   0  0  0  0  0  0  0  0  0  0  0  0
   -1.2690   -0.9810   -0.0700 C   0  0  0  0  0  0  0  0  0  0  0  0
   -0.8350   -2.1280   -0.3430 O   0  0  0  0  0  0  0  0  0  0  0  0
    1.4180   -0.8860   -0.1920 H   0  0  0  0  0  0  0  0  0  0  0  0
   -0.8030    0.4430    1.4400 H   0  0  0  0  0  0  0  0  0  0  0  0
   -0.0600    0.9650   -1.4700 H   0  0  0  0  0  0  0  0  0  0  0  0
   -1.3860    1.7030   -0.4160 H   0  0  0  0  0  0  0  0  0  0  0  0
    2.2530    1.4930   -0.9270 H   0  0  0  0  0  0  0  0  0  0  0  0
    3.8500    3.1870   -0.0290 H   0  0  0  0  0  0  0  0  0  0  0  0
    2.9720    4.9090    1.5050 H   0  0  0  0  0  0  0  0  0  0  0  0
    0.6310    4.9660    2.1310 H   0  0  0  0  0  0  0  0  0  0  0  0
   -0.9220    3.2690    1.2210 H   0  0  0  0  0  0  0  0  0  0  0  0
   -4.5900   -2.0170    0.0970 C   0  0  0  0  0  0  0  0  0  0  0  0
   -3.4560   -1.7770   -0.8780 C   0  0  2  0  0  0  0  0  0  0  0  0
   -2.6420   -0.7230   -0.3250 N   0  0  0  0  0  0  0  0  0  0  0  0
   -4.0700   -1.3510   -2.1810 C   0  0  0  0  0  0  0  0  0  0  0  0
   -4.8200   -2.1180   -2.8330 O   0  0  0  0  0  0  0  0  0  0  0  0
   -3.8310   -0.0910   -2.7120 O   0  0  0  0  0  0  0  0  0  0  0  0
   -4.6660   -3.1230    0.2190 H   0  0  0  0  0  0  0  0  0  0  0  0
   -4.3700   -1.5870    1.0900 H   0  0  0  0  0  0  0  0  0  0  0  0
   -5.5410   -1.6000   -0.2790 H   0  0  0  0  0  0  0  0  0  0  0  0
   -2.8550   -2.6750   -1.0460 H   0  0  0  0  0  0  0  0  0  0  0  0
   -3.0790    0.1830   -0.1330 H   0  0  0  0  0  0  0  0  0  0  0  0
  1 11  1  0  0  0  0
  1  2  1  0  0  0  0
  2  3  1  0  0  0  0
  3 13  1  0  0  0  0
  4 15  1  0  0  0  0
  4  5  1  0  0  0  0
  4  3  1  0  0  0  0
  5 16  1  6  0  0  0
  5  6  1  0  0  0  0
  6 18  1  0  0  0  0
  6 17  1  0  0  0  0
  7  5  1  0  0  0  0
  7  8  2  0  0  0  0
  9  1  1  0  0  0  0
 10  1  1  0  0  0  0
 12  3  1  0  0  0  0
 14  4  1  0  0  0  0
 19  7  1  0  0  0  0
 20 19  1  0  0  0  0
 20 31  1  1  0  0  0
 21 33  1  0  0  0  0
 21 22  1  0  0  0  0
 21 20  1  0  0  0  0
 22 27  1  0  0  0  0
 23 22  2  0  0  0  0
 23 24  1  0  0  0  0
 24 25  2  0  0  0  0
 25 26  1  0  0  0  0
 25 36  1  0  0  0  0
 26 37  1  0  0  0  0
 27 38  1  0  0  0  0
 27 26  2  0  0  0  0
 28 20  1  0  0  0  0
 29 28  2  0  0  0  0
 30 19  1  0  0  0  0
 32 21  1  0  0  0  0
 34 23  1  0  0  0  0
 35 24  1  0  0  0  0
 39 45  1  0  0  0  0
 39 46  1  0  0  0  0
 40 48  1  6  0  0  0
 40 41  1  0  0  0  0
 40 39  1  0  0  0  0
 41 49  1  0  0  0  0
 41 28  1  0  0  0  0
 42 40  1  0  0  0  0
 43 42  2  0  0  0  0
 44 42  1  0  0  0  0
 47 39  1  0  0  0  0
M  END
$$$$
