MFC.pdb
 OpenBabel07022418563D

 50 50  0  0  1  0  0  0  0  0999 V2000
    4.5360   -2.8180   -0.1130 C   0  0  0  0  0  0  0  0  0  0  0  0
    4.4140   -1.9680   -1.6930 S   0  0  0  0  0  0  0  0  0  0  0  0
    3.0010   -0.9340   -1.9110 C   0  0  0  0  0  0  0  0  0  0  0  0
    2.9040    0.3380   -1.1800 C   0  0  0  0  0  0  0  0  0  0  0  0
    2.9230    0.3660    0.2900 C   0  0  2  0  0  0  0  0  0  0  0  0
    4.0950   -0.1310    0.9410 N   0  0  0  0  0  0  0  0  0  0  0  0
    1.6770   -0.2300    0.8960 C   0  0  0  0  0  0  0  0  0  0  0  0
    1.7460   -1.0660    1.8340 O   0  0  0  0  0  0  0  0  0  0  0  0
    4.7120   -3.9240   -0.2600 H   0  0  0  0  0  0  0  0  0  0  0  0
    5.4380   -2.4470    0.4140 H   0  0  0  0  0  0  0  0  0  0  0  0
    3.6050   -2.7710    0.4790 H   0  0  0  0  0  0  0  0  0  0  0  0
    2.0510   -1.5490   -1.8290 H   0  0  0  0  0  0  0  0  0  0  0  0
    2.9720   -0.6520   -3.0200 H   0  0  0  0  0  0  0  0  0  0  0  0
    1.9290    0.8210   -1.5000 H   0  0  0  0  0  0  0  0  0  0  0  0
    3.7260    1.0180   -1.5350 H   0  0  0  0  0  0  0  0  0  0  0  0
    2.8540    1.4570    0.5880 H   0  0  0  0  0  0  0  0  0  0  0  0
    4.2870    0.3670    1.8620 H   0  0  0  0  0  0  0  0  0  0  0  0
    4.9670   -0.0010    0.3880 H   0  0  0  0  0  0  0  0  0  0  0  0
    0.3810    0.1230    0.4370 N   0  0  0  0  0  0  0  0  0  0  0  0
   -0.8290   -0.4410    1.0070 C   0  0  1  0  0  0  0  0  0  0  0  0
   -1.5950    0.7300    1.6350 C   0  0  0  0  0  0  0  0  0  0  0  0
   -0.6830    1.2980    2.6660 C   0  0  0  0  0  0  0  0  0  0  0  0
    0.2130    2.2940    2.3610 C   0  0  0  0  0  0  0  0  0  0  0  0
    1.0570    2.8180    3.3250 C   0  0  0  0  0  0  0  0  0  0  0  0
    1.0130    2.3430    4.6210 C   0  0  0  0  0  0  0  0  0  0  0  0
    0.1140    1.3470    4.9140 C   0  0  0  0  0  0  0  0  0  0  0  0
   -0.7280    0.8280    3.9440 C   0  0  0  0  0  0  0  0  0  0  0  0
   -1.6140   -1.0770   -0.0620 C   0  0  0  0  0  0  0  0  0  0  0  0
   -1.2030   -1.0680   -1.2270 O   0  0  0  0  0  0  0  0  0  0  0  0
    0.2590    0.8200   -0.3450 H   0  0  0  0  0  0  0  0  0  0  0  0
   -0.6060   -1.1690    1.8120 H   0  0  0  0  0  0  0  0  0  0  0  0
   -1.8140    1.5070    0.8950 H   0  0  0  0  0  0  0  0  0  0  0  0
   -2.5420    0.3710    2.0930 H   0  0  0  0  0  0  0  0  0  0  0  0
    0.2320    2.6550    1.3300 H   0  0  0  0  0  0  0  0  0  0  0  0
    1.7630    3.6040    3.0800 H   0  0  0  0  0  0  0  0  0  0  0  0
    1.6650    2.7360    5.3960 H   0  0  0  0  0  0  0  0  0  0  0  0
    0.0430    0.9420    5.9170 H   0  0  0  0  0  0  0  0  0  0  0  0
   -1.4300    0.0460    4.1850 H   0  0  0  0  0  0  0  0  0  0  0  0
   -2.8620   -1.7200    0.1970 N   0  0  0  0  0  0  0  0  0  0  0  0
   -3.6600   -2.3500   -0.8010 C   0  0  1  0  0  0  0  0  0  0  0  0
   -3.8310   -3.8330   -0.5970 C   0  0  0  0  0  0  0  0  0  0  0  0
   -2.2610   -4.7190   -0.6070 S   0  0  0  0  0  0  0  0  0  0  0  0
   -4.9840   -1.7540   -0.9840 C   0  0  0  0  0  0  0  0  0  0  0  0
   -5.3450   -0.7750   -0.3020 O   0  0  0  0  0  0  0  0  0  0  0  0
   -5.8450   -2.2780   -1.9230 O   0  0  0  0  0  0  0  0  0  0  0  0
   -3.2050   -1.7240    1.1830 H   0  0  0  0  0  0  0  0  0  0  0  0
   -3.1130   -2.2310   -1.7810 H   0  0  0  0  0  0  0  0  0  0  0  0
   -4.4160   -4.2000   -1.4920 H   0  0  0  0  0  0  0  0  0  0  0  0
   -4.4610   -4.0760    0.2760 H   0  0  0  0  0  0  0  0  0  0  0  0
   -2.5040   -6.0450   -1.0310 H   0  0  0  0  0  0  0  0  0  0  0  0
  1 10  1  0  0  0  0
  1 11  1  0  0  0  0
  2  1  1  0  0  0  0
  3 12  1  0  0  0  0
  3  2  1  0  0  0  0
  3  4  1  0  0  0  0
  4  5  1  0  0  0  0
  5 16  1  1  0  0  0
  5  7  1  0  0  0  0
  5  6  1  0  0  0  0
  6 17  1  0  0  0  0
  7  8  2  0  0  0  0
  9  1  1  0  0  0  0
 13  3  1  0  0  0  0
 14  4  1  0  0  0  0
 15  4  1  0  0  0  0
 18  6  1  0  0  0  0
 19  7  1  0  0  0  0
 19 20  1  0  0  0  0
 20 21  1  0  0  0  0
 20 31  1  1  0  0  0
 21 33  1  0  0  0  0
 21 22  1  0  0  0  0
 22 27  1  0  0  0  0
 23 22  2  0  0  0  0
 23 24  1  0  0  0  0
 24 25  2  0  0  0  0
 25 26  1  0  0  0  0
 25 36  1  0  0  0  0
 26 37  1  0  0  0  0
 27 38  1  0  0  0  0
 27 26  2  0  0  0  0
 28 39  1  0  0  0  0
 28 20  1  0  0  0  0
 29 28  2  0  0  0  0
 30 19  1  0  0  0  0
 32 21  1  0  0  0  0
 34 23  1  0  0  0  0
 35 24  1  0  0  0  0
 39 46  1  0  0  0  0
 40 47  1  6  0  0  0
 40 41  1  0  0  0  0
 40 39  1  0  0  0  0
 41 49  1  0  0  0  0
 42 41  1  0  0  0  0
 43 40  1  0  0  0  0
 43 44  1  0  0  0  0
 45 43  2  0  0  0  0
 48 41  1  0  0  0  0
 50 42  1  0  0  0  0
M  END
$$$$
