MFD.pdb
 OpenBabel07022418563D

 52 52  0  0  1  0  0  0  0  0999 V2000
   -1.9220   -2.8390    4.9060 C   0  0  0  0  0  0  0  0  0  0  0  0
   -0.3510   -3.3700    4.2260 S   0  0  0  0  0  0  0  0  0  0  0  0
    0.3100   -2.1720    3.0280 C   0  0  0  0  0  0  0  0  0  0  0  0
    0.6420   -0.9210    3.7670 C   0  0  0  0  0  0  0  0  0  0  0  0
    1.2360    0.1750    2.8700 C   0  0  2  0  0  0  0  0  0  0  0  0
    1.4720    1.3150    3.7990 N   0  0  0  0  0  0  0  0  0  0  0  0
    0.3200    0.5810    1.7940 C   0  0  0  0  0  0  0  0  0  0  0  0
   -0.4190    1.5560    1.9320 O   0  0  0  0  0  0  0  0  0  0  0  0
   -1.7940   -2.1410    5.7820 H   0  0  0  0  0  0  0  0  0  0  0  0
   -2.4330   -3.7430    5.3200 H   0  0  0  0  0  0  0  0  0  0  0  0
   -2.6090   -2.4080    4.1690 H   0  0  0  0  0  0  0  0  0  0  0  0
   -0.4630   -2.0140    2.2430 H   0  0  0  0  0  0  0  0  0  0  0  0
    1.2080   -2.5690    2.5280 H   0  0  0  0  0  0  0  0  0  0  0  0
   -0.2370   -0.5100    4.3230 H   0  0  0  0  0  0  0  0  0  0  0  0
    1.3870   -1.1770    4.5490 H   0  0  0  0  0  0  0  0  0  0  0  0
    2.2210   -0.1520    2.5370 H   0  0  0  0  0  0  0  0  0  0  0  0
    0.6170    1.3400    4.4010 H   0  0  0  0  0  0  0  0  0  0  0  0
    2.2930    1.0480    4.3650 H   0  0  0  0  0  0  0  0  0  0  0  0
    0.2690   -0.1350    0.5700 N   0  0  0  0  0  0  0  0  0  0  0  0
   -0.5910    0.2050   -0.5150 C   0  0  1  0  0  0  0  0  0  0  0  0
    0.1090    1.0150   -1.5980 C   0  0  0  0  0  0  0  0  0  0  0  0
    0.6320    2.2880   -1.0430 C   0  0  0  0  0  0  0  0  0  0  0  0
    1.8960    2.4200   -0.5060 C   0  0  0  0  0  0  0  0  0  0  0  0
    2.3540    3.6280    0.0050 C   0  0  0  0  0  0  0  0  0  0  0  0
    1.5210    4.7250   -0.0250 C   0  0  0  0  0  0  0  0  0  0  0  0
    0.2600    4.6290   -0.5510 C   0  0  0  0  0  0  0  0  0  0  0  0
   -0.1590    3.4160   -1.0490 C   0  0  0  0  0  0  0  0  0  0  0  0
   -1.2010   -1.0060   -1.0680 C   0  0  0  0  0  0  0  0  0  0  0  0
   -2.0880   -0.8430   -1.9920 O   0  0  0  0  0  0  0  0  0  0  0  0
    0.8950   -0.9550    0.4410 H   0  0  0  0  0  0  0  0  0  0  0  0
   -1.3360    0.9510   -0.1020 H   0  0  0  0  0  0  0  0  0  0  0  0
    0.8460    0.4360   -2.1510 H   0  0  0  0  0  0  0  0  0  0  0  0
   -0.6900    1.2890   -2.3190 H   0  0  0  0  0  0  0  0  0  0  0  0
    2.5440    1.5620   -0.4840 H   0  0  0  0  0  0  0  0  0  0  0  0
    3.3270    3.7540    0.4260 H   0  0  0  0  0  0  0  0  0  0  0  0
    1.8210    5.6920    0.3580 H   0  0  0  0  0  0  0  0  0  0  0  0
   -0.3980    5.4880   -0.5770 H   0  0  0  0  0  0  0  0  0  0  0  0
   -1.1530    3.3260   -1.4670 H   0  0  0  0  0  0  0  0  0  0  0  0
   -0.9540   -2.3410   -0.7310 N   0  0  0  0  0  0  0  0  0  0  0  0
   -1.6330   -3.4730   -1.3550 C   0  0  1  0  0  0  0  0  0  0  0  0
   -0.6700   -4.4270   -2.0010 C   0  0  0  0  0  0  0  0  0  0  0  0
    0.1530   -3.8360   -3.0610 C   0  0  0  0  0  0  0  0  0  0  0  0
    0.0250   -2.6350   -3.3630 O   0  0  0  0  0  0  0  0  0  0  0  0
   -2.3370   -4.2050   -0.2920 C   0  0  0  0  0  0  0  0  0  0  0  0
   -2.9970   -5.2230   -0.5770 O   0  0  0  0  0  0  0  0  0  0  0  0
    1.0740   -4.6060   -3.7300 O   0  0  0  0  0  0  0  0  0  0  0  0
   -2.2710   -3.7750    1.0080 O   0  0  0  0  0  0  0  0  0  0  0  0
   -0.2380   -2.5330   -0.0020 H   0  0  0  0  0  0  0  0  0  0  0  0
   -2.3330   -3.1070   -2.1430 H   0  0  0  0  0  0  0  0  0  0  0  0
   -1.2440   -5.2640   -2.4620 H   0  0  0  0  0  0  0  0  0  0  0  0
   -0.0130   -4.9090   -1.2450 H   0  0  0  0  0  0  0  0  0  0  0  0
    1.4310   -4.3730   -4.6600 H   0  0  0  0  0  0  0  0  0  0  0  0
  1 10  1  0  0  0  0
  1  9  1  0  0  0  0
  2  1  1  0  0  0  0
  3  4  1  0  0  0  0
  3  2  1  0  0  0  0
  4 14  1  0  0  0  0
  4 15  1  0  0  0  0
  5 16  1  6  0  0  0
  5  4  1  0  0  0  0
  5  6  1  0  0  0  0
  6 18  1  0  0  0  0
  6 17  1  0  0  0  0
  7  8  2  0  0  0  0
  7  5  1  0  0  0  0
 11  1  1  0  0  0  0
 12  3  1  0  0  0  0
 13  3  1  0  0  0  0
 19  7  1  0  0  0  0
 20 31  1  1  0  0  0
 20 19  1  0  0  0  0
 21 22  1  0  0  0  0
 21 20  1  0  0  0  0
 22 23  1  0  0  0  0
 23 34  1  0  0  0  0
 23 24  2  0  0  0  0
 24 35  1  0  0  0  0
 25 24  1  0  0  0  0
 25 36  1  0  0  0  0
 26 25  2  0  0  0  0
 27 22  2  0  0  0  0
 27 26  1  0  0  0  0
 28 39  1  0  0  0  0
 28 20  1  0  0  0  0
 29 28  2  0  0  0  0
 30 19  1  0  0  0  0
 32 21  1  0  0  0  0
 33 21  1  0  0  0  0
 37 26  1  0  0  0  0
 38 27  1  0  0  0  0
 39 48  1  0  0  0  0
 40 49  1  6  0  0  0
 40 39  1  0  0  0  0
 40 44  1  0  0  0  0
 41 40  1  0  0  0  0
 41 51  1  0  0  0  0
 42 41  1  0  0  0  0
 43 42  2  0  0  0  0
 44 47  1  0  0  0  0
 45 44  2  0  0  0  0
 46 42  1  0  0  0  0
 50 41  1  0  0  0  0
 52 46  1  0  0  0  0
M  END
$$$$
