MFF.pdb
 OpenBabel07022418563D

 59 60  0  0  1  0  0  0  0  0999 V2000
   -0.0100   -2.9380    5.0520 C   0  0  0  0  0  0  0  0  0  0  0  0
    0.8980   -3.7880    3.7360 S   0  0  0  0  0  0  0  0  0  0  0  0
    1.5260   -2.5680    2.5070 C   0  0  0  0  0  0  0  0  0  0  0  0
    2.5440   -1.7470    3.2460 C   0  0  0  0  0  0  0  0  0  0  0  0
    3.2130   -0.6810    2.4020 C   0  0  2  0  0  0  0  0  0  0  0  0
    4.1680    0.0260    3.2930 N   0  0  0  0  0  0  0  0  0  0  0  0
    2.1890    0.2740    1.9500 C   0  0  0  0  0  0  0  0  0  0  0  0
    2.0090    1.3340    2.6090 O   0  0  0  0  0  0  0  0  0  0  0  0
   -1.0250   -2.6630    4.7690 H   0  0  0  0  0  0  0  0  0  0  0  0
   -0.0430   -3.6090    5.9370 H   0  0  0  0  0  0  0  0  0  0  0  0
    0.5330   -2.0200    5.3930 H   0  0  0  0  0  0  0  0  0  0  0  0
    0.6770   -1.9420    2.1490 H   0  0  0  0  0  0  0  0  0  0  0  0
    2.0300   -3.1370    1.7060 H   0  0  0  0  0  0  0  0  0  0  0  0
    3.2840   -2.4600    3.6670 H   0  0  0  0  0  0  0  0  0  0  0  0
    2.0370   -1.2920    4.1200 H   0  0  0  0  0  0  0  0  0  0  0  0
    3.8320   -1.1160    1.6010 H   0  0  0  0  0  0  0  0  0  0  0  0
    4.8300    0.5200    2.6230 H   0  0  0  0  0  0  0  0  0  0  0  0
    4.7580   -0.7400    3.7190 H   0  0  0  0  0  0  0  0  0  0  0  0
    1.3570    0.1040    0.7880 N   0  0  0  0  0  0  0  0  0  0  0  0
    0.3790    1.1230    0.4360 C   0  0  1  0  0  0  0  0  0  0  0  0
    0.9010    1.9040   -0.7840 C   0  0  0  0  0  0  0  0  0  0  0  0
   -0.0810    2.9350   -1.1410 C   0  0  0  0  0  0  0  0  0  0  0  0
   -1.0590    2.7150   -2.0810 C   0  0  0  0  0  0  0  0  0  0  0  0
   -1.9870    3.6830   -2.4220 C   0  0  0  0  0  0  0  0  0  0  0  0
   -1.9640    4.9210   -1.8200 C   0  0  0  0  0  0  0  0  0  0  0  0
   -0.9830    5.1660   -0.8660 C   0  0  0  0  0  0  0  0  0  0  0  0
   -0.0590    4.1730   -0.5410 C   0  0  0  0  0  0  0  0  0  0  0  0
   -0.9220    0.5240    0.1420 C   0  0  0  0  0  0  0  0  0  0  0  0
   -1.9640    1.2740   -0.0050 O   0  0  0  0  0  0  0  0  0  0  0  0
    1.5110   -0.7600    0.2440 H   0  0  0  0  0  0  0  0  0  0  0  0
    0.2540    1.8590    1.2660 H   0  0  0  0  0  0  0  0  0  0  0  0
    0.9770    1.2030   -1.6460 H   0  0  0  0  0  0  0  0  0  0  0  0
    1.9010    2.2980   -0.5950 H   0  0  0  0  0  0  0  0  0  0  0  0
   -1.1090    1.7570   -2.5730 H   0  0  0  0  0  0  0  0  0  0  0  0
   -2.7500    3.5000   -3.1600 H   0  0  0  0  0  0  0  0  0  0  0  0
   -2.6680    5.7100   -2.0540 H   0  0  0  0  0  0  0  0  0  0  0  0
   -0.9730    6.1390   -0.4000 H   0  0  0  0  0  0  0  0  0  0  0  0
    0.7000    4.3780    0.2060 H   0  0  0  0  0  0  0  0  0  0  0  0
   -1.0990   -0.8640    0.0050 N   0  0  0  0  0  0  0  0  0  0  0  0
   -2.4090   -1.4300   -0.2830 C   0  0  1  0  0  0  0  0  0  0  0  0
   -2.4270   -2.1420   -1.6120 C   0  0  0  0  0  0  0  0  0  0  0  0
   -1.4580   -3.2580   -1.6730 C   0  0  0  0  0  0  0  0  0  0  0  0
   -1.8410   -4.5250   -1.2840 C   0  0  0  0  0  0  0  0  0  0  0  0
   -0.9460   -5.5940   -1.3330 C   0  0  0  0  0  0  0  0  0  0  0  0
    0.3500   -5.4200   -1.7710 C   0  0  0  0  0  0  0  0  0  0  0  0
    0.7330   -4.1540   -2.1600 C   0  0  0  0  0  0  0  0  0  0  0  0
   -0.1580   -3.1060   -2.1080 C   0  0  0  0  0  0  0  0  0  0  0  0
   -2.8370   -2.2840    0.8340 C   0  0  0  0  0  0  0  0  0  0  0  0
   -2.1080   -2.4390    1.8480 O   0  0  0  0  0  0  0  0  0  0  0  0
   -4.0530   -2.9500    0.8170 O   0  0  0  0  0  0  0  0  0  0  0  0
   -0.3060   -1.5260    0.0940 H   0  0  0  0  0  0  0  0  0  0  0  0
   -3.1150   -0.5800   -0.3550 H   0  0  0  0  0  0  0  0  0  0  0  0
   -2.2920   -1.4090   -2.4080 H   0  0  0  0  0  0  0  0  0  0  0  0
   -3.4400   -2.5860   -1.7230 H   0  0  0  0  0  0  0  0  0  0  0  0
   -2.8470   -4.6880   -0.9380 H   0  0  0  0  0  0  0  0  0  0  0  0
   -1.2220   -6.5950   -1.0330 H   0  0  0  0  0  0  0  0  0  0  0  0
    1.0460   -6.2530   -1.8080 H   0  0  0  0  0  0  0  0  0  0  0  0
    1.7440   -4.0050   -2.5040 H   0  0  0  0  0  0  0  0  0  0  0  0
    0.1520   -2.1190   -2.4150 H   0  0  0  0  0  0  0  0  0  0  0  0
  1 11  1  0  0  0  0
  1 10  1  0  0  0  0
  2  1  1  0  0  0  0
  3  4  1  0  0  0  0
  3  2  1  0  0  0  0
  4 14  1  0  0  0  0
  4 15  1  0  0  0  0
  5 16  1  6  0  0  0
  5  4  1  0  0  0  0
  5  6  1  0  0  0  0
  6 18  1  0  0  0  0
  7  5  1  0  0  0  0
  7  8  2  0  0  0  0
  9  1  1  0  0  0  0
 12  3  1  0  0  0  0
 13  3  1  0  0  0  0
 17  6  1  0  0  0  0
 19  7  1  0  0  0  0
 20 19  1  0  0  0  0
 20 31  1  1  0  0  0
 21 33  1  0  0  0  0
 21 20  1  0  0  0  0
 22 21  1  0  0  0  0
 22 27  1  0  0  0  0
 23 22  2  0  0  0  0
 24 23  1  0  0  0  0
 24 25  2  0  0  0  0
 25 26  1  0  0  0  0
 26 27  2  0  0  0  0
 26 37  1  0  0  0  0
 27 38  1  0  0  0  0
 28 20  1  0  0  0  0
 29 28  2  0  0  0  0
 30 19  1  0  0  0  0
 32 21  1  0  0  0  0
 34 23  1  0  0  0  0
 35 24  1  0  0  0  0
 36 25  1  0  0  0  0
 39 51  1  0  0  0  0
 39 28  1  0  0  0  0
 40 52  1  6  0  0  0
 40 39  1  0  0  0  0
 40 48  1  0  0  0  0
 41 40  1  0  0  0  0
 42 41  1  0  0  0  0
 42 43  1  0  0  0  0
 43 55  1  0  0  0  0
 44 43  2  0  0  0  0
 44 56  1  0  0  0  0
 45 44  1  0  0  0  0
 46 47  1  0  0  0  0
 46 45  2  0  0  0  0
 47 42  2  0  0  0  0
 48 49  1  0  0  0  0
 50 48  2  0  0  0  0
 53 41  1  0  0  0  0
 54 41  1  0  0  0  0
 57 45  1  0  0  0  0
 58 46  1  0  0  0  0
 59 47  1  0  0  0  0
M  END
$$$$
