MFG.pdb
 OpenBabel07022418563D

 46 46  0  0  1  0  0  0  0  0999 V2000
    1.8360   -4.5870    3.6380 C   0  0  0  0  0  0  0  0  0  0  0  0
    3.2180   -3.8860    2.6920 S   0  0  0  0  0  0  0  0  0  0  0  0
    2.6060   -2.6630    1.4780 C   0  0  0  0  0  0  0  0  0  0  0  0
    1.7840   -3.4140    0.4630 C   0  0  0  0  0  0  0  0  0  0  0  0
    1.2080   -2.5510   -0.6160 C   0  0  2  0  0  0  0  0  0  0  0  0
    2.1890   -1.8480   -1.4050 N   0  0  0  0  0  0  0  0  0  0  0  0
    0.1680   -1.6550   -0.0730 C   0  0  0  0  0  0  0  0  0  0  0  0
   -0.6880   -2.1460    0.6990 O   0  0  0  0  0  0  0  0  0  0  0  0
    2.2620   -5.2060    4.4530 H   0  0  0  0  0  0  0  0  0  0  0  0
    1.2300   -5.2840    3.0030 H   0  0  0  0  0  0  0  0  0  0  0  0
    1.2060   -3.8030    4.0930 H   0  0  0  0  0  0  0  0  0  0  0  0
    3.4910   -2.2170    0.9920 H   0  0  0  0  0  0  0  0  0  0  0  0
    1.9640   -1.9220    2.0000 H   0  0  0  0  0  0  0  0  0  0  0  0
    2.3410   -4.2890    0.0530 H   0  0  0  0  0  0  0  0  0  0  0  0
    0.8980   -3.8220    1.0320 H   0  0  0  0  0  0  0  0  0  0  0  0
    0.7090   -3.2610   -1.3460 H   0  0  0  0  0  0  0  0  0  0  0  0
    2.4970   -0.9590   -0.9940 H   0  0  0  0  0  0  0  0  0  0  0  0
    3.0190   -2.4970   -1.4930 H   0  0  0  0  0  0  0  0  0  0  0  0
    0.0590   -0.2650   -0.3610 N   0  0  0  0  0  0  0  0  0  0  0  0
   -0.9450    0.5950    0.1620 C   0  0  1  0  0  0  0  0  0  0  0  0
   -0.3660    1.7920    0.8460 C   0  0  0  0  0  0  0  0  0  0  0  0
    0.4940    1.3590    1.9710 C   0  0  0  0  0  0  0  0  0  0  0  0
    1.8610    1.1420    1.7860 C   0  0  0  0  0  0  0  0  0  0  0  0
    2.5860    0.7500    2.8730 C   0  0  0  0  0  0  0  0  0  0  0  0
    1.9970    0.5720    4.1110 C   0  0  0  0  0  0  0  0  0  0  0  0
    0.6560    0.7850    4.2870 C   0  0  0  0  0  0  0  0  0  0  0  0
   -0.0960    1.1820    3.2050 C   0  0  0  0  0  0  0  0  0  0  0  0
   -1.8520    1.1230   -0.9070 C   0  0  0  0  0  0  0  0  0  0  0  0
   -1.7350    0.8390   -2.1210 O   0  0  0  0  0  0  0  0  0  0  0  0
    0.7760    0.1350   -1.0040 H   0  0  0  0  0  0  0  0  0  0  0  0
   -1.5380    0.0090    0.9100 H   0  0  0  0  0  0  0  0  0  0  0  0
   -1.1860    2.4260    1.2950 H   0  0  0  0  0  0  0  0  0  0  0  0
    0.1820    2.4530    0.1390 H   0  0  0  0  0  0  0  0  0  0  0  0
    2.2900    1.2930    0.7970 H   0  0  0  0  0  0  0  0  0  0  0  0
    3.6440    0.5670    2.7940 H   0  0  0  0  0  0  0  0  0  0  0  0
    2.5960    0.2620    4.9470 H   0  0  0  0  0  0  0  0  0  0  0  0
    0.1770    0.6530    5.2400 H   0  0  0  0  0  0  0  0  0  0  0  0
   -1.1590    1.3460    3.3700 H   0  0  0  0  0  0  0  0  0  0  0  0
   -2.9020    1.9910   -0.5400 N   0  0  0  0  0  0  0  0  0  0  0  0
   -3.7810    2.5010   -1.5720 C   0  0  0  0  0  0  0  0  0  0  0  0
   -4.4340    1.3350   -2.2160 C   0  0  0  0  0  0  0  0  0  0  0  0
   -5.2570    1.4920   -3.1710 O   0  0  0  0  0  0  0  0  0  0  0  0
   -4.2100    0.0120   -1.8430 O   0  0  0  0  0  0  0  0  0  0  0  0
   -3.0900    2.2940    0.4410 H   0  0  0  0  0  0  0  0  0  0  0  0
   -4.5920    3.1350   -1.1500 H   0  0  0  0  0  0  0  0  0  0  0  0
   -3.2260    3.0550   -2.3600 H   0  0  0  0  0  0  0  0  0  0  0  0
  1 11  1  0  0  0  0
  1  9  1  0  0  0  0
  2  1  1  0  0  0  0
  3 13  1  0  0  0  0
  3  2  1  0  0  0  0
  4 15  1  0  0  0  0
  4  3  1  0  0  0  0
  5 16  1  6  0  0  0
  5  7  1  0  0  0  0
  5  4  1  0  0  0  0
  6 17  1  0  0  0  0
  6  5  1  0  0  0  0
  7  8  2  0  0  0  0
 10  1  1  0  0  0  0
 12  3  1  0  0  0  0
 14  4  1  0  0  0  0
 18  6  1  0  0  0  0
 19  7  1  0  0  0  0
 19 20  1  0  0  0  0
 20 21  1  0  0  0  0
 20 31  1  1  0  0  0
 21 32  1  0  0  0  0
 21 22  1  0  0  0  0
 22 27  1  0  0  0  0
 23 22  2  0  0  0  0
 23 24  1  0  0  0  0
 24 25  2  0  0  0  0
 25 26  1  0  0  0  0
 25 36  1  0  0  0  0
 26 37  1  0  0  0  0
 27 38  1  0  0  0  0
 27 26  2  0  0  0  0
 28 39  1  0  0  0  0
 28 20  1  0  0  0  0
 29 28  2  0  0  0  0
 30 19  1  0  0  0  0
 33 21  1  0  0  0  0
 34 23  1  0  0  0  0
 35 24  1  0  0  0  0
 39 44  1  0  0  0  0
 40 45  1  0  0  0  0
 40 39  1  0  0  0  0
 41 43  1  0  0  0  0
 41 40  1  0  0  0  0
 42 41  2  0  0  0  0
 46 40  1  0  0  0  0
M  END
$$$$
