MFH.pdb
 OpenBabel07022418563D

 56 57  0  0  1  0  0  0  0  0999 V2000
   -0.9690    0.4150    5.8390 C   0  0  0  0  0  0  0  0  0  0  0  0
   -0.3330    2.0710    5.8030 S   0  0  0  0  0  0  0  0  0  0  0  0
    0.3930    2.5870    4.2630 C   0  0  0  0  0  0  0  0  0  0  0  0
    1.6610    1.8860    3.8660 C   0  0  0  0  0  0  0  0  0  0  0  0
    1.5720    0.4420    3.5830 C   0  0  2  0  0  0  0  0  0  0  0  0
    2.9450   -0.0120    3.2730 N   0  0  0  0  0  0  0  0  0  0  0  0
    0.7000    0.1040    2.4230 C   0  0  0  0  0  0  0  0  0  0  0  0
   -0.4830    0.4740    2.4210 O   0  0  0  0  0  0  0  0  0  0  0  0
   -1.3350    0.0300    4.8860 H   0  0  0  0  0  0  0  0  0  0  0  0
   -0.2510   -0.3370    6.2520 H   0  0  0  0  0  0  0  0  0  0  0  0
   -1.8750    0.3230    6.5320 H   0  0  0  0  0  0  0  0  0  0  0  0
    0.5880    3.7080    4.3270 H   0  0  0  0  0  0  0  0  0  0  0  0
   -0.3930    2.5180    3.4760 H   0  0  0  0  0  0  0  0  0  0  0  0
    2.3390    1.9940    4.7750 H   0  0  0  0  0  0  0  0  0  0  0  0
    2.2230    2.4630    3.0870 H   0  0  0  0  0  0  0  0  0  0  0  0
    1.2400   -0.1310    4.4470 H   0  0  0  0  0  0  0  0  0  0  0  0
    3.0970   -0.9890    3.5400 H   0  0  0  0  0  0  0  0  0  0  0  0
    3.6350    0.6140    3.7690 H   0  0  0  0  0  0  0  0  0  0  0  0
    1.1670   -0.6320    1.3030 N   0  0  0  0  0  0  0  0  0  0  0  0
    0.3680   -0.9860    0.1560 C   0  0  1  0  0  0  0  0  0  0  0  0
    0.8820   -0.2350   -1.0710 C   0  0  0  0  0  0  0  0  0  0  0  0
    0.7940    1.2320   -0.8550 C   0  0  0  0  0  0  0  0  0  0  0  0
    1.8040    1.9880   -0.3040 C   0  0  0  0  0  0  0  0  0  0  0  0
    1.7030    3.3450   -0.1110 C   0  0  0  0  0  0  0  0  0  0  0  0
    0.5480    3.9950   -0.4790 C   0  0  0  0  0  0  0  0  0  0  0  0
   -0.4810    3.2550   -1.0350 C   0  0  0  0  0  0  0  0  0  0  0  0
   -0.3620    1.8900   -1.2220 C   0  0  0  0  0  0  0  0  0  0  0  0
    0.3450   -2.4350   -0.0990 C   0  0  0  0  0  0  0  0  0  0  0  0
    0.9460   -3.2950    0.5920 O   0  0  0  0  0  0  0  0  0  0  0  0
    2.1640   -0.9340    1.3180 H   0  0  0  0  0  0  0  0  0  0  0  0
   -0.6530   -0.5660    0.3470 H   0  0  0  0  0  0  0  0  0  0  0  0
    1.9620   -0.4620   -1.2100 H   0  0  0  0  0  0  0  0  0  0  0  0
    0.3680   -0.5570   -1.9860 H   0  0  0  0  0  0  0  0  0  0  0  0
    2.7250    1.5030   -0.0060 H   0  0  0  0  0  0  0  0  0  0  0  0
    2.4940    3.9390    0.3200 H   0  0  0  0  0  0  0  0  0  0  0  0
    0.4410    5.0760   -0.3370 H   0  0  0  0  0  0  0  0  0  0  0  0
   -1.3950    3.7450   -1.3300 H   0  0  0  0  0  0  0  0  0  0  0  0
   -1.1940    1.3750   -1.6570 H   0  0  0  0  0  0  0  0  0  0  0  0
   -0.4130   -2.9300   -1.2130 N   0  0  0  0  0  0  0  0  0  0  0  0
   -0.4710   -4.3460   -1.5120 C   0  0  1  0  0  0  0  0  0  0  0  0
   -1.8180   -4.9500   -1.4840 C   0  0  0  0  0  0  0  0  0  0  0  0
   -2.8040   -4.4410   -2.4370 C   0  0  0  0  0  0  0  0  0  0  0  0
   -2.7850   -3.5250   -3.4410 C   0  0  0  0  0  0  0  0  0  0  0  0
   -4.0020   -3.4530   -4.0470 N   0  0  0  0  0  0  0  0  0  0  0  0
   -4.7760   -4.3400   -3.4010 C   0  0  0  0  0  0  0  0  0  0  0  0
   -4.0830   -4.9360   -2.4430 N   0  0  0  0  0  0  0  0  0  0  0  0
    0.2770   -4.6510   -2.7700 C   0  0  0  0  0  0  0  0  0  0  0  0
    0.8500   -3.7460   -3.4270 O   0  0  0  0  0  0  0  0  0  0  0  0
    0.3620   -5.9450   -3.2540 O   0  0  0  0  0  0  0  0  0  0  0  0
   -0.9220   -2.2350   -1.8000 H   0  0  0  0  0  0  0  0  0  0  0  0
    0.1290   -4.8610   -0.7110 H   0  0  0  0  0  0  0  0  0  0  0  0
   -2.1820   -4.9320   -0.4340 H   0  0  0  0  0  0  0  0  0  0  0  0
   -1.7000   -6.0480   -1.7120 H   0  0  0  0  0  0  0  0  0  0  0  0
   -1.9440   -2.9460   -3.7340 H   0  0  0  0  0  0  0  0  0  0  0  0
   -4.3020   -2.8530   -4.8400 H   0  0  0  0  0  0  0  0  0  0  0  0
   -5.8340   -4.5360   -3.6430 H   0  0  0  0  0  0  0  0  0  0  0  0
  1 10  1  0  0  0  0
  1 11  1  0  0  0  0
  2  1  1  0  0  0  0
  3 12  1  0  0  0  0
  3  2  1  0  0  0  0
  4  3  1  0  0  0  0
  4 14  1  0  0  0  0
  5  4  1  0  0  0  0
  5 16  1  1  0  0  0
  6 17  1  0  0  0  0
  6  5  1  0  0  0  0
  6 18  1  0  0  0  0
  7  5  1  0  0  0  0
  8  7  2  0  0  0  0
  9  1  1  0  0  0  0
 13  3  1  0  0  0  0
 15  4  1  0  0  0  0
 19 30  1  0  0  0  0
 19  7  1  0  0  0  0
 20 31  1  1  0  0  0
 20 19  1  0  0  0  0
 21 22  1  0  0  0  0
 21 20  1  0  0  0  0
 22 23  1  0  0  0  0
 23 24  2  0  0  0  0
 23 34  1  0  0  0  0
 24 35  1  0  0  0  0
 25 36  1  0  0  0  0
 25 24  1  0  0  0  0
 26 25  2  0  0  0  0
 27 26  1  0  0  0  0
 27 22  2  0  0  0  0
 28 20  1  0  0  0  0
 28 29  2  0  0  0  0
 32 21  1  0  0  0  0
 33 21  1  0  0  0  0
 37 26  1  0  0  0  0
 38 27  1  0  0  0  0
 39 28  1  0  0  0  0
 40 41  1  0  0  0  0
 40 39  1  0  0  0  0
 40 51  1  1  0  0  0
 41 52  1  0  0  0  0
 42 41  1  0  0  0  0
 43 42  2  0  0  0  0
 44 43  1  0  0  0  0
 44 45  1  0  0  0  0
 45 46  2  0  0  0  0
 46 42  1  0  0  0  0
 47 40  1  0  0  0  0
 48 47  2  0  0  0  0
 49 47  1  0  0  0  0
 50 39  1  0  0  0  0
 53 41  1  0  0  0  0
 54 43  1  0  0  0  0
 55 44  1  0  0  0  0
 56 45  1  0  0  0  0
M  END
$$$$
