MFM.pdb
 OpenBabel07022418563D

 56 56  0  0  1  0  0  0  0  0999 V2000
   -2.0670    1.7060    5.7500 C   0  0  0  0  0  0  0  0  0  0  0  0
   -2.0970   -0.0700    6.0230 S   0  0  0  0  0  0  0  0  0  0  0  0
   -1.3040   -0.9910    4.6650 C   0  0  0  0  0  0  0  0  0  0  0  0
    0.1550   -0.7150    4.5880 C   0  0  0  0  0  0  0  0  0  0  0  0
    0.8300   -1.4720    3.5050 C   0  0  2  0  0  0  0  0  0  0  0  0
    2.2660   -1.1740    3.4630 N   0  0  0  0  0  0  0  0  0  0  0  0
    0.2890   -1.3540    2.1600 C   0  0  0  0  0  0  0  0  0  0  0  0
   -0.9040   -1.6430    1.9320 O   0  0  0  0  0  0  0  0  0  0  0  0
   -1.2410    2.2140    6.3080 H   0  0  0  0  0  0  0  0  0  0  0  0
   -3.0040    2.1310    6.2110 H   0  0  0  0  0  0  0  0  0  0  0  0
   -2.0960    1.9950    4.6850 H   0  0  0  0  0  0  0  0  0  0  0  0
   -1.8230   -0.6510    3.7450 H   0  0  0  0  0  0  0  0  0  0  0  0
   -1.5200   -2.0650    4.8140 H   0  0  0  0  0  0  0  0  0  0  0  0
    0.4030    0.3670    4.5990 H   0  0  0  0  0  0  0  0  0  0  0  0
    0.5970   -1.0960    5.5590 H   0  0  0  0  0  0  0  0  0  0  0  0
    0.7920   -2.5680    3.7860 H   0  0  0  0  0  0  0  0  0  0  0  0
    2.4390   -0.1500    3.5430 H   0  0  0  0  0  0  0  0  0  0  0  0
    2.8130   -1.7510    4.1080 H   0  0  0  0  0  0  0  0  0  0  0  0
    1.0670   -0.9080    1.0280 N   0  0  0  0  0  0  0  0  0  0  0  0
    0.4870   -0.8040   -0.2940 C   0  0  1  0  0  0  0  0  0  0  0  0
    0.4750    0.6140   -0.8270 C   0  0  0  0  0  0  0  0  0  0  0  0
   -0.3280    1.4600    0.0930 C   0  0  0  0  0  0  0  0  0  0  0  0
   -1.7040    1.6210   -0.0940 C   0  0  0  0  0  0  0  0  0  0  0  0
   -2.4670    2.4030    0.7500 C   0  0  0  0  0  0  0  0  0  0  0  0
   -1.8980    3.0610    1.8210 C   0  0  0  0  0  0  0  0  0  0  0  0
   -0.5440    2.9120    2.0190 C   0  0  0  0  0  0  0  0  0  0  0  0
    0.2240    2.1230    1.1670 C   0  0  0  0  0  0  0  0  0  0  0  0
    1.2170   -1.7180   -1.2430 C   0  0  0  0  0  0  0  0  0  0  0  0
    2.1710   -2.4280   -0.8350 O   0  0  0  0  0  0  0  0  0  0  0  0
    2.0620   -0.6720    1.2440 H   0  0  0  0  0  0  0  0  0  0  0  0
   -0.5790   -1.1040   -0.2020 H   0  0  0  0  0  0  0  0  0  0  0  0
    1.4810    1.0130   -1.0020 H   0  0  0  0  0  0  0  0  0  0  0  0
   -0.0490    0.5790   -1.8010 H   0  0  0  0  0  0  0  0  0  0  0  0
   -2.1370    1.0970   -0.9400 H   0  0  0  0  0  0  0  0  0  0  0  0
   -3.5480    2.5160    0.5860 H   0  0  0  0  0  0  0  0  0  0  0  0
   -2.5230    3.6660    2.4640 H   0  0  0  0  0  0  0  0  0  0  0  0
   -0.0960    3.4370    2.8720 H   0  0  0  0  0  0  0  0  0  0  0  0
    1.2830    2.0230    1.3430 H   0  0  0  0  0  0  0  0  0  0  0  0
   -2.4460   -2.7340   -2.6030 C   0  0  0  0  0  0  0  0  0  0  0  0
   -1.0240   -3.5680   -1.8330 S   0  0  0  0  0  0  0  0  0  0  0  0
   -0.1150   -4.4830   -3.0750 C   0  0  0  0  0  0  0  0  0  0  0  0
    0.5530   -3.6500   -4.1140 C   0  0  0  0  0  0  0  0  0  0  0  0
    1.5670   -2.6920   -3.5440 C   0  0  2  0  0  0  0  0  0  0  0  0
    0.8590   -1.8070   -2.6140 N   0  0  0  0  0  0  0  0  0  0  0  0
    2.2300   -1.9290   -4.6110 C   0  0  0  0  0  0  0  0  0  0  0  0
    2.1380   -0.6850   -4.6300 O   0  0  0  0  0  0  0  0  0  0  0  0
    2.9520   -2.5800   -5.5890 O   0  0  0  0  0  0  0  0  0  0  0  0
   -3.3290   -2.9520   -1.9680 H   0  0  0  0  0  0  0  0  0  0  0  0
   -2.6480   -3.1160   -3.6270 H   0  0  0  0  0  0  0  0  0  0  0  0
   -2.2880   -1.6420   -2.6730 H   0  0  0  0  0  0  0  0  0  0  0  0
    0.6760   -5.1000   -2.5820 H   0  0  0  0  0  0  0  0  0  0  0  0
   -0.8230   -5.1920   -3.5570 H   0  0  0  0  0  0  0  0  0  0  0  0
    1.0850   -4.3660   -4.8010 H   0  0  0  0  0  0  0  0  0  0  0  0
   -0.1590   -3.0690   -4.7410 H   0  0  0  0  0  0  0  0  0  0  0  0
    2.3370   -3.2810   -3.0200 H   0  0  0  0  0  0  0  0  0  0  0  0
    0.0650   -1.2100   -2.9280 H   0  0  0  0  0  0  0  0  0  0  0  0
  1  2  1  0  0  0  0
  1 10  1  0  0  0  0
  1  9  1  0  0  0  0
  3 13  1  0  0  0  0
  3  2  1  0  0  0  0
  4 14  1  0  0  0  0
  4  3  1  0  0  0  0
  4 15  1  0  0  0  0
  5 16  1  1  0  0  0
  5  4  1  0  0  0  0
  6  5  1  0  0  0  0
  6 17  1  0  0  0  0
  6 18  1  0  0  0  0
  7  5  1  0  0  0  0
  8  7  2  0  0  0  0
 11  1  1  0  0  0  0
 12  3  1  0  0  0  0
 19 30  1  0  0  0  0
 19  7  1  0  0  0  0
 20 31  1  1  0  0  0
 20 19  1  0  0  0  0
 21 20  1  0  0  0  0
 21 22  1  0  0  0  0
 22 27  1  0  0  0  0
 23 22  2  0  0  0  0
 23 24  1  0  0  0  0
 24 25  2  0  0  0  0
 25 26  1  0  0  0  0
 25 36  1  0  0  0  0
 26 37  1  0  0  0  0
 27 38  1  0  0  0  0
 27 26  2  0  0  0  0
 28 29  2  0  0  0  0
 28 20  1  0  0  0  0
 32 21  1  0  0  0  0
 33 21  1  0  0  0  0
 34 23  1  0  0  0  0
 35 24  1  0  0  0  0
 39 48  1  0  0  0  0
 39 40  1  0  0  0  0
 41 51  1  0  0  0  0
 41 40  1  0  0  0  0
 42 43  1  0  0  0  0
 42 41  1  0  0  0  0
 43 55  1  1  0  0  0
 43 44  1  0  0  0  0
 44 28  1  0  0  0  0
 45 43  1  0  0  0  0
 46 45  1  0  0  0  0
 47 45  2  0  0  0  0
 49 39  1  0  0  0  0
 50 39  1  0  0  0  0
 52 41  1  0  0  0  0
 53 42  1  0  0  0  0
 54 42  1  0  0  0  0
 56 44  1  0  0  0  0
M  END
$$$$
