MFN.pdb
 OpenBabel07022418563D

 53 53  0  0  1  0  0  0  0  0999 V2000
   -1.7200   -2.6070    2.5080 C   0  0  0  0  0  0  0  0  0  0  0  0
   -0.4360   -3.8710    2.4360 S   0  0  0  0  0  0  0  0  0  0  0  0
    0.9680   -3.5590    3.4780 C   0  0  0  0  0  0  0  0  0  0  0  0
    1.9230   -2.5160    3.0840 C   0  0  0  0  0  0  0  0  0  0  0  0
    1.5080   -1.1300    2.8500 C   0  0  2  0  0  0  0  0  0  0  0  0
    0.8040   -0.4590    3.8880 N   0  0  0  0  0  0  0  0  0  0  0  0
    1.1810   -0.7410    1.4790 C   0  0  0  0  0  0  0  0  0  0  0  0
    2.0260   -0.9640    0.5230 O   0  0  0  0  0  0  0  0  0  0  0  0
   -1.4810   -1.8320    3.2800 H   0  0  0  0  0  0  0  0  0  0  0  0
   -2.7130   -3.0870    2.8070 H   0  0  0  0  0  0  0  0  0  0  0  0
   -1.9270   -2.1540    1.5250 H   0  0  0  0  0  0  0  0  0  0  0  0
    0.6670   -3.4750    4.5730 H   0  0  0  0  0  0  0  0  0  0  0  0
    1.5670   -4.5420    3.5150 H   0  0  0  0  0  0  0  0  0  0  0  0
    2.4690   -2.8870    2.1410 H   0  0  0  0  0  0  0  0  0  0  0  0
    2.8040   -2.5440    3.8270 H   0  0  0  0  0  0  0  0  0  0  0  0
    2.5730   -0.5260    2.9500 H   0  0  0  0  0  0  0  0  0  0  0  0
    0.5810    0.5210    3.7110 H   0  0  0  0  0  0  0  0  0  0  0  0
    1.0820   -0.7030    4.8390 H   0  0  0  0  0  0  0  0  0  0  0  0
   -0.0290   -0.1100    1.1220 N   0  0  0  0  0  0  0  0  0  0  0  0
   -0.4150    0.3410   -0.1590 C   0  0  1  0  0  0  0  0  0  0  0  0
    0.5420    1.4340   -0.6370 C   0  0  0  0  0  0  0  0  0  0  0  0
    0.4650    2.5510    0.3310 C   0  0  0  0  0  0  0  0  0  0  0  0
   -0.5170    3.5390    0.1670 C   0  0  0  0  0  0  0  0  0  0  0  0
   -0.6340    4.6110    1.0280 C   0  0  0  0  0  0  0  0  0  0  0  0
    0.2200    4.7560    2.0980 C   0  0  0  0  0  0  0  0  0  0  0  0
    1.1870    3.7950    2.2710 C   0  0  0  0  0  0  0  0  0  0  0  0
    1.3070    2.7200    1.4110 C   0  0  0  0  0  0  0  0  0  0  0  0
   -0.6370   -0.6700   -1.1780 C   0  0  0  0  0  0  0  0  0  0  0  0
   -0.9980   -0.3390   -2.3590 O   0  0  0  0  0  0  0  0  0  0  0  0
   -0.6980    0.0230    1.9560 H   0  0  0  0  0  0  0  0  0  0  0  0
   -1.3990    0.9290   -0.0500 H   0  0  0  0  0  0  0  0  0  0  0  0
    1.6000    1.0410   -0.5950 H   0  0  0  0  0  0  0  0  0  0  0  0
    0.3300    1.7690   -1.6500 H   0  0  0  0  0  0  0  0  0  0  0  0
   -1.1890    3.4270   -0.6720 H   0  0  0  0  0  0  0  0  0  0  0  0
   -1.4010    5.3770    0.8930 H   0  0  0  0  0  0  0  0  0  0  0  0
    0.1060    5.6100    2.7600 H   0  0  0  0  0  0  0  0  0  0  0  0
    1.8620    3.8950    3.1040 H   0  0  0  0  0  0  0  0  0  0  0  0
    2.0860    1.9630    1.5540 H   0  0  0  0  0  0  0  0  0  0  0  0
   -3.2640   -1.7050   -4.1980 N   0  0  0  0  0  0  0  0  0  0  0  0
   -2.5800   -2.2670   -3.1010 C   0  0  0  0  0  0  0  0  0  0  0  0
   -3.1770   -2.2860   -1.9770 O   0  0  0  0  0  0  0  0  0  0  0  0
   -1.2110   -2.8320   -3.1840 C   0  0  0  0  0  0  0  0  0  0  0  0
   -0.6760   -3.1560   -1.8100 C   0  0  2  0  0  0  0  0  0  0  0  0
   -0.4710   -2.0410   -0.9260 N   0  0  0  0  0  0  0  0  0  0  0  0
    0.3290   -4.2050   -1.7570 C   0  0  0  0  0  0  0  0  0  0  0  0
    0.3100   -5.2510   -2.4540 O   0  0  0  0  0  0  0  0  0  0  0  0
    1.4080   -4.0760   -0.8810 O   0  0  0  0  0  0  0  0  0  0  0  0
   -3.1630   -0.6770   -4.4460 H   0  0  0  0  0  0  0  0  0  0  0  0
   -3.9040   -2.2330   -4.8340 H   0  0  0  0  0  0  0  0  0  0  0  0
   -0.5750   -2.1610   -3.7640 H   0  0  0  0  0  0  0  0  0  0  0  0
   -1.3360   -3.8350   -3.6880 H   0  0  0  0  0  0  0  0  0  0  0  0
   -1.6550   -3.6330   -1.3540 H   0  0  0  0  0  0  0  0  0  0  0  0
   -0.1430   -2.2830    0.0750 H   0  0  0  0  0  0  0  0  0  0  0  0
  1 10  1  0  0  0  0
  1  9  1  0  0  0  0
  2  1  1  0  0  0  0
  2  3  1  0  0  0  0
  3 13  1  0  0  0  0
  3 12  1  0  0  0  0
  4  3  1  0  0  0  0
  4 15  1  0  0  0  0
  5 16  1  1  0  0  0
  5  4  1  0  0  0  0
  5  6  1  0  0  0  0
  6 18  1  0  0  0  0
  7  5  1  0  0  0  0
  8  7  2  0  0  0  0
 11  1  1  0  0  0  0
 14  4  1  0  0  0  0
 17  6  1  0  0  0  0
 19  7  1  0  0  0  0
 19 30  1  0  0  0  0
 20 31  1  1  0  0  0
 20 19  1  0  0  0  0
 21 32  1  0  0  0  0
 21 20  1  0  0  0  0
 21 22  1  0  0  0  0
 22 27  1  0  0  0  0
 23 22  2  0  0  0  0
 23 24  1  0  0  0  0
 24 25  2  0  0  0  0
 25 26  1  0  0  0  0
 25 36  1  0  0  0  0
 26 37  1  0  0  0  0
 27 38  1  0  0  0  0
 27 26  2  0  0  0  0
 28 44  1  0  0  0  0
 28 20  1  0  0  0  0
 29 28  2  0  0  0  0
 33 21  1  0  0  0  0
 34 23  1  0  0  0  0
 35 24  1  0  0  0  0
 39 40  1  0  0  0  0
 40 41  2  0  0  0  0
 42 40  1  0  0  0  0
 42 43  1  0  0  0  0
 43 45  1  0  0  0  0
 43 52  1  1  0  0  0
 43 44  1  0  0  0  0
 44 53  1  0  0  0  0
 45 47  1  0  0  0  0
 46 45  2  0  0  0  0
 48 39  1  0  0  0  0
 49 39  1  0  0  0  0
 50 42  1  0  0  0  0
 51 42  1  0  0  0  0
M  END
$$$$
