MFP.pdb
 OpenBabel07022418563D

 53 54  0  0  1  0  0  0  0  0999 V2000
    3.8280   -4.3590    1.7740 C   0  0  0  0  0  0  0  0  0  0  0  0
    4.7010   -3.3060    0.6370 S   0  0  0  0  0  0  0  0  0  0  0  0
    3.9230   -1.7890    0.2070 C   0  0  0  0  0  0  0  0  0  0  0  0
    3.8550   -0.6790    1.1660 C   0  0  0  0  0  0  0  0  0  0  0  0
    3.1700   -0.8130    2.4570 C   0  0  2  0  0  0  0  0  0  0  0  0
    3.7390   -1.8200    3.2790 N   0  0  0  0  0  0  0  0  0  0  0  0
    1.7020   -1.0770    2.2320 C   0  0  0  0  0  0  0  0  0  0  0  0
    1.1300   -2.0430    2.7990 O   0  0  0  0  0  0  0  0  0  0  0  0
    4.3320   -4.4090    2.7660 H   0  0  0  0  0  0  0  0  0  0  0  0
    3.7000   -5.4100    1.3690 H   0  0  0  0  0  0  0  0  0  0  0  0
    2.8030   -3.9960    1.9410 H   0  0  0  0  0  0  0  0  0  0  0  0
    2.9020   -2.0230   -0.2460 H   0  0  0  0  0  0  0  0  0  0  0  0
    4.4640   -1.3940   -0.7280 H   0  0  0  0  0  0  0  0  0  0  0  0
    3.3940    0.2030    0.5940 H   0  0  0  0  0  0  0  0  0  0  0  0
    4.9270   -0.3000    1.3100 H   0  0  0  0  0  0  0  0  0  0  0  0
    3.2450    0.2070    2.9760 H   0  0  0  0  0  0  0  0  0  0  0  0
    4.6200   -1.5340    3.7550 H   0  0  0  0  0  0  0  0  0  0  0  0
    3.0590   -2.1590    4.0120 H   0  0  0  0  0  0  0  0  0  0  0  0
    0.9130   -0.2800    1.3980 N   0  0  0  0  0  0  0  0  0  0  0  0
   -0.4960   -0.5640    1.2040 C   0  0  1  0  0  0  0  0  0  0  0  0
   -1.3460    0.6030    1.6510 C   0  0  0  0  0  0  0  0  0  0  0  0
   -1.0420    1.8450    0.9130 C   0  0  0  0  0  0  0  0  0  0  0  0
   -0.1130    2.7620    1.3110 C   0  0  0  0  0  0  0  0  0  0  0  0
    0.1190    3.9020    0.5640 C   0  0  0  0  0  0  0  0  0  0  0  0
   -0.5890    4.1320   -0.6020 C   0  0  0  0  0  0  0  0  0  0  0  0
   -1.5320    3.2180   -1.0200 C   0  0  0  0  0  0  0  0  0  0  0  0
   -1.7370    2.0930   -0.2510 C   0  0  0  0  0  0  0  0  0  0  0  0
   -0.7740   -0.8140   -0.2190 C   0  0  0  0  0  0  0  0  0  0  0  0
    0.1140   -0.5070   -1.0520 O   0  0  0  0  0  0  0  0  0  0  0  0
    1.3140    0.5350    0.8970 H   0  0  0  0  0  0  0  0  0  0  0  0
   -0.7980   -1.4420    1.7820 H   0  0  0  0  0  0  0  0  0  0  0  0
   -2.3890    0.3490    1.4360 H   0  0  0  0  0  0  0  0  0  0  0  0
   -1.2760    0.8030    2.7330 H   0  0  0  0  0  0  0  0  0  0  0  0
    0.4300    2.5840    2.2060 H   0  0  0  0  0  0  0  0  0  0  0  0
    0.8500    4.6460    0.8560 H   0  0  0  0  0  0  0  0  0  0  0  0
   -0.4410    5.0040   -1.2130 H   0  0  0  0  0  0  0  0  0  0  0  0
   -2.1030    3.3680   -1.9270 H   0  0  0  0  0  0  0  0  0  0  0  0
   -2.4890    1.3950   -0.6130 H   0  0  0  0  0  0  0  0  0  0  0  0
   -1.9750   -1.3770   -0.6770 N   0  0  0  0  0  0  0  0  0  0  0  0
   -2.2730   -1.5580   -2.1120 C   0  0  0  0  0  0  0  0  0  0  0  0
   -3.7700   -1.4930   -2.2310 C   0  0  0  0  0  0  0  0  0  0  0  0
   -4.2710   -1.3130   -0.8140 C   0  0  0  0  0  0  0  0  0  0  0  0
   -3.1280   -1.9280   -0.0120 C   0  0  1  0  0  0  0  0  0  0  0  0
   -3.1610   -3.4210   -0.1310 C   0  0  0  0  0  0  0  0  0  0  0  0
   -2.2310   -3.9840   -0.7390 O   0  0  0  0  0  0  0  0  0  0  0  0
   -4.1810   -4.1750    0.4090 O   0  0  0  0  0  0  0  0  0  0  0  0
   -1.8460   -0.7340   -2.7120 H   0  0  0  0  0  0  0  0  0  0  0  0
   -1.9090   -2.5070   -2.5040 H   0  0  0  0  0  0  0  0  0  0  0  0
   -4.2180   -2.3980   -2.6750 H   0  0  0  0  0  0  0  0  0  0  0  0
   -4.1080   -0.6100   -2.8150 H   0  0  0  0  0  0  0  0  0  0  0  0
   -4.3240   -0.2460   -0.5250 H   0  0  0  0  0  0  0  0  0  0  0  0
   -5.2000   -1.8680   -0.6080 H   0  0  0  0  0  0  0  0  0  0  0  0
   -3.2720   -1.6950    1.0260 H   0  0  0  0  0  0  0  0  0  0  0  0
  1 11  1  0  0  0  0
  1  9  1  0  0  0  0
  2  1  1  0  0  0  0
  3  2  1  0  0  0  0
  3  4  1  0  0  0  0
  4 15  1  0  0  0  0
  4  5  1  0  0  0  0
  5 16  1  1  0  0  0
  5  6  1  0  0  0  0
  6 17  1  0  0  0  0
  6 18  1  0  0  0  0
  7  5  1  0  0  0  0
  7  8  2  0  0  0  0
 10  1  1  0  0  0  0
 12  3  1  0  0  0  0
 13  3  1  0  0  0  0
 14  4  1  0  0  0  0
 19  7  1  0  0  0  0
 20 19  1  0  0  0  0
 20 21  1  0  0  0  0
 20 31  1  1  0  0  0
 21 33  1  0  0  0  0
 22 23  1  0  0  0  0
 22 21  1  0  0  0  0
 23 34  1  0  0  0  0
 24 35  1  0  0  0  0
 24 23  2  0  0  0  0
 25 24  1  0  0  0  0
 26 25  2  0  0  0  0
 26 27  1  0  0  0  0
 27 22  2  0  0  0  0
 28 20  1  0  0  0  0
 29 28  2  0  0  0  0
 30 19  1  0  0  0  0
 32 21  1  0  0  0  0
 36 25  1  0  0  0  0
 37 26  1  0  0  0  0
 38 27  1  0  0  0  0
 39 28  1  0  0  0  0
 39 43  1  0  0  0  0
 40 39  1  0  0  0  0
 41 40  1  0  0  0  0
 41 42  1  0  0  0  0
 42 52  1  0  0  0  0
 42 51  1  0  0  0  0
 42 43  1  0  0  0  0
 43 53  1  1  0  0  0
 44 43  1  0  0  0  0
 44 46  1  0  0  0  0
 45 44  2  0  0  0  0
 47 40  1  0  0  0  0
 48 40  1  0  0  0  0
 49 41  1  0  0  0  0
 50 41  1  0  0  0  0
M  END
$$$$
