MFQ.pdb
 OpenBabel07022418563D

 56 56  0  0  1  0  0  0  0  0999 V2000
    1.0760    2.3860    5.8110 C   0  0  0  0  0  0  0  0  0  0  0  0
    2.0620    0.8800    5.6330 S   0  0  0  0  0  0  0  0  0  0  0  0
    2.1840    0.4750    3.8650 C   0  0  0  0  0  0  0  0  0  0  0  0
    3.0040   -0.7560    3.6350 C   0  0  0  0  0  0  0  0  0  0  0  0
    3.0750   -1.0390    2.1600 C   0  0  2  0  0  0  0  0  0  0  0  0
    3.6760    0.0650    1.4730 N   0  0  0  0  0  0  0  0  0  0  0  0
    1.7610   -1.4440    1.6190 C   0  0  0  0  0  0  0  0  0  0  0  0
    1.1030   -2.3310    2.2410 O   0  0  0  0  0  0  0  0  0  0  0  0
    1.2680    3.0210    4.9250 H   0  0  0  0  0  0  0  0  0  0  0  0
    0.0100    2.0850    5.7750 H   0  0  0  0  0  0  0  0  0  0  0  0
    1.3090    2.9120    6.7620 H   0  0  0  0  0  0  0  0  0  0  0  0
    1.1380    0.2290    3.5420 H   0  0  0  0  0  0  0  0  0  0  0  0
    2.6020    1.3430    3.3190 H   0  0  0  0  0  0  0  0  0  0  0  0
    4.0160   -0.6860    4.0770 H   0  0  0  0  0  0  0  0  0  0  0  0
    2.4700   -1.6270    4.1140 H   0  0  0  0  0  0  0  0  0  0  0  0
    3.7720   -1.9140    2.0230 H   0  0  0  0  0  0  0  0  0  0  0  0
    4.4820    0.4010    2.0120 H   0  0  0  0  0  0  0  0  0  0  0  0
    3.0240    0.8720    1.3570 H   0  0  0  0  0  0  0  0  0  0  0  0
    1.1790   -0.9200    0.4540 N   0  0  0  0  0  0  0  0  0  0  0  0
   -0.1050   -1.3740   -0.0110 C   0  0  1  0  0  0  0  0  0  0  0  0
   -1.0420   -0.2170   -0.1940 C   0  0  0  0  0  0  0  0  0  0  0  0
   -1.2500    0.5220    1.0740 C   0  0  0  0  0  0  0  0  0  0  0  0
   -0.4940    1.5880    1.4830 C   0  0  0  0  0  0  0  0  0  0  0  0
   -0.7380    2.2500    2.6760 C   0  0  0  0  0  0  0  0  0  0  0  0
   -1.7660    1.8540    3.5050 C   0  0  0  0  0  0  0  0  0  0  0  0
   -2.5330    0.7830    3.1050 C   0  0  0  0  0  0  0  0  0  0  0  0
   -2.2910    0.1240    1.9180 C   0  0  0  0  0  0  0  0  0  0  0  0
    0.0540   -2.2040   -1.2500 C   0  0  0  0  0  0  0  0  0  0  0  0
    1.2150   -2.4270   -1.6740 O   0  0  0  0  0  0  0  0  0  0  0  0
    1.6790   -0.1920   -0.0850 H   0  0  0  0  0  0  0  0  0  0  0  0
   -0.5290   -2.0380    0.7820 H   0  0  0  0  0  0  0  0  0  0  0  0
   -2.0220   -0.5370   -0.6320 H   0  0  0  0  0  0  0  0  0  0  0  0
   -0.6390    0.5280   -0.9230 H   0  0  0  0  0  0  0  0  0  0  0  0
    0.3160    1.9020    0.8320 H   0  0  0  0  0  0  0  0  0  0  0  0
   -0.1210    3.0980    2.9780 H   0  0  0  0  0  0  0  0  0  0  0  0
   -1.9890    2.3430    4.4420 H   0  0  0  0  0  0  0  0  0  0  0  0
   -3.3510    0.4680    3.7650 H   0  0  0  0  0  0  0  0  0  0  0  0
   -2.9000   -0.7090    1.6220 H   0  0  0  0  0  0  0  0  0  0  0  0
   -3.9020   -0.4820   -3.9460 N   0  0  0  0  0  0  0  0  0  0  0  0
   -2.5980   -1.0420   -3.9840 C   0  0  0  0  0  0  0  0  0  0  0  0
   -1.7070   -0.4640   -3.3230 O   0  0  0  0  0  0  0  0  0  0  0  0
   -2.3660   -2.2560   -4.7900 C   0  0  0  0  0  0  0  0  0  0  0  0
   -1.0990   -2.9950   -4.4710 C   0  0  0  0  0  0  0  0  0  0  0  0
   -0.9810   -3.5750   -3.1260 C   0  0  2  0  0  0  0  0  0  0  0  0
   -1.0370   -2.7580   -1.9740 N   0  0  0  0  0  0  0  0  0  0  0  0
    0.0750   -4.6530   -3.0750 C   0  0  0  0  0  0  0  0  0  0  0  0
    0.2470   -5.3270   -4.1020 O   0  0  0  0  0  0  0  0  0  0  0  0
    0.7930   -4.8640   -1.9470 O   0  0  0  0  0  0  0  0  0  0  0  0
   -4.0520    0.4000   -4.4950 H   0  0  0  0  0  0  0  0  0  0  0  0
   -4.6950   -0.8790   -3.4230 H   0  0  0  0  0  0  0  0  0  0  0  0
   -3.2630   -2.9220   -4.6420 H   0  0  0  0  0  0  0  0  0  0  0  0
   -2.3920   -1.9550   -5.8680 H   0  0  0  0  0  0  0  0  0  0  0  0
   -0.9940   -3.8240   -5.2200 H   0  0  0  0  0  0  0  0  0  0  0  0
   -0.2690   -2.2850   -4.7300 H   0  0  0  0  0  0  0  0  0  0  0  0
   -1.9270   -4.2610   -3.0200 H   0  0  0  0  0  0  0  0  0  0  0  0
   -1.9910   -2.4920   -1.5440 H   0  0  0  0  0  0  0  0  0  0  0  0
  1 11  1  0  0  0  0
  2  1  1  0  0  0  0
  3  2  1  0  0  0  0
  4  3  1  0  0  0  0
  4 14  1  0  0  0  0
  4 15  1  0  0  0  0
  5 16  1  6  0  0  0
  5  4  1  0  0  0  0
  6 17  1  0  0  0  0
  6  5  1  0  0  0  0
  7  5  1  0  0  0  0
  7  8  2  0  0  0  0
  9  1  1  0  0  0  0
 10  1  1  0  0  0  0
 12  3  1  0  0  0  0
 13  3  1  0  0  0  0
 18  6  1  0  0  0  0
 19  7  1  0  0  0  0
 20 19  1  0  0  0  0
 20 31  1  1  0  0  0
 21 20  1  0  0  0  0
 21 22  1  0  0  0  0
 22 23  2  0  0  0  0
 22 27  1  0  0  0  0
 23 24  1  0  0  0  0
 24 35  1  0  0  0  0
 24 25  2  0  0  0  0
 25 36  1  0  0  0  0
 26 25  1  0  0  0  0
 26 37  1  0  0  0  0
 27 26  2  0  0  0  0
 28 20  1  0  0  0  0
 29 28  2  0  0  0  0
 30 19  1  0  0  0  0
 32 21  1  0  0  0  0
 33 21  1  0  0  0  0
 34 23  1  0  0  0  0
 38 27  1  0  0  0  0
 39 50  1  0  0  0  0
 40 39  1  0  0  0  0
 40 41  2  0  0  0  0
 42 51  1  0  0  0  0
 42 43  1  0  0  0  0
 42 40  1  0  0  0  0
 43 44  1  0  0  0  0
 44 46  1  0  0  0  0
 44 55  1  1  0  0  0
 44 45  1  0  0  0  0
 45 56  1  0  0  0  0
 45 28  1  0  0  0  0
 46 48  1  0  0  0  0
 47 46  2  0  0  0  0
 49 39  1  0  0  0  0
 52 42  1  0  0  0  0
 53 43  1  0  0  0  0
 54 43  1  0  0  0  0
M  END
$$$$
