MFS.pdb
 OpenBabel07022418563D

 50 50  0  0  1  0  0  0  0  0999 V2000
    2.6630   -3.5280    3.7200 C   0  0  0  0  0  0  0  0  0  0  0  0
    3.3780   -4.1720    2.2260 S   0  0  0  0  0  0  0  0  0  0  0  0
    2.8850   -3.4160    0.7110 C   0  0  0  0  0  0  0  0  0  0  0  0
    3.3750   -2.0760    0.3570 C   0  0  0  0  0  0  0  0  0  0  0  0
    3.0860   -0.9220    1.2330 C   0  0  2  0  0  0  0  0  0  0  0  0
    3.6400   -1.0660    2.5440 N   0  0  0  0  0  0  0  0  0  0  0  0
    1.6350   -0.5880    1.3000 C   0  0  0  0  0  0  0  0  0  0  0  0
    1.1130   -0.4450    2.4300 O   0  0  0  0  0  0  0  0  0  0  0  0
    2.2310   -4.3670    4.3640 H   0  0  0  0  0  0  0  0  0  0  0  0
    3.4450   -3.0630    4.3620 H   0  0  0  0  0  0  0  0  0  0  0  0
    1.8460   -2.8280    3.5530 H   0  0  0  0  0  0  0  0  0  0  0  0
    3.2460   -4.1110   -0.1300 H   0  0  0  0  0  0  0  0  0  0  0  0
    1.7550   -3.5070    0.5700 H   0  0  0  0  0  0  0  0  0  0  0  0
    4.5020   -2.1520    0.2780 H   0  0  0  0  0  0  0  0  0  0  0  0
    3.0510   -1.8760   -0.7040 H   0  0  0  0  0  0  0  0  0  0  0  0
    3.5600   -0.0120    0.7780 H   0  0  0  0  0  0  0  0  0  0  0  0
    3.7910   -0.1310    2.9830 H   0  0  0  0  0  0  0  0  0  0  0  0
    4.5220   -1.6150    2.4780 H   0  0  0  0  0  0  0  0  0  0  0  0
    0.8350   -0.4280    0.1460 N   0  0  0  0  0  0  0  0  0  0  0  0
   -0.5600   -0.1040    0.2990 C   0  0  1  0  0  0  0  0  0  0  0  0
   -0.8940    1.2510   -0.2830 C   0  0  0  0  0  0  0  0  0  0  0  0
   -0.0770    2.2570    0.4360 C   0  0  0  0  0  0  0  0  0  0  0  0
    1.1820    2.6330    0.0150 C   0  0  0  0  0  0  0  0  0  0  0  0
    1.9310    3.5720    0.6960 C   0  0  0  0  0  0  0  0  0  0  0  0
    1.4490    4.1790    1.8330 C   0  0  0  0  0  0  0  0  0  0  0  0
    0.1930    3.8160    2.2690 C   0  0  0  0  0  0  0  0  0  0  0  0
   -0.5550    2.8660    1.5740 C   0  0  0  0  0  0  0  0  0  0  0  0
   -1.3320   -1.1960   -0.3520 C   0  0  0  0  0  0  0  0  0  0  0  0
   -0.7750   -2.1880   -0.9150 O   0  0  0  0  0  0  0  0  0  0  0  0
    1.2800   -0.5490   -0.7950 H   0  0  0  0  0  0  0  0  0  0  0  0
   -0.7700   -0.0310    1.3820 H   0  0  0  0  0  0  0  0  0  0  0  0
   -0.6570    1.3100   -1.3640 H   0  0  0  0  0  0  0  0  0  0  0  0
   -1.9560    1.4550   -0.1530 H   0  0  0  0  0  0  0  0  0  0  0  0
    1.5570    2.1460   -0.8890 H   0  0  0  0  0  0  0  0  0  0  0  0
    2.9100    3.8430    0.3410 H   0  0  0  0  0  0  0  0  0  0  0  0
    2.0330    4.9260    2.3840 H   0  0  0  0  0  0  0  0  0  0  0  0
   -0.1880    4.2920    3.1640 H   0  0  0  0  0  0  0  0  0  0  0  0
   -1.5270    2.6420    1.9840 H   0  0  0  0  0  0  0  0  0  0  0  0
   -5.0760   -1.9800    0.7030 O   0  0  0  0  0  0  0  0  0  0  0  0
   -4.2780   -2.9590    0.1190 C   0  0  0  0  0  0  0  0  0  0  0  0
   -3.5200   -2.2650   -1.0220 C   0  0  2  0  0  0  0  0  0  0  0  0
   -2.7550   -1.2200   -0.3980 N   0  0  0  0  0  0  0  0  0  0  0  0
   -4.4410   -1.7900   -2.0610 C   0  0  0  0  0  0  0  0  0  0  0  0
   -4.5070   -0.5790   -2.3330 O   0  0  0  0  0  0  0  0  0  0  0  0
   -5.2330   -2.6860   -2.7370 O   0  0  0  0  0  0  0  0  0  0  0  0
   -5.5030   -1.4790   -0.0250 H   0  0  0  0  0  0  0  0  0  0  0  0
   -4.8270   -3.8350   -0.2300 H   0  0  0  0  0  0  0  0  0  0  0  0
   -3.4810   -3.2020    0.8710 H   0  0  0  0  0  0  0  0  0  0  0  0
   -2.8920   -3.0580   -1.4700 H   0  0  0  0  0  0  0  0  0  0  0  0
   -3.2640   -0.4270    0.0500 H   0  0  0  0  0  0  0  0  0  0  0  0
  1 10  1  0  0  0  0
  1  9  1  0  0  0  0
  2  1  1  0  0  0  0
  3  2  1  0  0  0  0
  4  3  1  0  0  0  0
  4  5  1  0  0  0  0
  5 16  1  6  0  0  0
  5  7  1  0  0  0  0
  5  6  1  0  0  0  0
  6 17  1  0  0  0  0
  7  8  2  0  0  0  0
 11  1  1  0  0  0  0
 12  3  1  0  0  0  0
 13  3  1  0  0  0  0
 14  4  1  0  0  0  0
 15  4  1  0  0  0  0
 18  6  1  0  0  0  0
 19 20  1  0  0  0  0
 19  7  1  0  0  0  0
 20 31  1  1  0  0  0
 21 33  1  0  0  0  0
 21 20  1  0  0  0  0
 21 22  1  0  0  0  0
 22 27  1  0  0  0  0
 23 22  2  0  0  0  0
 23 24  1  0  0  0  0
 24 25  2  0  0  0  0
 25 26  1  0  0  0  0
 25 36  1  0  0  0  0
 26 37  1  0  0  0  0
 27 38  1  0  0  0  0
 27 26  2  0  0  0  0
 28 20  1  0  0  0  0
 29 28  2  0  0  0  0
 30 19  1  0  0  0  0
 32 21  1  0  0  0  0
 34 23  1  0  0  0  0
 35 24  1  0  0  0  0
 40 39  1  0  0  0  0
 40 48  1  0  0  0  0
 41 49  1  6  0  0  0
 41 42  1  0  0  0  0
 41 40  1  0  0  0  0
 42 28  1  0  0  0  0
 42 50  1  0  0  0  0
 43 41  1  0  0  0  0
 44 43  1  0  0  0  0
 45 43  2  0  0  0  0
 46 39  1  0  0  0  0
 47 40  1  0  0  0  0
M  END
$$$$
