MFV.pdb
 OpenBabel07022418563D

 55 55  0  0  1  0  0  0  0  0999 V2000
    2.7870   -4.8530    1.8230 C   0  0  0  0  0  0  0  0  0  0  0  0
    3.8740   -3.6680    0.9600 S   0  0  0  0  0  0  0  0  0  0  0  0
    3.1910   -1.9930    1.2880 C   0  0  0  0  0  0  0  0  0  0  0  0
    3.3190   -1.6650    2.7390 C   0  0  0  0  0  0  0  0  0  0  0  0
    2.8270   -0.3090    3.1310 C   0  0  2  0  0  0  0  0  0  0  0  0
    3.0010   -0.1110    4.5770 N   0  0  0  0  0  0  0  0  0  0  0  0
    1.4320   -0.0300    2.7380 C   0  0  0  0  0  0  0  0  0  0  0  0
    0.4980    0.0450    3.6100 O   0  0  0  0  0  0  0  0  0  0  0  0
    2.8820   -4.6950    2.9350 H   0  0  0  0  0  0  0  0  0  0  0  0
    3.0500   -5.9000    1.5550 H   0  0  0  0  0  0  0  0  0  0  0  0
    1.7450   -4.5830    1.5620 H   0  0  0  0  0  0  0  0  0  0  0  0
    2.1040   -2.1070    1.0650 H   0  0  0  0  0  0  0  0  0  0  0  0
    3.6310   -1.2560    0.6090 H   0  0  0  0  0  0  0  0  0  0  0  0
    2.7780   -2.4490    3.3340 H   0  0  0  0  0  0  0  0  0  0  0  0
    4.3970   -1.8200    3.0320 H   0  0  0  0  0  0  0  0  0  0  0  0
    3.4730    0.4490    2.6340 H   0  0  0  0  0  0  0  0  0  0  0  0
    3.8630   -0.6850    4.8220 H   0  0  0  0  0  0  0  0  0  0  0  0
    2.1620   -0.5660    5.0110 H   0  0  0  0  0  0  0  0  0  0  0  0
    0.9880    0.1830    1.4080 N   0  0  0  0  0  0  0  0  0  0  0  0
   -0.4180    0.4610    1.1010 C   0  0  1  0  0  0  0  0  0  0  0  0
   -0.5910    1.8530    0.5700 C   0  0  0  0  0  0  0  0  0  0  0  0
    0.1480    2.1560   -0.6520 C   0  0  0  0  0  0  0  0  0  0  0  0
    1.4250    2.6430   -0.5890 C   0  0  0  0  0  0  0  0  0  0  0  0
    2.1620    2.9480   -1.7310 C   0  0  0  0  0  0  0  0  0  0  0  0
    1.6170    2.7650   -2.9810 C   0  0  0  0  0  0  0  0  0  0  0  0
    0.3330    2.2760   -3.0590 C   0  0  0  0  0  0  0  0  0  0  0  0
   -0.3890    1.9770   -1.9050 C   0  0  0  0  0  0  0  0  0  0  0  0
   -0.9460   -0.6010    0.2230 C   0  0  0  0  0  0  0  0  0  0  0  0
   -0.2290   -1.5460   -0.1960 O   0  0  0  0  0  0  0  0  0  0  0  0
    1.6910    0.1490    0.6450 H   0  0  0  0  0  0  0  0  0  0  0  0
   -1.0220    0.4440    2.0570 H   0  0  0  0  0  0  0  0  0  0  0  0
   -1.7010    1.9950    0.4300 H   0  0  0  0  0  0  0  0  0  0  0  0
   -0.3370    2.5460    1.4140 H   0  0  0  0  0  0  0  0  0  0  0  0
    1.9060    2.8070    0.3590 H   0  0  0  0  0  0  0  0  0  0  0  0
    3.1750    3.3330   -1.6590 H   0  0  0  0  0  0  0  0  0  0  0  0
    2.1970    3.0050   -3.8860 H   0  0  0  0  0  0  0  0  0  0  0  0
   -0.0950    2.1330   -4.0530 H   0  0  0  0  0  0  0  0  0  0  0  0
   -1.3950    1.5960   -1.9700 H   0  0  0  0  0  0  0  0  0  0  0  0
   -4.9710   -1.8140    0.1770 C   0  0  0  0  0  0  0  0  0  0  0  0
   -3.7750   -2.5890   -0.3200 C   0  0  0  0  0  0  0  0  0  0  0  0
   -3.0240   -3.2010    0.8420 C   0  0  0  0  0  0  0  0  0  0  0  0
   -2.7990   -1.6940   -1.0660 C   0  0  2  0  0  0  0  0  0  0  0  0
   -2.3090   -0.6350   -0.2120 N   0  0  0  0  0  0  0  0  0  0  0  0
   -3.3740   -1.2180   -2.3420 C   0  0  0  0  0  0  0  0  0  0  0  0
   -3.4650   -0.0150   -2.6890 O   0  0  0  0  0  0  0  0  0  0  0  0
   -3.8600   -2.1540   -3.2490 O   0  0  0  0  0  0  0  0  0  0  0  0
   -5.1080   -2.0310    1.2570 H   0  0  0  0  0  0  0  0  0  0  0  0
   -4.8240   -0.7180    0.0950 H   0  0  0  0  0  0  0  0  0  0  0  0
   -5.9030   -2.1200   -0.3420 H   0  0  0  0  0  0  0  0  0  0  0  0
   -4.0980   -3.3710   -1.0340 H   0  0  0  0  0  0  0  0  0  0  0  0
   -1.9920   -3.5000    0.5900 H   0  0  0  0  0  0  0  0  0  0  0  0
   -3.5370   -4.1060    1.2270 H   0  0  0  0  0  0  0  0  0  0  0  0
   -2.9360   -2.4060    1.6340 H   0  0  0  0  0  0  0  0  0  0  0  0
   -1.9380   -2.3500   -1.3050 H   0  0  0  0  0  0  0  0  0  0  0  0
   -2.9230    0.1380    0.1180 H   0  0  0  0  0  0  0  0  0  0  0  0
  1  9  1  0  0  0  0
  2  3  1  0  0  0  0
  2  1  1  0  0  0  0
  3  4  1  0  0  0  0
  4 15  1  0  0  0  0
  4  5  1  0  0  0  0
  4 14  1  0  0  0  0
  5 16  1  6  0  0  0
  5  6  1  0  0  0  0
  6 17  1  0  0  0  0
  6 18  1  0  0  0  0
  7  5  1  0  0  0  0
  7  8  2  0  0  0  0
 10  1  1  0  0  0  0
 11  1  1  0  0  0  0
 12  3  1  0  0  0  0
 13  3  1  0  0  0  0
 19  7  1  0  0  0  0
 20 19  1  0  0  0  0
 20 31  1  1  0  0  0
 21 20  1  0  0  0  0
 21 33  1  0  0  0  0
 22 23  1  0  0  0  0
 22 21  1  0  0  0  0
 23 34  1  0  0  0  0
 24 35  1  0  0  0  0
 24 23  2  0  0  0  0
 25 24  1  0  0  0  0
 26 25  2  0  0  0  0
 26 27  1  0  0  0  0
 27 22  2  0  0  0  0
 28 20  1  0  0  0  0
 29 28  2  0  0  0  0
 30 19  1  0  0  0  0
 32 21  1  0  0  0  0
 36 25  1  0  0  0  0
 37 26  1  0  0  0  0
 38 27  1  0  0  0  0
 39 47  1  0  0  0  0
 40 39  1  0  0  0  0
 40 41  1  0  0  0  0
 41 52  1  0  0  0  0
 41 53  1  0  0  0  0
 42 54  1  6  0  0  0
 42 40  1  0  0  0  0
 42 43  1  0  0  0  0
 43 55  1  0  0  0  0
 43 28  1  0  0  0  0
 44 42  1  0  0  0  0
 45 44  1  0  0  0  0
 46 44  2  0  0  0  0
 48 39  1  0  0  0  0
 49 39  1  0  0  0  0
 50 40  1  0  0  0  0
 51 41  1  0  0  0  0
M  END
$$$$
