MFY.pdb
 OpenBabel07022418563D

 60 61  0  0  1  0  0  0  0  0999 V2000
    3.4230   -2.4340    4.7120 C   0  0  0  0  0  0  0  0  0  0  0  0
    3.9800   -2.7170    3.0030 S   0  0  0  0  0  0  0  0  0  0  0  0
    3.1490   -1.5200    1.8830 C   0  0  0  0  0  0  0  0  0  0  0  0
    3.6030   -0.1370    2.1890 C   0  0  0  0  0  0  0  0  0  0  0  0
    3.0040    0.9430    1.3190 C   0  0  2  0  0  0  0  0  0  0  0  0
    3.6020    2.1950    1.8270 N   0  0  0  0  0  0  0  0  0  0  0  0
    1.5440    0.9840    1.4320 C   0  0  0  0  0  0  0  0  0  0  0  0
    1.0310    1.8680    2.1900 O   0  0  0  0  0  0  0  0  0  0  0  0
    3.3310   -3.4010    5.2300 H   0  0  0  0  0  0  0  0  0  0  0  0
    4.0600   -1.7090    5.2430 H   0  0  0  0  0  0  0  0  0  0  0  0
    2.3910   -1.9760    4.7000 H   0  0  0  0  0  0  0  0  0  0  0  0
    2.0500   -1.5470    2.0840 H   0  0  0  0  0  0  0  0  0  0  0  0
    3.4330   -1.8000    0.8610 H   0  0  0  0  0  0  0  0  0  0  0  0
    4.7210   -0.0470    2.1690 H   0  0  0  0  0  0  0  0  0  0  0  0
    3.2760    0.0970    3.2400 H   0  0  0  0  0  0  0  0  0  0  0  0
    3.3650    0.7590    0.2880 H   0  0  0  0  0  0  0  0  0  0  0  0
    4.6400    2.0080    1.7990 H   0  0  0  0  0  0  0  0  0  0  0  0
    3.4360    2.9770    1.1460 H   0  0  0  0  0  0  0  0  0  0  0  0
    0.6120    0.1340    0.7750 N   0  0  0  0  0  0  0  0  0  0  0  0
   -0.8210    0.2910    0.9750 C   0  0  1  0  0  0  0  0  0  0  0  0
   -1.4740    0.7980   -0.3010 C   0  0  0  0  0  0  0  0  0  0  0  0
   -0.9790    2.0800   -0.7610 C   0  0  0  0  0  0  0  0  0  0  0  0
    0.1010    2.0730   -1.6300 C   0  0  0  0  0  0  0  0  0  0  0  0
    0.6570    3.2410   -2.1350 C   0  0  0  0  0  0  0  0  0  0  0  0
    0.1230    4.4570   -1.7650 C   0  0  0  0  0  0  0  0  0  0  0  0
   -0.9520    4.4780   -0.9010 C   0  0  0  0  0  0  0  0  0  0  0  0
   -1.4900    3.3080   -0.4100 C   0  0  0  0  0  0  0  0  0  0  0  0
   -1.4080   -1.0400    1.2020 C   0  0  0  0  0  0  0  0  0  0  0  0
   -2.6620   -1.1130    1.5110 O   0  0  0  0  0  0  0  0  0  0  0  0
    1.0060   -0.5960    0.1470 H   0  0  0  0  0  0  0  0  0  0  0  0
   -1.0050    0.9560    1.8180 H   0  0  0  0  0  0  0  0  0  0  0  0
   -1.3160    0.0270   -1.0840 H   0  0  0  0  0  0  0  0  0  0  0  0
   -2.5580    0.8530   -0.1120 H   0  0  0  0  0  0  0  0  0  0  0  0
    0.5660    1.1520   -1.9590 H   0  0  0  0  0  0  0  0  0  0  0  0
    1.4980    3.2530   -2.8120 H   0  0  0  0  0  0  0  0  0  0  0  0
    0.5610    5.3600   -2.1620 H   0  0  0  0  0  0  0  0  0  0  0  0
   -1.4050    5.4250   -0.5830 H   0  0  0  0  0  0  0  0  0  0  0  0
   -2.3280    3.3300    0.2630 H   0  0  0  0  0  0  0  0  0  0  0  0
   -4.2380   -1.9530   -4.1900 O   0  0  0  0  0  0  0  0  0  0  0  0
   -3.5670   -2.5540   -3.1310 C   0  0  0  0  0  0  0  0  0  0  0  0
   -2.2060   -2.3970   -2.9540 C   0  0  0  0  0  0  0  0  0  0  0  0
   -1.5250   -2.9880   -1.9080 C   0  0  0  0  0  0  0  0  0  0  0  0
   -2.1890   -3.7710   -0.9830 C   0  0  0  0  0  0  0  0  0  0  0  0
   -1.5120   -4.4280    0.1590 C   0  0  0  0  0  0  0  0  0  0  0  0
   -1.4880   -3.5480    1.3840 C   0  0  2  0  0  0  0  0  0  0  0  0
   -0.7770   -2.2870    1.1260 N   0  0  0  0  0  0  0  0  0  0  0  0
   -0.8570   -4.2270    2.5420 C   0  0  0  0  0  0  0  0  0  0  0  0
    0.1440   -3.7130    3.1490 O   0  0  0  0  0  0  0  0  0  0  0  0
   -3.5470   -3.9300   -1.1560 C   0  0  0  0  0  0  0  0  0  0  0  0
   -4.2240   -3.3370   -2.2040 C   0  0  0  0  0  0  0  0  0  0  0  0
   -1.3020   -5.4350    3.0260 O   0  0  0  0  0  0  0  0  0  0  0  0
   -5.2160   -1.6970   -4.1440 H   0  0  0  0  0  0  0  0  0  0  0  0
   -1.6980   -1.7710   -3.7010 H   0  0  0  0  0  0  0  0  0  0  0  0
   -0.4510   -2.8440   -1.7970 H   0  0  0  0  0  0  0  0  0  0  0  0
   -2.1120   -5.3220    0.4270 H   0  0  0  0  0  0  0  0  0  0  0  0
   -0.5150   -4.7900   -0.1330 H   0  0  0  0  0  0  0  0  0  0  0  0
   -2.5450   -3.3490    1.6520 H   0  0  0  0  0  0  0  0  0  0  0  0
    0.2290   -2.3120    0.8680 H   0  0  0  0  0  0  0  0  0  0  0  0
   -4.0660   -4.5530   -0.4170 H   0  0  0  0  0  0  0  0  0  0  0  0
   -5.3030   -3.4890   -2.3050 H   0  0  0  0  0  0  0  0  0  0  0  0
  1  9  1  0  0  0  0
  1 10  1  0  0  0  0
  2  1  1  0  0  0  0
  3 12  1  0  0  0  0
  3  4  1  0  0  0  0
  3  2  1  0  0  0  0
  4 15  1  0  0  0  0
  5 16  1  6  0  0  0
  5  7  1  0  0  0  0
  5  6  1  0  0  0  0
  5  4  1  0  0  0  0
  7  8  2  0  0  0  0
 11  1  1  0  0  0  0
 13  3  1  0  0  0  0
 14  4  1  0  0  0  0
 17  6  1  0  0  0  0
 18  6  1  0  0  0  0
 19 20  1  0  0  0  0
 19  7  1  0  0  0  0
 20 28  1  0  0  0  0
 20 31  1  1  0  0  0
 21 33  1  0  0  0  0
 21 20  1  0  0  0  0
 22 27  1  0  0  0  0
 22 21  1  0  0  0  0
 23 22  2  0  0  0  0
 24 25  2  0  0  0  0
 24 23  1  0  0  0  0
 25 26  1  0  0  0  0
 26 37  1  0  0  0  0
 26 27  2  0  0  0  0
 27 38  1  0  0  0  0
 28 29  2  0  0  0  0
 30 19  1  0  0  0  0
 32 21  1  0  0  0  0
 34 23  1  0  0  0  0
 35 24  1  0  0  0  0
 36 25  1  0  0  0  0
 39 52  1  0  0  0  0
 39 40  1  0  0  0  0
 40 41  2  0  0  0  0
 40 50  1  0  0  0  0
 41 42  1  0  0  0  0
 42 54  1  0  0  0  0
 42 43  2  0  0  0  0
 43 44  1  0  0  0  0
 44 55  1  0  0  0  0
 44 45  1  0  0  0  0
 45 57  1  1  0  0  0
 45 47  1  0  0  0  0
 46 28  1  0  0  0  0
 46 45  1  0  0  0  0
 47 51  2  0  0  0  0
 47 48  1  0  0  0  0
 49 43  1  0  0  0  0
 49 59  1  0  0  0  0
 50 49  2  0  0  0  0
 53 41  1  0  0  0  0
 56 44  1  0  0  0  0
 58 46  1  0  0  0  0
 60 50  1  0  0  0  0
M  END
$$$$
