MGA.pdb
 OpenBabel07022418543D

 36 35  0  0  1  0  0  0  0  0999 V2000
   -1.7070   -1.2530    3.9280 C   0  0  0  0  0  0  0  0  0  0  0  0
   -0.3990   -2.3110    3.2030 S   0  0  0  0  0  0  0  0  0  0  0  0
   -0.8080   -2.5550    1.4580 C   0  0  0  0  0  0  0  0  0  0  0  0
    0.1790   -3.4040    0.7430 C   0  0  0  0  0  0  0  0  0  0  0  0
    1.5800   -2.9360    0.7050 C   0  0  2  0  0  0  0  0  0  0  0  0
    2.0730   -2.8080    2.0760 N   0  0  0  0  0  0  0  0  0  0  0  0
    1.8810   -1.7500   -0.0910 C   0  0  0  0  0  0  0  0  0  0  0  0
    2.5280   -0.8110    0.4350 O   0  0  0  0  0  0  0  0  0  0  0  0
   -2.5920   -1.1920    3.2420 H   0  0  0  0  0  0  0  0  0  0  0  0
   -2.0830   -1.6790    4.8840 H   0  0  0  0  0  0  0  0  0  0  0  0
   -1.3480   -0.2140    4.0410 H   0  0  0  0  0  0  0  0  0  0  0  0
   -1.7760   -3.1500    1.4550 H   0  0  0  0  0  0  0  0  0  0  0  0
   -1.0650   -1.6050    1.0000 H   0  0  0  0  0  0  0  0  0  0  0  0
    0.1040   -4.4410    1.1670 H   0  0  0  0  0  0  0  0  0  0  0  0
   -0.2100   -3.5250   -0.3060 H   0  0  0  0  0  0  0  0  0  0  0  0
    2.1880   -3.8250    0.3090 H   0  0  0  0  0  0  0  0  0  0  0  0
    3.0690   -2.5770    2.1290 H   0  0  0  0  0  0  0  0  0  0  0  0
    1.7480   -3.5790    2.6750 H   0  0  0  0  0  0  0  0  0  0  0  0
    1.4820   -1.5970   -1.4440 N   0  0  0  0  0  0  0  0  0  0  0  0
    1.7640   -0.4500   -2.2620 C   0  0  0  0  0  0  0  0  0  0  0  0
    1.1890    0.8240   -1.8240 C   0  0  0  0  0  0  0  0  0  0  0  0
    1.4270    1.9100   -2.4820 O   0  0  0  0  0  0  0  0  0  0  0  0
    0.9280   -2.4080   -1.8790 H   0  0  0  0  0  0  0  0  0  0  0  0
    2.8830   -0.3580   -2.4390 H   0  0  0  0  0  0  0  0  0  0  0  0
    1.3620   -0.6240   -3.3030 H   0  0  0  0  0  0  0  0  0  0  0  0
   -1.6980    2.1750   -0.3140 C   0  0  0  0  0  0  0  0  0  0  0  0
   -0.1740    2.2360   -0.3090 C   0  0  2  0  0  0  0  0  0  0  0  0
    0.3580    0.9230   -0.6830 N   0  0  0  0  0  0  0  0  0  0  0  0
    0.2340    2.5010    1.0940 C   0  0  0  0  0  0  0  0  0  0  0  0
   -0.0920    3.5750    1.6840 O   0  0  0  0  0  0  0  0  0  0  0  0
    0.9870    1.5890    1.8200 O   0  0  0  0  0  0  0  0  0  0  0  0
   -2.0880    3.0870    0.1530 H   0  0  0  0  0  0  0  0  0  0  0  0
   -2.1080    2.0240   -1.3170 H   0  0  0  0  0  0  0  0  0  0  0  0
   -1.9590    1.2880    0.3190 H   0  0  0  0  0  0  0  0  0  0  0  0
    0.1530    3.0200   -0.9940 H   0  0  0  0  0  0  0  0  0  0  0  0
    0.1010    0.1030   -0.1070 H   0  0  0  0  0  0  0  0  0  0  0  0
  1 11  1  0  0  0  0
  1 10  1  0  0  0  0
  2  1  1  0  0  0  0
  3  2  1  0  0  0  0
  4 14  1  0  0  0  0
  4  3  1  0  0  0  0
  5 16  1  6  0  0  0
  5  4  1  0  0  0  0
  5  6  1  0  0  0  0
  6 17  1  0  0  0  0
  6 18  1  0  0  0  0
  7  8  2  0  0  0  0
  7  5  1  0  0  0  0
  9  1  1  0  0  0  0
 12  3  1  0  0  0  0
 13  3  1  0  0  0  0
 15  4  1  0  0  0  0
 19  7  1  0  0  0  0
 20 21  1  0  0  0  0
 20 19  1  0  0  0  0
 21 28  1  0  0  0  0
 22 21  2  0  0  0  0
 23 19  1  0  0  0  0
 24 20  1  0  0  0  0
 25 20  1  0  0  0  0
 26 27  1  0  0  0  0
 26 32  1  0  0  0  0
 26 34  1  0  0  0  0
 27 35  1  6  0  0  0
 27 29  1  0  0  0  0
 28 27  1  0  0  0  0
 28 36  1  0  0  0  0
 29 30  2  0  0  0  0
 29 31  1  0  0  0  0
 33 26  1  0  0  0  0
M  END
$$$$
