MGG.pdb
 OpenBabel07022418543D

 33 32  0  0  1  0  0  0  0  0999 V2000
   -2.5760   -2.4060    0.6780 C   0  0  0  0  0  0  0  0  0  0  0  0
   -1.8760   -2.6580    2.2630 S   0  0  0  0  0  0  0  0  0  0  0  0
   -0.1530   -2.3360    2.5380 C   0  0  0  0  0  0  0  0  0  0  0  0
    0.7200   -3.2760    1.7740 C   0  0  0  0  0  0  0  0  0  0  0  0
    0.6010   -3.1340    0.2960 C   0  0  2  0  0  0  0  0  0  0  0  0
    1.5120   -4.2180   -0.2750 N   0  0  0  0  0  0  0  0  0  0  0  0
    1.2020   -1.9060   -0.2650 C   0  0  0  0  0  0  0  0  0  0  0  0
    2.3170   -1.9260   -0.9160 O   0  0  0  0  0  0  0  0  0  0  0  0
   -2.0490   -1.8220   -0.0710 H   0  0  0  0  0  0  0  0  0  0  0  0
   -2.7140   -3.4270    0.1890 H   0  0  0  0  0  0  0  0  0  0  0  0
   -3.6490   -2.0440    0.7370 H   0  0  0  0  0  0  0  0  0  0  0  0
    0.1510   -1.2710    2.4290 H   0  0  0  0  0  0  0  0  0  0  0  0
    0.1060   -2.5120    3.6580 H   0  0  0  0  0  0  0  0  0  0  0  0
    1.7910   -3.2290    2.1160 H   0  0  0  0  0  0  0  0  0  0  0  0
    0.3630   -4.3130    2.0410 H   0  0  0  0  0  0  0  0  0  0  0  0
   -0.3600   -3.4320   -0.1150 H   0  0  0  0  0  0  0  0  0  0  0  0
    1.0330   -5.0920    0.0220 H   0  0  0  0  0  0  0  0  0  0  0  0
    1.3510   -4.1100   -1.3010 H   0  0  0  0  0  0  0  0  0  0  0  0
    0.6390   -0.6060   -0.1570 N   0  0  0  0  0  0  0  0  0  0  0  0
    1.3080    0.5440   -0.7430 C   0  0  0  0  0  0  0  0  0  0  0  0
    0.5940    1.7850   -0.5350 C   0  0  0  0  0  0  0  0  0  0  0  0
    1.1060    2.8720   -1.0200 O   0  0  0  0  0  0  0  0  0  0  0  0
   -0.2560   -0.5250    0.3460 H   0  0  0  0  0  0  0  0  0  0  0  0
    1.4340    0.3700   -1.8550 H   0  0  0  0  0  0  0  0  0  0  0  0
    2.3390    0.5830   -0.3210 H   0  0  0  0  0  0  0  0  0  0  0  0
   -0.6250    1.9420    0.1530 N   0  0  0  0  0  0  0  0  0  0  0  0
   -1.2010    3.2980    0.2640 C   0  0  0  0  0  0  0  0  0  0  0  0
   -0.2570    4.1710    0.9870 C   0  0  0  0  0  0  0  0  0  0  0  0
   -0.5440    5.3790    1.1720 O   0  0  0  0  0  0  0  0  0  0  0  0
    0.9340    3.6680    1.4580 O   0  0  0  0  0  0  0  0  0  0  0  0
   -1.1300    1.1370    0.5830 H   0  0  0  0  0  0  0  0  0  0  0  0
   -1.4190    3.6460   -0.7600 H   0  0  0  0  0  0  0  0  0  0  0  0
   -2.1240    3.2120    0.8580 H   0  0  0  0  0  0  0  0  0  0  0  0
  1 11  1  0  0  0  0
  1  2  1  0  0  0  0
  2  3  1  0  0  0  0
  3 13  1  0  0  0  0
  4 15  1  0  0  0  0
  4 14  1  0  0  0  0
  4  3  1  0  0  0  0
  5 16  1  6  0  0  0
  5  4  1  0  0  0  0
  6 17  1  0  0  0  0
  6  5  1  0  0  0  0
  7 19  1  0  0  0  0
  7  5  1  0  0  0  0
  8  7  2  0  0  0  0
  9  1  1  0  0  0  0
 10  1  1  0  0  0  0
 12  3  1  0  0  0  0
 18  6  1  0  0  0  0
 19 23  1  0  0  0  0
 20 21  1  0  0  0  0
 20 25  1  0  0  0  0
 20 19  1  0  0  0  0
 21 26  1  0  0  0  0
 22 21  2  0  0  0  0
 24 20  1  0  0  0  0
 26 27  1  0  0  0  0
 26 31  1  0  0  0  0
 27 33  1  0  0  0  0
 27 28  1  0  0  0  0
 28 29  2  0  0  0  0
 28 30  1  0  0  0  0
 32 27  1  0  0  0  0
M  END
$$$$
