MGH.pdb
 OpenBabel07022418543D

 43 43  0  0  1  0  0  0  0  0999 V2000
    1.0520   -5.0820    2.2700 C   0  0  0  0  0  0  0  0  0  0  0  0
    0.2770   -5.2100    0.6380 S   0  0  0  0  0  0  0  0  0  0  0  0
    1.4300   -4.8070   -0.6730 C   0  0  0  0  0  0  0  0  0  0  0  0
    1.8560   -3.3550   -0.6430 C   0  0  0  0  0  0  0  0  0  0  0  0
    0.6990   -2.4160   -0.7970 C   0  0  2  0  0  0  0  0  0  0  0  0
    0.0330   -2.6550   -2.0590 N   0  0  0  0  0  0  0  0  0  0  0  0
    1.2180   -1.0130   -0.7910 C   0  0  0  0  0  0  0  0  0  0  0  0
    1.0310   -0.2600   -1.7760 O   0  0  0  0  0  0  0  0  0  0  0  0
    2.1530   -5.1330    2.2010 H   0  0  0  0  0  0  0  0  0  0  0  0
    0.7490   -5.9690    2.8910 H   0  0  0  0  0  0  0  0  0  0  0  0
    0.7030   -4.1620    2.8080 H   0  0  0  0  0  0  0  0  0  0  0  0
    0.9630   -5.0030   -1.6520 H   0  0  0  0  0  0  0  0  0  0  0  0
    2.3540   -5.4220   -0.5830 H   0  0  0  0  0  0  0  0  0  0  0  0
    2.3500   -3.1260    0.3430 H   0  0  0  0  0  0  0  0  0  0  0  0
    2.5990   -3.1250   -1.4310 H   0  0  0  0  0  0  0  0  0  0  0  0
   -0.0150   -2.5570    0.0380 H   0  0  0  0  0  0  0  0  0  0  0  0
    0.6690   -2.8740   -2.8360 H   0  0  0  0  0  0  0  0  0  0  0  0
   -0.7580   -3.3420   -1.9700 H   0  0  0  0  0  0  0  0  0  0  0  0
    1.9280   -0.5190    0.3330 N   0  0  0  0  0  0  0  0  0  0  0  0
    2.4560    0.7960    0.4540 C   0  0  0  0  0  0  0  0  0  0  0  0
    1.4280    1.8380    0.4410 C   0  0  0  0  0  0  0  0  0  0  0  0
    1.7370    3.0690    0.4930 O   0  0  0  0  0  0  0  0  0  0  0  0
    2.0640   -1.2020    1.1320 H   0  0  0  0  0  0  0  0  0  0  0  0
    3.0480    0.9160    1.3970 H   0  0  0  0  0  0  0  0  0  0  0  0
    3.2140    0.9240   -0.3560 H   0  0  0  0  0  0  0  0  0  0  0  0
    0.0430    1.5480    0.3760 N   0  0  0  0  0  0  0  0  0  0  0  0
   -0.9420    2.6070    0.3570 C   0  0  1  0  0  0  0  0  0  0  0  0
   -0.9910    3.2170    1.7350 C   0  0  0  0  0  0  0  0  0  0  0  0
   -1.3760    2.1360    2.6830 C   0  0  0  0  0  0  0  0  0  0  0  0
   -0.5810    1.2570    3.3870 C   0  0  0  0  0  0  0  0  0  0  0  0
   -1.3450    0.4260    4.1450 N   0  0  0  0  0  0  0  0  0  0  0  0
   -2.6100    0.7890    3.9100 C   0  0  0  0  0  0  0  0  0  0  0  0
   -2.6520    1.8060    3.0420 N   0  0  0  0  0  0  0  0  0  0  0  0
   -0.7550    3.5740   -0.7180 C   0  0  0  0  0  0  0  0  0  0  0  0
   -1.5260    4.5470   -0.8190 O   0  0  0  0  0  0  0  0  0  0  0  0
    0.2660    3.4270   -1.6250 O   0  0  0  0  0  0  0  0  0  0  0  0
   -0.3140    0.5690    0.3540 H   0  0  0  0  0  0  0  0  0  0  0  0
   -1.9540    2.1320    0.2010 H   0  0  0  0  0  0  0  0  0  0  0  0
   -1.7170    4.0570    1.7840 H   0  0  0  0  0  0  0  0  0  0  0  0
    0.0270    3.5630    1.9980 H   0  0  0  0  0  0  0  0  0  0  0  0
    0.4980    1.2230    3.3510 H   0  0  0  0  0  0  0  0  0  0  0  0
   -0.9820   -0.3450    4.7820 H   0  0  0  0  0  0  0  0  0  0  0  0
   -3.4710    0.3290    4.3560 H   0  0  0  0  0  0  0  0  0  0  0  0
  1 11  1  0  0  0  0
  1 10  1  0  0  0  0
  2  1  1  0  0  0  0
  3  4  1  0  0  0  0
  3 13  1  0  0  0  0
  3  2  1  0  0  0  0
  4 14  1  0  0  0  0
  5  7  1  0  0  0  0
  5  4  1  0  0  0  0
  5 16  1  1  0  0  0
  6 18  1  0  0  0  0
  6  5  1  0  0  0  0
  7 19  1  0  0  0  0
  8  7  2  0  0  0  0
  9  1  1  0  0  0  0
 12  3  1  0  0  0  0
 15  4  1  0  0  0  0
 17  6  1  0  0  0  0
 19 20  1  0  0  0  0
 19 23  1  0  0  0  0
 20 24  1  0  0  0  0
 21 20  1  0  0  0  0
 21 22  2  0  0  0  0
 25 20  1  0  0  0  0
 26 21  1  0  0  0  0
 27 38  1  6  0  0  0
 27 26  1  0  0  0  0
 27 28  1  0  0  0  0
 28 39  1  0  0  0  0
 28 40  1  0  0  0  0
 28 29  1  0  0  0  0
 29 33  1  0  0  0  0
 29 30  2  0  0  0  0
 30 31  1  0  0  0  0
 31 42  1  0  0  0  0
 32 31  1  0  0  0  0
 32 43  1  0  0  0  0
 33 32  2  0  0  0  0
 34 27  1  0  0  0  0
 35 34  1  0  0  0  0
 36 34  2  0  0  0  0
 37 26  1  0  0  0  0
 41 30  1  0  0  0  0
M  END
$$$$
