MGL.pdb
 OpenBabel07022418543D

 45 44  0  0  1  0  0  0  0  0999 V2000
   -2.8530   -2.6370    2.1070 C   0  0  0  0  0  0  0  0  0  0  0  0
   -2.6140   -4.2600    1.4210 S   0  0  0  0  0  0  0  0  0  0  0  0
   -2.4490   -4.3860   -0.3410 C   0  0  0  0  0  0  0  0  0  0  0  0
   -1.1970   -3.8110   -0.9290 C   0  0  0  0  0  0  0  0  0  0  0  0
   -1.1030   -2.3530   -0.6830 C   0  0  2  0  0  0  0  0  0  0  0  0
   -2.1920   -1.6480   -1.2720 N   0  0  0  0  0  0  0  0  0  0  0  0
    0.2230   -1.7910   -1.1170 C   0  0  0  0  0  0  0  0  0  0  0  0
    1.2500   -2.3470   -0.6640 O   0  0  0  0  0  0  0  0  0  0  0  0
   -3.2400   -1.8760    1.4320 H   0  0  0  0  0  0  0  0  0  0  0  0
   -1.9390   -2.2120    2.6180 H   0  0  0  0  0  0  0  0  0  0  0  0
   -3.6470   -2.6960    2.9310 H   0  0  0  0  0  0  0  0  0  0  0  0
   -3.2970   -3.7930   -0.8090 H   0  0  0  0  0  0  0  0  0  0  0  0
   -2.6420   -5.4280   -0.7160 H   0  0  0  0  0  0  0  0  0  0  0  0
   -1.1910   -4.0600   -2.0190 H   0  0  0  0  0  0  0  0  0  0  0  0
   -0.3390   -4.3720   -0.4420 H   0  0  0  0  0  0  0  0  0  0  0  0
   -1.1220   -2.1910    0.4180 H   0  0  0  0  0  0  0  0  0  0  0  0
   -3.1240   -1.7980   -0.9070 H   0  0  0  0  0  0  0  0  0  0  0  0
   -2.1320   -1.5660   -2.3110 H   0  0  0  0  0  0  0  0  0  0  0  0
    0.3620   -0.6900   -1.9910 N   0  0  0  0  0  0  0  0  0  0  0  0
    1.6030   -0.1250   -2.4130 C   0  0  0  0  0  0  0  0  0  0  0  0
    2.3670    0.4400   -1.2830 C   0  0  0  0  0  0  0  0  0  0  0  0
    3.5180    0.9450   -1.4450 O   0  0  0  0  0  0  0  0  0  0  0  0
   -0.5530   -0.2850   -2.3330 H   0  0  0  0  0  0  0  0  0  0  0  0
    1.3760    0.6990   -3.1440 H   0  0  0  0  0  0  0  0  0  0  0  0
    2.2080   -0.8560   -3.0030 H   0  0  0  0  0  0  0  0  0  0  0  0
    0.1500    3.2970    2.9510 C   0  0  0  0  0  0  0  0  0  0  0  0
    0.5900    1.9520    2.3520 C   0  0  0  0  0  0  0  0  0  0  0  0
    0.6290    1.0030    3.5520 C   0  0  0  0  0  0  0  0  0  0  0  0
    1.9780    2.1960    1.8010 C   0  0  0  0  0  0  0  0  0  0  0  0
    2.6040    1.0040    1.1590 C   0  0  2  0  0  0  0  0  0  0  0  0
    1.8790    0.4650    0.0450 N   0  0  0  0  0  0  0  0  0  0  0  0
    2.9950   -0.0680    2.1020 C   0  0  0  0  0  0  0  0  0  0  0  0
    2.6800   -1.2670    1.8620 O   0  0  0  0  0  0  0  0  0  0  0  0
    3.7090    0.1550    3.2710 O   0  0  0  0  0  0  0  0  0  0  0  0
    0.3170    4.1200    2.2360 H   0  0  0  0  0  0  0  0  0  0  0  0
   -0.9140    3.1800    3.2440 H   0  0  0  0  0  0  0  0  0  0  0  0
    0.7290    3.4000    3.8920 H   0  0  0  0  0  0  0  0  0  0  0  0
   -0.1230    1.5820    1.6210 H   0  0  0  0  0  0  0  0  0  0  0  0
   -0.3280    1.1080    4.1440 H   0  0  0  0  0  0  0  0  0  0  0  0
    0.6500   -0.0550    3.2500 H   0  0  0  0  0  0  0  0  0  0  0  0
    1.4230    1.3080    4.2500 H   0  0  0  0  0  0  0  0  0  0  0  0
    2.0120    3.1010    1.1830 H   0  0  0  0  0  0  0  0  0  0  0  0
    2.5980    2.4550    2.7140 H   0  0  0  0  0  0  0  0  0  0  0  0
    3.5820    1.3700    0.7210 H   0  0  0  0  0  0  0  0  0  0  0  0
    0.9200    0.0960    0.3060 H   0  0  0  0  0  0  0  0  0  0  0  0
  1 10  1  0  0  0  0
  1 11  1  0  0  0  0
  2  1  1  0  0  0  0
  3  2  1  0  0  0  0
  4  5  1  0  0  0  0
  4 15  1  0  0  0  0
  4  3  1  0  0  0  0
  5 16  1  1  0  0  0
  6 17  1  0  0  0  0
  6  5  1  0  0  0  0
  7  5  1  0  0  0  0
  7  8  2  0  0  0  0
  9  1  1  0  0  0  0
 12  3  1  0  0  0  0
 13  3  1  0  0  0  0
 14  4  1  0  0  0  0
 18  6  1  0  0  0  0
 19  7  1  0  0  0  0
 20 19  1  0  0  0  0
 20 21  1  0  0  0  0
 21 31  1  0  0  0  0
 22 21  2  0  0  0  0
 23 19  1  0  0  0  0
 24 20  1  0  0  0  0
 25 20  1  0  0  0  0
 26 36  1  0  0  0  0
 26 37  1  0  0  0  0
 27 26  1  0  0  0  0
 27 28  1  0  0  0  0
 28 39  1  0  0  0  0
 28 41  1  0  0  0  0
 29 27  1  0  0  0  0
 29 43  1  0  0  0  0
 30 44  1  6  0  0  0
 30 29  1  0  0  0  0
 30 32  1  0  0  0  0
 31 45  1  0  0  0  0
 31 30  1  0  0  0  0
 32 34  1  0  0  0  0
 33 32  2  0  0  0  0
 35 26  1  0  0  0  0
 38 27  1  0  0  0  0
 40 28  1  0  0  0  0
 42 29  1  0  0  0  0
M  END
$$$$
