MGN.pdb
 OpenBabel07022418543D

 40 39  0  0  1  0  0  0  0  0999 V2000
   -3.1480   -3.3780    1.6580 C   0  0  0  0  0  0  0  0  0  0  0  0
   -2.2740   -4.9190    1.3940 S   0  0  0  0  0  0  0  0  0  0  0  0
   -1.4560   -5.0290   -0.1880 C   0  0  0  0  0  0  0  0  0  0  0  0
   -0.2610   -4.1460   -0.3530 C   0  0  0  0  0  0  0  0  0  0  0  0
   -0.5690   -2.6830   -0.2390 C   0  0  2  0  0  0  0  0  0  0  0  0
   -1.5190   -2.2740   -1.2380 N   0  0  0  0  0  0  0  0  0  0  0  0
    0.6720   -1.8590   -0.2700 C   0  0  0  0  0  0  0  0  0  0  0  0
    1.5770   -2.1170    0.5610 O   0  0  0  0  0  0  0  0  0  0  0  0
   -4.1420   -3.6090    2.1780 H   0  0  0  0  0  0  0  0  0  0  0  0
   -2.5910   -2.7910    2.4450 H   0  0  0  0  0  0  0  0  0  0  0  0
   -3.3500   -2.7890    0.7590 H   0  0  0  0  0  0  0  0  0  0  0  0
   -2.1920   -4.7980   -1.0260 H   0  0  0  0  0  0  0  0  0  0  0  0
   -1.1290   -6.1050   -0.3660 H   0  0  0  0  0  0  0  0  0  0  0  0
    0.4490   -4.4200    0.4930 H   0  0  0  0  0  0  0  0  0  0  0  0
    0.2850   -4.3670   -1.3140 H   0  0  0  0  0  0  0  0  0  0  0  0
   -1.0160   -2.5000    0.7490 H   0  0  0  0  0  0  0  0  0  0  0  0
   -2.0550   -1.4270   -0.9900 H   0  0  0  0  0  0  0  0  0  0  0  0
   -1.1660   -2.2290   -2.1920 H   0  0  0  0  0  0  0  0  0  0  0  0
    0.8910   -0.7960   -1.1870 N   0  0  0  0  0  0  0  0  0  0  0  0
    2.0650    0.0210   -1.2450 C   0  0  0  0  0  0  0  0  0  0  0  0
    2.3630    0.8200   -0.0640 C   0  0  0  0  0  0  0  0  0  0  0  0
    3.4210    1.5390   -0.0740 O   0  0  0  0  0  0  0  0  0  0  0  0
    0.0760   -0.6490   -1.8580 H   0  0  0  0  0  0  0  0  0  0  0  0
    2.9350   -0.6840   -1.3940 H   0  0  0  0  0  0  0  0  0  0  0  0
    2.0270    0.6070   -2.1870 H   0  0  0  0  0  0  0  0  0  0  0  0
    1.1240    5.0330    1.4070 N   0  0  0  0  0  0  0  0  0  0  0  0
    0.7120    3.6870    1.4290 C   0  0  0  0  0  0  0  0  0  0  0  0
    0.0940    3.1660    0.4620 O   0  0  0  0  0  0  0  0  0  0  0  0
    0.9730    2.7790    2.5890 C   0  0  0  0  0  0  0  0  0  0  0  0
    2.0140    1.7400    2.2430 C   0  0  2  0  0  0  0  0  0  0  0  0
    1.6100    0.9080    1.1300 N   0  0  0  0  0  0  0  0  0  0  0  0
    2.2450    0.8750    3.4220 C   0  0  0  0  0  0  0  0  0  0  0  0
    2.0740   -0.3600    3.3060 O   0  0  0  0  0  0  0  0  0  0  0  0
    2.6450    1.3870    4.6520 O   0  0  0  0  0  0  0  0  0  0  0  0
    1.1510    5.5570    0.5190 H   0  0  0  0  0  0  0  0  0  0  0  0
    1.4020    5.4990    2.2840 H   0  0  0  0  0  0  0  0  0  0  0  0
    0.0430    2.3290    2.9830 H   0  0  0  0  0  0  0  0  0  0  0  0
    1.4180    3.4140    3.3850 H   0  0  0  0  0  0  0  0  0  0  0  0
    2.9670    2.2640    2.0180 H   0  0  0  0  0  0  0  0  0  0  0  0
    0.7310    0.3550    1.1930 H   0  0  0  0  0  0  0  0  0  0  0  0
  1  9  1  0  0  0  0
  1 10  1  0  0  0  0
  2  1  1  0  0  0  0
  3  2  1  0  0  0  0
  4  5  1  0  0  0  0
  4  3  1  0  0  0  0
  4 14  1  0  0  0  0
  5 16  1  1  0  0  0
  6 17  1  0  0  0  0
  6  5  1  0  0  0  0
  7  5  1  0  0  0  0
  7  8  2  0  0  0  0
 11  1  1  0  0  0  0
 12  3  1  0  0  0  0
 13  3  1  0  0  0  0
 15  4  1  0  0  0  0
 18  6  1  0  0  0  0
 19  7  1  0  0  0  0
 20 19  1  0  0  0  0
 20 21  1  0  0  0  0
 21 31  1  0  0  0  0
 22 21  2  0  0  0  0
 23 19  1  0  0  0  0
 24 20  1  0  0  0  0
 25 20  1  0  0  0  0
 26 27  1  0  0  0  0
 26 36  1  0  0  0  0
 27 29  1  0  0  0  0
 28 27  2  0  0  0  0
 29 37  1  0  0  0  0
 29 38  1  0  0  0  0
 30 39  1  6  0  0  0
 30 29  1  0  0  0  0
 30 32  1  0  0  0  0
 31 40  1  0  0  0  0
 31 30  1  0  0  0  0
 32 34  1  0  0  0  0
 33 32  2  0  0  0  0
 35 26  1  0  0  0  0
M  END
$$$$
