MGQ.pdb
 OpenBabel07022418543D

 43 42  0  0  1  0  0  0  0  0999 V2000
    3.2330   -2.8560   -1.0530 C   0  0  0  0  0  0  0  0  0  0  0  0
    2.7360   -2.8480   -2.7590 S   0  0  0  0  0  0  0  0  0  0  0  0
    1.0080   -3.0760   -3.0940 C   0  0  0  0  0  0  0  0  0  0  0  0
    0.1010   -1.9490   -2.6990 C   0  0  0  0  0  0  0  0  0  0  0  0
    0.1740   -1.7050   -1.2360 C   0  0  2  0  0  0  0  0  0  0  0  0
   -0.2140   -2.8800   -0.5000 N   0  0  0  0  0  0  0  0  0  0  0  0
   -0.6420   -0.5200   -0.8200 C   0  0  0  0  0  0  0  0  0  0  0  0
   -1.5070   -0.6960    0.0620 O   0  0  0  0  0  0  0  0  0  0  0  0
    2.5330   -3.2910   -0.3340 H   0  0  0  0  0  0  0  0  0  0  0  0
    4.1910   -3.4470   -0.9250 H   0  0  0  0  0  0  0  0  0  0  0  0
    3.5140   -1.8350   -0.7130 H   0  0  0  0  0  0  0  0  0  0  0  0
    0.6560   -3.9940   -2.5200 H   0  0  0  0  0  0  0  0  0  0  0  0
    0.8230   -3.3500   -4.1630 H   0  0  0  0  0  0  0  0  0  0  0  0
   -0.9450   -2.2380   -3.0090 H   0  0  0  0  0  0  0  0  0  0  0  0
    0.4020   -1.0100   -3.2270 H   0  0  0  0  0  0  0  0  0  0  0  0
    1.2100   -1.4460   -0.9610 H   0  0  0  0  0  0  0  0  0  0  0  0
   -0.9980   -3.3920   -0.9500 H   0  0  0  0  0  0  0  0  0  0  0  0
   -0.4090   -2.6630    0.5040 H   0  0  0  0  0  0  0  0  0  0  0  0
   -0.4720    0.7590   -1.3760 N   0  0  0  0  0  0  0  0  0  0  0  0
   -1.2270    1.9310   -1.0010 C   0  0  0  0  0  0  0  0  0  0  0  0
   -1.0530    2.3460    0.4050 C   0  0  0  0  0  0  0  0  0  0  0  0
   -1.7080    3.3480    0.8420 O   0  0  0  0  0  0  0  0  0  0  0  0
    0.2810    0.8230   -2.1270 H   0  0  0  0  0  0  0  0  0  0  0  0
   -2.3010    1.8130   -1.2700 H   0  0  0  0  0  0  0  0  0  0  0  0
   -0.8490    2.7990   -1.6190 H   0  0  0  0  0  0  0  0  0  0  0  0
    0.4370   -2.5700    4.3410 N   0  0  0  0  0  0  0  0  0  0  0  0
   -0.1480   -1.2830    4.2920 C   0  0  0  0  0  0  0  0  0  0  0  0
   -1.1190   -1.0500    5.0490 O   0  0  0  0  0  0  0  0  0  0  0  0
    0.3310   -0.2070    3.3950 C   0  0  0  0  0  0  0  0  0  0  0  0
   -0.5030    1.0220    3.6010 C   0  0  0  0  0  0  0  0  0  0  0  0
   -0.0680    2.1680    2.7170 C   0  0  2  0  0  0  0  0  0  0  0  0
   -0.2040    1.7240    1.3380 N   0  0  0  0  0  0  0  0  0  0  0  0
    1.3110    2.5540    3.0390 C   0  0  0  0  0  0  0  0  0  0  0  0
    2.1980    2.4770    2.1600 O   0  0  0  0  0  0  0  0  0  0  0  0
    1.6380    2.9990    4.2930 O   0  0  0  0  0  0  0  0  0  0  0  0
    1.4500   -2.7260    4.1990 H   0  0  0  0  0  0  0  0  0  0  0  0
   -0.1700   -3.3870    4.5260 H   0  0  0  0  0  0  0  0  0  0  0  0
    1.3940   -0.0100    3.6800 H   0  0  0  0  0  0  0  0  0  0  0  0
    0.2520   -0.6170    2.3660 H   0  0  0  0  0  0  0  0  0  0  0  0
   -1.5550    0.7510    3.2970 H   0  0  0  0  0  0  0  0  0  0  0  0
   -0.4950    1.2900    4.6690 H   0  0  0  0  0  0  0  0  0  0  0  0
   -0.7150    3.0550    2.9170 H   0  0  0  0  0  0  0  0  0  0  0  0
    0.3660    0.9270    1.0540 H   0  0  0  0  0  0  0  0  0  0  0  0
  1 10  1  0  0  0  0
  1 11  1  0  0  0  0
  1  9  1  0  0  0  0
  2  1  1  0  0  0  0
  3  2  1  0  0  0  0
  3  4  1  0  0  0  0
  3 12  1  0  0  0  0
  4  5  1  0  0  0  0
  5 16  1  1  0  0  0
  5  7  1  0  0  0  0
  5  6  1  0  0  0  0
  6 18  1  0  0  0  0
  7  8  2  0  0  0  0
 13  3  1  0  0  0  0
 14  4  1  0  0  0  0
 15  4  1  0  0  0  0
 17  6  1  0  0  0  0
 19 20  1  0  0  0  0
 19  7  1  0  0  0  0
 20 21  1  0  0  0  0
 21 22  2  0  0  0  0
 21 32  1  0  0  0  0
 23 19  1  0  0  0  0
 24 20  1  0  0  0  0
 25 20  1  0  0  0  0
 26 37  1  0  0  0  0
 27 26  1  0  0  0  0
 27 28  2  0  0  0  0
 29 30  1  0  0  0  0
 29 38  1  0  0  0  0
 29 27  1  0  0  0  0
 30 41  1  0  0  0  0
 31 42  1  1  0  0  0
 31 33  1  0  0  0  0
 31 30  1  0  0  0  0
 32 31  1  0  0  0  0
 33 35  1  0  0  0  0
 34 33  2  0  0  0  0
 36 26  1  0  0  0  0
 39 29  1  0  0  0  0
 40 30  1  0  0  0  0
 43 32  1  0  0  0  0
M  END
$$$$
