MGS.pdb
 OpenBabel07022418543D

 37 36  0  0  1  0  0  0  0  0999 V2000
   -3.2210   -3.8430    2.2520 C   0  0  0  0  0  0  0  0  0  0  0  0
   -1.6680   -4.6660    2.6250 S   0  0  0  0  0  0  0  0  0  0  0  0
   -0.7670   -5.1800    1.1730 C   0  0  0  0  0  0  0  0  0  0  0  0
   -0.2520   -4.0920    0.3050 C   0  0  0  0  0  0  0  0  0  0  0  0
    0.7210   -3.1440    0.9560 C   0  0  2  0  0  0  0  0  0  0  0  0
    0.1690   -2.4580    2.0870 N   0  0  0  0  0  0  0  0  0  0  0  0
    1.2920   -2.2620   -0.0840 C   0  0  0  0  0  0  0  0  0  0  0  0
    1.8660   -2.7530   -1.0850 O   0  0  0  0  0  0  0  0  0  0  0  0
   -3.3710   -3.7490    1.1580 H   0  0  0  0  0  0  0  0  0  0  0  0
   -3.1490   -2.7880    2.6480 H   0  0  0  0  0  0  0  0  0  0  0  0
   -4.0980   -4.3040    2.7400 H   0  0  0  0  0  0  0  0  0  0  0  0
   -1.4690   -5.7870    0.5360 H   0  0  0  0  0  0  0  0  0  0  0  0
    0.0310   -5.8900    1.4740 H   0  0  0  0  0  0  0  0  0  0  0  0
   -1.1280   -3.5570   -0.1310 H   0  0  0  0  0  0  0  0  0  0  0  0
    0.2540   -4.5720   -0.5630 H   0  0  0  0  0  0  0  0  0  0  0  0
    1.5350   -3.8090    1.3790 H   0  0  0  0  0  0  0  0  0  0  0  0
    0.2380   -3.0590    2.9700 H   0  0  0  0  0  0  0  0  0  0  0  0
    0.7520   -1.6200    2.3450 H   0  0  0  0  0  0  0  0  0  0  0  0
    1.2380   -0.8250   -0.0390 N   0  0  0  0  0  0  0  0  0  0  0  0
    1.8120   -0.0270   -1.0790 C   0  0  0  0  0  0  0  0  0  0  0  0
    1.6590    1.4000   -0.8570 C   0  0  0  0  0  0  0  0  0  0  0  0
    2.1400    2.2030   -1.7340 O   0  0  0  0  0  0  0  0  0  0  0  0
    0.7720   -0.4090    0.7630 H   0  0  0  0  0  0  0  0  0  0  0  0
    1.2520   -0.3080   -2.0300 H   0  0  0  0  0  0  0  0  0  0  0  0
    2.8840   -0.3170   -1.2770 H   0  0  0  0  0  0  0  0  0  0  0  0
   -1.1690    3.3870   -0.7070 O   0  0  0  0  0  0  0  0  0  0  0  0
   -0.5200    3.8490    0.4470 C   0  0  0  0  0  0  0  0  0  0  0  0
    0.9450    3.4680    0.3370 C   0  0  2  0  0  0  0  0  0  0  0  0
    1.0310    1.9910    0.2350 N   0  0  0  0  0  0  0  0  0  0  0  0
    1.6090    3.9170    1.5920 C   0  0  0  0  0  0  0  0  0  0  0  0
    2.1180    3.0780    2.3480 O   0  0  0  0  0  0  0  0  0  0  0  0
    1.6830    5.2510    1.9530 O   0  0  0  0  0  0  0  0  0  0  0  0
   -0.6840    3.7380   -1.4860 H   0  0  0  0  0  0  0  0  0  0  0  0
   -0.5640    4.9590    0.5270 H   0  0  0  0  0  0  0  0  0  0  0  0
   -0.9400    3.3940    1.3570 H   0  0  0  0  0  0  0  0  0  0  0  0
    1.4310    3.8900   -0.5380 H   0  0  0  0  0  0  0  0  0  0  0  0
    0.6160    1.4280    0.9900 H   0  0  0  0  0  0  0  0  0  0  0  0
  1  2  1  0  0  0  0
  1 10  1  0  0  0  0
  1 11  1  0  0  0  0
  3 13  1  0  0  0  0
  3  2  1  0  0  0  0
  4  5  1  0  0  0  0
  4  3  1  0  0  0  0
  5 16  1  1  0  0  0
  5  6  1  0  0  0  0
  6 18  1  0  0  0  0
  6 17  1  0  0  0  0
  7 19  1  0  0  0  0
  7  5  1  0  0  0  0
  8  7  2  0  0  0  0
  9  1  1  0  0  0  0
 12  3  1  0  0  0  0
 14  4  1  0  0  0  0
 15  4  1  0  0  0  0
 19 23  1  0  0  0  0
 20 21  1  0  0  0  0
 20 19  1  0  0  0  0
 21 29  1  0  0  0  0
 22 21  2  0  0  0  0
 24 20  1  0  0  0  0
 25 20  1  0  0  0  0
 26 27  1  0  0  0  0
 27 34  1  0  0  0  0
 27 35  1  0  0  0  0
 28 36  1  6  0  0  0
 28 27  1  0  0  0  0
 28 30  1  0  0  0  0
 29 28  1  0  0  0  0
 29 37  1  0  0  0  0
 30 32  2  0  0  0  0
 30 31  1  0  0  0  0
 33 26  1  0  0  0  0
M  END
$$$$
