MGT.pdb
 OpenBabel07022418543D

 40 39  0  0  1  0  0  0  0  0999 V2000
    1.0490   -3.7150    4.3570 C   0  0  0  0  0  0  0  0  0  0  0  0
    1.7340   -4.0950    2.7200 S   0  0  0  0  0  0  0  0  0  0  0  0
    0.4330   -3.9300    1.4750 C   0  0  0  0  0  0  0  0  0  0  0  0
    0.9060   -4.2250    0.0940 C   0  0  0  0  0  0  0  0  0  0  0  0
    2.0040   -3.3490   -0.3920 C   0  0  2  0  0  0  0  0  0  0  0  0
    3.1640   -3.4460    0.4350 N   0  0  0  0  0  0  0  0  0  0  0  0
    1.5690   -1.9380   -0.6030 C   0  0  0  0  0  0  0  0  0  0  0  0
    2.2000   -0.9820   -0.0820 O   0  0  0  0  0  0  0  0  0  0  0  0
    1.0700   -2.6220    4.5350 H   0  0  0  0  0  0  0  0  0  0  0  0
    1.5840   -4.2690    5.1590 H   0  0  0  0  0  0  0  0  0  0  0  0
   -0.0160   -4.0250    4.4220 H   0  0  0  0  0  0  0  0  0  0  0  0
   -0.3390   -4.7150    1.7280 H   0  0  0  0  0  0  0  0  0  0  0  0
   -0.0590   -2.9700    1.6170 H   0  0  0  0  0  0  0  0  0  0  0  0
    0.0440   -4.1070   -0.5930 H   0  0  0  0  0  0  0  0  0  0  0  0
    1.1920   -5.2950    0.0420 H   0  0  0  0  0  0  0  0  0  0  0  0
    2.2990   -3.7300   -1.4120 H   0  0  0  0  0  0  0  0  0  0  0  0
    3.2450   -2.6990    1.1550 H   0  0  0  0  0  0  0  0  0  0  0  0
    4.0480   -3.6250   -0.0880 H   0  0  0  0  0  0  0  0  0  0  0  0
    0.4320   -1.6220   -1.3950 N   0  0  0  0  0  0  0  0  0  0  0  0
    0.0210   -0.2490   -1.5890 C   0  0  0  0  0  0  0  0  0  0  0  0
   -0.3010    0.3380   -0.2740 C   0  0  0  0  0  0  0  0  0  0  0  0
   -0.1940   -0.3650    0.7550 O   0  0  0  0  0  0  0  0  0  0  0  0
   -0.1110   -2.4090   -1.8440 H   0  0  0  0  0  0  0  0  0  0  0  0
    0.8170    0.3090   -2.1240 H   0  0  0  0  0  0  0  0  0  0  0  0
   -0.8730   -0.2270   -2.2490 H   0  0  0  0  0  0  0  0  0  0  0  0
    1.2720    2.9630    1.5770 C   0  0  0  0  0  0  0  0  0  0  0  0
   -0.1440    3.4790    1.4480 C   0  0  1  0  0  0  0  0  0  0  0  0
   -0.2430    4.4670    0.4680 O   0  0  0  0  0  0  0  0  0  0  0  0
   -1.0570    2.2930    1.1360 C   0  0  2  0  0  0  0  0  0  0  0  0
   -0.7340    1.6810   -0.1100 N   0  0  0  0  0  0  0  0  0  0  0  0
   -2.4770    2.7070    1.1300 C   0  0  0  0  0  0  0  0  0  0  0  0
   -3.0270    3.2750    2.1120 O   0  0  0  0  0  0  0  0  0  0  0  0
   -3.2400    2.4620    0.0020 O   0  0  0  0  0  0  0  0  0  0  0  0
    1.8330    3.0370    0.6280 H   0  0  0  0  0  0  0  0  0  0  0  0
    1.8310    3.5150    2.3720 H   0  0  0  0  0  0  0  0  0  0  0  0
    1.2080    1.9080    1.9330 H   0  0  0  0  0  0  0  0  0  0  0  0
   -0.4540    3.8620    2.4370 H   0  0  0  0  0  0  0  0  0  0  0  0
   -1.1300    4.8960    0.5570 H   0  0  0  0  0  0  0  0  0  0  0  0
   -0.9370    1.6030    2.0090 H   0  0  0  0  0  0  0  0  0  0  0  0
   -0.8190    2.2560   -0.9770 H   0  0  0  0  0  0  0  0  0  0  0  0
  1 11  1  0  0  0  0
  1  9  1  0  0  0  0
  1 10  1  0  0  0  0
  2  1  1  0  0  0  0
  3 13  1  0  0  0  0
  3 12  1  0  0  0  0
  3  2  1  0  0  0  0
  4  3  1  0  0  0  0
  5 16  1  6  0  0  0
  5  4  1  0  0  0  0
  5  6  1  0  0  0  0
  6 17  1  0  0  0  0
  7  5  1  0  0  0  0
  7  8  2  0  0  0  0
 14  4  1  0  0  0  0
 15  4  1  0  0  0  0
 18  6  1  0  0  0  0
 19  7  1  0  0  0  0
 20 19  1  0  0  0  0
 20 21  1  0  0  0  0
 21 30  1  0  0  0  0
 21 22  2  0  0  0  0
 23 19  1  0  0  0  0
 24 20  1  0  0  0  0
 25 20  1  0  0  0  0
 26 36  1  0  0  0  0
 26 35  1  0  0  0  0
 27 26  1  0  0  0  0
 27 37  1  1  0  0  0
 28 38  1  0  0  0  0
 28 27  1  0  0  0  0
 29 27  1  0  0  0  0
 29 39  1  1  0  0  0
 30 29  1  0  0  0  0
 31 29  1  0  0  0  0
 31 32  1  0  0  0  0
 33 31  2  0  0  0  0
 34 26  1  0  0  0  0
 40 30  1  0  0  0  0
M  END
$$$$
