MGV.pdb
 OpenBabel07022418543D

 42 41  0  0  1  0  0  0  0  0999 V2000
   -3.1860   -5.7500    1.3090 C   0  0  0  0  0  0  0  0  0  0  0  0
   -4.5530   -4.6150    1.4830 S   0  0  0  0  0  0  0  0  0  0  0  0
   -4.4870   -3.0990    0.5980 C   0  0  0  0  0  0  0  0  0  0  0  0
   -3.5980   -1.9990    1.0570 C   0  0  0  0  0  0  0  0  0  0  0  0
   -2.1820   -2.3390    1.1230 C   0  0  2  0  0  0  0  0  0  0  0  0
   -1.9130   -3.3960    2.0610 N   0  0  0  0  0  0  0  0  0  0  0  0
   -1.2730   -1.2030    1.4040 C   0  0  0  0  0  0  0  0  0  0  0  0
   -0.4290   -1.3300    2.3170 O   0  0  0  0  0  0  0  0  0  0  0  0
   -2.6370   -5.9770    2.2560 H   0  0  0  0  0  0  0  0  0  0  0  0
   -3.5760   -6.7780    1.0070 H   0  0  0  0  0  0  0  0  0  0  0  0
   -2.5330   -5.4760    0.4580 H   0  0  0  0  0  0  0  0  0  0  0  0
   -4.1990   -3.3590   -0.4930 H   0  0  0  0  0  0  0  0  0  0  0  0
   -5.5490   -2.7260    0.4410 H   0  0  0  0  0  0  0  0  0  0  0  0
   -3.9810   -1.7210    2.1000 H   0  0  0  0  0  0  0  0  0  0  0  0
   -3.8360   -1.1220    0.3970 H   0  0  0  0  0  0  0  0  0  0  0  0
   -1.8570   -2.7330    0.1050 H   0  0  0  0  0  0  0  0  0  0  0  0
   -1.0160   -3.8890    1.8670 H   0  0  0  0  0  0  0  0  0  0  0  0
   -1.9940   -3.0900    3.0570 H   0  0  0  0  0  0  0  0  0  0  0  0
   -1.2970    0.0380    0.7010 N   0  0  0  0  0  0  0  0  0  0  0  0
   -0.3850    1.1190    1.0180 C   0  0  0  0  0  0  0  0  0  0  0  0
    1.0240    0.6880    0.8270 C   0  0  0  0  0  0  0  0  0  0  0  0
    1.2310   -0.4780    0.4370 O   0  0  0  0  0  0  0  0  0  0  0  0
   -1.9920    0.1360   -0.0460 H   0  0  0  0  0  0  0  0  0  0  0  0
   -0.5630    1.4870    2.0600 H   0  0  0  0  0  0  0  0  0  0  0  0
   -0.6240    1.9780    0.3520 H   0  0  0  0  0  0  0  0  0  0  0  0
    3.5040    1.6970   -1.5570 C   0  0  0  0  0  0  0  0  0  0  0  0
    4.2180    1.8600   -0.2180 C   0  0  0  0  0  0  0  0  0  0  0  0
    4.3840    3.3130    0.0910 C   0  0  0  0  0  0  0  0  0  0  0  0
    3.5090    1.0920    0.8690 C   0  0  2  0  0  0  0  0  0  0  0  0
    2.1500    1.5220    1.0620 N   0  0  0  0  0  0  0  0  0  0  0  0
    4.2690    1.0070    2.1290 C   0  0  0  0  0  0  0  0  0  0  0  0
    3.6970    1.3000    3.2200 O   0  0  0  0  0  0  0  0  0  0  0  0
    5.5950    0.6220    2.2180 O   0  0  0  0  0  0  0  0  0  0  0  0
    3.0370    0.6840   -1.6530 H   0  0  0  0  0  0  0  0  0  0  0  0
    2.7620    2.5230   -1.7310 H   0  0  0  0  0  0  0  0  0  0  0  0
    4.2030    1.7660   -2.4210 H   0  0  0  0  0  0  0  0  0  0  0  0
    5.2310    1.4390   -0.3760 H   0  0  0  0  0  0  0  0  0  0  0  0
    4.3130    3.5930    1.1470 H   0  0  0  0  0  0  0  0  0  0  0  0
    5.3800    3.7180   -0.2600 H   0  0  0  0  0  0  0  0  0  0  0  0
    3.6240    3.9280   -0.4730 H   0  0  0  0  0  0  0  0  0  0  0  0
    3.4390    0.0230    0.5000 H   0  0  0  0  0  0  0  0  0  0  0  0
    1.9070    2.5040    1.3960 H   0  0  0  0  0  0  0  0  0  0  0  0
  1  2  1  0  0  0  0
  1  9  1  0  0  0  0
  3  4  1  0  0  0  0
  3  2  1  0  0  0  0
  4  5  1  0  0  0  0
  4 14  1  0  0  0  0
  5 16  1  6  0  0  0
  5  7  1  0  0  0  0
  5  6  1  0  0  0  0
  6 18  1  0  0  0  0
  7  8  2  0  0  0  0
 10  1  1  0  0  0  0
 11  1  1  0  0  0  0
 12  3  1  0  0  0  0
 13  3  1  0  0  0  0
 15  4  1  0  0  0  0
 17  6  1  0  0  0  0
 19 20  1  0  0  0  0
 19  7  1  0  0  0  0
 20 24  1  0  0  0  0
 21 20  1  0  0  0  0
 21 30  1  0  0  0  0
 22 21  2  0  0  0  0
 23 19  1  0  0  0  0
 25 20  1  0  0  0  0
 26 27  1  0  0  0  0
 27 28  1  0  0  0  0
 27 29  1  0  0  0  0
 28 38  1  0  0  0  0
 29 41  1  6  0  0  0
 29 30  1  0  0  0  0
 29 31  1  0  0  0  0
 30 42  1  0  0  0  0
 31 33  2  0  0  0  0
 31 32  1  0  0  0  0
 34 26  1  0  0  0  0
 35 26  1  0  0  0  0
 36 26  1  0  0  0  0
 37 27  1  0  0  0  0
 39 28  1  0  0  0  0
 40 28  1  0  0  0  0
M  END
$$$$
