MGW.pdb
 OpenBabel07022418543D

 50 51  0  0  1  0  0  0  0  0999 V2000
    4.5430   -5.4790    2.3110 C   0  0  0  0  0  0  0  0  0  0  0  0
    4.4410   -4.2410    0.9900 S   0  0  0  0  0  0  0  0  0  0  0  0
    4.7100   -2.6070    1.7370 C   0  0  0  0  0  0  0  0  0  0  0  0
    4.6290   -1.5110    0.7160 C   0  0  0  0  0  0  0  0  0  0  0  0
    4.8460   -0.1600    1.3060 C   0  0  2  0  0  0  0  0  0  0  0  0
    6.1660   -0.1170    1.9090 N   0  0  0  0  0  0  0  0  0  0  0  0
    3.8700    0.2100    2.3370 C   0  0  0  0  0  0  0  0  0  0  0  0
    4.1970    0.5560    3.5000 O   0  0  0  0  0  0  0  0  0  0  0  0
    5.4680   -5.3450    2.9230 H   0  0  0  0  0  0  0  0  0  0  0  0
    4.6040   -6.5040    1.8760 H   0  0  0  0  0  0  0  0  0  0  0  0
    3.6920   -5.4390    3.0040 H   0  0  0  0  0  0  0  0  0  0  0  0
    3.9280   -2.4450    2.4790 H   0  0  0  0  0  0  0  0  0  0  0  0
    5.7120   -2.5940    2.2170 H   0  0  0  0  0  0  0  0  0  0  0  0
    3.6330   -1.5110    0.2240 H   0  0  0  0  0  0  0  0  0  0  0  0
    5.4380   -1.6860   -0.0320 H   0  0  0  0  0  0  0  0  0  0  0  0
    4.8540    0.5740    0.4640 H   0  0  0  0  0  0  0  0  0  0  0  0
    6.8700   -0.6830    1.3800 H   0  0  0  0  0  0  0  0  0  0  0  0
    6.1290   -0.5500    2.8690 H   0  0  0  0  0  0  0  0  0  0  0  0
    2.4450    0.2000    2.0720 N   0  0  0  0  0  0  0  0  0  0  0  0
    1.5110    0.5690    3.0950 C   0  0  0  0  0  0  0  0  0  0  0  0
    0.0920    0.5170    2.7300 C   0  0  0  0  0  0  0  0  0  0  0  0
   -0.7810    0.8500    3.6150 O   0  0  0  0  0  0  0  0  0  0  0  0
    2.1740   -0.0860    1.1120 H   0  0  0  0  0  0  0  0  0  0  0  0
    1.7590    1.6500    3.3440 H   0  0  0  0  0  0  0  0  0  0  0  0
    1.7140    0.0140    4.0450 H   0  0  0  0  0  0  0  0  0  0  0  0
   -0.3710    0.1250    1.4660 N   0  0  0  0  0  0  0  0  0  0  0  0
   -1.8380    0.1010    1.1750 C   0  0  1  0  0  0  0  0  0  0  0  0
   -1.9890    1.0440    0.0250 C   0  0  0  0  0  0  0  0  0  0  0  0
   -3.3520    1.1970   -0.4940 C   0  0  0  0  0  0  0  0  0  0  0  0
   -4.2250    2.1860   -0.0420 C   0  0  0  0  0  0  0  0  0  0  0  0
   -5.4110    2.0740   -0.6580 N   0  0  0  0  0  0  0  0  0  0  0  0
   -5.3180    1.0300   -1.5000 C   0  0  0  0  0  0  0  0  0  0  0  0
   -6.2270    0.4810   -2.3870 C   0  0  0  0  0  0  0  0  0  0  0  0
   -5.9060   -0.5960   -3.1820 C   0  0  0  0  0  0  0  0  0  0  0  0
   -4.6330   -1.1360   -3.0810 C   0  0  0  0  0  0  0  0  0  0  0  0
   -3.7120   -0.6070   -2.2050 C   0  0  0  0  0  0  0  0  0  0  0  0
   -4.0570    0.4800   -1.4120 C   0  0  0  0  0  0  0  0  0  0  0  0
   -2.2700   -1.2490    0.8340 C   0  0  0  0  0  0  0  0  0  0  0  0
   -1.4270   -2.1560    0.6410 O   0  0  0  0  0  0  0  0  0  0  0  0
   -3.6110   -1.5500    0.7260 O   0  0  0  0  0  0  0  0  0  0  0  0
    0.2910   -0.1510    0.7270 H   0  0  0  0  0  0  0  0  0  0  0  0
   -2.3690    0.4970    2.0880 H   0  0  0  0  0  0  0  0  0  0  0  0
   -1.2840    0.7140   -0.7890 H   0  0  0  0  0  0  0  0  0  0  0  0
   -1.5860    2.0420    0.3530 H   0  0  0  0  0  0  0  0  0  0  0  0
   -3.9970    2.9500    0.7040 H   0  0  0  0  0  0  0  0  0  0  0  0
   -6.2770    2.6620   -0.5400 H   0  0  0  0  0  0  0  0  0  0  0  0
   -7.2110    0.9230   -2.4430 H   0  0  0  0  0  0  0  0  0  0  0  0
   -6.6250   -1.0250   -3.8790 H   0  0  0  0  0  0  0  0  0  0  0  0
   -4.3380   -1.9880   -3.6930 H   0  0  0  0  0  0  0  0  0  0  0  0
   -2.7000   -1.0230   -2.1130 H   0  0  0  0  0  0  0  0  0  0  0  0
  1  9  1  0  0  0  0
  1 11  1  0  0  0  0
  2  3  1  0  0  0  0
  2  1  1  0  0  0  0
  3 13  1  0  0  0  0
  3 12  1  0  0  0  0
  4  5  1  0  0  0  0
  4  3  1  0  0  0  0
  5 16  1  6  0  0  0
  5  6  1  0  0  0  0
  5  7  1  0  0  0  0
  6 18  1  0  0  0  0
  7  8  2  0  0  0  0
 10  1  1  0  0  0  0
 14  4  1  0  0  0  0
 15  4  1  0  0  0  0
 17  6  1  0  0  0  0
 19  7  1  0  0  0  0
 19 20  1  0  0  0  0
 20 24  1  0  0  0  0
 20 25  1  0  0  0  0
 21 20  1  0  0  0  0
 21 22  2  0  0  0  0
 23 19  1  0  0  0  0
 26 21  1  0  0  0  0
 27 26  1  0  0  0  0
 27 42  1  1  0  0  0
 28 44  1  0  0  0  0
 28 27  1  0  0  0  0
 29 30  2  0  0  0  0
 29 28  1  0  0  0  0
 30 45  1  0  0  0  0
 31 46  1  0  0  0  0
 31 30  1  0  0  0  0
 32 37  1  0  0  0  0
 32 31  1  0  0  0  0
 33 32  2  0  0  0  0
 34 35  2  0  0  0  0
 34 33  1  0  0  0  0
 35 36  1  0  0  0  0
 36 50  1  0  0  0  0
 36 37  2  0  0  0  0
 37 29  1  0  0  0  0
 38 27  1  0  0  0  0
 39 38  2  0  0  0  0
 40 38  1  0  0  0  0
 41 26  1  0  0  0  0
 43 28  1  0  0  0  0
 47 33  1  0  0  0  0
 48 34  1  0  0  0  0
 49 35  1  0  0  0  0
M  END
$$$$
