MHD.pdb
 OpenBabel07022418553D

 49 49  0  0  1  0  0  0  0  0999 V2000
    2.8560   -4.0700    3.6370 C   0  0  0  0  0  0  0  0  0  0  0  0
    2.9040   -4.6000    1.9390 S   0  0  0  0  0  0  0  0  0  0  0  0
    2.3090   -3.4720    0.7260 C   0  0  0  0  0  0  0  0  0  0  0  0
    3.0510   -2.2570    0.3990 C   0  0  0  0  0  0  0  0  0  0  0  0
    3.3500   -1.2300    1.4030 C   0  0  2  0  0  0  0  0  0  0  0  0
    4.1530   -1.6530    2.5150 N   0  0  0  0  0  0  0  0  0  0  0  0
    2.1490   -0.4630    1.8830 C   0  0  0  0  0  0  0  0  0  0  0  0
    1.8970   -0.3180    3.1020 O   0  0  0  0  0  0  0  0  0  0  0  0
    3.8660   -3.9010    4.0590 H   0  0  0  0  0  0  0  0  0  0  0  0
    2.3710   -4.9250    4.2200 H   0  0  0  0  0  0  0  0  0  0  0  0
    2.2230   -3.1660    3.7430 H   0  0  0  0  0  0  0  0  0  0  0  0
    1.2050   -3.2710    0.9430 H   0  0  0  0  0  0  0  0  0  0  0  0
    2.2140   -4.0610   -0.2480 H   0  0  0  0  0  0  0  0  0  0  0  0
    2.4780   -1.7390   -0.4340 H   0  0  0  0  0  0  0  0  0  0  0  0
    4.0180   -2.5190   -0.1170 H   0  0  0  0  0  0  0  0  0  0  0  0
    3.9700   -0.4390    0.8790 H   0  0  0  0  0  0  0  0  0  0  0  0
    5.1110   -1.8550    2.2180 H   0  0  0  0  0  0  0  0  0  0  0  0
    4.0450   -1.1000    3.3660 H   0  0  0  0  0  0  0  0  0  0  0  0
    1.3020    0.0970    0.8990 N   0  0  0  0  0  0  0  0  0  0  0  0
    0.1120    0.8580    1.2370 C   0  0  1  0  0  0  0  0  0  0  0  0
    0.3540    2.2800    0.7780 C   0  0  0  0  0  0  0  0  0  0  0  0
   -0.7560    3.1990    1.0440 C   0  0  0  0  0  0  0  0  0  0  0  0
   -0.9410    3.9540    2.1860 C   0  0  0  0  0  0  0  0  0  0  0  0
   -2.0770    4.6400    1.9960 N   0  0  0  0  0  0  0  0  0  0  0  0
   -2.6000    4.3440    0.7920 C   0  0  0  0  0  0  0  0  0  0  0  0
   -1.7780    3.4530    0.2100 N   0  0  0  0  0  0  0  0  0  0  0  0
   -1.0930    0.3490    0.5780 C   0  0  0  0  0  0  0  0  0  0  0  0
   -2.1910    0.9040    0.8020 O   0  0  0  0  0  0  0  0  0  0  0  0
    1.5040   -0.0140   -0.1150 H   0  0  0  0  0  0  0  0  0  0  0  0
   -0.0340    0.9120    2.3490 H   0  0  0  0  0  0  0  0  0  0  0  0
    1.2720    2.7090    1.2780 H   0  0  0  0  0  0  0  0  0  0  0  0
    0.5760    2.3360   -0.3060 H   0  0  0  0  0  0  0  0  0  0  0  0
   -0.2850    3.9630    3.0350 H   0  0  0  0  0  0  0  0  0  0  0  0
   -2.5350    5.3240    2.6630 H   0  0  0  0  0  0  0  0  0  0  0  0
   -3.5090    4.7510    0.3820 H   0  0  0  0  0  0  0  0  0  0  0  0
   -1.0530   -0.7420   -0.2960 N   0  0  0  0  0  0  0  0  0  0  0  0
   -2.2110   -1.2890   -0.9790 C   0  0  1  0  0  0  0  0  0  0  0  0
   -2.0780   -1.2350   -2.4600 C   0  0  0  0  0  0  0  0  0  0  0  0
   -3.2590   -1.7880   -3.1570 C   0  0  0  0  0  0  0  0  0  0  0  0
   -3.4050   -2.9940   -3.4870 O   0  0  0  0  0  0  0  0  0  0  0  0
   -2.3820   -2.6860   -0.5420 C   0  0  0  0  0  0  0  0  0  0  0  0
   -3.3070   -3.4150   -0.9370 O   0  0  0  0  0  0  0  0  0  0  0  0
   -4.3000   -0.9230   -3.4830 O   0  0  0  0  0  0  0  0  0  0  0  0
   -1.4780   -3.2310    0.3520 O   0  0  0  0  0  0  0  0  0  0  0  0
   -0.1420   -1.2030   -0.4810 H   0  0  0  0  0  0  0  0  0  0  0  0
   -3.1150   -0.6910   -0.7010 H   0  0  0  0  0  0  0  0  0  0  0  0
   -1.9420   -0.1840   -2.8180 H   0  0  0  0  0  0  0  0  0  0  0  0
   -1.1970   -1.7840   -2.8450 H   0  0  0  0  0  0  0  0  0  0  0  0
   -5.2450   -1.2680   -3.6020 H   0  0  0  0  0  0  0  0  0  0  0  0
  1 11  1  0  0  0  0
  1  9  1  0  0  0  0
  1 10  1  0  0  0  0
  2  1  1  0  0  0  0
  3 12  1  0  0  0  0
  3  2  1  0  0  0  0
  4  3  1  0  0  0  0
  4  5  1  0  0  0  0
  5 16  1  6  0  0  0
  5  7  1  0  0  0  0
  5  6  1  0  0  0  0
  6 18  1  0  0  0  0
  7  8  2  0  0  0  0
 13  3  1  0  0  0  0
 14  4  1  0  0  0  0
 15  4  1  0  0  0  0
 17  6  1  0  0  0  0
 19 20  1  0  0  0  0
 19  7  1  0  0  0  0
 20 30  1  1  0  0  0
 21 22  1  0  0  0  0
 21 20  1  0  0  0  0
 21 31  1  0  0  0  0
 22 23  2  0  0  0  0
 23 33  1  0  0  0  0
 24 23  1  0  0  0  0
 24 34  1  0  0  0  0
 25 24  1  0  0  0  0
 26 25  2  0  0  0  0
 26 22  1  0  0  0  0
 27 28  2  0  0  0  0
 27 20  1  0  0  0  0
 29 19  1  0  0  0  0
 32 21  1  0  0  0  0
 35 25  1  0  0  0  0
 36 27  1  0  0  0  0
 37 46  1  1  0  0  0
 37 41  1  0  0  0  0
 37 36  1  0  0  0  0
 38 37  1  0  0  0  0
 39 38  1  0  0  0  0
 40 39  2  0  0  0  0
 41 44  1  0  0  0  0
 42 41  2  0  0  0  0
 43 39  1  0  0  0  0
 45 36  1  0  0  0  0
 47 38  1  0  0  0  0
 48 38  1  0  0  0  0
 49 43  1  0  0  0  0
M  END
$$$$
