MHG.pdb
 OpenBabel07022418553D

 43 43  0  0  1  0  0  0  0  0999 V2000
   -3.3670   -4.1010   -0.8050 C   0  0  0  0  0  0  0  0  0  0  0  0
   -2.4070   -3.6100    0.6440 S   0  0  0  0  0  0  0  0  0  0  0  0
   -1.1720   -2.3640    0.0870 C   0  0  0  0  0  0  0  0  0  0  0  0
   -0.2400   -3.0810   -0.8180 C   0  0  0  0  0  0  0  0  0  0  0  0
    0.8650   -2.2430   -1.4170 C   0  0  2  0  0  0  0  0  0  0  0  0
    1.6240   -3.2040   -2.2530 N   0  0  0  0  0  0  0  0  0  0  0  0
    1.7370   -1.6730   -0.3910 C   0  0  0  0  0  0  0  0  0  0  0  0
    2.8550   -2.2480   -0.1640 O   0  0  0  0  0  0  0  0  0  0  0  0
   -4.3880   -4.3850   -0.4370 H   0  0  0  0  0  0  0  0  0  0  0  0
   -2.9090   -4.9920   -1.3130 H   0  0  0  0  0  0  0  0  0  0  0  0
   -3.5060   -3.2440   -1.4790 H   0  0  0  0  0  0  0  0  0  0  0  0
   -0.7000   -2.0100    1.0260 H   0  0  0  0  0  0  0  0  0  0  0  0
   -1.6380   -1.5110   -0.4060 H   0  0  0  0  0  0  0  0  0  0  0  0
   -0.8530   -3.4590   -1.6860 H   0  0  0  0  0  0  0  0  0  0  0  0
    0.1810   -4.0080   -0.3520 H   0  0  0  0  0  0  0  0  0  0  0  0
    0.4020   -1.5150   -2.0870 H   0  0  0  0  0  0  0  0  0  0  0  0
    0.8640   -3.6980   -2.8050 H   0  0  0  0  0  0  0  0  0  0  0  0
    2.1930   -2.6780   -2.9510 H   0  0  0  0  0  0  0  0  0  0  0  0
    1.4880   -0.5230    0.4030 N   0  0  0  0  0  0  0  0  0  0  0  0
    2.4520   -0.0700    1.3810 C   0  0  1  0  0  0  0  0  0  0  0  0
    3.2470    1.1190    0.8360 C   0  0  0  0  0  0  0  0  0  0  0  0
    2.3880    2.2640    0.5020 C   0  0  0  0  0  0  0  0  0  0  0  0
    2.0140    3.2980    1.3030 C   0  0  0  0  0  0  0  0  0  0  0  0
    1.2270    4.1290    0.6080 N   0  0  0  0  0  0  0  0  0  0  0  0
    1.0950    3.6410   -0.6240 C   0  0  0  0  0  0  0  0  0  0  0  0
    1.8050    2.4950   -0.7000 N   0  0  0  0  0  0  0  0  0  0  0  0
    1.7780    0.2660    2.6340 C   0  0  0  0  0  0  0  0  0  0  0  0
    2.4810    0.5930    3.6380 O   0  0  0  0  0  0  0  0  0  0  0  0
    0.6000   -0.0130    0.2650 H   0  0  0  0  0  0  0  0  0  0  0  0
    3.2470   -0.8480    1.5560 H   0  0  0  0  0  0  0  0  0  0  0  0
    3.8430    0.7670   -0.0350 H   0  0  0  0  0  0  0  0  0  0  0  0
    3.9790    1.4550    1.5980 H   0  0  0  0  0  0  0  0  0  0  0  0
    2.2740    3.4790    2.3460 H   0  0  0  0  0  0  0  0  0  0  0  0
    0.7850    5.0180    0.9660 H   0  0  0  0  0  0  0  0  0  0  0  0
    0.5230    4.0770   -1.4300 H   0  0  0  0  0  0  0  0  0  0  0  0
    0.3750    0.2600    2.8280 N   0  0  0  0  0  0  0  0  0  0  0  0
   -0.2040    0.6140    4.1340 C   0  0  0  0  0  0  0  0  0  0  0  0
   -1.6780    0.5380    4.0930 C   0  0  0  0  0  0  0  0  0  0  0  0
   -2.3390    0.8060    5.1240 O   0  0  0  0  0  0  0  0  0  0  0  0
   -2.2870    0.1660    2.8970 O   0  0  0  0  0  0  0  0  0  0  0  0
   -0.2890    0.0240    2.0810 H   0  0  0  0  0  0  0  0  0  0  0  0
    0.1410   -0.1480    4.8630 H   0  0  0  0  0  0  0  0  0  0  0  0
    0.1700    1.5980    4.4610 H   0  0  0  0  0  0  0  0  0  0  0  0
  1  9  1  0  0  0  0
  1  2  1  0  0  0  0
  3  2  1  0  0  0  0
  3 12  1  0  0  0  0
  4 15  1  0  0  0  0
  4  3  1  0  0  0  0
  5 16  1  6  0  0  0
  5  4  1  0  0  0  0
  5  7  1  0  0  0  0
  6  5  1  0  0  0  0
  7  8  2  0  0  0  0
  7 19  1  0  0  0  0
 10  1  1  0  0  0  0
 11  1  1  0  0  0  0
 13  3  1  0  0  0  0
 14  4  1  0  0  0  0
 17  6  1  0  0  0  0
 18  6  1  0  0  0  0
 19 20  1  0  0  0  0
 20 30  1  1  0  0  0
 20 27  1  0  0  0  0
 21 20  1  0  0  0  0
 21 32  1  0  0  0  0
 22 21  1  0  0  0  0
 22 23  2  0  0  0  0
 23 33  1  0  0  0  0
 24 34  1  0  0  0  0
 24 23  1  0  0  0  0
 25 24  1  0  0  0  0
 26 25  2  0  0  0  0
 26 22  1  0  0  0  0
 27 36  1  0  0  0  0
 27 28  2  0  0  0  0
 29 19  1  0  0  0  0
 31 21  1  0  0  0  0
 35 25  1  0  0  0  0
 36 37  1  0  0  0  0
 37 43  1  0  0  0  0
 37 42  1  0  0  0  0
 38 37  1  0  0  0  0
 38 39  1  0  0  0  0
 40 38  2  0  0  0  0
 41 36  1  0  0  0  0
M  END
$$$$
