MHH.pdb
 OpenBabel07022418553D

 53 54  0  0  1  0  0  0  0  0999 V2000
    0.3080   -3.2560    4.8020 C   0  0  0  0  0  0  0  0  0  0  0  0
    1.6610   -4.1370    4.0370 S   0  0  0  0  0  0  0  0  0  0  0  0
    2.4380   -3.3970    2.6420 C   0  0  0  0  0  0  0  0  0  0  0  0
    3.3070   -2.2260    2.8060 C   0  0  0  0  0  0  0  0  0  0  0  0
    2.7970   -0.9660    3.3660 C   0  0  2  0  0  0  0  0  0  0  0  0
    2.3100   -1.1410    4.7070 N   0  0  0  0  0  0  0  0  0  0  0  0
    1.6980   -0.3560    2.5430 C   0  0  0  0  0  0  0  0  0  0  0  0
    0.6070   -0.0470    3.0710 O   0  0  0  0  0  0  0  0  0  0  0  0
    0.6120   -2.9360    5.8330 H   0  0  0  0  0  0  0  0  0  0  0  0
   -0.0680   -2.3920    4.2590 H   0  0  0  0  0  0  0  0  0  0  0  0
   -0.6010   -3.9260    4.9340 H   0  0  0  0  0  0  0  0  0  0  0  0
    3.0880   -4.2020    2.1520 H   0  0  0  0  0  0  0  0  0  0  0  0
    1.6480   -3.2500    1.8440 H   0  0  0  0  0  0  0  0  0  0  0  0
    4.1950   -2.5480    3.4210 H   0  0  0  0  0  0  0  0  0  0  0  0
    3.7110   -1.9860    1.7630 H   0  0  0  0  0  0  0  0  0  0  0  0
    3.6510   -0.2340    3.4420 H   0  0  0  0  0  0  0  0  0  0  0  0
    3.0820   -1.0220    5.4220 H   0  0  0  0  0  0  0  0  0  0  0  0
    1.5890   -0.4250    4.9540 H   0  0  0  0  0  0  0  0  0  0  0  0
    1.8550   -0.1130    1.1580 N   0  0  0  0  0  0  0  0  0  0  0  0
    0.7360    0.4920    0.3910 C   0  0  1  0  0  0  0  0  0  0  0  0
    1.1340    1.8610   -0.0520 C   0  0  0  0  0  0  0  0  0  0  0  0
    0.1650    2.6290   -0.8350 C   0  0  0  0  0  0  0  0  0  0  0  0
    0.0530    2.7700   -2.2010 C   0  0  0  0  0  0  0  0  0  0  0  0
   -0.9660    3.6270   -2.4840 N   0  0  0  0  0  0  0  0  0  0  0  0
   -1.4850    4.0180   -1.3130 C   0  0  0  0  0  0  0  0  0  0  0  0
   -0.8130    3.4260   -0.3270 N   0  0  0  0  0  0  0  0  0  0  0  0
    0.2400   -0.4530   -0.5970 C   0  0  0  0  0  0  0  0  0  0  0  0
    0.8590   -1.5760   -0.8000 O   0  0  0  0  0  0  0  0  0  0  0  0
    2.7260   -0.3390    0.6390 H   0  0  0  0  0  0  0  0  0  0  0  0
   -0.1160    0.6570    1.1260 H   0  0  0  0  0  0  0  0  0  0  0  0
    1.3720    2.4950    0.8500 H   0  0  0  0  0  0  0  0  0  0  0  0
    2.1370    1.8330   -0.5990 H   0  0  0  0  0  0  0  0  0  0  0  0
    0.6930    2.2790   -2.8910 H   0  0  0  0  0  0  0  0  0  0  0  0
   -1.2810    3.9200   -3.4110 H   0  0  0  0  0  0  0  0  0  0  0  0
   -2.3090    4.7000   -1.2170 H   0  0  0  0  0  0  0  0  0  0  0  0
   -0.9110   -0.3090   -1.4180 N   0  0  0  0  0  0  0  0  0  0  0  0
   -1.3580   -1.3160   -2.3670 C   0  0  1  0  0  0  0  0  0  0  0  0
   -2.8120   -1.5670   -2.1790 C   0  0  0  0  0  0  0  0  0  0  0  0
   -3.2220   -2.0820   -0.8720 C   0  0  0  0  0  0  0  0  0  0  0  0
   -2.5630   -2.4490    0.2610 C   0  0  0  0  0  0  0  0  0  0  0  0
   -3.4610   -2.8800    1.1680 N   0  0  0  0  0  0  0  0  0  0  0  0
   -4.6610   -2.7830    0.6080 C   0  0  0  0  0  0  0  0  0  0  0  0
   -4.5650   -2.3030   -0.6330 N   0  0  0  0  0  0  0  0  0  0  0  0
   -1.0210   -1.0020   -3.7700 C   0  0  0  0  0  0  0  0  0  0  0  0
   -1.3570   -1.8010   -4.6670 O   0  0  0  0  0  0  0  0  0  0  0  0
   -0.3530    0.1440   -4.0830 O   0  0  0  0  0  0  0  0  0  0  0  0
   -1.4740    0.5480   -1.3380 H   0  0  0  0  0  0  0  0  0  0  0  0
   -0.8070   -2.2680   -2.0640 H   0  0  0  0  0  0  0  0  0  0  0  0
   -3.3250   -0.5820   -2.3100 H   0  0  0  0  0  0  0  0  0  0  0  0
   -3.1150   -2.2680   -3.0130 H   0  0  0  0  0  0  0  0  0  0  0  0
   -1.4850   -2.3970    0.3730 H   0  0  0  0  0  0  0  0  0  0  0  0
   -3.1940   -3.2180    2.1290 H   0  0  0  0  0  0  0  0  0  0  0  0
   -5.5730   -3.0730    1.1380 H   0  0  0  0  0  0  0  0  0  0  0  0
  1 11  1  0  0  0  0
  1  9  1  0  0  0  0
  2  1  1  0  0  0  0
  3  4  1  0  0  0  0
  3  2  1  0  0  0  0
  4  5  1  0  0  0  0
  4 14  1  0  0  0  0
  5 16  1  1  0  0  0
  5  6  1  0  0  0  0
  6 18  1  0  0  0  0
  6 17  1  0  0  0  0
  7  8  2  0  0  0  0
  7  5  1  0  0  0  0
 10  1  1  0  0  0  0
 12  3  1  0  0  0  0
 13  3  1  0  0  0  0
 15  4  1  0  0  0  0
 19  7  1  0  0  0  0
 20 30  1  1  0  0  0
 20 19  1  0  0  0  0
 21 20  1  0  0  0  0
 21 31  1  0  0  0  0
 22 26  1  0  0  0  0
 22 21  1  0  0  0  0
 23 22  2  0  0  0  0
 24 23  1  0  0  0  0
 24 25  1  0  0  0  0
 25 35  1  0  0  0  0
 25 26  2  0  0  0  0
 27 20  1  0  0  0  0
 28 27  2  0  0  0  0
 29 19  1  0  0  0  0
 32 21  1  0  0  0  0
 33 23  1  0  0  0  0
 34 24  1  0  0  0  0
 36 47  1  0  0  0  0
 36 27  1  0  0  0  0
 37 38  1  0  0  0  0
 37 48  1  1  0  0  0
 37 36  1  0  0  0  0
 38 39  1  0  0  0  0
 39 43  1  0  0  0  0
 39 40  2  0  0  0  0
 40 51  1  0  0  0  0
 40 41  1  0  0  0  0
 41 52  1  0  0  0  0
 42 53  1  0  0  0  0
 42 41  1  0  0  0  0
 43 42  2  0  0  0  0
 44 37  1  0  0  0  0
 45 44  2  0  0  0  0
 46 44  1  0  0  0  0
 49 38  1  0  0  0  0
 50 38  1  0  0  0  0
M  END
$$$$
