MHI.pdb
 OpenBabel07022418553D

 55 55  0  0  1  0  0  0  0  0999 V2000
   -0.6990   -4.0660    4.6390 C   0  0  0  0  0  0  0  0  0  0  0  0
    1.0000   -3.6710    4.1330 S   0  0  0  0  0  0  0  0  0  0  0  0
    0.9970   -3.4340    2.3330 C   0  0  0  0  0  0  0  0  0  0  0  0
    2.3790   -3.0990    1.8190 C   0  0  0  0  0  0  0  0  0  0  0  0
    2.9250   -1.8370    2.4270 C   0  0  2  0  0  0  0  0  0  0  0  0
    3.0410   -1.8970    3.8500 N   0  0  0  0  0  0  0  0  0  0  0  0
    2.2050   -0.6300    1.9860 C   0  0  0  0  0  0  0  0  0  0  0  0
    1.7940    0.1720    2.8700 O   0  0  0  0  0  0  0  0  0  0  0  0
   -0.8810   -3.6890    5.6800 H   0  0  0  0  0  0  0  0  0  0  0  0
   -0.9360   -5.1390    4.5310 H   0  0  0  0  0  0  0  0  0  0  0  0
   -1.4450   -3.5150    4.0080 H   0  0  0  0  0  0  0  0  0  0  0  0
    0.6680   -4.3970    1.8910 H   0  0  0  0  0  0  0  0  0  0  0  0
    0.2580   -2.6650    2.1060 H   0  0  0  0  0  0  0  0  0  0  0  0
    3.0950   -3.9070    1.9900 H   0  0  0  0  0  0  0  0  0  0  0  0
    2.3020   -2.9370    0.7240 H   0  0  0  0  0  0  0  0  0  0  0  0
    3.9760   -1.7360    2.0240 H   0  0  0  0  0  0  0  0  0  0  0  0
    4.0210   -1.9570    4.1970 H   0  0  0  0  0  0  0  0  0  0  0  0
    2.4440   -1.2300    4.3620 H   0  0  0  0  0  0  0  0  0  0  0  0
    1.9680   -0.3560    0.6110 N   0  0  0  0  0  0  0  0  0  0  0  0
    1.2660    0.8180    0.1490 C   0  0  1  0  0  0  0  0  0  0  0  0
    2.0850    1.6280   -0.8100 C   0  0  0  0  0  0  0  0  0  0  0  0
    1.4050    2.8400   -1.3060 C   0  0  0  0  0  0  0  0  0  0  0  0
    1.4000    4.1200   -0.7740 C   0  0  0  0  0  0  0  0  0  0  0  0
    0.6470    4.9220   -1.5510 N   0  0  0  0  0  0  0  0  0  0  0  0
    0.1790    4.1740   -2.5590 C   0  0  0  0  0  0  0  0  0  0  0  0
    0.6380    2.9290   -2.4050 N   0  0  0  0  0  0  0  0  0  0  0  0
   -0.0300    0.3740   -0.4910 C   0  0  0  0  0  0  0  0  0  0  0  0
   -0.7810    1.2650   -0.9290 O   0  0  0  0  0  0  0  0  0  0  0  0
    2.3300   -1.0500   -0.0750 H   0  0  0  0  0  0  0  0  0  0  0  0
    0.9500    1.4760    0.9820 H   0  0  0  0  0  0  0  0  0  0  0  0
    2.3120    1.0030   -1.7200 H   0  0  0  0  0  0  0  0  0  0  0  0
    3.0760    1.8960   -0.4070 H   0  0  0  0  0  0  0  0  0  0  0  0
    1.9090    4.4460    0.1170 H   0  0  0  0  0  0  0  0  0  0  0  0
    0.4760    5.9490   -1.3710 H   0  0  0  0  0  0  0  0  0  0  0  0
   -0.4560    4.5320   -3.3480 H   0  0  0  0  0  0  0  0  0  0  0  0
   -3.4340   -1.5400    1.1590 C   0  0  0  0  0  0  0  0  0  0  0  0
   -3.0750   -0.3210    0.3160 C   0  0  0  0  0  0  0  0  0  0  0  0
   -2.7100   -0.6960   -1.0770 C   0  0  2  0  0  0  0  0  0  0  0  0
   -3.9270   -1.4130   -1.6790 C   0  0  0  0  0  0  0  0  0  0  0  0
   -1.5000   -1.5970   -1.1120 C   0  0  2  0  0  0  0  0  0  0  0  0
   -0.3460   -0.9720   -0.5750 N   0  0  0  0  0  0  0  0  0  0  0  0
   -1.3010   -2.2410   -2.4120 C   0  0  0  0  0  0  0  0  0  0  0  0
   -2.2400   -2.8290   -2.9910 O   0  0  0  0  0  0  0  0  0  0  0  0
   -0.0620   -2.2100   -3.0260 O   0  0  0  0  0  0  0  0  0  0  0  0
   -4.0080   -2.2810    0.5990 H   0  0  0  0  0  0  0  0  0  0  0  0
   -2.4860   -1.9850    1.5530 H   0  0  0  0  0  0  0  0  0  0  0  0
   -4.0470   -1.2080    2.0230 H   0  0  0  0  0  0  0  0  0  0  0  0
   -4.0030    0.3040    0.2730 H   0  0  0  0  0  0  0  0  0  0  0  0
   -2.2960    0.2120    0.8690 H   0  0  0  0  0  0  0  0  0  0  0  0
   -2.5030    0.2010   -1.6740 H   0  0  0  0  0  0  0  0  0  0  0  0
   -3.9020   -1.2060   -2.7630 H   0  0  0  0  0  0  0  0  0  0  0  0
   -3.9490   -2.4770   -1.4400 H   0  0  0  0  0  0  0  0  0  0  0  0
   -4.8550   -0.9680   -1.2390 H   0  0  0  0  0  0  0  0  0  0  0  0
   -1.8300   -2.4340   -0.3790 H   0  0  0  0  0  0  0  0  0  0  0  0
    0.3900   -1.6490   -0.1750 H   0  0  0  0  0  0  0  0  0  0  0  0
  1  9  1  0  0  0  0
  2  1  1  0  0  0  0
  3  2  1  0  0  0  0
  4 14  1  0  0  0  0
  4  3  1  0  0  0  0
  4  5  1  0  0  0  0
  5 16  1  6  0  0  0
  5  6  1  0  0  0  0
  6 17  1  0  0  0  0
  6 18  1  0  0  0  0
  7  5  1  0  0  0  0
  7  8  2  0  0  0  0
 10  1  1  0  0  0  0
 11  1  1  0  0  0  0
 12  3  1  0  0  0  0
 13  3  1  0  0  0  0
 15  4  1  0  0  0  0
 19  7  1  0  0  0  0
 20 19  1  0  0  0  0
 20 30  1  1  0  0  0
 21 32  1  0  0  0  0
 21 20  1  0  0  0  0
 22 21  1  0  0  0  0
 22 23  2  0  0  0  0
 23 33  1  0  0  0  0
 24 34  1  0  0  0  0
 24 23  1  0  0  0  0
 25 26  2  0  0  0  0
 25 24  1  0  0  0  0
 26 22  1  0  0  0  0
 27 20  1  0  0  0  0
 28 27  2  0  0  0  0
 29 19  1  0  0  0  0
 31 21  1  0  0  0  0
 35 25  1  0  0  0  0
 36 46  1  0  0  0  0
 36 47  1  0  0  0  0
 37 49  1  0  0  0  0
 37 36  1  0  0  0  0
 38 50  1  6  0  0  0
 38 37  1  0  0  0  0
 39 52  1  0  0  0  0
 39 53  1  0  0  0  0
 39 38  1  0  0  0  0
 40 38  1  0  0  0  0
 40 41  1  0  0  0  0
 40 54  1  1  0  0  0
 41 27  1  0  0  0  0
 41 55  1  0  0  0  0
 42 40  1  0  0  0  0
 43 42  1  0  0  0  0
 44 42  2  0  0  0  0
 45 36  1  0  0  0  0
 48 37  1  0  0  0  0
 51 39  1  0  0  0  0
M  END
$$$$
