MHL.pdb
 OpenBabel07022418553D

 55 55  0  0  1  0  0  0  0  0999 V2000
    1.2730   -1.7890    3.2010 C   0  0  0  0  0  0  0  0  0  0  0  0
    3.0420   -1.9640    3.4080 S   0  0  0  0  0  0  0  0  0  0  0  0
    3.9310   -1.6330    1.9210 C   0  0  0  0  0  0  0  0  0  0  0  0
    4.0660   -0.2520    1.4380 C   0  0  0  0  0  0  0  0  0  0  0  0
    2.9010    0.5700    1.1080 C   0  0  2  0  0  0  0  0  0  0  0  0
    1.9550    0.8760    2.1150 N   0  0  0  0  0  0  0  0  0  0  0  0
    2.2150    0.0190   -0.1210 C   0  0  0  0  0  0  0  0  0  0  0  0
    2.8970   -0.5170   -1.0180 O   0  0  0  0  0  0  0  0  0  0  0  0
    0.8810   -0.9580    3.8020 H   0  0  0  0  0  0  0  0  0  0  0  0
    0.9970   -1.6650    2.1400 H   0  0  0  0  0  0  0  0  0  0  0  0
    0.7740   -2.7520    3.5830 H   0  0  0  0  0  0  0  0  0  0  0  0
    5.0030   -2.0080    2.0800 H   0  0  0  0  0  0  0  0  0  0  0  0
    3.6070   -2.3290    1.0670 H   0  0  0  0  0  0  0  0  0  0  0  0
    4.6780   -0.3240    0.4700 H   0  0  0  0  0  0  0  0  0  0  0  0
    4.8060    0.2880    2.1070 H   0  0  0  0  0  0  0  0  0  0  0  0
    3.3130    1.5720    0.7460 H   0  0  0  0  0  0  0  0  0  0  0  0
    2.3750    0.8860    3.0720 H   0  0  0  0  0  0  0  0  0  0  0  0
    1.3810    1.7280    1.9250 H   0  0  0  0  0  0  0  0  0  0  0  0
    0.8160    0.1030   -0.2740 N   0  0  0  0  0  0  0  0  0  0  0  0
   -0.0250   -0.3040   -1.3230 C   0  0  1  0  0  0  0  0  0  0  0  0
    0.5110   -1.1380   -2.4420 C   0  0  0  0  0  0  0  0  0  0  0  0
    1.4830   -0.4630   -3.3270 C   0  0  0  0  0  0  0  0  0  0  0  0
    2.1900   -1.0030   -4.3830 C   0  0  0  0  0  0  0  0  0  0  0  0
    2.9550   -0.0400   -4.9100 N   0  0  0  0  0  0  0  0  0  0  0  0
    2.7580    1.1090   -4.2200 C   0  0  0  0  0  0  0  0  0  0  0  0
    1.8600    0.8270   -3.2630 N   0  0  0  0  0  0  0  0  0  0  0  0
   -1.4530   -0.4830   -1.0650 C   0  0  0  0  0  0  0  0  0  0  0  0
   -2.2340   -0.8560   -2.0290 O   0  0  0  0  0  0  0  0  0  0  0  0
    0.3490    0.5750    0.5970 H   0  0  0  0  0  0  0  0  0  0  0  0
   -0.0420    0.7480   -1.9510 H   0  0  0  0  0  0  0  0  0  0  0  0
   -0.3250   -1.4830   -3.0910 H   0  0  0  0  0  0  0  0  0  0  0  0
    1.0160   -2.0630   -2.0960 H   0  0  0  0  0  0  0  0  0  0  0  0
    2.1010   -2.0290   -4.6830 H   0  0  0  0  0  0  0  0  0  0  0  0
    3.6030   -0.1380   -5.7190 H   0  0  0  0  0  0  0  0  0  0  0  0
    3.2480    2.0500   -4.4290 H   0  0  0  0  0  0  0  0  0  0  0  0
   -4.2240   -2.8490    3.2890 C   0  0  0  0  0  0  0  0  0  0  0  0
   -3.5690   -1.6150    2.6280 C   0  0  0  0  0  0  0  0  0  0  0  0
   -2.0630   -1.8840    2.7230 C   0  0  0  0  0  0  0  0  0  0  0  0
   -3.9520   -1.5660    1.2000 C   0  0  0  0  0  0  0  0  0  0  0  0
   -3.4810   -0.4560    0.3590 C   0  0  2  0  0  0  0  0  0  0  0  0
   -2.0630   -0.2700    0.2000 N   0  0  0  0  0  0  0  0  0  0  0  0
   -4.0830    0.8530    0.7220 C   0  0  0  0  0  0  0  0  0  0  0  0
   -3.3470    1.8490    0.8340 O   0  0  0  0  0  0  0  0  0  0  0  0
   -5.4390    0.9920    0.9380 O   0  0  0  0  0  0  0  0  0  0  0  0
   -4.8070   -3.4010    2.5320 H   0  0  0  0  0  0  0  0  0  0  0  0
   -3.4770   -3.4850    3.7970 H   0  0  0  0  0  0  0  0  0  0  0  0
   -4.9470   -2.5260    4.0770 H   0  0  0  0  0  0  0  0  0  0  0  0
   -3.8440   -0.7590    3.2300 H   0  0  0  0  0  0  0  0  0  0  0  0
   -1.6280   -2.1780    1.7520 H   0  0  0  0  0  0  0  0  0  0  0  0
   -1.5080   -1.0250    3.1170 H   0  0  0  0  0  0  0  0  0  0  0  0
   -1.8590   -2.7810    3.3890 H   0  0  0  0  0  0  0  0  0  0  0  0
   -3.6630   -2.5390    0.6920 H   0  0  0  0  0  0  0  0  0  0  0  0
   -5.0850   -1.6140    1.1540 H   0  0  0  0  0  0  0  0  0  0  0  0
   -3.9320   -0.6710   -0.6780 H   0  0  0  0  0  0  0  0  0  0  0  0
   -1.4900    0.0360    1.0140 H   0  0  0  0  0  0  0  0  0  0  0  0
  1  2  1  0  0  0  0
  1 11  1  0  0  0  0
  1  9  1  0  0  0  0
  3 12  1  0  0  0  0
  3  2  1  0  0  0  0
  4  3  1  0  0  0  0
  4 15  1  0  0  0  0
  5 16  1  6  0  0  0
  5  4  1  0  0  0  0
  5  6  1  0  0  0  0
  6 17  1  0  0  0  0
  7  5  1  0  0  0  0
  8  7  2  0  0  0  0
 10  1  1  0  0  0  0
 13  3  1  0  0  0  0
 14  4  1  0  0  0  0
 18  6  1  0  0  0  0
 19  7  1  0  0  0  0
 19 29  1  0  0  0  0
 20 30  1  6  0  0  0
 20 27  1  0  0  0  0
 20 19  1  0  0  0  0
 21 32  1  0  0  0  0
 21 20  1  0  0  0  0
 22 26  1  0  0  0  0
 22 21  1  0  0  0  0
 23 22  2  0  0  0  0
 24 23  1  0  0  0  0
 24 25  1  0  0  0  0
 25 26  2  0  0  0  0
 27 41  1  0  0  0  0
 28 27  2  0  0  0  0
 31 21  1  0  0  0  0
 33 23  1  0  0  0  0
 34 24  1  0  0  0  0
 35 25  1  0  0  0  0
 36 46  1  0  0  0  0
 36 47  1  0  0  0  0
 37 38  1  0  0  0  0
 37 48  1  0  0  0  0
 37 36  1  0  0  0  0
 38 50  1  0  0  0  0
 38 51  1  0  0  0  0
 39 37  1  0  0  0  0
 40 54  1  6  0  0  0
 40 42  1  0  0  0  0
 40 39  1  0  0  0  0
 41 40  1  0  0  0  0
 41 55  1  0  0  0  0
 42 43  2  0  0  0  0
 42 44  1  0  0  0  0
 45 36  1  0  0  0  0
 49 38  1  0  0  0  0
 52 39  1  0  0  0  0
 53 39  1  0  0  0  0
M  END
$$$$
