MHQ.pdb
 OpenBabel07022418553D

 53 53  0  0  1  0  0  0  0  0999 V2000
   -0.9150    1.9950    6.5930 C   0  0  0  0  0  0  0  0  0  0  0  0
   -0.7950    0.2040    6.3640 S   0  0  0  0  0  0  0  0  0  0  0  0
    0.0630   -0.1110    4.7900 C   0  0  0  0  0  0  0  0  0  0  0  0
    0.1910   -1.5830    4.5340 C   0  0  0  0  0  0  0  0  0  0  0  0
    0.8860   -1.9410    3.2700 C   0  0  2  0  0  0  0  0  0  0  0  0
    2.2370   -1.4280    3.2470 N   0  0  0  0  0  0  0  0  0  0  0  0
    0.1390   -1.5640    2.0330 C   0  0  0  0  0  0  0  0  0  0  0  0
   -1.0750   -1.7980    1.8790 O   0  0  0  0  0  0  0  0  0  0  0  0
    0.0140    2.3360    7.0900 H   0  0  0  0  0  0  0  0  0  0  0  0
   -1.8270    2.2810    7.1600 H   0  0  0  0  0  0  0  0  0  0  0  0
   -0.9760    2.4900    5.5870 H   0  0  0  0  0  0  0  0  0  0  0  0
   -0.5560    0.3770    3.9920 H   0  0  0  0  0  0  0  0  0  0  0  0
    1.0270    0.4240    4.8320 H   0  0  0  0  0  0  0  0  0  0  0  0
   -0.8540   -2.0000    4.4680 H   0  0  0  0  0  0  0  0  0  0  0  0
    0.7470   -2.0560    5.3670 H   0  0  0  0  0  0  0  0  0  0  0  0
    0.9590   -3.0570    3.2370 H   0  0  0  0  0  0  0  0  0  0  0  0
    2.2930   -0.4100    3.4440 H   0  0  0  0  0  0  0  0  0  0  0  0
    2.7710   -1.9310    4.0060 H   0  0  0  0  0  0  0  0  0  0  0  0
    0.8670   -0.9130    0.9970 N   0  0  0  0  0  0  0  0  0  0  0  0
    0.2530   -0.5090   -0.2370 C   0  0  1  0  0  0  0  0  0  0  0  0
    0.4650    0.9440   -0.4910 C   0  0  0  0  0  0  0  0  0  0  0  0
   -0.1310    1.7300    0.6100 C   0  0  0  0  0  0  0  0  0  0  0  0
   -1.4230    2.2170    0.6690 C   0  0  0  0  0  0  0  0  0  0  0  0
   -1.6040    2.9000    1.8360 N   0  0  0  0  0  0  0  0  0  0  0  0
   -0.4360    2.8370    2.4920 C   0  0  0  0  0  0  0  0  0  0  0  0
    0.4490    2.1370    1.7630 N   0  0  0  0  0  0  0  0  0  0  0  0
    0.7000   -1.3570   -1.3790 C   0  0  0  0  0  0  0  0  0  0  0  0
    1.5210   -2.2670   -1.1420 O   0  0  0  0  0  0  0  0  0  0  0  0
    1.8840   -0.7300    1.1550 H   0  0  0  0  0  0  0  0  0  0  0  0
   -0.8530   -0.7100   -0.1410 H   0  0  0  0  0  0  0  0  0  0  0  0
    1.5650    1.1740   -0.5830 H   0  0  0  0  0  0  0  0  0  0  0  0
   -0.0470    1.2580   -1.4380 H   0  0  0  0  0  0  0  0  0  0  0  0
   -2.2030    2.0930   -0.0820 H   0  0  0  0  0  0  0  0  0  0  0  0
   -2.4970    3.3770    2.1400 H   0  0  0  0  0  0  0  0  0  0  0  0
   -0.2170    3.2700    3.4520 H   0  0  0  0  0  0  0  0  0  0  0  0
   -1.9670   -4.2260   -1.2070 N   0  0  0  0  0  0  0  0  0  0  0  0
   -1.8050   -3.2850   -2.3030 C   0  0  0  0  0  0  0  0  0  0  0  0
   -2.2840   -2.1520   -2.1230 O   0  0  0  0  0  0  0  0  0  0  0  0
   -1.1120   -3.7300   -3.5110 C   0  0  0  0  0  0  0  0  0  0  0  0
   -0.5280   -2.6910   -4.3970 C   0  0  0  0  0  0  0  0  0  0  0  0
    0.5630   -1.8730   -3.8320 C   0  0  2  0  0  0  0  0  0  0  0  0
    0.1970   -1.1230   -2.6900 N   0  0  0  0  0  0  0  0  0  0  0  0
    1.2890   -1.0770   -4.8600 C   0  0  0  0  0  0  0  0  0  0  0  0
    1.6370   -1.7000   -5.9110 O   0  0  0  0  0  0  0  0  0  0  0  0
    1.6070    0.2480   -4.7670 O   0  0  0  0  0  0  0  0  0  0  0  0
   -1.8310   -3.9370   -0.2300 H   0  0  0  0  0  0  0  0  0  0  0  0
   -2.2230   -5.2110   -1.4160 H   0  0  0  0  0  0  0  0  0  0  0  0
   -1.8660   -4.3410   -4.0940 H   0  0  0  0  0  0  0  0  0  0  0  0
   -0.3030   -4.4640   -3.2130 H   0  0  0  0  0  0  0  0  0  0  0  0
   -1.3500   -2.0530   -4.8240 H   0  0  0  0  0  0  0  0  0  0  0  0
   -0.1020   -3.2550   -5.2880 H   0  0  0  0  0  0  0  0  0  0  0  0
    1.3530   -2.6230   -3.4800 H   0  0  0  0  0  0  0  0  0  0  0  0
   -0.4840   -0.3200   -2.8110 H   0  0  0  0  0  0  0  0  0  0  0  0
  1  9  1  0  0  0  0
  1 10  1  0  0  0  0
  2  1  1  0  0  0  0
  3 13  1  0  0  0  0
  3  2  1  0  0  0  0
  4  3  1  0  0  0  0
  4 15  1  0  0  0  0
  5 16  1  6  0  0  0
  5  4  1  0  0  0  0
  6  5  1  0  0  0  0
  6 17  1  0  0  0  0
  6 18  1  0  0  0  0
  7  5  1  0  0  0  0
  8  7  2  0  0  0  0
 11  1  1  0  0  0  0
 12  3  1  0  0  0  0
 14  4  1  0  0  0  0
 19 29  1  0  0  0  0
 19  7  1  0  0  0  0
 20 30  1  1  0  0  0
 20 19  1  0  0  0  0
 21 20  1  0  0  0  0
 21 22  1  0  0  0  0
 22 23  2  0  0  0  0
 22 26  1  0  0  0  0
 23 24  1  0  0  0  0
 24 34  1  0  0  0  0
 24 25  1  0  0  0  0
 25 35  1  0  0  0  0
 26 25  2  0  0  0  0
 27 28  2  0  0  0  0
 27 20  1  0  0  0  0
 31 21  1  0  0  0  0
 32 21  1  0  0  0  0
 33 23  1  0  0  0  0
 36 46  1  0  0  0  0
 37 38  2  0  0  0  0
 37 36  1  0  0  0  0
 39 49  1  0  0  0  0
 39 37  1  0  0  0  0
 40 41  1  0  0  0  0
 40 39  1  0  0  0  0
 41 52  1  1  0  0  0
 41 42  1  0  0  0  0
 42 27  1  0  0  0  0
 43 45  1  0  0  0  0
 43 41  1  0  0  0  0
 44 43  2  0  0  0  0
 47 36  1  0  0  0  0
 48 39  1  0  0  0  0
 50 40  1  0  0  0  0
 51 40  1  0  0  0  0
 53 42  1  0  0  0  0
M  END
$$$$
