MHR.pdb
 OpenBabel07022418553D

 59 59  0  0  1  0  0  0  0  0999 V2000
   -3.6020    3.2530    1.1710 C   0  0  0  0  0  0  0  0  0  0  0  0
   -3.4930    2.6610    2.8870 S   0  0  0  0  0  0  0  0  0  0  0  0
   -2.0390    1.5640    3.0750 C   0  0  0  0  0  0  0  0  0  0  0  0
   -2.2210    0.3080    2.2890 C   0  0  0  0  0  0  0  0  0  0  0  0
   -1.0990   -0.6650    2.3680 C   0  0  2  0  0  0  0  0  0  0  0  0
   -0.8040   -1.1360    3.6810 N   0  0  0  0  0  0  0  0  0  0  0  0
    0.1440   -0.2430    1.6720 C   0  0  0  0  0  0  0  0  0  0  0  0
    1.2230   -0.3540    2.3110 O   0  0  0  0  0  0  0  0  0  0  0  0
   -4.3420    4.0810    1.1150 H   0  0  0  0  0  0  0  0  0  0  0  0
   -2.6160    3.5960    0.7950 H   0  0  0  0  0  0  0  0  0  0  0  0
   -3.9470    2.4360    0.5090 H   0  0  0  0  0  0  0  0  0  0  0  0
   -1.1190    2.1020    2.8540 H   0  0  0  0  0  0  0  0  0  0  0  0
   -1.9950    1.2930    4.1590 H   0  0  0  0  0  0  0  0  0  0  0  0
   -3.1490   -0.2080    2.6490 H   0  0  0  0  0  0  0  0  0  0  0  0
   -2.3900    0.5400    1.2080 H   0  0  0  0  0  0  0  0  0  0  0  0
   -1.4550   -1.5810    1.7900 H   0  0  0  0  0  0  0  0  0  0  0  0
   -1.6140   -1.1320    4.3350 H   0  0  0  0  0  0  0  0  0  0  0  0
    0.0380   -0.6600    4.0550 H   0  0  0  0  0  0  0  0  0  0  0  0
    0.1210    0.2580    0.3520 N   0  0  0  0  0  0  0  0  0  0  0  0
    1.2220    0.7050   -0.4270 C   0  0  1  0  0  0  0  0  0  0  0  0
    2.4160    1.2150    0.3400 C   0  0  0  0  0  0  0  0  0  0  0  0
    2.0180    2.4020    1.1050 C   0  0  0  0  0  0  0  0  0  0  0  0
    2.0700    3.6960    0.5510 C   0  0  0  0  0  0  0  0  0  0  0  0
    1.6400    4.5850    1.4540 N   0  0  0  0  0  0  0  0  0  0  0  0
    1.3130    3.9220    2.5670 C   0  0  0  0  0  0  0  0  0  0  0  0
    1.5520    2.5980    2.3270 N   0  0  0  0  0  0  0  0  0  0  0  0
    1.4930   -0.1760   -1.5410 C   0  0  0  0  0  0  0  0  0  0  0  0
    2.4020   -0.0830   -2.3900 O   0  0  0  0  0  0  0  0  0  0  0  0
   -0.8400    0.3010   -0.1000 H   0  0  0  0  0  0  0  0  0  0  0  0
    0.8440    1.7280   -0.8770 H   0  0  0  0  0  0  0  0  0  0  0  0
    3.1770    1.5200   -0.4140 H   0  0  0  0  0  0  0  0  0  0  0  0
    2.9150    0.4300    0.9410 H   0  0  0  0  0  0  0  0  0  0  0  0
    2.4110    3.9300   -0.4640 H   0  0  0  0  0  0  0  0  0  0  0  0
    1.5740    5.6030    1.3090 H   0  0  0  0  0  0  0  0  0  0  0  0
    0.9290    4.2840    3.5110 H   0  0  0  0  0  0  0  0  0  0  0  0
   -1.1700   -6.8570    0.9340 N   0  0  0  0  0  0  0  0  0  0  0  0
   -0.8650   -5.4760    0.7460 C   0  0  0  0  0  0  0  0  0  0  0  0
   -1.7960   -4.6750    0.4070 N   0  0  0  0  0  0  0  0  0  0  0  0
    0.4720   -5.0010    0.9350 N   0  0  0  0  0  0  0  0  0  0  0  0
    0.9580   -3.8770    0.0870 C   0  0  0  0  0  0  0  0  0  0  0  0
    1.0780   -4.3460   -1.3080 C   0  0  0  0  0  0  0  0  0  0  0  0
    1.5490   -3.4530   -2.3670 C   0  0  0  0  0  0  0  0  0  0  0  0
    0.7780   -2.2420   -2.7620 C   0  0  2  0  0  0  0  0  0  0  0  0
    0.6120   -1.3130   -1.7130 N   0  0  0  0  0  0  0  0  0  0  0  0
   -0.4770   -2.5600   -3.4890 C   0  0  0  0  0  0  0  0  0  0  0  0
   -0.3970   -3.3930   -4.4310 O   0  0  0  0  0  0  0  0  0  0  0  0
   -1.6920   -2.0060   -3.1980 O   0  0  0  0  0  0  0  0  0  0  0  0
   -1.1460   -7.2940    1.8720 H   0  0  0  0  0  0  0  0  0  0  0  0
   -1.4300   -7.4690    0.1210 H   0  0  0  0  0  0  0  0  0  0  0  0
   -1.6640   -3.6620    0.2500 H   0  0  0  0  0  0  0  0  0  0  0  0
    1.0660   -5.4480    1.6520 H   0  0  0  0  0  0  0  0  0  0  0  0
    1.9290   -3.5820    0.5530 H   0  0  0  0  0  0  0  0  0  0  0  0
    0.2620   -3.0650    0.2920 H   0  0  0  0  0  0  0  0  0  0  0  0
    1.8190   -5.2220   -1.2740 H   0  0  0  0  0  0  0  0  0  0  0  0
    0.0900   -4.8440   -1.5610 H   0  0  0  0  0  0  0  0  0  0  0  0
    1.9000   -4.0230   -3.2870 H   0  0  0  0  0  0  0  0  0  0  0  0
    2.5490   -3.0230   -1.9800 H   0  0  0  0  0  0  0  0  0  0  0  0
    1.4540   -1.7220   -3.5210 H   0  0  0  0  0  0  0  0  0  0  0  0
   -0.2010   -1.4280   -1.0560 H   0  0  0  0  0  0  0  0  0  0  0  0
  1  2  1  0  0  0  0
  2  3  1  0  0  0  0
  3 13  1  0  0  0  0
  4  5  1  0  0  0  0
  4 14  1  0  0  0  0
  4  3  1  0  0  0  0
  5 16  1  6  0  0  0
  5  6  1  0  0  0  0
  6 18  1  0  0  0  0
  6 17  1  0  0  0  0
  7  8  2  0  0  0  0
  7  5  1  0  0  0  0
  9  1  1  0  0  0  0
 10  1  1  0  0  0  0
 11  1  1  0  0  0  0
 12  3  1  0  0  0  0
 15  4  1  0  0  0  0
 19  7  1  0  0  0  0
 20 30  1  6  0  0  0
 20 21  1  0  0  0  0
 20 19  1  0  0  0  0
 21 32  1  0  0  0  0
 21 22  1  0  0  0  0
 22 26  1  0  0  0  0
 23 22  2  0  0  0  0
 23 24  1  0  0  0  0
 24 25  1  0  0  0  0
 25 35  1  0  0  0  0
 26 25  2  0  0  0  0
 27 20  1  0  0  0  0
 28 27  2  0  0  0  0
 29 19  1  0  0  0  0
 31 21  1  0  0  0  0
 33 23  1  0  0  0  0
 34 24  1  0  0  0  0
 36 48  1  0  0  0  0
 37 36  1  0  0  0  0
 37 39  1  0  0  0  0
 38 37  2  0  0  0  0
 39 51  1  0  0  0  0
 40 53  1  0  0  0  0
 40 52  1  0  0  0  0
 40 39  1  0  0  0  0
 41 54  1  0  0  0  0
 41 40  1  0  0  0  0
 42 57  1  0  0  0  0
 42 41  1  0  0  0  0
 43 58  1  6  0  0  0
 43 42  1  0  0  0  0
 43 44  1  0  0  0  0
 44 27  1  0  0  0  0
 44 59  1  0  0  0  0
 45 47  1  0  0  0  0
 45 43  1  0  0  0  0
 46 45  2  0  0  0  0
 49 36  1  0  0  0  0
 50 38  1  0  0  0  0
 55 41  1  0  0  0  0
 56 42  1  0  0  0  0
M  END
$$$$
