MHS.pdb
 OpenBabel07022418553D

 47 47  0  0  1  0  0  0  0  0999 V2000
    0.8550   -4.4300    0.4830 C   0  0  0  0  0  0  0  0  0  0  0  0
    0.5620   -4.4130   -1.2670 S   0  0  0  0  0  0  0  0  0  0  0  0
    0.1980   -2.8620   -2.0350 C   0  0  0  0  0  0  0  0  0  0  0  0
    1.2730   -1.8710   -2.2390 C   0  0  0  0  0  0  0  0  0  0  0  0
    2.0060   -1.3530   -1.0600 C   0  0  2  0  0  0  0  0  0  0  0  0
    2.6910   -2.3820   -0.3590 N   0  0  0  0  0  0  0  0  0  0  0  0
    1.0840   -0.5470   -0.2150 C   0  0  0  0  0  0  0  0  0  0  0  0
    0.3720    0.2900   -0.8220 O   0  0  0  0  0  0  0  0  0  0  0  0
    0.1930   -5.2300    0.9850 H   0  0  0  0  0  0  0  0  0  0  0  0
    1.8940   -4.7280    0.7110 H   0  0  0  0  0  0  0  0  0  0  0  0
    0.6440   -3.4860    1.0250 H   0  0  0  0  0  0  0  0  0  0  0  0
   -0.7150   -2.3600   -1.5770 H   0  0  0  0  0  0  0  0  0  0  0  0
   -0.1840   -3.1110   -3.0930 H   0  0  0  0  0  0  0  0  0  0  0  0
    1.9910   -2.2680   -3.0320 H   0  0  0  0  0  0  0  0  0  0  0  0
    0.7620   -0.9590   -2.7050 H   0  0  0  0  0  0  0  0  0  0  0  0
    2.7550   -0.5970   -1.4880 H   0  0  0  0  0  0  0  0  0  0  0  0
    3.3900   -2.0820    0.3270 H   0  0  0  0  0  0  0  0  0  0  0  0
    3.1480   -3.0020   -1.0640 H   0  0  0  0  0  0  0  0  0  0  0  0
    0.9790   -0.6710    1.1720 N   0  0  0  0  0  0  0  0  0  0  0  0
    0.0800    0.1240    1.9720 C   0  0  1  0  0  0  0  0  0  0  0  0
    0.5180    1.5690    1.8740 C   0  0  0  0  0  0  0  0  0  0  0  0
    1.9080    1.7450    2.3720 C   0  0  0  0  0  0  0  0  0  0  0  0
    3.0910    1.6680    1.6780 C   0  0  0  0  0  0  0  0  0  0  0  0
    4.0810    1.8970    2.5470 N   0  0  0  0  0  0  0  0  0  0  0  0
    3.5590    2.1170    3.7650 C   0  0  0  0  0  0  0  0  0  0  0  0
    2.2250    2.0220    3.6490 N   0  0  0  0  0  0  0  0  0  0  0  0
   -1.3030   -0.0730    1.4960 C   0  0  0  0  0  0  0  0  0  0  0  0
   -1.5150   -0.8650    0.5540 O   0  0  0  0  0  0  0  0  0  0  0  0
    1.6140   -1.3980    1.6230 H   0  0  0  0  0  0  0  0  0  0  0  0
    0.1010   -0.2290    3.0350 H   0  0  0  0  0  0  0  0  0  0  0  0
    0.4450    1.9190    0.8380 H   0  0  0  0  0  0  0  0  0  0  0  0
   -0.1610    2.1470    2.5310 H   0  0  0  0  0  0  0  0  0  0  0  0
    3.2180    1.4640    0.6410 H   0  0  0  0  0  0  0  0  0  0  0  0
    5.1300    1.9130    2.3480 H   0  0  0  0  0  0  0  0  0  0  0  0
    4.1560    2.3320    4.6640 H   0  0  0  0  0  0  0  0  0  0  0  0
   -3.6840    2.1690   -0.0540 O   0  0  0  0  0  0  0  0  0  0  0  0
   -3.9060    0.8210    0.0920 C   0  0  0  0  0  0  0  0  0  0  0  0
   -3.7290    0.3550    1.5440 C   0  0  2  0  0  0  0  0  0  0  0  0
   -2.4230    0.5960    2.0560 N   0  0  0  0  0  0  0  0  0  0  0  0
   -4.1450   -1.0570    1.5920 C   0  0  0  0  0  0  0  0  0  0  0  0
   -3.3940   -1.9460    2.0490 O   0  0  0  0  0  0  0  0  0  0  0  0
   -5.3870   -1.4440    1.1290 O   0  0  0  0  0  0  0  0  0  0  0  0
   -3.0830    2.4590    0.6810 H   0  0  0  0  0  0  0  0  0  0  0  0
   -4.9730    0.5420   -0.1500 H   0  0  0  0  0  0  0  0  0  0  0  0
   -3.2890    0.1650   -0.5280 H   0  0  0  0  0  0  0  0  0  0  0  0
   -4.4560    1.0150    2.1100 H   0  0  0  0  0  0  0  0  0  0  0  0
   -2.2600    1.2690    2.8550 H   0  0  0  0  0  0  0  0  0  0  0  0
  1 10  1  0  0  0  0
  1  9  1  0  0  0  0
  1 11  1  0  0  0  0
  2  1  1  0  0  0  0
  3 12  1  0  0  0  0
  3  2  1  0  0  0  0
  4  3  1  0  0  0  0
  4  5  1  0  0  0  0
  5 16  1  6  0  0  0
  5  6  1  0  0  0  0
  5  7  1  0  0  0  0
  6 17  1  0  0  0  0
  7 19  1  0  0  0  0
  8  7  2  0  0  0  0
 13  3  1  0  0  0  0
 14  4  1  0  0  0  0
 15  4  1  0  0  0  0
 18  6  1  0  0  0  0
 19 29  1  0  0  0  0
 19 20  1  0  0  0  0
 20 30  1  1  0  0  0
 21 20  1  0  0  0  0
 21 22  1  0  0  0  0
 21 32  1  0  0  0  0
 22 26  1  0  0  0  0
 23 22  2  0  0  0  0
 23 24  1  0  0  0  0
 24 25  1  0  0  0  0
 25 35  1  0  0  0  0
 26 25  2  0  0  0  0
 27 20  1  0  0  0  0
 27 39  1  0  0  0  0
 28 27  2  0  0  0  0
 31 21  1  0  0  0  0
 33 23  1  0  0  0  0
 34 24  1  0  0  0  0
 36 37  1  0  0  0  0
 36 43  1  0  0  0  0
 37 38  1  0  0  0  0
 38 40  1  0  0  0  0
 38 39  1  0  0  0  0
 38 46  1  1  0  0  0
 39 47  1  0  0  0  0
 40 41  1  0  0  0  0
 42 40  2  0  0  0  0
 44 37  1  0  0  0  0
 45 37  1  0  0  0  0
M  END
$$$$
