MHT.pdb
 OpenBabel07022418553D

 50 50  0  0  1  0  0  0  0  0999 V2000
    1.5010   -3.3050    4.3200 C   0  0  0  0  0  0  0  0  0  0  0  0
    2.2570   -4.3610    3.0780 S   0  0  0  0  0  0  0  0  0  0  0  0
    2.2590   -3.6990    1.4400 C   0  0  0  0  0  0  0  0  0  0  0  0
    3.1680   -2.6030    1.0840 C   0  0  0  0  0  0  0  0  0  0  0  0
    3.1190   -1.3040    1.7680 C   0  0  2  0  0  0  0  0  0  0  0  0
    3.3870   -1.3640    3.1710 N   0  0  0  0  0  0  0  0  0  0  0  0
    1.8430   -0.5640    1.5570 C   0  0  0  0  0  0  0  0  0  0  0  0
    1.2700   -0.0700    2.5530 O   0  0  0  0  0  0  0  0  0  0  0  0
    0.6850   -3.8750    4.8840 H   0  0  0  0  0  0  0  0  0  0  0  0
    2.2610   -2.9610    5.0400 H   0  0  0  0  0  0  0  0  0  0  0  0
    0.9880   -2.4680    3.8130 H   0  0  0  0  0  0  0  0  0  0  0  0
    1.1880   -3.4930    1.1320 H   0  0  0  0  0  0  0  0  0  0  0  0
    2.5250   -4.5630    0.7300 H   0  0  0  0  0  0  0  0  0  0  0  0
    4.2320   -2.9870    1.1940 H   0  0  0  0  0  0  0  0  0  0  0  0
    3.0200   -2.3970   -0.0320 H   0  0  0  0  0  0  0  0  0  0  0  0
    3.9590   -0.6790    1.3210 H   0  0  0  0  0  0  0  0  0  0  0  0
    3.7800   -0.4450    3.5030 H   0  0  0  0  0  0  0  0  0  0  0  0
    4.1460   -2.0750    3.3340 H   0  0  0  0  0  0  0  0  0  0  0  0
    1.2590   -0.4020    0.2760 N   0  0  0  0  0  0  0  0  0  0  0  0
    0.0230    0.3280    0.1650 C   0  0  1  0  0  0  0  0  0  0  0  0
    0.2040    1.5640   -0.6850 C   0  0  0  0  0  0  0  0  0  0  0  0
    1.2300    2.4110   -0.0330 C   0  0  0  0  0  0  0  0  0  0  0  0
    2.5950    2.4000   -0.2180 C   0  0  0  0  0  0  0  0  0  0  0  0
    3.1590    3.3470    0.5860 N   0  0  0  0  0  0  0  0  0  0  0  0
    2.1560    3.9320    1.2570 C   0  0  0  0  0  0  0  0  0  0  0  0
    1.0010    3.3680    0.8830 N   0  0  0  0  0  0  0  0  0  0  0  0
   -1.0000   -0.5920   -0.4160 C   0  0  0  0  0  0  0  0  0  0  0  0
   -0.7170   -1.7810   -0.7240 O   0  0  0  0  0  0  0  0  0  0  0  0
    1.7520   -0.8230   -0.5530 H   0  0  0  0  0  0  0  0  0  0  0  0
   -0.2710    0.6780    1.1710 H   0  0  0  0  0  0  0  0  0  0  0  0
    0.5320    1.3210   -1.7140 H   0  0  0  0  0  0  0  0  0  0  0  0
   -0.7380    2.1120   -0.7540 H   0  0  0  0  0  0  0  0  0  0  0  0
    3.1420    1.7610   -0.8810 H   0  0  0  0  0  0  0  0  0  0  0  0
    4.1850    3.5300    0.6240 H   0  0  0  0  0  0  0  0  0  0  0  0
    2.2790    4.7230    1.9740 H   0  0  0  0  0  0  0  0  0  0  0  0
   -3.8830   -1.9110    1.0670 C   0  0  0  0  0  0  0  0  0  0  0  0
   -4.4370   -1.2680   -0.1790 C   0  0  1  0  0  0  0  0  0  0  0  0
   -5.0340   -0.0450    0.1740 O   0  0  0  0  0  0  0  0  0  0  0  0
   -3.3380   -1.0530   -1.2130 C   0  0  2  0  0  0  0  0  0  0  0  0
   -2.3400   -0.1830   -0.6540 N   0  0  0  0  0  0  0  0  0  0  0  0
   -3.9870   -0.5270   -2.4280 C   0  0  0  0  0  0  0  0  0  0  0  0
   -3.7330    0.5640   -2.9620 O   0  0  0  0  0  0  0  0  0  0  0  0
   -4.9630   -1.3360   -3.0080 O   0  0  0  0  0  0  0  0  0  0  0  0
   -3.4280   -1.1480    1.7260 H   0  0  0  0  0  0  0  0  0  0  0  0
   -4.7260   -2.4210    1.5840 H   0  0  0  0  0  0  0  0  0  0  0  0
   -3.1660   -2.6890    0.7480 H   0  0  0  0  0  0  0  0  0  0  0  0
   -5.2520   -1.8830   -0.6220 H   0  0  0  0  0  0  0  0  0  0  0  0
   -5.0120    0.6030   -0.5590 H   0  0  0  0  0  0  0  0  0  0  0  0
   -2.9440   -2.0680   -1.4390 H   0  0  0  0  0  0  0  0  0  0  0  0
   -2.5890    0.7980   -0.4040 H   0  0  0  0  0  0  0  0  0  0  0  0
  1  9  1  0  0  0  0
  1 10  1  0  0  0  0
  2  1  1  0  0  0  0
  3  2  1  0  0  0  0
  4 14  1  0  0  0  0
  4  3  1  0  0  0  0
  4  5  1  0  0  0  0
  5 16  1  6  0  0  0
  5  6  1  0  0  0  0
  6 18  1  0  0  0  0
  6 17  1  0  0  0  0
  7  5  1  0  0  0  0
  7  8  2  0  0  0  0
 11  1  1  0  0  0  0
 12  3  1  0  0  0  0
 13  3  1  0  0  0  0
 15  4  1  0  0  0  0
 19  7  1  0  0  0  0
 20 19  1  0  0  0  0
 20 30  1  1  0  0  0
 21 22  1  0  0  0  0
 21 20  1  0  0  0  0
 22 26  1  0  0  0  0
 23 22  2  0  0  0  0
 23 24  1  0  0  0  0
 24 34  1  0  0  0  0
 24 25  1  0  0  0  0
 25 35  1  0  0  0  0
 26 25  2  0  0  0  0
 27 20  1  0  0  0  0
 28 27  2  0  0  0  0
 29 19  1  0  0  0  0
 31 21  1  0  0  0  0
 32 21  1  0  0  0  0
 33 23  1  0  0  0  0
 36 45  1  0  0  0  0
 36 44  1  0  0  0  0
 37 47  1  6  0  0  0
 37 38  1  0  0  0  0
 37 36  1  0  0  0  0
 39 49  1  6  0  0  0
 39 40  1  0  0  0  0
 39 37  1  0  0  0  0
 40 27  1  0  0  0  0
 40 50  1  0  0  0  0
 41 39  1  0  0  0  0
 42 41  1  0  0  0  0
 43 41  2  0  0  0  0
 46 36  1  0  0  0  0
 48 38  1  0  0  0  0
M  END
$$$$
