MHW.pdb
 OpenBabel07022418553D

 60 62  0  0  1  0  0  0  0  0999 V2000
   -0.7790   -0.7650    6.1920 C   0  0  0  0  0  0  0  0  0  0  0  0
    0.7130    0.0260    6.7280 S   0  0  0  0  0  0  0  0  0  0  0  0
    1.6530    0.8990    5.5000 C   0  0  0  0  0  0  0  0  0  0  0  0
    2.2830    0.0840    4.4290 C   0  0  0  0  0  0  0  0  0  0  0  0
    1.3630   -0.6750    3.5240 C   0  0  2  0  0  0  0  0  0  0  0  0
    2.2120   -1.4200    2.5890 N   0  0  0  0  0  0  0  0  0  0  0  0
    0.4890    0.2580    2.7500 C   0  0  0  0  0  0  0  0  0  0  0  0
   -0.2530    1.0280    3.3910 O   0  0  0  0  0  0  0  0  0  0  0  0
   -1.4080   -0.2090    5.4800 H   0  0  0  0  0  0  0  0  0  0  0  0
   -0.6610   -1.8230    5.8570 H   0  0  0  0  0  0  0  0  0  0  0  0
   -1.4390   -0.8810    7.1240 H   0  0  0  0  0  0  0  0  0  0  0  0
    1.1100    1.7810    5.0650 H   0  0  0  0  0  0  0  0  0  0  0  0
    2.5240    1.3900    6.0570 H   0  0  0  0  0  0  0  0  0  0  0  0
    2.8760    0.7700    3.7600 H   0  0  0  0  0  0  0  0  0  0  0  0
    3.0740   -0.5980    4.8610 H   0  0  0  0  0  0  0  0  0  0  0  0
    0.7560   -1.3970    4.0520 H   0  0  0  0  0  0  0  0  0  0  0  0
    1.6810   -2.0800    2.0120 H   0  0  0  0  0  0  0  0  0  0  0  0
    2.8400   -0.7700    2.0720 H   0  0  0  0  0  0  0  0  0  0  0  0
    0.5060    0.2660    1.2990 N   0  0  0  0  0  0  0  0  0  0  0  0
   -0.3530    1.1860    0.6480 C   0  0  1  0  0  0  0  0  0  0  0  0
    0.3840    2.1450   -0.2140 C   0  0  0  0  0  0  0  0  0  0  0  0
    1.1530    1.5750   -1.3170 C   0  0  0  0  0  0  0  0  0  0  0  0
    1.3260    0.3100   -1.7790 C   0  0  0  0  0  0  0  0  0  0  0  0
    2.1400    0.2860   -2.8690 N   0  0  0  0  0  0  0  0  0  0  0  0
    2.4690    1.5610   -3.0750 C   0  0  0  0  0  0  0  0  0  0  0  0
    1.8960    2.3530   -2.1660 N   0  0  0  0  0  0  0  0  0  0  0  0
   -1.5090    0.6270   -0.0440 C   0  0  0  0  0  0  0  0  0  0  0  0
   -2.1580    1.3860   -0.8180 O   0  0  0  0  0  0  0  0  0  0  0  0
    1.1620   -0.4180    0.9000 H   0  0  0  0  0  0  0  0  0  0  0  0
   -0.8510    1.8740    1.4550 H   0  0  0  0  0  0  0  0  0  0  0  0
    1.0450    2.8280    0.4060 H   0  0  0  0  0  0  0  0  0  0  0  0
   -0.3440    2.8930   -0.6690 H   0  0  0  0  0  0  0  0  0  0  0  0
    0.8990   -0.5760   -1.3870 H   0  0  0  0  0  0  0  0  0  0  0  0
    2.4360   -0.5460   -3.4130 H   0  0  0  0  0  0  0  0  0  0  0  0
    3.1240    1.8590   -3.8950 H   0  0  0  0  0  0  0  0  0  0  0  0
   -2.0000   -0.7140    0.0700 N   0  0  0  0  0  0  0  0  0  0  0  0
   -3.1470   -1.1730   -0.6370 C   0  0  1  0  0  0  0  0  0  0  0  0
   -3.0370   -2.5370   -1.1570 C   0  0  0  0  0  0  0  0  0  0  0  0
   -1.9150   -2.6990   -2.0980 C   0  0  0  0  0  0  0  0  0  0  0  0
   -2.0180   -2.5410   -3.4910 C   0  0  0  0  0  0  0  0  0  0  0  0
   -0.8170   -2.7130   -4.0710 N   0  0  0  0  0  0  0  0  0  0  0  0
    0.0800   -2.9780   -3.1120 C   0  0  0  0  0  0  0  0  0  0  0  0
    1.4180   -3.2360   -3.2310 C   0  0  0  0  0  0  0  0  0  0  0  0
    2.1670   -3.5080   -2.0990 C   0  0  0  0  0  0  0  0  0  0  0  0
    1.4930   -3.5030   -0.8840 C   0  0  0  0  0  0  0  0  0  0  0  0
    0.1430   -3.2430   -0.7670 C   0  0  0  0  0  0  0  0  0  0  0  0
   -0.5920   -2.9720   -1.8940 C   0  0  0  0  0  0  0  0  0  0  0  0
   -4.3930   -0.9910    0.1900 C   0  0  0  0  0  0  0  0  0  0  0  0
   -4.2800   -0.5070    1.3170 O   0  0  0  0  0  0  0  0  0  0  0  0
   -5.6030   -1.3620   -0.3190 O   0  0  0  0  0  0  0  0  0  0  0  0
   -1.4880   -1.3340    0.7040 H   0  0  0  0  0  0  0  0  0  0  0  0
   -3.3080   -0.4490   -1.5010 H   0  0  0  0  0  0  0  0  0  0  0  0
   -4.0090   -2.8410   -1.6600 H   0  0  0  0  0  0  0  0  0  0  0  0
   -2.9380   -3.2890   -0.3230 H   0  0  0  0  0  0  0  0  0  0  0  0
   -2.9320   -2.3170   -4.0160 H   0  0  0  0  0  0  0  0  0  0  0  0
   -0.6430   -2.6440   -5.1060 H   0  0  0  0  0  0  0  0  0  0  0  0
    1.9100   -3.2310   -4.2090 H   0  0  0  0  0  0  0  0  0  0  0  0
    3.2240   -3.7090   -2.1990 H   0  0  0  0  0  0  0  0  0  0  0  0
    2.0990   -3.7200   -0.0070 H   0  0  0  0  0  0  0  0  0  0  0  0
   -0.3490   -3.2580    0.1750 H   0  0  0  0  0  0  0  0  0  0  0  0
  1  2  1  0  0  0  0
  1 11  1  0  0  0  0
  3 13  1  0  0  0  0
  3  2  1  0  0  0  0
  4 15  1  0  0  0  0
  4  3  1  0  0  0  0
  5 16  1  1  0  0  0
  5  4  1  0  0  0  0
  6  5  1  0  0  0  0
  7  8  2  0  0  0  0
  7  5  1  0  0  0  0
  9  1  1  0  0  0  0
 10  1  1  0  0  0  0
 12  3  1  0  0  0  0
 14  4  1  0  0  0  0
 17  6  1  0  0  0  0
 18  6  1  0  0  0  0
 19  7  1  0  0  0  0
 20 19  1  0  0  0  0
 20 30  1  1  0  0  0
 21 31  1  0  0  0  0
 21 20  1  0  0  0  0
 22 21  1  0  0  0  0
 23 33  1  0  0  0  0
 23 22  2  0  0  0  0
 24 23  1  0  0  0  0
 25 24  1  0  0  0  0
 25 26  2  0  0  0  0
 26 22  1  0  0  0  0
 27 36  1  0  0  0  0
 27 20  1  0  0  0  0
 28 27  2  0  0  0  0
 29 19  1  0  0  0  0
 32 21  1  0  0  0  0
 34 24  1  0  0  0  0
 35 25  1  0  0  0  0
 36 51  1  0  0  0  0
 37 52  1  6  0  0  0
 37 36  1  0  0  0  0
 37 48  1  0  0  0  0
 38 37  1  0  0  0  0
 38 54  1  0  0  0  0
 39 47  1  0  0  0  0
 39 38  1  0  0  0  0
 40 39  2  0  0  0  0
 41 40  1  0  0  0  0
 41 42  1  0  0  0  0
 42 47  1  0  0  0  0
 43 42  2  0  0  0  0
 43 44  1  0  0  0  0
 44 45  2  0  0  0  0
 45 46  1  0  0  0  0
 45 59  1  0  0  0  0
 46 60  1  0  0  0  0
 47 46  2  0  0  0  0
 48 49  1  0  0  0  0
 50 48  2  0  0  0  0
 53 38  1  0  0  0  0
 55 40  1  0  0  0  0
 56 41  1  0  0  0  0
 57 43  1  0  0  0  0
 58 44  1  0  0  0  0
M  END
$$$$
