MHY.pdb
 OpenBabel07022418553D

 57 58  0  0  1  0  0  0  0  0999 V2000
    4.1000    0.4150    7.2460 C   0  0  0  0  0  0  0  0  0  0  0  0
    5.2840    0.0470    5.8940 S   0  0  0  0  0  0  0  0  0  0  0  0
    4.5230   -1.3130    4.9280 C   0  0  0  0  0  0  0  0  0  0  0  0
    3.2780   -0.7280    4.2950 C   0  0  0  0  0  0  0  0  0  0  0  0
    2.5380   -1.7650    3.4530 C   0  0  2  0  0  0  0  0  0  0  0  0
    3.3970   -2.2390    2.4040 N   0  0  0  0  0  0  0  0  0  0  0  0
    1.3120   -1.1050    2.9390 C   0  0  0  0  0  0  0  0  0  0  0  0
    0.4980   -0.6550    3.7740 O   0  0  0  0  0  0  0  0  0  0  0  0
    3.7120   -0.5780    7.5780 H   0  0  0  0  0  0  0  0  0  0  0  0
    4.5740    0.9750    8.0500 H   0  0  0  0  0  0  0  0  0  0  0  0
    3.2450    0.9310    6.7640 H   0  0  0  0  0  0  0  0  0  0  0  0
    5.2440   -1.7030    4.2090 H   0  0  0  0  0  0  0  0  0  0  0  0
    4.2890   -2.1160    5.6560 H   0  0  0  0  0  0  0  0  0  0  0  0
    3.5860    0.1340    3.6970 H   0  0  0  0  0  0  0  0  0  0  0  0
    2.6340   -0.3480    5.1130 H   0  0  0  0  0  0  0  0  0  0  0  0
    2.2840   -2.6430    4.0890 H   0  0  0  0  0  0  0  0  0  0  0  0
    2.8760   -2.9330    1.8130 H   0  0  0  0  0  0  0  0  0  0  0  0
    4.1630   -2.7860    2.8590 H   0  0  0  0  0  0  0  0  0  0  0  0
    1.0110   -0.9550    1.5710 N   0  0  0  0  0  0  0  0  0  0  0  0
   -0.2420   -0.2800    1.1220 C   0  0  1  0  0  0  0  0  0  0  0  0
    0.1380    0.9550    0.3580 C   0  0  0  0  0  0  0  0  0  0  0  0
   -0.9570    1.7750   -0.1640 C   0  0  0  0  0  0  0  0  0  0  0  0
   -1.5910    1.7980   -1.3870 C   0  0  0  0  0  0  0  0  0  0  0  0
   -2.5300    2.7700   -1.4180 N   0  0  0  0  0  0  0  0  0  0  0  0
   -2.5030    3.3730   -0.2220 C   0  0  0  0  0  0  0  0  0  0  0  0
   -1.5640    2.7830    0.5340 N   0  0  0  0  0  0  0  0  0  0  0  0
   -0.9590   -1.3130    0.3440 C   0  0  0  0  0  0  0  0  0  0  0  0
   -0.3720   -2.4300    0.0990 O   0  0  0  0  0  0  0  0  0  0  0  0
    1.6880   -1.3300    0.8760 H   0  0  0  0  0  0  0  0  0  0  0  0
   -0.8150    0.0430    2.0170 H   0  0  0  0  0  0  0  0  0  0  0  0
    0.8830    1.5710    0.9360 H   0  0  0  0  0  0  0  0  0  0  0  0
    0.7320    0.6350   -0.5480 H   0  0  0  0  0  0  0  0  0  0  0  0
   -1.3830    1.1460   -2.2140 H   0  0  0  0  0  0  0  0  0  0  0  0
   -3.1650    3.0110   -2.2310 H   0  0  0  0  0  0  0  0  0  0  0  0
   -3.1410    4.1960    0.0650 H   0  0  0  0  0  0  0  0  0  0  0  0
   -0.5040    0.5550   -6.2300 O   0  0  0  0  0  0  0  0  0  0  0  0
   -0.9290   -0.2680   -5.2040 C   0  0  0  0  0  0  0  0  0  0  0  0
   -2.2060   -0.7940   -5.1770 C   0  0  0  0  0  0  0  0  0  0  0  0
   -2.6280   -1.6100   -4.1610 C   0  0  0  0  0  0  0  0  0  0  0  0
   -1.7660   -1.9330   -3.1130 C   0  0  0  0  0  0  0  0  0  0  0  0
   -2.2440   -2.8180   -2.0660 C   0  0  0  0  0  0  0  0  0  0  0  0
   -2.9960   -2.1570   -0.9340 C   0  0  2  0  0  0  0  0  0  0  0  0
   -2.2730   -1.1900   -0.1710 N   0  0  0  0  0  0  0  0  0  0  0  0
   -3.7330   -3.1560   -0.1260 C   0  0  0  0  0  0  0  0  0  0  0  0
   -4.3820   -4.0260   -0.7310 O   0  0  0  0  0  0  0  0  0  0  0  0
   -0.5070   -1.4220   -3.1280 C   0  0  0  0  0  0  0  0  0  0  0  0
   -0.1010   -0.6020   -4.1610 C   0  0  0  0  0  0  0  0  0  0  0  0
   -3.7180   -3.1480    1.2680 O   0  0  0  0  0  0  0  0  0  0  0  0
   -0.6130    0.3380   -7.1930 H   0  0  0  0  0  0  0  0  0  0  0  0
   -2.8780   -0.5330   -6.0090 H   0  0  0  0  0  0  0  0  0  0  0  0
   -3.6350   -2.0000   -4.1780 H   0  0  0  0  0  0  0  0  0  0  0  0
   -2.9210   -3.5770   -2.5800 H   0  0  0  0  0  0  0  0  0  0  0  0
   -1.4500   -3.4500   -1.6280 H   0  0  0  0  0  0  0  0  0  0  0  0
   -3.8060   -1.5710   -1.4990 H   0  0  0  0  0  0  0  0  0  0  0  0
   -2.7390   -0.2610    0.0880 H   0  0  0  0  0  0  0  0  0  0  0  0
    0.1940   -1.6390   -2.3600 H   0  0  0  0  0  0  0  0  0  0  0  0
    0.8980   -0.2110   -4.1500 H   0  0  0  0  0  0  0  0  0  0  0  0
  1  9  1  0  0  0  0
  1 10  1  0  0  0  0
  2  1  1  0  0  0  0
  3 13  1  0  0  0  0
  3  2  1  0  0  0  0
  4  3  1  0  0  0  0
  4 15  1  0  0  0  0
  5 16  1  1  0  0  0
  5  4  1  0  0  0  0
  6 18  1  0  0  0  0
  6  5  1  0  0  0  0
  7  5  1  0  0  0  0
  7  8  2  0  0  0  0
 11  1  1  0  0  0  0
 12  3  1  0  0  0  0
 14  4  1  0  0  0  0
 17  6  1  0  0  0  0
 19  7  1  0  0  0  0
 20 19  1  0  0  0  0
 20 30  1  1  0  0  0
 21 31  1  0  0  0  0
 21 20  1  0  0  0  0
 22 21  1  0  0  0  0
 22 26  1  0  0  0  0
 23 22  2  0  0  0  0
 24 23  1  0  0  0  0
 24 25  1  0  0  0  0
 25 35  1  0  0  0  0
 25 26  2  0  0  0  0
 27 20  1  0  0  0  0
 28 27  2  0  0  0  0
 29 19  1  0  0  0  0
 32 21  1  0  0  0  0
 33 23  1  0  0  0  0
 34 24  1  0  0  0  0
 36 37  1  0  0  0  0
 37 38  2  0  0  0  0
 37 47  1  0  0  0  0
 38 39  1  0  0  0  0
 39 40  2  0  0  0  0
 40 41  1  0  0  0  0
 41 53  1  0  0  0  0
 41 42  1  0  0  0  0
 42 54  1  6  0  0  0
 42 43  1  0  0  0  0
 42 44  1  0  0  0  0
 43 55  1  0  0  0  0
 43 27  1  0  0  0  0
 44 48  1  0  0  0  0
 45 44  2  0  0  0  0
 46 40  1  0  0  0  0
 46 56  1  0  0  0  0
 47 57  1  0  0  0  0
 47 46  2  0  0  0  0
 49 36  1  0  0  0  0
 50 38  1  0  0  0  0
 51 39  1  0  0  0  0
 52 41  1  0  0  0  0
M  END
$$$$
