MIC.pdb
 OpenBabel07022418553D

 49 48  0  0  1  0  0  0  0  0999 V2000
   -0.2820   -3.9150    6.0150 C   0  0  0  0  0  0  0  0  0  0  0  0
    0.7160   -2.5710    5.2920 S   0  0  0  0  0  0  0  0  0  0  0  0
    0.8320   -2.8140    3.4750 C   0  0  0  0  0  0  0  0  0  0  0  0
   -0.5410   -2.6330    2.9260 C   0  0  0  0  0  0  0  0  0  0  0  0
   -0.6380   -2.7980    1.4370 C   0  0  2  0  0  0  0  0  0  0  0  0
   -0.2050   -4.1330    1.0840 N   0  0  0  0  0  0  0  0  0  0  0  0
    0.1980   -1.8290    0.6870 C   0  0  0  0  0  0  0  0  0  0  0  0
    1.0880   -2.2520   -0.0890 O   0  0  0  0  0  0  0  0  0  0  0  0
   -1.2780   -3.5280    6.3170 H   0  0  0  0  0  0  0  0  0  0  0  0
    0.2910   -4.3560    6.8400 H   0  0  0  0  0  0  0  0  0  0  0  0
   -0.5110   -4.6980    5.2330 H   0  0  0  0  0  0  0  0  0  0  0  0
    1.1450   -3.8890    3.3560 H   0  0  0  0  0  0  0  0  0  0  0  0
    1.5860   -2.1340    3.0420 H   0  0  0  0  0  0  0  0  0  0  0  0
   -0.9260   -1.6550    3.2770 H   0  0  0  0  0  0  0  0  0  0  0  0
   -1.1890   -3.4220    3.3770 H   0  0  0  0  0  0  0  0  0  0  0  0
   -1.7160   -2.7290    1.1750 H   0  0  0  0  0  0  0  0  0  0  0  0
   -0.9670   -4.8380    1.2840 H   0  0  0  0  0  0  0  0  0  0  0  0
   -0.0500   -4.1320    0.0460 H   0  0  0  0  0  0  0  0  0  0  0  0
    4.4220   -0.4400   -0.0690 C   0  0  0  0  0  0  0  0  0  0  0  0
    3.0720   -0.1380    0.5540 C   0  0  0  0  0  0  0  0  0  0  0  0
    2.0680    0.3390   -0.4720 C   0  0  2  0  0  0  0  0  0  0  0  0
    2.6250    1.6080   -1.0640 C   0  0  0  0  0  0  0  0  0  0  0  0
    0.7690    0.6150    0.1790 C   0  0  2  0  0  0  0  0  0  0  0  0
    0.0590   -0.4380    0.7900 N   0  0  0  0  0  0  0  0  0  0  0  0
   -0.1100    1.4160   -0.6710 C   0  0  0  0  0  0  0  0  0  0  0  0
    0.2560    2.4290   -1.3220 O   0  0  0  0  0  0  0  0  0  0  0  0
    5.1060    0.4300   -0.0840 H   0  0  0  0  0  0  0  0  0  0  0  0
    4.2910   -0.7310   -1.1420 H   0  0  0  0  0  0  0  0  0  0  0  0
    4.8850   -1.2330    0.5270 H   0  0  0  0  0  0  0  0  0  0  0  0
    3.3080    0.7900    1.2070 H   0  0  0  0  0  0  0  0  0  0  0  0
    2.7060   -0.8520    1.2620 H   0  0  0  0  0  0  0  0  0  0  0  0
    1.9990   -0.3670   -1.3320 H   0  0  0  0  0  0  0  0  0  0  0  0
    2.3880    2.5220   -0.4710 H   0  0  0  0  0  0  0  0  0  0  0  0
    2.3230    1.8040   -2.1020 H   0  0  0  0  0  0  0  0  0  0  0  0
    3.7440    1.5910   -1.0900 H   0  0  0  0  0  0  0  0  0  0  0  0
    1.0860    1.2900    1.0640 H   0  0  0  0  0  0  0  0  0  0  0  0
   -0.7260   -0.1300    1.4500 H   0  0  0  0  0  0  0  0  0  0  0  0
   -1.5080    1.0900   -0.8290 N   0  0  0  0  0  0  0  0  0  0  0  0
   -2.4170    1.8310   -1.6430 C   0  0  1  0  0  0  0  0  0  0  0  0
   -2.9120    0.9020   -2.7540 C   0  0  0  0  0  0  0  0  0  0  0  0
   -1.5320    0.3160   -3.7580 S   0  0  0  0  0  0  0  0  0  0  0  0
   -3.5850    2.3050   -0.8610 C   0  0  0  0  0  0  0  0  0  0  0  0
   -3.6340    2.0180    0.3640 O   0  0  0  0  0  0  0  0  0  0  0  0
   -4.6120    3.0370   -1.3950 O   0  0  0  0  0  0  0  0  0  0  0  0
   -1.8380    0.2570   -0.3030 H   0  0  0  0  0  0  0  0  0  0  0  0
   -1.9560    2.6920   -2.1560 H   0  0  0  0  0  0  0  0  0  0  0  0
   -3.4270    0.0170   -2.3330 H   0  0  0  0  0  0  0  0  0  0  0  0
   -3.6500    1.4380   -3.3810 H   0  0  0  0  0  0  0  0  0  0  0  0
   -0.6180   -0.3700   -2.9200 H   0  0  0  0  0  0  0  0  0  0  0  0
  1  9  1  0  0  0  0
  1 10  1  0  0  0  0
  2  1  1  0  0  0  0
  3  2  1  0  0  0  0
  4 14  1  0  0  0  0
  4 15  1  0  0  0  0
  4  3  1  0  0  0  0
  5 16  1  6  0  0  0
  5  4  1  0  0  0  0
  6 17  1  0  0  0  0
  6  5  1  0  0  0  0
  7 24  1  0  0  0  0
  7  5  1  0  0  0  0
  8  7  2  0  0  0  0
 11  1  1  0  0  0  0
 12  3  1  0  0  0  0
 13  3  1  0  0  0  0
 18  6  1  0  0  0  0
 19 29  1  0  0  0  0
 19 20  1  0  0  0  0
 20 30  1  0  0  0  0
 20 31  1  0  0  0  0
 21 32  1  6  0  0  0
 21 23  1  0  0  0  0
 21 20  1  0  0  0  0
 22 21  1  0  0  0  0
 22 33  1  0  0  0  0
 23 24  1  0  0  0  0
 23 36  1  1  0  0  0
 24 37  1  0  0  0  0
 25 23  1  0  0  0  0
 26 25  2  0  0  0  0
 27 19  1  0  0  0  0
 28 19  1  0  0  0  0
 34 22  1  0  0  0  0
 35 22  1  0  0  0  0
 38 25  1  0  0  0  0
 38 45  1  0  0  0  0
 39 46  1  6  0  0  0
 39 42  1  0  0  0  0
 39 38  1  0  0  0  0
 40 47  1  0  0  0  0
 40 39  1  0  0  0  0
 41 49  1  0  0  0  0
 41 40  1  0  0  0  0
 42 43  1  0  0  0  0
 44 42  2  0  0  0  0
 48 40  1  0  0  0  0
M  END
$$$$
