MIF.pdb
 OpenBabel07022418553D

 58 58  0  0  1  0  0  0  0  0999 V2000
    1.3430    0.0900    5.0920 C   0  0  0  0  0  0  0  0  0  0  0  0
    2.9610    0.8180    5.1280 S   0  0  0  0  0  0  0  0  0  0  0  0
    3.1520    2.3880    4.3010 C   0  0  0  0  0  0  0  0  0  0  0  0
    3.0720    2.4010    2.8300 C   0  0  0  0  0  0  0  0  0  0  0  0
    1.8490    1.9740    2.1360 C   0  0  2  0  0  0  0  0  0  0  0  0
    0.6360    2.6680    2.4210 N   0  0  0  0  0  0  0  0  0  0  0  0
    1.7470    0.4990    2.0830 C   0  0  0  0  0  0  0  0  0  0  0  0
    2.7920   -0.1720    2.1360 O   0  0  0  0  0  0  0  0  0  0  0  0
    0.5320    0.6820    4.6750 H   0  0  0  0  0  0  0  0  0  0  0  0
    1.4280   -0.9100    4.5750 H   0  0  0  0  0  0  0  0  0  0  0  0
    1.0800   -0.2040    6.1510 H   0  0  0  0  0  0  0  0  0  0  0  0
    4.1640    2.7930    4.6330 H   0  0  0  0  0  0  0  0  0  0  0  0
    2.4420    3.1080    4.7910 H   0  0  0  0  0  0  0  0  0  0  0  0
    3.8940    1.6830    2.4780 H   0  0  0  0  0  0  0  0  0  0  0  0
    3.4770    3.3870    2.4360 H   0  0  0  0  0  0  0  0  0  0  0  0
    2.0530    2.3270    1.0210 H   0  0  0  0  0  0  0  0  0  0  0  0
    0.8560    3.6010    2.7870 H   0  0  0  0  0  0  0  0  0  0  0  0
   -0.1050    2.1460    2.8900 H   0  0  0  0  0  0  0  0  0  0  0  0
    0.6330   -4.1970    2.9480 C   0  0  0  0  0  0  0  0  0  0  0  0
   -0.7690   -3.6770    2.6210 C   0  0  0  0  0  0  0  0  0  0  0  0
   -0.7130   -2.1760    2.7470 C   0  0  2  0  0  0  0  0  0  0  0  0
   -2.0960   -1.6650    2.4110 C   0  0  0  0  0  0  0  0  0  0  0  0
    0.3700   -1.6400    1.9040 C   0  0  2  0  0  0  0  0  0  0  0  0
    0.5220   -0.2000    1.9680 N   0  0  0  0  0  0  0  0  0  0  0  0
    0.0630   -1.9420    0.4530 C   0  0  0  0  0  0  0  0  0  0  0  0
   -0.0680   -3.1090    0.0110 O   0  0  0  0  0  0  0  0  0  0  0  0
    0.5600   -5.1680    3.4940 H   0  0  0  0  0  0  0  0  0  0  0  0
    1.1340   -3.5000    3.6490 H   0  0  0  0  0  0  0  0  0  0  0  0
    1.2500   -4.3620    2.0630 H   0  0  0  0  0  0  0  0  0  0  0  0
   -1.1750   -4.0620    1.6890 H   0  0  0  0  0  0  0  0  0  0  0  0
   -1.3980   -4.0390    3.5060 H   0  0  0  0  0  0  0  0  0  0  0  0
   -0.5270   -2.0150    3.8560 H   0  0  0  0  0  0  0  0  0  0  0  0
   -2.5080   -2.2550    1.5650 H   0  0  0  0  0  0  0  0  0  0  0  0
   -2.7420   -1.8890    3.2890 H   0  0  0  0  0  0  0  0  0  0  0  0
   -2.1380   -0.5810    2.2580 H   0  0  0  0  0  0  0  0  0  0  0  0
    1.3050   -2.1910    2.0980 H   0  0  0  0  0  0  0  0  0  0  0  0
   -0.3490    0.3700    1.9240 H   0  0  0  0  0  0  0  0  0  0  0  0
   -0.0920   -0.8870   -0.4870 N   0  0  0  0  0  0  0  0  0  0  0  0
   -0.3870   -1.2060   -1.8800 C   0  0  1  0  0  0  0  0  0  0  0  0
   -1.7410   -0.6640   -2.2590 C   0  0  0  0  0  0  0  0  0  0  0  0
   -2.0260   -0.9900   -3.6610 C   0  0  0  0  0  0  0  0  0  0  0  0
   -1.7350   -0.1460   -4.7020 C   0  0  0  0  0  0  0  0  0  0  0  0
   -2.0250   -0.5190   -5.9990 C   0  0  0  0  0  0  0  0  0  0  0  0
   -2.6120   -1.7420   -6.2860 C   0  0  0  0  0  0  0  0  0  0  0  0
   -2.8920   -2.5660   -5.2230 C   0  0  0  0  0  0  0  0  0  0  0  0
   -2.6150   -2.2230   -3.9250 C   0  0  0  0  0  0  0  0  0  0  0  0
    0.7170   -0.7380   -2.7150 C   0  0  0  0  0  0  0  0  0  0  0  0
    1.7010   -0.1150   -2.1890 O   0  0  0  0  0  0  0  0  0  0  0  0
    0.8040   -0.9150   -4.0900 O   0  0  0  0  0  0  0  0  0  0  0  0
    0.0090    0.1060   -0.1620 H   0  0  0  0  0  0  0  0  0  0  0  0
   -0.4430   -2.3020   -1.9840 H   0  0  0  0  0  0  0  0  0  0  0  0
   -2.5390   -1.1070   -1.6370 H   0  0  0  0  0  0  0  0  0  0  0  0
   -1.7780    0.4320   -2.0730 H   0  0  0  0  0  0  0  0  0  0  0  0
   -1.2770    0.8160   -4.4780 H   0  0  0  0  0  0  0  0  0  0  0  0
   -1.7840    0.1660   -6.7840 H   0  0  0  0  0  0  0  0  0  0  0  0
   -2.8180   -1.9840   -7.3160 H   0  0  0  0  0  0  0  0  0  0  0  0
   -3.3520   -3.5270   -5.4370 H   0  0  0  0  0  0  0  0  0  0  0  0
   -2.8630   -2.9250   -3.1300 H   0  0  0  0  0  0  0  0  0  0  0  0
  1  2  1  0  0  0  0
  1 11  1  0  0  0  0
  3 12  1  0  0  0  0
  3 13  1  0  0  0  0
  3  2  1  0  0  0  0
  4  3  1  0  0  0  0
  5 16  1  6  0  0  0
  5  6  1  0  0  0  0
  5  4  1  0  0  0  0
  6 17  1  0  0  0  0
  6 18  1  0  0  0  0
  7  8  2  0  0  0  0
  7  5  1  0  0  0  0
  9  1  1  0  0  0  0
 10  1  1  0  0  0  0
 14  4  1  0  0  0  0
 15  4  1  0  0  0  0
 19 27  1  0  0  0  0
 19 28  1  0  0  0  0
 20 21  1  0  0  0  0
 20 19  1  0  0  0  0
 20 31  1  0  0  0  0
 21 32  1  1  0  0  0
 22 21  1  0  0  0  0
 22 34  1  0  0  0  0
 23 24  1  0  0  0  0
 23 36  1  1  0  0  0
 23 21  1  0  0  0  0
 24  7  1  0  0  0  0
 25 23  1  0  0  0  0
 26 25  2  0  0  0  0
 29 19  1  0  0  0  0
 30 20  1  0  0  0  0
 33 22  1  0  0  0  0
 35 22  1  0  0  0  0
 37 24  1  0  0  0  0
 38 50  1  0  0  0  0
 38 25  1  0  0  0  0
 39 51  1  6  0  0  0
 39 38  1  0  0  0  0
 40 53  1  0  0  0  0
 40 39  1  0  0  0  0
 40 52  1  0  0  0  0
 41 40  1  0  0  0  0
 42 54  1  0  0  0  0
 42 41  2  0  0  0  0
 43 42  1  0  0  0  0
 44 43  2  0  0  0  0
 44 45  1  0  0  0  0
 45 46  2  0  0  0  0
 46 41  1  0  0  0  0
 46 58  1  0  0  0  0
 47 48  1  0  0  0  0
 47 39  1  0  0  0  0
 49 47  2  0  0  0  0
 55 43  1  0  0  0  0
 56 44  1  0  0  0  0
 57 45  1  0  0  0  0
M  END
$$$$
