MIK.pdb
 OpenBabel07022418553D

 59 58  0  0  1  0  0  0  0  0999 V2000
    3.3810   -4.4370    2.6050 C   0  0  0  0  0  0  0  0  0  0  0  0
    4.1790   -2.8490    2.2070 S   0  0  0  0  0  0  0  0  0  0  0  0
    3.6400   -2.3550    0.5480 C   0  0  0  0  0  0  0  0  0  0  0  0
    4.2560   -1.0460    0.1360 C   0  0  0  0  0  0  0  0  0  0  0  0
    3.8740    0.0760    1.0920 C   0  0  2  0  0  0  0  0  0  0  0  0
    4.3360   -0.2510    2.4210 N   0  0  0  0  0  0  0  0  0  0  0  0
    2.3790    0.2150    1.1130 C   0  0  0  0  0  0  0  0  0  0  0  0
    1.7580    0.0450    2.1960 O   0  0  0  0  0  0  0  0  0  0  0  0
    3.8850   -5.2460    2.0340 H   0  0  0  0  0  0  0  0  0  0  0  0
    3.5040   -4.7010    3.6760 H   0  0  0  0  0  0  0  0  0  0  0  0
    2.3280   -4.4260    2.2820 H   0  0  0  0  0  0  0  0  0  0  0  0
    3.9670   -3.1180   -0.1790 H   0  0  0  0  0  0  0  0  0  0  0  0
    2.5410   -2.3440    0.5410 H   0  0  0  0  0  0  0  0  0  0  0  0
    5.3510   -1.1650    0.1570 H   0  0  0  0  0  0  0  0  0  0  0  0
    3.9410   -0.7360   -0.8720 H   0  0  0  0  0  0  0  0  0  0  0  0
    4.3490    1.0300    0.8030 H   0  0  0  0  0  0  0  0  0  0  0  0
    4.2840    0.5810    3.0500 H   0  0  0  0  0  0  0  0  0  0  0  0
    5.3110   -0.5760    2.4360 H   0  0  0  0  0  0  0  0  0  0  0  0
   -0.1490    2.8310    2.1440 C   0  0  0  0  0  0  0  0  0  0  0  0
    0.4680    3.0070    0.7880 C   0  0  0  0  0  0  0  0  0  0  0  0
   -0.1950    2.0860   -0.2510 C   0  0  2  0  0  0  0  0  0  0  0  0
   -1.6320    2.4080   -0.3410 C   0  0  0  0  0  0  0  0  0  0  0  0
    0.1770    0.6570    0.0280 C   0  0  2  0  0  0  0  0  0  0  0  0
    1.6430    0.5330   -0.0510 N   0  0  0  0  0  0  0  0  0  0  0  0
   -0.4210   -0.3560   -0.8220 C   0  0  0  0  0  0  0  0  0  0  0  0
    0.3190   -1.0970   -1.5230 O   0  0  0  0  0  0  0  0  0  0  0  0
   -0.9040    2.0420    2.0860 H   0  0  0  0  0  0  0  0  0  0  0  0
   -0.5700    3.7900    2.5440 H   0  0  0  0  0  0  0  0  0  0  0  0
    0.6160    2.5050    2.8930 H   0  0  0  0  0  0  0  0  0  0  0  0
    0.3670    4.0590    0.5000 H   0  0  0  0  0  0  0  0  0  0  0  0
    1.5510    2.7790    0.8540 H   0  0  0  0  0  0  0  0  0  0  0  0
    0.2860    2.3630   -1.2150 H   0  0  0  0  0  0  0  0  0  0  0  0
   -2.2380    2.1390    0.5410 H   0  0  0  0  0  0  0  0  0  0  0  0
   -1.6970    3.5450   -0.3570 H   0  0  0  0  0  0  0  0  0  0  0  0
   -2.0750    2.1250   -1.3170 H   0  0  0  0  0  0  0  0  0  0  0  0
   -0.0920    0.4590    1.0810 H   0  0  0  0  0  0  0  0  0  0  0  0
    2.1470    0.6760   -0.9520 H   0  0  0  0  0  0  0  0  0  0  0  0
   -1.8250   -0.6070   -0.9450 N   0  0  0  0  0  0  0  0  0  0  0  0
   -2.3590   -1.6080   -1.7920 C   0  0  1  0  0  0  0  0  0  0  0  0
   -2.8680   -2.8700   -1.2280 C   0  0  0  0  0  0  0  0  0  0  0  0
   -3.9720   -2.8830   -0.2670 C   0  0  0  0  0  0  0  0  0  0  0  0
   -3.8260   -2.2570    1.0610 C   0  0  0  0  0  0  0  0  0  0  0  0
   -2.7500   -2.8460    1.9330 C   0  0  0  0  0  0  0  0  0  0  0  0
   -1.4790   -2.7430    1.3140 N   0  0  0  0  0  0  0  0  0  0  0  0
   -3.3340   -1.0530   -2.7770 C   0  0  0  0  0  0  0  0  0  0  0  0
   -3.5540    0.1770   -2.7390 O   0  0  0  0  0  0  0  0  0  0  0  0
   -3.9690   -1.8520   -3.6920 O   0  0  0  0  0  0  0  0  0  0  0  0
   -2.4860   -0.0180   -0.3970 H   0  0  0  0  0  0  0  0  0  0  0  0
   -1.4800   -1.9270   -2.4640 H   0  0  0  0  0  0  0  0  0  0  0  0
   -3.2250   -3.4770   -2.1320 H   0  0  0  0  0  0  0  0  0  0  0  0
   -1.9830   -3.4900   -0.8980 H   0  0  0  0  0  0  0  0  0  0  0  0
   -4.9050   -2.4310   -0.7460 H   0  0  0  0  0  0  0  0  0  0  0  0
   -4.3420   -3.9460   -0.0700 H   0  0  0  0  0  0  0  0  0  0  0  0
   -3.7470   -1.1750    1.0800 H   0  0  0  0  0  0  0  0  0  0  0  0
   -4.8020   -2.4490    1.6460 H   0  0  0  0  0  0  0  0  0  0  0  0
   -2.9830   -3.8820    2.2470 H   0  0  0  0  0  0  0  0  0  0  0  0
   -2.7240   -2.2450    2.8780 H   0  0  0  0  0  0  0  0  0  0  0  0
   -0.9230   -3.6230    1.3010 H   0  0  0  0  0  0  0  0  0  0  0  0
   -0.9320   -1.9000    1.5790 H   0  0  0  0  0  0  0  0  0  0  0  0
  1 10  1  0  0  0  0
  2  1  1  0  0  0  0
  3  2  1  0  0  0  0
  4 14  1  0  0  0  0
  4  3  1  0  0  0  0
  4  5  1  0  0  0  0
  5 16  1  6  0  0  0
  5  7  1  0  0  0  0
  5  6  1  0  0  0  0
  6 18  1  0  0  0  0
  6 17  1  0  0  0  0
  7  8  2  0  0  0  0
  9  1  1  0  0  0  0
 11  1  1  0  0  0  0
 12  3  1  0  0  0  0
 13  3  1  0  0  0  0
 15  4  1  0  0  0  0
 19 28  1  0  0  0  0
 19 29  1  0  0  0  0
 20 31  1  0  0  0  0
 20 19  1  0  0  0  0
 21 32  1  6  0  0  0
 21 23  1  0  0  0  0
 21 20  1  0  0  0  0
 22 21  1  0  0  0  0
 22 33  1  0  0  0  0
 23 36  1  1  0  0  0
 24 23  1  0  0  0  0
 24  7  1  0  0  0  0
 25 23  1  0  0  0  0
 26 25  2  0  0  0  0
 27 19  1  0  0  0  0
 30 20  1  0  0  0  0
 34 22  1  0  0  0  0
 35 22  1  0  0  0  0
 37 24  1  0  0  0  0
 38 25  1  0  0  0  0
 38 48  1  0  0  0  0
 39 49  1  6  0  0  0
 39 40  1  0  0  0  0
 39 38  1  0  0  0  0
 40 51  1  0  0  0  0
 40 41  1  0  0  0  0
 41 53  1  0  0  0  0
 41 42  1  0  0  0  0
 42 54  1  0  0  0  0
 42 55  1  0  0  0  0
 42 43  1  0  0  0  0
 43 56  1  0  0  0  0
 43 57  1  0  0  0  0
 44 59  1  0  0  0  0
 44 43  1  0  0  0  0
 45 46  1  0  0  0  0
 45 39  1  0  0  0  0
 47 45  2  0  0  0  0
 50 40  1  0  0  0  0
 52 41  1  0  0  0  0
 58 44  1  0  0  0  0
M  END
$$$$
