MIP.pdb
 OpenBabel07022418553D

 52 52  0  0  1  0  0  0  0  0999 V2000
    2.5660   -6.7330    2.8480 C   0  0  0  0  0  0  0  0  0  0  0  0
    2.3090   -5.1290    3.6940 S   0  0  0  0  0  0  0  0  0  0  0  0
    0.9750   -4.1980    2.8410 C   0  0  0  0  0  0  0  0  0  0  0  0
    1.4020   -3.8110    1.4600 C   0  0  0  0  0  0  0  0  0  0  0  0
    0.3570   -3.0520    0.6830 C   0  0  2  0  0  0  0  0  0  0  0  0
    0.9040   -2.7470   -0.6290 N   0  0  0  0  0  0  0  0  0  0  0  0
   -0.0760   -1.8450    1.3930 C   0  0  0  0  0  0  0  0  0  0  0  0
   -0.6370   -1.8070    2.5130 O   0  0  0  0  0  0  0  0  0  0  0  0
    1.6330   -7.3550    2.9550 H   0  0  0  0  0  0  0  0  0  0  0  0
    3.4300   -7.2160    3.3050 H   0  0  0  0  0  0  0  0  0  0  0  0
    2.7220   -6.5580    1.7540 H   0  0  0  0  0  0  0  0  0  0  0  0
    0.8560   -3.2750    3.4490 H   0  0  0  0  0  0  0  0  0  0  0  0
    0.0970   -4.8530    2.8280 H   0  0  0  0  0  0  0  0  0  0  0  0
    2.3900   -3.3080    1.4370 H   0  0  0  0  0  0  0  0  0  0  0  0
    1.5670   -4.7760    0.8970 H   0  0  0  0  0  0  0  0  0  0  0  0
   -0.4890   -3.7760    0.5100 H   0  0  0  0  0  0  0  0  0  0  0  0
    0.2060   -2.2550   -1.2250 H   0  0  0  0  0  0  0  0  0  0  0  0
    1.7690   -2.2040   -0.5460 H   0  0  0  0  0  0  0  0  0  0  0  0
    2.7280    0.9550    0.1920 C   0  0  0  0  0  0  0  0  0  0  0  0
    1.8170    1.9880    0.7590 C   0  0  0  0  0  0  0  0  0  0  0  0
    0.9060    1.5330    1.8470 C   0  0  2  0  0  0  0  0  0  0  0  0
    1.6310    0.9840    3.0520 C   0  0  0  0  0  0  0  0  0  0  0  0
   -0.2380    0.6470    1.3910 C   0  0  2  0  0  0  0  0  0  0  0  0
    0.1540   -0.5590    0.7610 N   0  0  0  0  0  0  0  0  0  0  0  0
   -1.2190    1.4860    0.6790 C   0  0  0  0  0  0  0  0  0  0  0  0
   -1.5660    2.5980    1.2370 O   0  0  0  0  0  0  0  0  0  0  0  0
    3.7980    1.3220    0.1450 H   0  0  0  0  0  0  0  0  0  0  0  0
    2.4590    0.7780   -0.8670 H   0  0  0  0  0  0  0  0  0  0  0  0
    2.7490   -0.0060    0.7350 H   0  0  0  0  0  0  0  0  0  0  0  0
    1.2070    2.5080   -0.0100 H   0  0  0  0  0  0  0  0  0  0  0  0
    2.4700    2.7900    1.2150 H   0  0  0  0  0  0  0  0  0  0  0  0
    0.4110    2.4850    2.2320 H   0  0  0  0  0  0  0  0  0  0  0  0
    2.5080    0.3770    2.7910 H   0  0  0  0  0  0  0  0  0  0  0  0
    0.9170    0.4050    3.6790 H   0  0  0  0  0  0  0  0  0  0  0  0
    2.0080    1.8000    3.7260 H   0  0  0  0  0  0  0  0  0  0  0  0
   -0.7630    0.3800    2.3720 H   0  0  0  0  0  0  0  0  0  0  0  0
    0.6230   -0.5610   -0.1700 H   0  0  0  0  0  0  0  0  0  0  0  0
   -1.8400    1.2300   -0.5540 N   0  0  0  0  0  0  0  0  0  0  0  0
   -1.6280    0.0580   -1.3740 C   0  0  0  0  0  0  0  0  0  0  0  0
   -2.8540    0.0260   -2.3100 C   0  0  0  0  0  0  0  0  0  0  0  0
   -2.8960    1.5230   -2.6530 C   0  0  0  0  0  0  0  0  0  0  0  0
   -2.8170    2.0940   -1.2500 C   0  0  1  0  0  0  0  0  0  0  0  0
   -4.1620    1.9200   -0.6440 C   0  0  0  0  0  0  0  0  0  0  0  0
   -4.3120    1.1270    0.3140 O   0  0  0  0  0  0  0  0  0  0  0  0
   -5.2590    2.6110   -1.1090 O   0  0  0  0  0  0  0  0  0  0  0  0
   -0.7060    0.1190   -1.9910 H   0  0  0  0  0  0  0  0  0  0  0  0
   -1.6660   -0.8310   -0.7550 H   0  0  0  0  0  0  0  0  0  0  0  0
   -2.6320   -0.5930   -3.1770 H   0  0  0  0  0  0  0  0  0  0  0  0
   -3.7200   -0.2630   -1.7160 H   0  0  0  0  0  0  0  0  0  0  0  0
   -1.9780    1.7440   -3.2210 H   0  0  0  0  0  0  0  0  0  0  0  0
   -3.8240    1.7750   -3.1600 H   0  0  0  0  0  0  0  0  0  0  0  0
   -2.4900    3.1410   -1.2610 H   0  0  0  0  0  0  0  0  0  0  0  0
  1  9  1  0  0  0  0
  1 10  1  0  0  0  0
  1  2  1  0  0  0  0
  3 12  1  0  0  0  0
  3  2  1  0  0  0  0
  4  3  1  0  0  0  0
  5 16  1  6  0  0  0
  5  7  1  0  0  0  0
  5  4  1  0  0  0  0
  6 18  1  0  0  0  0
  6  5  1  0  0  0  0
  7  8  2  0  0  0  0
 11  1  1  0  0  0  0
 13  3  1  0  0  0  0
 14  4  1  0  0  0  0
 15  4  1  0  0  0  0
 17  6  1  0  0  0  0
 19 29  1  0  0  0  0
 19 20  1  0  0  0  0
 20 31  1  0  0  0  0
 20 21  1  0  0  0  0
 21 32  1  1  0  0  0
 21 22  1  0  0  0  0
 22 34  1  0  0  0  0
 22 35  1  0  0  0  0
 23 21  1  0  0  0  0
 23 36  1  1  0  0  0
 24 23  1  0  0  0  0
 24  7  1  0  0  0  0
 25 26  2  0  0  0  0
 25 23  1  0  0  0  0
 27 19  1  0  0  0  0
 28 19  1  0  0  0  0
 30 20  1  0  0  0  0
 33 22  1  0  0  0  0
 37 24  1  0  0  0  0
 38 25  1  0  0  0  0
 39 47  1  0  0  0  0
 39 38  1  0  0  0  0
 40 49  1  0  0  0  0
 40 39  1  0  0  0  0
 41 40  1  0  0  0  0
 41 42  1  0  0  0  0
 42 52  1  6  0  0  0
 42 43  1  0  0  0  0
 42 38  1  0  0  0  0
 43 44  1  0  0  0  0
 45 43  2  0  0  0  0
 46 39  1  0  0  0  0
 48 40  1  0  0  0  0
 50 41  1  0  0  0  0
 51 41  1  0  0  0  0
M  END
$$$$
