MIR.pdb
 OpenBabel07022418553D

 61 60  0  0  1  0  0  0  0  0999 V2000
    3.7340   -2.2210    5.8210 C   0  0  0  0  0  0  0  0  0  0  0  0
    4.8570   -1.8090    4.4790 S   0  0  0  0  0  0  0  0  0  0  0  0
    4.2750   -2.3890    2.8770 C   0  0  0  0  0  0  0  0  0  0  0  0
    3.0180   -1.7000    2.4240 C   0  0  0  0  0  0  0  0  0  0  0  0
    3.1850   -0.2090    2.2820 C   0  0  2  0  0  0  0  0  0  0  0  0
    3.5610    0.4410    3.4930 N   0  0  0  0  0  0  0  0  0  0  0  0
    1.8330    0.3160    1.8660 C   0  0  0  0  0  0  0  0  0  0  0  0
    1.2700    1.1890    2.5920 O   0  0  0  0  0  0  0  0  0  0  0  0
    3.4320   -1.2500    6.3110 H   0  0  0  0  0  0  0  0  0  0  0  0
    2.7870   -2.6780    5.4750 H   0  0  0  0  0  0  0  0  0  0  0  0
    4.2150   -2.8190    6.6250 H   0  0  0  0  0  0  0  0  0  0  0  0
    4.0560   -3.4740    2.9320 H   0  0  0  0  0  0  0  0  0  0  0  0
    5.0640   -2.2030    2.1290 H   0  0  0  0  0  0  0  0  0  0  0  0
    2.1830   -1.9770    3.0830 H   0  0  0  0  0  0  0  0  0  0  0  0
    2.7810   -2.1000    1.4110 H   0  0  0  0  0  0  0  0  0  0  0  0
    3.8800    0.0630    1.4740 H   0  0  0  0  0  0  0  0  0  0  0  0
    4.4880    0.9150    3.4450 H   0  0  0  0  0  0  0  0  0  0  0  0
    2.8170    1.0320    3.9240 H   0  0  0  0  0  0  0  0  0  0  0  0
    2.3050    1.9470   -0.8330 C   0  0  0  0  0  0  0  0  0  0  0  0
    0.8790    2.3880   -0.8380 C   0  0  0  0  0  0  0  0  0  0  0  0
   -0.1390    1.2220   -0.8880 C   0  0  2  0  0  0  0  0  0  0  0  0
   -1.4860    2.0060   -0.9280 C   0  0  0  0  0  0  0  0  0  0  0  0
   -0.1380    0.4340    0.3670 C   0  0  2  0  0  0  0  0  0  0  0  0
    1.1810   -0.1240    0.7110 N   0  0  0  0  0  0  0  0  0  0  0  0
   -1.0680   -0.6850    0.5170 C   0  0  0  0  0  0  0  0  0  0  0  0
   -0.5580   -1.7660    1.0630 O   0  0  0  0  0  0  0  0  0  0  0  0
    2.4890    0.9000   -1.0830 H   0  0  0  0  0  0  0  0  0  0  0  0
    2.8230    2.2950    0.1060 H   0  0  0  0  0  0  0  0  0  0  0  0
    2.8960    2.5200   -1.6390 H   0  0  0  0  0  0  0  0  0  0  0  0
    0.6440    3.0610    0.0220 H   0  0  0  0  0  0  0  0  0  0  0  0
    0.6900    3.0070   -1.7590 H   0  0  0  0  0  0  0  0  0  0  0  0
    0.0030    0.7230   -1.8230 H   0  0  0  0  0  0  0  0  0  0  0  0
   -1.2760    3.0900   -1.2130 H   0  0  0  0  0  0  0  0  0  0  0  0
   -2.1470    1.6600   -1.7190 H   0  0  0  0  0  0  0  0  0  0  0  0
   -1.9160    2.0600    0.0750 H   0  0  0  0  0  0  0  0  0  0  0  0
   -0.4100    1.1710    1.2000 H   0  0  0  0  0  0  0  0  0  0  0  0
    1.5800   -0.8400    0.0990 H   0  0  0  0  0  0  0  0  0  0  0  0
   -4.3750    0.3530   -2.7350 N   0  0  0  0  0  0  0  0  0  0  0  0
   -3.8130   -0.8570   -3.1750 C   0  0  0  0  0  0  0  0  0  0  0  0
   -4.4630   -1.6020   -3.9850 N   0  0  0  0  0  0  0  0  0  0  0  0
   -2.5310   -1.2450   -2.7190 N   0  0  0  0  0  0  0  0  0  0  0  0
   -2.1550   -2.6130   -2.6120 C   0  0  0  0  0  0  0  0  0  0  0  0
   -2.8210   -3.4490   -1.6160 C   0  0  0  0  0  0  0  0  0  0  0  0
   -2.7240   -3.2210   -0.1780 C   0  0  0  0  0  0  0  0  0  0  0  0
   -3.1310   -1.9980    0.4890 C   0  0  2  0  0  0  0  0  0  0  0  0
   -2.4290   -0.7790    0.1720 N   0  0  0  0  0  0  0  0  0  0  0  0
   -3.0000   -2.1650    1.9900 C   0  0  0  0  0  0  0  0  0  0  0  0
   -3.4790   -3.1980    2.4990 O   0  0  0  0  0  0  0  0  0  0  0  0
   -2.3850   -1.2290    2.7750 O   0  0  0  0  0  0  0  0  0  0  0  0
   -4.4130    1.2130   -3.3210 H   0  0  0  0  0  0  0  0  0  0  0  0
   -4.7750    0.3970   -1.7740 H   0  0  0  0  0  0  0  0  0  0  0  0
   -5.4220   -1.3240   -4.3320 H   0  0  0  0  0  0  0  0  0  0  0  0
   -1.8540   -0.5050   -2.4780 H   0  0  0  0  0  0  0  0  0  0  0  0
   -2.2650   -3.0900   -3.6290 H   0  0  0  0  0  0  0  0  0  0  0  0
   -1.0440   -2.6870   -2.4310 H   0  0  0  0  0  0  0  0  0  0  0  0
   -3.9200   -3.6330   -1.8740 H   0  0  0  0  0  0  0  0  0  0  0  0
   -2.4100   -4.5170   -1.7860 H   0  0  0  0  0  0  0  0  0  0  0  0
   -1.6820   -3.5750    0.2030 H   0  0  0  0  0  0  0  0  0  0  0  0
   -3.3600   -4.0790    0.2960 H   0  0  0  0  0  0  0  0  0  0  0  0
   -4.2560   -1.8050    0.4000 H   0  0  0  0  0  0  0  0  0  0  0  0
   -2.8760    0.0260   -0.2880 H   0  0  0  0  0  0  0  0  0  0  0  0
  1  9  1  0  0  0  0
  1 11  1  0  0  0  0
  2  1  1  0  0  0  0
  3 12  1  0  0  0  0
  3  2  1  0  0  0  0
  4  3  1  0  0  0  0
  4 14  1  0  0  0  0
  5 16  1  6  0  0  0
  5  4  1  0  0  0  0
  5  6  1  0  0  0  0
  6 18  1  0  0  0  0
  7  5  1  0  0  0  0
  7  8  2  0  0  0  0
 10  1  1  0  0  0  0
 13  3  1  0  0  0  0
 15  4  1  0  0  0  0
 17  6  1  0  0  0  0
 19 28  1  0  0  0  0
 20 19  1  0  0  0  0
 20 30  1  0  0  0  0
 21 32  1  6  0  0  0
 21 20  1  0  0  0  0
 21 23  1  0  0  0  0
 22 21  1  0  0  0  0
 22 35  1  0  0  0  0
 23 25  1  0  0  0  0
 23 24  1  0  0  0  0
 23 36  1  1  0  0  0
 24  7  1  0  0  0  0
 25 26  2  0  0  0  0
 27 19  1  0  0  0  0
 29 19  1  0  0  0  0
 31 20  1  0  0  0  0
 33 22  1  0  0  0  0
 34 22  1  0  0  0  0
 37 24  1  0  0  0  0
 38 51  1  0  0  0  0
 39 38  1  0  0  0  0
 39 41  1  0  0  0  0
 40 39  2  0  0  0  0
 41 42  1  0  0  0  0
 41 53  1  0  0  0  0
 42 55  1  0  0  0  0
 42 43  1  0  0  0  0
 43 44  1  0  0  0  0
 44 58  1  0  0  0  0
 44 59  1  0  0  0  0
 44 45  1  0  0  0  0
 45 60  1  6  0  0  0
 45 47  1  0  0  0  0
 46 45  1  0  0  0  0
 46 25  1  0  0  0  0
 47 48  2  0  0  0  0
 47 49  1  0  0  0  0
 50 38  1  0  0  0  0
 52 40  1  0  0  0  0
 54 42  1  0  0  0  0
 56 43  1  0  0  0  0
 57 43  1  0  0  0  0
 61 46  1  0  0  0  0
M  END
$$$$
