MIS.pdb
 OpenBabel07022418553D

 49 48  0  0  1  0  0  0  0  0999 V2000
   -0.0260   -6.0670    3.3260 C   0  0  0  0  0  0  0  0  0  0  0  0
    1.3730   -5.4670    4.2650 S   0  0  0  0  0  0  0  0  0  0  0  0
    1.1560   -3.9250    5.1020 C   0  0  0  0  0  0  0  0  0  0  0  0
    1.1470   -2.6760    4.3090 C   0  0  0  0  0  0  0  0  0  0  0  0
    0.1100   -2.5510    3.2530 C   0  0  2  0  0  0  0  0  0  0  0  0
    0.1750   -3.5170    2.2100 N   0  0  0  0  0  0  0  0  0  0  0  0
    0.2200   -1.1900    2.6390 C   0  0  0  0  0  0  0  0  0  0  0  0
    0.2030   -0.1390    3.3460 O   0  0  0  0  0  0  0  0  0  0  0  0
   -0.2130   -7.1360    3.7130 H   0  0  0  0  0  0  0  0  0  0  0  0
   -0.9880   -5.5660    3.5370 H   0  0  0  0  0  0  0  0  0  0  0  0
    0.1930   -6.2230    2.2540 H   0  0  0  0  0  0  0  0  0  0  0  0
    1.9290   -3.8590    5.9430 H   0  0  0  0  0  0  0  0  0  0  0  0
    0.1800   -3.9550    5.6990 H   0  0  0  0  0  0  0  0  0  0  0  0
    2.1840   -2.4920    3.8610 H   0  0  0  0  0  0  0  0  0  0  0  0
    1.0610   -1.8160    5.0540 H   0  0  0  0  0  0  0  0  0  0  0  0
   -0.9210   -2.6680    3.7170 H   0  0  0  0  0  0  0  0  0  0  0  0
   -0.6930   -3.6610    1.6860 H   0  0  0  0  0  0  0  0  0  0  0  0
    1.0500   -3.4730    1.6800 H   0  0  0  0  0  0  0  0  0  0  0  0
    3.2880    1.7840   -1.5080 C   0  0  0  0  0  0  0  0  0  0  0  0
    1.8830    1.6140   -0.9150 C   0  0  0  0  0  0  0  0  0  0  0  0
    1.7200    0.3160   -0.2220 C   0  0  2  0  0  0  0  0  0  0  0  0
    1.9070   -0.8800   -1.1240 C   0  0  0  0  0  0  0  0  0  0  0  0
    0.4580    0.2780    0.5940 C   0  0  2  0  0  0  0  0  0  0  0  0
    0.3460   -1.0340    1.2530 N   0  0  0  0  0  0  0  0  0  0  0  0
   -0.7120    0.4070   -0.2810 C   0  0  0  0  0  0  0  0  0  0  0  0
   -1.4120   -0.6130   -0.4990 O   0  0  0  0  0  0  0  0  0  0  0  0
    3.7820    0.8180   -1.7000 H   0  0  0  0  0  0  0  0  0  0  0  0
    3.8860    2.2730   -0.7100 H   0  0  0  0  0  0  0  0  0  0  0  0
    3.2800    2.4680   -2.3710 H   0  0  0  0  0  0  0  0  0  0  0  0
    1.6970    2.5200   -0.3250 H   0  0  0  0  0  0  0  0  0  0  0  0
    1.2200    1.6910   -1.8340 H   0  0  0  0  0  0  0  0  0  0  0  0
    2.5970    0.2420    0.5140 H   0  0  0  0  0  0  0  0  0  0  0  0
    0.9330   -1.3210   -1.4360 H   0  0  0  0  0  0  0  0  0  0  0  0
    2.4460   -0.6640   -2.0550 H   0  0  0  0  0  0  0  0  0  0  0  0
    2.4910   -1.7000   -0.6100 H   0  0  0  0  0  0  0  0  0  0  0  0
    0.4280    1.0860    1.3490 H   0  0  0  0  0  0  0  0  0  0  0  0
    0.3630   -1.8710    0.6330 H   0  0  0  0  0  0  0  0  0  0  0  0
   -3.0240    3.7020   -0.9340 O   0  0  0  0  0  0  0  0  0  0  0  0
   -3.4530    2.4090   -1.1110 C   0  0  0  0  0  0  0  0  0  0  0  0
   -2.3470    1.5840   -1.7820 C   0  0  2  0  0  0  0  0  0  0  0  0
   -1.1530    1.5940   -0.9210 N   0  0  0  0  0  0  0  0  0  0  0  0
   -2.0440    2.1810   -3.0790 C   0  0  0  0  0  0  0  0  0  0  0  0
   -0.8930    2.6100   -3.3200 O   0  0  0  0  0  0  0  0  0  0  0  0
   -3.0340    2.2680   -4.0350 O   0  0  0  0  0  0  0  0  0  0  0  0
   -3.7040    4.2530   -0.5120 H   0  0  0  0  0  0  0  0  0  0  0  0
   -4.3330    2.3360   -1.7660 H   0  0  0  0  0  0  0  0  0  0  0  0
   -3.7010    1.9250   -0.1270 H   0  0  0  0  0  0  0  0  0  0  0  0
   -2.7420    0.5530   -1.8210 H   0  0  0  0  0  0  0  0  0  0  0  0
   -0.6440    2.4890   -0.7700 H   0  0  0  0  0  0  0  0  0  0  0  0
  1 10  1  0  0  0  0
  1  9  1  0  0  0  0
  1  2  1  0  0  0  0
  2  3  1  0  0  0  0
  3 13  1  0  0  0  0
  3 12  1  0  0  0  0
  4 15  1  0  0  0  0
  4  3  1  0  0  0  0
  5 16  1  1  0  0  0
  5  4  1  0  0  0  0
  6  5  1  0  0  0  0
  7  5  1  0  0  0  0
  7  8  2  0  0  0  0
 11  1  1  0  0  0  0
 14  4  1  0  0  0  0
 17  6  1  0  0  0  0
 18  6  1  0  0  0  0
 19 20  1  0  0  0  0
 19 28  1  0  0  0  0
 20 30  1  0  0  0  0
 20 21  1  0  0  0  0
 21 32  1  1  0  0  0
 21 23  1  0  0  0  0
 22 35  1  0  0  0  0
 22 21  1  0  0  0  0
 23 24  1  0  0  0  0
 23 36  1  1  0  0  0
 24  7  1  0  0  0  0
 25 23  1  0  0  0  0
 26 25  2  0  0  0  0
 27 19  1  0  0  0  0
 29 19  1  0  0  0  0
 31 20  1  0  0  0  0
 33 22  1  0  0  0  0
 34 22  1  0  0  0  0
 37 24  1  0  0  0  0
 38 45  1  0  0  0  0
 39 38  1  0  0  0  0
 39 47  1  0  0  0  0
 40 48  1  6  0  0  0
 40 39  1  0  0  0  0
 40 41  1  0  0  0  0
 41 49  1  0  0  0  0
 41 25  1  0  0  0  0
 42 40  1  0  0  0  0
 43 42  1  0  0  0  0
 44 42  2  0  0  0  0
 46 39  1  0  0  0  0
M  END
$$$$
