MIT.pdb
 OpenBabel07022418553D

 52 51  0  0  1  0  0  0  0  0999 V2000
    1.4890   -5.4850    0.3180 C   0  0  0  0  0  0  0  0  0  0  0  0
    2.4030   -4.7870    1.7380 S   0  0  0  0  0  0  0  0  0  0  0  0
    1.1580   -4.1170    2.8940 C   0  0  0  0  0  0  0  0  0  0  0  0
    0.4770   -2.9510    2.2240 C   0  0  0  0  0  0  0  0  0  0  0  0
    1.5180   -1.9190    1.8910 C   0  0  2  0  0  0  0  0  0  0  0  0
    2.1510   -1.4930    3.1210 N   0  0  0  0  0  0  0  0  0  0  0  0
    0.9800   -0.8030    1.0980 C   0  0  0  0  0  0  0  0  0  0  0  0
    0.4890   -1.1040   -0.0210 O   0  0  0  0  0  0  0  0  0  0  0  0
    0.5100   -4.9570    0.2060 H   0  0  0  0  0  0  0  0  0  0  0  0
    2.0400   -5.3420   -0.6230 H   0  0  0  0  0  0  0  0  0  0  0  0
    1.2800   -6.5500    0.5460 H   0  0  0  0  0  0  0  0  0  0  0  0
    1.6990   -3.7960    3.7980 H   0  0  0  0  0  0  0  0  0  0  0  0
    0.4370   -4.9360    3.1300 H   0  0  0  0  0  0  0  0  0  0  0  0
   -0.2770   -2.5640    2.9440 H   0  0  0  0  0  0  0  0  0  0  0  0
    0.0100   -3.2930    1.2770 H   0  0  0  0  0  0  0  0  0  0  0  0
    2.2710   -2.4350    1.2530 H   0  0  0  0  0  0  0  0  0  0  0  0
    2.7150   -0.6310    2.8790 H   0  0  0  0  0  0  0  0  0  0  0  0
    2.8560   -2.2180    3.4350 H   0  0  0  0  0  0  0  0  0  0  0  0
    3.0990    0.6650   -0.7390 C   0  0  0  0  0  0  0  0  0  0  0  0
    2.0400    1.5700   -1.3130 C   0  0  0  0  0  0  0  0  0  0  0  0
    1.2920    2.3100   -0.2720 C   0  0  2  0  0  0  0  0  0  0  0  0
    2.2840    3.1580    0.5340 C   0  0  0  0  0  0  0  0  0  0  0  0
    0.4040    1.5930    0.6410 C   0  0  2  0  0  0  0  0  0  0  0  0
    0.9610    0.5650    1.4710 N   0  0  0  0  0  0  0  0  0  0  0  0
   -0.9710    1.2990    0.1310 C   0  0  0  0  0  0  0  0  0  0  0  0
   -1.4700    1.9780   -0.8180 O   0  0  0  0  0  0  0  0  0  0  0  0
    4.0770    0.9510   -1.1930 H   0  0  0  0  0  0  0  0  0  0  0  0
    2.9420   -0.4030   -0.9970 H   0  0  0  0  0  0  0  0  0  0  0  0
    3.2450    0.8190    0.3500 H   0  0  0  0  0  0  0  0  0  0  0  0
    1.3900    1.0420   -2.0460 H   0  0  0  0  0  0  0  0  0  0  0  0
    2.5650    2.3400   -1.9310 H   0  0  0  0  0  0  0  0  0  0  0  0
    0.6730    3.0790   -0.8100 H   0  0  0  0  0  0  0  0  0  0  0  0
    2.7720    2.5660    1.3310 H   0  0  0  0  0  0  0  0  0  0  0  0
    3.0400    3.6250   -0.1340 H   0  0  0  0  0  0  0  0  0  0  0  0
    1.6900    3.9570    1.0660 H   0  0  0  0  0  0  0  0  0  0  0  0
    0.1370    2.4130    1.4380 H   0  0  0  0  0  0  0  0  0  0  0  0
    1.3930    0.7840    2.4230 H   0  0  0  0  0  0  0  0  0  0  0  0
   -4.6590   -1.4870   -1.0470 C   0  0  0  0  0  0  0  0  0  0  0  0
   -3.2630   -1.3550   -0.4630 C   0  0  1  0  0  0  0  0  0  0  0  0
   -2.3380   -1.5870   -1.4810 O   0  0  0  0  0  0  0  0  0  0  0  0
   -3.1370    0.0400    0.0940 C   0  0  2  0  0  0  0  0  0  0  0  0
   -1.8050    0.2780    0.6490 N   0  0  0  0  0  0  0  0  0  0  0  0
   -4.1880    0.3130    1.0910 C   0  0  0  0  0  0  0  0  0  0  0  0
   -3.8640    0.6890    2.2350 O   0  0  0  0  0  0  0  0  0  0  0  0
   -5.5110    0.1550    0.7630 O   0  0  0  0  0  0  0  0  0  0  0  0
   -5.3840   -1.9080   -0.3110 H   0  0  0  0  0  0  0  0  0  0  0  0
   -4.6340   -2.1730   -1.9310 H   0  0  0  0  0  0  0  0  0  0  0  0
   -5.0660   -0.5420   -1.4160 H   0  0  0  0  0  0  0  0  0  0  0  0
   -3.1630   -2.0740    0.3660 H   0  0  0  0  0  0  0  0  0  0  0  0
   -2.1540   -0.7100   -1.9010 H   0  0  0  0  0  0  0  0  0  0  0  0
   -3.2960    0.7540   -0.7390 H   0  0  0  0  0  0  0  0  0  0  0  0
   -1.4940   -0.3140    1.4590 H   0  0  0  0  0  0  0  0  0  0  0  0
  1 11  1  0  0  0  0
  1  2  1  0  0  0  0
  2  3  1  0  0  0  0
  3 13  1  0  0  0  0
  3 12  1  0  0  0  0
  4  3  1  0  0  0  0
  4 14  1  0  0  0  0
  5 16  1  6  0  0  0
  5  4  1  0  0  0  0
  5  6  1  0  0  0  0
  6 18  1  0  0  0  0
  7 24  1  0  0  0  0
  7  5  1  0  0  0  0
  8  7  2  0  0  0  0
  9  1  1  0  0  0  0
 10  1  1  0  0  0  0
 15  4  1  0  0  0  0
 17  6  1  0  0  0  0
 19 29  1  0  0  0  0
 20 19  1  0  0  0  0
 20 21  1  0  0  0  0
 21 32  1  6  0  0  0
 21 22  1  0  0  0  0
 21 23  1  0  0  0  0
 22 35  1  0  0  0  0
 22 33  1  0  0  0  0
 23 36  1  1  0  0  0
 23 24  1  0  0  0  0
 24 37  1  0  0  0  0
 25 23  1  0  0  0  0
 25 42  1  0  0  0  0
 26 25  2  0  0  0  0
 27 19  1  0  0  0  0
 28 19  1  0  0  0  0
 30 20  1  0  0  0  0
 31 20  1  0  0  0  0
 34 22  1  0  0  0  0
 38 39  1  0  0  0  0
 38 46  1  0  0  0  0
 39 41  1  0  0  0  0
 39 49  1  1  0  0  0
 40 39  1  0  0  0  0
 41 51  1  6  0  0  0
 41 42  1  0  0  0  0
 41 43  1  0  0  0  0
 42 52  1  0  0  0  0
 43 44  1  0  0  0  0
 45 43  2  0  0  0  0
 47 38  1  0  0  0  0
 48 38  1  0  0  0  0
 50 40  1  0  0  0  0
M  END
$$$$
