MIV.pdb
 OpenBabel07022418553D

 54 53  0  0  1  0  0  0  0  0999 V2000
    2.0260   -5.1120   -0.8840 C   0  0  0  0  0  0  0  0  0  0  0  0
    2.6140   -4.7160    0.7670 S   0  0  0  0  0  0  0  0  0  0  0  0
    1.2830   -4.2860    1.8960 C   0  0  0  0  0  0  0  0  0  0  0  0
    0.5940   -2.9950    1.5060 C   0  0  0  0  0  0  0  0  0  0  0  0
    1.5890   -1.8640    1.5010 C   0  0  2  0  0  0  0  0  0  0  0  0
    2.1650   -1.7060    2.8000 N   0  0  0  0  0  0  0  0  0  0  0  0
    1.0420   -0.6310    0.9090 C   0  0  0  0  0  0  0  0  0  0  0  0
    0.5740   -0.7300   -0.2570 O   0  0  0  0  0  0  0  0  0  0  0  0
    1.2830   -4.4190   -1.2810 H   0  0  0  0  0  0  0  0  0  0  0  0
    2.8830   -5.1000   -1.6070 H   0  0  0  0  0  0  0  0  0  0  0  0
    1.6370   -6.1720   -0.9150 H   0  0  0  0  0  0  0  0  0  0  0  0
    1.7060   -4.1960    2.9170 H   0  0  0  0  0  0  0  0  0  0  0  0
    0.5680   -5.1410    1.8890 H   0  0  0  0  0  0  0  0  0  0  0  0
   -0.1610   -2.7530    2.3080 H   0  0  0  0  0  0  0  0  0  0  0  0
    0.1020   -3.1600    0.5490 H   0  0  0  0  0  0  0  0  0  0  0  0
    2.4230   -2.2000    0.8180 H   0  0  0  0  0  0  0  0  0  0  0  0
    2.6790   -0.7950    2.8770 H   0  0  0  0  0  0  0  0  0  0  0  0
    2.8110   -2.5120    3.0320 H   0  0  0  0  0  0  0  0  0  0  0  0
    3.2360    1.1820   -0.5960 C   0  0  0  0  0  0  0  0  0  0  0  0
    2.1420    2.1400   -0.9890 C   0  0  0  0  0  0  0  0  0  0  0  0
    1.3150    2.6590    0.1150 C   0  0  2  0  0  0  0  0  0  0  0  0
    2.2270    3.3860    1.1090 C   0  0  0  0  0  0  0  0  0  0  0  0
    0.4270    1.7570    0.8560 C   0  0  2  0  0  0  0  0  0  0  0  0
    0.9980    0.6410    1.5340 N   0  0  0  0  0  0  0  0  0  0  0  0
   -0.9120    1.5120    0.2570 C   0  0  0  0  0  0  0  0  0  0  0  0
   -1.3530    2.2940   -0.5800 O   0  0  0  0  0  0  0  0  0  0  0  0
    4.2210    1.4740   -1.0480 H   0  0  0  0  0  0  0  0  0  0  0  0
    3.0190    0.1890   -1.0310 H   0  0  0  0  0  0  0  0  0  0  0  0
    3.3350    1.0430    0.5030 H   0  0  0  0  0  0  0  0  0  0  0  0
    2.6630    3.0260   -1.4670 H   0  0  0  0  0  0  0  0  0  0  0  0
    1.5760    1.6910   -1.8280 H   0  0  0  0  0  0  0  0  0  0  0  0
    0.6570    3.4970   -0.2770 H   0  0  0  0  0  0  0  0  0  0  0  0
    2.7860    2.6630    1.7300 H   0  0  0  0  0  0  0  0  0  0  0  0
    2.8630    4.1300    0.6060 H   0  0  0  0  0  0  0  0  0  0  0  0
    1.5440    3.9400    1.7940 H   0  0  0  0  0  0  0  0  0  0  0  0
    0.0780    2.4320    1.7690 H   0  0  0  0  0  0  0  0  0  0  0  0
    1.4000    0.7070    2.4940 H   0  0  0  0  0  0  0  0  0  0  0  0
   -4.5190   -1.3640   -1.1170 C   0  0  0  0  0  0  0  0  0  0  0  0
   -3.0950   -1.2090   -0.6100 C   0  0  0  0  0  0  0  0  0  0  0  0
   -2.8520   -2.3940    0.2820 C   0  0  0  0  0  0  0  0  0  0  0  0
   -2.9870    0.1010    0.0880 C   0  0  2  0  0  0  0  0  0  0  0  0
   -1.6880    0.4070    0.6310 N   0  0  0  0  0  0  0  0  0  0  0  0
   -3.9880    0.2450    1.1740 C   0  0  0  0  0  0  0  0  0  0  0  0
   -3.6720    0.5810    2.3520 O   0  0  0  0  0  0  0  0  0  0  0  0
   -5.3570    0.0180    0.9750 O   0  0  0  0  0  0  0  0  0  0  0  0
   -5.1690   -1.8750   -0.3770 H   0  0  0  0  0  0  0  0  0  0  0  0
   -4.9150   -0.3460   -1.2900 H   0  0  0  0  0  0  0  0  0  0  0  0
   -4.5500   -1.8710   -2.1090 H   0  0  0  0  0  0  0  0  0  0  0  0
   -2.4720   -1.2280   -1.5270 H   0  0  0  0  0  0  0  0  0  0  0  0
   -2.1610   -2.1820    1.1170 H   0  0  0  0  0  0  0  0  0  0  0  0
   -3.8070   -2.8380    0.6180 H   0  0  0  0  0  0  0  0  0  0  0  0
   -2.3320   -3.1700   -0.3410 H   0  0  0  0  0  0  0  0  0  0  0  0
   -3.2120    0.9020   -0.6500 H   0  0  0  0  0  0  0  0  0  0  0  0
   -1.3790   -0.2680    1.3680 H   0  0  0  0  0  0  0  0  0  0  0  0
  1  2  1  0  0  0  0
  2  3  1  0  0  0  0
  3 12  1  0  0  0  0
  4  3  1  0  0  0  0
  4 14  1  0  0  0  0
  5 16  1  6  0  0  0
  5  4  1  0  0  0  0
  5  6  1  0  0  0  0
  6 17  1  0  0  0  0
  6 18  1  0  0  0  0
  7  5  1  0  0  0  0
  7 24  1  0  0  0  0
  8  7  2  0  0  0  0
  9  1  1  0  0  0  0
 10  1  1  0  0  0  0
 11  1  1  0  0  0  0
 13  3  1  0  0  0  0
 15  4  1  0  0  0  0
 19 29  1  0  0  0  0
 20 19  1  0  0  0  0
 20 21  1  0  0  0  0
 21 32  1  6  0  0  0
 21 23  1  0  0  0  0
 21 22  1  0  0  0  0
 22 33  1  0  0  0  0
 22 35  1  0  0  0  0
 23 24  1  0  0  0  0
 23 36  1  1  0  0  0
 24 37  1  0  0  0  0
 25 42  1  0  0  0  0
 25 23  1  0  0  0  0
 26 25  2  0  0  0  0
 27 19  1  0  0  0  0
 28 19  1  0  0  0  0
 30 20  1  0  0  0  0
 31 20  1  0  0  0  0
 34 22  1  0  0  0  0
 38 39  1  0  0  0  0
 38 46  1  0  0  0  0
 39 41  1  0  0  0  0
 39 40  1  0  0  0  0
 40 51  1  0  0  0  0
 40 50  1  0  0  0  0
 41 53  1  6  0  0  0
 41 42  1  0  0  0  0
 41 43  1  0  0  0  0
 42 54  1  0  0  0  0
 43 44  1  0  0  0  0
 45 43  2  0  0  0  0
 47 38  1  0  0  0  0
 48 38  1  0  0  0  0
 49 39  1  0  0  0  0
 52 40  1  0  0  0  0
M  END
$$$$
