MIW.pdb
 OpenBabel07022418553D

 62 63  0  0  1  0  0  0  0  0999 V2000
   -0.5490    4.0610    4.6740 C   0  0  0  0  0  0  0  0  0  0  0  0
    1.1080    4.6900    4.5170 S   0  0  0  0  0  0  0  0  0  0  0  0
    2.3290    3.5990    3.8260 C   0  0  0  0  0  0  0  0  0  0  0  0
    2.1720    3.2510    2.3760 C   0  0  0  0  0  0  0  0  0  0  0  0
    0.9130    2.4950    2.1180 C   0  0  2  0  0  0  0  0  0  0  0  0
    0.9910    1.2570    2.8880 N   0  0  0  0  0  0  0  0  0  0  0  0
    0.7170    2.2020    0.6680 C   0  0  0  0  0  0  0  0  0  0  0  0
    0.6180    3.0910   -0.1860 O   0  0  0  0  0  0  0  0  0  0  0  0
   -0.6630    2.9730    4.7370 H   0  0  0  0  0  0  0  0  0  0  0  0
   -1.0680    4.4540    5.6030 H   0  0  0  0  0  0  0  0  0  0  0  0
   -1.2060    4.4750    3.8500 H   0  0  0  0  0  0  0  0  0  0  0  0
    3.3420    4.0860    4.0060 H   0  0  0  0  0  0  0  0  0  0  0  0
    2.4230    2.6460    4.4450 H   0  0  0  0  0  0  0  0  0  0  0  0
    3.0240    2.5530    2.1270 H   0  0  0  0  0  0  0  0  0  0  0  0
    2.2620    4.1500    1.7210 H   0  0  0  0  0  0  0  0  0  0  0  0
    0.0620    3.0600    2.4820 H   0  0  0  0  0  0  0  0  0  0  0  0
    0.7730    1.3530    3.8780 H   0  0  0  0  0  0  0  0  0  0  0  0
    1.9880    0.8910    2.7790 H   0  0  0  0  0  0  0  0  0  0  0  0
    2.5490   -2.7330   -1.6520 C   0  0  0  0  0  0  0  0  0  0  0  0
    1.6270   -1.7780   -0.9170 C   0  0  0  0  0  0  0  0  0  0  0  0
    1.4880   -0.4680   -1.6790 C   0  0  2  0  0  0  0  0  0  0  0  0
    2.8420    0.2070   -1.8410 C   0  0  0  0  0  0  0  0  0  0  0  0
    0.4540    0.4280   -1.1150 C   0  0  2  0  0  0  0  0  0  0  0  0
    0.6400    0.8490    0.2370 N   0  0  0  0  0  0  0  0  0  0  0  0
   -0.8640   -0.2580   -1.1910 C   0  0  0  0  0  0  0  0  0  0  0  0
   -1.1870   -0.7330   -2.3050 O   0  0  0  0  0  0  0  0  0  0  0  0
    2.5530   -2.5650   -2.7370 H   0  0  0  0  0  0  0  0  0  0  0  0
    3.5540   -2.6280   -1.1820 H   0  0  0  0  0  0  0  0  0  0  0  0
    2.2280   -3.7880   -1.4910 H   0  0  0  0  0  0  0  0  0  0  0  0
    0.6500   -2.3020   -0.8570 H   0  0  0  0  0  0  0  0  0  0  0  0
    1.9820   -1.6400    0.1140 H   0  0  0  0  0  0  0  0  0  0  0  0
    1.1820   -0.7590   -2.7050 H   0  0  0  0  0  0  0  0  0  0  0  0
    2.6460    1.2030   -2.3020 H   0  0  0  0  0  0  0  0  0  0  0  0
    3.4080    0.2580   -0.9060 H   0  0  0  0  0  0  0  0  0  0  0  0
    3.4810   -0.3360   -2.5680 H   0  0  0  0  0  0  0  0  0  0  0  0
    0.3610    1.3170   -1.7780 H   0  0  0  0  0  0  0  0  0  0  0  0
    0.7260    0.1090    0.9720 H   0  0  0  0  0  0  0  0  0  0  0  0
   -1.7630   -0.4060   -0.1160 N   0  0  0  0  0  0  0  0  0  0  0  0
   -3.0330   -1.0530   -0.1590 C   0  0  1  0  0  0  0  0  0  0  0  0
   -3.0720   -2.1610    0.8590 C   0  0  0  0  0  0  0  0  0  0  0  0
   -2.0490   -3.1900    0.6360 C   0  0  0  0  0  0  0  0  0  0  0  0
   -0.8690   -3.4290    1.3120 C   0  0  0  0  0  0  0  0  0  0  0  0
   -0.2450   -4.4880    0.7640 N   0  0  0  0  0  0  0  0  0  0  0  0
   -0.9830   -4.9710   -0.2710 C   0  0  0  0  0  0  0  0  0  0  0  0
   -0.7920   -6.0240   -1.1450 C   0  0  0  0  0  0  0  0  0  0  0  0
   -1.7210   -6.2940   -2.1210 C   0  0  0  0  0  0  0  0  0  0  0  0
   -2.8390   -5.5050   -2.2180 C   0  0  0  0  0  0  0  0  0  0  0  0
   -3.0230   -4.4560   -1.3420 C   0  0  0  0  0  0  0  0  0  0  0  0
   -2.0960   -4.1630   -0.3440 C   0  0  0  0  0  0  0  0  0  0  0  0
   -4.1680   -0.1110    0.0040 C   0  0  0  0  0  0  0  0  0  0  0  0
   -5.3320   -0.5720   -0.0160 O   0  0  0  0  0  0  0  0  0  0  0  0
   -3.9820    1.2430    0.1770 O   0  0  0  0  0  0  0  0  0  0  0  0
   -1.4580    0.0060    0.8080 H   0  0  0  0  0  0  0  0  0  0  0  0
   -3.1660   -1.5320   -1.1680 H   0  0  0  0  0  0  0  0  0  0  0  0
   -2.8870   -1.7010    1.8570 H   0  0  0  0  0  0  0  0  0  0  0  0
   -4.1030   -2.6190    0.9010 H   0  0  0  0  0  0  0  0  0  0  0  0
   -0.5270   -2.8320    2.1550 H   0  0  0  0  0  0  0  0  0  0  0  0
    0.6710   -4.9040    1.0650 H   0  0  0  0  0  0  0  0  0  0  0  0
    0.0820   -6.6330   -1.0640 H   0  0  0  0  0  0  0  0  0  0  0  0
   -1.5890   -7.1270   -2.8260 H   0  0  0  0  0  0  0  0  0  0  0  0
   -3.5900   -5.7000   -2.9850 H   0  0  0  0  0  0  0  0  0  0  0  0
   -3.8890   -3.8180   -1.3890 H   0  0  0  0  0  0  0  0  0  0  0  0
  1  9  1  0  0  0  0
  1 10  1  0  0  0  0
  2  1  1  0  0  0  0
  3 12  1  0  0  0  0
  3 13  1  0  0  0  0
  3  2  1  0  0  0  0
  4  3  1  0  0  0  0
  5  4  1  0  0  0  0
  5 16  1  1  0  0  0
  5  6  1  0  0  0  0
  6 17  1  0  0  0  0
  7  5  1  0  0  0  0
  8  7  2  0  0  0  0
 11  1  1  0  0  0  0
 14  4  1  0  0  0  0
 15  4  1  0  0  0  0
 18  6  1  0  0  0  0
 19 29  1  0  0  0  0
 19 28  1  0  0  0  0
 19 20  1  0  0  0  0
 20 30  1  0  0  0  0
 20 31  1  0  0  0  0
 21 32  1  6  0  0  0
 21 23  1  0  0  0  0
 21 20  1  0  0  0  0
 22 21  1  0  0  0  0
 22 34  1  0  0  0  0
 23 36  1  6  0  0  0
 23 24  1  0  0  0  0
 24  7  1  0  0  0  0
 24 37  1  0  0  0  0
 25 23  1  0  0  0  0
 25 38  1  0  0  0  0
 26 25  2  0  0  0  0
 27 19  1  0  0  0  0
 33 22  1  0  0  0  0
 35 22  1  0  0  0  0
 38 53  1  0  0  0  0
 39 54  1  6  0  0  0
 39 38  1  0  0  0  0
 39 50  1  0  0  0  0
 39 40  1  0  0  0  0
 40 56  1  0  0  0  0
 40 55  1  0  0  0  0
 41 40  1  0  0  0  0
 41 42  2  0  0  0  0
 42 57  1  0  0  0  0
 43 58  1  0  0  0  0
 43 42  1  0  0  0  0
 44 43  1  0  0  0  0
 45 59  1  0  0  0  0
 45 44  2  0  0  0  0
 46 45  1  0  0  0  0
 47 46  2  0  0  0  0
 47 48  1  0  0  0  0
 48 49  2  0  0  0  0
 49 44  1  0  0  0  0
 49 41  1  0  0  0  0
 50 52  1  0  0  0  0
 51 50  2  0  0  0  0
 60 46  1  0  0  0  0
 61 47  1  0  0  0  0
 62 48  1  0  0  0  0
M  END
$$$$
