MIY.pdb
 OpenBabel07022418553D

 59 59  0  0  1  0  0  0  0  0999 V2000
   -2.9210    1.0330    3.9240 C   0  0  0  0  0  0  0  0  0  0  0  0
   -2.1130   -0.5240    4.1970 S   0  0  0  0  0  0  0  0  0  0  0  0
   -0.8570   -1.0110    3.0490 C   0  0  0  0  0  0  0  0  0  0  0  0
    0.4600   -0.3740    3.0590 C   0  0  0  0  0  0  0  0  0  0  0  0
    0.5750    1.0790    2.8160 C   0  0  2  0  0  0  0  0  0  0  0  0
   -0.1370    1.8110    3.8270 N   0  0  0  0  0  0  0  0  0  0  0  0
    0.1340    1.5020    1.4580 C   0  0  0  0  0  0  0  0  0  0  0  0
   -0.6930    2.4420    1.3740 O   0  0  0  0  0  0  0  0  0  0  0  0
   -2.6910    1.5320    2.9650 H   0  0  0  0  0  0  0  0  0  0  0  0
   -4.0510    0.9340    3.9070 H   0  0  0  0  0  0  0  0  0  0  0  0
   -2.6710    1.7430    4.7460 H   0  0  0  0  0  0  0  0  0  0  0  0
   -0.6630   -2.1400    3.0930 H   0  0  0  0  0  0  0  0  0  0  0  0
   -1.2930   -0.8400    2.0150 H   0  0  0  0  0  0  0  0  0  0  0  0
    1.1110   -0.9430    2.3310 H   0  0  0  0  0  0  0  0  0  0  0  0
    0.9560   -0.5600    4.0650 H   0  0  0  0  0  0  0  0  0  0  0  0
    1.6580    1.3860    2.9520 H   0  0  0  0  0  0  0  0  0  0  0  0
   -0.4700    2.7400    3.5390 H   0  0  0  0  0  0  0  0  0  0  0  0
    0.4070    1.7840    4.7050 H   0  0  0  0  0  0  0  0  0  0  0  0
    2.2130   -0.3360   -2.7790 C   0  0  0  0  0  0  0  0  0  0  0  0
    2.4740    0.9950   -2.1550 C   0  0  0  0  0  0  0  0  0  0  0  0
    1.2960    1.8460   -1.8840 C   0  0  2  0  0  0  0  0  0  0  0  0
    1.8360    3.1460   -1.2550 C   0  0  0  0  0  0  0  0  0  0  0  0
    0.2120    1.2690   -1.0340 C   0  0  2  0  0  0  0  0  0  0  0  0
    0.6150    0.8840    0.2710 N   0  0  0  0  0  0  0  0  0  0  0  0
   -0.5280    0.2340   -1.7890 C   0  0  0  0  0  0  0  0  0  0  0  0
   -0.9310    0.4510   -2.9720 O   0  0  0  0  0  0  0  0  0  0  0  0
    1.5920   -0.3010   -3.6720 H   0  0  0  0  0  0  0  0  0  0  0  0
    1.8720   -1.0210   -1.9790 H   0  0  0  0  0  0  0  0  0  0  0  0
    3.1840   -0.8080   -3.1300 H   0  0  0  0  0  0  0  0  0  0  0  0
    3.1690    0.9040   -1.2680 H   0  0  0  0  0  0  0  0  0  0  0  0
    3.1080    1.5660   -2.8990 H   0  0  0  0  0  0  0  0  0  0  0  0
    0.8830    2.1810   -2.8720 H   0  0  0  0  0  0  0  0  0  0  0  0
    2.1810    2.9160   -0.2310 H   0  0  0  0  0  0  0  0  0  0  0  0
    2.6870    3.4910   -1.8560 H   0  0  0  0  0  0  0  0  0  0  0  0
    1.0350    3.8990   -1.2630 H   0  0  0  0  0  0  0  0  0  0  0  0
   -0.5230    2.1300   -0.8830 H   0  0  0  0  0  0  0  0  0  0  0  0
    1.3010    0.1060    0.3910 H   0  0  0  0  0  0  0  0  0  0  0  0
    0.7910   -5.4190    3.1660 O   0  0  0  0  0  0  0  0  0  0  0  0
    0.4160   -4.9190    1.9210 C   0  0  0  0  0  0  0  0  0  0  0  0
   -0.7660   -5.2940    1.3330 C   0  0  0  0  0  0  0  0  0  0  0  0
   -1.1160   -4.7810    0.0920 C   0  0  0  0  0  0  0  0  0  0  0  0
   -0.3110   -3.8940   -0.5880 C   0  0  0  0  0  0  0  0  0  0  0  0
   -0.7020   -3.3690   -1.8930 C   0  0  0  0  0  0  0  0  0  0  0  0
   -1.4990   -2.0970   -1.8190 C   0  0  2  0  0  0  0  0  0  0  0  0
   -0.7860   -1.0180   -1.1740 N   0  0  0  0  0  0  0  0  0  0  0  0
   -2.8120   -2.3130   -1.1260 C   0  0  0  0  0  0  0  0  0  0  0  0
   -3.6100   -3.2000   -1.5200 O   0  0  0  0  0  0  0  0  0  0  0  0
    0.8710   -3.5290    0.0180 C   0  0  0  0  0  0  0  0  0  0  0  0
    1.2280   -4.0370    1.2570 C   0  0  0  0  0  0  0  0  0  0  0  0
   -3.1420   -1.5260   -0.0430 O   0  0  0  0  0  0  0  0  0  0  0  0
    0.1680   -5.7960    3.8440 H   0  0  0  0  0  0  0  0  0  0  0  0
   -1.4230   -5.9950    1.8480 H   0  0  0  0  0  0  0  0  0  0  0  0
   -2.0540   -5.1130   -0.3200 H   0  0  0  0  0  0  0  0  0  0  0  0
    0.1840   -3.1850   -2.5330 H   0  0  0  0  0  0  0  0  0  0  0  0
   -1.3310   -4.1000   -2.4660 H   0  0  0  0  0  0  0  0  0  0  0  0
   -1.7410   -1.7400   -2.8450 H   0  0  0  0  0  0  0  0  0  0  0  0
   -0.4370   -1.1490   -0.2060 H   0  0  0  0  0  0  0  0  0  0  0  0
    1.5450   -2.8410   -0.4580 H   0  0  0  0  0  0  0  0  0  0  0  0
    2.1560   -3.7360    1.7080 H   0  0  0  0  0  0  0  0  0  0  0  0
  1  2  1  0  0  0  0
  1 11  1  0  0  0  0
  3  4  1  0  0  0  0
  3 12  1  0  0  0  0
  3  2  1  0  0  0  0
  4 15  1  0  0  0  0
  5 16  1  1  0  0  0
  5  4  1  0  0  0  0
  5  6  1  0  0  0  0
  6 18  1  0  0  0  0
  7  5  1  0  0  0  0
  8  7  2  0  0  0  0
  9  1  1  0  0  0  0
 10  1  1  0  0  0  0
 13  3  1  0  0  0  0
 14  4  1  0  0  0  0
 17  6  1  0  0  0  0
 19 20  1  0  0  0  0
 19 28  1  0  0  0  0
 20 21  1  0  0  0  0
 20 30  1  0  0  0  0
 21 32  1  6  0  0  0
 21 22  1  0  0  0  0
 21 23  1  0  0  0  0
 22 33  1  0  0  0  0
 23 36  1  1  0  0  0
 23 24  1  0  0  0  0
 24 37  1  0  0  0  0
 24  7  1  0  0  0  0
 25 45  1  0  0  0  0
 25 23  1  0  0  0  0
 26 25  2  0  0  0  0
 27 19  1  0  0  0  0
 29 19  1  0  0  0  0
 31 20  1  0  0  0  0
 34 22  1  0  0  0  0
 35 22  1  0  0  0  0
 38 51  1  0  0  0  0
 39 38  1  0  0  0  0
 40 52  1  0  0  0  0
 40 39  1  0  0  0  0
 41 40  2  0  0  0  0
 42 48  2  0  0  0  0
 42 41  1  0  0  0  0
 43 44  1  0  0  0  0
 43 42  1  0  0  0  0
 44 56  1  6  0  0  0
 44 45  1  0  0  0  0
 44 46  1  0  0  0  0
 45 57  1  0  0  0  0
 46 50  1  0  0  0  0
 47 46  2  0  0  0  0
 48 49  1  0  0  0  0
 49 59  1  0  0  0  0
 49 39  2  0  0  0  0
 53 41  1  0  0  0  0
 54 43  1  0  0  0  0
 55 43  1  0  0  0  0
 58 48  1  0  0  0  0
M  END
$$$$
