MKA.pdb
 OpenBabel07022418553D

 50 49  0  0  1  0  0  0  0  0999 V2000
   -0.6960   -6.3640    3.3220 C   0  0  0  0  0  0  0  0  0  0  0  0
    0.4640   -5.6570    2.0880 S   0  0  0  0  0  0  0  0  0  0  0  0
    0.6820   -3.8690    2.4430 C   0  0  0  0  0  0  0  0  0  0  0  0
   -0.6600   -3.2210    2.1780 C   0  0  0  0  0  0  0  0  0  0  0  0
   -0.6720   -1.7380    2.4240 C   0  0  2  0  0  0  0  0  0  0  0  0
   -2.0100   -1.2760    2.1300 N   0  0  0  0  0  0  0  0  0  0  0  0
    0.2870   -0.9760    1.6000 C   0  0  0  0  0  0  0  0  0  0  0  0
    1.5390   -1.1810    1.6720 O   0  0  0  0  0  0  0  0  0  0  0  0
   -0.9910   -5.5910    4.0420 H   0  0  0  0  0  0  0  0  0  0  0  0
   -0.1540   -7.1490    3.8650 H   0  0  0  0  0  0  0  0  0  0  0  0
   -1.5590   -6.8540    2.8160 H   0  0  0  0  0  0  0  0  0  0  0  0
    1.4820   -3.5000    1.7970 H   0  0  0  0  0  0  0  0  0  0  0  0
    0.9640   -3.7060    3.5010 H   0  0  0  0  0  0  0  0  0  0  0  0
   -1.3670   -3.6620    2.9260 H   0  0  0  0  0  0  0  0  0  0  0  0
   -1.0610   -3.4980    1.1870 H   0  0  0  0  0  0  0  0  0  0  0  0
   -0.3980   -1.5670    3.4870 H   0  0  0  0  0  0  0  0  0  0  0  0
   -2.2300   -1.6330    1.1530 H   0  0  0  0  0  0  0  0  0  0  0  0
   -2.6640   -1.8170    2.7540 H   0  0  0  0  0  0  0  0  0  0  0  0
   -0.2030    0.0060    0.7090 N   0  0  0  0  0  0  0  0  0  0  0  0
    0.5390    0.8610   -0.1520 C   0  0  1  0  0  0  0  0  0  0  0  0
    1.9880    1.0670    0.1620 C   0  0  0  0  0  0  0  0  0  0  0  0
    2.2510    1.7160    1.4530 C   0  0  0  0  0  0  0  0  0  0  0  0
    1.6810    3.1280    1.5990 C   0  0  0  0  0  0  0  0  0  0  0  0
    2.0860    3.6450    2.9990 C   0  0  0  0  0  0  0  0  0  0  0  0
    1.5510    2.7840    4.0170 N   0  0  0  0  0  0  0  0  0  0  0  0
    0.2310    0.7160   -1.5870 C   0  0  0  0  0  0  0  0  0  0  0  0
    0.8130    1.4080   -2.4610 O   0  0  0  0  0  0  0  0  0  0  0  0
   -1.2670    0.1460    0.6500 H   0  0  0  0  0  0  0  0  0  0  0  0
    0.1330    1.9190    0.1190 H   0  0  0  0  0  0  0  0  0  0  0  0
    2.5980    0.1510    0.0260 H   0  0  0  0  0  0  0  0  0  0  0  0
    2.3630    1.7760   -0.6390 H   0  0  0  0  0  0  0  0  0  0  0  0
    1.9890    1.2170    2.3790 H   0  0  0  0  0  0  0  0  0  0  0  0
    3.3850    1.8460    1.5190 H   0  0  0  0  0  0  0  0  0  0  0  0
    2.1760    3.8060    0.8810 H   0  0  0  0  0  0  0  0  0  0  0  0
    0.5920    3.1290    1.5500 H   0  0  0  0  0  0  0  0  0  0  0  0
    1.8150    4.7010    3.1070 H   0  0  0  0  0  0  0  0  0  0  0  0
    3.2010    3.5700    3.0380 H   0  0  0  0  0  0  0  0  0  0  0  0
    0.7030    2.2690    3.7390 H   0  0  0  0  0  0  0  0  0  0  0  0
    2.2750    2.2100    4.4910 H   0  0  0  0  0  0  0  0  0  0  0  0
   -0.7490   -1.8360   -3.8410 C   0  0  0  0  0  0  0  0  0  0  0  0
   -1.0690   -0.3860   -3.4580 C   0  0  2  0  0  0  0  0  0  0  0  0
   -0.7500   -0.2260   -2.0540 N   0  0  0  0  0  0  0  0  0  0  0  0
   -2.5420   -0.2350   -3.6840 C   0  0  0  0  0  0  0  0  0  0  0  0
   -3.0420   -0.3370   -4.8310 O   0  0  0  0  0  0  0  0  0  0  0  0
   -3.3360    0.0220   -2.5760 O   0  0  0  0  0  0  0  0  0  0  0  0
   -0.8630   -2.4400   -2.9230 H   0  0  0  0  0  0  0  0  0  0  0  0
    0.2870   -1.9060   -4.1770 H   0  0  0  0  0  0  0  0  0  0  0  0
   -1.4960   -2.2180   -4.5680 H   0  0  0  0  0  0  0  0  0  0  0  0
   -0.4890    0.2720   -4.1060 H   0  0  0  0  0  0  0  0  0  0  0  0
   -1.2130   -0.7830   -1.3120 H   0  0  0  0  0  0  0  0  0  0  0  0
  1 10  1  0  0  0  0
  1  9  1  0  0  0  0
  2  3  1  0  0  0  0
  2  1  1  0  0  0  0
  3 13  1  0  0  0  0
  4  5  1  0  0  0  0
  4  3  1  0  0  0  0
  4 14  1  0  0  0  0
  5 16  1  1  0  0  0
  6  5  1  0  0  0  0
  6 18  1  0  0  0  0
  7  8  2  0  0  0  0
  7  5  1  0  0  0  0
 11  1  1  0  0  0  0
 12  3  1  0  0  0  0
 15  4  1  0  0  0  0
 17  6  1  0  0  0  0
 19  7  1  0  0  0  0
 20 29  1  1  0  0  0
 20 21  1  0  0  0  0
 20 19  1  0  0  0  0
 21 22  1  0  0  0  0
 22 33  1  0  0  0  0
 22 23  1  0  0  0  0
 22 32  1  0  0  0  0
 23 24  1  0  0  0  0
 24 37  1  0  0  0  0
 24 36  1  0  0  0  0
 24 25  1  0  0  0  0
 25 39  1  0  0  0  0
 26 20  1  0  0  0  0
 27 26  2  0  0  0  0
 28 19  1  0  0  0  0
 30 21  1  0  0  0  0
 31 21  1  0  0  0  0
 34 23  1  0  0  0  0
 35 23  1  0  0  0  0
 38 25  1  0  0  0  0
 40 41  1  0  0  0  0
 40 46  1  0  0  0  0
 41 49  1  6  0  0  0
 41 42  1  0  0  0  0
 42 26  1  0  0  0  0
 42 50  1  0  0  0  0
 43 41  1  0  0  0  0
 43 45  1  0  0  0  0
 44 43  2  0  0  0  0
 47 40  1  0  0  0  0
 48 40  1  0  0  0  0
M  END
$$$$
