MKE.pdb
 OpenBabel07022418553D

 56 55  0  0  1  0  0  0  0  0999 V2000
    3.5860   -4.8990    2.8710 C   0  0  0  0  0  0  0  0  0  0  0  0
    3.6610   -3.0950    3.0190 S   0  0  0  0  0  0  0  0  0  0  0  0
    2.9440   -2.3890    1.5090 C   0  0  0  0  0  0  0  0  0  0  0  0
    2.9660   -0.8780    1.5460 C   0  0  0  0  0  0  0  0  0  0  0  0
    2.1610   -0.3580    2.7410 C   0  0  2  0  0  0  0  0  0  0  0  0
    2.7860   -0.9020    3.9300 N   0  0  0  0  0  0  0  0  0  0  0  0
    0.7470   -0.7830    2.6220 C   0  0  0  0  0  0  0  0  0  0  0  0
    0.2940   -1.5350    3.5430 O   0  0  0  0  0  0  0  0  0  0  0  0
    3.6900   -5.3930    3.8720 H   0  0  0  0  0  0  0  0  0  0  0  0
    4.3190   -5.2970    2.1560 H   0  0  0  0  0  0  0  0  0  0  0  0
    2.5750   -5.2170    2.4980 H   0  0  0  0  0  0  0  0  0  0  0  0
    3.5800   -2.7310    0.6690 H   0  0  0  0  0  0  0  0  0  0  0  0
    1.9490   -2.8010    1.3560 H   0  0  0  0  0  0  0  0  0  0  0  0
    2.4470   -0.5080    0.6410 H   0  0  0  0  0  0  0  0  0  0  0  0
    4.0040   -0.5020    1.5930 H   0  0  0  0  0  0  0  0  0  0  0  0
    2.1730    0.7490    2.7560 H   0  0  0  0  0  0  0  0  0  0  0  0
    3.6580   -0.3750    4.1350 H   0  0  0  0  0  0  0  0  0  0  0  0
    2.1530   -0.8000    4.7570 H   0  0  0  0  0  0  0  0  0  0  0  0
   -0.1020   -0.4070    1.5690 N   0  0  0  0  0  0  0  0  0  0  0  0
   -1.4650   -0.8900    1.5690 C   0  0  1  0  0  0  0  0  0  0  0  0
   -2.4600    0.2930    1.6940 C   0  0  0  0  0  0  0  0  0  0  0  0
   -2.2690    1.2100    0.5480 C   0  0  0  0  0  0  0  0  0  0  0  0
   -3.1660    2.3820    0.5060 C   0  0  0  0  0  0  0  0  0  0  0  0
   -3.0190    3.2800    1.6780 C   0  0  0  0  0  0  0  0  0  0  0  0
   -3.3130    2.7400    2.9590 N   0  0  0  0  0  0  0  0  0  0  0  0
   -1.7930   -1.5720    0.2780 C   0  0  0  0  0  0  0  0  0  0  0  0
   -2.9280   -2.0670    0.0630 O   0  0  0  0  0  0  0  0  0  0  0  0
    0.2740    0.2080    0.8190 H   0  0  0  0  0  0  0  0  0  0  0  0
   -1.6760   -1.5280    2.4490 H   0  0  0  0  0  0  0  0  0  0  0  0
   -3.4610   -0.1900    1.5870 H   0  0  0  0  0  0  0  0  0  0  0  0
   -2.4090    0.7080    2.6970 H   0  0  0  0  0  0  0  0  0  0  0  0
   -2.4400    0.6080   -0.3930 H   0  0  0  0  0  0  0  0  0  0  0  0
   -1.2210    1.5920    0.4530 H   0  0  0  0  0  0  0  0  0  0  0  0
   -2.9300    2.9740   -0.4330 H   0  0  0  0  0  0  0  0  0  0  0  0
   -4.2290    2.0620    0.3400 H   0  0  0  0  0  0  0  0  0  0  0  0
   -2.0250    3.8010    1.6470 H   0  0  0  0  0  0  0  0  0  0  0  0
   -3.7480    4.1370    1.5160 H   0  0  0  0  0  0  0  0  0  0  0  0
   -4.2730    3.0070    3.2970 H   0  0  0  0  0  0  0  0  0  0  0  0
   -2.5870    2.9070    3.6850 H   0  0  0  0  0  0  0  0  0  0  0  0
   -0.8390   -1.6950   -0.7760 N   0  0  0  0  0  0  0  0  0  0  0  0
   -1.1430   -2.3520   -2.0310 C   0  0  1  0  0  0  0  0  0  0  0  0
   -0.9830   -1.4190   -3.2090 C   0  0  0  0  0  0  0  0  0  0  0  0
    0.4290   -0.8900   -3.3180 C   0  0  0  0  0  0  0  0  0  0  0  0
    0.5150    0.0160   -4.4920 C   0  0  0  0  0  0  0  0  0  0  0  0
    1.5770    0.6000   -4.8220 O   0  0  0  0  0  0  0  0  0  0  0  0
   -0.2230   -3.5100   -2.1660 C   0  0  0  0  0  0  0  0  0  0  0  0
    0.6450   -3.7880   -1.2750 O   0  0  0  0  0  0  0  0  0  0  0  0
   -0.6030    0.2690   -5.3050 O   0  0  0  0  0  0  0  0  0  0  0  0
   -0.3100   -4.3110   -3.2920 O   0  0  0  0  0  0  0  0  0  0  0  0
    0.1130   -1.2950   -0.6330 H   0  0  0  0  0  0  0  0  0  0  0  0
   -2.1790   -2.7350   -2.0640 H   0  0  0  0  0  0  0  0  0  0  0  0
   -1.2290   -1.9840   -4.1310 H   0  0  0  0  0  0  0  0  0  0  0  0
   -1.6900   -0.5670   -3.1530 H   0  0  0  0  0  0  0  0  0  0  0  0
    1.1050   -1.7610   -3.5350 H   0  0  0  0  0  0  0  0  0  0  0  0
    0.7780   -0.4330   -2.3920 H   0  0  0  0  0  0  0  0  0  0  0  0
   -0.6060    0.9430   -6.0390 H   0  0  0  0  0  0  0  0  0  0  0  0
  1  2  1  0  0  0  0
  1  9  1  0  0  0  0
  3  4  1  0  0  0  0
  3  2  1  0  0  0  0
  4 15  1  0  0  0  0
  4  5  1  0  0  0  0
  5 16  1  1  0  0  0
  5  6  1  0  0  0  0
  6 17  1  0  0  0  0
  6 18  1  0  0  0  0
  7  5  1  0  0  0  0
  7  8  2  0  0  0  0
 10  1  1  0  0  0  0
 11  1  1  0  0  0  0
 12  3  1  0  0  0  0
 13  3  1  0  0  0  0
 14  4  1  0  0  0  0
 19  7  1  0  0  0  0
 20 19  1  0  0  0  0
 20 21  1  0  0  0  0
 20 29  1  1  0  0  0
 21 31  1  0  0  0  0
 22 21  1  0  0  0  0
 23 22  1  0  0  0  0
 23 24  1  0  0  0  0
 24 25  1  0  0  0  0
 25 38  1  0  0  0  0
 25 39  1  0  0  0  0
 26 20  1  0  0  0  0
 27 26  2  0  0  0  0
 28 19  1  0  0  0  0
 30 21  1  0  0  0  0
 32 22  1  0  0  0  0
 33 22  1  0  0  0  0
 34 23  1  0  0  0  0
 35 23  1  0  0  0  0
 36 24  1  0  0  0  0
 37 24  1  0  0  0  0
 40 50  1  0  0  0  0
 40 26  1  0  0  0  0
 41 51  1  1  0  0  0
 41 40  1  0  0  0  0
 42 53  1  0  0  0  0
 42 41  1  0  0  0  0
 43 42  1  0  0  0  0
 43 55  1  0  0  0  0
 44 43  1  0  0  0  0
 45 44  2  0  0  0  0
 46 41  1  0  0  0  0
 46 47  1  0  0  0  0
 48 44  1  0  0  0  0
 49 46  2  0  0  0  0
 52 42  1  0  0  0  0
 54 43  1  0  0  0  0
 56 48  1  0  0  0  0
M  END
$$$$
