MKG.pdb
 OpenBabel07022418553D

 47 46  0  0  1  0  0  0  0  0999 V2000
   -0.4140   -4.9630    2.9750 C   0  0  0  0  0  0  0  0  0  0  0  0
   -0.0320   -5.5570    1.3280 S   0  0  0  0  0  0  0  0  0  0  0  0
    0.0970   -4.2800    0.1050 C   0  0  0  0  0  0  0  0  0  0  0  0
    1.3180   -3.4450    0.0920 C   0  0  0  0  0  0  0  0  0  0  0  0
    1.6490   -2.6640    1.2900 C   0  0  2  0  0  0  0  0  0  0  0  0
    1.9020   -3.3890    2.5020 N   0  0  0  0  0  0  0  0  0  0  0  0
    0.6700   -1.5400    1.5390 C   0  0  0  0  0  0  0  0  0  0  0  0
    0.2330   -1.3460    2.7150 O   0  0  0  0  0  0  0  0  0  0  0  0
   -0.6820   -3.9010    3.0280 H   0  0  0  0  0  0  0  0  0  0  0  0
    0.3820   -5.2370    3.7090 H   0  0  0  0  0  0  0  0  0  0  0  0
   -1.3560   -5.4880    3.3740 H   0  0  0  0  0  0  0  0  0  0  0  0
   -0.8230   -3.5970    0.1140 H   0  0  0  0  0  0  0  0  0  0  0  0
    0.0310   -4.7940   -0.9130 H   0  0  0  0  0  0  0  0  0  0  0  0
    1.3340   -2.7910   -0.8460 H   0  0  0  0  0  0  0  0  0  0  0  0
    2.1720   -4.1730   -0.1640 H   0  0  0  0  0  0  0  0  0  0  0  0
    2.6310   -2.1360    1.0660 H   0  0  0  0  0  0  0  0  0  0  0  0
    1.6040   -2.8770    3.3550 H   0  0  0  0  0  0  0  0  0  0  0  0
    2.9060   -3.6640    2.5820 H   0  0  0  0  0  0  0  0  0  0  0  0
    0.2070   -0.6830    0.5380 N   0  0  0  0  0  0  0  0  0  0  0  0
   -0.7330    0.3860    0.8110 C   0  0  1  0  0  0  0  0  0  0  0  0
   -0.1600    1.7390    0.4320 C   0  0  0  0  0  0  0  0  0  0  0  0
    1.1210    2.0090    1.2340 C   0  0  0  0  0  0  0  0  0  0  0  0
    1.6900    3.3610    0.8520 C   0  0  0  0  0  0  0  0  0  0  0  0
    2.9440    3.6320    1.6330 C   0  0  0  0  0  0  0  0  0  0  0  0
    2.6630    3.6320    3.0360 N   0  0  0  0  0  0  0  0  0  0  0  0
   -1.9850    0.2210    0.0360 C   0  0  0  0  0  0  0  0  0  0  0  0
   -2.8980    1.0760    0.1740 O   0  0  0  0  0  0  0  0  0  0  0  0
    0.5400   -0.8050   -0.4410 H   0  0  0  0  0  0  0  0  0  0  0  0
   -1.0210    0.4270    1.8820 H   0  0  0  0  0  0  0  0  0  0  0  0
   -0.8590    2.5460    0.7320 H   0  0  0  0  0  0  0  0  0  0  0  0
    0.0150    1.8460   -0.6400 H   0  0  0  0  0  0  0  0  0  0  0  0
    1.8320    1.1890    1.0180 H   0  0  0  0  0  0  0  0  0  0  0  0
    0.9130    1.9900    2.3190 H   0  0  0  0  0  0  0  0  0  0  0  0
    0.9390    4.1510    1.0510 H   0  0  0  0  0  0  0  0  0  0  0  0
    1.8800    3.3830   -0.2460 H   0  0  0  0  0  0  0  0  0  0  0  0
    3.3670    4.6160    1.3370 H   0  0  0  0  0  0  0  0  0  0  0  0
    3.6700    2.8190    1.3860 H   0  0  0  0  0  0  0  0  0  0  0  0
    2.9730    2.7290    3.4530 H   0  0  0  0  0  0  0  0  0  0  0  0
    1.6660    3.8410    3.2600 H   0  0  0  0  0  0  0  0  0  0  0  0
   -2.2340   -0.8500   -0.8660 N   0  0  0  0  0  0  0  0  0  0  0  0
   -3.4810   -0.9700   -1.6050 C   0  0  0  0  0  0  0  0  0  0  0  0
   -3.7020    0.2160   -2.4780 C   0  0  0  0  0  0  0  0  0  0  0  0
   -2.8660    1.1530   -2.5100 O   0  0  0  0  0  0  0  0  0  0  0  0
   -4.8220    0.3390   -3.2840 O   0  0  0  0  0  0  0  0  0  0  0  0
   -1.4530   -1.5500   -0.9610 H   0  0  0  0  0  0  0  0  0  0  0  0
   -3.4110   -1.9080   -2.2020 H   0  0  0  0  0  0  0  0  0  0  0  0
   -4.3580   -1.1010   -0.9400 H   0  0  0  0  0  0  0  0  0  0  0  0
  1  9  1  0  0  0  0
  1 11  1  0  0  0  0
  1 10  1  0  0  0  0
  2  1  1  0  0  0  0
  3 12  1  0  0  0  0
  3  2  1  0  0  0  0
  4  3  1  0  0  0  0
  4  5  1  0  0  0  0
  5 16  1  6  0  0  0
  5  7  1  0  0  0  0
  5  6  1  0  0  0  0
  6 18  1  0  0  0  0
  6 17  1  0  0  0  0
  7  8  2  0  0  0  0
 13  3  1  0  0  0  0
 14  4  1  0  0  0  0
 15  4  1  0  0  0  0
 19 20  1  0  0  0  0
 19  7  1  0  0  0  0
 20 29  1  1  0  0  0
 21 30  1  0  0  0  0
 21 20  1  0  0  0  0
 21 22  1  0  0  0  0
 22 33  1  0  0  0  0
 23 34  1  0  0  0  0
 23 22  1  0  0  0  0
 23 24  1  0  0  0  0
 24 25  1  0  0  0  0
 25 39  1  0  0  0  0
 25 38  1  0  0  0  0
 26 27  2  0  0  0  0
 26 20  1  0  0  0  0
 28 19  1  0  0  0  0
 31 21  1  0  0  0  0
 32 22  1  0  0  0  0
 35 23  1  0  0  0  0
 36 24  1  0  0  0  0
 37 24  1  0  0  0  0
 40 26  1  0  0  0  0
 41 47  1  0  0  0  0
 41 40  1  0  0  0  0
 42 41  1  0  0  0  0
 43 42  1  0  0  0  0
 44 42  2  0  0  0  0
 45 40  1  0  0  0  0
 46 41  1  0  0  0  0
M  END
$$$$
