MKK.pdb
 OpenBabel07022418563D

 61 60  0  0  1  0  0  0  0  0999 V2000
   -1.3280   -6.3620    2.1920 C   0  0  0  0  0  0  0  0  0  0  0  0
   -0.0880   -5.2160    2.8940 S   0  0  0  0  0  0  0  0  0  0  0  0
    0.2790   -3.9850    1.6190 C   0  0  0  0  0  0  0  0  0  0  0  0
    1.2930   -2.9820    2.0730 C   0  0  0  0  0  0  0  0  0  0  0  0
    0.8840   -2.1940    3.2790 C   0  0  2  0  0  0  0  0  0  0  0  0
    0.6550   -3.0860    4.3860 N   0  0  0  0  0  0  0  0  0  0  0  0
   -0.3190   -1.3520    3.0090 C   0  0  0  0  0  0  0  0  0  0  0  0
   -1.3440   -1.4300    3.7340 O   0  0  0  0  0  0  0  0  0  0  0  0
   -2.0680   -6.5340    2.9910 H   0  0  0  0  0  0  0  0  0  0  0  0
   -0.7890   -7.2810    1.9020 H   0  0  0  0  0  0  0  0  0  0  0  0
   -1.7920   -5.9290    1.2820 H   0  0  0  0  0  0  0  0  0  0  0  0
   -0.6740   -3.4790    1.2940 H   0  0  0  0  0  0  0  0  0  0  0  0
    0.7020   -4.4970    0.7250 H   0  0  0  0  0  0  0  0  0  0  0  0
    1.5850   -2.3490    1.2140 H   0  0  0  0  0  0  0  0  0  0  0  0
    2.2190   -3.5560    2.3390 H   0  0  0  0  0  0  0  0  0  0  0  0
    1.7420   -1.4930    3.4950 H   0  0  0  0  0  0  0  0  0  0  0  0
    1.4040   -3.0280    5.1150 H   0  0  0  0  0  0  0  0  0  0  0  0
   -0.2430   -2.8160    4.8310 H   0  0  0  0  0  0  0  0  0  0  0  0
   -0.3700   -0.4290    1.9310 N   0  0  0  0  0  0  0  0  0  0  0  0
   -1.5280    0.3650    1.6960 C   0  0  1  0  0  0  0  0  0  0  0  0
   -1.2620    1.8620    1.8070 C   0  0  0  0  0  0  0  0  0  0  0  0
   -0.2390    2.3190    0.8290 C   0  0  0  0  0  0  0  0  0  0  0  0
    0.0750    3.7830    0.8450 C   0  0  0  0  0  0  0  0  0  0  0  0
    0.6170    4.3300    2.1150 C   0  0  0  0  0  0  0  0  0  0  0  0
   -0.2260    4.2250    3.2670 N   0  0  0  0  0  0  0  0  0  0  0  0
   -2.1090    0.1220    0.3560 C   0  0  0  0  0  0  0  0  0  0  0  0
   -3.1280    0.7570   -0.0050 O   0  0  0  0  0  0  0  0  0  0  0  0
    0.4590   -0.3230    1.2890 H   0  0  0  0  0  0  0  0  0  0  0  0
   -2.2990    0.1510    2.4940 H   0  0  0  0  0  0  0  0  0  0  0  0
   -2.2260    2.3580    1.5680 H   0  0  0  0  0  0  0  0  0  0  0  0
   -1.0220    2.1250    2.8590 H   0  0  0  0  0  0  0  0  0  0  0  0
   -0.4250    1.9420   -0.2030 H   0  0  0  0  0  0  0  0  0  0  0  0
    0.7250    1.7950    1.1210 H   0  0  0  0  0  0  0  0  0  0  0  0
   -0.8580    4.3910    0.6170 H   0  0  0  0  0  0  0  0  0  0  0  0
    0.8090    4.0550    0.0370 H   0  0  0  0  0  0  0  0  0  0  0  0
    1.6070    3.8450    2.3810 H   0  0  0  0  0  0  0  0  0  0  0  0
    0.9180    5.4110    1.9760 H   0  0  0  0  0  0  0  0  0  0  0  0
    0.3030    4.1040    4.1590 H   0  0  0  0  0  0  0  0  0  0  0  0
   -0.8980    5.0180    3.3620 H   0  0  0  0  0  0  0  0  0  0  0  0
   -1.5260   -0.8320   -0.5420 N   0  0  0  0  0  0  0  0  0  0  0  0
   -2.0940   -1.0650   -1.8430 C   0  0  1  0  0  0  0  0  0  0  0  0
   -1.4140   -0.4640   -3.0010 C   0  0  0  0  0  0  0  0  0  0  0  0
   -0.0320   -0.8050   -3.3450 C   0  0  0  0  0  0  0  0  0  0  0  0
    1.0670   -0.5240   -2.4000 C   0  0  0  0  0  0  0  0  0  0  0  0
    2.3670   -0.9790   -3.1190 C   0  0  0  0  0  0  0  0  0  0  0  0
    3.4510   -0.7160   -2.2210 N   0  0  0  0  0  0  0  0  0  0  0  0
   -2.4520   -2.4940   -2.0290 C   0  0  0  0  0  0  0  0  0  0  0  0
   -2.9550   -2.9260   -3.0730 O   0  0  0  0  0  0  0  0  0  0  0  0
   -2.2040   -3.3640   -0.9820 O   0  0  0  0  0  0  0  0  0  0  0  0
   -0.6950   -1.3250   -0.1400 H   0  0  0  0  0  0  0  0  0  0  0  0
   -3.1140   -0.5390   -1.7970 H   0  0  0  0  0  0  0  0  0  0  0  0
   -2.0470   -0.7500   -3.9110 H   0  0  0  0  0  0  0  0  0  0  0  0
   -1.5960    0.6480   -2.9480 H   0  0  0  0  0  0  0  0  0  0  0  0
    0.0800   -1.8690   -3.7060 H   0  0  0  0  0  0  0  0  0  0  0  0
    0.2230   -0.2200   -4.2930 H   0  0  0  0  0  0  0  0  0  0  0  0
    1.1970    0.5800   -2.2780 H   0  0  0  0  0  0  0  0  0  0  0  0
    1.0970   -1.0710   -1.4630 H   0  0  0  0  0  0  0  0  0  0  0  0
    2.4610   -0.3530   -4.0220 H   0  0  0  0  0  0  0  0  0  0  0  0
    2.2940   -2.0440   -3.4040 H   0  0  0  0  0  0  0  0  0  0  0  0
    4.3170   -1.2440   -2.4660 H   0  0  0  0  0  0  0  0  0  0  0  0
    3.1950   -0.7610   -1.2290 H   0  0  0  0  0  0  0  0  0  0  0  0
  1  2  1  0  0  0  0
  1  9  1  0  0  0  0
  3  4  1  0  0  0  0
  3  2  1  0  0  0  0
  4 15  1  0  0  0  0
  4  5  1  0  0  0  0
  5 16  1  1  0  0  0
  5  6  1  0  0  0  0
  6 18  1  0  0  0  0
  6 17  1  0  0  0  0
  7  5  1  0  0  0  0
  7  8  2  0  0  0  0
 10  1  1  0  0  0  0
 11  1  1  0  0  0  0
 12  3  1  0  0  0  0
 13  3  1  0  0  0  0
 14  4  1  0  0  0  0
 19  7  1  0  0  0  0
 20 21  1  0  0  0  0
 20 19  1  0  0  0  0
 20 29  1  1  0  0  0
 21 31  1  0  0  0  0
 22 23  1  0  0  0  0
 22 33  1  0  0  0  0
 22 21  1  0  0  0  0
 23 24  1  0  0  0  0
 24 36  1  0  0  0  0
 24 25  1  0  0  0  0
 25 39  1  0  0  0  0
 25 38  1  0  0  0  0
 26 20  1  0  0  0  0
 27 26  2  0  0  0  0
 28 19  1  0  0  0  0
 30 21  1  0  0  0  0
 32 22  1  0  0  0  0
 34 23  1  0  0  0  0
 35 23  1  0  0  0  0
 37 24  1  0  0  0  0
 40 50  1  0  0  0  0
 40 26  1  0  0  0  0
 41 51  1  1  0  0  0
 41 40  1  0  0  0  0
 42 53  1  0  0  0  0
 42 41  1  0  0  0  0
 43 42  1  0  0  0  0
 43 44  1  0  0  0  0
 44 56  1  0  0  0  0
 44 57  1  0  0  0  0
 45 44  1  0  0  0  0
 45 46  1  0  0  0  0
 46 61  1  0  0  0  0
 47 41  1  0  0  0  0
 47 49  1  0  0  0  0
 48 47  2  0  0  0  0
 52 42  1  0  0  0  0
 54 43  1  0  0  0  0
 55 43  1  0  0  0  0
 58 45  1  0  0  0  0
 59 45  1  0  0  0  0
 60 46  1  0  0  0  0
M  END
$$$$
