MKM.pdb
 OpenBabel07022418563D

 57 56  0  0  1  0  0  0  0  0999 V2000
    2.8380   -3.9480    3.3750 C   0  0  0  0  0  0  0  0  0  0  0  0
    2.8430   -4.5130    1.6770 S   0  0  0  0  0  0  0  0  0  0  0  0
    2.2210   -3.3630    0.4810 C   0  0  0  0  0  0  0  0  0  0  0  0
    3.0530   -2.2050    0.0890 C   0  0  0  0  0  0  0  0  0  0  0  0
    3.4650   -1.2180    1.1080 C   0  0  2  0  0  0  0  0  0  0  0  0
    4.2720   -1.7160    2.1850 N   0  0  0  0  0  0  0  0  0  0  0  0
    2.3100   -0.4110    1.6170 C   0  0  0  0  0  0  0  0  0  0  0  0
    2.1490   -0.3450    2.8870 O   0  0  0  0  0  0  0  0  0  0  0  0
    2.2750   -4.6860    4.0420 H   0  0  0  0  0  0  0  0  0  0  0  0
    3.8660   -3.8510    3.7640 H   0  0  0  0  0  0  0  0  0  0  0  0
    2.2910   -3.0130    3.4680 H   0  0  0  0  0  0  0  0  0  0  0  0
    1.2540   -2.9320    0.8970 H   0  0  0  0  0  0  0  0  0  0  0  0
    1.8660   -3.8910   -0.4580 H   0  0  0  0  0  0  0  0  0  0  0  0
    2.4440   -1.6250   -0.6800 H   0  0  0  0  0  0  0  0  0  0  0  0
    3.9970   -2.5420   -0.4540 H   0  0  0  0  0  0  0  0  0  0  0  0
    4.1070   -0.4280    0.5850 H   0  0  0  0  0  0  0  0  0  0  0  0
    4.8070   -0.9320    2.6070 H   0  0  0  0  0  0  0  0  0  0  0  0
    4.9740   -2.3730    1.7670 H   0  0  0  0  0  0  0  0  0  0  0  0
    1.4580    0.2420    0.7230 N   0  0  0  0  0  0  0  0  0  0  0  0
    0.3270    1.0540    1.3040 C   0  0  1  0  0  0  0  0  0  0  0  0
    0.5300    2.4500    0.8470 C   0  0  0  0  0  0  0  0  0  0  0  0
   -0.1670    3.6140    1.3290 C   0  0  0  0  0  0  0  0  0  0  0  0
   -1.6070    3.7600    1.5140 C   0  0  0  0  0  0  0  0  0  0  0  0
   -2.1990    3.0350    2.7130 C   0  0  0  0  0  0  0  0  0  0  0  0
   -3.6250    3.2120    2.7320 N   0  0  0  0  0  0  0  0  0  0  0  0
   -0.8930    0.3980    0.6520 C   0  0  0  0  0  0  0  0  0  0  0  0
   -2.0540    0.8000    0.7490 O   0  0  0  0  0  0  0  0  0  0  0  0
    1.5400    0.2230   -0.2830 H   0  0  0  0  0  0  0  0  0  0  0  0
    0.3220    0.9300    2.3450 H   0  0  0  0  0  0  0  0  0  0  0  0
    1.6630    2.6860    0.9280 H   0  0  0  0  0  0  0  0  0  0  0  0
    0.4270    2.3830   -0.3270 H   0  0  0  0  0  0  0  0  0  0  0  0
    0.2250    4.5710    0.7640 H   0  0  0  0  0  0  0  0  0  0  0  0
    0.2810    3.8110    2.4030 H   0  0  0  0  0  0  0  0  0  0  0  0
   -2.1970    3.4660    0.6010 H   0  0  0  0  0  0  0  0  0  0  0  0
   -1.9080    4.8470    1.6520 H   0  0  0  0  0  0  0  0  0  0  0  0
   -1.8090    3.6480    3.6250 H   0  0  0  0  0  0  0  0  0  0  0  0
   -1.8060    2.0560    2.9150 H   0  0  0  0  0  0  0  0  0  0  0  0
   -4.1590    2.4350    3.1310 H   0  0  0  0  0  0  0  0  0  0  0  0
   -3.9360    3.2960    1.7220 H   0  0  0  0  0  0  0  0  0  0  0  0
   -1.6460   -4.6290   -3.7580 C   0  0  0  0  0  0  0  0  0  0  0  0
   -3.0500   -3.6350   -3.2110 S   0  0  0  0  0  0  0  0  0  0  0  0
   -2.7300   -1.8930   -3.1900 C   0  0  0  0  0  0  0  0  0  0  0  0
   -1.7590   -1.3450   -2.2570 C   0  0  0  0  0  0  0  0  0  0  0  0
   -1.9200   -1.4330   -0.7950 C   0  0  2  0  0  0  0  0  0  0  0  0
   -0.7550   -0.7800   -0.1480 N   0  0  0  0  0  0  0  0  0  0  0  0
   -2.2080   -2.7110   -0.1810 C   0  0  0  0  0  0  0  0  0  0  0  0
   -1.4610   -3.2240    0.7230 O   0  0  0  0  0  0  0  0  0  0  0  0
   -3.3040   -3.4720   -0.5130 O   0  0  0  0  0  0  0  0  0  0  0  0
   -1.9670   -5.4030   -4.4920 H   0  0  0  0  0  0  0  0  0  0  0  0
   -0.9070   -3.9700   -4.2560 H   0  0  0  0  0  0  0  0  0  0  0  0
   -1.2330   -5.1580   -2.8730 H   0  0  0  0  0  0  0  0  0  0  0  0
   -2.4650   -1.6010   -4.2560 H   0  0  0  0  0  0  0  0  0  0  0  0
   -3.7450   -1.3880   -3.0760 H   0  0  0  0  0  0  0  0  0  0  0  0
   -0.7440   -1.8150   -2.4860 H   0  0  0  0  0  0  0  0  0  0  0  0
   -1.5620   -0.2660   -2.5660 H   0  0  0  0  0  0  0  0  0  0  0  0
   -2.7910   -0.7590   -0.5350 H   0  0  0  0  0  0  0  0  0  0  0  0
    0.1620   -1.2050   -0.2930 H   0  0  0  0  0  0  0  0  0  0  0  0
  1 11  1  0  0  0  0
  1 10  1  0  0  0  0
  1  9  1  0  0  0  0
  2  1  1  0  0  0  0
  3 12  1  0  0  0  0
  3  2  1  0  0  0  0
  4  3  1  0  0  0  0
  4  5  1  0  0  0  0
  5 16  1  6  0  0  0
  5  7  1  0  0  0  0
  5  6  1  0  0  0  0
  6 17  1  0  0  0  0
  7  8  2  0  0  0  0
 13  3  1  0  0  0  0
 14  4  1  0  0  0  0
 15  4  1  0  0  0  0
 18  6  1  0  0  0  0
 19 20  1  0  0  0  0
 19  7  1  0  0  0  0
 20 29  1  1  0  0  0
 21 30  1  0  0  0  0
 21 20  1  0  0  0  0
 21 22  1  0  0  0  0
 22 23  1  0  0  0  0
 22 33  1  0  0  0  0
 23 35  1  0  0  0  0
 23 24  1  0  0  0  0
 24 25  1  0  0  0  0
 24 37  1  0  0  0  0
 24 36  1  0  0  0  0
 25 38  1  0  0  0  0
 26 27  2  0  0  0  0
 26 20  1  0  0  0  0
 28 19  1  0  0  0  0
 31 21  1  0  0  0  0
 32 22  1  0  0  0  0
 34 23  1  0  0  0  0
 39 25  1  0  0  0  0
 40 41  1  0  0  0  0
 40 51  1  0  0  0  0
 41 42  1  0  0  0  0
 42 53  1  0  0  0  0
 42 43  1  0  0  0  0
 43 44  1  0  0  0  0
 44 56  1  1  0  0  0
 44 46  1  0  0  0  0
 44 45  1  0  0  0  0
 45 26  1  0  0  0  0
 46 47  1  0  0  0  0
 48 46  2  0  0  0  0
 49 40  1  0  0  0  0
 50 40  1  0  0  0  0
 52 42  1  0  0  0  0
 54 43  1  0  0  0  0
 55 43  1  0  0  0  0
 57 45  1  0  0  0  0
M  END
$$$$
