MKN.pdb
 OpenBabel07022418553D

 54 53  0  0  1  0  0  0  0  0999 V2000
    1.6360   -4.5790    3.6910 C   0  0  0  0  0  0  0  0  0  0  0  0
    1.9900   -5.0780    2.0220 S   0  0  0  0  0  0  0  0  0  0  0  0
    1.7580   -3.8070    0.8190 C   0  0  0  0  0  0  0  0  0  0  0  0
    2.7440   -2.7150    0.6900 C   0  0  0  0  0  0  0  0  0  0  0  0
    3.0320   -1.8220    1.8310 C   0  0  2  0  0  0  0  0  0  0  0  0
    3.5620   -2.5680    2.9430 N   0  0  0  0  0  0  0  0  0  0  0  0
    1.9020   -0.9460    2.2480 C   0  0  0  0  0  0  0  0  0  0  0  0
    1.5720   -0.8910    3.4580 O   0  0  0  0  0  0  0  0  0  0  0  0
    1.1790   -3.5730    3.7250 H   0  0  0  0  0  0  0  0  0  0  0  0
    2.5380   -4.6380    4.3130 H   0  0  0  0  0  0  0  0  0  0  0  0
    0.8240   -5.2360    4.1570 H   0  0  0  0  0  0  0  0  0  0  0  0
    0.7060   -3.3740    0.8930 H   0  0  0  0  0  0  0  0  0  0  0  0
    1.7450   -4.3180   -0.2070 H   0  0  0  0  0  0  0  0  0  0  0  0
    2.4550   -2.1310   -0.2390 H   0  0  0  0  0  0  0  0  0  0  0  0
    3.7580   -3.1980    0.4310 H   0  0  0  0  0  0  0  0  0  0  0  0
    3.8820   -1.1340    1.4550 H   0  0  0  0  0  0  0  0  0  0  0  0
    4.1100   -1.9570    3.5980 H   0  0  0  0  0  0  0  0  0  0  0  0
    4.1350   -3.3830    2.5850 H   0  0  0  0  0  0  0  0  0  0  0  0
    1.2050   -0.1800    1.2850 N   0  0  0  0  0  0  0  0  0  0  0  0
    0.1100    0.6740    1.7290 C   0  0  1  0  0  0  0  0  0  0  0  0
    0.4150    2.1210    1.5080 C   0  0  0  0  0  0  0  0  0  0  0  0
    0.6650    2.5550    0.1210 C   0  0  0  0  0  0  0  0  0  0  0  0
   -0.4460    2.4890   -0.8540 C   0  0  0  0  0  0  0  0  0  0  0  0
   -1.6010    3.4020   -0.5140 C   0  0  0  0  0  0  0  0  0  0  0  0
   -2.6200    3.2360   -1.5270 N   0  0  0  0  0  0  0  0  0  0  0  0
   -1.1720    0.2530    1.1830 C   0  0  0  0  0  0  0  0  0  0  0  0
   -2.2230    0.8580    1.4250 O   0  0  0  0  0  0  0  0  0  0  0  0
    1.4380   -0.1950    0.2610 H   0  0  0  0  0  0  0  0  0  0  0  0
    0.0310    0.5630    2.8610 H   0  0  0  0  0  0  0  0  0  0  0  0
    1.3650    2.3330    2.0890 H   0  0  0  0  0  0  0  0  0  0  0  0
   -0.3700    2.7110    2.0370 H   0  0  0  0  0  0  0  0  0  0  0  0
    1.4750    1.8690   -0.2850 H   0  0  0  0  0  0  0  0  0  0  0  0
    1.1710    3.5650    0.0720 H   0  0  0  0  0  0  0  0  0  0  0  0
   -0.0390    2.8550   -1.8370 H   0  0  0  0  0  0  0  0  0  0  0  0
   -0.7720    1.4570   -1.0430 H   0  0  0  0  0  0  0  0  0  0  0  0
   -1.2770    4.4860   -0.5980 H   0  0  0  0  0  0  0  0  0  0  0  0
   -2.0220    3.3090    0.4720 H   0  0  0  0  0  0  0  0  0  0  0  0
   -3.0740    4.1680   -1.7430 H   0  0  0  0  0  0  0  0  0  0  0  0
   -3.3760    2.5790   -1.2150 H   0  0  0  0  0  0  0  0  0  0  0  0
   -0.8830   -0.5020   -3.2020 N   0  0  0  0  0  0  0  0  0  0  0  0
   -2.1340   -0.5610   -2.5650 C   0  0  0  0  0  0  0  0  0  0  0  0
   -2.9670    0.3550   -2.7430 O   0  0  0  0  0  0  0  0  0  0  0  0
   -2.5050   -1.6850   -1.6810 C   0  0  0  0  0  0  0  0  0  0  0  0
   -2.5330   -1.3560   -0.2250 C   0  0  2  0  0  0  0  0  0  0  0  0
   -1.2940   -0.9030    0.3280 N   0  0  0  0  0  0  0  0  0  0  0  0
   -3.0330   -2.5670    0.5190 C   0  0  0  0  0  0  0  0  0  0  0  0
   -2.3460   -3.0020    1.4620 O   0  0  0  0  0  0  0  0  0  0  0  0
   -4.2100   -3.1780    0.1740 O   0  0  0  0  0  0  0  0  0  0  0  0
   -0.2250   -1.3060   -3.0790 H   0  0  0  0  0  0  0  0  0  0  0  0
   -0.6400    0.3320   -3.7770 H   0  0  0  0  0  0  0  0  0  0  0  0
   -3.5230   -2.0080   -2.0110 H   0  0  0  0  0  0  0  0  0  0  0  0
   -1.8400   -2.5690   -1.8640 H   0  0  0  0  0  0  0  0  0  0  0  0
   -3.2900   -0.5310   -0.0690 H   0  0  0  0  0  0  0  0  0  0  0  0
   -0.4150   -1.4110    0.1210 H   0  0  0  0  0  0  0  0  0  0  0  0
  1  9  1  0  0  0  0
  1 11  1  0  0  0  0
  1 10  1  0  0  0  0
  2  1  1  0  0  0  0
  3 12  1  0  0  0  0
  3  2  1  0  0  0  0
  4  3  1  0  0  0  0
  4  5  1  0  0  0  0
  5 16  1  6  0  0  0
  5  7  1  0  0  0  0
  5  6  1  0  0  0  0
  6 17  1  0  0  0  0
  7  8  2  0  0  0  0
 13  3  1  0  0  0  0
 14  4  1  0  0  0  0
 15  4  1  0  0  0  0
 18  6  1  0  0  0  0
 19 20  1  0  0  0  0
 19  7  1  0  0  0  0
 20 29  1  1  0  0  0
 21 20  1  0  0  0  0
 21 31  1  0  0  0  0
 21 30  1  0  0  0  0
 22 21  1  0  0  0  0
 23 24  1  0  0  0  0
 23 22  1  0  0  0  0
 24 37  1  0  0  0  0
 25 39  1  0  0  0  0
 25 24  1  0  0  0  0
 26 27  2  0  0  0  0
 26 20  1  0  0  0  0
 28 19  1  0  0  0  0
 32 22  1  0  0  0  0
 33 22  1  0  0  0  0
 34 23  1  0  0  0  0
 35 23  1  0  0  0  0
 36 24  1  0  0  0  0
 38 25  1  0  0  0  0
 40 49  1  0  0  0  0
 40 41  1  0  0  0  0
 41 43  1  0  0  0  0
 42 41  2  0  0  0  0
 43 44  1  0  0  0  0
 44 53  1  1  0  0  0
 44 45  1  0  0  0  0
 44 46  1  0  0  0  0
 45 26  1  0  0  0  0
 46 47  1  0  0  0  0
 48 46  2  0  0  0  0
 50 40  1  0  0  0  0
 51 43  1  0  0  0  0
 52 43  1  0  0  0  0
 54 45  1  0  0  0  0
M  END
$$$$
