MKP.pdb
 OpenBabel07022418563D

 54 54  0  0  1  0  0  0  0  0999 V2000
    1.0160   -4.2410    0.2870 C   0  0  0  0  0  0  0  0  0  0  0  0
    1.8360   -3.8610    1.8370 S   0  0  0  0  0  0  0  0  0  0  0  0
    3.5920   -3.6400    1.7070 C   0  0  0  0  0  0  0  0  0  0  0  0
    4.0760   -2.4390    0.9820 C   0  0  0  0  0  0  0  0  0  0  0  0
    3.6580   -1.1190    1.5840 C   0  0  2  0  0  0  0  0  0  0  0  0
    4.1630   -1.0700    2.9460 N   0  0  0  0  0  0  0  0  0  0  0  0
    2.2110   -0.8480    1.5460 C   0  0  0  0  0  0  0  0  0  0  0  0
    1.4950   -0.8390    2.6090 O   0  0  0  0  0  0  0  0  0  0  0  0
    0.8220   -5.3330    0.1870 H   0  0  0  0  0  0  0  0  0  0  0  0
    1.5620   -3.8940   -0.5940 H   0  0  0  0  0  0  0  0  0  0  0  0
    0.0200   -3.7680    0.2970 H   0  0  0  0  0  0  0  0  0  0  0  0
    3.9940   -3.5690    2.7620 H   0  0  0  0  0  0  0  0  0  0  0  0
    4.1190   -4.5520    1.3080 H   0  0  0  0  0  0  0  0  0  0  0  0
    3.8040   -2.4530   -0.1110 H   0  0  0  0  0  0  0  0  0  0  0  0
    5.1930   -2.4290    0.9880 H   0  0  0  0  0  0  0  0  0  0  0  0
    4.2290   -0.3350    1.0340 H   0  0  0  0  0  0  0  0  0  0  0  0
    3.6490   -1.7080    3.5840 H   0  0  0  0  0  0  0  0  0  0  0  0
    5.1660   -1.2670    2.9940 H   0  0  0  0  0  0  0  0  0  0  0  0
    1.4810   -0.5720    0.3580 N   0  0  0  0  0  0  0  0  0  0  0  0
    0.0430   -0.2960    0.3560 C   0  0  1  0  0  0  0  0  0  0  0  0
   -0.1660    1.1700   -0.0250 C   0  0  0  0  0  0  0  0  0  0  0  0
    0.5530    2.0670    0.9990 C   0  0  0  0  0  0  0  0  0  0  0  0
    0.3120    3.4940    0.5730 C   0  0  0  0  0  0  0  0  0  0  0  0
   -1.1500    3.8570    0.5360 C   0  0  0  0  0  0  0  0  0  0  0  0
   -1.7730    3.7040    1.8370 N   0  0  0  0  0  0  0  0  0  0  0  0
   -0.5410   -1.1330   -0.7190 C   0  0  0  0  0  0  0  0  0  0  0  0
    0.2450   -1.7050   -1.5670 O   0  0  0  0  0  0  0  0  0  0  0  0
    2.0000   -0.5680   -0.5420 H   0  0  0  0  0  0  0  0  0  0  0  0
   -0.4670   -0.4550    1.2830 H   0  0  0  0  0  0  0  0  0  0  0  0
    0.1020    1.4000   -1.0480 H   0  0  0  0  0  0  0  0  0  0  0  0
   -1.2290    1.3870    0.1410 H   0  0  0  0  0  0  0  0  0  0  0  0
    1.6330    1.8970    1.0050 H   0  0  0  0  0  0  0  0  0  0  0  0
    0.0520    1.8940    1.9730 H   0  0  0  0  0  0  0  0  0  0  0  0
    0.8130    4.2210    1.2320 H   0  0  0  0  0  0  0  0  0  0  0  0
    0.6970    3.6320   -0.4730 H   0  0  0  0  0  0  0  0  0  0  0  0
   -1.7240    3.3270   -0.2380 H   0  0  0  0  0  0  0  0  0  0  0  0
   -1.1950    4.9490    0.3010 H   0  0  0  0  0  0  0  0  0  0  0  0
   -2.7050    4.1880    1.8070 H   0  0  0  0  0  0  0  0  0  0  0  0
   -1.8590    2.6920    2.0650 H   0  0  0  0  0  0  0  0  0  0  0  0
   -1.9030   -1.3940   -0.9350 N   0  0  0  0  0  0  0  0  0  0  0  0
   -2.4110   -2.2040   -2.0510 C   0  0  0  0  0  0  0  0  0  0  0  0
   -3.8340   -1.7190   -2.2600 C   0  0  0  0  0  0  0  0  0  0  0  0
   -4.2690   -1.4180   -0.8450 C   0  0  0  0  0  0  0  0  0  0  0  0
   -3.0010   -0.9700   -0.1250 C   0  0  1  0  0  0  0  0  0  0  0  0
   -3.0030   -1.6970    1.2010 C   0  0  0  0  0  0  0  0  0  0  0  0
   -2.1660   -2.5720    1.4520 O   0  0  0  0  0  0  0  0  0  0  0  0
   -3.9560   -1.3880    2.1670 O   0  0  0  0  0  0  0  0  0  0  0  0
   -2.4280   -3.2550   -1.6990 H   0  0  0  0  0  0  0  0  0  0  0  0
   -1.7880   -2.1270   -2.9420 H   0  0  0  0  0  0  0  0  0  0  0  0
   -3.8460   -0.8100   -2.8710 H   0  0  0  0  0  0  0  0  0  0  0  0
   -4.4660   -2.5210   -2.6930 H   0  0  0  0  0  0  0  0  0  0  0  0
   -5.0030   -0.6030   -0.8530 H   0  0  0  0  0  0  0  0  0  0  0  0
   -4.6900   -2.3290   -0.3770 H   0  0  0  0  0  0  0  0  0  0  0  0
   -3.0840    0.1010    0.0500 H   0  0  0  0  0  0  0  0  0  0  0  0
  1 11  1  0  0  0  0
  1  2  1  0  0  0  0
  3  2  1  0  0  0  0
  3 12  1  0  0  0  0
  4 15  1  0  0  0  0
  4  5  1  0  0  0  0
  4  3  1  0  0  0  0
  5 16  1  6  0  0  0
  5  6  1  0  0  0  0
  6 18  1  0  0  0  0
  6 17  1  0  0  0  0
  7  5  1  0  0  0  0
  7  8  2  0  0  0  0
  9  1  1  0  0  0  0
 10  1  1  0  0  0  0
 13  3  1  0  0  0  0
 14  4  1  0  0  0  0
 19  7  1  0  0  0  0
 20 19  1  0  0  0  0
 20 29  1  1  0  0  0
 21 31  1  0  0  0  0
 21 20  1  0  0  0  0
 21 22  1  0  0  0  0
 22 32  1  0  0  0  0
 22 33  1  0  0  0  0
 23 22  1  0  0  0  0
 23 34  1  0  0  0  0
 24 23  1  0  0  0  0
 24 25  1  0  0  0  0
 25 39  1  0  0  0  0
 26 20  1  0  0  0  0
 27 26  2  0  0  0  0
 28 19  1  0  0  0  0
 30 21  1  0  0  0  0
 35 23  1  0  0  0  0
 36 24  1  0  0  0  0
 37 24  1  0  0  0  0
 38 25  1  0  0  0  0
 40 26  1  0  0  0  0
 40 44  1  0  0  0  0
 41 48  1  0  0  0  0
 41 40  1  0  0  0  0
 42 41  1  0  0  0  0
 42 43  1  0  0  0  0
 43 53  1  0  0  0  0
 43 44  1  0  0  0  0
 44 54  1  1  0  0  0
 44 45  1  0  0  0  0
 45 46  2  0  0  0  0
 45 47  1  0  0  0  0
 49 41  1  0  0  0  0
 50 42  1  0  0  0  0
 51 42  1  0  0  0  0
 52 43  1  0  0  0  0
M  END
$$$$
