MKR.pdb
 OpenBabel07022418553D

 63 62  0  0  1  0  0  0  0  0999 V2000
    0.1670   -2.2700    4.6930 C   0  0  0  0  0  0  0  0  0  0  0  0
    1.2590   -1.2960    3.6080 S   0  0  0  0  0  0  0  0  0  0  0  0
    2.9840   -1.5340    4.0500 C   0  0  0  0  0  0  0  0  0  0  0  0
    3.9350   -0.7430    3.2020 C   0  0  0  0  0  0  0  0  0  0  0  0
    3.6530    0.7540    3.3210 C   0  0  2  0  0  0  0  0  0  0  0  0
    3.7810    1.1990    4.6730 N   0  0  0  0  0  0  0  0  0  0  0  0
    2.3180    1.0340    2.7400 C   0  0  0  0  0  0  0  0  0  0  0  0
    1.3920    1.5420    3.4570 O   0  0  0  0  0  0  0  0  0  0  0  0
   -0.8400   -2.2580    4.2490 H   0  0  0  0  0  0  0  0  0  0  0  0
    0.5210   -3.3380    4.7400 H   0  0  0  0  0  0  0  0  0  0  0  0
    0.2140   -1.8560    5.7230 H   0  0  0  0  0  0  0  0  0  0  0  0
    3.1590   -1.3300    5.1290 H   0  0  0  0  0  0  0  0  0  0  0  0
    3.2440   -2.6160    3.8980 H   0  0  0  0  0  0  0  0  0  0  0  0
    3.8260   -1.0460    2.1410 H   0  0  0  0  0  0  0  0  0  0  0  0
    4.9770   -0.9810    3.4790 H   0  0  0  0  0  0  0  0  0  0  0  0
    4.4600    1.2370    2.7070 H   0  0  0  0  0  0  0  0  0  0  0  0
    4.3910    0.5880    5.2740 H   0  0  0  0  0  0  0  0  0  0  0  0
    2.8310    1.3310    5.0900 H   0  0  0  0  0  0  0  0  0  0  0  0
    2.0590    0.7440    1.3910 N   0  0  0  0  0  0  0  0  0  0  0  0
    0.7300    1.0080    0.7480 C   0  0  1  0  0  0  0  0  0  0  0  0
    1.0380    2.0660   -0.2600 C   0  0  0  0  0  0  0  0  0  0  0  0
    0.0470    2.6300   -1.1360 C   0  0  0  0  0  0  0  0  0  0  0  0
   -1.1290    3.3930   -0.8020 C   0  0  0  0  0  0  0  0  0  0  0  0
   -2.2710    2.9490   -0.0160 C   0  0  0  0  0  0  0  0  0  0  0  0
   -2.1070    2.5770    1.3450 N   0  0  0  0  0  0  0  0  0  0  0  0
    0.3340   -0.2960    0.1660 C   0  0  0  0  0  0  0  0  0  0  0  0
    1.1100   -1.3030    0.2730 O   0  0  0  0  0  0  0  0  0  0  0  0
    2.7950    0.3290    0.7860 H   0  0  0  0  0  0  0  0  0  0  0  0
    0.1330    1.3480    1.5890 H   0  0  0  0  0  0  0  0  0  0  0  0
    1.6900    2.8310    0.2710 H   0  0  0  0  0  0  0  0  0  0  0  0
    1.8370    1.5680   -0.9280 H   0  0  0  0  0  0  0  0  0  0  0  0
    0.6300    3.3100   -1.8900 H   0  0  0  0  0  0  0  0  0  0  0  0
   -0.2180    1.7860   -1.9000 H   0  0  0  0  0  0  0  0  0  0  0  0
   -1.5770    3.7410   -1.8130 H   0  0  0  0  0  0  0  0  0  0  0  0
   -0.8470    4.4310   -0.3810 H   0  0  0  0  0  0  0  0  0  0  0  0
   -2.9210    2.1890   -0.5380 H   0  0  0  0  0  0  0  0  0  0  0  0
   -2.9910    3.8430    0.0230 H   0  0  0  0  0  0  0  0  0  0  0  0
   -2.6760    1.7420    1.6080 H   0  0  0  0  0  0  0  0  0  0  0  0
   -2.1730    3.3640    2.0250 H   0  0  0  0  0  0  0  0  0  0  0  0
   -4.7550   -3.1850   -1.7100 N   0  0  0  0  0  0  0  0  0  0  0  0
   -3.8330   -3.2030   -2.7900 C   0  0  0  0  0  0  0  0  0  0  0  0
   -3.8330   -2.1920   -3.6250 N   0  0  0  0  0  0  0  0  0  0  0  0
   -2.9080   -4.2190   -3.0570 N   0  0  0  0  0  0  0  0  0  0  0  0
   -1.6310   -4.0440   -3.6130 C   0  0  0  0  0  0  0  0  0  0  0  0
   -0.5180   -3.5120   -2.8690 C   0  0  0  0  0  0  0  0  0  0  0  0
   -0.3570   -2.2260   -2.2250 C   0  0  0  0  0  0  0  0  0  0  0  0
   -1.2100   -1.8830   -1.0830 C   0  0  2  0  0  0  0  0  0  0  0  0
   -0.8760   -0.5500   -0.5300 N   0  0  0  0  0  0  0  0  0  0  0  0
   -1.2100   -2.8990    0.0070 C   0  0  0  0  0  0  0  0  0  0  0  0
   -1.4370   -4.1170   -0.1780 O   0  0  0  0  0  0  0  0  0  0  0  0
   -0.9470   -2.4890    1.3010 O   0  0  0  0  0  0  0  0  0  0  0  0
   -5.6440   -3.7320   -1.8320 H   0  0  0  0  0  0  0  0  0  0  0  0
   -4.5590   -2.6460   -0.8270 H   0  0  0  0  0  0  0  0  0  0  0  0
   -4.4800   -1.3960   -3.5130 H   0  0  0  0  0  0  0  0  0  0  0  0
   -3.2260   -5.2080   -2.7980 H   0  0  0  0  0  0  0  0  0  0  0  0
   -1.3030   -5.1080   -3.9570 H   0  0  0  0  0  0  0  0  0  0  0  0
   -1.7450   -3.5160   -4.6460 H   0  0  0  0  0  0  0  0  0  0  0  0
    0.4140   -3.6070   -3.5910 H   0  0  0  0  0  0  0  0  0  0  0  0
   -0.2060   -4.3680   -2.1380 H   0  0  0  0  0  0  0  0  0  0  0  0
    0.7530   -2.0420   -1.9530 H   0  0  0  0  0  0  0  0  0  0  0  0
   -0.5340   -1.4180   -3.0080 H   0  0  0  0  0  0  0  0  0  0  0  0
   -2.2640   -1.7780   -1.3730 H   0  0  0  0  0  0  0  0  0  0  0  0
   -1.5280    0.2530   -0.6340 H   0  0  0  0  0  0  0  0  0  0  0  0
  1 10  1  0  0  0  0
  1 11  1  0  0  0  0
  2  3  1  0  0  0  0
  2  1  1  0  0  0  0
  3 12  1  0  0  0  0
  4  5  1  0  0  0  0
  4 15  1  0  0  0  0
  4  3  1  0  0  0  0
  5 16  1  6  0  0  0
  5  6  1  0  0  0  0
  6 18  1  0  0  0  0
  6 17  1  0  0  0  0
  7  5  1  0  0  0  0
  7  8  2  0  0  0  0
  9  1  1  0  0  0  0
 13  3  1  0  0  0  0
 14  4  1  0  0  0  0
 19  7  1  0  0  0  0
 20 19  1  0  0  0  0
 20 29  1  1  0  0  0
 21 30  1  0  0  0  0
 21 20  1  0  0  0  0
 22 23  1  0  0  0  0
 22 21  1  0  0  0  0
 23 35  1  0  0  0  0
 23 24  1  0  0  0  0
 24 37  1  0  0  0  0
 24 25  1  0  0  0  0
 25 38  1  0  0  0  0
 25 39  1  0  0  0  0
 26 27  2  0  0  0  0
 26 20  1  0  0  0  0
 28 19  1  0  0  0  0
 31 21  1  0  0  0  0
 32 22  1  0  0  0  0
 33 22  1  0  0  0  0
 34 23  1  0  0  0  0
 36 24  1  0  0  0  0
 40 53  1  0  0  0  0
 41 40  1  0  0  0  0
 42 54  1  0  0  0  0
 42 41  2  0  0  0  0
 43 55  1  0  0  0  0
 43 41  1  0  0  0  0
 44 43  1  0  0  0  0
 44 45  1  0  0  0  0
 45 46  1  0  0  0  0
 45 59  1  0  0  0  0
 46 60  1  0  0  0  0
 46 47  1  0  0  0  0
 47 62  1  6  0  0  0
 47 48  1  0  0  0  0
 47 49  1  0  0  0  0
 48 26  1  0  0  0  0
 49 51  1  0  0  0  0
 50 49  2  0  0  0  0
 52 40  1  0  0  0  0
 56 44  1  0  0  0  0
 57 44  1  0  0  0  0
 58 45  1  0  0  0  0
 61 46  1  0  0  0  0
 63 48  1  0  0  0  0
M  END
$$$$
