MKS.pdb
 OpenBabel07022418563D

 51 50  0  0  1  0  0  0  0  0999 V2000
    3.2710   -7.3490    1.6820 C   0  0  0  0  0  0  0  0  0  0  0  0
    3.9710   -5.8870    0.8790 S   0  0  0  0  0  0  0  0  0  0  0  0
    2.5720   -4.9980    0.0860 C   0  0  0  0  0  0  0  0  0  0  0  0
    3.1200   -3.7800   -0.5900 C   0  0  0  0  0  0  0  0  0  0  0  0
    2.0810   -2.9430   -1.3000 C   0  0  2  0  0  0  0  0  0  0  0  0
    2.7860   -1.8240   -1.8900 N   0  0  0  0  0  0  0  0  0  0  0  0
    1.0330   -2.4740   -0.3440 C   0  0  0  0  0  0  0  0  0  0  0  0
    0.2670   -3.2660    0.2590 O   0  0  0  0  0  0  0  0  0  0  0  0
    2.8000   -7.0800    2.6720 H   0  0  0  0  0  0  0  0  0  0  0  0
    4.0540   -8.1110    1.9120 H   0  0  0  0  0  0  0  0  0  0  0  0
    2.5140   -7.7790    0.9990 H   0  0  0  0  0  0  0  0  0  0  0  0
    1.8870   -4.7640    0.9410 H   0  0  0  0  0  0  0  0  0  0  0  0
    2.1310   -5.7190   -0.6270 H   0  0  0  0  0  0  0  0  0  0  0  0
    3.5970   -3.1340    0.1870 H   0  0  0  0  0  0  0  0  0  0  0  0
    3.9200   -4.0980   -1.2810 H   0  0  0  0  0  0  0  0  0  0  0  0
    1.6670   -3.5500   -2.1200 H   0  0  0  0  0  0  0  0  0  0  0  0
    3.1860   -2.0300   -2.8120 H   0  0  0  0  0  0  0  0  0  0  0  0
    3.3890   -1.3120   -1.2340 H   0  0  0  0  0  0  0  0  0  0  0  0
    0.8390   -1.0960   -0.0580 N   0  0  0  0  0  0  0  0  0  0  0  0
   -0.2000   -0.6290    0.8900 C   0  0  1  0  0  0  0  0  0  0  0  0
    0.4490   -0.0110    2.0660 C   0  0  0  0  0  0  0  0  0  0  0  0
    1.3340    1.1450    1.8680 C   0  0  0  0  0  0  0  0  0  0  0  0
    0.7680    2.3860    1.2920 C   0  0  0  0  0  0  0  0  0  0  0  0
   -0.3220    3.0000    2.1440 C   0  0  0  0  0  0  0  0  0  0  0  0
   -0.8120    4.1850    1.4790 N   0  0  0  0  0  0  0  0  0  0  0  0
   -1.1760    0.1250    0.1270 C   0  0  0  0  0  0  0  0  0  0  0  0
   -0.9770    0.3820   -1.0860 O   0  0  0  0  0  0  0  0  0  0  0  0
    1.4450   -0.3950   -0.5290 H   0  0  0  0  0  0  0  0  0  0  0  0
   -0.7430   -1.5480    1.2870 H   0  0  0  0  0  0  0  0  0  0  0  0
    1.0730   -0.8230    2.5420 H   0  0  0  0  0  0  0  0  0  0  0  0
   -0.2970    0.2420    2.8650 H   0  0  0  0  0  0  0  0  0  0  0  0
    1.7350    1.4220    2.8900 H   0  0  0  0  0  0  0  0  0  0  0  0
    2.2510    0.8910    1.2890 H   0  0  0  0  0  0  0  0  0  0  0  0
    1.6030    3.1480    1.2880 H   0  0  0  0  0  0  0  0  0  0  0  0
    0.4430    2.3220    0.2380 H   0  0  0  0  0  0  0  0  0  0  0  0
   -1.0810    2.2980    2.4570 H   0  0  0  0  0  0  0  0  0  0  0  0
    0.1190    3.3940    3.1150 H   0  0  0  0  0  0  0  0  0  0  0  0
   -1.5670    4.6610    1.9870 H   0  0  0  0  0  0  0  0  0  0  0  0
   -0.9830    4.0440    0.4650 H   0  0  0  0  0  0  0  0  0  0  0  0
   -5.1430   -0.0720    0.6090 O   0  0  0  0  0  0  0  0  0  0  0  0
   -4.5150    0.4030   -0.5190 C   0  0  0  0  0  0  0  0  0  0  0  0
   -3.3530    1.3540   -0.1350 C   0  0  2  0  0  0  0  0  0  0  0  0
   -2.3950    0.6110    0.6760 N   0  0  0  0  0  0  0  0  0  0  0  0
   -3.9410    2.5170    0.5130 C   0  0  0  0  0  0  0  0  0  0  0  0
   -4.7630    3.2830   -0.1040 O   0  0  0  0  0  0  0  0  0  0  0  0
   -3.6330    2.8340    1.8220 O   0  0  0  0  0  0  0  0  0  0  0  0
   -6.1050   -0.2500    0.4920 H   0  0  0  0  0  0  0  0  0  0  0  0
   -5.2160    1.0340   -1.0850 H   0  0  0  0  0  0  0  0  0  0  0  0
   -4.1230   -0.4080   -1.1650 H   0  0  0  0  0  0  0  0  0  0  0  0
   -2.9390    1.6460   -1.1180 H   0  0  0  0  0  0  0  0  0  0  0  0
   -2.6470    0.4540    1.6740 H   0  0  0  0  0  0  0  0  0  0  0  0
  1 10  1  0  0  0  0
  1  9  1  0  0  0  0
  2  1  1  0  0  0  0
  3  2  1  0  0  0  0
  3 12  1  0  0  0  0
  4  3  1  0  0  0  0
  4 14  1  0  0  0  0
  5 16  1  6  0  0  0
  5  4  1  0  0  0  0
  5  7  1  0  0  0  0
  6  5  1  0  0  0  0
  6 18  1  0  0  0  0
  7 19  1  0  0  0  0
  7  8  2  0  0  0  0
 11  1  1  0  0  0  0
 13  3  1  0  0  0  0
 15  4  1  0  0  0  0
 17  6  1  0  0  0  0
 19 20  1  0  0  0  0
 20 29  1  1  0  0  0
 20 21  1  0  0  0  0
 21 30  1  0  0  0  0
 21 31  1  0  0  0  0
 22 21  1  0  0  0  0
 22 32  1  0  0  0  0
 23 22  1  0  0  0  0
 23 24  1  0  0  0  0
 24 36  1  0  0  0  0
 24 37  1  0  0  0  0
 25 38  1  0  0  0  0
 25 24  1  0  0  0  0
 26 43  1  0  0  0  0
 26 20  1  0  0  0  0
 27 26  2  0  0  0  0
 28 19  1  0  0  0  0
 33 22  1  0  0  0  0
 34 23  1  0  0  0  0
 35 23  1  0  0  0  0
 39 25  1  0  0  0  0
 41 42  1  0  0  0  0
 41 40  1  0  0  0  0
 42 50  1  6  0  0  0
 42 44  1  0  0  0  0
 42 43  1  0  0  0  0
 43 51  1  0  0  0  0
 44 46  1  0  0  0  0
 45 44  2  0  0  0  0
 47 40  1  0  0  0  0
 48 41  1  0  0  0  0
 49 41  1  0  0  0  0
M  END
$$$$
