MKV.pdb
 OpenBabel07022418563D

 56 55  0  0  1  0  0  0  0  0999 V2000
    2.1820   -5.7030    1.3530 C   0  0  0  0  0  0  0  0  0  0  0  0
    2.6200   -4.6560   -0.0680 S   0  0  0  0  0  0  0  0  0  0  0  0
    3.0070   -3.0200    0.5870 C   0  0  0  0  0  0  0  0  0  0  0  0
    3.3950   -2.0410   -0.4920 C   0  0  0  0  0  0  0  0  0  0  0  0
    3.6910   -0.7160    0.2260 C   0  0  2  0  0  0  0  0  0  0  0  0
    4.7820   -1.0250    1.1460 N   0  0  0  0  0  0  0  0  0  0  0  0
    2.5110   -0.2890    1.0180 C   0  0  0  0  0  0  0  0  0  0  0  0
    2.5380   -0.2510    2.2930 O   0  0  0  0  0  0  0  0  0  0  0  0
    1.6440   -5.0540    2.0740 H   0  0  0  0  0  0  0  0  0  0  0  0
    1.6100   -6.5920    1.0580 H   0  0  0  0  0  0  0  0  0  0  0  0
    3.1420   -5.9760    1.8760 H   0  0  0  0  0  0  0  0  0  0  0  0
    3.8250   -3.1280    1.3110 H   0  0  0  0  0  0  0  0  0  0  0  0
    2.0990   -2.6270    1.0890 H   0  0  0  0  0  0  0  0  0  0  0  0
    2.5160   -1.8360   -1.1490 H   0  0  0  0  0  0  0  0  0  0  0  0
    4.2320   -2.3580   -1.1100 H   0  0  0  0  0  0  0  0  0  0  0  0
    4.0220    0.0500   -0.4890 H   0  0  0  0  0  0  0  0  0  0  0  0
    5.4240   -1.6930    0.6630 H   0  0  0  0  0  0  0  0  0  0  0  0
    5.3390   -0.1400    1.3360 H   0  0  0  0  0  0  0  0  0  0  0  0
    1.2930    0.1000    0.3960 N   0  0  0  0  0  0  0  0  0  0  0  0
    0.1230    0.5260    1.1810 C   0  0  1  0  0  0  0  0  0  0  0  0
   -0.1820    1.9660    0.9100 C   0  0  0  0  0  0  0  0  0  0  0  0
   -1.3510    2.5180    1.6510 C   0  0  0  0  0  0  0  0  0  0  0  0
   -1.5470    3.9980    1.2890 C   0  0  0  0  0  0  0  0  0  0  0  0
   -2.7390    4.5440    2.0500 C   0  0  0  0  0  0  0  0  0  0  0  0
   -3.9470    3.8250    1.7220 N   0  0  0  0  0  0  0  0  0  0  0  0
   -1.0140   -0.3930    0.9490 C   0  0  0  0  0  0  0  0  0  0  0  0
   -2.1280   -0.2650    1.5090 O   0  0  0  0  0  0  0  0  0  0  0  0
    1.2320    0.0820   -0.6480 H   0  0  0  0  0  0  0  0  0  0  0  0
    0.4030    0.4480    2.2570 H   0  0  0  0  0  0  0  0  0  0  0  0
   -0.3380    2.1160   -0.1930 H   0  0  0  0  0  0  0  0  0  0  0  0
    0.6960    2.5930    1.1590 H   0  0  0  0  0  0  0  0  0  0  0  0
   -2.3210    2.0340    1.4120 H   0  0  0  0  0  0  0  0  0  0  0  0
   -1.2070    2.4900    2.7490 H   0  0  0  0  0  0  0  0  0  0  0  0
   -0.6450    4.5930    1.4970 H   0  0  0  0  0  0  0  0  0  0  0  0
   -1.7460    4.0510    0.1990 H   0  0  0  0  0  0  0  0  0  0  0  0
   -2.8760    5.5970    1.7320 H   0  0  0  0  0  0  0  0  0  0  0  0
   -2.5970    4.4530    3.1450 H   0  0  0  0  0  0  0  0  0  0  0  0
   -3.9550    3.4370    0.7610 H   0  0  0  0  0  0  0  0  0  0  0  0
   -4.2170    3.1350    2.4590 H   0  0  0  0  0  0  0  0  0  0  0  0
   -1.3250   -2.9300   -2.5390 C   0  0  0  0  0  0  0  0  0  0  0  0
   -2.4170   -2.4610   -1.6200 C   0  0  0  0  0  0  0  0  0  0  0  0
   -2.9870   -1.1340   -2.1070 C   0  0  0  0  0  0  0  0  0  0  0  0
   -1.9750   -2.3900   -0.1820 C   0  0  2  0  0  0  0  0  0  0  0  0
   -0.8810   -1.5010    0.0470 N   0  0  0  0  0  0  0  0  0  0  0  0
   -1.6790   -3.7820    0.2590 C   0  0  0  0  0  0  0  0  0  0  0  0
   -0.5700   -4.0780    0.7700 O   0  0  0  0  0  0  0  0  0  0  0  0
   -2.6160   -4.7950    0.1200 O   0  0  0  0  0  0  0  0  0  0  0  0
   -1.4960   -2.4590   -3.5290 H   0  0  0  0  0  0  0  0  0  0  0  0
   -1.3730   -4.0310   -2.7220 H   0  0  0  0  0  0  0  0  0  0  0  0
   -0.3150   -2.6090   -2.2070 H   0  0  0  0  0  0  0  0  0  0  0  0
   -3.2490   -3.1930   -1.6740 H   0  0  0  0  0  0  0  0  0  0  0  0
   -3.7330   -1.3330   -2.9080 H   0  0  0  0  0  0  0  0  0  0  0  0
   -3.4970   -0.6640   -1.2640 H   0  0  0  0  0  0  0  0  0  0  0  0
   -2.2010   -0.5070   -2.5720 H   0  0  0  0  0  0  0  0  0  0  0  0
   -2.8480   -2.0620    0.4220 H   0  0  0  0  0  0  0  0  0  0  0  0
    0.0450   -1.6130   -0.4220 H   0  0  0  0  0  0  0  0  0  0  0  0
  1 11  1  0  0  0  0
  1  9  1  0  0  0  0
  2  3  1  0  0  0  0
  2  1  1  0  0  0  0
  3 13  1  0  0  0  0
  3 12  1  0  0  0  0
  4  5  1  0  0  0  0
  4  3  1  0  0  0  0
  5 16  1  6  0  0  0
  5  7  1  0  0  0  0
  5  6  1  0  0  0  0
  6 18  1  0  0  0  0
  7  8  2  0  0  0  0
 10  1  1  0  0  0  0
 14  4  1  0  0  0  0
 15  4  1  0  0  0  0
 17  6  1  0  0  0  0
 19  7  1  0  0  0  0
 19 20  1  0  0  0  0
 20 29  1  1  0  0  0
 21 31  1  0  0  0  0
 21 20  1  0  0  0  0
 21 22  1  0  0  0  0
 22 33  1  0  0  0  0
 23 34  1  0  0  0  0
 23 22  1  0  0  0  0
 23 24  1  0  0  0  0
 24 37  1  0  0  0  0
 25 24  1  0  0  0  0
 25 39  1  0  0  0  0
 26 20  1  0  0  0  0
 26 27  2  0  0  0  0
 28 19  1  0  0  0  0
 30 21  1  0  0  0  0
 32 22  1  0  0  0  0
 35 23  1  0  0  0  0
 36 24  1  0  0  0  0
 38 25  1  0  0  0  0
 40 50  1  0  0  0  0
 40 41  1  0  0  0  0
 41 43  1  0  0  0  0
 42 41  1  0  0  0  0
 42 53  1  0  0  0  0
 43 44  1  0  0  0  0
 43 45  1  0  0  0  0
 43 55  1  1  0  0  0
 44 26  1  0  0  0  0
 45 46  1  0  0  0  0
 47 45  2  0  0  0  0
 48 40  1  0  0  0  0
 49 40  1  0  0  0  0
 51 41  1  0  0  0  0
 52 42  1  0  0  0  0
 54 42  1  0  0  0  0
 56 44  1  0  0  0  0
M  END
$$$$
