MKW.pdb
 OpenBabel07022418563D

 64 65  0  0  1  0  0  0  0  0999 V2000
    3.3090    1.4260    6.5010 C   0  0  0  0  0  0  0  0  0  0  0  0
    4.7130    0.4230    5.9460 S   0  0  0  0  0  0  0  0  0  0  0  0
    4.4300   -0.2240    4.2700 C   0  0  0  0  0  0  0  0  0  0  0  0
    4.3980    0.9240    3.3060 C   0  0  0  0  0  0  0  0  0  0  0  0
    4.1860    0.5460    1.8790 C   0  0  2  0  0  0  0  0  0  0  0  0
    4.1770    1.7560    1.0270 N   0  0  0  0  0  0  0  0  0  0  0  0
    2.9760   -0.2630    1.6110 C   0  0  0  0  0  0  0  0  0  0  0  0
    2.7950   -1.3820    2.1370 O   0  0  0  0  0  0  0  0  0  0  0  0
    2.6680    0.9040    7.2190 H   0  0  0  0  0  0  0  0  0  0  0  0
    3.6620    2.3720    6.9680 H   0  0  0  0  0  0  0  0  0  0  0  0
    2.6670    1.7330    5.6500 H   0  0  0  0  0  0  0  0  0  0  0  0
    3.5790   -0.9050    4.2320 H   0  0  0  0  0  0  0  0  0  0  0  0
    5.3380   -0.8340    4.0250 H   0  0  0  0  0  0  0  0  0  0  0  0
    3.6750    1.7050    3.6320 H   0  0  0  0  0  0  0  0  0  0  0  0
    5.4210    1.3980    3.3550 H   0  0  0  0  0  0  0  0  0  0  0  0
    5.0620   -0.0420    1.5390 H   0  0  0  0  0  0  0  0  0  0  0  0
    5.0670    2.2710    1.3010 H   0  0  0  0  0  0  0  0  0  0  0  0
    4.3600    1.4120    0.0560 H   0  0  0  0  0  0  0  0  0  0  0  0
    1.9360    0.1900    0.7270 N   0  0  0  0  0  0  0  0  0  0  0  0
    0.7490   -0.5580    0.4360 C   0  0  1  0  0  0  0  0  0  0  0  0
   -0.3570   -0.2570    1.3630 C   0  0  0  0  0  0  0  0  0  0  0  0
   -0.9320    1.0770    1.5090 C   0  0  0  0  0  0  0  0  0  0  0  0
   -0.0470    2.1630    2.0350 C   0  0  0  0  0  0  0  0  0  0  0  0
   -0.8470    3.4820    2.1440 C   0  0  0  0  0  0  0  0  0  0  0  0
   -1.9700    3.3080    3.0440 N   0  0  0  0  0  0  0  0  0  0  0  0
    0.3820   -0.5300   -0.9910 C   0  0  0  0  0  0  0  0  0  0  0  0
    1.0910    0.0770   -1.8620 O   0  0  0  0  0  0  0  0  0  0  0  0
    2.1290    1.1060    0.2700 H   0  0  0  0  0  0  0  0  0  0  0  0
    0.9790   -1.6780    0.6610 H   0  0  0  0  0  0  0  0  0  0  0  0
   -1.2310   -0.9890    1.1830 H   0  0  0  0  0  0  0  0  0  0  0  0
   -0.0730   -0.5900    2.4310 H   0  0  0  0  0  0  0  0  0  0  0  0
   -1.4830    1.4350    0.5920 H   0  0  0  0  0  0  0  0  0  0  0  0
   -1.7890    1.0300    2.2680 H   0  0  0  0  0  0  0  0  0  0  0  0
    0.8510    2.3900    1.4880 H   0  0  0  0  0  0  0  0  0  0  0  0
    0.2120    1.9300    3.1110 H   0  0  0  0  0  0  0  0  0  0  0  0
   -1.2140    3.8080    1.1580 H   0  0  0  0  0  0  0  0  0  0  0  0
   -0.1920    4.2850    2.5380 H   0  0  0  0  0  0  0  0  0  0  0  0
   -1.6850    3.6530    3.9930 H   0  0  0  0  0  0  0  0  0  0  0  0
   -2.7450    3.9310    2.7260 H   0  0  0  0  0  0  0  0  0  0  0  0
   -0.7790   -1.1730   -1.4940 N   0  0  0  0  0  0  0  0  0  0  0  0
   -1.1020   -1.1170   -2.9210 C   0  0  1  0  0  0  0  0  0  0  0  0
   -1.0100   -2.5410   -3.3970 C   0  0  0  0  0  0  0  0  0  0  0  0
   -1.9160   -3.4830   -2.7060 C   0  0  0  0  0  0  0  0  0  0  0  0
   -1.5600   -4.2600   -1.5960 C   0  0  0  0  0  0  0  0  0  0  0  0
   -2.6160   -4.9660   -1.1840 N   0  0  0  0  0  0  0  0  0  0  0  0
   -3.6520   -4.6970   -1.9630 C   0  0  0  0  0  0  0  0  0  0  0  0
   -4.9530   -5.1320   -2.0060 C   0  0  0  0  0  0  0  0  0  0  0  0
   -5.8600   -4.6970   -2.9520 C   0  0  0  0  0  0  0  0  0  0  0  0
   -5.4190   -3.7750   -3.8990 C   0  0  0  0  0  0  0  0  0  0  0  0
   -4.1310   -3.3320   -3.8720 C   0  0  0  0  0  0  0  0  0  0  0  0
   -3.2390   -3.7700   -2.9260 C   0  0  0  0  0  0  0  0  0  0  0  0
   -2.3870   -0.5160   -3.1920 C   0  0  0  0  0  0  0  0  0  0  0  0
   -2.8420   -0.2400   -4.3290 O   0  0  0  0  0  0  0  0  0  0  0  0
   -3.2440   -0.1910   -2.1230 O   0  0  0  0  0  0  0  0  0  0  0  0
   -1.4360   -1.6990   -0.8770 H   0  0  0  0  0  0  0  0  0  0  0  0
   -0.2940   -0.5600   -3.4670 H   0  0  0  0  0  0  0  0  0  0  0  0
   -1.1660   -2.6310   -4.4940 H   0  0  0  0  0  0  0  0  0  0  0  0
    0.0470   -2.8930   -3.2200 H   0  0  0  0  0  0  0  0  0  0  0  0
   -0.5910   -4.2980   -1.1310 H   0  0  0  0  0  0  0  0  0  0  0  0
   -2.6500   -5.6420   -0.3680 H   0  0  0  0  0  0  0  0  0  0  0  0
   -5.3010   -5.8480   -1.2710 H   0  0  0  0  0  0  0  0  0  0  0  0
   -6.8860   -5.0240   -3.0040 H   0  0  0  0  0  0  0  0  0  0  0  0
   -6.1090   -3.4160   -4.6540 H   0  0  0  0  0  0  0  0  0  0  0  0
   -3.8240   -2.6410   -4.6230 H   0  0  0  0  0  0  0  0  0  0  0  0
  1 10  1  0  0  0  0
  1  9  1  0  0  0  0
  2  1  1  0  0  0  0
  3  2  1  0  0  0  0
  4 15  1  0  0  0  0
  4 14  1  0  0  0  0
  4  3  1  0  0  0  0
  5 16  1  6  0  0  0
  5  4  1  0  0  0  0
  6 17  1  0  0  0  0
  6  5  1  0  0  0  0
  7  5  1  0  0  0  0
  7  8  2  0  0  0  0
 11  1  1  0  0  0  0
 12  3  1  0  0  0  0
 13  3  1  0  0  0  0
 18  6  1  0  0  0  0
 19  7  1  0  0  0  0
 20 29  1  1  0  0  0
 20 19  1  0  0  0  0
 20 21  1  0  0  0  0
 21 22  1  0  0  0  0
 21 31  1  0  0  0  0
 22 23  1  0  0  0  0
 22 33  1  0  0  0  0
 23 24  1  0  0  0  0
 23 35  1  0  0  0  0
 24 37  1  0  0  0  0
 24 25  1  0  0  0  0
 25 38  1  0  0  0  0
 26 20  1  0  0  0  0
 27 26  2  0  0  0  0
 28 19  1  0  0  0  0
 30 21  1  0  0  0  0
 32 22  1  0  0  0  0
 34 23  1  0  0  0  0
 36 24  1  0  0  0  0
 39 25  1  0  0  0  0
 40 26  1  0  0  0  0
 40 55  1  0  0  0  0
 41 56  1  6  0  0  0
 41 40  1  0  0  0  0
 42 58  1  0  0  0  0
 42 41  1  0  0  0  0
 42 43  1  0  0  0  0
 43 44  2  0  0  0  0
 44 45  1  0  0  0  0
 44 59  1  0  0  0  0
 45 60  1  0  0  0  0
 46 45  1  0  0  0  0
 47 46  1  0  0  0  0
 47 61  1  0  0  0  0
 48 47  2  0  0  0  0
 49 50  2  0  0  0  0
 49 48  1  0  0  0  0
 50 51  1  0  0  0  0
 51 43  1  0  0  0  0
 51 46  2  0  0  0  0
 52 41  1  0  0  0  0
 52 54  1  0  0  0  0
 53 52  2  0  0  0  0
 57 42  1  0  0  0  0
 62 48  1  0  0  0  0
 63 49  1  0  0  0  0
 64 50  1  0  0  0  0
M  END
$$$$
