MKY.pdb
 OpenBabel07022418563D

 61 61  0  0  1  0  0  0  0  0999 V2000
    0.8260   -1.7380    4.2100 C   0  0  0  0  0  0  0  0  0  0  0  0
   -0.7560   -2.6030    4.4410 S   0  0  0  0  0  0  0  0  0  0  0  0
   -1.0070   -3.6540    2.9840 C   0  0  0  0  0  0  0  0  0  0  0  0
   -1.2090   -2.8210    1.7330 C   0  0  0  0  0  0  0  0  0  0  0  0
   -2.3890   -1.9140    1.8380 C   0  0  2  0  0  0  0  0  0  0  0  0
   -3.6290   -2.6250    2.0520 N   0  0  0  0  0  0  0  0  0  0  0  0
   -2.4830   -0.9390    0.7360 C   0  0  0  0  0  0  0  0  0  0  0  0
   -3.6030   -0.7390    0.1520 O   0  0  0  0  0  0  0  0  0  0  0  0
    1.6210   -2.5300    4.3240 H   0  0  0  0  0  0  0  0  0  0  0  0
    0.8690   -1.3550    3.1770 H   0  0  0  0  0  0  0  0  0  0  0  0
    1.0090   -0.9770    4.9730 H   0  0  0  0  0  0  0  0  0  0  0  0
   -0.0860   -4.2760    2.8960 H   0  0  0  0  0  0  0  0  0  0  0  0
   -1.8560   -4.3410    3.0950 H   0  0  0  0  0  0  0  0  0  0  0  0
   -1.3020   -3.4760    0.8540 H   0  0  0  0  0  0  0  0  0  0  0  0
   -0.2970   -2.1870    1.6340 H   0  0  0  0  0  0  0  0  0  0  0  0
   -2.2650   -1.2800    2.7710 H   0  0  0  0  0  0  0  0  0  0  0  0
   -3.6740   -2.9290    3.0680 H   0  0  0  0  0  0  0  0  0  0  0  0
   -3.5210   -3.5480    1.5320 H   0  0  0  0  0  0  0  0  0  0  0  0
   -1.3970   -0.1780    0.2530 N   0  0  0  0  0  0  0  0  0  0  0  0
   -1.5460    0.7830   -0.8460 C   0  0  1  0  0  0  0  0  0  0  0  0
   -1.0870    2.1150   -0.3010 C   0  0  0  0  0  0  0  0  0  0  0  0
   -1.8990    2.5560    0.8750 C   0  0  0  0  0  0  0  0  0  0  0  0
   -1.3720    3.8890    1.3630 C   0  0  0  0  0  0  0  0  0  0  0  0
   -2.2160    4.3040    2.5570 C   0  0  0  0  0  0  0  0  0  0  0  0
   -3.6030    4.4310    2.1680 N   0  0  0  0  0  0  0  0  0  0  0  0
   -0.6620    0.3950   -1.9880 C   0  0  0  0  0  0  0  0  0  0  0  0
   -0.6630    1.0970   -3.0310 O   0  0  0  0  0  0  0  0  0  0  0  0
   -0.4610   -0.3080    0.6960 H   0  0  0  0  0  0  0  0  0  0  0  0
   -2.5900    0.8830   -1.1580 H   0  0  0  0  0  0  0  0  0  0  0  0
    0.0050    2.0710   -0.0120 H   0  0  0  0  0  0  0  0  0  0  0  0
   -1.1300    2.8960   -1.0820 H   0  0  0  0  0  0  0  0  0  0  0  0
   -1.9290    1.8120    1.6860 H   0  0  0  0  0  0  0  0  0  0  0  0
   -2.9460    2.7310    0.5100 H   0  0  0  0  0  0  0  0  0  0  0  0
   -0.3060    3.8280    1.6520 H   0  0  0  0  0  0  0  0  0  0  0  0
   -1.4920    4.6650    0.5860 H   0  0  0  0  0  0  0  0  0  0  0  0
   -1.8560    5.2440    3.0100 H   0  0  0  0  0  0  0  0  0  0  0  0
   -2.1770    3.4790    3.3200 H   0  0  0  0  0  0  0  0  0  0  0  0
   -4.2090    4.1630    3.0010 H   0  0  0  0  0  0  0  0  0  0  0  0
   -3.8570    5.4380    1.9890 H   0  0  0  0  0  0  0  0  0  0  0  0
    3.6890   -4.3840    1.8030 O   0  0  0  0  0  0  0  0  0  0  0  0
    3.3970   -3.5560    0.7270 C   0  0  0  0  0  0  0  0  0  0  0  0
    3.5610   -4.0060   -0.5630 C   0  0  0  0  0  0  0  0  0  0  0  0
    3.2680   -3.1730   -1.6270 C   0  0  0  0  0  0  0  0  0  0  0  0
    2.8080   -1.8820   -1.4820 C   0  0  0  0  0  0  0  0  0  0  0  0
    2.5000   -1.0010   -2.6240 C   0  0  0  0  0  0  0  0  0  0  0  0
    1.0430   -1.1110   -3.0760 C   0  0  2  0  0  0  0  0  0  0  0  0
    0.1930   -0.7400   -1.9650 N   0  0  0  0  0  0  0  0  0  0  0  0
    0.7580   -2.5160   -3.4340 C   0  0  0  0  0  0  0  0  0  0  0  0
   -0.1010   -3.1480   -2.7760 O   0  0  0  0  0  0  0  0  0  0  0  0
    2.6460   -1.4350   -0.1650 C   0  0  0  0  0  0  0  0  0  0  0  0
    2.9370   -2.2620    0.9000 C   0  0  0  0  0  0  0  0  0  0  0  0
    1.3870   -3.1970   -4.4670 O   0  0  0  0  0  0  0  0  0  0  0  0
    3.0290   -5.1170    2.0930 H   0  0  0  0  0  0  0  0  0  0  0  0
    3.9230   -5.0230   -0.7290 H   0  0  0  0  0  0  0  0  0  0  0  0
    3.4020   -3.5340   -2.6480 H   0  0  0  0  0  0  0  0  0  0  0  0
    3.1750   -1.2220   -3.4720 H   0  0  0  0  0  0  0  0  0  0  0  0
    2.7090    0.0420   -2.2980 H   0  0  0  0  0  0  0  0  0  0  0  0
    0.8780   -0.4150   -3.9260 H   0  0  0  0  0  0  0  0  0  0  0  0
    0.1860   -1.3130   -1.0930 H   0  0  0  0  0  0  0  0  0  0  0  0
    2.2860   -0.4240   -0.0500 H   0  0  0  0  0  0  0  0  0  0  0  0
    2.8160   -1.9280    1.9070 H   0  0  0  0  0  0  0  0  0  0  0  0
  1  9  1  0  0  0  0
  1  2  1  0  0  0  0
  1 11  1  0  0  0  0
  3 13  1  0  0  0  0
  3  2  1  0  0  0  0
  4  5  1  0  0  0  0
  4  3  1  0  0  0  0
  5  6  1  0  0  0  0
  5 16  1  1  0  0  0
  6 17  1  0  0  0  0
  7  5  1  0  0  0  0
  8  7  2  0  0  0  0
 10  1  1  0  0  0  0
 12  3  1  0  0  0  0
 14  4  1  0  0  0  0
 15  4  1  0  0  0  0
 18  6  1  0  0  0  0
 19 28  1  0  0  0  0
 19  7  1  0  0  0  0
 20 29  1  6  0  0  0
 20 21  1  0  0  0  0
 20 19  1  0  0  0  0
 21 30  1  0  0  0  0
 21 22  1  0  0  0  0
 22 23  1  0  0  0  0
 22 32  1  0  0  0  0
 23 34  1  0  0  0  0
 23 24  1  0  0  0  0
 24 36  1  0  0  0  0
 24 37  1  0  0  0  0
 25 24  1  0  0  0  0
 25 38  1  0  0  0  0
 26 47  1  0  0  0  0
 26 20  1  0  0  0  0
 27 26  2  0  0  0  0
 31 21  1  0  0  0  0
 33 22  1  0  0  0  0
 35 23  1  0  0  0  0
 39 25  1  0  0  0  0
 40 53  1  0  0  0  0
 41 51  1  0  0  0  0
 41 40  1  0  0  0  0
 42 41  2  0  0  0  0
 43 44  2  0  0  0  0
 43 42  1  0  0  0  0
 44 50  1  0  0  0  0
 45 57  1  0  0  0  0
 45 44  1  0  0  0  0
 46 58  1  6  0  0  0
 46 45  1  0  0  0  0
 46 47  1  0  0  0  0
 47 59  1  0  0  0  0
 48 46  1  0  0  0  0
 48 49  1  0  0  0  0
 50 60  1  0  0  0  0
 50 51  2  0  0  0  0
 51 61  1  0  0  0  0
 52 48  2  0  0  0  0
 54 42  1  0  0  0  0
 55 43  1  0  0  0  0
 56 45  1  0  0  0  0
M  END
$$$$
