MLA.pdb
 OpenBabel07022418553D

 48 47  0  0  1  0  0  0  0  0999 V2000
    0.7200   -3.7960   -1.6270 C   0  0  0  0  0  0  0  0  0  0  0  0
    1.9790   -4.8260   -0.9160 S   0  0  0  0  0  0  0  0  0  0  0  0
    2.9030   -4.1580    0.4520 C   0  0  0  0  0  0  0  0  0  0  0  0
    2.2400   -4.0340    1.7610 C   0  0  0  0  0  0  0  0  0  0  0  0
    1.0320   -3.2080    1.9180 C   0  0  2  0  0  0  0  0  0  0  0  0
   -0.0370   -3.7070    1.0960 N   0  0  0  0  0  0  0  0  0  0  0  0
    1.2550   -1.7560    1.7370 C   0  0  0  0  0  0  0  0  0  0  0  0
    2.1770   -1.1450    2.3170 O   0  0  0  0  0  0  0  0  0  0  0  0
    0.7620   -2.7300   -1.3210 H   0  0  0  0  0  0  0  0  0  0  0  0
   -0.3190   -4.1910   -1.5580 H   0  0  0  0  0  0  0  0  0  0  0  0
    0.9050   -3.7650   -2.7410 H   0  0  0  0  0  0  0  0  0  0  0  0
    3.4650   -3.2200    0.1580 H   0  0  0  0  0  0  0  0  0  0  0  0
    3.7720   -4.8850    0.6170 H   0  0  0  0  0  0  0  0  0  0  0  0
    1.9180   -5.0980    2.0440 H   0  0  0  0  0  0  0  0  0  0  0  0
    2.9870   -3.8180    2.5920 H   0  0  0  0  0  0  0  0  0  0  0  0
    0.6720   -3.3840    2.9880 H   0  0  0  0  0  0  0  0  0  0  0  0
   -0.0370   -4.7260    1.0120 H   0  0  0  0  0  0  0  0  0  0  0  0
   -0.9560   -3.3520    1.4620 H   0  0  0  0  0  0  0  0  0  0  0  0
    0.8690    2.4430   -2.5880 C   0  0  0  0  0  0  0  0  0  0  0  0
    0.7510    2.1600   -1.0890 C   0  0  0  0  0  0  0  0  0  0  0  0
    1.9180    2.7940   -0.4100 C   0  0  0  0  0  0  0  0  0  0  0  0
    0.6090    0.6940   -0.8250 C   0  0  0  0  0  0  0  0  0  0  0  0
    0.5150    0.3990    0.6200 C   0  0  2  0  0  0  0  0  0  0  0  0
    0.3920   -1.0400    0.8770 N   0  0  0  0  0  0  0  0  0  0  0  0
   -0.6800    1.0470    1.2130 C   0  0  0  0  0  0  0  0  0  0  0  0
   -0.9020    2.2810    1.2390 O   0  0  0  0  0  0  0  0  0  0  0  0
    0.3030    1.6920   -3.1370 H   0  0  0  0  0  0  0  0  0  0  0  0
    0.5530    3.4850   -2.7940 H   0  0  0  0  0  0  0  0  0  0  0  0
    1.9680    2.4130   -2.8120 H   0  0  0  0  0  0  0  0  0  0  0  0
   -0.1740    2.7070   -0.7940 H   0  0  0  0  0  0  0  0  0  0  0  0
    2.5940    2.0280    0.0390 H   0  0  0  0  0  0  0  0  0  0  0  0
    1.6140    3.5400    0.3720 H   0  0  0  0  0  0  0  0  0  0  0  0
    2.5740    3.3780   -1.1160 H   0  0  0  0  0  0  0  0  0  0  0  0
   -0.3020    0.3400   -1.3960 H   0  0  0  0  0  0  0  0  0  0  0  0
    1.4540    0.1900   -1.3400 H   0  0  0  0  0  0  0  0  0  0  0  0
    1.3900    0.7940    1.1660 H   0  0  0  0  0  0  0  0  0  0  0  0
   -0.3940   -1.5080    0.3690 H   0  0  0  0  0  0  0  0  0  0  0  0
   -4.1750    0.3730    1.7730 C   0  0  0  0  0  0  0  0  0  0  0  0
   -2.9010    0.8270    2.4210 C   0  0  2  0  0  0  0  0  0  0  0  0
   -1.7250    0.2590    1.8340 N   0  0  0  0  0  0  0  0  0  0  0  0
   -2.9250    0.6380    3.9000 C   0  0  0  0  0  0  0  0  0  0  0  0
   -1.9800    0.0430    4.4420 O   0  0  0  0  0  0  0  0  0  0  0  0
   -3.9550    1.0960    4.6960 O   0  0  0  0  0  0  0  0  0  0  0  0
   -4.1630   -0.7050    1.5140 H   0  0  0  0  0  0  0  0  0  0  0  0
   -4.9920    0.5320    2.5280 H   0  0  0  0  0  0  0  0  0  0  0  0
   -4.3910    1.0290    0.9220 H   0  0  0  0  0  0  0  0  0  0  0  0
   -2.8340    1.9370    2.2760 H   0  0  0  0  0  0  0  0  0  0  0  0
   -1.5730   -0.7690    1.8330 H   0  0  0  0  0  0  0  0  0  0  0  0
  1 10  1  0  0  0  0
  1  9  1  0  0  0  0
  1  2  1  0  0  0  0
  2  3  1  0  0  0  0
  3 13  1  0  0  0  0
  3  4  1  0  0  0  0
  4  5  1  0  0  0  0
  4 14  1  0  0  0  0
  4 15  1  0  0  0  0
  5 16  1  1  0  0  0
  6 18  1  0  0  0  0
  6  5  1  0  0  0  0
  7  5  1  0  0  0  0
  7  8  2  0  0  0  0
 11  1  1  0  0  0  0
 12  3  1  0  0  0  0
 17  6  1  0  0  0  0
 19 20  1  0  0  0  0
 20 22  1  0  0  0  0
 20 30  1  0  0  0  0
 20 21  1  0  0  0  0
 21 31  1  0  0  0  0
 21 32  1  0  0  0  0
 22 23  1  0  0  0  0
 23 24  1  0  0  0  0
 23 36  1  1  0  0  0
 23 25  1  0  0  0  0
 24  7  1  0  0  0  0
 25 26  2  0  0  0  0
 25 40  1  0  0  0  0
 27 19  1  0  0  0  0
 28 19  1  0  0  0  0
 29 19  1  0  0  0  0
 33 21  1  0  0  0  0
 34 22  1  0  0  0  0
 35 22  1  0  0  0  0
 37 24  1  0  0  0  0
 38 39  1  0  0  0  0
 38 45  1  0  0  0  0
 39 47  1  6  0  0  0
 39 41  1  0  0  0  0
 40 39  1  0  0  0  0
 41 42  2  0  0  0  0
 41 43  1  0  0  0  0
 44 38  1  0  0  0  0
 46 38  1  0  0  0  0
 48 40  1  0  0  0  0
M  END
$$$$
