MLG.pdb
 OpenBabel07022418553D

 45 44  0  0  1  0  0  0  0  0999 V2000
    1.8890   -4.6500    4.4200 C   0  0  0  0  0  0  0  0  0  0  0  0
    1.9840   -5.2930    2.7590 S   0  0  0  0  0  0  0  0  0  0  0  0
    0.4920   -5.1000    1.7930 C   0  0  0  0  0  0  0  0  0  0  0  0
    0.2130   -3.6930    1.4370 C   0  0  0  0  0  0  0  0  0  0  0  0
   -0.0200   -2.7820    2.6070 C   0  0  2  0  0  0  0  0  0  0  0  0
   -1.1610   -3.2450    3.3650 N   0  0  0  0  0  0  0  0  0  0  0  0
   -0.4070   -1.4540    2.0040 C   0  0  0  0  0  0  0  0  0  0  0  0
   -1.5320   -1.0170    2.2400 O   0  0  0  0  0  0  0  0  0  0  0  0
    2.3100   -5.3950    5.1680 H   0  0  0  0  0  0  0  0  0  0  0  0
    0.8770   -4.4110    4.7680 H   0  0  0  0  0  0  0  0  0  0  0  0
    2.4980   -3.7060    4.5260 H   0  0  0  0  0  0  0  0  0  0  0  0
   -0.3750   -5.5790    2.3200 H   0  0  0  0  0  0  0  0  0  0  0  0
    0.6230   -5.6830    0.8440 H   0  0  0  0  0  0  0  0  0  0  0  0
   -0.7430   -3.6350    0.8280 H   0  0  0  0  0  0  0  0  0  0  0  0
    1.0650   -3.3060    0.8200 H   0  0  0  0  0  0  0  0  0  0  0  0
    0.8890   -2.6120    3.2130 H   0  0  0  0  0  0  0  0  0  0  0  0
   -1.8700   -2.4830    3.5380 H   0  0  0  0  0  0  0  0  0  0  0  0
   -1.6800   -3.9930    2.8440 H   0  0  0  0  0  0  0  0  0  0  0  0
   -0.3100    3.6820    1.1560 C   0  0  0  0  0  0  0  0  0  0  0  0
    0.9760    2.9860    0.9040 C   0  0  0  0  0  0  0  0  0  0  0  0
    1.6150    3.2570   -0.4360 C   0  0  0  0  0  0  0  0  0  0  0  0
    1.0210    1.5530    1.2230 C   0  0  0  0  0  0  0  0  0  0  0  0
    0.1120    0.5860    0.5920 C   0  0  2  0  0  0  0  0  0  0  0  0
    0.4980   -0.7300    1.1890 N   0  0  0  0  0  0  0  0  0  0  0  0
    0.1010    0.4450   -0.8500 C   0  0  0  0  0  0  0  0  0  0  0  0
    0.5910   -0.5650   -1.4590 O   0  0  0  0  0  0  0  0  0  0  0  0
   -0.2180    4.5220    1.8740 H   0  0  0  0  0  0  0  0  0  0  0  0
   -0.7350    4.1650    0.2270 H   0  0  0  0  0  0  0  0  0  0  0  0
   -1.0660    2.9930    1.6040 H   0  0  0  0  0  0  0  0  0  0  0  0
    1.7170    3.4980    1.6380 H   0  0  0  0  0  0  0  0  0  0  0  0
    2.5200    3.9330   -0.3580 H   0  0  0  0  0  0  0  0  0  0  0  0
    0.9500    3.7810   -1.1520 H   0  0  0  0  0  0  0  0  0  0  0  0
    2.0370    2.3210   -0.8730 H   0  0  0  0  0  0  0  0  0  0  0  0
    2.0760    1.1460    1.1040 H   0  0  0  0  0  0  0  0  0  0  0  0
    0.8730    1.4260    2.3460 H   0  0  0  0  0  0  0  0  0  0  0  0
   -0.9230    0.7650    0.9440 H   0  0  0  0  0  0  0  0  0  0  0  0
    1.4370   -1.1450    1.0220 H   0  0  0  0  0  0  0  0  0  0  0  0
   -0.4750    1.4490   -1.6650 N   0  0  0  0  0  0  0  0  0  0  0  0
   -0.4980    1.3340   -3.1210 C   0  0  0  0  0  0  0  0  0  0  0  0
   -1.2640    0.1180   -3.4610 C   0  0  0  0  0  0  0  0  0  0  0  0
   -1.4460   -0.2640   -4.6490 O   0  0  0  0  0  0  0  0  0  0  0  0
   -1.8210   -0.6630   -2.4700 O   0  0  0  0  0  0  0  0  0  0  0  0
   -0.9240    2.3070   -1.2710 H   0  0  0  0  0  0  0  0  0  0  0  0
   -1.0540    2.1910   -3.5460 H   0  0  0  0  0  0  0  0  0  0  0  0
    0.5470    1.2940   -3.4920 H   0  0  0  0  0  0  0  0  0  0  0  0
  1 11  1  0  0  0  0
  1 10  1  0  0  0  0
  1  9  1  0  0  0  0
  2  1  1  0  0  0  0
  3 12  1  0  0  0  0
  3  2  1  0  0  0  0
  4  3  1  0  0  0  0
  4  5  1  0  0  0  0
  5 16  1  1  0  0  0
  5  6  1  0  0  0  0
  6 17  1  0  0  0  0
  7  8  2  0  0  0  0
  7  5  1  0  0  0  0
 13  3  1  0  0  0  0
 14  4  1  0  0  0  0
 15  4  1  0  0  0  0
 18  6  1  0  0  0  0
 19 29  1  0  0  0  0
 19 27  1  0  0  0  0
 20 19  1  0  0  0  0
 20 22  1  0  0  0  0
 20 30  1  0  0  0  0
 21 31  1  0  0  0  0
 21 20  1  0  0  0  0
 22 35  1  0  0  0  0
 23 36  1  1  0  0  0
 23 24  1  0  0  0  0
 23 22  1  0  0  0  0
 24  7  1  0  0  0  0
 25 23  1  0  0  0  0
 26 25  2  0  0  0  0
 28 19  1  0  0  0  0
 32 21  1  0  0  0  0
 33 21  1  0  0  0  0
 34 22  1  0  0  0  0
 37 24  1  0  0  0  0
 38 43  1  0  0  0  0
 38 25  1  0  0  0  0
 39 38  1  0  0  0  0
 40 39  1  0  0  0  0
 40 42  1  0  0  0  0
 41 40  2  0  0  0  0
 44 39  1  0  0  0  0
 45 39  1  0  0  0  0
M  END
$$$$
