MLK.pdb
 OpenBabel07022418553D

 59 58  0  0  1  0  0  0  0  0999 V2000
    2.5050   -2.7980    4.7740 C   0  0  0  0  0  0  0  0  0  0  0  0
    3.6470   -3.1030    3.4170 S   0  0  0  0  0  0  0  0  0  0  0  0
    3.1830   -2.2340    1.9370 C   0  0  0  0  0  0  0  0  0  0  0  0
    3.4150   -0.7890    1.8550 C   0  0  0  0  0  0  0  0  0  0  0  0
    2.8050    0.1400    2.8250 C   0  0  2  0  0  0  0  0  0  0  0  0
    3.1770   -0.0190    4.1960 N   0  0  0  0  0  0  0  0  0  0  0  0
    1.3170    0.2510    2.6680 C   0  0  0  0  0  0  0  0  0  0  0  0
    0.5500    0.1820    3.6710 O   0  0  0  0  0  0  0  0  0  0  0  0
    2.1200   -3.7940    5.1730 H   0  0  0  0  0  0  0  0  0  0  0  0
    3.0600   -2.3150    5.6010 H   0  0  0  0  0  0  0  0  0  0  0  0
    1.6380   -2.2040    4.4820 H   0  0  0  0  0  0  0  0  0  0  0  0
    3.7650   -2.7090    1.0890 H   0  0  0  0  0  0  0  0  0  0  0  0
    2.0850   -2.4090    1.6750 H   0  0  0  0  0  0  0  0  0  0  0  0
    3.1220   -0.4380    0.8060 H   0  0  0  0  0  0  0  0  0  0  0  0
    4.5450   -0.6360    1.9340 H   0  0  0  0  0  0  0  0  0  0  0  0
    3.1690    1.1790    2.5380 H   0  0  0  0  0  0  0  0  0  0  0  0
    2.9010    0.8430    4.7210 H   0  0  0  0  0  0  0  0  0  0  0  0
    4.2200   -0.0660    4.2370 H   0  0  0  0  0  0  0  0  0  0  0  0
   -1.2420    3.3230    2.3660 C   0  0  0  0  0  0  0  0  0  0  0  0
   -0.5660    3.0780    1.0420 C   0  0  0  0  0  0  0  0  0  0  0  0
    0.9020    3.3220    1.1740 C   0  0  0  0  0  0  0  0  0  0  0  0
   -0.9650    1.8040    0.3930 C   0  0  0  0  0  0  0  0  0  0  0  0
   -0.6980    0.5520    1.1530 C   0  0  2  0  0  0  0  0  0  0  0  0
    0.7200    0.4350    1.3980 N   0  0  0  0  0  0  0  0  0  0  0  0
   -1.1490   -0.5870    0.2630 C   0  0  0  0  0  0  0  0  0  0  0  0
   -0.2970   -1.3990   -0.0930 O   0  0  0  0  0  0  0  0  0  0  0  0
   -2.1930    2.7840    2.4710 H   0  0  0  0  0  0  0  0  0  0  0  0
   -1.4220    4.4080    2.5020 H   0  0  0  0  0  0  0  0  0  0  0  0
   -0.5480    3.0210    3.1820 H   0  0  0  0  0  0  0  0  0  0  0  0
   -0.9430    3.8990    0.3510 H   0  0  0  0  0  0  0  0  0  0  0  0
    1.5120    2.8580    0.3560 H   0  0  0  0  0  0  0  0  0  0  0  0
    1.2920    3.0920    2.1880 H   0  0  0  0  0  0  0  0  0  0  0  0
    1.1330    4.4270    1.0550 H   0  0  0  0  0  0  0  0  0  0  0  0
   -2.0250    1.8480    0.0500 H   0  0  0  0  0  0  0  0  0  0  0  0
   -0.3660    1.7290   -0.5630 H   0  0  0  0  0  0  0  0  0  0  0  0
   -1.2840    0.5010    2.0980 H   0  0  0  0  0  0  0  0  0  0  0  0
    1.3470    0.4920    0.5710 H   0  0  0  0  0  0  0  0  0  0  0  0
   -2.4730   -0.7270   -0.1490 N   0  0  0  0  0  0  0  0  0  0  0  0
   -3.1000   -1.6780   -0.9770 C   0  0  1  0  0  0  0  0  0  0  0  0
   -2.2360   -2.5960   -1.7990 C   0  0  0  0  0  0  0  0  0  0  0  0
   -1.4180   -1.8950   -2.8310 C   0  0  0  0  0  0  0  0  0  0  0  0
   -0.5180   -2.8160   -3.6120 C   0  0  0  0  0  0  0  0  0  0  0  0
   -1.2470   -3.8790   -4.3560 C   0  0  0  0  0  0  0  0  0  0  0  0
   -0.2590   -4.6870   -5.0580 N   0  0  0  0  0  0  0  0  0  0  0  0
   -4.1540   -2.3900   -0.2650 C   0  0  0  0  0  0  0  0  0  0  0  0
   -4.4290   -2.1470    0.9390 O   0  0  0  0  0  0  0  0  0  0  0  0
   -4.8900   -3.3670   -0.9050 O   0  0  0  0  0  0  0  0  0  0  0  0
   -3.1330    0.0280    0.2360 H   0  0  0  0  0  0  0  0  0  0  0  0
   -3.6420   -1.0490   -1.8100 H   0  0  0  0  0  0  0  0  0  0  0  0
   -2.9680   -3.2460   -2.3690 H   0  0  0  0  0  0  0  0  0  0  0  0
   -1.6650   -3.3050   -1.1770 H   0  0  0  0  0  0  0  0  0  0  0  0
   -2.1400   -1.5030   -3.6530 H   0  0  0  0  0  0  0  0  0  0  0  0
   -0.9510   -0.9810   -2.4860 H   0  0  0  0  0  0  0  0  0  0  0  0
    0.1450   -2.2490   -4.2940 H   0  0  0  0  0  0  0  0  0  0  0  0
    0.1760   -3.3250   -2.8800 H   0  0  0  0  0  0  0  0  0  0  0  0
   -1.9820   -3.4380   -5.0600 H   0  0  0  0  0  0  0  0  0  0  0  0
   -1.7530   -4.5710   -3.6360 H   0  0  0  0  0  0  0  0  0  0  0  0
   -0.6770   -5.6320   -5.1940 H   0  0  0  0  0  0  0  0  0  0  0  0
    0.5890   -4.8020   -4.4570 H   0  0  0  0  0  0  0  0  0  0  0  0
  1  9  1  0  0  0  0
  1 10  1  0  0  0  0
  2  1  1  0  0  0  0
  3  2  1  0  0  0  0
  4 15  1  0  0  0  0
  4  3  1  0  0  0  0
  4  5  1  0  0  0  0
  5 16  1  6  0  0  0
  5  6  1  0  0  0  0
  6 18  1  0  0  0  0
  6 17  1  0  0  0  0
  7  5  1  0  0  0  0
  7  8  2  0  0  0  0
 11  1  1  0  0  0  0
 12  3  1  0  0  0  0
 13  3  1  0  0  0  0
 14  4  1  0  0  0  0
 19 27  1  0  0  0  0
 19 28  1  0  0  0  0
 19 29  1  0  0  0  0
 20 21  1  0  0  0  0
 20 19  1  0  0  0  0
 21 32  1  0  0  0  0
 22 20  1  0  0  0  0
 22 23  1  0  0  0  0
 23 24  1  0  0  0  0
 23 36  1  1  0  0  0
 24  7  1  0  0  0  0
 25 23  1  0  0  0  0
 26 25  2  0  0  0  0
 30 20  1  0  0  0  0
 31 21  1  0  0  0  0
 33 21  1  0  0  0  0
 34 22  1  0  0  0  0
 35 22  1  0  0  0  0
 37 24  1  0  0  0  0
 38 48  1  0  0  0  0
 38 25  1  0  0  0  0
 39 49  1  6  0  0  0
 39 45  1  0  0  0  0
 39 38  1  0  0  0  0
 40 51  1  0  0  0  0
 40 39  1  0  0  0  0
 41 53  1  0  0  0  0
 41 40  1  0  0  0  0
 42 55  1  0  0  0  0
 42 41  1  0  0  0  0
 43 57  1  0  0  0  0
 43 42  1  0  0  0  0
 44 59  1  0  0  0  0
 44 43  1  0  0  0  0
 45 46  1  0  0  0  0
 47 45  2  0  0  0  0
 50 40  1  0  0  0  0
 52 41  1  0  0  0  0
 54 42  1  0  0  0  0
 56 43  1  0  0  0  0
 58 44  1  0  0  0  0
M  END
$$$$
