MLM.pdb
 OpenBabel07022418553D

 55 54  0  0  1  0  0  0  0  0999 V2000
    1.6820   -4.0210   -1.3760 C   0  0  0  0  0  0  0  0  0  0  0  0
    2.9440   -4.3050   -0.1170 S   0  0  0  0  0  0  0  0  0  0  0  0
    2.9760   -2.8810    0.9980 C   0  0  0  0  0  0  0  0  0  0  0  0
    3.4210   -1.6280    0.2760 C   0  0  0  0  0  0  0  0  0  0  0  0
    3.4860   -0.4560    1.2140 C   0  0  2  0  0  0  0  0  0  0  0  0
    4.4470   -0.7600    2.2680 N   0  0  0  0  0  0  0  0  0  0  0  0
    2.1640   -0.1470    1.7550 C   0  0  0  0  0  0  0  0  0  0  0  0
    1.9400   -0.2350    3.0190 O   0  0  0  0  0  0  0  0  0  0  0  0
    0.6890   -4.1190   -0.8930 H   0  0  0  0  0  0  0  0  0  0  0  0
    1.8330   -3.0220   -1.8560 H   0  0  0  0  0  0  0  0  0  0  0  0
    1.8310   -4.8370   -2.1420 H   0  0  0  0  0  0  0  0  0  0  0  0
    3.5990   -3.1280    1.8580 H   0  0  0  0  0  0  0  0  0  0  0  0
    1.9510   -2.6470    1.3850 H   0  0  0  0  0  0  0  0  0  0  0  0
    2.7580   -1.3930   -0.5670 H   0  0  0  0  0  0  0  0  0  0  0  0
    4.4690   -1.7850   -0.1090 H   0  0  0  0  0  0  0  0  0  0  0  0
    3.8510    0.4300    0.6730 H   0  0  0  0  0  0  0  0  0  0  0  0
    4.0260   -0.9910    3.1750 H   0  0  0  0  0  0  0  0  0  0  0  0
    5.2350   -0.0750    2.2940 H   0  0  0  0  0  0  0  0  0  0  0  0
    0.3880    2.6690    3.5670 C   0  0  0  0  0  0  0  0  0  0  0  0
    0.3180    2.9580    2.0830 C   0  0  0  0  0  0  0  0  0  0  0  0
    1.6610    3.1100    1.4550 C   0  0  0  0  0  0  0  0  0  0  0  0
   -0.5930    2.0170    1.3420 C   0  0  0  0  0  0  0  0  0  0  0  0
   -0.2060    0.5700    1.4350 C   0  0  2  0  0  0  0  0  0  0  0  0
    1.0800    0.2580    0.9330 N   0  0  0  0  0  0  0  0  0  0  0  0
   -1.3240   -0.2580    0.9230 C   0  0  0  0  0  0  0  0  0  0  0  0
   -2.5030    0.0420    1.3380 O   0  0  0  0  0  0  0  0  0  0  0  0
    1.4630    2.4550    3.8300 H   0  0  0  0  0  0  0  0  0  0  0  0
   -0.2960    1.8730    3.8950 H   0  0  0  0  0  0  0  0  0  0  0  0
    0.1330    3.5550    4.1980 H   0  0  0  0  0  0  0  0  0  0  0  0
   -0.1950    3.9620    2.0100 H   0  0  0  0  0  0  0  0  0  0  0  0
    1.6350    2.6240    0.4590 H   0  0  0  0  0  0  0  0  0  0  0  0
    1.8650    4.1820    1.2640 H   0  0  0  0  0  0  0  0  0  0  0  0
    2.5010    2.7610    2.0900 H   0  0  0  0  0  0  0  0  0  0  0  0
   -1.6180    2.1780    1.7340 H   0  0  0  0  0  0  0  0  0  0  0  0
   -0.6030    2.3350    0.2820 H   0  0  0  0  0  0  0  0  0  0  0  0
   -0.1830    0.3540    2.5480 H   0  0  0  0  0  0  0  0  0  0  0  0
    1.2630    0.3230   -0.0840 H   0  0  0  0  0  0  0  0  0  0  0  0
   -5.5540   -0.3570   -2.2690 C   0  0  0  0  0  0  0  0  0  0  0  0
   -5.2950   -2.0250   -1.6480 S   0  0  0  0  0  0  0  0  0  0  0  0
   -3.7950   -2.7880   -2.3100 C   0  0  0  0  0  0  0  0  0  0  0  0
   -2.5630   -2.0860   -1.8570 C   0  0  0  0  0  0  0  0  0  0  0  0
   -2.4160   -2.0400   -0.3840 C   0  0  2  0  0  0  0  0  0  0  0  0
   -1.2030   -1.3370    0.0250 N   0  0  0  0  0  0  0  0  0  0  0  0
   -2.3640   -3.3970    0.1940 C   0  0  0  0  0  0  0  0  0  0  0  0
   -1.3690   -3.7760    0.8810 O   0  0  0  0  0  0  0  0  0  0  0  0
   -3.3850   -4.3520    0.0350 O   0  0  0  0  0  0  0  0  0  0  0  0
   -6.1480   -0.2950   -3.1820 H   0  0  0  0  0  0  0  0  0  0  0  0
   -4.5750    0.1440   -2.4930 H   0  0  0  0  0  0  0  0  0  0  0  0
   -6.0760    0.2720   -1.5100 H   0  0  0  0  0  0  0  0  0  0  0  0
   -3.8230   -3.8750   -2.1240 H   0  0  0  0  0  0  0  0  0  0  0  0
   -3.8750   -2.7230   -3.4480 H   0  0  0  0  0  0  0  0  0  0  0  0
   -1.6940   -2.5890   -2.3590 H   0  0  0  0  0  0  0  0  0  0  0  0
   -2.5820   -1.0700   -2.3280 H   0  0  0  0  0  0  0  0  0  0  0  0
   -3.3190   -1.5500    0.0520 H   0  0  0  0  0  0  0  0  0  0  0  0
   -0.2550   -1.5910   -0.3120 H   0  0  0  0  0  0  0  0  0  0  0  0
  1  9  1  0  0  0  0
  1  2  1  0  0  0  0
  2  3  1  0  0  0  0
  3 13  1  0  0  0  0
  3 12  1  0  0  0  0
  4  3  1  0  0  0  0
  4  5  1  0  0  0  0
  5 16  1  6  0  0  0
  5  7  1  0  0  0  0
  5  6  1  0  0  0  0
  6 18  1  0  0  0  0
  6 17  1  0  0  0  0
  7  8  2  0  0  0  0
 10  1  1  0  0  0  0
 11  1  1  0  0  0  0
 14  4  1  0  0  0  0
 15  4  1  0  0  0  0
 19 27  1  0  0  0  0
 19 28  1  0  0  0  0
 19 29  1  0  0  0  0
 20 19  1  0  0  0  0
 21 20  1  0  0  0  0
 21 33  1  0  0  0  0
 22 23  1  0  0  0  0
 22 34  1  0  0  0  0
 22 20  1  0  0  0  0
 23 36  1  1  0  0  0
 24 23  1  0  0  0  0
 24  7  1  0  0  0  0
 25 26  2  0  0  0  0
 25 23  1  0  0  0  0
 30 20  1  0  0  0  0
 31 21  1  0  0  0  0
 32 21  1  0  0  0  0
 35 22  1  0  0  0  0
 37 24  1  0  0  0  0
 38 39  1  0  0  0  0
 38 49  1  0  0  0  0
 40 50  1  0  0  0  0
 40 41  1  0  0  0  0
 40 39  1  0  0  0  0
 41 42  1  0  0  0  0
 42 43  1  0  0  0  0
 42 54  1  1  0  0  0
 42 44  1  0  0  0  0
 43 25  1  0  0  0  0
 44 45  1  0  0  0  0
 46 44  2  0  0  0  0
 47 38  1  0  0  0  0
 48 38  1  0  0  0  0
 51 40  1  0  0  0  0
 52 41  1  0  0  0  0
 53 41  1  0  0  0  0
 55 43  1  0  0  0  0
M  END
$$$$
