MLQ.pdb
 OpenBabel07022418553D

 55 54  0  0  1  0  0  0  0  0999 V2000
    0.4640   -2.8680    4.8920 C   0  0  0  0  0  0  0  0  0  0  0  0
    1.6710   -3.9760    4.1480 S   0  0  0  0  0  0  0  0  0  0  0  0
    2.1340   -3.4320    2.5140 C   0  0  0  0  0  0  0  0  0  0  0  0
    3.0170   -2.2850    2.3770 C   0  0  0  0  0  0  0  0  0  0  0  0
    2.7270   -0.9510    2.8940 C   0  0  2  0  0  0  0  0  0  0  0  0
    2.5800   -0.8630    4.3320 N   0  0  0  0  0  0  0  0  0  0  0  0
    1.6000   -0.2450    2.2810 C   0  0  0  0  0  0  0  0  0  0  0  0
    0.7470    0.3230    2.9800 O   0  0  0  0  0  0  0  0  0  0  0  0
   -0.4670   -3.4430    5.2010 H   0  0  0  0  0  0  0  0  0  0  0  0
    0.9160   -2.4060    5.7910 H   0  0  0  0  0  0  0  0  0  0  0  0
    0.1880   -2.0960    4.1490 H   0  0  0  0  0  0  0  0  0  0  0  0
    1.1730   -3.3500    1.9270 H   0  0  0  0  0  0  0  0  0  0  0  0
    2.6070   -4.3540    2.0160 H   0  0  0  0  0  0  0  0  0  0  0  0
    3.3320   -2.2340    1.2740 H   0  0  0  0  0  0  0  0  0  0  0  0
    4.0240   -2.5920    2.8400 H   0  0  0  0  0  0  0  0  0  0  0  0
    3.6780   -0.3310    2.7000 H   0  0  0  0  0  0  0  0  0  0  0  0
    2.5430    0.1130    4.6510 H   0  0  0  0  0  0  0  0  0  0  0  0
    3.4100   -1.3390    4.7510 H   0  0  0  0  0  0  0  0  0  0  0  0
    0.9690    3.4170    0.9610 C   0  0  0  0  0  0  0  0  0  0  0  0
    1.5840    2.6450   -0.1700 C   0  0  0  0  0  0  0  0  0  0  0  0
    2.9770    2.1640    0.1210 C   0  0  0  0  0  0  0  0  0  0  0  0
    0.7260    1.5450   -0.6940 C   0  0  0  0  0  0  0  0  0  0  0  0
    0.3620    0.4920    0.2980 C   0  0  2  0  0  0  0  0  0  0  0  0
    1.4680   -0.2020    0.8750 N   0  0  0  0  0  0  0  0  0  0  0  0
   -0.4390   -0.5460   -0.4420 C   0  0  0  0  0  0  0  0  0  0  0  0
   -0.1120   -1.7560   -0.4970 O   0  0  0  0  0  0  0  0  0  0  0  0
    0.2680    2.8570    1.5780 H   0  0  0  0  0  0  0  0  0  0  0  0
    0.4100    4.3290    0.6010 H   0  0  0  0  0  0  0  0  0  0  0  0
    1.8220    3.8440    1.5610 H   0  0  0  0  0  0  0  0  0  0  0  0
    1.6900    3.3870   -1.0180 H   0  0  0  0  0  0  0  0  0  0  0  0
    3.1530    1.9420    1.1910 H   0  0  0  0  0  0  0  0  0  0  0  0
    3.7500    2.9490   -0.1330 H   0  0  0  0  0  0  0  0  0  0  0  0
    3.2260    1.3140   -0.5540 H   0  0  0  0  0  0  0  0  0  0  0  0
    1.2460    1.0950   -1.5640 H   0  0  0  0  0  0  0  0  0  0  0  0
   -0.2080    1.9920   -1.0910 H   0  0  0  0  0  0  0  0  0  0  0  0
   -0.2490    0.9440    1.1040 H   0  0  0  0  0  0  0  0  0  0  0  0
    2.1980   -0.6900    0.2670 H   0  0  0  0  0  0  0  0  0  0  0  0
   -5.0340   -4.5040   -2.5430 N   0  0  0  0  0  0  0  0  0  0  0  0
   -4.2390   -3.5190   -1.8770 C   0  0  0  0  0  0  0  0  0  0  0  0
   -3.2170   -3.9310   -1.2830 O   0  0  0  0  0  0  0  0  0  0  0  0
   -4.6870   -2.1280   -1.9470 C   0  0  0  0  0  0  0  0  0  0  0  0
   -3.8050   -1.1420   -1.2660 C   0  0  0  0  0  0  0  0  0  0  0  0
   -2.4040   -1.0980   -1.8190 C   0  0  2  0  0  0  0  0  0  0  0  0
   -1.6140   -0.1110   -1.0980 N   0  0  0  0  0  0  0  0  0  0  0  0
   -2.3870   -0.7510   -3.2850 C   0  0  0  0  0  0  0  0  0  0  0  0
   -2.9770   -1.4380   -4.1530 O   0  0  0  0  0  0  0  0  0  0  0  0
   -1.6980    0.3720   -3.7350 O   0  0  0  0  0  0  0  0  0  0  0  0
   -5.3630   -4.3620   -3.5140 H   0  0  0  0  0  0  0  0  0  0  0  0
   -5.2750   -5.3660   -2.0310 H   0  0  0  0  0  0  0  0  0  0  0  0
   -4.9470   -1.8420   -2.9960 H   0  0  0  0  0  0  0  0  0  0  0  0
   -5.6770   -2.0890   -1.4060 H   0  0  0  0  0  0  0  0  0  0  0  0
   -3.7140   -1.4140   -0.1990 H   0  0  0  0  0  0  0  0  0  0  0  0
   -4.2700   -0.1400   -1.3370 H   0  0  0  0  0  0  0  0  0  0  0  0
   -1.9150   -2.0690   -1.7190 H   0  0  0  0  0  0  0  0  0  0  0  0
   -1.9240    0.9100   -1.0730 H   0  0  0  0  0  0  0  0  0  0  0  0
  1  9  1  0  0  0  0
  1 10  1  0  0  0  0
  2  1  1  0  0  0  0
  3  2  1  0  0  0  0
  4  3  1  0  0  0  0
  4 15  1  0  0  0  0
  4  5  1  0  0  0  0
  5 16  1  6  0  0  0
  5  6  1  0  0  0  0
  6 17  1  0  0  0  0
  6 18  1  0  0  0  0
  7  5  1  0  0  0  0
  7  8  2  0  0  0  0
 11  1  1  0  0  0  0
 12  3  1  0  0  0  0
 13  3  1  0  0  0  0
 14  4  1  0  0  0  0
 19 29  1  0  0  0  0
 19 27  1  0  0  0  0
 20 21  1  0  0  0  0
 20 19  1  0  0  0  0
 21 31  1  0  0  0  0
 22 20  1  0  0  0  0
 22 23  1  0  0  0  0
 23 24  1  0  0  0  0
 23 36  1  1  0  0  0
 24  7  1  0  0  0  0
 25 23  1  0  0  0  0
 26 25  2  0  0  0  0
 28 19  1  0  0  0  0
 30 20  1  0  0  0  0
 32 21  1  0  0  0  0
 33 21  1  0  0  0  0
 34 22  1  0  0  0  0
 35 22  1  0  0  0  0
 37 24  1  0  0  0  0
 38 49  1  0  0  0  0
 38 39  1  0  0  0  0
 39 40  2  0  0  0  0
 41 39  1  0  0  0  0
 41 51  1  0  0  0  0
 41 42  1  0  0  0  0
 42 52  1  0  0  0  0
 43 54  1  1  0  0  0
 43 42  1  0  0  0  0
 43 44  1  0  0  0  0
 44 55  1  0  0  0  0
 44 25  1  0  0  0  0
 45 43  1  0  0  0  0
 46 45  2  0  0  0  0
 47 45  1  0  0  0  0
 48 38  1  0  0  0  0
 50 41  1  0  0  0  0
 53 42  1  0  0  0  0
M  END
$$$$
