MLR.pdb
 OpenBabel07022418553D

 61 60  0  0  1  0  0  0  0  0999 V2000
   -2.5570    1.2010    5.3670 C   0  0  0  0  0  0  0  0  0  0  0  0
   -0.8300    1.6500    5.0460 S   0  0  0  0  0  0  0  0  0  0  0  0
    0.1250    0.2560    4.4300 C   0  0  0  0  0  0  0  0  0  0  0  0
    1.5460    0.6160    4.1780 C   0  0  0  0  0  0  0  0  0  0  0  0
    1.7820    1.6960    3.1780 C   0  0  2  0  0  0  0  0  0  0  0  0
    1.1620    2.9410    3.5520 N   0  0  0  0  0  0  0  0  0  0  0  0
    1.4660    1.3040    1.7850 C   0  0  0  0  0  0  0  0  0  0  0  0
    0.7730    2.0430    1.0440 O   0  0  0  0  0  0  0  0  0  0  0  0
   -3.0800    2.1210    5.7000 H   0  0  0  0  0  0  0  0  0  0  0  0
   -3.0710    0.7800    4.5020 H   0  0  0  0  0  0  0  0  0  0  0  0
   -2.6350    0.4810    6.2250 H   0  0  0  0  0  0  0  0  0  0  0  0
   -0.3600   -0.2480    3.5640 H   0  0  0  0  0  0  0  0  0  0  0  0
    0.1390   -0.5230    5.2460 H   0  0  0  0  0  0  0  0  0  0  0  0
    1.9800    0.9680    5.1520 H   0  0  0  0  0  0  0  0  0  0  0  0
    2.1040   -0.3170    3.9470 H   0  0  0  0  0  0  0  0  0  0  0  0
    2.8940    1.9090    3.2210 H   0  0  0  0  0  0  0  0  0  0  0  0
    1.8060    3.6770    3.8500 H   0  0  0  0  0  0  0  0  0  0  0  0
    0.3980    3.2450    2.9150 H   0  0  0  0  0  0  0  0  0  0  0  0
    4.5250    0.7540    0.1650 C   0  0  0  0  0  0  0  0  0  0  0  0
    3.9060    0.2510   -1.1100 C   0  0  0  0  0  0  0  0  0  0  0  0
    3.4770    1.4690   -1.8990 C   0  0  0  0  0  0  0  0  0  0  0  0
    2.8260   -0.7400   -0.9120 C   0  0  0  0  0  0  0  0  0  0  0  0
    1.6300   -0.3230   -0.1410 C   0  0  2  0  0  0  0  0  0  0  0  0
    1.9270    0.0790    1.2160 N   0  0  0  0  0  0  0  0  0  0  0  0
    0.6250   -1.4330   -0.1610 C   0  0  0  0  0  0  0  0  0  0  0  0
    0.2110   -1.8600    0.9370 O   0  0  0  0  0  0  0  0  0  0  0  0
    4.6140   -0.0660    0.8970 H   0  0  0  0  0  0  0  0  0  0  0  0
    4.0240    1.6630    0.5540 H   0  0  0  0  0  0  0  0  0  0  0  0
    5.5760    1.0720   -0.1170 H   0  0  0  0  0  0  0  0  0  0  0  0
    4.7240   -0.2140   -1.7320 H   0  0  0  0  0  0  0  0  0  0  0  0
    4.4280    2.0160   -2.1460 H   0  0  0  0  0  0  0  0  0  0  0  0
    2.9010    2.1860   -1.2730 H   0  0  0  0  0  0  0  0  0  0  0  0
    3.0050    1.2300   -2.8580 H   0  0  0  0  0  0  0  0  0  0  0  0
    2.5470   -1.1950   -1.9090 H   0  0  0  0  0  0  0  0  0  0  0  0
    3.2810   -1.6260   -0.3700 H   0  0  0  0  0  0  0  0  0  0  0  0
    1.0800    0.5450   -0.6000 H   0  0  0  0  0  0  0  0  0  0  0  0
    2.4970   -0.5200    1.8580 H   0  0  0  0  0  0  0  0  0  0  0  0
   -6.4800   -3.5270   -0.2570 N   0  0  0  0  0  0  0  0  0  0  0  0
   -5.4670   -2.7570   -0.8860 C   0  0  0  0  0  0  0  0  0  0  0  0
   -5.7050   -2.1420   -1.9750 N   0  0  0  0  0  0  0  0  0  0  0  0
   -4.1870   -2.6820   -0.2850 N   0  0  0  0  0  0  0  0  0  0  0  0
   -3.2990   -1.6000   -0.5120 C   0  0  0  0  0  0  0  0  0  0  0  0
   -2.7380   -1.4970   -1.8880 C   0  0  0  0  0  0  0  0  0  0  0  0
   -1.9520   -2.6700   -2.3460 C   0  0  0  0  0  0  0  0  0  0  0  0
   -0.7490   -2.9880   -1.4950 C   0  0  2  0  0  0  0  0  0  0  0  0
    0.2060   -1.9310   -1.4190 N   0  0  0  0  0  0  0  0  0  0  0  0
   -0.1000   -4.1740   -2.1050 C   0  0  0  0  0  0  0  0  0  0  0  0
    1.1040   -4.1150   -2.4520 O   0  0  0  0  0  0  0  0  0  0  0  0
   -0.8190   -5.3730   -2.3040 O   0  0  0  0  0  0  0  0  0  0  0  0
   -7.4770   -3.2370   -0.4050 H   0  0  0  0  0  0  0  0  0  0  0  0
   -6.1890   -4.3460    0.3220 H   0  0  0  0  0  0  0  0  0  0  0  0
   -6.6510   -2.2100   -2.4010 H   0  0  0  0  0  0  0  0  0  0  0  0
   -3.9090   -3.4600    0.3440 H   0  0  0  0  0  0  0  0  0  0  0  0
   -3.8800   -0.6510   -0.3220 H   0  0  0  0  0  0  0  0  0  0  0  0
   -2.4600   -1.5470    0.2250 H   0  0  0  0  0  0  0  0  0  0  0  0
   -3.5630   -1.3510   -2.6350 H   0  0  0  0  0  0  0  0  0  0  0  0
   -2.1210   -0.5720   -1.9780 H   0  0  0  0  0  0  0  0  0  0  0  0
   -1.5760   -2.4560   -3.3680 H   0  0  0  0  0  0  0  0  0  0  0  0
   -2.5700   -3.5830   -2.3920 H   0  0  0  0  0  0  0  0  0  0  0  0
   -1.0420   -3.3000   -0.4710 H   0  0  0  0  0  0  0  0  0  0  0  0
    0.5860   -1.5350   -2.3050 H   0  0  0  0  0  0  0  0  0  0  0  0
  1  9  1  0  0  0  0
  1 11  1  0  0  0  0
  2  1  1  0  0  0  0
  3  2  1  0  0  0  0
  3 13  1  0  0  0  0
  4  3  1  0  0  0  0
  4 14  1  0  0  0  0
  5 16  1  1  0  0  0
  5  6  1  0  0  0  0
  5  4  1  0  0  0  0
  6 17  1  0  0  0  0
  7  5  1  0  0  0  0
  8  7  2  0  0  0  0
 10  1  1  0  0  0  0
 12  3  1  0  0  0  0
 15  4  1  0  0  0  0
 18  6  1  0  0  0  0
 19 28  1  0  0  0  0
 19 27  1  0  0  0  0
 20 22  1  0  0  0  0
 20 19  1  0  0  0  0
 21 32  1  0  0  0  0
 21 20  1  0  0  0  0
 22 35  1  0  0  0  0
 22 23  1  0  0  0  0
 23 36  1  6  0  0  0
 23 24  1  0  0  0  0
 24  7  1  0  0  0  0
 24 37  1  0  0  0  0
 25 23  1  0  0  0  0
 25 26  2  0  0  0  0
 29 19  1  0  0  0  0
 30 20  1  0  0  0  0
 31 21  1  0  0  0  0
 33 21  1  0  0  0  0
 34 22  1  0  0  0  0
 38 51  1  0  0  0  0
 39 41  1  0  0  0  0
 39 38  1  0  0  0  0
 40 39  2  0  0  0  0
 41 53  1  0  0  0  0
 42 54  1  0  0  0  0
 42 41  1  0  0  0  0
 42 55  1  0  0  0  0
 43 42  1  0  0  0  0
 44 43  1  0  0  0  0
 44 45  1  0  0  0  0
 45 46  1  0  0  0  0
 45 60  1  1  0  0  0
 46 25  1  0  0  0  0
 47 45  1  0  0  0  0
 48 47  2  0  0  0  0
 49 47  1  0  0  0  0
 50 38  1  0  0  0  0
 52 40  1  0  0  0  0
 56 43  1  0  0  0  0
 57 43  1  0  0  0  0
 58 44  1  0  0  0  0
 59 44  1  0  0  0  0
 61 46  1  0  0  0  0
M  END
$$$$
