MLT.pdb
 OpenBabel07022418553D

 52 51  0  0  1  0  0  0  0  0999 V2000
   -0.3030   -5.6050    3.3440 C   0  0  0  0  0  0  0  0  0  0  0  0
    1.0920   -5.0870    4.3130 S   0  0  0  0  0  0  0  0  0  0  0  0
    1.0330   -3.5300    5.1240 C   0  0  0  0  0  0  0  0  0  0  0  0
    1.2150   -2.2690    4.3610 C   0  0  0  0  0  0  0  0  0  0  0  0
    0.2260   -2.0690    3.2680 C   0  0  2  0  0  0  0  0  0  0  0  0
    0.3480   -3.0930    2.2920 N   0  0  0  0  0  0  0  0  0  0  0  0
    0.3450   -0.7240    2.6310 C   0  0  0  0  0  0  0  0  0  0  0  0
    0.2760    0.3480    3.2700 O   0  0  0  0  0  0  0  0  0  0  0  0
   -1.1990   -4.9640    3.3930 H   0  0  0  0  0  0  0  0  0  0  0  0
   -0.0140   -5.7440    2.2750 H   0  0  0  0  0  0  0  0  0  0  0  0
   -0.6930   -6.6350    3.7080 H   0  0  0  0  0  0  0  0  0  0  0  0
    1.8770   -3.5300    5.8980 H   0  0  0  0  0  0  0  0  0  0  0  0
    0.1220   -3.4360    5.8080 H   0  0  0  0  0  0  0  0  0  0  0  0
    1.2790   -1.3750    5.0430 H   0  0  0  0  0  0  0  0  0  0  0  0
    2.2300   -2.3400    3.8320 H   0  0  0  0  0  0  0  0  0  0  0  0
   -0.7990   -2.1760    3.7260 H   0  0  0  0  0  0  0  0  0  0  0  0
   -0.3270   -3.0390    1.5110 H   0  0  0  0  0  0  0  0  0  0  0  0
    1.3040   -3.0190    1.8460 H   0  0  0  0  0  0  0  0  0  0  0  0
    3.5640    2.0800   -1.4910 C   0  0  0  0  0  0  0  0  0  0  0  0
    2.1820    2.1410   -0.8100 C   0  0  0  0  0  0  0  0  0  0  0  0
    2.2790    3.2820    0.1910 C   0  0  0  0  0  0  0  0  0  0  0  0
    1.9550    0.8210   -0.1320 C   0  0  0  0  0  0  0  0  0  0  0  0
    0.6640    0.6820    0.5980 C   0  0  2  0  0  0  0  0  0  0  0  0
    0.5470   -0.6360    1.2260 N   0  0  0  0  0  0  0  0  0  0  0  0
   -0.4830    0.8370   -0.3320 C   0  0  0  0  0  0  0  0  0  0  0  0
   -0.6740    1.8850   -0.9830 O   0  0  0  0  0  0  0  0  0  0  0  0
    3.9820    3.1040   -1.5730 H   0  0  0  0  0  0  0  0  0  0  0  0
    3.4890    1.6360   -2.4920 H   0  0  0  0  0  0  0  0  0  0  0  0
    4.2440    1.5160   -0.8130 H   0  0  0  0  0  0  0  0  0  0  0  0
    1.4530    2.4180   -1.5710 H   0  0  0  0  0  0  0  0  0  0  0  0
    1.2900    3.7940    0.2570 H   0  0  0  0  0  0  0  0  0  0  0  0
    2.9920    4.0580   -0.1890 H   0  0  0  0  0  0  0  0  0  0  0  0
    2.6500    2.9370    1.1700 H   0  0  0  0  0  0  0  0  0  0  0  0
    1.9590    0.0560   -0.9670 H   0  0  0  0  0  0  0  0  0  0  0  0
    2.8420    0.5540    0.4730 H   0  0  0  0  0  0  0  0  0  0  0  0
    0.5680    1.4750    1.3760 H   0  0  0  0  0  0  0  0  0  0  0  0
    0.6200   -1.4650    0.5950 H   0  0  0  0  0  0  0  0  0  0  0  0
   -3.7030   -0.6510   -3.5000 C   0  0  0  0  0  0  0  0  0  0  0  0
   -2.5470   -1.0500   -2.5730 C   0  0  1  0  0  0  0  0  0  0  0  0
   -1.3610   -0.8690   -3.3140 O   0  0  0  0  0  0  0  0  0  0  0  0
   -2.5510   -0.0610   -1.4380 C   0  0  2  0  0  0  0  0  0  0  0  0
   -1.4430   -0.2020   -0.5440 N   0  0  0  0  0  0  0  0  0  0  0  0
   -3.8310   -0.1870   -0.6790 C   0  0  0  0  0  0  0  0  0  0  0  0
   -4.9410   -0.0980   -1.2460 O   0  0  0  0  0  0  0  0  0  0  0  0
   -3.7890   -0.4120    0.7090 O   0  0  0  0  0  0  0  0  0  0  0  0
   -4.5890   -1.3000   -3.3460 H   0  0  0  0  0  0  0  0  0  0  0  0
   -4.0230    0.3880   -3.3330 H   0  0  0  0  0  0  0  0  0  0  0  0
   -3.3940   -0.7670   -4.5780 H   0  0  0  0  0  0  0  0  0  0  0  0
   -2.7150   -2.0870   -2.2980 H   0  0  0  0  0  0  0  0  0  0  0  0
   -1.1710    0.1160   -3.3000 H   0  0  0  0  0  0  0  0  0  0  0  0
   -2.5300    0.9450   -1.8890 H   0  0  0  0  0  0  0  0  0  0  0  0
   -1.2920   -1.0800   -0.0060 H   0  0  0  0  0  0  0  0  0  0  0  0
  1  9  1  0  0  0  0
  1 11  1  0  0  0  0
  1  2  1  0  0  0  0
  2  3  1  0  0  0  0
  3 13  1  0  0  0  0
  3 12  1  0  0  0  0
  4 14  1  0  0  0  0
  4  3  1  0  0  0  0
  5 16  1  1  0  0  0
  5  4  1  0  0  0  0
  6  5  1  0  0  0  0
  7  5  1  0  0  0  0
  7  8  2  0  0  0  0
 10  1  1  0  0  0  0
 15  4  1  0  0  0  0
 17  6  1  0  0  0  0
 18  6  1  0  0  0  0
 19 29  1  0  0  0  0
 19 20  1  0  0  0  0
 20 22  1  0  0  0  0
 20 21  1  0  0  0  0
 21 31  1  0  0  0  0
 21 33  1  0  0  0  0
 22 35  1  0  0  0  0
 22 23  1  0  0  0  0
 23 24  1  0  0  0  0
 23 36  1  1  0  0  0
 24  7  1  0  0  0  0
 25 23  1  0  0  0  0
 26 25  2  0  0  0  0
 27 19  1  0  0  0  0
 28 19  1  0  0  0  0
 30 20  1  0  0  0  0
 32 21  1  0  0  0  0
 34 22  1  0  0  0  0
 37 24  1  0  0  0  0
 38 46  1  0  0  0  0
 38 47  1  0  0  0  0
 38 39  1  0  0  0  0
 39 49  1  1  0  0  0
 39 41  1  0  0  0  0
 40 50  1  0  0  0  0
 40 39  1  0  0  0  0
 41 51  1  6  0  0  0
 41 43  1  0  0  0  0
 41 42  1  0  0  0  0
 42 25  1  0  0  0  0
 42 52  1  0  0  0  0
 43 45  1  0  0  0  0
 44 43  2  0  0  0  0
 48 38  1  0  0  0  0
M  END
$$$$
