MLV.pdb
 OpenBabel07022418553D

 54 53  0  0  1  0  0  0  0  0999 V2000
   -0.2700   -5.0000    4.9620 C   0  0  0  0  0  0  0  0  0  0  0  0
    1.4530   -4.4980    4.7010 S   0  0  0  0  0  0  0  0  0  0  0  0
    1.6260   -2.7180    4.8980 C   0  0  0  0  0  0  0  0  0  0  0  0
    0.8830   -1.9610    3.8130 C   0  0  0  0  0  0  0  0  0  0  0  0
    1.0700   -0.4750    4.0350 C   0  0  2  0  0  0  0  0  0  0  0  0
    0.5390   -0.1510    5.3270 N   0  0  0  0  0  0  0  0  0  0  0  0
    0.3910    0.3250    2.9830 C   0  0  0  0  0  0  0  0  0  0  0  0
   -0.5000    1.1430    3.3240 O   0  0  0  0  0  0  0  0  0  0  0  0
   -0.8620   -4.1780    5.4220 H   0  0  0  0  0  0  0  0  0  0  0  0
   -0.7030   -5.2840    3.9760 H   0  0  0  0  0  0  0  0  0  0  0  0
   -0.3030   -5.8760    5.6390 H   0  0  0  0  0  0  0  0  0  0  0  0
    2.6690   -2.4030    5.0120 H   0  0  0  0  0  0  0  0  0  0  0  0
    1.1130   -2.4450    5.8660 H   0  0  0  0  0  0  0  0  0  0  0  0
    1.2780   -2.2730    2.8150 H   0  0  0  0  0  0  0  0  0  0  0  0
   -0.1810   -2.2190    3.9180 H   0  0  0  0  0  0  0  0  0  0  0  0
    2.1570   -0.2220    4.0520 H   0  0  0  0  0  0  0  0  0  0  0  0
   -0.5020   -0.3440    5.3740 H   0  0  0  0  0  0  0  0  0  0  0  0
    0.7760    0.8040    5.6540 H   0  0  0  0  0  0  0  0  0  0  0  0
    1.6850    0.4900   -2.0520 C   0  0  0  0  0  0  0  0  0  0  0  0
    1.9930    1.4490   -0.9570 C   0  0  0  0  0  0  0  0  0  0  0  0
    3.1930    0.9970   -0.1210 C   0  0  0  0  0  0  0  0  0  0  0  0
    0.8650    1.9240   -0.1340 C   0  0  0  0  0  0  0  0  0  0  0  0
    0.0520    0.9700    0.6370 C   0  0  2  0  0  0  0  0  0  0  0  0
    0.7230    0.1880    1.6100 N   0  0  0  0  0  0  0  0  0  0  0  0
   -0.7960    0.0500   -0.1980 C   0  0  0  0  0  0  0  0  0  0  0  0
   -0.7970   -1.1920    0.0310 O   0  0  0  0  0  0  0  0  0  0  0  0
    2.6690    0.0000   -2.3260 H   0  0  0  0  0  0  0  0  0  0  0  0
    1.4020    1.0530   -2.9640 H   0  0  0  0  0  0  0  0  0  0  0  0
    1.0150   -0.3300   -1.8230 H   0  0  0  0  0  0  0  0  0  0  0  0
    2.3910    2.3760   -1.4800 H   0  0  0  0  0  0  0  0  0  0  0  0
    3.1380    1.3960    0.9080 H   0  0  0  0  0  0  0  0  0  0  0  0
    4.1560    1.3480   -0.5450 H   0  0  0  0  0  0  0  0  0  0  0  0
    3.2570   -0.1210   -0.1340 H   0  0  0  0  0  0  0  0  0  0  0  0
    1.2540    2.7460    0.5230 H   0  0  0  0  0  0  0  0  0  0  0  0
    0.1640    2.4770   -0.8300 H   0  0  0  0  0  0  0  0  0  0  0  0
   -0.6820    1.6250    1.2050 H   0  0  0  0  0  0  0  0  0  0  0  0
    1.4750   -0.5160    1.4190 H   0  0  0  0  0  0  0  0  0  0  0  0
   -2.7410   -1.8630   -3.9340 C   0  0  0  0  0  0  0  0  0  0  0  0
   -1.7530   -1.0700   -3.1110 C   0  0  0  0  0  0  0  0  0  0  0  0
   -1.0140   -0.1160   -4.0270 C   0  0  0  0  0  0  0  0  0  0  0  0
   -2.4680   -0.2840   -2.0910 C   0  0  2  0  0  0  0  0  0  0  0  0
   -1.6110    0.5240   -1.2490 N   0  0  0  0  0  0  0  0  0  0  0  0
   -3.3430   -1.1770   -1.2610 C   0  0  0  0  0  0  0  0  0  0  0  0
   -4.1260   -2.0050   -1.7770 O   0  0  0  0  0  0  0  0  0  0  0  0
   -3.3310   -1.1270    0.1280 O   0  0  0  0  0  0  0  0  0  0  0  0
   -2.3530   -1.9500   -4.9810 H   0  0  0  0  0  0  0  0  0  0  0  0
   -2.8930   -2.8740   -3.5120 H   0  0  0  0  0  0  0  0  0  0  0  0
   -3.7240   -1.3450   -3.9410 H   0  0  0  0  0  0  0  0  0  0  0  0
   -1.0380   -1.7940   -2.6550 H   0  0  0  0  0  0  0  0  0  0  0  0
   -0.9180    0.8580   -3.5290 H   0  0  0  0  0  0  0  0  0  0  0  0
   -0.0150   -0.5760   -4.2360 H   0  0  0  0  0  0  0  0  0  0  0  0
   -1.5850   -0.0390   -4.9730 H   0  0  0  0  0  0  0  0  0  0  0  0
   -3.2000    0.4150   -2.5690 H   0  0  0  0  0  0  0  0  0  0  0  0
   -1.5650    1.5800   -1.4060 H   0  0  0  0  0  0  0  0  0  0  0  0
  1  9  1  0  0  0  0
  1 11  1  0  0  0  0
  2  3  1  0  0  0  0
  2  1  1  0  0  0  0
  3 12  1  0  0  0  0
  3 13  1  0  0  0  0
  4 15  1  0  0  0  0
  4  5  1  0  0  0  0
  4  3  1  0  0  0  0
  5 16  1  6  0  0  0
  5  6  1  0  0  0  0
  6 17  1  0  0  0  0
  6 18  1  0  0  0  0
  7  8  2  0  0  0  0
  7  5  1  0  0  0  0
 10  1  1  0  0  0  0
 14  4  1  0  0  0  0
 19 29  1  0  0  0  0
 19 20  1  0  0  0  0
 20 22  1  0  0  0  0
 20 21  1  0  0  0  0
 21 31  1  0  0  0  0
 22 34  1  0  0  0  0
 22 23  1  0  0  0  0
 23 36  1  1  0  0  0
 23 24  1  0  0  0  0
 24  7  1  0  0  0  0
 25 26  2  0  0  0  0
 25 23  1  0  0  0  0
 27 19  1  0  0  0  0
 28 19  1  0  0  0  0
 30 20  1  0  0  0  0
 32 21  1  0  0  0  0
 33 21  1  0  0  0  0
 35 22  1  0  0  0  0
 37 24  1  0  0  0  0
 38 47  1  0  0  0  0
 38 39  1  0  0  0  0
 39 49  1  0  0  0  0
 39 41  1  0  0  0  0
 40 50  1  0  0  0  0
 40 39  1  0  0  0  0
 41 53  1  6  0  0  0
 41 43  1  0  0  0  0
 41 42  1  0  0  0  0
 42 25  1  0  0  0  0
 43 45  1  0  0  0  0
 44 43  2  0  0  0  0
 46 38  1  0  0  0  0
 48 38  1  0  0  0  0
 51 40  1  0  0  0  0
 52 40  1  0  0  0  0
 54 42  1  0  0  0  0
M  END
$$$$
