MLY.pdb
 OpenBabel07022418553D

 59 59  0  0  1  0  0  0  0  0999 V2000
   -0.1340   -0.6160    5.2580 C   0  0  0  0  0  0  0  0  0  0  0  0
    0.8940   -2.0770    5.1630 S   0  0  0  0  0  0  0  0  0  0  0  0
    1.6010   -2.4420    3.5740 C   0  0  0  0  0  0  0  0  0  0  0  0
    2.7090   -1.6090    3.0850 C   0  0  0  0  0  0  0  0  0  0  0  0
    2.5340   -0.1560    2.9000 C   0  0  2  0  0  0  0  0  0  0  0  0
    2.2220    0.6130    4.0600 N   0  0  0  0  0  0  0  0  0  0  0  0
    1.6130    0.1660    1.7550 C   0  0  0  0  0  0  0  0  0  0  0  0
    0.6670    0.9860    1.8690 O   0  0  0  0  0  0  0  0  0  0  0  0
   -0.3610   -0.1640    4.2720 H   0  0  0  0  0  0  0  0  0  0  0  0
   -1.1760   -0.8860    5.6620 H   0  0  0  0  0  0  0  0  0  0  0  0
    0.2830    0.1910    5.9020 H   0  0  0  0  0  0  0  0  0  0  0  0
    2.0230   -3.5030    3.6590 H   0  0  0  0  0  0  0  0  0  0  0  0
    0.7990   -2.6030    2.7880 H   0  0  0  0  0  0  0  0  0  0  0  0
    3.5610   -1.7330    3.8400 H   0  0  0  0  0  0  0  0  0  0  0  0
    3.1660   -2.0870    2.1660 H   0  0  0  0  0  0  0  0  0  0  0  0
    3.5340    0.2400    2.5390 H   0  0  0  0  0  0  0  0  0  0  0  0
    3.0100    0.8060    4.6870 H   0  0  0  0  0  0  0  0  0  0  0  0
    1.7940    1.5300    3.7610 H   0  0  0  0  0  0  0  0  0  0  0  0
    3.2310    1.8710   -0.5400 C   0  0  0  0  0  0  0  0  0  0  0  0
    2.1540    1.8330   -1.5830 C   0  0  0  0  0  0  0  0  0  0  0  0
    1.1260    2.8800   -1.2170 C   0  0  0  0  0  0  0  0  0  0  0  0
    1.5870    0.4860   -1.7930 C   0  0  0  0  0  0  0  0  0  0  0  0
    0.9330   -0.1950   -0.6610 C   0  0  2  0  0  0  0  0  0  0  0  0
    1.7710   -0.4470    0.4830 N   0  0  0  0  0  0  0  0  0  0  0  0
    0.1590   -1.4030   -1.0570 C   0  0  0  0  0  0  0  0  0  0  0  0
    0.3000   -2.4750   -0.4080 O   0  0  0  0  0  0  0  0  0  0  0  0
    2.8490    2.3690    0.3920 H   0  0  0  0  0  0  0  0  0  0  0  0
    4.1170    2.4620   -0.9170 H   0  0  0  0  0  0  0  0  0  0  0  0
    3.6030    0.8740   -0.2370 H   0  0  0  0  0  0  0  0  0  0  0  0
    2.6170    2.2240   -2.5410 H   0  0  0  0  0  0  0  0  0  0  0  0
    1.5880    3.8700   -1.4140 H   0  0  0  0  0  0  0  0  0  0  0  0
    0.9290    2.8760   -0.1060 H   0  0  0  0  0  0  0  0  0  0  0  0
    0.2060    2.8240   -1.8110 H   0  0  0  0  0  0  0  0  0  0  0  0
    0.8690    0.5730   -2.6630 H   0  0  0  0  0  0  0  0  0  0  0  0
    2.3660   -0.2260   -2.2020 H   0  0  0  0  0  0  0  0  0  0  0  0
    0.1410    0.5240   -0.2750 H   0  0  0  0  0  0  0  0  0  0  0  0
    2.5720   -1.1430    0.4120 H   0  0  0  0  0  0  0  0  0  0  0  0
   -4.2800   -1.6550    3.0520 O   0  0  0  0  0  0  0  0  0  0  0  0
   -3.9640   -1.8380    1.7160 C   0  0  0  0  0  0  0  0  0  0  0  0
   -3.7220   -0.7310    0.9050 C   0  0  0  0  0  0  0  0  0  0  0  0
   -3.4060   -0.9050   -0.4270 C   0  0  0  0  0  0  0  0  0  0  0  0
   -3.3390   -2.1940   -0.9240 C   0  0  0  0  0  0  0  0  0  0  0  0
   -2.9980   -2.4200   -2.3530 C   0  0  0  0  0  0  0  0  0  0  0  0
   -1.5070   -2.5700   -2.5520 C   0  0  2  0  0  0  0  0  0  0  0  0
   -0.7520   -1.4320   -2.1450 N   0  0  0  0  0  0  0  0  0  0  0  0
   -1.2610   -3.0000   -3.9270 C   0  0  0  0  0  0  0  0  0  0  0  0
   -0.4250   -2.3660   -4.6460 O   0  0  0  0  0  0  0  0  0  0  0  0
   -3.5800   -3.2830   -0.1150 C   0  0  0  0  0  0  0  0  0  0  0  0
   -3.8930   -3.1130    1.2060 C   0  0  0  0  0  0  0  0  0  0  0  0
   -1.8840   -4.0720   -4.5230 O   0  0  0  0  0  0  0  0  0  0  0  0
   -5.1550   -1.2340    3.3610 H   0  0  0  0  0  0  0  0  0  0  0  0
   -3.7850    0.2760    1.3360 H   0  0  0  0  0  0  0  0  0  0  0  0
   -3.2140   -0.0360   -1.0740 H   0  0  0  0  0  0  0  0  0  0  0  0
   -3.4220   -1.5770   -2.9300 H   0  0  0  0  0  0  0  0  0  0  0  0
   -3.4680   -3.3500   -2.7370 H   0  0  0  0  0  0  0  0  0  0  0  0
   -1.2080   -3.4210   -1.8720 H   0  0  0  0  0  0  0  0  0  0  0  0
   -0.8490   -0.5130   -2.6700 H   0  0  0  0  0  0  0  0  0  0  0  0
   -3.5150   -4.2910   -0.5490 H   0  0  0  0  0  0  0  0  0  0  0  0
   -4.0810   -3.9950    1.8320 H   0  0  0  0  0  0  0  0  0  0  0  0
  1 10  1  0  0  0  0
  1 11  1  0  0  0  0
  2  1  1  0  0  0  0
  3 12  1  0  0  0  0
  3  2  1  0  0  0  0
  4  3  1  0  0  0  0
  4 14  1  0  0  0  0
  5 16  1  6  0  0  0
  5  4  1  0  0  0  0
  5  6  1  0  0  0  0
  6 17  1  0  0  0  0
  7  8  2  0  0  0  0
  7  5  1  0  0  0  0
  9  1  1  0  0  0  0
 13  3  1  0  0  0  0
 15  4  1  0  0  0  0
 18  6  1  0  0  0  0
 19 29  1  0  0  0  0
 19 27  1  0  0  0  0
 20 21  1  0  0  0  0
 20 19  1  0  0  0  0
 21 32  1  0  0  0  0
 22 20  1  0  0  0  0
 22 23  1  0  0  0  0
 23 36  1  1  0  0  0
 23 24  1  0  0  0  0
 24  7  1  0  0  0  0
 25 23  1  0  0  0  0
 25 26  2  0  0  0  0
 28 19  1  0  0  0  0
 30 20  1  0  0  0  0
 31 21  1  0  0  0  0
 33 21  1  0  0  0  0
 34 22  1  0  0  0  0
 35 22  1  0  0  0  0
 37 24  1  0  0  0  0
 38 51  1  0  0  0  0
 39 38  1  0  0  0  0
 40 52  1  0  0  0  0
 40 39  2  0  0  0  0
 41 40  1  0  0  0  0
 42 41  2  0  0  0  0
 42 48  1  0  0  0  0
 43 42  1  0  0  0  0
 44 43  1  0  0  0  0
 44 45  1  0  0  0  0
 44 56  1  1  0  0  0
 45 25  1  0  0  0  0
 46 44  1  0  0  0  0
 47 46  2  0  0  0  0
 48 49  2  0  0  0  0
 49 39  1  0  0  0  0
 49 59  1  0  0  0  0
 50 46  1  0  0  0  0
 53 41  1  0  0  0  0
 54 43  1  0  0  0  0
 55 43  1  0  0  0  0
 57 45  1  0  0  0  0
 58 48  1  0  0  0  0
M  END
$$$$
