MMD.pdb
 OpenBabel07022418563D

 49 48  0  0  1  0  0  0  0  0999 V2000
    3.6290   -1.6280    5.6050 C   0  0  0  0  0  0  0  0  0  0  0  0
    2.8640   -0.0720    6.1080 S   0  0  0  0  0  0  0  0  0  0  0  0
    1.2930    0.1990    5.2130 C   0  0  0  0  0  0  0  0  0  0  0  0
    1.6430    0.3950    3.7540 C   0  0  0  0  0  0  0  0  0  0  0  0
    0.4040    0.6310    2.9140 C   0  0  2  0  0  0  0  0  0  0  0  0
   -0.4510   -0.5110    3.0380 N   0  0  0  0  0  0  0  0  0  0  0  0
    0.8330    0.8560    1.5060 C   0  0  0  0  0  0  0  0  0  0  0  0
    1.5810    1.8040    1.1750 O   0  0  0  0  0  0  0  0  0  0  0  0
    3.0280   -2.1560    4.8300 H   0  0  0  0  0  0  0  0  0  0  0  0
    4.6770   -1.5000    5.2560 H   0  0  0  0  0  0  0  0  0  0  0  0
    3.6730   -2.3210    6.4770 H   0  0  0  0  0  0  0  0  0  0  0  0
    0.7500    1.0570    5.6190 H   0  0  0  0  0  0  0  0  0  0  0  0
    0.7160   -0.7580    5.3110 H   0  0  0  0  0  0  0  0  0  0  0  0
    2.1130   -0.5640    3.4180 H   0  0  0  0  0  0  0  0  0  0  0  0
    2.4020    1.1930    3.6320 H   0  0  0  0  0  0  0  0  0  0  0  0
   -0.1420    1.5200    3.2860 H   0  0  0  0  0  0  0  0  0  0  0  0
    0.0670   -1.3940    3.1380 H   0  0  0  0  0  0  0  0  0  0  0  0
   -1.2200   -0.3770    3.7310 H   0  0  0  0  0  0  0  0  0  0  0  0
    2.5130   -4.2450   -1.3100 C   0  0  0  0  0  0  0  0  0  0  0  0
    3.5520   -2.7790   -1.5690 S   0  0  0  0  0  0  0  0  0  0  0  0
    2.7890   -1.3360   -0.7620 C   0  0  0  0  0  0  0  0  0  0  0  0
    1.4950   -1.0420   -1.4950 C   0  0  0  0  0  0  0  0  0  0  0  0
    0.7730    0.1410   -0.9100 C   0  0  2  0  0  0  0  0  0  0  0  0
    0.4090   -0.0050    0.4580 N   0  0  0  0  0  0  0  0  0  0  0  0
   -0.4710    0.3810   -1.6860 C   0  0  0  0  0  0  0  0  0  0  0  0
   -0.3530    0.5310   -2.9250 O   0  0  0  0  0  0  0  0  0  0  0  0
    2.7990   -5.0210   -2.0500 H   0  0  0  0  0  0  0  0  0  0  0  0
    2.5670   -4.6150   -0.2650 H   0  0  0  0  0  0  0  0  0  0  0  0
    1.4380   -4.0320   -1.5000 H   0  0  0  0  0  0  0  0  0  0  0  0
    2.6300   -1.6170    0.2920 H   0  0  0  0  0  0  0  0  0  0  0  0
    3.4380   -0.4590   -0.7850 H   0  0  0  0  0  0  0  0  0  0  0  0
    1.8090   -0.7630   -2.5260 H   0  0  0  0  0  0  0  0  0  0  0  0
    0.8650   -1.9380   -1.6010 H   0  0  0  0  0  0  0  0  0  0  0  0
    1.4340    1.0290   -1.0970 H   0  0  0  0  0  0  0  0  0  0  0  0
   -0.2150   -0.8010    0.7150 H   0  0  0  0  0  0  0  0  0  0  0  0
   -1.7590    0.4480   -1.1180 N   0  0  0  0  0  0  0  0  0  0  0  0
   -2.8920    0.6860   -1.9830 C   0  0  1  0  0  0  0  0  0  0  0  0
   -3.9220   -0.4210   -1.8730 C   0  0  0  0  0  0  0  0  0  0  0  0
   -3.3500   -1.7340   -2.2490 C   0  0  0  0  0  0  0  0  0  0  0  0
   -2.1830   -1.9420   -2.6180 O   0  0  0  0  0  0  0  0  0  0  0  0
   -3.5180    2.0060   -1.6490 C   0  0  0  0  0  0  0  0  0  0  0  0
   -4.5220    2.3960   -2.2980 O   0  0  0  0  0  0  0  0  0  0  0  0
   -4.1980   -2.8330   -2.1820 O   0  0  0  0  0  0  0  0  0  0  0  0
   -3.0330    2.8290   -0.6430 O   0  0  0  0  0  0  0  0  0  0  0  0
   -1.8880    0.3300   -0.0970 H   0  0  0  0  0  0  0  0  0  0  0  0
   -2.5910    0.7600   -3.0460 H   0  0  0  0  0  0  0  0  0  0  0  0
   -4.2890   -0.5220   -0.8180 H   0  0  0  0  0  0  0  0  0  0  0  0
   -4.7940   -0.2290   -2.5270 H   0  0  0  0  0  0  0  0  0  0  0  0
   -3.8960   -3.7400   -2.5460 H   0  0  0  0  0  0  0  0  0  0  0  0
  1  2  1  0  0  0  0
  1 11  1  0  0  0  0
  3 13  1  0  0  0  0
  3 12  1  0  0  0  0
  3  2  1  0  0  0  0
  4  3  1  0  0  0  0
  5  6  1  0  0  0  0
  5 16  1  1  0  0  0
  5  4  1  0  0  0  0
  6 17  1  0  0  0  0
  6 18  1  0  0  0  0
  7  5  1  0  0  0  0
  8  7  2  0  0  0  0
  9  1  1  0  0  0  0
 10  1  1  0  0  0  0
 14  4  1  0  0  0  0
 15  4  1  0  0  0  0
 19 28  1  0  0  0  0
 20 19  1  0  0  0  0
 20 21  1  0  0  0  0
 21 30  1  0  0  0  0
 22 23  1  0  0  0  0
 22 21  1  0  0  0  0
 23 34  1  6  0  0  0
 23 24  1  0  0  0  0
 24 35  1  0  0  0  0
 24  7  1  0  0  0  0
 25 36  1  0  0  0  0
 25 23  1  0  0  0  0
 26 25  2  0  0  0  0
 27 19  1  0  0  0  0
 29 19  1  0  0  0  0
 31 21  1  0  0  0  0
 32 22  1  0  0  0  0
 33 22  1  0  0  0  0
 36 45  1  0  0  0  0
 37 46  1  6  0  0  0
 37 38  1  0  0  0  0
 37 41  1  0  0  0  0
 37 36  1  0  0  0  0
 38 47  1  0  0  0  0
 39 43  1  0  0  0  0
 39 38  1  0  0  0  0
 40 39  2  0  0  0  0
 41 44  1  0  0  0  0
 42 41  2  0  0  0  0
 48 38  1  0  0  0  0
 49 43  1  0  0  0  0
M  END
$$$$
