MMF.pdb
 OpenBabel07022418563D

 56 56  0  0  1  0  0  0  0  0999 V2000
    2.4530   -2.2720    6.5040 C   0  0  0  0  0  0  0  0  0  0  0  0
    2.7890   -0.5130    6.8880 S   0  0  0  0  0  0  0  0  0  0  0  0
    1.3840    0.4150    6.1570 C   0  0  0  0  0  0  0  0  0  0  0  0
    1.5070    0.2360    4.6720 C   0  0  0  0  0  0  0  0  0  0  0  0
    0.3630    0.9020    3.9170 C   0  0  2  0  0  0  0  0  0  0  0  0
   -0.9040    0.2980    4.3490 N   0  0  0  0  0  0  0  0  0  0  0  0
    0.5840    0.7560    2.4690 C   0  0  0  0  0  0  0  0  0  0  0  0
    0.7030    1.7890    1.7800 O   0  0  0  0  0  0  0  0  0  0  0  0
    1.3500   -2.4080    6.6310 H   0  0  0  0  0  0  0  0  0  0  0  0
    2.9780   -2.9430    7.1770 H   0  0  0  0  0  0  0  0  0  0  0  0
    2.7060   -2.5180    5.4580 H   0  0  0  0  0  0  0  0  0  0  0  0
    0.4740    0.0400    6.6080 H   0  0  0  0  0  0  0  0  0  0  0  0
    1.5680    1.4720    6.4680 H   0  0  0  0  0  0  0  0  0  0  0  0
    1.5460   -0.8180    4.3650 H   0  0  0  0  0  0  0  0  0  0  0  0
    2.4520    0.7170    4.3520 H   0  0  0  0  0  0  0  0  0  0  0  0
    0.3380    1.9530    4.1920 H   0  0  0  0  0  0  0  0  0  0  0  0
   -0.7550   -0.5420    4.9260 H   0  0  0  0  0  0  0  0  0  0  0  0
   -1.5370    1.0110    4.7920 H   0  0  0  0  0  0  0  0  0  0  0  0
    2.7000   -3.8390   -1.5340 C   0  0  0  0  0  0  0  0  0  0  0  0
    1.9120   -2.3800   -2.2010 S   0  0  0  0  0  0  0  0  0  0  0  0
    2.5740   -0.8430   -1.4900 C   0  0  0  0  0  0  0  0  0  0  0  0
    2.2780   -0.6930   -0.0440 C   0  0  0  0  0  0  0  0  0  0  0  0
    0.8830   -0.5160    0.3560 C   0  0  2  0  0  0  0  0  0  0  0  0
    0.6770   -0.4510    1.7820 N   0  0  0  0  0  0  0  0  0  0  0  0
   -0.1400   -1.3680   -0.2190 C   0  0  0  0  0  0  0  0  0  0  0  0
   -0.6550   -2.2680    0.5110 O   0  0  0  0  0  0  0  0  0  0  0  0
    1.9600   -4.5560   -1.0750 H   0  0  0  0  0  0  0  0  0  0  0  0
    3.4750   -3.6230   -0.7660 H   0  0  0  0  0  0  0  0  0  0  0  0
    3.2250   -4.4400   -2.3130 H   0  0  0  0  0  0  0  0  0  0  0  0
    3.6820   -0.8800   -1.6630 H   0  0  0  0  0  0  0  0  0  0  0  0
    2.2290    0.0230   -2.1040 H   0  0  0  0  0  0  0  0  0  0  0  0
    2.8700    0.2350    0.2720 H   0  0  0  0  0  0  0  0  0  0  0  0
    2.8470   -1.4970    0.4580 H   0  0  0  0  0  0  0  0  0  0  0  0
    0.6370    0.5450   -0.0020 H   0  0  0  0  0  0  0  0  0  0  0  0
    0.6060   -1.3510    2.2860 H   0  0  0  0  0  0  0  0  0  0  0  0
   -0.6590   -1.2910   -1.5630 N   0  0  0  0  0  0  0  0  0  0  0  0
   -1.6760   -2.2020   -1.9840 C   0  0  1  0  0  0  0  0  0  0  0  0
   -3.0400   -1.5300   -1.7640 C   0  0  0  0  0  0  0  0  0  0  0  0
   -3.1740   -0.2840   -2.5380 C   0  0  0  0  0  0  0  0  0  0  0  0
   -2.7790    0.9400   -2.0310 C   0  0  0  0  0  0  0  0  0  0  0  0
   -2.9060    2.1190   -2.7490 C   0  0  0  0  0  0  0  0  0  0  0  0
   -3.4410    2.1160   -4.0200 C   0  0  0  0  0  0  0  0  0  0  0  0
   -3.8380    0.8840   -4.5300 C   0  0  0  0  0  0  0  0  0  0  0  0
   -3.7120   -0.2880   -3.8170 C   0  0  0  0  0  0  0  0  0  0  0  0
   -1.5430   -2.5290   -3.3920 C   0  0  0  0  0  0  0  0  0  0  0  0
   -0.6850   -2.0220   -4.1520 O   0  0  0  0  0  0  0  0  0  0  0  0
   -2.4140   -3.4650   -3.9750 O   0  0  0  0  0  0  0  0  0  0  0  0
   -0.2990   -0.5560   -2.2020 H   0  0  0  0  0  0  0  0  0  0  0  0
   -1.6940   -3.0600   -1.2780 H   0  0  0  0  0  0  0  0  0  0  0  0
   -3.1850   -1.3470   -0.6880 H   0  0  0  0  0  0  0  0  0  0  0  0
   -3.7880   -2.2530   -2.1550 H   0  0  0  0  0  0  0  0  0  0  0  0
   -2.3480    0.9870   -1.0270 H   0  0  0  0  0  0  0  0  0  0  0  0
   -2.5920    3.0710   -2.3340 H   0  0  0  0  0  0  0  0  0  0  0  0
   -3.5590    2.9930   -4.6110 H   0  0  0  0  0  0  0  0  0  0  0  0
   -4.2550    0.8770   -5.5180 H   0  0  0  0  0  0  0  0  0  0  0  0
   -4.0270   -1.2430   -4.2370 H   0  0  0  0  0  0  0  0  0  0  0  0
  1  9  1  0  0  0  0
  1  2  1  0  0  0  0
  1 10  1  0  0  0  0
  3 13  1  0  0  0  0
  3 12  1  0  0  0  0
  3  2  1  0  0  0  0
  4  3  1  0  0  0  0
  5 16  1  1  0  0  0
  5  6  1  0  0  0  0
  5  4  1  0  0  0  0
  6 18  1  0  0  0  0
  6 17  1  0  0  0  0
  7  5  1  0  0  0  0
  8  7  2  0  0  0  0
 11  1  1  0  0  0  0
 14  4  1  0  0  0  0
 15  4  1  0  0  0  0
 19 27  1  0  0  0  0
 19 28  1  0  0  0  0
 20 19  1  0  0  0  0
 20 21  1  0  0  0  0
 21 22  1  0  0  0  0
 22 32  1  0  0  0  0
 22 23  1  0  0  0  0
 22 33  1  0  0  0  0
 23 34  1  6  0  0  0
 23 24  1  0  0  0  0
 24 35  1  0  0  0  0
 24  7  1  0  0  0  0
 25 23  1  0  0  0  0
 25 26  2  0  0  0  0
 29 19  1  0  0  0  0
 30 21  1  0  0  0  0
 31 21  1  0  0  0  0
 36 25  1  0  0  0  0
 37 38  1  0  0  0  0
 37 36  1  0  0  0  0
 37 49  1  1  0  0  0
 38 50  1  0  0  0  0
 39 40  1  0  0  0  0
 39 38  1  0  0  0  0
 40 52  1  0  0  0  0
 41 53  1  0  0  0  0
 41 40  2  0  0  0  0
 42 41  1  0  0  0  0
 43 42  2  0  0  0  0
 43 44  1  0  0  0  0
 44 39  2  0  0  0  0
 45 37  1  0  0  0  0
 46 45  2  0  0  0  0
 47 45  1  0  0  0  0
 48 36  1  0  0  0  0
 51 38  1  0  0  0  0
 54 42  1  0  0  0  0
 55 43  1  0  0  0  0
 56 44  1  0  0  0  0
M  END
$$$$
