MMH.pdb
 OpenBabel07022418563D

 53 53  0  0  1  0  0  0  0  0999 V2000
   -2.8790   -0.9400    4.5240 C   0  0  0  0  0  0  0  0  0  0  0  0
   -1.9070   -2.4180    4.1990 S   0  0  0  0  0  0  0  0  0  0  0  0
   -0.7760   -2.2540    2.8560 C   0  0  0  0  0  0  0  0  0  0  0  0
    0.4210   -1.4220    2.9890 C   0  0  0  0  0  0  0  0  0  0  0  0
    0.3430    0.0120    3.2890 C   0  0  2  0  0  0  0  0  0  0  0  0
   -0.2720    0.3990    4.5150 N   0  0  0  0  0  0  0  0  0  0  0  0
   -0.1310    0.8560    2.1460 C   0  0  0  0  0  0  0  0  0  0  0  0
   -0.9770    1.7540    2.3400 O   0  0  0  0  0  0  0  0  0  0  0  0
   -2.6580   -0.4780    5.5150 H   0  0  0  0  0  0  0  0  0  0  0  0
   -3.9930   -1.1960    4.5670 H   0  0  0  0  0  0  0  0  0  0  0  0
   -2.8170   -0.2040    3.7030 H   0  0  0  0  0  0  0  0  0  0  0  0
   -1.3940   -1.9980    1.9310 H   0  0  0  0  0  0  0  0  0  0  0  0
   -0.4350   -3.3130    2.5830 H   0  0  0  0  0  0  0  0  0  0  0  0
    1.0560   -1.5910    2.0790 H   0  0  0  0  0  0  0  0  0  0  0  0
    1.0620   -1.9110    3.8030 H   0  0  0  0  0  0  0  0  0  0  0  0
    1.4330    0.3570    3.4030 H   0  0  0  0  0  0  0  0  0  0  0  0
    0.2260    0.0630    5.3430 H   0  0  0  0  0  0  0  0  0  0  0  0
   -0.5660    1.3810    4.5070 H   0  0  0  0  0  0  0  0  0  0  0  0
    4.1480    3.4980   -0.9580 C   0  0  0  0  0  0  0  0  0  0  0  0
    3.4180    2.4270   -2.2350 S   0  0  0  0  0  0  0  0  0  0  0  0
    2.2010    1.3260   -1.4590 C   0  0  0  0  0  0  0  0  0  0  0  0
    1.0690    2.1840   -0.9660 C   0  0  0  0  0  0  0  0  0  0  0  0
   -0.0270    1.4150   -0.3030 C   0  0  2  0  0  0  0  0  0  0  0  0
    0.3540    0.6650    0.8450 N   0  0  0  0  0  0  0  0  0  0  0  0
   -0.7470    0.5590   -1.2770 C   0  0  0  0  0  0  0  0  0  0  0  0
   -1.2090    1.0260   -2.3620 O   0  0  0  0  0  0  0  0  0  0  0  0
    4.5230    4.4290   -1.4330 H   0  0  0  0  0  0  0  0  0  0  0  0
    5.0310    2.9770   -0.5320 H   0  0  0  0  0  0  0  0  0  0  0  0
    3.4420    3.7390   -0.1440 H   0  0  0  0  0  0  0  0  0  0  0  0
    1.9070    0.5840   -2.1970 H   0  0  0  0  0  0  0  0  0  0  0  0
    2.7300    0.8010   -0.6390 H   0  0  0  0  0  0  0  0  0  0  0  0
    1.4760    2.9610   -0.3200 H   0  0  0  0  0  0  0  0  0  0  0  0
    0.6290    2.6840   -1.8540 H   0  0  0  0  0  0  0  0  0  0  0  0
   -0.7860    2.1780    0.0360 H   0  0  0  0  0  0  0  0  0  0  0  0
    1.0610   -0.0950    0.6970 H   0  0  0  0  0  0  0  0  0  0  0  0
   -0.9800   -0.8420   -1.0840 N   0  0  0  0  0  0  0  0  0  0  0  0
   -1.6980   -1.6080   -2.0880 C   0  0  1  0  0  0  0  0  0  0  0  0
   -0.7070   -2.6260   -2.6250 C   0  0  0  0  0  0  0  0  0  0  0  0
   -0.2790   -3.4700   -1.4820 C   0  0  0  0  0  0  0  0  0  0  0  0
    0.7620   -3.3170   -0.6020 C   0  0  0  0  0  0  0  0  0  0  0  0
    0.7150   -4.3660    0.2570 N   0  0  0  0  0  0  0  0  0  0  0  0
   -0.3180   -5.1570   -0.0650 C   0  0  0  0  0  0  0  0  0  0  0  0
   -0.9330   -4.6230   -1.1250 N   0  0  0  0  0  0  0  0  0  0  0  0
   -2.8360   -2.3580   -1.5040 C   0  0  0  0  0  0  0  0  0  0  0  0
   -3.0890   -2.2920   -0.2870 O   0  0  0  0  0  0  0  0  0  0  0  0
   -3.6290   -3.1440   -2.3170 O   0  0  0  0  0  0  0  0  0  0  0  0
   -0.6320   -1.3110   -0.2260 H   0  0  0  0  0  0  0  0  0  0  0  0
   -2.0560   -0.9370   -2.9060 H   0  0  0  0  0  0  0  0  0  0  0  0
   -1.2000   -3.2470   -3.4090 H   0  0  0  0  0  0  0  0  0  0  0  0
    0.1520   -2.1400   -3.1220 H   0  0  0  0  0  0  0  0  0  0  0  0
    1.4650   -2.5040   -0.6230 H   0  0  0  0  0  0  0  0  0  0  0  0
    1.3620   -4.5580    1.0560 H   0  0  0  0  0  0  0  0  0  0  0  0
   -0.5970   -6.0550    0.4380 H   0  0  0  0  0  0  0  0  0  0  0  0
  1 10  1  0  0  0  0
  1  9  1  0  0  0  0
  2  1  1  0  0  0  0
  3  4  1  0  0  0  0
  3  2  1  0  0  0  0
  4  5  1  0  0  0  0
  4 15  1  0  0  0  0
  5 16  1  1  0  0  0
  5  6  1  0  0  0  0
  6 17  1  0  0  0  0
  7  8  2  0  0  0  0
  7  5  1  0  0  0  0
 11  1  1  0  0  0  0
 12  3  1  0  0  0  0
 13  3  1  0  0  0  0
 14  4  1  0  0  0  0
 18  6  1  0  0  0  0
 19 28  1  0  0  0  0
 19 29  1  0  0  0  0
 20 21  1  0  0  0  0
 20 19  1  0  0  0  0
 21 22  1  0  0  0  0
 21 31  1  0  0  0  0
 22 32  1  0  0  0  0
 22 23  1  0  0  0  0
 23 34  1  1  0  0  0
 23 24  1  0  0  0  0
 24  7  1  0  0  0  0
 25 36  1  0  0  0  0
 25 23  1  0  0  0  0
 26 25  2  0  0  0  0
 27 19  1  0  0  0  0
 30 21  1  0  0  0  0
 33 22  1  0  0  0  0
 35 24  1  0  0  0  0
 36 47  1  0  0  0  0
 37 48  1  6  0  0  0
 37 44  1  0  0  0  0
 37 36  1  0  0  0  0
 38 37  1  0  0  0  0
 38 39  1  0  0  0  0
 39 43  1  0  0  0  0
 39 40  2  0  0  0  0
 40 41  1  0  0  0  0
 41 52  1  0  0  0  0
 42 41  1  0  0  0  0
 42 53  1  0  0  0  0
 43 42  2  0  0  0  0
 44 45  1  0  0  0  0
 46 44  2  0  0  0  0
 49 38  1  0  0  0  0
 50 38  1  0  0  0  0
 51 40  1  0  0  0  0
M  END
$$$$
