MMK.pdb
 OpenBabel07022418563D

 57 56  0  0  1  0  0  0  0  0999 V2000
    3.3010   -3.1230    3.0390 C   0  0  0  0  0  0  0  0  0  0  0  0
    4.0030   -3.9980    1.6510 S   0  0  0  0  0  0  0  0  0  0  0  0
    3.4720   -3.4570    0.0440 C   0  0  0  0  0  0  0  0  0  0  0  0
    3.9600   -2.1830   -0.4910 C   0  0  0  0  0  0  0  0  0  0  0  0
    3.7110   -0.9100    0.1990 C   0  0  2  0  0  0  0  0  0  0  0  0
    4.2710   -0.8260    1.5050 N   0  0  0  0  0  0  0  0  0  0  0  0
    2.2690   -0.5200    0.2390 C   0  0  0  0  0  0  0  0  0  0  0  0
    1.6240   -0.5500   -0.8240 O   0  0  0  0  0  0  0  0  0  0  0  0
    2.8070   -3.8370    3.7740 H   0  0  0  0  0  0  0  0  0  0  0  0
    4.0110   -2.4980    3.6150 H   0  0  0  0  0  0  0  0  0  0  0  0
    2.4700   -2.4730    2.7020 H   0  0  0  0  0  0  0  0  0  0  0  0
    3.6910   -4.2670   -0.7370 H   0  0  0  0  0  0  0  0  0  0  0  0
    2.3430   -3.4460    0.0520 H   0  0  0  0  0  0  0  0  0  0  0  0
    5.1010   -2.2800   -0.5510 H   0  0  0  0  0  0  0  0  0  0  0  0
    3.6320   -2.1200   -1.5800 H   0  0  0  0  0  0  0  0  0  0  0  0
    4.2600   -0.1160   -0.4190 H   0  0  0  0  0  0  0  0  0  0  0  0
    4.2740    0.1230    1.9050 H   0  0  0  0  0  0  0  0  0  0  0  0
    5.1580   -1.3460    1.6320 H   0  0  0  0  0  0  0  0  0  0  0  0
   -1.2340    3.2140    4.0010 C   0  0  0  0  0  0  0  0  0  0  0  0
    0.4450    2.7590    3.5510 S   0  0  0  0  0  0  0  0  0  0  0  0
    0.7250    2.7110    1.7820 C   0  0  0  0  0  0  0  0  0  0  0  0
   -0.0600    1.6110    1.0980 C   0  0  0  0  0  0  0  0  0  0  0  0
    0.2730    0.2570    1.5930 C   0  0  2  0  0  0  0  0  0  0  0  0
    1.6350   -0.1270    1.4330 N   0  0  0  0  0  0  0  0  0  0  0  0
   -0.6860   -0.7380    0.9960 C   0  0  0  0  0  0  0  0  0  0  0  0
   -0.2040   -1.7410    0.4620 O   0  0  0  0  0  0  0  0  0  0  0  0
   -1.5540    2.5430    4.8410 H   0  0  0  0  0  0  0  0  0  0  0  0
   -1.9320    3.1020    3.1370 H   0  0  0  0  0  0  0  0  0  0  0  0
   -1.3130    4.2720    4.3330 H   0  0  0  0  0  0  0  0  0  0  0  0
    0.3440    3.6780    1.3520 H   0  0  0  0  0  0  0  0  0  0  0  0
    1.7950    2.6750    1.5640 H   0  0  0  0  0  0  0  0  0  0  0  0
    0.1400    1.6560    0.0040 H   0  0  0  0  0  0  0  0  0  0  0  0
   -1.1370    1.8220    1.2180 H   0  0  0  0  0  0  0  0  0  0  0  0
    0.0150    0.2020    2.6950 H   0  0  0  0  0  0  0  0  0  0  0  0
    2.2720   -0.1240    2.2950 H   0  0  0  0  0  0  0  0  0  0  0  0
   -2.0480   -0.5150    1.0580 N   0  0  0  0  0  0  0  0  0  0  0  0
   -3.0340   -1.3920    0.5050 C   0  0  1  0  0  0  0  0  0  0  0  0
   -2.5650   -2.2130   -0.6850 C   0  0  0  0  0  0  0  0  0  0  0  0
   -2.1470   -1.4140   -1.8680 C   0  0  0  0  0  0  0  0  0  0  0  0
   -3.3130   -0.5630   -2.4040 C   0  0  0  0  0  0  0  0  0  0  0  0
   -2.7620    0.1960   -3.6140 C   0  0  0  0  0  0  0  0  0  0  0  0
   -2.3220   -0.8020   -4.5710 N   0  0  0  0  0  0  0  0  0  0  0  0
   -3.5330   -2.2990    1.5500 C   0  0  0  0  0  0  0  0  0  0  0  0
   -3.0920   -2.2360    2.7360 O   0  0  0  0  0  0  0  0  0  0  0  0
   -4.5050   -3.2730    1.3140 O   0  0  0  0  0  0  0  0  0  0  0  0
   -2.4230    0.3500    1.5450 H   0  0  0  0  0  0  0  0  0  0  0  0
   -3.9300   -0.7710    0.1280 H   0  0  0  0  0  0  0  0  0  0  0  0
   -3.5070   -2.7840   -0.9930 H   0  0  0  0  0  0  0  0  0  0  0  0
   -1.8680   -3.0220   -0.4090 H   0  0  0  0  0  0  0  0  0  0  0  0
   -1.9580   -2.1460   -2.7100 H   0  0  0  0  0  0  0  0  0  0  0  0
   -1.2770   -0.7570   -1.7170 H   0  0  0  0  0  0  0  0  0  0  0  0
   -3.6940    0.1240   -1.6440 H   0  0  0  0  0  0  0  0  0  0  0  0
   -4.0850   -1.2560   -2.7870 H   0  0  0  0  0  0  0  0  0  0  0  0
   -3.5200    0.8830   -4.0220 H   0  0  0  0  0  0  0  0  0  0  0  0
   -1.8380    0.7350   -3.2620 H   0  0  0  0  0  0  0  0  0  0  0  0
   -2.9370   -1.6210   -4.6360 H   0  0  0  0  0  0  0  0  0  0  0  0
   -1.3130   -1.0180   -4.5100 H   0  0  0  0  0  0  0  0  0  0  0  0
  1 10  1  0  0  0  0
  1  9  1  0  0  0  0
  2  1  1  0  0  0  0
  3 13  1  0  0  0  0
  3  2  1  0  0  0  0
  4  3  1  0  0  0  0
  4  5  1  0  0  0  0
  5 16  1  6  0  0  0
  5  7  1  0  0  0  0
  5  6  1  0  0  0  0
  6 18  1  0  0  0  0
  6 17  1  0  0  0  0
  7 24  1  0  0  0  0
  8  7  2  0  0  0  0
 11  1  1  0  0  0  0
 12  3  1  0  0  0  0
 14  4  1  0  0  0  0
 15  4  1  0  0  0  0
 19 29  1  0  0  0  0
 19 27  1  0  0  0  0
 20 19  1  0  0  0  0
 21 20  1  0  0  0  0
 22 33  1  0  0  0  0
 22 23  1  0  0  0  0
 22 21  1  0  0  0  0
 23 34  1  1  0  0  0
 24 23  1  0  0  0  0
 24 35  1  0  0  0  0
 25 36  1  0  0  0  0
 25 23  1  0  0  0  0
 26 25  2  0  0  0  0
 28 19  1  0  0  0  0
 30 21  1  0  0  0  0
 31 21  1  0  0  0  0
 32 22  1  0  0  0  0
 36 46  1  0  0  0  0
 37 47  1  6  0  0  0
 37 36  1  0  0  0  0
 37 43  1  0  0  0  0
 38 49  1  0  0  0  0
 38 37  1  0  0  0  0
 39 51  1  0  0  0  0
 39 38  1  0  0  0  0
 40 39  1  0  0  0  0
 40 52  1  0  0  0  0
 41 55  1  0  0  0  0
 41 40  1  0  0  0  0
 42 57  1  0  0  0  0
 42 41  1  0  0  0  0
 43 44  1  0  0  0  0
 45 43  2  0  0  0  0
 48 38  1  0  0  0  0
 50 39  1  0  0  0  0
 53 40  1  0  0  0  0
 54 41  1  0  0  0  0
 56 42  1  0  0  0  0
M  END
$$$$
