MMM.pdb
 OpenBabel07022418563D

 53 52  0  0  1  0  0  0  0  0999 V2000
   -0.3070   -1.9580    4.4850 C   0  0  0  0  0  0  0  0  0  0  0  0
    0.1160   -0.3500    5.1800 S   0  0  0  0  0  0  0  0  0  0  0  0
    0.8550    0.7520    3.9640 C   0  0  0  0  0  0  0  0  0  0  0  0
    2.2040    0.2600    3.4930 C   0  0  0  0  0  0  0  0  0  0  0  0
    2.7480    1.2470    2.4730 C   0  0  2  0  0  0  0  0  0  0  0  0
    2.8930    2.5580    3.0730 N   0  0  0  0  0  0  0  0  0  0  0  0
    1.8770    1.3080    1.2770 C   0  0  0  0  0  0  0  0  0  0  0  0
    1.3660    2.4090    0.8790 O   0  0  0  0  0  0  0  0  0  0  0  0
    0.5750   -2.4940    4.0820 H   0  0  0  0  0  0  0  0  0  0  0  0
   -1.0990   -1.8170    3.7250 H   0  0  0  0  0  0  0  0  0  0  0  0
   -0.7440   -2.5900    5.2830 H   0  0  0  0  0  0  0  0  0  0  0  0
    0.1730    0.7890    3.0840 H   0  0  0  0  0  0  0  0  0  0  0  0
    0.9700    1.7630    4.3740 H   0  0  0  0  0  0  0  0  0  0  0  0
    2.9260    0.2090    4.3290 H   0  0  0  0  0  0  0  0  0  0  0  0
    2.1010   -0.7290    3.0490 H   0  0  0  0  0  0  0  0  0  0  0  0
    3.7300    0.8460    2.1550 H   0  0  0  0  0  0  0  0  0  0  0  0
    2.9110    2.4650    4.1240 H   0  0  0  0  0  0  0  0  0  0  0  0
    3.7680    3.0500    2.7740 H   0  0  0  0  0  0  0  0  0  0  0  0
    4.5640   -1.1640   -0.4800 C   0  0  0  0  0  0  0  0  0  0  0  0
    3.8870    0.4640   -0.8040 S   0  0  0  0  0  0  0  0  0  0  0  0
    2.7080    0.4940   -2.1450 C   0  0  0  0  0  0  0  0  0  0  0  0
    1.4500   -0.2660   -1.8550 C   0  0  0  0  0  0  0  0  0  0  0  0
    0.6980    0.2610   -0.6580 C   0  0  2  0  0  0  0  0  0  0  0  0
    1.5490    0.1680    0.4960 N   0  0  0  0  0  0  0  0  0  0  0  0
   -0.5170   -0.5900   -0.4840 C   0  0  0  0  0  0  0  0  0  0  0  0
   -0.6370   -1.2460    0.5800 O   0  0  0  0  0  0  0  0  0  0  0  0
    5.5580   -1.2350   -0.9900 H   0  0  0  0  0  0  0  0  0  0  0  0
    4.7800   -1.2850    0.6120 H   0  0  0  0  0  0  0  0  0  0  0  0
    3.9510   -1.9900   -0.8800 H   0  0  0  0  0  0  0  0  0  0  0  0
    3.2080    0.1670   -3.0700 H   0  0  0  0  0  0  0  0  0  0  0  0
    2.4120    1.5660   -2.3060 H   0  0  0  0  0  0  0  0  0  0  0  0
    0.7740   -0.2970   -2.7330 H   0  0  0  0  0  0  0  0  0  0  0  0
    1.7060   -1.3230   -1.6290 H   0  0  0  0  0  0  0  0  0  0  0  0
    0.3910    1.3290   -0.8440 H   0  0  0  0  0  0  0  0  0  0  0  0
    1.9320   -0.7740    0.7590 H   0  0  0  0  0  0  0  0  0  0  0  0
   -4.2620   -3.3630    1.0080 C   0  0  0  0  0  0  0  0  0  0  0  0
   -5.4120   -2.0980    0.5100 S   0  0  0  0  0  0  0  0  0  0  0  0
   -5.2030   -1.4720   -1.1530 C   0  0  0  0  0  0  0  0  0  0  0  0
   -3.9470   -0.7090   -1.4050 C   0  0  0  0  0  0  0  0  0  0  0  0
   -2.7260   -1.5520   -1.2400 C   0  0  2  0  0  0  0  0  0  0  0  0
   -1.5210   -0.6840   -1.4560 N   0  0  0  0  0  0  0  0  0  0  0  0
   -2.6110   -2.6060   -2.2740 C   0  0  0  0  0  0  0  0  0  0  0  0
   -1.6400   -2.5960   -3.0660 O   0  0  0  0  0  0  0  0  0  0  0  0
   -3.5290   -3.6090   -2.4110 O   0  0  0  0  0  0  0  0  0  0  0  0
   -3.8310   -3.9760    0.2020 H   0  0  0  0  0  0  0  0  0  0  0  0
   -4.8370   -4.0970    1.6650 H   0  0  0  0  0  0  0  0  0  0  0  0
   -3.4690   -2.9550    1.7070 H   0  0  0  0  0  0  0  0  0  0  0  0
   -6.0970   -0.8170   -1.4310 H   0  0  0  0  0  0  0  0  0  0  0  0
   -5.2770   -2.3070   -1.9040 H   0  0  0  0  0  0  0  0  0  0  0  0
   -3.9720   -0.2620   -2.4330 H   0  0  0  0  0  0  0  0  0  0  0  0
   -3.8620    0.1910   -0.7270 H   0  0  0  0  0  0  0  0  0  0  0  0
   -2.5850   -2.0060   -0.2610 H   0  0  0  0  0  0  0  0  0  0  0  0
   -1.4300   -0.1450   -2.3400 H   0  0  0  0  0  0  0  0  0  0  0  0
  1  2  1  0  0  0  0
  1 11  1  0  0  0  0
  3 13  1  0  0  0  0
  3  2  1  0  0  0  0
  4  3  1  0  0  0  0
  4 14  1  0  0  0  0
  5 16  1  6  0  0  0
  5  6  1  0  0  0  0
  5  4  1  0  0  0  0
  6 17  1  0  0  0  0
  7  5  1  0  0  0  0
  8  7  2  0  0  0  0
  9  1  1  0  0  0  0
 10  1  1  0  0  0  0
 12  3  1  0  0  0  0
 15  4  1  0  0  0  0
 18  6  1  0  0  0  0
 19 28  1  0  0  0  0
 20 19  1  0  0  0  0
 21 22  1  0  0  0  0
 21 20  1  0  0  0  0
 22 33  1  0  0  0  0
 22 23  1  0  0  0  0
 23 34  1  6  0  0  0
 23 25  1  0  0  0  0
 23 24  1  0  0  0  0
 24 35  1  0  0  0  0
 24  7  1  0  0  0  0
 25 26  2  0  0  0  0
 27 19  1  0  0  0  0
 29 19  1  0  0  0  0
 30 21  1  0  0  0  0
 31 21  1  0  0  0  0
 32 22  1  0  0  0  0
 36 46  1  0  0  0  0
 36 47  1  0  0  0  0
 37 36  1  0  0  0  0
 38 37  1  0  0  0  0
 39 40  1  0  0  0  0
 39 38  1  0  0  0  0
 39 51  1  0  0  0  0
 40 52  1  1  0  0  0
 41 40  1  0  0  0  0
 41 25  1  0  0  0  0
 42 40  1  0  0  0  0
 43 42  2  0  0  0  0
 44 42  1  0  0  0  0
 45 36  1  0  0  0  0
 48 38  1  0  0  0  0
 49 38  1  0  0  0  0
 50 39  1  0  0  0  0
 53 41  1  0  0  0  0
M  END
$$$$
