MMN.pdb
 OpenBabel07022418563D

 50 49  0  0  1  0  0  0  0  0999 V2000
    0.1960   -2.8740    4.1990 C   0  0  0  0  0  0  0  0  0  0  0  0
    0.3040   -1.4860    5.3780 S   0  0  0  0  0  0  0  0  0  0  0  0
    0.7730    0.0140    4.4760 C   0  0  0  0  0  0  0  0  0  0  0  0
    2.1630   -0.1470    3.9470 C   0  0  0  0  0  0  0  0  0  0  0  0
    2.6480    1.0490    3.1770 C   0  0  2  0  0  0  0  0  0  0  0  0
    2.6790    2.2560    3.9420 N   0  0  0  0  0  0  0  0  0  0  0  0
    1.7650    1.2650    1.9940 C   0  0  0  0  0  0  0  0  0  0  0  0
    1.1850    2.3820    1.7820 O   0  0  0  0  0  0  0  0  0  0  0  0
   -0.6640   -2.7550    3.5340 H   0  0  0  0  0  0  0  0  0  0  0  0
    1.1420   -2.8900    3.5980 H   0  0  0  0  0  0  0  0  0  0  0  0
    0.1400   -3.8410    4.7120 H   0  0  0  0  0  0  0  0  0  0  0  0
    0.6360    0.8720    5.1460 H   0  0  0  0  0  0  0  0  0  0  0  0
    0.0600    0.1130    3.6300 H   0  0  0  0  0  0  0  0  0  0  0  0
    2.1750   -1.0280    3.2770 H   0  0  0  0  0  0  0  0  0  0  0  0
    2.8630   -0.3060    4.8150 H   0  0  0  0  0  0  0  0  0  0  0  0
    3.7000    0.8050    2.8460 H   0  0  0  0  0  0  0  0  0  0  0  0
    2.6030    2.0810    4.9750 H   0  0  0  0  0  0  0  0  0  0  0  0
    3.5490    2.8060    3.7950 H   0  0  0  0  0  0  0  0  0  0  0  0
    3.7430   -1.4030   -3.2570 C   0  0  0  0  0  0  0  0  0  0  0  0
    3.1900    0.3190   -3.3250 S   0  0  0  0  0  0  0  0  0  0  0  0
    2.5580    0.8840   -1.7180 C   0  0  0  0  0  0  0  0  0  0  0  0
    1.3070    0.0950   -1.4330 C   0  0  0  0  0  0  0  0  0  0  0  0
    0.6570    0.4560   -0.1160 C   0  0  2  0  0  0  0  0  0  0  0  0
    1.5120    0.2390    1.0260 N   0  0  0  0  0  0  0  0  0  0  0  0
   -0.5360   -0.4460    0.0040 C   0  0  0  0  0  0  0  0  0  0  0  0
   -0.5930   -1.1950    1.0160 O   0  0  0  0  0  0  0  0  0  0  0  0
    4.4360   -1.6060   -4.1000 H   0  0  0  0  0  0  0  0  0  0  0  0
    2.8790   -2.1220   -3.2540 H   0  0  0  0  0  0  0  0  0  0  0  0
    4.3470   -1.5190   -2.3260 H   0  0  0  0  0  0  0  0  0  0  0  0
    3.2970    0.8370   -0.9240 H   0  0  0  0  0  0  0  0  0  0  0  0
    2.2570    1.9430   -1.8560 H   0  0  0  0  0  0  0  0  0  0  0  0
    0.5530    0.2040   -2.2130 H   0  0  0  0  0  0  0  0  0  0  0  0
    1.5430   -1.0020   -1.3600 H   0  0  0  0  0  0  0  0  0  0  0  0
    0.2650    1.5160   -0.1290 H   0  0  0  0  0  0  0  0  0  0  0  0
    1.9850   -0.6720    1.1980 H   0  0  0  0  0  0  0  0  0  0  0  0
   -5.4200   -1.9550    0.7670 N   0  0  0  0  0  0  0  0  0  0  0  0
   -5.0870   -1.5600   -0.5380 C   0  0  0  0  0  0  0  0  0  0  0  0
   -5.7310   -2.0070   -1.5060 O   0  0  0  0  0  0  0  0  0  0  0  0
   -3.9820   -0.6230   -0.7530 C   0  0  0  0  0  0  0  0  0  0  0  0
   -2.6800   -1.3770   -0.7660 C   0  0  2  0  0  0  0  0  0  0  0  0
   -1.5570   -0.4580   -0.9770 N   0  0  0  0  0  0  0  0  0  0  0  0
   -2.6800   -2.3010   -1.9260 C   0  0  0  0  0  0  0  0  0  0  0  0
   -1.8650   -2.1970   -2.8860 O   0  0  0  0  0  0  0  0  0  0  0  0
   -3.5890   -3.3360   -2.0010 O   0  0  0  0  0  0  0  0  0  0  0  0
   -6.3800   -1.8670    1.1190 H   0  0  0  0  0  0  0  0  0  0  0  0
   -4.6840   -2.3410    1.3820 H   0  0  0  0  0  0  0  0  0  0  0  0
   -4.0810   -0.0980   -1.7260 H   0  0  0  0  0  0  0  0  0  0  0  0
   -4.0100    0.1630    0.0310 H   0  0  0  0  0  0  0  0  0  0  0  0
   -2.4970   -1.9090    0.1800 H   0  0  0  0  0  0  0  0  0  0  0  0
   -1.4990    0.1610   -1.8030 H   0  0  0  0  0  0  0  0  0  0  0  0
  1 11  1  0  0  0  0
  1  2  1  0  0  0  0
  3 12  1  0  0  0  0
  3  2  1  0  0  0  0
  4  3  1  0  0  0  0
  4 15  1  0  0  0  0
  5 16  1  6  0  0  0
  5  6  1  0  0  0  0
  5  4  1  0  0  0  0
  6 17  1  0  0  0  0
  7  5  1  0  0  0  0
  8  7  2  0  0  0  0
  9  1  1  0  0  0  0
 10  1  1  0  0  0  0
 13  3  1  0  0  0  0
 14  4  1  0  0  0  0
 18  6  1  0  0  0  0
 19 28  1  0  0  0  0
 19 29  1  0  0  0  0
 20 19  1  0  0  0  0
 20 21  1  0  0  0  0
 21 22  1  0  0  0  0
 21 30  1  0  0  0  0
 22 33  1  0  0  0  0
 22 23  1  0  0  0  0
 23 34  1  6  0  0  0
 23 25  1  0  0  0  0
 23 24  1  0  0  0  0
 24 35  1  0  0  0  0
 24  7  1  0  0  0  0
 25 26  2  0  0  0  0
 27 19  1  0  0  0  0
 31 21  1  0  0  0  0
 32 22  1  0  0  0  0
 36 45  1  0  0  0  0
 36 46  1  0  0  0  0
 37 36  1  0  0  0  0
 38 37  2  0  0  0  0
 39 37  1  0  0  0  0
 39 48  1  0  0  0  0
 40 39  1  0  0  0  0
 40 49  1  1  0  0  0
 41 40  1  0  0  0  0
 41 25  1  0  0  0  0
 42 40  1  0  0  0  0
 43 42  2  0  0  0  0
 44 42  1  0  0  0  0
 47 39  1  0  0  0  0
 50 41  1  0  0  0  0
M  END
$$$$
