MMP.pdb
 OpenBabel07022418563D

 50 50  0  0  1  0  0  0  0  0999 V2000
   -2.3150   -5.3250    1.9330 C   0  0  0  0  0  0  0  0  0  0  0  0
   -1.8600   -3.6410    1.4270 S   0  0  0  0  0  0  0  0  0  0  0  0
   -0.9850   -2.7660    2.7260 C   0  0  0  0  0  0  0  0  0  0  0  0
    0.3390   -3.4060    2.9760 C   0  0  0  0  0  0  0  0  0  0  0  0
    1.2000   -3.3900    1.7000 C   0  0  2  0  0  0  0  0  0  0  0  0
    2.4540   -4.0520    2.1470 N   0  0  0  0  0  0  0  0  0  0  0  0
    1.5800   -1.9800    1.4410 C   0  0  0  0  0  0  0  0  0  0  0  0
    2.6080   -1.4700    1.9830 O   0  0  0  0  0  0  0  0  0  0  0  0
   -1.4440   -5.8020    2.4460 H   0  0  0  0  0  0  0  0  0  0  0  0
   -3.1630   -5.2630    2.6330 H   0  0  0  0  0  0  0  0  0  0  0  0
   -2.6430   -5.9140    1.0570 H   0  0  0  0  0  0  0  0  0  0  0  0
   -1.5610   -2.8070    3.6940 H   0  0  0  0  0  0  0  0  0  0  0  0
   -0.7920   -1.7190    2.4350 H   0  0  0  0  0  0  0  0  0  0  0  0
    0.8490   -2.8490    3.7870 H   0  0  0  0  0  0  0  0  0  0  0  0
    0.2440   -4.4590    3.3610 H   0  0  0  0  0  0  0  0  0  0  0  0
    0.7280   -3.9070    0.8730 H   0  0  0  0  0  0  0  0  0  0  0  0
    3.2530   -3.7530    1.5560 H   0  0  0  0  0  0  0  0  0  0  0  0
    2.6690   -3.7670    3.1260 H   0  0  0  0  0  0  0  0  0  0  0  0
    4.9990    0.8370   -2.6170 C   0  0  0  0  0  0  0  0  0  0  0  0
    3.4890    1.8220   -2.7380 S   0  0  0  0  0  0  0  0  0  0  0  0
    2.5440    1.7320   -1.1490 C   0  0  0  0  0  0  0  0  0  0  0  0
    2.0530    0.3520   -0.9330 C   0  0  0  0  0  0  0  0  0  0  0  0
    1.2960    0.2300    0.4000 C   0  0  2  0  0  0  0  0  0  0  0  0
    0.8430   -1.0960    0.5760 N   0  0  0  0  0  0  0  0  0  0  0  0
    0.2410    1.2380    0.4340 C   0  0  0  0  0  0  0  0  0  0  0  0
    0.6290    2.4860    0.6640 O   0  0  0  0  0  0  0  0  0  0  0  0
    5.8840    1.4660   -2.3580 H   0  0  0  0  0  0  0  0  0  0  0  0
    5.1680    0.3670   -3.6180 H   0  0  0  0  0  0  0  0  0  0  0  0
    4.9290    0.0130   -1.8900 H   0  0  0  0  0  0  0  0  0  0  0  0
    1.7450    2.5030   -1.2540 H   0  0  0  0  0  0  0  0  0  0  0  0
    3.2470    2.1070   -0.3810 H   0  0  0  0  0  0  0  0  0  0  0  0
    2.9250   -0.3210   -0.8690 H   0  0  0  0  0  0  0  0  0  0  0  0
    1.3330    0.0970   -1.7160 H   0  0  0  0  0  0  0  0  0  0  0  0
    2.0380    0.4680    1.2260 H   0  0  0  0  0  0  0  0  0  0  0  0
    0.0250   -1.4730    0.1120 H   0  0  0  0  0  0  0  0  0  0  0  0
   -1.1440    1.1360    0.2610 N   0  0  0  0  0  0  0  0  0  0  0  0
   -1.9690    0.0130   -0.0330 C   0  0  0  0  0  0  0  0  0  0  0  0
   -3.4040    0.5410   -0.1900 C   0  0  0  0  0  0  0  0  0  0  0  0
   -3.1790    1.9740   -0.5630 C   0  0  0  0  0  0  0  0  0  0  0  0
   -2.0300    2.3220    0.3630 C   0  0  1  0  0  0  0  0  0  0  0  0
   -2.5060    2.5010    1.7350 C   0  0  0  0  0  0  0  0  0  0  0  0
   -3.2690    3.4460    2.0430 O   0  0  0  0  0  0  0  0  0  0  0  0
   -2.1230    1.6220    2.7340 O   0  0  0  0  0  0  0  0  0  0  0  0
   -1.7150   -0.4630   -1.0210 H   0  0  0  0  0  0  0  0  0  0  0  0
   -2.0670   -0.7400    0.7720 H   0  0  0  0  0  0  0  0  0  0  0  0
   -3.9220   -0.0370   -0.9780 H   0  0  0  0  0  0  0  0  0  0  0  0
   -3.9710    0.4480    0.7650 H   0  0  0  0  0  0  0  0  0  0  0  0
   -2.8880    2.0210   -1.6260 H   0  0  0  0  0  0  0  0  0  0  0  0
   -4.0770    2.5570   -0.3530 H   0  0  0  0  0  0  0  0  0  0  0  0
   -1.5440    3.2260   -0.0340 H   0  0  0  0  0  0  0  0  0  0  0  0
  1  9  1  0  0  0  0
  1 10  1  0  0  0  0
  2  1  1  0  0  0  0
  2  3  1  0  0  0  0
  3  4  1  0  0  0  0
  3 12  1  0  0  0  0
  4 15  1  0  0  0  0
  4 14  1  0  0  0  0
  5 16  1  6  0  0  0
  5  6  1  0  0  0  0
  5  4  1  0  0  0  0
  6 18  1  0  0  0  0
  7  5  1  0  0  0  0
  7  8  2  0  0  0  0
 11  1  1  0  0  0  0
 13  3  1  0  0  0  0
 17  6  1  0  0  0  0
 19 27  1  0  0  0  0
 19 29  1  0  0  0  0
 20 19  1  0  0  0  0
 20 21  1  0  0  0  0
 21 22  1  0  0  0  0
 21 31  1  0  0  0  0
 22 32  1  0  0  0  0
 22 23  1  0  0  0  0
 23 25  1  0  0  0  0
 23 24  1  0  0  0  0
 23 34  1  1  0  0  0
 24  7  1  0  0  0  0
 25 26  2  0  0  0  0
 28 19  1  0  0  0  0
 30 21  1  0  0  0  0
 33 22  1  0  0  0  0
 35 24  1  0  0  0  0
 36 40  1  0  0  0  0
 36 25  1  0  0  0  0
 37 36  1  0  0  0  0
 37 45  1  0  0  0  0
 38 37  1  0  0  0  0
 38 47  1  0  0  0  0
 39 49  1  0  0  0  0
 39 38  1  0  0  0  0
 39 40  1  0  0  0  0
 40 50  1  6  0  0  0
 40 41  1  0  0  0  0
 41 42  2  0  0  0  0
 41 43  1  0  0  0  0
 44 37  1  0  0  0  0
 46 38  1  0  0  0  0
 48 39  1  0  0  0  0
M  END
$$$$
