MMR.pdb
 OpenBabel07022418563D

 59 58  0  0  1  0  0  0  0  0999 V2000
   -0.0760   -0.1270    6.3220 C   0  0  0  0  0  0  0  0  0  0  0  0
    0.4340   -1.6990    5.6520 S   0  0  0  0  0  0  0  0  0  0  0  0
    0.8050   -1.7670    3.9350 C   0  0  0  0  0  0  0  0  0  0  0  0
    2.0360   -1.1660    3.4030 C   0  0  0  0  0  0  0  0  0  0  0  0
    2.2720    0.2960    3.5550 C   0  0  2  0  0  0  0  0  0  0  0  0
    2.3440    0.7650    4.9110 N   0  0  0  0  0  0  0  0  0  0  0  0
    1.2370    1.0310    2.7780 C   0  0  0  0  0  0  0  0  0  0  0  0
    0.5370    1.9330    3.3330 O   0  0  0  0  0  0  0  0  0  0  0  0
   -0.2870    0.6620    5.5820 H   0  0  0  0  0  0  0  0  0  0  0  0
   -1.0190   -0.2600    6.9460 H   0  0  0  0  0  0  0  0  0  0  0  0
    0.7190    0.2480    7.0190 H   0  0  0  0  0  0  0  0  0  0  0  0
    0.7570   -2.8430    3.5380 H   0  0  0  0  0  0  0  0  0  0  0  0
   -0.0680   -1.2820    3.3720 H   0  0  0  0  0  0  0  0  0  0  0  0
    2.1350   -1.3860    2.2910 H   0  0  0  0  0  0  0  0  0  0  0  0
    2.9430   -1.7470    3.8040 H   0  0  0  0  0  0  0  0  0  0  0  0
    3.2720    0.5270    3.0920 H   0  0  0  0  0  0  0  0  0  0  0  0
    3.0030    0.1060    5.4180 H   0  0  0  0  0  0  0  0  0  0  0  0
    2.6210    1.7470    4.9830 H   0  0  0  0  0  0  0  0  0  0  0  0
    3.3240    0.3310   -1.0840 C   0  0  0  0  0  0  0  0  0  0  0  0
    2.9200    2.0320   -1.3460 S   0  0  0  0  0  0  0  0  0  0  0  0
    1.2280    2.5040   -1.4100 C   0  0  0  0  0  0  0  0  0  0  0  0
    0.3700    2.5490   -0.2490 C   0  0  0  0  0  0  0  0  0  0  0  0
   -0.0140    1.4680    0.6350 C   0  0  2  0  0  0  0  0  0  0  0  0
    0.9870    0.7590    1.3850 N   0  0  0  0  0  0  0  0  0  0  0  0
   -1.0360    0.5280    0.0770 C   0  0  0  0  0  0  0  0  0  0  0  0
   -2.0110    0.9190   -0.6040 O   0  0  0  0  0  0  0  0  0  0  0  0
    2.4180   -0.3320   -1.1900 H   0  0  0  0  0  0  0  0  0  0  0  0
    3.6950    0.1820   -0.0490 H   0  0  0  0  0  0  0  0  0  0  0  0
    4.0500   -0.0770   -1.8310 H   0  0  0  0  0  0  0  0  0  0  0  0
    0.7590    1.9880   -2.3090 H   0  0  0  0  0  0  0  0  0  0  0  0
    1.2350    3.5870   -1.8160 H   0  0  0  0  0  0  0  0  0  0  0  0
   -0.5930    3.0850   -0.5570 H   0  0  0  0  0  0  0  0  0  0  0  0
    0.8210    3.3650    0.4420 H   0  0  0  0  0  0  0  0  0  0  0  0
   -0.6220    2.0030    1.4620 H   0  0  0  0  0  0  0  0  0  0  0  0
    1.5770    0.0030    1.0030 H   0  0  0  0  0  0  0  0  0  0  0  0
   -3.3770   -4.5050   -4.7590 N   0  0  0  0  0  0  0  0  0  0  0  0
   -2.3050   -3.5650   -4.5870 C   0  0  0  0  0  0  0  0  0  0  0  0
   -1.1940   -3.7040   -5.2250 N   0  0  0  0  0  0  0  0  0  0  0  0
   -2.5260   -2.4860   -3.6900 N   0  0  0  0  0  0  0  0  0  0  0  0
   -1.4590   -1.6830   -3.1790 C   0  0  0  0  0  0  0  0  0  0  0  0
   -0.5350   -2.4000   -2.2380 C   0  0  0  0  0  0  0  0  0  0  0  0
   -1.2520   -2.9240   -1.0270 C   0  0  0  0  0  0  0  0  0  0  0  0
   -1.8980   -1.8430   -0.2090 C   0  0  2  0  0  0  0  0  0  0  0  0
   -0.9450   -0.8680    0.2990 N   0  0  0  0  0  0  0  0  0  0  0  0
   -2.6870   -2.3920    0.9130 C   0  0  0  0  0  0  0  0  0  0  0  0
   -3.5600   -3.2470    0.6930 O   0  0  0  0  0  0  0  0  0  0  0  0
   -2.4600   -1.9610    2.1970 O   0  0  0  0  0  0  0  0  0  0  0  0
   -4.2540   -4.2210   -5.2460 H   0  0  0  0  0  0  0  0  0  0  0  0
   -3.2720   -5.4670   -4.3970 H   0  0  0  0  0  0  0  0  0  0  0  0
   -0.4460   -2.9990   -5.0690 H   0  0  0  0  0  0  0  0  0  0  0  0
   -3.5130   -2.2920   -3.4080 H   0  0  0  0  0  0  0  0  0  0  0  0
   -0.8130   -1.3070   -4.0250 H   0  0  0  0  0  0  0  0  0  0  0  0
   -1.8770   -0.7790   -2.7240 H   0  0  0  0  0  0  0  0  0  0  0  0
    0.0030   -3.2210   -2.7320 H   0  0  0  0  0  0  0  0  0  0  0  0
    0.2280   -1.6690   -1.8930 H   0  0  0  0  0  0  0  0  0  0  0  0
   -2.1060   -3.5480   -1.4230 H   0  0  0  0  0  0  0  0  0  0  0  0
   -0.6220   -3.6010   -0.4450 H   0  0  0  0  0  0  0  0  0  0  0  0
   -2.6390   -1.2920   -0.8560 H   0  0  0  0  0  0  0  0  0  0  0  0
   -0.1460   -1.2870    0.8690 H   0  0  0  0  0  0  0  0  0  0  0  0
  1 10  1  0  0  0  0
  1 11  1  0  0  0  0
  2  1  1  0  0  0  0
  3  2  1  0  0  0  0
  4  5  1  0  0  0  0
  4 15  1  0  0  0  0
  4  3  1  0  0  0  0
  5 16  1  6  0  0  0
  5  6  1  0  0  0  0
  6 18  1  0  0  0  0
  6 17  1  0  0  0  0
  7  8  2  0  0  0  0
  7  5  1  0  0  0  0
  9  1  1  0  0  0  0
 12  3  1  0  0  0  0
 13  3  1  0  0  0  0
 14  4  1  0  0  0  0
 19 28  1  0  0  0  0
 20 19  1  0  0  0  0
 21 20  1  0  0  0  0
 21 22  1  0  0  0  0
 22 33  1  0  0  0  0
 22 23  1  0  0  0  0
 23 24  1  0  0  0  0
 23 34  1  1  0  0  0
 24  7  1  0  0  0  0
 25 44  1  0  0  0  0
 25 23  1  0  0  0  0
 26 25  2  0  0  0  0
 27 19  1  0  0  0  0
 29 19  1  0  0  0  0
 30 21  1  0  0  0  0
 31 21  1  0  0  0  0
 32 22  1  0  0  0  0
 35 24  1  0  0  0  0
 36 37  1  0  0  0  0
 36 49  1  0  0  0  0
 37 39  1  0  0  0  0
 38 50  1  0  0  0  0
 38 37  2  0  0  0  0
 39 51  1  0  0  0  0
 39 40  1  0  0  0  0
 40 53  1  0  0  0  0
 40 41  1  0  0  0  0
 41 55  1  0  0  0  0
 41 42  1  0  0  0  0
 42 57  1  0  0  0  0
 42 43  1  0  0  0  0
 43 58  1  6  0  0  0
 43 44  1  0  0  0  0
 43 45  1  0  0  0  0
 44 59  1  0  0  0  0
 45 47  1  0  0  0  0
 46 45  2  0  0  0  0
 48 36  1  0  0  0  0
 52 40  1  0  0  0  0
 54 41  1  0  0  0  0
 56 42  1  0  0  0  0
M  END
$$$$
