MMS.pdb
 OpenBabel07022418563D

 47 46  0  0  1  0  0  0  0  0999 V2000
   -1.8890   -4.4370    0.0040 C   0  0  0  0  0  0  0  0  0  0  0  0
   -0.6760   -5.5310    0.8040 S   0  0  0  0  0  0  0  0  0  0  0  0
    0.7120   -4.4820    1.3250 C   0  0  0  0  0  0  0  0  0  0  0  0
    1.3800   -3.9670    0.0690 C   0  0  0  0  0  0  0  0  0  0  0  0
    2.5590   -3.0720    0.3890 C   0  0  2  0  0  0  0  0  0  0  0  0
    3.5370   -3.8090    1.1560 N   0  0  0  0  0  0  0  0  0  0  0  0
    2.1300   -1.8340    1.0870 C   0  0  0  0  0  0  0  0  0  0  0  0
    2.5960   -1.5600    2.2300 O   0  0  0  0  0  0  0  0  0  0  0  0
   -1.8390   -3.4360    0.5090 H   0  0  0  0  0  0  0  0  0  0  0  0
   -2.9260   -4.8020    0.1520 H   0  0  0  0  0  0  0  0  0  0  0  0
   -1.5950   -4.3060   -1.0360 H   0  0  0  0  0  0  0  0  0  0  0  0
    1.4190   -5.0340    1.9720 H   0  0  0  0  0  0  0  0  0  0  0  0
    0.2520   -3.6240    1.8790 H   0  0  0  0  0  0  0  0  0  0  0  0
    0.6350   -3.4720   -0.5560 H   0  0  0  0  0  0  0  0  0  0  0  0
    1.7700   -4.8460   -0.4870 H   0  0  0  0  0  0  0  0  0  0  0  0
    3.0350   -2.8020   -0.5720 H   0  0  0  0  0  0  0  0  0  0  0  0
    3.5970   -4.7650    0.7240 H   0  0  0  0  0  0  0  0  0  0  0  0
    4.4630   -3.3470    1.0170 H   0  0  0  0  0  0  0  0  0  0  0  0
    3.0220    3.0780   -1.8870 C   0  0  0  0  0  0  0  0  0  0  0  0
    1.2080    3.1680   -1.6960 S   0  0  0  0  0  0  0  0  0  0  0  0
    0.6190    1.6090   -0.9540 C   0  0  0  0  0  0  0  0  0  0  0  0
    1.1750    1.5510    0.4410 C   0  0  0  0  0  0  0  0  0  0  0  0
    0.7610    0.2980    1.1900 C   0  0  2  0  0  0  0  0  0  0  0  0
    1.2020   -0.9150    0.5380 N   0  0  0  0  0  0  0  0  0  0  0  0
   -0.7190    0.2420    1.2920 C   0  0  0  0  0  0  0  0  0  0  0  0
   -1.3590   -0.7470    0.8580 O   0  0  0  0  0  0  0  0  0  0  0  0
    3.4530    4.0900   -1.8590 H   0  0  0  0  0  0  0  0  0  0  0  0
    3.4620    2.3970   -1.1130 H   0  0  0  0  0  0  0  0  0  0  0  0
    3.2000    2.6420   -2.8920 H   0  0  0  0  0  0  0  0  0  0  0  0
    0.8850    0.7580   -1.5860 H   0  0  0  0  0  0  0  0  0  0  0  0
   -0.4950    1.7010   -0.9260 H   0  0  0  0  0  0  0  0  0  0  0  0
    0.7270    2.4010    1.0070 H   0  0  0  0  0  0  0  0  0  0  0  0
    2.2570    1.6670    0.4890 H   0  0  0  0  0  0  0  0  0  0  0  0
    1.2440    0.4040    2.2070 H   0  0  0  0  0  0  0  0  0  0  0  0
    0.8200   -1.1460   -0.4070 H   0  0  0  0  0  0  0  0  0  0  0  0
   -2.9640    0.2500    4.1470 O   0  0  0  0  0  0  0  0  0  0  0  0
   -3.4520    1.2930    3.3860 C   0  0  0  0  0  0  0  0  0  0  0  0
   -2.9390    1.2240    1.9730 C   0  0  2  0  0  0  0  0  0  0  0  0
   -1.5010    1.2900    1.8800 N   0  0  0  0  0  0  0  0  0  0  0  0
   -3.5710    2.2840    1.1420 C   0  0  0  0  0  0  0  0  0  0  0  0
   -4.8290    2.3690    1.1070 O   0  0  0  0  0  0  0  0  0  0  0  0
   -2.7840    3.1480    0.4300 O   0  0  0  0  0  0  0  0  0  0  0  0
   -2.6200   -0.4730    3.5650 H   0  0  0  0  0  0  0  0  0  0  0  0
   -3.2600    2.2930    3.8240 H   0  0  0  0  0  0  0  0  0  0  0  0
   -4.5680    1.1670    3.3120 H   0  0  0  0  0  0  0  0  0  0  0  0
   -3.2630    0.2530    1.5420 H   0  0  0  0  0  0  0  0  0  0  0  0
   -0.9760    2.1070    2.2390 H   0  0  0  0  0  0  0  0  0  0  0  0
  1 10  1  0  0  0  0
  1  9  1  0  0  0  0
  1  2  1  0  0  0  0
  2  3  1  0  0  0  0
  3 13  1  0  0  0  0
  3 12  1  0  0  0  0
  4  5  1  0  0  0  0
  4  3  1  0  0  0  0
  5 16  1  6  0  0  0
  5  7  1  0  0  0  0
  5  6  1  0  0  0  0
  7  8  2  0  0  0  0
 11  1  1  0  0  0  0
 14  4  1  0  0  0  0
 15  4  1  0  0  0  0
 17  6  1  0  0  0  0
 18  6  1  0  0  0  0
 19 27  1  0  0  0  0
 19 20  1  0  0  0  0
 19 28  1  0  0  0  0
 20 21  1  0  0  0  0
 21 31  1  0  0  0  0
 21 22  1  0  0  0  0
 22 33  1  0  0  0  0
 22 32  1  0  0  0  0
 22 23  1  0  0  0  0
 23 25  1  0  0  0  0
 23 34  1  1  0  0  0
 24  7  1  0  0  0  0
 24 23  1  0  0  0  0
 25 39  1  0  0  0  0
 26 25  2  0  0  0  0
 29 19  1  0  0  0  0
 30 21  1  0  0  0  0
 35 24  1  0  0  0  0
 37 44  1  0  0  0  0
 37 36  1  0  0  0  0
 38 46  1  6  0  0  0
 38 37  1  0  0  0  0
 39 38  1  0  0  0  0
 39 47  1  0  0  0  0
 40 38  1  0  0  0  0
 41 40  1  0  0  0  0
 42 40  2  0  0  0  0
 43 36  1  0  0  0  0
 45 37  1  0  0  0  0
M  END
$$$$
