MMY.pdb
 OpenBabel07022418563D

 57 57  0  0  1  0  0  0  0  0999 V2000
   -1.1800   -1.0900    5.2830 C   0  0  0  0  0  0  0  0  0  0  0  0
    0.3560   -1.9790    5.1180 S   0  0  0  0  0  0  0  0  0  0  0  0
    1.3150   -1.6710    3.6710 C   0  0  0  0  0  0  0  0  0  0  0  0
    2.0270   -0.3890    3.5360 C   0  0  0  0  0  0  0  0  0  0  0  0
    1.2710    0.8760    3.5430 C   0  0  2  0  0  0  0  0  0  0  0  0
    0.5270    1.1770    4.7170 N   0  0  0  0  0  0  0  0  0  0  0  0
    0.4310    1.0040    2.2980 C   0  0  0  0  0  0  0  0  0  0  0  0
   -0.7890    1.2670    2.3680 O   0  0  0  0  0  0  0  0  0  0  0  0
   -1.1210   -0.4110    6.1640 H   0  0  0  0  0  0  0  0  0  0  0  0
   -2.0160   -1.8490    5.4890 H   0  0  0  0  0  0  0  0  0  0  0  0
   -1.5260   -0.5610    4.3770 H   0  0  0  0  0  0  0  0  0  0  0  0
    2.0940   -2.4870    3.5980 H   0  0  0  0  0  0  0  0  0  0  0  0
    0.6810   -1.8950    2.7420 H   0  0  0  0  0  0  0  0  0  0  0  0
    2.6720   -0.4460    2.6210 H   0  0  0  0  0  0  0  0  0  0  0  0
    2.7850   -0.3490    4.3720 H   0  0  0  0  0  0  0  0  0  0  0  0
    2.0400    1.7080    3.4350 H   0  0  0  0  0  0  0  0  0  0  0  0
    0.2790    2.1610    4.8450 H   0  0  0  0  0  0  0  0  0  0  0  0
    1.0310    0.7570    5.5320 H   0  0  0  0  0  0  0  0  0  0  0  0
    2.6140    1.3320   -3.9270 C   0  0  0  0  0  0  0  0  0  0  0  0
    0.8710    1.6090   -3.6150 S   0  0  0  0  0  0  0  0  0  0  0  0
    0.5700    2.6300   -2.1760 C   0  0  0  0  0  0  0  0  0  0  0  0
    0.9330    2.0930   -0.8700 C   0  0  0  0  0  0  0  0  0  0  0  0
    0.3300    0.9250   -0.2480 C   0  0  2  0  0  0  0  0  0  0  0  0
    1.0610    0.8200    1.0700 N   0  0  0  0  0  0  0  0  0  0  0  0
    0.3390   -0.3960   -0.8640 C   0  0  0  0  0  0  0  0  0  0  0  0
    1.0980   -1.3300   -0.3760 O   0  0  0  0  0  0  0  0  0  0  0  0
    3.0920    0.6450   -3.2090 H   0  0  0  0  0  0  0  0  0  0  0  0
    3.1800    2.2860   -4.0600 H   0  0  0  0  0  0  0  0  0  0  0  0
    2.6880    0.8170   -4.9260 H   0  0  0  0  0  0  0  0  0  0  0  0
    1.2190    3.5570   -2.3360 H   0  0  0  0  0  0  0  0  0  0  0  0
   -0.4660    3.0940   -2.2050 H   0  0  0  0  0  0  0  0  0  0  0  0
    2.0850    1.9940   -0.8840 H   0  0  0  0  0  0  0  0  0  0  0  0
    0.8460    2.9440   -0.0970 H   0  0  0  0  0  0  0  0  0  0  0  0
   -0.7400    1.1140    0.0760 H   0  0  0  0  0  0  0  0  0  0  0  0
    2.0630    0.6030    1.0010 H   0  0  0  0  0  0  0  0  0  0  0  0
   -2.9400   -3.0550    3.2070 O   0  0  0  0  0  0  0  0  0  0  0  0
   -2.6440   -2.9950    1.8530 C   0  0  0  0  0  0  0  0  0  0  0  0
   -3.0330   -1.9240    1.0870 C   0  0  0  0  0  0  0  0  0  0  0  0
   -2.7240   -1.8950   -0.2560 C   0  0  0  0  0  0  0  0  0  0  0  0
   -2.0340   -2.9030   -0.8720 C   0  0  0  0  0  0  0  0  0  0  0  0
   -1.6950   -2.9050   -2.3120 C   0  0  0  0  0  0  0  0  0  0  0  0
   -0.3240   -2.2140   -2.4730 C   0  0  2  0  0  0  0  0  0  0  0  0
   -0.4060   -0.8570   -1.9770 N   0  0  0  0  0  0  0  0  0  0  0  0
    0.1420   -2.3370   -3.8560 C   0  0  0  0  0  0  0  0  0  0  0  0
    0.2350   -3.5540   -4.2770 O   0  0  0  0  0  0  0  0  0  0  0  0
   -1.6420   -3.9830   -0.0960 C   0  0  0  0  0  0  0  0  0  0  0  0
   -1.9430   -4.0290    1.2500 C   0  0  0  0  0  0  0  0  0  0  0  0
    0.4830   -1.3690   -4.7450 O   0  0  0  0  0  0  0  0  0  0  0  0
   -3.3760   -3.8590    3.6250 H   0  0  0  0  0  0  0  0  0  0  0  0
   -3.5810   -1.1310    1.5900 H   0  0  0  0  0  0  0  0  0  0  0  0
   -3.0420   -1.0380   -0.8400 H   0  0  0  0  0  0  0  0  0  0  0  0
   -2.4480   -2.4190   -2.9320 H   0  0  0  0  0  0  0  0  0  0  0  0
   -1.5860   -3.9570   -2.6410 H   0  0  0  0  0  0  0  0  0  0  0  0
    0.4220   -2.7980   -1.8500 H   0  0  0  0  0  0  0  0  0  0  0  0
   -1.0530   -0.1930   -2.4410 H   0  0  0  0  0  0  0  0  0  0  0  0
   -1.0940   -4.8230   -0.5000 H   0  0  0  0  0  0  0  0  0  0  0  0
   -1.6420   -4.8710    1.8740 H   0  0  0  0  0  0  0  0  0  0  0  0
  1 10  1  0  0  0  0
  1  9  1  0  0  0  0
  2  1  1  0  0  0  0
  3  2  1  0  0  0  0
  4  5  1  0  0  0  0
  4  3  1  0  0  0  0
  4 15  1  0  0  0  0
  5 16  1  6  0  0  0
  5  6  1  0  0  0  0
  6 17  1  0  0  0  0
  6 18  1  0  0  0  0
  7  8  2  0  0  0  0
  7  5  1  0  0  0  0
 11  1  1  0  0  0  0
 12  3  1  0  0  0  0
 13  3  1  0  0  0  0
 14  4  1  0  0  0  0
 19 20  1  0  0  0  0
 19 27  1  0  0  0  0
 20 21  1  0  0  0  0
 21 22  1  0  0  0  0
 22 23  1  0  0  0  0
 22 33  1  0  0  0  0
 23 34  1  1  0  0  0
 23 24  1  0  0  0  0
 24  7  1  0  0  0  0
 25 26  2  0  0  0  0
 25 23  1  0  0  0  0
 28 19  1  0  0  0  0
 29 19  1  0  0  0  0
 30 21  1  0  0  0  0
 31 21  1  0  0  0  0
 32 22  1  0  0  0  0
 35 24  1  0  0  0  0
 36 49  1  0  0  0  0
 37 36  1  0  0  0  0
 38 50  1  0  0  0  0
 38 37  2  0  0  0  0
 39 38  1  0  0  0  0
 40 39  2  0  0  0  0
 40 46  1  0  0  0  0
 41 40  1  0  0  0  0
 42 41  1  0  0  0  0
 42 43  1  0  0  0  0
 42 54  1  1  0  0  0
 43 25  1  0  0  0  0
 44 42  1  0  0  0  0
 45 44  1  0  0  0  0
 46 47  2  0  0  0  0
 47 37  1  0  0  0  0
 47 57  1  0  0  0  0
 48 44  2  0  0  0  0
 51 39  1  0  0  0  0
 52 41  1  0  0  0  0
 53 41  1  0  0  0  0
 55 43  1  0  0  0  0
 56 46  1  0  0  0  0
M  END
$$$$
