MNC.pdb
 OpenBabel07022418533D

 44 43  0  0  1  0  0  0  0  0999 V2000
   -0.9860   -5.2150    2.8690 C   0  0  0  0  0  0  0  0  0  0  0  0
   -0.9500   -3.4250    2.8410 S   0  0  0  0  0  0  0  0  0  0  0  0
    0.6650   -2.7850    2.3180 C   0  0  0  0  0  0  0  0  0  0  0  0
    0.9520   -3.1400    0.8610 C   0  0  0  0  0  0  0  0  0  0  0  0
    2.3110   -2.5680    0.5240 C   0  0  2  0  0  0  0  0  0  0  0  0
    3.3470   -3.1150    1.3700 N   0  0  0  0  0  0  0  0  0  0  0  0
    2.3380   -1.0940    0.5750 C   0  0  0  0  0  0  0  0  0  0  0  0
    3.1740   -0.4590    1.3020 O   0  0  0  0  0  0  0  0  0  0  0  0
   -1.9880   -5.5330    3.2180 H   0  0  0  0  0  0  0  0  0  0  0  0
   -0.2160   -5.5810    3.5610 H   0  0  0  0  0  0  0  0  0  0  0  0
   -0.7870   -5.6700    1.8670 H   0  0  0  0  0  0  0  0  0  0  0  0
    1.4240   -3.2120    2.9860 H   0  0  0  0  0  0  0  0  0  0  0  0
    0.6950   -1.6990    2.4140 H   0  0  0  0  0  0  0  0  0  0  0  0
    0.1870   -2.6840    0.2020 H   0  0  0  0  0  0  0  0  0  0  0  0
    0.9130   -4.2340    0.6960 H   0  0  0  0  0  0  0  0  0  0  0  0
    2.5410   -2.9460   -0.5170 H   0  0  0  0  0  0  0  0  0  0  0  0
    4.2490   -2.9880    0.8940 H   0  0  0  0  0  0  0  0  0  0  0  0
    3.1730   -4.1540    1.4260 H   0  0  0  0  0  0  0  0  0  0  0  0
    2.9920    3.9450   -1.1670 N   0  0  0  0  0  0  0  0  0  0  0  0
    1.7790    3.2540   -1.3890 C   0  0  0  0  0  0  0  0  0  0  0  0
    0.7300    3.9710   -1.5320 O   0  0  0  0  0  0  0  0  0  0  0  0
    1.7110    1.7750   -1.4570 C   0  0  0  0  0  0  0  0  0  0  0  0
    1.5050    1.1660   -0.0960 C   0  0  2  0  0  0  0  0  0  0  0  0
    1.4450   -0.2870   -0.1720 N   0  0  0  0  0  0  0  0  0  0  0  0
    0.1930    1.6220    0.4280 C   0  0  0  0  0  0  0  0  0  0  0  0
   -0.0970    2.8400    0.6410 O   0  0  0  0  0  0  0  0  0  0  0  0
    3.0560    4.9570   -1.3600 H   0  0  0  0  0  0  0  0  0  0  0  0
    3.8250    3.4440   -0.8080 H   0  0  0  0  0  0  0  0  0  0  0  0
    0.8450    1.5220   -2.0990 H   0  0  0  0  0  0  0  0  0  0  0  0
    2.6820    1.4390   -1.9060 H   0  0  0  0  0  0  0  0  0  0  0  0
    2.3000    1.4290    0.6080 H   0  0  0  0  0  0  0  0  0  0  0  0
    0.7230   -0.7130   -0.7950 H   0  0  0  0  0  0  0  0  0  0  0  0
   -0.8700    0.7220    0.7410 N   0  0  0  0  0  0  0  0  0  0  0  0
   -2.1350    1.1470    1.2430 C   0  0  1  0  0  0  0  0  0  0  0  0
   -3.3000    0.7230    0.3860 C   0  0  0  0  0  0  0  0  0  0  0  0
   -3.1620    1.4020   -1.2920 S   0  0  0  0  0  0  0  0  0  0  0  0
   -2.3410    0.5880    2.6010 C   0  0  0  0  0  0  0  0  0  0  0  0
   -1.4460   -0.1280    3.1120 O   0  0  0  0  0  0  0  0  0  0  0  0
   -3.4790    0.8070    3.3630 O   0  0  0  0  0  0  0  0  0  0  0  0
   -0.7080   -0.2940    0.5950 H   0  0  0  0  0  0  0  0  0  0  0  0
   -2.1560    2.2580    1.3160 H   0  0  0  0  0  0  0  0  0  0  0  0
   -4.2160    1.1630    0.8330 H   0  0  0  0  0  0  0  0  0  0  0  0
   -3.4480   -0.3740    0.3860 H   0  0  0  0  0  0  0  0  0  0  0  0
   -3.0340    0.2880   -2.1720 H   0  0  0  0  0  0  0  0  0  0  0  0
  1  9  1  0  0  0  0
  1 10  1  0  0  0  0
  2  1  1  0  0  0  0
  3 13  1  0  0  0  0
  3  2  1  0  0  0  0
  3 12  1  0  0  0  0
  4  3  1  0  0  0  0
  5 16  1  6  0  0  0
  5  7  1  0  0  0  0
  5  4  1  0  0  0  0
  5  6  1  0  0  0  0
  6 18  1  0  0  0  0
  7  8  2  0  0  0  0
 11  1  1  0  0  0  0
 14  4  1  0  0  0  0
 15  4  1  0  0  0  0
 17  6  1  0  0  0  0
 19 28  1  0  0  0  0
 20 19  1  0  0  0  0
 21 20  2  0  0  0  0
 22 20  1  0  0  0  0
 22 23  1  0  0  0  0
 23 25  1  0  0  0  0
 23 31  1  1  0  0  0
 24 23  1  0  0  0  0
 24  7  1  0  0  0  0
 25 26  2  0  0  0  0
 25 33  1  0  0  0  0
 27 19  1  0  0  0  0
 29 22  1  0  0  0  0
 30 22  1  0  0  0  0
 32 24  1  0  0  0  0
 33 34  1  0  0  0  0
 34 41  1  1  0  0  0
 34 37  1  0  0  0  0
 35 42  1  0  0  0  0
 35 34  1  0  0  0  0
 36 35  1  0  0  0  0
 37 38  2  0  0  0  0
 37 39  1  0  0  0  0
 40 33  1  0  0  0  0
 43 35  1  0  0  0  0
 44 36  1  0  0  0  0
M  END
$$$$
