MND.pdb
 OpenBabel07022418533D

 46 45  0  0  1  0  0  0  0  0999 V2000
    1.7150   -4.8000    3.6640 C   0  0  0  0  0  0  0  0  0  0  0  0
    1.0270   -3.1170    3.8010 S   0  0  0  0  0  0  0  0  0  0  0  0
    0.3340   -2.5680    2.2300 C   0  0  0  0  0  0  0  0  0  0  0  0
    1.3720   -2.3910    1.1670 C   0  0  0  0  0  0  0  0  0  0  0  0
    2.4340   -1.3730    1.4900 C   0  0  2  0  0  0  0  0  0  0  0  0
    3.1910   -1.6640    2.6700 N   0  0  0  0  0  0  0  0  0  0  0  0
    1.9300    0.0240    1.4750 C   0  0  0  0  0  0  0  0  0  0  0  0
    2.1980    0.8340    2.4130 O   0  0  0  0  0  0  0  0  0  0  0  0
    1.2010   -5.3780    2.8670 H   0  0  0  0  0  0  0  0  0  0  0  0
    2.8000   -4.8050    3.4630 H   0  0  0  0  0  0  0  0  0  0  0  0
    1.5730   -5.3810    4.6050 H   0  0  0  0  0  0  0  0  0  0  0  0
   -0.3320   -1.7080    2.3760 H   0  0  0  0  0  0  0  0  0  0  0  0
   -0.3330   -3.4040    1.8760 H   0  0  0  0  0  0  0  0  0  0  0  0
    0.9330   -2.1400    0.2020 H   0  0  0  0  0  0  0  0  0  0  0  0
    1.9020   -3.3720    1.0730 H   0  0  0  0  0  0  0  0  0  0  0  0
    3.1740   -1.4510    0.6360 H   0  0  0  0  0  0  0  0  0  0  0  0
    2.8050   -1.3240    3.5530 H   0  0  0  0  0  0  0  0  0  0  0  0
    3.5000   -2.6570    2.6670 H   0  0  0  0  0  0  0  0  0  0  0  0
    3.5620    1.6350   -1.3870 N   0  0  0  0  0  0  0  0  0  0  0  0
    2.7330    2.5630   -0.6990 C   0  0  0  0  0  0  0  0  0  0  0  0
    3.3010    3.4130    0.0280 O   0  0  0  0  0  0  0  0  0  0  0  0
    1.2730    2.5720   -0.7980 C   0  0  0  0  0  0  0  0  0  0  0  0
    0.6290    1.9140    0.4070 C   0  0  2  0  0  0  0  0  0  0  0  0
    1.1260    0.5430    0.4290 N   0  0  0  0  0  0  0  0  0  0  0  0
   -0.8230    1.9870    0.3430 C   0  0  0  0  0  0  0  0  0  0  0  0
   -1.3800    3.1080    0.3010 O   0  0  0  0  0  0  0  0  0  0  0  0
    3.1380    1.1390   -2.2120 H   0  0  0  0  0  0  0  0  0  0  0  0
    4.5300    1.4180   -1.1380 H   0  0  0  0  0  0  0  0  0  0  0  0
    0.8640    3.6010   -0.9760 H   0  0  0  0  0  0  0  0  0  0  0  0
    0.9830    1.9460   -1.6830 H   0  0  0  0  0  0  0  0  0  0  0  0
    1.0520    2.3970    1.3270 H   0  0  0  0  0  0  0  0  0  0  0  0
    0.8690   -0.0710   -0.3710 H   0  0  0  0  0  0  0  0  0  0  0  0
   -1.6560    0.8410    0.3250 N   0  0  0  0  0  0  0  0  0  0  0  0
   -3.1060    0.9240    0.2590 C   0  0  1  0  0  0  0  0  0  0  0  0
   -3.5590    0.2310   -1.0200 C   0  0  0  0  0  0  0  0  0  0  0  0
   -3.1770   -1.1810   -1.0800 C   0  0  0  0  0  0  0  0  0  0  0  0
   -1.9930   -1.5280   -1.3220 O   0  0  0  0  0  0  0  0  0  0  0  0
   -3.6720    0.2620    1.4500 C   0  0  0  0  0  0  0  0  0  0  0  0
   -4.9190    0.1910    1.6420 O   0  0  0  0  0  0  0  0  0  0  0  0
   -4.1020   -2.1760   -0.8740 O   0  0  0  0  0  0  0  0  0  0  0  0
   -2.8590   -0.3070    2.4050 O   0  0  0  0  0  0  0  0  0  0  0  0
   -1.2350   -0.1140    0.3600 H   0  0  0  0  0  0  0  0  0  0  0  0
   -3.4370    1.9840    0.2210 H   0  0  0  0  0  0  0  0  0  0  0  0
   -3.1650    0.8080   -1.8790 H   0  0  0  0  0  0  0  0  0  0  0  0
   -4.6650    0.3030   -1.0760 H   0  0  0  0  0  0  0  0  0  0  0  0
   -3.8880   -3.0390   -0.3920 H   0  0  0  0  0  0  0  0  0  0  0  0
  1  2  1  0  0  0  0
  1 11  1  0  0  0  0
  3 12  1  0  0  0  0
  3  2  1  0  0  0  0
  4  5  1  0  0  0  0
  4  3  1  0  0  0  0
  5 16  1  6  0  0  0
  5  6  1  0  0  0  0
  6 17  1  0  0  0  0
  7  5  1  0  0  0  0
  7  8  2  0  0  0  0
  9  1  1  0  0  0  0
 10  1  1  0  0  0  0
 13  3  1  0  0  0  0
 14  4  1  0  0  0  0
 15  4  1  0  0  0  0
 18  6  1  0  0  0  0
 19 28  1  0  0  0  0
 19 20  1  0  0  0  0
 20 21  2  0  0  0  0
 22 20  1  0  0  0  0
 22 23  1  0  0  0  0
 23 24  1  0  0  0  0
 23 31  1  1  0  0  0
 24  7  1  0  0  0  0
 25 23  1  0  0  0  0
 26 25  2  0  0  0  0
 27 19  1  0  0  0  0
 29 22  1  0  0  0  0
 30 22  1  0  0  0  0
 32 24  1  0  0  0  0
 33 25  1  0  0  0  0
 33 42  1  0  0  0  0
 34 43  1  6  0  0  0
 34 33  1  0  0  0  0
 34 38  1  0  0  0  0
 35 34  1  0  0  0  0
 36 35  1  0  0  0  0
 36 40  1  0  0  0  0
 37 36  2  0  0  0  0
 38 39  2  0  0  0  0
 38 41  1  0  0  0  0
 40 46  1  0  0  0  0
 44 35  1  0  0  0  0
 45 35  1  0  0  0  0
M  END
$$$$
