MNF.pdb
 OpenBabel07022418543D

 53 53  0  0  1  0  0  0  0  0999 V2000
   -0.1030    2.6060    5.4070 C   0  0  0  0  0  0  0  0  0  0  0  0
    0.6340    1.1840    6.2050 S   0  0  0  0  0  0  0  0  0  0  0  0
    1.2360   -0.0690    5.1250 C   0  0  0  0  0  0  0  0  0  0  0  0
    2.4490    0.1510    4.3300 C   0  0  0  0  0  0  0  0  0  0  0  0
    2.5330    1.2560    3.3650 C   0  0  2  0  0  0  0  0  0  0  0  0
    2.4030    2.5600    3.9240 N   0  0  0  0  0  0  0  0  0  0  0  0
    1.6400    1.0600    2.1760 C   0  0  0  0  0  0  0  0  0  0  0  0
    0.8400    1.9270    1.7530 O   0  0  0  0  0  0  0  0  0  0  0  0
    0.4430    3.5430    5.5300 H   0  0  0  0  0  0  0  0  0  0  0  0
   -1.1370    2.8100    5.8590 H   0  0  0  0  0  0  0  0  0  0  0  0
   -0.2890    2.4100    4.3220 H   0  0  0  0  0  0  0  0  0  0  0  0
    0.3750   -0.4120    4.4630 H   0  0  0  0  0  0  0  0  0  0  0  0
    1.4010   -1.0080    5.7570 H   0  0  0  0  0  0  0  0  0  0  0  0
    2.6820   -0.8280    3.8090 H   0  0  0  0  0  0  0  0  0  0  0  0
    3.3250    0.2530    5.0370 H   0  0  0  0  0  0  0  0  0  0  0  0
    3.5730    1.2230    2.9140 H   0  0  0  0  0  0  0  0  0  0  0  0
    2.5280    3.3030    3.2330 H   0  0  0  0  0  0  0  0  0  0  0  0
    3.0400    2.6220    4.7460 H   0  0  0  0  0  0  0  0  0  0  0  0
    3.7000   -0.0100   -2.2010 N   0  0  0  0  0  0  0  0  0  0  0  0
    2.7790    0.2140   -1.1490 C   0  0  0  0  0  0  0  0  0  0  0  0
    2.8140    1.2970   -0.5250 O   0  0  0  0  0  0  0  0  0  0  0  0
    1.7970   -0.8040   -0.7930 C   0  0  0  0  0  0  0  0  0  0  0  0
    0.8770   -0.4300    0.3430 C   0  0  2  0  0  0  0  0  0  0  0  0
    1.7250   -0.1860    1.5110 N   0  0  0  0  0  0  0  0  0  0  0  0
    0.0120   -1.6320    0.5770 C   0  0  0  0  0  0  0  0  0  0  0  0
    0.0310   -2.3010    1.6230 O   0  0  0  0  0  0  0  0  0  0  0  0
    4.4850   -0.7090   -2.1300 H   0  0  0  0  0  0  0  0  0  0  0  0
    3.6560    0.5050   -3.1140 H   0  0  0  0  0  0  0  0  0  0  0  0
    1.2150   -1.1750   -1.6800 H   0  0  0  0  0  0  0  0  0  0  0  0
    2.3360   -1.7330   -0.4380 H   0  0  0  0  0  0  0  0  0  0  0  0
    0.2980    0.4450    0.0650 H   0  0  0  0  0  0  0  0  0  0  0  0
    2.3830   -0.9660    1.8150 H   0  0  0  0  0  0  0  0  0  0  0  0
   -0.8800   -2.0300   -0.4560 N   0  0  0  0  0  0  0  0  0  0  0  0
   -1.7530   -3.2010   -0.2830 C   0  0  1  0  0  0  0  0  0  0  0  0
   -3.1850   -2.8030   -0.5010 C   0  0  0  0  0  0  0  0  0  0  0  0
   -3.4290   -2.2510   -1.8540 C   0  0  0  0  0  0  0  0  0  0  0  0
   -3.2850   -0.8910   -2.0980 C   0  0  0  0  0  0  0  0  0  0  0  0
   -3.5020   -0.3240   -3.3320 C   0  0  0  0  0  0  0  0  0  0  0  0
   -3.8810   -1.1110   -4.3990 C   0  0  0  0  0  0  0  0  0  0  0  0
   -4.0330   -2.4630   -4.1950 C   0  0  0  0  0  0  0  0  0  0  0  0
   -3.8080   -3.0220   -2.9310 C   0  0  0  0  0  0  0  0  0  0  0  0
   -1.3760   -4.1900   -1.3190 C   0  0  0  0  0  0  0  0  0  0  0  0
   -1.9260   -5.3160   -1.4230 O   0  0  0  0  0  0  0  0  0  0  0  0
   -0.3680   -3.9270   -2.2600 O   0  0  0  0  0  0  0  0  0  0  0  0
   -0.9320   -1.5000   -1.3530 H   0  0  0  0  0  0  0  0  0  0  0  0
   -1.5820   -3.6490    0.7100 H   0  0  0  0  0  0  0  0  0  0  0  0
   -3.5160   -2.0870    0.2910 H   0  0  0  0  0  0  0  0  0  0  0  0
   -3.8080   -3.7280   -0.4240 H   0  0  0  0  0  0  0  0  0  0  0  0
   -2.9860   -0.2730   -1.2500 H   0  0  0  0  0  0  0  0  0  0  0  0
   -3.3810    0.7380   -3.4880 H   0  0  0  0  0  0  0  0  0  0  0  0
   -4.0650   -0.7260   -5.3880 H   0  0  0  0  0  0  0  0  0  0  0  0
   -4.3310   -3.1380   -4.9990 H   0  0  0  0  0  0  0  0  0  0  0  0
   -3.9400   -4.0970   -2.8000 H   0  0  0  0  0  0  0  0  0  0  0  0
  1  9  1  0  0  0  0
  1 10  1  0  0  0  0
  1  2  1  0  0  0  0
  3 13  1  0  0  0  0
  3  2  1  0  0  0  0
  4 15  1  0  0  0  0
  4  3  1  0  0  0  0
  5 16  1  6  0  0  0
  5  6  1  0  0  0  0
  5  4  1  0  0  0  0
  6 18  1  0  0  0  0
  7  5  1  0  0  0  0
  8  7  2  0  0  0  0
 11  1  1  0  0  0  0
 12  3  1  0  0  0  0
 14  4  1  0  0  0  0
 17  6  1  0  0  0  0
 19 27  1  0  0  0  0
 19 20  1  0  0  0  0
 20 22  1  0  0  0  0
 20 21  2  0  0  0  0
 22 30  1  0  0  0  0
 22 23  1  0  0  0  0
 23 31  1  6  0  0  0
 23 25  1  0  0  0  0
 23 24  1  0  0  0  0
 24 32  1  0  0  0  0
 24  7  1  0  0  0  0
 25 26  2  0  0  0  0
 28 19  1  0  0  0  0
 29 22  1  0  0  0  0
 33 34  1  0  0  0  0
 33 25  1  0  0  0  0
 34 46  1  1  0  0  0
 35 48  1  0  0  0  0
 35 34  1  0  0  0  0
 35 47  1  0  0  0  0
 36 35  1  0  0  0  0
 37 36  1  0  0  0  0
 37 49  1  0  0  0  0
 38 37  2  0  0  0  0
 39 40  2  0  0  0  0
 39 38  1  0  0  0  0
 40 41  1  0  0  0  0
 41 53  1  0  0  0  0
 41 36  2  0  0  0  0
 42 34  1  0  0  0  0
 43 42  1  0  0  0  0
 44 42  2  0  0  0  0
 45 33  1  0  0  0  0
 50 38  1  0  0  0  0
 51 39  1  0  0  0  0
 52 40  1  0  0  0  0
M  END
$$$$
