MNG.pdb
 OpenBabel07022418533D

 40 39  0  0  1  0  0  0  0  0999 V2000
    2.9280   -3.8420    5.0970 C   0  0  0  0  0  0  0  0  0  0  0  0
    1.3790   -4.2730    4.3060 S   0  0  0  0  0  0  0  0  0  0  0  0
    1.5520   -4.6530    2.5560 C   0  0  0  0  0  0  0  0  0  0  0  0
    1.9690   -3.4310    1.7640 C   0  0  0  0  0  0  0  0  0  0  0  0
    0.9130   -2.3930    1.9450 C   0  0  2  0  0  0  0  0  0  0  0  0
   -0.3650   -2.8780    1.4640 N   0  0  0  0  0  0  0  0  0  0  0  0
    1.2620   -1.0870    1.3080 C   0  0  0  0  0  0  0  0  0  0  0  0
    2.3240   -0.4720    1.5630 O   0  0  0  0  0  0  0  0  0  0  0  0
    3.1390   -4.5430    5.9530 H   0  0  0  0  0  0  0  0  0  0  0  0
    3.7860   -3.7600    4.4080 H   0  0  0  0  0  0  0  0  0  0  0  0
    2.7830   -2.8340    5.5830 H   0  0  0  0  0  0  0  0  0  0  0  0
    2.2170   -5.5180    2.3660 H   0  0  0  0  0  0  0  0  0  0  0  0
    0.5450   -4.9370    2.1790 H   0  0  0  0  0  0  0  0  0  0  0  0
    1.9610   -3.7420    0.6950 H   0  0  0  0  0  0  0  0  0  0  0  0
    2.9530   -3.0410    2.0630 H   0  0  0  0  0  0  0  0  0  0  0  0
    0.7610   -2.1590    3.0360 H   0  0  0  0  0  0  0  0  0  0  0  0
   -0.3620   -3.1350    0.4690 H   0  0  0  0  0  0  0  0  0  0  0  0
   -1.1690   -2.3150    1.7660 H   0  0  0  0  0  0  0  0  0  0  0  0
    0.8420    1.9850   -3.9100 N   0  0  0  0  0  0  0  0  0  0  0  0
    0.9870    1.9440   -2.4950 C   0  0  0  0  0  0  0  0  0  0  0  0
    1.4130    2.9800   -1.9450 O   0  0  0  0  0  0  0  0  0  0  0  0
    0.6500    0.7420   -1.7410 C   0  0  0  0  0  0  0  0  0  0  0  0
    0.7210    0.8080   -0.2640 C   0  0  2  0  0  0  0  0  0  0  0  0
    0.3960   -0.4650    0.3660 N   0  0  0  0  0  0  0  0  0  0  0  0
   -0.3030    1.8030    0.2200 C   0  0  0  0  0  0  0  0  0  0  0  0
   -0.3240    3.0070   -0.1050 O   0  0  0  0  0  0  0  0  0  0  0  0
    0.8280    2.8720   -4.4520 H   0  0  0  0  0  0  0  0  0  0  0  0
    0.7420    1.1020   -4.4660 H   0  0  0  0  0  0  0  0  0  0  0  0
    1.2850   -0.1460   -2.0500 H   0  0  0  0  0  0  0  0  0  0  0  0
   -0.3790    0.4430   -2.1120 H   0  0  0  0  0  0  0  0  0  0  0  0
    1.6960    1.1530    0.1040 H   0  0  0  0  0  0  0  0  0  0  0  0
   -0.4870   -0.9440    0.1330 H   0  0  0  0  0  0  0  0  0  0  0  0
   -1.3480    1.3900    1.1170 N   0  0  0  0  0  0  0  0  0  0  0  0
   -2.3290    2.3490    1.5770 C   0  0  0  0  0  0  0  0  0  0  0  0
   -3.0430    2.8730    0.3870 C   0  0  0  0  0  0  0  0  0  0  0  0
   -3.9580    3.7480    0.4830 O   0  0  0  0  0  0  0  0  0  0  0  0
   -2.7530    2.4380   -0.8930 O   0  0  0  0  0  0  0  0  0  0  0  0
   -1.3590    0.3790    1.4130 H   0  0  0  0  0  0  0  0  0  0  0  0
   -3.0850    1.8380    2.2050 H   0  0  0  0  0  0  0  0  0  0  0  0
   -1.7970    3.1530    2.1250 H   0  0  0  0  0  0  0  0  0  0  0  0
  1 11  1  0  0  0  0
  1  9  1  0  0  0  0
  2  1  1  0  0  0  0
  3  2  1  0  0  0  0
  4  5  1  0  0  0  0
  4 15  1  0  0  0  0
  4  3  1  0  0  0  0
  5 16  1  1  0  0  0
  6 18  1  0  0  0  0
  6  5  1  0  0  0  0
  7  8  2  0  0  0  0
  7  5  1  0  0  0  0
 10  1  1  0  0  0  0
 12  3  1  0  0  0  0
 13  3  1  0  0  0  0
 14  4  1  0  0  0  0
 17  6  1  0  0  0  0
 19 20  1  0  0  0  0
 20 21  2  0  0  0  0
 20 22  1  0  0  0  0
 22 23  1  0  0  0  0
 23 31  1  1  0  0  0
 23 25  1  0  0  0  0
 23 24  1  0  0  0  0
 24  7  1  0  0  0  0
 25 33  1  0  0  0  0
 26 25  2  0  0  0  0
 27 19  1  0  0  0  0
 28 19  1  0  0  0  0
 29 22  1  0  0  0  0
 30 22  1  0  0  0  0
 32 24  1  0  0  0  0
 33 38  1  0  0  0  0
 33 34  1  0  0  0  0
 34 40  1  0  0  0  0
 34 39  1  0  0  0  0
 35 36  1  0  0  0  0
 35 34  1  0  0  0  0
 37 35  2  0  0  0  0
M  END
$$$$
