MNK.pdb
 OpenBabel07022418543D

 54 53  0  0  1  0  0  0  0  0999 V2000
    2.4350   -5.1050    2.5670 C   0  0  0  0  0  0  0  0  0  0  0  0
    3.4490   -4.0010    1.5630 S   0  0  0  0  0  0  0  0  0  0  0  0
    2.4930   -3.2580    0.2160 C   0  0  0  0  0  0  0  0  0  0  0  0
    3.4370   -2.3540   -0.5540 C   0  0  0  0  0  0  0  0  0  0  0  0
    3.9880   -1.2720    0.3690 C   0  0  2  0  0  0  0  0  0  0  0  0
    4.6880   -1.9760    1.4290 N   0  0  0  0  0  0  0  0  0  0  0  0
    2.8860   -0.4690    0.9320 C   0  0  0  0  0  0  0  0  0  0  0  0
    2.5930   -0.4380    2.1560 O   0  0  0  0  0  0  0  0  0  0  0  0
    2.2100   -4.6180    3.5260 H   0  0  0  0  0  0  0  0  0  0  0  0
    3.0050   -6.0560    2.7040 H   0  0  0  0  0  0  0  0  0  0  0  0
    1.5260   -5.3860    1.9950 H   0  0  0  0  0  0  0  0  0  0  0  0
    1.6070   -2.7150    0.5760 H   0  0  0  0  0  0  0  0  0  0  0  0
    2.1670   -4.0610   -0.4840 H   0  0  0  0  0  0  0  0  0  0  0  0
    4.2600   -2.9730   -0.9610 H   0  0  0  0  0  0  0  0  0  0  0  0
    2.9070   -1.8880   -1.3960 H   0  0  0  0  0  0  0  0  0  0  0  0
    4.6940   -0.6220   -0.1620 H   0  0  0  0  0  0  0  0  0  0  0  0
    5.0050   -1.3000    2.1530 H   0  0  0  0  0  0  0  0  0  0  0  0
    5.4860   -2.4960    1.0270 H   0  0  0  0  0  0  0  0  0  0  0  0
    0.2520    3.7730    2.3010 N   0  0  0  0  0  0  0  0  0  0  0  0
    0.3700    3.5260    0.8870 C   0  0  0  0  0  0  0  0  0  0  0  0
   -0.3890    4.1380    0.1000 O   0  0  0  0  0  0  0  0  0  0  0  0
    1.3710    2.5680    0.3990 C   0  0  0  0  0  0  0  0  0  0  0  0
    0.9950    1.1330    0.5850 C   0  0  2  0  0  0  0  0  0  0  0  0
    2.1000    0.3210    0.0550 N   0  0  0  0  0  0  0  0  0  0  0  0
   -0.2490    0.7220   -0.0690 C   0  0  0  0  0  0  0  0  0  0  0  0
   -0.1850   -0.1480   -0.9940 O   0  0  0  0  0  0  0  0  0  0  0  0
    1.1570    3.9490    2.8090 H   0  0  0  0  0  0  0  0  0  0  0  0
   -0.6580    3.7770    2.7840 H   0  0  0  0  0  0  0  0  0  0  0  0
    2.3220    2.7900    0.9370 H   0  0  0  0  0  0  0  0  0  0  0  0
    1.6060    2.7830   -0.6710 H   0  0  0  0  0  0  0  0  0  0  0  0
    0.9320    0.9530    1.6830 H   0  0  0  0  0  0  0  0  0  0  0  0
    2.2580    0.3660   -0.9710 H   0  0  0  0  0  0  0  0  0  0  0  0
   -1.5570    1.2000    0.2330 N   0  0  0  0  0  0  0  0  0  0  0  0
   -2.7260    0.7090   -0.4700 C   0  0  1  0  0  0  0  0  0  0  0  0
   -3.7160    0.1540    0.5250 C   0  0  0  0  0  0  0  0  0  0  0  0
   -3.2160   -0.9760    1.3490 C   0  0  0  0  0  0  0  0  0  0  0  0
   -2.8000   -2.1820    0.5660 C   0  0  0  0  0  0  0  0  0  0  0  0
   -3.9390   -2.7590   -0.2520 C   0  0  0  0  0  0  0  0  0  0  0  0
   -3.4590   -3.9190   -0.9790 N   0  0  0  0  0  0  0  0  0  0  0  0
   -3.3910    1.8040   -1.1820 C   0  0  0  0  0  0  0  0  0  0  0  0
   -4.4250    1.5710   -1.8580 O   0  0  0  0  0  0  0  0  0  0  0  0
   -2.9440    3.1050   -1.1590 O   0  0  0  0  0  0  0  0  0  0  0  0
   -1.6540    1.9120    0.9810 H   0  0  0  0  0  0  0  0  0  0  0  0
   -2.4260   -0.0460   -1.2250 H   0  0  0  0  0  0  0  0  0  0  0  0
   -4.6530   -0.0550    0.0090 H   0  0  0  0  0  0  0  0  0  0  0  0
   -3.9380    1.0000    1.2380 H   0  0  0  0  0  0  0  0  0  0  0  0
   -4.0650   -1.2990    2.0030 H   0  0  0  0  0  0  0  0  0  0  0  0
   -2.4160   -0.6590    2.0310 H   0  0  0  0  0  0  0  0  0  0  0  0
   -2.5500   -2.9810    1.3260 H   0  0  0  0  0  0  0  0  0  0  0  0
   -1.8940   -2.0650   -0.0410 H   0  0  0  0  0  0  0  0  0  0  0  0
   -4.4110   -2.0280   -0.9190 H   0  0  0  0  0  0  0  0  0  0  0  0
   -4.7400   -3.1350    0.4310 H   0  0  0  0  0  0  0  0  0  0  0  0
   -3.8430   -3.9500   -1.9500 H   0  0  0  0  0  0  0  0  0  0  0  0
   -2.4130   -3.9000   -1.0050 H   0  0  0  0  0  0  0  0  0  0  0  0
  1 10  1  0  0  0  0
  1  9  1  0  0  0  0
  2  1  1  0  0  0  0
  3 12  1  0  0  0  0
  3  2  1  0  0  0  0
  4  3  1  0  0  0  0
  4  5  1  0  0  0  0
  5 16  1  6  0  0  0
  5  7  1  0  0  0  0
  5  6  1  0  0  0  0
  6 17  1  0  0  0  0
  7  8  2  0  0  0  0
 11  1  1  0  0  0  0
 13  3  1  0  0  0  0
 14  4  1  0  0  0  0
 15  4  1  0  0  0  0
 18  6  1  0  0  0  0
 19 28  1  0  0  0  0
 19 27  1  0  0  0  0
 20 19  1  0  0  0  0
 21 20  2  0  0  0  0
 22 23  1  0  0  0  0
 22 20  1  0  0  0  0
 22 29  1  0  0  0  0
 23 31  1  1  0  0  0
 24 23  1  0  0  0  0
 24  7  1  0  0  0  0
 25 33  1  0  0  0  0
 25 23  1  0  0  0  0
 26 25  2  0  0  0  0
 30 22  1  0  0  0  0
 32 24  1  0  0  0  0
 33 43  1  0  0  0  0
 34 44  1  6  0  0  0
 34 33  1  0  0  0  0
 34 35  1  0  0  0  0
 35 46  1  0  0  0  0
 35 36  1  0  0  0  0
 36 47  1  0  0  0  0
 36 48  1  0  0  0  0
 37 49  1  0  0  0  0
 37 36  1  0  0  0  0
 38 52  1  0  0  0  0
 38 37  1  0  0  0  0
 39 38  1  0  0  0  0
 40 42  1  0  0  0  0
 40 34  1  0  0  0  0
 41 40  2  0  0  0  0
 45 35  1  0  0  0  0
 50 37  1  0  0  0  0
 51 38  1  0  0  0  0
 53 39  1  0  0  0  0
 54 39  1  0  0  0  0
M  END
$$$$
