MNL.pdb
 OpenBabel07022418543D

 52 51  0  0  1  0  0  0  0  0999 V2000
   -0.5360    1.5410    7.5920 C   0  0  0  0  0  0  0  0  0  0  0  0
   -0.1260   -0.2280    7.5800 S   0  0  0  0  0  0  0  0  0  0  0  0
    0.3000   -0.6760    5.8520 C   0  0  0  0  0  0  0  0  0  0  0  0
    1.5680   -0.0110    5.4170 C   0  0  0  0  0  0  0  0  0  0  0  0
    1.9760   -0.3880    4.0490 C   0  0  2  0  0  0  0  0  0  0  0  0
    3.2560    0.2420    3.6910 N   0  0  0  0  0  0  0  0  0  0  0  0
    1.0010   -0.1550    2.9760 C   0  0  0  0  0  0  0  0  0  0  0  0
   -0.2100   -0.1710    3.1570 O   0  0  0  0  0  0  0  0  0  0  0  0
   -1.4160    1.6810    8.2610 H   0  0  0  0  0  0  0  0  0  0  0  0
    0.3110    2.1450    7.9690 H   0  0  0  0  0  0  0  0  0  0  0  0
   -0.7440    1.9040    6.5630 H   0  0  0  0  0  0  0  0  0  0  0  0
    0.3860   -1.7710    5.7290 H   0  0  0  0  0  0  0  0  0  0  0  0
   -0.5550   -0.2750    5.2690 H   0  0  0  0  0  0  0  0  0  0  0  0
    2.4070   -0.2210    6.1290 H   0  0  0  0  0  0  0  0  0  0  0  0
    1.4510    1.1180    5.4430 H   0  0  0  0  0  0  0  0  0  0  0  0
    2.1860   -1.4930    4.0640 H   0  0  0  0  0  0  0  0  0  0  0  0
    3.8560    0.3320    4.5480 H   0  0  0  0  0  0  0  0  0  0  0  0
    3.7590   -0.4140    3.0670 H   0  0  0  0  0  0  0  0  0  0  0  0
    2.7340    0.9040   -2.1160 N   0  0  0  0  0  0  0  0  0  0  0  0
    2.5060    1.3070   -0.7720 C   0  0  0  0  0  0  0  0  0  0  0  0
    3.5280    1.4720   -0.0480 O   0  0  0  0  0  0  0  0  0  0  0  0
    1.1330    1.5180   -0.2580 C   0  0  0  0  0  0  0  0  0  0  0  0
    0.5840    0.3640    0.5140 C   0  0  2  0  0  0  0  0  0  0  0  0
    1.4100    0.1070    1.6360 N   0  0  0  0  0  0  0  0  0  0  0  0
    0.1740   -0.7840   -0.2710 C   0  0  0  0  0  0  0  0  0  0  0  0
    0.4100   -1.9700    0.1090 O   0  0  0  0  0  0  0  0  0  0  0  0
    3.1930    0.0270   -2.3520 H   0  0  0  0  0  0  0  0  0  0  0  0
    2.4090    1.5590   -2.8790 H   0  0  0  0  0  0  0  0  0  0  0  0
    1.1280    2.4700    0.3530 H   0  0  0  0  0  0  0  0  0  0  0  0
    0.5230    1.7850   -1.1480 H   0  0  0  0  0  0  0  0  0  0  0  0
   -0.4080    0.7420    0.9790 H   0  0  0  0  0  0  0  0  0  0  0  0
    2.4540    0.0990    1.4720 H   0  0  0  0  0  0  0  0  0  0  0  0
   -4.4020   -2.2260   -3.7020 C   0  0  0  0  0  0  0  0  0  0  0  0
   -2.9800   -2.7170   -3.3870 C   0  0  0  0  0  0  0  0  0  0  0  0
   -3.1810   -3.9680   -2.5440 C   0  0  0  0  0  0  0  0  0  0  0  0
   -2.3210   -1.6190   -2.6290 C   0  0  0  0  0  0  0  0  0  0  0  0
   -0.9080   -1.8460   -2.2230 C   0  0  2  0  0  0  0  0  0  0  0  0
   -0.5070   -0.6420   -1.4940 N   0  0  0  0  0  0  0  0  0  0  0  0
   -0.0030   -2.0880   -3.3740 C   0  0  0  0  0  0  0  0  0  0  0  0
   -0.2350   -3.1150   -4.0850 O   0  0  0  0  0  0  0  0  0  0  0  0
    1.0560   -1.3120   -3.7440 O   0  0  0  0  0  0  0  0  0  0  0  0
   -5.0960   -3.0510   -3.8690 H   0  0  0  0  0  0  0  0  0  0  0  0
   -4.7230   -1.4830   -2.9540 H   0  0  0  0  0  0  0  0  0  0  0  0
   -4.2810   -1.6390   -4.6570 H   0  0  0  0  0  0  0  0  0  0  0  0
   -2.5380   -3.0040   -4.3300 H   0  0  0  0  0  0  0  0  0  0  0  0
   -3.8460   -4.6460   -3.1200 H   0  0  0  0  0  0  0  0  0  0  0  0
   -3.7630   -3.6530   -1.6390 H   0  0  0  0  0  0  0  0  0  0  0  0
   -2.2260   -4.4550   -2.2820 H   0  0  0  0  0  0  0  0  0  0  0  0
   -2.4930   -0.6640   -3.1730 H   0  0  0  0  0  0  0  0  0  0  0  0
   -2.9040   -1.4800   -1.6720 H   0  0  0  0  0  0  0  0  0  0  0  0
   -0.8270   -2.7040   -1.5520 H   0  0  0  0  0  0  0  0  0  0  0  0
   -0.7410    0.2820   -1.9320 H   0  0  0  0  0  0  0  0  0  0  0  0
  1 10  1  0  0  0  0
  1  9  1  0  0  0  0
  2  1  1  0  0  0  0
  3  2  1  0  0  0  0
  4 15  1  0  0  0  0
  4  3  1  0  0  0  0
  4 14  1  0  0  0  0
  5 16  1  1  0  0  0
  5  4  1  0  0  0  0
  6  5  1  0  0  0  0
  6 17  1  0  0  0  0
  7  8  2  0  0  0  0
  7  5  1  0  0  0  0
 11  1  1  0  0  0  0
 12  3  1  0  0  0  0
 13  3  1  0  0  0  0
 18  6  1  0  0  0  0
 19 20  1  0  0  0  0
 20 22  1  0  0  0  0
 20 21  2  0  0  0  0
 22 29  1  0  0  0  0
 22 23  1  0  0  0  0
 23 31  1  1  0  0  0
 23 24  1  0  0  0  0
 24  7  1  0  0  0  0
 25 26  2  0  0  0  0
 25 23  1  0  0  0  0
 27 19  1  0  0  0  0
 28 19  1  0  0  0  0
 30 22  1  0  0  0  0
 32 24  1  0  0  0  0
 33 34  1  0  0  0  0
 33 43  1  0  0  0  0
 34 36  1  0  0  0  0
 34 35  1  0  0  0  0
 35 48  1  0  0  0  0
 35 47  1  0  0  0  0
 36 37  1  0  0  0  0
 36 50  1  0  0  0  0
 37 51  1  1  0  0  0
 37 38  1  0  0  0  0
 38 25  1  0  0  0  0
 39 37  1  0  0  0  0
 40 39  2  0  0  0  0
 41 39  1  0  0  0  0
 42 33  1  0  0  0  0
 44 33  1  0  0  0  0
 45 34  1  0  0  0  0
 46 35  1  0  0  0  0
 49 36  1  0  0  0  0
 52 38  1  0  0  0  0
M  END
$$$$
