MNM.pdb
 OpenBabel07022418543D

 50 49  0  0  1  0  0  0  0  0999 V2000
    0.0540   -3.3620    3.3310 C   0  0  0  0  0  0  0  0  0  0  0  0
    0.3800   -2.2830    4.7650 S   0  0  0  0  0  0  0  0  0  0  0  0
    1.1890   -0.7650    4.1990 C   0  0  0  0  0  0  0  0  0  0  0  0
    2.5610   -1.1640    3.6640 C   0  0  0  0  0  0  0  0  0  0  0  0
    3.3330    0.0350    3.1570 C   0  0  2  0  0  0  0  0  0  0  0  0
    3.5440    1.0020    4.1990 N   0  0  0  0  0  0  0  0  0  0  0  0
    2.5760    0.5980    2.0120 C   0  0  0  0  0  0  0  0  0  0  0  0
    2.2550    1.8220    2.0780 O   0  0  0  0  0  0  0  0  0  0  0  0
   -0.8730   -3.0040    2.8410 H   0  0  0  0  0  0  0  0  0  0  0  0
    0.8790   -3.3480    2.6020 H   0  0  0  0  0  0  0  0  0  0  0  0
   -0.0990   -4.4060    3.7240 H   0  0  0  0  0  0  0  0  0  0  0  0
    1.2490   -0.0260    5.0130 H   0  0  0  0  0  0  0  0  0  0  0  0
    0.5680   -0.3280    3.3950 H   0  0  0  0  0  0  0  0  0  0  0  0
    3.1150   -1.7340    4.4220 H   0  0  0  0  0  0  0  0  0  0  0  0
    2.3480   -1.8780    2.8250 H   0  0  0  0  0  0  0  0  0  0  0  0
    4.3310   -0.3450    2.8550 H   0  0  0  0  0  0  0  0  0  0  0  0
    4.2180    0.5620    4.8850 H   0  0  0  0  0  0  0  0  0  0  0  0
    4.0750    1.8080    3.7660 H   0  0  0  0  0  0  0  0  0  0  0  0
    2.9450    0.5610   -3.7840 N   0  0  0  0  0  0  0  0  0  0  0  0
    2.0610    0.8540   -2.6840 C   0  0  0  0  0  0  0  0  0  0  0  0
    1.0740    1.5340   -2.9530 O   0  0  0  0  0  0  0  0  0  0  0  0
    2.3940    0.3420   -1.3920 C   0  0  0  0  0  0  0  0  0  0  0  0
    1.4320    0.5230   -0.2420 C   0  0  2  0  0  0  0  0  0  0  0  0
    2.1980   -0.1160    0.8810 N   0  0  0  0  0  0  0  0  0  0  0  0
    0.1610   -0.2190   -0.3830 C   0  0  0  0  0  0  0  0  0  0  0  0
    0.0810   -1.3480    0.2090 O   0  0  0  0  0  0  0  0  0  0  0  0
    3.2250    1.3200   -4.4410 H   0  0  0  0  0  0  0  0  0  0  0  0
    3.3330   -0.3860   -3.9730 H   0  0  0  0  0  0  0  0  0  0  0  0
    2.6350   -0.7810   -1.4080 H   0  0  0  0  0  0  0  0  0  0  0  0
    3.3820    0.7530   -0.9910 H   0  0  0  0  0  0  0  0  0  0  0  0
    1.2690    1.5860   -0.0520 H   0  0  0  0  0  0  0  0  0  0  0  0
    2.4270   -1.1090    0.7700 H   0  0  0  0  0  0  0  0  0  0  0  0
   -4.1140   -1.9640    2.1130 C   0  0  0  0  0  0  0  0  0  0  0  0
   -4.3370   -2.3200    0.3430 S   0  0  0  0  0  0  0  0  0  0  0  0
   -4.5650   -0.7630   -0.5880 C   0  0  0  0  0  0  0  0  0  0  0  0
   -3.3220    0.0730   -0.5650 C   0  0  0  0  0  0  0  0  0  0  0  0
   -2.1530   -0.6430   -1.1550 C   0  0  2  0  0  0  0  0  0  0  0  0
   -0.9520    0.2150   -1.1010 N   0  0  0  0  0  0  0  0  0  0  0  0
   -2.3590   -1.1230   -2.5290 C   0  0  0  0  0  0  0  0  0  0  0  0
   -1.5670   -0.7200   -3.4460 O   0  0  0  0  0  0  0  0  0  0  0  0
   -3.3520   -1.9900   -2.9250 O   0  0  0  0  0  0  0  0  0  0  0  0
   -3.1650   -2.3900    2.5110 H   0  0  0  0  0  0  0  0  0  0  0  0
   -4.1140   -0.8670    2.2630 H   0  0  0  0  0  0  0  0  0  0  0  0
   -4.9360   -2.3940    2.7150 H   0  0  0  0  0  0  0  0  0  0  0  0
   -5.4280   -0.2270   -0.1050 H   0  0  0  0  0  0  0  0  0  0  0  0
   -4.8830   -1.0260   -1.6030 H   0  0  0  0  0  0  0  0  0  0  0  0
   -3.0840    0.4210    0.4570 H   0  0  0  0  0  0  0  0  0  0  0  0
   -3.5360    0.9820   -1.1790 H   0  0  0  0  0  0  0  0  0  0  0  0
   -1.9430   -1.5270   -0.5330 H   0  0  0  0  0  0  0  0  0  0  0  0
   -1.0290    1.1010   -1.5860 H   0  0  0  0  0  0  0  0  0  0  0  0
  1 11  1  0  0  0  0
  1  2  1  0  0  0  0
  3  2  1  0  0  0  0
  3 12  1  0  0  0  0
  4  3  1  0  0  0  0
  4 14  1  0  0  0  0
  5 16  1  6  0  0  0
  5  4  1  0  0  0  0
  5  6  1  0  0  0  0
  6 17  1  0  0  0  0
  7  8  2  0  0  0  0
  7  5  1  0  0  0  0
  9  1  1  0  0  0  0
 10  1  1  0  0  0  0
 13  3  1  0  0  0  0
 15  4  1  0  0  0  0
 18  6  1  0  0  0  0
 19 20  1  0  0  0  0
 20 22  1  0  0  0  0
 21 20  2  0  0  0  0
 22 30  1  0  0  0  0
 22 23  1  0  0  0  0
 23 31  1  1  0  0  0
 23 24  1  0  0  0  0
 24  7  1  0  0  0  0
 25 23  1  0  0  0  0
 25 26  2  0  0  0  0
 27 19  1  0  0  0  0
 28 19  1  0  0  0  0
 29 22  1  0  0  0  0
 32 24  1  0  0  0  0
 33 43  1  0  0  0  0
 33 42  1  0  0  0  0
 33 44  1  0  0  0  0
 34 33  1  0  0  0  0
 35 36  1  0  0  0  0
 35 45  1  0  0  0  0
 35 34  1  0  0  0  0
 36 47  1  0  0  0  0
 37 38  1  0  0  0  0
 37 36  1  0  0  0  0
 37 49  1  1  0  0  0
 38 25  1  0  0  0  0
 39 37  1  0  0  0  0
 40 39  2  0  0  0  0
 41 39  1  0  0  0  0
 46 35  1  0  0  0  0
 48 36  1  0  0  0  0
 50 38  1  0  0  0  0
M  END
$$$$
