MNN.pdb
 OpenBabel07022418533D

 47 46  0  0  1  0  0  0  0  0999 V2000
    2.7930   -4.7550   -0.5660 C   0  0  0  0  0  0  0  0  0  0  0  0
    4.2860   -4.0520    0.0830 S   0  0  0  0  0  0  0  0  0  0  0  0
    4.3090   -3.4550    1.7300 C   0  0  0  0  0  0  0  0  0  0  0  0
    3.6720   -2.1450    2.0000 C   0  0  0  0  0  0  0  0  0  0  0  0
    2.2540   -2.0490    1.6590 C   0  0  2  0  0  0  0  0  0  0  0  0
    1.9680   -2.2200    0.2810 N   0  0  0  0  0  0  0  0  0  0  0  0
    1.5970   -0.8070    2.1960 C   0  0  0  0  0  0  0  0  0  0  0  0
    1.7450   -0.5090    3.3980 O   0  0  0  0  0  0  0  0  0  0  0  0
    1.9790   -4.8770    0.1690 H   0  0  0  0  0  0  0  0  0  0  0  0
    2.4470   -4.1930   -1.4460 H   0  0  0  0  0  0  0  0  0  0  0  0
    2.9800   -5.8210   -0.9360 H   0  0  0  0  0  0  0  0  0  0  0  0
    5.3520   -3.5030    2.1890 H   0  0  0  0  0  0  0  0  0  0  0  0
    3.7710   -4.2510    2.3780 H   0  0  0  0  0  0  0  0  0  0  0  0
    3.7790   -1.9390    3.1240 H   0  0  0  0  0  0  0  0  0  0  0  0
    4.2730   -1.3490    1.4610 H   0  0  0  0  0  0  0  0  0  0  0  0
    1.7290   -2.9050    2.2000 H   0  0  0  0  0  0  0  0  0  0  0  0
    0.9770   -2.2310    0.0250 H   0  0  0  0  0  0  0  0  0  0  0  0
    2.6100   -1.7630   -0.3710 H   0  0  0  0  0  0  0  0  0  0  0  0
    3.0900    2.1630    0.3040 N   0  0  0  0  0  0  0  0  0  0  0  0
    2.2040    2.5640    1.3290 C   0  0  0  0  0  0  0  0  0  0  0  0
    2.6800    3.0200    2.3900 O   0  0  0  0  0  0  0  0  0  0  0  0
    0.7650    2.4510    1.1570 C   0  0  0  0  0  0  0  0  0  0  0  0
    0.1740    1.2520    1.9060 C   0  0  2  0  0  0  0  0  0  0  0  0
    0.8070    0.0520    1.3830 N   0  0  0  0  0  0  0  0  0  0  0  0
   -1.2880    1.2690    1.5770 C   0  0  0  0  0  0  0  0  0  0  0  0
   -2.0340    2.2170    1.9340 O   0  0  0  0  0  0  0  0  0  0  0  0
    2.7690    1.6200   -0.5460 H   0  0  0  0  0  0  0  0  0  0  0  0
    4.0980    2.3920    0.3530 H   0  0  0  0  0  0  0  0  0  0  0  0
    0.1980    3.3360    1.5540 H   0  0  0  0  0  0  0  0  0  0  0  0
    0.4970    2.4020    0.0800 H   0  0  0  0  0  0  0  0  0  0  0  0
    0.3820    1.3910    2.9660 H   0  0  0  0  0  0  0  0  0  0  0  0
    0.7110   -0.2380    0.3830 H   0  0  0  0  0  0  0  0  0  0  0  0
   -5.6830    1.5430   -1.5180 N   0  0  0  0  0  0  0  0  0  0  0  0
   -4.9610    0.3350   -1.3570 C   0  0  0  0  0  0  0  0  0  0  0  0
   -5.5490   -0.7520   -1.5580 O   0  0  0  0  0  0  0  0  0  0  0  0
   -3.5420    0.3260   -0.9620 C   0  0  0  0  0  0  0  0  0  0  0  0
   -3.3400    0.2220    0.5160 C   0  0  2  0  0  0  0  0  0  0  0  0
   -1.9100    0.2190    0.8460 N   0  0  0  0  0  0  0  0  0  0  0  0
   -4.0490   -0.8750    1.1750 C   0  0  0  0  0  0  0  0  0  0  0  0
   -3.4280   -1.6950    1.9010 O   0  0  0  0  0  0  0  0  0  0  0  0
   -5.4040   -1.0490    1.0260 O   0  0  0  0  0  0  0  0  0  0  0  0
   -6.7230    1.5480   -1.5540 H   0  0  0  0  0  0  0  0  0  0  0  0
   -5.1840    2.4510   -1.6020 H   0  0  0  0  0  0  0  0  0  0  0  0
   -3.0740   -0.5780   -1.4380 H   0  0  0  0  0  0  0  0  0  0  0  0
   -3.0200    1.2460   -1.3340 H   0  0  0  0  0  0  0  0  0  0  0  0
   -3.7360    1.1770    0.9600 H   0  0  0  0  0  0  0  0  0  0  0  0
   -1.2920   -0.5750    0.5460 H   0  0  0  0  0  0  0  0  0  0  0  0
  1  2  1  0  0  0  0
  1  9  1  0  0  0  0
  2  3  1  0  0  0  0
  3  4  1  0  0  0  0
  3 12  1  0  0  0  0
  3 13  1  0  0  0  0
  4 14  1  0  0  0  0
  5  4  1  0  0  0  0
  5  7  1  0  0  0  0
  5 16  1  1  0  0  0
  6  5  1  0  0  0  0
  7  8  2  0  0  0  0
 10  1  1  0  0  0  0
 11  1  1  0  0  0  0
 15  4  1  0  0  0  0
 17  6  1  0  0  0  0
 18  6  1  0  0  0  0
 19 28  1  0  0  0  0
 19 20  1  0  0  0  0
 20 21  2  0  0  0  0
 22 20  1  0  0  0  0
 22 29  1  0  0  0  0
 22 23  1  0  0  0  0
 23 31  1  1  0  0  0
 24 23  1  0  0  0  0
 24  7  1  0  0  0  0
 25 23  1  0  0  0  0
 25 26  2  0  0  0  0
 27 19  1  0  0  0  0
 30 22  1  0  0  0  0
 32 24  1  0  0  0  0
 33 34  1  0  0  0  0
 34 36  1  0  0  0  0
 35 34  2  0  0  0  0
 36 37  1  0  0  0  0
 37 38  1  0  0  0  0
 37 46  1  1  0  0  0
 37 39  1  0  0  0  0
 38 25  1  0  0  0  0
 39 40  1  0  0  0  0
 41 39  2  0  0  0  0
 42 33  1  0  0  0  0
 43 33  1  0  0  0  0
 44 36  1  0  0  0  0
 45 36  1  0  0  0  0
 47 38  1  0  0  0  0
M  END
$$$$
