MNP.pdb
 OpenBabel07022418543D

 47 47  0  0  1  0  0  0  0  0999 V2000
    0.2930   -4.1220    4.4120 C   0  0  0  0  0  0  0  0  0  0  0  0
    2.0340   -3.8480    4.5890 S   0  0  0  0  0  0  0  0  0  0  0  0
    2.6370   -2.2240    4.8030 C   0  0  0  0  0  0  0  0  0  0  0  0
    2.7100   -1.3010    3.6450 C   0  0  0  0  0  0  0  0  0  0  0  0
    1.4290   -1.0600    2.9730 C   0  0  2  0  0  0  0  0  0  0  0  0
    0.9150   -2.2790    2.4160 N   0  0  0  0  0  0  0  0  0  0  0  0
    1.4770   -0.0320    1.9080 C   0  0  0  0  0  0  0  0  0  0  0  0
    1.9380    1.1180    2.0550 O   0  0  0  0  0  0  0  0  0  0  0  0
   -0.0760   -4.8470    5.2120 H   0  0  0  0  0  0  0  0  0  0  0  0
    0.0640   -4.5960    3.4440 H   0  0  0  0  0  0  0  0  0  0  0  0
   -0.3740   -3.2540    4.5460 H   0  0  0  0  0  0  0  0  0  0  0  0
    3.7050   -2.2960    5.2090 H   0  0  0  0  0  0  0  0  0  0  0  0
    2.0390   -1.7120    5.6450 H   0  0  0  0  0  0  0  0  0  0  0  0
    3.1410   -0.3070    3.9510 H   0  0  0  0  0  0  0  0  0  0  0  0
    3.4080   -1.7770    2.9010 H   0  0  0  0  0  0  0  0  0  0  0  0
    0.6200   -0.7080    3.6970 H   0  0  0  0  0  0  0  0  0  0  0  0
    1.5250   -2.5820    1.6450 H   0  0  0  0  0  0  0  0  0  0  0  0
   -0.0790   -2.2690    2.1630 H   0  0  0  0  0  0  0  0  0  0  0  0
    2.8890    0.7770   -3.8040 N   0  0  0  0  0  0  0  0  0  0  0  0
    2.1520    1.1950   -2.6330 C   0  0  0  0  0  0  0  0  0  0  0  0
    1.7260    2.3710   -2.6570 O   0  0  0  0  0  0  0  0  0  0  0  0
    1.9680    0.2350   -1.5450 C   0  0  0  0  0  0  0  0  0  0  0  0
    1.0170    0.6620   -0.4610 C   0  0  2  0  0  0  0  0  0  0  0  0
    0.9700   -0.3350    0.5970 N   0  0  0  0  0  0  0  0  0  0  0  0
   -0.3140    0.8090   -1.0350 C   0  0  0  0  0  0  0  0  0  0  0  0
   -0.4840    1.5440   -2.0830 O   0  0  0  0  0  0  0  0  0  0  0  0
    3.9050    0.9360   -3.8050 H   0  0  0  0  0  0  0  0  0  0  0  0
    2.4080    0.3400   -4.5970 H   0  0  0  0  0  0  0  0  0  0  0  0
    2.9720   -0.0320   -1.1600 H   0  0  0  0  0  0  0  0  0  0  0  0
    1.6110   -0.7220   -2.0270 H   0  0  0  0  0  0  0  0  0  0  0  0
    1.3730    1.6390   -0.0960 H   0  0  0  0  0  0  0  0  0  0  0  0
    0.5880   -1.2760    0.4050 H   0  0  0  0  0  0  0  0  0  0  0  0
   -1.5620    0.2130   -0.5740 N   0  0  0  0  0  0  0  0  0  0  0  0
   -1.8050   -0.6030    0.5680 C   0  0  0  0  0  0  0  0  0  0  0  0
   -3.3040   -0.4370    0.8760 C   0  0  0  0  0  0  0  0  0  0  0  0
   -3.8390   -0.3420   -0.5180 C   0  0  0  0  0  0  0  0  0  0  0  0
   -2.8160    0.3660   -1.3160 C   0  0  1  0  0  0  0  0  0  0  0  0
   -3.2080    1.8000   -1.3910 C   0  0  0  0  0  0  0  0  0  0  0  0
   -2.4950    2.6390   -0.8120 O   0  0  0  0  0  0  0  0  0  0  0  0
   -4.3340    2.1740   -2.0860 O   0  0  0  0  0  0  0  0  0  0  0  0
   -1.2370   -0.3030    1.4800 H   0  0  0  0  0  0  0  0  0  0  0  0
   -1.7200   -1.7100    0.3610 H   0  0  0  0  0  0  0  0  0  0  0  0
   -3.6580   -1.3320    1.4250 H   0  0  0  0  0  0  0  0  0  0  0  0
   -3.4600    0.4460    1.4910 H   0  0  0  0  0  0  0  0  0  0  0  0
   -4.7930    0.2270   -0.4860 H   0  0  0  0  0  0  0  0  0  0  0  0
   -4.1230   -1.3530   -0.9210 H   0  0  0  0  0  0  0  0  0  0  0  0
   -2.7280   -0.0620   -2.3420 H   0  0  0  0  0  0  0  0  0  0  0  0
  1 11  1  0  0  0  0
  1  2  1  0  0  0  0
  1  9  1  0  0  0  0
  2  3  1  0  0  0  0
  3 12  1  0  0  0  0
  3 13  1  0  0  0  0
  4 14  1  0  0  0  0
  4  3  1  0  0  0  0
  5  4  1  0  0  0  0
  5 16  1  1  0  0  0
  6  5  1  0  0  0  0
  7  8  2  0  0  0  0
  7  5  1  0  0  0  0
 10  1  1  0  0  0  0
 15  4  1  0  0  0  0
 17  6  1  0  0  0  0
 18  6  1  0  0  0  0
 19 20  1  0  0  0  0
 20 22  1  0  0  0  0
 21 20  2  0  0  0  0
 22 29  1  0  0  0  0
 22 23  1  0  0  0  0
 23 31  1  1  0  0  0
 23 24  1  0  0  0  0
 24  7  1  0  0  0  0
 25 33  1  0  0  0  0
 25 23  1  0  0  0  0
 26 25  2  0  0  0  0
 27 19  1  0  0  0  0
 28 19  1  0  0  0  0
 30 22  1  0  0  0  0
 32 24  1  0  0  0  0
 33 34  1  0  0  0  0
 34 35  1  0  0  0  0
 34 41  1  0  0  0  0
 35 43  1  0  0  0  0
 35 44  1  0  0  0  0
 36 45  1  0  0  0  0
 36 35  1  0  0  0  0
 37 47  1  6  0  0  0
 37 33  1  0  0  0  0
 37 36  1  0  0  0  0
 38 37  1  0  0  0  0
 38 39  1  0  0  0  0
 40 38  2  0  0  0  0
 42 34  1  0  0  0  0
 46 36  1  0  0  0  0
M  END
$$$$
