MNS.pdb
 OpenBabel07022418543D

 44 43  0  0  1  0  0  0  0  0999 V2000
   -1.1830   -3.4850    2.2220 C   0  0  0  0  0  0  0  0  0  0  0  0
   -0.1400   -3.0750    3.5660 S   0  0  0  0  0  0  0  0  0  0  0  0
    1.3060   -2.1100    3.3330 C   0  0  0  0  0  0  0  0  0  0  0  0
    2.4650   -2.6740    2.6140 C   0  0  0  0  0  0  0  0  0  0  0  0
    2.2530   -3.0040    1.1810 C   0  0  2  0  0  0  0  0  0  0  0  0
    3.5580   -3.5760    0.6980 N   0  0  0  0  0  0  0  0  0  0  0  0
    2.0810   -1.8030    0.3300 C   0  0  0  0  0  0  0  0  0  0  0  0
    3.1180   -1.2430   -0.1790 O   0  0  0  0  0  0  0  0  0  0  0  0
   -2.0490   -4.1120    2.6490 H   0  0  0  0  0  0  0  0  0  0  0  0
   -1.6860   -2.6230    1.7190 H   0  0  0  0  0  0  0  0  0  0  0  0
   -0.7190   -4.1490    1.4850 H   0  0  0  0  0  0  0  0  0  0  0  0
    1.6880   -1.8170    4.3740 H   0  0  0  0  0  0  0  0  0  0  0  0
    1.0190   -1.1150    2.8500 H   0  0  0  0  0  0  0  0  0  0  0  0
    2.6790   -3.6770    3.1250 H   0  0  0  0  0  0  0  0  0  0  0  0
    3.4150   -2.1110    2.7920 H   0  0  0  0  0  0  0  0  0  0  0  0
    1.5330   -3.7970    1.0590 H   0  0  0  0  0  0  0  0  0  0  0  0
    4.1750   -2.8050    0.3830 H   0  0  0  0  0  0  0  0  0  0  0  0
    3.2840   -4.1420   -0.1330 H   0  0  0  0  0  0  0  0  0  0  0  0
    1.4810    1.6360   -3.6140 N   0  0  0  0  0  0  0  0  0  0  0  0
    0.3710    0.9410   -3.0950 C   0  0  0  0  0  0  0  0  0  0  0  0
   -0.7810    1.4330   -3.3530 O   0  0  0  0  0  0  0  0  0  0  0  0
    0.4420   -0.3010   -2.2780 C   0  0  0  0  0  0  0  0  0  0  0  0
    0.7870    0.0190   -0.8330 C   0  0  2  0  0  0  0  0  0  0  0  0
    0.8540   -1.1790    0.0020 N   0  0  0  0  0  0  0  0  0  0  0  0
   -0.0330    1.0940   -0.2540 C   0  0  0  0  0  0  0  0  0  0  0  0
   -0.1200    2.1610   -0.9130 O   0  0  0  0  0  0  0  0  0  0  0  0
    1.5940    2.6420   -3.4020 H   0  0  0  0  0  0  0  0  0  0  0  0
    2.1780    1.1540   -4.1980 H   0  0  0  0  0  0  0  0  0  0  0  0
   -0.5240   -0.8330   -2.3640 H   0  0  0  0  0  0  0  0  0  0  0  0
    1.2200   -0.9400   -2.7370 H   0  0  0  0  0  0  0  0  0  0  0  0
    1.8510    0.4000   -0.8710 H   0  0  0  0  0  0  0  0  0  0  0  0
   -0.0080   -1.6220    0.3840 H   0  0  0  0  0  0  0  0  0  0  0  0
   -3.0660    0.5120    2.2460 O   0  0  0  0  0  0  0  0  0  0  0  0
   -2.9660    1.6800    1.4660 C   0  0  0  0  0  0  0  0  0  0  0  0
   -1.5110    2.1080    1.5160 C   0  0  2  0  0  0  0  0  0  0  0  0
   -0.7240    1.0230    0.9780 N   0  0  0  0  0  0  0  0  0  0  0  0
   -1.1760    2.4470    2.8940 C   0  0  0  0  0  0  0  0  0  0  0  0
   -0.2850    1.8200    3.5200 O   0  0  0  0  0  0  0  0  0  0  0  0
   -1.8320    3.4770    3.5530 O   0  0  0  0  0  0  0  0  0  0  0  0
   -2.7490   -0.2830    1.7270 H   0  0  0  0  0  0  0  0  0  0  0  0
   -3.2530    1.4300    0.4410 H   0  0  0  0  0  0  0  0  0  0  0  0
   -3.6280    2.4790    1.8740 H   0  0  0  0  0  0  0  0  0  0  0  0
   -1.4500    3.0210    0.8810 H   0  0  0  0  0  0  0  0  0  0  0  0
   -0.6600    0.1410    1.5250 H   0  0  0  0  0  0  0  0  0  0  0  0
  1  9  1  0  0  0  0
  1  2  1  0  0  0  0
  3  2  1  0  0  0  0
  3 12  1  0  0  0  0
  4 15  1  0  0  0  0
  4 14  1  0  0  0  0
  4  3  1  0  0  0  0
  5 16  1  6  0  0  0
  5  4  1  0  0  0  0
  6  5  1  0  0  0  0
  7  5  1  0  0  0  0
  8  7  2  0  0  0  0
 10  1  1  0  0  0  0
 11  1  1  0  0  0  0
 13  3  1  0  0  0  0
 17  6  1  0  0  0  0
 18  6  1  0  0  0  0
 19 27  1  0  0  0  0
 19 20  1  0  0  0  0
 20 22  1  0  0  0  0
 21 20  2  0  0  0  0
 22 23  1  0  0  0  0
 23 31  1  6  0  0  0
 23 25  1  0  0  0  0
 23 24  1  0  0  0  0
 24  7  1  0  0  0  0
 24 32  1  0  0  0  0
 25 36  1  0  0  0  0
 26 25  2  0  0  0  0
 28 19  1  0  0  0  0
 29 22  1  0  0  0  0
 30 22  1  0  0  0  0
 34 35  1  0  0  0  0
 34 42  1  0  0  0  0
 34 33  1  0  0  0  0
 35 43  1  6  0  0  0
 35 37  1  0  0  0  0
 36 35  1  0  0  0  0
 36 44  1  0  0  0  0
 37 38  2  0  0  0  0
 37 39  1  0  0  0  0
 40 33  1  0  0  0  0
 41 34  1  0  0  0  0
M  END
$$$$
