MNV.pdb
 OpenBabel07022418543D

 49 48  0  0  1  0  0  0  0  0999 V2000
    2.0050   -2.5140    6.7980 C   0  0  0  0  0  0  0  0  0  0  0  0
    1.9080   -0.7140    6.9820 S   0  0  0  0  0  0  0  0  0  0  0  0
    0.7820    0.0030    5.7490 C   0  0  0  0  0  0  0  0  0  0  0  0
    1.4140   -0.2130    4.3990 C   0  0  0  0  0  0  0  0  0  0  0  0
    0.5450    0.3520    3.2730 C   0  0  2  0  0  0  0  0  0  0  0  0
   -0.7500   -0.2820    3.2550 N   0  0  0  0  0  0  0  0  0  0  0  0
    1.2940    0.0990    2.0150 C   0  0  0  0  0  0  0  0  0  0  0  0
    2.4360    0.6160    1.9230 O   0  0  0  0  0  0  0  0  0  0  0  0
    1.4110   -3.0220    7.5590 H   0  0  0  0  0  0  0  0  0  0  0  0
    3.0560   -2.8130    6.9190 H   0  0  0  0  0  0  0  0  0  0  0  0
    1.6720   -2.8240    5.7740 H   0  0  0  0  0  0  0  0  0  0  0  0
    0.7590    1.1020    5.9340 H   0  0  0  0  0  0  0  0  0  0  0  0
   -0.2070   -0.4580    5.7500 H   0  0  0  0  0  0  0  0  0  0  0  0
    2.4070    0.2780    4.4140 H   0  0  0  0  0  0  0  0  0  0  0  0
    1.5730   -1.2780    4.1720 H   0  0  0  0  0  0  0  0  0  0  0  0
    0.3910    1.4410    3.4350 H   0  0  0  0  0  0  0  0  0  0  0  0
   -0.6090   -1.2650    3.5710 H   0  0  0  0  0  0  0  0  0  0  0  0
   -1.3930    0.2510    3.8940 H   0  0  0  0  0  0  0  0  0  0  0  0
    2.5050   -4.2210   -1.9540 N   0  0  0  0  0  0  0  0  0  0  0  0
    2.4320   -2.8330   -1.6610 C   0  0  0  0  0  0  0  0  0  0  0  0
    2.9970   -2.0190   -2.4080 O   0  0  0  0  0  0  0  0  0  0  0  0
    1.6900   -2.3990   -0.4830 C   0  0  0  0  0  0  0  0  0  0  0  0
    1.5440   -0.9210   -0.2970 C   0  0  2  0  0  0  0  0  0  0  0  0
    0.8100   -0.6680    0.9470 N   0  0  0  0  0  0  0  0  0  0  0  0
    0.7310   -0.3020   -1.3780 C   0  0  0  0  0  0  0  0  0  0  0  0
    1.1360   -0.3250   -2.5510 O   0  0  0  0  0  0  0  0  0  0  0  0
    3.1210   -4.6200   -2.6900 H   0  0  0  0  0  0  0  0  0  0  0  0
    1.9210   -4.9320   -1.4250 H   0  0  0  0  0  0  0  0  0  0  0  0
    0.6900   -2.8820   -0.5290 H   0  0  0  0  0  0  0  0  0  0  0  0
    2.2720   -2.7870    0.4070 H   0  0  0  0  0  0  0  0  0  0  0  0
    2.5090   -0.4020   -0.2210 H   0  0  0  0  0  0  0  0  0  0  0  0
   -0.1340   -1.0960    1.0220 H   0  0  0  0  0  0  0  0  0  0  0  0
   -2.4170   -1.2490   -2.7070 C   0  0  0  0  0  0  0  0  0  0  0  0
   -2.5940    0.2230   -2.3980 C   0  0  0  0  0  0  0  0  0  0  0  0
   -3.2540    0.8490   -3.6010 C   0  0  0  0  0  0  0  0  0  0  0  0
   -1.2520    0.9060   -2.2030 C   0  0  2  0  0  0  0  0  0  0  0  0
   -0.5090    0.3250   -1.1180 N   0  0  0  0  0  0  0  0  0  0  0  0
   -1.5440    2.3510   -1.9600 C   0  0  0  0  0  0  0  0  0  0  0  0
   -2.1840    3.0430   -2.7860 O   0  0  0  0  0  0  0  0  0  0  0  0
   -1.1090    2.9680   -0.7980 O   0  0  0  0  0  0  0  0  0  0  0  0
   -3.4100   -1.6620   -2.9690 H   0  0  0  0  0  0  0  0  0  0  0  0
   -1.7830   -1.3710   -3.6080 H   0  0  0  0  0  0  0  0  0  0  0  0
   -2.0470   -1.8230   -1.8400 H   0  0  0  0  0  0  0  0  0  0  0  0
   -3.1890    0.3000   -1.4840 H   0  0  0  0  0  0  0  0  0  0  0  0
   -2.5400    1.3070   -4.3080 H   0  0  0  0  0  0  0  0  0  0  0  0
   -3.8150    0.0810   -4.1960 H   0  0  0  0  0  0  0  0  0  0  0  0
   -3.9770    1.6370   -3.3010 H   0  0  0  0  0  0  0  0  0  0  0  0
   -0.6820    0.7950   -3.1400 H   0  0  0  0  0  0  0  0  0  0  0  0
   -0.9030    0.3790   -0.1580 H   0  0  0  0  0  0  0  0  0  0  0  0
  1 10  1  0  0  0  0
  1  2  1  0  0  0  0
  1  9  1  0  0  0  0
  3 13  1  0  0  0  0
  3 12  1  0  0  0  0
  3  2  1  0  0  0  0
  4 14  1  0  0  0  0
  4  3  1  0  0  0  0
  5 16  1  1  0  0  0
  5  4  1  0  0  0  0
  6  5  1  0  0  0  0
  6 17  1  0  0  0  0
  6 18  1  0  0  0  0
  7  5  1  0  0  0  0
  8  7  2  0  0  0  0
 11  1  1  0  0  0  0
 15  4  1  0  0  0  0
 19 20  1  0  0  0  0
 19 28  1  0  0  0  0
 20 22  1  0  0  0  0
 21 20  2  0  0  0  0
 22 23  1  0  0  0  0
 22 30  1  0  0  0  0
 23 31  1  1  0  0  0
 23 24  1  0  0  0  0
 24 32  1  0  0  0  0
 24  7  1  0  0  0  0
 25 37  1  0  0  0  0
 25 23  1  0  0  0  0
 26 25  2  0  0  0  0
 27 19  1  0  0  0  0
 29 22  1  0  0  0  0
 33 34  1  0  0  0  0
 33 43  1  0  0  0  0
 34 36  1  0  0  0  0
 34 44  1  0  0  0  0
 35 47  1  0  0  0  0
 35 34  1  0  0  0  0
 36 48  1  6  0  0  0
 36 38  1  0  0  0  0
 36 37  1  0  0  0  0
 37 49  1  0  0  0  0
 38 40  1  0  0  0  0
 39 38  2  0  0  0  0
 41 33  1  0  0  0  0
 42 33  1  0  0  0  0
 45 35  1  0  0  0  0
 46 35  1  0  0  0  0
M  END
$$$$
