MNW.pdb
 OpenBabel07022418543D

 57 58  0  0  1  0  0  0  0  0999 V2000
    1.3350    3.0700    7.3020 C   0  0  0  0  0  0  0  0  0  0  0  0
    2.9740    2.7080    6.7020 S   0  0  0  0  0  0  0  0  0  0  0  0
    3.1650    1.1800    5.8090 C   0  0  0  0  0  0  0  0  0  0  0  0
    2.5300    1.1470    4.4470 C   0  0  0  0  0  0  0  0  0  0  0  0
    1.0870    1.3950    4.5220 C   0  0  2  0  0  0  0  0  0  0  0  0
    0.4220    0.4130    5.3450 N   0  0  0  0  0  0  0  0  0  0  0  0
    0.3940    1.3250    3.1880 C   0  0  0  0  0  0  0  0  0  0  0  0
   -0.8520    1.2650    3.1030 O   0  0  0  0  0  0  0  0  0  0  0  0
    0.6480    2.2350    7.3770 H   0  0  0  0  0  0  0  0  0  0  0  0
    1.3910    3.4910    8.3630 H   0  0  0  0  0  0  0  0  0  0  0  0
    0.9140    3.9410    6.7250 H   0  0  0  0  0  0  0  0  0  0  0  0
    4.2720    0.9160    5.7140 H   0  0  0  0  0  0  0  0  0  0  0  0
    2.7470    0.2980    6.3640 H   0  0  0  0  0  0  0  0  0  0  0  0
    2.8080    0.1720    3.9770 H   0  0  0  0  0  0  0  0  0  0  0  0
    3.0790    1.9370    3.8480 H   0  0  0  0  0  0  0  0  0  0  0  0
    0.8980    2.4030    4.9550 H   0  0  0  0  0  0  0  0  0  0  0  0
    0.9580   -0.4980    5.3840 H   0  0  0  0  0  0  0  0  0  0  0  0
   -0.5780    0.2940    5.0970 H   0  0  0  0  0  0  0  0  0  0  0  0
    3.5960    2.0570   -1.5820 N   0  0  0  0  0  0  0  0  0  0  0  0
    2.6960    1.5590   -0.6250 C   0  0  0  0  0  0  0  0  0  0  0  0
    3.1320    0.6290    0.1410 O   0  0  0  0  0  0  0  0  0  0  0  0
    1.3100    1.9800   -0.3960 C   0  0  0  0  0  0  0  0  0  0  0  0
    0.5920    1.2570    0.6570 C   0  0  2  0  0  0  0  0  0  0  0  0
    1.1460    1.3200    1.9890 N   0  0  0  0  0  0  0  0  0  0  0  0
    0.1910   -0.1520    0.3070 C   0  0  0  0  0  0  0  0  0  0  0  0
    0.3240   -1.1060    1.1390 O   0  0  0  0  0  0  0  0  0  0  0  0
    4.3670    1.3990   -1.9050 H   0  0  0  0  0  0  0  0  0  0  0  0
    3.5800    3.0160   -2.0050 H   0  0  0  0  0  0  0  0  0  0  0  0
    0.7820    1.8700   -1.3720 H   0  0  0  0  0  0  0  0  0  0  0  0
    1.2950    3.0620   -0.1590 H   0  0  0  0  0  0  0  0  0  0  0  0
   -0.4290    1.7470    0.7600 H   0  0  0  0  0  0  0  0  0  0  0  0
    2.2040    1.3680    2.1360 H   0  0  0  0  0  0  0  0  0  0  0  0
   -0.3540   -0.5030   -0.9480 N   0  0  0  0  0  0  0  0  0  0  0  0
   -0.7750   -1.8560   -1.3130 C   0  0  1  0  0  0  0  0  0  0  0  0
   -2.2380   -1.8400   -1.6500 C   0  0  0  0  0  0  0  0  0  0  0  0
   -2.8470   -3.1040   -2.0600 C   0  0  0  0  0  0  0  0  0  0  0  0
   -3.5320   -3.9980   -1.2070 C   0  0  0  0  0  0  0  0  0  0  0  0
   -3.9470   -5.0650   -1.8890 N   0  0  0  0  0  0  0  0  0  0  0  0
   -3.5730   -4.9310   -3.1590 C   0  0  0  0  0  0  0  0  0  0  0  0
   -3.7620   -5.7400   -4.2680 C   0  0  0  0  0  0  0  0  0  0  0  0
   -3.2890   -5.3690   -5.4960 C   0  0  0  0  0  0  0  0  0  0  0  0
   -2.6110   -4.1570   -5.6040 C   0  0  0  0  0  0  0  0  0  0  0  0
   -2.4130   -3.3510   -4.5360 C   0  0  0  0  0  0  0  0  0  0  0  0
   -2.8940   -3.7330   -3.2940 C   0  0  0  0  0  0  0  0  0  0  0  0
    0.1210   -2.5380   -2.2200 C   0  0  0  0  0  0  0  0  0  0  0  0
   -0.0830   -3.7580   -2.5000 O   0  0  0  0  0  0  0  0  0  0  0  0
    1.2210   -1.9640   -2.8380 O   0  0  0  0  0  0  0  0  0  0  0  0
   -0.4620    0.2540   -1.6590 H   0  0  0  0  0  0  0  0  0  0  0  0
   -0.6940   -2.4190   -0.3210 H   0  0  0  0  0  0  0  0  0  0  0  0
   -2.3860   -1.0970   -2.4830 H   0  0  0  0  0  0  0  0  0  0  0  0
   -2.7880   -1.3920   -0.7810 H   0  0  0  0  0  0  0  0  0  0  0  0
   -3.6780   -3.8110   -0.1510 H   0  0  0  0  0  0  0  0  0  0  0  0
   -4.4810   -5.8880   -1.4960 H   0  0  0  0  0  0  0  0  0  0  0  0
   -4.2990   -6.6720   -4.1110 H   0  0  0  0  0  0  0  0  0  0  0  0
   -3.4400   -6.0010   -6.3680 H   0  0  0  0  0  0  0  0  0  0  0  0
   -2.2310   -3.8530   -6.5790 H   0  0  0  0  0  0  0  0  0  0  0  0
   -1.8770   -2.3960   -4.6250 H   0  0  0  0  0  0  0  0  0  0  0  0
  1  9  1  0  0  0  0
  1 10  1  0  0  0  0
  2  1  1  0  0  0  0
  3 13  1  0  0  0  0
  3  2  1  0  0  0  0
  4  5  1  0  0  0  0
  4  3  1  0  0  0  0
  5 16  1  1  0  0  0
  5  6  1  0  0  0  0
  6 17  1  0  0  0  0
  7  5  1  0  0  0  0
  8  7  2  0  0  0  0
 11  1  1  0  0  0  0
 12  3  1  0  0  0  0
 14  4  1  0  0  0  0
 15  4  1  0  0  0  0
 18  6  1  0  0  0  0
 19 20  1  0  0  0  0
 20 22  1  0  0  0  0
 20 21  2  0  0  0  0
 22 30  1  0  0  0  0
 22 23  1  0  0  0  0
 23 31  1  1  0  0  0
 23 24  1  0  0  0  0
 24 32  1  0  0  0  0
 24  7  1  0  0  0  0
 25 23  1  0  0  0  0
 25 26  2  0  0  0  0
 27 19  1  0  0  0  0
 28 19  1  0  0  0  0
 29 22  1  0  0  0  0
 33 25  1  0  0  0  0
 34 33  1  0  0  0  0
 34 49  1  1  0  0  0
 35 34  1  0  0  0  0
 35 51  1  0  0  0  0
 36 35  1  0  0  0  0
 36 37  2  0  0  0  0
 37 52  1  0  0  0  0
 38 53  1  0  0  0  0
 38 37  1  0  0  0  0
 39 38  1  0  0  0  0
 40 54  1  0  0  0  0
 40 39  2  0  0  0  0
 41 40  1  0  0  0  0
 42 41  2  0  0  0  0
 42 43  1  0  0  0  0
 43 44  2  0  0  0  0
 44 39  1  0  0  0  0
 44 36  1  0  0  0  0
 45 34  1  0  0  0  0
 46 45  1  0  0  0  0
 47 45  2  0  0  0  0
 48 33  1  0  0  0  0
 50 35  1  0  0  0  0
 55 41  1  0  0  0  0
 56 42  1  0  0  0  0
 57 43  1  0  0  0  0
M  END
$$$$
