MNY.pdb
 OpenBabel07022418543D

 54 54  0  0  1  0  0  0  0  0999 V2000
   -1.0980    0.2230    4.4250 C   0  0  0  0  0  0  0  0  0  0  0  0
   -0.6200   -1.4870    4.3770 S   0  0  0  0  0  0  0  0  0  0  0  0
    0.2890   -1.9520    2.9360 C   0  0  0  0  0  0  0  0  0  0  0  0
    1.7060   -1.5530    2.8600 C   0  0  0  0  0  0  0  0  0  0  0  0
    2.0720   -0.1310    2.8890 C   0  0  2  0  0  0  0  0  0  0  0  0
    1.6860    0.5610    4.0820 N   0  0  0  0  0  0  0  0  0  0  0  0
    1.6100    0.6150    1.6800 C   0  0  0  0  0  0  0  0  0  0  0  0
    0.9660    1.6710    1.7730 O   0  0  0  0  0  0  0  0  0  0  0  0
   -2.2340    0.2810    4.5820 H   0  0  0  0  0  0  0  0  0  0  0  0
   -0.9330    0.7820    3.4890 H   0  0  0  0  0  0  0  0  0  0  0  0
   -0.6890    0.7880    5.2890 H   0  0  0  0  0  0  0  0  0  0  0  0
    0.2090   -3.0790    2.8340 H   0  0  0  0  0  0  0  0  0  0  0  0
   -0.2390   -1.5760    2.0000 H   0  0  0  0  0  0  0  0  0  0  0  0
    2.1930   -2.0960    1.9870 H   0  0  0  0  0  0  0  0  0  0  0  0
    2.2390   -2.0670    3.7420 H   0  0  0  0  0  0  0  0  0  0  0  0
    3.2130   -0.0610    2.8260 H   0  0  0  0  0  0  0  0  0  0  0  0
    1.5010    1.5750    3.8880 H   0  0  0  0  0  0  0  0  0  0  0  0
    2.4520    0.5000    4.7890 H   0  0  0  0  0  0  0  0  0  0  0  0
    3.4960    2.3810   -3.6260 N   0  0  0  0  0  0  0  0  0  0  0  0
    2.3960    2.0380   -2.7950 C   0  0  0  0  0  0  0  0  0  0  0  0
    1.2610    2.4120   -3.1380 O   0  0  0  0  0  0  0  0  0  0  0  0
    2.6480    1.2730   -1.5930 C   0  0  0  0  0  0  0  0  0  0  0  0
    1.4690    0.8360   -0.7900 C   0  0  2  0  0  0  0  0  0  0  0  0
    1.9190    0.1030    0.4130 N   0  0  0  0  0  0  0  0  0  0  0  0
    0.5200   -0.0460   -1.5410 C   0  0  0  0  0  0  0  0  0  0  0  0
   -0.0430    0.3180   -2.5990 O   0  0  0  0  0  0  0  0  0  0  0  0
    3.8300    1.6550   -4.2950 H   0  0  0  0  0  0  0  0  0  0  0  0
    3.9770    3.3020   -3.6030 H   0  0  0  0  0  0  0  0  0  0  0  0
    3.2380    0.3300   -1.8240 H   0  0  0  0  0  0  0  0  0  0  0  0
    3.3730    1.8720   -0.9630 H   0  0  0  0  0  0  0  0  0  0  0  0
    0.9120    1.7110   -0.4370 H   0  0  0  0  0  0  0  0  0  0  0  0
    2.4630   -0.7820    0.2680 H   0  0  0  0  0  0  0  0  0  0  0  0
   -4.1750   -1.7050    3.6430 O   0  0  0  0  0  0  0  0  0  0  0  0
   -3.6590   -1.7300    2.3520 C   0  0  0  0  0  0  0  0  0  0  0  0
   -3.1130   -0.6100    1.7550 C   0  0  0  0  0  0  0  0  0  0  0  0
   -2.6090   -0.6930    0.4520 C   0  0  0  0  0  0  0  0  0  0  0  0
   -2.6460   -1.8770   -0.2500 C   0  0  0  0  0  0  0  0  0  0  0  0
   -2.1180   -1.9350   -1.5990 C   0  0  0  0  0  0  0  0  0  0  0  0
   -0.6890   -2.2840   -1.7480 C   0  0  2  0  0  0  0  0  0  0  0  0
    0.2030   -1.3610   -1.0880 N   0  0  0  0  0  0  0  0  0  0  0  0
   -0.3940   -2.4170   -3.2220 C   0  0  0  0  0  0  0  0  0  0  0  0
    0.5510   -1.8500   -3.7680 O   0  0  0  0  0  0  0  0  0  0  0  0
   -3.1930   -2.9690    0.3700 C   0  0  0  0  0  0  0  0  0  0  0  0
   -3.6980   -2.8990    1.6640 C   0  0  0  0  0  0  0  0  0  0  0  0
   -1.2410   -3.2210   -3.9620 O   0  0  0  0  0  0  0  0  0  0  0  0
   -4.4750   -0.7990    4.0010 H   0  0  0  0  0  0  0  0  0  0  0  0
   -3.0960    0.3070    2.3250 H   0  0  0  0  0  0  0  0  0  0  0  0
   -2.1990    0.2220    0.0520 H   0  0  0  0  0  0  0  0  0  0  0  0
   -2.2660   -0.9150   -2.0630 H   0  0  0  0  0  0  0  0  0  0  0  0
   -2.7930   -2.5870   -2.2190 H   0  0  0  0  0  0  0  0  0  0  0  0
   -0.3990   -3.3020   -1.3700 H   0  0  0  0  0  0  0  0  0  0  0  0
    0.6970   -1.6320   -0.1800 H   0  0  0  0  0  0  0  0  0  0  0  0
   -3.2440   -3.9010   -0.1300 H   0  0  0  0  0  0  0  0  0  0  0  0
   -4.1220   -3.7850    2.1160 H   0  0  0  0  0  0  0  0  0  0  0  0
  1  9  1  0  0  0  0
  1 11  1  0  0  0  0
  2  1  1  0  0  0  0
  3  2  1  0  0  0  0
  4  5  1  0  0  0  0
  4  3  1  0  0  0  0
  4 15  1  0  0  0  0
  5 16  1  6  0  0  0
  5  6  1  0  0  0  0
  6 18  1  0  0  0  0
  7  8  2  0  0  0  0
  7  5  1  0  0  0  0
 10  1  1  0  0  0  0
 12  3  1  0  0  0  0
 13  3  1  0  0  0  0
 14  4  1  0  0  0  0
 17  6  1  0  0  0  0
 19 28  1  0  0  0  0
 19 20  1  0  0  0  0
 20 22  1  0  0  0  0
 21 20  2  0  0  0  0
 22 30  1  0  0  0  0
 22 23  1  0  0  0  0
 23 31  1  1  0  0  0
 23 24  1  0  0  0  0
 24  7  1  0  0  0  0
 25 40  1  0  0  0  0
 25 23  1  0  0  0  0
 26 25  2  0  0  0  0
 27 19  1  0  0  0  0
 29 22  1  0  0  0  0
 32 24  1  0  0  0  0
 33 46  1  0  0  0  0
 34 33  1  0  0  0  0
 35 47  1  0  0  0  0
 35 34  1  0  0  0  0
 36 35  2  0  0  0  0
 37 43  2  0  0  0  0
 37 36  1  0  0  0  0
 38 37  1  0  0  0  0
 39 38  1  0  0  0  0
 39 51  1  1  0  0  0
 39 40  1  0  0  0  0
 40 52  1  0  0  0  0
 41 39  1  0  0  0  0
 42 41  1  0  0  0  0
 43 44  1  0  0  0  0
 44 54  1  0  0  0  0
 44 34  2  0  0  0  0
 45 41  2  0  0  0  0
 48 36  1  0  0  0  0
 49 38  1  0  0  0  0
 50 38  1  0  0  0  0
 53 43  1  0  0  0  0
M  END
$$$$
