MPA.pdb
 OpenBabel07022418563D

 43 43  0  0  1  0  0  0  0  0999 V2000
    2.2020   -2.0420    3.3490 C   0  0  0  0  0  0  0  0  0  0  0  0
    2.2570   -3.6960    2.7160 S   0  0  0  0  0  0  0  0  0  0  0  0
    0.9600   -4.2060    1.6130 C   0  0  0  0  0  0  0  0  0  0  0  0
    1.0490   -3.5470    0.2810 C   0  0  0  0  0  0  0  0  0  0  0  0
    0.9070   -2.0520    0.3800 C   0  0  2  0  0  0  0  0  0  0  0  0
   -0.3580   -1.7260    0.9360 N   0  0  0  0  0  0  0  0  0  0  0  0
    1.1130   -1.4090   -0.9500 C   0  0  0  0  0  0  0  0  0  0  0  0
    1.9230   -2.1060   -1.6930 O   0  0  0  0  0  0  0  0  0  0  0  0
    1.2280   -1.5460    3.2730 H   0  0  0  0  0  0  0  0  0  0  0  0
    2.9950   -1.3490    2.9530 H   0  0  0  0  0  0  0  0  0  0  0  0
    2.4830   -2.1180    4.4600 H   0  0  0  0  0  0  0  0  0  0  0  0
   -0.0680   -3.9610    2.0290 H   0  0  0  0  0  0  0  0  0  0  0  0
    0.9440   -5.3370    1.5050 H   0  0  0  0  0  0  0  0  0  0  0  0
    0.2500   -3.9530   -0.4230 H   0  0  0  0  0  0  0  0  0  0  0  0
    2.0040   -3.8170   -0.2450 H   0  0  0  0  0  0  0  0  0  0  0  0
    1.7700   -1.7050    0.9890 H   0  0  0  0  0  0  0  0  0  0  0  0
   -0.5670   -2.0720    1.8580 H   0  0  0  0  0  0  0  0  0  0  0  0
   -1.1500   -1.8710    0.2750 H   0  0  0  0  0  0  0  0  0  0  0  0
    0.5940   -0.2520   -1.4790 N   0  0  0  0  0  0  0  0  0  0  0  0
    0.8560    0.0580   -2.9550 C   0  0  0  0  0  0  0  0  0  0  0  0
   -0.6150    0.2080   -3.3670 C   0  0  0  0  0  0  0  0  0  0  0  0
   -1.3540    0.6910   -2.0920 C   0  0  0  0  0  0  0  0  0  0  0  0
   -0.1650    0.8990   -1.1670 C   0  0  1  0  0  0  0  0  0  0  0  0
   -0.4950    1.3480    0.1390 C   0  0  0  0  0  0  0  0  0  0  0  0
   -1.5900    2.0340    0.2480 O   0  0  0  0  0  0  0  0  0  0  0  0
    1.3390    1.0440   -2.9510 H   0  0  0  0  0  0  0  0  0  0  0  0
    1.3680   -0.7580   -3.4330 H   0  0  0  0  0  0  0  0  0  0  0  0
   -0.9660   -0.8090   -3.6380 H   0  0  0  0  0  0  0  0  0  0  0  0
   -0.7400    0.9270   -4.1860 H   0  0  0  0  0  0  0  0  0  0  0  0
   -1.9300    1.5950   -2.2880 H   0  0  0  0  0  0  0  0  0  0  0  0
   -2.0280   -0.1050   -1.7620 H   0  0  0  0  0  0  0  0  0  0  0  0
    0.3880    1.7860   -1.7210 H   0  0  0  0  0  0  0  0  0  0  0  0
   -0.5470    0.7050    3.6500 C   0  0  0  0  0  0  0  0  0  0  0  0
   -0.3380    1.7510    2.6110 C   0  0  2  0  0  0  0  0  0  0  0  0
    0.1730    1.1890    1.3770 N   0  0  0  0  0  0  0  0  0  0  0  0
    0.6170    2.7590    3.1830 C   0  0  0  0  0  0  0  0  0  0  0  0
    1.6770    2.9610    2.5390 O   0  0  0  0  0  0  0  0  0  0  0  0
    0.3130    3.4150    4.3630 O   0  0  0  0  0  0  0  0  0  0  0  0
   -1.2350    1.0820    4.4650 H   0  0  0  0  0  0  0  0  0  0  0  0
    0.4130    0.5020    4.1920 H   0  0  0  0  0  0  0  0  0  0  0  0
   -1.0300   -0.2220    3.2920 H   0  0  0  0  0  0  0  0  0  0  0  0
   -1.2850    2.3160    2.4390 H   0  0  0  0  0  0  0  0  0  0  0  0
    1.0560    0.6500    1.3620 H   0  0  0  0  0  0  0  0  0  0  0  0
  1 11  1  0  0  0  0
  2  1  1  0  0  0  0
  3 12  1  0  0  0  0
  3  2  1  0  0  0  0
  4  5  1  0  0  0  0
  4  3  1  0  0  0  0
  5  6  1  0  0  0  0
  5 16  1  1  0  0  0
  6 17  1  0  0  0  0
  7  5  1  0  0  0  0
  8  7  2  0  0  0  0
  9  1  1  0  0  0  0
 10  1  1  0  0  0  0
 13  3  1  0  0  0  0
 14  4  1  0  0  0  0
 15  4  1  0  0  0  0
 18  6  1  0  0  0  0
 19 23  1  0  0  0  0
 19  7  1  0  0  0  0
 20 26  1  0  0  0  0
 20 19  1  0  0  0  0
 21 20  1  0  0  0  0
 21 22  1  0  0  0  0
 22 31  1  0  0  0  0
 22 23  1  0  0  0  0
 23 32  1  6  0  0  0
 23 24  1  0  0  0  0
 24 25  2  0  0  0  0
 24 35  1  0  0  0  0
 27 20  1  0  0  0  0
 28 21  1  0  0  0  0
 29 21  1  0  0  0  0
 30 22  1  0  0  0  0
 33 40  1  0  0  0  0
 33 39  1  0  0  0  0
 34 42  1  6  0  0  0
 34 36  1  0  0  0  0
 34 33  1  0  0  0  0
 35 34  1  0  0  0  0
 36 38  1  0  0  0  0
 37 36  2  0  0  0  0
 41 33  1  0  0  0  0
 43 35  1  0  0  0  0
M  END
$$$$
