MPC.pdb
 OpenBabel07022418563D

 44 44  0  0  1  0  0  0  0  0999 V2000
    0.9090   -5.7200   -0.8980 C   0  0  0  0  0  0  0  0  0  0  0  0
    1.7030   -4.0960   -0.7420 S   0  0  0  0  0  0  0  0  0  0  0  0
    2.1860   -3.7440    0.9500 C   0  0  0  0  0  0  0  0  0  0  0  0
    1.0510   -3.5700    1.9040 C   0  0  0  0  0  0  0  0  0  0  0  0
    0.1380   -2.4100    1.5060 C   0  0  2  0  0  0  0  0  0  0  0  0
   -0.3960   -2.6720    0.2170 N   0  0  0  0  0  0  0  0  0  0  0  0
    0.8630   -1.1500    1.6700 C   0  0  0  0  0  0  0  0  0  0  0  0
    1.2370   -0.8740    2.8770 O   0  0  0  0  0  0  0  0  0  0  0  0
   -0.0420   -5.5980   -1.4530 H   0  0  0  0  0  0  0  0  0  0  0  0
    0.7610   -6.2030    0.0900 H   0  0  0  0  0  0  0  0  0  0  0  0
    1.5440   -6.4120   -1.4840 H   0  0  0  0  0  0  0  0  0  0  0  0
    2.8540   -2.8520    0.9770 H   0  0  0  0  0  0  0  0  0  0  0  0
    2.7870   -4.6180    1.3220 H   0  0  0  0  0  0  0  0  0  0  0  0
    1.4770   -3.3910    2.9120 H   0  0  0  0  0  0  0  0  0  0  0  0
    0.4740   -4.5230    1.9730 H   0  0  0  0  0  0  0  0  0  0  0  0
   -0.7210   -2.3910    2.2390 H   0  0  0  0  0  0  0  0  0  0  0  0
   -1.1830   -1.9890   -0.0140 H   0  0  0  0  0  0  0  0  0  0  0  0
   -0.7660   -3.6540    0.2150 H   0  0  0  0  0  0  0  0  0  0  0  0
    1.2020   -0.2050    0.6860 N   0  0  0  0  0  0  0  0  0  0  0  0
    0.9500   -0.2480   -0.7190 C   0  0  0  0  0  0  0  0  0  0  0  0
    2.2250    0.3620   -1.3200 C   0  0  0  0  0  0  0  0  0  0  0  0
    2.5990    1.4120   -0.3230 C   0  0  0  0  0  0  0  0  0  0  0  0
    1.8900    1.0570    0.9440 C   0  0  1  0  0  0  0  0  0  0  0  0
    0.8940    2.0920    1.3430 C   0  0  0  0  0  0  0  0  0  0  0  0
    1.2630    3.2470    1.6220 O   0  0  0  0  0  0  0  0  0  0  0  0
    0.0830    0.4190   -0.9970 H   0  0  0  0  0  0  0  0  0  0  0  0
    0.7940   -1.2640   -1.1390 H   0  0  0  0  0  0  0  0  0  0  0  0
    2.0180    0.7860   -2.3310 H   0  0  0  0  0  0  0  0  0  0  0  0
    2.9540   -0.4630   -1.4090 H   0  0  0  0  0  0  0  0  0  0  0  0
    3.7120    1.3710   -0.1980 H   0  0  0  0  0  0  0  0  0  0  0  0
    2.2760    2.4110   -0.6770 H   0  0  0  0  0  0  0  0  0  0  0  0
    2.6220    0.9810    1.7590 H   0  0  0  0  0  0  0  0  0  0  0  0
   -0.4970    1.8210    1.4250 N   0  0  0  0  0  0  0  0  0  0  0  0
   -1.4330    2.8170    1.8070 C   0  0  1  0  0  0  0  0  0  0  0  0
   -2.5000    3.0970    0.7810 C   0  0  0  0  0  0  0  0  0  0  0  0
   -3.5020    1.6620    0.3830 S   0  0  0  0  0  0  0  0  0  0  0  0
   -2.1190    2.4020    3.0520 C   0  0  0  0  0  0  0  0  0  0  0  0
   -1.8140    1.3030    3.5750 O   0  0  0  0  0  0  0  0  0  0  0  0
   -3.0900    3.1500    3.6900 O   0  0  0  0  0  0  0  0  0  0  0  0
   -0.8390    0.8620    1.1980 H   0  0  0  0  0  0  0  0  0  0  0  0
   -0.9580    3.8040    2.0320 H   0  0  0  0  0  0  0  0  0  0  0  0
   -3.1870    3.8540    1.2550 H   0  0  0  0  0  0  0  0  0  0  0  0
   -2.1010    3.6160   -0.1250 H   0  0  0  0  0  0  0  0  0  0  0  0
   -3.6000    1.4360   -1.0030 H   0  0  0  0  0  0  0  0  0  0  0  0
  1  2  1  0  0  0  0
  1 10  1  0  0  0  0
  2  3  1  0  0  0  0
  3 12  1  0  0  0  0
  3 13  1  0  0  0  0
  3  4  1  0  0  0  0
  4 15  1  0  0  0  0
  4 14  1  0  0  0  0
  5  7  1  0  0  0  0
  5  4  1  0  0  0  0
  5 16  1  1  0  0  0
  6  5  1  0  0  0  0
  7  8  2  0  0  0  0
  9  1  1  0  0  0  0
 11  1  1  0  0  0  0
 17  6  1  0  0  0  0
 18  6  1  0  0  0  0
 19 23  1  0  0  0  0
 19  7  1  0  0  0  0
 20 19  1  0  0  0  0
 21 20  1  0  0  0  0
 21 22  1  0  0  0  0
 22 30  1  0  0  0  0
 22 23  1  0  0  0  0
 23 24  1  0  0  0  0
 23 32  1  1  0  0  0
 24 33  1  0  0  0  0
 24 25  2  0  0  0  0
 26 20  1  0  0  0  0
 27 20  1  0  0  0  0
 28 21  1  0  0  0  0
 29 21  1  0  0  0  0
 31 22  1  0  0  0  0
 33 34  1  0  0  0  0
 34 41  1  1  0  0  0
 34 37  1  0  0  0  0
 35 42  1  0  0  0  0
 35 34  1  0  0  0  0
 36 35  1  0  0  0  0
 37 38  2  0  0  0  0
 37 39  1  0  0  0  0
 40 33  1  0  0  0  0
 43 35  1  0  0  0  0
 44 36  1  0  0  0  0
M  END
$$$$
