MPD.pdb
 OpenBabel07022418563D

 46 46  0  0  1  0  0  0  0  0999 V2000
    0.9320   -6.1900    3.4940 C   0  0  0  0  0  0  0  0  0  0  0  0
    1.2510   -4.5830    4.2930 S   0  0  0  0  0  0  0  0  0  0  0  0
    0.5660   -3.3050    3.1600 C   0  0  0  0  0  0  0  0  0  0  0  0
    1.3660   -3.3040    1.8860 C   0  0  0  0  0  0  0  0  0  0  0  0
    0.8940   -2.3100    0.8730 C   0  0  2  0  0  0  0  0  0  0  0  0
    1.7430   -2.4170   -0.2890 N   0  0  0  0  0  0  0  0  0  0  0  0
    0.6830   -0.9540    1.3640 C   0  0  0  0  0  0  0  0  0  0  0  0
   -0.2200   -0.7610    2.2200 O   0  0  0  0  0  0  0  0  0  0  0  0
    0.7470   -6.9650    4.2490 H   0  0  0  0  0  0  0  0  0  0  0  0
    1.8500   -6.4250    2.8950 H   0  0  0  0  0  0  0  0  0  0  0  0
    0.0650   -6.1090    2.8030 H   0  0  0  0  0  0  0  0  0  0  0  0
    0.6930   -2.3040    3.6400 H   0  0  0  0  0  0  0  0  0  0  0  0
   -0.4900   -3.5870    2.9930 H   0  0  0  0  0  0  0  0  0  0  0  0
    2.4460   -3.1320    2.0690 H   0  0  0  0  0  0  0  0  0  0  0  0
    1.2990   -4.3120    1.3830 H   0  0  0  0  0  0  0  0  0  0  0  0
   -0.1210   -2.6900    0.5310 H   0  0  0  0  0  0  0  0  0  0  0  0
    2.4470   -3.1630   -0.1340 H   0  0  0  0  0  0  0  0  0  0  0  0
    1.2210   -2.5910   -1.1660 H   0  0  0  0  0  0  0  0  0  0  0  0
    1.4200    0.2100    0.9570 N   0  0  0  0  0  0  0  0  0  0  0  0
    2.5160    0.1080    0.0260 C   0  0  0  0  0  0  0  0  0  0  0  0
    3.3630    1.3400    0.2880 C   0  0  0  0  0  0  0  0  0  0  0  0
    2.3250    2.3510    0.6700 C   0  0  0  0  0  0  0  0  0  0  0  0
    1.2580    1.5560    1.3250 C   0  0  1  0  0  0  0  0  0  0  0  0
   -0.0920    2.1160    1.1020 C   0  0  0  0  0  0  0  0  0  0  0  0
   -0.3040    3.2730    1.6020 O   0  0  0  0  0  0  0  0  0  0  0  0
    3.1620   -0.7440    0.4050 H   0  0  0  0  0  0  0  0  0  0  0  0
    2.2420   -0.0440   -1.0130 H   0  0  0  0  0  0  0  0  0  0  0  0
    4.0190    1.1910    1.1740 H   0  0  0  0  0  0  0  0  0  0  0  0
    3.9710    1.6250   -0.5860 H   0  0  0  0  0  0  0  0  0  0  0  0
    2.7410    3.1530    1.3310 H   0  0  0  0  0  0  0  0  0  0  0  0
    1.9170    2.8190   -0.2770 H   0  0  0  0  0  0  0  0  0  0  0  0
    1.4360    1.6310    2.4400 H   0  0  0  0  0  0  0  0  0  0  0  0
   -1.1450    1.4940    0.3960 N   0  0  0  0  0  0  0  0  0  0  0  0
   -2.4200    2.1690    0.2620 C   0  0  1  0  0  0  0  0  0  0  0  0
   -2.7560    2.4520   -1.1840 C   0  0  0  0  0  0  0  0  0  0  0  0
   -2.8420    1.2340   -1.9950 C   0  0  0  0  0  0  0  0  0  0  0  0
   -2.6580    0.0730   -1.5450 O   0  0  0  0  0  0  0  0  0  0  0  0
   -3.4990    1.4110    0.9150 C   0  0  0  0  0  0  0  0  0  0  0  0
   -4.6650    1.8410    0.9020 O   0  0  0  0  0  0  0  0  0  0  0  0
   -3.1440    1.3560   -3.3430 O   0  0  0  0  0  0  0  0  0  0  0  0
   -3.2160    0.2190    1.5450 O   0  0  0  0  0  0  0  0  0  0  0  0
   -0.9550    0.5540   -0.0180 H   0  0  0  0  0  0  0  0  0  0  0  0
   -2.3480    3.1420    0.7720 H   0  0  0  0  0  0  0  0  0  0  0  0
   -2.0440    3.2080   -1.5920 H   0  0  0  0  0  0  0  0  0  0  0  0
   -3.7610    2.9370   -1.1820 H   0  0  0  0  0  0  0  0  0  0  0  0
   -3.5300    0.5660   -3.8570 H   0  0  0  0  0  0  0  0  0  0  0  0
  1  9  1  0  0  0  0
  1  2  1  0  0  0  0
  3 12  1  0  0  0  0
  3  2  1  0  0  0  0
  4 14  1  0  0  0  0
  4  3  1  0  0  0  0
  5 16  1  6  0  0  0
  5  7  1  0  0  0  0
  5  4  1  0  0  0  0
  6 17  1  0  0  0  0
  6  5  1  0  0  0  0
  7  8  2  0  0  0  0
 10  1  1  0  0  0  0
 11  1  1  0  0  0  0
 13  3  1  0  0  0  0
 15  4  1  0  0  0  0
 18  6  1  0  0  0  0
 19 23  1  0  0  0  0
 19  7  1  0  0  0  0
 20 21  1  0  0  0  0
 20 26  1  0  0  0  0
 20 19  1  0  0  0  0
 21 22  1  0  0  0  0
 21 28  1  0  0  0  0
 22 23  1  0  0  0  0
 22 30  1  0  0  0  0
 23 32  1  1  0  0  0
 24 23  1  0  0  0  0
 24 25  2  0  0  0  0
 27 20  1  0  0  0  0
 29 21  1  0  0  0  0
 31 22  1  0  0  0  0
 33 24  1  0  0  0  0
 34 33  1  0  0  0  0
 34 43  1  1  0  0  0
 34 38  1  0  0  0  0
 35 45  1  0  0  0  0
 35 34  1  0  0  0  0
 36 37  2  0  0  0  0
 36 35  1  0  0  0  0
 38 41  1  0  0  0  0
 39 38  2  0  0  0  0
 40 36  1  0  0  0  0
 42 33  1  0  0  0  0
 44 35  1  0  0  0  0
 46 40  1  0  0  0  0
M  END
$$$$
