MPE.pdb
 OpenBabel07022418563D

 49 49  0  0  1  0  0  0  0  0999 V2000
    1.1090   -1.9770    6.3940 C   0  0  0  0  0  0  0  0  0  0  0  0
    2.8410   -1.5880    6.0340 S   0  0  0  0  0  0  0  0  0  0  0  0
    2.9620   -1.2310    4.2420 C   0  0  0  0  0  0  0  0  0  0  0  0
    2.6600   -2.5040    3.4810 C   0  0  0  0  0  0  0  0  0  0  0  0
    2.7360   -2.3160    1.9770 C   0  0  2  0  0  0  0  0  0  0  0  0
    4.0510   -1.8970    1.6520 N   0  0  0  0  0  0  0  0  0  0  0  0
    1.6370   -1.4880    1.4580 C   0  0  0  0  0  0  0  0  0  0  0  0
    0.4200   -1.8460    1.6410 O   0  0  0  0  0  0  0  0  0  0  0  0
    0.4080   -1.2570    5.9530 H   0  0  0  0  0  0  0  0  0  0  0  0
    0.8480   -2.9860    5.9830 H   0  0  0  0  0  0  0  0  0  0  0  0
    0.9670   -1.9990    7.5070 H   0  0  0  0  0  0  0  0  0  0  0  0
    2.1880   -0.4550    4.0360 H   0  0  0  0  0  0  0  0  0  0  0  0
    3.9340   -0.8040    4.0030 H   0  0  0  0  0  0  0  0  0  0  0  0
    3.4620   -3.2430    3.7320 H   0  0  0  0  0  0  0  0  0  0  0  0
    1.7180   -2.9490    3.8080 H   0  0  0  0  0  0  0  0  0  0  0  0
    2.5780   -3.3410    1.5510 H   0  0  0  0  0  0  0  0  0  0  0  0
    4.7170   -1.8430    2.4360 H   0  0  0  0  0  0  0  0  0  0  0  0
    4.5060   -2.4300    0.8820 H   0  0  0  0  0  0  0  0  0  0  0  0
    1.8240   -0.2740    0.7410 N   0  0  0  0  0  0  0  0  0  0  0  0
    3.1870    0.2540    0.5500 C   0  0  0  0  0  0  0  0  0  0  0  0
    2.9690    1.6360   -0.0860 C   0  0  0  0  0  0  0  0  0  0  0  0
    1.7890    1.2870   -0.9560 C   0  0  0  0  0  0  0  0  0  0  0  0
    0.9080    0.6060    0.1150 C   0  0  1  0  0  0  0  0  0  0  0  0
   -0.2710   -0.0040   -0.5330 C   0  0  0  0  0  0  0  0  0  0  0  0
   -0.3920   -1.2460   -0.6660 O   0  0  0  0  0  0  0  0  0  0  0  0
    3.7500   -0.3340   -0.1900 H   0  0  0  0  0  0  0  0  0  0  0  0
    3.7190    0.3770    1.5190 H   0  0  0  0  0  0  0  0  0  0  0  0
    2.6580    2.3060    0.7340 H   0  0  0  0  0  0  0  0  0  0  0  0
    3.8510    1.9640   -0.6420 H   0  0  0  0  0  0  0  0  0  0  0  0
    1.2890    2.1450   -1.3980 H   0  0  0  0  0  0  0  0  0  0  0  0
    2.1440    0.5420   -1.7040 H   0  0  0  0  0  0  0  0  0  0  0  0
    0.5730    1.4150    0.7700 H   0  0  0  0  0  0  0  0  0  0  0  0
   -1.3440    0.7640   -1.0480 N   0  0  0  0  0  0  0  0  0  0  0  0
   -2.5190    0.1650   -1.6930 C   0  0  1  0  0  0  0  0  0  0  0  0
   -3.7560    0.4460   -0.9220 C   0  0  0  0  0  0  0  0  0  0  0  0
   -4.9620   -0.1580   -1.5740 C   0  0  0  0  0  0  0  0  0  0  0  0
   -4.9510   -1.6130   -1.7320 C   0  0  0  0  0  0  0  0  0  0  0  0
   -4.0360   -2.3480   -1.3170 O   0  0  0  0  0  0  0  0  0  0  0  0
   -2.5470    0.5540   -3.1050 C   0  0  0  0  0  0  0  0  0  0  0  0
   -1.6480    1.3550   -3.5470 O   0  0  0  0  0  0  0  0  0  0  0  0
   -6.0190   -2.2140   -2.3800 O   0  0  0  0  0  0  0  0  0  0  0  0
   -3.4590    0.1480   -4.0590 O   0  0  0  0  0  0  0  0  0  0  0  0
   -1.3190    1.7850   -0.9780 H   0  0  0  0  0  0  0  0  0  0  0  0
   -2.3220   -0.9250   -1.6660 H   0  0  0  0  0  0  0  0  0  0  0  0
   -3.9480    1.5280   -0.7620 H   0  0  0  0  0  0  0  0  0  0  0  0
   -3.6560   -0.0850    0.0740 H   0  0  0  0  0  0  0  0  0  0  0  0
   -5.8920    0.0510   -0.9340 H   0  0  0  0  0  0  0  0  0  0  0  0
   -5.1400    0.3230   -2.5700 H   0  0  0  0  0  0  0  0  0  0  0  0
   -6.0180   -3.2170   -2.5900 H   0  0  0  0  0  0  0  0  0  0  0  0
  1 11  1  0  0  0  0
  2  1  1  0  0  0  0
  3  2  1  0  0  0  0
  4 14  1  0  0  0  0
  4 15  1  0  0  0  0
  4  3  1  0  0  0  0
  5 16  1  6  0  0  0
  5  4  1  0  0  0  0
  6  5  1  0  0  0  0
  6 17  1  0  0  0  0
  7  8  2  0  0  0  0
  7  5  1  0  0  0  0
  9  1  1  0  0  0  0
 10  1  1  0  0  0  0
 12  3  1  0  0  0  0
 13  3  1  0  0  0  0
 18  6  1  0  0  0  0
 19  7  1  0  0  0  0
 20 19  1  0  0  0  0
 20 27  1  0  0  0  0
 21 20  1  0  0  0  0
 21 28  1  0  0  0  0
 22 21  1  0  0  0  0
 22 23  1  0  0  0  0
 23 19  1  0  0  0  0
 23 32  1  1  0  0  0
 24 23  1  0  0  0  0
 25 24  2  0  0  0  0
 26 20  1  0  0  0  0
 29 21  1  0  0  0  0
 30 22  1  0  0  0  0
 31 22  1  0  0  0  0
 33 43  1  0  0  0  0
 33 24  1  0  0  0  0
 34 44  1  1  0  0  0
 34 33  1  0  0  0  0
 34 35  1  0  0  0  0
 35 45  1  0  0  0  0
 35 46  1  0  0  0  0
 36 47  1  0  0  0  0
 36 35  1  0  0  0  0
 37 36  1  0  0  0  0
 37 38  2  0  0  0  0
 39 34  1  0  0  0  0
 40 39  1  0  0  0  0
 41 37  1  0  0  0  0
 42 39  2  0  0  0  0
 48 36  1  0  0  0  0
 49 41  1  0  0  0  0
M  END
$$$$
