MPG.pdb
 OpenBabel07022418563D

 40 40  0  0  1  0  0  0  0  0999 V2000
   -0.8120    0.1580    5.6290 C   0  0  0  0  0  0  0  0  0  0  0  0
    0.0850   -1.3720    5.7650 S   0  0  0  0  0  0  0  0  0  0  0  0
    0.3140   -2.3000    4.2770 C   0  0  0  0  0  0  0  0  0  0  0  0
    1.2370   -1.7360    3.2430 C   0  0  0  0  0  0  0  0  0  0  0  0
    0.7690   -0.4190    2.7280 C   0  0  2  0  0  0  0  0  0  0  0  0
   -0.5260   -0.5130    2.1170 N   0  0  0  0  0  0  0  0  0  0  0  0
    1.7800    0.2450    1.8590 C   0  0  0  0  0  0  0  0  0  0  0  0
    2.9210    0.4260    2.3300 O   0  0  0  0  0  0  0  0  0  0  0  0
   -0.1400    1.0670    5.6660 H   0  0  0  0  0  0  0  0  0  0  0  0
   -1.5010    0.2950    6.5170 H   0  0  0  0  0  0  0  0  0  0  0  0
   -1.4570    0.2640    4.7360 H   0  0  0  0  0  0  0  0  0  0  0  0
    0.6580   -3.3460    4.5460 H   0  0  0  0  0  0  0  0  0  0  0  0
   -0.7160   -2.4590    3.8100 H   0  0  0  0  0  0  0  0  0  0  0  0
    1.3470   -2.5150    2.4640 H   0  0  0  0  0  0  0  0  0  0  0  0
    2.2440   -1.6400    3.7030 H   0  0  0  0  0  0  0  0  0  0  0  0
    0.6240    0.2190    3.6230 H   0  0  0  0  0  0  0  0  0  0  0  0
   -1.2300    0.1570    2.3870 H   0  0  0  0  0  0  0  0  0  0  0  0
   -0.8300   -1.4640    1.8740 H   0  0  0  0  0  0  0  0  0  0  0  0
    1.5370    0.6930    0.5140 N   0  0  0  0  0  0  0  0  0  0  0  0
    2.5740    1.3250   -0.2320 C   0  0  0  0  0  0  0  0  0  0  0  0
    2.1000    1.4650   -1.6370 C   0  0  0  0  0  0  0  0  0  0  0  0
    0.5950    1.6870   -1.3600 C   0  0  0  0  0  0  0  0  0  0  0  0
    0.3930    0.6290   -0.2830 C   0  0  1  0  0  0  0  0  0  0  0  0
   -0.0440   -0.6420   -0.8030 C   0  0  0  0  0  0  0  0  0  0  0  0
    0.6200   -1.6700   -0.5610 O   0  0  0  0  0  0  0  0  0  0  0  0
    2.7450    2.3760    0.1840 H   0  0  0  0  0  0  0  0  0  0  0  0
    3.5480    0.7660   -0.1680 H   0  0  0  0  0  0  0  0  0  0  0  0
    2.2440    0.4810   -2.1490 H   0  0  0  0  0  0  0  0  0  0  0  0
    2.5260    2.3000   -2.1870 H   0  0  0  0  0  0  0  0  0  0  0  0
    0.5170    2.7130   -0.9650 H   0  0  0  0  0  0  0  0  0  0  0  0
    0.0130    1.4920   -2.2640 H   0  0  0  0  0  0  0  0  0  0  0  0
   -0.4700    1.0460    0.3260 H   0  0  0  0  0  0  0  0  0  0  0  0
   -1.2100   -0.7940   -1.5910 N   0  0  0  0  0  0  0  0  0  0  0  0
   -1.6200   -2.0900   -2.0990 C   0  0  0  0  0  0  0  0  0  0  0  0
   -0.5850   -2.6870   -2.9770 C   0  0  0  0  0  0  0  0  0  0  0  0
    0.4980   -2.0960   -3.2150 O   0  0  0  0  0  0  0  0  0  0  0  0
   -0.8200   -3.9140   -3.5390 O   0  0  0  0  0  0  0  0  0  0  0  0
   -1.8280    0.0360   -1.8400 H   0  0  0  0  0  0  0  0  0  0  0  0
   -1.8680   -2.7880   -1.2510 H   0  0  0  0  0  0  0  0  0  0  0  0
   -2.5660   -1.9870   -2.6620 H   0  0  0  0  0  0  0  0  0  0  0  0
  1  9  1  0  0  0  0
  1  2  1  0  0  0  0
  1 10  1  0  0  0  0
  3 12  1  0  0  0  0
  3  2  1  0  0  0  0
  4 15  1  0  0  0  0
  4  3  1  0  0  0  0
  5  4  1  0  0  0  0
  5 16  1  1  0  0  0
  6 17  1  0  0  0  0
  6  5  1  0  0  0  0
  7  8  2  0  0  0  0
  7  5  1  0  0  0  0
 11  1  1  0  0  0  0
 13  3  1  0  0  0  0
 14  4  1  0  0  0  0
 18  6  1  0  0  0  0
 19  7  1  0  0  0  0
 20 27  1  0  0  0  0
 20 26  1  0  0  0  0
 20 19  1  0  0  0  0
 21 22  1  0  0  0  0
 21 20  1  0  0  0  0
 22 30  1  0  0  0  0
 22 23  1  0  0  0  0
 23 32  1  1  0  0  0
 23 19  1  0  0  0  0
 24 25  2  0  0  0  0
 24 23  1  0  0  0  0
 28 21  1  0  0  0  0
 29 21  1  0  0  0  0
 31 22  1  0  0  0  0
 33 24  1  0  0  0  0
 34 33  1  0  0  0  0
 34 39  1  0  0  0  0
 35 34  1  0  0  0  0
 36 35  1  0  0  0  0
 37 35  2  0  0  0  0
 38 33  1  0  0  0  0
 40 34  1  0  0  0  0
M  END
$$$$
