MPH.pdb
 OpenBabel07022418563D

 50 51  0  0  1  0  0  0  0  0999 V2000
    1.2820   -4.3950    0.6570 C   0  0  0  0  0  0  0  0  0  0  0  0
    1.2960   -3.8140   -1.0280 S   0  0  0  0  0  0  0  0  0  0  0  0
    1.1270   -2.0770   -1.2850 C   0  0  0  0  0  0  0  0  0  0  0  0
    2.2840   -1.2160   -1.0150 C   0  0  0  0  0  0  0  0  0  0  0  0
    2.8860   -1.1290    0.3410 C   0  0  2  0  0  0  0  0  0  0  0  0
    3.3480   -2.4390    0.7380 N   0  0  0  0  0  0  0  0  0  0  0  0
    2.0620   -0.4720    1.3750 C   0  0  0  0  0  0  0  0  0  0  0  0
    1.6980   -1.2220    2.3530 O   0  0  0  0  0  0  0  0  0  0  0  0
    0.5400   -5.2630    0.7140 H   0  0  0  0  0  0  0  0  0  0  0  0
    2.2540   -4.8760    0.9560 H   0  0  0  0  0  0  0  0  0  0  0  0
    1.0300   -3.6530    1.4190 H   0  0  0  0  0  0  0  0  0  0  0  0
    0.2370   -1.6500   -0.7190 H   0  0  0  0  0  0  0  0  0  0  0  0
    0.8230   -1.8610   -2.3720 H   0  0  0  0  0  0  0  0  0  0  0  0
    1.9880   -0.1680   -1.3920 H   0  0  0  0  0  0  0  0  0  0  0  0
    3.1080   -1.4570   -1.7840 H   0  0  0  0  0  0  0  0  0  0  0  0
    3.8530   -0.5450    0.1910 H   0  0  0  0  0  0  0  0  0  0  0  0
    4.0940   -2.3860    1.4850 H   0  0  0  0  0  0  0  0  0  0  0  0
    3.7240   -2.9960   -0.0330 H   0  0  0  0  0  0  0  0  0  0  0  0
    1.6610    0.8820    1.3700 N   0  0  0  0  0  0  0  0  0  0  0  0
    2.0040    1.8280    0.3470 C   0  0  0  0  0  0  0  0  0  0  0  0
    2.2250    3.0840    1.2140 C   0  0  0  0  0  0  0  0  0  0  0  0
    0.9380    3.0430    2.0080 C   0  0  0  0  0  0  0  0  0  0  0  0
    0.8770    1.5600    2.3560 C   0  0  1  0  0  0  0  0  0  0  0  0
   -0.4880    1.0910    2.5550 C   0  0  0  0  0  0  0  0  0  0  0  0
   -1.1650    1.6640    3.4820 O   0  0  0  0  0  0  0  0  0  0  0  0
    1.1950    2.0840   -0.3370 H   0  0  0  0  0  0  0  0  0  0  0  0
    2.9540    1.5760   -0.1760 H   0  0  0  0  0  0  0  0  0  0  0  0
    3.1120    2.8760    1.8230 H   0  0  0  0  0  0  0  0  0  0  0  0
    2.3090    3.9910    0.5910 H   0  0  0  0  0  0  0  0  0  0  0  0
    0.1160    3.3440    1.3470 H   0  0  0  0  0  0  0  0  0  0  0  0
    1.0620    3.6880    2.8850 H   0  0  0  0  0  0  0  0  0  0  0  0
    1.3650    1.5130    3.3810 H   0  0  0  0  0  0  0  0  0  0  0  0
   -1.1410    0.0650    1.8240 N   0  0  0  0  0  0  0  0  0  0  0  0
   -2.5140   -0.3130    2.1230 C   0  0  1  0  0  0  0  0  0  0  0  0
   -3.4260    0.0330    0.9810 C   0  0  0  0  0  0  0  0  0  0  0  0
   -3.0630   -0.6460   -0.2910 C   0  0  0  0  0  0  0  0  0  0  0  0
   -3.5360   -1.8700   -0.6990 C   0  0  0  0  0  0  0  0  0  0  0  0
   -2.9760   -2.1260   -1.8890 N   0  0  0  0  0  0  0  0  0  0  0  0
   -2.1820   -1.0960   -2.2100 C   0  0  0  0  0  0  0  0  0  0  0  0
   -2.2370   -0.2000   -1.2380 N   0  0  0  0  0  0  0  0  0  0  0  0
   -2.6250   -1.7550    2.4350 C   0  0  0  0  0  0  0  0  0  0  0  0
   -1.6020   -2.4710    2.4170 O   0  0  0  0  0  0  0  0  0  0  0  0
   -3.8550   -2.3020    2.7450 O   0  0  0  0  0  0  0  0  0  0  0  0
   -0.5810   -0.3800    1.0830 H   0  0  0  0  0  0  0  0  0  0  0  0
   -2.8480    0.3230    2.9820 H   0  0  0  0  0  0  0  0  0  0  0  0
   -4.4660   -0.2800    1.2920 H   0  0  0  0  0  0  0  0  0  0  0  0
   -3.4950    1.1440    0.8550 H   0  0  0  0  0  0  0  0  0  0  0  0
   -4.2250   -2.5400   -0.2000 H   0  0  0  0  0  0  0  0  0  0  0  0
   -3.1260   -2.9830   -2.4790 H   0  0  0  0  0  0  0  0  0  0  0  0
   -1.6040   -1.0430   -3.1270 H   0  0  0  0  0  0  0  0  0  0  0  0
  1  9  1  0  0  0  0
  1 10  1  0  0  0  0
  1 11  1  0  0  0  0
  2  1  1  0  0  0  0
  3  2  1  0  0  0  0
  3  4  1  0  0  0  0
  3 12  1  0  0  0  0
  4  5  1  0  0  0  0
  5 16  1  6  0  0  0
  5  6  1  0  0  0  0
  5  7  1  0  0  0  0
  6 17  1  0  0  0  0
  7  8  2  0  0  0  0
 13  3  1  0  0  0  0
 14  4  1  0  0  0  0
 15  4  1  0  0  0  0
 18  6  1  0  0  0  0
 19  7  1  0  0  0  0
 19 23  1  0  0  0  0
 20 21  1  0  0  0  0
 20 19  1  0  0  0  0
 21 28  1  0  0  0  0
 21 22  1  0  0  0  0
 22 23  1  0  0  0  0
 22 31  1  0  0  0  0
 23 24  1  0  0  0  0
 23 32  1  1  0  0  0
 24 25  2  0  0  0  0
 26 20  1  0  0  0  0
 27 20  1  0  0  0  0
 29 21  1  0  0  0  0
 30 22  1  0  0  0  0
 33 34  1  0  0  0  0
 33 24  1  0  0  0  0
 34 41  1  0  0  0  0
 34 45  1  1  0  0  0
 35 46  1  0  0  0  0
 35 34  1  0  0  0  0
 36 35  1  0  0  0  0
 37 36  2  0  0  0  0
 37 48  1  0  0  0  0
 38 37  1  0  0  0  0
 39 38  1  0  0  0  0
 39 40  2  0  0  0  0
 40 36  1  0  0  0  0
 41 43  1  0  0  0  0
 42 41  2  0  0  0  0
 44 33  1  0  0  0  0
 47 35  1  0  0  0  0
 49 38  1  0  0  0  0
 50 39  1  0  0  0  0
M  END
$$$$
