MPI.pdb
 OpenBabel07022418563D

 52 52  0  0  1  0  0  0  0  0999 V2000
   -4.4490    2.9010    4.3750 C   0  0  0  0  0  0  0  0  0  0  0  0
   -3.8890    1.4950    5.3340 S   0  0  0  0  0  0  0  0  0  0  0  0
   -2.5120    0.6260    4.5030 C   0  0  0  0  0  0  0  0  0  0  0  0
   -1.3330    1.5420    4.4710 C   0  0  0  0  0  0  0  0  0  0  0  0
   -0.0990    0.9510    3.8110 C   0  0  2  0  0  0  0  0  0  0  0  0
    0.9240    1.9710    3.8810 N   0  0  0  0  0  0  0  0  0  0  0  0
   -0.3070    0.4770    2.4500 C   0  0  0  0  0  0  0  0  0  0  0  0
   -1.1440   -0.4380    2.2570 O   0  0  0  0  0  0  0  0  0  0  0  0
   -4.1280    3.8810    4.8350 H   0  0  0  0  0  0  0  0  0  0  0  0
   -5.5650    2.8670    4.3090 H   0  0  0  0  0  0  0  0  0  0  0  0
   -4.0430    2.9370    3.3430 H   0  0  0  0  0  0  0  0  0  0  0  0
   -2.8610    0.4770    3.4630 H   0  0  0  0  0  0  0  0  0  0  0  0
   -2.3190   -0.3300    4.9990 H   0  0  0  0  0  0  0  0  0  0  0  0
   -1.0470    1.8290    5.4890 H   0  0  0  0  0  0  0  0  0  0  0  0
   -1.6420    2.4750    3.9550 H   0  0  0  0  0  0  0  0  0  0  0  0
    0.1760    0.0570    4.4310 H   0  0  0  0  0  0  0  0  0  0  0  0
    0.5550    2.9010    4.1790 H   0  0  0  0  0  0  0  0  0  0  0  0
    1.6700    1.6210    4.5290 H   0  0  0  0  0  0  0  0  0  0  0  0
    0.3930    1.0050    1.3390 N   0  0  0  0  0  0  0  0  0  0  0  0
    1.3730    2.0290    1.3800 C   0  0  0  0  0  0  0  0  0  0  0  0
    1.7860    2.2820   -0.0430 C   0  0  0  0  0  0  0  0  0  0  0  0
    0.8150    1.5160   -0.8960 C   0  0  0  0  0  0  0  0  0  0  0  0
    0.1750    0.5360    0.0030 C   0  0  1  0  0  0  0  0  0  0  0  0
    0.6620   -0.8570   -0.1910 C   0  0  0  0  0  0  0  0  0  0  0  0
    1.2240   -1.5230    0.7340 O   0  0  0  0  0  0  0  0  0  0  0  0
    2.2650    1.7570    2.0080 H   0  0  0  0  0  0  0  0  0  0  0  0
    0.9730    2.9940    1.8180 H   0  0  0  0  0  0  0  0  0  0  0  0
    2.8200    1.8790   -0.1650 H   0  0  0  0  0  0  0  0  0  0  0  0
    1.7620    3.3750   -0.2470 H   0  0  0  0  0  0  0  0  0  0  0  0
    0.1070    2.2610   -1.3550 H   0  0  0  0  0  0  0  0  0  0  0  0
    1.3830    1.0050   -1.7190 H   0  0  0  0  0  0  0  0  0  0  0  0
   -0.9420    0.5840   -0.1540 H   0  0  0  0  0  0  0  0  0  0  0  0
    0.9550   -5.8450   -1.1490 C   0  0  0  0  0  0  0  0  0  0  0  0
    0.2090   -5.2110   -2.2680 C   0  0  0  0  0  0  0  0  0  0  0  0
   -0.1490   -3.7800   -2.0070 C   0  0  2  0  0  0  0  0  0  0  0  0
   -0.9090   -3.1660   -3.1670 C   0  0  0  0  0  0  0  0  0  0  0  0
    0.9790   -2.8710   -1.6650 C   0  0  2  0  0  0  0  0  0  0  0  0
    0.5160   -1.5050   -1.4310 N   0  0  0  0  0  0  0  0  0  0  0  0
    2.0490   -2.9280   -2.6530 C   0  0  0  0  0  0  0  0  0  0  0  0
    2.5150   -1.9180   -3.2750 O   0  0  0  0  0  0  0  0  0  0  0  0
    2.6320   -4.1370   -2.9700 O   0  0  0  0  0  0  0  0  0  0  0  0
    0.2660   -6.3450   -0.4070 H   0  0  0  0  0  0  0  0  0  0  0  0
    1.6010   -6.6680   -1.5760 H   0  0  0  0  0  0  0  0  0  0  0  0
    1.6760   -5.1890   -0.6260 H   0  0  0  0  0  0  0  0  0  0  0  0
    0.7510   -5.3920   -3.2200 H   0  0  0  0  0  0  0  0  0  0  0  0
   -0.7710   -5.7900   -2.3560 H   0  0  0  0  0  0  0  0  0  0  0  0
   -0.8980   -3.8160   -1.1550 H   0  0  0  0  0  0  0  0  0  0  0  0
   -1.6090   -2.3560   -2.8270 H   0  0  0  0  0  0  0  0  0  0  0  0
   -1.4930   -3.9570   -3.6800 H   0  0  0  0  0  0  0  0  0  0  0  0
   -0.1980   -2.6470   -3.8740 H   0  0  0  0  0  0  0  0  0  0  0  0
    1.4140   -3.1990   -0.6940 H   0  0  0  0  0  0  0  0  0  0  0  0
    0.0640   -1.0470   -2.2660 H   0  0  0  0  0  0  0  0  0  0  0  0
  1  9  1  0  0  0  0
  1  2  1  0  0  0  0
  3 13  1  0  0  0  0
  3  2  1  0  0  0  0
  4  3  1  0  0  0  0
  4 14  1  0  0  0  0
  5  6  1  0  0  0  0
  5 16  1  1  0  0  0
  5  4  1  0  0  0  0
  6 17  1  0  0  0  0
  6 18  1  0  0  0  0
  7  5  1  0  0  0  0
  8  7  2  0  0  0  0
 10  1  1  0  0  0  0
 11  1  1  0  0  0  0
 12  3  1  0  0  0  0
 15  4  1  0  0  0  0
 19 20  1  0  0  0  0
 19  7  1  0  0  0  0
 20 27  1  0  0  0  0
 20 26  1  0  0  0  0
 21 20  1  0  0  0  0
 22 21  1  0  0  0  0
 22 23  1  0  0  0  0
 23 32  1  6  0  0  0
 23 19  1  0  0  0  0
 24 23  1  0  0  0  0
 24 25  2  0  0  0  0
 28 21  1  0  0  0  0
 29 21  1  0  0  0  0
 30 22  1  0  0  0  0
 31 22  1  0  0  0  0
 33 44  1  0  0  0  0
 33 42  1  0  0  0  0
 34 35  1  0  0  0  0
 34 33  1  0  0  0  0
 35 37  1  0  0  0  0
 35 47  1  1  0  0  0
 36 48  1  0  0  0  0
 36 35  1  0  0  0  0
 37 38  1  0  0  0  0
 37 51  1  1  0  0  0
 38 24  1  0  0  0  0
 39 37  1  0  0  0  0
 40 39  2  0  0  0  0
 41 39  1  0  0  0  0
 43 33  1  0  0  0  0
 45 34  1  0  0  0  0
 46 34  1  0  0  0  0
 49 36  1  0  0  0  0
 50 36  1  0  0  0  0
 52 38  1  0  0  0  0
M  END
$$$$
