MPK.pdb
 OpenBabel07022418563D

 54 54  0  0  1  0  0  0  0  0999 V2000
    0.3030   -4.8320    3.2100 C   0  0  0  0  0  0  0  0  0  0  0  0
    1.8120   -3.8670    3.1090 S   0  0  0  0  0  0  0  0  0  0  0  0
    2.0350   -3.1630    1.4290 C   0  0  0  0  0  0  0  0  0  0  0  0
    3.2840   -2.3670    1.3520 C   0  0  0  0  0  0  0  0  0  0  0  0
    3.3720   -1.2090    2.2840 C   0  0  2  0  0  0  0  0  0  0  0  0
    3.2540   -1.7520    3.6550 N   0  0  0  0  0  0  0  0  0  0  0  0
    2.4090   -0.1320    2.1070 C   0  0  0  0  0  0  0  0  0  0  0  0
    1.5460    0.0980    2.9780 O   0  0  0  0  0  0  0  0  0  0  0  0
   -0.3730   -4.6860    2.3580 H   0  0  0  0  0  0  0  0  0  0  0  0
    0.4890   -5.9270    3.3100 H   0  0  0  0  0  0  0  0  0  0  0  0
   -0.2810   -4.5550    4.1350 H   0  0  0  0  0  0  0  0  0  0  0  0
    1.1050   -2.6750    1.1730 H   0  0  0  0  0  0  0  0  0  0  0  0
    2.1000   -4.0720    0.7620 H   0  0  0  0  0  0  0  0  0  0  0  0
    3.4530   -2.0810    0.2950 H   0  0  0  0  0  0  0  0  0  0  0  0
    4.1310   -3.0840    1.5720 H   0  0  0  0  0  0  0  0  0  0  0  0
    4.4450   -0.8350    2.2460 H   0  0  0  0  0  0  0  0  0  0  0  0
    3.4750   -0.9950    4.3610 H   0  0  0  0  0  0  0  0  0  0  0  0
    4.0420   -2.4540    3.7850 H   0  0  0  0  0  0  0  0  0  0  0  0
    2.4200    0.6880    0.9510 N   0  0  0  0  0  0  0  0  0  0  0  0
    3.4060    0.4730   -0.1220 C   0  0  0  0  0  0  0  0  0  0  0  0
    3.6570    1.8870   -0.6250 C   0  0  0  0  0  0  0  0  0  0  0  0
    2.2580    2.4380   -0.6050 C   0  0  0  0  0  0  0  0  0  0  0  0
    1.6230    1.7890    0.5780 C   0  0  1  0  0  0  0  0  0  0  0  0
    0.1830    1.5170    0.3660 C   0  0  0  0  0  0  0  0  0  0  0  0
   -0.5320    2.5300    0.0860 O   0  0  0  0  0  0  0  0  0  0  0  0
    3.0090   -0.0990   -0.9560 H   0  0  0  0  0  0  0  0  0  0  0  0
    4.3660    0.1140    0.2910 H   0  0  0  0  0  0  0  0  0  0  0  0
    4.2450    2.4530    0.1300 H   0  0  0  0  0  0  0  0  0  0  0  0
    4.1260    1.9130   -1.6130 H   0  0  0  0  0  0  0  0  0  0  0  0
    1.7460    2.1160   -1.5570 H   0  0  0  0  0  0  0  0  0  0  0  0
    2.2520    3.5550   -0.5360 H   0  0  0  0  0  0  0  0  0  0  0  0
    1.7020    2.5690    1.4130 H   0  0  0  0  0  0  0  0  0  0  0  0
   -0.4130    0.2590    0.4530 N   0  0  0  0  0  0  0  0  0  0  0  0
   -1.8350    0.1130    0.2260 C   0  0  1  0  0  0  0  0  0  0  0  0
   -2.0840   -0.8570   -0.9110 C   0  0  0  0  0  0  0  0  0  0  0  0
   -3.5240   -1.0750   -1.2250 C   0  0  0  0  0  0  0  0  0  0  0  0
   -4.2390    0.1990   -1.6220 C   0  0  0  0  0  0  0  0  0  0  0  0
   -5.6820   -0.0600   -1.9280 C   0  0  0  0  0  0  0  0  0  0  0  0
   -5.8010   -1.0040   -3.0210 N   0  0  0  0  0  0  0  0  0  0  0  0
   -2.4880   -0.3120    1.4910 C   0  0  0  0  0  0  0  0  0  0  0  0
   -3.7260   -0.5080    1.6030 O   0  0  0  0  0  0  0  0  0  0  0  0
   -1.7060   -0.5060    2.6180 O   0  0  0  0  0  0  0  0  0  0  0  0
    0.2120   -0.5450    0.6810 H   0  0  0  0  0  0  0  0  0  0  0  0
   -2.2460    1.1190    0.0020 H   0  0  0  0  0  0  0  0  0  0  0  0
   -1.5200   -0.5280   -1.7860 H   0  0  0  0  0  0  0  0  0  0  0  0
   -1.6530   -1.8300   -0.5890 H   0  0  0  0  0  0  0  0  0  0  0  0
   -4.0990   -1.5600   -0.4290 H   0  0  0  0  0  0  0  0  0  0  0  0
   -3.5570   -1.8030   -2.0880 H   0  0  0  0  0  0  0  0  0  0  0  0
   -3.7630    0.5470   -2.5810 H   0  0  0  0  0  0  0  0  0  0  0  0
   -4.0840    1.0030   -0.8860 H   0  0  0  0  0  0  0  0  0  0  0  0
   -6.2230   -0.5070   -1.0670 H   0  0  0  0  0  0  0  0  0  0  0  0
   -6.1390    0.8890   -2.2710 H   0  0  0  0  0  0  0  0  0  0  0  0
   -5.7470   -1.9630   -2.6060 H   0  0  0  0  0  0  0  0  0  0  0  0
   -6.7330   -0.8840   -3.4440 H   0  0  0  0  0  0  0  0  0  0  0  0
  1 10  1  0  0  0  0
  1 11  1  0  0  0  0
  2  1  1  0  0  0  0
  3  2  1  0  0  0  0
  4  3  1  0  0  0  0
  4 15  1  0  0  0  0
  4  5  1  0  0  0  0
  5 16  1  6  0  0  0
  5  6  1  0  0  0  0
  6 18  1  0  0  0  0
  6 17  1  0  0  0  0
  7  5  1  0  0  0  0
  7  8  2  0  0  0  0
  9  1  1  0  0  0  0
 12  3  1  0  0  0  0
 13  3  1  0  0  0  0
 14  4  1  0  0  0  0
 19  7  1  0  0  0  0
 20 27  1  0  0  0  0
 20 19  1  0  0  0  0
 21 22  1  0  0  0  0
 21 20  1  0  0  0  0
 21 28  1  0  0  0  0
 22 31  1  0  0  0  0
 22 23  1  0  0  0  0
 23 19  1  0  0  0  0
 23 32  1  1  0  0  0
 24 33  1  0  0  0  0
 24 23  1  0  0  0  0
 25 24  2  0  0  0  0
 26 20  1  0  0  0  0
 29 21  1  0  0  0  0
 30 22  1  0  0  0  0
 33 43  1  0  0  0  0
 34 44  1  6  0  0  0
 34 33  1  0  0  0  0
 34 40  1  0  0  0  0
 35 46  1  0  0  0  0
 35 34  1  0  0  0  0
 36 35  1  0  0  0  0
 36 47  1  0  0  0  0
 37 36  1  0  0  0  0
 37 50  1  0  0  0  0
 38 37  1  0  0  0  0
 38 51  1  0  0  0  0
 39 53  1  0  0  0  0
 39 38  1  0  0  0  0
 40 41  2  0  0  0  0
 40 42  1  0  0  0  0
 45 35  1  0  0  0  0
 48 36  1  0  0  0  0
 49 37  1  0  0  0  0
 52 38  1  0  0  0  0
 54 39  1  0  0  0  0
M  END
$$$$
