MPL.pdb
 OpenBabel07022418563D

 52 52  0  0  1  0  0  0  0  0999 V2000
   -2.6610   -1.7300    5.9860 C   0  0  0  0  0  0  0  0  0  0  0  0
   -0.9640   -2.1220    6.5620 S   0  0  0  0  0  0  0  0  0  0  0  0
    0.2300   -1.7360    5.2070 C   0  0  0  0  0  0  0  0  0  0  0  0
    0.2000   -0.2730    5.0250 C   0  0  0  0  0  0  0  0  0  0  0  0
    1.0840    0.3370    4.0030 C   0  0  2  0  0  0  0  0  0  0  0  0
    0.8460    1.7850    4.0650 N   0  0  0  0  0  0  0  0  0  0  0  0
    1.0180   -0.1920    2.6430 C   0  0  0  0  0  0  0  0  0  0  0  0
    0.7140   -1.3950    2.5100 O   0  0  0  0  0  0  0  0  0  0  0  0
   -2.9170   -0.6720    6.1550 H   0  0  0  0  0  0  0  0  0  0  0  0
   -3.4010   -2.4210    6.4160 H   0  0  0  0  0  0  0  0  0  0  0  0
   -2.6300   -1.9370    4.8750 H   0  0  0  0  0  0  0  0  0  0  0  0
    1.2200   -2.0440    5.6100 H   0  0  0  0  0  0  0  0  0  0  0  0
   -0.1190   -2.3300    4.3660 H   0  0  0  0  0  0  0  0  0  0  0  0
    0.5010    0.1920    6.0140 H   0  0  0  0  0  0  0  0  0  0  0  0
   -0.8640    0.0700    4.9080 H   0  0  0  0  0  0  0  0  0  0  0  0
    2.1750    0.2250    4.3150 H   0  0  0  0  0  0  0  0  0  0  0  0
    0.7160    2.0600    5.0660 H   0  0  0  0  0  0  0  0  0  0  0  0
   -0.0250    1.9760    3.4870 H   0  0  0  0  0  0  0  0  0  0  0  0
    1.2760    0.5900    1.5190 N   0  0  0  0  0  0  0  0  0  0  0  0
    1.7750    1.9680    1.5840 C   0  0  0  0  0  0  0  0  0  0  0  0
    2.8050    1.9710    0.4350 C   0  0  0  0  0  0  0  0  0  0  0  0
    2.5860    0.6460   -0.3130 C   0  0  0  0  0  0  0  0  0  0  0  0
    1.1470    0.4020    0.1040 C   0  0  1  0  0  0  0  0  0  0  0  0
    0.4920   -0.7410   -0.4440 C   0  0  0  0  0  0  0  0  0  0  0  0
   -0.1910   -1.5210    0.2540 O   0  0  0  0  0  0  0  0  0  0  0  0
    2.3190    2.1880    2.5290 H   0  0  0  0  0  0  0  0  0  0  0  0
    0.9480    2.6590    1.4030 H   0  0  0  0  0  0  0  0  0  0  0  0
    3.8300    2.0190    0.8620 H   0  0  0  0  0  0  0  0  0  0  0  0
    2.6240    2.8400   -0.2020 H   0  0  0  0  0  0  0  0  0  0  0  0
    3.2900   -0.0920    0.0730 H   0  0  0  0  0  0  0  0  0  0  0  0
    2.7050    0.7800   -1.4010 H   0  0  0  0  0  0  0  0  0  0  0  0
    0.6210    1.3690   -0.2570 H   0  0  0  0  0  0  0  0  0  0  0  0
   -3.0570   -1.5950   -2.0490 C   0  0  0  0  0  0  0  0  0  0  0  0
   -2.1970   -1.1470   -3.1820 C   0  0  0  0  0  0  0  0  0  0  0  0
   -3.0890   -1.0610   -4.4170 C   0  0  0  0  0  0  0  0  0  0  0  0
   -1.0430   -2.0850   -3.4700 C   0  0  0  0  0  0  0  0  0  0  0  0
   -0.1190   -2.2530   -2.3230 C   0  0  2  0  0  0  0  0  0  0  0  0
    0.5350   -1.1250   -1.8190 N   0  0  0  0  0  0  0  0  0  0  0  0
    0.9220   -3.2630   -2.7180 C   0  0  0  0  0  0  0  0  0  0  0  0
    0.6110   -4.3780   -3.2070 O   0  0  0  0  0  0  0  0  0  0  0  0
    2.2660   -2.9920   -2.5540 O   0  0  0  0  0  0  0  0  0  0  0  0
   -3.2850   -2.6740   -2.0620 H   0  0  0  0  0  0  0  0  0  0  0  0
   -4.0550   -1.0830   -2.1550 H   0  0  0  0  0  0  0  0  0  0  0  0
   -2.6360   -1.2350   -1.0940 H   0  0  0  0  0  0  0  0  0  0  0  0
   -1.8660   -0.1140   -2.9740 H   0  0  0  0  0  0  0  0  0  0  0  0
   -3.7710   -1.9590   -4.4600 H   0  0  0  0  0  0  0  0  0  0  0  0
   -3.7510   -0.1720   -4.3270 H   0  0  0  0  0  0  0  0  0  0  0  0
   -2.5060   -1.0780   -5.3540 H   0  0  0  0  0  0  0  0  0  0  0  0
   -0.5780   -1.8310   -4.4250 H   0  0  0  0  0  0  0  0  0  0  0  0
   -1.5380   -3.0830   -3.6450 H   0  0  0  0  0  0  0  0  0  0  0  0
   -0.6750   -2.7600   -1.4930 H   0  0  0  0  0  0  0  0  0  0  0  0
    1.0860   -0.5220   -2.4610 H   0  0  0  0  0  0  0  0  0  0  0  0
  1  9  1  0  0  0  0
  1 10  1  0  0  0  0
  1  2  1  0  0  0  0
  3 12  1  0  0  0  0
  3  2  1  0  0  0  0
  4  3  1  0  0  0  0
  4 14  1  0  0  0  0
  5  6  1  0  0  0  0
  5 16  1  1  0  0  0
  5  4  1  0  0  0  0
  6 17  1  0  0  0  0
  7  5  1  0  0  0  0
  8  7  2  0  0  0  0
 11  1  1  0  0  0  0
 13  3  1  0  0  0  0
 15  4  1  0  0  0  0
 18  6  1  0  0  0  0
 19 20  1  0  0  0  0
 19  7  1  0  0  0  0
 20 26  1  0  0  0  0
 21 28  1  0  0  0  0
 21 20  1  0  0  0  0
 22 30  1  0  0  0  0
 22 23  1  0  0  0  0
 22 21  1  0  0  0  0
 23 32  1  6  0  0  0
 23 19  1  0  0  0  0
 24 23  1  0  0  0  0
 24 25  2  0  0  0  0
 27 20  1  0  0  0  0
 29 21  1  0  0  0  0
 31 22  1  0  0  0  0
 33 44  1  0  0  0  0
 34 45  1  0  0  0  0
 34 33  1  0  0  0  0
 35 47  1  0  0  0  0
 35 34  1  0  0  0  0
 36 34  1  0  0  0  0
 36 37  1  0  0  0  0
 37 38  1  0  0  0  0
 37 51  1  1  0  0  0
 38 24  1  0  0  0  0
 39 41  1  0  0  0  0
 39 37  1  0  0  0  0
 40 39  2  0  0  0  0
 42 33  1  0  0  0  0
 43 33  1  0  0  0  0
 46 35  1  0  0  0  0
 48 35  1  0  0  0  0
 49 36  1  0  0  0  0
 50 36  1  0  0  0  0
 52 38  1  0  0  0  0
M  END
$$$$
