MPN.pdb
 OpenBabel07022418563D

 47 47  0  0  1  0  0  0  0  0999 V2000
   -1.4870   -4.0320    4.8430 C   0  0  0  0  0  0  0  0  0  0  0  0
    0.2820   -3.7720    4.5900 S   0  0  0  0  0  0  0  0  0  0  0  0
    0.8170   -2.1730    5.2650 C   0  0  0  0  0  0  0  0  0  0  0  0
    0.1660   -1.0410    4.4800 C   0  0  0  0  0  0  0  0  0  0  0  0
    0.5900   -1.1530    3.0270 C   0  0  2  0  0  0  0  0  0  0  0  0
    2.0100   -1.0460    2.9570 N   0  0  0  0  0  0  0  0  0  0  0  0
   -0.1440   -0.2200    2.1930 C   0  0  0  0  0  0  0  0  0  0  0  0
   -1.4230   -0.2940    2.1710 O   0  0  0  0  0  0  0  0  0  0  0  0
   -1.8530   -3.6780    5.8190 H   0  0  0  0  0  0  0  0  0  0  0  0
   -1.6760   -5.1310    4.7680 H   0  0  0  0  0  0  0  0  0  0  0  0
   -2.0750   -3.6120    3.9740 H   0  0  0  0  0  0  0  0  0  0  0  0
    1.9180   -2.1060    5.1600 H   0  0  0  0  0  0  0  0  0  0  0  0
    0.5980   -2.1140    6.3360 H   0  0  0  0  0  0  0  0  0  0  0  0
   -0.9290   -1.1040    4.6120 H   0  0  0  0  0  0  0  0  0  0  0  0
    0.5040   -0.0600    4.8590 H   0  0  0  0  0  0  0  0  0  0  0  0
    0.3130   -2.2080    2.7320 H   0  0  0  0  0  0  0  0  0  0  0  0
    2.3530   -0.5830    3.8420 H   0  0  0  0  0  0  0  0  0  0  0  0
    2.4740   -1.9980    2.9860 H   0  0  0  0  0  0  0  0  0  0  0  0
    0.4390    0.8100    1.3630 N   0  0  0  0  0  0  0  0  0  0  0  0
    1.8470    1.0210    1.2930 C   0  0  0  0  0  0  0  0  0  0  0  0
    2.0910    2.2000    0.4310 C   0  0  0  0  0  0  0  0  0  0  0  0
    0.7360    2.8650    0.3490 C   0  0  0  0  0  0  0  0  0  0  0  0
   -0.2480    1.7310    0.5150 C   0  0  1  0  0  0  0  0  0  0  0  0
   -0.4610    1.1770   -0.8630 C   0  0  0  0  0  0  0  0  0  0  0  0
   -1.0270    1.8800   -1.7300 O   0  0  0  0  0  0  0  0  0  0  0  0
    2.2140    1.2150    2.3470 H   0  0  0  0  0  0  0  0  0  0  0  0
    2.3680    0.0920    0.9040 H   0  0  0  0  0  0  0  0  0  0  0  0
    2.4590    1.8640   -0.5720 H   0  0  0  0  0  0  0  0  0  0  0  0
    2.8690    2.8920    0.8660 H   0  0  0  0  0  0  0  0  0  0  0  0
    0.6470    3.3070   -0.6720 H   0  0  0  0  0  0  0  0  0  0  0  0
    0.6370    3.6620    1.0850 H   0  0  0  0  0  0  0  0  0  0  0  0
   -1.1850    2.0840    0.9850 H   0  0  0  0  0  0  0  0  0  0  0  0
   -3.6230   -1.5950   -3.3590 N   0  0  0  0  0  0  0  0  0  0  0  0
   -2.6420   -0.7480   -2.7050 C   0  0  0  0  0  0  0  0  0  0  0  0
   -2.9910   -0.2860   -1.6000 O   0  0  0  0  0  0  0  0  0  0  0  0
   -1.3410   -0.4730   -3.3140 C   0  0  0  0  0  0  0  0  0  0  0  0
   -0.1600   -0.8170   -2.4190 C   0  0  2  0  0  0  0  0  0  0  0  0
   -0.0360   -0.1240   -1.2020 N   0  0  0  0  0  0  0  0  0  0  0  0
    1.0880   -1.0460   -3.1520 C   0  0  0  0  0  0  0  0  0  0  0  0
    2.1710   -0.6390   -2.6630 O   0  0  0  0  0  0  0  0  0  0  0  0
    1.1430   -1.6970   -4.3730 O   0  0  0  0  0  0  0  0  0  0  0  0
   -4.2100   -1.2770   -4.1460 H   0  0  0  0  0  0  0  0  0  0  0  0
   -3.7450   -2.5790   -3.0210 H   0  0  0  0  0  0  0  0  0  0  0  0
   -1.2200   -1.0060   -4.3000 H   0  0  0  0  0  0  0  0  0  0  0  0
   -1.2710    0.5940   -3.5690 H   0  0  0  0  0  0  0  0  0  0  0  0
   -0.5040   -1.8940   -2.0770 H   0  0  0  0  0  0  0  0  0  0  0  0
    0.4510   -0.6490   -0.4120 H   0  0  0  0  0  0  0  0  0  0  0  0
  1  9  1  0  0  0  0
  2  1  1  0  0  0  0
  2  3  1  0  0  0  0
  3 13  1  0  0  0  0
  4 14  1  0  0  0  0
  4 15  1  0  0  0  0
  4  3  1  0  0  0  0
  5 16  1  6  0  0  0
  5  4  1  0  0  0  0
  6 18  1  0  0  0  0
  6  5  1  0  0  0  0
  6 17  1  0  0  0  0
  7  5  1  0  0  0  0
  8  7  2  0  0  0  0
 10  1  1  0  0  0  0
 11  1  1  0  0  0  0
 12  3  1  0  0  0  0
 19  7  1  0  0  0  0
 20 19  1  0  0  0  0
 20 26  1  0  0  0  0
 21 29  1  0  0  0  0
 21 20  1  0  0  0  0
 22 21  1  0  0  0  0
 22 23  1  0  0  0  0
 22 31  1  0  0  0  0
 23 32  1  1  0  0  0
 23 19  1  0  0  0  0
 24 23  1  0  0  0  0
 25 24  2  0  0  0  0
 27 20  1  0  0  0  0
 28 21  1  0  0  0  0
 30 22  1  0  0  0  0
 33 43  1  0  0  0  0
 33 34  1  0  0  0  0
 34 35  2  0  0  0  0
 36 34  1  0  0  0  0
 36 37  1  0  0  0  0
 37 46  1  1  0  0  0
 37 38  1  0  0  0  0
 38 24  1  0  0  0  0
 38 47  1  0  0  0  0
 39 40  1  0  0  0  0
 39 37  1  0  0  0  0
 41 39  2  0  0  0  0
 42 33  1  0  0  0  0
 44 36  1  0  0  0  0
 45 36  1  0  0  0  0
M  END
$$$$
