MPP.pdb
 OpenBabel07022418563D

 47 48  0  0  1  0  0  0  0  0999 V2000
    2.3820   -4.6290    2.2350 C   0  0  0  0  0  0  0  0  0  0  0  0
    2.8610   -5.0440    0.5310 S   0  0  0  0  0  0  0  0  0  0  0  0
    2.9140   -3.4990   -0.4580 C   0  0  0  0  0  0  0  0  0  0  0  0
    1.4900   -2.9990   -0.5340 C   0  0  0  0  0  0  0  0  0  0  0  0
    1.3700   -1.7170   -1.3260 C   0  0  2  0  0  0  0  0  0  0  0  0
    1.8800   -2.0930   -2.6710 N   0  0  0  0  0  0  0  0  0  0  0  0
    2.1400   -0.6070   -0.7730 C   0  0  0  0  0  0  0  0  0  0  0  0
    3.2570   -0.3350   -1.3390 O   0  0  0  0  0  0  0  0  0  0  0  0
    2.4440   -5.5300    2.8610 H   0  0  0  0  0  0  0  0  0  0  0  0
    3.1160   -3.9010    2.6650 H   0  0  0  0  0  0  0  0  0  0  0  0
    1.3390   -4.2650    2.3010 H   0  0  0  0  0  0  0  0  0  0  0  0
    3.2840   -3.8010   -1.4690 H   0  0  0  0  0  0  0  0  0  0  0  0
    3.5910   -2.7880    0.0430 H   0  0  0  0  0  0  0  0  0  0  0  0
    1.1030   -2.9230    0.4860 H   0  0  0  0  0  0  0  0  0  0  0  0
    0.8990   -3.8130   -1.0290 H   0  0  0  0  0  0  0  0  0  0  0  0
    0.2980   -1.5050   -1.4630 H   0  0  0  0  0  0  0  0  0  0  0  0
    1.1320   -2.6930   -3.0790 H   0  0  0  0  0  0  0  0  0  0  0  0
    2.0210   -1.2150   -3.2080 H   0  0  0  0  0  0  0  0  0  0  0  0
    1.7100    0.1540    0.3240 N   0  0  0  0  0  0  0  0  0  0  0  0
    2.4420    1.2520    0.9210 C   0  0  0  0  0  0  0  0  0  0  0  0
    2.2430    0.9690    2.3950 C   0  0  0  0  0  0  0  0  0  0  0  0
    0.7200    0.7640    2.3970 C   0  0  0  0  0  0  0  0  0  0  0  0
    0.4850    0.0400    1.0600 C   0  0  1  0  0  0  0  0  0  0  0  0
   -0.6580    0.6860    0.3430 C   0  0  0  0  0  0  0  0  0  0  0  0
   -0.5000    1.2470   -0.7670 O   0  0  0  0  0  0  0  0  0  0  0  0
    2.0330    2.2350    0.6380 H   0  0  0  0  0  0  0  0  0  0  0  0
    3.5150    1.2360    0.6360 H   0  0  0  0  0  0  0  0  0  0  0  0
    2.7430    0.0160    2.6320 H   0  0  0  0  0  0  0  0  0  0  0  0
    2.5440    1.8070    3.0320 H   0  0  0  0  0  0  0  0  0  0  0  0
    0.2720    1.7690    2.4000 H   0  0  0  0  0  0  0  0  0  0  0  0
    0.4880    0.1420    3.2620 H   0  0  0  0  0  0  0  0  0  0  0  0
    0.1670   -0.9620    1.3270 H   0  0  0  0  0  0  0  0  0  0  0  0
   -1.9520    0.6750    0.9070 N   0  0  0  0  0  0  0  0  0  0  0  0
   -2.3100    0.0770    2.1770 C   0  0  0  0  0  0  0  0  0  0  0  0
   -3.7110   -0.4400    1.9360 C   0  0  0  0  0  0  0  0  0  0  0  0
   -4.3110    0.6730    1.1070 C   0  0  0  0  0  0  0  0  0  0  0  0
   -3.1310    1.2370    0.3430 C   0  0  1  0  0  0  0  0  0  0  0  0
   -3.2180    2.7060    0.4190 C   0  0  0  0  0  0  0  0  0  0  0  0
   -2.3200    3.3990    0.9430 O   0  0  0  0  0  0  0  0  0  0  0  0
   -4.3280    3.3400   -0.1070 O   0  0  0  0  0  0  0  0  0  0  0  0
   -1.6020   -0.7320    2.4610 H   0  0  0  0  0  0  0  0  0  0  0  0
   -2.3590    0.8520    2.9440 H   0  0  0  0  0  0  0  0  0  0  0  0
   -4.2380   -0.5930    2.8930 H   0  0  0  0  0  0  0  0  0  0  0  0
   -3.7430   -1.3680    1.3540 H   0  0  0  0  0  0  0  0  0  0  0  0
   -4.7050    1.4390    1.8340 H   0  0  0  0  0  0  0  0  0  0  0  0
   -5.1420    0.3630    0.4740 H   0  0  0  0  0  0  0  0  0  0  0  0
   -3.2720    0.9480   -0.7340 H   0  0  0  0  0  0  0  0  0  0  0  0
  1 11  1  0  0  0  0
  1 10  1  0  0  0  0
  1  9  1  0  0  0  0
  2  1  1  0  0  0  0
  3 13  1  0  0  0  0
  3  2  1  0  0  0  0
  4  3  1  0  0  0  0
  4 14  1  0  0  0  0
  5 16  1  6  0  0  0
  5  7  1  0  0  0  0
  5  4  1  0  0  0  0
  6  5  1  0  0  0  0
  7 19  1  0  0  0  0
  8  7  2  0  0  0  0
 12  3  1  0  0  0  0
 15  4  1  0  0  0  0
 17  6  1  0  0  0  0
 18  6  1  0  0  0  0
 19 20  1  0  0  0  0
 19 23  1  0  0  0  0
 20 21  1  0  0  0  0
 21 22  1  0  0  0  0
 21 28  1  0  0  0  0
 21 29  1  0  0  0  0
 22 30  1  0  0  0  0
 22 31  1  0  0  0  0
 23 32  1  1  0  0  0
 23 22  1  0  0  0  0
 24 33  1  0  0  0  0
 24 23  1  0  0  0  0
 25 24  2  0  0  0  0
 26 20  1  0  0  0  0
 27 20  1  0  0  0  0
 33 34  1  0  0  0  0
 34 41  1  0  0  0  0
 34 42  1  0  0  0  0
 35 34  1  0  0  0  0
 35 43  1  0  0  0  0
 36 45  1  0  0  0  0
 36 35  1  0  0  0  0
 37 47  1  6  0  0  0
 37 38  1  0  0  0  0
 37 33  1  0  0  0  0
 37 36  1  0  0  0  0
 38 39  1  0  0  0  0
 40 38  2  0  0  0  0
 44 35  1  0  0  0  0
 46 36  1  0  0  0  0
M  END
$$$$
