MPQ.pdb
 OpenBabel07022418563D

 50 50  0  0  1  0  0  0  0  0999 V2000
    0.6230   -5.0840    3.0720 C   0  0  0  0  0  0  0  0  0  0  0  0
    2.1420   -4.2130    2.5930 S   0  0  0  0  0  0  0  0  0  0  0  0
    1.7320   -3.1990    1.1320 C   0  0  0  0  0  0  0  0  0  0  0  0
    2.9220   -2.4230    0.6470 C   0  0  0  0  0  0  0  0  0  0  0  0
    3.4780   -1.4760    1.6760 C   0  0  2  0  0  0  0  0  0  0  0  0
    3.8770   -2.2750    2.8280 N   0  0  0  0  0  0  0  0  0  0  0  0
    2.5710   -0.3990    2.0610 C   0  0  0  0  0  0  0  0  0  0  0  0
    2.1920   -0.3150    3.2550 O   0  0  0  0  0  0  0  0  0  0  0  0
    0.0230   -5.3960    2.1890 H   0  0  0  0  0  0  0  0  0  0  0  0
    0.8580   -6.0210    3.6390 H   0  0  0  0  0  0  0  0  0  0  0  0
   -0.0340   -4.4270    3.7150 H   0  0  0  0  0  0  0  0  0  0  0  0
    0.8520   -2.5940    1.3380 H   0  0  0  0  0  0  0  0  0  0  0  0
    1.4630   -3.9180    0.3300 H   0  0  0  0  0  0  0  0  0  0  0  0
    3.7270   -3.1330    0.3790 H   0  0  0  0  0  0  0  0  0  0  0  0
    2.6600   -1.8650   -0.2660 H   0  0  0  0  0  0  0  0  0  0  0  0
    4.4060   -1.0360    1.2580 H   0  0  0  0  0  0  0  0  0  0  0  0
    4.1820   -1.6650    3.6090 H   0  0  0  0  0  0  0  0  0  0  0  0
    4.6460   -2.9340    2.5270 H   0  0  0  0  0  0  0  0  0  0  0  0
    2.0710    0.5900    1.1650 N   0  0  0  0  0  0  0  0  0  0  0  0
    2.3500    0.7280   -0.2600 C   0  0  0  0  0  0  0  0  0  0  0  0
    2.2980    2.2170   -0.5170 C   0  0  0  0  0  0  0  0  0  0  0  0
    1.8180    2.8420    0.7700 C   0  0  0  0  0  0  0  0  0  0  0  0
    1.1700    1.6900    1.4680 C   0  0  1  0  0  0  0  0  0  0  0  0
   -0.2280    1.4440    1.1380 C   0  0  0  0  0  0  0  0  0  0  0  0
   -1.0470    2.3810    1.3180 O   0  0  0  0  0  0  0  0  0  0  0  0
    3.4170    0.4000   -0.4460 H   0  0  0  0  0  0  0  0  0  0  0  0
    1.6560    0.2080   -0.9140 H   0  0  0  0  0  0  0  0  0  0  0  0
    1.6410    2.4850   -1.3680 H   0  0  0  0  0  0  0  0  0  0  0  0
    3.3290    2.6350   -0.7000 H   0  0  0  0  0  0  0  0  0  0  0  0
    1.0800    3.6330    0.4920 H   0  0  0  0  0  0  0  0  0  0  0  0
    2.6420    3.2540    1.3920 H   0  0  0  0  0  0  0  0  0  0  0  0
    1.2450    1.9200    2.5660 H   0  0  0  0  0  0  0  0  0  0  0  0
   -5.9520    0.5710   -1.7620 N   0  0  0  0  0  0  0  0  0  0  0  0
   -4.5530    0.6260   -1.4520 C   0  0  0  0  0  0  0  0  0  0  0  0
   -4.1080    1.7180   -1.0550 O   0  0  0  0  0  0  0  0  0  0  0  0
   -3.6790   -0.5480   -1.5940 C   0  0  0  0  0  0  0  0  0  0  0  0
   -2.2740   -0.3350   -1.1360 C   0  0  0  0  0  0  0  0  0  0  0  0
   -2.1530    0.0400    0.3170 C   0  0  2  0  0  0  0  0  0  0  0  0
   -0.7180    0.2220    0.6310 N   0  0  0  0  0  0  0  0  0  0  0  0
   -2.7280   -1.0110    1.1760 C   0  0  0  0  0  0  0  0  0  0  0  0
   -1.9450   -1.6170    1.9820 O   0  0  0  0  0  0  0  0  0  0  0  0
   -4.0450   -1.3890    1.1780 O   0  0  0  0  0  0  0  0  0  0  0  0
   -6.2240    0.5940   -2.7660 H   0  0  0  0  0  0  0  0  0  0  0  0
   -6.6470    0.5110   -1.0030 H   0  0  0  0  0  0  0  0  0  0  0  0
   -4.1410   -1.4060   -1.0920 H   0  0  0  0  0  0  0  0  0  0  0  0
   -3.6080   -0.8310   -2.6950 H   0  0  0  0  0  0  0  0  0  0  0  0
   -1.7640    0.4450   -1.7440 H   0  0  0  0  0  0  0  0  0  0  0  0
   -1.7290   -1.3010   -1.3250 H   0  0  0  0  0  0  0  0  0  0  0  0
   -2.6540    0.9930    0.5700 H   0  0  0  0  0  0  0  0  0  0  0  0
   -0.1030   -0.5790    0.4660 H   0  0  0  0  0  0  0  0  0  0  0  0
  1 10  1  0  0  0  0
  1 11  1  0  0  0  0
  2  1  1  0  0  0  0
  3 12  1  0  0  0  0
  3  2  1  0  0  0  0
  4  3  1  0  0  0  0
  4  5  1  0  0  0  0
  5 16  1  6  0  0  0
  5  7  1  0  0  0  0
  5  6  1  0  0  0  0
  6 17  1  0  0  0  0
  7  8  2  0  0  0  0
  9  1  1  0  0  0  0
 13  3  1  0  0  0  0
 14  4  1  0  0  0  0
 15  4  1  0  0  0  0
 18  6  1  0  0  0  0
 19 23  1  0  0  0  0
 19  7  1  0  0  0  0
 20 19  1  0  0  0  0
 21 20  1  0  0  0  0
 21 22  1  0  0  0  0
 22 31  1  0  0  0  0
 22 23  1  0  0  0  0
 23 32  1  1  0  0  0
 24 25  2  0  0  0  0
 24 23  1  0  0  0  0
 26 20  1  0  0  0  0
 27 20  1  0  0  0  0
 28 21  1  0  0  0  0
 29 21  1  0  0  0  0
 30 22  1  0  0  0  0
 33 34  1  0  0  0  0
 33 44  1  0  0  0  0
 34 35  2  0  0  0  0
 36 34  1  0  0  0  0
 36 37  1  0  0  0  0
 36 45  1  0  0  0  0
 37 38  1  0  0  0  0
 38 49  1  1  0  0  0
 38 39  1  0  0  0  0
 38 40  1  0  0  0  0
 39 24  1  0  0  0  0
 40 42  2  0  0  0  0
 40 41  1  0  0  0  0
 43 33  1  0  0  0  0
 46 36  1  0  0  0  0
 47 37  1  0  0  0  0
 48 37  1  0  0  0  0
 50 39  1  0  0  0  0
M  END
$$$$
