MPR.pdb
 OpenBabel07022418563D

 56 56  0  0  1  0  0  0  0  0999 V2000
    2.6890   -4.4940    3.8870 C   0  0  0  0  0  0  0  0  0  0  0  0
    3.3440   -2.7980    3.8820 S   0  0  0  0  0  0  0  0  0  0  0  0
    3.8330   -2.4120    2.1820 C   0  0  0  0  0  0  0  0  0  0  0  0
    4.4040   -1.0150    2.0620 C   0  0  0  0  0  0  0  0  0  0  0  0
    3.3050   -0.0380    2.5090 C   0  0  2  0  0  0  0  0  0  0  0  0
    3.0260   -0.4420    3.8870 N   0  0  0  0  0  0  0  0  0  0  0  0
    2.1280   -0.2760    1.6380 C   0  0  0  0  0  0  0  0  0  0  0  0
    1.2460   -1.0420    2.0880 O   0  0  0  0  0  0  0  0  0  0  0  0
    2.7150   -4.9430    4.8990 H   0  0  0  0  0  0  0  0  0  0  0  0
    1.6550   -4.4420    3.4790 H   0  0  0  0  0  0  0  0  0  0  0  0
    3.2930   -5.0920    3.1630 H   0  0  0  0  0  0  0  0  0  0  0  0
    2.9580   -2.5190    1.5390 H   0  0  0  0  0  0  0  0  0  0  0  0
    4.6490   -3.1260    1.9190 H   0  0  0  0  0  0  0  0  0  0  0  0
    4.5700   -0.8540    0.9840 H   0  0  0  0  0  0  0  0  0  0  0  0
    5.3250   -0.8840    2.6380 H   0  0  0  0  0  0  0  0  0  0  0  0
    3.6730    0.9980    2.4890 H   0  0  0  0  0  0  0  0  0  0  0  0
    3.9430   -0.3710    4.4020 H   0  0  0  0  0  0  0  0  0  0  0  0
    2.3420    0.2230    4.3250 H   0  0  0  0  0  0  0  0  0  0  0  0
    2.0140    0.3190    0.3940 N   0  0  0  0  0  0  0  0  0  0  0  0
    3.0520    1.2740   -0.1210 C   0  0  0  0  0  0  0  0  0  0  0  0
    3.3090    0.6690   -1.4870 C   0  0  0  0  0  0  0  0  0  0  0  0
    2.0420   -0.1380   -1.8340 C   0  0  0  0  0  0  0  0  0  0  0  0
    1.1150    0.2940   -0.7140 C   0  0  1  0  0  0  0  0  0  0  0  0
   -0.1410   -0.4000   -0.6200 C   0  0  0  0  0  0  0  0  0  0  0  0
   -0.6060   -0.7670    0.4830 O   0  0  0  0  0  0  0  0  0  0  0  0
    2.5670    2.2810   -0.2170 H   0  0  0  0  0  0  0  0  0  0  0  0
    3.9230    1.3050    0.5060 H   0  0  0  0  0  0  0  0  0  0  0  0
    4.1780   -0.0120   -1.4340 H   0  0  0  0  0  0  0  0  0  0  0  0
    3.4460    1.5160   -2.1870 H   0  0  0  0  0  0  0  0  0  0  0  0
    1.6550    0.2820   -2.7730 H   0  0  0  0  0  0  0  0  0  0  0  0
    2.2410   -1.2080   -1.8500 H   0  0  0  0  0  0  0  0  0  0  0  0
    0.8960    1.3940   -0.9660 H   0  0  0  0  0  0  0  0  0  0  0  0
   -6.2780   -0.8520    1.9320 N   0  0  0  0  0  0  0  0  0  0  0  0
   -5.7520    0.2620    1.2230 C   0  0  0  0  0  0  0  0  0  0  0  0
   -5.7360    1.4350    1.7670 N   0  0  0  0  0  0  0  0  0  0  0  0
   -5.2520    0.0410   -0.0960 N   0  0  0  0  0  0  0  0  0  0  0  0
   -4.1270    0.8270   -0.5430 C   0  0  0  0  0  0  0  0  0  0  0  0
   -3.7370    0.5640   -1.9530 C   0  0  0  0  0  0  0  0  0  0  0  0
   -3.3450   -0.8110   -2.3100 C   0  0  0  0  0  0  0  0  0  0  0  0
   -2.1870   -1.4090   -1.6080 C   0  0  2  0  0  0  0  0  0  0  0  0
   -0.9530   -0.7250   -1.7570 N   0  0  0  0  0  0  0  0  0  0  0  0
   -2.0830   -2.8240   -2.0950 C   0  0  0  0  0  0  0  0  0  0  0  0
   -3.1000   -3.5390   -2.0320 O   0  0  0  0  0  0  0  0  0  0  0  0
   -0.9140   -3.3440   -2.5990 O   0  0  0  0  0  0  0  0  0  0  0  0
   -6.3030   -0.8220    2.9930 H   0  0  0  0  0  0  0  0  0  0  0  0
   -6.6500   -1.7130    1.4860 H   0  0  0  0  0  0  0  0  0  0  0  0
   -6.1180    1.5370    2.7300 H   0  0  0  0  0  0  0  0  0  0  0  0
   -5.6750   -0.6670   -0.7390 H   0  0  0  0  0  0  0  0  0  0  0  0
   -3.2680    0.8090    0.1650 H   0  0  0  0  0  0  0  0  0  0  0  0
   -4.4810    1.9030   -0.5210 H   0  0  0  0  0  0  0  0  0  0  0  0
   -2.9610    1.3050   -2.2480 H   0  0  0  0  0  0  0  0  0  0  0  0
   -4.6250    0.8320   -2.5960 H   0  0  0  0  0  0  0  0  0  0  0  0
   -4.2160   -1.4910   -2.2060 H   0  0  0  0  0  0  0  0  0  0  0  0
   -3.1090   -0.8180   -3.4140 H   0  0  0  0  0  0  0  0  0  0  0  0
   -2.4270   -1.5170   -0.5020 H   0  0  0  0  0  0  0  0  0  0  0  0
   -0.6000   -0.4440   -2.6850 H   0  0  0  0  0  0  0  0  0  0  0  0
  1  9  1  0  0  0  0
  2  1  1  0  0  0  0
  3  2  1  0  0  0  0
  4  3  1  0  0  0  0
  4  5  1  0  0  0  0
  4 15  1  0  0  0  0
  5 16  1  6  0  0  0
  5  6  1  0  0  0  0
  6 18  1  0  0  0  0
  6 17  1  0  0  0  0
  7  8  2  0  0  0  0
  7  5  1  0  0  0  0
 10  1  1  0  0  0  0
 11  1  1  0  0  0  0
 12  3  1  0  0  0  0
 13  3  1  0  0  0  0
 14  4  1  0  0  0  0
 19  7  1  0  0  0  0
 20 19  1  0  0  0  0
 20 27  1  0  0  0  0
 21 28  1  0  0  0  0
 21 20  1  0  0  0  0
 22 21  1  0  0  0  0
 22 23  1  0  0  0  0
 23 32  1  6  0  0  0
 23 24  1  0  0  0  0
 23 19  1  0  0  0  0
 24 25  2  0  0  0  0
 26 20  1  0  0  0  0
 29 21  1  0  0  0  0
 30 22  1  0  0  0  0
 31 22  1  0  0  0  0
 33 45  1  0  0  0  0
 34 35  2  0  0  0  0
 34 33  1  0  0  0  0
 35 47  1  0  0  0  0
 36 34  1  0  0  0  0
 37 50  1  0  0  0  0
 37 36  1  0  0  0  0
 37 49  1  0  0  0  0
 38 37  1  0  0  0  0
 39 53  1  0  0  0  0
 39 38  1  0  0  0  0
 39 40  1  0  0  0  0
 40 55  1  1  0  0  0
 41 40  1  0  0  0  0
 41 24  1  0  0  0  0
 42 43  1  0  0  0  0
 42 40  1  0  0  0  0
 44 42  2  0  0  0  0
 46 33  1  0  0  0  0
 48 36  1  0  0  0  0
 51 38  1  0  0  0  0
 52 38  1  0  0  0  0
 54 39  1  0  0  0  0
 56 41  1  0  0  0  0
M  END
$$$$
