MPS.pdb
 OpenBabel07022418563D

 44 44  0  0  1  0  0  0  0  0999 V2000
   -0.9070   -3.5440    1.6590 C   0  0  0  0  0  0  0  0  0  0  0  0
    0.5740   -3.9440    0.7470 S   0  0  0  0  0  0  0  0  0  0  0  0
    0.3790   -3.6930   -1.0130 C   0  0  0  0  0  0  0  0  0  0  0  0
    0.2910   -2.2690   -1.3770 C   0  0  0  0  0  0  0  0  0  0  0  0
   -0.8510   -1.4590   -0.8190 C   0  0  2  0  0  0  0  0  0  0  0  0
   -2.0870   -2.0910   -1.3290 N   0  0  0  0  0  0  0  0  0  0  0  0
   -0.7000   -0.1050   -1.4300 C   0  0  0  0  0  0  0  0  0  0  0  0
   -1.2420   -0.0570   -2.6130 O   0  0  0  0  0  0  0  0  0  0  0  0
   -1.7740   -3.5320    0.9820 H   0  0  0  0  0  0  0  0  0  0  0  0
   -0.7630   -2.6130    2.2490 H   0  0  0  0  0  0  0  0  0  0  0  0
   -1.0700   -4.4040    2.3960 H   0  0  0  0  0  0  0  0  0  0  0  0
   -0.4270   -4.3320   -1.4480 H   0  0  0  0  0  0  0  0  0  0  0  0
    1.3210   -4.1530   -1.4810 H   0  0  0  0  0  0  0  0  0  0  0  0
    0.1080   -2.2540   -2.5130 H   0  0  0  0  0  0  0  0  0  0  0  0
    1.2740   -1.7420   -1.3080 H   0  0  0  0  0  0  0  0  0  0  0  0
   -0.9380   -1.4230    0.2550 H   0  0  0  0  0  0  0  0  0  0  0  0
   -2.3210   -1.7450   -2.2730 H   0  0  0  0  0  0  0  0  0  0  0  0
   -1.9830   -3.1190   -1.3500 H   0  0  0  0  0  0  0  0  0  0  0  0
   -0.1030    1.0350   -0.9360 N   0  0  0  0  0  0  0  0  0  0  0  0
   -0.0860    2.2620   -1.8530 C   0  0  0  0  0  0  0  0  0  0  0  0
   -0.5800    3.3380   -0.9000 C   0  0  0  0  0  0  0  0  0  0  0  0
   -0.5200    2.7170    0.5040 C   0  0  0  0  0  0  0  0  0  0  0  0
    0.5240    1.5990    0.1900 C   0  0  1  0  0  0  0  0  0  0  0  0
    0.8560    0.9510    1.4040 C   0  0  0  0  0  0  0  0  0  0  0  0
    0.8300    1.7100    2.4700 O   0  0  0  0  0  0  0  0  0  0  0  0
   -0.7410    2.1020   -2.6950 H   0  0  0  0  0  0  0  0  0  0  0  0
    0.9780    2.4480   -2.0860 H   0  0  0  0  0  0  0  0  0  0  0  0
   -1.6430    3.5630   -1.1690 H   0  0  0  0  0  0  0  0  0  0  0  0
    0.0430    4.2520   -0.9510 H   0  0  0  0  0  0  0  0  0  0  0  0
   -1.4390    2.1940    0.7710 H   0  0  0  0  0  0  0  0  0  0  0  0
   -0.1050    3.3980    1.2460 H   0  0  0  0  0  0  0  0  0  0  0  0
    1.4110    2.2790   -0.1670 H   0  0  0  0  0  0  0  0  0  0  0  0
    3.0570   -1.0610    4.8080 O   0  0  0  0  0  0  0  0  0  0  0  0
    2.8950   -0.5550    3.5380 C   0  0  0  0  0  0  0  0  0  0  0  0
    1.5180   -0.8600    3.0550 C   0  0  2  0  0  0  0  0  0  0  0  0
    1.2250   -0.3740    1.7200 N   0  0  0  0  0  0  0  0  0  0  0  0
    0.5350   -0.4730    4.0820 C   0  0  0  0  0  0  0  0  0  0  0  0
   -0.5150    0.1540    3.9510 O   0  0  0  0  0  0  0  0  0  0  0  0
    0.8520   -0.8820    5.3940 O   0  0  0  0  0  0  0  0  0  0  0  0
    3.2940   -0.4160    5.4940 H   0  0  0  0  0  0  0  0  0  0  0  0
    3.0670    0.5430    3.5520 H   0  0  0  0  0  0  0  0  0  0  0  0
    3.6770   -1.0530    2.8960 H   0  0  0  0  0  0  0  0  0  0  0  0
    1.4110   -1.9900    3.0010 H   0  0  0  0  0  0  0  0  0  0  0  0
    1.3120   -1.0320    0.9180 H   0  0  0  0  0  0  0  0  0  0  0  0
  1 10  1  0  0  0  0
  1 11  1  0  0  0  0
  2  1  1  0  0  0  0
  3  2  1  0  0  0  0
  4 15  1  0  0  0  0
  4  3  1  0  0  0  0
  4  5  1  0  0  0  0
  5 16  1  1  0  0  0
  6  5  1  0  0  0  0
  7 19  1  0  0  0  0
  7  5  1  0  0  0  0
  8  7  2  0  0  0  0
  9  1  1  0  0  0  0
 12  3  1  0  0  0  0
 13  3  1  0  0  0  0
 14  4  1  0  0  0  0
 17  6  1  0  0  0  0
 18  6  1  0  0  0  0
 19 23  1  0  0  0  0
 20 19  1  0  0  0  0
 20 21  1  0  0  0  0
 21 22  1  0  0  0  0
 22 30  1  0  0  0  0
 22 31  1  0  0  0  0
 23 32  1  6  0  0  0
 23 22  1  0  0  0  0
 23 24  1  0  0  0  0
 24 36  1  0  0  0  0
 24 25  2  0  0  0  0
 26 20  1  0  0  0  0
 27 20  1  0  0  0  0
 28 21  1  0  0  0  0
 29 21  1  0  0  0  0
 33 40  1  0  0  0  0
 34 41  1  0  0  0  0
 34 33  1  0  0  0  0
 35 43  1  6  0  0  0
 35 34  1  0  0  0  0
 35 37  1  0  0  0  0
 36 35  1  0  0  0  0
 37 39  1  0  0  0  0
 38 37  2  0  0  0  0
 42 34  1  0  0  0  0
 44 36  1  0  0  0  0
M  END
$$$$
