MPT.pdb
 OpenBabel07022418563D

 47 47  0  0  1  0  0  0  0  0999 V2000
    1.2280   -5.9370    1.1300 C   0  0  0  0  0  0  0  0  0  0  0  0
    2.4490   -4.6000    1.2530 S   0  0  0  0  0  0  0  0  0  0  0  0
    1.7610   -3.0540    0.6360 C   0  0  0  0  0  0  0  0  0  0  0  0
    1.4820   -3.0990   -0.8310 C   0  0  0  0  0  0  0  0  0  0  0  0
    0.8960   -1.7690   -1.3400 C   0  0  2  0  0  0  0  0  0  0  0  0
    0.6950   -2.0240   -2.7920 N   0  0  0  0  0  0  0  0  0  0  0  0
    1.9040   -0.6900   -1.2510 C   0  0  0  0  0  0  0  0  0  0  0  0
    2.7320   -0.6470   -2.2410 O   0  0  0  0  0  0  0  0  0  0  0  0
    0.3000   -5.5820    1.6590 H   0  0  0  0  0  0  0  0  0  0  0  0
    1.6360   -6.8100    1.6870 H   0  0  0  0  0  0  0  0  0  0  0  0
    1.0240   -6.2420    0.0990 H   0  0  0  0  0  0  0  0  0  0  0  0
    2.5370   -2.2680    0.7990 H   0  0  0  0  0  0  0  0  0  0  0  0
    0.8080   -2.7880    1.1590 H   0  0  0  0  0  0  0  0  0  0  0  0
    0.7410   -3.9030   -1.0090 H   0  0  0  0  0  0  0  0  0  0  0  0
    2.3770   -3.3680   -1.4260 H   0  0  0  0  0  0  0  0  0  0  0  0
   -0.0310   -1.6110   -0.8110 H   0  0  0  0  0  0  0  0  0  0  0  0
    1.6490   -2.2580   -3.1510 H   0  0  0  0  0  0  0  0  0  0  0  0
    0.1230   -2.8910   -2.8690 H   0  0  0  0  0  0  0  0  0  0  0  0
    2.0160    0.2540   -0.2060 N   0  0  0  0  0  0  0  0  0  0  0  0
    3.0720    1.2780   -0.1470 C   0  0  0  0  0  0  0  0  0  0  0  0
    3.2500    1.4600    1.3660 C   0  0  0  0  0  0  0  0  0  0  0  0
    1.8030    1.5320    1.7900 C   0  0  0  0  0  0  0  0  0  0  0  0
    1.1690    0.4440    0.9360 C   0  0  1  0  0  0  0  0  0  0  0  0
   -0.2150    0.8620    0.5270 C   0  0  0  0  0  0  0  0  0  0  0  0
   -0.5330    1.0650   -0.6730 O   0  0  0  0  0  0  0  0  0  0  0  0
    2.7180    2.2000   -0.6140 H   0  0  0  0  0  0  0  0  0  0  0  0
    4.0180    0.9200   -0.5600 H   0  0  0  0  0  0  0  0  0  0  0  0
    3.7460    0.5450    1.7410 H   0  0  0  0  0  0  0  0  0  0  0  0
    3.8160    2.3850    1.5850 H   0  0  0  0  0  0  0  0  0  0  0  0
    1.4410    2.5480    1.4950 H   0  0  0  0  0  0  0  0  0  0  0  0
    1.6970    1.3340    2.8680 H   0  0  0  0  0  0  0  0  0  0  0  0
    1.1680   -0.4550    1.5510 H   0  0  0  0  0  0  0  0  0  0  0  0
   -3.4900   -0.0210    2.9480 C   0  0  0  0  0  0  0  0  0  0  0  0
   -3.5290    0.3160    1.4950 C   0  0  1  0  0  0  0  0  0  0  0  0
   -4.8430    0.6550    1.1540 O   0  0  0  0  0  0  0  0  0  0  0  0
   -2.5860    1.4550    1.1210 C   0  0  2  0  0  0  0  0  0  0  0  0
   -1.2360    1.0490    1.4970 N   0  0  0  0  0  0  0  0  0  0  0  0
   -3.0020    2.6830    1.8170 C   0  0  0  0  0  0  0  0  0  0  0  0
   -2.2490    3.2940    2.6430 O   0  0  0  0  0  0  0  0  0  0  0  0
   -4.2450    3.2420    1.6060 O   0  0  0  0  0  0  0  0  0  0  0  0
   -4.4540   -0.5660    3.1770 H   0  0  0  0  0  0  0  0  0  0  0  0
   -2.6940   -0.7600    3.2090 H   0  0  0  0  0  0  0  0  0  0  0  0
   -3.4990    0.8570    3.6200 H   0  0  0  0  0  0  0  0  0  0  0  0
   -3.2860   -0.6040    0.9200 H   0  0  0  0  0  0  0  0  0  0  0  0
   -5.3870   -0.1710    1.3100 H   0  0  0  0  0  0  0  0  0  0  0  0
   -2.6850    1.5970    0.0380 H   0  0  0  0  0  0  0  0  0  0  0  0
   -0.9780    0.8820    2.4930 H   0  0  0  0  0  0  0  0  0  0  0  0
  1  2  1  0  0  0  0
  1  9  1  0  0  0  0
  1 10  1  0  0  0  0
  3 12  1  0  0  0  0
  3 13  1  0  0  0  0
  3  2  1  0  0  0  0
  4  3  1  0  0  0  0
  5  7  1  0  0  0  0
  5  4  1  0  0  0  0
  5 16  1  1  0  0  0
  6  5  1  0  0  0  0
  7 19  1  0  0  0  0
  8  7  2  0  0  0  0
 11  1  1  0  0  0  0
 14  4  1  0  0  0  0
 15  4  1  0  0  0  0
 17  6  1  0  0  0  0
 18  6  1  0  0  0  0
 19 20  1  0  0  0  0
 19 23  1  0  0  0  0
 20 21  1  0  0  0  0
 21 29  1  0  0  0  0
 21 28  1  0  0  0  0
 21 22  1  0  0  0  0
 22 31  1  0  0  0  0
 23 32  1  1  0  0  0
 23 22  1  0  0  0  0
 24 23  1  0  0  0  0
 24 37  1  0  0  0  0
 25 24  2  0  0  0  0
 26 20  1  0  0  0  0
 27 20  1  0  0  0  0
 30 22  1  0  0  0  0
 33 41  1  0  0  0  0
 33 42  1  0  0  0  0
 33 43  1  0  0  0  0
 34 44  1  6  0  0  0
 34 33  1  0  0  0  0
 35 45  1  0  0  0  0
 35 34  1  0  0  0  0
 36 46  1  6  0  0  0
 36 34  1  0  0  0  0
 36 37  1  0  0  0  0
 36 38  1  0  0  0  0
 37 47  1  0  0  0  0
 38 39  1  0  0  0  0
 40 38  2  0  0  0  0
M  END
$$$$
