MPW.pdb
 OpenBabel07022418563D

 57 59  0  0  1  0  0  0  0  0999 V2000
    2.3380   -2.0490   -1.7190 C   0  0  0  0  0  0  0  0  0  0  0  0
    3.3210   -2.5600   -0.2870 S   0  0  0  0  0  0  0  0  0  0  0  0
    2.9160   -1.5720    1.1780 C   0  0  0  0  0  0  0  0  0  0  0  0
    3.3290   -0.1550    0.9730 C   0  0  0  0  0  0  0  0  0  0  0  0
    3.0360    0.7910    2.0770 C   0  0  2  0  0  0  0  0  0  0  0  0
    3.6500    0.4310    3.3220 N   0  0  0  0  0  0  0  0  0  0  0  0
    1.6270    1.1420    2.2950 C   0  0  0  0  0  0  0  0  0  0  0  0
    1.1420    0.9320    3.4650 O   0  0  0  0  0  0  0  0  0  0  0  0
    2.0350   -2.9120   -2.3460 H   0  0  0  0  0  0  0  0  0  0  0  0
    2.9400   -1.3630   -2.3210 H   0  0  0  0  0  0  0  0  0  0  0  0
    1.4020   -1.5230   -1.4430 H   0  0  0  0  0  0  0  0  0  0  0  0
    1.8980   -1.6610    1.5090 H   0  0  0  0  0  0  0  0  0  0  0  0
    3.5750   -1.9750    2.0040 H   0  0  0  0  0  0  0  0  0  0  0  0
    4.4640   -0.1690    0.8720 H   0  0  0  0  0  0  0  0  0  0  0  0
    2.9710    0.2270    0.0040 H   0  0  0  0  0  0  0  0  0  0  0  0
    3.5420    1.7730    1.7800 H   0  0  0  0  0  0  0  0  0  0  0  0
    3.3700    1.1310    4.0490 H   0  0  0  0  0  0  0  0  0  0  0  0
    3.4720   -0.5410    3.6240 H   0  0  0  0  0  0  0  0  0  0  0  0
    0.7570    1.6940    1.3390 N   0  0  0  0  0  0  0  0  0  0  0  0
    1.1000    2.0060   -0.0340 C   0  0  0  0  0  0  0  0  0  0  0  0
    0.1580    3.1590   -0.3920 C   0  0  0  0  0  0  0  0  0  0  0  0
   -1.0930    2.8430    0.3580 C   0  0  0  0  0  0  0  0  0  0  0  0
   -0.6140    2.0700    1.5690 C   0  0  1  0  0  0  0  0  0  0  0  0
   -1.5130    0.9720    1.9280 C   0  0  0  0  0  0  0  0  0  0  0  0
   -2.7030    1.2070    2.2680 O   0  0  0  0  0  0  0  0  0  0  0  0
    0.9530    1.1890   -0.7390 H   0  0  0  0  0  0  0  0  0  0  0  0
    2.1100    2.4200   -0.1610 H   0  0  0  0  0  0  0  0  0  0  0  0
    0.6310    4.1170   -0.0820 H   0  0  0  0  0  0  0  0  0  0  0  0
    0.0330    3.1580   -1.4930 H   0  0  0  0  0  0  0  0  0  0  0  0
   -1.7670    2.2120   -0.2720 H   0  0  0  0  0  0  0  0  0  0  0  0
   -1.5990    3.7780    0.6550 H   0  0  0  0  0  0  0  0  0  0  0  0
   -0.6180    2.8180    2.4210 H   0  0  0  0  0  0  0  0  0  0  0  0
   -1.1120   -0.3900    1.9200 N   0  0  0  0  0  0  0  0  0  0  0  0
   -2.0130   -1.4590    2.3010 C   0  0  1  0  0  0  0  0  0  0  0  0
   -2.0570   -2.5430    1.2810 C   0  0  0  0  0  0  0  0  0  0  0  0
   -2.5010   -2.1740   -0.0570 C   0  0  0  0  0  0  0  0  0  0  0  0
   -3.3490   -1.2060   -0.5260 C   0  0  0  0  0  0  0  0  0  0  0  0
   -3.4230   -1.2920   -1.8770 N   0  0  0  0  0  0  0  0  0  0  0  0
   -2.6520   -2.2840   -2.3260 C   0  0  0  0  0  0  0  0  0  0  0  0
   -2.3820   -2.7910   -3.5950 C   0  0  0  0  0  0  0  0  0  0  0  0
   -1.5360   -3.8570   -3.7870 C   0  0  0  0  0  0  0  0  0  0  0  0
   -0.9530   -4.4180   -2.6700 C   0  0  0  0  0  0  0  0  0  0  0  0
   -1.2180   -3.9180   -1.4110 C   0  0  0  0  0  0  0  0  0  0  0  0
   -2.0730   -2.8410   -1.2080 C   0  0  0  0  0  0  0  0  0  0  0  0
   -1.5550   -2.1040    3.5640 C   0  0  0  0  0  0  0  0  0  0  0  0
   -2.2090   -3.0330    4.0450 O   0  0  0  0  0  0  0  0  0  0  0  0
   -0.4150   -1.6520    4.1690 O   0  0  0  0  0  0  0  0  0  0  0  0
   -0.1540   -0.5850    1.6260 H   0  0  0  0  0  0  0  0  0  0  0  0
   -3.0550   -1.0420    2.4690 H   0  0  0  0  0  0  0  0  0  0  0  0
   -0.9850   -2.9170    1.1950 H   0  0  0  0  0  0  0  0  0  0  0  0
   -2.6050   -3.4310    1.6650 H   0  0  0  0  0  0  0  0  0  0  0  0
   -3.8610   -0.5040    0.1090 H   0  0  0  0  0  0  0  0  0  0  0  0
   -3.9960   -0.6770   -2.4810 H   0  0  0  0  0  0  0  0  0  0  0  0
   -2.8440   -2.3510   -4.4680 H   0  0  0  0  0  0  0  0  0  0  0  0
   -1.3380   -4.2440   -4.7890 H   0  0  0  0  0  0  0  0  0  0  0  0
   -0.2830   -5.2600   -2.8180 H   0  0  0  0  0  0  0  0  0  0  0  0
   -0.7550   -4.3670   -0.5420 H   0  0  0  0  0  0  0  0  0  0  0  0
  1 11  1  0  0  0  0
  1  2  1  0  0  0  0
  2  3  1  0  0  0  0
  3 12  1  0  0  0  0
  3 13  1  0  0  0  0
  4  3  1  0  0  0  0
  4  5  1  0  0  0  0
  5 16  1  6  0  0  0
  5  7  1  0  0  0  0
  5  6  1  0  0  0  0
  6 18  1  0  0  0  0
  6 17  1  0  0  0  0
  7  8  2  0  0  0  0
  9  1  1  0  0  0  0
 10  1  1  0  0  0  0
 14  4  1  0  0  0  0
 15  4  1  0  0  0  0
 19 23  1  0  0  0  0
 19  7  1  0  0  0  0
 20 19  1  0  0  0  0
 21 28  1  0  0  0  0
 21 20  1  0  0  0  0
 21 22  1  0  0  0  0
 22 31  1  0  0  0  0
 22 23  1  0  0  0  0
 23 24  1  0  0  0  0
 23 32  1  1  0  0  0
 24 25  2  0  0  0  0
 26 20  1  0  0  0  0
 27 20  1  0  0  0  0
 29 21  1  0  0  0  0
 30 22  1  0  0  0  0
 33 24  1  0  0  0  0
 33 34  1  0  0  0  0
 34 49  1  1  0  0  0
 34 45  1  0  0  0  0
 35 51  1  0  0  0  0
 35 34  1  0  0  0  0
 36 35  1  0  0  0  0
 37 36  2  0  0  0  0
 37 52  1  0  0  0  0
 38 37  1  0  0  0  0
 39 38  1  0  0  0  0
 39 44  1  0  0  0  0
 40 39  2  0  0  0  0
 41 40  1  0  0  0  0
 41 42  2  0  0  0  0
 42 43  1  0  0  0  0
 43 44  2  0  0  0  0
 43 57  1  0  0  0  0
 44 36  1  0  0  0  0
 45 46  2  0  0  0  0
 45 47  1  0  0  0  0
 48 33  1  0  0  0  0
 50 35  1  0  0  0  0
 53 38  1  0  0  0  0
 54 40  1  0  0  0  0
 55 41  1  0  0  0  0
 56 42  1  0  0  0  0
M  END
$$$$
