MPY.pdb
 OpenBabel07022418563D

 54 55  0  0  1  0  0  0  0  0999 V2000
    0.7940   -4.3760    3.2730 C   0  0  0  0  0  0  0  0  0  0  0  0
    2.4330   -3.8310    2.7760 S   0  0  0  0  0  0  0  0  0  0  0  0
    2.4460   -3.2470    1.0600 C   0  0  0  0  0  0  0  0  0  0  0  0
    1.6230   -1.9880    0.8820 C   0  0  0  0  0  0  0  0  0  0  0  0
    2.2260   -0.9320    1.7780 C   0  0  2  0  0  0  0  0  0  0  0  0
    2.1720   -1.3960    3.1520 N   0  0  0  0  0  0  0  0  0  0  0  0
    1.6040    0.3820    1.6430 C   0  0  0  0  0  0  0  0  0  0  0  0
    1.0550    0.8580    2.6980 O   0  0  0  0  0  0  0  0  0  0  0  0
    0.1450   -3.4630    3.3150 H   0  0  0  0  0  0  0  0  0  0  0  0
    0.8390   -4.8840    4.2460 H   0  0  0  0  0  0  0  0  0  0  0  0
    0.3300   -5.0740    2.5330 H   0  0  0  0  0  0  0  0  0  0  0  0
    1.9840   -4.0680    0.4350 H   0  0  0  0  0  0  0  0  0  0  0  0
    3.4730   -3.1340    0.6680 H   0  0  0  0  0  0  0  0  0  0  0  0
    0.5830   -2.2410    1.1780 H   0  0  0  0  0  0  0  0  0  0  0  0
    1.7040   -1.7100   -0.1850 H   0  0  0  0  0  0  0  0  0  0  0  0
    3.3020   -0.8570    1.5120 H   0  0  0  0  0  0  0  0  0  0  0  0
    3.0270   -1.1310    3.6900 H   0  0  0  0  0  0  0  0  0  0  0  0
    1.2970   -1.0840    3.6280 H   0  0  0  0  0  0  0  0  0  0  0  0
    1.5690    1.1470    0.4490 N   0  0  0  0  0  0  0  0  0  0  0  0
    2.1460    0.7570   -0.8130 C   0  0  0  0  0  0  0  0  0  0  0  0
    2.6330    2.1060   -1.3610 C   0  0  0  0  0  0  0  0  0  0  0  0
    1.4850    2.9970   -1.0280 C   0  0  0  0  0  0  0  0  0  0  0  0
    0.9630    2.4300    0.2710 C   0  0  1  0  0  0  0  0  0  0  0  0
   -0.5040    2.4110    0.2600 C   0  0  0  0  0  0  0  0  0  0  0  0
   -1.1060    3.5060    0.1250 O   0  0  0  0  0  0  0  0  0  0  0  0
    3.0770    0.1680   -0.6950 H   0  0  0  0  0  0  0  0  0  0  0  0
    1.4390    0.3450   -1.5300 H   0  0  0  0  0  0  0  0  0  0  0  0
    3.5260    2.3740   -0.7300 H   0  0  0  0  0  0  0  0  0  0  0  0
    2.8880    2.0480   -2.4200 H   0  0  0  0  0  0  0  0  0  0  0  0
    0.6900    2.8750   -1.7800 H   0  0  0  0  0  0  0  0  0  0  0  0
    1.8160    4.0520   -0.9180 H   0  0  0  0  0  0  0  0  0  0  0  0
    1.2760    3.1500    1.0740 H   0  0  0  0  0  0  0  0  0  0  0  0
   -1.5730   -4.8180   -0.8310 O   0  0  0  0  0  0  0  0  0  0  0  0
   -1.9700   -3.4840   -0.8440 C   0  0  0  0  0  0  0  0  0  0  0  0
   -3.1700   -3.1160   -0.2620 C   0  0  0  0  0  0  0  0  0  0  0  0
   -3.5990   -1.8050   -0.2550 C   0  0  0  0  0  0  0  0  0  0  0  0
   -2.7890   -0.8620   -0.8500 C   0  0  0  0  0  0  0  0  0  0  0  0
   -3.2120    0.5470   -0.8610 C   0  0  0  0  0  0  0  0  0  0  0  0
   -2.7000    1.2700    0.3740 C   0  0  2  0  0  0  0  0  0  0  0  0
   -1.2520    1.2120    0.3940 N   0  0  0  0  0  0  0  0  0  0  0  0
   -3.2220    0.7140    1.6250 C   0  0  0  0  0  0  0  0  0  0  0  0
   -4.4660    0.6700    1.8140 O   0  0  0  0  0  0  0  0  0  0  0  0
   -1.5840   -1.2100   -1.4380 C   0  0  0  0  0  0  0  0  0  0  0  0
   -1.1970   -2.5120   -1.4250 C   0  0  0  0  0  0  0  0  0  0  0  0
   -2.4090    0.2270    2.6270 O   0  0  0  0  0  0  0  0  0  0  0  0
   -0.6450   -5.0550   -1.1700 H   0  0  0  0  0  0  0  0  0  0  0  0
   -3.8250   -3.8530    0.2140 H   0  0  0  0  0  0  0  0  0  0  0  0
   -4.5480   -1.5640    0.2140 H   0  0  0  0  0  0  0  0  0  0  0  0
   -2.7980    1.0810   -1.7310 H   0  0  0  0  0  0  0  0  0  0  0  0
   -4.3270    0.6210   -0.8320 H   0  0  0  0  0  0  0  0  0  0  0  0
   -3.0590    2.3270    0.2560 H   0  0  0  0  0  0  0  0  0  0  0  0
   -0.7330    0.3280    0.5030 H   0  0  0  0  0  0  0  0  0  0  0  0
   -0.9900   -0.4270   -1.8890 H   0  0  0  0  0  0  0  0  0  0  0  0
   -0.2560   -2.8220   -1.8770 H   0  0  0  0  0  0  0  0  0  0  0  0
  1  9  1  0  0  0  0
  1 10  1  0  0  0  0
  2  1  1  0  0  0  0
  3  2  1  0  0  0  0
  4  3  1  0  0  0  0
  4 14  1  0  0  0  0
  4  5  1  0  0  0  0
  5 16  1  6  0  0  0
  5  6  1  0  0  0  0
  6 18  1  0  0  0  0
  6 17  1  0  0  0  0
  7  5  1  0  0  0  0
  7  8  2  0  0  0  0
 11  1  1  0  0  0  0
 12  3  1  0  0  0  0
 13  3  1  0  0  0  0
 15  4  1  0  0  0  0
 19  7  1  0  0  0  0
 20 26  1  0  0  0  0
 20 19  1  0  0  0  0
 21 22  1  0  0  0  0
 21 20  1  0  0  0  0
 21 28  1  0  0  0  0
 22 31  1  0  0  0  0
 22 23  1  0  0  0  0
 23 19  1  0  0  0  0
 23 32  1  1  0  0  0
 24 23  1  0  0  0  0
 24 40  1  0  0  0  0
 25 24  2  0  0  0  0
 27 20  1  0  0  0  0
 29 21  1  0  0  0  0
 30 22  1  0  0  0  0
 34 33  1  0  0  0  0
 34 35  1  0  0  0  0
 35 36  2  0  0  0  0
 35 47  1  0  0  0  0
 36 48  1  0  0  0  0
 37 36  1  0  0  0  0
 38 37  1  0  0  0  0
 38 50  1  0  0  0  0
 38 39  1  0  0  0  0
 39 51  1  6  0  0  0
 39 40  1  0  0  0  0
 39 41  1  0  0  0  0
 40 52  1  0  0  0  0
 41 42  2  0  0  0  0
 41 45  1  0  0  0  0
 43 44  1  0  0  0  0
 43 37  2  0  0  0  0
 44 34  2  0  0  0  0
 46 33  1  0  0  0  0
 49 38  1  0  0  0  0
 53 43  1  0  0  0  0
 54 44  1  0  0  0  0
M  END
$$$$
