MQA.pdb
 OpenBabel07022418553D

 46 45  0  0  1  0  0  0  0  0999 V2000
   -1.5310   -7.0960    1.8180 C   0  0  0  0  0  0  0  0  0  0  0  0
   -1.4200   -5.4870    2.6370 S   0  0  0  0  0  0  0  0  0  0  0  0
    0.2520   -4.8050    2.5520 C   0  0  0  0  0  0  0  0  0  0  0  0
    0.6720   -4.4620    1.1680 C   0  0  0  0  0  0  0  0  0  0  0  0
   -0.2000   -3.4370    0.4790 C   0  0  2  0  0  0  0  0  0  0  0  0
    0.3230   -3.2070   -0.8550 N   0  0  0  0  0  0  0  0  0  0  0  0
   -0.2410   -2.1530    1.1860 C   0  0  0  0  0  0  0  0  0  0  0  0
   -0.7030   -2.1050    2.3630 O   0  0  0  0  0  0  0  0  0  0  0  0
   -0.5760   -7.6370    2.0760 H   0  0  0  0  0  0  0  0  0  0  0  0
   -2.3400   -7.7270    2.2090 H   0  0  0  0  0  0  0  0  0  0  0  0
   -1.5680   -6.9260    0.7380 H   0  0  0  0  0  0  0  0  0  0  0  0
    0.9290   -5.6320    2.9230 H   0  0  0  0  0  0  0  0  0  0  0  0
    0.3390   -3.9710    3.2570 H   0  0  0  0  0  0  0  0  0  0  0  0
    0.7710   -5.3810    0.5550 H   0  0  0  0  0  0  0  0  0  0  0  0
    1.6950   -4.0270    1.2150 H   0  0  0  0  0  0  0  0  0  0  0  0
   -1.2550   -3.8040    0.3960 H   0  0  0  0  0  0  0  0  0  0  0  0
   -0.2130   -3.7740   -1.5490 H   0  0  0  0  0  0  0  0  0  0  0  0
    1.3470   -3.4280   -0.8640 H   0  0  0  0  0  0  0  0  0  0  0  0
    3.1190    1.6070   -1.9300 N   0  0  0  0  0  0  0  0  0  0  0  0
    2.3520    1.6690   -0.7210 C   0  0  0  0  0  0  0  0  0  0  0  0
    1.4920    2.5590   -0.6500 O   0  0  0  0  0  0  0  0  0  0  0  0
    2.5970    0.7180    0.3570 C   0  0  0  0  0  0  0  0  0  0  0  0
    1.6350    0.6840    1.4720 C   0  0  0  0  0  0  0  0  0  0  0  0
    0.2240    0.3360    1.1910 C   0  0  2  0  0  0  0  0  0  0  0  0
    0.2310   -0.9790    0.5550 N   0  0  0  0  0  0  0  0  0  0  0  0
   -0.6390    1.3160    0.5690 C   0  0  0  0  0  0  0  0  0  0  0  0
   -1.2490    1.1610   -0.5320 O   0  0  0  0  0  0  0  0  0  0  0  0
    3.0680    2.3720   -2.6050 H   0  0  0  0  0  0  0  0  0  0  0  0
    3.7170    0.7720   -2.0900 H   0  0  0  0  0  0  0  0  0  0  0  0
    2.8160   -0.3160   -0.0500 H   0  0  0  0  0  0  0  0  0  0  0  0
    3.6190    1.0090    0.7820 H   0  0  0  0  0  0  0  0  0  0  0  0
    1.6670    1.6820    2.0130 H   0  0  0  0  0  0  0  0  0  0  0  0
    2.0010   -0.0770    2.2350 H   0  0  0  0  0  0  0  0  0  0  0  0
   -0.2330    0.1210    2.2240 H   0  0  0  0  0  0  0  0  0  0  0  0
    0.6020   -1.0690   -0.4140 H   0  0  0  0  0  0  0  0  0  0  0  0
   -2.8660    3.8600    1.6190 C   0  0  0  0  0  0  0  0  0  0  0  0
   -1.6940    3.6110    0.6850 C   0  0  2  0  0  0  0  0  0  0  0  0
   -0.8540    2.5830    1.2210 N   0  0  0  0  0  0  0  0  0  0  0  0
   -0.9830    4.9080    0.5410 C   0  0  0  0  0  0  0  0  0  0  0  0
   -1.5540    5.9290    0.0890 O   0  0  0  0  0  0  0  0  0  0  0  0
    0.3480    4.9680    0.9250 O   0  0  0  0  0  0  0  0  0  0  0  0
   -3.6940    3.1790    1.3360 H   0  0  0  0  0  0  0  0  0  0  0  0
   -2.5810    3.7730    2.6750 H   0  0  0  0  0  0  0  0  0  0  0  0
   -3.2200    4.9140    1.4610 H   0  0  0  0  0  0  0  0  0  0  0  0
   -2.1080    3.2550   -0.2890 H   0  0  0  0  0  0  0  0  0  0  0  0
   -0.3660    2.7400    2.1260 H   0  0  0  0  0  0  0  0  0  0  0  0
  1  9  1  0  0  0  0
  1 10  1  0  0  0  0
  1  2  1  0  0  0  0
  3  2  1  0  0  0  0
  3 12  1  0  0  0  0
  3 13  1  0  0  0  0
  4 15  1  0  0  0  0
  4  3  1  0  0  0  0
  5 16  1  6  0  0  0
  5  4  1  0  0  0  0
  5  7  1  0  0  0  0
  6  5  1  0  0  0  0
  7  8  2  0  0  0  0
 11  1  1  0  0  0  0
 14  4  1  0  0  0  0
 17  6  1  0  0  0  0
 18  6  1  0  0  0  0
 19 20  1  0  0  0  0
 20 21  2  0  0  0  0
 20 22  1  0  0  0  0
 22 31  1  0  0  0  0
 22 23  1  0  0  0  0
 23 32  1  0  0  0  0
 23 33  1  0  0  0  0
 24 23  1  0  0  0  0
 24 34  1  1  0  0  0
 25  7  1  0  0  0  0
 25 24  1  0  0  0  0
 26 24  1  0  0  0  0
 26 38  1  0  0  0  0
 27 26  2  0  0  0  0
 28 19  1  0  0  0  0
 29 19  1  0  0  0  0
 30 22  1  0  0  0  0
 35 25  1  0  0  0  0
 36 43  1  0  0  0  0
 37 45  1  6  0  0  0
 37 38  1  0  0  0  0
 37 36  1  0  0  0  0
 38 46  1  0  0  0  0
 39 37  1  0  0  0  0
 39 41  1  0  0  0  0
 40 39  2  0  0  0  0
 42 36  1  0  0  0  0
 44 36  1  0  0  0  0
M  END
$$$$
