MQD.pdb
 OpenBabel07022418553D

 49 48  0  0  1  0  0  0  0  0999 V2000
    2.8820   -4.7280    1.2620 C   0  0  0  0  0  0  0  0  0  0  0  0
    2.5390   -4.6420   -0.4890 S   0  0  0  0  0  0  0  0  0  0  0  0
    1.7660   -3.1570   -1.0480 C   0  0  0  0  0  0  0  0  0  0  0  0
    2.5260   -1.9020   -1.1270 C   0  0  0  0  0  0  0  0  0  0  0  0
    3.1630   -1.3210    0.0670 C   0  0  2  0  0  0  0  0  0  0  0  0
    4.1440   -2.1950    0.6290 N   0  0  0  0  0  0  0  0  0  0  0  0
    2.2530   -0.8820    1.1440 C   0  0  0  0  0  0  0  0  0  0  0  0
    2.4470   -1.2870    2.3460 O   0  0  0  0  0  0  0  0  0  0  0  0
    2.3360   -3.9040    1.7790 H   0  0  0  0  0  0  0  0  0  0  0  0
    3.9560   -4.7730    1.4880 H   0  0  0  0  0  0  0  0  0  0  0  0
    2.4790   -5.7110    1.6960 H   0  0  0  0  0  0  0  0  0  0  0  0
    0.7870   -3.0010   -0.5030 H   0  0  0  0  0  0  0  0  0  0  0  0
    1.3850   -3.3710   -2.1120 H   0  0  0  0  0  0  0  0  0  0  0  0
    1.8420   -1.1230   -1.5730 H   0  0  0  0  0  0  0  0  0  0  0  0
    3.3210   -2.0250   -1.9140 H   0  0  0  0  0  0  0  0  0  0  0  0
    3.7500   -0.4090   -0.2840 H   0  0  0  0  0  0  0  0  0  0  0  0
    4.6280   -1.7140    1.4400 H   0  0  0  0  0  0  0  0  0  0  0  0
    4.8040   -2.5670   -0.0720 H   0  0  0  0  0  0  0  0  0  0  0  0
   -0.9590    4.2360    0.1150 N   0  0  0  0  0  0  0  0  0  0  0  0
   -0.8480    3.2230    1.1350 C   0  0  0  0  0  0  0  0  0  0  0  0
   -1.8990    2.6610    1.4750 O   0  0  0  0  0  0  0  0  0  0  0  0
    0.4390    2.8870    1.7340 C   0  0  0  0  0  0  0  0  0  0  0  0
    0.5310    1.7140    2.6130 C   0  0  0  0  0  0  0  0  0  0  0  0
    0.2660    0.3630    2.0910 C   0  0  2  0  0  0  0  0  0  0  0  0
    1.1330   -0.0170    0.9800 N   0  0  0  0  0  0  0  0  0  0  0  0
   -1.1090   -0.0920    1.9150 C   0  0  0  0  0  0  0  0  0  0  0  0
   -2.0250    0.0180    2.7720 O   0  0  0  0  0  0  0  0  0  0  0  0
   -0.1660    4.3670   -0.5130 H   0  0  0  0  0  0  0  0  0  0  0  0
   -1.8110    4.8240    0.0100 H   0  0  0  0  0  0  0  0  0  0  0  0
    1.2340    2.8650    0.9240 H   0  0  0  0  0  0  0  0  0  0  0  0
    0.7410    3.8270    2.3160 H   0  0  0  0  0  0  0  0  0  0  0  0
   -0.1480    1.9190    3.5100 H   0  0  0  0  0  0  0  0  0  0  0  0
    1.5570    1.7580    3.1080 H   0  0  0  0  0  0  0  0  0  0  0  0
    0.6470   -0.3370    2.9540 H   0  0  0  0  0  0  0  0  0  0  0  0
    0.9330    0.3540    0.0210 H   0  0  0  0  0  0  0  0  0  0  0  0
   -1.4520   -0.7230    0.6630 N   0  0  0  0  0  0  0  0  0  0  0  0
   -2.7670   -1.2070    0.4260 C   0  0  1  0  0  0  0  0  0  0  0  0
   -3.4420   -0.6770   -0.8150 C   0  0  0  0  0  0  0  0  0  0  0  0
   -3.5230    0.7980   -0.6560 C   0  0  0  0  0  0  0  0  0  0  0  0
   -2.7700    1.5740   -1.2580 O   0  0  0  0  0  0  0  0  0  0  0  0
   -2.8300   -2.6920    0.3740 C   0  0  0  0  0  0  0  0  0  0  0  0
   -3.9380   -3.2350    0.1780 O   0  0  0  0  0  0  0  0  0  0  0  0
   -4.5090    1.2640    0.2220 O   0  0  0  0  0  0  0  0  0  0  0  0
   -1.7190   -3.4980    0.5340 O   0  0  0  0  0  0  0  0  0  0  0  0
   -0.7190   -0.8270   -0.0920 H   0  0  0  0  0  0  0  0  0  0  0  0
   -3.4010   -0.9420    1.3290 H   0  0  0  0  0  0  0  0  0  0  0  0
   -4.4890   -1.0510   -0.7970 H   0  0  0  0  0  0  0  0  0  0  0  0
   -2.9460   -1.0110   -1.7290 H   0  0  0  0  0  0  0  0  0  0  0  0
   -4.4640    2.2000    0.5950 H   0  0  0  0  0  0  0  0  0  0  0  0
  1 10  1  0  0  0  0
  1 11  1  0  0  0  0
  1  9  1  0  0  0  0
  2  1  1  0  0  0  0
  3 12  1  0  0  0  0
  3  2  1  0  0  0  0
  4  3  1  0  0  0  0
  4  5  1  0  0  0  0
  5 16  1  6  0  0  0
  5  6  1  0  0  0  0
  5  7  1  0  0  0  0
  6 17  1  0  0  0  0
  7  8  2  0  0  0  0
 13  3  1  0  0  0  0
 14  4  1  0  0  0  0
 15  4  1  0  0  0  0
 18  6  1  0  0  0  0
 19 20  1  0  0  0  0
 20 21  2  0  0  0  0
 20 22  1  0  0  0  0
 22 31  1  0  0  0  0
 22 23  1  0  0  0  0
 23 33  1  0  0  0  0
 23 32  1  0  0  0  0
 24 23  1  0  0  0  0
 24 34  1  1  0  0  0
 25  7  1  0  0  0  0
 25 24  1  0  0  0  0
 26 24  1  0  0  0  0
 26 27  2  0  0  0  0
 28 19  1  0  0  0  0
 29 19  1  0  0  0  0
 30 22  1  0  0  0  0
 35 25  1  0  0  0  0
 36 26  1  0  0  0  0
 37 36  1  0  0  0  0
 37 46  1  1  0  0  0
 38 47  1  0  0  0  0
 38 39  1  0  0  0  0
 38 37  1  0  0  0  0
 39 43  1  0  0  0  0
 40 39  2  0  0  0  0
 41 37  1  0  0  0  0
 41 44  1  0  0  0  0
 42 41  2  0  0  0  0
 43 49  1  0  0  0  0
 45 36  1  0  0  0  0
 48 38  1  0  0  0  0
M  END
$$$$
