MQE.pdb
 OpenBabel07022418553D

 52 51  0  0  1  0  0  0  0  0999 V2000
    0.3470   -1.6110    4.7130 C   0  0  0  0  0  0  0  0  0  0  0  0
    1.0560   -3.1330    5.2800 S   0  0  0  0  0  0  0  0  0  0  0  0
    2.7310   -3.4800    4.8590 C   0  0  0  0  0  0  0  0  0  0  0  0
    3.0140   -3.8030    3.4420 C   0  0  0  0  0  0  0  0  0  0  0  0
    2.7520   -2.8080    2.4010 C   0  0  2  0  0  0  0  0  0  0  0  0
    3.4950   -1.5850    2.6200 N   0  0  0  0  0  0  0  0  0  0  0  0
    1.3530   -2.5950    2.0050 C   0  0  0  0  0  0  0  0  0  0  0  0
    0.4540   -3.4670    2.0640 O   0  0  0  0  0  0  0  0  0  0  0  0
    1.0240   -0.8830    4.2650 H   0  0  0  0  0  0  0  0  0  0  0  0
   -0.5330   -1.8790    4.0570 H   0  0  0  0  0  0  0  0  0  0  0  0
   -0.1740   -1.1280    5.6070 H   0  0  0  0  0  0  0  0  0  0  0  0
    3.0420   -4.4060    5.4540 H   0  0  0  0  0  0  0  0  0  0  0  0
    3.4590   -2.7100    5.2630 H   0  0  0  0  0  0  0  0  0  0  0  0
    4.1310   -4.0630    3.4000 H   0  0  0  0  0  0  0  0  0  0  0  0
    2.5580   -4.8000    3.1450 H   0  0  0  0  0  0  0  0  0  0  0  0
    3.2940   -3.2700    1.4550 H   0  0  0  0  0  0  0  0  0  0  0  0
    4.3520   -1.8080    3.1720 H   0  0  0  0  0  0  0  0  0  0  0  0
    3.8340   -1.1920    1.7150 H   0  0  0  0  0  0  0  0  0  0  0  0
    0.8630    3.5220    0.5050 N   0  0  0  0  0  0  0  0  0  0  0  0
    0.2200    2.2230    0.5050 C   0  0  0  0  0  0  0  0  0  0  0  0
   -0.0100    1.7500   -0.6160 O   0  0  0  0  0  0  0  0  0  0  0  0
   -0.1120    1.5630    1.7520 C   0  0  0  0  0  0  0  0  0  0  0  0
   -0.8660    0.2950    1.7520 C   0  0  0  0  0  0  0  0  0  0  0  0
   -0.2840   -0.8850    1.0640 C   0  0  2  0  0  0  0  0  0  0  0  0
    1.0140   -1.2840    1.5100 N   0  0  0  0  0  0  0  0  0  0  0  0
   -0.4720   -0.9400   -0.4090 C   0  0  0  0  0  0  0  0  0  0  0  0
    0.5280   -1.2130   -1.1090 O   0  0  0  0  0  0  0  0  0  0  0  0
    1.7020    3.6450    1.0930 H   0  0  0  0  0  0  0  0  0  0  0  0
    0.4970    4.2920   -0.0600 H   0  0  0  0  0  0  0  0  0  0  0  0
    0.8600    1.4660    2.3410 H   0  0  0  0  0  0  0  0  0  0  0  0
   -0.6720    2.3470    2.3730 H   0  0  0  0  0  0  0  0  0  0  0  0
   -1.8910    0.4500    1.2800 H   0  0  0  0  0  0  0  0  0  0  0  0
   -1.0900    0.0200    2.8170 H   0  0  0  0  0  0  0  0  0  0  0  0
   -0.9630   -1.7710    1.4200 H   0  0  0  0  0  0  0  0  0  0  0  0
    1.7800   -0.5460    1.4660 H   0  0  0  0  0  0  0  0  0  0  0  0
   -1.7010   -0.7100   -1.0510 N   0  0  0  0  0  0  0  0  0  0  0  0
   -1.9690   -0.7600   -2.4300 C   0  0  1  0  0  0  0  0  0  0  0  0
   -1.8120    0.4810   -3.2070 C   0  0  0  0  0  0  0  0  0  0  0  0
   -2.6850    1.6130   -2.7730 C   0  0  0  0  0  0  0  0  0  0  0  0
   -4.1360    1.3550   -2.8900 C   0  0  0  0  0  0  0  0  0  0  0  0
   -4.9930    2.1710   -2.4230 O   0  0  0  0  0  0  0  0  0  0  0  0
   -1.3320   -1.9060   -3.1630 C   0  0  0  0  0  0  0  0  0  0  0  0
   -0.7410   -2.7840   -2.5240 O   0  0  0  0  0  0  0  0  0  0  0  0
   -4.6500    0.2280   -3.5080 O   0  0  0  0  0  0  0  0  0  0  0  0
   -1.3980   -1.9900   -4.5420 O   0  0  0  0  0  0  0  0  0  0  0  0
   -2.5270   -0.4670   -0.4070 H   0  0  0  0  0  0  0  0  0  0  0  0
   -3.0780   -1.0710   -2.5090 H   0  0  0  0  0  0  0  0  0  0  0  0
   -0.7550    0.7910   -3.3750 H   0  0  0  0  0  0  0  0  0  0  0  0
   -2.1560    0.2300   -4.2610 H   0  0  0  0  0  0  0  0  0  0  0  0
   -2.4680    2.5420   -3.3510 H   0  0  0  0  0  0  0  0  0  0  0  0
   -2.5200    1.8310   -1.6750 H   0  0  0  0  0  0  0  0  0  0  0  0
   -5.6490   -0.0140   -3.4550 H   0  0  0  0  0  0  0  0  0  0  0  0
  1  2  1  0  0  0  0
  1 11  1  0  0  0  0
  3 13  1  0  0  0  0
  3  2  1  0  0  0  0
  3 12  1  0  0  0  0
  4  3  1  0  0  0  0
  5 16  1  6  0  0  0
  5  6  1  0  0  0  0
  5  4  1  0  0  0  0
  6 17  1  0  0  0  0
  7  8  2  0  0  0  0
  7  5  1  0  0  0  0
  9  1  1  0  0  0  0
 10  1  1  0  0  0  0
 14  4  1  0  0  0  0
 15  4  1  0  0  0  0
 18  6  1  0  0  0  0
 19 20  1  0  0  0  0
 19 28  1  0  0  0  0
 20 22  1  0  0  0  0
 21 20  2  0  0  0  0
 22 30  1  0  0  0  0
 22 31  1  0  0  0  0
 23 22  1  0  0  0  0
 23 33  1  0  0  0  0
 24 34  1  1  0  0  0
 24 25  1  0  0  0  0
 24 23  1  0  0  0  0
 25  7  1  0  0  0  0
 26 24  1  0  0  0  0
 27 26  2  0  0  0  0
 29 19  1  0  0  0  0
 32 23  1  0  0  0  0
 35 25  1  0  0  0  0
 36 26  1  0  0  0  0
 36 46  1  0  0  0  0
 37 47  1  6  0  0  0
 37 36  1  0  0  0  0
 38 39  1  0  0  0  0
 38 37  1  0  0  0  0
 39 51  1  0  0  0  0
 40 39  1  0  0  0  0
 40 41  2  0  0  0  0
 42 43  1  0  0  0  0
 42 37  1  0  0  0  0
 44 52  1  0  0  0  0
 44 40  1  0  0  0  0
 45 42  2  0  0  0  0
 48 38  1  0  0  0  0
 49 38  1  0  0  0  0
 50 39  1  0  0  0  0
M  END
$$$$
