MQF.pdb
 OpenBabel07022418553D

 56 56  0  0  1  0  0  0  0  0999 V2000
   -4.4000   -1.0160    3.7950 C   0  0  0  0  0  0  0  0  0  0  0  0
   -3.6060   -2.5460    4.2350 S   0  0  0  0  0  0  0  0  0  0  0  0
   -3.3210   -3.6640    2.8760 C   0  0  0  0  0  0  0  0  0  0  0  0
   -2.3410   -3.1730    1.8660 C   0  0  0  0  0  0  0  0  0  0  0  0
   -0.9740   -2.9130    2.4260 C   0  0  2  0  0  0  0  0  0  0  0  0
   -0.9430   -1.9370    3.4580 N   0  0  0  0  0  0  0  0  0  0  0  0
   -0.0050   -2.5400    1.3430 C   0  0  0  0  0  0  0  0  0  0  0  0
    0.1240   -3.2630    0.3200 O   0  0  0  0  0  0  0  0  0  0  0  0
   -4.0030   -0.2100    4.4710 H   0  0  0  0  0  0  0  0  0  0  0  0
   -4.1860   -0.6660    2.7690 H   0  0  0  0  0  0  0  0  0  0  0  0
   -5.5040   -1.0120    3.9530 H   0  0  0  0  0  0  0  0  0  0  0  0
   -3.0240   -4.6450    3.2700 H   0  0  0  0  0  0  0  0  0  0  0  0
   -4.2920   -3.8200    2.3460 H   0  0  0  0  0  0  0  0  0  0  0  0
   -2.7370   -2.2610    1.4060 H   0  0  0  0  0  0  0  0  0  0  0  0
   -2.2460   -3.9280    1.0530 H   0  0  0  0  0  0  0  0  0  0  0  0
   -0.5550   -3.8680    2.8570 H   0  0  0  0  0  0  0  0  0  0  0  0
   -1.2920   -1.0070    3.2060 H   0  0  0  0  0  0  0  0  0  0  0  0
   -0.1380   -1.9750    4.0870 H   0  0  0  0  0  0  0  0  0  0  0  0
    4.3710   -5.0680   -0.3140 N   0  0  0  0  0  0  0  0  0  0  0  0
    3.6160   -3.9500   -0.7230 C   0  0  0  0  0  0  0  0  0  0  0  0
    3.3730   -3.7780   -1.9370 O   0  0  0  0  0  0  0  0  0  0  0  0
    3.1120   -2.9830    0.2670 C   0  0  0  0  0  0  0  0  0  0  0  0
    2.3360   -1.8710   -0.4030 C   0  0  0  0  0  0  0  0  0  0  0  0
    1.7490   -0.8700    0.5660 C   0  0  2  0  0  0  0  0  0  0  0  0
    0.7690   -1.3640    1.4770 N   0  0  0  0  0  0  0  0  0  0  0  0
    1.5840    0.4760    0.0540 C   0  0  0  0  0  0  0  0  0  0  0  0
    2.4660    0.9270   -0.7540 O   0  0  0  0  0  0  0  0  0  0  0  0
    4.4240   -5.9440   -0.8660 H   0  0  0  0  0  0  0  0  0  0  0  0
    4.8980   -5.0150    0.5780 H   0  0  0  0  0  0  0  0  0  0  0  0
    2.5380   -3.4010    1.0940 H   0  0  0  0  0  0  0  0  0  0  0  0
    3.9880   -2.4700    0.7900 H   0  0  0  0  0  0  0  0  0  0  0  0
    3.1070   -1.2970   -0.9840 H   0  0  0  0  0  0  0  0  0  0  0  0
    1.6480   -2.3140   -1.1080 H   0  0  0  0  0  0  0  0  0  0  0  0
    2.6810   -0.7790    1.2820 H   0  0  0  0  0  0  0  0  0  0  0  0
    0.5610   -0.8180    2.3850 H   0  0  0  0  0  0  0  0  0  0  0  0
    0.5280    1.3660    0.3590 N   0  0  0  0  0  0  0  0  0  0  0  0
    0.4020    2.7020   -0.1730 C   0  0  1  0  0  0  0  0  0  0  0  0
   -0.8780    2.8260   -0.9750 C   0  0  0  0  0  0  0  0  0  0  0  0
   -0.9020    1.8730   -2.1140 C   0  0  0  0  0  0  0  0  0  0  0  0
   -1.4190    0.6080   -1.9750 C   0  0  0  0  0  0  0  0  0  0  0  0
   -1.4350   -0.2640   -3.0390 C   0  0  0  0  0  0  0  0  0  0  0  0
   -0.9350    0.0940   -4.2780 C   0  0  0  0  0  0  0  0  0  0  0  0
   -0.4220    1.3720   -4.3860 C   0  0  0  0  0  0  0  0  0  0  0  0
   -0.4010    2.2520   -3.3310 C   0  0  0  0  0  0  0  0  0  0  0  0
    0.4070    3.6920    0.9280 C   0  0  0  0  0  0  0  0  0  0  0  0
    0.3090    4.9270    0.7230 O   0  0  0  0  0  0  0  0  0  0  0  0
    0.5230    3.3110    2.2730 O   0  0  0  0  0  0  0  0  0  0  0  0
   -0.2080    1.0400    1.0100 H   0  0  0  0  0  0  0  0  0  0  0  0
    1.2810    2.9000   -0.8220 H   0  0  0  0  0  0  0  0  0  0  0  0
   -0.9920    3.8470   -1.3770 H   0  0  0  0  0  0  0  0  0  0  0  0
   -1.7350    2.6290   -0.3090 H   0  0  0  0  0  0  0  0  0  0  0  0
   -1.8270    0.2600   -1.0370 H   0  0  0  0  0  0  0  0  0  0  0  0
   -1.8360   -1.2780   -2.9710 H   0  0  0  0  0  0  0  0  0  0  0  0
   -0.9460   -0.5900   -5.1150 H   0  0  0  0  0  0  0  0  0  0  0  0
   -0.0210    1.6800   -5.3540 H   0  0  0  0  0  0  0  0  0  0  0  0
    0.0210    3.2440   -3.4930 H   0  0  0  0  0  0  0  0  0  0  0  0
  1 11  1  0  0  0  0
  1  2  1  0  0  0  0
  1  9  1  0  0  0  0
  3 12  1  0  0  0  0
  3  2  1  0  0  0  0
  4  5  1  0  0  0  0
  4  3  1  0  0  0  0
  5 16  1  1  0  0  0
  5  6  1  0  0  0  0
  6 18  1  0  0  0  0
  7 25  1  0  0  0  0
  7  5  1  0  0  0  0
  8  7  2  0  0  0  0
 10  1  1  0  0  0  0
 13  3  1  0  0  0  0
 14  4  1  0  0  0  0
 15  4  1  0  0  0  0
 17  6  1  0  0  0  0
 19 29  1  0  0  0  0
 20 19  1  0  0  0  0
 20 22  1  0  0  0  0
 21 20  2  0  0  0  0
 22 31  1  0  0  0  0
 22 30  1  0  0  0  0
 23 22  1  0  0  0  0
 23 24  1  0  0  0  0
 24 34  1  1  0  0  0
 24 25  1  0  0  0  0
 25 35  1  0  0  0  0
 26 36  1  0  0  0  0
 26 24  1  0  0  0  0
 27 26  2  0  0  0  0
 28 19  1  0  0  0  0
 32 23  1  0  0  0  0
 33 23  1  0  0  0  0
 36 48  1  0  0  0  0
 37 49  1  6  0  0  0
 37 36  1  0  0  0  0
 37 45  1  0  0  0  0
 38 51  1  0  0  0  0
 38 37  1  0  0  0  0
 39 40  1  0  0  0  0
 39 38  1  0  0  0  0
 40 52  1  0  0  0  0
 41 53  1  0  0  0  0
 41 40  2  0  0  0  0
 42 41  1  0  0  0  0
 43 42  2  0  0  0  0
 43 44  1  0  0  0  0
 44 39  2  0  0  0  0
 45 47  1  0  0  0  0
 46 45  2  0  0  0  0
 50 38  1  0  0  0  0
 54 42  1  0  0  0  0
 55 43  1  0  0  0  0
 56 44  1  0  0  0  0
M  END
$$$$
