MQK.pdb
 OpenBabel07022418553D

 57 56  0  0  1  0  0  0  0  0999 V2000
    5.1460   -4.5180    2.5320 C   0  0  0  0  0  0  0  0  0  0  0  0
    4.9380   -2.8290    1.8980 S   0  0  0  0  0  0  0  0  0  0  0  0
    3.5430   -2.7360    0.7610 C   0  0  0  0  0  0  0  0  0  0  0  0
    2.2380   -2.9770    1.4370 C   0  0  0  0  0  0  0  0  0  0  0  0
    1.8900   -2.0370    2.5380 C   0  0  2  0  0  0  0  0  0  0  0  0
    0.5860   -2.4640    3.0470 N   0  0  0  0  0  0  0  0  0  0  0  0
    1.7040   -0.6480    1.9750 C   0  0  0  0  0  0  0  0  0  0  0  0
    2.6980   -0.0460    1.5680 O   0  0  0  0  0  0  0  0  0  0  0  0
    6.2120   -4.8230    2.5510 H   0  0  0  0  0  0  0  0  0  0  0  0
    4.8040   -4.5180    3.5870 H   0  0  0  0  0  0  0  0  0  0  0  0
    4.5730   -5.2480    1.9190 H   0  0  0  0  0  0  0  0  0  0  0  0
    3.5460   -1.7420    0.2840 H   0  0  0  0  0  0  0  0  0  0  0  0
    3.6970   -3.4720   -0.0870 H   0  0  0  0  0  0  0  0  0  0  0  0
    1.3780   -3.0130    0.7440 H   0  0  0  0  0  0  0  0  0  0  0  0
    2.2840   -4.0090    1.8920 H   0  0  0  0  0  0  0  0  0  0  0  0
    2.6030   -2.0050    3.3710 H   0  0  0  0  0  0  0  0  0  0  0  0
    0.6460   -2.6910    4.0540 H   0  0  0  0  0  0  0  0  0  0  0  0
    0.1360   -3.1760    2.4620 H   0  0  0  0  0  0  0  0  0  0  0  0
    1.2310    3.5360    4.9480 N   0  0  0  0  0  0  0  0  0  0  0  0
    0.8520    3.3730    3.5980 C   0  0  0  0  0  0  0  0  0  0  0  0
   -0.2230    3.7640    3.1260 O   0  0  0  0  0  0  0  0  0  0  0  0
    1.8410    2.6810    2.7040 C   0  0  0  0  0  0  0  0  0  0  0  0
    1.2670    2.2650    1.3850 C   0  0  0  0  0  0  0  0  0  0  0  0
    0.1750    1.2490    1.4200 C   0  0  2  0  0  0  0  0  0  0  0  0
    0.4410   -0.0440    1.9080 N   0  0  0  0  0  0  0  0  0  0  0  0
   -0.7880    1.3420    0.2940 C   0  0  0  0  0  0  0  0  0  0  0  0
   -1.0860    2.4920   -0.2000 O   0  0  0  0  0  0  0  0  0  0  0  0
    1.1580    4.4380    5.4290 H   0  0  0  0  0  0  0  0  0  0  0  0
    1.6040    2.7050    5.4870 H   0  0  0  0  0  0  0  0  0  0  0  0
    2.2570    1.8300    3.2420 H   0  0  0  0  0  0  0  0  0  0  0  0
    2.6360    3.4580    2.5310 H   0  0  0  0  0  0  0  0  0  0  0  0
    0.7970    3.1980    0.9500 H   0  0  0  0  0  0  0  0  0  0  0  0
    2.0980    2.0360    0.7110 H   0  0  0  0  0  0  0  0  0  0  0  0
   -0.4450    1.7020    2.3110 H   0  0  0  0  0  0  0  0  0  0  0  0
   -0.3640   -0.6490    2.2690 H   0  0  0  0  0  0  0  0  0  0  0  0
   -1.3910    0.2020   -0.2540 N   0  0  0  0  0  0  0  0  0  0  0  0
   -2.3600    0.3530   -1.3940 C   0  0  1  0  0  0  0  0  0  0  0  0
   -1.7600   -0.4610   -2.4590 C   0  0  0  0  0  0  0  0  0  0  0  0
   -2.3300   -0.5930   -3.8020 C   0  0  0  0  0  0  0  0  0  0  0  0
   -3.6170   -1.2390   -4.0810 C   0  0  0  0  0  0  0  0  0  0  0  0
   -3.7250   -2.6960   -3.6910 C   0  0  0  0  0  0  0  0  0  0  0  0
   -3.5200   -2.9760   -2.3150 N   0  0  0  0  0  0  0  0  0  0  0  0
   -3.6480   -0.1260   -0.8910 C   0  0  0  0  0  0  0  0  0  0  0  0
   -4.6990    0.0290   -1.5070 O   0  0  0  0  0  0  0  0  0  0  0  0
   -3.7160   -0.8060    0.3610 O   0  0  0  0  0  0  0  0  0  0  0  0
   -1.2170   -0.7380    0.0710 H   0  0  0  0  0  0  0  0  0  0  0  0
   -2.4390    1.4380   -1.6210 H   0  0  0  0  0  0  0  0  0  0  0  0
   -0.6550   -0.1960   -2.6080 H   0  0  0  0  0  0  0  0  0  0  0  0
   -1.6270   -1.5140   -1.9790 H   0  0  0  0  0  0  0  0  0  0  0  0
   -1.5620   -1.0560   -4.5150 H   0  0  0  0  0  0  0  0  0  0  0  0
   -2.3950    0.4630   -4.2530 H   0  0  0  0  0  0  0  0  0  0  0  0
   -3.6560   -1.2570   -5.2650 H   0  0  0  0  0  0  0  0  0  0  0  0
   -4.5210   -0.6960   -3.8630 H   0  0  0  0  0  0  0  0  0  0  0  0
   -4.7660   -3.0470   -3.9490 H   0  0  0  0  0  0  0  0  0  0  0  0
   -3.0700   -3.3260   -4.3580 H   0  0  0  0  0  0  0  0  0  0  0  0
   -4.3990   -3.0980   -1.7940 H   0  0  0  0  0  0  0  0  0  0  0  0
   -2.7720   -3.6460   -2.0910 H   0  0  0  0  0  0  0  0  0  0  0  0
  1  9  1  0  0  0  0
  1 10  1  0  0  0  0
  2  1  1  0  0  0  0
  3  4  1  0  0  0  0
  3  2  1  0  0  0  0
  4 15  1  0  0  0  0
  4  5  1  0  0  0  0
  5  6  1  0  0  0  0
  5 16  1  1  0  0  0
  6 17  1  0  0  0  0
  7  5  1  0  0  0  0
  8  7  2  0  0  0  0
 11  1  1  0  0  0  0
 12  3  1  0  0  0  0
 13  3  1  0  0  0  0
 14  4  1  0  0  0  0
 18  6  1  0  0  0  0
 19 28  1  0  0  0  0
 19 29  1  0  0  0  0
 20 19  1  0  0  0  0
 21 20  2  0  0  0  0
 22 30  1  0  0  0  0
 22 20  1  0  0  0  0
 23 24  1  0  0  0  0
 23 22  1  0  0  0  0
 24 25  1  0  0  0  0
 24 34  1  1  0  0  0
 25  7  1  0  0  0  0
 25 35  1  0  0  0  0
 26 24  1  0  0  0  0
 27 26  2  0  0  0  0
 31 22  1  0  0  0  0
 32 23  1  0  0  0  0
 33 23  1  0  0  0  0
 36 46  1  0  0  0  0
 36 26  1  0  0  0  0
 37 47  1  6  0  0  0
 37 43  1  0  0  0  0
 37 36  1  0  0  0  0
 38 49  1  0  0  0  0
 38 37  1  0  0  0  0
 39 38  1  0  0  0  0
 40 53  1  0  0  0  0
 40 39  1  0  0  0  0
 40 41  1  0  0  0  0
 41 42  1  0  0  0  0
 42 57  1  0  0  0  0
 42 56  1  0  0  0  0
 43 45  1  0  0  0  0
 44 43  2  0  0  0  0
 48 38  1  0  0  0  0
 50 39  1  0  0  0  0
 51 39  1  0  0  0  0
 52 40  1  0  0  0  0
 54 41  1  0  0  0  0
 55 41  1  0  0  0  0
M  END
$$$$
