MQM.pdb
 OpenBabel07022418553D

 53 52  0  0  1  0  0  0  0  0999 V2000
    3.1720   -1.5640    4.6530 C   0  0  0  0  0  0  0  0  0  0  0  0
    4.3150   -2.9340    4.4320 S   0  0  0  0  0  0  0  0  0  0  0  0
    4.0820   -3.8280    2.9300 C   0  0  0  0  0  0  0  0  0  0  0  0
    4.4600   -3.2260    1.6480 C   0  0  0  0  0  0  0  0  0  0  0  0
    3.8570   -1.9760    1.1770 C   0  0  2  0  0  0  0  0  0  0  0  0
    4.0550   -0.8110    1.9810 N   0  0  0  0  0  0  0  0  0  0  0  0
    2.4260   -2.1260    0.7570 C   0  0  0  0  0  0  0  0  0  0  0  0
    2.0660   -3.1160    0.0690 O   0  0  0  0  0  0  0  0  0  0  0  0
    2.6500   -1.6520    5.6680 H   0  0  0  0  0  0  0  0  0  0  0  0
    3.6610   -0.5650    4.6570 H   0  0  0  0  0  0  0  0  0  0  0  0
    2.3270   -1.5880    3.9420 H   0  0  0  0  0  0  0  0  0  0  0  0
    3.0250   -4.2320    2.9370 H   0  0  0  0  0  0  0  0  0  0  0  0
    4.6860   -4.7920    3.0180 H   0  0  0  0  0  0  0  0  0  0  0  0
    4.3130   -4.0030    0.8480 H   0  0  0  0  0  0  0  0  0  0  0  0
    5.5770   -3.0750    1.6620 H   0  0  0  0  0  0  0  0  0  0  0  0
    4.3770   -1.7340    0.1870 H   0  0  0  0  0  0  0  0  0  0  0  0
    3.8960    0.0670    1.4350 H   0  0  0  0  0  0  0  0  0  0  0  0
    5.0570   -0.7960    2.2740 H   0  0  0  0  0  0  0  0  0  0  0  0
   -1.1720    1.8360    3.8010 N   0  0  0  0  0  0  0  0  0  0  0  0
   -1.1780    0.9100    2.6970 C   0  0  0  0  0  0  0  0  0  0  0  0
   -1.4760    1.3970    1.5950 O   0  0  0  0  0  0  0  0  0  0  0  0
   -0.8440   -0.4680    2.9710 C   0  0  0  0  0  0  0  0  0  0  0  0
   -0.8510   -1.4650    1.8870 C   0  0  0  0  0  0  0  0  0  0  0  0
    0.0480   -1.2780    0.7270 C   0  0  2  0  0  0  0  0  0  0  0  0
    1.4370   -1.1780    1.1070 N   0  0  0  0  0  0  0  0  0  0  0  0
   -0.3940   -0.3310   -0.2940 C   0  0  0  0  0  0  0  0  0  0  0  0
    0.3680    0.6030   -0.7350 O   0  0  0  0  0  0  0  0  0  0  0  0
   -0.4200    2.5400    3.8130 H   0  0  0  0  0  0  0  0  0  0  0  0
   -1.8810    1.8190    4.5610 H   0  0  0  0  0  0  0  0  0  0  0  0
    0.1080   -0.5510    3.5730 H   0  0  0  0  0  0  0  0  0  0  0  0
   -1.6230   -0.8330    3.7260 H   0  0  0  0  0  0  0  0  0  0  0  0
   -0.6530   -2.4710    2.3790 H   0  0  0  0  0  0  0  0  0  0  0  0
   -1.9230   -1.6000    1.5320 H   0  0  0  0  0  0  0  0  0  0  0  0
    0.0190   -2.2980    0.1650 H   0  0  0  0  0  0  0  0  0  0  0  0
    1.7220   -0.3530    1.6750 H   0  0  0  0  0  0  0  0  0  0  0  0
   -5.5050    0.1700   -4.2120 C   0  0  0  0  0  0  0  0  0  0  0  0
   -4.2040    1.4300   -4.2030 S   0  0  0  0  0  0  0  0  0  0  0  0
   -2.5810    0.7190   -4.3620 C   0  0  0  0  0  0  0  0  0  0  0  0
   -2.2080   -0.1180   -3.2020 C   0  0  0  0  0  0  0  0  0  0  0  0
   -2.0760    0.6050   -1.9160 C   0  0  2  0  0  0  0  0  0  0  0  0
   -1.6910   -0.3900   -0.8640 N   0  0  0  0  0  0  0  0  0  0  0  0
   -3.2200    1.3380   -1.3930 C   0  0  0  0  0  0  0  0  0  0  0  0
   -3.7350    2.3930   -1.8400 O   0  0  0  0  0  0  0  0  0  0  0  0
   -3.8880    0.8520   -0.2360 O   0  0  0  0  0  0  0  0  0  0  0  0
   -6.0850    0.1780   -3.2590 H   0  0  0  0  0  0  0  0  0  0  0  0
   -6.2510    0.3790   -5.0250 H   0  0  0  0  0  0  0  0  0  0  0  0
   -5.1100   -0.8420   -4.4400 H   0  0  0  0  0  0  0  0  0  0  0  0
   -2.4620    0.1440   -5.3390 H   0  0  0  0  0  0  0  0  0  0  0  0
   -1.8510    1.5720   -4.5210 H   0  0  0  0  0  0  0  0  0  0  0  0
   -2.8620   -1.0290   -3.1040 H   0  0  0  0  0  0  0  0  0  0  0  0
   -1.1950   -0.5940   -3.4390 H   0  0  0  0  0  0  0  0  0  0  0  0
   -1.2170    1.3260   -2.0500 H   0  0  0  0  0  0  0  0  0  0  0  0
   -2.3970   -1.0980   -0.5820 H   0  0  0  0  0  0  0  0  0  0  0  0
  1 10  1  0  0  0  0
  1  9  1  0  0  0  0
  2  1  1  0  0  0  0
  3 12  1  0  0  0  0
  3 13  1  0  0  0  0
  3  2  1  0  0  0  0
  4 15  1  0  0  0  0
  4  3  1  0  0  0  0
  5 16  1  6  0  0  0
  5  4  1  0  0  0  0
  5  6  1  0  0  0  0
  6 18  1  0  0  0  0
  7 25  1  0  0  0  0
  7  5  1  0  0  0  0
  8  7  2  0  0  0  0
 11  1  1  0  0  0  0
 14  4  1  0  0  0  0
 17  6  1  0  0  0  0
 19 28  1  0  0  0  0
 19 29  1  0  0  0  0
 20 22  1  0  0  0  0
 20 19  1  0  0  0  0
 21 20  2  0  0  0  0
 22 30  1  0  0  0  0
 22 31  1  0  0  0  0
 23 32  1  0  0  0  0
 23 22  1  0  0  0  0
 24 34  1  6  0  0  0
 24 25  1  0  0  0  0
 24 23  1  0  0  0  0
 25 35  1  0  0  0  0
 26 24  1  0  0  0  0
 27 26  2  0  0  0  0
 33 23  1  0  0  0  0
 36 37  1  0  0  0  0
 36 45  1  0  0  0  0
 38 37  1  0  0  0  0
 38 39  1  0  0  0  0
 39 50  1  0  0  0  0
 39 40  1  0  0  0  0
 40 52  1  6  0  0  0
 40 42  1  0  0  0  0
 40 41  1  0  0  0  0
 41 53  1  0  0  0  0
 41 26  1  0  0  0  0
 42 44  1  0  0  0  0
 43 42  2  0  0  0  0
 46 36  1  0  0  0  0
 47 36  1  0  0  0  0
 48 38  1  0  0  0  0
 49 38  1  0  0  0  0
 51 39  1  0  0  0  0
M  END
$$$$
