MQP.pdb
 OpenBabel07022418553D

 50 50  0  0  1  0  0  0  0  0999 V2000
   -0.9630   -4.4650    2.1990 C   0  0  0  0  0  0  0  0  0  0  0  0
   -0.0270   -3.8870    3.6250 S   0  0  0  0  0  0  0  0  0  0  0  0
    0.7020   -2.2490    3.3730 C   0  0  0  0  0  0  0  0  0  0  0  0
    1.7320   -2.3010    2.2820 C   0  0  0  0  0  0  0  0  0  0  0  0
    2.4390   -1.0200    2.0210 C   0  0  2  0  0  0  0  0  0  0  0  0
    3.1450   -0.5810    3.2380 N   0  0  0  0  0  0  0  0  0  0  0  0
    1.6810    0.0860    1.4730 C   0  0  0  0  0  0  0  0  0  0  0  0
    1.6220    1.1810    2.1140 O   0  0  0  0  0  0  0  0  0  0  0  0
   -2.0110   -4.1310    2.1760 H   0  0  0  0  0  0  0  0  0  0  0  0
   -0.4370   -4.2390    1.2380 H   0  0  0  0  0  0  0  0  0  0  0  0
   -0.9740   -5.5890    2.2500 H   0  0  0  0  0  0  0  0  0  0  0  0
    1.1070   -1.9080    4.3390 H   0  0  0  0  0  0  0  0  0  0  0  0
   -0.1410   -1.5800    3.0520 H   0  0  0  0  0  0  0  0  0  0  0  0
    1.3030   -2.7570    1.3780 H   0  0  0  0  0  0  0  0  0  0  0  0
    2.5170   -3.0330    2.6350 H   0  0  0  0  0  0  0  0  0  0  0  0
    3.2580   -1.2570    1.2770 H   0  0  0  0  0  0  0  0  0  0  0  0
    3.1140   -1.3140    3.9800 H   0  0  0  0  0  0  0  0  0  0  0  0
    4.1090   -0.2730    3.0010 H   0  0  0  0  0  0  0  0  0  0  0  0
    4.3760    1.7110   -0.0300 N   0  0  0  0  0  0  0  0  0  0  0  0
    3.2390    1.4340   -0.8610 C   0  0  0  0  0  0  0  0  0  0  0  0
    3.1530    0.2730   -1.3320 O   0  0  0  0  0  0  0  0  0  0  0  0
    2.2530    2.4930   -1.1260 C   0  0  0  0  0  0  0  0  0  0  0  0
    0.9170    1.9440   -1.4340 C   0  0  0  0  0  0  0  0  0  0  0  0
    0.2570    1.2020   -0.2580 C   0  0  2  0  0  0  0  0  0  0  0  0
    0.9560    0.0940    0.2250 N   0  0  0  0  0  0  0  0  0  0  0  0
   -1.1860    1.1330   -0.4880 C   0  0  0  0  0  0  0  0  0  0  0  0
   -1.6130    2.2930   -0.9290 O   0  0  0  0  0  0  0  0  0  0  0  0
    5.2710    1.2240   -0.1800 H   0  0  0  0  0  0  0  0  0  0  0  0
    4.3070    2.4080    0.7350 H   0  0  0  0  0  0  0  0  0  0  0  0
    2.2310    3.2030   -0.2510 H   0  0  0  0  0  0  0  0  0  0  0  0
    2.6350    3.1240   -1.9820 H   0  0  0  0  0  0  0  0  0  0  0  0
    0.2400    2.7860   -1.7370 H   0  0  0  0  0  0  0  0  0  0  0  0
    0.9060    1.2260   -2.2720 H   0  0  0  0  0  0  0  0  0  0  0  0
    0.3540    2.0060    0.5710 H   0  0  0  0  0  0  0  0  0  0  0  0
    0.9920   -0.8280   -0.3030 H   0  0  0  0  0  0  0  0  0  0  0  0
   -2.1090    0.0960   -0.3240 N   0  0  0  0  0  0  0  0  0  0  0  0
   -3.5160    0.2550   -0.6370 C   0  0  0  0  0  0  0  0  0  0  0  0
   -4.2070   -0.6000    0.3890 C   0  0  0  0  0  0  0  0  0  0  0  0
   -3.1220   -1.2960    1.1720 C   0  0  0  0  0  0  0  0  0  0  0  0
   -1.9970   -1.2440    0.1270 C   0  0  1  0  0  0  0  0  0  0  0  0
   -2.3450   -2.2420   -0.9080 C   0  0  0  0  0  0  0  0  0  0  0  0
   -2.5900   -1.9790   -2.1040 O   0  0  0  0  0  0  0  0  0  0  0  0
   -2.4090   -3.5760   -0.5420 O   0  0  0  0  0  0  0  0  0  0  0  0
   -3.8250    1.3310   -0.5320 H   0  0  0  0  0  0  0  0  0  0  0  0
   -3.7220   -0.0560   -1.6840 H   0  0  0  0  0  0  0  0  0  0  0  0
   -4.8100   -1.3850   -0.1220 H   0  0  0  0  0  0  0  0  0  0  0  0
   -4.8870   -0.0140    1.0420 H   0  0  0  0  0  0  0  0  0  0  0  0
   -2.7500   -0.6850    2.0280 H   0  0  0  0  0  0  0  0  0  0  0  0
   -3.3850   -2.3230    1.4490 H   0  0  0  0  0  0  0  0  0  0  0  0
   -1.0280   -1.4880    0.6110 H   0  0  0  0  0  0  0  0  0  0  0  0
  1 11  1  0  0  0  0
  1  2  1  0  0  0  0
  3  2  1  0  0  0  0
  3 12  1  0  0  0  0
  4 15  1  0  0  0  0
  4  3  1  0  0  0  0
  5 16  1  6  0  0  0
  5  4  1  0  0  0  0
  5  6  1  0  0  0  0
  6 17  1  0  0  0  0
  7  5  1  0  0  0  0
  7  8  2  0  0  0  0
  9  1  1  0  0  0  0
 10  1  1  0  0  0  0
 13  3  1  0  0  0  0
 14  4  1  0  0  0  0
 18  6  1  0  0  0  0
 19 29  1  0  0  0  0
 20 19  1  0  0  0  0
 21 20  2  0  0  0  0
 22 20  1  0  0  0  0
 22 30  1  0  0  0  0
 23 22  1  0  0  0  0
 23 24  1  0  0  0  0
 24 25  1  0  0  0  0
 24 34  1  1  0  0  0
 25  7  1  0  0  0  0
 26 36  1  0  0  0  0
 26 24  1  0  0  0  0
 27 26  2  0  0  0  0
 28 19  1  0  0  0  0
 31 22  1  0  0  0  0
 32 23  1  0  0  0  0
 33 23  1  0  0  0  0
 35 25  1  0  0  0  0
 36 40  1  0  0  0  0
 37 44  1  0  0  0  0
 37 36  1  0  0  0  0
 37 38  1  0  0  0  0
 38 47  1  0  0  0  0
 38 39  1  0  0  0  0
 39 49  1  0  0  0  0
 39 48  1  0  0  0  0
 40 50  1  1  0  0  0
 40 39  1  0  0  0  0
 41 43  1  0  0  0  0
 41 40  1  0  0  0  0
 42 41  2  0  0  0  0
 45 37  1  0  0  0  0
 46 38  1  0  0  0  0
M  END
$$$$
