MQR.pdb
 OpenBabel07022418553D

 59 58  0  0  1  0  0  0  0  0999 V2000
    3.4970   -5.9980    1.1630 C   0  0  0  0  0  0  0  0  0  0  0  0
    4.5470   -4.5480    1.1210 S   0  0  0  0  0  0  0  0  0  0  0  0
    4.0040   -3.2790   -0.0110 C   0  0  0  0  0  0  0  0  0  0  0  0
    2.6920   -2.6430    0.3930 C   0  0  0  0  0  0  0  0  0  0  0  0
    2.9310   -2.0330    1.7770 C   0  0  2  0  0  0  0  0  0  0  0  0
    3.3090   -3.1730    2.6260 N   0  0  0  0  0  0  0  0  0  0  0  0
    1.7370   -1.3580    2.3120 C   0  0  0  0  0  0  0  0  0  0  0  0
    1.2030   -1.8290    3.3640 O   0  0  0  0  0  0  0  0  0  0  0  0
    4.1290   -6.8860    0.9070 H   0  0  0  0  0  0  0  0  0  0  0  0
    2.6740   -5.9900    0.4380 H   0  0  0  0  0  0  0  0  0  0  0  0
    3.1450   -6.2120    2.2120 H   0  0  0  0  0  0  0  0  0  0  0  0
    3.9120   -3.7540   -1.0310 H   0  0  0  0  0  0  0  0  0  0  0  0
    4.7980   -2.5130   -0.0970 H   0  0  0  0  0  0  0  0  0  0  0  0
    2.4380   -1.8640   -0.3560 H   0  0  0  0  0  0  0  0  0  0  0  0
    1.8700   -3.3480    0.4470 H   0  0  0  0  0  0  0  0  0  0  0  0
    3.7560   -1.3190    1.7500 H   0  0  0  0  0  0  0  0  0  0  0  0
    4.0470   -2.8980    3.3260 H   0  0  0  0  0  0  0  0  0  0  0  0
    2.4500   -3.4040    3.1860 H   0  0  0  0  0  0  0  0  0  0  0  0
    3.4650    1.4500    4.7840 N   0  0  0  0  0  0  0  0  0  0  0  0
    2.5320    1.6610    3.7220 C   0  0  0  0  0  0  0  0  0  0  0  0
    2.9860    1.5930    2.5550 O   0  0  0  0  0  0  0  0  0  0  0  0
    1.1190    1.9460    3.9420 C   0  0  0  0  0  0  0  0  0  0  0  0
    0.1890    1.7760    2.8100 C   0  0  0  0  0  0  0  0  0  0  0  0
    0.0280    0.4120    2.2400 C   0  0  2  0  0  0  0  0  0  0  0  0
    1.1830   -0.2170    1.6920 N   0  0  0  0  0  0  0  0  0  0  0  0
   -1.0550    0.3870    1.1890 C   0  0  0  0  0  0  0  0  0  0  0  0
   -2.1840    0.8870    1.4370 O   0  0  0  0  0  0  0  0  0  0  0  0
    3.2030    1.0690    5.7120 H   0  0  0  0  0  0  0  0  0  0  0  0
    4.4570    1.6910    4.6130 H   0  0  0  0  0  0  0  0  0  0  0  0
    1.0580    2.9900    4.3790 H   0  0  0  0  0  0  0  0  0  0  0  0
    0.7580    1.2930    4.7790 H   0  0  0  0  0  0  0  0  0  0  0  0
   -0.8340    2.0940    3.1870 H   0  0  0  0  0  0  0  0  0  0  0  0
    0.3740    2.5330    1.9870 H   0  0  0  0  0  0  0  0  0  0  0  0
   -0.3610   -0.2830    3.0580 H   0  0  0  0  0  0  0  0  0  0  0  0
    1.6170    0.1420    0.8230 H   0  0  0  0  0  0  0  0  0  0  0  0
   -5.7330   -0.6530   -0.9960 N   0  0  0  0  0  0  0  0  0  0  0  0
   -5.2970   -0.0610   -2.2160 C   0  0  0  0  0  0  0  0  0  0  0  0
   -5.6660   -0.5830   -3.3520 N   0  0  0  0  0  0  0  0  0  0  0  0
   -4.4680    1.0860   -2.1750 N   0  0  0  0  0  0  0  0  0  0  0  0
   -3.5770    1.4260   -3.2240 C   0  0  0  0  0  0  0  0  0  0  0  0
   -2.3790    0.5750   -3.4570 C   0  0  0  0  0  0  0  0  0  0  0  0
   -1.4080    0.4620   -2.3460 C   0  0  0  0  0  0  0  0  0  0  0  0
   -1.8960   -0.2140   -1.1190 C   0  0  2  0  0  0  0  0  0  0  0  0
   -0.8360   -0.1850   -0.0710 N   0  0  0  0  0  0  0  0  0  0  0  0
   -2.1190   -1.6800   -1.3610 C   0  0  0  0  0  0  0  0  0  0  0  0
   -1.4780   -2.5400   -0.6750 O   0  0  0  0  0  0  0  0  0  0  0  0
   -2.9920   -2.1800   -2.2990 O   0  0  0  0  0  0  0  0  0  0  0  0
   -5.4540   -1.6460   -0.7620 H   0  0  0  0  0  0  0  0  0  0  0  0
   -6.3250   -0.1520   -0.3040 H   0  0  0  0  0  0  0  0  0  0  0  0
   -6.2650   -1.4140   -3.3350 H   0  0  0  0  0  0  0  0  0  0  0  0
   -4.5580    1.6950   -1.3060 H   0  0  0  0  0  0  0  0  0  0  0  0
   -4.1800    1.3630   -4.1920 H   0  0  0  0  0  0  0  0  0  0  0  0
   -3.2790    2.5220   -3.1610 H   0  0  0  0  0  0  0  0  0  0  0  0
   -2.7580   -0.4420   -3.7600 H   0  0  0  0  0  0  0  0  0  0  0  0
   -1.8950    0.9820   -4.3990 H   0  0  0  0  0  0  0  0  0  0  0  0
   -1.0240    1.5000   -2.1110 H   0  0  0  0  0  0  0  0  0  0  0  0
   -0.5280   -0.1350   -2.7530 H   0  0  0  0  0  0  0  0  0  0  0  0
   -2.7990    0.2510   -0.7330 H   0  0  0  0  0  0  0  0  0  0  0  0
    0.0840   -0.6070   -0.3040 H   0  0  0  0  0  0  0  0  0  0  0  0
  1 11  1  0  0  0  0
  2  1  1  0  0  0  0
  3  4  1  0  0  0  0
  3  2  1  0  0  0  0
  4 15  1  0  0  0  0
  4  5  1  0  0  0  0
  5 16  1  6  0  0  0
  5  7  1  0  0  0  0
  5  6  1  0  0  0  0
  6 18  1  0  0  0  0
  6 17  1  0  0  0  0
  7  8  2  0  0  0  0
  9  1  1  0  0  0  0
 10  1  1  0  0  0  0
 12  3  1  0  0  0  0
 13  3  1  0  0  0  0
 14  4  1  0  0  0  0
 19 28  1  0  0  0  0
 20 22  1  0  0  0  0
 20 19  1  0  0  0  0
 21 20  2  0  0  0  0
 22 30  1  0  0  0  0
 22 31  1  0  0  0  0
 23 32  1  0  0  0  0
 23 22  1  0  0  0  0
 24 23  1  0  0  0  0
 24 34  1  1  0  0  0
 25 24  1  0  0  0  0
 25  7  1  0  0  0  0
 26 27  2  0  0  0  0
 26 24  1  0  0  0  0
 29 19  1  0  0  0  0
 33 23  1  0  0  0  0
 35 25  1  0  0  0  0
 36 48  1  0  0  0  0
 36 49  1  0  0  0  0
 37 39  1  0  0  0  0
 37 36  1  0  0  0  0
 38 50  1  0  0  0  0
 38 37  2  0  0  0  0
 39 51  1  0  0  0  0
 40 53  1  0  0  0  0
 40 39  1  0  0  0  0
 41 40  1  0  0  0  0
 41 42  1  0  0  0  0
 42 56  1  0  0  0  0
 42 43  1  0  0  0  0
 43 58  1  1  0  0  0
 43 44  1  0  0  0  0
 44 26  1  0  0  0  0
 45 43  1  0  0  0  0
 45 46  1  0  0  0  0
 47 45  2  0  0  0  0
 52 40  1  0  0  0  0
 54 41  1  0  0  0  0
 55 41  1  0  0  0  0
 57 42  1  0  0  0  0
 59 44  1  0  0  0  0
M  END
$$$$
