MQS.pdb
 OpenBabel07022418553D

 47 46  0  0  1  0  0  0  0  0999 V2000
    1.3810   -5.1060   -1.1080 C   0  0  0  0  0  0  0  0  0  0  0  0
    2.8350   -5.0000   -0.0970 S   0  0  0  0  0  0  0  0  0  0  0  0
    2.6170   -4.8330    1.6480 C   0  0  0  0  0  0  0  0  0  0  0  0
    2.1540   -3.5260    2.1870 C   0  0  0  0  0  0  0  0  0  0  0  0
    0.8530   -2.9840    1.7220 C   0  0  2  0  0  0  0  0  0  0  0  0
    0.9000   -2.7480    0.2970 N   0  0  0  0  0  0  0  0  0  0  0  0
    0.5610   -1.6510    2.3380 C   0  0  0  0  0  0  0  0  0  0  0  0
    0.4710   -1.6380    3.5860 O   0  0  0  0  0  0  0  0  0  0  0  0
    0.4260   -5.2680   -0.5680 H   0  0  0  0  0  0  0  0  0  0  0  0
    1.3680   -4.3120   -1.8670 H   0  0  0  0  0  0  0  0  0  0  0  0
    1.4980   -6.0550   -1.7450 H   0  0  0  0  0  0  0  0  0  0  0  0
    3.6510   -4.9910    2.1170 H   0  0  0  0  0  0  0  0  0  0  0  0
    2.0370   -5.6960    2.0990 H   0  0  0  0  0  0  0  0  0  0  0  0
    2.1790   -3.5650    3.3220 H   0  0  0  0  0  0  0  0  0  0  0  0
    3.0040   -2.7940    1.9750 H   0  0  0  0  0  0  0  0  0  0  0  0
    0.0240   -3.7060    1.9640 H   0  0  0  0  0  0  0  0  0  0  0  0
    1.6370   -2.1020    0.0070 H   0  0  0  0  0  0  0  0  0  0  0  0
    0.0030   -2.4230   -0.0780 H   0  0  0  0  0  0  0  0  0  0  0  0
    2.8340    3.4060   -1.0840 N   0  0  0  0  0  0  0  0  0  0  0  0
    2.4450    3.0490    0.2300 C   0  0  0  0  0  0  0  0  0  0  0  0
    3.0410    3.6320    1.1700 O   0  0  0  0  0  0  0  0  0  0  0  0
    1.4060    2.0580    0.5330 C   0  0  0  0  0  0  0  0  0  0  0  0
    1.1890    1.8550    2.0100 C   0  0  0  0  0  0  0  0  0  0  0  0
    0.1060    0.8260    2.1970 C   0  0  2  0  0  0  0  0  0  0  0  0
    0.3850   -0.4500    1.6350 N   0  0  0  0  0  0  0  0  0  0  0  0
   -1.2220    1.3210    1.7560 C   0  0  0  0  0  0  0  0  0  0  0  0
   -1.7090    2.4200    2.1100 O   0  0  0  0  0  0  0  0  0  0  0  0
    3.1300    4.3290   -1.4080 H   0  0  0  0  0  0  0  0  0  0  0  0
    2.8160    2.6290   -1.8050 H   0  0  0  0  0  0  0  0  0  0  0  0
    1.5850    1.0770    0.0450 H   0  0  0  0  0  0  0  0  0  0  0  0
    0.4500    2.4400    0.0930 H   0  0  0  0  0  0  0  0  0  0  0  0
    0.8280    2.8530    2.3980 H   0  0  0  0  0  0  0  0  0  0  0  0
    2.1020    1.6380    2.5640 H   0  0  0  0  0  0  0  0  0  0  0  0
    0.0200    0.6850    3.3120 H   0  0  0  0  0  0  0  0  0  0  0  0
    0.4690   -0.5210    0.5820 H   0  0  0  0  0  0  0  0  0  0  0  0
   -2.3310    2.1370   -1.3460 O   0  0  0  0  0  0  0  0  0  0  0  0
   -3.3150    1.1780   -1.0690 C   0  0  0  0  0  0  0  0  0  0  0  0
   -3.3020    0.9800    0.4350 C   0  0  2  0  0  0  0  0  0  0  0  0
   -2.0030    0.5170    0.8800 N   0  0  0  0  0  0  0  0  0  0  0  0
   -4.3740    0.0310    0.8460 C   0  0  0  0  0  0  0  0  0  0  0  0
   -4.0710   -1.0010    1.4920 O   0  0  0  0  0  0  0  0  0  0  0  0
   -5.7060    0.2350    0.5460 O   0  0  0  0  0  0  0  0  0  0  0  0
   -2.6950    3.0450   -1.1840 H   0  0  0  0  0  0  0  0  0  0  0  0
   -3.1390    0.2280   -1.6120 H   0  0  0  0  0  0  0  0  0  0  0  0
   -4.2820    1.6330   -1.3310 H   0  0  0  0  0  0  0  0  0  0  0  0
   -3.5260    1.9700    0.8810 H   0  0  0  0  0  0  0  0  0  0  0  0
   -1.6630   -0.4240    0.5360 H   0  0  0  0  0  0  0  0  0  0  0  0
  1  9  1  0  0  0  0
  1  2  1  0  0  0  0
  2  3  1  0  0  0  0
  3 13  1  0  0  0  0
  3 12  1  0  0  0  0
  3  4  1  0  0  0  0
  4 14  1  0  0  0  0
  5 16  1  1  0  0  0
  5  4  1  0  0  0  0
  5  7  1  0  0  0  0
  6  5  1  0  0  0  0
  7  8  2  0  0  0  0
 10  1  1  0  0  0  0
 11  1  1  0  0  0  0
 15  4  1  0  0  0  0
 17  6  1  0  0  0  0
 18  6  1  0  0  0  0
 19 20  1  0  0  0  0
 20 22  1  0  0  0  0
 20 21  2  0  0  0  0
 22 23  1  0  0  0  0
 23 24  1  0  0  0  0
 23 32  1  0  0  0  0
 23 33  1  0  0  0  0
 24 34  1  1  0  0  0
 25 24  1  0  0  0  0
 25  7  1  0  0  0  0
 26 27  2  0  0  0  0
 26 24  1  0  0  0  0
 28 19  1  0  0  0  0
 29 19  1  0  0  0  0
 30 22  1  0  0  0  0
 31 22  1  0  0  0  0
 35 25  1  0  0  0  0
 36 43  1  0  0  0  0
 36 37  1  0  0  0  0
 37 38  1  0  0  0  0
 38 40  1  0  0  0  0
 38 39  1  0  0  0  0
 38 46  1  1  0  0  0
 39 26  1  0  0  0  0
 40 41  1  0  0  0  0
 42 40  2  0  0  0  0
 44 37  1  0  0  0  0
 45 37  1  0  0  0  0
 47 39  1  0  0  0  0
M  END
$$$$
