MQT.pdb
 OpenBabel07022418553D

 50 49  0  0  1  0  0  0  0  0999 V2000
    1.6260   -4.9370    4.3420 C   0  0  0  0  0  0  0  0  0  0  0  0
    0.9390   -3.2630    4.3380 S   0  0  0  0  0  0  0  0  0  0  0  0
    0.1350   -2.9510    2.7480 C   0  0  0  0  0  0  0  0  0  0  0  0
    1.1590   -2.9290    1.6260 C   0  0  0  0  0  0  0  0  0  0  0  0
    2.1900   -1.8250    1.8760 C   0  0  2  0  0  0  0  0  0  0  0  0
    2.8200   -2.1250    3.1240 N   0  0  0  0  0  0  0  0  0  0  0  0
    1.4770   -0.5180    1.8930 C   0  0  0  0  0  0  0  0  0  0  0  0
    1.4330    0.2250    2.9120 O   0  0  0  0  0  0  0  0  0  0  0  0
    0.9430   -5.5850    3.7760 H   0  0  0  0  0  0  0  0  0  0  0  0
    2.6360   -4.9380    3.9120 H   0  0  0  0  0  0  0  0  0  0  0  0
    1.6160   -5.2890    5.3910 H   0  0  0  0  0  0  0  0  0  0  0  0
   -0.6290   -3.7150    2.5020 H   0  0  0  0  0  0  0  0  0  0  0  0
   -0.4020   -1.9880    2.8390 H   0  0  0  0  0  0  0  0  0  0  0  0
    0.6440   -2.7840    0.6660 H   0  0  0  0  0  0  0  0  0  0  0  0
    1.6520   -3.9160    1.6060 H   0  0  0  0  0  0  0  0  0  0  0  0
    2.9110   -1.8300    1.0600 H   0  0  0  0  0  0  0  0  0  0  0  0
    2.9020   -1.2900    3.7250 H   0  0  0  0  0  0  0  0  0  0  0  0
    3.7410   -2.5740    2.9230 H   0  0  0  0  0  0  0  0  0  0  0  0
    4.3320    3.3540   -0.7630 N   0  0  0  0  0  0  0  0  0  0  0  0
    2.9550    3.0850   -0.9900 C   0  0  0  0  0  0  0  0  0  0  0  0
    2.4310    3.5600   -2.0290 O   0  0  0  0  0  0  0  0  0  0  0  0
    2.2420    2.2720   -0.0020 C   0  0  0  0  0  0  0  0  0  0  0  0
    0.7880    2.0520   -0.3710 C   0  0  0  0  0  0  0  0  0  0  0  0
    0.0960    1.2070    0.6840 C   0  0  2  0  0  0  0  0  0  0  0  0
    0.8070   -0.0550    0.7290 N   0  0  0  0  0  0  0  0  0  0  0  0
   -1.3190    1.0380    0.3000 C   0  0  0  0  0  0  0  0  0  0  0  0
   -2.0370    2.0670    0.2330 O   0  0  0  0  0  0  0  0  0  0  0  0
    5.0410    3.0010   -1.4470 H   0  0  0  0  0  0  0  0  0  0  0  0
    4.7010    3.8890    0.0530 H   0  0  0  0  0  0  0  0  0  0  0  0
    2.7230    1.2530   -0.0070 H   0  0  0  0  0  0  0  0  0  0  0  0
    2.2670    2.7450    0.9790 H   0  0  0  0  0  0  0  0  0  0  0  0
    0.2860    3.0570   -0.3990 H   0  0  0  0  0  0  0  0  0  0  0  0
    0.6630    1.6060   -1.3580 H   0  0  0  0  0  0  0  0  0  0  0  0
    0.1670    1.6940    1.6770 H   0  0  0  0  0  0  0  0  0  0  0  0
    0.8350   -0.6510   -0.1140 H   0  0  0  0  0  0  0  0  0  0  0  0
   -2.8050   -0.0010   -2.7250 C   0  0  0  0  0  0  0  0  0  0  0  0
   -3.4190   -0.9810   -1.7670 C   0  0  1  0  0  0  0  0  0  0  0  0
   -2.8110   -2.2030   -1.9180 O   0  0  0  0  0  0  0  0  0  0  0  0
   -3.2830   -0.4090   -0.3720 C   0  0  2  0  0  0  0  0  0  0  0  0
   -1.9080   -0.2160    0.0040 N   0  0  0  0  0  0  0  0  0  0  0  0
   -4.0100   -1.2910    0.5620 C   0  0  0  0  0  0  0  0  0  0  0  0
   -3.4270   -1.7890    1.5680 O   0  0  0  0  0  0  0  0  0  0  0  0
   -5.3400   -1.6150    0.3930 O   0  0  0  0  0  0  0  0  0  0  0  0
   -1.7020   -0.0140   -2.6590 H   0  0  0  0  0  0  0  0  0  0  0  0
   -3.1100   -0.2450   -3.7710 H   0  0  0  0  0  0  0  0  0  0  0  0
   -3.1890    1.0220   -2.4490 H   0  0  0  0  0  0  0  0  0  0  0  0
   -4.5030   -1.0390   -1.9900 H   0  0  0  0  0  0  0  0  0  0  0  0
   -2.1830   -2.4330   -1.1890 H   0  0  0  0  0  0  0  0  0  0  0  0
   -3.7760    0.5910   -0.3770 H   0  0  0  0  0  0  0  0  0  0  0  0
   -1.2910   -1.0760    0.0650 H   0  0  0  0  0  0  0  0  0  0  0  0
  1 11  1  0  0  0  0
  2  1  1  0  0  0  0
  3 13  1  0  0  0  0
  3  2  1  0  0  0  0
  4  5  1  0  0  0  0
  4  3  1  0  0  0  0
  5 16  1  6  0  0  0
  5  7  1  0  0  0  0
  5  6  1  0  0  0  0
  6 17  1  0  0  0  0
  7  8  2  0  0  0  0
  9  1  1  0  0  0  0
 10  1  1  0  0  0  0
 12  3  1  0  0  0  0
 14  4  1  0  0  0  0
 15  4  1  0  0  0  0
 18  6  1  0  0  0  0
 19 29  1  0  0  0  0
 20 19  1  0  0  0  0
 20 22  1  0  0  0  0
 21 20  2  0  0  0  0
 22 31  1  0  0  0  0
 23 22  1  0  0  0  0
 23 24  1  0  0  0  0
 24 25  1  0  0  0  0
 24 34  1  1  0  0  0
 25  7  1  0  0  0  0
 26 24  1  0  0  0  0
 27 26  2  0  0  0  0
 28 19  1  0  0  0  0
 30 22  1  0  0  0  0
 32 23  1  0  0  0  0
 33 23  1  0  0  0  0
 35 25  1  0  0  0  0
 36 44  1  0  0  0  0
 36 46  1  0  0  0  0
 36 37  1  0  0  0  0
 37 47  1  6  0  0  0
 37 39  1  0  0  0  0
 38 37  1  0  0  0  0
 38 48  1  0  0  0  0
 39 49  1  1  0  0  0
 39 40  1  0  0  0  0
 39 41  1  0  0  0  0
 40 50  1  0  0  0  0
 40 26  1  0  0  0  0
 41 42  1  0  0  0  0
 43 41  2  0  0  0  0
 45 36  1  0  0  0  0
M  END
$$$$
