MQW.pdb
 OpenBabel07022418553D

 60 61  0  0  1  0  0  0  0  0999 V2000
    3.0890   -1.7060    3.4540 C   0  0  0  0  0  0  0  0  0  0  0  0
    3.7840   -1.8500    1.8260 S   0  0  0  0  0  0  0  0  0  0  0  0
    4.9780   -0.6440    1.3400 C   0  0  0  0  0  0  0  0  0  0  0  0
    4.5320    0.7360    1.0760 C   0  0  0  0  0  0  0  0  0  0  0  0
    3.8860    1.5410    2.1150 C   0  0  2  0  0  0  0  0  0  0  0  0
    4.6820    1.7170    3.3110 N   0  0  0  0  0  0  0  0  0  0  0  0
    2.4940    1.2810    2.4790 C   0  0  0  0  0  0  0  0  0  0  0  0
    2.1280    1.2920    3.7090 O   0  0  0  0  0  0  0  0  0  0  0  0
    3.1460   -2.6530    4.0460 H   0  0  0  0  0  0  0  0  0  0  0  0
    2.0340   -1.4150    3.3860 H   0  0  0  0  0  0  0  0  0  0  0  0
    3.6140   -0.9540    4.1020 H   0  0  0  0  0  0  0  0  0  0  0  0
    5.9090   -0.6640    2.0030 H   0  0  0  0  0  0  0  0  0  0  0  0
    5.4290   -1.0090    0.3500 H   0  0  0  0  0  0  0  0  0  0  0  0
    5.4740    1.3090    0.7630 H   0  0  0  0  0  0  0  0  0  0  0  0
    3.9540    0.7100    0.1090 H   0  0  0  0  0  0  0  0  0  0  0  0
    3.9150    2.6480    1.6790 H   0  0  0  0  0  0  0  0  0  0  0  0
    4.3110    2.5580    3.8050 H   0  0  0  0  0  0  0  0  0  0  0  0
    5.6870    1.8930    3.1180 H   0  0  0  0  0  0  0  0  0  0  0  0
   -4.2030    3.4840    2.1970 N   0  0  0  0  0  0  0  0  0  0  0  0
   -2.8480    3.2830    1.9280 C   0  0  0  0  0  0  0  0  0  0  0  0
   -2.1640    4.2110    1.4580 O   0  0  0  0  0  0  0  0  0  0  0  0
   -2.1720    1.9470    2.1960 C   0  0  0  0  0  0  0  0  0  0  0  0
   -0.7590    2.0270    1.7890 C   0  0  0  0  0  0  0  0  0  0  0  0
    0.0680    0.7610    2.0140 C   0  0  2  0  0  0  0  0  0  0  0  0
    1.4300    1.0040    1.5740 N   0  0  0  0  0  0  0  0  0  0  0  0
   -0.5040   -0.3480    1.2410 C   0  0  0  0  0  0  0  0  0  0  0  0
   -1.6780   -0.7810    1.5340 O   0  0  0  0  0  0  0  0  0  0  0  0
   -4.5520    4.3790    2.5900 H   0  0  0  0  0  0  0  0  0  0  0  0
   -4.8980    2.7360    2.0070 H   0  0  0  0  0  0  0  0  0  0  0  0
   -2.2250    1.8600    3.3220 H   0  0  0  0  0  0  0  0  0  0  0  0
   -2.7790    1.1390    1.7990 H   0  0  0  0  0  0  0  0  0  0  0  0
   -0.2390    2.9040    2.2240 H   0  0  0  0  0  0  0  0  0  0  0  0
   -0.7060    2.1930    0.6740 H   0  0  0  0  0  0  0  0  0  0  0  0
    0.0040    0.5930    3.1070 H   0  0  0  0  0  0  0  0  0  0  0  0
    1.6470    0.9870    0.5660 H   0  0  0  0  0  0  0  0  0  0  0  0
    0.0980   -1.0320    0.1590 N   0  0  0  0  0  0  0  0  0  0  0  0
   -0.5760   -2.1180   -0.5560 C   0  0  1  0  0  0  0  0  0  0  0  0
   -0.8590   -1.7210   -1.9860 C   0  0  0  0  0  0  0  0  0  0  0  0
   -1.5480   -2.8720   -2.6430 C   0  0  0  0  0  0  0  0  0  0  0  0
   -0.9840   -3.7560   -3.5460 C   0  0  0  0  0  0  0  0  0  0  0  0
   -1.9380   -4.6300   -3.8970 N   0  0  0  0  0  0  0  0  0  0  0  0
   -3.0830   -4.3540   -3.2680 C   0  0  0  0  0  0  0  0  0  0  0  0
   -4.3410   -4.9700   -3.3060 C   0  0  0  0  0  0  0  0  0  0  0  0
   -5.3770   -4.4770   -2.5450 C   0  0  0  0  0  0  0  0  0  0  0  0
   -5.1100   -3.3700   -1.7630 C   0  0  0  0  0  0  0  0  0  0  0  0
   -3.8880   -2.7500   -1.7090 C   0  0  0  0  0  0  0  0  0  0  0  0
   -2.8500   -3.2520   -2.4780 C   0  0  0  0  0  0  0  0  0  0  0  0
    0.1490   -3.4050   -0.4550 C   0  0  0  0  0  0  0  0  0  0  0  0
   -0.2670   -4.4620   -0.9910 O   0  0  0  0  0  0  0  0  0  0  0  0
    1.3330   -3.4240    0.2640 O   0  0  0  0  0  0  0  0  0  0  0  0
    1.0520   -0.7620   -0.1430 H   0  0  0  0  0  0  0  0  0  0  0  0
   -1.5590   -2.2650   -0.0670 H   0  0  0  0  0  0  0  0  0  0  0  0
    0.0580   -1.4820   -2.5260 H   0  0  0  0  0  0  0  0  0  0  0  0
   -1.5960   -0.8670   -1.9490 H   0  0  0  0  0  0  0  0  0  0  0  0
    0.0480   -3.6880   -3.8610 H   0  0  0  0  0  0  0  0  0  0  0  0
   -1.8100   -5.4140   -4.5660 H   0  0  0  0  0  0  0  0  0  0  0  0
   -4.5170   -5.8390   -3.9340 H   0  0  0  0  0  0  0  0  0  0  0  0
   -6.3630   -4.9390   -2.5580 H   0  0  0  0  0  0  0  0  0  0  0  0
   -5.9350   -2.9790   -1.1590 H   0  0  0  0  0  0  0  0  0  0  0  0
   -3.6880   -1.8840   -1.0960 H   0  0  0  0  0  0  0  0  0  0  0  0
  1  9  1  0  0  0  0
  1 11  1  0  0  0  0
  2  1  1  0  0  0  0
  3  2  1  0  0  0  0
  3 12  1  0  0  0  0
  4  3  1  0  0  0  0
  4  5  1  0  0  0  0
  5 16  1  6  0  0  0
  5  7  1  0  0  0  0
  5  6  1  0  0  0  0
  6 17  1  0  0  0  0
  7  8  2  0  0  0  0
 10  1  1  0  0  0  0
 13  3  1  0  0  0  0
 14  4  1  0  0  0  0
 15  4  1  0  0  0  0
 18  6  1  0  0  0  0
 19 28  1  0  0  0  0
 20 22  1  0  0  0  0
 20 19  1  0  0  0  0
 21 20  2  0  0  0  0
 22 30  1  0  0  0  0
 23 24  1  0  0  0  0
 23 22  1  0  0  0  0
 23 32  1  0  0  0  0
 24 34  1  1  0  0  0
 25 24  1  0  0  0  0
 25  7  1  0  0  0  0
 26 27  2  0  0  0  0
 26 24  1  0  0  0  0
 29 19  1  0  0  0  0
 31 22  1  0  0  0  0
 33 23  1  0  0  0  0
 35 25  1  0  0  0  0
 36 26  1  0  0  0  0
 37 48  1  0  0  0  0
 37 52  1  1  0  0  0
 37 36  1  0  0  0  0
 38 54  1  0  0  0  0
 38 37  1  0  0  0  0
 39 47  1  0  0  0  0
 39 38  1  0  0  0  0
 40 39  2  0  0  0  0
 41 40  1  0  0  0  0
 41 42  1  0  0  0  0
 42 47  1  0  0  0  0
 43 42  2  0  0  0  0
 43 44  1  0  0  0  0
 44 45  2  0  0  0  0
 45 46  1  0  0  0  0
 45 59  1  0  0  0  0
 46 60  1  0  0  0  0
 47 46  2  0  0  0  0
 48 50  1  0  0  0  0
 49 48  2  0  0  0  0
 51 36  1  0  0  0  0
 53 38  1  0  0  0  0
 55 40  1  0  0  0  0
 56 41  1  0  0  0  0
 57 43  1  0  0  0  0
 58 44  1  0  0  0  0
M  END
$$$$
