MRA.pdb
 OpenBabel07022418533D

 52 51  0  0  1  0  0  0  0  0999 V2000
    0.8770   -5.2270    3.9910 C   0  0  0  0  0  0  0  0  0  0  0  0
    2.1390   -3.9710    4.2390 S   0  0  0  0  0  0  0  0  0  0  0  0
    1.5100   -2.3240    4.3070 C   0  0  0  0  0  0  0  0  0  0  0  0
    1.0800   -1.6480    3.0560 C   0  0  0  0  0  0  0  0  0  0  0  0
    0.0270   -2.2700    2.2320 C   0  0  2  0  0  0  0  0  0  0  0  0
    0.4550   -3.5510    1.7430 N   0  0  0  0  0  0  0  0  0  0  0  0
   -0.4040   -1.3850    1.0940 C   0  0  0  0  0  0  0  0  0  0  0  0
   -0.3220   -1.8460   -0.0470 O   0  0  0  0  0  0  0  0  0  0  0  0
   -0.1650   -4.8390    4.0110 H   0  0  0  0  0  0  0  0  0  0  0  0
    1.1080   -5.7940    3.0760 H   0  0  0  0  0  0  0  0  0  0  0  0
    0.9870   -5.9510    4.8840 H   0  0  0  0  0  0  0  0  0  0  0  0
    0.6550   -2.2290    5.0660 H   0  0  0  0  0  0  0  0  0  0  0  0
    2.3210   -1.6720    4.7690 H   0  0  0  0  0  0  0  0  0  0  0  0
    0.8270   -0.5860    3.3530 H   0  0  0  0  0  0  0  0  0  0  0  0
    2.0270   -1.4720    2.4310 H   0  0  0  0  0  0  0  0  0  0  0  0
   -0.8810   -2.3870    2.9060 H   0  0  0  0  0  0  0  0  0  0  0  0
   -0.0560   -3.8910    0.9220 H   0  0  0  0  0  0  0  0  0  0  0  0
    1.5080   -3.5960    1.6340 H   0  0  0  0  0  0  0  0  0  0  0  0
    4.7750    3.0650   -1.2840 N   0  0  0  0  0  0  0  0  0  0  0  0
    3.6800    2.9020   -0.3840 C   0  0  0  0  0  0  0  0  0  0  0  0
    3.1790    3.8670    0.2850 N   0  0  0  0  0  0  0  0  0  0  0  0
    3.1060    1.6060   -0.2090 N   0  0  0  0  0  0  0  0  0  0  0  0
    1.7880    1.5220    0.4370 C   0  0  0  0  0  0  0  0  0  0  0  0
    0.7250    2.1060   -0.4470 C   0  0  0  0  0  0  0  0  0  0  0  0
   -0.6420    2.0930    0.0860 C   0  0  0  0  0  0  0  0  0  0  0  0
   -1.3550    0.8680    0.3980 C   0  0  2  0  0  0  0  0  0  0  0  0
   -0.8890   -0.0640    1.3470 N   0  0  0  0  0  0  0  0  0  0  0  0
   -2.1030    0.2580   -0.7760 C   0  0  0  0  0  0  0  0  0  0  0  0
   -2.1410    0.9210   -1.8650 O   0  0  0  0  0  0  0  0  0  0  0  0
    4.9370    3.9670   -1.8000 H   0  0  0  0  0  0  0  0  0  0  0  0
    5.4340    2.2720   -1.4370 H   0  0  0  0  0  0  0  0  0  0  0  0
    3.4920    4.8560    0.2600 H   0  0  0  0  0  0  0  0  0  0  0  0
    3.5740    0.7300   -0.5150 H   0  0  0  0  0  0  0  0  0  0  0  0
    1.5710    0.5160    0.7730 H   0  0  0  0  0  0  0  0  0  0  0  0
    1.9230    2.1380    1.3770 H   0  0  0  0  0  0  0  0  0  0  0  0
    1.0150    3.2010   -0.5580 H   0  0  0  0  0  0  0  0  0  0  0  0
    0.8090    1.7370   -1.4980 H   0  0  0  0  0  0  0  0  0  0  0  0
   -1.2960    2.6910   -0.6290 H   0  0  0  0  0  0  0  0  0  0  0  0
   -0.6650    2.7530    1.0090 H   0  0  0  0  0  0  0  0  0  0  0  0
   -2.3440    1.3010    0.9400 H   0  0  0  0  0  0  0  0  0  0  0  0
   -0.8740    0.1930    2.3850 H   0  0  0  0  0  0  0  0  0  0  0  0
   -2.7970   -2.8360   -2.3370 C   0  0  0  0  0  0  0  0  0  0  0  0
   -3.4560   -1.5590   -1.8700 C   0  0  2  0  0  0  0  0  0  0  0  0
   -2.7480   -0.9640   -0.7310 N   0  0  0  0  0  0  0  0  0  0  0  0
   -4.8550   -1.8390   -1.5430 C   0  0  0  0  0  0  0  0  0  0  0  0
   -5.2610   -1.5320   -0.3690 O   0  0  0  0  0  0  0  0  0  0  0  0
   -5.7640   -2.4070   -2.4040 O   0  0  0  0  0  0  0  0  0  0  0  0
   -2.4640   -3.4930   -1.5280 H   0  0  0  0  0  0  0  0  0  0  0  0
   -3.5890   -3.3970   -2.9050 H   0  0  0  0  0  0  0  0  0  0  0  0
   -1.9910   -2.6460   -3.0970 H   0  0  0  0  0  0  0  0  0  0  0  0
   -3.4370   -0.8730   -2.7500 H   0  0  0  0  0  0  0  0  0  0  0  0
   -2.7980   -1.5120    0.1520 H   0  0  0  0  0  0  0  0  0  0  0  0
  1  9  1  0  0  0  0
  1  2  1  0  0  0  0
  1 11  1  0  0  0  0
  2  3  1  0  0  0  0
  3 13  1  0  0  0  0
  3 12  1  0  0  0  0
  4 14  1  0  0  0  0
  4  3  1  0  0  0  0
  5 16  1  1  0  0  0
  5  4  1  0  0  0  0
  6  5  1  0  0  0  0
  7 27  1  0  0  0  0
  7  5  1  0  0  0  0
  8  7  2  0  0  0  0
 10  1  1  0  0  0  0
 15  4  1  0  0  0  0
 17  6  1  0  0  0  0
 18  6  1  0  0  0  0
 19 20  1  0  0  0  0
 20 22  1  0  0  0  0
 20 21  2  0  0  0  0
 22 23  1  0  0  0  0
 23 34  1  0  0  0  0
 23 35  1  0  0  0  0
 24 25  1  0  0  0  0
 24 23  1  0  0  0  0
 25 26  1  0  0  0  0
 25 39  1  0  0  0  0
 26 40  1  1  0  0  0
 26 27  1  0  0  0  0
 27 41  1  0  0  0  0
 28 44  1  0  0  0  0
 28 26  1  0  0  0  0
 29 28  2  0  0  0  0
 30 19  1  0  0  0  0
 31 19  1  0  0  0  0
 32 21  1  0  0  0  0
 33 22  1  0  0  0  0
 36 24  1  0  0  0  0
 37 24  1  0  0  0  0
 38 25  1  0  0  0  0
 42 43  1  0  0  0  0
 42 48  1  0  0  0  0
 43 51  1  6  0  0  0
 43 45  1  0  0  0  0
 43 44  1  0  0  0  0
 44 52  1  0  0  0  0
 45 46  1  0  0  0  0
 47 45  2  0  0  0  0
 49 42  1  0  0  0  0
 50 42  1  0  0  0  0
M  END
$$$$
