MRD.pdb
 OpenBabel07022418533D

 55 54  0  0  1  0  0  0  0  0999 V2000
   -1.2450   -2.2520    5.2410 C   0  0  0  0  0  0  0  0  0  0  0  0
    0.2170   -3.1400    4.7230 S   0  0  0  0  0  0  0  0  0  0  0  0
    0.8560   -2.7540    3.1210 C   0  0  0  0  0  0  0  0  0  0  0  0
    1.5700   -1.4880    2.9140 C   0  0  0  0  0  0  0  0  0  0  0  0
    0.9170   -0.1910    3.1580 C   0  0  2  0  0  0  0  0  0  0  0  0
    0.5110   -0.0330    4.5200 N   0  0  0  0  0  0  0  0  0  0  0  0
   -0.2130    0.0910    2.2350 C   0  0  0  0  0  0  0  0  0  0  0  0
   -1.3130    0.4520    2.7130 O   0  0  0  0  0  0  0  0  0  0  0  0
   -1.0070   -1.5990    6.1050 H   0  0  0  0  0  0  0  0  0  0  0  0
   -2.0470   -2.9780    5.5990 H   0  0  0  0  0  0  0  0  0  0  0  0
   -1.6670   -1.6290    4.4410 H   0  0  0  0  0  0  0  0  0  0  0  0
    1.5960   -3.5950    2.8610 H   0  0  0  0  0  0  0  0  0  0  0  0
    0.0730   -2.9310    2.2980 H   0  0  0  0  0  0  0  0  0  0  0  0
    2.5430   -1.5630    3.4920 H   0  0  0  0  0  0  0  0  0  0  0  0
    1.9590   -1.4760    1.8360 H   0  0  0  0  0  0  0  0  0  0  0  0
    1.6610    0.6590    2.9790 H   0  0  0  0  0  0  0  0  0  0  0  0
    0.2970    0.9480    4.7750 H   0  0  0  0  0  0  0  0  0  0  0  0
    1.1400   -0.5010    5.1960 H   0  0  0  0  0  0  0  0  0  0  0  0
    3.1790    2.8740   -1.9970 N   0  0  0  0  0  0  0  0  0  0  0  0
    2.1450    3.5400   -1.2950 C   0  0  0  0  0  0  0  0  0  0  0  0
    2.3180    4.0700   -0.1270 N   0  0  0  0  0  0  0  0  0  0  0  0
    0.8540    3.6150   -1.9360 N   0  0  0  0  0  0  0  0  0  0  0  0
   -0.3080    3.8360   -1.1050 C   0  0  0  0  0  0  0  0  0  0  0  0
   -0.6210    2.6670   -0.2120 C   0  0  0  0  0  0  0  0  0  0  0  0
   -0.9030    1.4070   -1.0050 C   0  0  0  0  0  0  0  0  0  0  0  0
   -1.2150    0.2480   -0.0680 C   0  0  2  0  0  0  0  0  0  0  0  0
   -0.1080   -0.0290    0.8250 N   0  0  0  0  0  0  0  0  0  0  0  0
   -1.6570   -0.9530   -0.8030 C   0  0  0  0  0  0  0  0  0  0  0  0
   -2.6080   -0.8180   -1.6120 O   0  0  0  0  0  0  0  0  0  0  0  0
    3.8680    2.3230   -1.4540 H   0  0  0  0  0  0  0  0  0  0  0  0
    3.2800    2.9100   -3.0290 H   0  0  0  0  0  0  0  0  0  0  0  0
    3.2680    3.9910    0.2950 H   0  0  0  0  0  0  0  0  0  0  0  0
    0.8100    3.5060   -2.9750 H   0  0  0  0  0  0  0  0  0  0  0  0
   -0.1380    4.7140   -0.4310 H   0  0  0  0  0  0  0  0  0  0  0  0
   -1.1600    4.0790   -1.7700 H   0  0  0  0  0  0  0  0  0  0  0  0
    0.1520    2.5310    0.5410 H   0  0  0  0  0  0  0  0  0  0  0  0
   -1.5750    2.9190    0.3130 H   0  0  0  0  0  0  0  0  0  0  0  0
   -1.7720    1.5350   -1.6790 H   0  0  0  0  0  0  0  0  0  0  0  0
   -0.0330    1.1490   -1.6410 H   0  0  0  0  0  0  0  0  0  0  0  0
   -2.0930    0.5510    0.5780 H   0  0  0  0  0  0  0  0  0  0  0  0
    0.8030   -0.3290    0.4280 H   0  0  0  0  0  0  0  0  0  0  0  0
   -1.0840   -2.2450   -0.6590 N   0  0  0  0  0  0  0  0  0  0  0  0
   -1.6170   -3.3720   -1.4520 C   0  0  1  0  0  0  0  0  0  0  0  0
   -0.4640   -3.9080   -2.2340 C   0  0  0  0  0  0  0  0  0  0  0  0
   -0.7720   -5.0390   -3.1190 C   0  0  0  0  0  0  0  0  0  0  0  0
   -1.8890   -5.5320   -3.2840 O   0  0  0  0  0  0  0  0  0  0  0  0
   -2.1000   -4.3560   -0.4720 C   0  0  0  0  0  0  0  0  0  0  0  0
   -1.9910   -4.1450    0.7690 O   0  0  0  0  0  0  0  0  0  0  0  0
    0.2860   -5.5990   -3.8290 O   0  0  0  0  0  0  0  0  0  0  0  0
   -2.6930   -5.5530   -0.8340 O   0  0  0  0  0  0  0  0  0  0  0  0
   -0.3060   -2.3660   -0.0020 H   0  0  0  0  0  0  0  0  0  0  0  0
   -2.4320   -3.0200   -2.0940 H   0  0  0  0  0  0  0  0  0  0  0  0
   -0.0840   -3.0810   -2.9010 H   0  0  0  0  0  0  0  0  0  0  0  0
    0.3440   -4.2260   -1.5330 H   0  0  0  0  0  0  0  0  0  0  0  0
    0.2950   -6.5820   -4.0990 H   0  0  0  0  0  0  0  0  0  0  0  0
  1 10  1  0  0  0  0
  1  9  1  0  0  0  0
  2  1  1  0  0  0  0
  3  2  1  0  0  0  0
  4  3  1  0  0  0  0
  4  5  1  0  0  0  0
  4 14  1  0  0  0  0
  5 16  1  6  0  0  0
  5  6  1  0  0  0  0
  6 17  1  0  0  0  0
  6 18  1  0  0  0  0
  7  8  2  0  0  0  0
  7  5  1  0  0  0  0
 11  1  1  0  0  0  0
 12  3  1  0  0  0  0
 13  3  1  0  0  0  0
 15  4  1  0  0  0  0
 19 30  1  0  0  0  0
 19 20  1  0  0  0  0
 20 21  2  0  0  0  0
 21 32  1  0  0  0  0
 22 20  1  0  0  0  0
 22 23  1  0  0  0  0
 23 34  1  0  0  0  0
 23 24  1  0  0  0  0
 24 37  1  0  0  0  0
 24 36  1  0  0  0  0
 25 24  1  0  0  0  0
 25 26  1  0  0  0  0
 26 40  1  1  0  0  0
 26 27  1  0  0  0  0
 27  7  1  0  0  0  0
 28 42  1  0  0  0  0
 28 26  1  0  0  0  0
 29 28  2  0  0  0  0
 31 19  1  0  0  0  0
 33 22  1  0  0  0  0
 35 23  1  0  0  0  0
 38 25  1  0  0  0  0
 39 25  1  0  0  0  0
 41 27  1  0  0  0  0
 42 51  1  0  0  0  0
 43 52  1  6  0  0  0
 43 42  1  0  0  0  0
 43 47  1  0  0  0  0
 44 54  1  0  0  0  0
 44 43  1  0  0  0  0
 45 44  1  0  0  0  0
 46 45  2  0  0  0  0
 47 48  1  0  0  0  0
 49 45  1  0  0  0  0
 50 47  2  0  0  0  0
 53 44  1  0  0  0  0
 55 49  1  0  0  0  0
M  END
$$$$
