MRE.pdb
 OpenBabel07022418533D

 58 57  0  0  1  0  0  0  0  0999 V2000
   -4.0560    3.4980    0.5990 C   0  0  0  0  0  0  0  0  0  0  0  0
   -3.2410    1.9420    1.1040 S   0  0  0  0  0  0  0  0  0  0  0  0
   -2.9480    2.0170    2.8770 C   0  0  0  0  0  0  0  0  0  0  0  0
   -2.2810    0.8300    3.4670 C   0  0  0  0  0  0  0  0  0  0  0  0
   -0.9100    0.5080    2.9800 C   0  0  2  0  0  0  0  0  0  0  0  0
   -0.0130    1.6040    3.2030 N   0  0  0  0  0  0  0  0  0  0  0  0
   -0.9130   -0.0460    1.6240 C   0  0  0  0  0  0  0  0  0  0  0  0
   -1.7730   -0.8870    1.2870 O   0  0  0  0  0  0  0  0  0  0  0  0
   -3.3230    4.2530    0.2790 H   0  0  0  0  0  0  0  0  0  0  0  0
   -4.6360    3.8420    1.4970 H   0  0  0  0  0  0  0  0  0  0  0  0
   -4.7980    3.3580   -0.1900 H   0  0  0  0  0  0  0  0  0  0  0  0
   -2.3220    2.9210    3.1490 H   0  0  0  0  0  0  0  0  0  0  0  0
   -3.9680    2.1150    3.3600 H   0  0  0  0  0  0  0  0  0  0  0  0
   -2.3030    0.8560    4.5950 H   0  0  0  0  0  0  0  0  0  0  0  0
   -2.9010   -0.1030    3.2330 H   0  0  0  0  0  0  0  0  0  0  0  0
   -0.5310   -0.3030    3.7140 H   0  0  0  0  0  0  0  0  0  0  0  0
   -0.3440    2.2130    3.9850 H   0  0  0  0  0  0  0  0  0  0  0  0
    0.9400    1.2780    3.4680 H   0  0  0  0  0  0  0  0  0  0  0  0
   -4.7820    3.5620   -3.3850 N   0  0  0  0  0  0  0  0  0  0  0  0
   -3.5830    2.7510   -3.3970 C   0  0  0  0  0  0  0  0  0  0  0  0
   -2.7460    2.9240   -4.3330 N   0  0  0  0  0  0  0  0  0  0  0  0
   -3.3650    1.7970   -2.3770 N   0  0  0  0  0  0  0  0  0  0  0  0
   -2.1570    1.0690   -2.2080 C   0  0  0  0  0  0  0  0  0  0  0  0
   -0.9510    1.8410   -1.7770 C   0  0  0  0  0  0  0  0  0  0  0  0
    0.2130    0.9180   -1.6900 C   0  0  0  0  0  0  0  0  0  0  0  0
    0.1400   -0.1900   -0.6910 C   0  0  2  0  0  0  0  0  0  0  0  0
    0.0540    0.3270    0.6370 N   0  0  0  0  0  0  0  0  0  0  0  0
    1.4230   -0.9970   -0.8750 C   0  0  0  0  0  0  0  0  0  0  0  0
    2.2410   -1.1590    0.0510 O   0  0  0  0  0  0  0  0  0  0  0  0
   -5.1460    3.9260   -4.2800 H   0  0  0  0  0  0  0  0  0  0  0  0
   -5.2450    3.7560   -2.4920 H   0  0  0  0  0  0  0  0  0  0  0  0
   -1.8560    2.4850   -4.5410 H   0  0  0  0  0  0  0  0  0  0  0  0
   -4.1710    1.6370   -1.7220 H   0  0  0  0  0  0  0  0  0  0  0  0
   -2.2810    0.2270   -1.4610 H   0  0  0  0  0  0  0  0  0  0  0  0
   -1.8720    0.5410   -3.1590 H   0  0  0  0  0  0  0  0  0  0  0  0
   -1.0910    2.4350   -0.8440 H   0  0  0  0  0  0  0  0  0  0  0  0
   -0.6950    2.6000   -2.5530 H   0  0  0  0  0  0  0  0  0  0  0  0
    1.1180    1.5660   -1.5350 H   0  0  0  0  0  0  0  0  0  0  0  0
    0.3740    0.5210   -2.7380 H   0  0  0  0  0  0  0  0  0  0  0  0
   -0.7150   -0.8480   -0.9620 H   0  0  0  0  0  0  0  0  0  0  0  0
    0.7470    1.0620    0.9750 H   0  0  0  0  0  0  0  0  0  0  0  0
    1.6810   -1.5690   -2.1320 N   0  0  0  0  0  0  0  0  0  0  0  0
    2.8470   -2.3590   -2.4730 C   0  0  1  0  0  0  0  0  0  0  0  0
    2.3600   -3.7480   -2.7870 C   0  0  0  0  0  0  0  0  0  0  0  0
    1.6510   -4.4390   -1.6700 C   0  0  0  0  0  0  0  0  0  0  0  0
    2.4870   -4.6530   -0.4870 C   0  0  0  0  0  0  0  0  0  0  0  0
    1.9780   -5.1530    0.5630 O   0  0  0  0  0  0  0  0  0  0  0  0
    3.6560   -1.7700   -3.5320 C   0  0  0  0  0  0  0  0  0  0  0  0
    4.6530   -2.3840   -3.9750 O   0  0  0  0  0  0  0  0  0  0  0  0
    3.8470   -4.3540   -0.3820 O   0  0  0  0  0  0  0  0  0  0  0  0
    3.3480   -0.5400   -4.0640 O   0  0  0  0  0  0  0  0  0  0  0  0
    0.9900   -1.4280   -2.9020 H   0  0  0  0  0  0  0  0  0  0  0  0
    3.4440   -2.4270   -1.5180 H   0  0  0  0  0  0  0  0  0  0  0  0
    3.2220   -4.4110   -3.0820 H   0  0  0  0  0  0  0  0  0  0  0  0
    1.6570   -3.7500   -3.6680 H   0  0  0  0  0  0  0  0  0  0  0  0
    0.6970   -3.8870   -1.4110 H   0  0  0  0  0  0  0  0  0  0  0  0
    1.2950   -5.4230   -2.0640 H   0  0  0  0  0  0  0  0  0  0  0  0
    4.4660   -4.9820    0.1530 H   0  0  0  0  0  0  0  0  0  0  0  0
  1  2  1  0  0  0  0
  1 10  1  0  0  0  0
  2  3  1  0  0  0  0
  3 12  1  0  0  0  0
  3 13  1  0  0  0  0
  3  4  1  0  0  0  0
  4 14  1  0  0  0  0
  5  6  1  0  0  0  0
  5  4  1  0  0  0  0
  5 16  1  1  0  0  0
  6 18  1  0  0  0  0
  6 17  1  0  0  0  0
  7  5  1  0  0  0  0
  8  7  2  0  0  0  0
  9  1  1  0  0  0  0
 11  1  1  0  0  0  0
 15  4  1  0  0  0  0
 19 31  1  0  0  0  0
 20 19  1  0  0  0  0
 20 22  1  0  0  0  0
 21 20  2  0  0  0  0
 22 23  1  0  0  0  0
 22 33  1  0  0  0  0
 23 24  1  0  0  0  0
 23 34  1  0  0  0  0
 24 25  1  0  0  0  0
 24 36  1  0  0  0  0
 25 38  1  0  0  0  0
 25 26  1  0  0  0  0
 26 40  1  6  0  0  0
 26 27  1  0  0  0  0
 27 41  1  0  0  0  0
 27  7  1  0  0  0  0
 28 26  1  0  0  0  0
 28 29  2  0  0  0  0
 30 19  1  0  0  0  0
 32 21  1  0  0  0  0
 35 23  1  0  0  0  0
 37 24  1  0  0  0  0
 39 25  1  0  0  0  0
 42 28  1  0  0  0  0
 43 42  1  0  0  0  0
 43 53  1  1  0  0  0
 44 43  1  0  0  0  0
 44 45  1  0  0  0  0
 45 56  1  0  0  0  0
 45 46  1  0  0  0  0
 46 50  1  0  0  0  0
 46 47  2  0  0  0  0
 48 43  1  0  0  0  0
 49 48  1  0  0  0  0
 50 58  1  0  0  0  0
 51 48  2  0  0  0  0
 52 42  1  0  0  0  0
 54 44  1  0  0  0  0
 55 44  1  0  0  0  0
 57 45  1  0  0  0  0
M  END
$$$$
