MRF.pdb
 OpenBabel07022418533D

 62 62  0  0  1  0  0  0  0  0999 V2000
    1.4330   -3.4060    5.0970 C   0  0  0  0  0  0  0  0  0  0  0  0
    2.0030   -1.8540    5.7440 S   0  0  0  0  0  0  0  0  0  0  0  0
    2.9890   -0.8420    4.6710 C   0  0  0  0  0  0  0  0  0  0  0  0
    2.2010   -0.2690    3.5380 C   0  0  0  0  0  0  0  0  0  0  0  0
    1.5700   -1.2460    2.6110 C   0  0  2  0  0  0  0  0  0  0  0  0
    2.5270   -2.0890    1.9740 N   0  0  0  0  0  0  0  0  0  0  0  0
    0.7640   -0.4600    1.6120 C   0  0  0  0  0  0  0  0  0  0  0  0
   -0.0850    0.3720    2.0210 O   0  0  0  0  0  0  0  0  0  0  0  0
    1.9060   -3.7660    4.1830 H   0  0  0  0  0  0  0  0  0  0  0  0
    0.3110   -3.3610    4.9590 H   0  0  0  0  0  0  0  0  0  0  0  0
    1.5410   -4.2510    5.8520 H   0  0  0  0  0  0  0  0  0  0  0  0
    3.4600    0.0270    5.2300 H   0  0  0  0  0  0  0  0  0  0  0  0
    3.8610   -1.3790    4.2250 H   0  0  0  0  0  0  0  0  0  0  0  0
    2.9220    0.3850    2.9560 H   0  0  0  0  0  0  0  0  0  0  0  0
    1.4660    0.4770    3.9420 H   0  0  0  0  0  0  0  0  0  0  0  0
    0.8890   -1.8830    3.2230 H   0  0  0  0  0  0  0  0  0  0  0  0
    3.1930   -2.4720    2.6760 H   0  0  0  0  0  0  0  0  0  0  0  0
    3.0640   -1.5980    1.2100 H   0  0  0  0  0  0  0  0  0  0  0  0
    1.5310    5.4790   -0.7390 N   0  0  0  0  0  0  0  0  0  0  0  0
    0.6640    4.7070   -1.5550 C   0  0  0  0  0  0  0  0  0  0  0  0
    0.5940    4.9400   -2.8380 N   0  0  0  0  0  0  0  0  0  0  0  0
   -0.1330    3.6810   -0.9940 N   0  0  0  0  0  0  0  0  0  0  0  0
   -0.8250    2.7430   -1.8360 C   0  0  0  0  0  0  0  0  0  0  0  0
    0.1130    1.8140   -2.5710 C   0  0  0  0  0  0  0  0  0  0  0  0
    0.9540    1.0040   -1.6290 C   0  0  0  0  0  0  0  0  0  0  0  0
    0.0930    0.1940   -0.7260 C   0  0  2  0  0  0  0  0  0  0  0  0
    0.9040   -0.5990    0.2090 N   0  0  0  0  0  0  0  0  0  0  0  0
   -0.8170   -0.7530   -1.4110 C   0  0  0  0  0  0  0  0  0  0  0  0
   -1.7130   -0.4320   -2.2320 O   0  0  0  0  0  0  0  0  0  0  0  0
    1.1310    6.2370   -0.1440 H   0  0  0  0  0  0  0  0  0  0  0  0
    2.5540    5.3100   -0.7190 H   0  0  0  0  0  0  0  0  0  0  0  0
    1.1790    5.6980   -3.2670 H   0  0  0  0  0  0  0  0  0  0  0  0
   -0.1990    3.6320    0.0560 H   0  0  0  0  0  0  0  0  0  0  0  0
   -1.3590    3.3290   -2.6340 H   0  0  0  0  0  0  0  0  0  0  0  0
   -1.6090    2.2170   -1.2760 H   0  0  0  0  0  0  0  0  0  0  0  0
   -0.4830    1.1370   -3.2000 H   0  0  0  0  0  0  0  0  0  0  0  0
    0.7580    2.4470   -3.2470 H   0  0  0  0  0  0  0  0  0  0  0  0
    1.7080    0.3980   -2.1780 H   0  0  0  0  0  0  0  0  0  0  0  0
    1.4850    1.7510   -0.9660 H   0  0  0  0  0  0  0  0  0  0  0  0
   -0.5610    0.8980   -0.1600 H   0  0  0  0  0  0  0  0  0  0  0  0
    1.5980   -1.2820   -0.1490 H   0  0  0  0  0  0  0  0  0  0  0  0
   -0.7120   -2.1540   -1.1550 N   0  0  0  0  0  0  0  0  0  0  0  0
   -1.5800   -3.1050   -1.8040 C   0  0  1  0  0  0  0  0  0  0  0  0
   -3.0250   -2.9580   -1.3740 C   0  0  0  0  0  0  0  0  0  0  0  0
   -3.1880   -3.1620    0.0740 C   0  0  0  0  0  0  0  0  0  0  0  0
   -3.4280   -4.4140    0.5850 C   0  0  0  0  0  0  0  0  0  0  0  0
   -3.5770   -4.5760    1.9540 C   0  0  0  0  0  0  0  0  0  0  0  0
   -3.4870   -3.4890    2.8190 C   0  0  0  0  0  0  0  0  0  0  0  0
   -3.2480   -2.2430    2.3070 C   0  0  0  0  0  0  0  0  0  0  0  0
   -3.1010   -2.0990    0.9300 C   0  0  0  0  0  0  0  0  0  0  0  0
   -1.4040   -2.9630   -3.2750 C   0  0  0  0  0  0  0  0  0  0  0  0
   -2.0770   -3.6440   -4.0970 O   0  0  0  0  0  0  0  0  0  0  0  0
   -0.4910   -2.0760   -3.8080 O   0  0  0  0  0  0  0  0  0  0  0  0
    0.0140   -2.5200   -0.4760 H   0  0  0  0  0  0  0  0  0  0  0  0
   -1.2450   -4.1520   -1.5890 H   0  0  0  0  0  0  0  0  0  0  0  0
   -3.3990   -1.9560   -1.7040 H   0  0  0  0  0  0  0  0  0  0  0  0
   -3.6810   -3.6890   -1.8850 H   0  0  0  0  0  0  0  0  0  0  0  0
   -3.5100   -5.2950   -0.0190 H   0  0  0  0  0  0  0  0  0  0  0  0
   -3.7650   -5.5370    2.3980 H   0  0  0  0  0  0  0  0  0  0  0  0
   -3.5980   -3.5900    3.8760 H   0  0  0  0  0  0  0  0  0  0  0  0
   -3.1760   -1.4010    2.9560 H   0  0  0  0  0  0  0  0  0  0  0  0
   -2.9160   -1.1110    0.5470 H   0  0  0  0  0  0  0  0  0  0  0  0
  1  2  1  0  0  0  0
  1 11  1  0  0  0  0
  3 12  1  0  0  0  0
  3  2  1  0  0  0  0
  4 15  1  0  0  0  0
  4  3  1  0  0  0  0
  5 16  1  1  0  0  0
  5  4  1  0  0  0  0
  6  5  1  0  0  0  0
  6 17  1  0  0  0  0
  7  8  2  0  0  0  0
  7  5  1  0  0  0  0
  9  1  1  0  0  0  0
 10  1  1  0  0  0  0
 13  3  1  0  0  0  0
 14  4  1  0  0  0  0
 18  6  1  0  0  0  0
 19 31  1  0  0  0  0
 19 30  1  0  0  0  0
 20 22  1  0  0  0  0
 20 19  1  0  0  0  0
 21 20  2  0  0  0  0
 22 33  1  0  0  0  0
 23 35  1  0  0  0  0
 23 22  1  0  0  0  0
 24 23  1  0  0  0  0
 24 25  1  0  0  0  0
 25 39  1  0  0  0  0
 25 26  1  0  0  0  0
 26 40  1  1  0  0  0
 26 27  1  0  0  0  0
 27  7  1  0  0  0  0
 28 42  1  0  0  0  0
 28 26  1  0  0  0  0
 29 28  2  0  0  0  0
 32 21  1  0  0  0  0
 34 23  1  0  0  0  0
 36 24  1  0  0  0  0
 37 24  1  0  0  0  0
 38 25  1  0  0  0  0
 41 27  1  0  0  0  0
 42 54  1  0  0  0  0
 43 55  1  1  0  0  0
 43 44  1  0  0  0  0
 43 42  1  0  0  0  0
 44 45  1  0  0  0  0
 45 46  2  0  0  0  0
 45 50  1  0  0  0  0
 46 47  1  0  0  0  0
 47 59  1  0  0  0  0
 47 48  2  0  0  0  0
 48 60  1  0  0  0  0
 49 48  1  0  0  0  0
 49 61  1  0  0  0  0
 50 49  2  0  0  0  0
 51 43  1  0  0  0  0
 52 51  2  0  0  0  0
 53 51  1  0  0  0  0
 56 44  1  0  0  0  0
 57 44  1  0  0  0  0
 58 46  1  0  0  0  0
 62 50  1  0  0  0  0
M  END
$$$$
