MRG.pdb
 OpenBabel07022418533D

 49 48  0  0  1  0  0  0  0  0999 V2000
    1.8470   -1.5270    4.8590 C   0  0  0  0  0  0  0  0  0  0  0  0
    2.0030   -0.2590    3.5740 S   0  0  0  0  0  0  0  0  0  0  0  0
    0.3680    0.4110    3.1210 C   0  0  0  0  0  0  0  0  0  0  0  0
    0.5880    1.4480    2.0620 C   0  0  0  0  0  0  0  0  0  0  0  0
    1.2580    0.8600    0.8680 C   0  0  2  0  0  0  0  0  0  0  0  0
    1.4330    1.9300   -0.1080 N   0  0  0  0  0  0  0  0  0  0  0  0
    0.6190   -0.3190    0.2800 C   0  0  0  0  0  0  0  0  0  0  0  0
    0.4660   -1.3950    0.9120 O   0  0  0  0  0  0  0  0  0  0  0  0
    0.9440   -2.1250    4.6830 H   0  0  0  0  0  0  0  0  0  0  0  0
    1.7500   -1.0160    5.8430 H   0  0  0  0  0  0  0  0  0  0  0  0
    2.7580   -2.1410    4.8350 H   0  0  0  0  0  0  0  0  0  0  0  0
   -0.1190    0.8730    4.0240 H   0  0  0  0  0  0  0  0  0  0  0  0
   -0.3350   -0.3360    2.7660 H   0  0  0  0  0  0  0  0  0  0  0  0
   -0.3310    2.0170    1.8130 H   0  0  0  0  0  0  0  0  0  0  0  0
    1.2720    2.2160    2.5300 H   0  0  0  0  0  0  0  0  0  0  0  0
    2.2900    0.5700    1.1700 H   0  0  0  0  0  0  0  0  0  0  0  0
    2.2060    1.7290   -0.7830 H   0  0  0  0  0  0  0  0  0  0  0  0
    0.5430    2.2040   -0.5390 H   0  0  0  0  0  0  0  0  0  0  0  0
   -5.0110   -0.0450    0.0320 N   0  0  0  0  0  0  0  0  0  0  0  0
   -4.8490   -0.4000   -1.3160 C   0  0  0  0  0  0  0  0  0  0  0  0
   -5.0950   -1.6130   -1.6830 N   0  0  0  0  0  0  0  0  0  0  0  0
   -4.4280    0.5200   -2.3090 N   0  0  0  0  0  0  0  0  0  0  0  0
   -3.5460    0.1210   -3.3650 C   0  0  0  0  0  0  0  0  0  0  0  0
   -2.1400   -0.1810   -2.9440 C   0  0  0  0  0  0  0  0  0  0  0  0
   -1.9770   -1.2640   -1.9410 C   0  0  0  0  0  0  0  0  0  0  0  0
   -0.5000   -1.5030   -1.6050 C   0  0  2  0  0  0  0  0  0  0  0  0
    0.1160   -0.3330   -1.0710 N   0  0  0  0  0  0  0  0  0  0  0  0
    0.1220   -2.0260   -2.8300 C   0  0  0  0  0  0  0  0  0  0  0  0
   -0.3740   -3.0680   -3.3300 O   0  0  0  0  0  0  0  0  0  0  0  0
   -5.8730   -0.4250    0.5270 H   0  0  0  0  0  0  0  0  0  0  0  0
   -4.3760    0.5510    0.5930 H   0  0  0  0  0  0  0  0  0  0  0  0
   -5.4050   -2.3180   -1.0070 H   0  0  0  0  0  0  0  0  0  0  0  0
   -4.7810    1.5060   -2.2430 H   0  0  0  0  0  0  0  0  0  0  0  0
   -3.4770    0.9770   -4.0950 H   0  0  0  0  0  0  0  0  0  0  0  0
   -3.9740   -0.7530   -3.9250 H   0  0  0  0  0  0  0  0  0  0  0  0
   -1.5840   -0.4640   -3.8750 H   0  0  0  0  0  0  0  0  0  0  0  0
   -1.7270    0.7680   -2.5230 H   0  0  0  0  0  0  0  0  0  0  0  0
   -2.4950   -0.9720   -0.9850 H   0  0  0  0  0  0  0  0  0  0  0  0
   -2.4020   -2.2260   -2.2590 H   0  0  0  0  0  0  0  0  0  0  0  0
   -0.5100   -2.3260   -0.8570 H   0  0  0  0  0  0  0  0  0  0  0  0
    0.2110    0.5270   -1.6480 H   0  0  0  0  0  0  0  0  0  0  0  0
    1.2380   -1.4060   -3.4530 N   0  0  0  0  0  0  0  0  0  0  0  0
    1.8070   -1.9710   -4.6620 C   0  0  0  0  0  0  0  0  0  0  0  0
    2.9440   -1.1460   -5.1080 C   0  0  0  0  0  0  0  0  0  0  0  0
    3.2790   -0.1240   -4.4550 O   0  0  0  0  0  0  0  0  0  0  0  0
    3.6940   -1.4370   -6.2440 O   0  0  0  0  0  0  0  0  0  0  0  0
    1.6060   -0.5440   -2.9910 H   0  0  0  0  0  0  0  0  0  0  0  0
    2.2080   -2.9920   -4.4660 H   0  0  0  0  0  0  0  0  0  0  0  0
    1.0120   -2.0950   -5.4230 H   0  0  0  0  0  0  0  0  0  0  0  0
  1 10  1  0  0  0  0
  2  1  1  0  0  0  0
  3  2  1  0  0  0  0
  3 12  1  0  0  0  0
  4 15  1  0  0  0  0
  4  3  1  0  0  0  0
  5 16  1  1  0  0  0
  5  4  1  0  0  0  0
  6  5  1  0  0  0  0
  7  5  1  0  0  0  0
  7  8  2  0  0  0  0
  9  1  1  0  0  0  0
 11  1  1  0  0  0  0
 13  3  1  0  0  0  0
 14  4  1  0  0  0  0
 17  6  1  0  0  0  0
 18  6  1  0  0  0  0
 19 30  1  0  0  0  0
 19 31  1  0  0  0  0
 20 19  1  0  0  0  0
 21 20  2  0  0  0  0
 21 32  1  0  0  0  0
 22 33  1  0  0  0  0
 22 20  1  0  0  0  0
 23 24  1  0  0  0  0
 23 22  1  0  0  0  0
 24 37  1  0  0  0  0
 24 25  1  0  0  0  0
 25 26  1  0  0  0  0
 25 38  1  0  0  0  0
 26 27  1  0  0  0  0
 26 40  1  1  0  0  0
 27  7  1  0  0  0  0
 28 26  1  0  0  0  0
 29 28  2  0  0  0  0
 34 23  1  0  0  0  0
 35 23  1  0  0  0  0
 36 24  1  0  0  0  0
 39 25  1  0  0  0  0
 41 27  1  0  0  0  0
 42 47  1  0  0  0  0
 42 28  1  0  0  0  0
 43 48  1  0  0  0  0
 43 42  1  0  0  0  0
 44 43  1  0  0  0  0
 44 45  1  0  0  0  0
 46 44  2  0  0  0  0
 49 43  1  0  0  0  0
M  END
$$$$
