MRH.pdb
 OpenBabel07022418533D

 59 59  0  0  1  0  0  0  0  0999 V2000
   -1.8850   -2.4670    2.7070 C   0  0  0  0  0  0  0  0  0  0  0  0
   -1.5090   -1.5100    4.1730 S   0  0  0  0  0  0  0  0  0  0  0  0
    0.1870   -1.6500    4.7010 C   0  0  0  0  0  0  0  0  0  0  0  0
    1.1270   -1.0280    3.7230 C   0  0  0  0  0  0  0  0  0  0  0  0
    0.8250    0.4460    3.5300 C   0  0  2  0  0  0  0  0  0  0  0  0
    0.9030    1.1440    4.8020 N   0  0  0  0  0  0  0  0  0  0  0  0
   -0.4020    0.7220    2.7720 C   0  0  0  0  0  0  0  0  0  0  0  0
   -1.4280    1.1850    3.3250 O   0  0  0  0  0  0  0  0  0  0  0  0
   -2.2680   -1.8610    1.8710 H   0  0  0  0  0  0  0  0  0  0  0  0
   -2.7330   -3.1640    2.9810 H   0  0  0  0  0  0  0  0  0  0  0  0
   -1.0530   -3.1530    2.4250 H   0  0  0  0  0  0  0  0  0  0  0  0
    0.2930   -1.0880    5.6630 H   0  0  0  0  0  0  0  0  0  0  0  0
    0.4820   -2.7040    4.8900 H   0  0  0  0  0  0  0  0  0  0  0  0
    1.0840   -1.4870    2.7150 H   0  0  0  0  0  0  0  0  0  0  0  0
    2.1910   -1.0950    4.0490 H   0  0  0  0  0  0  0  0  0  0  0  0
    1.7190    0.8340    2.9500 H   0  0  0  0  0  0  0  0  0  0  0  0
   -0.0410    1.3550    5.1830 H   0  0  0  0  0  0  0  0  0  0  0  0
    1.5210    0.6320    5.4770 H   0  0  0  0  0  0  0  0  0  0  0  0
    2.2440   -0.1890   -2.0400 N   0  0  0  0  0  0  0  0  0  0  0  0
    1.5370    0.9430   -1.5600 C   0  0  0  0  0  0  0  0  0  0  0  0
    2.0880    1.7070   -0.6630 N   0  0  0  0  0  0  0  0  0  0  0  0
    0.2310    1.2620   -2.0470 N   0  0  0  0  0  0  0  0  0  0  0  0
   -0.3390    2.5420   -1.8230 C   0  0  0  0  0  0  0  0  0  0  0  0
   -0.6910    2.9110   -0.4450 C   0  0  0  0  0  0  0  0  0  0  0  0
   -1.7200    2.1590    0.2840 C   0  0  0  0  0  0  0  0  0  0  0  0
   -1.5490    0.7120    0.5820 C   0  0  2  0  0  0  0  0  0  0  0  0
   -0.3810    0.4460    1.3540 N   0  0  0  0  0  0  0  0  0  0  0  0
   -1.8960   -0.2330   -0.4740 C   0  0  0  0  0  0  0  0  0  0  0  0
   -2.8540    0.0090   -1.2570 O   0  0  0  0  0  0  0  0  0  0  0  0
    2.8690   -0.7540   -1.4180 H   0  0  0  0  0  0  0  0  0  0  0  0
    2.1550   -0.4890   -3.0460 H   0  0  0  0  0  0  0  0  0  0  0  0
    3.0270    1.5250   -0.2800 H   0  0  0  0  0  0  0  0  0  0  0  0
   -0.2390    0.5080   -2.5800 H   0  0  0  0  0  0  0  0  0  0  0  0
   -1.3080    2.5820   -2.4240 H   0  0  0  0  0  0  0  0  0  0  0  0
    0.2920    3.3320   -2.3290 H   0  0  0  0  0  0  0  0  0  0  0  0
   -0.9760    4.0280   -0.4920 H   0  0  0  0  0  0  0  0  0  0  0  0
    0.2750    2.9980    0.1770 H   0  0  0  0  0  0  0  0  0  0  0  0
   -2.7370    2.3610   -0.1870 H   0  0  0  0  0  0  0  0  0  0  0  0
   -1.8510    2.7040    1.2870 H   0  0  0  0  0  0  0  0  0  0  0  0
   -2.4400    0.5490    1.3550 H   0  0  0  0  0  0  0  0  0  0  0  0
    0.5110    0.0450    0.9380 H   0  0  0  0  0  0  0  0  0  0  0  0
   -1.2150   -1.4530   -0.6980 N   0  0  0  0  0  0  0  0  0  0  0  0
   -1.5360   -2.3870   -1.7290 C   0  0  1  0  0  0  0  0  0  0  0  0
   -0.2880   -2.6530   -2.5360 C   0  0  0  0  0  0  0  0  0  0  0  0
    0.8240   -3.2300   -1.7240 C   0  0  0  0  0  0  0  0  0  0  0  0
    2.0320   -3.5210   -2.3070 C   0  0  0  0  0  0  0  0  0  0  0  0
    2.8260   -4.0130   -1.3650 N   0  0  0  0  0  0  0  0  0  0  0  0
    2.1380   -4.0340   -0.2130 C   0  0  0  0  0  0  0  0  0  0  0  0
    0.9100   -3.5530   -0.4350 N   0  0  0  0  0  0  0  0  0  0  0  0
   -2.2150   -3.6120   -1.3380 C   0  0  0  0  0  0  0  0  0  0  0  0
   -2.5000   -4.4560   -2.2170 O   0  0  0  0  0  0  0  0  0  0  0  0
   -2.5720   -3.9130   -0.0540 O   0  0  0  0  0  0  0  0  0  0  0  0
   -0.4260   -1.6790   -0.0630 H   0  0  0  0  0  0  0  0  0  0  0  0
   -2.2460   -1.8370   -2.4370 H   0  0  0  0  0  0  0  0  0  0  0  0
   -0.5020   -3.3630   -3.3760 H   0  0  0  0  0  0  0  0  0  0  0  0
    0.1260   -1.7530   -3.0240 H   0  0  0  0  0  0  0  0  0  0  0  0
    2.3300   -3.3860   -3.3600 H   0  0  0  0  0  0  0  0  0  0  0  0
    3.8270   -4.3230   -1.5450 H   0  0  0  0  0  0  0  0  0  0  0  0
    2.5110   -4.3820    0.7410 H   0  0  0  0  0  0  0  0  0  0  0  0
  1 10  1  0  0  0  0
  1  2  1  0  0  0  0
  2  3  1  0  0  0  0
  3 13  1  0  0  0  0
  3 12  1  0  0  0  0
  4 15  1  0  0  0  0
  4  3  1  0  0  0  0
  5 16  1  6  0  0  0
  5  4  1  0  0  0  0
  5  6  1  0  0  0  0
  6 17  1  0  0  0  0
  6 18  1  0  0  0  0
  7  8  2  0  0  0  0
  7  5  1  0  0  0  0
  9  1  1  0  0  0  0
 11  1  1  0  0  0  0
 14  4  1  0  0  0  0
 19 20  1  0  0  0  0
 19 30  1  0  0  0  0
 20 21  2  0  0  0  0
 21 32  1  0  0  0  0
 22 23  1  0  0  0  0
 22 20  1  0  0  0  0
 23 24  1  0  0  0  0
 24 37  1  0  0  0  0
 24 25  1  0  0  0  0
 25 26  1  0  0  0  0
 25 39  1  0  0  0  0
 26 27  1  0  0  0  0
 26 40  1  1  0  0  0
 27  7  1  0  0  0  0
 28 26  1  0  0  0  0
 29 28  2  0  0  0  0
 31 19  1  0  0  0  0
 33 22  1  0  0  0  0
 34 23  1  0  0  0  0
 35 23  1  0  0  0  0
 36 24  1  0  0  0  0
 38 25  1  0  0  0  0
 41 27  1  0  0  0  0
 42 28  1  0  0  0  0
 42 53  1  0  0  0  0
 43 54  1  6  0  0  0
 43 50  1  0  0  0  0
 43 42  1  0  0  0  0
 44 43  1  0  0  0  0
 44 45  1  0  0  0  0
 45 49  1  0  0  0  0
 46 45  2  0  0  0  0
 46 47  1  0  0  0  0
 47 48  1  0  0  0  0
 48 59  1  0  0  0  0
 49 48  2  0  0  0  0
 50 52  1  0  0  0  0
 51 50  2  0  0  0  0
 55 44  1  0  0  0  0
 56 44  1  0  0  0  0
 57 46  1  0  0  0  0
 58 47  1  0  0  0  0
M  END
$$$$
