MRI.pdb
 OpenBabel07022418533D

 61 60  0  0  1  0  0  0  0  0999 V2000
    2.8290   -1.9090    6.6880 C   0  0  0  0  0  0  0  0  0  0  0  0
    2.9840   -2.8180    5.1760 S   0  0  0  0  0  0  0  0  0  0  0  0
    3.0410   -1.9230    3.6520 C   0  0  0  0  0  0  0  0  0  0  0  0
    1.7900   -1.2910    3.1820 C   0  0  0  0  0  0  0  0  0  0  0  0
    1.1340   -0.2460    3.9760 C   0  0  2  0  0  0  0  0  0  0  0  0
    0.7010   -0.6180    5.3040 N   0  0  0  0  0  0  0  0  0  0  0  0
    0.0180    0.3560    3.2020 C   0  0  0  0  0  0  0  0  0  0  0  0
   -1.0650    0.5560    3.8250 O   0  0  0  0  0  0  0  0  0  0  0  0
    3.0340   -0.8300    6.6470 H   0  0  0  0  0  0  0  0  0  0  0  0
    3.5960   -2.3680    7.4220 H   0  0  0  0  0  0  0  0  0  0  0  0
    1.8790   -2.0590    7.2530 H   0  0  0  0  0  0  0  0  0  0  0  0
    3.9210   -1.2110    3.5970 H   0  0  0  0  0  0  0  0  0  0  0  0
    3.3250   -2.6810    2.8410 H   0  0  0  0  0  0  0  0  0  0  0  0
    0.9960   -2.0840    2.9470 H   0  0  0  0  0  0  0  0  0  0  0  0
    1.9570   -0.8520    2.1400 H   0  0  0  0  0  0  0  0  0  0  0  0
    1.8820    0.6120    4.0840 H   0  0  0  0  0  0  0  0  0  0  0  0
    0.6270    0.3100    5.8310 H   0  0  0  0  0  0  0  0  0  0  0  0
   -0.3040   -0.9200    5.2250 H   0  0  0  0  0  0  0  0  0  0  0  0
    1.9380    0.3040   -4.6110 N   0  0  0  0  0  0  0  0  0  0  0  0
    0.8240    0.9370   -4.0430 C   0  0  0  0  0  0  0  0  0  0  0  0
   -0.3540    0.9120   -4.6250 N   0  0  0  0  0  0  0  0  0  0  0  0
    0.9010    1.6450   -2.8190 N   0  0  0  0  0  0  0  0  0  0  0  0
   -0.1430    1.5860   -1.8150 C   0  0  0  0  0  0  0  0  0  0  0  0
    0.1910    2.5140   -0.6760 C   0  0  0  0  0  0  0  0  0  0  0  0
   -0.8110    2.5620    0.4170 C   0  0  0  0  0  0  0  0  0  0  0  0
   -1.0920    1.3220    1.1610 C   0  0  2  0  0  0  0  0  0  0  0  0
    0.0390    0.7290    1.8500 N   0  0  0  0  0  0  0  0  0  0  0  0
   -1.8860    0.3340    0.3860 C   0  0  0  0  0  0  0  0  0  0  0  0
   -2.8110    0.7390   -0.3210 O   0  0  0  0  0  0  0  0  0  0  0  0
    2.8920    0.6890   -4.4450 H   0  0  0  0  0  0  0  0  0  0  0  0
    1.8660   -0.5560   -5.2090 H   0  0  0  0  0  0  0  0  0  0  0  0
   -0.4540    0.4110   -5.5230 H   0  0  0  0  0  0  0  0  0  0  0  0
    1.7320    2.2210   -2.6360 H   0  0  0  0  0  0  0  0  0  0  0  0
   -1.0940    1.8530   -2.3140 H   0  0  0  0  0  0  0  0  0  0  0  0
   -0.2930    0.5330   -1.4580 H   0  0  0  0  0  0  0  0  0  0  0  0
    1.2330    2.3390   -0.3240 H   0  0  0  0  0  0  0  0  0  0  0  0
    0.2360    3.5560   -1.1130 H   0  0  0  0  0  0  0  0  0  0  0  0
   -0.5990    3.4260    1.1260 H   0  0  0  0  0  0  0  0  0  0  0  0
   -1.7800    2.9060   -0.0620 H   0  0  0  0  0  0  0  0  0  0  0  0
   -1.7780    1.6400    2.0360 H   0  0  0  0  0  0  0  0  0  0  0  0
    0.9150    0.5810    1.3090 H   0  0  0  0  0  0  0  0  0  0  0  0
   -1.3720   -1.8440   -3.1380 C   0  0  0  0  0  0  0  0  0  0  0  0
   -0.6220   -2.5330   -2.0170 C   0  0  0  0  0  0  0  0  0  0  0  0
   -1.5310   -3.0940   -0.9800 C   0  0  2  0  0  0  0  0  0  0  0  0
   -2.4480   -4.1050   -1.6370 C   0  0  0  0  0  0  0  0  0  0  0  0
   -2.3710   -2.0760   -0.2810 C   0  0  2  0  0  0  0  0  0  0  0  0
   -1.6250   -1.0610    0.4330 N   0  0  0  0  0  0  0  0  0  0  0  0
   -3.2720   -2.7390    0.7370 C   0  0  0  0  0  0  0  0  0  0  0  0
   -4.0540   -3.6770    0.4410 O   0  0  0  0  0  0  0  0  0  0  0  0
   -3.2640   -2.3220    2.0590 O   0  0  0  0  0  0  0  0  0  0  0  0
   -2.2360   -2.4820   -3.4090 H   0  0  0  0  0  0  0  0  0  0  0  0
   -0.7070   -1.8190   -4.0230 H   0  0  0  0  0  0  0  0  0  0  0  0
   -1.6530   -0.8180   -2.8870 H   0  0  0  0  0  0  0  0  0  0  0  0
   -0.0590   -3.3810   -2.4860 H   0  0  0  0  0  0  0  0  0  0  0  0
    0.1440   -1.8260   -1.6500 H   0  0  0  0  0  0  0  0  0  0  0  0
   -0.9010   -3.6830   -0.2760 H   0  0  0  0  0  0  0  0  0  0  0  0
   -2.0570   -4.4460   -2.6170 H   0  0  0  0  0  0  0  0  0  0  0  0
   -3.4350   -3.5970   -1.8200 H   0  0  0  0  0  0  0  0  0  0  0  0
   -2.6390   -4.9190   -0.9340 H   0  0  0  0  0  0  0  0  0  0  0  0
   -3.0690   -1.5520   -0.9600 H   0  0  0  0  0  0  0  0  0  0  0  0
   -0.8160   -1.3450    1.0460 H   0  0  0  0  0  0  0  0  0  0  0  0
  1 11  1  0  0  0  0
  1 10  1  0  0  0  0
  2  1  1  0  0  0  0
  3  2  1  0  0  0  0
  4  3  1  0  0  0  0
  4  5  1  0  0  0  0
  5 16  1  1  0  0  0
  5  6  1  0  0  0  0
  6 17  1  0  0  0  0
  7  8  2  0  0  0  0
  7  5  1  0  0  0  0
  9  1  1  0  0  0  0
 12  3  1  0  0  0  0
 13  3  1  0  0  0  0
 14  4  1  0  0  0  0
 15  4  1  0  0  0  0
 18  6  1  0  0  0  0
 19 30  1  0  0  0  0
 19 20  1  0  0  0  0
 20 22  1  0  0  0  0
 21 20  2  0  0  0  0
 22 33  1  0  0  0  0
 22 23  1  0  0  0  0
 23 35  1  0  0  0  0
 23 24  1  0  0  0  0
 24 36  1  0  0  0  0
 24 25  1  0  0  0  0
 25 38  1  0  0  0  0
 25 26  1  0  0  0  0
 26 27  1  0  0  0  0
 26 40  1  1  0  0  0
 27  7  1  0  0  0  0
 28 47  1  0  0  0  0
 28 26  1  0  0  0  0
 29 28  2  0  0  0  0
 31 19  1  0  0  0  0
 32 21  1  0  0  0  0
 34 23  1  0  0  0  0
 37 24  1  0  0  0  0
 39 25  1  0  0  0  0
 41 27  1  0  0  0  0
 42 53  1  0  0  0  0
 42 43  1  0  0  0  0
 43 55  1  0  0  0  0
 43 44  1  0  0  0  0
 44 46  1  0  0  0  0
 44 56  1  1  0  0  0
 45 44  1  0  0  0  0
 45 59  1  0  0  0  0
 46 60  1  6  0  0  0
 46 47  1  0  0  0  0
 46 48  1  0  0  0  0
 47 61  1  0  0  0  0
 48 50  1  0  0  0  0
 49 48  2  0  0  0  0
 51 42  1  0  0  0  0
 52 42  1  0  0  0  0
 54 43  1  0  0  0  0
 57 45  1  0  0  0  0
 58 45  1  0  0  0  0
M  END
$$$$
