MRK.pdb
 OpenBabel07022418533D

 63 62  0  0  1  0  0  0  0  0999 V2000
    4.0870   -3.4110    4.5890 C   0  0  0  0  0  0  0  0  0  0  0  0
    4.1600   -1.6400    4.2680 S   0  0  0  0  0  0  0  0  0  0  0  0
    3.3660   -1.2790    2.6600 C   0  0  0  0  0  0  0  0  0  0  0  0
    3.4190    0.2070    2.3710 C   0  0  0  0  0  0  0  0  0  0  0  0
    2.6960    0.9950    3.4560 C   0  0  2  0  0  0  0  0  0  0  0  0
    3.3880    0.6900    4.6910 N   0  0  0  0  0  0  0  0  0  0  0  0
    1.2930    0.4930    3.5700 C   0  0  0  0  0  0  0  0  0  0  0  0
    0.9130   -0.1020    4.6360 O   0  0  0  0  0  0  0  0  0  0  0  0
    3.0990   -3.7390    4.9460 H   0  0  0  0  0  0  0  0  0  0  0  0
    4.3230   -3.9390    3.6500 H   0  0  0  0  0  0  0  0  0  0  0  0
    4.8950   -3.6900    5.3090 H   0  0  0  0  0  0  0  0  0  0  0  0
    3.9980   -1.7870    1.9000 H   0  0  0  0  0  0  0  0  0  0  0  0
    2.3450   -1.6660    2.7140 H   0  0  0  0  0  0  0  0  0  0  0  0
    2.9710    0.3990    1.3900 H   0  0  0  0  0  0  0  0  0  0  0  0
    4.4900    0.4900    2.3450 H   0  0  0  0  0  0  0  0  0  0  0  0
    2.6610    2.0640    3.2330 H   0  0  0  0  0  0  0  0  0  0  0  0
    2.9770    1.2060    5.5110 H   0  0  0  0  0  0  0  0  0  0  0  0
    4.4160    0.9240    4.5810 H   0  0  0  0  0  0  0  0  0  0  0  0
   -2.3660    3.3590   -3.0810 N   0  0  0  0  0  0  0  0  0  0  0  0
   -2.7580    2.3740   -2.1280 C   0  0  0  0  0  0  0  0  0  0  0  0
   -3.3420    1.2720   -2.4860 N   0  0  0  0  0  0  0  0  0  0  0  0
   -2.4860    2.6350   -0.7570 N   0  0  0  0  0  0  0  0  0  0  0  0
   -2.4320    1.5480    0.2190 C   0  0  0  0  0  0  0  0  0  0  0  0
   -2.1330    2.1470    1.5450 C   0  0  0  0  0  0  0  0  0  0  0  0
   -2.0330    1.2280    2.6970 C   0  0  0  0  0  0  0  0  0  0  0  0
   -0.9850    0.1710    2.6430 C   0  0  2  0  0  0  0  0  0  0  0  0
    0.3470    0.6510    2.5240 N   0  0  0  0  0  0  0  0  0  0  0  0
   -1.3560   -0.9170    1.7310 C   0  0  0  0  0  0  0  0  0  0  0  0
   -2.5620   -1.3260    1.8050 O   0  0  0  0  0  0  0  0  0  0  0  0
   -1.4020    3.7900   -3.0520 H   0  0  0  0  0  0  0  0  0  0  0  0
   -2.9940    3.6950   -3.8330 H   0  0  0  0  0  0  0  0  0  0  0  0
   -3.5170    1.1310   -3.5030 H   0  0  0  0  0  0  0  0  0  0  0  0
   -2.3280    3.6230   -0.4790 H   0  0  0  0  0  0  0  0  0  0  0  0
   -3.4410    1.0790    0.1930 H   0  0  0  0  0  0  0  0  0  0  0  0
   -1.7270    0.7630   -0.0930 H   0  0  0  0  0  0  0  0  0  0  0  0
   -2.9690    2.8680    1.7810 H   0  0  0  0  0  0  0  0  0  0  0  0
   -1.2270    2.8030    1.5200 H   0  0  0  0  0  0  0  0  0  0  0  0
   -1.8920    1.8780    3.6120 H   0  0  0  0  0  0  0  0  0  0  0  0
   -3.0100    0.7090    2.9130 H   0  0  0  0  0  0  0  0  0  0  0  0
   -1.0440   -0.3260    3.6740 H   0  0  0  0  0  0  0  0  0  0  0  0
    0.7250    1.1510    1.6690 H   0  0  0  0  0  0  0  0  0  0  0  0
   -0.5350   -1.5610    0.7880 N   0  0  0  0  0  0  0  0  0  0  0  0
   -1.0050   -2.6490   -0.0820 C   0  0  1  0  0  0  0  0  0  0  0  0
   -0.7890   -2.3360   -1.5120 C   0  0  0  0  0  0  0  0  0  0  0  0
   -1.2870   -3.4290   -2.4030 C   0  0  0  0  0  0  0  0  0  0  0  0
   -1.0830   -3.1050   -3.8880 C   0  0  0  0  0  0  0  0  0  0  0  0
   -1.7920   -1.8720   -4.3310 C   0  0  0  0  0  0  0  0  0  0  0  0
   -1.5260   -1.6880   -5.7550 N   0  0  0  0  0  0  0  0  0  0  0  0
   -0.2160   -3.8360    0.3050 C   0  0  0  0  0  0  0  0  0  0  0  0
   -0.4260   -4.9660   -0.1670 O   0  0  0  0  0  0  0  0  0  0  0  0
    0.8380   -3.7800    1.2420 O   0  0  0  0  0  0  0  0  0  0  0  0
    0.4480   -1.2320    0.7240 H   0  0  0  0  0  0  0  0  0  0  0  0
   -2.0680   -2.8810    0.1150 H   0  0  0  0  0  0  0  0  0  0  0  0
    0.3130   -2.2050   -1.6910 H   0  0  0  0  0  0  0  0  0  0  0  0
   -1.2620   -1.3920   -1.8490 H   0  0  0  0  0  0  0  0  0  0  0  0
   -0.7920   -4.3920   -2.2510 H   0  0  0  0  0  0  0  0  0  0  0  0
   -2.3800   -3.6020   -2.3020 H   0  0  0  0  0  0  0  0  0  0  0  0
    0.0050   -3.0600   -4.0460 H   0  0  0  0  0  0  0  0  0  0  0  0
   -1.5150   -3.9740   -4.4310 H   0  0  0  0  0  0  0  0  0  0  0  0
   -2.8870   -1.9130   -4.1840 H   0  0  0  0  0  0  0  0  0  0  0  0
   -1.4270   -0.9780   -3.7900 H   0  0  0  0  0  0  0  0  0  0  0  0
   -2.2360   -2.1470   -6.3570 H   0  0  0  0  0  0  0  0  0  0  0  0
   -1.3710   -0.7040   -6.0000 H   0  0  0  0  0  0  0  0  0  0  0  0
  1  9  1  0  0  0  0
  1 11  1  0  0  0  0
  2  1  1  0  0  0  0
  3 13  1  0  0  0  0
  3  2  1  0  0  0  0
  4  3  1  0  0  0  0
  4  5  1  0  0  0  0
  5 16  1  6  0  0  0
  5  7  1  0  0  0  0
  5  6  1  0  0  0  0
  6 17  1  0  0  0  0
  7  8  2  0  0  0  0
 10  1  1  0  0  0  0
 12  3  1  0  0  0  0
 14  4  1  0  0  0  0
 15  4  1  0  0  0  0
 18  6  1  0  0  0  0
 19 30  1  0  0  0  0
 19 20  1  0  0  0  0
 20 22  1  0  0  0  0
 21 20  2  0  0  0  0
 22 33  1  0  0  0  0
 22 23  1  0  0  0  0
 23 24  1  0  0  0  0
 24 36  1  0  0  0  0
 24 25  1  0  0  0  0
 25 39  1  0  0  0  0
 25 38  1  0  0  0  0
 26 25  1  0  0  0  0
 26 40  1  1  0  0  0
 27 26  1  0  0  0  0
 27  7  1  0  0  0  0
 28 29  2  0  0  0  0
 28 26  1  0  0  0  0
 31 19  1  0  0  0  0
 32 21  1  0  0  0  0
 34 23  1  0  0  0  0
 35 23  1  0  0  0  0
 37 24  1  0  0  0  0
 41 27  1  0  0  0  0
 42 28  1  0  0  0  0
 43 53  1  1  0  0  0
 43 49  1  0  0  0  0
 43 42  1  0  0  0  0
 44 43  1  0  0  0  0
 45 57  1  0  0  0  0
 45 56  1  0  0  0  0
 45 44  1  0  0  0  0
 46 45  1  0  0  0  0
 47 60  1  0  0  0  0
 47 46  1  0  0  0  0
 47 61  1  0  0  0  0
 48 47  1  0  0  0  0
 49 51  1  0  0  0  0
 50 49  2  0  0  0  0
 52 42  1  0  0  0  0
 54 44  1  0  0  0  0
 55 44  1  0  0  0  0
 58 46  1  0  0  0  0
 59 46  1  0  0  0  0
 62 48  1  0  0  0  0
 63 48  1  0  0  0  0
M  END
$$$$
