MRL.pdb
 OpenBabel07022418533D

 61 60  0  0  1  0  0  0  0  0999 V2000
    1.5460   -2.3110    5.5980 C   0  0  0  0  0  0  0  0  0  0  0  0
    2.9390   -2.7710    4.5760 S   0  0  0  0  0  0  0  0  0  0  0  0
    2.8870   -2.3010    2.8790 C   0  0  0  0  0  0  0  0  0  0  0  0
    3.0520   -0.8860    2.5050 C   0  0  0  0  0  0  0  0  0  0  0  0
    2.1100    0.1290    2.9960 C   0  0  2  0  0  0  0  0  0  0  0  0
    2.0760    0.2400    4.4420 N   0  0  0  0  0  0  0  0  0  0  0  0
    0.7570    0.0710    2.4440 C   0  0  0  0  0  0  0  0  0  0  0  0
   -0.2040    0.1570    3.2540 O   0  0  0  0  0  0  0  0  0  0  0  0
    1.8660   -1.6190    6.4180 H   0  0  0  0  0  0  0  0  0  0  0  0
    1.1950   -3.2260    6.1870 H   0  0  0  0  0  0  0  0  0  0  0  0
    0.6440   -1.9880    5.0650 H   0  0  0  0  0  0  0  0  0  0  0  0
    3.6660   -2.9340    2.3320 H   0  0  0  0  0  0  0  0  0  0  0  0
    1.9240   -2.7400    2.4440 H   0  0  0  0  0  0  0  0  0  0  0  0
    4.0870   -0.5670    2.8630 H   0  0  0  0  0  0  0  0  0  0  0  0
    3.1640   -0.7610    1.3790 H   0  0  0  0  0  0  0  0  0  0  0  0
    2.5240    1.1390    2.6730 H   0  0  0  0  0  0  0  0  0  0  0  0
    3.0210    0.2940    4.8570 H   0  0  0  0  0  0  0  0  0  0  0  0
    1.5250    1.0970    4.6890 H   0  0  0  0  0  0  0  0  0  0  0  0
    2.9120    1.9610    0.1600 N   0  0  0  0  0  0  0  0  0  0  0  0
    1.6920    2.4290   -0.3260 C   0  0  0  0  0  0  0  0  0  0  0  0
    1.3570    2.2900   -1.5600 N   0  0  0  0  0  0  0  0  0  0  0  0
    0.7610    3.1060    0.5420 N   0  0  0  0  0  0  0  0  0  0  0  0
   -0.5830    3.2990    0.2060 C   0  0  0  0  0  0  0  0  0  0  0  0
   -1.6220    2.3120    0.3370 C   0  0  0  0  0  0  0  0  0  0  0  0
   -1.5860    0.9210   -0.1150 C   0  0  0  0  0  0  0  0  0  0  0  0
   -0.9290   -0.1230    0.6990 C   0  0  2  0  0  0  0  0  0  0  0  0
    0.4260   -0.0770    1.0670 N   0  0  0  0  0  0  0  0  0  0  0  0
   -1.1970   -1.5010    0.1150 C   0  0  0  0  0  0  0  0  0  0  0  0
   -0.2030   -2.2420   -0.0570 O   0  0  0  0  0  0  0  0  0  0  0  0
    3.4610    2.4910    0.8880 H   0  0  0  0  0  0  0  0  0  0  0  0
    3.3520    1.0610   -0.1680 H   0  0  0  0  0  0  0  0  0  0  0  0
    1.9250    1.8360   -2.2950 H   0  0  0  0  0  0  0  0  0  0  0  0
    1.1790    3.4460    1.4540 H   0  0  0  0  0  0  0  0  0  0  0  0
   -0.8970    4.2830    0.7780 H   0  0  0  0  0  0  0  0  0  0  0  0
   -0.6240    3.7310   -0.8660 H   0  0  0  0  0  0  0  0  0  0  0  0
   -2.5890    2.8310   -0.0740 H   0  0  0  0  0  0  0  0  0  0  0  0
   -1.9330    2.2380    1.4590 H   0  0  0  0  0  0  0  0  0  0  0  0
   -1.1900    0.9320   -1.1820 H   0  0  0  0  0  0  0  0  0  0  0  0
   -2.6750    0.6130   -0.3040 H   0  0  0  0  0  0  0  0  0  0  0  0
   -1.6010   -0.1760    1.6510 H   0  0  0  0  0  0  0  0  0  0  0  0
    1.1820   -0.1800    0.3670 H   0  0  0  0  0  0  0  0  0  0  0  0
   -2.7330   -1.0580   -3.0400 C   0  0  0  0  0  0  0  0  0  0  0  0
   -2.7660   -2.5220   -3.1720 C   0  0  0  0  0  0  0  0  0  0  0  0
   -2.0520   -2.8670   -4.4900 C   0  0  0  0  0  0  0  0  0  0  0  0
   -2.1640   -3.3580   -2.1200 C   0  0  0  0  0  0  0  0  0  0  0  0
   -2.6770   -3.2610   -0.7490 C   0  0  2  0  0  0  0  0  0  0  0  0
   -2.5070   -1.9360   -0.2180 N   0  0  0  0  0  0  0  0  0  0  0  0
   -1.9690   -4.2210    0.1370 C   0  0  0  0  0  0  0  0  0  0  0  0
   -1.8710   -5.4500   -0.2260 O   0  0  0  0  0  0  0  0  0  0  0  0
   -1.3920   -3.9210    1.3530 O   0  0  0  0  0  0  0  0  0  0  0  0
   -3.4280   -0.6040   -2.3300 H   0  0  0  0  0  0  0  0  0  0  0  0
   -3.0210   -0.6020   -4.0400 H   0  0  0  0  0  0  0  0  0  0  0  0
   -1.7190   -0.6530   -2.8560 H   0  0  0  0  0  0  0  0  0  0  0  0
   -3.8300   -2.8450   -3.3610 H   0  0  0  0  0  0  0  0  0  0  0  0
   -1.1920   -2.1650   -4.6260 H   0  0  0  0  0  0  0  0  0  0  0  0
   -2.7590   -2.8310   -5.3370 H   0  0  0  0  0  0  0  0  0  0  0  0
   -1.6300   -3.8840   -4.4230 H   0  0  0  0  0  0  0  0  0  0  0  0
   -1.0460   -3.1840   -2.0550 H   0  0  0  0  0  0  0  0  0  0  0  0
   -2.2100   -4.4380   -2.4560 H   0  0  0  0  0  0  0  0  0  0  0  0
   -3.7590   -3.5940   -0.6430 H   0  0  0  0  0  0  0  0  0  0  0  0
   -3.3140   -1.2800   -0.0590 H   0  0  0  0  0  0  0  0  0  0  0  0
  1 10  1  0  0  0  0
  1  9  1  0  0  0  0
  2  1  1  0  0  0  0
  3  2  1  0  0  0  0
  4 14  1  0  0  0  0
  4  3  1  0  0  0  0
  4  5  1  0  0  0  0
  5 16  1  6  0  0  0
  5  6  1  0  0  0  0
  6 18  1  0  0  0  0
  6 17  1  0  0  0  0
  7  5  1  0  0  0  0
  7  8  2  0  0  0  0
 11  1  1  0  0  0  0
 12  3  1  0  0  0  0
 13  3  1  0  0  0  0
 15  4  1  0  0  0  0
 19 30  1  0  0  0  0
 20 19  1  0  0  0  0
 20 22  1  0  0  0  0
 21 20  2  0  0  0  0
 22 33  1  0  0  0  0
 23 24  1  0  0  0  0
 23 22  1  0  0  0  0
 23 34  1  0  0  0  0
 24 37  1  0  0  0  0
 25 24  1  0  0  0  0
 25 26  1  0  0  0  0
 26 27  1  0  0  0  0
 26 40  1  1  0  0  0
 27  7  1  0  0  0  0
 28 26  1  0  0  0  0
 29 28  2  0  0  0  0
 31 19  1  0  0  0  0
 32 21  1  0  0  0  0
 35 23  1  0  0  0  0
 36 24  1  0  0  0  0
 38 25  1  0  0  0  0
 39 25  1  0  0  0  0
 41 27  1  0  0  0  0
 42 53  1  0  0  0  0
 42 51  1  0  0  0  0
 43 42  1  0  0  0  0
 43 45  1  0  0  0  0
 44 57  1  0  0  0  0
 44 43  1  0  0  0  0
 45 58  1  0  0  0  0
 45 46  1  0  0  0  0
 46 60  1  6  0  0  0
 46 47  1  0  0  0  0
 46 48  1  0  0  0  0
 47 61  1  0  0  0  0
 47 28  1  0  0  0  0
 48 50  1  0  0  0  0
 49 48  2  0  0  0  0
 52 42  1  0  0  0  0
 54 43  1  0  0  0  0
 55 44  1  0  0  0  0
 56 44  1  0  0  0  0
 59 45  1  0  0  0  0
M  END
$$$$
