MRM.pdb
 OpenBabel07022418533D

 59 58  0  0  1  0  0  0  0  0999 V2000
   -0.3090   -1.5620    5.6420 C   0  0  0  0  0  0  0  0  0  0  0  0
    1.3070   -2.3310    5.4910 S   0  0  0  0  0  0  0  0  0  0  0  0
    2.0040   -2.1460    3.8860 C   0  0  0  0  0  0  0  0  0  0  0  0
    2.5650   -0.8780    3.4280 C   0  0  0  0  0  0  0  0  0  0  0  0
    1.7430    0.3570    3.3430 C   0  0  2  0  0  0  0  0  0  0  0  0
    1.2350    0.7650    4.5900 N   0  0  0  0  0  0  0  0  0  0  0  0
    0.6430    0.2460    2.3420 C   0  0  0  0  0  0  0  0  0  0  0  0
   -0.5190    0.5770    2.6400 O   0  0  0  0  0  0  0  0  0  0  0  0
   -0.2970   -0.6920    6.3480 H   0  0  0  0  0  0  0  0  0  0  0  0
   -0.7230   -1.1960    4.6820 H   0  0  0  0  0  0  0  0  0  0  0  0
   -1.0630   -2.2790    6.0720 H   0  0  0  0  0  0  0  0  0  0  0  0
    1.1880   -2.4270    3.1380 H   0  0  0  0  0  0  0  0  0  0  0  0
    2.7700   -2.9790    3.6570 H   0  0  0  0  0  0  0  0  0  0  0  0
    3.5090   -0.6970    4.0330 H   0  0  0  0  0  0  0  0  0  0  0  0
    2.9690   -1.0730    2.3680 H   0  0  0  0  0  0  0  0  0  0  0  0
    2.4210    1.2230    3.0010 H   0  0  0  0  0  0  0  0  0  0  0  0
    1.6660    0.4550    5.4390 H   0  0  0  0  0  0  0  0  0  0  0  0
    0.2620    1.0060    4.5920 H   0  0  0  0  0  0  0  0  0  0  0  0
    3.9250    1.8640   -2.4440 N   0  0  0  0  0  0  0  0  0  0  0  0
    2.8200    2.6650   -2.0810 C   0  0  0  0  0  0  0  0  0  0  0  0
    2.9320    3.6310   -1.2010 N   0  0  0  0  0  0  0  0  0  0  0  0
    1.5620    2.4050   -2.6950 N   0  0  0  0  0  0  0  0  0  0  0  0
    0.3370    2.8240   -2.0380 C   0  0  0  0  0  0  0  0  0  0  0  0
    0.1090    2.0070   -0.7610 C   0  0  0  0  0  0  0  0  0  0  0  0
    0.0030    0.5590   -1.1330 C   0  0  0  0  0  0  0  0  0  0  0  0
   -0.2210   -0.3330    0.0620 C   0  0  2  0  0  0  0  0  0  0  0  0
    0.8600   -0.2340    1.0210 N   0  0  0  0  0  0  0  0  0  0  0  0
   -0.3450   -1.7570   -0.3200 C   0  0  0  0  0  0  0  0  0  0  0  0
    0.3880   -2.6780    0.1550 O   0  0  0  0  0  0  0  0  0  0  0  0
    4.7350    1.7640   -1.8080 H   0  0  0  0  0  0  0  0  0  0  0  0
    3.9360    1.3660   -3.3510 H   0  0  0  0  0  0  0  0  0  0  0  0
    3.8690    3.7950   -0.7690 H   0  0  0  0  0  0  0  0  0  0  0  0
    1.5810    1.9110   -3.6140 H   0  0  0  0  0  0  0  0  0  0  0  0
    0.4070    3.8750   -1.7540 H   0  0  0  0  0  0  0  0  0  0  0  0
   -0.5330    2.6370   -2.6900 H   0  0  0  0  0  0  0  0  0  0  0  0
   -0.8250    2.4000   -0.3090 H   0  0  0  0  0  0  0  0  0  0  0  0
    0.9180    2.2130   -0.0190 H   0  0  0  0  0  0  0  0  0  0  0  0
   -0.8120    0.4680   -1.8790 H   0  0  0  0  0  0  0  0  0  0  0  0
    0.9290    0.2450   -1.6500 H   0  0  0  0  0  0  0  0  0  0  0  0
   -1.1590    0.0410    0.5640 H   0  0  0  0  0  0  0  0  0  0  0  0
    1.8330   -0.5190    0.7540 H   0  0  0  0  0  0  0  0  0  0  0  0
   -4.1490   -1.7950    0.9630 C   0  0  0  0  0  0  0  0  0  0  0  0
   -4.1130   -1.8890   -0.8550 S   0  0  0  0  0  0  0  0  0  0  0  0
   -3.9130   -3.6040   -1.3320 C   0  0  0  0  0  0  0  0  0  0  0  0
   -2.6180   -4.2390   -0.9670 C   0  0  0  0  0  0  0  0  0  0  0  0
   -1.4430   -3.5920   -1.6400 C   0  0  2  0  0  0  0  0  0  0  0  0
   -1.3300   -2.2140   -1.2790 N   0  0  0  0  0  0  0  0  0  0  0  0
   -1.5640   -3.8150   -3.0920 C   0  0  0  0  0  0  0  0  0  0  0  0
   -1.5690   -2.8700   -3.9070 O   0  0  0  0  0  0  0  0  0  0  0  0
   -1.6760   -5.1070   -3.5660 O   0  0  0  0  0  0  0  0  0  0  0  0
   -3.2410   -2.3130    1.3310 H   0  0  0  0  0  0  0  0  0  0  0  0
   -5.0230   -2.4180    1.2900 H   0  0  0  0  0  0  0  0  0  0  0  0
   -4.2220   -0.7470    1.3070 H   0  0  0  0  0  0  0  0  0  0  0  0
   -4.7200   -4.1820   -0.8060 H   0  0  0  0  0  0  0  0  0  0  0  0
   -4.1130   -3.6610   -2.4380 H   0  0  0  0  0  0  0  0  0  0  0  0
   -2.6180   -5.3430   -1.1340 H   0  0  0  0  0  0  0  0  0  0  0  0
   -2.4580   -4.0530    0.1450 H   0  0  0  0  0  0  0  0  0  0  0  0
   -0.5380   -4.1770   -1.2910 H   0  0  0  0  0  0  0  0  0  0  0  0
   -1.9110   -1.4550   -1.6860 H   0  0  0  0  0  0  0  0  0  0  0  0
  1 11  1  0  0  0  0
  1  9  1  0  0  0  0
  2  1  1  0  0  0  0
  3  2  1  0  0  0  0
  4  3  1  0  0  0  0
  4 14  1  0  0  0  0
  5 16  1  6  0  0  0
  5  4  1  0  0  0  0
  5  6  1  0  0  0  0
  6 18  1  0  0  0  0
  6 17  1  0  0  0  0
  7  8  2  0  0  0  0
  7  5  1  0  0  0  0
 10  1  1  0  0  0  0
 12  3  1  0  0  0  0
 13  3  1  0  0  0  0
 15  4  1  0  0  0  0
 19 20  1  0  0  0  0
 19 30  1  0  0  0  0
 20 21  2  0  0  0  0
 21 32  1  0  0  0  0
 22 20  1  0  0  0  0
 22 23  1  0  0  0  0
 23 34  1  0  0  0  0
 23 24  1  0  0  0  0
 24 36  1  0  0  0  0
 24 37  1  0  0  0  0
 25 24  1  0  0  0  0
 25 26  1  0  0  0  0
 26 40  1  1  0  0  0
 26 27  1  0  0  0  0
 27  7  1  0  0  0  0
 28 26  1  0  0  0  0
 28 29  2  0  0  0  0
 31 19  1  0  0  0  0
 33 22  1  0  0  0  0
 35 23  1  0  0  0  0
 38 25  1  0  0  0  0
 39 25  1  0  0  0  0
 41 27  1  0  0  0  0
 42 52  1  0  0  0  0
 42 53  1  0  0  0  0
 42 51  1  0  0  0  0
 43 42  1  0  0  0  0
 44 45  1  0  0  0  0
 44 43  1  0  0  0  0
 44 54  1  0  0  0  0
 45 57  1  0  0  0  0
 46 58  1  1  0  0  0
 46 47  1  0  0  0  0
 46 45  1  0  0  0  0
 47 28  1  0  0  0  0
 48 46  1  0  0  0  0
 49 48  2  0  0  0  0
 50 48  1  0  0  0  0
 55 44  1  0  0  0  0
 56 45  1  0  0  0  0
 59 47  1  0  0  0  0
M  END
$$$$
