MRQ.pdb
 OpenBabel07022418533D

 59 58  0  0  1  0  0  0  0  0999 V2000
   -1.4610   -4.9780    5.0050 C   0  0  0  0  0  0  0  0  0  0  0  0
    0.1520   -4.2530    4.6280 S   0  0  0  0  0  0  0  0  0  0  0  0
    0.0920   -2.4550    4.6890 C   0  0  0  0  0  0  0  0  0  0  0  0
    1.4760   -1.9230    4.3710 C   0  0  0  0  0  0  0  0  0  0  0  0
    1.4770   -0.3920    4.4310 C   0  0  2  0  0  0  0  0  0  0  0  0
    1.0790   -0.0310    5.7860 N   0  0  0  0  0  0  0  0  0  0  0  0
    0.4460    0.1130    3.4700 C   0  0  0  0  0  0  0  0  0  0  0  0
   -0.6430    0.5690    3.9610 O   0  0  0  0  0  0  0  0  0  0  0  0
   -2.1920   -4.1920    5.2820 H   0  0  0  0  0  0  0  0  0  0  0  0
   -1.8890   -5.5540    4.1670 H   0  0  0  0  0  0  0  0  0  0  0  0
   -1.3460   -5.6210    5.9030 H   0  0  0  0  0  0  0  0  0  0  0  0
   -0.6280   -2.0390    3.9500 H   0  0  0  0  0  0  0  0  0  0  0  0
   -0.1550   -2.0790    5.7170 H   0  0  0  0  0  0  0  0  0  0  0  0
    1.7800   -2.2200    3.3550 H   0  0  0  0  0  0  0  0  0  0  0  0
    2.2020   -2.3260    5.0970 H   0  0  0  0  0  0  0  0  0  0  0  0
    2.4540    0.0060    4.1590 H   0  0  0  0  0  0  0  0  0  0  0  0
    1.3200   -0.8090    6.4460 H   0  0  0  0  0  0  0  0  0  0  0  0
    0.0200    0.0390    5.8060 H   0  0  0  0  0  0  0  0  0  0  0  0
    1.2980    1.2500   -4.4680 N   0  0  0  0  0  0  0  0  0  0  0  0
    0.3080    1.9910   -3.7670 C   0  0  0  0  0  0  0  0  0  0  0  0
   -0.6760    2.4780   -4.4880 N   0  0  0  0  0  0  0  0  0  0  0  0
    0.3730    2.2090   -2.3740 N   0  0  0  0  0  0  0  0  0  0  0  0
   -0.8200    2.4600   -1.6250 C   0  0  0  0  0  0  0  0  0  0  0  0
   -0.5720    2.7970   -0.2010 C   0  0  0  0  0  0  0  0  0  0  0  0
    0.1130    1.9100    0.7000 C   0  0  0  0  0  0  0  0  0  0  0  0
   -0.3730    0.6030    1.1780 C   0  0  2  0  0  0  0  0  0  0  0  0
    0.6970    0.0770    2.0820 N   0  0  0  0  0  0  0  0  0  0  0  0
   -0.7710   -0.4510    0.2900 C   0  0  0  0  0  0  0  0  0  0  0  0
   -1.8130   -0.4500   -0.4110 O   0  0  0  0  0  0  0  0  0  0  0  0
    1.9050    0.5770   -3.9430 H   0  0  0  0  0  0  0  0  0  0  0  0
    1.4230    1.3830   -5.5190 H   0  0  0  0  0  0  0  0  0  0  0  0
   -0.7730    2.3630   -5.4950 H   0  0  0  0  0  0  0  0  0  0  0  0
    1.2910    2.1870   -1.8980 H   0  0  0  0  0  0  0  0  0  0  0  0
   -1.2770    3.3800   -2.1630 H   0  0  0  0  0  0  0  0  0  0  0  0
   -1.6160    1.7220   -1.7260 H   0  0  0  0  0  0  0  0  0  0  0  0
   -0.0040    3.8000   -0.2450 H   0  0  0  0  0  0  0  0  0  0  0  0
   -1.5290    3.1420    0.3080 H   0  0  0  0  0  0  0  0  0  0  0  0
    1.1660    1.7100    0.2640 H   0  0  0  0  0  0  0  0  0  0  0  0
    0.4440    2.5270    1.6290 H   0  0  0  0  0  0  0  0  0  0  0  0
   -1.2350    0.8270    1.8910 H   0  0  0  0  0  0  0  0  0  0  0  0
    1.5860   -0.2850    1.7080 H   0  0  0  0  0  0  0  0  0  0  0  0
   -1.7840   -0.4900   -4.2260 N   0  0  0  0  0  0  0  0  0  0  0  0
   -1.4100   -1.5740   -3.4010 C   0  0  0  0  0  0  0  0  0  0  0  0
   -2.3070   -2.3570   -3.0240 O   0  0  0  0  0  0  0  0  0  0  0  0
    0.0020   -1.7270   -3.0300 C   0  0  0  0  0  0  0  0  0  0  0  0
    0.2710   -2.8410   -2.0640 C   0  0  0  0  0  0  0  0  0  0  0  0
   -0.3510   -2.7180   -0.7280 C   0  0  2  0  0  0  0  0  0  0  0  0
   -0.0050   -1.6330    0.1110 N   0  0  0  0  0  0  0  0  0  0  0  0
   -0.1950   -3.9870    0.0120 C   0  0  0  0  0  0  0  0  0  0  0  0
   -0.4770   -5.0910   -0.5640 O   0  0  0  0  0  0  0  0  0  0  0  0
    0.2440   -4.0670    1.3110 O   0  0  0  0  0  0  0  0  0  0  0  0
   -1.4820   -0.5030   -5.2230 H   0  0  0  0  0  0  0  0  0  0  0  0
   -2.3450    0.3220   -3.9040 H   0  0  0  0  0  0  0  0  0  0  0  0
    0.5720   -1.9770   -3.9600 H   0  0  0  0  0  0  0  0  0  0  0  0
    0.3880   -0.7480   -2.6820 H   0  0  0  0  0  0  0  0  0  0  0  0
   -0.1590   -3.7580   -2.5380 H   0  0  0  0  0  0  0  0  0  0  0  0
    1.3650   -3.0220   -2.0550 H   0  0  0  0  0  0  0  0  0  0  0  0
   -1.4630   -2.6040   -0.9300 H   0  0  0  0  0  0  0  0  0  0  0  0
    0.9140   -1.7720    0.6280 H   0  0  0  0  0  0  0  0  0  0  0  0
  1  9  1  0  0  0  0
  1 11  1  0  0  0  0
  2  3  1  0  0  0  0
  2  1  1  0  0  0  0
  3 13  1  0  0  0  0
  4  5  1  0  0  0  0
  4  3  1  0  0  0  0
  4 15  1  0  0  0  0
  5 16  1  6  0  0  0
  5  6  1  0  0  0  0
  6 18  1  0  0  0  0
  6 17  1  0  0  0  0
  7  8  2  0  0  0  0
  7  5  1  0  0  0  0
 10  1  1  0  0  0  0
 12  3  1  0  0  0  0
 14  4  1  0  0  0  0
 19 30  1  0  0  0  0
 19 20  1  0  0  0  0
 20 22  1  0  0  0  0
 21 20  2  0  0  0  0
 22 33  1  0  0  0  0
 22 23  1  0  0  0  0
 23 24  1  0  0  0  0
 24 37  1  0  0  0  0
 24 25  1  0  0  0  0
 25 26  1  0  0  0  0
 25 39  1  0  0  0  0
 26 40  1  1  0  0  0
 26 27  1  0  0  0  0
 27  7  1  0  0  0  0
 28 26  1  0  0  0  0
 29 28  2  0  0  0  0
 31 19  1  0  0  0  0
 32 21  1  0  0  0  0
 34 23  1  0  0  0  0
 35 23  1  0  0  0  0
 36 24  1  0  0  0  0
 38 25  1  0  0  0  0
 41 27  1  0  0  0  0
 42 53  1  0  0  0  0
 42 43  1  0  0  0  0
 43 45  1  0  0  0  0
 43 44  2  0  0  0  0
 45 55  1  0  0  0  0
 45 46  1  0  0  0  0
 46 57  1  0  0  0  0
 46 47  1  0  0  0  0
 47 58  1  6  0  0  0
 47 49  1  0  0  0  0
 47 48  1  0  0  0  0
 48 28  1  0  0  0  0
 48 59  1  0  0  0  0
 49 51  1  0  0  0  0
 50 49  2  0  0  0  0
 52 42  1  0  0  0  0
 54 45  1  0  0  0  0
 56 46  1  0  0  0  0
M  END
$$$$
