MRS.pdb
 OpenBabel07022418533D

 53 52  0  0  1  0  0  0  0  0999 V2000
   -0.7360   -4.1170    4.0160 C   0  0  0  0  0  0  0  0  0  0  0  0
    0.1290   -4.8380    2.6190 S   0  0  0  0  0  0  0  0  0  0  0  0
    0.3340   -3.7400    1.2410 C   0  0  0  0  0  0  0  0  0  0  0  0
    1.3120   -2.6460    1.3220 C   0  0  0  0  0  0  0  0  0  0  0  0
    1.2030   -1.6010    2.3510 C   0  0  2  0  0  0  0  0  0  0  0  0
    1.2810   -2.0630    3.6960 N   0  0  0  0  0  0  0  0  0  0  0  0
   -0.0120   -0.7670    2.1480 C   0  0  0  0  0  0  0  0  0  0  0  0
   -0.8670   -0.5470    3.0650 O   0  0  0  0  0  0  0  0  0  0  0  0
   -1.5780   -4.8510    4.2810 H   0  0  0  0  0  0  0  0  0  0  0  0
   -0.0800   -4.0580    4.9100 H   0  0  0  0  0  0  0  0  0  0  0  0
   -1.2000   -3.1560    3.7780 H   0  0  0  0  0  0  0  0  0  0  0  0
    0.6680   -4.3950    0.3600 H   0  0  0  0  0  0  0  0  0  0  0  0
   -0.6730   -3.3620    0.8690 H   0  0  0  0  0  0  0  0  0  0  0  0
    1.3400   -2.1600    0.2960 H   0  0  0  0  0  0  0  0  0  0  0  0
    2.3450   -3.1370    1.3640 H   0  0  0  0  0  0  0  0  0  0  0  0
    2.0760   -0.8890    2.1850 H   0  0  0  0  0  0  0  0  0  0  0  0
    1.2320   -1.2560    4.3560 H   0  0  0  0  0  0  0  0  0  0  0  0
    2.1990   -2.5360    3.8560 H   0  0  0  0  0  0  0  0  0  0  0  0
    3.7790    2.3880    2.1960 N   0  0  0  0  0  0  0  0  0  0  0  0
    3.1900    2.4820    0.8950 C   0  0  0  0  0  0  0  0  0  0  0  0
    3.9220    2.3630   -0.1710 N   0  0  0  0  0  0  0  0  0  0  0  0
    1.8070    2.7060    0.7160 N   0  0  0  0  0  0  0  0  0  0  0  0
    1.1180    2.3650   -0.5340 C   0  0  0  0  0  0  0  0  0  0  0  0
   -0.3220    2.6870   -0.4940 C   0  0  0  0  0  0  0  0  0  0  0  0
   -1.1940    2.0940    0.5050 C   0  0  0  0  0  0  0  0  0  0  0  0
   -1.3940    0.6390    0.6110 C   0  0  2  0  0  0  0  0  0  0  0  0
   -0.2570   -0.1740    0.8800 N   0  0  0  0  0  0  0  0  0  0  0  0
   -2.2600    0.0910   -0.4940 C   0  0  0  0  0  0  0  0  0  0  0  0
   -3.2840    0.6550   -0.8870 O   0  0  0  0  0  0  0  0  0  0  0  0
    4.3410    1.5440    2.4850 H   0  0  0  0  0  0  0  0  0  0  0  0
    3.6880    3.1310    2.9140 H   0  0  0  0  0  0  0  0  0  0  0  0
    4.9530    2.1960   -0.0760 H   0  0  0  0  0  0  0  0  0  0  0  0
    1.2440    3.1200    1.4730 H   0  0  0  0  0  0  0  0  0  0  0  0
    1.4220    1.4160   -0.9600 H   0  0  0  0  0  0  0  0  0  0  0  0
    1.5700    3.1310   -1.2620 H   0  0  0  0  0  0  0  0  0  0  0  0
   -0.3890    3.8150   -0.3730 H   0  0  0  0  0  0  0  0  0  0  0  0
   -0.7300    2.5460   -1.5410 H   0  0  0  0  0  0  0  0  0  0  0  0
   -0.9360    2.4620    1.5490 H   0  0  0  0  0  0  0  0  0  0  0  0
   -2.2300    2.5380    0.3610 H   0  0  0  0  0  0  0  0  0  0  0  0
   -2.0640    0.5160    1.5320 H   0  0  0  0  0  0  0  0  0  0  0  0
    0.4350   -0.3660    0.1340 H   0  0  0  0  0  0  0  0  0  0  0  0
   -0.5360   -2.6030   -3.1500 O   0  0  0  0  0  0  0  0  0  0  0  0
   -1.6920   -1.8660   -3.3760 C   0  0  0  0  0  0  0  0  0  0  0  0
   -2.5600   -1.7740   -2.1490 C   0  0  2  0  0  0  0  0  0  0  0  0
   -1.8300   -1.1340   -1.0760 N   0  0  0  0  0  0  0  0  0  0  0  0
   -3.1320   -3.0840   -1.7630 C   0  0  0  0  0  0  0  0  0  0  0  0
   -2.9710   -3.5300   -0.6030 O   0  0  0  0  0  0  0  0  0  0  0  0
   -3.8560   -3.8540   -2.6570 O   0  0  0  0  0  0  0  0  0  0  0  0
   -0.7050   -3.3180   -2.4590 H   0  0  0  0  0  0  0  0  0  0  0  0
   -2.2330   -2.2590   -4.2540 H   0  0  0  0  0  0  0  0  0  0  0  0
   -1.3600   -0.8410   -3.6560 H   0  0  0  0  0  0  0  0  0  0  0  0
   -3.4340   -1.1080   -2.4180 H   0  0  0  0  0  0  0  0  0  0  0  0
   -0.9660   -1.6130   -0.7420 H   0  0  0  0  0  0  0  0  0  0  0  0
  1  9  1  0  0  0  0
  1 10  1  0  0  0  0
  2  1  1  0  0  0  0
  3  4  1  0  0  0  0
  3  2  1  0  0  0  0
  4 15  1  0  0  0  0
  4  5  1  0  0  0  0
  5 16  1  6  0  0  0
  5  6  1  0  0  0  0
  6 18  1  0  0  0  0
  6 17  1  0  0  0  0
  7  5  1  0  0  0  0
  7  8  2  0  0  0  0
 11  1  1  0  0  0  0
 12  3  1  0  0  0  0
 13  3  1  0  0  0  0
 14  4  1  0  0  0  0
 19 30  1  0  0  0  0
 19 31  1  0  0  0  0
 20 19  1  0  0  0  0
 21 32  1  0  0  0  0
 21 20  2  0  0  0  0
 22 20  1  0  0  0  0
 22 33  1  0  0  0  0
 23 24  1  0  0  0  0
 23 22  1  0  0  0  0
 24 36  1  0  0  0  0
 24 25  1  0  0  0  0
 25 26  1  0  0  0  0
 25 38  1  0  0  0  0
 26 27  1  0  0  0  0
 26 40  1  1  0  0  0
 27  7  1  0  0  0  0
 28 26  1  0  0  0  0
 29 28  2  0  0  0  0
 34 23  1  0  0  0  0
 35 23  1  0  0  0  0
 37 24  1  0  0  0  0
 39 25  1  0  0  0  0
 41 27  1  0  0  0  0
 42 49  1  0  0  0  0
 43 42  1  0  0  0  0
 43 44  1  0  0  0  0
 44 52  1  6  0  0  0
 44 46  1  0  0  0  0
 44 45  1  0  0  0  0
 45 53  1  0  0  0  0
 45 28  1  0  0  0  0
 46 47  1  0  0  0  0
 48 46  2  0  0  0  0
 50 43  1  0  0  0  0
 51 43  1  0  0  0  0
M  END
$$$$
