MRT.pdb
 OpenBabel07022418533D

 56 55  0  0  1  0  0  0  0  0999 V2000
   -2.0200   -3.4770    4.4880 C   0  0  0  0  0  0  0  0  0  0  0  0
   -0.6140   -4.5100    4.0470 S   0  0  0  0  0  0  0  0  0  0  0  0
    0.3810   -3.7870    2.7850 C   0  0  0  0  0  0  0  0  0  0  0  0
    1.2150   -2.6210    3.0670 C   0  0  0  0  0  0  0  0  0  0  0  0
    0.6560   -1.3540    3.5470 C   0  0  2  0  0  0  0  0  0  0  0  0
   -0.0350   -1.3500    4.7920 N   0  0  0  0  0  0  0  0  0  0  0  0
   -0.1490   -0.6220    2.5310 C   0  0  0  0  0  0  0  0  0  0  0  0
   -1.2360   -0.1150    2.8470 O   0  0  0  0  0  0  0  0  0  0  0  0
   -1.9860   -3.1180    5.5190 H   0  0  0  0  0  0  0  0  0  0  0  0
   -2.1650   -2.6830    3.7170 H   0  0  0  0  0  0  0  0  0  0  0  0
   -2.9520   -4.1260    4.4470 H   0  0  0  0  0  0  0  0  0  0  0  0
   -0.2930   -3.6400    1.8720 H   0  0  0  0  0  0  0  0  0  0  0  0
    1.0630   -4.6170    2.3900 H   0  0  0  0  0  0  0  0  0  0  0  0
    2.0610   -2.9430    3.7620 H   0  0  0  0  0  0  0  0  0  0  0  0
    1.7990   -2.3800    2.1180 H   0  0  0  0  0  0  0  0  0  0  0  0
    1.5460   -0.6560    3.7090 H   0  0  0  0  0  0  0  0  0  0  0  0
    0.4870   -1.9710    5.4630 H   0  0  0  0  0  0  0  0  0  0  0  0
   -0.1190   -0.3700    5.1380 H   0  0  0  0  0  0  0  0  0  0  0  0
    3.8080    2.4730    2.8950 N   0  0  0  0  0  0  0  0  0  0  0  0
    3.7780    2.0220    1.5380 C   0  0  0  0  0  0  0  0  0  0  0  0
    4.8380    1.4710    1.0760 N   0  0  0  0  0  0  0  0  0  0  0  0
    2.6300    2.1750    0.7320 N   0  0  0  0  0  0  0  0  0  0  0  0
    2.4410    1.3380   -0.4130 C   0  0  0  0  0  0  0  0  0  0  0  0
    1.1800    1.6100   -1.1640 C   0  0  0  0  0  0  0  0  0  0  0  0
   -0.1000    1.4870   -0.4090 C   0  0  0  0  0  0  0  0  0  0  0  0
   -0.5040    0.2410    0.1870 C   0  0  2  0  0  0  0  0  0  0  0  0
    0.2230   -0.4430    1.1800 N   0  0  0  0  0  0  0  0  0  0  0  0
   -0.8520   -0.7510   -0.8630 C   0  0  0  0  0  0  0  0  0  0  0  0
   -0.4460   -1.9310   -0.7400 O   0  0  0  0  0  0  0  0  0  0  0  0
    3.2520    3.3080    3.2160 H   0  0  0  0  0  0  0  0  0  0  0  0
    4.3980    1.9630    3.5980 H   0  0  0  0  0  0  0  0  0  0  0  0
    4.9380    1.1050    0.1100 H   0  0  0  0  0  0  0  0  0  0  0  0
    1.9330    2.8930    0.9770 H   0  0  0  0  0  0  0  0  0  0  0  0
    3.2980    1.6660   -1.1230 H   0  0  0  0  0  0  0  0  0  0  0  0
    2.6930    0.2770   -0.2530 H   0  0  0  0  0  0  0  0  0  0  0  0
    1.1900    1.0000   -2.1000 H   0  0  0  0  0  0  0  0  0  0  0  0
    1.3130    2.6630   -1.5770 H   0  0  0  0  0  0  0  0  0  0  0  0
   -0.1140    2.3950    0.2520 H   0  0  0  0  0  0  0  0  0  0  0  0
   -0.8960    1.7900   -1.1660 H   0  0  0  0  0  0  0  0  0  0  0  0
   -1.5160    0.4320    0.7090 H   0  0  0  0  0  0  0  0  0  0  0  0
    1.1240   -0.8800    0.8950 H   0  0  0  0  0  0  0  0  0  0  0  0
   -3.8300   -2.8830   -3.8850 C   0  0  0  0  0  0  0  0  0  0  0  0
   -3.4120   -1.7390   -2.9940 C   0  0  1  0  0  0  0  0  0  0  0  0
   -3.7250   -2.1440   -1.6840 O   0  0  0  0  0  0  0  0  0  0  0  0
   -1.9170   -1.5040   -3.0000 C   0  0  2  0  0  0  0  0  0  0  0  0
   -1.6230   -0.4720   -2.0200 N   0  0  0  0  0  0  0  0  0  0  0  0
   -1.3840   -1.1590   -4.3350 C   0  0  0  0  0  0  0  0  0  0  0  0
   -1.5530   -1.9710   -5.2780 O   0  0  0  0  0  0  0  0  0  0  0  0
   -0.7010    0.0070   -4.6310 O   0  0  0  0  0  0  0  0  0  0  0  0
   -3.7400   -2.6730   -4.9630 H   0  0  0  0  0  0  0  0  0  0  0  0
   -4.9260   -3.0920   -3.7040 H   0  0  0  0  0  0  0  0  0  0  0  0
   -3.2990   -3.8120   -3.5910 H   0  0  0  0  0  0  0  0  0  0  0  0
   -3.9940   -0.8450   -3.2870 H   0  0  0  0  0  0  0  0  0  0  0  0
   -4.7070   -2.2620   -1.5700 H   0  0  0  0  0  0  0  0  0  0  0  0
   -1.4420   -2.4470   -2.6780 H   0  0  0  0  0  0  0  0  0  0  0  0
   -1.9990    0.4840   -2.1890 H   0  0  0  0  0  0  0  0  0  0  0  0
  1  9  1  0  0  0  0
  2  1  1  0  0  0  0
  3  4  1  0  0  0  0
  3  2  1  0  0  0  0
  4  5  1  0  0  0  0
  4 14  1  0  0  0  0
  5 16  1  1  0  0  0
  5  6  1  0  0  0  0
  6 18  1  0  0  0  0
  6 17  1  0  0  0  0
  7  8  2  0  0  0  0
  7  5  1  0  0  0  0
 10  1  1  0  0  0  0
 11  1  1  0  0  0  0
 12  3  1  0  0  0  0
 13  3  1  0  0  0  0
 15  4  1  0  0  0  0
 19 30  1  0  0  0  0
 19 31  1  0  0  0  0
 20 19  1  0  0  0  0
 21 20  2  0  0  0  0
 22 33  1  0  0  0  0
 22 20  1  0  0  0  0
 23 35  1  0  0  0  0
 23 22  1  0  0  0  0
 24 23  1  0  0  0  0
 24 25  1  0  0  0  0
 25 26  1  0  0  0  0
 25 38  1  0  0  0  0
 26 40  1  1  0  0  0
 26 27  1  0  0  0  0
 27  7  1  0  0  0  0
 28 29  2  0  0  0  0
 28 26  1  0  0  0  0
 32 21  1  0  0  0  0
 34 23  1  0  0  0  0
 36 24  1  0  0  0  0
 37 24  1  0  0  0  0
 39 25  1  0  0  0  0
 41 27  1  0  0  0  0
 42 51  1  0  0  0  0
 42 52  1  0  0  0  0
 42 43  1  0  0  0  0
 43 53  1  6  0  0  0
 43 44  1  0  0  0  0
 44 54  1  0  0  0  0
 45 43  1  0  0  0  0
 45 55  1  1  0  0  0
 45 46  1  0  0  0  0
 46 28  1  0  0  0  0
 47 45  1  0  0  0  0
 48 47  2  0  0  0  0
 49 47  1  0  0  0  0
 50 42  1  0  0  0  0
 56 46  1  0  0  0  0
M  END
$$$$
