MSF.pdb
 OpenBabel07022418563D

 50 50  0  0  1  0  0  0  0  0999 V2000
    4.8210   -5.5640   -0.4560 C   0  0  0  0  0  0  0  0  0  0  0  0
    5.7980   -4.1400   -0.9510 S   0  0  0  0  0  0  0  0  0  0  0  0
    4.9330   -2.5770   -0.6160 C   0  0  0  0  0  0  0  0  0  0  0  0
    4.8110   -2.4400    0.8630 C   0  0  0  0  0  0  0  0  0  0  0  0
    4.1290   -1.2160    1.3580 C   0  0  2  0  0  0  0  0  0  0  0  0
    4.1180   -1.2810    2.8200 N   0  0  0  0  0  0  0  0  0  0  0  0
    2.7430   -1.0340    0.8600 C   0  0  0  0  0  0  0  0  0  0  0  0
    2.4710   -0.9320   -0.3610 O   0  0  0  0  0  0  0  0  0  0  0  0
    5.1050   -6.4150   -1.1090 H   0  0  0  0  0  0  0  0  0  0  0  0
    5.0410   -5.8980    0.5910 H   0  0  0  0  0  0  0  0  0  0  0  0
    3.7310   -5.3920   -0.5650 H   0  0  0  0  0  0  0  0  0  0  0  0
    4.0020   -2.4850   -1.1680 H   0  0  0  0  0  0  0  0  0  0  0  0
    5.6110   -1.7610   -0.9770 H   0  0  0  0  0  0  0  0  0  0  0  0
    4.2610   -3.3210    1.3110 H   0  0  0  0  0  0  0  0  0  0  0  0
    5.8130   -2.4770    1.3500 H   0  0  0  0  0  0  0  0  0  0  0  0
    4.7390   -0.3290    1.1030 H   0  0  0  0  0  0  0  0  0  0  0  0
    3.9040   -0.3430    3.2330 H   0  0  0  0  0  0  0  0  0  0  0  0
    5.0910   -1.5110    3.1170 H   0  0  0  0  0  0  0  0  0  0  0  0
    0.0520   -3.1780    1.1000 O   0  0  0  0  0  0  0  0  0  0  0  0
   -0.4710   -2.0480    1.6830 C   0  0  0  0  0  0  0  0  0  0  0  0
    0.3330   -0.7950    1.3180 C   0  0  2  0  0  0  0  0  0  0  0  0
    1.6680   -0.9690    1.7710 N   0  0  0  0  0  0  0  0  0  0  0  0
   -0.3680    0.3590    1.9180 C   0  0  0  0  0  0  0  0  0  0  0  0
    0.1040    1.1450    2.7520 O   0  0  0  0  0  0  0  0  0  0  0  0
   -0.4250   -3.3560    0.2690 H   0  0  0  0  0  0  0  0  0  0  0  0
   -1.5300   -1.9520    1.3660 H   0  0  0  0  0  0  0  0  0  0  0  0
   -0.4990   -2.1140    2.7960 H   0  0  0  0  0  0  0  0  0  0  0  0
    0.2500   -0.7100    0.2160 H   0  0  0  0  0  0  0  0  0  0  0  0
    1.8490   -1.0490    2.7900 H   0  0  0  0  0  0  0  0  0  0  0  0
   -1.7100    0.5830    1.4960 N   0  0  0  0  0  0  0  0  0  0  0  0
   -2.4780    1.6810    2.0230 C   0  0  1  0  0  0  0  0  0  0  0  0
   -2.6800    2.6710    0.8740 C   0  0  0  0  0  0  0  0  0  0  0  0
   -3.3970    2.0770   -0.2640 C   0  0  0  0  0  0  0  0  0  0  0  0
   -4.7710    2.1630   -0.2760 C   0  0  0  0  0  0  0  0  0  0  0  0
   -5.4900    1.6300   -1.3090 C   0  0  0  0  0  0  0  0  0  0  0  0
   -4.8380    0.9990   -2.3530 C   0  0  0  0  0  0  0  0  0  0  0  0
   -3.4690    0.9040   -2.3580 C   0  0  0  0  0  0  0  0  0  0  0  0
   -2.7590    1.4460   -1.3090 C   0  0  0  0  0  0  0  0  0  0  0  0
   -3.7440    1.2760    2.6300 C   0  0  0  0  0  0  0  0  0  0  0  0
   -4.5020    2.1460    3.1270 O   0  0  0  0  0  0  0  0  0  0  0  0
   -4.1670   -0.0420    2.6900 O   0  0  0  0  0  0  0  0  0  0  0  0
   -2.1830   -0.0390    0.7910 H   0  0  0  0  0  0  0  0  0  0  0  0
   -1.8430    2.2410    2.7640 H   0  0  0  0  0  0  0  0  0  0  0  0
   -1.6390    2.9280    0.5360 H   0  0  0  0  0  0  0  0  0  0  0  0
   -3.1160    3.6180    1.2430 H   0  0  0  0  0  0  0  0  0  0  0  0
   -5.3210    2.6490    0.5220 H   0  0  0  0  0  0  0  0  0  0  0  0
   -6.5720    1.6750   -1.3580 H   0  0  0  0  0  0  0  0  0  0  0  0
   -5.4050    0.5660   -3.1900 H   0  0  0  0  0  0  0  0  0  0  0  0
   -2.9430    0.4040   -3.1850 H   0  0  0  0  0  0  0  0  0  0  0  0
   -1.6610    1.3600   -1.3300 H   0  0  0  0  0  0  0  0  0  0  0  0
  1 10  1  0  0  0  0
  2  3  1  0  0  0  0
  2  1  1  0  0  0  0
  3  4  1  0  0  0  0
  4 14  1  0  0  0  0
  4 15  1  0  0  0  0
  4  5  1  0  0  0  0
  5 16  1  6  0  0  0
  5  6  1  0  0  0  0
  6 18  1  0  0  0  0
  6 17  1  0  0  0  0
  7  5  1  0  0  0  0
  7 22  1  0  0  0  0
  8  7  2  0  0  0  0
  9  1  1  0  0  0  0
 11  1  1  0  0  0  0
 12  3  1  0  0  0  0
 13  3  1  0  0  0  0
 19 20  1  0  0  0  0
 20 27  1  0  0  0  0
 21 28  1  6  0  0  0
 21 20  1  0  0  0  0
 21 22  1  0  0  0  0
 21 23  1  0  0  0  0
 22 29  1  0  0  0  0
 23 24  2  0  0  0  0
 25 19  1  0  0  0  0
 26 20  1  0  0  0  0
 30 23  1  0  0  0  0
 30 31  1  0  0  0  0
 31 39  1  0  0  0  0
 31 43  1  1  0  0  0
 32 45  1  0  0  0  0
 32 31  1  0  0  0  0
 33 32  1  0  0  0  0
 34 33  1  0  0  0  0
 34 46  1  0  0  0  0
 35 34  2  0  0  0  0
 36 35  1  0  0  0  0
 37 36  2  0  0  0  0
 37 38  1  0  0  0  0
 38 33  2  0  0  0  0
 39 41  2  0  0  0  0
 39 40  1  0  0  0  0
 42 30  1  0  0  0  0
 44 32  1  0  0  0  0
 47 35  1  0  0  0  0
 48 36  1  0  0  0  0
 49 37  1  0  0  0  0
 50 38  1  0  0  0  0
M  END
$$$$
