MSG.pdb
 OpenBabel07022418563D

 37 36  0  0  1  0  0  0  0  0999 V2000
   -1.2050   -2.3950    5.6440 C   0  0  0  0  0  0  0  0  0  0  0  0
    0.4240   -2.9620    5.0830 S   0  0  0  0  0  0  0  0  0  0  0  0
    0.4660   -3.2840    3.3250 C   0  0  0  0  0  0  0  0  0  0  0  0
    0.3100   -2.0660    2.4720 C   0  0  0  0  0  0  0  0  0  0  0  0
    1.3990   -1.0340    2.6810 C   0  0  2  0  0  0  0  0  0  0  0  0
    1.4690   -0.5380    4.0240 N   0  0  0  0  0  0  0  0  0  0  0  0
    1.2930    0.0480    1.6770 C   0  0  0  0  0  0  0  0  0  0  0  0
    1.2130    1.2720    2.0000 O   0  0  0  0  0  0  0  0  0  0  0  0
   -1.8910   -2.1770    4.7920 H   0  0  0  0  0  0  0  0  0  0  0  0
   -1.0780   -1.5320    6.3180 H   0  0  0  0  0  0  0  0  0  0  0  0
   -1.7180   -3.1980    6.2420 H   0  0  0  0  0  0  0  0  0  0  0  0
   -0.3560   -4.0000    3.0910 H   0  0  0  0  0  0  0  0  0  0  0  0
    1.4100   -3.8180    3.0850 H   0  0  0  0  0  0  0  0  0  0  0  0
   -0.6910   -1.5990    2.6070 H   0  0  0  0  0  0  0  0  0  0  0  0
    0.3430   -2.3640    1.4040 H   0  0  0  0  0  0  0  0  0  0  0  0
    2.3660   -1.5650    2.4330 H   0  0  0  0  0  0  0  0  0  0  0  0
    2.1020   -1.1300    4.5730 H   0  0  0  0  0  0  0  0  0  0  0  0
    0.5400   -0.4460    4.4380 H   0  0  0  0  0  0  0  0  0  0  0  0
    3.5810    0.7340   -0.9430 O   0  0  0  0  0  0  0  0  0  0  0  0
    2.3910    0.5390   -1.6500 C   0  0  0  0  0  0  0  0  0  0  0  0
    1.1800    0.6990   -0.7540 C   0  0  2  0  0  0  0  0  0  0  0  0
    1.2810   -0.2910    0.3020 N   0  0  0  0  0  0  0  0  0  0  0  0
   -0.0220    0.4570   -1.6110 C   0  0  0  0  0  0  0  0  0  0  0  0
   -0.8230   -0.4720   -1.4280 O   0  0  0  0  0  0  0  0  0  0  0  0
    3.8320   -0.1420   -0.5540 H   0  0  0  0  0  0  0  0  0  0  0  0
    2.4460   -0.4760   -2.0930 H   0  0  0  0  0  0  0  0  0  0  0  0
    2.3660    1.2520   -2.5040 H   0  0  0  0  0  0  0  0  0  0  0  0
    1.1240    1.7200   -0.3850 H   0  0  0  0  0  0  0  0  0  0  0  0
    1.3500   -1.2930    0.0290 H   0  0  0  0  0  0  0  0  0  0  0  0
   -0.2490    1.3510   -2.6940 N   0  0  0  0  0  0  0  0  0  0  0  0
   -1.3810    1.2150   -3.5900 C   0  0  0  0  0  0  0  0  0  0  0  0
   -2.6210    1.3220   -2.8100 C   0  0  0  0  0  0  0  0  0  0  0  0
   -2.5610    1.5010   -1.5740 O   0  0  0  0  0  0  0  0  0  0  0  0
   -3.8850    1.2300   -3.4090 O   0  0  0  0  0  0  0  0  0  0  0  0
    0.4140    2.1530   -2.8790 H   0  0  0  0  0  0  0  0  0  0  0  0
   -1.3280    1.9390   -4.4250 H   0  0  0  0  0  0  0  0  0  0  0  0
   -1.3050    0.1690   -4.0000 H   0  0  0  0  0  0  0  0  0  0  0  0
  1 11  1  0  0  0  0
  1 10  1  0  0  0  0
  2  1  1  0  0  0  0
  3  2  1  0  0  0  0
  4 14  1  0  0  0  0
  4  5  1  0  0  0  0
  4  3  1  0  0  0  0
  5 16  1  6  0  0  0
  5  6  1  0  0  0  0
  6 18  1  0  0  0  0
  6 17  1  0  0  0  0
  7  8  2  0  0  0  0
  7  5  1  0  0  0  0
  9  1  1  0  0  0  0
 12  3  1  0  0  0  0
 13  3  1  0  0  0  0
 15  4  1  0  0  0  0
 19 25  1  0  0  0  0
 20 19  1  0  0  0  0
 20 21  1  0  0  0  0
 21 28  1  1  0  0  0
 21 22  1  0  0  0  0
 22  7  1  0  0  0  0
 23 24  2  0  0  0  0
 23 21  1  0  0  0  0
 26 20  1  0  0  0  0
 27 20  1  0  0  0  0
 29 22  1  0  0  0  0
 30 23  1  0  0  0  0
 31 32  1  0  0  0  0
 31 30  1  0  0  0  0
 32 33  1  0  0  0  0
 34 32  2  0  0  0  0
 35 30  1  0  0  0  0
 36 31  1  0  0  0  0
 37 31  1  0  0  0  0
M  END
$$$$
