MSI.pdb
 OpenBabel07022418563D

 49 48  0  0  1  0  0  0  0  0999 V2000
    0.5310   -6.0630    1.0680 C   0  0  0  0  0  0  0  0  0  0  0  0
    2.2470   -6.1630    0.6160 S   0  0  0  0  0  0  0  0  0  0  0  0
    3.3710   -5.0300    1.3610 C   0  0  0  0  0  0  0  0  0  0  0  0
    3.3750   -3.6060    0.9230 C   0  0  0  0  0  0  0  0  0  0  0  0
    2.1180   -2.8450    1.0640 C   0  0  2  0  0  0  0  0  0  0  0  0
    1.0830   -3.4370    0.2560 N   0  0  0  0  0  0  0  0  0  0  0  0
    2.2450   -1.4210    0.6480 C   0  0  0  0  0  0  0  0  0  0  0  0
    3.0900   -0.6890    1.2230 O   0  0  0  0  0  0  0  0  0  0  0  0
    0.2860   -5.4010    1.9200 H   0  0  0  0  0  0  0  0  0  0  0  0
    0.1380   -7.0850    1.4320 H   0  0  0  0  0  0  0  0  0  0  0  0
   -0.1340   -5.8410    0.2130 H   0  0  0  0  0  0  0  0  0  0  0  0
    4.4290   -5.4560    1.2170 H   0  0  0  0  0  0  0  0  0  0  0  0
    3.2660   -5.0450    2.4950 H   0  0  0  0  0  0  0  0  0  0  0  0
    3.7270   -3.6360   -0.1670 H   0  0  0  0  0  0  0  0  0  0  0  0
    4.2500   -3.0630    1.4090 H   0  0  0  0  0  0  0  0  0  0  0  0
    1.7720   -2.9320    2.1180 H   0  0  0  0  0  0  0  0  0  0  0  0
    1.3600   -3.6540   -0.7100 H   0  0  0  0  0  0  0  0  0  0  0  0
    0.1510   -3.0030    0.3680 H   0  0  0  0  0  0  0  0  0  0  0  0
    2.0700    2.0850   -2.4700 O   0  0  0  0  0  0  0  0  0  0  0  0
    1.9790    0.7110   -2.2190 C   0  0  0  0  0  0  0  0  0  0  0  0
    1.5910    0.5580   -0.7710 C   0  0  2  0  0  0  0  0  0  0  0  0
    1.4600   -0.8280   -0.3720 N   0  0  0  0  0  0  0  0  0  0  0  0
    0.3120    1.3050   -0.5490 C   0  0  0  0  0  0  0  0  0  0  0  0
    0.1740    2.5030   -0.8180 O   0  0  0  0  0  0  0  0  0  0  0  0
    2.5230    2.2780   -3.3350 H   0  0  0  0  0  0  0  0  0  0  0  0
    1.1800    0.3360   -2.9050 H   0  0  0  0  0  0  0  0  0  0  0  0
    2.9470    0.2640   -2.4570 H   0  0  0  0  0  0  0  0  0  0  0  0
    2.3870    1.0310   -0.1590 H   0  0  0  0  0  0  0  0  0  0  0  0
    0.7670   -1.4290   -0.8430 H   0  0  0  0  0  0  0  0  0  0  0  0
   -2.1120    2.1630    3.9010 C   0  0  0  0  0  0  0  0  0  0  0  0
   -1.8710    1.2190    2.7410 C   0  0  0  0  0  0  0  0  0  0  0  0
   -2.1890    1.9800    1.4720 C   0  0  2  0  0  0  0  0  0  0  0  0
   -3.6650    2.3870    1.6020 C   0  0  0  0  0  0  0  0  0  0  0  0
   -2.0590    1.1500    0.2550 C   0  0  2  0  0  0  0  0  0  0  0  0
   -0.7830    0.5880   -0.0040 N   0  0  0  0  0  0  0  0  0  0  0  0
   -2.6130    1.8550   -0.9330 C   0  0  0  0  0  0  0  0  0  0  0  0
   -3.6870    2.4880   -0.9330 O   0  0  0  0  0  0  0  0  0  0  0  0
   -1.9030    1.8110   -2.1160 O   0  0  0  0  0  0  0  0  0  0  0  0
   -3.0520    1.9220    4.4440 H   0  0  0  0  0  0  0  0  0  0  0  0
   -2.1000    3.2280    3.5770 H   0  0  0  0  0  0  0  0  0  0  0  0
   -1.2910    2.0750    4.6610 H   0  0  0  0  0  0  0  0  0  0  0  0
   -2.5560    0.3520    2.8370 H   0  0  0  0  0  0  0  0  0  0  0  0
   -0.8440    0.8510    2.7840 H   0  0  0  0  0  0  0  0  0  0  0  0
   -1.6280    2.9240    1.4550 H   0  0  0  0  0  0  0  0  0  0  0  0
   -3.8340    3.4060    1.2070 H   0  0  0  0  0  0  0  0  0  0  0  0
   -4.3300    1.6450    1.1460 H   0  0  0  0  0  0  0  0  0  0  0  0
   -3.9560    2.4440    2.6860 H   0  0  0  0  0  0  0  0  0  0  0  0
   -2.7870    0.2740    0.3730 H   0  0  0  0  0  0  0  0  0  0  0  0
   -0.6510   -0.4480    0.2370 H   0  0  0  0  0  0  0  0  0  0  0  0
  1 10  1  0  0  0  0
  1  9  1  0  0  0  0
  2  1  1  0  0  0  0
  2  3  1  0  0  0  0
  3 13  1  0  0  0  0
  4  5  1  0  0  0  0
  4  3  1  0  0  0  0
  4 15  1  0  0  0  0
  5 16  1  1  0  0  0
  6 18  1  0  0  0  0
  6  5  1  0  0  0  0
  7  5  1  0  0  0  0
  7  8  2  0  0  0  0
 11  1  1  0  0  0  0
 12  3  1  0  0  0  0
 14  4  1  0  0  0  0
 17  6  1  0  0  0  0
 19 20  1  0  0  0  0
 20 21  1  0  0  0  0
 21 23  1  0  0  0  0
 21 22  1  0  0  0  0
 21 28  1  1  0  0  0
 22  7  1  0  0  0  0
 23 35  1  0  0  0  0
 24 23  2  0  0  0  0
 25 19  1  0  0  0  0
 26 20  1  0  0  0  0
 27 20  1  0  0  0  0
 29 22  1  0  0  0  0
 30 39  1  0  0  0  0
 30 41  1  0  0  0  0
 31 43  1  0  0  0  0
 31 42  1  0  0  0  0
 31 30  1  0  0  0  0
 32 44  1  6  0  0  0
 32 33  1  0  0  0  0
 32 31  1  0  0  0  0
 33 47  1  0  0  0  0
 34 48  1  1  0  0  0
 34 32  1  0  0  0  0
 35 49  1  0  0  0  0
 35 34  1  0  0  0  0
 36 37  1  0  0  0  0
 36 34  1  0  0  0  0
 38 36  2  0  0  0  0
 40 30  1  0  0  0  0
 45 33  1  0  0  0  0
 46 33  1  0  0  0  0
M  END
$$$$
