MSL.pdb
 OpenBabel07022418563D

 49 48  0  0  1  0  0  0  0  0999 V2000
    4.0690   -5.9510    3.3300 C   0  0  0  0  0  0  0  0  0  0  0  0
    4.3800   -5.2130    1.7020 S   0  0  0  0  0  0  0  0  0  0  0  0
    3.7580   -3.5090    1.6400 C   0  0  0  0  0  0  0  0  0  0  0  0
    2.2510   -3.5570    1.7500 C   0  0  0  0  0  0  0  0  0  0  0  0
    1.6270   -2.1790    1.7100 C   0  0  2  0  0  0  0  0  0  0  0  0
    0.1780   -2.4170    1.8320 N   0  0  0  0  0  0  0  0  0  0  0  0
    1.8100   -1.5060    0.3960 C   0  0  0  0  0  0  0  0  0  0  0  0
    2.9600   -1.1510   -0.0090 O   0  0  0  0  0  0  0  0  0  0  0  0
    4.1500   -5.2100    4.1520 H   0  0  0  0  0  0  0  0  0  0  0  0
    4.8230   -6.7450    3.4770 H   0  0  0  0  0  0  0  0  0  0  0  0
    3.0690   -6.4720    3.3460 H   0  0  0  0  0  0  0  0  0  0  0  0
    4.0140   -3.1240    0.6360 H   0  0  0  0  0  0  0  0  0  0  0  0
    4.2030   -2.8690    2.4240 H   0  0  0  0  0  0  0  0  0  0  0  0
    2.0120   -3.9830    2.7540 H   0  0  0  0  0  0  0  0  0  0  0  0
    1.7970   -4.1910    0.9880 H   0  0  0  0  0  0  0  0  0  0  0  0
    1.9760   -1.5330    2.5240 H   0  0  0  0  0  0  0  0  0  0  0  0
   -0.0320   -2.9170    2.7270 H   0  0  0  0  0  0  0  0  0  0  0  0
   -0.0370   -3.1270    1.0730 H   0  0  0  0  0  0  0  0  0  0  0  0
    0.4570   -0.5440   -4.0530 O   0  0  0  0  0  0  0  0  0  0  0  0
    0.2710   -1.3350   -2.9030 C   0  0  0  0  0  0  0  0  0  0  0  0
    0.8270   -0.5770   -1.7530 C   0  0  2  0  0  0  0  0  0  0  0  0
    0.7350   -1.2150   -0.4850 N   0  0  0  0  0  0  0  0  0  0  0  0
    0.1170    0.7520   -1.6760 C   0  0  0  0  0  0  0  0  0  0  0  0
    0.0650    1.4990   -2.6850 O   0  0  0  0  0  0  0  0  0  0  0  0
    0.7240   -1.1010   -4.8420 H   0  0  0  0  0  0  0  0  0  0  0  0
    0.8070   -2.3020   -3.0230 H   0  0  0  0  0  0  0  0  0  0  0  0
   -0.8170   -1.5190   -2.8410 H   0  0  0  0  0  0  0  0  0  0  0  0
    1.8930   -0.3440   -1.9660 H   0  0  0  0  0  0  0  0  0  0  0  0
   -0.2170   -1.5070   -0.1540 H   0  0  0  0  0  0  0  0  0  0  0  0
   -4.5530    1.3890    1.1760 C   0  0  0  0  0  0  0  0  0  0  0  0
   -3.0400    1.4740    1.1050 C   0  0  0  0  0  0  0  0  0  0  0  0
   -2.5800    2.1310    2.3860 C   0  0  0  0  0  0  0  0  0  0  0  0
   -2.6640    2.2420   -0.1110 C   0  0  0  0  0  0  0  0  0  0  0  0
   -1.1810    2.4130   -0.3320 C   0  0  2  0  0  0  0  0  0  0  0  0
   -0.4940    1.1610   -0.4600 N   0  0  0  0  0  0  0  0  0  0  0  0
   -0.5300    3.3510    0.5910 C   0  0  0  0  0  0  0  0  0  0  0  0
   -1.0280    4.4700    0.7930 O   0  0  0  0  0  0  0  0  0  0  0  0
    0.6310    2.9940    1.2310 O   0  0  0  0  0  0  0  0  0  0  0  0
   -4.9590    2.2440    0.5990 H   0  0  0  0  0  0  0  0  0  0  0  0
   -4.9120    1.4990    2.2220 H   0  0  0  0  0  0  0  0  0  0  0  0
   -4.9190    0.4490    0.7030 H   0  0  0  0  0  0  0  0  0  0  0  0
   -2.6370    0.4420    1.1260 H   0  0  0  0  0  0  0  0  0  0  0  0
   -3.1120    1.6910    3.2770 H   0  0  0  0  0  0  0  0  0  0  0  0
   -1.5070    1.9700    2.6010 H   0  0  0  0  0  0  0  0  0  0  0  0
   -2.8740    3.1980    2.3710 H   0  0  0  0  0  0  0  0  0  0  0  0
   -3.1370    3.2620   -0.0070 H   0  0  0  0  0  0  0  0  0  0  0  0
   -3.0980    1.8310   -1.0440 H   0  0  0  0  0  0  0  0  0  0  0  0
   -1.1110    2.9180   -1.3470 H   0  0  0  0  0  0  0  0  0  0  0  0
   -0.4230    0.4910    0.3670 H   0  0  0  0  0  0  0  0  0  0  0  0
  1 11  1  0  0  0  0
  1 10  1  0  0  0  0
  1  9  1  0  0  0  0
  2  1  1  0  0  0  0
  3  2  1  0  0  0  0
  3  4  1  0  0  0  0
  3 13  1  0  0  0  0
  4 14  1  0  0  0  0
  5  4  1  0  0  0  0
  5  6  1  0  0  0  0
  5 16  1  1  0  0  0
  6 17  1  0  0  0  0
  7  5  1  0  0  0  0
  8  7  2  0  0  0  0
 12  3  1  0  0  0  0
 15  4  1  0  0  0  0
 18  6  1  0  0  0  0
 19 20  1  0  0  0  0
 20 27  1  0  0  0  0
 20 21  1  0  0  0  0
 21 28  1  6  0  0  0
 21 23  1  0  0  0  0
 21 22  1  0  0  0  0
 22 29  1  0  0  0  0
 22  7  1  0  0  0  0
 23 35  1  0  0  0  0
 24 23  2  0  0  0  0
 25 19  1  0  0  0  0
 26 20  1  0  0  0  0
 30 40  1  0  0  0  0
 31 42  1  0  0  0  0
 31 30  1  0  0  0  0
 31 32  1  0  0  0  0
 32 44  1  0  0  0  0
 32 43  1  0  0  0  0
 33 46  1  0  0  0  0
 33 31  1  0  0  0  0
 34 48  1  6  0  0  0
 34 33  1  0  0  0  0
 34 36  1  0  0  0  0
 35 34  1  0  0  0  0
 35 49  1  0  0  0  0
 36 37  2  0  0  0  0
 36 38  1  0  0  0  0
 39 30  1  0  0  0  0
 41 30  1  0  0  0  0
 45 32  1  0  0  0  0
 47 33  1  0  0  0  0
M  END
$$$$
