MSM.pdb
 OpenBabel07022418563D

 47 46  0  0  1  0  0  0  0  0999 V2000
   -1.1880   -5.5710    1.0710 C   0  0  0  0  0  0  0  0  0  0  0  0
   -0.9440   -3.8370    1.4650 S   0  0  0  0  0  0  0  0  0  0  0  0
    0.4250   -3.0980    0.5730 C   0  0  0  0  0  0  0  0  0  0  0  0
    0.1280   -3.0450   -0.9270 C   0  0  0  0  0  0  0  0  0  0  0  0
    1.2760   -2.4220   -1.6810 C   0  0  2  0  0  0  0  0  0  0  0  0
    2.4370   -3.2530   -1.4300 N   0  0  0  0  0  0  0  0  0  0  0  0
    1.5510   -1.0400   -1.2980 C   0  0  0  0  0  0  0  0  0  0  0  0
    2.6870   -0.7510   -0.8120 O   0  0  0  0  0  0  0  0  0  0  0  0
   -2.2630   -5.8570    1.0070 H   0  0  0  0  0  0  0  0  0  0  0  0
   -0.7550   -6.1770    1.9020 H   0  0  0  0  0  0  0  0  0  0  0  0
   -0.6360   -5.8810    0.1500 H   0  0  0  0  0  0  0  0  0  0  0  0
    1.3600   -3.6290    0.7930 H   0  0  0  0  0  0  0  0  0  0  0  0
    0.5460   -2.0550    0.9530 H   0  0  0  0  0  0  0  0  0  0  0  0
   -0.8230   -2.5370   -1.0440 H   0  0  0  0  0  0  0  0  0  0  0  0
    0.0090   -4.0970   -1.2540 H   0  0  0  0  0  0  0  0  0  0  0  0
    1.0620   -2.5140   -2.7720 H   0  0  0  0  0  0  0  0  0  0  0  0
    3.1910   -2.9770   -2.0970 H   0  0  0  0  0  0  0  0  0  0  0  0
    2.2060   -4.2570   -1.6930 H   0  0  0  0  0  0  0  0  0  0  0  0
    0.9610    3.6590   -1.6220 O   0  0  0  0  0  0  0  0  0  0  0  0
    0.6710    2.3880   -2.1430 C   0  0  0  0  0  0  0  0  0  0  0  0
    0.9000    1.3970   -1.0500 C   0  0  2  0  0  0  0  0  0  0  0  0
    0.6460    0.0400   -1.4200 N   0  0  0  0  0  0  0  0  0  0  0  0
   -0.0150    1.7380    0.0930 C   0  0  0  0  0  0  0  0  0  0  0  0
    0.0320    2.8910    0.5870 O   0  0  0  0  0  0  0  0  0  0  0  0
    1.1950    4.2660   -2.3560 H   0  0  0  0  0  0  0  0  0  0  0  0
   -0.4070    2.4280   -2.4280 H   0  0  0  0  0  0  0  0  0  0  0  0
    1.3360    2.2010   -2.9870 H   0  0  0  0  0  0  0  0  0  0  0  0
    1.9250    1.4830   -0.6520 H   0  0  0  0  0  0  0  0  0  0  0  0
   -0.2980   -0.1730   -1.8190 H   0  0  0  0  0  0  0  0  0  0  0  0
    1.1970   -0.8690    4.9880 C   0  0  0  0  0  0  0  0  0  0  0  0
    0.6080    0.8260    5.0030 S   0  0  0  0  0  0  0  0  0  0  0  0
   -0.0480    1.3420    3.4020 C   0  0  0  0  0  0  0  0  0  0  0  0
   -1.2980    0.5870    3.0350 C   0  0  0  0  0  0  0  0  0  0  0  0
   -1.8540    1.0060    1.7030 C   0  0  2  0  0  0  0  0  0  0  0  0
   -0.9250    0.7920    0.6230 N   0  0  0  0  0  0  0  0  0  0  0  0
   -2.5270    2.3110    1.7020 C   0  0  0  0  0  0  0  0  0  0  0  0
   -2.4200    3.1640    0.8100 O   0  0  0  0  0  0  0  0  0  0  0  0
   -3.3620    2.6370    2.7890 O   0  0  0  0  0  0  0  0  0  0  0  0
    1.2930   -1.2560    6.0180 H   0  0  0  0  0  0  0  0  0  0  0  0
    2.2110   -0.9070    4.5050 H   0  0  0  0  0  0  0  0  0  0  0  0
    0.5390   -1.5660    4.4480 H   0  0  0  0  0  0  0  0  0  0  0  0
   -0.2920    2.4230    3.4340 H   0  0  0  0  0  0  0  0  0  0  0  0
    0.7550    1.2260    2.6470 H   0  0  0  0  0  0  0  0  0  0  0  0
   -1.0080   -0.4880    2.9390 H   0  0  0  0  0  0  0  0  0  0  0  0
   -2.0230    0.6430    3.8520 H   0  0  0  0  0  0  0  0  0  0  0  0
   -2.7020    0.2380    1.4920 H   0  0  0  0  0  0  0  0  0  0  0  0
   -0.8770   -0.1680    0.1370 H   0  0  0  0  0  0  0  0  0  0  0  0
  1  2  1  0  0  0  0
  1 10  1  0  0  0  0
  3 12  1  0  0  0  0
  3 13  1  0  0  0  0
  3  2  1  0  0  0  0
  4  3  1  0  0  0  0
  5 16  1  6  0  0  0
  5  6  1  0  0  0  0
  5  7  1  0  0  0  0
  5  4  1  0  0  0  0
  7  8  2  0  0  0  0
  9  1  1  0  0  0  0
 11  1  1  0  0  0  0
 14  4  1  0  0  0  0
 15  4  1  0  0  0  0
 17  6  1  0  0  0  0
 18  6  1  0  0  0  0
 20 19  1  0  0  0  0
 20 21  1  0  0  0  0
 21 28  1  1  0  0  0
 21 23  1  0  0  0  0
 22  7  1  0  0  0  0
 22 21  1  0  0  0  0
 23 24  2  0  0  0  0
 23 35  1  0  0  0  0
 25 19  1  0  0  0  0
 26 20  1  0  0  0  0
 27 20  1  0  0  0  0
 29 22  1  0  0  0  0
 30 31  1  0  0  0  0
 30 39  1  0  0  0  0
 32 42  1  0  0  0  0
 32 31  1  0  0  0  0
 33 32  1  0  0  0  0
 33 45  1  0  0  0  0
 34 46  1  6  0  0  0
 34 33  1  0  0  0  0
 35 34  1  0  0  0  0
 36 34  1  0  0  0  0
 36 38  1  0  0  0  0
 37 36  2  0  0  0  0
 40 30  1  0  0  0  0
 41 30  1  0  0  0  0
 43 32  1  0  0  0  0
 44 33  1  0  0  0  0
 47 35  1  0  0  0  0
M  END
$$$$
