MSN.pdb
 OpenBabel07022418563D

 44 43  0  0  1  0  0  0  0  0999 V2000
    0.1270   -5.7020    0.8640 C   0  0  0  0  0  0  0  0  0  0  0  0
    1.6260   -6.2620    0.0900 S   0  0  0  0  0  0  0  0  0  0  0  0
    2.6970   -4.9700   -0.5190 C   0  0  0  0  0  0  0  0  0  0  0  0
    2.1720   -4.1630   -1.6520 C   0  0  0  0  0  0  0  0  0  0  0  0
    0.9620   -3.3660   -1.3580 C   0  0  2  0  0  0  0  0  0  0  0  0
    0.4890   -2.6500   -2.5590 N   0  0  0  0  0  0  0  0  0  0  0  0
    1.1850   -2.3100   -0.3050 C   0  0  0  0  0  0  0  0  0  0  0  0
    1.6640   -2.5680    0.7930 O   0  0  0  0  0  0  0  0  0  0  0  0
    0.1310   -4.6780    1.2660 H   0  0  0  0  0  0  0  0  0  0  0  0
   -0.1070   -6.3530    1.7610 H   0  0  0  0  0  0  0  0  0  0  0  0
   -0.7550   -5.8290    0.1650 H   0  0  0  0  0  0  0  0  0  0  0  0
    3.6720   -5.4820   -0.8000 H   0  0  0  0  0  0  0  0  0  0  0  0
    2.9910   -4.3390    0.3490 H   0  0  0  0  0  0  0  0  0  0  0  0
    1.9460   -4.8860   -2.4840 H   0  0  0  0  0  0  0  0  0  0  0  0
    3.0190   -3.5100   -2.0280 H   0  0  0  0  0  0  0  0  0  0  0  0
    0.1400   -3.9930   -1.0200 H   0  0  0  0  0  0  0  0  0  0  0  0
    0.9350   -3.0310   -3.4190 H   0  0  0  0  0  0  0  0  0  0  0  0
   -0.5500   -2.6570   -2.5990 H   0  0  0  0  0  0  0  0  0  0  0  0
    1.5230    1.7380   -1.2470 O   0  0  0  0  0  0  0  0  0  0  0  0
    2.0050    1.1620   -0.0660 C   0  0  0  0  0  0  0  0  0  0  0  0
    1.0290    0.1150    0.4200 C   0  0  2  0  0  0  0  0  0  0  0  0
    0.8380   -0.9390   -0.5510 N   0  0  0  0  0  0  0  0  0  0  0  0
   -0.2650    0.7790    0.7000 C   0  0  0  0  0  0  0  0  0  0  0  0
   -1.2910    0.3680    0.1120 O   0  0  0  0  0  0  0  0  0  0  0  0
    1.9990    1.3710   -2.0420 H   0  0  0  0  0  0  0  0  0  0  0  0
    2.0440    1.9880    0.6740 H   0  0  0  0  0  0  0  0  0  0  0  0
    3.0220    0.7840   -0.1770 H   0  0  0  0  0  0  0  0  0  0  0  0
    1.4790   -0.3280    1.3330 H   0  0  0  0  0  0  0  0  0  0  0  0
    0.4310   -0.7240   -1.4840 H   0  0  0  0  0  0  0  0  0  0  0  0
   -1.2850    2.8910    5.6450 N   0  0  0  0  0  0  0  0  0  0  0  0
   -1.0470    2.9850    4.2450 C   0  0  0  0  0  0  0  0  0  0  0  0
   -0.0050    3.5900    3.8250 O   0  0  0  0  0  0  0  0  0  0  0  0
   -2.0340    2.3660    3.3270 C   0  0  0  0  0  0  0  0  0  0  0  0
   -1.6780    2.5070    1.8720 C   0  0  2  0  0  0  0  0  0  0  0  0
   -0.4100    1.8690    1.6090 N   0  0  0  0  0  0  0  0  0  0  0  0
   -1.6870    3.9320    1.5390 C   0  0  0  0  0  0  0  0  0  0  0  0
   -0.6540    4.4710    1.0740 O   0  0  0  0  0  0  0  0  0  0  0  0
   -2.8210    4.7000    1.7290 O   0  0  0  0  0  0  0  0  0  0  0  0
   -1.9150    2.1680    6.0080 H   0  0  0  0  0  0  0  0  0  0  0  0
   -0.8050    3.5700    6.2770 H   0  0  0  0  0  0  0  0  0  0  0  0
   -3.0150    2.8210    3.5690 H   0  0  0  0  0  0  0  0  0  0  0  0
   -2.1320    1.2840    3.6170 H   0  0  0  0  0  0  0  0  0  0  0  0
   -2.5080    2.0300    1.3000 H   0  0  0  0  0  0  0  0  0  0  0  0
    0.4740    2.1710    2.0690 H   0  0  0  0  0  0  0  0  0  0  0  0
  1  9  1  0  0  0  0
  1 10  1  0  0  0  0
  2  1  1  0  0  0  0
  3  2  1  0  0  0  0
  3 13  1  0  0  0  0
  4  5  1  0  0  0  0
  4  3  1  0  0  0  0
  5 16  1  1  0  0  0
  5  7  1  0  0  0  0
  6  5  1  0  0  0  0
  7  8  2  0  0  0  0
 11  1  1  0  0  0  0
 12  3  1  0  0  0  0
 14  4  1  0  0  0  0
 15  4  1  0  0  0  0
 17  6  1  0  0  0  0
 18  6  1  0  0  0  0
 19 20  1  0  0  0  0
 20 21  1  0  0  0  0
 20 26  1  0  0  0  0
 21 23  1  0  0  0  0
 21 28  1  1  0  0  0
 22  7  1  0  0  0  0
 22 21  1  0  0  0  0
 23 35  1  0  0  0  0
 24 23  2  0  0  0  0
 25 19  1  0  0  0  0
 27 20  1  0  0  0  0
 29 22  1  0  0  0  0
 30 39  1  0  0  0  0
 30 40  1  0  0  0  0
 31 30  1  0  0  0  0
 32 31  2  0  0  0  0
 33 41  1  0  0  0  0
 33 42  1  0  0  0  0
 33 31  1  0  0  0  0
 34 43  1  6  0  0  0
 34 33  1  0  0  0  0
 35 34  1  0  0  0  0
 35 44  1  0  0  0  0
 36 38  1  0  0  0  0
 36 34  1  0  0  0  0
 37 36  2  0  0  0  0
M  END
$$$$
