MSP.pdb
 OpenBabel07022418563D

 44 44  0  0  1  0  0  0  0  0999 V2000
   -0.6670   -4.7550    2.1640 C   0  0  0  0  0  0  0  0  0  0  0  0
    0.4440   -5.6900    1.1260 S   0  0  0  0  0  0  0  0  0  0  0  0
    0.7350   -5.0400   -0.4980 C   0  0  0  0  0  0  0  0  0  0  0  0
    1.5340   -3.7720   -0.5640 C   0  0  0  0  0  0  0  0  0  0  0  0
    0.8190   -2.6720    0.1710 C   0  0  2  0  0  0  0  0  0  0  0  0
   -0.4600   -2.4430   -0.4080 N   0  0  0  0  0  0  0  0  0  0  0  0
    1.6550   -1.4350    0.2400 C   0  0  0  0  0  0  0  0  0  0  0  0
    2.7980   -1.5750    0.7480 O   0  0  0  0  0  0  0  0  0  0  0  0
   -1.3650   -4.0880    1.6360 H   0  0  0  0  0  0  0  0  0  0  0  0
   -0.1430   -4.2480    3.0270 H   0  0  0  0  0  0  0  0  0  0  0  0
   -1.3450   -5.4900    2.7120 H   0  0  0  0  0  0  0  0  0  0  0  0
   -0.2900   -4.8380   -0.9570 H   0  0  0  0  0  0  0  0  0  0  0  0
    1.1760   -5.8160   -1.1880 H   0  0  0  0  0  0  0  0  0  0  0  0
    2.5210   -3.9990   -0.0550 H   0  0  0  0  0  0  0  0  0  0  0  0
    1.7510   -3.4720   -1.6150 H   0  0  0  0  0  0  0  0  0  0  0  0
    0.6960   -2.9840    1.2210 H   0  0  0  0  0  0  0  0  0  0  0  0
   -1.2190   -2.1640    0.2120 H   0  0  0  0  0  0  0  0  0  0  0  0
   -0.6710   -2.8670   -1.3040 H   0  0  0  0  0  0  0  0  0  0  0  0
    0.9100    1.8080   -2.1020 O   0  0  0  0  0  0  0  0  0  0  0  0
    2.1920    1.5400   -1.5900 C   0  0  0  0  0  0  0  0  0  0  0  0
    1.9540    0.9840   -0.1820 C   0  0  2  0  0  0  0  0  0  0  0  0
    1.1700   -0.1950   -0.2430 N   0  0  0  0  0  0  0  0  0  0  0  0
    1.4390    2.0920    0.6290 C   0  0  0  0  0  0  0  0  0  0  0  0
    2.1530    3.1620    0.5720 O   0  0  0  0  0  0  0  0  0  0  0  0
    0.8640    1.6040   -3.0760 H   0  0  0  0  0  0  0  0  0  0  0  0
    2.6260    0.7340   -2.2220 H   0  0  0  0  0  0  0  0  0  0  0  0
    2.8380    2.4160   -1.5770 H   0  0  0  0  0  0  0  0  0  0  0  0
    2.9900    0.7310    0.2060 H   0  0  0  0  0  0  0  0  0  0  0  0
    0.2140   -0.1850   -0.6580 H   0  0  0  0  0  0  0  0  0  0  0  0
    0.2950    2.1270    1.4360 N   0  0  0  0  0  0  0  0  0  0  0  0
   -0.1180    3.3380    2.1740 C   0  0  0  0  0  0  0  0  0  0  0  0
   -0.4420    2.7690    3.5200 C   0  0  0  0  0  0  0  0  0  0  0  0
   -0.8190    1.3300    3.3020 C   0  0  0  0  0  0  0  0  0  0  0  0
   -0.7060    1.1550    1.7850 C   0  0  1  0  0  0  0  0  0  0  0  0
   -2.0260    1.4190    1.2000 C   0  0  0  0  0  0  0  0  0  0  0  0
   -2.3240    2.3720    0.4600 O   0  0  0  0  0  0  0  0  0  0  0  0
   -3.0470    0.5160    1.5020 O   0  0  0  0  0  0  0  0  0  0  0  0
    0.6950    4.0860    2.2100 H   0  0  0  0  0  0  0  0  0  0  0  0
   -0.9730    3.8330    1.6780 H   0  0  0  0  0  0  0  0  0  0  0  0
   -1.2930    3.3340    3.9560 H   0  0  0  0  0  0  0  0  0  0  0  0
    0.4670    2.8650    4.1710 H   0  0  0  0  0  0  0  0  0  0  0  0
   -0.1610    0.6230    3.8440 H   0  0  0  0  0  0  0  0  0  0  0  0
   -1.8650    1.1000    3.6350 H   0  0  0  0  0  0  0  0  0  0  0  0
   -0.3730    0.1130    1.5760 H   0  0  0  0  0  0  0  0  0  0  0  0
  1 11  1  0  0  0  0
  1 10  1  0  0  0  0
  2  1  1  0  0  0  0
  3  2  1  0  0  0  0
  4  3  1  0  0  0  0
  4 14  1  0  0  0  0
  4  5  1  0  0  0  0
  5  7  1  0  0  0  0
  5 16  1  1  0  0  0
  6  5  1  0  0  0  0
  6 17  1  0  0  0  0
  7  8  2  0  0  0  0
  9  1  1  0  0  0  0
 12  3  1  0  0  0  0
 13  3  1  0  0  0  0
 15  4  1  0  0  0  0
 18  6  1  0  0  0  0
 19 20  1  0  0  0  0
 20 27  1  0  0  0  0
 20 21  1  0  0  0  0
 21 28  1  1  0  0  0
 21 23  1  0  0  0  0
 22 21  1  0  0  0  0
 22  7  1  0  0  0  0
 23 30  1  0  0  0  0
 24 23  2  0  0  0  0
 25 19  1  0  0  0  0
 26 20  1  0  0  0  0
 29 22  1  0  0  0  0
 30 34  1  0  0  0  0
 30 31  1  0  0  0  0
 31 38  1  0  0  0  0
 31 32  1  0  0  0  0
 32 40  1  0  0  0  0
 32 41  1  0  0  0  0
 33 32  1  0  0  0  0
 33 43  1  0  0  0  0
 33 42  1  0  0  0  0
 34 44  1  6  0  0  0
 34 33  1  0  0  0  0
 35 37  1  0  0  0  0
 35 34  1  0  0  0  0
 36 35  2  0  0  0  0
 39 31  1  0  0  0  0
M  END
$$$$
