MSQ.pdb
 OpenBabel07022418563D

 47 46  0  0  1  0  0  0  0  0999 V2000
   -0.0100   -4.2610    3.8640 C   0  0  0  0  0  0  0  0  0  0  0  0
    1.7520   -4.5780    3.8530 S   0  0  0  0  0  0  0  0  0  0  0  0
    2.8300   -3.2170    4.1340 C   0  0  0  0  0  0  0  0  0  0  0  0
    3.0560   -2.2040    3.0770 C   0  0  0  0  0  0  0  0  0  0  0  0
    1.8890   -1.4600    2.5700 C   0  0  2  0  0  0  0  0  0  0  0  0
    0.8850   -2.2310    1.9370 N   0  0  0  0  0  0  0  0  0  0  0  0
    2.2900   -0.3470    1.6360 C   0  0  0  0  0  0  0  0  0  0  0  0
    3.1650    0.4950    1.9200 O   0  0  0  0  0  0  0  0  0  0  0  0
   -0.1980   -3.2290    4.1840 H   0  0  0  0  0  0  0  0  0  0  0  0
   -0.5470   -4.9800    4.5630 H   0  0  0  0  0  0  0  0  0  0  0  0
   -0.4190   -4.3970    2.8430 H   0  0  0  0  0  0  0  0  0  0  0  0
    3.8430   -3.6550    4.4600 H   0  0  0  0  0  0  0  0  0  0  0  0
    2.5190   -2.7030    5.1000 H   0  0  0  0  0  0  0  0  0  0  0  0
    3.7920   -1.4450    3.5160 H   0  0  0  0  0  0  0  0  0  0  0  0
    3.6830   -2.6410    2.2310 H   0  0  0  0  0  0  0  0  0  0  0  0
    1.3980   -0.9470    3.4500 H   0  0  0  0  0  0  0  0  0  0  0  0
    1.1730   -2.8890    1.2130 H   0  0  0  0  0  0  0  0  0  0  0  0
   -0.0320   -1.7940    1.8390 H   0  0  0  0  0  0  0  0  0  0  0  0
    2.8790    1.0690   -2.7110 O   0  0  0  0  0  0  0  0  0  0  0  0
    2.5850    0.0790   -1.7880 C   0  0  0  0  0  0  0  0  0  0  0  0
    1.9540    0.7780   -0.5880 C   0  0  2  0  0  0  0  0  0  0  0  0
    1.6470   -0.2470    0.3740 N   0  0  0  0  0  0  0  0  0  0  0  0
    0.7460    1.5170   -1.0220 C   0  0  0  0  0  0  0  0  0  0  0  0
    0.9140    2.4640   -1.8650 O   0  0  0  0  0  0  0  0  0  0  0  0
    3.4730    1.7480   -2.3450 H   0  0  0  0  0  0  0  0  0  0  0  0
    1.7700   -0.5400   -2.2380 H   0  0  0  0  0  0  0  0  0  0  0  0
    3.4560   -0.5110   -1.4900 H   0  0  0  0  0  0  0  0  0  0  0  0
    2.7400    1.4540   -0.1950 H   0  0  0  0  0  0  0  0  0  0  0  0
    0.9110   -0.9540    0.1280 H   0  0  0  0  0  0  0  0  0  0  0  0
   -4.2860   -1.4950    0.4730 N   0  0  0  0  0  0  0  0  0  0  0  0
   -3.9310   -0.2430   -0.1610 C   0  0  0  0  0  0  0  0  0  0  0  0
   -4.4390    0.7580    0.3650 O   0  0  0  0  0  0  0  0  0  0  0  0
   -3.0580   -0.1930   -1.3080 C   0  0  0  0  0  0  0  0  0  0  0  0
   -2.5490    1.0750   -1.8360 C   0  0  0  0  0  0  0  0  0  0  0  0
   -1.6900    1.9270   -0.9640 C   0  0  2  0  0  0  0  0  0  0  0  0
   -0.5360    1.1860   -0.5220 N   0  0  0  0  0  0  0  0  0  0  0  0
   -2.4350    2.6390    0.0550 C   0  0  0  0  0  0  0  0  0  0  0  0
   -3.3830    3.4020   -0.3440 O   0  0  0  0  0  0  0  0  0  0  0  0
   -2.2270    2.5820    1.4250 O   0  0  0  0  0  0  0  0  0  0  0  0
   -5.2580   -1.6400    0.7880 H   0  0  0  0  0  0  0  0  0  0  0  0
   -3.5890   -2.2420    0.6140 H   0  0  0  0  0  0  0  0  0  0  0  0
   -2.1390   -0.8650   -1.1320 H   0  0  0  0  0  0  0  0  0  0  0  0
   -3.5210   -0.7430   -2.2080 H   0  0  0  0  0  0  0  0  0  0  0  0
   -3.4210    1.7290   -2.1720 H   0  0  0  0  0  0  0  0  0  0  0  0
   -2.0350    0.8670   -2.8270 H   0  0  0  0  0  0  0  0  0  0  0  0
   -1.2740    2.7310   -1.6680 H   0  0  0  0  0  0  0  0  0  0  0  0
   -0.6210    0.3890    0.1760 H   0  0  0  0  0  0  0  0  0  0  0  0
  1  9  1  0  0  0  0
  1 10  1  0  0  0  0
  2  1  1  0  0  0  0
  2  3  1  0  0  0  0
  3 12  1  0  0  0  0
  3 13  1  0  0  0  0
  4 14  1  0  0  0  0
  4  3  1  0  0  0  0
  5  4  1  0  0  0  0
  5 16  1  1  0  0  0
  6  5  1  0  0  0  0
  7  8  2  0  0  0  0
  7  5  1  0  0  0  0
 11  1  1  0  0  0  0
 15  4  1  0  0  0  0
 17  6  1  0  0  0  0
 18  6  1  0  0  0  0
 19 25  1  0  0  0  0
 19 20  1  0  0  0  0
 20 27  1  0  0  0  0
 20 21  1  0  0  0  0
 21 28  1  1  0  0  0
 21 22  1  0  0  0  0
 22  7  1  0  0  0  0
 23 21  1  0  0  0  0
 23 36  1  0  0  0  0
 24 23  2  0  0  0  0
 26 20  1  0  0  0  0
 29 22  1  0  0  0  0
 30 41  1  0  0  0  0
 30 40  1  0  0  0  0
 31 32  2  0  0  0  0
 31 30  1  0  0  0  0
 33 42  1  0  0  0  0
 33 31  1  0  0  0  0
 34 33  1  0  0  0  0
 34 35  1  0  0  0  0
 35 46  1  6  0  0  0
 35 36  1  0  0  0  0
 35 37  1  0  0  0  0
 36 47  1  0  0  0  0
 37 39  1  0  0  0  0
 38 37  2  0  0  0  0
 43 33  1  0  0  0  0
 44 34  1  0  0  0  0
 45 34  1  0  0  0  0
M  END
$$$$
