MST.pdb
 OpenBabel07022418563D

 44 43  0  0  1  0  0  0  0  0999 V2000
   -1.7960   -4.5360   -1.0000 C   0  0  0  0  0  0  0  0  0  0  0  0
   -0.5140   -5.2540   -2.0050 S   0  0  0  0  0  0  0  0  0  0  0  0
    0.6320   -4.1160   -2.7540 C   0  0  0  0  0  0  0  0  0  0  0  0
    1.5690   -3.4070   -1.8190 C   0  0  0  0  0  0  0  0  0  0  0  0
    0.8130   -2.5970   -0.8430 C   0  0  2  0  0  0  0  0  0  0  0  0
    0.0190   -1.6300   -1.5590 N   0  0  0  0  0  0  0  0  0  0  0  0
    1.6870   -1.9380    0.1760 C   0  0  0  0  0  0  0  0  0  0  0  0
    2.4450   -2.6420    0.8900 O   0  0  0  0  0  0  0  0  0  0  0  0
   -2.0280   -3.4850   -1.1950 H   0  0  0  0  0  0  0  0  0  0  0  0
   -1.6210   -4.7760    0.0870 H   0  0  0  0  0  0  0  0  0  0  0  0
   -2.7520   -5.1180   -1.2130 H   0  0  0  0  0  0  0  0  0  0  0  0
    0.1080   -3.3620   -3.4270 H   0  0  0  0  0  0  0  0  0  0  0  0
    1.2640   -4.6900   -3.4770 H   0  0  0  0  0  0  0  0  0  0  0  0
    2.1220   -4.2250   -1.2650 H   0  0  0  0  0  0  0  0  0  0  0  0
    2.2760   -2.8240   -2.4470 H   0  0  0  0  0  0  0  0  0  0  0  0
    0.1340   -3.2360   -0.2580 H   0  0  0  0  0  0  0  0  0  0  0  0
   -0.5910   -1.1130   -0.8850 H   0  0  0  0  0  0  0  0  0  0  0  0
    0.5950   -0.9560   -2.1000 H   0  0  0  0  0  0  0  0  0  0  0  0
    2.7430    1.9540   -0.1380 O   0  0  0  0  0  0  0  0  0  0  0  0
    3.5020    1.0160    0.5740 C   0  0  0  0  0  0  0  0  0  0  0  0
    2.5560    0.1090    1.3710 C   0  0  2  0  0  0  0  0  0  0  0  0
    1.7050   -0.5330    0.3810 N   0  0  0  0  0  0  0  0  0  0  0  0
    1.7800    0.8890    2.3550 C   0  0  0  0  0  0  0  0  0  0  0  0
    2.3760    1.5050    3.2780 O   0  0  0  0  0  0  0  0  0  0  0  0
    2.4270    1.5130   -0.9460 H   0  0  0  0  0  0  0  0  0  0  0  0
    4.2140    1.5380    1.2120 H   0  0  0  0  0  0  0  0  0  0  0  0
    4.0320    0.3910   -0.1730 H   0  0  0  0  0  0  0  0  0  0  0  0
    3.1640   -0.6340    1.9220 H   0  0  0  0  0  0  0  0  0  0  0  0
    1.0660    0.0250   -0.2260 H   0  0  0  0  0  0  0  0  0  0  0  0
   -2.3500    2.3030    1.8380 C   0  0  0  0  0  0  0  0  0  0  0  0
   -1.2630    2.8340    2.7340 C   0  0  1  0  0  0  0  0  0  0  0  0
   -1.9130    3.4360    3.8290 O   0  0  0  0  0  0  0  0  0  0  0  0
   -0.3930    1.7600    3.2980 C   0  0  2  0  0  0  0  0  0  0  0  0
    0.3670    1.0110    2.3540 N   0  0  0  0  0  0  0  0  0  0  0  0
   -1.2640    0.8290    4.0640 C   0  0  0  0  0  0  0  0  0  0  0  0
   -1.2520   -0.4070    3.8330 O   0  0  0  0  0  0  0  0  0  0  0  0
   -2.1310    1.2600    5.0660 O   0  0  0  0  0  0  0  0  0  0  0  0
   -2.1640    2.4910    0.7730 H   0  0  0  0  0  0  0  0  0  0  0  0
   -3.3470    2.7380    2.0720 H   0  0  0  0  0  0  0  0  0  0  0  0
   -2.4570    1.2080    1.9660 H   0  0  0  0  0  0  0  0  0  0  0  0
   -0.6960    3.6660    2.2640 H   0  0  0  0  0  0  0  0  0  0  0  0
   -1.3190    4.0470    4.3110 H   0  0  0  0  0  0  0  0  0  0  0  0
    0.2970    2.2350    4.0330 H   0  0  0  0  0  0  0  0  0  0  0  0
   -0.1480    0.5080    1.5970 H   0  0  0  0  0  0  0  0  0  0  0  0
  1 10  1  0  0  0  0
  2  1  1  0  0  0  0
  3  2  1  0  0  0  0
  3  4  1  0  0  0  0
  4 14  1  0  0  0  0
  4  5  1  0  0  0  0
  5 16  1  1  0  0  0
  5  7  1  0  0  0  0
  6 17  1  0  0  0  0
  6  5  1  0  0  0  0
  7 22  1  0  0  0  0
  7  8  2  0  0  0  0
  9  1  1  0  0  0  0
 11  1  1  0  0  0  0
 12  3  1  0  0  0  0
 13  3  1  0  0  0  0
 15  4  1  0  0  0  0
 18  6  1  0  0  0  0
 19 20  1  0  0  0  0
 20 26  1  0  0  0  0
 20 21  1  0  0  0  0
 21 28  1  1  0  0  0
 21 23  1  0  0  0  0
 22 21  1  0  0  0  0
 23 24  2  0  0  0  0
 25 19  1  0  0  0  0
 27 20  1  0  0  0  0
 29 22  1  0  0  0  0
 30 40  1  0  0  0  0
 30 39  1  0  0  0  0
 30 31  1  0  0  0  0
 31 41  1  6  0  0  0
 31 33  1  0  0  0  0
 31 32  1  0  0  0  0
 32 42  1  0  0  0  0
 33 43  1  1  0  0  0
 33 35  1  0  0  0  0
 34 23  1  0  0  0  0
 34 33  1  0  0  0  0
 35 37  1  0  0  0  0
 36 35  2  0  0  0  0
 38 30  1  0  0  0  0
 44 34  1  0  0  0  0
M  END
$$$$
