MSW.pdb
 OpenBabel07022418573D

 54 55  0  0  1  0  0  0  0  0999 V2000
    1.1760   -4.0840    4.3010 C   0  0  0  0  0  0  0  0  0  0  0  0
    2.2930   -3.5220    3.0080 S   0  0  0  0  0  0  0  0  0  0  0  0
    1.4120   -2.6380    1.6950 C   0  0  0  0  0  0  0  0  0  0  0  0
    2.3250   -2.1640    0.6110 C   0  0  0  0  0  0  0  0  0  0  0  0
    3.3900   -1.2190    1.0930 C   0  0  2  0  0  0  0  0  0  0  0  0
    4.2480   -1.7860    2.0810 N   0  0  0  0  0  0  0  0  0  0  0  0
    2.8870    0.0750    1.5420 C   0  0  0  0  0  0  0  0  0  0  0  0
    3.2280    0.4620    2.7150 O   0  0  0  0  0  0  0  0  0  0  0  0
    0.9250   -3.2700    5.0090 H   0  0  0  0  0  0  0  0  0  0  0  0
    0.1970   -4.4230    3.8700 H   0  0  0  0  0  0  0  0  0  0  0  0
    1.6250   -4.9070    4.8740 H   0  0  0  0  0  0  0  0  0  0  0  0
    0.7060   -3.3720    1.2290 H   0  0  0  0  0  0  0  0  0  0  0  0
    0.7760   -1.8270    2.1040 H   0  0  0  0  0  0  0  0  0  0  0  0
    1.7300   -1.7200   -0.2010 H   0  0  0  0  0  0  0  0  0  0  0  0
    2.8260   -3.0630    0.1810 H   0  0  0  0  0  0  0  0  0  0  0  0
    4.0370   -1.0100    0.1880 H   0  0  0  0  0  0  0  0  0  0  0  0
    3.9610   -1.5250    3.0610 H   0  0  0  0  0  0  0  0  0  0  0  0
    5.2660   -1.5940    1.9330 H   0  0  0  0  0  0  0  0  0  0  0  0
    1.8340    3.3550   -0.8150 O   0  0  0  0  0  0  0  0  0  0  0  0
    2.1800    3.3420    0.5240 C   0  0  0  0  0  0  0  0  0  0  0  0
    1.6090    2.1560    1.2730 C   0  0  2  0  0  0  0  0  0  0  0  0
    2.0510    0.9010    0.7420 N   0  0  0  0  0  0  0  0  0  0  0  0
    0.1310    2.1760    1.2790 C   0  0  0  0  0  0  0  0  0  0  0  0
   -0.4200    3.2170    1.7350 O   0  0  0  0  0  0  0  0  0  0  0  0
    2.4820    2.7740   -1.2900 H   0  0  0  0  0  0  0  0  0  0  0  0
    3.2710    3.4100    0.7050 H   0  0  0  0  0  0  0  0  0  0  0  0
    1.7300    4.2490    0.9820 H   0  0  0  0  0  0  0  0  0  0  0  0
    1.9680    2.2880    2.3290 H   0  0  0  0  0  0  0  0  0  0  0  0
    1.7980    0.5550   -0.1960 H   0  0  0  0  0  0  0  0  0  0  0  0
   -0.6750    1.1250    0.8170 N   0  0  0  0  0  0  0  0  0  0  0  0
   -2.1540    1.2160    0.8530 C   0  0  1  0  0  0  0  0  0  0  0  0
   -2.6690    1.2670   -0.5480 C   0  0  0  0  0  0  0  0  0  0  0  0
   -2.3060    0.1190   -1.3790 C   0  0  0  0  0  0  0  0  0  0  0  0
   -1.1760    0.0580   -2.2230 C   0  0  0  0  0  0  0  0  0  0  0  0
   -1.1070   -1.1280   -2.7940 N   0  0  0  0  0  0  0  0  0  0  0  0
   -2.1500   -1.8620   -2.3640 C   0  0  0  0  0  0  0  0  0  0  0  0
   -2.5310   -3.1540   -2.6710 C   0  0  0  0  0  0  0  0  0  0  0  0
   -3.6460   -3.7220   -2.1320 C   0  0  0  0  0  0  0  0  0  0  0  0
   -4.3860   -2.9520   -1.2620 C   0  0  0  0  0  0  0  0  0  0  0  0
   -4.0350   -1.6740   -0.9400 C   0  0  0  0  0  0  0  0  0  0  0  0
   -2.9010   -1.1110   -1.4920 C   0  0  0  0  0  0  0  0  0  0  0  0
   -2.6570    0.1110    1.6390 C   0  0  0  0  0  0  0  0  0  0  0  0
   -3.8660    0.0460    1.9340 O   0  0  0  0  0  0  0  0  0  0  0  0
   -1.8060   -0.8920    2.0750 O   0  0  0  0  0  0  0  0  0  0  0  0
   -0.2500    0.2680    0.4430 H   0  0  0  0  0  0  0  0  0  0  0  0
   -2.3930    2.2230    1.3160 H   0  0  0  0  0  0  0  0  0  0  0  0
   -3.7890    1.3100   -0.4860 H   0  0  0  0  0  0  0  0  0  0  0  0
   -2.3860    2.2420   -1.0320 H   0  0  0  0  0  0  0  0  0  0  0  0
   -0.5100    0.9190   -2.3260 H   0  0  0  0  0  0  0  0  0  0  0  0
   -0.3620   -1.4510   -3.4740 H   0  0  0  0  0  0  0  0  0  0  0  0
   -1.9290   -3.7520   -3.3670 H   0  0  0  0  0  0  0  0  0  0  0  0
   -3.9250   -4.7450   -2.3910 H   0  0  0  0  0  0  0  0  0  0  0  0
   -5.2820   -3.3850   -0.8190 H   0  0  0  0  0  0  0  0  0  0  0  0
   -4.6450   -1.0960   -0.2730 H   0  0  0  0  0  0  0  0  0  0  0  0
  1 11  1  0  0  0  0
  1  9  1  0  0  0  0
  2  1  1  0  0  0  0
  3 13  1  0  0  0  0
  3  2  1  0  0  0  0
  4  5  1  0  0  0  0
  4  3  1  0  0  0  0
  5 16  1  6  0  0  0
  5  7  1  0  0  0  0
  5  6  1  0  0  0  0
  6 17  1  0  0  0  0
  7  8  2  0  0  0  0
 10  1  1  0  0  0  0
 12  3  1  0  0  0  0
 14  4  1  0  0  0  0
 15  4  1  0  0  0  0
 18  6  1  0  0  0  0
 19 20  1  0  0  0  0
 20 26  1  0  0  0  0
 20 27  1  0  0  0  0
 20 21  1  0  0  0  0
 21 23  1  0  0  0  0
 21 28  1  1  0  0  0
 22 21  1  0  0  0  0
 22  7  1  0  0  0  0
 23 24  2  0  0  0  0
 25 19  1  0  0  0  0
 29 22  1  0  0  0  0
 30 31  1  0  0  0  0
 30 23  1  0  0  0  0
 31 46  1  1  0  0  0
 31 42  1  0  0  0  0
 32 47  1  0  0  0  0
 32 31  1  0  0  0  0
 33 32  1  0  0  0  0
 34 33  2  0  0  0  0
 35 36  1  0  0  0  0
 35 34  1  0  0  0  0
 36 41  1  0  0  0  0
 37 36  2  0  0  0  0
 37 38  1  0  0  0  0
 38 39  2  0  0  0  0
 39 40  1  0  0  0  0
 39 53  1  0  0  0  0
 40 54  1  0  0  0  0
 41 33  1  0  0  0  0
 41 40  2  0  0  0  0
 42 43  2  0  0  0  0
 42 44  1  0  0  0  0
 45 30  1  0  0  0  0
 48 32  1  0  0  0  0
 49 34  1  0  0  0  0
 50 35  1  0  0  0  0
 51 37  1  0  0  0  0
 52 38  1  0  0  0  0
M  END
$$$$
