MSY.pdb
 OpenBabel07022418573D

 51 51  0  0  1  0  0  0  0  0999 V2000
    4.5020   -3.2450    5.9650 C   0  0  0  0  0  0  0  0  0  0  0  0
    5.5420   -2.8480    4.5180 S   0  0  0  0  0  0  0  0  0  0  0  0
    4.6180   -3.2410    2.9830 C   0  0  0  0  0  0  0  0  0  0  0  0
    3.4630   -2.2960    2.9110 C   0  0  0  0  0  0  0  0  0  0  0  0
    2.6100   -2.5220    1.6760 C   0  0  2  0  0  0  0  0  0  0  0  0
    3.4390   -2.3280    0.5030 N   0  0  0  0  0  0  0  0  0  0  0  0
    1.5620   -1.4400    1.6800 C   0  0  0  0  0  0  0  0  0  0  0  0
    0.7430   -1.4100    2.6310 O   0  0  0  0  0  0  0  0  0  0  0  0
    5.0950   -3.1020    6.8740 H   0  0  0  0  0  0  0  0  0  0  0  0
    3.5760   -2.6350    5.9720 H   0  0  0  0  0  0  0  0  0  0  0  0
    4.1410   -4.3090    5.8580 H   0  0  0  0  0  0  0  0  0  0  0  0
    5.2640   -3.1030    2.0980 H   0  0  0  0  0  0  0  0  0  0  0  0
    4.3040   -4.3020    3.0640 H   0  0  0  0  0  0  0  0  0  0  0  0
    2.8480   -2.4610    3.8340 H   0  0  0  0  0  0  0  0  0  0  0  0
    3.8420   -1.2630    2.9660 H   0  0  0  0  0  0  0  0  0  0  0  0
    2.1560   -3.5150    1.6580 H   0  0  0  0  0  0  0  0  0  0  0  0
    3.8890   -3.2270    0.2290 H   0  0  0  0  0  0  0  0  0  0  0  0
    4.2260   -1.6500    0.6950 H   0  0  0  0  0  0  0  0  0  0  0  0
    2.0810    2.0170   -0.4410 O   0  0  0  0  0  0  0  0  0  0  0  0
    1.2200    1.9080    0.6530 C   0  0  0  0  0  0  0  0  0  0  0  0
    0.4870    0.5840    0.6220 C   0  0  2  0  0  0  0  0  0  0  0  0
    1.4630   -0.4680    0.6700 N   0  0  0  0  0  0  0  0  0  0  0  0
   -0.3150    0.5100   -0.6470 C   0  0  0  0  0  0  0  0  0  0  0  0
   -0.1050   -0.3800   -1.5080 O   0  0  0  0  0  0  0  0  0  0  0  0
    2.1440    2.9660   -0.6970 H   0  0  0  0  0  0  0  0  0  0  0  0
    1.7730    2.0240    1.6070 H   0  0  0  0  0  0  0  0  0  0  0  0
    0.4970    2.7700    0.6070 H   0  0  0  0  0  0  0  0  0  0  0  0
   -0.2020    0.5720    1.4950 H   0  0  0  0  0  0  0  0  0  0  0  0
    2.1600   -0.5210   -0.1100 H   0  0  0  0  0  0  0  0  0  0  0  0
   -4.5650   -3.5880    0.9040 O   0  0  0  0  0  0  0  0  0  0  0  0
   -4.3220   -2.3760    0.2350 C   0  0  0  0  0  0  0  0  0  0  0  0
   -4.3440   -2.3820   -1.1380 C   0  0  0  0  0  0  0  0  0  0  0  0
   -4.1130   -1.2230   -1.8580 C   0  0  0  0  0  0  0  0  0  0  0  0
   -3.8620   -0.0760   -1.1360 C   0  0  0  0  0  0  0  0  0  0  0  0
   -3.6050    1.1940   -1.8370 C   0  0  0  0  0  0  0  0  0  0  0  0
   -2.1390    1.4150   -2.1240 C   0  0  2  0  0  0  0  0  0  0  0  0
   -1.3440    1.4490   -0.9200 N   0  0  0  0  0  0  0  0  0  0  0  0
   -1.9990    2.6390   -2.9330 C   0  0  0  0  0  0  0  0  0  0  0  0
   -1.2670    3.6080   -2.6070 O   0  0  0  0  0  0  0  0  0  0  0  0
   -3.8380   -0.0620    0.2420 C   0  0  0  0  0  0  0  0  0  0  0  0
   -4.0720   -1.2290    0.9450 C   0  0  0  0  0  0  0  0  0  0  0  0
   -2.7400    2.6850   -4.1230 O   0  0  0  0  0  0  0  0  0  0  0  0
   -5.0820   -3.4740    1.7900 H   0  0  0  0  0  0  0  0  0  0  0  0
   -4.5430   -3.2890   -1.7100 H   0  0  0  0  0  0  0  0  0  0  0  0
   -4.1280   -1.2150   -2.9490 H   0  0  0  0  0  0  0  0  0  0  0  0
   -4.1190    1.1350   -2.8290 H   0  0  0  0  0  0  0  0  0  0  0  0
   -4.0680    2.0650   -1.3230 H   0  0  0  0  0  0  0  0  0  0  0  0
   -1.7890    0.5590   -2.7350 H   0  0  0  0  0  0  0  0  0  0  0  0
   -1.5410    2.1980   -0.2250 H   0  0  0  0  0  0  0  0  0  0  0  0
   -3.6350    0.8700    0.7880 H   0  0  0  0  0  0  0  0  0  0  0  0
   -4.0530   -1.2180    2.0290 H   0  0  0  0  0  0  0  0  0  0  0  0
  1 10  1  0  0  0  0
  1  9  1  0  0  0  0
  2  1  1  0  0  0  0
  3 13  1  0  0  0  0
  3  2  1  0  0  0  0
  4 15  1  0  0  0  0
  4  3  1  0  0  0  0
  4 14  1  0  0  0  0
  5 16  1  1  0  0  0
  5  7  1  0  0  0  0
  5  4  1  0  0  0  0
  6 18  1  0  0  0  0
  6  5  1  0  0  0  0
  7  8  2  0  0  0  0
 11  1  1  0  0  0  0
 12  3  1  0  0  0  0
 17  6  1  0  0  0  0
 19 20  1  0  0  0  0
 20 26  1  0  0  0  0
 21 20  1  0  0  0  0
 21 22  1  0  0  0  0
 21 28  1  1  0  0  0
 22  7  1  0  0  0  0
 23 21  1  0  0  0  0
 24 23  2  0  0  0  0
 25 19  1  0  0  0  0
 27 20  1  0  0  0  0
 29 22  1  0  0  0  0
 30 43  1  0  0  0  0
 31 30  1  0  0  0  0
 31 41  1  0  0  0  0
 32 31  2  0  0  0  0
 33 32  1  0  0  0  0
 33 34  2  0  0  0  0
 34 40  1  0  0  0  0
 35 47  1  0  0  0  0
 35 34  1  0  0  0  0
 36 48  1  6  0  0  0
 36 35  1  0  0  0  0
 36 37  1  0  0  0  0
 37 23  1  0  0  0  0
 37 49  1  0  0  0  0
 38 39  1  0  0  0  0
 38 36  1  0  0  0  0
 40 50  1  0  0  0  0
 40 41  2  0  0  0  0
 41 51  1  0  0  0  0
 42 38  2  0  0  0  0
 44 32  1  0  0  0  0
 45 33  1  0  0  0  0
 46 35  1  0  0  0  0
M  END
$$$$
