MTC.pdb
 OpenBabel07022418573D

 44 43  0  0  1  0  0  0  0  0999 V2000
    0.2480   -5.3700    1.8850 C   0  0  0  0  0  0  0  0  0  0  0  0
    2.0210   -5.6180    1.7300 S   0  0  0  0  0  0  0  0  0  0  0  0
    2.8340   -4.5750    0.5360 C   0  0  0  0  0  0  0  0  0  0  0  0
    2.8940   -3.1140    0.8770 C   0  0  0  0  0  0  0  0  0  0  0  0
    1.5280   -2.5450    0.9910 C   0  0  2  0  0  0  0  0  0  0  0  0
    0.8000   -2.6870   -0.2750 N   0  0  0  0  0  0  0  0  0  0  0  0
    1.6310   -1.0710    1.3150 C   0  0  0  0  0  0  0  0  0  0  0  0
    2.2100   -0.6860    2.3580 O   0  0  0  0  0  0  0  0  0  0  0  0
   -0.2320   -4.8990    1.0120 H   0  0  0  0  0  0  0  0  0  0  0  0
   -0.0190   -4.8510    2.8520 H   0  0  0  0  0  0  0  0  0  0  0  0
   -0.2690   -6.3760    2.0140 H   0  0  0  0  0  0  0  0  0  0  0  0
    2.2840   -4.6960   -0.4500 H   0  0  0  0  0  0  0  0  0  0  0  0
    3.8720   -4.9570    0.3030 H   0  0  0  0  0  0  0  0  0  0  0  0
    3.3780   -3.0330    1.8750 H   0  0  0  0  0  0  0  0  0  0  0  0
    3.4970   -2.6180    0.0860 H   0  0  0  0  0  0  0  0  0  0  0  0
    0.9230   -2.9630    1.7950 H   0  0  0  0  0  0  0  0  0  0  0  0
    1.3170   -2.2930   -1.0750 H   0  0  0  0  0  0  0  0  0  0  0  0
   -0.1260   -2.2280   -0.1270 H   0  0  0  0  0  0  0  0  0  0  0  0
    2.1580    3.5370    0.3780 C   0  0  0  0  0  0  0  0  0  0  0  0
    2.0260    2.1250   -0.1410 C   0  0  1  0  0  0  0  0  0  0  0  0
    3.3070    1.5690   -0.1810 O   0  0  0  0  0  0  0  0  0  0  0  0
    1.2150    1.3050    0.8300 C   0  0  2  0  0  0  0  0  0  0  0  0
    1.0930   -0.0640    0.4820 N   0  0  0  0  0  0  0  0  0  0  0  0
   -0.1620    1.8760    1.0010 C   0  0  0  0  0  0  0  0  0  0  0  0
   -0.3430    3.0890    1.3130 O   0  0  0  0  0  0  0  0  0  0  0  0
    3.0690    4.0540   -0.0420 H   0  0  0  0  0  0  0  0  0  0  0  0
    2.2660    3.5840    1.4740 H   0  0  0  0  0  0  0  0  0  0  0  0
    1.3000    4.1820    0.0520 H   0  0  0  0  0  0  0  0  0  0  0  0
    1.5520    2.1750   -1.1310 H   0  0  0  0  0  0  0  0  0  0  0  0
    3.6280    1.5650    0.7690 H   0  0  0  0  0  0  0  0  0  0  0  0
    1.7340    1.3960    1.8050 H   0  0  0  0  0  0  0  0  0  0  0  0
    0.6000   -0.3280   -0.4000 H   0  0  0  0  0  0  0  0  0  0  0  0
   -1.3350    1.0990    0.8260 N   0  0  0  0  0  0  0  0  0  0  0  0
   -2.6650    1.5840    0.9740 C   0  0  1  0  0  0  0  0  0  0  0  0
   -3.5010    1.5070   -0.2740 C   0  0  0  0  0  0  0  0  0  0  0  0
   -3.6810   -0.1720   -0.8780 S   0  0  0  0  0  0  0  0  0  0  0  0
   -3.3690    0.8940    2.0650 C   0  0  0  0  0  0  0  0  0  0  0  0
   -2.8190   -0.0020    2.7550 O   0  0  0  0  0  0  0  0  0  0  0  0
   -4.6830    1.2070    2.3810 O   0  0  0  0  0  0  0  0  0  0  0  0
   -1.1900    0.0950    0.5690 H   0  0  0  0  0  0  0  0  0  0  0  0
   -2.5990    2.6710    1.2460 H   0  0  0  0  0  0  0  0  0  0  0  0
   -3.1390    2.2150   -1.0710 H   0  0  0  0  0  0  0  0  0  0  0  0
   -4.5160    1.8820   -0.0080 H   0  0  0  0  0  0  0  0  0  0  0  0
   -2.6450   -0.4930   -1.7830 H   0  0  0  0  0  0  0  0  0  0  0  0
  1 11  1  0  0  0  0
  1 10  1  0  0  0  0
  2  1  1  0  0  0  0
  3  4  1  0  0  0  0
  3  2  1  0  0  0  0
  4  5  1  0  0  0  0
  4 14  1  0  0  0  0
  5  7  1  0  0  0  0
  5 16  1  1  0  0  0
  6 18  1  0  0  0  0
  6  5  1  0  0  0  0
  7  8  2  0  0  0  0
  9  1  1  0  0  0  0
 12  3  1  0  0  0  0
 13  3  1  0  0  0  0
 15  4  1  0  0  0  0
 17  6  1  0  0  0  0
 19 27  1  0  0  0  0
 20 29  1  6  0  0  0
 20 19  1  0  0  0  0
 20 22  1  0  0  0  0
 21 20  1  0  0  0  0
 21 30  1  0  0  0  0
 22 24  1  0  0  0  0
 22 31  1  1  0  0  0
 23 22  1  0  0  0  0
 23  7  1  0  0  0  0
 24 25  2  0  0  0  0
 26 19  1  0  0  0  0
 28 19  1  0  0  0  0
 32 23  1  0  0  0  0
 33 34  1  0  0  0  0
 33 24  1  0  0  0  0
 34 41  1  1  0  0  0
 34 37  1  0  0  0  0
 35 43  1  0  0  0  0
 35 34  1  0  0  0  0
 36 35  1  0  0  0  0
 37 39  2  0  0  0  0
 37 38  1  0  0  0  0
 40 33  1  0  0  0  0
 42 35  1  0  0  0  0
 44 36  1  0  0  0  0
M  END
$$$$
