MTG.pdb
 OpenBabel07022418573D

 40 39  0  0  1  0  0  0  0  0999 V2000
    2.0140   -3.5920    2.3890 C   0  0  0  0  0  0  0  0  0  0  0  0
    3.6540   -3.0620    2.8930 S   0  0  0  0  0  0  0  0  0  0  0  0
    4.0400   -1.4440    2.3150 C   0  0  0  0  0  0  0  0  0  0  0  0
    3.4100   -0.2630    2.9160 C   0  0  0  0  0  0  0  0  0  0  0  0
    1.9500   -0.0800    2.8980 C   0  0  2  0  0  0  0  0  0  0  0  0
    1.1880   -1.0760    3.5640 N   0  0  0  0  0  0  0  0  0  0  0  0
    1.4950    0.1380    1.4850 C   0  0  0  0  0  0  0  0  0  0  0  0
    2.0970    0.9640    0.7410 O   0  0  0  0  0  0  0  0  0  0  0  0
    1.3020   -3.7580    3.2250 H   0  0  0  0  0  0  0  0  0  0  0  0
    2.1710   -4.5800    1.8440 H   0  0  0  0  0  0  0  0  0  0  0  0
    1.5350   -2.9590    1.6270 H   0  0  0  0  0  0  0  0  0  0  0  0
    5.1700   -1.3010    2.4580 H   0  0  0  0  0  0  0  0  0  0  0  0
    3.9790   -1.3650    1.1700 H   0  0  0  0  0  0  0  0  0  0  0  0
    3.9180    0.6410    2.4260 H   0  0  0  0  0  0  0  0  0  0  0  0
    3.8110   -0.1560    3.9870 H   0  0  0  0  0  0  0  0  0  0  0  0
    1.7340    0.8910    3.4650 H   0  0  0  0  0  0  0  0  0  0  0  0
    1.4530   -1.2130    4.5560 H   0  0  0  0  0  0  0  0  0  0  0  0
    0.1680   -0.8900    3.4610 H   0  0  0  0  0  0  0  0  0  0  0  0
   -0.0950   -1.0910   -2.7660 C   0  0  0  0  0  0  0  0  0  0  0  0
    0.2150   -1.5300   -1.3420 C   0  0  1  0  0  0  0  0  0  0  0  0
    1.5890   -1.7810   -1.2960 O   0  0  0  0  0  0  0  0  0  0  0  0
   -0.0200   -0.3080   -0.4680 C   0  0  2  0  0  0  0  0  0  0  0  0
    0.3980   -0.5370    0.8950 N   0  0  0  0  0  0  0  0  0  0  0  0
   -1.4160    0.1720   -0.5570 C   0  0  0  0  0  0  0  0  0  0  0  0
   -1.9980    0.4380   -1.6260 O   0  0  0  0  0  0  0  0  0  0  0  0
    0.6430   -1.5640   -3.4750 H   0  0  0  0  0  0  0  0  0  0  0  0
    0.0370    0.0060   -2.8830 H   0  0  0  0  0  0  0  0  0  0  0  0
   -1.1110   -1.3880   -3.0750 H   0  0  0  0  0  0  0  0  0  0  0  0
   -0.3650   -2.4030   -1.0310 H   0  0  0  0  0  0  0  0  0  0  0  0
    2.0680   -0.9520   -1.5020 H   0  0  0  0  0  0  0  0  0  0  0  0
    0.6310    0.4810   -0.8960 H   0  0  0  0  0  0  0  0  0  0  0  0
   -0.1280   -1.2290    1.4770 H   0  0  0  0  0  0  0  0  0  0  0  0
   -2.1900    0.3570    0.6460 N   0  0  0  0  0  0  0  0  0  0  0  0
   -3.5530    0.8210    0.6130 C   0  0  0  0  0  0  0  0  0  0  0  0
   -3.6950    2.1480   -0.0040 C   0  0  0  0  0  0  0  0  0  0  0  0
   -2.7070    2.7840   -0.4520 O   0  0  0  0  0  0  0  0  0  0  0  0
   -4.9360    2.7520   -0.1160 O   0  0  0  0  0  0  0  0  0  0  0  0
   -1.6950    0.1320    1.5410 H   0  0  0  0  0  0  0  0  0  0  0  0
   -4.2380    0.0970    0.1160 H   0  0  0  0  0  0  0  0  0  0  0  0
   -3.9050    0.8840    1.6650 H   0  0  0  0  0  0  0  0  0  0  0  0
  1  2  1  0  0  0  0
  1  9  1  0  0  0  0
  3 12  1  0  0  0  0
  3  2  1  0  0  0  0
  3  4  1  0  0  0  0
  4 15  1  0  0  0  0
  5  4  1  0  0  0  0
  5 16  1  1  0  0  0
  5  6  1  0  0  0  0
  6 17  1  0  0  0  0
  7  5  1  0  0  0  0
  8  7  2  0  0  0  0
 10  1  1  0  0  0  0
 11  1  1  0  0  0  0
 13  3  1  0  0  0  0
 14  4  1  0  0  0  0
 18  6  1  0  0  0  0
 19 20  1  0  0  0  0
 20 21  1  0  0  0  0
 20 29  1  1  0  0  0
 20 22  1  0  0  0  0
 22 31  1  6  0  0  0
 22 23  1  0  0  0  0
 23 32  1  0  0  0  0
 23  7  1  0  0  0  0
 24 22  1  0  0  0  0
 24 33  1  0  0  0  0
 25 24  2  0  0  0  0
 26 19  1  0  0  0  0
 27 19  1  0  0  0  0
 28 19  1  0  0  0  0
 30 21  1  0  0  0  0
 33 38  1  0  0  0  0
 34 33  1  0  0  0  0
 34 40  1  0  0  0  0
 35 34  1  0  0  0  0
 36 35  2  0  0  0  0
 37 35  1  0  0  0  0
 39 34  1  0  0  0  0
M  END
$$$$
