MTH.pdb
 OpenBabel07022418573D

 50 50  0  0  1  0  0  0  0  0999 V2000
    0.3050   -3.5150    1.4810 C   0  0  0  0  0  0  0  0  0  0  0  0
    2.0180   -3.6480    2.0310 S   0  0  0  0  0  0  0  0  0  0  0  0
    3.0760   -4.1140    0.6740 C   0  0  0  0  0  0  0  0  0  0  0  0
    3.2460   -3.1000   -0.4050 C   0  0  0  0  0  0  0  0  0  0  0  0
    3.8490   -1.7960    0.0630 C   0  0  2  0  0  0  0  0  0  0  0  0
    5.1420   -2.0880    0.6390 N   0  0  0  0  0  0  0  0  0  0  0  0
    2.9820   -0.9610    0.8830 C   0  0  0  0  0  0  0  0  0  0  0  0
    3.2770   -0.7630    2.0900 O   0  0  0  0  0  0  0  0  0  0  0  0
   -0.2170   -4.5080    1.5640 H   0  0  0  0  0  0  0  0  0  0  0  0
   -0.2600   -2.7650    2.0820 H   0  0  0  0  0  0  0  0  0  0  0  0
    0.2680   -3.2560    0.4170 H   0  0  0  0  0  0  0  0  0  0  0  0
    4.0700   -4.4070    1.1050 H   0  0  0  0  0  0  0  0  0  0  0  0
    2.7010   -5.0470    0.1810 H   0  0  0  0  0  0  0  0  0  0  0  0
    3.9700   -3.5200   -1.1510 H   0  0  0  0  0  0  0  0  0  0  0  0
    2.3330   -2.8770   -0.9620 H   0  0  0  0  0  0  0  0  0  0  0  0
    4.0730   -1.2200   -0.8840 H   0  0  0  0  0  0  0  0  0  0  0  0
    5.4110   -1.3270    1.3100 H   0  0  0  0  0  0  0  0  0  0  0  0
    5.8740   -2.1820   -0.0900 H   0  0  0  0  0  0  0  0  0  0  0  0
    1.1200    2.1370   -0.6040 C   0  0  0  0  0  0  0  0  0  0  0  0
    1.2450    1.9270    0.8750 C   0  0  1  0  0  0  0  0  0  0  0  0
    0.5330    2.8480    1.6270 O   0  0  0  0  0  0  0  0  0  0  0  0
    0.9820    0.4880    1.2780 C   0  0  2  0  0  0  0  0  0  0  0  0
    1.7980   -0.3360    0.4030 N   0  0  0  0  0  0  0  0  0  0  0  0
   -0.4520    0.1350    1.1680 C   0  0  0  0  0  0  0  0  0  0  0  0
   -0.7740   -0.7170    0.3250 O   0  0  0  0  0  0  0  0  0  0  0  0
    1.8660    1.4780   -1.1000 H   0  0  0  0  0  0  0  0  0  0  0  0
    0.1360    1.8540   -1.0150 H   0  0  0  0  0  0  0  0  0  0  0  0
    1.3880    3.1740   -0.8350 H   0  0  0  0  0  0  0  0  0  0  0  0
    2.3330    2.1100    1.1200 H   0  0  0  0  0  0  0  0  0  0  0  0
    0.9680    3.0470    2.4980 H   0  0  0  0  0  0  0  0  0  0  0  0
    1.2910    0.4000    2.3290 H   0  0  0  0  0  0  0  0  0  0  0  0
    1.5250   -0.4790   -0.5880 H   0  0  0  0  0  0  0  0  0  0  0  0
   -1.4000    0.7450    1.9920 N   0  0  0  0  0  0  0  0  0  0  0  0
   -2.8070    0.6060    2.0650 C   0  0  1  0  0  0  0  0  0  0  0  0
   -3.4700   -0.4470    1.2420 C   0  0  0  0  0  0  0  0  0  0  0  0
   -3.4000   -0.2530   -0.2240 C   0  0  0  0  0  0  0  0  0  0  0  0
   -3.9450   -1.2170   -1.0710 C   0  0  0  0  0  0  0  0  0  0  0  0
   -3.7630   -0.8270   -2.3220 N   0  0  0  0  0  0  0  0  0  0  0  0
   -3.1220    0.3480   -2.2840 C   0  0  0  0  0  0  0  0  0  0  0  0
   -2.9050    0.6910   -1.0070 N   0  0  0  0  0  0  0  0  0  0  0  0
   -3.4000    0.7730    3.3980 C   0  0  0  0  0  0  0  0  0  0  0  0
   -2.6440    1.0270    4.3820 O   0  0  0  0  0  0  0  0  0  0  0  0
   -4.7610    0.6680    3.6460 O   0  0  0  0  0  0  0  0  0  0  0  0
   -0.9600    1.4440    2.6970 H   0  0  0  0  0  0  0  0  0  0  0  0
   -3.1670    1.5730    1.4670 H   0  0  0  0  0  0  0  0  0  0  0  0
   -4.5490   -0.4730    1.5050 H   0  0  0  0  0  0  0  0  0  0  0  0
   -3.0920   -1.4690    1.4430 H   0  0  0  0  0  0  0  0  0  0  0  0
   -4.4380   -2.1370   -0.7960 H   0  0  0  0  0  0  0  0  0  0  0  0
   -4.0700   -1.3510   -3.1850 H   0  0  0  0  0  0  0  0  0  0  0  0
   -2.8130    0.9540   -3.1470 H   0  0  0  0  0  0  0  0  0  0  0  0
  1  9  1  0  0  0  0
  1  2  1  0  0  0  0
  1 10  1  0  0  0  0
  3 12  1  0  0  0  0
  3  2  1  0  0  0  0
  4  5  1  0  0  0  0
  4  3  1  0  0  0  0
  5 16  1  6  0  0  0
  5  6  1  0  0  0  0
  5  7  1  0  0  0  0
  6 17  1  0  0  0  0
  7  8  2  0  0  0  0
 11  1  1  0  0  0  0
 13  3  1  0  0  0  0
 14  4  1  0  0  0  0
 15  4  1  0  0  0  0
 18  6  1  0  0  0  0
 19 20  1  0  0  0  0
 20 29  1  1  0  0  0
 20 22  1  0  0  0  0
 20 21  1  0  0  0  0
 21 30  1  0  0  0  0
 22 31  1  1  0  0  0
 23  7  1  0  0  0  0
 23 22  1  0  0  0  0
 24 22  1  0  0  0  0
 24 33  1  0  0  0  0
 25 24  2  0  0  0  0
 26 19  1  0  0  0  0
 27 19  1  0  0  0  0
 28 19  1  0  0  0  0
 32 23  1  0  0  0  0
 33 34  1  0  0  0  0
 33 44  1  0  0  0  0
 34 45  1  6  0  0  0
 34 41  1  0  0  0  0
 35 47  1  0  0  0  0
 35 46  1  0  0  0  0
 35 34  1  0  0  0  0
 36 35  1  0  0  0  0
 37 48  1  0  0  0  0
 37 36  2  0  0  0  0
 38 39  1  0  0  0  0
 38 37  1  0  0  0  0
 39 40  2  0  0  0  0
 40 36  1  0  0  0  0
 41 43  2  0  0  0  0
 41 42  1  0  0  0  0
 49 38  1  0  0  0  0
 50 39  1  0  0  0  0
M  END
$$$$
