MTK.pdb
 OpenBabel07022418573D

 54 53  0  0  1  0  0  0  0  0999 V2000
   -2.1710   -4.0680    5.2230 C   0  0  0  0  0  0  0  0  0  0  0  0
   -2.4340   -2.4360    5.9500 S   0  0  0  0  0  0  0  0  0  0  0  0
   -3.3710   -1.3700    4.8190 C   0  0  0  0  0  0  0  0  0  0  0  0
   -2.5680   -1.0620    3.5740 C   0  0  0  0  0  0  0  0  0  0  0  0
   -3.3240   -0.1780    2.6210 C   0  0  2  0  0  0  0  0  0  0  0  0
   -4.5390   -0.8540    2.2350 N   0  0  0  0  0  0  0  0  0  0  0  0
   -2.5170    0.1920    1.4450 C   0  0  0  0  0  0  0  0  0  0  0  0
   -2.9720   -0.0930    0.2970 O   0  0  0  0  0  0  0  0  0  0  0  0
   -2.9400   -4.2180    4.4550 H   0  0  0  0  0  0  0  0  0  0  0  0
   -2.2720   -4.8470    6.0210 H   0  0  0  0  0  0  0  0  0  0  0  0
   -1.1350   -4.0830    4.8220 H   0  0  0  0  0  0  0  0  0  0  0  0
   -4.3280   -1.8450    4.6000 H   0  0  0  0  0  0  0  0  0  0  0  0
   -3.5480   -0.4080    5.3500 H   0  0  0  0  0  0  0  0  0  0  0  0
   -2.4000   -2.0350    3.0640 H   0  0  0  0  0  0  0  0  0  0  0  0
   -1.5950   -0.5960    3.8160 H   0  0  0  0  0  0  0  0  0  0  0  0
   -3.6420    0.7570    3.1610 H   0  0  0  0  0  0  0  0  0  0  0  0
   -5.3550   -0.5140    2.7670 H   0  0  0  0  0  0  0  0  0  0  0  0
   -4.4660   -1.8950    2.3400 H   0  0  0  0  0  0  0  0  0  0  0  0
    0.2840    3.3140    1.4020 C   0  0  0  0  0  0  0  0  0  0  0  0
   -0.3490    2.6810    0.1860 C   0  0  1  0  0  0  0  0  0  0  0  0
    0.3720    3.0260   -0.9200 O   0  0  0  0  0  0  0  0  0  0  0  0
   -0.4890    1.1980    0.2990 C   0  0  2  0  0  0  0  0  0  0  0  0
   -1.2770    0.8390    1.4960 N   0  0  0  0  0  0  0  0  0  0  0  0
    0.7810    0.4460    0.2830 C   0  0  0  0  0  0  0  0  0  0  0  0
    1.1230   -0.3500    1.2080 O   0  0  0  0  0  0  0  0  0  0  0  0
    1.2330    2.8620    1.6850 H   0  0  0  0  0  0  0  0  0  0  0  0
   -0.4680    3.3700    2.1960 H   0  0  0  0  0  0  0  0  0  0  0  0
    0.5130    4.3750    1.1020 H   0  0  0  0  0  0  0  0  0  0  0  0
   -1.3850    3.1220    0.1220 H   0  0  0  0  0  0  0  0  0  0  0  0
    0.8590    3.8680   -0.7380 H   0  0  0  0  0  0  0  0  0  0  0  0
   -1.1090    0.8570   -0.5550 H   0  0  0  0  0  0  0  0  0  0  0  0
   -0.8700    1.0890    2.4160 H   0  0  0  0  0  0  0  0  0  0  0  0
    1.7080    0.5690   -0.7840 N   0  0  0  0  0  0  0  0  0  0  0  0
    2.9580   -0.1800   -0.7850 C   0  0  1  0  0  0  0  0  0  0  0  0
    3.0070   -0.9160   -2.1070 C   0  0  0  0  0  0  0  0  0  0  0  0
    1.8320   -1.8580   -2.2600 C   0  0  0  0  0  0  0  0  0  0  0  0
    1.8740   -2.5940   -3.5750 C   0  0  0  0  0  0  0  0  0  0  0  0
    0.6910   -3.5190   -3.6930 C   0  0  0  0  0  0  0  0  0  0  0  0
    0.6700   -4.5090   -2.6310 N   0  0  0  0  0  0  0  0  0  0  0  0
    4.1300    0.7340   -0.7700 C   0  0  0  0  0  0  0  0  0  0  0  0
    4.0170    1.9810   -0.7580 O   0  0  0  0  0  0  0  0  0  0  0  0
    5.4060    0.1960   -0.7680 O   0  0  0  0  0  0  0  0  0  0  0  0
    1.5420    1.1860   -1.6070 H   0  0  0  0  0  0  0  0  0  0  0  0
    3.0610   -0.8320    0.0880 H   0  0  0  0  0  0  0  0  0  0  0  0
    3.9540   -1.4620   -2.1860 H   0  0  0  0  0  0  0  0  0  0  0  0
    2.9140   -0.1610   -2.9160 H   0  0  0  0  0  0  0  0  0  0  0  0
    0.8680   -1.3520   -2.1770 H   0  0  0  0  0  0  0  0  0  0  0  0
    1.8890   -2.6110   -1.4590 H   0  0  0  0  0  0  0  0  0  0  0  0
    2.7910   -3.2490   -3.6360 H   0  0  0  0  0  0  0  0  0  0  0  0
    1.9060   -1.9200   -4.4400 H   0  0  0  0  0  0  0  0  0  0  0  0
   -0.2540   -2.9530   -3.7020 H   0  0  0  0  0  0  0  0  0  0  0  0
    0.7980   -4.0730   -4.6500 H   0  0  0  0  0  0  0  0  0  0  0  0
    0.4170   -4.0120   -1.7530 H   0  0  0  0  0  0  0  0  0  0  0  0
   -0.0680   -5.2110   -2.8190 H   0  0  0  0  0  0  0  0  0  0  0  0
  1  2  1  0  0  0  0
  1 10  1  0  0  0  0
  3 13  1  0  0  0  0
  3  2  1  0  0  0  0
  4 15  1  0  0  0  0
  4  3  1  0  0  0  0
  5 16  1  1  0  0  0
  5  4  1  0  0  0  0
  6 18  1  0  0  0  0
  6  5  1  0  0  0  0
  6 17  1  0  0  0  0
  7 23  1  0  0  0  0
  7  5  1  0  0  0  0
  8  7  2  0  0  0  0
  9  1  1  0  0  0  0
 11  1  1  0  0  0  0
 12  3  1  0  0  0  0
 14  4  1  0  0  0  0
 19 26  1  0  0  0  0
 19 27  1  0  0  0  0
 20 29  1  6  0  0  0
 20 22  1  0  0  0  0
 20 19  1  0  0  0  0
 21 30  1  0  0  0  0
 21 20  1  0  0  0  0
 22 31  1  6  0  0  0
 22 23  1  0  0  0  0
 23 32  1  0  0  0  0
 24 22  1  0  0  0  0
 24 25  2  0  0  0  0
 28 19  1  0  0  0  0
 33 24  1  0  0  0  0
 34 33  1  0  0  0  0
 34 40  1  0  0  0  0
 34 44  1  1  0  0  0
 35 34  1  0  0  0  0
 36 47  1  0  0  0  0
 36 35  1  0  0  0  0
 36 48  1  0  0  0  0
 37 36  1  0  0  0  0
 38 37  1  0  0  0  0
 38 39  1  0  0  0  0
 39 53  1  0  0  0  0
 40 42  2  0  0  0  0
 40 41  1  0  0  0  0
 43 33  1  0  0  0  0
 45 35  1  0  0  0  0
 46 35  1  0  0  0  0
 49 37  1  0  0  0  0
 50 37  1  0  0  0  0
 51 38  1  0  0  0  0
 52 38  1  0  0  0  0
 54 39  1  0  0  0  0
M  END
$$$$
