MTL.pdb
 OpenBabel07022418573D

 52 51  0  0  1  0  0  0  0  0999 V2000
    1.1370   -5.4400    1.2870 C   0  0  0  0  0  0  0  0  0  0  0  0
    2.7190   -5.2190    2.0810 S   0  0  0  0  0  0  0  0  0  0  0  0
    2.7790   -4.2230    3.5290 C   0  0  0  0  0  0  0  0  0  0  0  0
    2.6770   -2.7590    3.3160 C   0  0  0  0  0  0  0  0  0  0  0  0
    1.4750   -2.2150    2.6500 C   0  0  2  0  0  0  0  0  0  0  0  0
    1.2710   -2.6640    1.3060 N   0  0  0  0  0  0  0  0  0  0  0  0
    1.4120   -0.7150    2.7420 C   0  0  0  0  0  0  0  0  0  0  0  0
    1.5530   -0.1120    3.8170 O   0  0  0  0  0  0  0  0  0  0  0  0
    0.2740   -5.1040    1.8750 H   0  0  0  0  0  0  0  0  0  0  0  0
    0.9640   -6.5800    1.2310 H   0  0  0  0  0  0  0  0  0  0  0  0
    1.1040   -5.1280    0.2080 H   0  0  0  0  0  0  0  0  0  0  0  0
    3.6900   -4.4220    4.1660 H   0  0  0  0  0  0  0  0  0  0  0  0
    1.8620   -4.4920    4.1730 H   0  0  0  0  0  0  0  0  0  0  0  0
    2.8850   -2.1910    4.2900 H   0  0  0  0  0  0  0  0  0  0  0  0
    3.5760   -2.4670    2.6720 H   0  0  0  0  0  0  0  0  0  0  0  0
    0.5710   -2.5930    3.2250 H   0  0  0  0  0  0  0  0  0  0  0  0
    2.0090   -2.3790    0.6400 H   0  0  0  0  0  0  0  0  0  0  0  0
    0.3080   -2.4170    0.9910 H   0  0  0  0  0  0  0  0  0  0  0  0
    2.1520    1.5900   -0.7780 C   0  0  0  0  0  0  0  0  0  0  0  0
    2.1980    2.0540    0.6520 C   0  0  1  0  0  0  0  0  0  0  0  0
    2.0140    3.4360    0.6470 O   0  0  0  0  0  0  0  0  0  0  0  0
    1.0980    1.4510    1.4900 C   0  0  2  0  0  0  0  0  0  0  0  0
    1.1860    0.0110    1.5690 N   0  0  0  0  0  0  0  0  0  0  0  0
   -0.2490    1.8320    0.9950 C   0  0  0  0  0  0  0  0  0  0  0  0
   -0.5870    3.0340    0.8400 O   0  0  0  0  0  0  0  0  0  0  0  0
    1.4340    2.1830   -1.3840 H   0  0  0  0  0  0  0  0  0  0  0  0
    1.8750    0.5340   -0.8910 H   0  0  0  0  0  0  0  0  0  0  0  0
    3.1600    1.8100   -1.2340 H   0  0  0  0  0  0  0  0  0  0  0  0
    3.1750    1.8620    1.1390 H   0  0  0  0  0  0  0  0  0  0  0  0
    1.4560    3.7520   -0.0920 H   0  0  0  0  0  0  0  0  0  0  0  0
    1.2300    1.8420    2.5200 H   0  0  0  0  0  0  0  0  0  0  0  0
    1.0680   -0.5090    0.6650 H   0  0  0  0  0  0  0  0  0  0  0  0
   -1.4650   -1.1110   -1.5710 C   0  0  0  0  0  0  0  0  0  0  0  0
   -2.8080   -0.4470   -1.7130 C   0  0  0  0  0  0  0  0  0  0  0  0
   -3.1840   -0.5290   -3.1970 C   0  0  0  0  0  0  0  0  0  0  0  0
   -2.8520    0.9530   -1.2380 C   0  0  0  0  0  0  0  0  0  0  0  0
   -2.5550    1.2330    0.1810 C   0  0  2  0  0  0  0  0  0  0  0  0
   -1.2510    0.8510    0.6610 N   0  0  0  0  0  0  0  0  0  0  0  0
   -3.5770    0.6850    1.1200 C   0  0  0  0  0  0  0  0  0  0  0  0
   -3.2510    0.0070    2.1470 O   0  0  0  0  0  0  0  0  0  0  0  0
   -4.9400    0.8780    0.9380 O   0  0  0  0  0  0  0  0  0  0  0  0
   -0.6910   -0.3320   -1.5170 H   0  0  0  0  0  0  0  0  0  0  0  0
   -1.4550   -1.8370   -0.7340 H   0  0  0  0  0  0  0  0  0  0  0  0
   -1.2180   -1.7110   -2.4900 H   0  0  0  0  0  0  0  0  0  0  0  0
   -3.5370   -1.1190   -1.2030 H   0  0  0  0  0  0  0  0  0  0  0  0
   -4.2880   -0.5590   -3.3220 H   0  0  0  0  0  0  0  0  0  0  0  0
   -2.7110   -1.4220   -3.6290 H   0  0  0  0  0  0  0  0  0  0  0  0
   -2.8030    0.4230   -3.6480 H   0  0  0  0  0  0  0  0  0  0  0  0
   -3.9010    1.3440   -1.4260 H   0  0  0  0  0  0  0  0  0  0  0  0
   -2.1650    1.5620   -1.8720 H   0  0  0  0  0  0  0  0  0  0  0  0
   -2.6430    2.3670    0.3060 H   0  0  0  0  0  0  0  0  0  0  0  0
   -0.9880   -0.1310    0.8000 H   0  0  0  0  0  0  0  0  0  0  0  0
  1  9  1  0  0  0  0
  1  2  1  0  0  0  0
  2  3  1  0  0  0  0
  3 12  1  0  0  0  0
  3 13  1  0  0  0  0
  4  3  1  0  0  0  0
  4 14  1  0  0  0  0
  5  7  1  0  0  0  0
  5 16  1  1  0  0  0
  5  4  1  0  0  0  0
  6  5  1  0  0  0  0
  7  8  2  0  0  0  0
 10  1  1  0  0  0  0
 11  1  1  0  0  0  0
 15  4  1  0  0  0  0
 17  6  1  0  0  0  0
 18  6  1  0  0  0  0
 19 20  1  0  0  0  0
 20 29  1  1  0  0  0
 20 22  1  0  0  0  0
 21 20  1  0  0  0  0
 22 23  1  0  0  0  0
 22 31  1  1  0  0  0
 23  7  1  0  0  0  0
 24 22  1  0  0  0  0
 25 24  2  0  0  0  0
 26 19  1  0  0  0  0
 27 19  1  0  0  0  0
 28 19  1  0  0  0  0
 30 21  1  0  0  0  0
 32 23  1  0  0  0  0
 33 42  1  0  0  0  0
 33 43  1  0  0  0  0
 34 33  1  0  0  0  0
 34 36  1  0  0  0  0
 34 45  1  0  0  0  0
 35 34  1  0  0  0  0
 36 37  1  0  0  0  0
 37 51  1  1  0  0  0
 37 38  1  0  0  0  0
 37 39  1  0  0  0  0
 38 52  1  0  0  0  0
 38 24  1  0  0  0  0
 39 40  1  0  0  0  0
 41 39  2  0  0  0  0
 44 33  1  0  0  0  0
 46 35  1  0  0  0  0
 47 35  1  0  0  0  0
 48 35  1  0  0  0  0
 49 36  1  0  0  0  0
 50 36  1  0  0  0  0
M  END
$$$$
