MTN.pdb
 OpenBabel07022418573D

 47 46  0  0  1  0  0  0  0  0999 V2000
    3.5940   -5.8650    3.6790 C   0  0  0  0  0  0  0  0  0  0  0  0
    4.1340   -4.4060    4.6110 S   0  0  0  0  0  0  0  0  0  0  0  0
    2.7900   -3.1960    4.7690 C   0  0  0  0  0  0  0  0  0  0  0  0
    2.4650   -2.6520    3.4070 C   0  0  0  0  0  0  0  0  0  0  0  0
    1.3370   -1.6280    3.4650 C   0  0  2  0  0  0  0  0  0  0  0  0
    0.1460   -2.2340    3.9960 N   0  0  0  0  0  0  0  0  0  0  0  0
    1.1310   -1.0640    2.1130 C   0  0  0  0  0  0  0  0  0  0  0  0
    2.0820   -0.4880    1.5380 O   0  0  0  0  0  0  0  0  0  0  0  0
    3.3240   -6.7090    4.3540 H   0  0  0  0  0  0  0  0  0  0  0  0
    4.4300   -6.1970    3.0280 H   0  0  0  0  0  0  0  0  0  0  0  0
    2.7340   -5.6300    3.0440 H   0  0  0  0  0  0  0  0  0  0  0  0
    3.2010   -2.3630    5.3990 H   0  0  0  0  0  0  0  0  0  0  0  0
    1.9220   -3.5980    5.3000 H   0  0  0  0  0  0  0  0  0  0  0  0
    3.3690   -2.1990    2.9650 H   0  0  0  0  0  0  0  0  0  0  0  0
    2.1550   -3.4910    2.7540 H   0  0  0  0  0  0  0  0  0  0  0  0
    1.6530   -0.8180    4.1340 H   0  0  0  0  0  0  0  0  0  0  0  0
   -0.0650   -3.1660    3.6230 H   0  0  0  0  0  0  0  0  0  0  0  0
    0.0340   -2.1250    5.0210 H   0  0  0  0  0  0  0  0  0  0  0  0
    0.6980   -2.4020   -1.1900 C   0  0  0  0  0  0  0  0  0  0  0  0
   -0.5110   -1.4940   -1.0270 C   0  0  1  0  0  0  0  0  0  0  0  0
   -1.6230   -2.2580   -0.9610 O   0  0  0  0  0  0  0  0  0  0  0  0
   -0.2350   -0.5610    0.0870 C   0  0  2  0  0  0  0  0  0  0  0  0
   -0.0720   -1.1120    1.3800 N   0  0  0  0  0  0  0  0  0  0  0  0
   -1.1750    0.5820    0.1730 C   0  0  0  0  0  0  0  0  0  0  0  0
   -1.6570    0.8470    1.3070 O   0  0  0  0  0  0  0  0  0  0  0  0
    0.7160   -2.9000   -2.1840 H   0  0  0  0  0  0  0  0  0  0  0  0
    0.6460   -3.2480   -0.4450 H   0  0  0  0  0  0  0  0  0  0  0  0
    1.6530   -1.8610   -1.0790 H   0  0  0  0  0  0  0  0  0  0  0  0
   -0.5640   -0.8900   -1.9570 H   0  0  0  0  0  0  0  0  0  0  0  0
   -2.4290   -1.8510   -0.5750 H   0  0  0  0  0  0  0  0  0  0  0  0
    0.7600   -0.0790   -0.1800 H   0  0  0  0  0  0  0  0  0  0  0  0
   -0.8950   -1.5860    1.8230 H   0  0  0  0  0  0  0  0  0  0  0  0
   -0.6490    4.9680   -3.0400 N   0  0  0  0  0  0  0  0  0  0  0  0
   -1.3030    3.8130   -2.5570 C   0  0  0  0  0  0  0  0  0  0  0  0
   -1.4710    2.8390   -3.3240 O   0  0  0  0  0  0  0  0  0  0  0  0
   -1.7780    3.7670   -1.1560 C   0  0  0  0  0  0  0  0  0  0  0  0
   -2.4380    2.4440   -0.8080 C   0  0  2  0  0  0  0  0  0  0  0  0
   -1.5260    1.3590   -0.9740 N   0  0  0  0  0  0  0  0  0  0  0  0
   -3.6750    2.2340   -1.6390 C   0  0  0  0  0  0  0  0  0  0  0  0
   -3.7880    1.2110   -2.3450 O   0  0  0  0  0  0  0  0  0  0  0  0
   -4.6950    3.1530   -1.6400 O   0  0  0  0  0  0  0  0  0  0  0  0
   -0.0420    4.8970   -3.8750 H   0  0  0  0  0  0  0  0  0  0  0  0
   -0.7490    5.9090   -2.5880 H   0  0  0  0  0  0  0  0  0  0  0  0
   -0.9070    3.8590   -0.4710 H   0  0  0  0  0  0  0  0  0  0  0  0
   -2.4730    4.5870   -0.9190 H   0  0  0  0  0  0  0  0  0  0  0  0
   -2.7890    2.5120    0.2420 H   0  0  0  0  0  0  0  0  0  0  0  0
   -1.0800    1.0710   -1.8680 H   0  0  0  0  0  0  0  0  0  0  0  0
  1  9  1  0  0  0  0
  1  2  1  0  0  0  0
  2  3  1  0  0  0  0
  3 13  1  0  0  0  0
  3 12  1  0  0  0  0
  4  5  1  0  0  0  0
  4  3  1  0  0  0  0
  5  6  1  0  0  0  0
  5 16  1  1  0  0  0
  6 18  1  0  0  0  0
  7  5  1  0  0  0  0
  8  7  2  0  0  0  0
 10  1  1  0  0  0  0
 11  1  1  0  0  0  0
 14  4  1  0  0  0  0
 15  4  1  0  0  0  0
 17  6  1  0  0  0  0
 19 28  1  0  0  0  0
 19 20  1  0  0  0  0
 19 27  1  0  0  0  0
 20 29  1  6  0  0  0
 20 21  1  0  0  0  0
 20 22  1  0  0  0  0
 21 30  1  0  0  0  0
 22 31  1  6  0  0  0
 22 24  1  0  0  0  0
 22 23  1  0  0  0  0
 23 32  1  0  0  0  0
 23  7  1  0  0  0  0
 24 25  2  0  0  0  0
 26 19  1  0  0  0  0
 33 43  1  0  0  0  0
 33 34  1  0  0  0  0
 34 36  1  0  0  0  0
 35 34  2  0  0  0  0
 36 45  1  0  0  0  0
 36 37  1  0  0  0  0
 36 44  1  0  0  0  0
 37 46  1  1  0  0  0
 38 37  1  0  0  0  0
 38 24  1  0  0  0  0
 39 37  1  0  0  0  0
 40 39  2  0  0  0  0
 41 39  1  0  0  0  0
 42 33  1  0  0  0  0
 47 38  1  0  0  0  0
M  END
$$$$
