MTP.pdb
 OpenBabel07022418573D

 47 47  0  0  1  0  0  0  0  0999 V2000
   -1.8160   -4.2210    0.1820 C   0  0  0  0  0  0  0  0  0  0  0  0
   -0.1780   -4.8260   -0.1920 S   0  0  0  0  0  0  0  0  0  0  0  0
    1.1160   -3.5760   -0.1320 C   0  0  0  0  0  0  0  0  0  0  0  0
    0.9040   -2.5680   -1.2180 C   0  0  0  0  0  0  0  0  0  0  0  0
    1.9450   -1.5100   -1.2890 C   0  0  2  0  0  0  0  0  0  0  0  0
    3.2420   -2.1870   -1.5250 N   0  0  0  0  0  0  0  0  0  0  0  0
    2.0400   -0.5670   -0.1880 C   0  0  0  0  0  0  0  0  0  0  0  0
    3.0680   -0.5360    0.5780 O   0  0  0  0  0  0  0  0  0  0  0  0
   -1.9380   -3.1450    0.0690 H   0  0  0  0  0  0  0  0  0  0  0  0
   -2.1100   -4.5070    1.2370 H   0  0  0  0  0  0  0  0  0  0  0  0
   -2.5850   -4.7280   -0.4530 H   0  0  0  0  0  0  0  0  0  0  0  0
    1.0970   -3.1270    0.8840 H   0  0  0  0  0  0  0  0  0  0  0  0
    2.0780   -4.1040   -0.3280 H   0  0  0  0  0  0  0  0  0  0  0  0
   -0.1260   -2.1420   -1.0500 H   0  0  0  0  0  0  0  0  0  0  0  0
    0.8280   -3.1100   -2.1790 H   0  0  0  0  0  0  0  0  0  0  0  0
    1.7670   -0.9430   -2.2490 H   0  0  0  0  0  0  0  0  0  0  0  0
    3.0270   -2.9100   -2.2620 H   0  0  0  0  0  0  0  0  0  0  0  0
    3.8570   -1.4920   -2.0120 H   0  0  0  0  0  0  0  0  0  0  0  0
    2.6320    2.9640    0.0090 C   0  0  0  0  0  0  0  0  0  0  0  0
    1.3670    2.7580    0.7710 C   0  0  1  0  0  0  0  0  0  0  0  0
    0.2470    3.1750    0.0650 O   0  0  0  0  0  0  0  0  0  0  0  0
    1.2170    1.3140    1.2590 C   0  0  2  0  0  0  0  0  0  0  0  0
    1.0350    0.4110    0.1620 N   0  0  0  0  0  0  0  0  0  0  0  0
    0.2020    1.3330    2.3110 C   0  0  0  0  0  0  0  0  0  0  0  0
    0.3940    2.1760    3.2840 O   0  0  0  0  0  0  0  0  0  0  0  0
    3.4920    3.2470    0.6840 H   0  0  0  0  0  0  0  0  0  0  0  0
    2.5450    3.8030   -0.7120 H   0  0  0  0  0  0  0  0  0  0  0  0
    2.9180    2.0520   -0.5600 H   0  0  0  0  0  0  0  0  0  0  0  0
    1.4210    3.3900    1.6920 H   0  0  0  0  0  0  0  0  0  0  0  0
   -0.1640    2.4720   -0.4860 H   0  0  0  0  0  0  0  0  0  0  0  0
    2.1990    1.0660    1.7840 H   0  0  0  0  0  0  0  0  0  0  0  0
    0.1830    0.4350   -0.4350 H   0  0  0  0  0  0  0  0  0  0  0  0
   -0.9580    0.5610    2.4160 N   0  0  0  0  0  0  0  0  0  0  0  0
   -1.9120    0.6940    3.5530 C   0  0  0  0  0  0  0  0  0  0  0  0
   -2.0770   -0.7890    3.8610 C   0  0  0  0  0  0  0  0  0  0  0  0
   -2.3770   -1.3510    2.5080 C   0  0  0  0  0  0  0  0  0  0  0  0
   -1.5230   -0.4720    1.5790 C   0  0  1  0  0  0  0  0  0  0  0  0
   -2.4590    0.0900    0.5720 C   0  0  0  0  0  0  0  0  0  0  0  0
   -2.6430    1.3250    0.5230 O   0  0  0  0  0  0  0  0  0  0  0  0
   -3.1350   -0.7190   -0.3180 O   0  0  0  0  0  0  0  0  0  0  0  0
   -1.4470    1.1690    4.4150 H   0  0  0  0  0  0  0  0  0  0  0  0
   -2.8550    1.1330    3.2310 H   0  0  0  0  0  0  0  0  0  0  0  0
   -1.0770   -1.1610    4.1660 H   0  0  0  0  0  0  0  0  0  0  0  0
   -2.8400   -0.9780    4.6190 H   0  0  0  0  0  0  0  0  0  0  0  0
   -3.4620   -1.2480    2.2730 H   0  0  0  0  0  0  0  0  0  0  0  0
   -2.0350   -2.3870    2.3760 H   0  0  0  0  0  0  0  0  0  0  0  0
   -0.7050   -1.0670    1.1390 H   0  0  0  0  0  0  0  0  0  0  0  0
  1 10  1  0  0  0  0
  2  3  1  0  0  0  0
  2  1  1  0  0  0  0
  3 12  1  0  0  0  0
  4 14  1  0  0  0  0
  4  3  1  0  0  0  0
  5 16  1  6  0  0  0
  5  4  1  0  0  0  0
  5  7  1  0  0  0  0
  6  5  1  0  0  0  0
  7 23  1  0  0  0  0
  7  8  2  0  0  0  0
  9  1  1  0  0  0  0
 11  1  1  0  0  0  0
 13  3  1  0  0  0  0
 15  4  1  0  0  0  0
 17  6  1  0  0  0  0
 18  6  1  0  0  0  0
 19 26  1  0  0  0  0
 19 20  1  0  0  0  0
 20 22  1  0  0  0  0
 20 29  1  1  0  0  0
 21 20  1  0  0  0  0
 22 31  1  1  0  0  0
 22 24  1  0  0  0  0
 23 22  1  0  0  0  0
 24 33  1  0  0  0  0
 24 25  2  0  0  0  0
 27 19  1  0  0  0  0
 28 19  1  0  0  0  0
 30 21  1  0  0  0  0
 32 23  1  0  0  0  0
 33 34  1  0  0  0  0
 34 35  1  0  0  0  0
 34 41  1  0  0  0  0
 35 43  1  0  0  0  0
 35 44  1  0  0  0  0
 36 35  1  0  0  0  0
 37 47  1  6  0  0  0
 37 33  1  0  0  0  0
 37 36  1  0  0  0  0
 38 37  1  0  0  0  0
 39 38  1  0  0  0  0
 40 38  2  0  0  0  0
 42 34  1  0  0  0  0
 45 36  1  0  0  0  0
 46 36  1  0  0  0  0
M  END
$$$$
