MTQ.pdb
 OpenBabel07022418573D

 50 49  0  0  1  0  0  0  0  0999 V2000
   -2.6940   -3.6370   -1.3080 C   0  0  0  0  0  0  0  0  0  0  0  0
   -1.1980   -3.4010   -2.2540 S   0  0  0  0  0  0  0  0  0  0  0  0
   -0.3330   -1.8490   -1.7630 C   0  0  0  0  0  0  0  0  0  0  0  0
    0.9000   -1.7200   -2.5560 C   0  0  0  0  0  0  0  0  0  0  0  0
    1.7810   -0.5460   -2.3450 C   0  0  2  0  0  0  0  0  0  0  0  0
    2.9400   -0.6760   -3.2610 N   0  0  0  0  0  0  0  0  0  0  0  0
    2.2900   -0.3470   -1.0010 C   0  0  0  0  0  0  0  0  0  0  0  0
    3.4980   -0.6300   -0.7560 O   0  0  0  0  0  0  0  0  0  0  0  0
   -3.5970   -3.4690   -1.9640 H   0  0  0  0  0  0  0  0  0  0  0  0
   -2.7640   -4.6720   -0.8570 H   0  0  0  0  0  0  0  0  0  0  0  0
   -2.7650   -2.9190   -0.4750 H   0  0  0  0  0  0  0  0  0  0  0  0
   -1.0730   -1.0520   -1.8600 H   0  0  0  0  0  0  0  0  0  0  0  0
   -0.1270   -2.0030   -0.6750 H   0  0  0  0  0  0  0  0  0  0  0  0
    0.6600   -1.8400   -3.6350 H   0  0  0  0  0  0  0  0  0  0  0  0
    1.5340   -2.6330   -2.3230 H   0  0  0  0  0  0  0  0  0  0  0  0
    1.2590    0.3700   -2.6770 H   0  0  0  0  0  0  0  0  0  0  0  0
    2.5030   -0.8010   -4.2150 H   0  0  0  0  0  0  0  0  0  0  0  0
    3.4280    0.2370   -3.2990 H   0  0  0  0  0  0  0  0  0  0  0  0
    3.2250    2.2920    0.4550 C   0  0  0  0  0  0  0  0  0  0  0  0
    2.3990    1.7980    1.6440 C   0  0  1  0  0  0  0  0  0  0  0  0
    1.2000    2.4940    1.5860 O   0  0  0  0  0  0  0  0  0  0  0  0
    2.1410    0.3110    1.4080 C   0  0  2  0  0  0  0  0  0  0  0  0
    1.5540    0.1510    0.1180 N   0  0  0  0  0  0  0  0  0  0  0  0
    1.3660   -0.2190    2.5280 C   0  0  0  0  0  0  0  0  0  0  0  0
    1.8770   -0.0710    3.6870 O   0  0  0  0  0  0  0  0  0  0  0  0
    2.6840    2.1150   -0.4750 H   0  0  0  0  0  0  0  0  0  0  0  0
    3.5300    3.3560    0.6100 H   0  0  0  0  0  0  0  0  0  0  0  0
    4.1770    1.7250    0.4580 H   0  0  0  0  0  0  0  0  0  0  0  0
    2.9920    1.9750    2.5470 H   0  0  0  0  0  0  0  0  0  0  0  0
    1.3530    3.4820    1.4770 H   0  0  0  0  0  0  0  0  0  0  0  0
    3.1770   -0.1410    1.4600 H   0  0  0  0  0  0  0  0  0  0  0  0
    0.5490    0.4060   -0.0230 H   0  0  0  0  0  0  0  0  0  0  0  0
   -3.2940    0.2510    0.5690 N   0  0  0  0  0  0  0  0  0  0  0  0
   -2.5430    0.4070    1.7680 C   0  0  0  0  0  0  0  0  0  0  0  0
   -1.6030    1.2270    1.7680 O   0  0  0  0  0  0  0  0  0  0  0  0
   -2.8700   -0.3680    2.9580 C   0  0  0  0  0  0  0  0  0  0  0  0
   -1.8050   -0.5780    3.9610 C   0  0  0  0  0  0  0  0  0  0  0  0
   -0.6170   -1.3780    3.5690 C   0  0  2  0  0  0  0  0  0  0  0  0
    0.1270   -0.8670    2.4480 N   0  0  0  0  0  0  0  0  0  0  0  0
   -0.9340   -2.8170    3.3420 C   0  0  0  0  0  0  0  0  0  0  0  0
   -0.5610   -3.3990    2.2960 O   0  0  0  0  0  0  0  0  0  0  0  0
   -1.6480   -3.5620    4.2720 O   0  0  0  0  0  0  0  0  0  0  0  0
   -3.8580    1.0490    0.1690 H   0  0  0  0  0  0  0  0  0  0  0  0
   -3.3130   -0.6490    0.0460 H   0  0  0  0  0  0  0  0  0  0  0  0
   -3.4110   -1.3300    2.7030 H   0  0  0  0  0  0  0  0  0  0  0  0
   -3.6860    0.2180    3.4880 H   0  0  0  0  0  0  0  0  0  0  0  0
   -2.2760   -1.1150    4.8310 H   0  0  0  0  0  0  0  0  0  0  0  0
   -1.4390    0.4280    4.2790 H   0  0  0  0  0  0  0  0  0  0  0  0
    0.0530   -1.3680    4.4970 H   0  0  0  0  0  0  0  0  0  0  0  0
   -0.2850   -1.0190    1.5050 H   0  0  0  0  0  0  0  0  0  0  0  0
  1 10  1  0  0  0  0
  1 11  1  0  0  0  0
  2  3  1  0  0  0  0
  2  1  1  0  0  0  0
  3 13  1  0  0  0  0
  4  5  1  0  0  0  0
  4 15  1  0  0  0  0
  4  3  1  0  0  0  0
  5 16  1  6  0  0  0
  5  7  1  0  0  0  0
  6  5  1  0  0  0  0
  7  8  2  0  0  0  0
  7 23  1  0  0  0  0
  9  1  1  0  0  0  0
 12  3  1  0  0  0  0
 14  4  1  0  0  0  0
 17  6  1  0  0  0  0
 18  6  1  0  0  0  0
 19 28  1  0  0  0  0
 19 27  1  0  0  0  0
 19 20  1  0  0  0  0
 20 29  1  1  0  0  0
 21 20  1  0  0  0  0
 22 31  1  6  0  0  0
 22 20  1  0  0  0  0
 22 24  1  0  0  0  0
 23 22  1  0  0  0  0
 24 25  2  0  0  0  0
 26 19  1  0  0  0  0
 30 21  1  0  0  0  0
 32 23  1  0  0  0  0
 33 34  1  0  0  0  0
 34 36  1  0  0  0  0
 35 34  2  0  0  0  0
 36 46  1  0  0  0  0
 36 37  1  0  0  0  0
 37 48  1  0  0  0  0
 37 47  1  0  0  0  0
 38 37  1  0  0  0  0
 38 49  1  1  0  0  0
 39 24  1  0  0  0  0
 39 38  1  0  0  0  0
 40 38  1  0  0  0  0
 40 42  1  0  0  0  0
 41 40  2  0  0  0  0
 43 33  1  0  0  0  0
 44 33  1  0  0  0  0
 45 36  1  0  0  0  0
 50 39  1  0  0  0  0
M  END
$$$$
