MTR.pdb
 OpenBabel07022418573D

 56 55  0  0  1  0  0  0  0  0999 V2000
    3.4920   -4.1770    3.5990 C   0  0  0  0  0  0  0  0  0  0  0  0
    4.3120   -3.2000    2.2820 S   0  0  0  0  0  0  0  0  0  0  0  0
    3.0630   -2.9460    0.9820 C   0  0  0  0  0  0  0  0  0  0  0  0
    3.6350   -2.1420   -0.1700 C   0  0  0  0  0  0  0  0  0  0  0  0
    4.0690   -0.7990    0.4220 C   0  0  2  0  0  0  0  0  0  0  0  0
    5.0620   -1.1050    1.4340 N   0  0  0  0  0  0  0  0  0  0  0  0
    2.9430   -0.1120    1.0830 C   0  0  0  0  0  0  0  0  0  0  0  0
    2.9350    0.1250    2.3220 O   0  0  0  0  0  0  0  0  0  0  0  0
    3.9110   -3.9500    4.5890 H   0  0  0  0  0  0  0  0  0  0  0  0
    2.4090   -3.8710    3.6400 H   0  0  0  0  0  0  0  0  0  0  0  0
    3.4890   -5.2570    3.3510 H   0  0  0  0  0  0  0  0  0  0  0  0
    2.2680   -2.3100    1.4450 H   0  0  0  0  0  0  0  0  0  0  0  0
    2.6450   -3.9110    0.6700 H   0  0  0  0  0  0  0  0  0  0  0  0
    2.8010   -1.9820   -0.8820 H   0  0  0  0  0  0  0  0  0  0  0  0
    4.5020   -2.6300   -0.6150 H   0  0  0  0  0  0  0  0  0  0  0  0
    4.5390   -0.2000   -0.3700 H   0  0  0  0  0  0  0  0  0  0  0  0
    6.0290   -1.0880    1.0630 H   0  0  0  0  0  0  0  0  0  0  0  0
    4.9300   -0.6020    2.3160 H   0  0  0  0  0  0  0  0  0  0  0  0
    1.7200    3.2010    0.9120 C   0  0  0  0  0  0  0  0  0  0  0  0
    0.4810    2.4130    0.5030 C   0  0  1  0  0  0  0  0  0  0  0  0
    0.2290    2.4950   -0.8430 O   0  0  0  0  0  0  0  0  0  0  0  0
    0.6780    1.0040    0.9970 C   0  0  2  0  0  0  0  0  0  0  0  0
    1.7840    0.3320    0.3620 N   0  0  0  0  0  0  0  0  0  0  0  0
   -0.5770    0.1990    0.9150 C   0  0  0  0  0  0  0  0  0  0  0  0
   -1.6490    0.6260    1.4160 O   0  0  0  0  0  0  0  0  0  0  0  0
    1.5810    4.2830    0.8380 H   0  0  0  0  0  0  0  0  0  0  0  0
    1.8790    2.9670    1.9980 H   0  0  0  0  0  0  0  0  0  0  0  0
    2.6180    2.8350    0.3720 H   0  0  0  0  0  0  0  0  0  0  0  0
   -0.3620    2.8450    1.0560 H   0  0  0  0  0  0  0  0  0  0  0  0
    0.9380    2.1520   -1.4150 H   0  0  0  0  0  0  0  0  0  0  0  0
    0.9300    1.0830    2.0850 H   0  0  0  0  0  0  0  0  0  0  0  0
    1.7950    0.1310   -0.6770 H   0  0  0  0  0  0  0  0  0  0  0  0
   -7.0710   -0.2020   -0.3930 N   0  0  0  0  0  0  0  0  0  0  0  0
   -5.9240    0.2420   -1.1030 C   0  0  0  0  0  0  0  0  0  0  0  0
   -5.8390    1.4960   -1.3950 N   0  0  0  0  0  0  0  0  0  0  0  0
   -4.8790   -0.6430   -1.4990 N   0  0  0  0  0  0  0  0  0  0  0  0
   -3.5690   -0.0640   -1.6710 C   0  0  0  0  0  0  0  0  0  0  0  0
   -2.5290   -1.0410   -2.0830 C   0  0  0  0  0  0  0  0  0  0  0  0
   -2.2960   -2.1660   -1.1440 C   0  0  0  0  0  0  0  0  0  0  0  0
   -1.8510   -1.7870    0.2330 C   0  0  2  0  0  0  0  0  0  0  0  0
   -0.6240   -1.0670    0.2800 N   0  0  0  0  0  0  0  0  0  0  0  0
   -1.7400   -3.0320    1.0340 C   0  0  0  0  0  0  0  0  0  0  0  0
   -2.7120   -3.8120    1.1240 O   0  0  0  0  0  0  0  0  0  0  0  0
   -0.5670   -3.3300    1.6790 O   0  0  0  0  0  0  0  0  0  0  0  0
   -7.9640   -0.2830   -0.9170 H   0  0  0  0  0  0  0  0  0  0  0  0
   -7.0240   -0.4390    0.6180 H   0  0  0  0  0  0  0  0  0  0  0  0
   -6.5500    2.1870   -1.1420 H   0  0  0  0  0  0  0  0  0  0  0  0
   -5.1110   -1.6460   -1.6410 H   0  0  0  0  0  0  0  0  0  0  0  0
   -3.2550    0.5480   -0.8070 H   0  0  0  0  0  0  0  0  0  0  0  0
   -3.6750    0.6740   -2.5210 H   0  0  0  0  0  0  0  0  0  0  0  0
   -2.8030   -1.4710   -3.0670 H   0  0  0  0  0  0  0  0  0  0  0  0
   -1.5760   -0.4770   -2.2430 H   0  0  0  0  0  0  0  0  0  0  0  0
   -3.2060   -2.7950   -1.1160 H   0  0  0  0  0  0  0  0  0  0  0  0
   -1.5070   -2.8250   -1.6130 H   0  0  0  0  0  0  0  0  0  0  0  0
   -2.6930   -1.2120    0.7180 H   0  0  0  0  0  0  0  0  0  0  0  0
    0.2300   -1.4720   -0.1520 H   0  0  0  0  0  0  0  0  0  0  0  0
  1 10  1  0  0  0  0
  1  9  1  0  0  0  0
  2  1  1  0  0  0  0
  3 12  1  0  0  0  0
  3  2  1  0  0  0  0
  4  5  1  0  0  0  0
  4  3  1  0  0  0  0
  5 16  1  6  0  0  0
  5  7  1  0  0  0  0
  5  6  1  0  0  0  0
  6 18  1  0  0  0  0
  7  8  2  0  0  0  0
 11  1  1  0  0  0  0
 13  3  1  0  0  0  0
 14  4  1  0  0  0  0
 15  4  1  0  0  0  0
 17  6  1  0  0  0  0
 19 27  1  0  0  0  0
 20 19  1  0  0  0  0
 20 22  1  0  0  0  0
 20 29  1  1  0  0  0
 21 20  1  0  0  0  0
 22 31  1  1  0  0  0
 23 22  1  0  0  0  0
 23  7  1  0  0  0  0
 24 22  1  0  0  0  0
 24 25  2  0  0  0  0
 26 19  1  0  0  0  0
 28 19  1  0  0  0  0
 30 21  1  0  0  0  0
 32 23  1  0  0  0  0
 33 46  1  0  0  0  0
 34 33  1  0  0  0  0
 35 47  1  0  0  0  0
 35 34  2  0  0  0  0
 36 34  1  0  0  0  0
 37 36  1  0  0  0  0
 37 49  1  0  0  0  0
 38 37  1  0  0  0  0
 38 39  1  0  0  0  0
 39 53  1  0  0  0  0
 39 40  1  0  0  0  0
 40 41  1  0  0  0  0
 40 55  1  1  0  0  0
 40 42  1  0  0  0  0
 41 24  1  0  0  0  0
 42 43  2  0  0  0  0
 42 44  1  0  0  0  0
 45 33  1  0  0  0  0
 48 36  1  0  0  0  0
 50 37  1  0  0  0  0
 51 38  1  0  0  0  0
 52 38  1  0  0  0  0
 54 39  1  0  0  0  0
 56 41  1  0  0  0  0
M  END
$$$$
