MTS.pdb
 OpenBabel07022418573D

 44 43  0  0  1  0  0  0  0  0999 V2000
    3.0670   -1.7600    5.1570 C   0  0  0  0  0  0  0  0  0  0  0  0
    1.4540   -0.9100    5.0940 S   0  0  0  0  0  0  0  0  0  0  0  0
    1.7440    0.7750    4.5550 C   0  0  0  0  0  0  0  0  0  0  0  0
    0.4890    1.5930    4.4570 C   0  0  0  0  0  0  0  0  0  0  0  0
   -0.5190    1.0600    3.5030 C   0  0  2  0  0  0  0  0  0  0  0  0
   -0.9850   -0.2620    3.8130 N   0  0  0  0  0  0  0  0  0  0  0  0
    0.0060    1.0530    2.1080 C   0  0  0  0  0  0  0  0  0  0  0  0
    0.4850    2.0960    1.5760 O   0  0  0  0  0  0  0  0  0  0  0  0
    3.7330   -1.4140    4.3270 H   0  0  0  0  0  0  0  0  0  0  0  0
    3.5680   -1.5250    6.1180 H   0  0  0  0  0  0  0  0  0  0  0  0
    2.9520   -2.8560    5.0600 H   0  0  0  0  0  0  0  0  0  0  0  0
    2.3530    0.8050    3.6320 H   0  0  0  0  0  0  0  0  0  0  0  0
    2.3770    1.2690    5.3490 H   0  0  0  0  0  0  0  0  0  0  0  0
    0.0800    1.7480    5.4590 H   0  0  0  0  0  0  0  0  0  0  0  0
    0.7970    2.6050    4.0840 H   0  0  0  0  0  0  0  0  0  0  0  0
   -1.3940    1.7420    3.5120 H   0  0  0  0  0  0  0  0  0  0  0  0
   -1.7500   -0.5990    3.2330 H   0  0  0  0  0  0  0  0  0  0  0  0
   -1.0420   -0.4710    4.8160 H   0  0  0  0  0  0  0  0  0  0  0  0
    2.3770   -1.0220   -1.5270 C   0  0  0  0  0  0  0  0  0  0  0  0
    1.7340   -0.9900   -0.1630 C   0  0  1  0  0  0  0  0  0  0  0  0
    2.7230   -0.6100    0.7540 O   0  0  0  0  0  0  0  0  0  0  0  0
    0.5370   -0.0640   -0.0850 C   0  0  2  0  0  0  0  0  0  0  0  0
   -0.0010   -0.1170    1.2990 N   0  0  0  0  0  0  0  0  0  0  0  0
   -0.5170   -0.5570   -0.9730 C   0  0  0  0  0  0  0  0  0  0  0  0
   -1.5750   -1.0350   -0.4300 O   0  0  0  0  0  0  0  0  0  0  0  0
    1.9330   -1.7490   -2.2230 H   0  0  0  0  0  0  0  0  0  0  0  0
    2.4760   -0.0220   -1.9920 H   0  0  0  0  0  0  0  0  0  0  0  0
    3.4390   -1.4150   -1.3800 H   0  0  0  0  0  0  0  0  0  0  0  0
    1.4300   -2.0190    0.0960 H   0  0  0  0  0  0  0  0  0  0  0  0
    2.6750    0.3950    0.7910 H   0  0  0  0  0  0  0  0  0  0  0  0
    0.8860    0.9550   -0.2760 H   0  0  0  0  0  0  0  0  0  0  0  0
   -0.3810   -1.0160    1.6690 H   0  0  0  0  0  0  0  0  0  0  0  0
   -0.7250   -3.2510   -3.5420 O   0  0  0  0  0  0  0  0  0  0  0  0
   -1.8200   -2.5530   -3.0820 C   0  0  0  0  0  0  0  0  0  0  0  0
   -1.6130   -1.0810   -3.1390 C   0  0  2  0  0  0  0  0  0  0  0  0
   -0.5190   -0.5720   -2.3780 N   0  0  0  0  0  0  0  0  0  0  0  0
   -2.8820   -0.3620   -2.7960 C   0  0  0  0  0  0  0  0  0  0  0  0
   -3.9600   -0.6990   -3.3360 O   0  0  0  0  0  0  0  0  0  0  0  0
   -2.8610    0.6730   -1.8860 O   0  0  0  0  0  0  0  0  0  0  0  0
   -0.2960   -3.7880   -2.8130 H   0  0  0  0  0  0  0  0  0  0  0  0
   -2.6580   -2.7810   -3.8050 H   0  0  0  0  0  0  0  0  0  0  0  0
   -2.1820   -2.9210   -2.1070 H   0  0  0  0  0  0  0  0  0  0  0  0
   -1.4680   -0.8120   -4.2370 H   0  0  0  0  0  0  0  0  0  0  0  0
    0.3060   -0.1870   -2.8780 H   0  0  0  0  0  0  0  0  0  0  0  0
  1 10  1  0  0  0  0
  2  1  1  0  0  0  0
  3  2  1  0  0  0  0
  3 13  1  0  0  0  0
  4  3  1  0  0  0  0
  4 14  1  0  0  0  0
  5 16  1  1  0  0  0
  5  6  1  0  0  0  0
  5  4  1  0  0  0  0
  6 18  1  0  0  0  0
  7  5  1  0  0  0  0
  8  7  2  0  0  0  0
  9  1  1  0  0  0  0
 11  1  1  0  0  0  0
 12  3  1  0  0  0  0
 15  4  1  0  0  0  0
 17  6  1  0  0  0  0
 19 28  1  0  0  0  0
 19 20  1  0  0  0  0
 20 22  1  0  0  0  0
 20 29  1  1  0  0  0
 20 21  1  0  0  0  0
 21 30  1  0  0  0  0
 22 31  1  6  0  0  0
 22 23  1  0  0  0  0
 23 32  1  0  0  0  0
 23  7  1  0  0  0  0
 24 25  2  0  0  0  0
 24 22  1  0  0  0  0
 26 19  1  0  0  0  0
 27 19  1  0  0  0  0
 33 34  1  0  0  0  0
 33 40  1  0  0  0  0
 34 42  1  0  0  0  0
 35 43  1  6  0  0  0
 35 34  1  0  0  0  0
 35 37  1  0  0  0  0
 35 36  1  0  0  0  0
 36 24  1  0  0  0  0
 37 39  1  0  0  0  0
 38 37  2  0  0  0  0
 41 34  1  0  0  0  0
 44 36  1  0  0  0  0
M  END
$$$$
