MTT.pdb
 OpenBabel07022418573D

 47 46  0  0  1  0  0  0  0  0999 V2000
    1.0750   -5.0720    0.4760 C   0  0  0  0  0  0  0  0  0  0  0  0
    1.6140   -4.2240   -1.0270 S   0  0  0  0  0  0  0  0  0  0  0  0
    2.8210   -2.9520   -0.5610 C   0  0  0  0  0  0  0  0  0  0  0  0
    2.0830   -1.9130    0.2570 C   0  0  0  0  0  0  0  0  0  0  0  0
    3.0260   -0.7940    0.6960 C   0  0  2  0  0  0  0  0  0  0  0  0
    4.0860   -1.3350    1.4980 N   0  0  0  0  0  0  0  0  0  0  0  0
    2.2020    0.1530    1.4870 C   0  0  0  0  0  0  0  0  0  0  0  0
    2.5010    0.3640    2.6800 O   0  0  0  0  0  0  0  0  0  0  0  0
    1.0640   -6.1900    0.3380 H   0  0  0  0  0  0  0  0  0  0  0  0
    1.7240   -4.8420    1.3390 H   0  0  0  0  0  0  0  0  0  0  0  0
    0.0330   -4.7660    0.7800 H   0  0  0  0  0  0  0  0  0  0  0  0
    3.2730   -2.4550   -1.4450 H   0  0  0  0  0  0  0  0  0  0  0  0
    3.6200   -3.4440    0.0090 H   0  0  0  0  0  0  0  0  0  0  0  0
    1.6310   -2.3390    1.1520 H   0  0  0  0  0  0  0  0  0  0  0  0
    1.3050   -1.4460   -0.3540 H   0  0  0  0  0  0  0  0  0  0  0  0
    3.3900   -0.3040   -0.2310 H   0  0  0  0  0  0  0  0  0  0  0  0
    5.0240   -1.1990    1.0590 H   0  0  0  0  0  0  0  0  0  0  0  0
    4.1170   -0.9570    2.4700 H   0  0  0  0  0  0  0  0  0  0  0  0
    1.7920    3.5880    0.9400 C   0  0  0  0  0  0  0  0  0  0  0  0
    0.3570    3.1090    0.9810 C   0  0  1  0  0  0  0  0  0  0  0  0
   -0.0670    3.0300   -0.3570 O   0  0  0  0  0  0  0  0  0  0  0  0
    0.2520    1.7570    1.6580 C   0  0  2  0  0  0  0  0  0  0  0  0
    1.0860    0.8320    0.9450 N   0  0  0  0  0  0  0  0  0  0  0  0
   -1.1590    1.3010    1.7380 C   0  0  0  0  0  0  0  0  0  0  0  0
   -2.0140    2.0020    2.3280 O   0  0  0  0  0  0  0  0  0  0  0  0
    2.2740    3.2030   -0.0010 H   0  0  0  0  0  0  0  0  0  0  0  0
    1.8530    4.6850    0.9750 H   0  0  0  0  0  0  0  0  0  0  0  0
    2.3490    3.1200    1.7730 H   0  0  0  0  0  0  0  0  0  0  0  0
   -0.2620    3.8370    1.5440 H   0  0  0  0  0  0  0  0  0  0  0  0
    0.3360    3.7130   -0.9220 H   0  0  0  0  0  0  0  0  0  0  0  0
    0.6120    1.8700    2.6990 H   0  0  0  0  0  0  0  0  0  0  0  0
    0.8770    0.6150   -0.0750 H   0  0  0  0  0  0  0  0  0  0  0  0
   -2.9860   -1.4140   -1.0550 C   0  0  0  0  0  0  0  0  0  0  0  0
   -3.6410   -0.4640   -0.1030 C   0  0  1  0  0  0  0  0  0  0  0  0
   -4.9450   -0.9100    0.1120 O   0  0  0  0  0  0  0  0  0  0  0  0
   -2.9640   -0.3720    1.2350 C   0  0  2  0  0  0  0  0  0  0  0  0
   -1.6050    0.0780    1.1640 N   0  0  0  0  0  0  0  0  0  0  0  0
   -3.1300   -1.6100    2.0340 C   0  0  0  0  0  0  0  0  0  0  0  0
   -2.2080   -2.2220    2.5980 O   0  0  0  0  0  0  0  0  0  0  0  0
   -4.4180   -2.1160    2.1540 O   0  0  0  0  0  0  0  0  0  0  0  0
   -3.6360   -1.4730   -1.9580 H   0  0  0  0  0  0  0  0  0  0  0  0
   -2.8590   -2.4280   -0.6840 H   0  0  0  0  0  0  0  0  0  0  0  0
   -2.0290   -0.9550   -1.4210 H   0  0  0  0  0  0  0  0  0  0  0  0
   -3.6370    0.5410   -0.5540 H   0  0  0  0  0  0  0  0  0  0  0  0
   -5.0150   -1.8560   -0.1120 H   0  0  0  0  0  0  0  0  0  0  0  0
   -3.5300    0.4180    1.7960 H   0  0  0  0  0  0  0  0  0  0  0  0
   -0.8410   -0.4810    0.6720 H   0  0  0  0  0  0  0  0  0  0  0  0
  1 11  1  0  0  0  0
  1 10  1  0  0  0  0
  2  3  1  0  0  0  0
  2  1  1  0  0  0  0
  3 13  1  0  0  0  0
  3  4  1  0  0  0  0
  4  5  1  0  0  0  0
  4 14  1  0  0  0  0
  5 16  1  6  0  0  0
  5  7  1  0  0  0  0
  5  6  1  0  0  0  0
  6 18  1  0  0  0  0
  7  8  2  0  0  0  0
  9  1  1  0  0  0  0
 12  3  1  0  0  0  0
 15  4  1  0  0  0  0
 17  6  1  0  0  0  0
 19 27  1  0  0  0  0
 19 20  1  0  0  0  0
 19 28  1  0  0  0  0
 20 29  1  1  0  0  0
 20 22  1  0  0  0  0
 21 20  1  0  0  0  0
 22 24  1  0  0  0  0
 22 31  1  1  0  0  0
 23  7  1  0  0  0  0
 23 22  1  0  0  0  0
 24 25  2  0  0  0  0
 26 19  1  0  0  0  0
 30 21  1  0  0  0  0
 32 23  1  0  0  0  0
 33 42  1  0  0  0  0
 33 34  1  0  0  0  0
 34 44  1  6  0  0  0
 34 35  1  0  0  0  0
 34 36  1  0  0  0  0
 36 46  1  1  0  0  0
 36 38  1  0  0  0  0
 37 36  1  0  0  0  0
 37 24  1  0  0  0  0
 38 40  2  0  0  0  0
 38 39  1  0  0  0  0
 41 33  1  0  0  0  0
 43 33  1  0  0  0  0
 45 35  1  0  0  0  0
 47 37  1  0  0  0  0
M  END
$$$$
