MTV.pdb
 OpenBabel07022418573D

 49 48  0  0  1  0  0  0  0  0999 V2000
   -0.8240   -3.9390    6.6570 C   0  0  0  0  0  0  0  0  0  0  0  0
    0.6860   -3.3470    5.8750 S   0  0  0  0  0  0  0  0  0  0  0  0
    0.3090   -2.5280    4.2990 C   0  0  0  0  0  0  0  0  0  0  0  0
   -0.4730   -1.2700    4.4960 C   0  0  0  0  0  0  0  0  0  0  0  0
   -0.7840   -0.5790    3.1940 C   0  0  2  0  0  0  0  0  0  0  0  0
   -1.5640   -1.4850    2.3780 N   0  0  0  0  0  0  0  0  0  0  0  0
    0.4280   -0.1450    2.4810 C   0  0  0  0  0  0  0  0  0  0  0  0
    1.2670    0.6220    3.0160 O   0  0  0  0  0  0  0  0  0  0  0  0
   -0.5570   -4.8310    7.2610 H   0  0  0  0  0  0  0  0  0  0  0  0
   -1.2040   -3.1870    7.4000 H   0  0  0  0  0  0  0  0  0  0  0  0
   -1.6080   -4.1730    5.9330 H   0  0  0  0  0  0  0  0  0  0  0  0
   -0.2450   -3.2190    3.6280 H   0  0  0  0  0  0  0  0  0  0  0  0
    1.2830   -2.2850    3.8130 H   0  0  0  0  0  0  0  0  0  0  0  0
   -0.0430   -0.5930    5.2480 H   0  0  0  0  0  0  0  0  0  0  0  0
   -1.4730   -1.5810    4.9190 H   0  0  0  0  0  0  0  0  0  0  0  0
   -1.4460    0.2980    3.4060 H   0  0  0  0  0  0  0  0  0  0  0  0
   -1.0390   -2.3040    2.0180 H   0  0  0  0  0  0  0  0  0  0  0  0
   -2.0320   -1.0030    1.5800 H   0  0  0  0  0  0  0  0  0  0  0  0
    3.1480   -2.1370    1.1190 C   0  0  0  0  0  0  0  0  0  0  0  0
    2.6460   -1.3670   -0.1070 C   0  0  1  0  0  0  0  0  0  0  0  0
    1.9200   -2.1660   -0.9530 O   0  0  0  0  0  0  0  0  0  0  0  0
    1.8580   -0.1880    0.4160 C   0  0  2  0  0  0  0  0  0  0  0  0
    0.6910   -0.5800    1.1580 N   0  0  0  0  0  0  0  0  0  0  0  0
    1.4090    0.5870   -0.7640 C   0  0  0  0  0  0  0  0  0  0  0  0
    2.2690    1.0340   -1.5580 O   0  0  0  0  0  0  0  0  0  0  0  0
    3.4670   -1.4710    1.9190 H   0  0  0  0  0  0  0  0  0  0  0  0
    4.0580   -2.7080    0.7940 H   0  0  0  0  0  0  0  0  0  0  0  0
    2.4060   -2.8870    1.4450 H   0  0  0  0  0  0  0  0  0  0  0  0
    3.5570   -1.0460   -0.6490 H   0  0  0  0  0  0  0  0  0  0  0  0
    2.3090   -3.0700   -0.9810 H   0  0  0  0  0  0  0  0  0  0  0  0
    2.4730    0.4680    1.0620 H   0  0  0  0  0  0  0  0  0  0  0  0
    0.0080   -1.2240    0.6710 H   0  0  0  0  0  0  0  0  0  0  0  0
   -0.3920   -0.4710   -3.5810 C   0  0  0  0  0  0  0  0  0  0  0  0
   -1.2390    0.6930   -3.0900 C   0  0  0  0  0  0  0  0  0  0  0  0
   -1.7000    1.5190   -4.2640 C   0  0  0  0  0  0  0  0  0  0  0  0
   -0.4310    1.5880   -2.1640 C   0  0  2  0  0  0  0  0  0  0  0  0
    0.0330    0.8220   -0.9990 N   0  0  0  0  0  0  0  0  0  0  0  0
   -1.1640    2.7880   -1.7530 C   0  0  0  0  0  0  0  0  0  0  0  0
   -1.3570    3.0900   -0.5250 O   0  0  0  0  0  0  0  0  0  0  0  0
   -1.6960    3.6760   -2.6740 O   0  0  0  0  0  0  0  0  0  0  0  0
   -0.5780   -0.5840   -4.6820 H   0  0  0  0  0  0  0  0  0  0  0  0
    0.6780   -0.3160   -3.4050 H   0  0  0  0  0  0  0  0  0  0  0  0
   -0.6940   -1.4310   -3.1130 H   0  0  0  0  0  0  0  0  0  0  0  0
   -2.1190    0.2570   -2.6080 H   0  0  0  0  0  0  0  0  0  0  0  0
   -0.8750    2.2070   -4.5350 H   0  0  0  0  0  0  0  0  0  0  0  0
   -1.8490    0.7900   -5.1080 H   0  0  0  0  0  0  0  0  0  0  0  0
   -2.6390    2.0360   -4.0300 H   0  0  0  0  0  0  0  0  0  0  0  0
    0.4680    1.8960   -2.7250 H   0  0  0  0  0  0  0  0  0  0  0  0
   -0.6600    0.4300   -0.3110 H   0  0  0  0  0  0  0  0  0  0  0  0
  1  9  1  0  0  0  0
  1 10  1  0  0  0  0
  2  1  1  0  0  0  0
  3  4  1  0  0  0  0
  3  2  1  0  0  0  0
  4 15  1  0  0  0  0
  4 14  1  0  0  0  0
  5 16  1  1  0  0  0
  5  4  1  0  0  0  0
  6  5  1  0  0  0  0
  7  8  2  0  0  0  0
  7  5  1  0  0  0  0
 11  1  1  0  0  0  0
 12  3  1  0  0  0  0
 13  3  1  0  0  0  0
 17  6  1  0  0  0  0
 18  6  1  0  0  0  0
 19 28  1  0  0  0  0
 19 26  1  0  0  0  0
 20 29  1  6  0  0  0
 20 22  1  0  0  0  0
 20 19  1  0  0  0  0
 21 20  1  0  0  0  0
 22 31  1  1  0  0  0
 22 23  1  0  0  0  0
 23  7  1  0  0  0  0
 24 22  1  0  0  0  0
 25 24  2  0  0  0  0
 27 19  1  0  0  0  0
 30 21  1  0  0  0  0
 32 23  1  0  0  0  0
 33 42  1  0  0  0  0
 33 43  1  0  0  0  0
 33 34  1  0  0  0  0
 34 44  1  0  0  0  0
 34 36  1  0  0  0  0
 35 47  1  0  0  0  0
 35 34  1  0  0  0  0
 36 48  1  6  0  0  0
 36 38  1  0  0  0  0
 36 37  1  0  0  0  0
 37 24  1  0  0  0  0
 37 49  1  0  0  0  0
 38 39  1  0  0  0  0
 40 38  2  0  0  0  0
 41 33  1  0  0  0  0
 45 35  1  0  0  0  0
 46 35  1  0  0  0  0
M  END
$$$$
