MTY.pdb
 OpenBabel07022418573D

 54 54  0  0  1  0  0  0  0  0999 V2000
    4.1980   -2.5920   -1.8180 C   0  0  0  0  0  0  0  0  0  0  0  0
    3.9930   -1.4250   -0.4760 S   0  0  0  0  0  0  0  0  0  0  0  0
    4.6560   -2.0660    1.0860 C   0  0  0  0  0  0  0  0  0  0  0  0
    4.4850   -1.0880    2.2100 C   0  0  0  0  0  0  0  0  0  0  0  0
    3.0380   -0.7360    2.4780 C   0  0  2  0  0  0  0  0  0  0  0  0
    2.2460   -1.8730    2.8300 N   0  0  0  0  0  0  0  0  0  0  0  0
    2.4530    0.0340    1.3540 C   0  0  0  0  0  0  0  0  0  0  0  0
    3.0130    1.0630    0.8980 O   0  0  0  0  0  0  0  0  0  0  0  0
    5.0730   -3.2450   -1.5890 H   0  0  0  0  0  0  0  0  0  0  0  0
    4.3420   -2.0310   -2.7660 H   0  0  0  0  0  0  0  0  0  0  0  0
    3.3040   -3.2420   -1.8750 H   0  0  0  0  0  0  0  0  0  0  0  0
    4.2700   -3.0820    1.3220 H   0  0  0  0  0  0  0  0  0  0  0  0
    5.7520   -2.1910    0.9340 H   0  0  0  0  0  0  0  0  0  0  0  0
    5.0700   -0.1850    1.9520 H   0  0  0  0  0  0  0  0  0  0  0  0
    4.9680   -1.5280    3.1060 H   0  0  0  0  0  0  0  0  0  0  0  0
    3.0470   -0.0520    3.3640 H   0  0  0  0  0  0  0  0  0  0  0  0
    1.9950   -2.4970    2.0510 H   0  0  0  0  0  0  0  0  0  0  0  0
    2.7030   -2.3780    3.6190 H   0  0  0  0  0  0  0  0  0  0  0  0
   -0.2240   -1.6670   -1.4520 C   0  0  0  0  0  0  0  0  0  0  0  0
    0.5090   -0.3830   -1.6380 C   0  0  1  0  0  0  0  0  0  0  0  0
   -0.0540    0.4310   -2.6110 O   0  0  0  0  0  0  0  0  0  0  0  0
    0.6430    0.3840   -0.3590 C   0  0  2  0  0  0  0  0  0  0  0  0
    1.2130   -0.3520    0.7230 N   0  0  0  0  0  0  0  0  0  0  0  0
   -0.6260    1.0070    0.0850 C   0  0  0  0  0  0  0  0  0  0  0  0
   -1.2490    1.6930   -0.7670 O   0  0  0  0  0  0  0  0  0  0  0  0
   -0.5020   -1.8280   -0.3960 H   0  0  0  0  0  0  0  0  0  0  0  0
    0.4080   -2.5620   -1.7280 H   0  0  0  0  0  0  0  0  0  0  0  0
   -1.1280   -1.7550   -2.1020 H   0  0  0  0  0  0  0  0  0  0  0  0
    1.5370   -0.6240   -1.9940 H   0  0  0  0  0  0  0  0  0  0  0  0
    0.5780    1.1670   -2.7950 H   0  0  0  0  0  0  0  0  0  0  0  0
    1.3290    1.2540   -0.5880 H   0  0  0  0  0  0  0  0  0  0  0  0
    0.7400   -1.2050    1.0940 H   0  0  0  0  0  0  0  0  0  0  0  0
   -4.7110   -2.9940   -2.1670 O   0  0  0  0  0  0  0  0  0  0  0  0
   -4.4280   -2.1100   -1.1110 C   0  0  0  0  0  0  0  0  0  0  0  0
   -5.1320   -0.9410   -0.9480 C   0  0  0  0  0  0  0  0  0  0  0  0
   -4.8170   -0.1060    0.1030 C   0  0  0  0  0  0  0  0  0  0  0  0
   -3.8150   -0.4060    1.0000 C   0  0  0  0  0  0  0  0  0  0  0  0
   -3.4770    0.4780    2.1190 C   0  0  0  0  0  0  0  0  0  0  0  0
   -2.4230    1.5090    1.7830 C   0  0  2  0  0  0  0  0  0  0  0  0
   -1.1830    0.8910    1.3730 N   0  0  0  0  0  0  0  0  0  0  0  0
   -2.2630    2.4420    2.8980 C   0  0  0  0  0  0  0  0  0  0  0  0
   -3.2720    3.0420    3.3430 O   0  0  0  0  0  0  0  0  0  0  0  0
   -3.1240   -1.5850    0.8130 C   0  0  0  0  0  0  0  0  0  0  0  0
   -3.4210   -2.4330   -0.2280 C   0  0  0  0  0  0  0  0  0  0  0  0
   -1.0450    2.7070    3.5010 O   0  0  0  0  0  0  0  0  0  0  0  0
   -4.2510   -2.8800   -3.0550 H   0  0  0  0  0  0  0  0  0  0  0  0
   -5.9160   -0.7200   -1.6610 H   0  0  0  0  0  0  0  0  0  0  0  0
   -5.3980    0.8000    0.1890 H   0  0  0  0  0  0  0  0  0  0  0  0
   -3.0940   -0.1140    2.9780 H   0  0  0  0  0  0  0  0  0  0  0  0
   -4.3960    0.9820    2.4790 H   0  0  0  0  0  0  0  0  0  0  0  0
   -2.8050    2.0630    0.8890 H   0  0  0  0  0  0  0  0  0  0  0  0
   -0.6760    0.3290    2.0750 H   0  0  0  0  0  0  0  0  0  0  0  0
   -2.3190   -1.8900    1.4800 H   0  0  0  0  0  0  0  0  0  0  0  0
   -2.8850   -3.3670   -0.3900 H   0  0  0  0  0  0  0  0  0  0  0  0
  1  9  1  0  0  0  0
  1  2  1  0  0  0  0
  2  3  1  0  0  0  0
  3 12  1  0  0  0  0
  3  4  1  0  0  0  0
  4  5  1  0  0  0  0
  4 15  1  0  0  0  0
  5  6  1  0  0  0  0
  5 16  1  1  0  0  0
  6 18  1  0  0  0  0
  7  5  1  0  0  0  0
  8  7  2  0  0  0  0
 10  1  1  0  0  0  0
 11  1  1  0  0  0  0
 13  3  1  0  0  0  0
 14  4  1  0  0  0  0
 17  6  1  0  0  0  0
 19 26  1  0  0  0  0
 20 29  1  6  0  0  0
 20 19  1  0  0  0  0
 20 22  1  0  0  0  0
 21 20  1  0  0  0  0
 22 31  1  6  0  0  0
 22 24  1  0  0  0  0
 22 23  1  0  0  0  0
 23 32  1  0  0  0  0
 23  7  1  0  0  0  0
 24 40  1  0  0  0  0
 25 24  2  0  0  0  0
 27 19  1  0  0  0  0
 28 19  1  0  0  0  0
 30 21  1  0  0  0  0
 33 34  1  0  0  0  0
 34 35  2  0  0  0  0
 34 44  1  0  0  0  0
 35 36  1  0  0  0  0
 36 48  1  0  0  0  0
 36 37  2  0  0  0  0
 37 38  1  0  0  0  0
 38 50  1  0  0  0  0
 38 49  1  0  0  0  0
 39 51  1  6  0  0  0
 39 38  1  0  0  0  0
 39 41  1  0  0  0  0
 40 39  1  0  0  0  0
 40 52  1  0  0  0  0
 41 42  2  0  0  0  0
 41 45  1  0  0  0  0
 43 37  1  0  0  0  0
 43 53  1  0  0  0  0
 44 43  2  0  0  0  0
 46 33  1  0  0  0  0
 47 35  1  0  0  0  0
 54 44  1  0  0  0  0
M  END
$$$$
