MVA.pdb
 OpenBabel07022418573D

 45 44  0  0  1  0  0  0  0  0999 V2000
    5.2510   -3.9250    4.1290 C   0  0  0  0  0  0  0  0  0  0  0  0
    6.0150   -2.7400    2.9650 S   0  0  0  0  0  0  0  0  0  0  0  0
    4.9320   -2.5700    1.5040 C   0  0  0  0  0  0  0  0  0  0  0  0
    3.6180   -1.9120    1.9130 C   0  0  0  0  0  0  0  0  0  0  0  0
    2.7460   -1.7860    0.6990 C   0  0  2  0  0  0  0  0  0  0  0  0
    3.3550   -0.9920   -0.3200 N   0  0  0  0  0  0  0  0  0  0  0  0
    1.3820   -1.3650    1.0660 C   0  0  0  0  0  0  0  0  0  0  0  0
    0.7970   -2.0240    1.9630 O   0  0  0  0  0  0  0  0  0  0  0  0
    5.0710   -4.8990    3.6360 H   0  0  0  0  0  0  0  0  0  0  0  0
    4.3030   -3.5220    4.5430 H   0  0  0  0  0  0  0  0  0  0  0  0
    5.9680   -4.0780    4.9490 H   0  0  0  0  0  0  0  0  0  0  0  0
    4.7010   -3.6060    1.1710 H   0  0  0  0  0  0  0  0  0  0  0  0
    5.4390   -2.0510    0.6900 H   0  0  0  0  0  0  0  0  0  0  0  0
    3.7930   -0.9620    2.4340 H   0  0  0  0  0  0  0  0  0  0  0  0
    3.1200   -2.6230    2.6290 H   0  0  0  0  0  0  0  0  0  0  0  0
    2.6540   -2.8320    0.2770 H   0  0  0  0  0  0  0  0  0  0  0  0
    4.1030   -1.5910   -0.7800 H   0  0  0  0  0  0  0  0  0  0  0  0
    2.6680   -0.7970   -1.0860 H   0  0  0  0  0  0  0  0  0  0  0  0
   -1.9470    2.0640    1.8770 C   0  0  0  0  0  0  0  0  0  0  0  0
   -0.6300    1.5230    1.4370 C   0  0  0  0  0  0  0  0  0  0  0  0
    0.3250    1.6090    2.6090 C   0  0  0  0  0  0  0  0  0  0  0  0
   -0.6730    0.1200    0.8700 C   0  0  2  0  0  0  0  0  0  0  0  0
    0.6910   -0.2860    0.4890 N   0  0  0  0  0  0  0  0  0  0  0  0
   -1.4850    0.0170   -0.3740 C   0  0  0  0  0  0  0  0  0  0  0  0
   -0.9230   -0.2940   -1.4850 O   0  0  0  0  0  0  0  0  0  0  0  0
   -2.4410    2.5450    1.0050 H   0  0  0  0  0  0  0  0  0  0  0  0
   -2.5800    1.3480    2.4090 H   0  0  0  0  0  0  0  0  0  0  0  0
   -1.7440    2.9150    2.5860 H   0  0  0  0  0  0  0  0  0  0  0  0
   -0.1670    2.1500    0.6340 H   0  0  0  0  0  0  0  0  0  0  0  0
    0.4500    2.6960    2.8380 H   0  0  0  0  0  0  0  0  0  0  0  0
    1.3320    1.2220    2.3590 H   0  0  0  0  0  0  0  0  0  0  0  0
   -0.1230    1.1420    3.4870 H   0  0  0  0  0  0  0  0  0  0  0  0
   -1.0030   -0.5660    1.6710 H   0  0  0  0  0  0  0  0  0  0  0  0
    1.1450    0.2740   -0.2500 H   0  0  0  0  0  0  0  0  0  0  0  0
   -4.5600   -1.0270   -1.5970 C   0  0  0  0  0  0  0  0  0  0  0  0
   -3.5640    0.1040   -1.7520 C   0  0  2  0  0  0  0  0  0  0  0  0
   -2.8730    0.2340   -0.4630 N   0  0  0  0  0  0  0  0  0  0  0  0
   -4.3040    1.3520   -2.0740 C   0  0  0  0  0  0  0  0  0  0  0  0
   -4.3180    2.3650   -1.3280 O   0  0  0  0  0  0  0  0  0  0  0  0
   -5.0280    1.4370   -3.2530 O   0  0  0  0  0  0  0  0  0  0  0  0
   -4.4600   -1.5270   -0.6140 H   0  0  0  0  0  0  0  0  0  0  0  0
   -5.6100   -0.6900   -1.6960 H   0  0  0  0  0  0  0  0  0  0  0  0
   -4.4040   -1.8110   -2.3870 H   0  0  0  0  0  0  0  0  0  0  0  0
   -2.8410   -0.1700   -2.5560 H   0  0  0  0  0  0  0  0  0  0  0  0
   -3.4040    0.4770    0.3750 H   0  0  0  0  0  0  0  0  0  0  0  0
  1 10  1  0  0  0  0
  1 11  1  0  0  0  0
  2  1  1  0  0  0  0
  3  4  1  0  0  0  0
  3  2  1  0  0  0  0
  4 14  1  0  0  0  0
  4 15  1  0  0  0  0
  5 16  1  6  0  0  0
  5  7  1  0  0  0  0
  5  4  1  0  0  0  0
  6  5  1  0  0  0  0
  7  8  2  0  0  0  0
  9  1  1  0  0  0  0
 12  3  1  0  0  0  0
 13  3  1  0  0  0  0
 17  6  1  0  0  0  0
 18  6  1  0  0  0  0
 19 27  1  0  0  0  0
 19 28  1  0  0  0  0
 20 19  1  0  0  0  0
 20 21  1  0  0  0  0
 21 30  1  0  0  0  0
 21 32  1  0  0  0  0
 22 20  1  0  0  0  0
 22 33  1  1  0  0  0
 23 22  1  0  0  0  0
 23  7  1  0  0  0  0
 24 22  1  0  0  0  0
 25 24  2  0  0  0  0
 26 19  1  0  0  0  0
 29 20  1  0  0  0  0
 31 21  1  0  0  0  0
 34 23  1  0  0  0  0
 35 41  1  0  0  0  0
 36 44  1  6  0  0  0
 36 35  1  0  0  0  0
 36 37  1  0  0  0  0
 37 24  1  0  0  0  0
 37 45  1  0  0  0  0
 38 36  1  0  0  0  0
 38 39  1  0  0  0  0
 40 38  2  0  0  0  0
 42 35  1  0  0  0  0
 43 35  1  0  0  0  0
M  END
$$$$
