MVC.pdb
 OpenBabel07022418573D

 46 45  0  0  1  0  0  0  0  0999 V2000
   -1.7550   -5.5490   -1.6820 C   0  0  0  0  0  0  0  0  0  0  0  0
   -0.0930   -6.1940   -1.8450 S   0  0  0  0  0  0  0  0  0  0  0  0
    1.1530   -4.9530   -2.0910 C   0  0  0  0  0  0  0  0  0  0  0  0
    1.4350   -4.0630   -0.9340 C   0  0  0  0  0  0  0  0  0  0  0  0
    0.2110   -3.2710   -0.5590 C   0  0  2  0  0  0  0  0  0  0  0  0
   -0.1280   -2.4800   -1.7400 N   0  0  0  0  0  0  0  0  0  0  0  0
    0.5740   -2.2780    0.5040 C   0  0  0  0  0  0  0  0  0  0  0  0
    0.8760   -2.7140    1.6210 O   0  0  0  0  0  0  0  0  0  0  0  0
   -2.4150   -6.2550   -2.2950 H   0  0  0  0  0  0  0  0  0  0  0  0
   -2.1610   -5.6190   -0.6300 H   0  0  0  0  0  0  0  0  0  0  0  0
   -1.8820   -4.5690   -2.1410 H   0  0  0  0  0  0  0  0  0  0  0  0
    0.9210   -4.2730   -2.9650 H   0  0  0  0  0  0  0  0  0  0  0  0
    2.1420   -5.4140   -2.4030 H   0  0  0  0  0  0  0  0  0  0  0  0
    1.8250   -4.6560   -0.0630 H   0  0  0  0  0  0  0  0  0  0  0  0
    2.2320   -3.3450   -1.2680 H   0  0  0  0  0  0  0  0  0  0  0  0
   -0.6020   -3.9230   -0.2350 H   0  0  0  0  0  0  0  0  0  0  0  0
   -0.8640   -1.7930   -1.5670 H   0  0  0  0  0  0  0  0  0  0  0  0
    0.7420   -1.9850   -2.0240 H   0  0  0  0  0  0  0  0  0  0  0  0
    2.1890    1.6420   -0.1960 C   0  0  0  0  0  0  0  0  0  0  0  0
    2.1990    0.8160    1.0360 C   0  0  0  0  0  0  0  0  0  0  0  0
    2.6670    1.6240    2.2070 C   0  0  0  0  0  0  0  0  0  0  0  0
    0.9510    0.0730    1.3630 C   0  0  2  0  0  0  0  0  0  0  0  0
    0.5960   -0.8860    0.3210 N   0  0  0  0  0  0  0  0  0  0  0  0
   -0.2450    0.8620    1.6510 C   0  0  0  0  0  0  0  0  0  0  0  0
   -1.2840    0.6620    0.9330 O   0  0  0  0  0  0  0  0  0  0  0  0
    1.2660    1.3960   -0.7930 H   0  0  0  0  0  0  0  0  0  0  0  0
    2.1980    2.7530    0.0100 H   0  0  0  0  0  0  0  0  0  0  0  0
    3.1040    1.4940   -0.8270 H   0  0  0  0  0  0  0  0  0  0  0  0
    2.9880    0.0190    0.8970 H   0  0  0  0  0  0  0  0  0  0  0  0
    2.4780    1.0990    3.1900 H   0  0  0  0  0  0  0  0  0  0  0  0
    2.3470    2.6730    2.2110 H   0  0  0  0  0  0  0  0  0  0  0  0
    3.8070    1.6990    2.2180 H   0  0  0  0  0  0  0  0  0  0  0  0
    1.1690   -0.5570    2.2480 H   0  0  0  0  0  0  0  0  0  0  0  0
    0.3510   -0.4840   -0.5980 H   0  0  0  0  0  0  0  0  0  0  0  0
   -0.4260    1.8480    2.6470 N   0  0  0  0  0  0  0  0  0  0  0  0
   -1.6840    2.5650    2.8220 C   0  0  1  0  0  0  0  0  0  0  0  0
   -2.3120    2.3000    4.1630 C   0  0  0  0  0  0  0  0  0  0  0  0
   -2.6510    0.5320    4.3390 S   0  0  0  0  0  0  0  0  0  0  0  0
   -1.5030    4.0250    2.5860 C   0  0  0  0  0  0  0  0  0  0  0  0
   -0.4090    4.5510    2.2840 O   0  0  0  0  0  0  0  0  0  0  0  0
   -2.6230    4.8410    2.7120 O   0  0  0  0  0  0  0  0  0  0  0  0
    0.3500    2.0620    3.2730 H   0  0  0  0  0  0  0  0  0  0  0  0
   -2.3960    2.2030    2.0550 H   0  0  0  0  0  0  0  0  0  0  0  0
   -3.2850    2.8210    4.1890 H   0  0  0  0  0  0  0  0  0  0  0  0
   -1.7160    2.6780    5.0100 H   0  0  0  0  0  0  0  0  0  0  0  0
   -3.2620    0.2550    5.5670 H   0  0  0  0  0  0  0  0  0  0  0  0
  1 10  1  0  0  0  0
  2  1  1  0  0  0  0
  3  2  1  0  0  0  0
  3  4  1  0  0  0  0
  4  5  1  0  0  0  0
  4 14  1  0  0  0  0
  5 16  1  1  0  0  0
  5  7  1  0  0  0  0
  6 17  1  0  0  0  0
  6  5  1  0  0  0  0
  7  8  2  0  0  0  0
  9  1  1  0  0  0  0
 11  1  1  0  0  0  0
 12  3  1  0  0  0  0
 13  3  1  0  0  0  0
 15  4  1  0  0  0  0
 18  6  1  0  0  0  0
 19 27  1  0  0  0  0
 19 20  1  0  0  0  0
 20 22  1  0  0  0  0
 20 21  1  0  0  0  0
 21 31  1  0  0  0  0
 21 32  1  0  0  0  0
 21 30  1  0  0  0  0
 22 24  1  0  0  0  0
 22 33  1  1  0  0  0
 23  7  1  0  0  0  0
 23 22  1  0  0  0  0
 24 35  1  0  0  0  0
 25 24  2  0  0  0  0
 26 19  1  0  0  0  0
 28 19  1  0  0  0  0
 29 20  1  0  0  0  0
 34 23  1  0  0  0  0
 35 36  1  0  0  0  0
 35 42  1  0  0  0  0
 36 43  1  6  0  0  0
 36 37  1  0  0  0  0
 37 44  1  0  0  0  0
 37 38  1  0  0  0  0
 37 45  1  0  0  0  0
 38 46  1  0  0  0  0
 39 41  1  0  0  0  0
 39 36  1  0  0  0  0
 40 39  2  0  0  0  0
M  END
$$$$
