MVD.pdb
 OpenBabel07022418573D

 48 47  0  0  1  0  0  0  0  0999 V2000
   -0.9760   -4.0550    1.4630 C   0  0  0  0  0  0  0  0  0  0  0  0
    0.5490   -4.9120    1.1700 S   0  0  0  0  0  0  0  0  0  0  0  0
    1.8930   -4.0330    0.4200 C   0  0  0  0  0  0  0  0  0  0  0  0
    1.7720   -3.6230   -0.9900 C   0  0  0  0  0  0  0  0  0  0  0  0
    0.7650   -2.6160   -1.4090 C   0  0  2  0  0  0  0  0  0  0  0  0
    0.9340   -2.5450   -2.8960 N   0  0  0  0  0  0  0  0  0  0  0  0
    1.0920   -1.2200   -0.8980 C   0  0  0  0  0  0  0  0  0  0  0  0
    1.6000   -0.4130   -1.7510 O   0  0  0  0  0  0  0  0  0  0  0  0
   -1.7270   -4.7380    1.9860 H   0  0  0  0  0  0  0  0  0  0  0  0
   -1.4140   -3.6260    0.5680 H   0  0  0  0  0  0  0  0  0  0  0  0
   -0.7760   -3.2800    2.2660 H   0  0  0  0  0  0  0  0  0  0  0  0
    2.8070   -4.7170    0.4610 H   0  0  0  0  0  0  0  0  0  0  0  0
    2.1580   -3.1750    1.1000 H   0  0  0  0  0  0  0  0  0  0  0  0
    2.7710   -3.3020   -1.4180 H   0  0  0  0  0  0  0  0  0  0  0  0
    1.5060   -4.5770   -1.5710 H   0  0  0  0  0  0  0  0  0  0  0  0
   -0.2740   -2.8560   -1.2620 H   0  0  0  0  0  0  0  0  0  0  0  0
    1.9360   -2.5590   -3.1400 H   0  0  0  0  0  0  0  0  0  0  0  0
    0.4150   -1.7180   -3.2580 H   0  0  0  0  0  0  0  0  0  0  0  0
    3.2530    0.7330    0.0300 C   0  0  0  0  0  0  0  0  0  0  0  0
    1.8900    1.3330    0.2880 C   0  0  0  0  0  0  0  0  0  0  0  0
    2.1030    2.5670    1.1480 C   0  0  0  0  0  0  0  0  0  0  0  0
    1.0830    0.3290    1.1010 C   0  0  2  0  0  0  0  0  0  0  0  0
    0.8340   -0.8930    0.4180 N   0  0  0  0  0  0  0  0  0  0  0  0
   -0.0580    0.8770    1.8140 C   0  0  0  0  0  0  0  0  0  0  0  0
    0.0420    1.9270    2.4850 O   0  0  0  0  0  0  0  0  0  0  0  0
    3.6960    1.0000   -0.9410 H   0  0  0  0  0  0  0  0  0  0  0  0
    3.3240   -0.3500    0.2310 H   0  0  0  0  0  0  0  0  0  0  0  0
    3.9430    1.1800    0.8290 H   0  0  0  0  0  0  0  0  0  0  0  0
    1.3490    1.5950   -0.6490 H   0  0  0  0  0  0  0  0  0  0  0  0
    2.2960    2.2100    2.1790 H   0  0  0  0  0  0  0  0  0  0  0  0
    3.0830    3.0570    0.8530 H   0  0  0  0  0  0  0  0  0  0  0  0
    1.2780    3.2810    1.1120 H   0  0  0  0  0  0  0  0  0  0  0  0
    1.8870    0.0730    1.9140 H   0  0  0  0  0  0  0  0  0  0  0  0
    0.3780   -1.6530    1.0140 H   0  0  0  0  0  0  0  0  0  0  0  0
   -1.3600    0.2740    1.8080 N   0  0  0  0  0  0  0  0  0  0  0  0
   -2.4960    0.8100    2.5080 C   0  0  1  0  0  0  0  0  0  0  0  0
   -3.6660    0.9820    1.5690 C   0  0  0  0  0  0  0  0  0  0  0  0
   -3.2950    1.9060    0.4850 C   0  0  0  0  0  0  0  0  0  0  0  0
   -2.1710    2.4360    0.4090 O   0  0  0  0  0  0  0  0  0  0  0  0
   -2.9700   -0.1430    3.5730 C   0  0  0  0  0  0  0  0  0  0  0  0
   -3.9540    0.2030    4.2590 O   0  0  0  0  0  0  0  0  0  0  0  0
   -4.2240    2.2180   -0.5150 O   0  0  0  0  0  0  0  0  0  0  0  0
   -2.3320   -1.3460    3.7680 O   0  0  0  0  0  0  0  0  0  0  0  0
   -1.4530   -0.6030    1.2530 H   0  0  0  0  0  0  0  0  0  0  0  0
   -2.2910    1.7710    3.0000 H   0  0  0  0  0  0  0  0  0  0  0  0
   -4.5630    1.3590    2.0820 H   0  0  0  0  0  0  0  0  0  0  0  0
   -3.8470   -0.0120    1.1080 H   0  0  0  0  0  0  0  0  0  0  0  0
   -3.9230    2.4480   -1.4510 H   0  0  0  0  0  0  0  0  0  0  0  0
  1  9  1  0  0  0  0
  1 11  1  0  0  0  0
  2  1  1  0  0  0  0
  3 12  1  0  0  0  0
  3 13  1  0  0  0  0
  3  2  1  0  0  0  0
  4  3  1  0  0  0  0
  5 16  1  1  0  0  0
  5  4  1  0  0  0  0
  5  7  1  0  0  0  0
  6  5  1  0  0  0  0
  7 23  1  0  0  0  0
  8  7  2  0  0  0  0
 10  1  1  0  0  0  0
 14  4  1  0  0  0  0
 15  4  1  0  0  0  0
 17  6  1  0  0  0  0
 18  6  1  0  0  0  0
 19 27  1  0  0  0  0
 19 20  1  0  0  0  0
 19 28  1  0  0  0  0
 20 22  1  0  0  0  0
 20 21  1  0  0  0  0
 21 30  1  0  0  0  0
 22 24  1  0  0  0  0
 22 33  1  1  0  0  0
 23 34  1  0  0  0  0
 23 22  1  0  0  0  0
 24 25  2  0  0  0  0
 26 19  1  0  0  0  0
 29 20  1  0  0  0  0
 31 21  1  0  0  0  0
 32 21  1  0  0  0  0
 35 24  1  0  0  0  0
 35 36  1  0  0  0  0
 36 45  1  1  0  0  0
 36 40  1  0  0  0  0
 37 46  1  0  0  0  0
 37 36  1  0  0  0  0
 38 37  1  0  0  0  0
 39 38  2  0  0  0  0
 40 43  2  0  0  0  0
 40 41  1  0  0  0  0
 42 38  1  0  0  0  0
 44 35  1  0  0  0  0
 47 37  1  0  0  0  0
 48 42  1  0  0  0  0
M  END
$$$$
