MVH.pdb
 OpenBabel07022418573D

 52 52  0  0  1  0  0  0  0  0999 V2000
    1.9130   -5.6100    0.2380 C   0  0  0  0  0  0  0  0  0  0  0  0
    2.1760   -4.2230   -0.9320 S   0  0  0  0  0  0  0  0  0  0  0  0
    2.6630   -2.7940    0.0410 C   0  0  0  0  0  0  0  0  0  0  0  0
    2.9180   -1.5720   -0.8020 C   0  0  0  0  0  0  0  0  0  0  0  0
    3.3230   -0.4390    0.1330 C   0  0  2  0  0  0  0  0  0  0  0  0
    4.5210   -0.8880    0.8110 N   0  0  0  0  0  0  0  0  0  0  0  0
    2.2950   -0.1440    1.1420 C   0  0  0  0  0  0  0  0  0  0  0  0
    2.5420   -0.3170    2.3850 O   0  0  0  0  0  0  0  0  0  0  0  0
    1.2500   -6.3750   -0.1710 H   0  0  0  0  0  0  0  0  0  0  0  0
    2.9250   -5.9950    0.5000 H   0  0  0  0  0  0  0  0  0  0  0  0
    1.4980   -5.1900    1.1820 H   0  0  0  0  0  0  0  0  0  0  0  0
    3.6070   -3.0500    0.5840 H   0  0  0  0  0  0  0  0  0  0  0  0
    1.8380   -2.5540    0.7440 H   0  0  0  0  0  0  0  0  0  0  0  0
    3.7320   -1.7730   -1.5260 H   0  0  0  0  0  0  0  0  0  0  0  0
    1.9860   -1.2510   -1.3120 H   0  0  0  0  0  0  0  0  0  0  0  0
    3.5900    0.4440   -0.4850 H   0  0  0  0  0  0  0  0  0  0  0  0
    4.6640   -0.4070    1.7350 H   0  0  0  0  0  0  0  0  0  0  0  0
    5.3850   -0.7700    0.2400 H   0  0  0  0  0  0  0  0  0  0  0  0
   -1.3270    2.1700    3.1280 C   0  0  0  0  0  0  0  0  0  0  0  0
   -0.3560    2.0460    1.9750 C   0  0  0  0  0  0  0  0  0  0  0  0
    0.8120    2.9590    2.2480 C   0  0  0  0  0  0  0  0  0  0  0  0
    0.0660    0.5950    1.8990 C   0  0  2  0  0  0  0  0  0  0  0  0
    0.9970    0.3370    0.8360 N   0  0  0  0  0  0  0  0  0  0  0  0
   -1.1210   -0.2590    1.7010 C   0  0  0  0  0  0  0  0  0  0  0  0
   -2.0650   -0.2020    2.5160 O   0  0  0  0  0  0  0  0  0  0  0  0
   -1.0530    1.4020    3.8790 H   0  0  0  0  0  0  0  0  0  0  0  0
   -2.3860    2.0880    2.8150 H   0  0  0  0  0  0  0  0  0  0  0  0
   -1.1490    3.1530    3.6470 H   0  0  0  0  0  0  0  0  0  0  0  0
   -0.9040    2.3330    1.0560 H   0  0  0  0  0  0  0  0  0  0  0  0
    1.6210    2.4580    2.8140 H   0  0  0  0  0  0  0  0  0  0  0  0
    1.2030    3.4060    1.2900 H   0  0  0  0  0  0  0  0  0  0  0  0
    0.5170    3.8490    2.8630 H   0  0  0  0  0  0  0  0  0  0  0  0
    0.4860    0.3550    2.9020 H   0  0  0  0  0  0  0  0  0  0  0  0
    0.7410    0.4950   -0.1630 H   0  0  0  0  0  0  0  0  0  0  0  0
   -1.2220   -1.1470    0.6080 N   0  0  0  0  0  0  0  0  0  0  0  0
   -2.3550   -2.0030    0.3640 C   0  0  1  0  0  0  0  0  0  0  0  0
   -2.9580   -1.7220   -1.0140 C   0  0  0  0  0  0  0  0  0  0  0  0
   -3.4000   -0.3030   -1.0700 C   0  0  0  0  0  0  0  0  0  0  0  0
   -2.6730    0.7940   -1.4700 C   0  0  0  0  0  0  0  0  0  0  0  0
   -3.4610    1.8710   -1.3600 N   0  0  0  0  0  0  0  0  0  0  0  0
   -4.6650    1.5090   -0.9050 C   0  0  0  0  0  0  0  0  0  0  0  0
   -4.6230    0.1770   -0.7290 N   0  0  0  0  0  0  0  0  0  0  0  0
   -1.9340   -3.4220    0.3990 C   0  0  0  0  0  0  0  0  0  0  0  0
   -0.7400   -3.6940    0.6210 O   0  0  0  0  0  0  0  0  0  0  0  0
   -2.8330   -4.4540    0.1910 O   0  0  0  0  0  0  0  0  0  0  0  0
   -0.4230   -1.1800   -0.0610 H   0  0  0  0  0  0  0  0  0  0  0  0
   -3.1380   -1.8530    1.1620 H   0  0  0  0  0  0  0  0  0  0  0  0
   -2.1430   -1.8490   -1.7340 H   0  0  0  0  0  0  0  0  0  0  0  0
   -3.7940   -2.3850   -1.2350 H   0  0  0  0  0  0  0  0  0  0  0  0
   -1.6310    0.7560   -1.8130 H   0  0  0  0  0  0  0  0  0  0  0  0
   -3.1660    2.8450   -1.5980 H   0  0  0  0  0  0  0  0  0  0  0  0
   -5.4840    2.1790   -0.7270 H   0  0  0  0  0  0  0  0  0  0  0  0
  1 10  1  0  0  0  0
  1 11  1  0  0  0  0
  2  3  1  0  0  0  0
  2  1  1  0  0  0  0
  3 12  1  0  0  0  0
  3 13  1  0  0  0  0
  4  3  1  0  0  0  0
  4  5  1  0  0  0  0
  5 16  1  6  0  0  0
  5  6  1  0  0  0  0
  5  7  1  0  0  0  0
  6 17  1  0  0  0  0
  7  8  2  0  0  0  0
  9  1  1  0  0  0  0
 14  4  1  0  0  0  0
 15  4  1  0  0  0  0
 18  6  1  0  0  0  0
 19 28  1  0  0  0  0
 19 26  1  0  0  0  0
 20 21  1  0  0  0  0
 20 19  1  0  0  0  0
 21 30  1  0  0  0  0
 21 32  1  0  0  0  0
 22 20  1  0  0  0  0
 22 33  1  1  0  0  0
 23  7  1  0  0  0  0
 23 22  1  0  0  0  0
 24 22  1  0  0  0  0
 24 25  2  0  0  0  0
 27 19  1  0  0  0  0
 29 20  1  0  0  0  0
 31 21  1  0  0  0  0
 34 23  1  0  0  0  0
 35 24  1  0  0  0  0
 36 43  1  0  0  0  0
 36 35  1  0  0  0  0
 36 47  1  1  0  0  0
 37 36  1  0  0  0  0
 38 37  1  0  0  0  0
 38 42  1  0  0  0  0
 39 40  1  0  0  0  0
 39 38  2  0  0  0  0
 40 41  1  0  0  0  0
 41 42  2  0  0  0  0
 41 52  1  0  0  0  0
 43 44  1  0  0  0  0
 45 43  2  0  0  0  0
 46 35  1  0  0  0  0
 48 37  1  0  0  0  0
 49 37  1  0  0  0  0
 50 39  1  0  0  0  0
 51 40  1  0  0  0  0
M  END
$$$$
