MVI.pdb
 OpenBabel07022418573D

 54 53  0  0  1  0  0  0  0  0999 V2000
    2.3030   -5.9480    4.8070 C   0  0  0  0  0  0  0  0  0  0  0  0
    1.6530   -4.5330    5.6990 S   0  0  0  0  0  0  0  0  0  0  0  0
    0.2990   -3.6880    4.9220 C   0  0  0  0  0  0  0  0  0  0  0  0
    0.5510   -2.7520    3.8080 C   0  0  0  0  0  0  0  0  0  0  0  0
    1.3050   -3.3390    2.6700 C   0  0  2  0  0  0  0  0  0  0  0  0
    2.6100   -3.7100    3.1780 N   0  0  0  0  0  0  0  0  0  0  0  0
    1.5240   -2.3650    1.5650 C   0  0  0  0  0  0  0  0  0  0  0  0
    2.6860   -1.9430    1.3760 O   0  0  0  0  0  0  0  0  0  0  0  0
    1.8020   -6.1610    3.8620 H   0  0  0  0  0  0  0  0  0  0  0  0
    3.3870   -5.8110    4.6410 H   0  0  0  0  0  0  0  0  0  0  0  0
    2.1590   -6.9040    5.4170 H   0  0  0  0  0  0  0  0  0  0  0  0
   -0.3550   -3.1610    5.7170 H   0  0  0  0  0  0  0  0  0  0  0  0
   -0.4380   -4.5160    4.6080 H   0  0  0  0  0  0  0  0  0  0  0  0
   -0.3930   -2.2360    3.4680 H   0  0  0  0  0  0  0  0  0  0  0  0
    1.2230   -1.9330    4.2310 H   0  0  0  0  0  0  0  0  0  0  0  0
    0.7380   -4.2290    2.3180 H   0  0  0  0  0  0  0  0  0  0  0  0
    3.1410   -2.8310    3.4340 H   0  0  0  0  0  0  0  0  0  0  0  0
    3.2110   -4.1990    2.5000 H   0  0  0  0  0  0  0  0  0  0  0  0
    0.8390   -0.7330   -2.8590 C   0  0  0  0  0  0  0  0  0  0  0  0
    0.6160   -1.6390   -1.6900 C   0  0  0  0  0  0  0  0  0  0  0  0
    1.7340   -2.6790   -1.7010 C   0  0  0  0  0  0  0  0  0  0  0  0
    0.7270   -0.9160   -0.3750 C   0  0  2  0  0  0  0  0  0  0  0  0
    0.5150   -1.8860    0.7190 N   0  0  0  0  0  0  0  0  0  0  0  0
   -0.2140    0.2190   -0.2150 C   0  0  0  0  0  0  0  0  0  0  0  0
   -1.0930    0.0770    0.6750 O   0  0  0  0  0  0  0  0  0  0  0  0
    1.7760   -0.1460   -2.8030 H   0  0  0  0  0  0  0  0  0  0  0  0
   -0.0480   -0.1920   -3.2000 H   0  0  0  0  0  0  0  0  0  0  0  0
    1.0560   -1.4480   -3.7310 H   0  0  0  0  0  0  0  0  0  0  0  0
   -0.3720   -2.1140   -1.8390 H   0  0  0  0  0  0  0  0  0  0  0  0
    2.6940   -2.2260   -1.3830 H   0  0  0  0  0  0  0  0  0  0  0  0
    1.9280   -3.0410   -2.7550 H   0  0  0  0  0  0  0  0  0  0  0  0
    1.4480   -3.5780   -1.1250 H   0  0  0  0  0  0  0  0  0  0  0  0
    1.7480   -0.5390   -0.2800 H   0  0  0  0  0  0  0  0  0  0  0  0
   -0.4570   -2.2150    0.8440 H   0  0  0  0  0  0  0  0  0  0  0  0
   -2.7300    4.8130   -1.7540 C   0  0  0  0  0  0  0  0  0  0  0  0
   -3.2970    3.4480   -1.4740 C   0  0  0  0  0  0  0  0  0  0  0  0
   -2.3220    2.3250   -1.5960 C   0  0  2  0  0  0  0  0  0  0  0  0
   -3.0530    1.0350   -1.3070 C   0  0  0  0  0  0  0  0  0  0  0  0
   -1.0630    2.4860   -0.8340 C   0  0  2  0  0  0  0  0  0  0  0  0
   -0.1560    1.3900   -0.9870 N   0  0  0  0  0  0  0  0  0  0  0  0
   -1.1910    2.8400    0.5890 C   0  0  0  0  0  0  0  0  0  0  0  0
   -2.0430    3.6530    1.0430 O   0  0  0  0  0  0  0  0  0  0  0  0
   -0.3400    2.2720    1.5160 O   0  0  0  0  0  0  0  0  0  0  0  0
   -1.7950    5.0550   -1.2620 H   0  0  0  0  0  0  0  0  0  0  0  0
   -3.5080    5.5630   -1.4800 H   0  0  0  0  0  0  0  0  0  0  0  0
   -2.6240    4.8890   -2.8630 H   0  0  0  0  0  0  0  0  0  0  0  0
   -3.8860    3.4170   -0.5300 H   0  0  0  0  0  0  0  0  0  0  0  0
   -4.0690    3.2670   -2.2820 H   0  0  0  0  0  0  0  0  0  0  0  0
   -2.0410    2.2670   -2.6840 H   0  0  0  0  0  0  0  0  0  0  0  0
   -2.4710    0.1660   -1.6730 H   0  0  0  0  0  0  0  0  0  0  0  0
   -3.4770    0.9450   -0.3120 H   0  0  0  0  0  0  0  0  0  0  0  0
   -3.9540    1.0640   -2.0010 H   0  0  0  0  0  0  0  0  0  0  0  0
   -0.5780    3.4460   -1.2690 H   0  0  0  0  0  0  0  0  0  0  0  0
    0.5950    1.5320   -1.7390 H   0  0  0  0  0  0  0  0  0  0  0  0
  1 11  1  0  0  0  0
  1  2  1  0  0  0  0
  3  2  1  0  0  0  0
  3 12  1  0  0  0  0
  4 15  1  0  0  0  0
  4  3  1  0  0  0  0
  5 16  1  6  0  0  0
  5  6  1  0  0  0  0
  5  4  1  0  0  0  0
  6 17  1  0  0  0  0
  7  5  1  0  0  0  0
  8  7  2  0  0  0  0
  9  1  1  0  0  0  0
 10  1  1  0  0  0  0
 13  3  1  0  0  0  0
 14  4  1  0  0  0  0
 18  6  1  0  0  0  0
 19 26  1  0  0  0  0
 19 20  1  0  0  0  0
 20 22  1  0  0  0  0
 21 20  1  0  0  0  0
 21 30  1  0  0  0  0
 21 32  1  0  0  0  0
 22 33  1  1  0  0  0
 22 24  1  0  0  0  0
 22 23  1  0  0  0  0
 23 34  1  0  0  0  0
 23  7  1  0  0  0  0
 24 25  2  0  0  0  0
 27 19  1  0  0  0  0
 28 19  1  0  0  0  0
 29 20  1  0  0  0  0
 31 21  1  0  0  0  0
 35 45  1  0  0  0  0
 35 36  1  0  0  0  0
 35 44  1  0  0  0  0
 36 47  1  0  0  0  0
 37 49  1  6  0  0  0
 37 36  1  0  0  0  0
 37 38  1  0  0  0  0
 37 39  1  0  0  0  0
 38 51  1  0  0  0  0
 39 53  1  6  0  0  0
 39 41  1  0  0  0  0
 40 39  1  0  0  0  0
 40 24  1  0  0  0  0
 41 42  2  0  0  0  0
 41 43  1  0  0  0  0
 46 35  1  0  0  0  0
 48 36  1  0  0  0  0
 50 38  1  0  0  0  0
 52 38  1  0  0  0  0
 54 40  1  0  0  0  0
M  END
$$$$
