MVK.pdb
 OpenBabel07022418573D

 56 55  0  0  1  0  0  0  0  0999 V2000
    2.5350   -5.4640    2.6560 C   0  0  0  0  0  0  0  0  0  0  0  0
    3.2740   -4.3780    1.4060 S   0  0  0  0  0  0  0  0  0  0  0  0
    1.9110   -3.4300    0.6380 C   0  0  0  0  0  0  0  0  0  0  0  0
    2.4660   -2.4970   -0.4230 C   0  0  0  0  0  0  0  0  0  0  0  0
    3.4510   -1.5290    0.2020 C   0  0  2  0  0  0  0  0  0  0  0  0
    4.5190   -2.3100    0.7880 N   0  0  0  0  0  0  0  0  0  0  0  0
    2.7350   -0.7620    1.2300 C   0  0  0  0  0  0  0  0  0  0  0  0
    3.0520   -0.8130    2.4650 O   0  0  0  0  0  0  0  0  0  0  0  0
    1.9930   -6.3050    2.1800 H   0  0  0  0  0  0  0  0  0  0  0  0
    3.3580   -5.8910    3.2690 H   0  0  0  0  0  0  0  0  0  0  0  0
    1.8290   -4.9170    3.3250 H   0  0  0  0  0  0  0  0  0  0  0  0
    1.4120   -2.8780    1.4560 H   0  0  0  0  0  0  0  0  0  0  0  0
    1.1760   -4.1060    0.1510 H   0  0  0  0  0  0  0  0  0  0  0  0
    1.6040   -1.9240   -0.8240 H   0  0  0  0  0  0  0  0  0  0  0  0
    2.9610   -3.1030   -1.1820 H   0  0  0  0  0  0  0  0  0  0  0  0
    3.8390   -0.8560   -0.5830 H   0  0  0  0  0  0  0  0  0  0  0  0
    4.6700   -1.9920    1.7630 H   0  0  0  0  0  0  0  0  0  0  0  0
    5.4010   -2.1280    0.2270 H   0  0  0  0  0  0  0  0  0  0  0  0
    0.4870    3.2410    2.4640 C   0  0  0  0  0  0  0  0  0  0  0  0
    1.1750    2.3010    1.5350 C   0  0  0  0  0  0  0  0  0  0  0  0
    0.8350    2.6650    0.1100 C   0  0  0  0  0  0  0  0  0  0  0  0
    0.9120    0.8470    1.8370 C   0  0  2  0  0  0  0  0  0  0  0  0
    1.6490    0.0710    0.8500 N   0  0  0  0  0  0  0  0  0  0  0  0
   -0.5020    0.4970    1.8930 C   0  0  0  0  0  0  0  0  0  0  0  0
   -1.2730    1.0790    2.6960 O   0  0  0  0  0  0  0  0  0  0  0  0
    1.0940    4.1660    2.6790 H   0  0  0  0  0  0  0  0  0  0  0  0
   -0.4560    3.6210    2.0090 H   0  0  0  0  0  0  0  0  0  0  0  0
    0.2350    2.8150    3.4500 H   0  0  0  0  0  0  0  0  0  0  0  0
    2.2730    2.4550    1.6500 H   0  0  0  0  0  0  0  0  0  0  0  0
    0.2980    3.6520    0.0630 H   0  0  0  0  0  0  0  0  0  0  0  0
    1.7370    2.7980   -0.5250 H   0  0  0  0  0  0  0  0  0  0  0  0
    0.1750    1.9300   -0.3830 H   0  0  0  0  0  0  0  0  0  0  0  0
    1.3640    0.6440    2.8360 H   0  0  0  0  0  0  0  0  0  0  0  0
    1.4030    0.1000   -0.1620 H   0  0  0  0  0  0  0  0  0  0  0  0
   -1.1020   -0.4990    1.0730 N   0  0  0  0  0  0  0  0  0  0  0  0
   -2.5130   -0.8260    1.1520 C   0  0  1  0  0  0  0  0  0  0  0  0
   -3.2270   -0.5590   -0.1610 C   0  0  0  0  0  0  0  0  0  0  0  0
   -2.6180   -1.3930   -1.2690 C   0  0  0  0  0  0  0  0  0  0  0  0
   -3.3120   -1.1420   -2.5660 C   0  0  0  0  0  0  0  0  0  0  0  0
   -3.2220    0.3000   -2.9910 C   0  0  0  0  0  0  0  0  0  0  0  0
   -3.9100    0.4930   -4.2580 N   0  0  0  0  0  0  0  0  0  0  0  0
   -2.7350   -2.2450    1.5010 C   0  0  0  0  0  0  0  0  0  0  0  0
   -1.8080   -3.0720    1.7060 O   0  0  0  0  0  0  0  0  0  0  0  0
   -4.0390   -2.6910    1.6100 O   0  0  0  0  0  0  0  0  0  0  0  0
   -0.5280   -1.0280    0.3810 H   0  0  0  0  0  0  0  0  0  0  0  0
   -3.0270   -0.2060    1.9250 H   0  0  0  0  0  0  0  0  0  0  0  0
   -3.1520    0.5140   -0.3600 H   0  0  0  0  0  0  0  0  0  0  0  0
   -4.2700   -0.9030   -0.0360 H   0  0  0  0  0  0  0  0  0  0  0  0
   -2.6520   -2.4610   -1.0220 H   0  0  0  0  0  0  0  0  0  0  0  0
   -1.5230   -1.1470   -1.3930 H   0  0  0  0  0  0  0  0  0  0  0  0
   -4.3990   -1.4080   -2.4570 H   0  0  0  0  0  0  0  0  0  0  0  0
   -2.8830   -1.7810   -3.3580 H   0  0  0  0  0  0  0  0  0  0  0  0
   -3.7820    0.9380   -2.2490 H   0  0  0  0  0  0  0  0  0  0  0  0
   -2.1790    0.6480   -3.0090 H   0  0  0  0  0  0  0  0  0  0  0  0
   -4.9070    0.7140   -4.1390 H   0  0  0  0  0  0  0  0  0  0  0  0
   -3.4180    1.2880   -4.7330 H   0  0  0  0  0  0  0  0  0  0  0  0
  1 10  1  0  0  0  0
  1 11  1  0  0  0  0
  2  1  1  0  0  0  0
  3  2  1  0  0  0  0
  3 12  1  0  0  0  0
  4  5  1  0  0  0  0
  4  3  1  0  0  0  0
  5 16  1  6  0  0  0
  5  6  1  0  0  0  0
  5  7  1  0  0  0  0
  6 17  1  0  0  0  0
  7  8  2  0  0  0  0
  9  1  1  0  0  0  0
 13  3  1  0  0  0  0
 14  4  1  0  0  0  0
 15  4  1  0  0  0  0
 18  6  1  0  0  0  0
 19 26  1  0  0  0  0
 19 28  1  0  0  0  0
 20 29  1  0  0  0  0
 20 22  1  0  0  0  0
 20 19  1  0  0  0  0
 21 20  1  0  0  0  0
 22 24  1  0  0  0  0
 22 33  1  1  0  0  0
 23  7  1  0  0  0  0
 23 22  1  0  0  0  0
 24 25  2  0  0  0  0
 27 19  1  0  0  0  0
 30 21  1  0  0  0  0
 31 21  1  0  0  0  0
 32 21  1  0  0  0  0
 34 23  1  0  0  0  0
 35 36  1  0  0  0  0
 35 24  1  0  0  0  0
 36 42  1  0  0  0  0
 36 46  1  1  0  0  0
 37 48  1  0  0  0  0
 37 36  1  0  0  0  0
 38 49  1  0  0  0  0
 38 37  1  0  0  0  0
 39 51  1  0  0  0  0
 39 38  1  0  0  0  0
 40 39  1  0  0  0  0
 40 53  1  0  0  0  0
 41 55  1  0  0  0  0
 41 40  1  0  0  0  0
 42 44  2  0  0  0  0
 42 43  1  0  0  0  0
 45 35  1  0  0  0  0
 47 37  1  0  0  0  0
 50 38  1  0  0  0  0
 52 39  1  0  0  0  0
 54 40  1  0  0  0  0
 56 41  1  0  0  0  0
M  END
$$$$
