MVL.pdb
 OpenBabel07022418573D

 54 53  0  0  1  0  0  0  0  0999 V2000
    0.5310   -5.7850    5.1890 C   0  0  0  0  0  0  0  0  0  0  0  0
    0.8600   -4.0090    5.1670 S   0  0  0  0  0  0  0  0  0  0  0  0
    2.3180   -3.6080    4.1920 C   0  0  0  0  0  0  0  0  0  0  0  0
    2.1230   -3.9060    2.7330 C   0  0  0  0  0  0  0  0  0  0  0  0
    0.9780   -3.1340    2.1120 C   0  0  2  0  0  0  0  0  0  0  0  0
    0.9450   -3.5560    0.7030 N   0  0  0  0  0  0  0  0  0  0  0  0
    1.1700   -1.6680    2.2020 C   0  0  0  0  0  0  0  0  0  0  0  0
    1.2290   -1.0390    3.2730 O   0  0  0  0  0  0  0  0  0  0  0  0
   -0.4270   -6.0490    4.6680 H   0  0  0  0  0  0  0  0  0  0  0  0
    1.3790   -6.3800    4.7730 H   0  0  0  0  0  0  0  0  0  0  0  0
    0.4160   -6.0900    6.2510 H   0  0  0  0  0  0  0  0  0  0  0  0
    3.1350   -4.3080    4.5360 H   0  0  0  0  0  0  0  0  0  0  0  0
    2.6370   -2.5630    4.3240 H   0  0  0  0  0  0  0  0  0  0  0  0
    3.0370   -3.7530    2.1360 H   0  0  0  0  0  0  0  0  0  0  0  0
    1.8950   -5.0010    2.6670 H   0  0  0  0  0  0  0  0  0  0  0  0
    0.0310   -3.4380    2.5950 H   0  0  0  0  0  0  0  0  0  0  0  0
    0.8540   -4.5900    0.6340 H   0  0  0  0  0  0  0  0  0  0  0  0
    1.7970   -3.2840    0.2050 H   0  0  0  0  0  0  0  0  0  0  0  0
    2.9440    0.7690   -0.9800 C   0  0  0  0  0  0  0  0  0  0  0  0
    2.7460    1.0930    0.4640 C   0  0  0  0  0  0  0  0  0  0  0  0
    2.6790    2.6140    0.5270 C   0  0  0  0  0  0  0  0  0  0  0  0
    1.4920    0.5680    1.0610 C   0  0  2  0  0  0  0  0  0  0  0  0
    1.3050   -0.8400    1.0450 N   0  0  0  0  0  0  0  0  0  0  0  0
    0.2600    1.1690    0.4540 C   0  0  0  0  0  0  0  0  0  0  0  0
    0.1770    2.4030    0.3530 O   0  0  0  0  0  0  0  0  0  0  0  0
    3.9120    1.2170   -1.2980 H   0  0  0  0  0  0  0  0  0  0  0  0
    2.1570    1.2700   -1.5730 H   0  0  0  0  0  0  0  0  0  0  0  0
    3.0050   -0.3090   -1.2070 H   0  0  0  0  0  0  0  0  0  0  0  0
    3.5980    0.8260    1.1060 H   0  0  0  0  0  0  0  0  0  0  0  0
    2.1680    2.9770    1.4280 H   0  0  0  0  0  0  0  0  0  0  0  0
    2.2860    3.0360   -0.4240 H   0  0  0  0  0  0  0  0  0  0  0  0
    3.7320    3.0160    0.6010 H   0  0  0  0  0  0  0  0  0  0  0  0
    1.5120    0.8680    2.1490 H   0  0  0  0  0  0  0  0  0  0  0  0
    1.2650   -1.2990    0.1070 H   0  0  0  0  0  0  0  0  0  0  0  0
   -3.6570    2.4310   -2.7890 C   0  0  0  0  0  0  0  0  0  0  0  0
   -3.6240    0.9500   -2.5640 C   0  0  0  0  0  0  0  0  0  0  0  0
   -3.7800    0.3230   -3.9650 C   0  0  0  0  0  0  0  0  0  0  0  0
   -2.3870    0.4280   -1.9320 C   0  0  0  0  0  0  0  0  0  0  0  0
   -2.0280    0.9370   -0.6050 C   0  0  2  0  0  0  0  0  0  0  0  0
   -0.8240    0.4200   -0.0160 N   0  0  0  0  0  0  0  0  0  0  0  0
   -3.1140    0.6370    0.3700 C   0  0  0  0  0  0  0  0  0  0  0  0
   -4.3180    0.9590    0.2020 O   0  0  0  0  0  0  0  0  0  0  0  0
   -2.8740   -0.0430    1.5790 O   0  0  0  0  0  0  0  0  0  0  0  0
   -3.9320    3.0110   -1.8860 H   0  0  0  0  0  0  0  0  0  0  0  0
   -4.5030    2.6110   -3.5120 H   0  0  0  0  0  0  0  0  0  0  0  0
   -2.7670    2.8460   -3.2590 H   0  0  0  0  0  0  0  0  0  0  0  0
   -4.5730    0.6760   -2.0670 H   0  0  0  0  0  0  0  0  0  0  0  0
   -4.5780    0.8500   -4.5330 H   0  0  0  0  0  0  0  0  0  0  0  0
   -4.0160   -0.7640   -3.8360 H   0  0  0  0  0  0  0  0  0  0  0  0
   -2.8400    0.4570   -4.5520 H   0  0  0  0  0  0  0  0  0  0  0  0
   -2.5710   -0.6910   -1.8080 H   0  0  0  0  0  0  0  0  0  0  0  0
   -1.5130    0.4150   -2.6460 H   0  0  0  0  0  0  0  0  0  0  0  0
   -1.9710    2.0530   -0.6410 H   0  0  0  0  0  0  0  0  0  0  0  0
   -0.7620   -0.6180    0.0650 H   0  0  0  0  0  0  0  0  0  0  0  0
  1 11  1  0  0  0  0
  2  1  1  0  0  0  0
  3 13  1  0  0  0  0
  3 12  1  0  0  0  0
  3  2  1  0  0  0  0
  4  3  1  0  0  0  0
  5  7  1  0  0  0  0
  5 16  1  1  0  0  0
  5  4  1  0  0  0  0
  6  5  1  0  0  0  0
  7  8  2  0  0  0  0
  9  1  1  0  0  0  0
 10  1  1  0  0  0  0
 14  4  1  0  0  0  0
 15  4  1  0  0  0  0
 17  6  1  0  0  0  0
 18  6  1  0  0  0  0
 19 20  1  0  0  0  0
 20 21  1  0  0  0  0
 20 22  1  0  0  0  0
 20 29  1  0  0  0  0
 21 32  1  0  0  0  0
 21 30  1  0  0  0  0
 22 33  1  1  0  0  0
 23 22  1  0  0  0  0
 23  7  1  0  0  0  0
 24 22  1  0  0  0  0
 25 24  2  0  0  0  0
 26 19  1  0  0  0  0
 27 19  1  0  0  0  0
 28 19  1  0  0  0  0
 31 21  1  0  0  0  0
 34 23  1  0  0  0  0
 35 36  1  0  0  0  0
 35 44  1  0  0  0  0
 36 47  1  0  0  0  0
 36 38  1  0  0  0  0
 37 49  1  0  0  0  0
 37 36  1  0  0  0  0
 38 51  1  0  0  0  0
 38 39  1  0  0  0  0
 39 53  1  6  0  0  0
 39 40  1  0  0  0  0
 39 41  1  0  0  0  0
 40 54  1  0  0  0  0
 40 24  1  0  0  0  0
 41 43  1  0  0  0  0
 42 41  2  0  0  0  0
 45 35  1  0  0  0  0
 46 35  1  0  0  0  0
 48 37  1  0  0  0  0
 50 37  1  0  0  0  0
 52 38  1  0  0  0  0
M  END
$$$$
