MVM.pdb
 OpenBabel07022418573D

 52 51  0  0  1  0  0  0  0  0999 V2000
   -1.6540   -0.4540    5.3300 C   0  0  0  0  0  0  0  0  0  0  0  0
   -0.1850   -0.2420    6.3010 S   0  0  0  0  0  0  0  0  0  0  0  0
    1.3690   -0.2360    5.4160 C   0  0  0  0  0  0  0  0  0  0  0  0
    1.7340   -1.5500    4.7760 C   0  0  0  0  0  0  0  0  0  0  0  0
    0.8080   -2.0280    3.7250 C   0  0  2  0  0  0  0  0  0  0  0  0
    1.2510   -3.3280    3.2120 N   0  0  0  0  0  0  0  0  0  0  0  0
    0.7360   -1.1180    2.5430 C   0  0  0  0  0  0  0  0  0  0  0  0
    0.4980    0.1130    2.5970 O   0  0  0  0  0  0  0  0  0  0  0  0
   -1.5820   -0.1980    4.2590 H   0  0  0  0  0  0  0  0  0  0  0  0
   -2.4700    0.2010    5.7760 H   0  0  0  0  0  0  0  0  0  0  0  0
   -2.0940   -1.4740    5.4010 H   0  0  0  0  0  0  0  0  0  0  0  0
    2.1600    0.0310    6.1880 H   0  0  0  0  0  0  0  0  0  0  0  0
    1.3940    0.6020    4.6620 H   0  0  0  0  0  0  0  0  0  0  0  0
    2.8020   -1.5850    4.4730 H   0  0  0  0  0  0  0  0  0  0  0  0
    1.6740   -2.3070    5.6170 H   0  0  0  0  0  0  0  0  0  0  0  0
   -0.2040   -2.1500    4.1290 H   0  0  0  0  0  0  0  0  0  0  0  0
    0.5220   -3.7730    2.6370 H   0  0  0  0  0  0  0  0  0  0  0  0
    2.1600   -3.2430    2.7180 H   0  0  0  0  0  0  0  0  0  0  0  0
    2.0660   -0.0010   -1.9820 C   0  0  0  0  0  0  0  0  0  0  0  0
    2.1290   -0.8800   -0.7710 C   0  0  0  0  0  0  0  0  0  0  0  0
    3.2690   -0.3430    0.0900 C   0  0  0  0  0  0  0  0  0  0  0  0
    0.8860   -0.7720    0.0240 C   0  0  2  0  0  0  0  0  0  0  0  0
    0.9380   -1.5970    1.2270 N   0  0  0  0  0  0  0  0  0  0  0  0
   -0.2580   -1.2810   -0.7430 C   0  0  0  0  0  0  0  0  0  0  0  0
   -0.7630   -2.4070   -0.3810 O   0  0  0  0  0  0  0  0  0  0  0  0
    3.1130    0.2270   -2.3570 H   0  0  0  0  0  0  0  0  0  0  0  0
    1.6170    0.9980   -1.7440 H   0  0  0  0  0  0  0  0  0  0  0  0
    1.5470   -0.4840   -2.8320 H   0  0  0  0  0  0  0  0  0  0  0  0
    2.3530   -1.9010   -1.1360 H   0  0  0  0  0  0  0  0  0  0  0  0
    3.0440   -0.5120    1.1750 H   0  0  0  0  0  0  0  0  0  0  0  0
    3.3810    0.7560   -0.0130 H   0  0  0  0  0  0  0  0  0  0  0  0
    4.2300   -0.8100   -0.1640 H   0  0  0  0  0  0  0  0  0  0  0  0
    0.7130    0.2580    0.3340 H   0  0  0  0  0  0  0  0  0  0  0  0
    1.1400   -2.5970    1.0710 H   0  0  0  0  0  0  0  0  0  0  0  0
   -1.9930    2.3970   -0.6950 C   0  0  0  0  0  0  0  0  0  0  0  0
   -2.3400    0.7210   -0.1230 S   0  0  0  0  0  0  0  0  0  0  0  0
   -3.6140   -0.0900   -1.1080 C   0  0  0  0  0  0  0  0  0  0  0  0
   -3.2060   -0.3540   -2.5200 C   0  0  0  0  0  0  0  0  0  0  0  0
   -2.0110   -1.2480   -2.5380 C   0  0  2  0  0  0  0  0  0  0  0  0
   -0.8640   -0.6560   -1.8340 N   0  0  0  0  0  0  0  0  0  0  0  0
   -1.6800   -1.6180   -3.9340 C   0  0  0  0  0  0  0  0  0  0  0  0
   -2.5510   -2.1330   -4.6730 O   0  0  0  0  0  0  0  0  0  0  0  0
   -0.4280   -1.4150   -4.4680 O   0  0  0  0  0  0  0  0  0  0  0  0
   -2.9300    2.9880   -0.8610 H   0  0  0  0  0  0  0  0  0  0  0  0
   -1.3610    2.8970    0.0770 H   0  0  0  0  0  0  0  0  0  0  0  0
   -1.4140    2.4320   -1.6400 H   0  0  0  0  0  0  0  0  0  0  0  0
   -4.5840    0.4690   -1.0710 H   0  0  0  0  0  0  0  0  0  0  0  0
   -3.8340   -1.0660   -0.6200 H   0  0  0  0  0  0  0  0  0  0  0  0
   -4.0350   -0.9150   -3.0080 H   0  0  0  0  0  0  0  0  0  0  0  0
   -3.0640    0.5730   -3.1100 H   0  0  0  0  0  0  0  0  0  0  0  0
   -2.2500   -2.1850   -2.0040 H   0  0  0  0  0  0  0  0  0  0  0  0
   -0.5230    0.2670   -2.1600 H   0  0  0  0  0  0  0  0  0  0  0  0
  1 11  1  0  0  0  0
  1 10  1  0  0  0  0
  1  2  1  0  0  0  0
  3 12  1  0  0  0  0
  3  2  1  0  0  0  0
  4  3  1  0  0  0  0
  4 15  1  0  0  0  0
  5 16  1  1  0  0  0
  5  4  1  0  0  0  0
  6  5  1  0  0  0  0
  7  8  2  0  0  0  0
  7  5  1  0  0  0  0
  9  1  1  0  0  0  0
 13  3  1  0  0  0  0
 14  4  1  0  0  0  0
 17  6  1  0  0  0  0
 18  6  1  0  0  0  0
 19 27  1  0  0  0  0
 19 20  1  0  0  0  0
 20 22  1  0  0  0  0
 20 21  1  0  0  0  0
 21 30  1  0  0  0  0
 22 33  1  1  0  0  0
 22 23  1  0  0  0  0
 23  7  1  0  0  0  0
 24 25  2  0  0  0  0
 24 22  1  0  0  0  0
 26 19  1  0  0  0  0
 28 19  1  0  0  0  0
 29 20  1  0  0  0  0
 31 21  1  0  0  0  0
 32 21  1  0  0  0  0
 34 23  1  0  0  0  0
 35 36  1  0  0  0  0
 35 45  1  0  0  0  0
 37 47  1  0  0  0  0
 37 48  1  0  0  0  0
 37 36  1  0  0  0  0
 38 37  1  0  0  0  0
 39 38  1  0  0  0  0
 39 51  1  1  0  0  0
 39 40  1  0  0  0  0
 40 24  1  0  0  0  0
 41 39  1  0  0  0  0
 42 41  2  0  0  0  0
 43 41  1  0  0  0  0
 44 35  1  0  0  0  0
 46 35  1  0  0  0  0
 49 38  1  0  0  0  0
 50 38  1  0  0  0  0
 52 40  1  0  0  0  0
M  END
$$$$
