MVN.pdb
 OpenBabel07022418573D

 49 48  0  0  1  0  0  0  0  0999 V2000
    1.8040   -5.6470    4.7250 C   0  0  0  0  0  0  0  0  0  0  0  0
    0.9340   -4.6080    5.9460 S   0  0  0  0  0  0  0  0  0  0  0  0
   -0.2650   -3.6020    5.0170 C   0  0  0  0  0  0  0  0  0  0  0  0
    0.5170   -2.6510    4.1340 C   0  0  0  0  0  0  0  0  0  0  0  0
   -0.4260   -1.7760    3.3190 C   0  0  2  0  0  0  0  0  0  0  0  0
   -1.2210   -2.6620    2.5150 N   0  0  0  0  0  0  0  0  0  0  0  0
    0.4190   -0.8870    2.4770 C   0  0  0  0  0  0  0  0  0  0  0  0
    1.1690   -0.0430    3.0250 O   0  0  0  0  0  0  0  0  0  0  0  0
    1.0620   -5.9190    3.9350 H   0  0  0  0  0  0  0  0  0  0  0  0
    2.1310   -6.5830    5.2360 H   0  0  0  0  0  0  0  0  0  0  0  0
    2.6780   -5.1160    4.2860 H   0  0  0  0  0  0  0  0  0  0  0  0
   -0.8200   -2.9890    5.7570 H   0  0  0  0  0  0  0  0  0  0  0  0
   -0.9150   -4.2680    4.4500 H   0  0  0  0  0  0  0  0  0  0  0  0
    1.1510   -1.9860    4.7310 H   0  0  0  0  0  0  0  0  0  0  0  0
    1.1510   -3.1930    3.4020 H   0  0  0  0  0  0  0  0  0  0  0  0
   -1.0850   -1.2210    4.0000 H   0  0  0  0  0  0  0  0  0  0  0  0
   -0.6170   -3.4020    2.1370 H   0  0  0  0  0  0  0  0  0  0  0  0
   -1.8060   -2.1640    1.8100 H   0  0  0  0  0  0  0  0  0  0  0  0
    1.5350   -1.9050   -1.4250 C   0  0  0  0  0  0  0  0  0  0  0  0
    2.2730   -0.8850   -0.5610 C   0  0  0  0  0  0  0  0  0  0  0  0
    3.0380    0.0040   -1.5170 C   0  0  0  0  0  0  0  0  0  0  0  0
    1.2340   -0.0950    0.2100 C   0  0  2  0  0  0  0  0  0  0  0  0
    0.4330   -0.9350    1.0580 N   0  0  0  0  0  0  0  0  0  0  0  0
    0.4170    0.7540   -0.6850 C   0  0  0  0  0  0  0  0  0  0  0  0
    1.0110    1.5390   -1.4540 O   0  0  0  0  0  0  0  0  0  0  0  0
    2.0700   -2.0690   -2.3830 H   0  0  0  0  0  0  0  0  0  0  0  0
    0.5080   -1.6070   -1.6430 H   0  0  0  0  0  0  0  0  0  0  0  0
    1.5360   -2.9130   -0.9200 H   0  0  0  0  0  0  0  0  0  0  0  0
    3.0050   -1.3660    0.0960 H   0  0  0  0  0  0  0  0  0  0  0  0
    3.9950   -0.5170   -1.7340 H   0  0  0  0  0  0  0  0  0  0  0  0
    3.2540    1.0010   -1.1090 H   0  0  0  0  0  0  0  0  0  0  0  0
    2.4900    0.0720   -2.4960 H   0  0  0  0  0  0  0  0  0  0  0  0
    1.8110    0.5950    0.8660 H   0  0  0  0  0  0  0  0  0  0  0  0
   -0.1920   -1.6370    0.6060 H   0  0  0  0  0  0  0  0  0  0  0  0
   -2.4850    5.2640   -1.4450 N   0  0  0  0  0  0  0  0  0  0  0  0
   -2.5990    3.8910   -1.7990 C   0  0  0  0  0  0  0  0  0  0  0  0
   -3.3870    3.5950   -2.7110 O   0  0  0  0  0  0  0  0  0  0  0  0
   -1.7930    2.9060   -1.0800 C   0  0  0  0  0  0  0  0  0  0  0  0
   -1.8510    1.5000   -1.5480 C   0  0  2  0  0  0  0  0  0  0  0  0
   -0.9980    0.6710   -0.6630 N   0  0  0  0  0  0  0  0  0  0  0  0
   -1.4150    1.2840   -2.9450 C   0  0  0  0  0  0  0  0  0  0  0  0
   -1.9520    1.8940   -3.8760 O   0  0  0  0  0  0  0  0  0  0  0  0
   -0.4030    0.4030   -3.2680 O   0  0  0  0  0  0  0  0  0  0  0  0
   -3.0460    5.5860   -0.6270 H   0  0  0  0  0  0  0  0  0  0  0  0
   -1.8720    5.8760   -1.9910 H   0  0  0  0  0  0  0  0  0  0  0  0
   -2.0540    2.9300    0.0270 H   0  0  0  0  0  0  0  0  0  0  0  0
   -0.6940    3.2060   -1.0530 H   0  0  0  0  0  0  0  0  0  0  0  0
   -2.8690    1.0680   -1.4750 H   0  0  0  0  0  0  0  0  0  0  0  0
   -1.5170    0.0260   -0.0240 H   0  0  0  0  0  0  0  0  0  0  0  0
  1 10  1  0  0  0  0
  1  2  1  0  0  0  0
  3 12  1  0  0  0  0
  3  2  1  0  0  0  0
  4 14  1  0  0  0  0
  4  3  1  0  0  0  0
  5 16  1  1  0  0  0
  5  4  1  0  0  0  0
  6  5  1  0  0  0  0
  7  8  2  0  0  0  0
  7  5  1  0  0  0  0
  9  1  1  0  0  0  0
 11  1  1  0  0  0  0
 13  3  1  0  0  0  0
 15  4  1  0  0  0  0
 17  6  1  0  0  0  0
 18  6  1  0  0  0  0
 19 28  1  0  0  0  0
 19 20  1  0  0  0  0
 20 29  1  0  0  0  0
 20 22  1  0  0  0  0
 21 31  1  0  0  0  0
 21 20  1  0  0  0  0
 22 33  1  1  0  0  0
 22 23  1  0  0  0  0
 23  7  1  0  0  0  0
 24 40  1  0  0  0  0
 24 22  1  0  0  0  0
 25 24  2  0  0  0  0
 26 19  1  0  0  0  0
 27 19  1  0  0  0  0
 30 21  1  0  0  0  0
 32 21  1  0  0  0  0
 34 23  1  0  0  0  0
 35 44  1  0  0  0  0
 36 35  1  0  0  0  0
 36 38  1  0  0  0  0
 37 36  2  0  0  0  0
 38 47  1  0  0  0  0
 38 46  1  0  0  0  0
 39 48  1  1  0  0  0
 39 38  1  0  0  0  0
 39 40  1  0  0  0  0
 40 49  1  0  0  0  0
 41 39  1  0  0  0  0
 42 41  2  0  0  0  0
 43 41  1  0  0  0  0
 45 35  1  0  0  0  0
M  END
$$$$
