MVP.pdb
 OpenBabel07022418573D

 49 49  0  0  1  0  0  0  0  0999 V2000
   -2.3220   -1.3020   -2.7290 C   0  0  0  0  0  0  0  0  0  0  0  0
   -3.3560   -2.6810   -2.2550 S   0  0  0  0  0  0  0  0  0  0  0  0
   -4.6650   -2.2320   -1.1310 C   0  0  0  0  0  0  0  0  0  0  0  0
   -4.2590   -1.8700    0.2390 C   0  0  0  0  0  0  0  0  0  0  0  0
   -3.3780   -0.7200    0.5010 C   0  0  2  0  0  0  0  0  0  0  0  0
   -3.8370    0.5590    0.0540 N   0  0  0  0  0  0  0  0  0  0  0  0
   -1.9430   -0.9720    0.4080 C   0  0  0  0  0  0  0  0  0  0  0  0
   -1.5050   -2.1430    0.2850 O   0  0  0  0  0  0  0  0  0  0  0  0
   -1.2570   -1.5270   -2.4930 H   0  0  0  0  0  0  0  0  0  0  0  0
   -2.4270   -1.1700   -3.8470 H   0  0  0  0  0  0  0  0  0  0  0  0
   -2.5980   -0.3440   -2.2630 H   0  0  0  0  0  0  0  0  0  0  0  0
   -5.3290   -1.4450   -1.6070 H   0  0  0  0  0  0  0  0  0  0  0  0
   -5.3810   -3.1290   -1.0760 H   0  0  0  0  0  0  0  0  0  0  0  0
   -5.2270   -1.7480    0.8420 H   0  0  0  0  0  0  0  0  0  0  0  0
   -3.7510   -2.7940    0.6880 H   0  0  0  0  0  0  0  0  0  0  0  0
   -3.5110   -0.5910    1.6910 H   0  0  0  0  0  0  0  0  0  0  0  0
   -4.8760    0.5690    0.1110 H   0  0  0  0  0  0  0  0  0  0  0  0
   -3.4650    1.2970    0.6590 H   0  0  0  0  0  0  0  0  0  0  0  0
    0.7670    1.0940   -1.7010 C   0  0  0  0  0  0  0  0  0  0  0  0
    1.2460    0.8620   -0.2880 C   0  0  0  0  0  0  0  0  0  0  0  0
    1.2520    2.2040    0.3910 C   0  0  0  0  0  0  0  0  0  0  0  0
    0.4610   -0.1910    0.3610 C   0  0  2  0  0  0  0  0  0  0  0  0
   -0.9580    0.0790    0.4550 N   0  0  0  0  0  0  0  0  0  0  0  0
    1.0030   -0.5960    1.7120 C   0  0  0  0  0  0  0  0  0  0  0  0
    0.2100   -0.5180    2.6800 O   0  0  0  0  0  0  0  0  0  0  0  0
    0.1460    2.0380   -1.7240 H   0  0  0  0  0  0  0  0  0  0  0  0
    1.6340    1.2440   -2.3820 H   0  0  0  0  0  0  0  0  0  0  0  0
    0.0920    0.3030   -2.0720 H   0  0  0  0  0  0  0  0  0  0  0  0
    2.3070    0.5570   -0.3590 H   0  0  0  0  0  0  0  0  0  0  0  0
    0.3320    2.7470    0.1710 H   0  0  0  0  0  0  0  0  0  0  0  0
    1.5690    2.1970    1.4370 H   0  0  0  0  0  0  0  0  0  0  0  0
    2.0610    2.7820   -0.1550 H   0  0  0  0  0  0  0  0  0  0  0  0
    0.5720   -1.1290   -0.2080 H   0  0  0  0  0  0  0  0  0  0  0  0
   -1.3540    1.0360    0.5630 H   0  0  0  0  0  0  0  0  0  0  0  0
    2.3060   -1.0450    1.9510 N   0  0  0  0  0  0  0  0  0  0  0  0
    3.3860   -1.2300    1.0290 C   0  0  0  0  0  0  0  0  0  0  0  0
    4.2420   -2.3490    1.5810 C   0  0  0  0  0  0  0  0  0  0  0  0
    3.9830   -2.3190    3.0410 C   0  0  0  0  0  0  0  0  0  0  0  0
    2.8180   -1.4340    3.2760 C   0  0  1  0  0  0  0  0  0  0  0  0
    3.2170   -0.2630    4.0580 C   0  0  0  0  0  0  0  0  0  0  0  0
    3.6610   -0.4260    5.2180 O   0  0  0  0  0  0  0  0  0  0  0  0
    3.1380    1.0420    3.5960 O   0  0  0  0  0  0  0  0  0  0  0  0
    4.0600   -0.3630    0.9270 H   0  0  0  0  0  0  0  0  0  0  0  0
    3.0240   -1.6300    0.0400 H   0  0  0  0  0  0  0  0  0  0  0  0
    3.9270   -3.3510    1.1870 H   0  0  0  0  0  0  0  0  0  0  0  0
    5.3130   -2.2180    1.3190 H   0  0  0  0  0  0  0  0  0  0  0  0
    4.9270   -1.9530    3.5400 H   0  0  0  0  0  0  0  0  0  0  0  0
    3.7980   -3.3430    3.4680 H   0  0  0  0  0  0  0  0  0  0  0  0
    1.9820   -2.0180    3.7350 H   0  0  0  0  0  0  0  0  0  0  0  0
  1  9  1  0  0  0  0
  1 11  1  0  0  0  0
  1  2  1  0  0  0  0
  2  3  1  0  0  0  0
  3 13  1  0  0  0  0
  3  4  1  0  0  0  0
  4  5  1  0  0  0  0
  4 15  1  0  0  0  0
  4 14  1  0  0  0  0
  5 16  1  1  0  0  0
  6 17  1  0  0  0  0
  6  5  1  0  0  0  0
  6 18  1  0  0  0  0
  7 23  1  0  0  0  0
  7  5  1  0  0  0  0
  8  7  2  0  0  0  0
 10  1  1  0  0  0  0
 12  3  1  0  0  0  0
 19 20  1  0  0  0  0
 20 22  1  0  0  0  0
 20 21  1  0  0  0  0
 21 31  1  0  0  0  0
 22 33  1  6  0  0  0
 22 23  1  0  0  0  0
 22 24  1  0  0  0  0
 23 34  1  0  0  0  0
 24 35  1  0  0  0  0
 24 25  2  0  0  0  0
 26 19  1  0  0  0  0
 27 19  1  0  0  0  0
 28 19  1  0  0  0  0
 29 20  1  0  0  0  0
 30 21  1  0  0  0  0
 32 21  1  0  0  0  0
 35 39  1  0  0  0  0
 36 37  1  0  0  0  0
 36 35  1  0  0  0  0
 37 38  1  0  0  0  0
 38 39  1  0  0  0  0
 38 48  1  0  0  0  0
 38 47  1  0  0  0  0
 39 49  1  1  0  0  0
 39 40  1  0  0  0  0
 40 41  1  0  0  0  0
 42 40  2  0  0  0  0
 43 36  1  0  0  0  0
 44 36  1  0  0  0  0
 45 37  1  0  0  0  0
 46 37  1  0  0  0  0
M  END
$$$$
