MVR.pdb
 OpenBabel07022418573D

 58 57  0  0  1  0  0  0  0  0999 V2000
    0.5190   -3.8350    5.7680 C   0  0  0  0  0  0  0  0  0  0  0  0
    1.9360   -2.7920    5.4010 S   0  0  0  0  0  0  0  0  0  0  0  0
    2.6750   -3.1270    3.7820 C   0  0  0  0  0  0  0  0  0  0  0  0
    3.8400   -2.2010    3.6010 C   0  0  0  0  0  0  0  0  0  0  0  0
    3.4590   -0.7490    3.6570 C   0  0  2  0  0  0  0  0  0  0  0  0
    2.8590   -0.4420    4.9480 N   0  0  0  0  0  0  0  0  0  0  0  0
    2.5020   -0.4250    2.5490 C   0  0  0  0  0  0  0  0  0  0  0  0
    2.8720   -0.5770    1.3520 O   0  0  0  0  0  0  0  0  0  0  0  0
    0.6140   -4.1320    6.8560 H   0  0  0  0  0  0  0  0  0  0  0  0
   -0.4470   -3.2610    5.7350 H   0  0  0  0  0  0  0  0  0  0  0  0
    0.4260   -4.7030    5.1120 H   0  0  0  0  0  0  0  0  0  0  0  0
    1.9440   -3.1170    2.9640 H   0  0  0  0  0  0  0  0  0  0  0  0
    3.1120   -4.1660    3.8580 H   0  0  0  0  0  0  0  0  0  0  0  0
    4.5780   -2.4270    4.3960 H   0  0  0  0  0  0  0  0  0  0  0  0
    4.3570   -2.3870    2.6300 H   0  0  0  0  0  0  0  0  0  0  0  0
    4.4030   -0.1670    3.5480 H   0  0  0  0  0  0  0  0  0  0  0  0
    2.8360    0.5990    5.0550 H   0  0  0  0  0  0  0  0  0  0  0  0
    3.5280   -0.8250    5.6720 H   0  0  0  0  0  0  0  0  0  0  0  0
    1.5030    2.2720    0.7350 C   0  0  0  0  0  0  0  0  0  0  0  0
    0.2400    1.7580    1.3730 C   0  0  0  0  0  0  0  0  0  0  0  0
   -0.9510    2.2600    0.6740 C   0  0  0  0  0  0  0  0  0  0  0  0
    0.2310    0.3540    1.7900 C   0  0  2  0  0  0  0  0  0  0  0  0
    1.2120    0.0370    2.8060 N   0  0  0  0  0  0  0  0  0  0  0  0
    0.1510   -0.7000    0.7500 C   0  0  0  0  0  0  0  0  0  0  0  0
    0.7980   -1.8000    0.8730 O   0  0  0  0  0  0  0  0  0  0  0  0
    2.4010    2.1580    1.3690 H   0  0  0  0  0  0  0  0  0  0  0  0
    1.6320    1.9260   -0.3040 H   0  0  0  0  0  0  0  0  0  0  0  0
    1.3560    3.3930    0.6440 H   0  0  0  0  0  0  0  0  0  0  0  0
    0.2460    2.3560    2.3830 H   0  0  0  0  0  0  0  0  0  0  0  0
   -0.8520    2.4610   -0.4140 H   0  0  0  0  0  0  0  0  0  0  0  0
   -1.2000    3.3000    1.0890 H   0  0  0  0  0  0  0  0  0  0  0  0
   -1.8730    1.6870    0.9470 H   0  0  0  0  0  0  0  0  0  0  0  0
   -0.7680    0.1850    2.3320 H   0  0  0  0  0  0  0  0  0  0  0  0
    0.9650    0.1570    3.8420 H   0  0  0  0  0  0  0  0  0  0  0  0
   -2.0990    1.4910   -4.9080 N   0  0  0  0  0  0  0  0  0  0  0  0
   -2.8540    0.3460   -4.6130 C   0  0  0  0  0  0  0  0  0  0  0  0
   -3.5930   -0.2100   -5.4950 N   0  0  0  0  0  0  0  0  0  0  0  0
   -2.8180   -0.2460   -3.3050 N   0  0  0  0  0  0  0  0  0  0  0  0
   -3.5230   -1.4330   -2.9890 C   0  0  0  0  0  0  0  0  0  0  0  0
   -3.2090   -1.9990   -1.6530 C   0  0  0  0  0  0  0  0  0  0  0  0
   -1.8680   -2.5230   -1.4180 C   0  0  0  0  0  0  0  0  0  0  0  0
   -0.6450   -1.7170   -1.4450 C   0  0  2  0  0  0  0  0  0  0  0  0
   -0.6070   -0.6350   -0.4480 N   0  0  0  0  0  0  0  0  0  0  0  0
   -0.0840   -1.3460   -2.7420 C   0  0  0  0  0  0  0  0  0  0  0  0
    0.3940   -0.2070   -2.9400 O   0  0  0  0  0  0  0  0  0  0  0  0
   -0.0790   -2.2630   -3.7690 O   0  0  0  0  0  0  0  0  0  0  0  0
   -1.0540    1.3920   -4.9290 H   0  0  0  0  0  0  0  0  0  0  0  0
   -2.4760    2.4410   -5.1120 H   0  0  0  0  0  0  0  0  0  0  0  0
   -4.1820   -1.0570   -5.3570 H   0  0  0  0  0  0  0  0  0  0  0  0
   -2.2710    0.2830   -2.6060 H   0  0  0  0  0  0  0  0  0  0  0  0
   -3.3610   -2.2430   -3.7670 H   0  0  0  0  0  0  0  0  0  0  0  0
   -4.6460   -1.2390   -3.0970 H   0  0  0  0  0  0  0  0  0  0  0  0
   -3.9690   -2.8200   -1.4180 H   0  0  0  0  0  0  0  0  0  0  0  0
   -3.4120   -1.2370   -0.8300 H   0  0  0  0  0  0  0  0  0  0  0  0
   -1.8310   -3.1240   -0.4410 H   0  0  0  0  0  0  0  0  0  0  0  0
   -1.7060   -3.3610   -2.1750 H   0  0  0  0  0  0  0  0  0  0  0  0
    0.1670   -2.4410   -1.0200 H   0  0  0  0  0  0  0  0  0  0  0  0
   -1.1700    0.1970   -0.6590 H   0  0  0  0  0  0  0  0  0  0  0  0
  1  9  1  0  0  0  0
  2  1  1  0  0  0  0
  3 13  1  0  0  0  0
  3  2  1  0  0  0  0
  4  5  1  0  0  0  0
  4  3  1  0  0  0  0
  4 14  1  0  0  0  0
  5 16  1  6  0  0  0
  5  6  1  0  0  0  0
  6 17  1  0  0  0  0
  6 18  1  0  0  0  0
  7 23  1  0  0  0  0
  7  5  1  0  0  0  0
  8  7  2  0  0  0  0
 10  1  1  0  0  0  0
 11  1  1  0  0  0  0
 12  3  1  0  0  0  0
 15  4  1  0  0  0  0
 19 26  1  0  0  0  0
 19 20  1  0  0  0  0
 20 22  1  0  0  0  0
 20 29  1  0  0  0  0
 21 32  1  0  0  0  0
 21 31  1  0  0  0  0
 21 20  1  0  0  0  0
 22 33  1  1  0  0  0
 22 23  1  0  0  0  0
 23 34  1  0  0  0  0
 24 25  2  0  0  0  0
 24 22  1  0  0  0  0
 27 19  1  0  0  0  0
 28 19  1  0  0  0  0
 30 21  1  0  0  0  0
 35 36  1  0  0  0  0
 36 38  1  0  0  0  0
 37 49  1  0  0  0  0
 37 36  2  0  0  0  0
 38 39  1  0  0  0  0
 38 50  1  0  0  0  0
 39 40  1  0  0  0  0
 40 53  1  0  0  0  0
 40 41  1  0  0  0  0
 40 54  1  0  0  0  0
 41 55  1  0  0  0  0
 42 41  1  0  0  0  0
 42 57  1  1  0  0  0
 42 43  1  0  0  0  0
 43 24  1  0  0  0  0
 44 42  1  0  0  0  0
 45 44  1  0  0  0  0
 46 44  2  0  0  0  0
 47 35  1  0  0  0  0
 48 35  1  0  0  0  0
 51 39  1  0  0  0  0
 52 39  1  0  0  0  0
 56 41  1  0  0  0  0
 58 43  1  0  0  0  0
M  END
$$$$
