MVS.pdb
 OpenBabel07022418573D

 46 45  0  0  1  0  0  0  0  0999 V2000
   -1.1240   -4.8890    0.9460 C   0  0  0  0  0  0  0  0  0  0  0  0
    0.6410   -5.1730    1.1950 S   0  0  0  0  0  0  0  0  0  0  0  0
    1.3310   -4.0660    2.4490 C   0  0  0  0  0  0  0  0  0  0  0  0
    1.3080   -2.6300    2.0200 C   0  0  0  0  0  0  0  0  0  0  0  0
    2.1230   -2.4230    0.7400 C   0  0  2  0  0  0  0  0  0  0  0  0
    3.4910   -2.8090    0.9600 N   0  0  0  0  0  0  0  0  0  0  0  0
    1.9940   -1.0370    0.2450 C   0  0  0  0  0  0  0  0  0  0  0  0
    2.9890   -0.2860    0.0340 O   0  0  0  0  0  0  0  0  0  0  0  0
   -1.5620   -5.8540    0.5870 H   0  0  0  0  0  0  0  0  0  0  0  0
   -1.6520   -4.6470    1.8940 H   0  0  0  0  0  0  0  0  0  0  0  0
   -1.3310   -4.1430    0.1530 H   0  0  0  0  0  0  0  0  0  0  0  0
    2.3950   -4.3640    2.5920 H   0  0  0  0  0  0  0  0  0  0  0  0
    0.8140   -4.1770    3.4060 H   0  0  0  0  0  0  0  0  0  0  0  0
    0.2880   -2.2310    1.8960 H   0  0  0  0  0  0  0  0  0  0  0  0
    1.8510   -2.0490    2.8010 H   0  0  0  0  0  0  0  0  0  0  0  0
    1.6930   -3.1120   -0.0020 H   0  0  0  0  0  0  0  0  0  0  0  0
    3.6600   -3.8240    0.7860 H   0  0  0  0  0  0  0  0  0  0  0  0
    4.1760   -2.2000    0.4790 H   0  0  0  0  0  0  0  0  0  0  0  0
   -0.2110    2.5050   -2.2260 C   0  0  0  0  0  0  0  0  0  0  0  0
   -0.1280    1.0530   -1.8070 C   0  0  0  0  0  0  0  0  0  0  0  0
    0.6960    0.3410   -2.8870 C   0  0  0  0  0  0  0  0  0  0  0  0
    0.6120    0.9120   -0.5140 C   0  0  2  0  0  0  0  0  0  0  0  0
    0.7420   -0.4270   -0.0360 N   0  0  0  0  0  0  0  0  0  0  0  0
   -0.1350    1.6820    0.5250 C   0  0  0  0  0  0  0  0  0  0  0  0
   -0.4060    2.9140    0.3920 O   0  0  0  0  0  0  0  0  0  0  0  0
   -1.2270    2.9310   -2.0280 H   0  0  0  0  0  0  0  0  0  0  0  0
    0.5240    3.1520   -1.7350 H   0  0  0  0  0  0  0  0  0  0  0  0
   -0.0510    2.6270   -3.3270 H   0  0  0  0  0  0  0  0  0  0  0  0
   -1.1400    0.6570   -1.7990 H   0  0  0  0  0  0  0  0  0  0  0  0
    1.7120    0.7420   -2.9480 H   0  0  0  0  0  0  0  0  0  0  0  0
    0.2150    0.5160   -3.8770 H   0  0  0  0  0  0  0  0  0  0  0  0
    0.6960   -0.7550   -2.7310 H   0  0  0  0  0  0  0  0  0  0  0  0
    1.6190    1.3440   -0.6070 H   0  0  0  0  0  0  0  0  0  0  0  0
   -0.1410   -0.9870    0.1140 H   0  0  0  0  0  0  0  0  0  0  0  0
   -3.3780    1.4580    1.5650 O   0  0  0  0  0  0  0  0  0  0  0  0
   -2.7540    1.2820    2.8030 C   0  0  0  0  0  0  0  0  0  0  0  0
   -1.3180    1.8140    2.7530 C   0  0  2  0  0  0  0  0  0  0  0  0
   -0.5940    1.0820    1.7370 N   0  0  0  0  0  0  0  0  0  0  0  0
   -0.7490    1.6660    4.0940 C   0  0  0  0  0  0  0  0  0  0  0  0
    0.2680    0.9710    4.3390 O   0  0  0  0  0  0  0  0  0  0  0  0
   -1.3720    2.3310    5.1410 O   0  0  0  0  0  0  0  0  0  0  0  0
   -3.1260    0.7570    0.9210 H   0  0  0  0  0  0  0  0  0  0  0  0
   -2.7600    0.2280    3.1180 H   0  0  0  0  0  0  0  0  0  0  0  0
   -3.2770    1.8770    3.5800 H   0  0  0  0  0  0  0  0  0  0  0  0
   -1.4140    2.8600    2.4060 H   0  0  0  0  0  0  0  0  0  0  0  0
   -0.3930    0.0700    1.8860 H   0  0  0  0  0  0  0  0  0  0  0  0
  1  2  1  0  0  0  0
  1 10  1  0  0  0  0
  2  3  1  0  0  0  0
  3 12  1  0  0  0  0
  3 13  1  0  0  0  0
  4  3  1  0  0  0  0
  4 15  1  0  0  0  0
  5 16  1  6  0  0  0
  5  6  1  0  0  0  0
  5  4  1  0  0  0  0
  7  5  1  0  0  0  0
  8  7  2  0  0  0  0
  9  1  1  0  0  0  0
 11  1  1  0  0  0  0
 14  4  1  0  0  0  0
 17  6  1  0  0  0  0
 18  6  1  0  0  0  0
 19 26  1  0  0  0  0
 19 20  1  0  0  0  0
 19 27  1  0  0  0  0
 20 29  1  0  0  0  0
 20 22  1  0  0  0  0
 21 32  1  0  0  0  0
 21 20  1  0  0  0  0
 22 33  1  6  0  0  0
 22 23  1  0  0  0  0
 22 24  1  0  0  0  0
 23 34  1  0  0  0  0
 23  7  1  0  0  0  0
 24 38  1  0  0  0  0
 25 24  2  0  0  0  0
 28 19  1  0  0  0  0
 30 21  1  0  0  0  0
 31 21  1  0  0  0  0
 35 36  1  0  0  0  0
 36 43  1  0  0  0  0
 36 44  1  0  0  0  0
 37 45  1  6  0  0  0
 37 36  1  0  0  0  0
 37 39  1  0  0  0  0
 38 46  1  0  0  0  0
 38 37  1  0  0  0  0
 39 40  2  0  0  0  0
 39 41  1  0  0  0  0
 42 35  1  0  0  0  0
M  END
$$$$
