MVY.pdb
 OpenBabel07022418573D

 56 56  0  0  1  0  0  0  0  0999 V2000
    3.7880   -0.1100    3.1260 C   0  0  0  0  0  0  0  0  0  0  0  0
    2.7000   -1.3610    3.8630 S   0  0  0  0  0  0  0  0  0  0  0  0
    2.0480   -2.4410    2.5430 C   0  0  0  0  0  0  0  0  0  0  0  0
    3.1590   -3.2370    1.9340 C   0  0  0  0  0  0  0  0  0  0  0  0
    2.7000   -4.1660    0.8600 C   0  0  2  0  0  0  0  0  0  0  0  0
    3.9280   -4.8500    0.3850 N   0  0  0  0  0  0  0  0  0  0  0  0
    2.0750   -3.4880   -0.2870 C   0  0  0  0  0  0  0  0  0  0  0  0
    2.7960   -3.3490   -1.3420 O   0  0  0  0  0  0  0  0  0  0  0  0
    4.7040    0.0640    3.7310 H   0  0  0  0  0  0  0  0  0  0  0  0
    4.0750   -0.3640    2.0840 H   0  0  0  0  0  0  0  0  0  0  0  0
    3.2730    0.8940    3.0860 H   0  0  0  0  0  0  0  0  0  0  0  0
    1.2560   -3.0970    2.8980 H   0  0  0  0  0  0  0  0  0  0  0  0
    1.6770   -1.7270    1.7470 H   0  0  0  0  0  0  0  0  0  0  0  0
    3.8760   -2.5000    1.4870 H   0  0  0  0  0  0  0  0  0  0  0  0
    3.6660   -3.7890    2.7520 H   0  0  0  0  0  0  0  0  0  0  0  0
    2.0530   -4.9820    1.2720 H   0  0  0  0  0  0  0  0  0  0  0  0
    4.4880   -5.1680    1.2030 H   0  0  0  0  0  0  0  0  0  0  0  0
    4.4630   -4.0980   -0.1440 H   0  0  0  0  0  0  0  0  0  0  0  0
    0.0150   -4.5750   -2.5550 C   0  0  0  0  0  0  0  0  0  0  0  0
   -0.7260   -3.2900   -2.2360 C   0  0  0  0  0  0  0  0  0  0  0  0
   -1.1960   -2.5980   -3.4810 C   0  0  0  0  0  0  0  0  0  0  0  0
    0.2650   -2.3410   -1.5290 C   0  0  2  0  0  0  0  0  0  0  0  0
    0.7410   -2.9850   -0.3090 N   0  0  0  0  0  0  0  0  0  0  0  0
   -0.3410   -1.0290   -1.3050 C   0  0  0  0  0  0  0  0  0  0  0  0
   -0.7020   -0.3570   -2.3260 O   0  0  0  0  0  0  0  0  0  0  0  0
    0.2950   -5.0960   -1.6130 H   0  0  0  0  0  0  0  0  0  0  0  0
   -0.6320   -5.2790   -3.1160 H   0  0  0  0  0  0  0  0  0  0  0  0
    0.9430   -4.3580   -3.0990 H   0  0  0  0  0  0  0  0  0  0  0  0
   -1.5780   -3.5490   -1.6090 H   0  0  0  0  0  0  0  0  0  0  0  0
   -2.0690   -1.9350   -3.3130 H   0  0  0  0  0  0  0  0  0  0  0  0
   -0.3980   -1.9800   -3.9400 H   0  0  0  0  0  0  0  0  0  0  0  0
   -1.4900   -3.3210   -4.2780 H   0  0  0  0  0  0  0  0  0  0  0  0
    1.1070   -2.2720   -2.2390 H   0  0  0  0  0  0  0  0  0  0  0  0
    0.1740   -3.1100    0.5510 H   0  0  0  0  0  0  0  0  0  0  0  0
   -5.1090    5.6360    1.7060 O   0  0  0  0  0  0  0  0  0  0  0  0
   -4.4490    4.4140    1.5190 C   0  0  0  0  0  0  0  0  0  0  0  0
   -3.5780    3.9190    2.4620 C   0  0  0  0  0  0  0  0  0  0  0  0
   -2.9190    2.7000    2.2780 C   0  0  0  0  0  0  0  0  0  0  0  0
   -3.1180    1.9580    1.1480 C   0  0  0  0  0  0  0  0  0  0  0  0
   -2.4270    0.6750    0.9200 C   0  0  0  0  0  0  0  0  0  0  0  0
   -1.1830    0.9130    0.1010 C   0  0  2  0  0  0  0  0  0  0  0  0
   -0.5710   -0.4190   -0.0660 N   0  0  0  0  0  0  0  0  0  0  0  0
   -0.2410    1.7390    0.8540 C   0  0  0  0  0  0  0  0  0  0  0  0
   -0.4850    2.9390    1.0820 O   0  0  0  0  0  0  0  0  0  0  0  0
   -3.9900    2.4390    0.1890 C   0  0  0  0  0  0  0  0  0  0  0  0
   -4.6460    3.6610    0.3820 C   0  0  0  0  0  0  0  0  0  0  0  0
    0.9490    1.2250    1.3390 O   0  0  0  0  0  0  0  0  0  0  0  0
   -5.0450    6.3900    1.0180 H   0  0  0  0  0  0  0  0  0  0  0  0
   -3.4040    4.4880    3.3650 H   0  0  0  0  0  0  0  0  0  0  0  0
   -2.2460    2.3350    3.0460 H   0  0  0  0  0  0  0  0  0  0  0  0
   -2.0970    0.2220    1.8780 H   0  0  0  0  0  0  0  0  0  0  0  0
   -3.0710   -0.0600    0.3930 H   0  0  0  0  0  0  0  0  0  0  0  0
   -1.4330    1.3350   -0.9000 H   0  0  0  0  0  0  0  0  0  0  0  0
   -0.3160   -0.9040    0.8070 H   0  0  0  0  0  0  0  0  0  0  0  0
   -4.1470    1.8540   -0.7000 H   0  0  0  0  0  0  0  0  0  0  0  0
   -5.3330    4.0420   -0.3730 H   0  0  0  0  0  0  0  0  0  0  0  0
  1  9  1  0  0  0  0
  1  2  1  0  0  0  0
  3 12  1  0  0  0  0
  3  2  1  0  0  0  0
  4  3  1  0  0  0  0
  4 15  1  0  0  0  0
  5 16  1  1  0  0  0
  5  4  1  0  0  0  0
  6  5  1  0  0  0  0
  6 17  1  0  0  0  0
  7  5  1  0  0  0  0
  8  7  2  0  0  0  0
 10  1  1  0  0  0  0
 11  1  1  0  0  0  0
 13  3  1  0  0  0  0
 14  4  1  0  0  0  0
 18  6  1  0  0  0  0
 19 20  1  0  0  0  0
 19 26  1  0  0  0  0
 20 29  1  0  0  0  0
 20 22  1  0  0  0  0
 21 30  1  0  0  0  0
 21 20  1  0  0  0  0
 22 33  1  6  0  0  0
 22 24  1  0  0  0  0
 22 23  1  0  0  0  0
 23  7  1  0  0  0  0
 23 34  1  0  0  0  0
 24 42  1  0  0  0  0
 25 24  2  0  0  0  0
 27 19  1  0  0  0  0
 28 19  1  0  0  0  0
 31 21  1  0  0  0  0
 32 21  1  0  0  0  0
 36 35  1  0  0  0  0
 36 37  1  0  0  0  0
 37 49  1  0  0  0  0
 38 37  2  0  0  0  0
 38 50  1  0  0  0  0
 39 38  1  0  0  0  0
 40 39  1  0  0  0  0
 40 51  1  0  0  0  0
 41 53  1  6  0  0  0
 41 43  1  0  0  0  0
 41 40  1  0  0  0  0
 42 41  1  0  0  0  0
 42 54  1  0  0  0  0
 43 44  2  0  0  0  0
 43 47  1  0  0  0  0
 45 46  1  0  0  0  0
 45 39  2  0  0  0  0
 46 36  2  0  0  0  0
 48 35  1  0  0  0  0
 52 40  1  0  0  0  0
 55 45  1  0  0  0  0
 56 46  1  0  0  0  0
M  END
$$$$
