MWA.pdb
 OpenBabel07022418573D

 53 54  0  0  1  0  0  0  0  0999 V2000
   -2.0110    0.7750    5.1240 C   0  0  0  0  0  0  0  0  0  0  0  0
   -1.8170   -0.9240    5.6900 S   0  0  0  0  0  0  0  0  0  0  0  0
   -0.9090   -1.8410    4.3820 C   0  0  0  0  0  0  0  0  0  0  0  0
    0.4960   -1.3050    4.2740 C   0  0  0  0  0  0  0  0  0  0  0  0
    1.3250   -2.0130    3.2280 C   0  0  2  0  0  0  0  0  0  0  0  0
    2.6710   -1.4360    3.1960 N   0  0  0  0  0  0  0  0  0  0  0  0
    0.6970   -1.8980    1.8820 C   0  0  0  0  0  0  0  0  0  0  0  0
   -0.4230   -2.3490    1.5700 O   0  0  0  0  0  0  0  0  0  0  0  0
   -1.0590    1.3230    5.0820 H   0  0  0  0  0  0  0  0  0  0  0  0
   -2.4770    0.8130    4.1050 H   0  0  0  0  0  0  0  0  0  0  0  0
   -2.7280    1.2750    5.8200 H   0  0  0  0  0  0  0  0  0  0  0  0
   -1.4900   -1.6330    3.4570 H   0  0  0  0  0  0  0  0  0  0  0  0
   -0.9360   -2.9090    4.5990 H   0  0  0  0  0  0  0  0  0  0  0  0
    0.9840   -1.3510    5.2700 H   0  0  0  0  0  0  0  0  0  0  0  0
    0.4390   -0.2160    4.0230 H   0  0  0  0  0  0  0  0  0  0  0  0
    1.3300   -3.0770    3.4860 H   0  0  0  0  0  0  0  0  0  0  0  0
    2.6940   -0.6350    3.8610 H   0  0  0  0  0  0  0  0  0  0  0  0
    3.3060   -2.1890    3.5720 H   0  0  0  0  0  0  0  0  0  0  0  0
    1.3940   -1.2200    0.8100 N   0  0  0  0  0  0  0  0  0  0  0  0
    0.8210   -1.0840   -0.5130 C   0  0  1  0  0  0  0  0  0  0  0  0
    0.5440    0.3680   -0.8450 C   0  0  0  0  0  0  0  0  0  0  0  0
   -0.4110    0.9710    0.1210 C   0  0  0  0  0  0  0  0  0  0  0  0
   -0.1190    1.8440    1.1670 C   0  0  0  0  0  0  0  0  0  0  0  0
   -1.2520    2.1610    1.8090 N   0  0  0  0  0  0  0  0  0  0  0  0
   -2.3100    1.5310    1.2340 C   0  0  0  0  0  0  0  0  0  0  0  0
   -3.6610    1.5260    1.5150 C   0  0  0  0  0  0  0  0  0  0  0  0
   -4.5360    0.7800    0.7540 C   0  0  0  0  0  0  0  0  0  0  0  0
   -4.0260    0.0410   -0.2910 C   0  0  0  0  0  0  0  0  0  0  0  0
   -2.6740    0.0530   -0.5620 C   0  0  0  0  0  0  0  0  0  0  0  0
   -1.7790    0.7980    0.1930 C   0  0  0  0  0  0  0  0  0  0  0  0
    1.6230   -1.7550   -1.5440 C   0  0  0  0  0  0  0  0  0  0  0  0
    2.6970   -2.3360   -1.1640 O   0  0  0  0  0  0  0  0  0  0  0  0
    2.3320   -0.8360    1.0500 H   0  0  0  0  0  0  0  0  0  0  0  0
   -0.1680   -1.5860   -0.4840 H   0  0  0  0  0  0  0  0  0  0  0  0
    0.2360    0.5180   -1.8790 H   0  0  0  0  0  0  0  0  0  0  0  0
    1.5180    0.9010   -0.7140 H   0  0  0  0  0  0  0  0  0  0  0  0
    0.9020    2.1700    1.3620 H   0  0  0  0  0  0  0  0  0  0  0  0
   -1.3380    2.7990    2.6350 H   0  0  0  0  0  0  0  0  0  0  0  0
   -4.0850    2.0980    2.3290 H   0  0  0  0  0  0  0  0  0  0  0  0
   -5.6150    0.7630    0.9610 H   0  0  0  0  0  0  0  0  0  0  0  0
   -4.6950   -0.5510   -0.9000 H   0  0  0  0  0  0  0  0  0  0  0  0
   -2.2330   -0.5140   -1.3750 H   0  0  0  0  0  0  0  0  0  0  0  0
    1.4530   -3.6620   -4.4850 C   0  0  0  0  0  0  0  0  0  0  0  0
    2.1300   -2.4740   -3.8270 C   0  0  2  0  0  0  0  0  0  0  0  0
    1.2690   -1.7890   -2.9150 N   0  0  0  0  0  0  0  0  0  0  0  0
    2.5300   -1.5680   -4.9380 C   0  0  0  0  0  0  0  0  0  0  0  0
    3.2920   -1.9580   -5.8630 O   0  0  0  0  0  0  0  0  0  0  0  0
    2.0900   -0.2530   -5.0140 O   0  0  0  0  0  0  0  0  0  0  0  0
    1.3950   -4.4500   -3.6820 H   0  0  0  0  0  0  0  0  0  0  0  0
    2.0420   -4.0850   -5.2990 H   0  0  0  0  0  0  0  0  0  0  0  0
    0.4410   -3.4040   -4.8170 H   0  0  0  0  0  0  0  0  0  0  0  0
    3.0170   -2.8670   -3.3200 H   0  0  0  0  0  0  0  0  0  0  0  0
    0.3850   -1.3020   -3.1730 H   0  0  0  0  0  0  0  0  0  0  0  0
  1  2  1  0  0  0  0
  1 11  1  0  0  0  0
  3 13  1  0  0  0  0
  3  2  1  0  0  0  0
  4  3  1  0  0  0  0
  4 14  1  0  0  0  0
  5 16  1  1  0  0  0
  5  4  1  0  0  0  0
  6  5  1  0  0  0  0
  6 18  1  0  0  0  0
  6 17  1  0  0  0  0
  7  5  1  0  0  0  0
  8  7  2  0  0  0  0
  9  1  1  0  0  0  0
 10  1  1  0  0  0  0
 12  3  1  0  0  0  0
 15  4  1  0  0  0  0
 19 33  1  0  0  0  0
 19  7  1  0  0  0  0
 20 34  1  1  0  0  0
 20 19  1  0  0  0  0
 21 36  1  0  0  0  0
 21 20  1  0  0  0  0
 21 22  1  0  0  0  0
 22 30  1  0  0  0  0
 22 23  2  0  0  0  0
 23 37  1  0  0  0  0
 23 24  1  0  0  0  0
 24 38  1  0  0  0  0
 25 26  1  0  0  0  0
 25 24  1  0  0  0  0
 26 39  1  0  0  0  0
 27 40  1  0  0  0  0
 27 26  2  0  0  0  0
 28 27  1  0  0  0  0
 29 28  2  0  0  0  0
 29 30  1  0  0  0  0
 30 25  2  0  0  0  0
 31 32  2  0  0  0  0
 31 20  1  0  0  0  0
 35 21  1  0  0  0  0
 41 28  1  0  0  0  0
 42 29  1  0  0  0  0
 43 44  1  0  0  0  0
 43 49  1  0  0  0  0
 44 52  1  1  0  0  0
 44 45  1  0  0  0  0
 45 31  1  0  0  0  0
 46 44  1  0  0  0  0
 47 46  2  0  0  0  0
 48 46  1  0  0  0  0
 50 43  1  0  0  0  0
 51 43  1  0  0  0  0
 53 45  1  0  0  0  0
M  END
$$$$
