MWC.pdb
 OpenBabel07022418573D

 54 55  0  0  1  0  0  0  0  0999 V2000
    2.2380    0.5920    6.2010 C   0  0  0  0  0  0  0  0  0  0  0  0
    2.3960   -1.1530    5.7570 S   0  0  0  0  0  0  0  0  0  0  0  0
    2.3380   -1.2900    3.9480 C   0  0  0  0  0  0  0  0  0  0  0  0
    2.4680   -2.7310    3.5060 C   0  0  0  0  0  0  0  0  0  0  0  0
    2.4210   -2.8570    1.9990 C   0  0  2  0  0  0  0  0  0  0  0  0
    3.5020   -2.1060    1.4470 N   0  0  0  0  0  0  0  0  0  0  0  0
    1.0960   -2.3890    1.5200 C   0  0  0  0  0  0  0  0  0  0  0  0
    0.0610   -2.9530    1.9390 O   0  0  0  0  0  0  0  0  0  0  0  0
    2.3350    0.7450    7.3060 H   0  0  0  0  0  0  0  0  0  0  0  0
    1.2140    0.9940    5.9460 H   0  0  0  0  0  0  0  0  0  0  0  0
    2.9480    1.2470    5.6650 H   0  0  0  0  0  0  0  0  0  0  0  0
    1.3640   -0.9120    3.6260 H   0  0  0  0  0  0  0  0  0  0  0  0
    3.1950   -0.7070    3.5630 H   0  0  0  0  0  0  0  0  0  0  0  0
    3.4200   -3.1170    3.9240 H   0  0  0  0  0  0  0  0  0  0  0  0
    1.6630   -3.3290    3.9860 H   0  0  0  0  0  0  0  0  0  0  0  0
    2.5410   -3.9530    1.7640 H   0  0  0  0  0  0  0  0  0  0  0  0
    3.3220   -1.0990    1.5680 H   0  0  0  0  0  0  0  0  0  0  0  0
    3.7540   -2.3700    0.4690 H   0  0  0  0  0  0  0  0  0  0  0  0
    0.9330   -1.3280    0.6010 N   0  0  0  0  0  0  0  0  0  0  0  0
   -0.3750   -0.9010    0.1570 C   0  0  1  0  0  0  0  0  0  0  0  0
   -0.5270    0.5510    0.6080 C   0  0  0  0  0  0  0  0  0  0  0  0
   -1.8160    1.1360    0.2250 C   0  0  0  0  0  0  0  0  0  0  0  0
   -2.1140    2.0260   -0.7840 C   0  0  0  0  0  0  0  0  0  0  0  0
   -3.4240    2.2910   -0.7710 N   0  0  0  0  0  0  0  0  0  0  0  0
   -4.0280    1.6000    0.2260 C   0  0  0  0  0  0  0  0  0  0  0  0
   -5.3220    1.4900    0.6910 C   0  0  0  0  0  0  0  0  0  0  0  0
   -5.6060    0.6710    1.7610 C   0  0  0  0  0  0  0  0  0  0  0  0
   -4.6270   -0.0680    2.4110 C   0  0  0  0  0  0  0  0  0  0  0  0
   -3.3390    0.0710    1.9130 C   0  0  0  0  0  0  0  0  0  0  0  0
   -3.0310    0.8820    0.8450 C   0  0  0  0  0  0  0  0  0  0  0  0
   -0.5140   -1.0070   -1.3200 C   0  0  0  0  0  0  0  0  0  0  0  0
   -1.5550   -0.6990   -1.9310 O   0  0  0  0  0  0  0  0  0  0  0  0
    1.7880   -0.8520    0.2460 H   0  0  0  0  0  0  0  0  0  0  0  0
   -1.1950   -1.4640    0.6050 H   0  0  0  0  0  0  0  0  0  0  0  0
   -0.3550    0.6150    1.7020 H   0  0  0  0  0  0  0  0  0  0  0  0
    0.2990    1.1700    0.1490 H   0  0  0  0  0  0  0  0  0  0  0  0
   -1.4010    2.4410   -1.4720 H   0  0  0  0  0  0  0  0  0  0  0  0
   -3.9880    2.9260   -1.4020 H   0  0  0  0  0  0  0  0  0  0  0  0
   -6.1300    2.0570    0.2060 H   0  0  0  0  0  0  0  0  0  0  0  0
   -6.6360    0.5800    2.1360 H   0  0  0  0  0  0  0  0  0  0  0  0
   -4.8600   -0.7080    3.2500 H   0  0  0  0  0  0  0  0  0  0  0  0
   -2.5520   -0.4960    2.4020 H   0  0  0  0  0  0  0  0  0  0  0  0
    0.5930   -1.4810   -2.0650 N   0  0  0  0  0  0  0  0  0  0  0  0
    0.5050   -1.6020   -3.5050 C   0  0  1  0  0  0  0  0  0  0  0  0
    1.5280   -0.7220   -4.1930 C   0  0  0  0  0  0  0  0  0  0  0  0
    1.2790    1.0240   -3.7700 S   0  0  0  0  0  0  0  0  0  0  0  0
    0.7980   -3.0050   -3.8690 C   0  0  0  0  0  0  0  0  0  0  0  0
    1.0640   -3.8580   -2.9990 O   0  0  0  0  0  0  0  0  0  0  0  0
    0.7780   -3.3950   -5.2190 O   0  0  0  0  0  0  0  0  0  0  0  0
    1.4980   -1.7580   -1.6240 H   0  0  0  0  0  0  0  0  0  0  0  0
   -0.4960   -1.2980   -3.8830 H   0  0  0  0  0  0  0  0  0  0  0  0
    1.4270   -0.8360   -5.2850 H   0  0  0  0  0  0  0  0  0  0  0  0
    2.5420   -1.0680   -3.9080 H   0  0  0  0  0  0  0  0  0  0  0  0
    1.7810    1.8680   -4.7540 H   0  0  0  0  0  0  0  0  0  0  0  0
  1  9  1  0  0  0  0
  2  1  1  0  0  0  0
  3  2  1  0  0  0  0
  4 14  1  0  0  0  0
  4  3  1  0  0  0  0
  4 15  1  0  0  0  0
  5 16  1  6  0  0  0
  5  4  1  0  0  0  0
  6 17  1  0  0  0  0
  6  5  1  0  0  0  0
  7  8  2  0  0  0  0
  7  5  1  0  0  0  0
 10  1  1  0  0  0  0
 11  1  1  0  0  0  0
 12  3  1  0  0  0  0
 13  3  1  0  0  0  0
 18  6  1  0  0  0  0
 19  7  1  0  0  0  0
 20 19  1  0  0  0  0
 20 34  1  1  0  0  0
 20 21  1  0  0  0  0
 21 35  1  0  0  0  0
 22 21  1  0  0  0  0
 22 30  1  0  0  0  0
 23 24  1  0  0  0  0
 23 22  2  0  0  0  0
 24 25  1  0  0  0  0
 25 26  2  0  0  0  0
 25 30  1  0  0  0  0
 26 27  1  0  0  0  0
 27 40  1  0  0  0  0
 27 28  2  0  0  0  0
 28 41  1  0  0  0  0
 29 42  1  0  0  0  0
 29 28  1  0  0  0  0
 30 29  2  0  0  0  0
 31 20  1  0  0  0  0
 32 31  2  0  0  0  0
 33 19  1  0  0  0  0
 36 21  1  0  0  0  0
 37 23  1  0  0  0  0
 38 24  1  0  0  0  0
 39 26  1  0  0  0  0
 43 50  1  0  0  0  0
 43 31  1  0  0  0  0
 44 51  1  6  0  0  0
 44 43  1  0  0  0  0
 45 53  1  0  0  0  0
 45 46  1  0  0  0  0
 45 44  1  0  0  0  0
 47 44  1  0  0  0  0
 47 48  1  0  0  0  0
 49 47  2  0  0  0  0
 52 45  1  0  0  0  0
 54 46  1  0  0  0  0
M  END
$$$$
