MWD.pdb
 OpenBabel07022418573D

 56 57  0  0  1  0  0  0  0  0999 V2000
    1.4680    1.7870    5.4370 C   0  0  0  0  0  0  0  0  0  0  0  0
    3.2330    1.5120    5.0810 S   0  0  0  0  0  0  0  0  0  0  0  0
    3.3980   -0.1680    4.3600 C   0  0  0  0  0  0  0  0  0  0  0  0
    2.7000   -0.1450    3.0170 C   0  0  0  0  0  0  0  0  0  0  0  0
    2.7480   -1.4580    2.3200 C   0  0  2  0  0  0  0  0  0  0  0  0
    4.0980   -1.8780    2.0740 N   0  0  0  0  0  0  0  0  0  0  0  0
    1.9050   -1.5130    1.1000 C   0  0  0  0  0  0  0  0  0  0  0  0
    2.4040   -1.9600    0.0350 O   0  0  0  0  0  0  0  0  0  0  0  0
    0.8870    1.8180    4.4830 H   0  0  0  0  0  0  0  0  0  0  0  0
    1.0860    0.9280    6.0470 H   0  0  0  0  0  0  0  0  0  0  0  0
    1.3140    2.7510    5.9280 H   0  0  0  0  0  0  0  0  0  0  0  0
    4.4700   -0.4440    4.2670 H   0  0  0  0  0  0  0  0  0  0  0  0
    2.8300   -0.8520    5.0230 H   0  0  0  0  0  0  0  0  0  0  0  0
    3.0350    0.6910    2.3710 H   0  0  0  0  0  0  0  0  0  0  0  0
    1.6170    0.0720    3.2560 H   0  0  0  0  0  0  0  0  0  0  0  0
    2.3020   -2.2260    3.0210 H   0  0  0  0  0  0  0  0  0  0  0  0
    4.2050   -2.6630    1.4250 H   0  0  0  0  0  0  0  0  0  0  0  0
    4.5360   -2.1590    2.9830 H   0  0  0  0  0  0  0  0  0  0  0  0
    0.5580   -1.0860    1.0620 N   0  0  0  0  0  0  0  0  0  0  0  0
   -0.3030   -1.1280   -0.0960 C   0  0  1  0  0  0  0  0  0  0  0  0
   -0.0890   -0.0080   -1.0500 C   0  0  0  0  0  0  0  0  0  0  0  0
   -0.3490    1.2890   -0.3410 C   0  0  0  0  0  0  0  0  0  0  0  0
    0.6050    2.1850    0.1230 C   0  0  0  0  0  0  0  0  0  0  0  0
   -0.0330    3.2180    0.6990 N   0  0  0  0  0  0  0  0  0  0  0  0
   -1.3750    3.0350    0.6310 C   0  0  0  0  0  0  0  0  0  0  0  0
   -2.4510    3.7880    1.0640 C   0  0  0  0  0  0  0  0  0  0  0  0
   -3.7490    3.3750    0.8690 C   0  0  0  0  0  0  0  0  0  0  0  0
   -3.9440    2.1760    0.2230 C   0  0  0  0  0  0  0  0  0  0  0  0
   -2.8810    1.4070   -0.2180 C   0  0  0  0  0  0  0  0  0  0  0  0
   -1.5760    1.8290   -0.0190 C   0  0  0  0  0  0  0  0  0  0  0  0
   -0.3470   -2.4680   -0.7490 C   0  0  0  0  0  0  0  0  0  0  0  0
    0.3000   -3.3950   -0.2100 O   0  0  0  0  0  0  0  0  0  0  0  0
    0.1840   -0.7110    1.9700 H   0  0  0  0  0  0  0  0  0  0  0  0
   -1.3630   -1.0230    0.3150 H   0  0  0  0  0  0  0  0  0  0  0  0
    0.9550    0.0170   -1.4200 H   0  0  0  0  0  0  0  0  0  0  0  0
   -0.8220   -0.0690   -1.8670 H   0  0  0  0  0  0  0  0  0  0  0  0
    1.6670    2.0200    0.0080 H   0  0  0  0  0  0  0  0  0  0  0  0
    0.4020    4.0540    1.1430 H   0  0  0  0  0  0  0  0  0  0  0  0
   -2.2900    4.7270    1.5690 H   0  0  0  0  0  0  0  0  0  0  0  0
   -4.6130    3.9630    1.2070 H   0  0  0  0  0  0  0  0  0  0  0  0
   -4.9540    1.8480    0.0670 H   0  0  0  0  0  0  0  0  0  0  0  0
   -3.0140    0.4690   -0.7250 H   0  0  0  0  0  0  0  0  0  0  0  0
   -1.0920   -2.6770   -1.9270 N   0  0  0  0  0  0  0  0  0  0  0  0
   -1.0990   -4.0330   -2.5290 C   0  0  1  0  0  0  0  0  0  0  0  0
   -2.5050   -4.5110   -2.6410 C   0  0  0  0  0  0  0  0  0  0  0  0
   -2.5900   -5.8590   -3.1840 C   0  0  0  0  0  0  0  0  0  0  0  0
   -1.5860   -6.5510   -3.4170 O   0  0  0  0  0  0  0  0  0  0  0  0
   -0.4400   -3.8580   -3.8550 C   0  0  0  0  0  0  0  0  0  0  0  0
   -0.2580   -4.8100   -4.6310 O   0  0  0  0  0  0  0  0  0  0  0  0
   -3.8880   -6.3740   -3.4470 O   0  0  0  0  0  0  0  0  0  0  0  0
    0.0160   -2.6120   -4.3090 O   0  0  0  0  0  0  0  0  0  0  0  0
   -1.6140   -1.8860   -2.3440 H   0  0  0  0  0  0  0  0  0  0  0  0
   -0.4630   -4.6700   -1.9040 H   0  0  0  0  0  0  0  0  0  0  0  0
   -3.1630   -3.7770   -3.1580 H   0  0  0  0  0  0  0  0  0  0  0  0
   -2.9230   -4.5620   -1.5910 H   0  0  0  0  0  0  0  0  0  0  0  0
   -3.8990   -7.2950   -3.9030 H   0  0  0  0  0  0  0  0  0  0  0  0
  1 11  1  0  0  0  0
  1 10  1  0  0  0  0
  2  1  1  0  0  0  0
  3 13  1  0  0  0  0
  3  2  1  0  0  0  0
  4 15  1  0  0  0  0
  4  3  1  0  0  0  0
  5  4  1  0  0  0  0
  5 16  1  1  0  0  0
  6  5  1  0  0  0  0
  6 18  1  0  0  0  0
  7  5  1  0  0  0  0
  8  7  2  0  0  0  0
  9  1  1  0  0  0  0
 12  3  1  0  0  0  0
 14  4  1  0  0  0  0
 17  6  1  0  0  0  0
 19  7  1  0  0  0  0
 19 33  1  0  0  0  0
 20 34  1  1  0  0  0
 20 19  1  0  0  0  0
 21 22  1  0  0  0  0
 21 20  1  0  0  0  0
 22 30  1  0  0  0  0
 22 23  2  0  0  0  0
 23 24  1  0  0  0  0
 24 38  1  0  0  0  0
 25 24  1  0  0  0  0
 25 26  1  0  0  0  0
 26 39  1  0  0  0  0
 27 26  2  0  0  0  0
 27 40  1  0  0  0  0
 28 27  1  0  0  0  0
 29 30  1  0  0  0  0
 29 28  2  0  0  0  0
 30 25  2  0  0  0  0
 31 32  2  0  0  0  0
 31 20  1  0  0  0  0
 35 21  1  0  0  0  0
 36 21  1  0  0  0  0
 37 23  1  0  0  0  0
 41 28  1  0  0  0  0
 42 29  1  0  0  0  0
 43 31  1  0  0  0  0
 44 43  1  0  0  0  0
 44 53  1  1  0  0  0
 45 44  1  0  0  0  0
 45 55  1  0  0  0  0
 46 45  1  0  0  0  0
 47 46  2  0  0  0  0
 48 44  1  0  0  0  0
 49 48  2  0  0  0  0
 50 46  1  0  0  0  0
 51 48  1  0  0  0  0
 52 43  1  0  0  0  0
 54 45  1  0  0  0  0
 56 50  1  0  0  0  0
M  END
$$$$
