MWE.pdb
 OpenBabel07022418573D

 59 60  0  0  1  0  0  0  0  0999 V2000
    2.4330    0.3570    6.3120 C   0  0  0  0  0  0  0  0  0  0  0  0
    2.9200    1.4320    4.9140 S   0  0  0  0  0  0  0  0  0  0  0  0
    2.7920    0.4260    3.4020 C   0  0  0  0  0  0  0  0  0  0  0  0
    3.1780    1.2250    2.1860 C   0  0  0  0  0  0  0  0  0  0  0  0
    3.1220    0.4650    0.8980 C   0  0  2  0  0  0  0  0  0  0  0  0
    3.5130    1.3180   -0.2250 N   0  0  0  0  0  0  0  0  0  0  0  0
    1.8390   -0.2100    0.6240 C   0  0  0  0  0  0  0  0  0  0  0  0
    1.4000   -1.0670    1.4310 O   0  0  0  0  0  0  0  0  0  0  0  0
    2.0340    0.9830    7.1260 H   0  0  0  0  0  0  0  0  0  0  0  0
    3.2970   -0.2050    6.7110 H   0  0  0  0  0  0  0  0  0  0  0  0
    1.6310   -0.3500    5.9940 H   0  0  0  0  0  0  0  0  0  0  0  0
    1.7290    0.1060    3.3380 H   0  0  0  0  0  0  0  0  0  0  0  0
    3.4170   -0.4690    3.5330 H   0  0  0  0  0  0  0  0  0  0  0  0
    2.5850    2.1720    2.1400 H   0  0  0  0  0  0  0  0  0  0  0  0
    4.2580    1.5250    2.3180 H   0  0  0  0  0  0  0  0  0  0  0  0
    3.9010   -0.3300    0.9480 H   0  0  0  0  0  0  0  0  0  0  0  0
    4.4350    1.7290    0.0430 H   0  0  0  0  0  0  0  0  0  0  0  0
    3.7030    0.6700   -1.0230 H   0  0  0  0  0  0  0  0  0  0  0  0
    1.0600    0.0750   -0.5460 N   0  0  0  0  0  0  0  0  0  0  0  0
   -0.1790   -0.6300   -0.7340 C   0  0  1  0  0  0  0  0  0  0  0  0
   -1.3630    0.3060   -0.8160 C   0  0  0  0  0  0  0  0  0  0  0  0
   -1.5260    1.1190    0.4030 C   0  0  0  0  0  0  0  0  0  0  0  0
   -1.1810    2.4530    0.5030 C   0  0  0  0  0  0  0  0  0  0  0  0
   -1.4700    2.8550    1.7550 N   0  0  0  0  0  0  0  0  0  0  0  0
   -1.9840    1.8030    2.4290 C   0  0  0  0  0  0  0  0  0  0  0  0
   -2.4390    1.6640    3.7240 C   0  0  0  0  0  0  0  0  0  0  0  0
   -2.9280    0.4530    4.1820 C   0  0  0  0  0  0  0  0  0  0  0  0
   -2.9610   -0.6310    3.3320 C   0  0  0  0  0  0  0  0  0  0  0  0
   -2.5190   -0.5390    2.0390 C   0  0  0  0  0  0  0  0  0  0  0  0
   -2.0360    0.6850    1.6110 C   0  0  0  0  0  0  0  0  0  0  0  0
   -0.1570   -1.4110   -2.0180 C   0  0  0  0  0  0  0  0  0  0  0  0
    0.8100   -1.4090   -2.7890 O   0  0  0  0  0  0  0  0  0  0  0  0
    1.4420    0.7840   -1.1960 H   0  0  0  0  0  0  0  0  0  0  0  0
   -0.3740   -1.3260    0.1020 H   0  0  0  0  0  0  0  0  0  0  0  0
   -1.3180    0.9460   -1.7250 H   0  0  0  0  0  0  0  0  0  0  0  0
   -2.2770   -0.3170   -0.9060 H   0  0  0  0  0  0  0  0  0  0  0  0
   -0.7550    3.1130   -0.2420 H   0  0  0  0  0  0  0  0  0  0  0  0
   -1.3340    3.8050    2.1630 H   0  0  0  0  0  0  0  0  0  0  0  0
   -2.4190    2.5040    4.3980 H   0  0  0  0  0  0  0  0  0  0  0  0
   -3.2900    0.3150    5.1830 H   0  0  0  0  0  0  0  0  0  0  0  0
   -3.3380   -1.6020    3.6520 H   0  0  0  0  0  0  0  0  0  0  0  0
   -2.5390   -1.3950    1.3450 H   0  0  0  0  0  0  0  0  0  0  0  0
   -1.3010   -2.2080   -2.3960 N   0  0  0  0  0  0  0  0  0  0  0  0
   -1.3380   -2.9680   -3.6010 C   0  0  1  0  0  0  0  0  0  0  0  0
   -1.4430   -4.4360   -3.3720 C   0  0  0  0  0  0  0  0  0  0  0  0
   -0.3180   -5.0210   -2.6290 C   0  0  0  0  0  0  0  0  0  0  0  0
   -0.0850   -4.6700   -1.2410 C   0  0  0  0  0  0  0  0  0  0  0  0
   -0.8670   -4.0620   -0.4780 O   0  0  0  0  0  0  0  0  0  0  0  0
   -2.4810   -2.4960   -4.4780 C   0  0  0  0  0  0  0  0  0  0  0  0
   -3.1920   -1.5700   -4.0600 O   0  0  0  0  0  0  0  0  0  0  0  0
    1.1380   -5.0270   -0.6360 O   0  0  0  0  0  0  0  0  0  0  0  0
   -2.7390   -3.0640   -5.7050 O   0  0  0  0  0  0  0  0  0  0  0  0
   -2.1120   -2.1640   -1.7330 H   0  0  0  0  0  0  0  0  0  0  0  0
   -0.3730   -2.7370   -4.1710 H   0  0  0  0  0  0  0  0  0  0  0  0
   -2.3650   -4.5670   -2.7020 H   0  0  0  0  0  0  0  0  0  0  0  0
   -1.6670   -4.9920   -4.3250 H   0  0  0  0  0  0  0  0  0  0  0  0
   -0.4070   -6.1560   -2.7350 H   0  0  0  0  0  0  0  0  0  0  0  0
    0.6660   -4.8340   -3.1830 H   0  0  0  0  0  0  0  0  0  0  0  0
    1.4350   -4.6100    0.2360 H   0  0  0  0  0  0  0  0  0  0  0  0
  1 10  1  0  0  0  0
  1  9  1  0  0  0  0
  2  1  1  0  0  0  0
  3 13  1  0  0  0  0
  3  2  1  0  0  0  0
  4 15  1  0  0  0  0
  4  3  1  0  0  0  0
  5 16  1  1  0  0  0
  5  4  1  0  0  0  0
  6 17  1  0  0  0  0
  6  5  1  0  0  0  0
  7  5  1  0  0  0  0
  7  8  2  0  0  0  0
 11  1  1  0  0  0  0
 12  3  1  0  0  0  0
 14  4  1  0  0  0  0
 18  6  1  0  0  0  0
 19  7  1  0  0  0  0
 20 19  1  0  0  0  0
 20 34  1  1  0  0  0
 21 20  1  0  0  0  0
 21 22  1  0  0  0  0
 22 23  2  0  0  0  0
 22 30  1  0  0  0  0
 23 24  1  0  0  0  0
 24 38  1  0  0  0  0
 24 25  1  0  0  0  0
 25 26  1  0  0  0  0
 26 27  2  0  0  0  0
 26 39  1  0  0  0  0
 27 40  1  0  0  0  0
 28 41  1  0  0  0  0
 28 27  1  0  0  0  0
 29 28  2  0  0  0  0
 30 29  1  0  0  0  0
 30 25  2  0  0  0  0
 31 20  1  0  0  0  0
 32 31  2  0  0  0  0
 33 19  1  0  0  0  0
 35 21  1  0  0  0  0
 36 21  1  0  0  0  0
 37 23  1  0  0  0  0
 42 29  1  0  0  0  0
 43 31  1  0  0  0  0
 43 53  1  0  0  0  0
 44 54  1  6  0  0  0
 44 45  1  0  0  0  0
 44 43  1  0  0  0  0
 45 55  1  0  0  0  0
 45 46  1  0  0  0  0
 46 47  1  0  0  0  0
 47 51  1  0  0  0  0
 47 48  2  0  0  0  0
 49 50  1  0  0  0  0
 49 44  1  0  0  0  0
 51 59  1  0  0  0  0
 52 49  2  0  0  0  0
 56 45  1  0  0  0  0
 57 46  1  0  0  0  0
 58 46  1  0  0  0  0
M  END
$$$$
