MWG.pdb
 OpenBabel07022418573D

 50 51  0  0  1  0  0  0  0  0999 V2000
    0.6220   -3.1720    4.7230 C   0  0  0  0  0  0  0  0  0  0  0  0
    2.2240   -3.6020    4.0750 S   0  0  0  0  0  0  0  0  0  0  0  0
    2.6910   -2.9470    2.5090 C   0  0  0  0  0  0  0  0  0  0  0  0
    3.0450   -1.5270    2.3660 C   0  0  0  0  0  0  0  0  0  0  0  0
    2.0270   -0.4910    2.6820 C   0  0  2  0  0  0  0  0  0  0  0  0
    1.5900   -0.5430    4.0530 N   0  0  0  0  0  0  0  0  0  0  0  0
    0.8630   -0.6160    1.7350 C   0  0  0  0  0  0  0  0  0  0  0  0
   -0.3290   -0.7440    2.1360 O   0  0  0  0  0  0  0  0  0  0  0  0
    0.6780   -2.5320    5.6380 H   0  0  0  0  0  0  0  0  0  0  0  0
    0.0720   -4.1240    5.0510 H   0  0  0  0  0  0  0  0  0  0  0  0
   -0.0560   -2.7060    3.9860 H   0  0  0  0  0  0  0  0  0  0  0  0
    3.5240   -3.6140    2.0930 H   0  0  0  0  0  0  0  0  0  0  0  0
    1.8210   -3.1660    1.7900 H   0  0  0  0  0  0  0  0  0  0  0  0
    3.3810   -1.3340    1.2950 H   0  0  0  0  0  0  0  0  0  0  0  0
    3.9880   -1.3470    2.9760 H   0  0  0  0  0  0  0  0  0  0  0  0
    2.4480    0.5370    2.4810 H   0  0  0  0  0  0  0  0  0  0  0  0
    2.3980   -0.3990    4.6680 H   0  0  0  0  0  0  0  0  0  0  0  0
    0.8560    0.1460    4.2540 H   0  0  0  0  0  0  0  0  0  0  0  0
    1.1440   -0.5860    0.3440 N   0  0  0  0  0  0  0  0  0  0  0  0
    0.0560   -0.7060   -0.6070 C   0  0  1  0  0  0  0  0  0  0  0  0
   -0.0370    0.5120   -1.4940 C   0  0  0  0  0  0  0  0  0  0  0  0
   -0.2740    1.7430   -0.6950 C   0  0  0  0  0  0  0  0  0  0  0  0
    0.6570    2.7290   -0.3680 C   0  0  0  0  0  0  0  0  0  0  0  0
    0.0490    3.6760    0.3670 N   0  0  0  0  0  0  0  0  0  0  0  0
   -1.2520    3.3740    0.5520 C   0  0  0  0  0  0  0  0  0  0  0  0
   -2.2750    4.0150    1.2200 C   0  0  0  0  0  0  0  0  0  0  0  0
   -3.5440    3.4730    1.2510 C   0  0  0  0  0  0  0  0  0  0  0  0
   -3.7550    2.2750    0.5960 C   0  0  0  0  0  0  0  0  0  0  0  0
   -2.7200    1.6480   -0.0670 C   0  0  0  0  0  0  0  0  0  0  0  0
   -1.4470    2.1720   -0.1100 C   0  0  0  0  0  0  0  0  0  0  0  0
    0.1490   -1.9620   -1.3870 C   0  0  0  0  0  0  0  0  0  0  0  0
    1.1070   -2.7710   -1.1850 O   0  0  0  0  0  0  0  0  0  0  0  0
    2.1400   -0.4730   -0.0220 H   0  0  0  0  0  0  0  0  0  0  0  0
   -0.8870   -0.7730   -0.0350 H   0  0  0  0  0  0  0  0  0  0  0  0
    0.9670    0.6300   -1.9840 H   0  0  0  0  0  0  0  0  0  0  0  0
   -0.7840    0.4260   -2.2770 H   0  0  0  0  0  0  0  0  0  0  0  0
    1.6960    2.6840   -0.6860 H   0  0  0  0  0  0  0  0  0  0  0  0
    0.5320    4.5310    0.7420 H   0  0  0  0  0  0  0  0  0  0  0  0
   -2.1280    4.9540    1.7380 H   0  0  0  0  0  0  0  0  0  0  0  0
   -4.3650    3.9710    1.7760 H   0  0  0  0  0  0  0  0  0  0  0  0
   -4.7350    1.8340    0.6070 H   0  0  0  0  0  0  0  0  0  0  0  0
   -2.8590    0.6980   -0.5950 H   0  0  0  0  0  0  0  0  0  0  0  0
   -0.7900   -2.3380   -2.3820 N   0  0  0  0  0  0  0  0  0  0  0  0
   -0.6400   -3.5850   -3.1090 C   0  0  0  0  0  0  0  0  0  0  0  0
   -0.6700   -4.7540   -2.1650 C   0  0  0  0  0  0  0  0  0  0  0  0
   -0.8210   -4.5380   -0.9460 O   0  0  0  0  0  0  0  0  0  0  0  0
   -0.5280   -6.0280   -2.6930 O   0  0  0  0  0  0  0  0  0  0  0  0
   -1.5890   -1.6960   -2.5730 H   0  0  0  0  0  0  0  0  0  0  0  0
    0.3050   -3.5820   -3.6780 H   0  0  0  0  0  0  0  0  0  0  0  0
   -1.4810   -3.6870   -3.8310 H   0  0  0  0  0  0  0  0  0  0  0  0
  1 10  1  0  0  0  0
  1  9  1  0  0  0  0
  2  1  1  0  0  0  0
  3  2  1  0  0  0  0
  4  3  1  0  0  0  0
  4  5  1  0  0  0  0
  4 15  1  0  0  0  0
  5 16  1  6  0  0  0
  5  6  1  0  0  0  0
  6 18  1  0  0  0  0
  6 17  1  0  0  0  0
  7  8  2  0  0  0  0
  7  5  1  0  0  0  0
 11  1  1  0  0  0  0
 12  3  1  0  0  0  0
 13  3  1  0  0  0  0
 14  4  1  0  0  0  0
 19  7  1  0  0  0  0
 20 34  1  1  0  0  0
 20 19  1  0  0  0  0
 21 22  1  0  0  0  0
 21 20  1  0  0  0  0
 22 23  2  0  0  0  0
 22 30  1  0  0  0  0
 23 24  1  0  0  0  0
 24 25  1  0  0  0  0
 24 38  1  0  0  0  0
 25 26  1  0  0  0  0
 26 27  2  0  0  0  0
 26 39  1  0  0  0  0
 27 40  1  0  0  0  0
 28 41  1  0  0  0  0
 28 27  1  0  0  0  0
 29 28  2  0  0  0  0
 30 29  1  0  0  0  0
 30 25  2  0  0  0  0
 31 32  2  0  0  0  0
 31 20  1  0  0  0  0
 33 19  1  0  0  0  0
 35 21  1  0  0  0  0
 36 21  1  0  0  0  0
 37 23  1  0  0  0  0
 42 29  1  0  0  0  0
 43 31  1  0  0  0  0
 44 43  1  0  0  0  0
 44 45  1  0  0  0  0
 45 46  1  0  0  0  0
 47 45  2  0  0  0  0
 48 43  1  0  0  0  0
 49 44  1  0  0  0  0
 50 44  1  0  0  0  0
M  END
$$$$
