MWI.pdb
 OpenBabel07022418573D

 62 63  0  0  1  0  0  0  0  0999 V2000
    2.3540    0.7300    7.1090 C   0  0  0  0  0  0  0  0  0  0  0  0
    3.5000    1.6190    5.9920 S   0  0  0  0  0  0  0  0  0  0  0  0
    3.8490    0.5340    4.5790 C   0  0  0  0  0  0  0  0  0  0  0  0
    2.5710    0.3450    3.7730 C   0  0  0  0  0  0  0  0  0  0  0  0
    2.8150   -0.5540    2.5860 C   0  0  2  0  0  0  0  0  0  0  0  0
    3.8120    0.0060    1.7160 N   0  0  0  0  0  0  0  0  0  0  0  0
    1.5080   -0.7300    1.8830 C   0  0  0  0  0  0  0  0  0  0  0  0
    0.5090   -1.2030    2.4820 O   0  0  0  0  0  0  0  0  0  0  0  0
    2.4750    1.0810    8.1620 H   0  0  0  0  0  0  0  0  0  0  0  0
    2.6090   -0.3590    7.0080 H   0  0  0  0  0  0  0  0  0  0  0  0
    1.3290    0.9060    6.7260 H   0  0  0  0  0  0  0  0  0  0  0  0
    4.6350    0.9410    3.9300 H   0  0  0  0  0  0  0  0  0  0  0  0
    4.1510   -0.4590    4.9650 H   0  0  0  0  0  0  0  0  0  0  0  0
    2.1580    1.3350    3.4530 H   0  0  0  0  0  0  0  0  0  0  0  0
    1.8240   -0.0750    4.4700 H   0  0  0  0  0  0  0  0  0  0  0  0
    3.2000   -1.5170    2.9770 H   0  0  0  0  0  0  0  0  0  0  0  0
    3.8830   -0.6280    0.8650 H   0  0  0  0  0  0  0  0  0  0  0  0
    4.7480   -0.1300    2.2010 H   0  0  0  0  0  0  0  0  0  0  0  0
    1.3320   -0.3750    0.5160 N   0  0  0  0  0  0  0  0  0  0  0  0
    0.0830   -0.5330   -0.1890 C   0  0  1  0  0  0  0  0  0  0  0  0
   -0.4380    0.7900   -0.7150 C   0  0  0  0  0  0  0  0  0  0  0  0
   -0.6720    1.7530    0.3930 C   0  0  0  0  0  0  0  0  0  0  0  0
    0.1300    2.8320    0.7330 C   0  0  0  0  0  0  0  0  0  0  0  0
   -0.4070    3.4680    1.7900 N   0  0  0  0  0  0  0  0  0  0  0  0
   -1.5410    2.8530    2.1710 C   0  0  0  0  0  0  0  0  0  0  0  0
   -2.4440    3.1110    3.1820 C   0  0  0  0  0  0  0  0  0  0  0  0
   -3.5500    2.3060    3.3590 C   0  0  0  0  0  0  0  0  0  0  0  0
   -3.7060    1.2490    2.4900 C   0  0  0  0  0  0  0  0  0  0  0  0
   -2.8120    0.9780    1.4750 C   0  0  0  0  0  0  0  0  0  0  0  0
   -1.7120    1.7800    1.3010 C   0  0  0  0  0  0  0  0  0  0  0  0
    0.2760   -1.5130   -1.2890 C   0  0  0  0  0  0  0  0  0  0  0  0
    1.3900   -2.0630   -1.4850 O   0  0  0  0  0  0  0  0  0  0  0  0
    2.1510    0.0190    0.0030 H   0  0  0  0  0  0  0  0  0  0  0  0
   -0.7150   -0.9550    0.4610 H   0  0  0  0  0  0  0  0  0  0  0  0
    0.2820    1.2230   -1.4360 H   0  0  0  0  0  0  0  0  0  0  0  0
   -1.3940    0.6580   -1.2470 H   0  0  0  0  0  0  0  0  0  0  0  0
    1.0310    3.1220    0.2430 H   0  0  0  0  0  0  0  0  0  0  0  0
    0.0040    4.3130    2.2410 H   0  0  0  0  0  0  0  0  0  0  0  0
   -2.3210    3.9390    3.8610 H   0  0  0  0  0  0  0  0  0  0  0  0
   -4.2850    2.4780    4.1450 H   0  0  0  0  0  0  0  0  0  0  0  0
   -4.5560    0.6120    2.6090 H   0  0  0  0  0  0  0  0  0  0  0  0
   -2.9310    0.1500    0.7920 H   0  0  0  0  0  0  0  0  0  0  0  0
   -2.4350   -5.0370   -4.9770 C   0  0  0  0  0  0  0  0  0  0  0  0
   -1.5510   -5.1550   -3.7870 C   0  0  0  0  0  0  0  0  0  0  0  0
   -1.4960   -3.9950   -2.8690 C   0  0  2  0  0  0  0  0  0  0  0  0
   -2.8370   -3.6040   -2.2790 C   0  0  0  0  0  0  0  0  0  0  0  0
   -0.6370   -2.8320   -3.2580 C   0  0  2  0  0  0  0  0  0  0  0  0
   -0.8020   -1.8550   -2.1520 N   0  0  0  0  0  0  0  0  0  0  0  0
   -0.9120   -2.2060   -4.5420 C   0  0  0  0  0  0  0  0  0  0  0  0
   -0.7580   -2.7980   -5.6300 O   0  0  0  0  0  0  0  0  0  0  0  0
   -1.3730   -0.8780   -4.6490 O   0  0  0  0  0  0  0  0  0  0  0  0
   -3.1970   -5.8860   -4.9590 H   0  0  0  0  0  0  0  0  0  0  0  0
   -3.0320   -4.1150   -5.0490 H   0  0  0  0  0  0  0  0  0  0  0  0
   -1.8580   -5.2460   -5.8980 H   0  0  0  0  0  0  0  0  0  0  0  0
   -0.4860   -5.4010   -4.0660 H   0  0  0  0  0  0  0  0  0  0  0  0
   -1.8740   -6.0480   -3.1690 H   0  0  0  0  0  0  0  0  0  0  0  0
   -0.9410   -4.4140   -1.9350 H   0  0  0  0  0  0  0  0  0  0  0  0
   -3.2040   -2.7090   -2.8510 H   0  0  0  0  0  0  0  0  0  0  0  0
   -3.5510   -4.4340   -2.2710 H   0  0  0  0  0  0  0  0  0  0  0  0
   -2.7350   -3.2460   -1.2210 H   0  0  0  0  0  0  0  0  0  0  0  0
    0.4220   -3.1640   -3.1990 H   0  0  0  0  0  0  0  0  0  0  0  0
   -1.7160   -1.3890   -1.9740 H   0  0  0  0  0  0  0  0  0  0  0  0
  1  9  1  0  0  0  0
  2  1  1  0  0  0  0
  3 13  1  0  0  0  0
  3  2  1  0  0  0  0
  4 15  1  0  0  0  0
  4  3  1  0  0  0  0
  5 16  1  1  0  0  0
  5  4  1  0  0  0  0
  6 18  1  0  0  0  0
  6  5  1  0  0  0  0
  7  8  2  0  0  0  0
  7  5  1  0  0  0  0
 10  1  1  0  0  0  0
 11  1  1  0  0  0  0
 12  3  1  0  0  0  0
 14  4  1  0  0  0  0
 17  6  1  0  0  0  0
 19  7  1  0  0  0  0
 20 34  1  1  0  0  0
 20 19  1  0  0  0  0
 21 20  1  0  0  0  0
 21 22  1  0  0  0  0
 22 23  2  0  0  0  0
 22 30  1  0  0  0  0
 23 24  1  0  0  0  0
 24 25  1  0  0  0  0
 24 38  1  0  0  0  0
 25 26  1  0  0  0  0
 26 27  2  0  0  0  0
 26 39  1  0  0  0  0
 27 40  1  0  0  0  0
 28 41  1  0  0  0  0
 28 27  1  0  0  0  0
 29 28  2  0  0  0  0
 30 29  1  0  0  0  0
 30 25  2  0  0  0  0
 31 20  1  0  0  0  0
 32 31  2  0  0  0  0
 33 19  1  0  0  0  0
 35 21  1  0  0  0  0
 36 21  1  0  0  0  0
 37 23  1  0  0  0  0
 42 29  1  0  0  0  0
 43 52  1  0  0  0  0
 43 44  1  0  0  0  0
 44 56  1  0  0  0  0
 44 45  1  0  0  0  0
 45 46  1  0  0  0  0
 45 57  1  1  0  0  0
 46 59  1  0  0  0  0
 46 60  1  0  0  0  0
 47 61  1  6  0  0  0
 47 45  1  0  0  0  0
 47 48  1  0  0  0  0
 48 62  1  0  0  0  0
 48 31  1  0  0  0  0
 49 47  1  0  0  0  0
 50 49  2  0  0  0  0
 51 49  1  0  0  0  0
 53 43  1  0  0  0  0
 54 43  1  0  0  0  0
 55 44  1  0  0  0  0
 58 46  1  0  0  0  0
M  END
$$$$
