MWL.pdb
 OpenBabel07022418573D

 62 63  0  0  1  0  0  0  0  0999 V2000
    3.5220    1.6770    6.4890 C   0  0  0  0  0  0  0  0  0  0  0  0
    4.2140   -0.0000    6.4570 S   0  0  0  0  0  0  0  0  0  0  0  0
    3.6790   -0.8990    4.9540 C   0  0  0  0  0  0  0  0  0  0  0  0
    4.2800   -0.2700    3.7270 C   0  0  0  0  0  0  0  0  0  0  0  0
    3.9070   -0.9540    2.4430 C   0  0  2  0  0  0  0  0  0  0  0  0
    4.5720   -0.2630    1.3310 N   0  0  0  0  0  0  0  0  0  0  0  0
    2.4310   -0.8790    2.2550 C   0  0  0  0  0  0  0  0  0  0  0  0
    1.6140   -1.4650    3.0080 O   0  0  0  0  0  0  0  0  0  0  0  0
    3.4160    2.0660    7.5230 H   0  0  0  0  0  0  0  0  0  0  0  0
    2.5080    1.7190    6.0320 H   0  0  0  0  0  0  0  0  0  0  0  0
    4.1900    2.3710    5.9410 H   0  0  0  0  0  0  0  0  0  0  0  0
    2.5940   -0.9920    4.9530 H   0  0  0  0  0  0  0  0  0  0  0  0
    4.1130   -1.9350    5.0540 H   0  0  0  0  0  0  0  0  0  0  0  0
    5.3900   -0.2390    3.7770 H   0  0  0  0  0  0  0  0  0  0  0  0
    3.9430    0.8090    3.6950 H   0  0  0  0  0  0  0  0  0  0  0  0
    4.3070   -1.9770    2.4650 H   0  0  0  0  0  0  0  0  0  0  0  0
    4.3630   -0.8010    0.4500 H   0  0  0  0  0  0  0  0  0  0  0  0
    5.6070   -0.4010    1.5060 H   0  0  0  0  0  0  0  0  0  0  0  0
    1.8420   -0.1330    1.2010 N   0  0  0  0  0  0  0  0  0  0  0  0
    0.3680   -0.0760    1.0410 C   0  0  1  0  0  0  0  0  0  0  0  0
   -0.0740    1.3300    1.1460 C   0  0  0  0  0  0  0  0  0  0  0  0
   -1.5110    1.5310    0.9820 C   0  0  0  0  0  0  0  0  0  0  0  0
   -2.4630    1.5780    2.0170 C   0  0  0  0  0  0  0  0  0  0  0  0
   -3.6860    1.7660    1.4990 N   0  0  0  0  0  0  0  0  0  0  0  0
   -3.6190    1.8500    0.1590 C   0  0  0  0  0  0  0  0  0  0  0  0
   -4.5850    2.0550   -0.8110 C   0  0  0  0  0  0  0  0  0  0  0  0
   -4.2480    2.1250   -2.1460 C   0  0  0  0  0  0  0  0  0  0  0  0
   -2.9100    1.9810   -2.4610 C   0  0  0  0  0  0  0  0  0  0  0  0
   -1.9420    1.7760   -1.5010 C   0  0  0  0  0  0  0  0  0  0  0  0
   -2.2770    1.7050   -0.1620 C   0  0  0  0  0  0  0  0  0  0  0  0
    0.0860   -0.7030   -0.2420 C   0  0  0  0  0  0  0  0  0  0  0  0
    1.0250   -0.8150   -1.0980 O   0  0  0  0  0  0  0  0  0  0  0  0
    2.4130    0.3880    0.5200 H   0  0  0  0  0  0  0  0  0  0  0  0
   -0.1030   -0.6590    1.8860 H   0  0  0  0  0  0  0  0  0  0  0  0
    0.2690    1.8300    2.0910 H   0  0  0  0  0  0  0  0  0  0  0  0
    0.4050    1.9170    0.2870 H   0  0  0  0  0  0  0  0  0  0  0  0
   -2.2010    1.4740    3.0620 H   0  0  0  0  0  0  0  0  0  0  0  0
   -4.5500    1.8330    2.0790 H   0  0  0  0  0  0  0  0  0  0  0  0
   -5.6260    2.1660   -0.5550 H   0  0  0  0  0  0  0  0  0  0  0  0
   -4.9740    2.2840   -2.9350 H   0  0  0  0  0  0  0  0  0  0  0  0
   -2.6540    2.0370   -3.5110 H   0  0  0  0  0  0  0  0  0  0  0  0
   -0.8910    1.6620   -1.7430 H   0  0  0  0  0  0  0  0  0  0  0  0
   -2.5700   -4.2770   -3.5380 C   0  0  0  0  0  0  0  0  0  0  0  0
   -1.2510   -4.1660   -2.8550 C   0  0  0  0  0  0  0  0  0  0  0  0
   -0.8130   -5.6110   -2.5160 C   0  0  0  0  0  0  0  0  0  0  0  0
   -1.1400   -3.2970   -1.6720 C   0  0  0  0  0  0  0  0  0  0  0  0
   -1.3860   -1.8430   -1.8930 C   0  0  2  0  0  0  0  0  0  0  0  0
   -1.1990   -1.1970   -0.5460 N   0  0  0  0  0  0  0  0  0  0  0  0
   -2.7040   -1.4230   -2.3260 C   0  0  0  0  0  0  0  0  0  0  0  0
   -3.1050   -1.4280   -3.5200 O   0  0  0  0  0  0  0  0  0  0  0  0
   -3.6400   -0.9760   -1.3870 O   0  0  0  0  0  0  0  0  0  0  0  0
   -2.7710   -5.3680   -3.8400 H   0  0  0  0  0  0  0  0  0  0  0  0
   -3.4280   -3.9380   -2.9370 H   0  0  0  0  0  0  0  0  0  0  0  0
   -2.5560   -3.7570   -4.5050 H   0  0  0  0  0  0  0  0  0  0  0  0
   -0.5180   -3.8250   -3.6710 H   0  0  0  0  0  0  0  0  0  0  0  0
   -1.6080   -6.0630   -1.8970 H   0  0  0  0  0  0  0  0  0  0  0  0
   -0.7940   -6.1660   -3.4830 H   0  0  0  0  0  0  0  0  0  0  0  0
    0.1840   -5.6060   -2.0200 H   0  0  0  0  0  0  0  0  0  0  0  0
   -0.0870   -3.4070   -1.2560 H   0  0  0  0  0  0  0  0  0  0  0  0
   -1.8480   -3.6500   -0.8500 H   0  0  0  0  0  0  0  0  0  0  0  0
   -0.5420   -1.4400   -2.5110 H   0  0  0  0  0  0  0  0  0  0  0  0
   -2.0370   -1.1720    0.0530 H   0  0  0  0  0  0  0  0  0  0  0  0
  1  9  1  0  0  0  0
  2  1  1  0  0  0  0
  3 13  1  0  0  0  0
  3  2  1  0  0  0  0
  4 14  1  0  0  0  0
  4  3  1  0  0  0  0
  5 16  1  1  0  0  0
  5  4  1  0  0  0  0
  6 18  1  0  0  0  0
  6  5  1  0  0  0  0
  7  5  1  0  0  0  0
  7  8  2  0  0  0  0
 10  1  1  0  0  0  0
 11  1  1  0  0  0  0
 12  3  1  0  0  0  0
 15  4  1  0  0  0  0
 17  6  1  0  0  0  0
 19  7  1  0  0  0  0
 20 21  1  0  0  0  0
 20 19  1  0  0  0  0
 20 34  1  1  0  0  0
 21 35  1  0  0  0  0
 22 21  1  0  0  0  0
 22 23  2  0  0  0  0
 23 37  1  0  0  0  0
 24 23  1  0  0  0  0
 24 38  1  0  0  0  0
 25 24  1  0  0  0  0
 26 39  1  0  0  0  0
 26 25  2  0  0  0  0
 27 26  1  0  0  0  0
 28 27  2  0  0  0  0
 28 29  1  0  0  0  0
 29 30  2  0  0  0  0
 30 25  1  0  0  0  0
 30 22  1  0  0  0  0
 31 20  1  0  0  0  0
 32 31  2  0  0  0  0
 33 19  1  0  0  0  0
 36 21  1  0  0  0  0
 40 27  1  0  0  0  0
 41 28  1  0  0  0  0
 42 29  1  0  0  0  0
 43 53  1  0  0  0  0
 43 44  1  0  0  0  0
 44 45  1  0  0  0  0
 44 46  1  0  0  0  0
 45 58  1  0  0  0  0
 45 56  1  0  0  0  0
 46 59  1  0  0  0  0
 46 60  1  0  0  0  0
 47 61  1  6  0  0  0
 47 46  1  0  0  0  0
 47 48  1  0  0  0  0
 48 31  1  0  0  0  0
 48 62  1  0  0  0  0
 49 47  1  0  0  0  0
 49 51  1  0  0  0  0
 50 49  2  0  0  0  0
 52 43  1  0  0  0  0
 54 43  1  0  0  0  0
 55 44  1  0  0  0  0
 57 45  1  0  0  0  0
M  END
$$$$
