MWM.pdb
 OpenBabel07022418573D

 60 61  0  0  1  0  0  0  0  0999 V2000
   -0.6660    0.5240    5.3780 C   0  0  0  0  0  0  0  0  0  0  0  0
    0.9520   -0.1780    5.8200 S   0  0  0  0  0  0  0  0  0  0  0  0
    1.9770   -0.2000    4.3180 C   0  0  0  0  0  0  0  0  0  0  0  0
    2.2870    1.1900    3.8570 C   0  0  0  0  0  0  0  0  0  0  0  0
    3.1160    1.2050    2.6170 C   0  0  2  0  0  0  0  0  0  0  0  0
    3.4750    2.4940    2.1240 N   0  0  0  0  0  0  0  0  0  0  0  0
    2.5260    0.3580    1.5120 C   0  0  0  0  0  0  0  0  0  0  0  0
    3.2490   -0.1730    0.6540 O   0  0  0  0  0  0  0  0  0  0  0  0
   -1.3020   -0.2070    4.8520 H   0  0  0  0  0  0  0  0  0  0  0  0
   -1.2110    0.8780    6.2690 H   0  0  0  0  0  0  0  0  0  0  0  0
   -0.5170    1.3930    4.6800 H   0  0  0  0  0  0  0  0  0  0  0  0
    2.9660   -0.6370    4.6500 H   0  0  0  0  0  0  0  0  0  0  0  0
    1.6100   -0.8960    3.5600 H   0  0  0  0  0  0  0  0  0  0  0  0
    2.8950    1.7140    4.6530 H   0  0  0  0  0  0  0  0  0  0  0  0
    1.3770    1.8160    3.6760 H   0  0  0  0  0  0  0  0  0  0  0  0
    4.0840    0.6810    2.8770 H   0  0  0  0  0  0  0  0  0  0  0  0
    3.9060    2.3950    1.1980 H   0  0  0  0  0  0  0  0  0  0  0  0
    4.2150    2.8820    2.7750 H   0  0  0  0  0  0  0  0  0  0  0  0
    1.1210    0.1720    1.4570 N   0  0  0  0  0  0  0  0  0  0  0  0
    0.4530   -0.6250    0.4630 C   0  0  1  0  0  0  0  0  0  0  0  0
    0.0290    0.1460   -0.7380 C   0  0  0  0  0  0  0  0  0  0  0  0
   -0.9150    1.2430   -0.4120 C   0  0  0  0  0  0  0  0  0  0  0  0
   -0.5800    2.5750   -0.3610 C   0  0  0  0  0  0  0  0  0  0  0  0
   -1.6750    3.3040   -0.0340 N   0  0  0  0  0  0  0  0  0  0  0  0
   -2.7330    2.4790    0.1340 C   0  0  0  0  0  0  0  0  0  0  0  0
   -4.0520    2.7100    0.4650 C   0  0  0  0  0  0  0  0  0  0  0  0
   -4.9380    1.6600    0.5710 C   0  0  0  0  0  0  0  0  0  0  0  0
   -4.4520    0.3810    0.3330 C   0  0  0  0  0  0  0  0  0  0  0  0
   -3.1330    0.1410    0.0010 C   0  0  0  0  0  0  0  0  0  0  0  0
   -2.2580    1.1910   -0.1030 C   0  0  0  0  0  0  0  0  0  0  0  0
    1.0990   -1.9320    0.1720 C   0  0  0  0  0  0  0  0  0  0  0  0
    2.0980   -2.3780    0.7860 O   0  0  0  0  0  0  0  0  0  0  0  0
    0.5460    0.6870    2.2150 H   0  0  0  0  0  0  0  0  0  0  0  0
   -0.5230   -0.9400    0.9940 H   0  0  0  0  0  0  0  0  0  0  0  0
    0.9480    0.6040   -1.1780 H   0  0  0  0  0  0  0  0  0  0  0  0
   -0.3770   -0.4980   -1.5400 H   0  0  0  0  0  0  0  0  0  0  0  0
    0.3820    3.0260   -0.5420 H   0  0  0  0  0  0  0  0  0  0  0  0
   -1.7010    4.3440    0.0730 H   0  0  0  0  0  0  0  0  0  0  0  0
   -4.4360    3.7030    0.6510 H   0  0  0  0  0  0  0  0  0  0  0  0
   -5.9860    1.7860    0.8290 H   0  0  0  0  0  0  0  0  0  0  0  0
   -5.1380   -0.4510    0.4130 H   0  0  0  0  0  0  0  0  0  0  0  0
   -2.7410   -0.8460   -0.1870 H   0  0  0  0  0  0  0  0  0  0  0  0
   -2.0970   -4.9700   -4.4880 C   0  0  0  0  0  0  0  0  0  0  0  0
   -0.5570   -5.1110   -3.5430 S   0  0  0  0  0  0  0  0  0  0  0  0
   -0.9740   -5.0790   -1.7800 C   0  0  0  0  0  0  0  0  0  0  0  0
    0.2600   -5.1920   -0.9150 C   0  0  0  0  0  0  0  0  0  0  0  0
    1.2330   -4.0720   -1.1520 C   0  0  2  0  0  0  0  0  0  0  0  0
    0.6140   -2.8010   -0.8590 N   0  0  0  0  0  0  0  0  0  0  0  0
    1.8200   -4.1100   -2.5100 C   0  0  0  0  0  0  0  0  0  0  0  0
    2.3970   -5.1520   -2.9140 O   0  0  0  0  0  0  0  0  0  0  0  0
    1.7750   -3.0410   -3.3910 O   0  0  0  0  0  0  0  0  0  0  0  0
   -2.3960   -5.9990   -4.7770 H   0  0  0  0  0  0  0  0  0  0  0  0
   -2.9200   -4.5160   -3.8900 H   0  0  0  0  0  0  0  0  0  0  0  0
   -1.9710   -4.3070   -5.3720 H   0  0  0  0  0  0  0  0  0  0  0  0
   -1.5600   -4.1920   -1.5040 H   0  0  0  0  0  0  0  0  0  0  0  0
   -1.6060   -5.9690   -1.5690 H   0  0  0  0  0  0  0  0  0  0  0  0
    0.7310   -6.1770   -1.0160 H   0  0  0  0  0  0  0  0  0  0  0  0
   -0.0870   -5.1010    0.1400 H   0  0  0  0  0  0  0  0  0  0  0  0
    2.0730   -4.2070   -0.4410 H   0  0  0  0  0  0  0  0  0  0  0  0
   -0.2160   -2.4970   -1.4080 H   0  0  0  0  0  0  0  0  0  0  0  0
  1  2  1  0  0  0  0
  1 10  1  0  0  0  0
  3 12  1  0  0  0  0
  3  2  1  0  0  0  0
  4  3  1  0  0  0  0
  4 14  1  0  0  0  0
  5 16  1  1  0  0  0
  5  4  1  0  0  0  0
  6  5  1  0  0  0  0
  6 18  1  0  0  0  0
  7  5  1  0  0  0  0
  8  7  2  0  0  0  0
  9  1  1  0  0  0  0
 11  1  1  0  0  0  0
 13  3  1  0  0  0  0
 15  4  1  0  0  0  0
 17  6  1  0  0  0  0
 19  7  1  0  0  0  0
 19 33  1  0  0  0  0
 20 34  1  1  0  0  0
 20 19  1  0  0  0  0
 21 22  1  0  0  0  0
 21 20  1  0  0  0  0
 22 23  2  0  0  0  0
 22 30  1  0  0  0  0
 23 24  1  0  0  0  0
 24 38  1  0  0  0  0
 24 25  1  0  0  0  0
 25 26  1  0  0  0  0
 26 27  2  0  0  0  0
 26 39  1  0  0  0  0
 27 40  1  0  0  0  0
 28 41  1  0  0  0  0
 28 27  1  0  0  0  0
 29 28  2  0  0  0  0
 30 29  1  0  0  0  0
 30 25  2  0  0  0  0
 31 20  1  0  0  0  0
 31 32  2  0  0  0  0
 35 21  1  0  0  0  0
 36 21  1  0  0  0  0
 37 23  1  0  0  0  0
 42 29  1  0  0  0  0
 43 53  1  0  0  0  0
 43 44  1  0  0  0  0
 44 45  1  0  0  0  0
 45 56  1  0  0  0  0
 45 55  1  0  0  0  0
 45 46  1  0  0  0  0
 46 58  1  0  0  0  0
 47 46  1  0  0  0  0
 47 48  1  0  0  0  0
 47 59  1  1  0  0  0
 48 31  1  0  0  0  0
 49 47  1  0  0  0  0
 50 49  1  0  0  0  0
 51 49  2  0  0  0  0
 52 43  1  0  0  0  0
 54 43  1  0  0  0  0
 57 46  1  0  0  0  0
 60 48  1  0  0  0  0
M  END
$$$$
