MWN.pdb
 OpenBabel07022418573D

 57 58  0  0  1  0  0  0  0  0999 V2000
   -0.2490    1.4940    5.3630 C   0  0  0  0  0  0  0  0  0  0  0  0
    0.5010   -0.1480    5.4890 S   0  0  0  0  0  0  0  0  0  0  0  0
    1.1190   -0.6960    3.8460 C   0  0  0  0  0  0  0  0  0  0  0  0
    2.2380    0.2050    3.4910 C   0  0  0  0  0  0  0  0  0  0  0  0
    2.9370   -0.0400    2.2000 C   0  0  2  0  0  0  0  0  0  0  0  0
    3.9850    1.0070    2.1250 N   0  0  0  0  0  0  0  0  0  0  0  0
    2.0610    0.1940    1.0140 C   0  0  0  0  0  0  0  0  0  0  0  0
    2.1250    1.2530    0.3490 O   0  0  0  0  0  0  0  0  0  0  0  0
   -0.6160    1.7900    6.3640 H   0  0  0  0  0  0  0  0  0  0  0  0
   -1.1410    1.4820    4.6850 H   0  0  0  0  0  0  0  0  0  0  0  0
    0.4780    2.2660    5.0400 H   0  0  0  0  0  0  0  0  0  0  0  0
    0.2770   -0.6850    3.1200 H   0  0  0  0  0  0  0  0  0  0  0  0
    1.4350   -1.7480    3.9660 H   0  0  0  0  0  0  0  0  0  0  0  0
    3.0220    0.0990    4.2970 H   0  0  0  0  0  0  0  0  0  0  0  0
    1.9000    1.2680    3.5020 H   0  0  0  0  0  0  0  0  0  0  0  0
    3.4640   -0.9940    2.1720 H   0  0  0  0  0  0  0  0  0  0  0  0
    4.5400    0.9010    1.2480 H   0  0  0  0  0  0  0  0  0  0  0  0
    4.5660    0.8860    2.9760 H   0  0  0  0  0  0  0  0  0  0  0  0
    1.1390   -0.7990    0.6320 N   0  0  0  0  0  0  0  0  0  0  0  0
    0.1980   -0.8310   -0.3950 C   0  0  1  0  0  0  0  0  0  0  0  0
   -0.2600    0.4090   -1.0900 C   0  0  0  0  0  0  0  0  0  0  0  0
   -0.9890    1.3890   -0.2670 C   0  0  0  0  0  0  0  0  0  0  0  0
   -0.6640    2.6130    0.2270 C   0  0  0  0  0  0  0  0  0  0  0  0
   -1.7090    3.1500    0.9210 N   0  0  0  0  0  0  0  0  0  0  0  0
   -2.7400    2.2850    0.8920 C   0  0  0  0  0  0  0  0  0  0  0  0
   -4.0090    2.3590    1.4310 C   0  0  0  0  0  0  0  0  0  0  0  0
   -4.8990    1.3290    1.2520 C   0  0  0  0  0  0  0  0  0  0  0  0
   -4.5090    0.2340    0.5330 C   0  0  0  0  0  0  0  0  0  0  0  0
   -3.2300    0.1800    0.0020 C   0  0  0  0  0  0  0  0  0  0  0  0
   -2.3180    1.1940    0.1650 C   0  0  0  0  0  0  0  0  0  0  0  0
    0.2540   -1.9620   -1.3540 C   0  0  0  0  0  0  0  0  0  0  0  0
   -0.6290   -1.9210   -2.2440 O   0  0  0  0  0  0  0  0  0  0  0  0
    1.1840   -1.7030    1.2370 H   0  0  0  0  0  0  0  0  0  0  0  0
   -0.8040   -1.0820    0.2100 H   0  0  0  0  0  0  0  0  0  0  0  0
    0.5650    0.9010   -1.6630 H   0  0  0  0  0  0  0  0  0  0  0  0
   -0.9930    0.1240   -1.9090 H   0  0  0  0  0  0  0  0  0  0  0  0
    0.2950    3.1160    0.0830 H   0  0  0  0  0  0  0  0  0  0  0  0
   -1.6990    4.0710    1.3890 H   0  0  0  0  0  0  0  0  0  0  0  0
   -4.3060    3.2240    1.9930 H   0  0  0  0  0  0  0  0  0  0  0  0
   -5.9150    1.3970    1.6880 H   0  0  0  0  0  0  0  0  0  0  0  0
   -5.1640   -0.5860    0.3690 H   0  0  0  0  0  0  0  0  0  0  0  0
   -2.9440   -0.6920   -0.5760 H   0  0  0  0  0  0  0  0  0  0  0  0
   -2.3510   -4.4610   -3.1810 N   0  0  0  0  0  0  0  0  0  0  0  0
   -1.1210   -4.4610   -2.5050 C   0  0  0  0  0  0  0  0  0  0  0  0
   -1.1500   -4.6640   -1.2450 O   0  0  0  0  0  0  0  0  0  0  0  0
    0.1780   -4.2400   -3.1790 C   0  0  0  0  0  0  0  0  0  0  0  0
    1.2920   -4.1060   -2.1430 C   0  0  2  0  0  0  0  0  0  0  0  0
    1.2030   -2.9890   -1.2800 N   0  0  0  0  0  0  0  0  0  0  0  0
    2.5850   -4.3930   -2.7490 C   0  0  0  0  0  0  0  0  0  0  0  0
    2.7560   -5.3680   -3.5240 O   0  0  0  0  0  0  0  0  0  0  0  0
    3.6910   -3.5920   -2.4910 O   0  0  0  0  0  0  0  0  0  0  0  0
   -2.5820   -5.0010   -4.0370 H   0  0  0  0  0  0  0  0  0  0  0  0
   -3.1190   -3.8480   -2.7750 H   0  0  0  0  0  0  0  0  0  0  0  0
    0.4180   -5.1510   -3.7630 H   0  0  0  0  0  0  0  0  0  0  0  0
    0.1640   -3.4000   -3.8920 H   0  0  0  0  0  0  0  0  0  0  0  0
    0.9790   -4.9990   -1.4430 H   0  0  0  0  0  0  0  0  0  0  0  0
    1.9150   -2.8700   -0.4670 H   0  0  0  0  0  0  0  0  0  0  0  0
  1  2  1  0  0  0  0
  1  9  1  0  0  0  0
  3 13  1  0  0  0  0
  3  2  1  0  0  0  0
  4 15  1  0  0  0  0
  4  3  1  0  0  0  0
  4 14  1  0  0  0  0
  5 16  1  6  0  0  0
  5  4  1  0  0  0  0
  6  5  1  0  0  0  0
  6 18  1  0  0  0  0
  7  5  1  0  0  0  0
  8  7  2  0  0  0  0
 10  1  1  0  0  0  0
 11  1  1  0  0  0  0
 12  3  1  0  0  0  0
 17  6  1  0  0  0  0
 19  7  1  0  0  0  0
 19 33  1  0  0  0  0
 20 34  1  1  0  0  0
 20 19  1  0  0  0  0
 21 20  1  0  0  0  0
 21 22  1  0  0  0  0
 22 30  1  0  0  0  0
 22 23  2  0  0  0  0
 23 24  1  0  0  0  0
 24 38  1  0  0  0  0
 25 24  1  0  0  0  0
 25 26  1  0  0  0  0
 26 39  1  0  0  0  0
 27 26  2  0  0  0  0
 27 40  1  0  0  0  0
 28 27  1  0  0  0  0
 29 30  1  0  0  0  0
 29 28  2  0  0  0  0
 30 25  2  0  0  0  0
 31 48  1  0  0  0  0
 31 20  1  0  0  0  0
 32 31  2  0  0  0  0
 35 21  1  0  0  0  0
 36 21  1  0  0  0  0
 37 23  1  0  0  0  0
 41 28  1  0  0  0  0
 42 29  1  0  0  0  0
 43 53  1  0  0  0  0
 43 44  1  0  0  0  0
 44 45  2  0  0  0  0
 46 44  1  0  0  0  0
 46 47  1  0  0  0  0
 47 56  1  1  0  0  0
 47 48  1  0  0  0  0
 48 57  1  0  0  0  0
 49 51  1  0  0  0  0
 49 47  1  0  0  0  0
 50 49  2  0  0  0  0
 52 43  1  0  0  0  0
 54 46  1  0  0  0  0
 55 46  1  0  0  0  0
M  END
$$$$
