MWP.pdb
 OpenBabel07022418573D

 57 59  0  0  1  0  0  0  0  0999 V2000
   -1.9740   -0.9770    5.0000 C   0  0  0  0  0  0  0  0  0  0  0  0
   -0.3640   -1.3780    5.6460 S   0  0  0  0  0  0  0  0  0  0  0  0
    0.9990   -1.3810    4.5370 C   0  0  0  0  0  0  0  0  0  0  0  0
    1.5070   -0.0680    4.0810 C   0  0  0  0  0  0  0  0  0  0  0  0
    0.6430    0.8690    3.3450 C   0  0  2  0  0  0  0  0  0  0  0  0
   -0.5100    1.3480    4.0380 N   0  0  0  0  0  0  0  0  0  0  0  0
    0.1700    0.2350    2.0610 C   0  0  0  0  0  0  0  0  0  0  0  0
   -1.0200    0.2910    1.6670 O   0  0  0  0  0  0  0  0  0  0  0  0
   -2.0250   -0.8590    3.9150 H   0  0  0  0  0  0  0  0  0  0  0  0
   -2.3500   -0.0570    5.4950 H   0  0  0  0  0  0  0  0  0  0  0  0
   -2.7470   -1.7620    5.2960 H   0  0  0  0  0  0  0  0  0  0  0  0
    0.8580   -2.0910    3.6610 H   0  0  0  0  0  0  0  0  0  0  0  0
    1.8760   -1.8650    5.0800 H   0  0  0  0  0  0  0  0  0  0  0  0
    1.8620    0.4770    5.0250 H   0  0  0  0  0  0  0  0  0  0  0  0
    2.4380   -0.2510    3.4450 H   0  0  0  0  0  0  0  0  0  0  0  0
    1.3120    1.7360    3.0240 H   0  0  0  0  0  0  0  0  0  0  0  0
   -0.1770    1.8530    4.8940 H   0  0  0  0  0  0  0  0  0  0  0  0
   -1.0460    1.9890    3.4170 H   0  0  0  0  0  0  0  0  0  0  0  0
    1.0580   -0.4600    1.2360 N   0  0  0  0  0  0  0  0  0  0  0  0
    0.5840   -1.0880   -0.0280 C   0  0  1  0  0  0  0  0  0  0  0  0
    1.2630   -0.2650   -1.0980 C   0  0  0  0  0  0  0  0  0  0  0  0
    0.8390    1.1850   -0.9240 C   0  0  0  0  0  0  0  0  0  0  0  0
    1.5870    2.2140   -0.4510 C   0  0  0  0  0  0  0  0  0  0  0  0
    0.8270    3.3240   -0.4640 N   0  0  0  0  0  0  0  0  0  0  0  0
   -0.4170    3.0420   -0.9400 C   0  0  0  0  0  0  0  0  0  0  0  0
   -1.5340    3.8480   -1.1280 C   0  0  0  0  0  0  0  0  0  0  0  0
   -2.6980    3.3030   -1.6260 C   0  0  0  0  0  0  0  0  0  0  0  0
   -2.6700    1.9530   -1.9120 C   0  0  0  0  0  0  0  0  0  0  0  0
   -1.5680    1.1500   -1.7280 C   0  0  0  0  0  0  0  0  0  0  0  0
   -0.4000    1.6970   -1.2270 C   0  0  0  0  0  0  0  0  0  0  0  0
    0.9540   -2.4880    0.0470 C   0  0  0  0  0  0  0  0  0  0  0  0
    1.5420   -2.9170    1.1310 O   0  0  0  0  0  0  0  0  0  0  0  0
    2.0610   -0.5640    1.4630 H   0  0  0  0  0  0  0  0  0  0  0  0
   -0.4880   -0.9560   -0.1340 H   0  0  0  0  0  0  0  0  0  0  0  0
    2.3670   -0.2560   -1.0050 H   0  0  0  0  0  0  0  0  0  0  0  0
    0.9830   -0.4990   -2.1110 H   0  0  0  0  0  0  0  0  0  0  0  0
    2.6210    2.1310   -0.1260 H   0  0  0  0  0  0  0  0  0  0  0  0
    1.1010    4.3000   -0.1590 H   0  0  0  0  0  0  0  0  0  0  0  0
   -1.5130    4.9050   -0.8940 H   0  0  0  0  0  0  0  0  0  0  0  0
   -3.6160    3.8680   -1.7990 H   0  0  0  0  0  0  0  0  0  0  0  0
   -3.5710    1.4790   -2.3070 H   0  0  0  0  0  0  0  0  0  0  0  0
   -1.5630    0.1030   -1.9580 H   0  0  0  0  0  0  0  0  0  0  0  0
    0.7770   -3.5300   -0.9110 N   0  0  0  0  0  0  0  0  0  0  0  0
    1.2020   -4.8920   -0.7060 C   0  0  0  0  0  0  0  0  0  0  0  0
    0.4860   -5.6970   -1.7520 C   0  0  0  0  0  0  0  0  0  0  0  0
    0.2310   -4.7250   -2.8730 C   0  0  0  0  0  0  0  0  0  0  0  0
    0.2000   -3.3820   -2.1870 C   0  0  1  0  0  0  0  0  0  0  0  0
   -1.1790   -2.8220   -2.2300 C   0  0  0  0  0  0  0  0  0  0  0  0
   -1.9010   -2.9000   -1.2140 O   0  0  0  0  0  0  0  0  0  0  0  0
   -1.6340   -2.2280   -3.3740 O   0  0  0  0  0  0  0  0  0  0  0  0
    1.0170   -5.2590    0.3290 H   0  0  0  0  0  0  0  0  0  0  0  0
    2.2980   -4.9820   -0.9590 H   0  0  0  0  0  0  0  0  0  0  0  0
   -0.4660   -6.0430   -1.2910 H   0  0  0  0  0  0  0  0  0  0  0  0
    1.0720   -6.5470   -2.1570 H   0  0  0  0  0  0  0  0  0  0  0  0
   -0.8150   -4.9130   -3.2580 H   0  0  0  0  0  0  0  0  0  0  0  0
    0.9420   -4.7720   -3.7060 H   0  0  0  0  0  0  0  0  0  0  0  0
    0.8510   -2.7070   -2.8460 H   0  0  0  0  0  0  0  0  0  0  0  0
  1 11  1  0  0  0  0
  1 10  1  0  0  0  0
  1  2  1  0  0  0  0
  3 13  1  0  0  0  0
  3  2  1  0  0  0  0
  4  3  1  0  0  0  0
  4 14  1  0  0  0  0
  5 16  1  6  0  0  0
  5  6  1  0  0  0  0
  5  4  1  0  0  0  0
  6 17  1  0  0  0  0
  7  5  1  0  0  0  0
  8  7  2  0  0  0  0
  9  1  1  0  0  0  0
 12  3  1  0  0  0  0
 15  4  1  0  0  0  0
 18  6  1  0  0  0  0
 19 33  1  0  0  0  0
 19  7  1  0  0  0  0
 20 34  1  6  0  0  0
 20 31  1  0  0  0  0
 20 19  1  0  0  0  0
 21 35  1  0  0  0  0
 21 22  1  0  0  0  0
 21 20  1  0  0  0  0
 22 23  2  0  0  0  0
 23 37  1  0  0  0  0
 24 23  1  0  0  0  0
 24 38  1  0  0  0  0
 25 24  1  0  0  0  0
 26 25  1  0  0  0  0
 26 39  1  0  0  0  0
 27 26  2  0  0  0  0
 28 29  2  0  0  0  0
 28 27  1  0  0  0  0
 29 30  1  0  0  0  0
 30 25  2  0  0  0  0
 30 22  1  0  0  0  0
 31 32  2  0  0  0  0
 36 21  1  0  0  0  0
 40 27  1  0  0  0  0
 41 28  1  0  0  0  0
 42 29  1  0  0  0  0
 43 44  1  0  0  0  0
 43 31  1  0  0  0  0
 44 51  1  0  0  0  0
 45 53  1  0  0  0  0
 45 44  1  0  0  0  0
 46 47  1  0  0  0  0
 46 45  1  0  0  0  0
 47 57  1  6  0  0  0
 47 43  1  0  0  0  0
 48 47  1  0  0  0  0
 48 49  1  0  0  0  0
 50 48  2  0  0  0  0
 52 44  1  0  0  0  0
 54 45  1  0  0  0  0
 55 46  1  0  0  0  0
 56 46  1  0  0  0  0
M  END
$$$$
