MWT.pdb
 OpenBabel07022418573D

 57 58  0  0  1  0  0  0  0  0999 V2000
   -0.4520   -1.9410    5.0530 C   0  0  0  0  0  0  0  0  0  0  0  0
    0.6840   -1.0170    4.0120 S   0  0  0  0  0  0  0  0  0  0  0  0
    2.2040   -0.5930    4.8960 C   0  0  0  0  0  0  0  0  0  0  0  0
    3.1680    0.2010    4.0780 C   0  0  0  0  0  0  0  0  0  0  0  0
    2.6190    1.5230    3.5850 C   0  0  2  0  0  0  0  0  0  0  0  0
    2.2350    2.3060    4.7180 N   0  0  0  0  0  0  0  0  0  0  0  0
    1.4570    1.2550    2.6830 C   0  0  0  0  0  0  0  0  0  0  0  0
    0.2700    1.5960    3.0120 O   0  0  0  0  0  0  0  0  0  0  0  0
   -1.5050   -1.8740    4.6500 H   0  0  0  0  0  0  0  0  0  0  0  0
   -0.5280   -1.4980    6.0830 H   0  0  0  0  0  0  0  0  0  0  0  0
   -0.2290   -3.0230    5.1240 H   0  0  0  0  0  0  0  0  0  0  0  0
    2.0050   -0.1650    5.8990 H   0  0  0  0  0  0  0  0  0  0  0  0
    2.7190   -1.5800    5.0990 H   0  0  0  0  0  0  0  0  0  0  0  0
    4.0970    0.4300    4.6310 H   0  0  0  0  0  0  0  0  0  0  0  0
    3.4420   -0.4500    3.2000 H   0  0  0  0  0  0  0  0  0  0  0  0
    3.4510    1.9990    3.0150 H   0  0  0  0  0  0  0  0  0  0  0  0
    2.9200    2.1930    5.5170 H   0  0  0  0  0  0  0  0  0  0  0  0
    1.2570    2.1220    5.0190 H   0  0  0  0  0  0  0  0  0  0  0  0
    1.6050    0.6210    1.4340 N   0  0  0  0  0  0  0  0  0  0  0  0
    0.4320    0.3670    0.5600 C   0  0  1  0  0  0  0  0  0  0  0  0
    0.4090    1.3690   -0.5270 C   0  0  0  0  0  0  0  0  0  0  0  0
   -0.6540    1.3530   -1.5240 C   0  0  0  0  0  0  0  0  0  0  0  0
   -1.8620    2.0610   -1.4030 C   0  0  0  0  0  0  0  0  0  0  0  0
   -2.6460    1.8180   -2.4660 N   0  0  0  0  0  0  0  0  0  0  0  0
   -2.0190    0.9620   -3.3220 C   0  0  0  0  0  0  0  0  0  0  0  0
   -2.4000    0.4330   -4.5360 C   0  0  0  0  0  0  0  0  0  0  0  0
   -1.5330   -0.4060   -5.1940 C   0  0  0  0  0  0  0  0  0  0  0  0
   -0.3140   -0.6810   -4.6070 C   0  0  0  0  0  0  0  0  0  0  0  0
    0.0510   -0.1450   -3.3940 C   0  0  0  0  0  0  0  0  0  0  0  0
   -0.7940    0.6910   -2.7200 C   0  0  0  0  0  0  0  0  0  0  0  0
    0.3790   -1.0500    0.3270 C   0  0  0  0  0  0  0  0  0  0  0  0
    1.3180   -1.7840    0.8430 O   0  0  0  0  0  0  0  0  0  0  0  0
    2.5280    0.3140    1.0870 H   0  0  0  0  0  0  0  0  0  0  0  0
   -0.5020    0.6170    1.1910 H   0  0  0  0  0  0  0  0  0  0  0  0
    0.5690    2.4160   -0.1340 H   0  0  0  0  0  0  0  0  0  0  0  0
    1.3840    1.2020   -1.1130 H   0  0  0  0  0  0  0  0  0  0  0  0
   -2.0720    2.6940   -0.5530 H   0  0  0  0  0  0  0  0  0  0  0  0
   -3.5950    2.2270   -2.6070 H   0  0  0  0  0  0  0  0  0  0  0  0
   -3.3470    0.6440   -4.9960 H   0  0  0  0  0  0  0  0  0  0  0  0
   -1.8010   -0.8500   -6.1660 H   0  0  0  0  0  0  0  0  0  0  0  0
    0.3630   -1.3410   -5.1320 H   0  0  0  0  0  0  0  0  0  0  0  0
    1.0180   -0.3640   -2.9280 H   0  0  0  0  0  0  0  0  0  0  0  0
   -2.4550   -3.4890    1.0810 C   0  0  0  0  0  0  0  0  0  0  0  0
   -1.8440   -3.9130   -0.2310 C   0  0  1  0  0  0  0  0  0  0  0  0
   -2.7190   -3.4180   -1.2260 O   0  0  0  0  0  0  0  0  0  0  0  0
   -0.5070   -3.2500   -0.4950 C   0  0  2  0  0  0  0  0  0  0  0  0
   -0.5820   -1.8230   -0.4010 N   0  0  0  0  0  0  0  0  0  0  0  0
    0.1660   -3.8090   -1.6680 C   0  0  0  0  0  0  0  0  0  0  0  0
    0.2220   -5.0820   -1.8000 O   0  0  0  0  0  0  0  0  0  0  0  0
    0.7590   -3.0900   -2.6680 O   0  0  0  0  0  0  0  0  0  0  0  0
   -2.1640   -4.1890    1.8950 H   0  0  0  0  0  0  0  0  0  0  0  0
   -3.5610   -3.4440    0.9660 H   0  0  0  0  0  0  0  0  0  0  0  0
   -2.1110   -2.4500    1.3020 H   0  0  0  0  0  0  0  0  0  0  0  0
   -1.7890   -4.9910   -0.3550 H   0  0  0  0  0  0  0  0  0  0  0  0
   -2.1820   -3.4400   -2.0590 H   0  0  0  0  0  0  0  0  0  0  0  0
    0.1630   -3.5720    0.3810 H   0  0  0  0  0  0  0  0  0  0  0  0
   -1.3550   -1.2970   -0.8510 H   0  0  0  0  0  0  0  0  0  0  0  0
  1 11  1  0  0  0  0
  1 10  1  0  0  0  0
  2  3  1  0  0  0  0
  2  1  1  0  0  0  0
  3 13  1  0  0  0  0
  3 12  1  0  0  0  0
  4 14  1  0  0  0  0
  4  3  1  0  0  0  0
  5 16  1  6  0  0  0
  5  4  1  0  0  0  0
  5  6  1  0  0  0  0
  6 18  1  0  0  0  0
  6 17  1  0  0  0  0
  7  8  2  0  0  0  0
  7  5  1  0  0  0  0
  9  1  1  0  0  0  0
 15  4  1  0  0  0  0
 19  7  1  0  0  0  0
 20 34  1  1  0  0  0
 20 19  1  0  0  0  0
 21 35  1  0  0  0  0
 21 20  1  0  0  0  0
 22 23  2  0  0  0  0
 22 21  1  0  0  0  0
 23 37  1  0  0  0  0
 24 23  1  0  0  0  0
 25 30  1  0  0  0  0
 25 24  1  0  0  0  0
 26 25  2  0  0  0  0
 27 28  2  0  0  0  0
 27 26  1  0  0  0  0
 28 29  1  0  0  0  0
 29 42  1  0  0  0  0
 29 30  2  0  0  0  0
 30 22  1  0  0  0  0
 31 20  1  0  0  0  0
 31 32  2  0  0  0  0
 33 19  1  0  0  0  0
 36 21  1  0  0  0  0
 38 24  1  0  0  0  0
 39 26  1  0  0  0  0
 40 27  1  0  0  0  0
 41 28  1  0  0  0  0
 43 53  1  0  0  0  0
 43 51  1  0  0  0  0
 44 54  1  6  0  0  0
 44 43  1  0  0  0  0
 45 44  1  0  0  0  0
 46 47  1  0  0  0  0
 46 44  1  0  0  0  0
 46 56  1  1  0  0  0
 47 31  1  0  0  0  0
 48 46  1  0  0  0  0
 49 48  1  0  0  0  0
 50 48  2  0  0  0  0
 52 43  1  0  0  0  0
 55 45  1  0  0  0  0
 57 47  1  0  0  0  0
M  END
$$$$
