MWW.pdb
 OpenBabel07022418573D

 67 70  0  0  1  0  0  0  0  0999 V2000
    2.8230    3.7030    4.8060 C   0  0  0  0  0  0  0  0  0  0  0  0
    2.9870    2.2700    5.8700 S   0  0  0  0  0  0  0  0  0  0  0  0
    1.7040    1.0390    5.6570 C   0  0  0  0  0  0  0  0  0  0  0  0
    1.7040    0.3480    4.3420 C   0  0  0  0  0  0  0  0  0  0  0  0
    1.5220    1.2160    3.1470 C   0  0  2  0  0  0  0  0  0  0  0  0
    0.3010    1.9510    3.1170 N   0  0  0  0  0  0  0  0  0  0  0  0
    1.5210    0.2970    1.9470 C   0  0  0  0  0  0  0  0  0  0  0  0
    2.5060   -0.4650    1.7800 O   0  0  0  0  0  0  0  0  0  0  0  0
    1.7800    3.8770    4.4970 H   0  0  0  0  0  0  0  0  0  0  0  0
    3.0870    4.6040    5.4350 H   0  0  0  0  0  0  0  0  0  0  0  0
    3.5510    3.7340    3.9700 H   0  0  0  0  0  0  0  0  0  0  0  0
    0.7360    1.5080    5.9260 H   0  0  0  0  0  0  0  0  0  0  0  0
    1.8730    0.2570    6.4400 H   0  0  0  0  0  0  0  0  0  0  0  0
    0.9870   -0.4860    4.3550 H   0  0  0  0  0  0  0  0  0  0  0  0
    2.7180   -0.1390    4.2340 H   0  0  0  0  0  0  0  0  0  0  0  0
    2.3620    1.9020    2.9800 H   0  0  0  0  0  0  0  0  0  0  0  0
    0.4570    2.8360    2.5860 H   0  0  0  0  0  0  0  0  0  0  0  0
   -0.1050    2.2030    4.0230 H   0  0  0  0  0  0  0  0  0  0  0  0
    0.4640    0.2740    1.0280 N   0  0  0  0  0  0  0  0  0  0  0  0
    0.4040   -0.5850   -0.1290 C   0  0  1  0  0  0  0  0  0  0  0  0
    1.2730   -0.1700   -1.2590 C   0  0  0  0  0  0  0  0  0  0  0  0
    0.9200    1.1830   -1.7490 C   0  0  0  0  0  0  0  0  0  0  0  0
    1.5800    2.3720   -1.5380 C   0  0  0  0  0  0  0  0  0  0  0  0
    0.9210    3.3880   -2.1670 N   0  0  0  0  0  0  0  0  0  0  0  0
   -0.1570    2.8770   -2.7820 C   0  0  0  0  0  0  0  0  0  0  0  0
   -1.1460    3.4500   -3.5440 C   0  0  0  0  0  0  0  0  0  0  0  0
   -2.1700    2.6680   -4.0730 C   0  0  0  0  0  0  0  0  0  0  0  0
   -2.2020    1.2990   -3.8330 C   0  0  0  0  0  0  0  0  0  0  0  0
   -1.1980    0.7450   -3.0650 C   0  0  0  0  0  0  0  0  0  0  0  0
   -0.1670    1.5180   -2.5310 C   0  0  0  0  0  0  0  0  0  0  0  0
    0.6110   -2.0160    0.2850 C   0  0  0  0  0  0  0  0  0  0  0  0
    0.7620   -2.3280    1.4890 O   0  0  0  0  0  0  0  0  0  0  0  0
   -0.3360    0.9550    1.2330 H   0  0  0  0  0  0  0  0  0  0  0  0
   -0.6740   -0.5520   -0.4970 H   0  0  0  0  0  0  0  0  0  0  0  0
    1.0910   -0.8790   -2.1020 H   0  0  0  0  0  0  0  0  0  0  0  0
    2.3490   -0.2280   -1.0350 H   0  0  0  0  0  0  0  0  0  0  0  0
    2.4860    2.5240   -0.9680 H   0  0  0  0  0  0  0  0  0  0  0  0
    1.2180    4.3920   -2.1610 H   0  0  0  0  0  0  0  0  0  0  0  0
   -1.1890    4.5050   -3.7740 H   0  0  0  0  0  0  0  0  0  0  0  0
   -2.9680    3.0990   -4.6810 H   0  0  0  0  0  0  0  0  0  0  0  0
   -3.0060    0.6930   -4.2490 H   0  0  0  0  0  0  0  0  0  0  0  0
   -1.2130   -0.3310   -2.8710 H   0  0  0  0  0  0  0  0  0  0  0  0
    0.6420   -3.0640   -0.6630 N   0  0  0  0  0  0  0  0  0  0  0  0
    0.8330   -4.4490   -0.3500 C   0  0  1  0  0  0  0  0  0  0  0  0
   -0.4540   -5.1920   -0.6360 C   0  0  0  0  0  0  0  0  0  0  0  0
   -1.6090   -4.7470    0.1220 C   0  0  0  0  0  0  0  0  0  0  0  0
   -2.0390   -5.3790    1.2950 C   0  0  0  0  0  0  0  0  0  0  0  0
   -3.1020   -4.7290    1.7880 N   0  0  0  0  0  0  0  0  0  0  0  0
   -3.3960   -3.6730    0.9690 C   0  0  0  0  0  0  0  0  0  0  0  0
   -4.3540   -2.7090    0.9890 C   0  0  0  0  0  0  0  0  0  0  0  0
   -4.4580   -1.7250    0.0190 C   0  0  0  0  0  0  0  0  0  0  0  0
   -3.5260   -1.7540   -1.0050 C   0  0  0  0  0  0  0  0  0  0  0  0
   -2.5470   -2.7180   -1.0490 C   0  0  0  0  0  0  0  0  0  0  0  0
   -2.4700   -3.6880   -0.0610 C   0  0  0  0  0  0  0  0  0  0  0  0
    1.9600   -5.0430   -1.0970 C   0  0  0  0  0  0  0  0  0  0  0  0
    2.6030   -4.3170   -1.8910 O   0  0  0  0  0  0  0  0  0  0  0  0
    2.2740   -6.3670   -0.9070 O   0  0  0  0  0  0  0  0  0  0  0  0
    0.5220   -2.7780   -1.6700 H   0  0  0  0  0  0  0  0  0  0  0  0
    1.0580   -4.6110    0.7330 H   0  0  0  0  0  0  0  0  0  0  0  0
   -0.2480   -6.2820   -0.5500 H   0  0  0  0  0  0  0  0  0  0  0  0
   -0.6630   -5.0140   -1.7320 H   0  0  0  0  0  0  0  0  0  0  0  0
   -1.6180   -6.2560    1.7750 H   0  0  0  0  0  0  0  0  0  0  0  0
   -3.6570   -4.9450    2.6510 H   0  0  0  0  0  0  0  0  0  0  0  0
   -5.0930   -2.6820    1.7940 H   0  0  0  0  0  0  0  0  0  0  0  0
   -5.2270   -0.9620    0.0480 H   0  0  0  0  0  0  0  0  0  0  0  0
   -3.5450   -1.0080   -1.8100 H   0  0  0  0  0  0  0  0  0  0  0  0
   -1.8160   -2.7430   -1.8740 H   0  0  0  0  0  0  0  0  0  0  0  0
  1 10  1  0  0  0  0
  1  2  1  0  0  0  0
  3  2  1  0  0  0  0
  3 12  1  0  0  0  0
  3 13  1  0  0  0  0
  4 14  1  0  0  0  0
  4  3  1  0  0  0  0
  5 16  1  6  0  0  0
  5  4  1  0  0  0  0
  6  5  1  0  0  0  0
  6 18  1  0  0  0  0
  7  5  1  0  0  0  0
  8  7  2  0  0  0  0
  9  1  1  0  0  0  0
 11  1  1  0  0  0  0
 15  4  1  0  0  0  0
 17  6  1  0  0  0  0
 19 33  1  0  0  0  0
 19  7  1  0  0  0  0
 20 34  1  6  0  0  0
 20 31  1  0  0  0  0
 20 19  1  0  0  0  0
 21 36  1  0  0  0  0
 21 20  1  0  0  0  0
 22 23  2  0  0  0  0
 22 21  1  0  0  0  0
 23 37  1  0  0  0  0
 24 38  1  0  0  0  0
 24 23  1  0  0  0  0
 25 30  1  0  0  0  0
 25 24  1  0  0  0  0
 26 25  2  0  0  0  0
 27 28  2  0  0  0  0
 27 26  1  0  0  0  0
 28 29  1  0  0  0  0
 29 42  1  0  0  0  0
 29 30  2  0  0  0  0
 30 22  1  0  0  0  0
 31 32  2  0  0  0  0
 35 21  1  0  0  0  0
 39 26  1  0  0  0  0
 40 27  1  0  0  0  0
 41 28  1  0  0  0  0
 43 44  1  0  0  0  0
 43 31  1  0  0  0  0
 44 59  1  1  0  0  0
 45 60  1  0  0  0  0
 45 44  1  0  0  0  0
 45 46  1  0  0  0  0
 46 47  2  0  0  0  0
 47 62  1  0  0  0  0
 47 48  1  0  0  0  0
 48 63  1  0  0  0  0
 49 50  1  0  0  0  0
 49 48  1  0  0  0  0
 50 64  1  0  0  0  0
 51 65  1  0  0  0  0
 51 50  2  0  0  0  0
 52 51  1  0  0  0  0
 53 52  2  0  0  0  0
 53 54  1  0  0  0  0
 54 46  1  0  0  0  0
 54 49  2  0  0  0  0
 55 57  1  0  0  0  0
 55 44  1  0  0  0  0
 56 55  2  0  0  0  0
 58 43  1  0  0  0  0
 61 45  1  0  0  0  0
 66 52  1  0  0  0  0
 67 53  1  0  0  0  0
M  END
$$$$
