MYA.pdb
 OpenBabel07022418573D

 50 50  0  0  1  0  0  0  0  0999 V2000
    3.4180   -4.6840    1.8790 C   0  0  0  0  0  0  0  0  0  0  0  0
    2.2040   -5.0060    0.6190 S   0  0  0  0  0  0  0  0  0  0  0  0
    1.1120   -3.6930    0.1960 C   0  0  0  0  0  0  0  0  0  0  0  0
    1.6460   -2.5850   -0.6280 C   0  0  0  0  0  0  0  0  0  0  0  0
    2.7700   -1.7710   -0.1200 C   0  0  2  0  0  0  0  0  0  0  0  0
    3.9550   -2.5210    0.1110 N   0  0  0  0  0  0  0  0  0  0  0  0
    2.3300   -1.0180    1.1100 C   0  0  0  0  0  0  0  0  0  0  0  0
    2.9580   -1.0570    2.1720 O   0  0  0  0  0  0  0  0  0  0  0  0
    3.3440   -5.4780    2.7130 H   0  0  0  0  0  0  0  0  0  0  0  0
    4.4800   -4.7560    1.5010 H   0  0  0  0  0  0  0  0  0  0  0  0
    3.3040   -3.7380    2.4250 H   0  0  0  0  0  0  0  0  0  0  0  0
    0.1910   -4.0690   -0.3690 H   0  0  0  0  0  0  0  0  0  0  0  0
    0.6510   -3.2520    1.1580 H   0  0  0  0  0  0  0  0  0  0  0  0
    1.9860   -3.0630   -1.6010 H   0  0  0  0  0  0  0  0  0  0  0  0
    0.7990   -1.9170   -0.9730 H   0  0  0  0  0  0  0  0  0  0  0  0
    2.9490   -0.9430   -0.8800 H   0  0  0  0  0  0  0  0  0  0  0  0
    4.5530   -2.0030    0.7980 H   0  0  0  0  0  0  0  0  0  0  0  0
    4.4840   -2.5980   -0.7850 H   0  0  0  0  0  0  0  0  0  0  0  0
   -1.7590    3.3290   -3.2010 O   0  0  0  0  0  0  0  0  0  0  0  0
   -1.1380    3.0020   -2.0010 C   0  0  0  0  0  0  0  0  0  0  0  0
   -1.7750    3.1310   -0.7830 C   0  0  0  0  0  0  0  0  0  0  0  0
   -1.1630    2.8080    0.4090 C   0  0  0  0  0  0  0  0  0  0  0  0
    0.1320    2.3360    0.4330 C   0  0  0  0  0  0  0  0  0  0  0  0
    0.8150    1.9800    1.7100 C   0  0  0  0  0  0  0  0  0  0  0  0
    0.5940    0.5270    2.0830 C   0  0  2  0  0  0  0  0  0  0  0  0
    1.1430   -0.2530    0.9820 N   0  0  0  0  0  0  0  0  0  0  0  0
   -0.8090    0.2160    2.3510 C   0  0  0  0  0  0  0  0  0  0  0  0
   -1.3640    0.8450    3.3060 O   0  0  0  0  0  0  0  0  0  0  0  0
    0.7820    2.2020   -0.7740 C   0  0  0  0  0  0  0  0  0  0  0  0
    0.1580    2.5280   -1.9570 C   0  0  0  0  0  0  0  0  0  0  0  0
   -2.6870    2.9490   -3.3660 H   0  0  0  0  0  0  0  0  0  0  0  0
   -2.8030    3.5050   -0.7960 H   0  0  0  0  0  0  0  0  0  0  0  0
   -1.6750    2.9140    1.3610 H   0  0  0  0  0  0  0  0  0  0  0  0
    1.8940    2.1800    1.5550 H   0  0  0  0  0  0  0  0  0  0  0  0
    0.4740    2.6730    2.5070 H   0  0  0  0  0  0  0  0  0  0  0  0
    1.2600    0.3510    2.9570 H   0  0  0  0  0  0  0  0  0  0  0  0
    0.5800   -0.1960    0.0890 H   0  0  0  0  0  0  0  0  0  0  0  0
    1.8060    1.8290   -0.7760 H   0  0  0  0  0  0  0  0  0  0  0  0
    0.6820    2.4170   -2.9060 H   0  0  0  0  0  0  0  0  0  0  0  0
   -3.9360   -0.6750    0.8370 C   0  0  0  0  0  0  0  0  0  0  0  0
   -3.0070   -0.9620    1.9900 C   0  0  2  0  0  0  0  0  0  0  0  0
   -1.6200   -0.7130    1.6600 N   0  0  0  0  0  0  0  0  0  0  0  0
   -3.1720   -2.3930    2.3430 C   0  0  0  0  0  0  0  0  0  0  0  0
   -2.1860   -3.1750    2.3250 O   0  0  0  0  0  0  0  0  0  0  0  0
   -4.3920   -2.9420    2.7050 O   0  0  0  0  0  0  0  0  0  0  0  0
   -4.8600   -1.2800    1.0030 H   0  0  0  0  0  0  0  0  0  0  0  0
   -3.5290   -0.9950   -0.1370 H   0  0  0  0  0  0  0  0  0  0  0  0
   -4.2660    0.3780    0.7970 H   0  0  0  0  0  0  0  0  0  0  0  0
   -3.3530   -0.3630    2.8460 H   0  0  0  0  0  0  0  0  0  0  0  0
   -1.1700   -1.2320    0.8740 H   0  0  0  0  0  0  0  0  0  0  0  0
  1 11  1  0  0  0  0
  1  9  1  0  0  0  0
  2  1  1  0  0  0  0
  3  2  1  0  0  0  0
  3 13  1  0  0  0  0
  4  5  1  0  0  0  0
  4  3  1  0  0  0  0
  5 16  1  6  0  0  0
  5  6  1  0  0  0  0
  5  7  1  0  0  0  0
  6 17  1  0  0  0  0
  7  8  2  0  0  0  0
 10  1  1  0  0  0  0
 12  3  1  0  0  0  0
 14  4  1  0  0  0  0
 15  4  1  0  0  0  0
 18  6  1  0  0  0  0
 19 20  1  0  0  0  0
 20 30  2  0  0  0  0
 20 21  1  0  0  0  0
 21 22  2  0  0  0  0
 22 23  1  0  0  0  0
 22 33  1  0  0  0  0
 23 24  1  0  0  0  0
 24 25  1  0  0  0  0
 24 35  1  0  0  0  0
 25 27  1  0  0  0  0
 25 36  1  1  0  0  0
 26  7  1  0  0  0  0
 26 25  1  0  0  0  0
 27 28  2  0  0  0  0
 29 23  2  0  0  0  0
 30 29  1  0  0  0  0
 31 19  1  0  0  0  0
 32 21  1  0  0  0  0
 34 24  1  0  0  0  0
 37 26  1  0  0  0  0
 38 29  1  0  0  0  0
 39 30  1  0  0  0  0
 40 46  1  0  0  0  0
 40 41  1  0  0  0  0
 41 43  1  0  0  0  0
 41 49  1  1  0  0  0
 42 41  1  0  0  0  0
 42 27  1  0  0  0  0
 43 45  1  0  0  0  0
 44 43  2  0  0  0  0
 47 40  1  0  0  0  0
 48 40  1  0  0  0  0
 50 42  1  0  0  0  0
M  END
$$$$
