MYD.pdb
 OpenBabel07022418573D

 53 53  0  0  1  0  0  0  0  0999 V2000
   -1.7080   -0.3240    5.5290 C   0  0  0  0  0  0  0  0  0  0  0  0
   -0.5500   -1.6500    5.2200 S   0  0  0  0  0  0  0  0  0  0  0  0
    0.1730   -1.7000    3.6130 C   0  0  0  0  0  0  0  0  0  0  0  0
    1.2340   -0.7410    3.2370 C   0  0  0  0  0  0  0  0  0  0  0  0
    0.9380    0.6970    3.2520 C   0  0  2  0  0  0  0  0  0  0  0  0
    0.5780    1.1550    4.5580 N   0  0  0  0  0  0  0  0  0  0  0  0
   -0.0910    1.1170    2.2690 C   0  0  0  0  0  0  0  0  0  0  0  0
   -1.0410    1.8390    2.6470 O   0  0  0  0  0  0  0  0  0  0  0  0
   -1.3150    0.3760    6.2910 H   0  0  0  0  0  0  0  0  0  0  0  0
   -1.9670    0.2470    4.6260 H   0  0  0  0  0  0  0  0  0  0  0  0
   -2.7060   -0.7430    5.8950 H   0  0  0  0  0  0  0  0  0  0  0  0
    0.5180   -2.7510    3.3300 H   0  0  0  0  0  0  0  0  0  0  0  0
   -0.6690   -1.5250    2.8680 H   0  0  0  0  0  0  0  0  0  0  0  0
    1.6300   -1.0690    2.2250 H   0  0  0  0  0  0  0  0  0  0  0  0
    2.1330   -0.9300    3.9290 H   0  0  0  0  0  0  0  0  0  0  0  0
    1.9290    1.2210    2.9810 H   0  0  0  0  0  0  0  0  0  0  0  0
    0.4440    2.1670    4.6570 H   0  0  0  0  0  0  0  0  0  0  0  0
    1.1860    0.7740    5.3120 H   0  0  0  0  0  0  0  0  0  0  0  0
    3.6430   -0.8350   -3.9430 O   0  0  0  0  0  0  0  0  0  0  0  0
    2.6340   -0.1470   -3.2670 C   0  0  0  0  0  0  0  0  0  0  0  0
    2.8900    0.6180   -2.1430 C   0  0  0  0  0  0  0  0  0  0  0  0
    1.9140    1.3010   -1.4650 C   0  0  0  0  0  0  0  0  0  0  0  0
    0.5980    1.2450   -1.8970 C   0  0  0  0  0  0  0  0  0  0  0  0
   -0.4480    1.9880   -1.1560 C   0  0  0  0  0  0  0  0  0  0  0  0
   -1.0620    1.1470   -0.0570 C   0  0  2  0  0  0  0  0  0  0  0  0
   -0.0550    0.7350    0.9000 N   0  0  0  0  0  0  0  0  0  0  0  0
   -1.7410   -0.0340   -0.6640 C   0  0  0  0  0  0  0  0  0  0  0  0
   -2.6510    0.0870   -1.5220 O   0  0  0  0  0  0  0  0  0  0  0  0
    0.3340    0.4850   -3.0170 C   0  0  0  0  0  0  0  0  0  0  0  0
    1.3240   -0.2010   -3.6960 C   0  0  0  0  0  0  0  0  0  0  0  0
    4.0700   -0.4740   -4.7970 H   0  0  0  0  0  0  0  0  0  0  0  0
    3.9220    0.6600   -1.8060 H   0  0  0  0  0  0  0  0  0  0  0  0
    2.1320    1.9050   -0.5720 H   0  0  0  0  0  0  0  0  0  0  0  0
   -0.0360    2.9270   -0.7480 H   0  0  0  0  0  0  0  0  0  0  0  0
   -1.2660    2.2630   -1.8520 H   0  0  0  0  0  0  0  0  0  0  0  0
   -1.7940    1.7740    0.4900 H   0  0  0  0  0  0  0  0  0  0  0  0
    0.7430    0.1220    0.5540 H   0  0  0  0  0  0  0  0  0  0  0  0
   -0.6650    0.4100   -3.3910 H   0  0  0  0  0  0  0  0  0  0  0  0
    1.1170   -0.7990   -4.5760 H   0  0  0  0  0  0  0  0  0  0  0  0
   -1.3200   -1.3470   -0.2370 N   0  0  0  0  0  0  0  0  0  0  0  0
   -1.9880   -2.4860   -0.8350 C   0  0  1  0  0  0  0  0  0  0  0  0
   -1.0430   -3.3760   -1.5970 C   0  0  0  0  0  0  0  0  0  0  0  0
    0.0340   -3.9470   -0.7580 C   0  0  0  0  0  0  0  0  0  0  0  0
    0.0590   -3.6670    0.4560 O   0  0  0  0  0  0  0  0  0  0  0  0
   -2.7400   -3.2590    0.2020 C   0  0  0  0  0  0  0  0  0  0  0  0
   -2.7030   -2.8530    1.3850 O   0  0  0  0  0  0  0  0  0  0  0  0
    1.0060   -4.7710   -1.2660 O   0  0  0  0  0  0  0  0  0  0  0  0
   -3.4640   -4.3970   -0.1190 O   0  0  0  0  0  0  0  0  0  0  0  0
   -0.5670   -1.4360    0.4740 H   0  0  0  0  0  0  0  0  0  0  0  0
   -2.7580   -2.1560   -1.5630 H   0  0  0  0  0  0  0  0  0  0  0  0
   -1.6610   -4.1900   -2.0530 H   0  0  0  0  0  0  0  0  0  0  0  0
   -0.5470   -2.7940   -2.3990 H   0  0  0  0  0  0  0  0  0  0  0  0
    1.4420   -5.4420   -0.6340 H   0  0  0  0  0  0  0  0  0  0  0  0
  1 11  1  0  0  0  0
  1  9  1  0  0  0  0
  2  1  1  0  0  0  0
  3  2  1  0  0  0  0
  4  5  1  0  0  0  0
  4  3  1  0  0  0  0
  4 15  1  0  0  0  0
  5 16  1  6  0  0  0
  5  6  1  0  0  0  0
  6 17  1  0  0  0  0
  6 18  1  0  0  0  0
  7  8  2  0  0  0  0
  7  5  1  0  0  0  0
 10  1  1  0  0  0  0
 12  3  1  0  0  0  0
 13  3  1  0  0  0  0
 14  4  1  0  0  0  0
 19 20  1  0  0  0  0
 20 21  1  0  0  0  0
 21 32  1  0  0  0  0
 21 22  2  0  0  0  0
 22 33  1  0  0  0  0
 23 22  1  0  0  0  0
 23 24  1  0  0  0  0
 24 34  1  0  0  0  0
 24 25  1  0  0  0  0
 25 36  1  1  0  0  0
 25 26  1  0  0  0  0
 26  7  1  0  0  0  0
 27 40  1  0  0  0  0
 27 25  1  0  0  0  0
 28 27  2  0  0  0  0
 29 23  2  0  0  0  0
 30 20  2  0  0  0  0
 30 29  1  0  0  0  0
 31 19  1  0  0  0  0
 35 24  1  0  0  0  0
 37 26  1  0  0  0  0
 38 29  1  0  0  0  0
 39 30  1  0  0  0  0
 40 49  1  0  0  0  0
 41 50  1  6  0  0  0
 41 40  1  0  0  0  0
 41 45  1  0  0  0  0
 42 41  1  0  0  0  0
 42 43  1  0  0  0  0
 43 44  2  0  0  0  0
 45 46  1  0  0  0  0
 47 43  1  0  0  0  0
 47 53  1  0  0  0  0
 48 45  2  0  0  0  0
 51 42  1  0  0  0  0
 52 42  1  0  0  0  0
M  END
$$$$
