MYE.pdb
 OpenBabel07022418573D

 56 56  0  0  1  0  0  0  0  0999 V2000
    1.5440   -0.2610    5.9480 C   0  0  0  0  0  0  0  0  0  0  0  0
    2.6790   -1.3760    5.0970 S   0  0  0  0  0  0  0  0  0  0  0  0
    2.3250   -1.4740    3.3800 C   0  0  0  0  0  0  0  0  0  0  0  0
    2.6250   -0.3730    2.4710 C   0  0  0  0  0  0  0  0  0  0  0  0
    2.0640    0.9690    2.6530 C   0  0  2  0  0  0  0  0  0  0  0  0
    2.4270    1.6350    3.8990 N   0  0  0  0  0  0  0  0  0  0  0  0
    0.6040    1.0970    2.4090 C   0  0  0  0  0  0  0  0  0  0  0  0
   -0.1320    1.6410    3.2680 O   0  0  0  0  0  0  0  0  0  0  0  0
    0.7190   -0.0140    5.2490 H   0  0  0  0  0  0  0  0  0  0  0  0
    1.0060   -0.8410    6.7800 H   0  0  0  0  0  0  0  0  0  0  0  0
    2.0210    0.6230    6.3970 H   0  0  0  0  0  0  0  0  0  0  0  0
    1.2120   -1.7200    3.2710 H   0  0  0  0  0  0  0  0  0  0  0  0
    2.7880   -2.4430    2.9770 H   0  0  0  0  0  0  0  0  0  0  0  0
    2.4080   -0.6930    1.3960 H   0  0  0  0  0  0  0  0  0  0  0  0
    3.7550   -0.2460    2.4330 H   0  0  0  0  0  0  0  0  0  0  0  0
    2.5380    1.6250    1.8560 H   0  0  0  0  0  0  0  0  0  0  0  0
    3.4290    1.5820    4.0910 H   0  0  0  0  0  0  0  0  0  0  0  0
    2.2040    2.6700    3.7860 H   0  0  0  0  0  0  0  0  0  0  0  0
    0.3260    0.5710   -5.0970 O   0  0  0  0  0  0  0  0  0  0  0  0
   -0.1700    0.8930   -3.8410 C   0  0  0  0  0  0  0  0  0  0  0  0
    0.5650    1.5660   -2.8920 C   0  0  0  0  0  0  0  0  0  0  0  0
    0.0580    1.8780   -1.6500 C   0  0  0  0  0  0  0  0  0  0  0  0
   -1.2230    1.5250   -1.3000 C   0  0  0  0  0  0  0  0  0  0  0  0
   -1.7650    1.8750    0.0420 C   0  0  0  0  0  0  0  0  0  0  0  0
   -1.4660    0.7980    1.0800 C   0  0  2  0  0  0  0  0  0  0  0  0
   -0.0190    0.6230    1.2210 N   0  0  0  0  0  0  0  0  0  0  0  0
   -2.1250   -0.4760    0.6880 C   0  0  0  0  0  0  0  0  0  0  0  0
   -3.3950   -0.5110    0.5870 O   0  0  0  0  0  0  0  0  0  0  0  0
   -1.9880    0.8510   -2.2250 C   0  0  0  0  0  0  0  0  0  0  0  0
   -1.4660    0.5470   -3.4620 C   0  0  0  0  0  0  0  0  0  0  0  0
    1.2430    0.0960   -5.1080 H   0  0  0  0  0  0  0  0  0  0  0  0
    1.5900    1.8470   -3.1700 H   0  0  0  0  0  0  0  0  0  0  0  0
    0.6920    2.4190   -0.9250 H   0  0  0  0  0  0  0  0  0  0  0  0
   -2.8600    1.9660   -0.0350 H   0  0  0  0  0  0  0  0  0  0  0  0
   -1.3420    2.8100    0.4220 H   0  0  0  0  0  0  0  0  0  0  0  0
   -1.8860    1.1810    2.0190 H   0  0  0  0  0  0  0  0  0  0  0  0
    0.5380    0.1610    0.4650 H   0  0  0  0  0  0  0  0  0  0  0  0
   -3.0070    0.5700   -1.9450 H   0  0  0  0  0  0  0  0  0  0  0  0
   -2.0800    0.0180   -4.1810 H   0  0  0  0  0  0  0  0  0  0  0  0
   -1.4130   -1.6780    0.4110 N   0  0  0  0  0  0  0  0  0  0  0  0
   -2.0600   -2.8940    0.0340 C   0  0  1  0  0  0  0  0  0  0  0  0
   -1.8480   -3.2860   -1.4020 C   0  0  0  0  0  0  0  0  0  0  0  0
   -0.4320   -3.5180   -1.8030 C   0  0  0  0  0  0  0  0  0  0  0  0
   -0.4520   -3.8780   -3.2600 C   0  0  0  0  0  0  0  0  0  0  0  0
   -1.0830   -3.1450   -4.0880 O   0  0  0  0  0  0  0  0  0  0  0  0
   -1.7350   -3.9820    0.9700 C   0  0  0  0  0  0  0  0  0  0  0  0
   -0.9930   -3.8320    1.9680 O   0  0  0  0  0  0  0  0  0  0  0  0
    0.1880   -4.9970   -3.7860 O   0  0  0  0  0  0  0  0  0  0  0  0
   -2.2580   -5.2700    0.7780 O   0  0  0  0  0  0  0  0  0  0  0  0
   -0.3800   -1.6480    0.4900 H   0  0  0  0  0  0  0  0  0  0  0  0
   -3.1730   -2.7060    0.1200 H   0  0  0  0  0  0  0  0  0  0  0  0
   -2.3690   -4.2840   -1.5180 H   0  0  0  0  0  0  0  0  0  0  0  0
   -2.3520   -2.5990   -2.1050 H   0  0  0  0  0  0  0  0  0  0  0  0
    0.0570   -4.3400   -1.2820 H   0  0  0  0  0  0  0  0  0  0  0  0
    0.1580   -2.5660   -1.7540 H   0  0  0  0  0  0  0  0  0  0  0  0
   -0.2600   -5.4820   -4.5560 H   0  0  0  0  0  0  0  0  0  0  0  0
  1 11  1  0  0  0  0
  1 10  1  0  0  0  0
  2  1  1  0  0  0  0
  3  2  1  0  0  0  0
  4  5  1  0  0  0  0
  4  3  1  0  0  0  0
  5 16  1  6  0  0  0
  5  6  1  0  0  0  0
  6 17  1  0  0  0  0
  7  5  1  0  0  0  0
  7  8  2  0  0  0  0
  9  1  1  0  0  0  0
 12  3  1  0  0  0  0
 13  3  1  0  0  0  0
 14  4  1  0  0  0  0
 15  4  1  0  0  0  0
 18  6  1  0  0  0  0
 19 20  1  0  0  0  0
 20 30  2  0  0  0  0
 20 21  1  0  0  0  0
 21 22  2  0  0  0  0
 22 23  1  0  0  0  0
 22 33  1  0  0  0  0
 23 24  1  0  0  0  0
 24 35  1  0  0  0  0
 24 25  1  0  0  0  0
 25 26  1  0  0  0  0
 25 36  1  1  0  0  0
 26  7  1  0  0  0  0
 27 25  1  0  0  0  0
 28 27  2  0  0  0  0
 29 38  1  0  0  0  0
 29 23  2  0  0  0  0
 30 29  1  0  0  0  0
 31 19  1  0  0  0  0
 32 21  1  0  0  0  0
 34 24  1  0  0  0  0
 37 26  1  0  0  0  0
 39 30  1  0  0  0  0
 40 50  1  0  0  0  0
 40 27  1  0  0  0  0
 41 51  1  1  0  0  0
 41 40  1  0  0  0  0
 41 46  1  0  0  0  0
 42 41  1  0  0  0  0
 43 55  1  0  0  0  0
 43 42  1  0  0  0  0
 43 54  1  0  0  0  0
 44 43  1  0  0  0  0
 45 44  2  0  0  0  0
 46 47  1  0  0  0  0
 48 44  1  0  0  0  0
 49 46  2  0  0  0  0
 52 42  1  0  0  0  0
 53 42  1  0  0  0  0
 56 48  1  0  0  0  0
M  END
$$$$
