MYG.pdb
 OpenBabel07022418573D

 47 47  0  0  1  0  0  0  0  0999 V2000
    2.8370   -4.0550    3.9210 C   0  0  0  0  0  0  0  0  0  0  0  0
    2.7880   -3.4980    2.2090 S   0  0  0  0  0  0  0  0  0  0  0  0
    1.0840   -3.3700    1.5980 C   0  0  0  0  0  0  0  0  0  0  0  0
    1.0140   -2.9110    0.1830 C   0  0  0  0  0  0  0  0  0  0  0  0
    1.6250   -1.5530   -0.0460 C   0  0  2  0  0  0  0  0  0  0  0  0
    3.0240   -1.6130    0.3350 N   0  0  0  0  0  0  0  0  0  0  0  0
    0.9100   -0.4710    0.6420 C   0  0  0  0  0  0  0  0  0  0  0  0
    1.4350    0.3210    1.4680 O   0  0  0  0  0  0  0  0  0  0  0  0
    1.9470   -4.6910    4.1030 H   0  0  0  0  0  0  0  0  0  0  0  0
    3.7820   -4.6060    4.1120 H   0  0  0  0  0  0  0  0  0  0  0  0
    2.8280   -3.1560    4.5860 H   0  0  0  0  0  0  0  0  0  0  0  0
    0.4510   -2.7460    2.2520 H   0  0  0  0  0  0  0  0  0  0  0  0
    0.6620   -4.3960    1.6420 H   0  0  0  0  0  0  0  0  0  0  0  0
   -0.0650   -2.9210   -0.1110 H   0  0  0  0  0  0  0  0  0  0  0  0
    1.5000   -3.6700   -0.4620 H   0  0  0  0  0  0  0  0  0  0  0  0
    1.6180   -1.3920   -1.1580 H   0  0  0  0  0  0  0  0  0  0  0  0
    3.4330   -0.6740    0.5280 H   0  0  0  0  0  0  0  0  0  0  0  0
    3.6250   -2.0290   -0.4280 H   0  0  0  0  0  0  0  0  0  0  0  0
    3.0780    3.8870   -2.4900 O   0  0  0  0  0  0  0  0  0  0  0  0
    1.9250    3.3610   -1.8990 C   0  0  0  0  0  0  0  0  0  0  0  0
    1.3430    3.9560   -0.7990 C   0  0  0  0  0  0  0  0  0  0  0  0
    0.2120    3.4650   -0.1970 C   0  0  0  0  0  0  0  0  0  0  0  0
   -0.3810    2.3350   -0.6970 C   0  0  0  0  0  0  0  0  0  0  0  0
   -1.6080    1.7700   -0.0760 C   0  0  0  0  0  0  0  0  0  0  0  0
   -1.2310    0.7580    1.0150 C   0  0  2  0  0  0  0  0  0  0  0  0
   -0.4740   -0.2740    0.3810 N   0  0  0  0  0  0  0  0  0  0  0  0
   -2.4070    0.2890    1.7440 C   0  0  0  0  0  0  0  0  0  0  0  0
   -3.1370    1.1250    2.3350 O   0  0  0  0  0  0  0  0  0  0  0  0
    0.1740    1.7180   -1.7940 C   0  0  0  0  0  0  0  0  0  0  0  0
    1.3100    2.2300   -2.3800 C   0  0  0  0  0  0  0  0  0  0  0  0
    3.3280    3.6520   -3.4330 H   0  0  0  0  0  0  0  0  0  0  0  0
    1.8290    4.8590   -0.4100 H   0  0  0  0  0  0  0  0  0  0  0  0
   -0.2120    3.9560    0.6600 H   0  0  0  0  0  0  0  0  0  0  0  0
   -2.2620    2.5640    0.3460 H   0  0  0  0  0  0  0  0  0  0  0  0
   -2.1980    1.2330   -0.8290 H   0  0  0  0  0  0  0  0  0  0  0  0
   -0.5440    1.3210    1.6960 H   0  0  0  0  0  0  0  0  0  0  0  0
   -1.0020   -0.8950   -0.3030 H   0  0  0  0  0  0  0  0  0  0  0  0
   -0.2700    0.8220   -2.2150 H   0  0  0  0  0  0  0  0  0  0  0  0
    1.7130    1.7140   -3.2400 H   0  0  0  0  0  0  0  0  0  0  0  0
   -2.7970   -1.0780    1.8380 N   0  0  0  0  0  0  0  0  0  0  0  0
   -3.9630   -1.5140    2.5640 C   0  0  0  0  0  0  0  0  0  0  0  0
   -4.0770   -2.9850    2.4610 C   0  0  0  0  0  0  0  0  0  0  0  0
   -5.0240   -3.5840    3.0200 O   0  0  0  0  0  0  0  0  0  0  0  0
   -3.1490   -3.7100    1.7530 O   0  0  0  0  0  0  0  0  0  0  0  0
   -2.1580   -1.7590    1.3270 H   0  0  0  0  0  0  0  0  0  0  0  0
   -4.9080   -1.0980    2.1160 H   0  0  0  0  0  0  0  0  0  0  0  0
   -3.9560   -1.1750    3.6250 H   0  0  0  0  0  0  0  0  0  0  0  0
  1  9  1  0  0  0  0
  1 10  1  0  0  0  0
  1 11  1  0  0  0  0
  2  1  1  0  0  0  0
  3 13  1  0  0  0  0
  3  2  1  0  0  0  0
  3 12  1  0  0  0  0
  4  3  1  0  0  0  0
  5 16  1  6  0  0  0
  5  4  1  0  0  0  0
  5  6  1  0  0  0  0
  5  7  1  0  0  0  0
  6 17  1  0  0  0  0
  7  8  2  0  0  0  0
 14  4  1  0  0  0  0
 15  4  1  0  0  0  0
 18  6  1  0  0  0  0
 19 20  1  0  0  0  0
 20 21  1  0  0  0  0
 21 32  1  0  0  0  0
 21 22  2  0  0  0  0
 22 33  1  0  0  0  0
 23 22  1  0  0  0  0
 23 24  1  0  0  0  0
 24 34  1  0  0  0  0
 24 25  1  0  0  0  0
 25 36  1  1  0  0  0
 25 27  1  0  0  0  0
 26  7  1  0  0  0  0
 26 25  1  0  0  0  0
 27 40  1  0  0  0  0
 27 28  2  0  0  0  0
 29 23  2  0  0  0  0
 30 20  2  0  0  0  0
 30 29  1  0  0  0  0
 31 19  1  0  0  0  0
 35 24  1  0  0  0  0
 37 26  1  0  0  0  0
 38 29  1  0  0  0  0
 39 30  1  0  0  0  0
 40 41  1  0  0  0  0
 41 47  1  0  0  0  0
 42 41  1  0  0  0  0
 42 43  1  0  0  0  0
 44 42  2  0  0  0  0
 45 40  1  0  0  0  0
 46 41  1  0  0  0  0
M  END
$$$$
