MYH.pdb
 OpenBabel07022418573D

 57 58  0  0  1  0  0  0  0  0999 V2000
    5.9660    1.1660    2.6270 C   0  0  0  0  0  0  0  0  0  0  0  0
    4.9370    1.6120    4.0450 S   0  0  0  0  0  0  0  0  0  0  0  0
    3.8200    2.9800    3.6660 C   0  0  0  0  0  0  0  0  0  0  0  0
    2.7820    2.5940    2.6370 C   0  0  0  0  0  0  0  0  0  0  0  0
    1.9240    1.4430    3.1130 C   0  0  2  0  0  0  0  0  0  0  0  0
    2.7210    0.2800    3.3790 N   0  0  0  0  0  0  0  0  0  0  0  0
    0.8920    1.1980    2.0710 C   0  0  0  0  0  0  0  0  0  0  0  0
    0.1660    2.1470    1.7460 O   0  0  0  0  0  0  0  0  0  0  0  0
    6.9960    0.8680    2.9520 H   0  0  0  0  0  0  0  0  0  0  0  0
    5.5280    0.2550    2.1690 H   0  0  0  0  0  0  0  0  0  0  0  0
    6.0930    1.9880    1.9130 H   0  0  0  0  0  0  0  0  0  0  0  0
    3.3730    3.3430    4.6080 H   0  0  0  0  0  0  0  0  0  0  0  0
    4.4260    3.8080    3.2470 H   0  0  0  0  0  0  0  0  0  0  0  0
    3.2900    2.3730    1.6900 H   0  0  0  0  0  0  0  0  0  0  0  0
    2.1420    3.4890    2.4550 H   0  0  0  0  0  0  0  0  0  0  0  0
    1.4460    1.7500    4.0720 H   0  0  0  0  0  0  0  0  0  0  0  0
    3.1680   -0.1230    2.5320 H   0  0  0  0  0  0  0  0  0  0  0  0
    2.2450   -0.4250    3.9710 H   0  0  0  0  0  0  0  0  0  0  0  0
    3.5250   -5.0800   -1.5040 O   0  0  0  0  0  0  0  0  0  0  0  0
    2.6760   -3.9720   -1.3640 C   0  0  0  0  0  0  0  0  0  0  0  0
    3.1880   -2.7240   -1.0910 C   0  0  0  0  0  0  0  0  0  0  0  0
    2.3460   -1.6410   -0.9560 C   0  0  0  0  0  0  0  0  0  0  0  0
    0.9650   -1.7620   -1.0880 C   0  0  0  0  0  0  0  0  0  0  0  0
    0.1710   -0.5520   -0.9230 C   0  0  0  0  0  0  0  0  0  0  0  0
   -0.3130   -0.2200    0.4410 C   0  0  2  0  0  0  0  0  0  0  0  0
    0.6870   -0.0320    1.4330 N   0  0  0  0  0  0  0  0  0  0  0  0
   -1.4590   -1.0330    0.9110 C   0  0  0  0  0  0  0  0  0  0  0  0
   -1.4460   -1.4770    2.0780 O   0  0  0  0  0  0  0  0  0  0  0  0
    0.4940   -3.0190   -1.3600 C   0  0  0  0  0  0  0  0  0  0  0  0
    1.3150   -4.1190   -1.5000 C   0  0  0  0  0  0  0  0  0  0  0  0
    3.5490   -5.5450   -2.4060 H   0  0  0  0  0  0  0  0  0  0  0  0
    4.2720   -2.6260   -0.9870 H   0  0  0  0  0  0  0  0  0  0  0  0
    2.8190   -0.6920   -0.7410 H   0  0  0  0  0  0  0  0  0  0  0  0
    0.7540    0.3230   -1.2760 H   0  0  0  0  0  0  0  0  0  0  0  0
   -0.7110   -0.6290   -1.5930 H   0  0  0  0  0  0  0  0  0  0  0  0
   -0.7980    0.8030    0.3110 H   0  0  0  0  0  0  0  0  0  0  0  0
    1.3200   -0.8390    1.7230 H   0  0  0  0  0  0  0  0  0  0  0  0
   -0.5500   -3.1570   -1.4690 H   0  0  0  0  0  0  0  0  0  0  0  0
    0.9310   -5.0970   -1.7120 H   0  0  0  0  0  0  0  0  0  0  0  0
   -2.5740   -1.3310    0.1000 N   0  0  0  0  0  0  0  0  0  0  0  0
   -3.7020   -2.1240    0.5620 C   0  0  1  0  0  0  0  0  0  0  0  0
   -4.8890   -1.1560    0.5840 C   0  0  0  0  0  0  0  0  0  0  0  0
   -5.1460   -0.6070   -0.7660 C   0  0  0  0  0  0  0  0  0  0  0  0
   -5.9840   -1.1650   -1.7090 C   0  0  0  0  0  0  0  0  0  0  0  0
   -5.9490   -0.3740   -2.8030 N   0  0  0  0  0  0  0  0  0  0  0  0
   -5.1190    0.6640   -2.5830 C   0  0  0  0  0  0  0  0  0  0  0  0
   -4.6400    0.5020   -1.3330 N   0  0  0  0  0  0  0  0  0  0  0  0
   -3.9910   -3.2920   -0.2720 C   0  0  0  0  0  0  0  0  0  0  0  0
   -4.9400   -4.0560    0.0290 O   0  0  0  0  0  0  0  0  0  0  0  0
   -3.2520   -3.5980   -1.4010 O   0  0  0  0  0  0  0  0  0  0  0  0
   -2.6170   -0.9790   -0.8810 H   0  0  0  0  0  0  0  0  0  0  0  0
   -3.4680   -2.4240    1.6040 H   0  0  0  0  0  0  0  0  0  0  0  0
   -5.7680   -1.6990    0.9850 H   0  0  0  0  0  0  0  0  0  0  0  0
   -4.7010   -0.3110    1.2630 H   0  0  0  0  0  0  0  0  0  0  0  0
   -6.5730   -2.0790   -1.6040 H   0  0  0  0  0  0  0  0  0  0  0  0
   -6.4790   -0.5280   -3.6920 H   0  0  0  0  0  0  0  0  0  0  0  0
   -4.9260    1.4360   -3.3160 H   0  0  0  0  0  0  0  0  0  0  0  0
  1  9  1  0  0  0  0
  1  2  1  0  0  0  0
  3  2  1  0  0  0  0
  3 12  1  0  0  0  0
  4  5  1  0  0  0  0
  4  3  1  0  0  0  0
  5  6  1  0  0  0  0
  5 16  1  1  0  0  0
  6 18  1  0  0  0  0
  7  5  1  0  0  0  0
  8  7  2  0  0  0  0
 10  1  1  0  0  0  0
 11  1  1  0  0  0  0
 13  3  1  0  0  0  0
 14  4  1  0  0  0  0
 15  4  1  0  0  0  0
 17  6  1  0  0  0  0
 19 20  1  0  0  0  0
 20 21  1  0  0  0  0
 21 32  1  0  0  0  0
 21 22  2  0  0  0  0
 22 33  1  0  0  0  0
 23 22  1  0  0  0  0
 23 24  1  0  0  0  0
 24 25  1  0  0  0  0
 25 36  1  6  0  0  0
 25 27  1  0  0  0  0
 25 26  1  0  0  0  0
 26 37  1  0  0  0  0
 26  7  1  0  0  0  0
 27 28  2  0  0  0  0
 29 23  2  0  0  0  0
 30 20  2  0  0  0  0
 30 29  1  0  0  0  0
 31 19  1  0  0  0  0
 34 24  1  0  0  0  0
 35 24  1  0  0  0  0
 38 29  1  0  0  0  0
 39 30  1  0  0  0  0
 40 41  1  0  0  0  0
 40 27  1  0  0  0  0
 41 42  1  0  0  0  0
 41 52  1  1  0  0  0
 42 53  1  0  0  0  0
 42 54  1  0  0  0  0
 43 42  1  0  0  0  0
 44 55  1  0  0  0  0
 44 43  2  0  0  0  0
 45 46  1  0  0  0  0
 45 44  1  0  0  0  0
 46 47  2  0  0  0  0
 47 43  1  0  0  0  0
 48 49  1  0  0  0  0
 48 41  1  0  0  0  0
 50 48  2  0  0  0  0
 51 40  1  0  0  0  0
 56 45  1  0  0  0  0
 57 46  1  0  0  0  0
M  END
$$$$
