MYM.pdb
 OpenBabel07022418573D

 57 57  0  0  1  0  0  0  0  0999 V2000
   -1.6130   -1.7900    4.3540 C   0  0  0  0  0  0  0  0  0  0  0  0
   -0.1500   -2.4850    5.1340 S   0  0  0  0  0  0  0  0  0  0  0  0
    1.3380   -2.1150    4.2290 C   0  0  0  0  0  0  0  0  0  0  0  0
    1.8770   -0.7510    4.2650 C   0  0  0  0  0  0  0  0  0  0  0  0
    1.1000    0.4010    3.7840 C   0  0  2  0  0  0  0  0  0  0  0  0
   -0.1310    0.6970    4.4280 N   0  0  0  0  0  0  0  0  0  0  0  0
    0.9960    0.4270    2.2780 C   0  0  0  0  0  0  0  0  0  0  0  0
    2.0260    0.2240    1.5770 O   0  0  0  0  0  0  0  0  0  0  0  0
   -2.3270   -2.6500    4.1800 H   0  0  0  0  0  0  0  0  0  0  0  0
   -1.3880   -1.4200    3.3360 H   0  0  0  0  0  0  0  0  0  0  0  0
   -2.1470   -1.0410    4.9690 H   0  0  0  0  0  0  0  0  0  0  0  0
    2.1480   -2.7870    4.6850 H   0  0  0  0  0  0  0  0  0  0  0  0
    1.3000   -2.5330    3.1710 H   0  0  0  0  0  0  0  0  0  0  0  0
    2.8570   -0.7440    3.7070 H   0  0  0  0  0  0  0  0  0  0  0  0
    2.1700   -0.5340    5.3320 H   0  0  0  0  0  0  0  0  0  0  0  0
    1.7630    1.3170    4.0040 H   0  0  0  0  0  0  0  0  0  0  0  0
   -0.4400    1.6890    4.3230 H   0  0  0  0  0  0  0  0  0  0  0  0
   -0.0740    0.4050    5.4300 H   0  0  0  0  0  0  0  0  0  0  0  0
    0.4120    2.1520   -6.0940 O   0  0  0  0  0  0  0  0  0  0  0  0
    0.4430    2.0660   -4.7090 C   0  0  0  0  0  0  0  0  0  0  0  0
    1.3560    1.2890   -4.0390 C   0  0  0  0  0  0  0  0  0  0  0  0
    1.3880    1.2030   -2.6670 C   0  0  0  0  0  0  0  0  0  0  0  0
    0.4870    1.9060   -1.9010 C   0  0  0  0  0  0  0  0  0  0  0  0
    0.5450    1.7930   -0.4370 C   0  0  0  0  0  0  0  0  0  0  0  0
   -0.3420    0.7210    0.1520 C   0  0  2  0  0  0  0  0  0  0  0  0
   -0.2250    0.6760    1.5970 N   0  0  0  0  0  0  0  0  0  0  0  0
   -0.2410   -0.5890   -0.4980 C   0  0  0  0  0  0  0  0  0  0  0  0
   -0.2700   -0.7320   -1.7510 O   0  0  0  0  0  0  0  0  0  0  0  0
   -0.4410    2.6940   -2.5440 C   0  0  0  0  0  0  0  0  0  0  0  0
   -0.4510    2.7630   -3.9130 C   0  0  0  0  0  0  0  0  0  0  0  0
    1.1350    1.6590   -6.6020 H   0  0  0  0  0  0  0  0  0  0  0  0
    2.0930    0.7110   -4.6170 H   0  0  0  0  0  0  0  0  0  0  0  0
    2.1530    0.5560   -2.2130 H   0  0  0  0  0  0  0  0  0  0  0  0
    0.2270    2.8030   -0.0420 H   0  0  0  0  0  0  0  0  0  0  0  0
    1.6040    1.6990   -0.1310 H   0  0  0  0  0  0  0  0  0  0  0  0
   -1.3950    1.1030   -0.0420 H   0  0  0  0  0  0  0  0  0  0  0  0
   -1.0570    0.8280    2.2450 H   0  0  0  0  0  0  0  0  0  0  0  0
   -1.1740    3.2680   -1.9800 H   0  0  0  0  0  0  0  0  0  0  0  0
   -1.1760    3.3810   -4.4630 H   0  0  0  0  0  0  0  0  0  0  0  0
   -2.9950   -1.7390    0.9820 C   0  0  0  0  0  0  0  0  0  0  0  0
   -3.0680   -2.0810   -0.7660 S   0  0  0  0  0  0  0  0  0  0  0  0
   -2.2520   -3.5230   -1.3380 C   0  0  0  0  0  0  0  0  0  0  0  0
   -0.7830   -3.4730   -1.4310 C   0  0  0  0  0  0  0  0  0  0  0  0
    0.0160   -3.1070   -0.2380 C   0  0  2  0  0  0  0  0  0  0  0  0
   -0.0990   -1.7940    0.2890 N   0  0  0  0  0  0  0  0  0  0  0  0
    1.4170   -3.5820   -0.3320 C   0  0  0  0  0  0  0  0  0  0  0  0
    2.4130   -2.8980    0.0170 O   0  0  0  0  0  0  0  0  0  0  0  0
    1.7090   -4.8590   -0.8340 O   0  0  0  0  0  0  0  0  0  0  0  0
   -2.5930   -0.7280    1.1510 H   0  0  0  0  0  0  0  0  0  0  0  0
   -4.0520   -1.6790    1.3810 H   0  0  0  0  0  0  0  0  0  0  0  0
   -2.4470   -2.5490    1.5070 H   0  0  0  0  0  0  0  0  0  0  0  0
   -2.5180   -4.3910   -0.6490 H   0  0  0  0  0  0  0  0  0  0  0  0
   -2.6150   -3.8270   -2.3780 H   0  0  0  0  0  0  0  0  0  0  0  0
   -0.4500   -4.5510   -1.6790 H   0  0  0  0  0  0  0  0  0  0  0  0
   -0.4300   -2.9290   -2.3600 H   0  0  0  0  0  0  0  0  0  0  0  0
   -0.4660   -3.7830    0.5900 H   0  0  0  0  0  0  0  0  0  0  0  0
   -0.0850   -1.6180    1.3390 H   0  0  0  0  0  0  0  0  0  0  0  0
  1 11  1  0  0  0  0
  1  2  1  0  0  0  0
  3  4  1  0  0  0  0
  3 12  1  0  0  0  0
  3  2  1  0  0  0  0
  4 15  1  0  0  0  0
  5 16  1  1  0  0  0
  5  4  1  0  0  0  0
  5  6  1  0  0  0  0
  6 18  1  0  0  0  0
  7  5  1  0  0  0  0
  8  7  2  0  0  0  0
  9  1  1  0  0  0  0
 10  1  1  0  0  0  0
 13  3  1  0  0  0  0
 14  4  1  0  0  0  0
 17  6  1  0  0  0  0
 19 20  1  0  0  0  0
 20 21  2  0  0  0  0
 20 30  1  0  0  0  0
 21 22  1  0  0  0  0
 22 33  1  0  0  0  0
 22 23  2  0  0  0  0
 23 24  1  0  0  0  0
 24 35  1  0  0  0  0
 24 34  1  0  0  0  0
 24 25  1  0  0  0  0
 25 36  1  6  0  0  0
 25 26  1  0  0  0  0
 26 37  1  0  0  0  0
 26  7  1  0  0  0  0
 27 25  1  0  0  0  0
 27 45  1  0  0  0  0
 28 27  2  0  0  0  0
 29 38  1  0  0  0  0
 29 23  1  0  0  0  0
 30 29  2  0  0  0  0
 31 19  1  0  0  0  0
 32 21  1  0  0  0  0
 39 30  1  0  0  0  0
 40 49  1  0  0  0  0
 40 50  1  0  0  0  0
 40 51  1  0  0  0  0
 41 40  1  0  0  0  0
 42 41  1  0  0  0  0
 42 52  1  0  0  0  0
 43 42  1  0  0  0  0
 43 44  1  0  0  0  0
 44 45  1  0  0  0  0
 44 56  1  1  0  0  0
 45 57  1  0  0  0  0
 46 44  1  0  0  0  0
 46 47  1  0  0  0  0
 48 46  2  0  0  0  0
 53 42  1  0  0  0  0
 54 43  1  0  0  0  0
 55 43  1  0  0  0  0
M  END
$$$$
