MYN.pdb
 OpenBabel07022418573D

 54 54  0  0  1  0  0  0  0  0999 V2000
    0.0870   -0.8300    4.6200 C   0  0  0  0  0  0  0  0  0  0  0  0
    1.4400   -1.9500    4.3610 S   0  0  0  0  0  0  0  0  0  0  0  0
    1.9190   -2.2490    2.6840 C   0  0  0  0  0  0  0  0  0  0  0  0
    2.7090   -1.1930    2.0180 C   0  0  0  0  0  0  0  0  0  0  0  0
    2.1320    0.1410    1.9530 C   0  0  2  0  0  0  0  0  0  0  0  0
    1.9060    0.7510    3.2210 N   0  0  0  0  0  0  0  0  0  0  0  0
    0.9170    0.1830    1.0810 C   0  0  0  0  0  0  0  0  0  0  0  0
    0.9160   -0.5280    0.0680 O   0  0  0  0  0  0  0  0  0  0  0  0
   -0.7370   -1.4290    5.1460 H   0  0  0  0  0  0  0  0  0  0  0  0
   -0.4280   -0.4540    3.7280 H   0  0  0  0  0  0  0  0  0  0  0  0
    0.3630    0.0040    5.2670 H   0  0  0  0  0  0  0  0  0  0  0  0
    2.5530   -3.2060    2.6590 H   0  0  0  0  0  0  0  0  0  0  0  0
    1.0050   -2.4750    2.0280 H   0  0  0  0  0  0  0  0  0  0  0  0
    3.0060   -1.5650    0.9690 H   0  0  0  0  0  0  0  0  0  0  0  0
    3.7230   -1.1150    2.5790 H   0  0  0  0  0  0  0  0  0  0  0  0
    2.9330    0.8210    1.4630 H   0  0  0  0  0  0  0  0  0  0  0  0
    1.8620    1.7910    3.2080 H   0  0  0  0  0  0  0  0  0  0  0  0
    2.7100    0.4950    3.8500 H   0  0  0  0  0  0  0  0  0  0  0  0
    2.4820    0.5560   -4.4540 O   0  0  0  0  0  0  0  0  0  0  0  0
    1.5110    0.8960   -3.5150 C   0  0  0  0  0  0  0  0  0  0  0  0
    1.8300    1.8240   -2.5400 C   0  0  0  0  0  0  0  0  0  0  0  0
    0.8920    2.1670   -1.6130 C   0  0  0  0  0  0  0  0  0  0  0  0
   -0.3540    1.6130   -1.6290 C   0  0  0  0  0  0  0  0  0  0  0  0
   -1.3700    1.9920   -0.5940 C   0  0  0  0  0  0  0  0  0  0  0  0
   -1.4030    1.1160    0.6030 C   0  0  2  0  0  0  0  0  0  0  0  0
   -0.2190    1.0070    1.3730 N   0  0  0  0  0  0  0  0  0  0  0  0
   -2.1720   -0.1650    0.4120 C   0  0  0  0  0  0  0  0  0  0  0  0
   -3.1990   -0.1390   -0.3610 O   0  0  0  0  0  0  0  0  0  0  0  0
   -0.6920    0.6940   -2.5840 C   0  0  0  0  0  0  0  0  0  0  0  0
    0.2490    0.3380   -3.5280 C   0  0  0  0  0  0  0  0  0  0  0  0
    2.1610    0.1060   -5.3110 H   0  0  0  0  0  0  0  0  0  0  0  0
    2.8470    2.2700   -2.5340 H   0  0  0  0  0  0  0  0  0  0  0  0
    1.1580    2.8980   -0.8570 H   0  0  0  0  0  0  0  0  0  0  0  0
   -2.3420    2.0010   -1.1300 H   0  0  0  0  0  0  0  0  0  0  0  0
   -1.2100    3.0550   -0.2850 H   0  0  0  0  0  0  0  0  0  0  0  0
   -2.1290    1.6750    1.3210 H   0  0  0  0  0  0  0  0  0  0  0  0
   -0.0670    1.5600    2.2860 H   0  0  0  0  0  0  0  0  0  0  0  0
   -1.6940    0.2260   -2.6210 H   0  0  0  0  0  0  0  0  0  0  0  0
   -0.0110   -0.4010   -4.2980 H   0  0  0  0  0  0  0  0  0  0  0  0
   -0.0290   -3.1060   -1.6490 N   0  0  0  0  0  0  0  0  0  0  0  0
   -1.4150   -3.0520   -1.3190 C   0  0  0  0  0  0  0  0  0  0  0  0
   -2.2580   -2.5700   -2.0890 O   0  0  0  0  0  0  0  0  0  0  0  0
   -1.8190   -3.5920   -0.0120 C   0  0  0  0  0  0  0  0  0  0  0  0
   -2.6470   -2.5880    0.7750 C   0  0  2  0  0  0  0  0  0  0  0  0
   -1.8600   -1.3820    1.0080 N   0  0  0  0  0  0  0  0  0  0  0  0
   -3.0100   -3.1690    2.0790 C   0  0  0  0  0  0  0  0  0  0  0  0
   -3.7000   -4.2120    2.1660 O   0  0  0  0  0  0  0  0  0  0  0  0
   -2.6060   -2.5880    3.2560 O   0  0  0  0  0  0  0  0  0  0  0  0
    0.6270   -3.8050   -1.2990 H   0  0  0  0  0  0  0  0  0  0  0  0
    0.3490   -2.3580   -2.3050 H   0  0  0  0  0  0  0  0  0  0  0  0
   -0.9780   -3.8970    0.6280 H   0  0  0  0  0  0  0  0  0  0  0  0
   -2.4550   -4.4870   -0.1380 H   0  0  0  0  0  0  0  0  0  0  0  0
   -3.5220   -2.3610    0.1350 H   0  0  0  0  0  0  0  0  0  0  0  0
   -1.0640   -1.4720    1.6510 H   0  0  0  0  0  0  0  0  0  0  0  0
  1  9  1  0  0  0  0
  1 11  1  0  0  0  0
  2  1  1  0  0  0  0
  3  2  1  0  0  0  0
  4 15  1  0  0  0  0
  4  3  1  0  0  0  0
  5 16  1  6  0  0  0
  5  4  1  0  0  0  0
  5  6  1  0  0  0  0
  6 18  1  0  0  0  0
  7 26  1  0  0  0  0
  7  5  1  0  0  0  0
  8  7  2  0  0  0  0
 10  1  1  0  0  0  0
 12  3  1  0  0  0  0
 13  3  1  0  0  0  0
 14  4  1  0  0  0  0
 17  6  1  0  0  0  0
 19 20  1  0  0  0  0
 20 21  1  0  0  0  0
 21 32  1  0  0  0  0
 21 22  2  0  0  0  0
 22 33  1  0  0  0  0
 23 22  1  0  0  0  0
 23 24  1  0  0  0  0
 24 35  1  0  0  0  0
 24 25  1  0  0  0  0
 25 36  1  1  0  0  0
 25 26  1  0  0  0  0
 26 37  1  0  0  0  0
 27 25  1  0  0  0  0
 27 45  1  0  0  0  0
 28 27  2  0  0  0  0
 29 23  2  0  0  0  0
 30 20  2  0  0  0  0
 30 29  1  0  0  0  0
 31 19  1  0  0  0  0
 34 24  1  0  0  0  0
 38 29  1  0  0  0  0
 39 30  1  0  0  0  0
 40 41  1  0  0  0  0
 40 49  1  0  0  0  0
 41 43  1  0  0  0  0
 42 41  2  0  0  0  0
 43 51  1  0  0  0  0
 43 44  1  0  0  0  0
 44 53  1  6  0  0  0
 44 45  1  0  0  0  0
 44 46  1  0  0  0  0
 45 54  1  0  0  0  0
 46 47  2  0  0  0  0
 46 48  1  0  0  0  0
 50 40  1  0  0  0  0
 52 43  1  0  0  0  0
M  END
$$$$
