MYS.pdb
 OpenBabel07022418573D

 51 51  0  0  1  0  0  0  0  0999 V2000
    3.5970   -2.5810    4.5840 C   0  0  0  0  0  0  0  0  0  0  0  0
    4.3270   -3.0220    3.0260 S   0  0  0  0  0  0  0  0  0  0  0  0
    3.5740   -2.3940    1.5590 C   0  0  0  0  0  0  0  0  0  0  0  0
    3.6900   -0.9660    1.2300 C   0  0  0  0  0  0  0  0  0  0  0  0
    3.1720    0.0580    2.1540 C   0  0  2  0  0  0  0  0  0  0  0  0
    3.7480    0.1130    3.4550 N   0  0  0  0  0  0  0  0  0  0  0  0
    1.6850    0.0270    2.2290 C   0  0  0  0  0  0  0  0  0  0  0  0
    1.1590   -0.0090    3.3800 O   0  0  0  0  0  0  0  0  0  0  0  0
    3.5180   -3.5280    5.2030 H   0  0  0  0  0  0  0  0  0  0  0  0
    4.2570   -1.9340    5.1860 H   0  0  0  0  0  0  0  0  0  0  0  0
    2.5960   -2.1070    4.5380 H   0  0  0  0  0  0  0  0  0  0  0  0
    2.4910   -2.7170    1.4420 H   0  0  0  0  0  0  0  0  0  0  0  0
    4.0520   -2.9560    0.6850 H   0  0  0  0  0  0  0  0  0  0  0  0
    4.7670   -0.7560    0.9900 H   0  0  0  0  0  0  0  0  0  0  0  0
    3.1560   -0.8030    0.2400 H   0  0  0  0  0  0  0  0  0  0  0  0
    3.3980    1.0600    1.6770 H   0  0  0  0  0  0  0  0  0  0  0  0
    4.7180    0.4520    3.4890 H   0  0  0  0  0  0  0  0  0  0  0  0
    3.1280    0.4710    4.1910 H   0  0  0  0  0  0  0  0  0  0  0  0
   -0.3590    2.5600   -4.7270 O   0  0  0  0  0  0  0  0  0  0  0  0
   -0.5680    2.2390   -3.3660 C   0  0  0  0  0  0  0  0  0  0  0  0
    0.2920    2.6860   -2.3980 C   0  0  0  0  0  0  0  0  0  0  0  0
    0.0680    2.3610   -1.0760 C   0  0  0  0  0  0  0  0  0  0  0  0
   -0.9970    1.5950   -0.6690 C   0  0  0  0  0  0  0  0  0  0  0  0
   -1.2150    1.2660    0.7380 C   0  0  0  0  0  0  0  0  0  0  0  0
   -0.5540    0.0050    1.2140 C   0  0  2  0  0  0  0  0  0  0  0  0
    0.8790    0.0370    1.0620 N   0  0  0  0  0  0  0  0  0  0  0  0
   -1.0770   -1.2320    0.6500 C   0  0  0  0  0  0  0  0  0  0  0  0
   -0.2750   -2.0430    0.1150 O   0  0  0  0  0  0  0  0  0  0  0  0
   -1.8590    1.1470   -1.6370 C   0  0  0  0  0  0  0  0  0  0  0  0
   -1.6450    1.4690   -2.9840 C   0  0  0  0  0  0  0  0  0  0  0  0
   -1.2300    2.6550   -5.2640 H   0  0  0  0  0  0  0  0  0  0  0  0
    1.1380    3.2940   -2.7150 H   0  0  0  0  0  0  0  0  0  0  0  0
    0.7610    2.7210   -0.3000 H   0  0  0  0  0  0  0  0  0  0  0  0
   -2.2920    1.1940    1.0230 H   0  0  0  0  0  0  0  0  0  0  0  0
   -0.8120    2.0940    1.3910 H   0  0  0  0  0  0  0  0  0  0  0  0
   -0.7670   -0.0410    2.3170 H   0  0  0  0  0  0  0  0  0  0  0  0
    1.3420    0.0700    0.1210 H   0  0  0  0  0  0  0  0  0  0  0  0
   -2.7290    0.5400   -1.4340 H   0  0  0  0  0  0  0  0  0  0  0  0
   -2.3160    1.1230   -3.7560 H   0  0  0  0  0  0  0  0  0  0  0  0
   -4.4540   -3.0590    1.7890 O   0  0  0  0  0  0  0  0  0  0  0  0
   -3.3700   -3.7410    1.2060 C   0  0  0  0  0  0  0  0  0  0  0  0
   -2.8640   -2.8310    0.0860 C   0  0  2  0  0  0  0  0  0  0  0  0
   -2.4590   -1.5800    0.6710 N   0  0  0  0  0  0  0  0  0  0  0  0
   -4.0070   -2.6420   -0.8540 C   0  0  0  0  0  0  0  0  0  0  0  0
   -4.4900   -1.5130   -1.0380 O   0  0  0  0  0  0  0  0  0  0  0  0
   -4.5540   -3.7080   -1.5400 O   0  0  0  0  0  0  0  0  0  0  0  0
   -5.0080   -2.6500    1.0730 H   0  0  0  0  0  0  0  0  0  0  0  0
   -3.7040   -4.7180    0.8100 H   0  0  0  0  0  0  0  0  0  0  0  0
   -2.5740   -3.8160    1.9650 H   0  0  0  0  0  0  0  0  0  0  0  0
   -2.0070   -3.3520   -0.3620 H   0  0  0  0  0  0  0  0  0  0  0  0
   -3.0970   -0.9010    1.1130 H   0  0  0  0  0  0  0  0  0  0  0  0
  1 10  1  0  0  0  0
  1  9  1  0  0  0  0
  2  1  1  0  0  0  0
  3  2  1  0  0  0  0
  4  3  1  0  0  0  0
  4  5  1  0  0  0  0
  5 16  1  6  0  0  0
  5  7  1  0  0  0  0
  5  6  1  0  0  0  0
  6 17  1  0  0  0  0
  6 18  1  0  0  0  0
  7  8  2  0  0  0  0
 11  1  1  0  0  0  0
 12  3  1  0  0  0  0
 13  3  1  0  0  0  0
 14  4  1  0  0  0  0
 15  4  1  0  0  0  0
 19 20  1  0  0  0  0
 20 30  2  0  0  0  0
 20 21  1  0  0  0  0
 21 22  2  0  0  0  0
 22 23  1  0  0  0  0
 22 33  1  0  0  0  0
 23 24  1  0  0  0  0
 24 34  1  0  0  0  0
 24 25  1  0  0  0  0
 24 35  1  0  0  0  0
 25 36  1  1  0  0  0
 26 25  1  0  0  0  0
 26  7  1  0  0  0  0
 27 43  1  0  0  0  0
 27 25  1  0  0  0  0
 28 27  2  0  0  0  0
 29 38  1  0  0  0  0
 29 23  2  0  0  0  0
 30 29  1  0  0  0  0
 31 19  1  0  0  0  0
 32 21  1  0  0  0  0
 37 26  1  0  0  0  0
 39 30  1  0  0  0  0
 41 40  1  0  0  0  0
 41 49  1  0  0  0  0
 42 50  1  6  0  0  0
 42 43  1  0  0  0  0
 42 41  1  0  0  0  0
 43 51  1  0  0  0  0
 44 42  1  0  0  0  0
 45 44  1  0  0  0  0
 46 44  2  0  0  0  0
 47 40  1  0  0  0  0
 48 41  1  0  0  0  0
M  END
$$$$
