MYT.pdb
 OpenBabel07022418573D

 54 54  0  0  1  0  0  0  0  0999 V2000
    0.4480   -1.8570    8.1590 C   0  0  0  0  0  0  0  0  0  0  0  0
    1.9310   -1.8640    7.1160 S   0  0  0  0  0  0  0  0  0  0  0  0
    1.4250   -2.4080    5.4530 C   0  0  0  0  0  0  0  0  0  0  0  0
    2.6070   -2.4410    4.5200 C   0  0  0  0  0  0  0  0  0  0  0  0
    2.2740   -2.8970    3.1310 C   0  0  2  0  0  0  0  0  0  0  0  0
    3.5050   -2.8920    2.3080 N   0  0  0  0  0  0  0  0  0  0  0  0
    1.2100   -2.1380    2.4620 C   0  0  0  0  0  0  0  0  0  0  0  0
    0.0400   -2.0490    2.8970 O   0  0  0  0  0  0  0  0  0  0  0  0
    0.0710   -0.8260    8.1870 H   0  0  0  0  0  0  0  0  0  0  0  0
    0.6990   -2.2070    9.1900 H   0  0  0  0  0  0  0  0  0  0  0  0
   -0.3300   -2.5410    7.7160 H   0  0  0  0  0  0  0  0  0  0  0  0
    0.6730   -1.6810    5.0540 H   0  0  0  0  0  0  0  0  0  0  0  0
    1.0240   -3.4330    5.5430 H   0  0  0  0  0  0  0  0  0  0  0  0
    3.1120   -1.4330    4.5030 H   0  0  0  0  0  0  0  0  0  0  0  0
    3.3660   -3.1070    4.9990 H   0  0  0  0  0  0  0  0  0  0  0  0
    1.9840   -3.9690    3.1890 H   0  0  0  0  0  0  0  0  0  0  0  0
    3.3050   -3.2970    1.3680 H   0  0  0  0  0  0  0  0  0  0  0  0
    3.8810   -1.9280    2.2420 H   0  0  0  0  0  0  0  0  0  0  0  0
   -2.7240    4.4390   -1.8410 O   0  0  0  0  0  0  0  0  0  0  0  0
   -1.8550    3.5390   -1.2440 C   0  0  0  0  0  0  0  0  0  0  0  0
   -0.8010    3.0260   -1.9430 C   0  0  0  0  0  0  0  0  0  0  0  0
    0.0640    2.1230   -1.3290 C   0  0  0  0  0  0  0  0  0  0  0  0
   -0.1150    1.7270   -0.0220 C   0  0  0  0  0  0  0  0  0  0  0  0
    0.8090    0.7790    0.6020 C   0  0  0  0  0  0  0  0  0  0  0  0
    0.4030   -0.6700    0.5520 C   0  0  2  0  0  0  0  0  0  0  0  0
    1.4730   -1.4380    1.2320 N   0  0  0  0  0  0  0  0  0  0  0  0
    0.2690   -1.2330   -0.7960 C   0  0  0  0  0  0  0  0  0  0  0  0
    1.1270   -2.1000   -1.1740 O   0  0  0  0  0  0  0  0  0  0  0  0
   -1.1950    2.2650    0.6650 C   0  0  0  0  0  0  0  0  0  0  0  0
   -2.0590    3.1620    0.0660 C   0  0  0  0  0  0  0  0  0  0  0  0
   -2.5230    4.8830   -2.7140 H   0  0  0  0  0  0  0  0  0  0  0  0
   -0.6430    3.3220   -2.9650 H   0  0  0  0  0  0  0  0  0  0  0  0
    0.8770    1.7550   -1.9400 H   0  0  0  0  0  0  0  0  0  0  0  0
    1.8440    0.8640    0.1920 H   0  0  0  0  0  0  0  0  0  0  0  0
    0.9320    1.1160    1.6760 H   0  0  0  0  0  0  0  0  0  0  0  0
   -0.5360   -0.7540    1.1470 H   0  0  0  0  0  0  0  0  0  0  0  0
    2.4390   -1.5050    0.8620 H   0  0  0  0  0  0  0  0  0  0  0  0
   -1.3980    1.9990    1.6990 H   0  0  0  0  0  0  0  0  0  0  0  0
   -2.9030    3.5900    0.5840 H   0  0  0  0  0  0  0  0  0  0  0  0
   -3.2170   -1.2230   -2.9380 C   0  0  0  0  0  0  0  0  0  0  0  0
   -2.1320   -2.2590   -3.1460 C   0  0  1  0  0  0  0  0  0  0  0  0
   -2.2890   -2.8680   -4.3830 O   0  0  0  0  0  0  0  0  0  0  0  0
   -0.7890   -1.5270   -3.0650 C   0  0  2  0  0  0  0  0  0  0  0  0
   -0.7200   -0.9320   -1.7540 N   0  0  0  0  0  0  0  0  0  0  0  0
   -0.7430   -0.5840   -4.1810 C   0  0  0  0  0  0  0  0  0  0  0  0
   -0.6530    0.6480   -4.1340 O   0  0  0  0  0  0  0  0  0  0  0  0
   -0.8100   -1.1430   -5.4730 O   0  0  0  0  0  0  0  0  0  0  0  0
   -2.9950   -0.2760   -3.4360 H   0  0  0  0  0  0  0  0  0  0  0  0
   -4.1560   -1.6740   -3.3520 H   0  0  0  0  0  0  0  0  0  0  0  0
   -3.3780   -1.1070   -1.8330 H   0  0  0  0  0  0  0  0  0  0  0  0
   -2.1460   -2.9690   -2.2990 H   0  0  0  0  0  0  0  0  0  0  0  0
   -2.1420   -3.8310   -4.2530 H   0  0  0  0  0  0  0  0  0  0  0  0
    0.0370   -2.2670   -3.2310 H   0  0  0  0  0  0  0  0  0  0  0  0
   -1.4560   -0.2460   -1.4960 H   0  0  0  0  0  0  0  0  0  0  0  0
  1  9  1  0  0  0  0
  1 10  1  0  0  0  0
  2  1  1  0  0  0  0
  3 13  1  0  0  0  0
  3  2  1  0  0  0  0
  4 15  1  0  0  0  0
  4  3  1  0  0  0  0
  5 16  1  1  0  0  0
  5  4  1  0  0  0  0
  6  5  1  0  0  0  0
  7  8  2  0  0  0  0
  7  5  1  0  0  0  0
 11  1  1  0  0  0  0
 12  3  1  0  0  0  0
 14  4  1  0  0  0  0
 17  6  1  0  0  0  0
 18  6  1  0  0  0  0
 19 20  1  0  0  0  0
 20 30  1  0  0  0  0
 21 22  1  0  0  0  0
 21 20  2  0  0  0  0
 22 23  2  0  0  0  0
 23 24  1  0  0  0  0
 23 29  1  0  0  0  0
 24 35  1  0  0  0  0
 25 24  1  0  0  0  0
 25 36  1  1  0  0  0
 25 26  1  0  0  0  0
 26  7  1  0  0  0  0
 27 25  1  0  0  0  0
 28 27  2  0  0  0  0
 29 38  1  0  0  0  0
 30 39  1  0  0  0  0
 30 29  2  0  0  0  0
 31 19  1  0  0  0  0
 32 21  1  0  0  0  0
 33 22  1  0  0  0  0
 34 24  1  0  0  0  0
 37 26  1  0  0  0  0
 40 50  1  0  0  0  0
 41 43  1  0  0  0  0
 41 40  1  0  0  0  0
 41 51  1  1  0  0  0
 42 52  1  0  0  0  0
 42 41  1  0  0  0  0
 43 53  1  6  0  0  0
 43 44  1  0  0  0  0
 44 54  1  0  0  0  0
 44 27  1  0  0  0  0
 45 46  1  0  0  0  0
 45 43  1  0  0  0  0
 47 45  2  0  0  0  0
 48 40  1  0  0  0  0
 49 40  1  0  0  0  0
M  END
$$$$
