MYV.pdb
 OpenBabel07022418573D

 56 56  0  0  1  0  0  0  0  0999 V2000
    5.0780    1.6840    2.6790 C   0  0  0  0  0  0  0  0  0  0  0  0
    3.8210    2.9730    2.7030 S   0  0  0  0  0  0  0  0  0  0  0  0
    2.4400    2.3780    3.7370 C   0  0  0  0  0  0  0  0  0  0  0  0
    1.8350    1.1910    3.0050 C   0  0  0  0  0  0  0  0  0  0  0  0
    0.6620    0.6010    3.7840 C   0  0  2  0  0  0  0  0  0  0  0  0
    1.1360    0.1570    5.0880 N   0  0  0  0  0  0  0  0  0  0  0  0
    0.1540   -0.5850    3.0440 C   0  0  0  0  0  0  0  0  0  0  0  0
    0.2600   -1.7560    3.4950 O   0  0  0  0  0  0  0  0  0  0  0  0
    4.9520    1.0040    1.7880 H   0  0  0  0  0  0  0  0  0  0  0  0
    4.9970    1.0090    3.5630 H   0  0  0  0  0  0  0  0  0  0  0  0
    6.1080    2.0580    2.6130 H   0  0  0  0  0  0  0  0  0  0  0  0
    2.7610    2.1540    4.7550 H   0  0  0  0  0  0  0  0  0  0  0  0
    1.7150    3.2200    3.8030 H   0  0  0  0  0  0  0  0  0  0  0  0
    1.4220    1.5750    2.0620 H   0  0  0  0  0  0  0  0  0  0  0  0
    2.5840    0.3970    2.9050 H   0  0  0  0  0  0  0  0  0  0  0  0
   -0.1330    1.3430    3.9240 H   0  0  0  0  0  0  0  0  0  0  0  0
    1.0920    0.8960    5.8010 H   0  0  0  0  0  0  0  0  0  0  0  0
    2.0760   -0.2980    5.0200 H   0  0  0  0  0  0  0  0  0  0  0  0
   -4.5310    2.9810   -1.3320 O   0  0  0  0  0  0  0  0  0  0  0  0
   -4.0390    1.8190   -0.7420 C   0  0  0  0  0  0  0  0  0  0  0  0
   -3.7350    1.8430    0.6140 C   0  0  0  0  0  0  0  0  0  0  0  0
   -3.2480    0.7140    1.2160 C   0  0  0  0  0  0  0  0  0  0  0  0
   -3.0620   -0.4270    0.4920 C   0  0  0  0  0  0  0  0  0  0  0  0
   -2.5100   -1.6530    1.1280 C   0  0  0  0  0  0  0  0  0  0  0  0
   -0.9780   -1.6380    1.0620 C   0  0  2  0  0  0  0  0  0  0  0  0
   -0.4890   -0.4500    1.7670 N   0  0  0  0  0  0  0  0  0  0  0  0
   -0.4940   -1.7260   -0.3160 C   0  0  0  0  0  0  0  0  0  0  0  0
    0.1340   -0.7260   -0.7980 O   0  0  0  0  0  0  0  0  0  0  0  0
   -3.3670   -0.4310   -0.8370 C   0  0  0  0  0  0  0  0  0  0  0  0
   -3.8600    0.6840   -1.4840 C   0  0  0  0  0  0  0  0  0  0  0  0
   -5.2110    2.9020   -2.0950 H   0  0  0  0  0  0  0  0  0  0  0  0
   -3.8840    2.7500    1.1880 H   0  0  0  0  0  0  0  0  0  0  0  0
   -3.0290    0.7820    2.2820 H   0  0  0  0  0  0  0  0  0  0  0  0
   -2.7740   -1.6480    2.2040 H   0  0  0  0  0  0  0  0  0  0  0  0
   -2.9140   -2.5880    0.7020 H   0  0  0  0  0  0  0  0  0  0  0  0
   -0.6370   -2.5050    1.6350 H   0  0  0  0  0  0  0  0  0  0  0  0
   -0.5780    0.5200    1.3950 H   0  0  0  0  0  0  0  0  0  0  0  0
   -3.2360   -1.3270   -1.4750 H   0  0  0  0  0  0  0  0  0  0  0  0
   -4.0940    0.6580   -2.5370 H   0  0  0  0  0  0  0  0  0  0  0  0
    2.0710   -3.1170   -1.6970 C   0  0  0  0  0  0  0  0  0  0  0  0
    1.0450   -3.8160   -2.5610 C   0  0  0  0  0  0  0  0  0  0  0  0
    1.5440   -3.7810   -3.9890 C   0  0  0  0  0  0  0  0  0  0  0  0
   -0.2170   -2.9590   -2.5080 C   0  0  2  0  0  0  0  0  0  0  0  0
   -0.6810   -2.8440   -1.1220 N   0  0  0  0  0  0  0  0  0  0  0  0
   -1.2710   -3.5760   -3.3440 C   0  0  0  0  0  0  0  0  0  0  0  0
   -1.0750   -3.7850   -4.5680 O   0  0  0  0  0  0  0  0  0  0  0  0
   -2.4780   -3.9120   -2.7390 O   0  0  0  0  0  0  0  0  0  0  0  0
    2.2290   -2.0790   -2.0760 H   0  0  0  0  0  0  0  0  0  0  0  0
    3.0320   -3.6500   -1.6290 H   0  0  0  0  0  0  0  0  0  0  0  0
    1.6240   -3.0440   -0.6750 H   0  0  0  0  0  0  0  0  0  0  0  0
    0.8580   -4.8480   -2.2640 H   0  0  0  0  0  0  0  0  0  0  0  0
    1.3570   -4.7490   -4.5050 H   0  0  0  0  0  0  0  0  0  0  0  0
    1.0930   -2.9600   -4.5820 H   0  0  0  0  0  0  0  0  0  0  0  0
    2.6460   -3.6060   -4.0160 H   0  0  0  0  0  0  0  0  0  0  0  0
    0.0690   -2.0020   -2.9370 H   0  0  0  0  0  0  0  0  0  0  0  0
   -1.1820   -3.6790   -0.7340 H   0  0  0  0  0  0  0  0  0  0  0  0
  1  2  1  0  0  0  0
  1 10  1  0  0  0  0
  2  3  1  0  0  0  0
  3 13  1  0  0  0  0
  3 12  1  0  0  0  0
  4  3  1  0  0  0  0
  4  5  1  0  0  0  0
  5 16  1  1  0  0  0
  5  6  1  0  0  0  0
  6 17  1  0  0  0  0
  7  8  2  0  0  0  0
  7  5  1  0  0  0  0
  9  1  1  0  0  0  0
 11  1  1  0  0  0  0
 14  4  1  0  0  0  0
 15  4  1  0  0  0  0
 18  6  1  0  0  0  0
 19 20  1  0  0  0  0
 20 21  1  0  0  0  0
 21 32  1  0  0  0  0
 21 22  2  0  0  0  0
 22 33  1  0  0  0  0
 23 24  1  0  0  0  0
 23 22  1  0  0  0  0
 24 34  1  0  0  0  0
 25 24  1  0  0  0  0
 25 36  1  1  0  0  0
 25 26  1  0  0  0  0
 26  7  1  0  0  0  0
 27 25  1  0  0  0  0
 28 27  2  0  0  0  0
 29 23  2  0  0  0  0
 30 29  1  0  0  0  0
 30 20  2  0  0  0  0
 31 19  1  0  0  0  0
 35 24  1  0  0  0  0
 37 26  1  0  0  0  0
 38 29  1  0  0  0  0
 39 30  1  0  0  0  0
 40 49  1  0  0  0  0
 40 50  1  0  0  0  0
 41 43  1  0  0  0  0
 41 51  1  0  0  0  0
 41 40  1  0  0  0  0
 42 41  1  0  0  0  0
 43 55  1  6  0  0  0
 43 44  1  0  0  0  0
 44 56  1  0  0  0  0
 44 27  1  0  0  0  0
 45 47  1  0  0  0  0
 45 43  1  0  0  0  0
 46 45  2  0  0  0  0
 48 40  1  0  0  0  0
 52 42  1  0  0  0  0
 53 42  1  0  0  0  0
 54 42  1  0  0  0  0
M  END
$$$$
