MYW.pdb
 OpenBabel07022418573D

 64 66  0  0  1  0  0  0  0  0999 V2000
    4.5940   -0.5720    5.5830 C   0  0  0  0  0  0  0  0  0  0  0  0
    5.5660   -0.2110    4.1100 S   0  0  0  0  0  0  0  0  0  0  0  0
    4.7590   -0.9530    2.6660 C   0  0  0  0  0  0  0  0  0  0  0  0
    3.4290   -0.3000    2.3830 C   0  0  0  0  0  0  0  0  0  0  0  0
    3.6370    1.1810    2.1090 C   0  0  2  0  0  0  0  0  0  0  0  0
    4.2400    1.8260    3.2390 N   0  0  0  0  0  0  0  0  0  0  0  0
    2.3710    1.8610    1.7770 C   0  0  0  0  0  0  0  0  0  0  0  0
    1.9910    2.8730    2.4550 O   0  0  0  0  0  0  0  0  0  0  0  0
    3.8840    0.2490    5.8370 H   0  0  0  0  0  0  0  0  0  0  0  0
    3.9910   -1.4940    5.3770 H   0  0  0  0  0  0  0  0  0  0  0  0
    5.2300   -0.8360    6.4590 H   0  0  0  0  0  0  0  0  0  0  0  0
    5.3990   -0.8180    1.7510 H   0  0  0  0  0  0  0  0  0  0  0  0
    4.6320   -2.0220    2.8310 H   0  0  0  0  0  0  0  0  0  0  0  0
    2.9900   -0.8110    1.5040 H   0  0  0  0  0  0  0  0  0  0  0  0
    2.7180   -0.4620    3.2180 H   0  0  0  0  0  0  0  0  0  0  0  0
    4.2960    1.2490    1.2030 H   0  0  0  0  0  0  0  0  0  0  0  0
    5.1580    2.2510    2.9640 H   0  0  0  0  0  0  0  0  0  0  0  0
    3.6550    2.6200    3.6250 H   0  0  0  0  0  0  0  0  0  0  0  0
    1.0460   -1.5590   -4.7530 O   0  0  0  0  0  0  0  0  0  0  0  0
    0.8650   -0.5270   -3.8300 C   0  0  0  0  0  0  0  0  0  0  0  0
   -0.3770   -0.0850   -3.4650 C   0  0  0  0  0  0  0  0  0  0  0  0
   -0.5520    0.9330   -2.5540 C   0  0  0  0  0  0  0  0  0  0  0  0
    0.5350    1.5480   -1.9710 C   0  0  0  0  0  0  0  0  0  0  0  0
    0.3900    2.6440   -0.9850 C   0  0  0  0  0  0  0  0  0  0  0  0
    0.3200    2.1270    0.4390 C   0  0  2  0  0  0  0  0  0  0  0  0
    1.5520    1.4060    0.7040 N   0  0  0  0  0  0  0  0  0  0  0  0
   -0.8620    1.2330    0.5310 C   0  0  0  0  0  0  0  0  0  0  0  0
   -2.0090    1.6970    0.3360 O   0  0  0  0  0  0  0  0  0  0  0  0
    1.7860    1.1110   -2.3300 C   0  0  0  0  0  0  0  0  0  0  0  0
    1.9620    0.0940   -3.2410 C   0  0  0  0  0  0  0  0  0  0  0  0
    0.3510   -2.3120   -4.8440 H   0  0  0  0  0  0  0  0  0  0  0  0
   -1.2450   -0.5720   -3.9270 H   0  0  0  0  0  0  0  0  0  0  0  0
   -1.5650    1.2200   -2.3250 H   0  0  0  0  0  0  0  0  0  0  0  0
   -0.5480    3.2270   -1.1830 H   0  0  0  0  0  0  0  0  0  0  0  0
    1.2300    3.3790   -1.0990 H   0  0  0  0  0  0  0  0  0  0  0  0
    0.1830    2.9720    1.1260 H   0  0  0  0  0  0  0  0  0  0  0  0
    1.8640    0.5910    0.1640 H   0  0  0  0  0  0  0  0  0  0  0  0
    2.6510    1.5710   -1.8920 H   0  0  0  0  0  0  0  0  0  0  0  0
    2.9440   -0.2650   -3.5370 H   0  0  0  0  0  0  0  0  0  0  0  0
   -0.7750   -0.1580    0.8340 N   0  0  0  0  0  0  0  0  0  0  0  0
   -1.9580   -1.0030    0.9140 C   0  0  1  0  0  0  0  0  0  0  0  0
   -1.8220   -2.1710   -0.0730 C   0  0  0  0  0  0  0  0  0  0  0  0
   -3.0140   -3.0420   -0.0080 C   0  0  0  0  0  0  0  0  0  0  0  0
   -3.1880   -4.2680    0.5770 C   0  0  0  0  0  0  0  0  0  0  0  0
   -4.4470   -4.7010    0.3910 N   0  0  0  0  0  0  0  0  0  0  0  0
   -5.0830   -3.7410   -0.3190 C   0  0  0  0  0  0  0  0  0  0  0  0
   -6.3940   -3.6410   -0.8020 C   0  0  0  0  0  0  0  0  0  0  0  0
   -6.8100   -2.5360   -1.5170 C   0  0  0  0  0  0  0  0  0  0  0  0
   -5.9430   -1.4970   -1.7780 C   0  0  0  0  0  0  0  0  0  0  0  0
   -4.6490   -1.5780   -1.3110 C   0  0  0  0  0  0  0  0  0  0  0  0
   -4.2300   -2.6910   -0.5900 C   0  0  0  0  0  0  0  0  0  0  0  0
   -2.1230   -1.5320    2.3000 C   0  0  0  0  0  0  0  0  0  0  0  0
   -3.0790   -2.2740    2.5690 O   0  0  0  0  0  0  0  0  0  0  0  0
   -1.1950   -1.1870    3.2900 O   0  0  0  0  0  0  0  0  0  0  0  0
    0.1820   -0.5370    0.9960 H   0  0  0  0  0  0  0  0  0  0  0  0
   -2.8700   -0.4130    0.7010 H   0  0  0  0  0  0  0  0  0  0  0  0
   -1.5960   -1.7810   -1.0670 H   0  0  0  0  0  0  0  0  0  0  0  0
   -0.9520   -2.7750    0.2790 H   0  0  0  0  0  0  0  0  0  0  0  0
   -2.4170   -4.8180    1.1170 H   0  0  0  0  0  0  0  0  0  0  0  0
   -4.9140   -5.5830    0.7000 H   0  0  0  0  0  0  0  0  0  0  0  0
   -7.1000   -4.4460   -0.6110 H   0  0  0  0  0  0  0  0  0  0  0  0
   -7.8420   -2.4690   -1.8900 H   0  0  0  0  0  0  0  0  0  0  0  0
   -6.2140   -0.6080   -2.3330 H   0  0  0  0  0  0  0  0  0  0  0  0
   -3.9230   -0.7970   -1.4820 H   0  0  0  0  0  0  0  0  0  0  0  0
  1  9  1  0  0  0  0
  1 11  1  0  0  0  0
  2  1  1  0  0  0  0
  3 13  1  0  0  0  0
  3  2  1  0  0  0  0
  4  3  1  0  0  0  0
  4 15  1  0  0  0  0
  5 16  1  6  0  0  0
  5  4  1  0  0  0  0
  5  6  1  0  0  0  0
  6 18  1  0  0  0  0
  7  5  1  0  0  0  0
  7  8  2  0  0  0  0
 10  1  1  0  0  0  0
 12  3  1  0  0  0  0
 14  4  1  0  0  0  0
 17  6  1  0  0  0  0
 19 20  1  0  0  0  0
 20 21  2  0  0  0  0
 20 30  1  0  0  0  0
 21 22  1  0  0  0  0
 22 33  1  0  0  0  0
 22 23  2  0  0  0  0
 23 24  1  0  0  0  0
 24 25  1  0  0  0  0
 25 27  1  0  0  0  0
 25 26  1  0  0  0  0
 25 36  1  1  0  0  0
 26  7  1  0  0  0  0
 27 40  1  0  0  0  0
 28 27  2  0  0  0  0
 29 23  1  0  0  0  0
 29 38  1  0  0  0  0
 30 29  2  0  0  0  0
 31 19  1  0  0  0  0
 32 21  1  0  0  0  0
 34 24  1  0  0  0  0
 35 24  1  0  0  0  0
 37 26  1  0  0  0  0
 39 30  1  0  0  0  0
 40 41  1  0  0  0  0
 40 55  1  0  0  0  0
 41 56  1  6  0  0  0
 41 52  1  0  0  0  0
 42 43  1  0  0  0  0
 42 58  1  0  0  0  0
 42 41  1  0  0  0  0
 43 44  2  0  0  0  0
 44 59  1  0  0  0  0
 45 44  1  0  0  0  0
 45 60  1  0  0  0  0
 46 45  1  0  0  0  0
 47 61  1  0  0  0  0
 47 46  2  0  0  0  0
 48 47  1  0  0  0  0
 49 48  2  0  0  0  0
 49 50  1  0  0  0  0
 50 51  2  0  0  0  0
 51 46  1  0  0  0  0
 51 43  1  0  0  0  0
 52 53  2  0  0  0  0
 52 54  1  0  0  0  0
 57 42  1  0  0  0  0
 62 48  1  0  0  0  0
 63 49  1  0  0  0  0
 64 50  1  0  0  0  0
M  END
$$$$
