MYY.pdb
 OpenBabel07022418573D

 61 62  0  0  1  0  0  0  0  0999 V2000
    4.3300    0.0680    7.6570 C   0  0  0  0  0  0  0  0  0  0  0  0
    2.7110   -0.0720    6.8880 S   0  0  0  0  0  0  0  0  0  0  0  0
    2.8770    0.0940    5.0810 C   0  0  0  0  0  0  0  0  0  0  0  0
    3.6620   -1.1060    4.5710 C   0  0  0  0  0  0  0  0  0  0  0  0
    3.8310   -1.0200    3.0580 C   0  0  2  0  0  0  0  0  0  0  0  0
    4.5350    0.1650    2.6890 N   0  0  0  0  0  0  0  0  0  0  0  0
    2.5350   -1.1880    2.3660 C   0  0  0  0  0  0  0  0  0  0  0  0
    1.8160   -2.1960    2.6080 O   0  0  0  0  0  0  0  0  0  0  0  0
    4.3400    0.8110    8.4800 H   0  0  0  0  0  0  0  0  0  0  0  0
    4.5890   -0.9110    8.1360 H   0  0  0  0  0  0  0  0  0  0  0  0
    5.0940    0.2460    6.8920 H   0  0  0  0  0  0  0  0  0  0  0  0
    1.8870    0.1660    4.5900 H   0  0  0  0  0  0  0  0  0  0  0  0
    3.4340    1.0170    4.8560 H   0  0  0  0  0  0  0  0  0  0  0  0
    4.6210   -1.1720    5.0900 H   0  0  0  0  0  0  0  0  0  0  0  0
    3.1090   -2.0480    4.7670 H   0  0  0  0  0  0  0  0  0  0  0  0
    4.4730   -1.9030    2.7740 H   0  0  0  0  0  0  0  0  0  0  0  0
    3.9880    1.0340    2.6720 H   0  0  0  0  0  0  0  0  0  0  0  0
    5.1460    0.0390    1.8550 H   0  0  0  0  0  0  0  0  0  0  0  0
   -5.4190    1.2110   -0.7140 O   0  0  0  0  0  0  0  0  0  0  0  0
   -4.1110    1.0650   -0.2230 C   0  0  0  0  0  0  0  0  0  0  0  0
   -3.0590    1.7720   -0.7660 C   0  0  0  0  0  0  0  0  0  0  0  0
   -1.7750    1.6270   -0.2830 C   0  0  0  0  0  0  0  0  0  0  0  0
   -1.4780    0.7680    0.7670 C   0  0  0  0  0  0  0  0  0  0  0  0
   -0.1120    0.6550    1.2490 C   0  0  0  0  0  0  0  0  0  0  0  0
    0.7510   -0.4210    0.7310 C   0  0  2  0  0  0  0  0  0  0  0  0
    2.0520   -0.2520    1.4250 N   0  0  0  0  0  0  0  0  0  0  0  0
    0.9500   -0.5550   -0.6990 C   0  0  0  0  0  0  0  0  0  0  0  0
    2.0860   -0.4290   -1.2650 O   0  0  0  0  0  0  0  0  0  0  0  0
   -2.5450    0.0620    1.3040 C   0  0  0  0  0  0  0  0  0  0  0  0
   -3.8210    0.2110    0.8180 C   0  0  0  0  0  0  0  0  0  0  0  0
   -5.4860    1.4690   -1.6970 H   0  0  0  0  0  0  0  0  0  0  0  0
   -3.2920    2.4440   -1.5880 H   0  0  0  0  0  0  0  0  0  0  0  0
   -0.9830    2.2060   -0.7450 H   0  0  0  0  0  0  0  0  0  0  0  0
    0.4180    1.6370    1.1640 H   0  0  0  0  0  0  0  0  0  0  0  0
   -0.1890    0.4930    2.3700 H   0  0  0  0  0  0  0  0  0  0  0  0
    0.3480   -1.3980    1.1270 H   0  0  0  0  0  0  0  0  0  0  0  0
    2.6390    0.5850    1.2170 H   0  0  0  0  0  0  0  0  0  0  0  0
   -2.2950   -0.6030    2.1220 H   0  0  0  0  0  0  0  0  0  0  0  0
   -4.6020   -0.3660    1.2810 H   0  0  0  0  0  0  0  0  0  0  0  0
   -5.6180   -3.6150   -1.8850 O   0  0  0  0  0  0  0  0  0  0  0  0
   -4.3020   -3.3320   -2.2330 C   0  0  0  0  0  0  0  0  0  0  0  0
   -3.2900   -3.5220   -1.3180 C   0  0  0  0  0  0  0  0  0  0  0  0
   -1.9950   -3.2430   -1.6630 C   0  0  0  0  0  0  0  0  0  0  0  0
   -1.6940   -2.7750   -2.9120 C   0  0  0  0  0  0  0  0  0  0  0  0
   -0.2810   -2.4600   -3.3200 C   0  0  0  0  0  0  0  0  0  0  0  0
    0.0400   -1.0000   -2.9970 C   0  0  2  0  0  0  0  0  0  0  0  0
   -0.1260   -0.8460   -1.5680 N   0  0  0  0  0  0  0  0  0  0  0  0
   -0.6580   -0.0600   -3.8390 C   0  0  0  0  0  0  0  0  0  0  0  0
   -0.5250   -0.1940   -5.1010 O   0  0  0  0  0  0  0  0  0  0  0  0
   -2.7070   -2.5880   -3.8220 C   0  0  0  0  0  0  0  0  0  0  0  0
   -4.0240   -2.8610   -3.5030 C   0  0  0  0  0  0  0  0  0  0  0  0
   -1.4610    0.9770   -3.4330 O   0  0  0  0  0  0  0  0  0  0  0  0
   -6.1950   -2.9660   -1.4020 H   0  0  0  0  0  0  0  0  0  0  0  0
   -3.5530   -3.8980   -0.3170 H   0  0  0  0  0  0  0  0  0  0  0  0
   -1.1960   -3.3970   -0.9270 H   0  0  0  0  0  0  0  0  0  0  0  0
   -0.1820   -2.6030   -4.4020 H   0  0  0  0  0  0  0  0  0  0  0  0
    0.3940   -3.1460   -2.7890 H   0  0  0  0  0  0  0  0  0  0  0  0
    1.1460   -0.8840   -3.2030 H   0  0  0  0  0  0  0  0  0  0  0  0
   -1.0980   -0.9720   -1.2150 H   0  0  0  0  0  0  0  0  0  0  0  0
   -2.4990   -2.2130   -4.8370 H   0  0  0  0  0  0  0  0  0  0  0  0
   -4.8210   -2.7080   -4.2350 H   0  0  0  0  0  0  0  0  0  0  0  0
  1 10  1  0  0  0  0
  1  9  1  0  0  0  0
  2  1  1  0  0  0  0
  3  2  1  0  0  0  0
  4 15  1  0  0  0  0
  4  3  1  0  0  0  0
  4 14  1  0  0  0  0
  5 16  1  6  0  0  0
  5  4  1  0  0  0  0
  6  5  1  0  0  0  0
  7  8  2  0  0  0  0
  7  5  1  0  0  0  0
 11  1  1  0  0  0  0
 12  3  1  0  0  0  0
 13  3  1  0  0  0  0
 17  6  1  0  0  0  0
 18  6  1  0  0  0  0
 19 20  1  0  0  0  0
 20 30  1  0  0  0  0
 21 22  1  0  0  0  0
 21 20  2  0  0  0  0
 22 23  2  0  0  0  0
 23 24  1  0  0  0  0
 23 29  1  0  0  0  0
 24 35  1  0  0  0  0
 25 36  1  1  0  0  0
 25 24  1  0  0  0  0
 25 26  1  0  0  0  0
 26  7  1  0  0  0  0
 27 25  1  0  0  0  0
 28 27  2  0  0  0  0
 29 38  1  0  0  0  0
 30 39  1  0  0  0  0
 30 29  2  0  0  0  0
 31 19  1  0  0  0  0
 32 21  1  0  0  0  0
 33 22  1  0  0  0  0
 34 24  1  0  0  0  0
 37 26  1  0  0  0  0
 40 53  1  0  0  0  0
 41 40  1  0  0  0  0
 41 42  1  0  0  0  0
 42 54  1  0  0  0  0
 43 42  2  0  0  0  0
 43 55  1  0  0  0  0
 44 43  1  0  0  0  0
 45 46  1  0  0  0  0
 45 44  1  0  0  0  0
 45 57  1  0  0  0  0
 46 58  1  6  0  0  0
 46 47  1  0  0  0  0
 47 59  1  0  0  0  0
 47 27  1  0  0  0  0
 48 52  1  0  0  0  0
 48 46  1  0  0  0  0
 49 48  2  0  0  0  0
 50 51  1  0  0  0  0
 50 44  2  0  0  0  0
 51 41  2  0  0  0  0
 56 45  1  0  0  0  0
 60 50  1  0  0  0  0
 61 51  1  0  0  0  0
M  END
$$$$
