NAC.pdb
 OpenBabel07022418083D

 37 36  0  0  1  0  0  0  0  0999 V2000
   -1.6090   -6.3220    1.9960 N   0  0  0  0  0  0  0  0  0  0  0  0
   -1.1490   -5.3750    1.0420 C   0  0  0  0  0  0  0  0  0  0  0  0
   -1.9630   -4.9690    0.1870 O   0  0  0  0  0  0  0  0  0  0  0  0
    0.2380   -4.8830    1.0500 C   0  0  0  0  0  0  0  0  0  0  0  0
    0.5490   -3.8250    0.0370 C   0  0  2  0  0  0  0  0  0  0  0  0
    1.9870   -3.5190    0.2210 N   0  0  0  0  0  0  0  0  0  0  0  0
   -0.1380   -2.5410    0.3650 C   0  0  0  0  0  0  0  0  0  0  0  0
   -1.3820   -2.4830    0.2420 O   0  0  0  0  0  0  0  0  0  0  0  0
   -1.0810   -6.5040    2.8900 H   0  0  0  0  0  0  0  0  0  0  0  0
   -2.4730   -6.8650    1.8510 H   0  0  0  0  0  0  0  0  0  0  0  0
    0.9780   -5.7330    0.9970 H   0  0  0  0  0  0  0  0  0  0  0  0
    0.4330   -4.4390    2.0750 H   0  0  0  0  0  0  0  0  0  0  0  0
    0.3720   -4.1820   -0.9760 H   0  0  0  0  0  0  0  0  0  0  0  0
    2.5660   -4.2530   -0.2390 H   0  0  0  0  0  0  0  0  0  0  0  0
    2.1280   -3.4870    1.2550 H   0  0  0  0  0  0  0  0  0  0  0  0
    0.0810    0.0970    2.6050 C   0  0  0  0  0  0  0  0  0  0  0  0
   -0.1320   -0.1490    1.1220 C   0  0  2  0  0  0  0  0  0  0  0  0
    0.5460   -1.3820    0.8080 N   0  0  0  0  0  0  0  0  0  0  0  0
    0.4460    0.9970    0.3540 C   0  0  0  0  0  0  0  0  0  0  0  0
    1.4000    0.8160   -0.4400 O   0  0  0  0  0  0  0  0  0  0  0  0
    1.0690   -0.3220    2.9140 H   0  0  0  0  0  0  0  0  0  0  0  0
    0.0540    1.1520    2.8780 H   0  0  0  0  0  0  0  0  0  0  0  0
   -0.6800   -0.5260    3.1420 H   0  0  0  0  0  0  0  0  0  0  0  0
   -1.2300   -0.2220    0.9690 H   0  0  0  0  0  0  0  0  0  0  0  0
    1.5740   -1.4220    0.9120 H   0  0  0  0  0  0  0  0  0  0  0  0
   -0.0560    2.3160    0.4900 N   0  0  0  0  0  0  0  0  0  0  0  0
    0.5500    3.3700   -0.2810 C   0  0  1  0  0  0  0  0  0  0  0  0
   -0.4790    4.0230   -1.2070 C   0  0  0  0  0  0  0  0  0  0  0  0
    0.2810    5.3310   -2.1600 S   0  0  0  0  0  0  0  0  0  0  0  0
    1.0400    4.4080    0.6590 C   0  0  0  0  0  0  0  0  0  0  0  0
    1.6200    5.4580    0.2500 O   0  0  0  0  0  0  0  0  0  0  0  0
    0.8790    4.2670    2.0310 O   0  0  0  0  0  0  0  0  0  0  0  0
   -0.8550    2.5260    1.1400 H   0  0  0  0  0  0  0  0  0  0  0  0
    1.3740    3.0240   -0.9160 H   0  0  0  0  0  0  0  0  0  0  0  0
   -1.2870    4.4020   -0.5290 H   0  0  0  0  0  0  0  0  0  0  0  0
   -0.8890    3.2290   -1.8720 H   0  0  0  0  0  0  0  0  0  0  0  0
    1.6300    5.1190   -2.4390 H   0  0  0  0  0  0  0  0  0  0  0  0
  1  9  1  0  0  0  0
  2  4  1  0  0  0  0
  2  1  1  0  0  0  0
  3  2  2  0  0  0  0
  4 12  1  0  0  0  0
  5 13  1  6  0  0  0
  5  6  1  0  0  0  0
  5  7  1  0  0  0  0
  5  4  1  0  0  0  0
  6 15  1  0  0  0  0
  7 18  1  0  0  0  0
  8  7  2  0  0  0  0
 10  1  1  0  0  0  0
 11  4  1  0  0  0  0
 14  6  1  0  0  0  0
 16 22  1  0  0  0  0
 16 21  1  0  0  0  0
 16 23  1  0  0  0  0
 17 24  1  6  0  0  0
 17 16  1  0  0  0  0
 18 25  1  0  0  0  0
 18 17  1  0  0  0  0
 19 26  1  0  0  0  0
 19 17  1  0  0  0  0
 20 19  2  0  0  0  0
 26 33  1  0  0  0  0
 27 34  1  6  0  0  0
 27 26  1  0  0  0  0
 27 30  1  0  0  0  0
 28 35  1  0  0  0  0
 28 27  1  0  0  0  0
 29 28  1  0  0  0  0
 30 32  1  0  0  0  0
 31 30  2  0  0  0  0
 36 28  1  0  0  0  0
 37 29  1  0  0  0  0
M  END
$$$$
