NAD.pdb
 OpenBabel07022418083D

 39 38  0  0  1  0  0  0  0  0999 V2000
    1.9570   -5.0640    1.6980 N   0  0  0  0  0  0  0  0  0  0  0  0
    0.8760   -5.4640    0.8570 C   0  0  0  0  0  0  0  0  0  0  0  0
    0.5210   -6.6550    0.8330 O   0  0  0  0  0  0  0  0  0  0  0  0
    0.2210   -4.4120    0.0380 C   0  0  0  0  0  0  0  0  0  0  0  0
    0.8640   -3.0540    0.2730 C   0  0  2  0  0  0  0  0  0  0  0  0
    0.6990   -2.7680    1.6910 N   0  0  0  0  0  0  0  0  0  0  0  0
    0.0700   -2.0730   -0.5130 C   0  0  0  0  0  0  0  0  0  0  0  0
    0.1220   -2.2040   -1.7630 O   0  0  0  0  0  0  0  0  0  0  0  0
    2.8500   -4.8240    1.2110 H   0  0  0  0  0  0  0  0  0  0  0  0
    1.8120   -5.0310    2.7120 H   0  0  0  0  0  0  0  0  0  0  0  0
   -0.8480   -4.4070    0.3310 H   0  0  0  0  0  0  0  0  0  0  0  0
    0.2360   -4.6640   -1.0460 H   0  0  0  0  0  0  0  0  0  0  0  0
    1.9230   -3.0440    0.0260 H   0  0  0  0  0  0  0  0  0  0  0  0
    1.6010   -2.6580    2.1810 H   0  0  0  0  0  0  0  0  0  0  0  0
    0.0030   -3.3620    2.1530 H   0  0  0  0  0  0  0  0  0  0  0  0
   -2.9630   -0.2480   -0.4660 C   0  0  0  0  0  0  0  0  0  0  0  0
   -1.4780   -0.0940   -0.7220 C   0  0  2  0  0  0  0  0  0  0  0  0
   -0.7090   -1.0420    0.0490 N   0  0  0  0  0  0  0  0  0  0  0  0
   -1.0090    1.2950   -0.5360 C   0  0  0  0  0  0  0  0  0  0  0  0
   -1.5500    2.2670   -1.1220 O   0  0  0  0  0  0  0  0  0  0  0  0
   -3.3700   -1.0480   -1.1190 H   0  0  0  0  0  0  0  0  0  0  0  0
   -3.5220    0.6770   -0.7150 H   0  0  0  0  0  0  0  0  0  0  0  0
   -3.1840   -0.4600    0.6010 H   0  0  0  0  0  0  0  0  0  0  0  0
   -1.3230   -0.3470   -1.7960 H   0  0  0  0  0  0  0  0  0  0  0  0
   -0.7150   -0.9810    1.1090 H   0  0  0  0  0  0  0  0  0  0  0  0
    0.0990    1.6260    0.3280 N   0  0  0  0  0  0  0  0  0  0  0  0
    0.5440    2.9680    0.5010 C   0  0  1  0  0  0  0  0  0  0  0  0
    0.3480    3.4140    1.9190 C   0  0  0  0  0  0  0  0  0  0  0  0
    1.0690    2.6240    2.9180 C   0  0  0  0  0  0  0  0  0  0  0  0
    1.7980    1.6630    2.5800 O   0  0  0  0  0  0  0  0  0  0  0  0
    1.9280    3.2060    0.0430 C   0  0  0  0  0  0  0  0  0  0  0  0
    2.3790    4.3780    0.1710 O   0  0  0  0  0  0  0  0  0  0  0  0
    0.9710    2.9090    4.2690 O   0  0  0  0  0  0  0  0  0  0  0  0
    2.7520    2.2620   -0.5040 O   0  0  0  0  0  0  0  0  0  0  0  0
    0.5540    0.8180    0.8180 H   0  0  0  0  0  0  0  0  0  0  0  0
   -0.1080    3.6280   -0.1440 H   0  0  0  0  0  0  0  0  0  0  0  0
   -0.7500    3.4560    2.1670 H   0  0  0  0  0  0  0  0  0  0  0  0
    0.6840    4.4840    2.0540 H   0  0  0  0  0  0  0  0  0  0  0  0
    1.1070    2.1230    4.9240 H   0  0  0  0  0  0  0  0  0  0  0  0
  1 10  1  0  0  0  0
  2  1  1  0  0  0  0
  3  2  2  0  0  0  0
  4  5  1  0  0  0  0
  4 11  1  0  0  0  0
  4  2  1  0  0  0  0
  5 13  1  6  0  0  0
  5  6  1  0  0  0  0
  6 15  1  0  0  0  0
  6 14  1  0  0  0  0
  7 18  1  0  0  0  0
  7  5  1  0  0  0  0
  8  7  2  0  0  0  0
  9  1  1  0  0  0  0
 12  4  1  0  0  0  0
 16 23  1  0  0  0  0
 17 24  1  6  0  0  0
 17 19  1  0  0  0  0
 17 16  1  0  0  0  0
 17 18  1  0  0  0  0
 18 25  1  0  0  0  0
 19 26  1  0  0  0  0
 20 19  2  0  0  0  0
 21 16  1  0  0  0  0
 22 16  1  0  0  0  0
 26 27  1  0  0  0  0
 26 35  1  0  0  0  0
 27 36  1  6  0  0  0
 27 28  1  0  0  0  0
 28 38  1  0  0  0  0
 28 37  1  0  0  0  0
 28 29  1  0  0  0  0
 29 33  1  0  0  0  0
 30 29  2  0  0  0  0
 31 32  1  0  0  0  0
 31 27  1  0  0  0  0
 33 39  1  0  0  0  0
 34 31  2  0  0  0  0
M  END
$$$$
