NAE.pdb
 OpenBabel07022418083D

 42 41  0  0  1  0  0  0  0  0999 V2000
    2.2280   -4.8590    0.9260 N   0  0  0  0  0  0  0  0  0  0  0  0
    2.5830   -3.7790    1.7940 C   0  0  0  0  0  0  0  0  0  0  0  0
    3.6010   -3.9500    2.5130 O   0  0  0  0  0  0  0  0  0  0  0  0
    1.7770   -2.5100    1.8390 C   0  0  0  0  0  0  0  0  0  0  0  0
    2.4330   -1.6050    2.8530 C   0  0  2  0  0  0  0  0  0  0  0  0
    2.4540   -2.2240    4.1620 N   0  0  0  0  0  0  0  0  0  0  0  0
    1.8060   -0.2870    2.9510 C   0  0  0  0  0  0  0  0  0  0  0  0
    1.3990    0.1040    4.0740 O   0  0  0  0  0  0  0  0  0  0  0  0
    2.2100   -5.8450    1.2680 H   0  0  0  0  0  0  0  0  0  0  0  0
    1.9790   -4.6940   -0.0690 H   0  0  0  0  0  0  0  0  0  0  0  0
    0.7360   -2.7320    2.0610 H   0  0  0  0  0  0  0  0  0  0  0  0
    1.8290   -2.0440    0.8430 H   0  0  0  0  0  0  0  0  0  0  0  0
    3.5070   -1.4410    2.5760 H   0  0  0  0  0  0  0  0  0  0  0  0
    2.8050   -1.4890    4.8420 H   0  0  0  0  0  0  0  0  0  0  0  0
    1.4440   -2.3790    4.4460 H   0  0  0  0  0  0  0  0  0  0  0  0
    1.9150    3.0180    1.7180 C   0  0  0  0  0  0  0  0  0  0  0  0
    0.9980    1.8650    2.0570 C   0  0  2  0  0  0  0  0  0  0  0  0
    1.6290    0.5870    1.8460 N   0  0  0  0  0  0  0  0  0  0  0  0
   -0.2860    1.9680    1.2990 C   0  0  0  0  0  0  0  0  0  0  0  0
   -1.0080    2.9890    1.3310 O   0  0  0  0  0  0  0  0  0  0  0  0
    2.4260    2.8910    0.7460 H   0  0  0  0  0  0  0  0  0  0  0  0
    2.6380    3.1920    2.5520 H   0  0  0  0  0  0  0  0  0  0  0  0
    1.2830    3.9260    1.6350 H   0  0  0  0  0  0  0  0  0  0  0  0
    0.7310    1.9720    3.1190 H   0  0  0  0  0  0  0  0  0  0  0  0
    1.9680    0.2620    0.9130 H   0  0  0  0  0  0  0  0  0  0  0  0
   -0.6880    0.8670    0.5220 N   0  0  0  0  0  0  0  0  0  0  0  0
   -1.9130    0.8730   -0.2450 C   0  0  1  0  0  0  0  0  0  0  0  0
   -1.6500    0.8930   -1.7080 C   0  0  0  0  0  0  0  0  0  0  0  0
   -0.8410   -0.1910   -2.2920 C   0  0  0  0  0  0  0  0  0  0  0  0
   -1.2670   -1.5600   -2.1960 C   0  0  0  0  0  0  0  0  0  0  0  0
   -2.2930   -1.9850   -1.6600 O   0  0  0  0  0  0  0  0  0  0  0  0
   -2.9230   -0.0640    0.2410 C   0  0  0  0  0  0  0  0  0  0  0  0
   -4.0700   -0.0700   -0.2550 O   0  0  0  0  0  0  0  0  0  0  0  0
   -0.4360   -2.5440   -2.7720 O   0  0  0  0  0  0  0  0  0  0  0  0
   -2.6200   -0.9470    1.2510 O   0  0  0  0  0  0  0  0  0  0  0  0
   -0.1120   -0.0020    0.4700 H   0  0  0  0  0  0  0  0  0  0  0  0
   -2.3670    1.9140   -0.0310 H   0  0  0  0  0  0  0  0  0  0  0  0
   -2.6480    1.0110   -2.2120 H   0  0  0  0  0  0  0  0  0  0  0  0
   -1.0960    1.8620   -1.9090 H   0  0  0  0  0  0  0  0  0  0  0  0
   -0.7800    0.0470   -3.4110 H   0  0  0  0  0  0  0  0  0  0  0  0
    0.2600   -0.0630   -1.9940 H   0  0  0  0  0  0  0  0  0  0  0  0
   -0.5730   -3.5160   -2.5760 H   0  0  0  0  0  0  0  0  0  0  0  0
  1  9  1  0  0  0  0
  1  2  1  0  0  0  0
  2  4  1  0  0  0  0
  2  3  2  0  0  0  0
  4 11  1  0  0  0  0
  4  5  1  0  0  0  0
  5 13  1  6  0  0  0
  5  7  1  0  0  0  0
  5  6  1  0  0  0  0
  6 15  1  0  0  0  0
  6 14  1  0  0  0  0
  7  8  2  0  0  0  0
 10  1  1  0  0  0  0
 12  4  1  0  0  0  0
 16 17  1  0  0  0  0
 16 22  1  0  0  0  0
 17 24  1  1  0  0  0
 18 17  1  0  0  0  0
 18  7  1  0  0  0  0
 19 20  2  0  0  0  0
 19 17  1  0  0  0  0
 21 16  1  0  0  0  0
 23 16  1  0  0  0  0
 25 18  1  0  0  0  0
 26 19  1  0  0  0  0
 27 37  1  1  0  0  0
 27 32  1  0  0  0  0
 27 26  1  0  0  0  0
 28 27  1  0  0  0  0
 29 30  1  0  0  0  0
 29 41  1  0  0  0  0
 29 28  1  0  0  0  0
 30 31  2  0  0  0  0
 32 35  1  0  0  0  0
 33 32  2  0  0  0  0
 34 42  1  0  0  0  0
 34 30  1  0  0  0  0
 36 26  1  0  0  0  0
 38 28  1  0  0  0  0
 39 28  1  0  0  0  0
 40 29  1  0  0  0  0
M  END
$$$$
