NAG.pdb
 OpenBabel07022418083D

 33 32  0  0  1  0  0  0  0  0999 V2000
    2.0520    0.5750    4.2230 N   0  0  0  0  0  0  0  0  0  0  0  0
    1.7540   -0.4500    3.2850 C   0  0  0  0  0  0  0  0  0  0  0  0
    0.5830   -0.8370    3.2110 O   0  0  0  0  0  0  0  0  0  0  0  0
    2.8370   -0.9780    2.4740 C   0  0  0  0  0  0  0  0  0  0  0  0
    2.4840   -2.0170    1.4420 C   0  0  2  0  0  0  0  0  0  0  0  0
    3.7990   -2.3630    0.8110 N   0  0  0  0  0  0  0  0  0  0  0  0
    1.6850   -1.4870    0.3140 C   0  0  0  0  0  0  0  0  0  0  0  0
    2.2740   -0.9920   -0.7090 O   0  0  0  0  0  0  0  0  0  0  0  0
    1.3240    1.2750    4.5350 H   0  0  0  0  0  0  0  0  0  0  0  0
    3.0030    0.6580    4.6270 H   0  0  0  0  0  0  0  0  0  0  0  0
    3.3010   -0.1360    1.9050 H   0  0  0  0  0  0  0  0  0  0  0  0
    3.6970   -1.3660    3.0990 H   0  0  0  0  0  0  0  0  0  0  0  0
    2.0970   -2.9390    1.8420 H   0  0  0  0  0  0  0  0  0  0  0  0
    4.3230   -2.9190    1.4980 H   0  0  0  0  0  0  0  0  0  0  0  0
    3.6330   -2.9190   -0.0390 H   0  0  0  0  0  0  0  0  0  0  0  0
   -1.1660   -2.0810   -1.5630 C   0  0  0  0  0  0  0  0  0  0  0  0
   -0.4360   -0.9130   -0.9320 C   0  0  2  0  0  0  0  0  0  0  0  0
    0.2760   -1.4660    0.2290 N   0  0  0  0  0  0  0  0  0  0  0  0
   -1.3300    0.1830   -0.5410 C   0  0  0  0  0  0  0  0  0  0  0  0
   -1.3910    0.5220    0.6610 O   0  0  0  0  0  0  0  0  0  0  0  0
   -1.9820   -1.7830   -2.2260 H   0  0  0  0  0  0  0  0  0  0  0  0
   -0.4380   -2.6660   -2.1470 H   0  0  0  0  0  0  0  0  0  0  0  0
   -1.5160   -2.7310   -0.7190 H   0  0  0  0  0  0  0  0  0  0  0  0
    0.3320   -0.5510   -1.6620 H   0  0  0  0  0  0  0  0  0  0  0  0
   -0.3090   -1.8530    0.9690 H   0  0  0  0  0  0  0  0  0  0  0  0
   -2.1300    0.8710   -1.4870 N   0  0  0  0  0  0  0  0  0  0  0  0
   -3.0160    1.9560   -1.1080 C   0  0  0  0  0  0  0  0  0  0  0  0
   -4.0370    1.5240   -0.1310 C   0  0  0  0  0  0  0  0  0  0  0  0
   -4.8760    2.3410    0.2940 O   0  0  0  0  0  0  0  0  0  0  0  0
   -4.0720    0.2250    0.3160 O   0  0  0  0  0  0  0  0  0  0  0  0
   -2.0940    0.5990   -2.5060 H   0  0  0  0  0  0  0  0  0  0  0  0
   -2.4590    2.8030   -0.6560 H   0  0  0  0  0  0  0  0  0  0  0  0
   -3.5470    2.3530   -1.9800 H   0  0  0  0  0  0  0  0  0  0  0  0
  1  9  1  0  0  0  0
  1 10  1  0  0  0  0
  2  1  1  0  0  0  0
  3  2  2  0  0  0  0
  4 12  1  0  0  0  0
  4  2  1  0  0  0  0
  5 13  1  1  0  0  0
  5  4  1  0  0  0  0
  6  5  1  0  0  0  0
  6 14  1  0  0  0  0
  7  5  1  0  0  0  0
  8  7  2  0  0  0  0
 11  4  1  0  0  0  0
 15  6  1  0  0  0  0
 16 17  1  0  0  0  0
 16 23  1  0  0  0  0
 17 24  1  6  0  0  0
 17 19  1  0  0  0  0
 17 18  1  0  0  0  0
 18  7  1  0  0  0  0
 18 25  1  0  0  0  0
 19 20  2  0  0  0  0
 21 16  1  0  0  0  0
 22 16  1  0  0  0  0
 26 27  1  0  0  0  0
 26 19  1  0  0  0  0
 27 32  1  0  0  0  0
 27 28  1  0  0  0  0
 28 29  2  0  0  0  0
 28 30  1  0  0  0  0
 31 26  1  0  0  0  0
 33 27  1  0  0  0  0
M  END
$$$$
