NAH.pdb
 OpenBabel07022418083D

 43 43  0  0  1  0  0  0  0  0999 V2000
    4.4890   -3.5960    2.2360 N   0  0  0  0  0  0  0  0  0  0  0  0
    4.5190   -3.9630    0.8770 C   0  0  0  0  0  0  0  0  0  0  0  0
    5.1360   -4.9840    0.5140 O   0  0  0  0  0  0  0  0  0  0  0  0
    3.8200   -3.1420   -0.1270 C   0  0  0  0  0  0  0  0  0  0  0  0
    3.1590   -1.9760    0.5610 C   0  0  2  0  0  0  0  0  0  0  0  0
    2.2180   -2.5280    1.5240 N   0  0  0  0  0  0  0  0  0  0  0  0
    2.5020   -1.0580   -0.3880 C   0  0  0  0  0  0  0  0  0  0  0  0
    3.1750   -0.5060   -1.2700 O   0  0  0  0  0  0  0  0  0  0  0  0
    5.1220   -2.8810    2.6630 H   0  0  0  0  0  0  0  0  0  0  0  0
    3.7930   -4.0690    2.8490 H   0  0  0  0  0  0  0  0  0  0  0  0
    3.0690   -3.8060   -0.6170 H   0  0  0  0  0  0  0  0  0  0  0  0
    4.5020   -2.8040   -0.9440 H   0  0  0  0  0  0  0  0  0  0  0  0
    3.9230   -1.4150    1.1330 H   0  0  0  0  0  0  0  0  0  0  0  0
    1.7910   -1.7960    2.1050 H   0  0  0  0  0  0  0  0  0  0  0  0
    1.5410   -3.1640    1.0470 H   0  0  0  0  0  0  0  0  0  0  0  0
   -0.6660   -0.7430   -1.8810 C   0  0  0  0  0  0  0  0  0  0  0  0
    0.4020    0.0760   -1.1880 C   0  0  2  0  0  0  0  0  0  0  0  0
    1.1080   -0.8170   -0.2830 N   0  0  0  0  0  0  0  0  0  0  0  0
   -0.3030    1.1540   -0.4190 C   0  0  0  0  0  0  0  0  0  0  0  0
   -0.9680    2.0220   -1.0390 O   0  0  0  0  0  0  0  0  0  0  0  0
   -0.2780   -1.2160   -2.8060 H   0  0  0  0  0  0  0  0  0  0  0  0
   -1.5320   -0.0670   -2.0940 H   0  0  0  0  0  0  0  0  0  0  0  0
   -0.9900   -1.5430   -1.1830 H   0  0  0  0  0  0  0  0  0  0  0  0
    1.1270    0.4780   -1.8970 H   0  0  0  0  0  0  0  0  0  0  0  0
    0.5950   -1.3150    0.4850 H   0  0  0  0  0  0  0  0  0  0  0  0
   -0.2500    1.2340    0.9880 N   0  0  0  0  0  0  0  0  0  0  0  0
   -0.8980    2.2330    1.7830 C   0  0  1  0  0  0  0  0  0  0  0  0
   -2.0080    1.5240    2.5690 C   0  0  0  0  0  0  0  0  0  0  0  0
   -2.9540    0.9090    1.6090 C   0  0  0  0  0  0  0  0  0  0  0  0
   -2.9000   -0.3570    1.0700 C   0  0  0  0  0  0  0  0  0  0  0  0
   -3.9640   -0.5140    0.2350 N   0  0  0  0  0  0  0  0  0  0  0  0
   -4.6680    0.6300    0.2510 C   0  0  0  0  0  0  0  0  0  0  0  0
   -4.0440    1.4760    1.0840 N   0  0  0  0  0  0  0  0  0  0  0  0
   -0.0080    2.9850    2.6530 C   0  0  0  0  0  0  0  0  0  0  0  0
   -0.4610    3.8830    3.3930 O   0  0  0  0  0  0  0  0  0  0  0  0
    1.3470    2.7280    2.6820 O   0  0  0  0  0  0  0  0  0  0  0  0
    0.3070    0.5040    1.4850 H   0  0  0  0  0  0  0  0  0  0  0  0
   -1.4380    2.9170    1.0720 H   0  0  0  0  0  0  0  0  0  0  0  0
   -2.5320    2.3490    3.1240 H   0  0  0  0  0  0  0  0  0  0  0  0
   -1.5960    0.8090    3.2890 H   0  0  0  0  0  0  0  0  0  0  0  0
   -2.1260   -1.0740    1.2990 H   0  0  0  0  0  0  0  0  0  0  0  0
   -4.1430   -1.3950   -0.2950 H   0  0  0  0  0  0  0  0  0  0  0  0
   -5.5660    0.7870   -0.3220 H   0  0  0  0  0  0  0  0  0  0  0  0
  1  9  1  0  0  0  0
  1 10  1  0  0  0  0
  2  1  1  0  0  0  0
  3  2  2  0  0  0  0
  4  5  1  0  0  0  0
  4  2  1  0  0  0  0
  5 13  1  1  0  0  0
  5  6  1  0  0  0  0
  6 14  1  0  0  0  0
  7 18  1  0  0  0  0
  7  5  1  0  0  0  0
  8  7  2  0  0  0  0
 11  4  1  0  0  0  0
 12  4  1  0  0  0  0
 15  6  1  0  0  0  0
 16 17  1  0  0  0  0
 16 23  1  0  0  0  0
 17 24  1  6  0  0  0
 17 19  1  0  0  0  0
 17 18  1  0  0  0  0
 18 25  1  0  0  0  0
 19 26  1  0  0  0  0
 20 19  2  0  0  0  0
 21 16  1  0  0  0  0
 22 16  1  0  0  0  0
 26 37  1  0  0  0  0
 26 27  1  0  0  0  0
 27 38  1  6  0  0  0
 27 28  1  0  0  0  0
 27 34  1  0  0  0  0
 28 39  1  0  0  0  0
 28 40  1  0  0  0  0
 29 28  1  0  0  0  0
 30 41  1  0  0  0  0
 30 29  2  0  0  0  0
 31 32  1  0  0  0  0
 31 30  1  0  0  0  0
 32 33  2  0  0  0  0
 33 29  1  0  0  0  0
 34 36  2  0  0  0  0
 34 35  1  0  0  0  0
 42 31  1  0  0  0  0
 43 32  1  0  0  0  0
M  END
$$$$
