NAL.pdb
 OpenBabel07022418083D

 45 44  0  0  1  0  0  0  0  0999 V2000
   -0.2670   -6.4510   -0.2040 N   0  0  0  0  0  0  0  0  0  0  0  0
   -1.0500   -6.0910   -1.3180 C   0  0  0  0  0  0  0  0  0  0  0  0
   -1.5800   -7.0070   -1.9960 O   0  0  0  0  0  0  0  0  0  0  0  0
   -1.2700   -4.6940   -1.7140 C   0  0  0  0  0  0  0  0  0  0  0  0
   -0.5640   -3.7100   -0.8140 C   0  0  2  0  0  0  0  0  0  0  0  0
   -0.9840   -3.7980    0.5490 N   0  0  0  0  0  0  0  0  0  0  0  0
   -0.7210   -2.3430   -1.3790 C   0  0  0  0  0  0  0  0  0  0  0  0
   -0.3900   -2.1370   -2.5660 O   0  0  0  0  0  0  0  0  0  0  0  0
    0.5720   -7.0400   -0.3270 H   0  0  0  0  0  0  0  0  0  0  0  0
   -0.5300   -6.1250    0.7370 H   0  0  0  0  0  0  0  0  0  0  0  0
   -2.3610   -4.4460   -1.6960 H   0  0  0  0  0  0  0  0  0  0  0  0
   -0.9300   -4.5710   -2.7620 H   0  0  0  0  0  0  0  0  0  0  0  0
    0.5220   -3.9430   -0.8590 H   0  0  0  0  0  0  0  0  0  0  0  0
   -0.2700   -3.4610    1.2250 H   0  0  0  0  0  0  0  0  0  0  0  0
   -1.9120   -3.4070    0.7590 H   0  0  0  0  0  0  0  0  0  0  0  0
   -2.8300    0.5500   -1.1300 C   0  0  0  0  0  0  0  0  0  0  0  0
   -1.4020    0.0790   -1.1260 C   0  0  2  0  0  0  0  0  0  0  0  0
   -1.2290   -1.2520   -0.6380 N   0  0  0  0  0  0  0  0  0  0  0  0
   -0.5070    0.9870   -0.3670 C   0  0  0  0  0  0  0  0  0  0  0  0
   -0.5430    2.2100   -0.6810 O   0  0  0  0  0  0  0  0  0  0  0  0
   -3.2780    0.5880   -0.1310 H   0  0  0  0  0  0  0  0  0  0  0  0
   -3.3930   -0.1340   -1.8040 H   0  0  0  0  0  0  0  0  0  0  0  0
   -2.8530    1.5410   -1.6080 H   0  0  0  0  0  0  0  0  0  0  0  0
   -1.0600    0.0930   -2.1960 H   0  0  0  0  0  0  0  0  0  0  0  0
   -1.5030   -1.4480    0.3650 H   0  0  0  0  0  0  0  0  0  0  0  0
    2.9480    2.2310    4.0360 C   0  0  0  0  0  0  0  0  0  0  0  0
    1.5170    2.4600    3.7530 C   0  0  0  0  0  0  0  0  0  0  0  0
    1.4270    3.9290    3.2480 C   0  0  0  0  0  0  0  0  0  0  0  0
    0.8100    1.5840    2.8030 C   0  0  0  0  0  0  0  0  0  0  0  0
    1.2440    1.5490    1.3950 C   0  0  2  0  0  0  0  0  0  0  0  0
    0.3550    0.5960    0.6520 N   0  0  0  0  0  0  0  0  0  0  0  0
    2.5910    1.0880    1.1100 C   0  0  0  0  0  0  0  0  0  0  0  0
    2.7800   -0.0520    0.5590 O   0  0  0  0  0  0  0  0  0  0  0  0
    3.7470    1.7850    1.3770 O   0  0  0  0  0  0  0  0  0  0  0  0
    3.0620    2.3560    5.1810 H   0  0  0  0  0  0  0  0  0  0  0  0
    3.6510    3.0180    3.6770 H   0  0  0  0  0  0  0  0  0  0  0  0
    3.3200    1.1950    3.8950 H   0  0  0  0  0  0  0  0  0  0  0  0
    0.9540    2.4530    4.7450 H   0  0  0  0  0  0  0  0  0  0  0  0
    1.4910    4.6070    4.1290 H   0  0  0  0  0  0  0  0  0  0  0  0
    0.4800    3.9920    2.7040 H   0  0  0  0  0  0  0  0  0  0  0  0
    2.3020    4.1500    2.6100 H   0  0  0  0  0  0  0  0  0  0  0  0
    0.7380    0.5460    3.2560 H   0  0  0  0  0  0  0  0  0  0  0  0
   -0.2760    1.9320    2.8070 H   0  0  0  0  0  0  0  0  0  0  0  0
    1.0640    2.5790    0.9730 H   0  0  0  0  0  0  0  0  0  0  0  0
    0.4170   -0.3890    0.9400 H   0  0  0  0  0  0  0  0  0  0  0  0
  1 10  1  0  0  0  0
  2  1  1  0  0  0  0
  3  2  2  0  0  0  0
  4 11  1  0  0  0  0
  4  2  1  0  0  0  0
  4  5  1  0  0  0  0
  5 13  1  6  0  0  0
  5  6  1  0  0  0  0
  6 15  1  0  0  0  0
  6 14  1  0  0  0  0
  7  5  1  0  0  0  0
  7 18  1  0  0  0  0
  8  7  2  0  0  0  0
  9  1  1  0  0  0  0
 12  4  1  0  0  0  0
 16 17  1  0  0  0  0
 16 21  1  0  0  0  0
 17 24  1  6  0  0  0
 17 18  1  0  0  0  0
 17 19  1  0  0  0  0
 18 25  1  0  0  0  0
 19 31  1  0  0  0  0
 20 19  2  0  0  0  0
 22 16  1  0  0  0  0
 23 16  1  0  0  0  0
 26 35  1  0  0  0  0
 27 26  1  0  0  0  0
 27 38  1  0  0  0  0
 28 27  1  0  0  0  0
 28 39  1  0  0  0  0
 29 43  1  0  0  0  0
 29 42  1  0  0  0  0
 29 27  1  0  0  0  0
 30 44  1  6  0  0  0
 30 29  1  0  0  0  0
 31 45  1  0  0  0  0
 31 30  1  0  0  0  0
 32 34  1  0  0  0  0
 32 30  1  0  0  0  0
 33 32  2  0  0  0  0
 36 26  1  0  0  0  0
 37 26  1  0  0  0  0
 40 28  1  0  0  0  0
 41 28  1  0  0  0  0
M  END
$$$$
