NAM.pdb
 OpenBabel07022418083D

 43 42  0  0  1  0  0  0  0  0999 V2000
    1.1190   -4.5780   -3.4950 N   0  0  0  0  0  0  0  0  0  0  0  0
    1.2140   -3.6060   -2.4720 C   0  0  0  0  0  0  0  0  0  0  0  0
    0.3580   -3.6220   -1.5580 O   0  0  0  0  0  0  0  0  0  0  0  0
    2.3140   -2.5780   -2.4830 C   0  0  0  0  0  0  0  0  0  0  0  0
    2.1970   -1.6600   -1.2960 C   0  0  2  0  0  0  0  0  0  0  0  0
    2.2950   -2.4560   -0.1050 N   0  0  0  0  0  0  0  0  0  0  0  0
    0.9620   -0.8760   -1.3920 C   0  0  0  0  0  0  0  0  0  0  0  0
    0.7790   -0.1540   -2.3860 O   0  0  0  0  0  0  0  0  0  0  0  0
    1.2010   -4.3470   -4.5150 H   0  0  0  0  0  0  0  0  0  0  0  0
    0.9590   -5.5840   -3.2720 H   0  0  0  0  0  0  0  0  0  0  0  0
    2.2670   -2.0440   -3.4560 H   0  0  0  0  0  0  0  0  0  0  0  0
    3.2640   -3.1470   -2.4740 H   0  0  0  0  0  0  0  0  0  0  0  0
    3.0480   -0.9380   -1.3550 H   0  0  0  0  0  0  0  0  0  0  0  0
    3.1690   -2.2020    0.4050 H   0  0  0  0  0  0  0  0  0  0  0  0
    2.3350   -3.4800   -0.2870 H   0  0  0  0  0  0  0  0  0  0  0  0
   -2.4950   -1.0700   -0.5150 C   0  0  0  0  0  0  0  0  0  0  0  0
   -1.2600   -0.1640   -0.4390 C   0  0  2  0  0  0  0  0  0  0  0  0
   -0.0530   -0.9150   -0.3690 N   0  0  0  0  0  0  0  0  0  0  0  0
   -1.4250    0.9020    0.5420 C   0  0  0  0  0  0  0  0  0  0  0  0
   -2.4390    1.6490    0.6000 O   0  0  0  0  0  0  0  0  0  0  0  0
   -2.5240   -1.7320    0.3670 H   0  0  0  0  0  0  0  0  0  0  0  0
   -2.4510   -1.6110   -1.4730 H   0  0  0  0  0  0  0  0  0  0  0  0
   -3.3660   -0.3850   -0.5620 H   0  0  0  0  0  0  0  0  0  0  0  0
   -1.2440    0.3560   -1.4480 H   0  0  0  0  0  0  0  0  0  0  0  0
    0.1800   -1.5520    0.4230 H   0  0  0  0  0  0  0  0  0  0  0  0
    1.6220   -0.9560    3.4310 C   0  0  0  0  0  0  0  0  0  0  0  0
    0.2470   -0.6470    4.4870 S   0  0  0  0  0  0  0  0  0  0  0  0
   -0.2440    0.9980    4.7740 C   0  0  0  0  0  0  0  0  0  0  0  0
   -0.9640    1.8290    3.8410 C   0  0  0  0  0  0  0  0  0  0  0  0
   -0.5490    2.2160    2.4900 C   0  0  2  0  0  0  0  0  0  0  0  0
   -0.4020    1.1770    1.5380 N   0  0  0  0  0  0  0  0  0  0  0  0
    0.5630    3.2020    2.4700 C   0  0  0  0  0  0  0  0  0  0  0  0
    1.5100    3.0950    1.6860 O   0  0  0  0  0  0  0  0  0  0  0  0
    0.5230    4.2470    3.3480 O   0  0  0  0  0  0  0  0  0  0  0  0
    2.0880    0.0340    3.1430 H   0  0  0  0  0  0  0  0  0  0  0  0
    1.2970   -1.4170    2.4800 H   0  0  0  0  0  0  0  0  0  0  0  0
    2.4180   -1.6040    3.8910 H   0  0  0  0  0  0  0  0  0  0  0  0
    0.6640    1.6080    5.1880 H   0  0  0  0  0  0  0  0  0  0  0  0
   -0.8690    0.9890    5.7570 H   0  0  0  0  0  0  0  0  0  0  0  0
   -1.2650    2.8130    4.3890 H   0  0  0  0  0  0  0  0  0  0  0  0
   -2.0390    1.3950    3.7010 H   0  0  0  0  0  0  0  0  0  0  0  0
   -1.4380    2.8440    2.0980 H   0  0  0  0  0  0  0  0  0  0  0  0
    0.4570    0.6030    1.5210 H   0  0  0  0  0  0  0  0  0  0  0  0
  1 10  1  0  0  0  0
  1  2  1  0  0  0  0
  2  3  2  0  0  0  0
  4 12  1  0  0  0  0
  4  2  1  0  0  0  0
  4  5  1  0  0  0  0
  5 13  1  6  0  0  0
  5  6  1  0  0  0  0
  6 14  1  0  0  0  0
  7  5  1  0  0  0  0
  7 18  1  0  0  0  0
  8  7  2  0  0  0  0
  9  1  1  0  0  0  0
 11  4  1  0  0  0  0
 15  6  1  0  0  0  0
 16 17  1  0  0  0  0
 16 21  1  0  0  0  0
 17 24  1  6  0  0  0
 17 18  1  0  0  0  0
 17 19  1  0  0  0  0
 18 25  1  0  0  0  0
 19 20  2  0  0  0  0
 19 31  1  0  0  0  0
 22 16  1  0  0  0  0
 23 16  1  0  0  0  0
 26 37  1  0  0  0  0
 26 27  1  0  0  0  0
 27 28  1  0  0  0  0
 28 38  1  0  0  0  0
 28 39  1  0  0  0  0
 29 40  1  0  0  0  0
 29 28  1  0  0  0  0
 30 42  1  6  0  0  0
 30 29  1  0  0  0  0
 31 30  1  0  0  0  0
 32 30  1  0  0  0  0
 32 34  1  0  0  0  0
 33 32  2  0  0  0  0
 35 26  1  0  0  0  0
 36 26  1  0  0  0  0
 41 29  1  0  0  0  0
 43 31  1  0  0  0  0
M  END
$$$$
