NAN.pdb
 OpenBabel07022418083D

 40 39  0  0  1  0  0  0  0  0999 V2000
   -2.5730   -5.0290    1.5700 N   0  0  0  0  0  0  0  0  0  0  0  0
   -2.2850   -5.1610    0.1930 C   0  0  0  0  0  0  0  0  0  0  0  0
   -2.9010   -6.0070   -0.4810 O   0  0  0  0  0  0  0  0  0  0  0  0
   -1.2700   -4.3090   -0.4290 C   0  0  0  0  0  0  0  0  0  0  0  0
   -0.6090   -3.3380    0.5060 C   0  0  2  0  0  0  0  0  0  0  0  0
   -1.5960   -2.4620    1.0680 N   0  0  0  0  0  0  0  0  0  0  0  0
    0.3790   -2.5490   -0.2760 C   0  0  0  0  0  0  0  0  0  0  0  0
    1.3550   -3.0810   -0.8600 O   0  0  0  0  0  0  0  0  0  0  0  0
   -2.0970   -5.6840    2.2570 H   0  0  0  0  0  0  0  0  0  0  0  0
   -3.2280   -4.3310    1.9880 H   0  0  0  0  0  0  0  0  0  0  0  0
   -1.7110   -3.7280   -1.2680 H   0  0  0  0  0  0  0  0  0  0  0  0
   -0.4630   -4.9360   -0.8920 H   0  0  0  0  0  0  0  0  0  0  0  0
   -0.1090   -3.8730    1.3540 H   0  0  0  0  0  0  0  0  0  0  0  0
   -1.5590   -2.3620    2.0860 H   0  0  0  0  0  0  0  0  0  0  0  0
   -2.5210   -2.4920    0.6290 H   0  0  0  0  0  0  0  0  0  0  0  0
    0.5230    0.4320   -2.2590 C   0  0  0  0  0  0  0  0  0  0  0  0
    1.1820   -0.3260   -1.1390 C   0  0  2  0  0  0  0  0  0  0  0  0
    0.2530   -1.1440   -0.3940 N   0  0  0  0  0  0  0  0  0  0  0  0
    1.8090    0.6500   -0.2090 C   0  0  0  0  0  0  0  0  0  0  0  0
    2.6660    1.4730   -0.6170 O   0  0  0  0  0  0  0  0  0  0  0  0
   -0.5250    0.6760   -1.9980 H   0  0  0  0  0  0  0  0  0  0  0  0
    1.0670    1.3930   -2.3740 H   0  0  0  0  0  0  0  0  0  0  0  0
    0.6070   -0.0870   -3.2410 H   0  0  0  0  0  0  0  0  0  0  0  0
    1.9680   -0.9580   -1.5680 H   0  0  0  0  0  0  0  0  0  0  0  0
   -0.5400   -0.6530    0.0730 H   0  0  0  0  0  0  0  0  0  0  0  0
    0.7670    4.7330    1.5840 N   0  0  0  0  0  0  0  0  0  0  0  0
    0.3860    3.3860    1.7800 C   0  0  0  0  0  0  0  0  0  0  0  0
   -0.5510    2.9070    1.0810 O   0  0  0  0  0  0  0  0  0  0  0  0
    1.0740    2.5340    2.7940 C   0  0  0  0  0  0  0  0  0  0  0  0
    2.0410    1.6180    2.1220 C   0  0  2  0  0  0  0  0  0  0  0  0
    1.4890    0.7190    1.1740 N   0  0  0  0  0  0  0  0  0  0  0  0
    2.8330    0.8370    3.1240 C   0  0  0  0  0  0  0  0  0  0  0  0
    2.9320   -0.4140    3.0580 O   0  0  0  0  0  0  0  0  0  0  0  0
    3.4960    1.4650    4.1760 O   0  0  0  0  0  0  0  0  0  0  0  0
    0.4210    5.2420    0.7500 H   0  0  0  0  0  0  0  0  0  0  0  0
    1.3870    5.2560    2.2390 H   0  0  0  0  0  0  0  0  0  0  0  0
    0.3620    2.0240    3.4690 H   0  0  0  0  0  0  0  0  0  0  0  0
    1.6570    3.2290    3.4320 H   0  0  0  0  0  0  0  0  0  0  0  0
    2.7850    2.2680    1.5810 H   0  0  0  0  0  0  0  0  0  0  0  0
    0.7760    0.0360    1.5150 H   0  0  0  0  0  0  0  0  0  0  0  0
  1 10  1  0  0  0  0
  1  9  1  0  0  0  0
  2  1  1  0  0  0  0
  3  2  2  0  0  0  0
  4  2  1  0  0  0  0
  4  5  1  0  0  0  0
  5  6  1  0  0  0  0
  5 13  1  1  0  0  0
  6 14  1  0  0  0  0
  7  5  1  0  0  0  0
  8  7  2  0  0  0  0
 11  4  1  0  0  0  0
 12  4  1  0  0  0  0
 15  6  1  0  0  0  0
 16 21  1  0  0  0  0
 16 17  1  0  0  0  0
 17 24  1  6  0  0  0
 17 18  1  0  0  0  0
 17 19  1  0  0  0  0
 18  7  1  0  0  0  0
 18 25  1  0  0  0  0
 19 31  1  0  0  0  0
 20 19  2  0  0  0  0
 22 16  1  0  0  0  0
 23 16  1  0  0  0  0
 26 27  1  0  0  0  0
 26 36  1  0  0  0  0
 27 29  1  0  0  0  0
 28 27  2  0  0  0  0
 29 38  1  0  0  0  0
 29 37  1  0  0  0  0
 30 39  1  6  0  0  0
 30 29  1  0  0  0  0
 30 32  1  0  0  0  0
 31 40  1  0  0  0  0
 31 30  1  0  0  0  0
 32 34  1  0  0  0  0
 33 32  2  0  0  0  0
 35 26  1  0  0  0  0
M  END
$$$$
