NAP.pdb
 OpenBabel07022418083D

 40 40  0  0  1  0  0  0  0  0999 V2000
   -1.3720   -3.6030    1.0840 N   0  0  0  0  0  0  0  0  0  0  0  0
   -0.6890   -4.5690    0.2990 C   0  0  0  0  0  0  0  0  0  0  0  0
   -0.3960   -5.6760    0.8140 O   0  0  0  0  0  0  0  0  0  0  0  0
   -0.3070   -4.3220   -1.1060 C   0  0  0  0  0  0  0  0  0  0  0  0
    1.1720   -3.9940   -1.1920 C   0  0  2  0  0  0  0  0  0  0  0  0
    1.9160   -5.1210   -0.6690 N   0  0  0  0  0  0  0  0  0  0  0  0
    1.4650   -2.8120   -0.3530 C   0  0  0  0  0  0  0  0  0  0  0  0
    2.2290   -2.9410    0.6300 O   0  0  0  0  0  0  0  0  0  0  0  0
   -0.9360   -3.3390    2.0050 H   0  0  0  0  0  0  0  0  0  0  0  0
   -2.2580   -3.1490    0.8130 H   0  0  0  0  0  0  0  0  0  0  0  0
   -0.4930   -5.2160   -1.7600 H   0  0  0  0  0  0  0  0  0  0  0  0
   -0.8600   -3.4670   -1.5280 H   0  0  0  0  0  0  0  0  0  0  0  0
    1.4260   -3.8270   -2.2600 H   0  0  0  0  0  0  0  0  0  0  0  0
    2.1850   -5.7390   -1.4870 H   0  0  0  0  0  0  0  0  0  0  0  0
    2.8410   -4.7430   -0.3270 H   0  0  0  0  0  0  0  0  0  0  0  0
    2.0030    0.6630   -0.5350 C   0  0  0  0  0  0  0  0  0  0  0  0
    1.2390   -0.3720    0.2610 C   0  0  2  0  0  0  0  0  0  0  0  0
    0.9260   -1.5180   -0.5960 N   0  0  0  0  0  0  0  0  0  0  0  0
   -0.0040    0.1910    0.8430 C   0  0  0  0  0  0  0  0  0  0  0  0
   -1.1010   -0.3500    0.5410 O   0  0  0  0  0  0  0  0  0  0  0  0
    2.8490    1.0120    0.0870 H   0  0  0  0  0  0  0  0  0  0  0  0
    2.4550    0.1140   -1.4100 H   0  0  0  0  0  0  0  0  0  0  0  0
    1.3500    1.4970   -0.8650 H   0  0  0  0  0  0  0  0  0  0  0  0
    1.8960   -0.6840    1.0990 H   0  0  0  0  0  0  0  0  0  0  0  0
    0.2930   -1.4200   -1.4190 H   0  0  0  0  0  0  0  0  0  0  0  0
   -0.0510    1.3010    1.7210 N   0  0  0  0  0  0  0  0  0  0  0  0
    1.1280    2.0220    2.1560 C   0  0  0  0  0  0  0  0  0  0  0  0
    0.6790    2.9410    3.2780 C   0  0  0  0  0  0  0  0  0  0  0  0
   -0.6280    2.3400    3.6940 C   0  0  0  0  0  0  0  0  0  0  0  0
   -1.2150    1.9170    2.3400 C   0  0  1  0  0  0  0  0  0  0  0  0
   -1.6170    3.1550    1.6490 C   0  0  0  0  0  0  0  0  0  0  0  0
   -2.5910    3.8650    1.9920 O   0  0  0  0  0  0  0  0  0  0  0  0
   -0.8850    3.5750    0.5520 O   0  0  0  0  0  0  0  0  0  0  0  0
    1.5780    2.6090    1.3260 H   0  0  0  0  0  0  0  0  0  0  0  0
    1.8900    1.3470    2.5960 H   0  0  0  0  0  0  0  0  0  0  0  0
    0.5900    3.9840    2.9010 H   0  0  0  0  0  0  0  0  0  0  0  0
    1.4140    2.9430    4.1170 H   0  0  0  0  0  0  0  0  0  0  0  0
   -1.2600    3.0900    4.1920 H   0  0  0  0  0  0  0  0  0  0  0  0
   -0.4100    1.4540    4.3240 H   0  0  0  0  0  0  0  0  0  0  0  0
   -2.0250    1.2210    2.5500 H   0  0  0  0  0  0  0  0  0  0  0  0
  1  9  1  0  0  0  0
  2  3  2  0  0  0  0
  2  1  1  0  0  0  0
  4  2  1  0  0  0  0
  5 13  1  6  0  0  0
  5  4  1  0  0  0  0
  5  6  1  0  0  0  0
  5  7  1  0  0  0  0
  6 15  1  0  0  0  0
  7  8  2  0  0  0  0
 10  1  1  0  0  0  0
 11  4  1  0  0  0  0
 12  4  1  0  0  0  0
 14  6  1  0  0  0  0
 16 21  1  0  0  0  0
 16 17  1  0  0  0  0
 17 19  1  0  0  0  0
 17 24  1  1  0  0  0
 18  7  1  0  0  0  0
 18 17  1  0  0  0  0
 19 26  1  0  0  0  0
 20 19  2  0  0  0  0
 22 16  1  0  0  0  0
 23 16  1  0  0  0  0
 25 18  1  0  0  0  0
 26 27  1  0  0  0  0
 26 30  1  0  0  0  0
 27 35  1  0  0  0  0
 27 28  1  0  0  0  0
 28 29  1  0  0  0  0
 28 37  1  0  0  0  0
 29 38  1  0  0  0  0
 29 39  1  0  0  0  0
 30 40  1  1  0  0  0
 30 29  1  0  0  0  0
 31 32  1  0  0  0  0
 31 30  1  0  0  0  0
 33 31  2  0  0  0  0
 34 27  1  0  0  0  0
 36 28  1  0  0  0  0
M  END
$$$$
