NAQ.pdb
 OpenBabel07022418083D

 43 42  0  0  1  0  0  0  0  0999 V2000
    0.5530   -4.0110    2.1470 N   0  0  0  0  0  0  0  0  0  0  0  0
    0.9510   -3.8570    0.8130 C   0  0  0  0  0  0  0  0  0  0  0  0
    2.1470   -3.6330    0.5340 O   0  0  0  0  0  0  0  0  0  0  0  0
   -0.0370   -3.9580   -0.2810 C   0  0  0  0  0  0  0  0  0  0  0  0
    0.6220   -3.7600   -1.6190 C   0  0  2  0  0  0  0  0  0  0  0  0
    1.6300   -4.7880   -1.7850 N   0  0  0  0  0  0  0  0  0  0  0  0
    1.1760   -2.4080   -1.7920 C   0  0  0  0  0  0  0  0  0  0  0  0
    2.4030   -2.3080   -2.0510 O   0  0  0  0  0  0  0  0  0  0  0  0
    1.2010   -4.2830    2.9310 H   0  0  0  0  0  0  0  0  0  0  0  0
   -0.4350   -3.8540    2.4180 H   0  0  0  0  0  0  0  0  0  0  0  0
   -0.8400   -3.2190   -0.0850 H   0  0  0  0  0  0  0  0  0  0  0  0
   -0.5020   -4.9620   -0.2320 H   0  0  0  0  0  0  0  0  0  0  0  0
   -0.1430   -3.9160   -2.4110 H   0  0  0  0  0  0  0  0  0  0  0  0
    2.5890   -4.4310   -1.6320 H   0  0  0  0  0  0  0  0  0  0  0  0
    1.4110   -5.6640   -1.2780 H   0  0  0  0  0  0  0  0  0  0  0  0
    0.4120    0.8130   -3.0430 C   0  0  0  0  0  0  0  0  0  0  0  0
    1.0130    0.0850   -1.8620 C   0  0  2  0  0  0  0  0  0  0  0  0
    0.4270   -1.2210   -1.6850 N   0  0  0  0  0  0  0  0  0  0  0  0
    0.9490    0.9000   -0.6210 C   0  0  0  0  0  0  0  0  0  0  0  0
    1.4280    2.0610   -0.6420 O   0  0  0  0  0  0  0  0  0  0  0  0
   -0.5300    0.3110   -3.3750 H   0  0  0  0  0  0  0  0  0  0  0  0
    0.2050    1.8780   -2.8320 H   0  0  0  0  0  0  0  0  0  0  0  0
    1.0940    0.7730   -3.9170 H   0  0  0  0  0  0  0  0  0  0  0  0
    2.0930   -0.0620   -2.0800 H   0  0  0  0  0  0  0  0  0  0  0  0
   -0.5880   -1.2680   -1.4720 H   0  0  0  0  0  0  0  0  0  0  0  0
   -0.4780    4.4700    4.4350 N   0  0  0  0  0  0  0  0  0  0  0  0
   -0.6920    3.5850    3.3460 C   0  0  0  0  0  0  0  0  0  0  0  0
   -0.4570    4.0400    2.2060 O   0  0  0  0  0  0  0  0  0  0  0  0
   -1.1690    2.1940    3.5350 C   0  0  0  0  0  0  0  0  0  0  0  0
   -1.0870    1.3620    2.2950 C   0  0  0  0  0  0  0  0  0  0  0  0
    0.3140    1.2440    1.8140 C   0  0  2  0  0  0  0  0  0  0  0  0
    0.3760    0.4370    0.5860 N   0  0  0  0  0  0  0  0  0  0  0  0
    1.1320    0.5280    2.8100 C   0  0  0  0  0  0  0  0  0  0  0  0
    1.6150   -0.5910    2.5050 O   0  0  0  0  0  0  0  0  0  0  0  0
    1.4230    0.9900    4.0760 O   0  0  0  0  0  0  0  0  0  0  0  0
    0.3770    5.0580    4.4670 H   0  0  0  0  0  0  0  0  0  0  0  0
   -1.1560    4.5490    5.2110 H   0  0  0  0  0  0  0  0  0  0  0  0
   -2.2540    2.3020    3.8640 H   0  0  0  0  0  0  0  0  0  0  0  0
   -0.6350    1.7350    4.3930 H   0  0  0  0  0  0  0  0  0  0  0  0
   -1.7680    1.8410    1.5510 H   0  0  0  0  0  0  0  0  0  0  0  0
   -1.5390    0.3560    2.5380 H   0  0  0  0  0  0  0  0  0  0  0  0
    0.7590    2.2270    1.6720 H   0  0  0  0  0  0  0  0  0  0  0  0
   -0.0180   -0.5260    0.5940 H   0  0  0  0  0  0  0  0  0  0  0  0
  1 10  1  0  0  0  0
  1  9  1  0  0  0  0
  2  1  1  0  0  0  0
  3  2  2  0  0  0  0
  4 12  1  0  0  0  0
  4 11  1  0  0  0  0
  4  2  1  0  0  0  0
  5 13  1  6  0  0  0
  5  4  1  0  0  0  0
  6 14  1  0  0  0  0
  6  5  1  0  0  0  0
  6 15  1  0  0  0  0
  7 18  1  0  0  0  0
  7  5  1  0  0  0  0
  8  7  2  0  0  0  0
 16 22  1  0  0  0  0
 16 17  1  0  0  0  0
 17 24  1  6  0  0  0
 17 18  1  0  0  0  0
 17 19  1  0  0  0  0
 18 25  1  0  0  0  0
 19 32  1  0  0  0  0
 20 19  2  0  0  0  0
 21 16  1  0  0  0  0
 23 16  1  0  0  0  0
 26 36  1  0  0  0  0
 26 37  1  0  0  0  0
 27 29  1  0  0  0  0
 27 26  1  0  0  0  0
 28 27  2  0  0  0  0
 29 38  1  0  0  0  0
 29 39  1  0  0  0  0
 30 41  1  0  0  0  0
 30 29  1  0  0  0  0
 31 42  1  6  0  0  0
 31 30  1  0  0  0  0
 31 33  1  0  0  0  0
 32 43  1  0  0  0  0
 32 31  1  0  0  0  0
 33 35  1  0  0  0  0
 34 33  2  0  0  0  0
 40 30  1  0  0  0  0
M  END
$$$$
