NAR.pdb
 OpenBabel07022418083D

 49 48  0  0  1  0  0  0  0  0999 V2000
    1.8000   -5.3710    2.5430 N   0  0  0  0  0  0  0  0  0  0  0  0
    2.4350   -4.0840    2.5500 C   0  0  0  0  0  0  0  0  0  0  0  0
    3.5440   -3.9910    3.1150 O   0  0  0  0  0  0  0  0  0  0  0  0
    1.7890   -2.9110    1.9050 C   0  0  0  0  0  0  0  0  0  0  0  0
    2.6830   -1.7230    2.0750 C   0  0  2  0  0  0  0  0  0  0  0  0
    2.9140   -1.4200    3.4730 N   0  0  0  0  0  0  0  0  0  0  0  0
    2.2730   -0.5290    1.3420 C   0  0  0  0  0  0  0  0  0  0  0  0
    2.1710    0.5620    1.9610 O   0  0  0  0  0  0  0  0  0  0  0  0
    1.5230   -5.8830    3.3850 H   0  0  0  0  0  0  0  0  0  0  0  0
    1.6110   -5.8050    1.5940 H   0  0  0  0  0  0  0  0  0  0  0  0
    1.6410   -3.1820    0.8400 H   0  0  0  0  0  0  0  0  0  0  0  0
    0.7960   -2.8030    2.3510 H   0  0  0  0  0  0  0  0  0  0  0  0
    3.6930   -2.0270    1.6660 H   0  0  0  0  0  0  0  0  0  0  0  0
    3.1900   -0.4380    3.5970 H   0  0  0  0  0  0  0  0  0  0  0  0
    2.0990   -1.6360    4.0560 H   0  0  0  0  0  0  0  0  0  0  0  0
    2.6020    0.9890   -1.8650 C   0  0  0  0  0  0  0  0  0  0  0  0
    1.5710    0.6510   -0.7830 C   0  0  2  0  0  0  0  0  0  0  0  0
    1.9730   -0.5000   -0.0440 N   0  0  0  0  0  0  0  0  0  0  0  0
    0.2200    0.5010   -1.3650 C   0  0  0  0  0  0  0  0  0  0  0  0
   -0.3410    1.3680   -2.0620 O   0  0  0  0  0  0  0  0  0  0  0  0
    2.9270    0.0610   -2.3760 H   0  0  0  0  0  0  0  0  0  0  0  0
    3.4530    1.4780   -1.3160 H   0  0  0  0  0  0  0  0  0  0  0  0
    2.1470    1.6960   -2.5750 H   0  0  0  0  0  0  0  0  0  0  0  0
    1.5170    1.5780   -0.1390 H   0  0  0  0  0  0  0  0  0  0  0  0
    2.0600   -1.4020   -0.5560 H   0  0  0  0  0  0  0  0  0  0  0  0
   -1.5530    1.6470    4.4570 N   0  0  0  0  0  0  0  0  0  0  0  0
   -1.4630    1.7160    3.0500 C   0  0  0  0  0  0  0  0  0  0  0  0
   -0.4260    2.2660    2.4640 N   0  0  0  0  0  0  0  0  0  0  0  0
   -2.4540    1.2170    2.1740 N   0  0  0  0  0  0  0  0  0  0  0  0
   -2.0670    0.8820    0.7980 C   0  0  0  0  0  0  0  0  0  0  0  0
   -3.2060    0.3810    0.0020 C   0  0  0  0  0  0  0  0  0  0  0  0
   -2.8280    0.0570   -1.4020 C   0  0  0  0  0  0  0  0  0  0  0  0
   -1.7840   -0.9810   -1.6150 C   0  0  2  0  0  0  0  0  0  0  0  0
   -0.4810   -0.7290   -1.1040 N   0  0  0  0  0  0  0  0  0  0  0  0
   -1.7670   -1.4640   -3.0130 C   0  0  0  0  0  0  0  0  0  0  0  0
   -2.8440   -1.7270   -3.5950 O   0  0  0  0  0  0  0  0  0  0  0  0
   -0.5670   -1.6250   -3.6800 O   0  0  0  0  0  0  0  0  0  0  0  0
   -2.1770    2.2830    4.9690 H   0  0  0  0  0  0  0  0  0  0  0  0
   -0.9900    0.9560    4.9700 H   0  0  0  0  0  0  0  0  0  0  0  0
    0.3630    2.6680    3.0110 H   0  0  0  0  0  0  0  0  0  0  0  0
   -3.4200    1.0900    2.4900 H   0  0  0  0  0  0  0  0  0  0  0  0
   -1.3450    0.0430    0.9360 H   0  0  0  0  0  0  0  0  0  0  0  0
   -1.6580    1.7830    0.3400 H   0  0  0  0  0  0  0  0  0  0  0  0
   -3.7040   -0.5160    0.4480 H   0  0  0  0  0  0  0  0  0  0  0  0
   -4.0040    1.1830   -0.0630 H   0  0  0  0  0  0  0  0  0  0  0  0
   -3.7700   -0.3590   -1.8860 H   0  0  0  0  0  0  0  0  0  0  0  0
   -2.6410    0.9890   -1.9920 H   0  0  0  0  0  0  0  0  0  0  0  0
   -2.1710   -1.8680   -0.9860 H   0  0  0  0  0  0  0  0  0  0  0  0
    0.0310   -1.4390   -0.5070 H   0  0  0  0  0  0  0  0  0  0  0  0
  1  2  1  0  0  0  0
  1  9  1  0  0  0  0
  2  3  2  0  0  0  0
  4  5  1  0  0  0  0
  4 12  1  0  0  0  0
  4  2  1  0  0  0  0
  5 13  1  6  0  0  0
  5  6  1  0  0  0  0
  6 14  1  0  0  0  0
  6 15  1  0  0  0  0
  7  8  2  0  0  0  0
  7  5  1  0  0  0  0
 10  1  1  0  0  0  0
 11  4  1  0  0  0  0
 16 22  1  0  0  0  0
 16 17  1  0  0  0  0
 17 24  1  1  0  0  0
 17 18  1  0  0  0  0
 18  7  1  0  0  0  0
 19 34  1  0  0  0  0
 19 17  1  0  0  0  0
 20 19  2  0  0  0  0
 21 16  1  0  0  0  0
 23 16  1  0  0  0  0
 25 18  1  0  0  0  0
 26 38  1  0  0  0  0
 26 39  1  0  0  0  0
 27 26  1  0  0  0  0
 28 40  1  0  0  0  0
 28 27  2  0  0  0  0
 29 41  1  0  0  0  0
 29 27  1  0  0  0  0
 30 42  1  0  0  0  0
 30 29  1  0  0  0  0
 31 44  1  0  0  0  0
 31 30  1  0  0  0  0
 32 31  1  0  0  0  0
 33 32  1  0  0  0  0
 33 34  1  0  0  0  0
 33 48  1  1  0  0  0
 34 49  1  0  0  0  0
 35 33  1  0  0  0  0
 36 35  1  0  0  0  0
 37 35  2  0  0  0  0
 43 30  1  0  0  0  0
 45 31  1  0  0  0  0
 46 32  1  0  0  0  0
 47 32  1  0  0  0  0
M  END
$$$$
