NAT.pdb
 OpenBabel07022418083D

 40 39  0  0  1  0  0  0  0  0999 V2000
   -2.0370   -6.3320    1.0230 N   0  0  0  0  0  0  0  0  0  0  0  0
   -1.1250   -5.2730    0.7810 C   0  0  0  0  0  0  0  0  0  0  0  0
   -0.6100   -5.1720   -0.3500 O   0  0  0  0  0  0  0  0  0  0  0  0
   -0.7880   -4.3090    1.8400 C   0  0  0  0  0  0  0  0  0  0  0  0
    0.1420   -3.2080    1.4310 C   0  0  2  0  0  0  0  0  0  0  0  0
    0.3390   -2.3980    2.6560 N   0  0  0  0  0  0  0  0  0  0  0  0
   -0.4440   -2.2970    0.4070 C   0  0  0  0  0  0  0  0  0  0  0  0
   -0.7200   -2.6330   -0.7670 O   0  0  0  0  0  0  0  0  0  0  0  0
   -2.6780   -6.7260    0.3090 H   0  0  0  0  0  0  0  0  0  0  0  0
   -2.0680   -6.7420    1.9780 H   0  0  0  0  0  0  0  0  0  0  0  0
   -0.3890   -4.8770    2.7270 H   0  0  0  0  0  0  0  0  0  0  0  0
   -1.7290   -3.8470    2.2110 H   0  0  0  0  0  0  0  0  0  0  0  0
    1.1190   -3.6140    1.1700 H   0  0  0  0  0  0  0  0  0  0  0  0
    1.2390   -1.8610    2.5780 H   0  0  0  0  0  0  0  0  0  0  0  0
    0.3610   -3.0420    3.4880 H   0  0  0  0  0  0  0  0  0  0  0  0
   -2.6610    0.5080    0.1290 C   0  0  0  0  0  0  0  0  0  0  0  0
   -1.3030   -0.0290   -0.2470 C   0  0  2  0  0  0  0  0  0  0  0  0
   -0.7440   -0.9170    0.7110 N   0  0  0  0  0  0  0  0  0  0  0  0
   -0.4050    1.0880   -0.5550 C   0  0  0  0  0  0  0  0  0  0  0  0
   -0.7170    1.9840   -1.3900 O   0  0  0  0  0  0  0  0  0  0  0  0
   -2.5000    1.5270    0.5390 H   0  0  0  0  0  0  0  0  0  0  0  0
   -3.1250   -0.0750    0.9620 H   0  0  0  0  0  0  0  0  0  0  0  0
   -3.3390    0.6160   -0.7330 H   0  0  0  0  0  0  0  0  0  0  0  0
   -1.4490   -0.5960   -1.2020 H   0  0  0  0  0  0  0  0  0  0  0  0
   -0.5430   -0.5610    1.6710 H   0  0  0  0  0  0  0  0  0  0  0  0
    2.4920    2.3290    2.2620 C   0  0  0  0  0  0  0  0  0  0  0  0
    1.9970    3.1000    1.0770 C   0  0  1  0  0  0  0  0  0  0  0  0
    2.9120    4.0910    0.7510 O   0  0  0  0  0  0  0  0  0  0  0  0
    1.7870    2.2250   -0.1390 C   0  0  2  0  0  0  0  0  0  0  0  0
    0.8490    1.1640    0.1040 N   0  0  0  0  0  0  0  0  0  0  0  0
    3.0480    1.7020   -0.6810 C   0  0  0  0  0  0  0  0  0  0  0  0
    3.1610    0.4620   -0.8600 O   0  0  0  0  0  0  0  0  0  0  0  0
    4.1320    2.5010   -1.0110 O   0  0  0  0  0  0  0  0  0  0  0  0
    2.4520    1.2270    2.1090 H   0  0  0  0  0  0  0  0  0  0  0  0
    1.8740    2.5300    3.1660 H   0  0  0  0  0  0  0  0  0  0  0  0
    3.5270    2.6640    2.5340 H   0  0  0  0  0  0  0  0  0  0  0  0
    1.0100    3.5510    1.3370 H   0  0  0  0  0  0  0  0  0  0  0  0
    2.9990    4.7020    1.5430 H   0  0  0  0  0  0  0  0  0  0  0  0
    1.3310    2.8970   -0.9150 H   0  0  0  0  0  0  0  0  0  0  0  0
    1.0830    0.4120    0.7900 H   0  0  0  0  0  0  0  0  0  0  0  0
  1 10  1  0  0  0  0
  2  1  1  0  0  0  0
  2  4  1  0  0  0  0
  3  2  2  0  0  0  0
  4 12  1  0  0  0  0
  4 11  1  0  0  0  0
  5 13  1  6  0  0  0
  5  4  1  0  0  0  0
  5  6  1  0  0  0  0
  6 15  1  0  0  0  0
  7 18  1  0  0  0  0
  7  5  1  0  0  0  0
  8  7  2  0  0  0  0
  9  1  1  0  0  0  0
 14  6  1  0  0  0  0
 16 21  1  0  0  0  0
 16 22  1  0  0  0  0
 17 24  1  6  0  0  0
 17 16  1  0  0  0  0
 17 18  1  0  0  0  0
 18 25  1  0  0  0  0
 19 17  1  0  0  0  0
 19 30  1  0  0  0  0
 20 19  2  0  0  0  0
 23 16  1  0  0  0  0
 26 36  1  0  0  0  0
 26 35  1  0  0  0  0
 27 37  1  1  0  0  0
 27 26  1  0  0  0  0
 28 27  1  0  0  0  0
 28 38  1  0  0  0  0
 29 39  1  6  0  0  0
 29 30  1  0  0  0  0
 29 27  1  0  0  0  0
 30 40  1  0  0  0  0
 31 29  1  0  0  0  0
 32 31  1  0  0  0  0
 33 31  2  0  0  0  0
 34 26  1  0  0  0  0
M  END
$$$$
