NAV.pdb
 OpenBabel07022418083D

 42 41  0  0  1  0  0  0  0  0999 V2000
    0.4720   -6.2030    0.8030 N   0  0  0  0  0  0  0  0  0  0  0  0
    1.5530   -5.2840    0.8450 C   0  0  0  0  0  0  0  0  0  0  0  0
    1.9420   -4.9050    1.9960 O   0  0  0  0  0  0  0  0  0  0  0  0
    2.1620   -4.8150   -0.4090 C   0  0  0  0  0  0  0  0  0  0  0  0
    2.2320   -3.2990   -0.4780 C   0  0  2  0  0  0  0  0  0  0  0  0
    3.0110   -2.8200    0.6200 N   0  0  0  0  0  0  0  0  0  0  0  0
    0.8590   -2.7640   -0.5500 C   0  0  0  0  0  0  0  0  0  0  0  0
    0.0920   -3.1600   -1.4930 O   0  0  0  0  0  0  0  0  0  0  0  0
   -0.1730   -6.3690    1.6150 H   0  0  0  0  0  0  0  0  0  0  0  0
    0.2710   -6.7610   -0.0630 H   0  0  0  0  0  0  0  0  0  0  0  0
    3.2350   -5.1550   -0.4800 H   0  0  0  0  0  0  0  0  0  0  0  0
    1.6510   -5.2240   -1.2750 H   0  0  0  0  0  0  0  0  0  0  0  0
    2.8100   -3.0430   -1.4200 H   0  0  0  0  0  0  0  0  0  0  0  0
    3.8910   -3.3400    0.7490 H   0  0  0  0  0  0  0  0  0  0  0  0
    2.4790   -2.7180    1.4990 H   0  0  0  0  0  0  0  0  0  0  0  0
   -1.8570   -1.9770    1.3610 C   0  0  0  0  0  0  0  0  0  0  0  0
   -1.0740   -1.3700    0.1800 C   0  0  2  0  0  0  0  0  0  0  0  0
    0.2960   -1.8220    0.3570 N   0  0  0  0  0  0  0  0  0  0  0  0
   -1.2220    0.0950    0.2740 C   0  0  0  0  0  0  0  0  0  0  0  0
   -2.3780    0.5830    0.0990 O   0  0  0  0  0  0  0  0  0  0  0  0
   -1.1700   -2.3670    2.1290 H   0  0  0  0  0  0  0  0  0  0  0  0
   -2.5050   -2.8090    0.9900 H   0  0  0  0  0  0  0  0  0  0  0  0
   -2.4930   -1.2020    1.8410 H   0  0  0  0  0  0  0  0  0  0  0  0
   -1.4620   -1.8200   -0.7430 H   0  0  0  0  0  0  0  0  0  0  0  0
    0.9060   -1.4800    1.1390 H   0  0  0  0  0  0  0  0  0  0  0  0
    1.0430    2.6970    2.6690 C   0  0  0  0  0  0  0  0  0  0  0  0
   -0.2920    2.9460    2.0520 C   0  0  0  0  0  0  0  0  0  0  0  0
   -0.6070    4.4170    2.1790 C   0  0  0  0  0  0  0  0  0  0  0  0
   -0.4150    2.4450    0.6260 C   0  0  2  0  0  0  0  0  0  0  0  0
   -0.2000    1.0260    0.5440 N   0  0  0  0  0  0  0  0  0  0  0  0
    0.4000    3.2680   -0.2530 C   0  0  0  0  0  0  0  0  0  0  0  0
    1.2580    2.8240   -1.0520 O   0  0  0  0  0  0  0  0  0  0  0  0
    0.2170    4.6390   -0.2040 O   0  0  0  0  0  0  0  0  0  0  0  0
    1.8410    3.2160    2.1270 H   0  0  0  0  0  0  0  0  0  0  0  0
    0.9970    3.1390    3.7010 H   0  0  0  0  0  0  0  0  0  0  0  0
    1.2570    1.6180    2.8280 H   0  0  0  0  0  0  0  0  0  0  0  0
   -1.0470    2.4090    2.7000 H   0  0  0  0  0  0  0  0  0  0  0  0
    0.3020    5.0520    2.1060 H   0  0  0  0  0  0  0  0  0  0  0  0
   -0.9610    4.5810    3.2390 H   0  0  0  0  0  0  0  0  0  0  0  0
   -1.4260    4.7510    1.5280 H   0  0  0  0  0  0  0  0  0  0  0  0
   -1.5020    2.6100    0.3610 H   0  0  0  0  0  0  0  0  0  0  0  0
    0.7650    0.6660    0.6910 H   0  0  0  0  0  0  0  0  0  0  0  0
  1  2  1  0  0  0  0
  1  9  1  0  0  0  0
  2  3  2  0  0  0  0
  4  2  1  0  0  0  0
  5 13  1  6  0  0  0
  5  4  1  0  0  0  0
  5  6  1  0  0  0  0
  6 14  1  0  0  0  0
  6 15  1  0  0  0  0
  7  5  1  0  0  0  0
  7 18  1  0  0  0  0
  8  7  2  0  0  0  0
 10  1  1  0  0  0  0
 11  4  1  0  0  0  0
 12  4  1  0  0  0  0
 16 23  1  0  0  0  0
 16 21  1  0  0  0  0
 17 24  1  6  0  0  0
 17 19  1  0  0  0  0
 17 18  1  0  0  0  0
 17 16  1  0  0  0  0
 18 25  1  0  0  0  0
 19 30  1  0  0  0  0
 20 19  2  0  0  0  0
 22 16  1  0  0  0  0
 26 36  1  0  0  0  0
 26 35  1  0  0  0  0
 27 28  1  0  0  0  0
 27 26  1  0  0  0  0
 27 37  1  0  0  0  0
 28 39  1  0  0  0  0
 29 41  1  6  0  0  0
 29 27  1  0  0  0  0
 30 29  1  0  0  0  0
 30 42  1  0  0  0  0
 31 33  1  0  0  0  0
 31 29  1  0  0  0  0
 32 31  2  0  0  0  0
 34 26  1  0  0  0  0
 38 28  1  0  0  0  0
 40 28  1  0  0  0  0
M  END
$$$$
