NAY.pdb
 OpenBabel07022418083D

 47 47  0  0  1  0  0  0  0  0999 V2000
    6.3930   -3.6180    0.5670 N   0  0  0  0  0  0  0  0  0  0  0  0
    5.0870   -3.6760   -0.0520 C   0  0  0  0  0  0  0  0  0  0  0  0
    4.2570   -4.3810    0.5230 O   0  0  0  0  0  0  0  0  0  0  0  0
    4.7990   -2.9290   -1.2870 C   0  0  0  0  0  0  0  0  0  0  0  0
    3.3480   -2.9540   -1.6580 C   0  0  2  0  0  0  0  0  0  0  0  0
    3.1520   -2.2360   -2.9400 N   0  0  0  0  0  0  0  0  0  0  0  0
    2.5620   -2.2250   -0.6180 C   0  0  0  0  0  0  0  0  0  0  0  0
    2.5210   -2.6360    0.5470 O   0  0  0  0  0  0  0  0  0  0  0  0
    7.1650   -3.9970   -0.0160 H   0  0  0  0  0  0  0  0  0  0  0  0
    6.5340   -3.2290    1.5140 H   0  0  0  0  0  0  0  0  0  0  0  0
    5.1170   -1.8670   -1.0660 H   0  0  0  0  0  0  0  0  0  0  0  0
    5.4370   -3.2620   -2.1410 H   0  0  0  0  0  0  0  0  0  0  0  0
    2.9910   -3.9740   -1.7840 H   0  0  0  0  0  0  0  0  0  0  0  0
    2.2600   -2.6290   -3.3290 H   0  0  0  0  0  0  0  0  0  0  0  0
    3.9340   -2.5380   -3.5580 H   0  0  0  0  0  0  0  0  0  0  0  0
    1.6330    1.0300    0.3480 C   0  0  0  0  0  0  0  0  0  0  0  0
    1.0960   -0.3680    0.0980 C   0  0  2  0  0  0  0  0  0  0  0  0
    1.8390   -1.0400   -0.9350 N   0  0  0  0  0  0  0  0  0  0  0  0
   -0.3340   -0.3320   -0.2990 C   0  0  0  0  0  0  0  0  0  0  0  0
   -0.6700   -0.8630   -1.3820 O   0  0  0  0  0  0  0  0  0  0  0  0
    2.7070    0.9210    0.5690 H   0  0  0  0  0  0  0  0  0  0  0  0
    1.1450    1.3770    1.2920 H   0  0  0  0  0  0  0  0  0  0  0  0
    1.4010    1.7450   -0.4370 H   0  0  0  0  0  0  0  0  0  0  0  0
    1.2440   -0.9290    1.0460 H   0  0  0  0  0  0  0  0  0  0  0  0
    1.8880   -0.7160   -1.9210 H   0  0  0  0  0  0  0  0  0  0  0  0
   -3.5900    2.1090    6.0650 O   0  0  0  0  0  0  0  0  0  0  0  0
   -3.5810    1.4730    4.8200 C   0  0  0  0  0  0  0  0  0  0  0  0
   -2.6830    0.4700    4.5380 C   0  0  0  0  0  0  0  0  0  0  0  0
   -2.6720   -0.1580    3.3140 C   0  0  0  0  0  0  0  0  0  0  0  0
   -3.5940    0.2520    2.3690 C   0  0  0  0  0  0  0  0  0  0  0  0
   -3.6080   -0.3980    1.0520 C   0  0  0  0  0  0  0  0  0  0  0  0
   -2.7150    0.2740    0.0430 C   0  0  2  0  0  0  0  0  0  0  0  0
   -1.3250    0.2770    0.4980 N   0  0  0  0  0  0  0  0  0  0  0  0
   -3.2010    1.6490   -0.2320 C   0  0  0  0  0  0  0  0  0  0  0  0
   -2.5240    2.6820   -0.0870 O   0  0  0  0  0  0  0  0  0  0  0  0
   -4.4920    1.2590    2.6590 C   0  0  0  0  0  0  0  0  0  0  0  0
   -4.5110    1.8980    3.8920 C   0  0  0  0  0  0  0  0  0  0  0  0
   -4.5080    1.7690   -0.6830 O   0  0  0  0  0  0  0  0  0  0  0  0
   -2.7630    2.0110    6.6360 H   0  0  0  0  0  0  0  0  0  0  0  0
   -1.9470    0.1320    5.2760 H   0  0  0  0  0  0  0  0  0  0  0  0
   -1.9500   -0.9480    3.1230 H   0  0  0  0  0  0  0  0  0  0  0  0
   -3.3420   -1.4690    1.1940 H   0  0  0  0  0  0  0  0  0  0  0  0
   -4.6460   -0.4150    0.6250 H   0  0  0  0  0  0  0  0  0  0  0  0
   -2.8180   -0.2760   -0.9150 H   0  0  0  0  0  0  0  0  0  0  0  0
   -1.0350    0.7150    1.3930 H   0  0  0  0  0  0  0  0  0  0  0  0
   -5.2330    1.6130    1.9540 H   0  0  0  0  0  0  0  0  0  0  0  0
   -5.2060    2.6880    4.1340 H   0  0  0  0  0  0  0  0  0  0  0  0
  1 10  1  0  0  0  0
  2  3  2  0  0  0  0
  2  1  1  0  0  0  0
  4 11  1  0  0  0  0
  4  2  1  0  0  0  0
  5 13  1  6  0  0  0
  5  4  1  0  0  0  0
  5  7  1  0  0  0  0
  6  5  1  0  0  0  0
  7  8  2  0  0  0  0
  9  1  1  0  0  0  0
 12  4  1  0  0  0  0
 14  6  1  0  0  0  0
 15  6  1  0  0  0  0
 16 21  1  0  0  0  0
 16 22  1  0  0  0  0
 17 16  1  0  0  0  0
 17 24  1  1  0  0  0
 18  7  1  0  0  0  0
 18 17  1  0  0  0  0
 19 17  1  0  0  0  0
 19 33  1  0  0  0  0
 20 19  2  0  0  0  0
 23 16  1  0  0  0  0
 25 18  1  0  0  0  0
 26 39  1  0  0  0  0
 27 26  1  0  0  0  0
 28 27  1  0  0  0  0
 28 40  1  0  0  0  0
 29 28  2  0  0  0  0
 30 36  2  0  0  0  0
 30 29  1  0  0  0  0
 31 42  1  0  0  0  0
 31 30  1  0  0  0  0
 32 44  1  6  0  0  0
 32 33  1  0  0  0  0
 32 31  1  0  0  0  0
 33 45  1  0  0  0  0
 34 35  1  0  0  0  0
 34 32  1  0  0  0  0
 36 37  1  0  0  0  0
 37 47  1  0  0  0  0
 37 27  2  0  0  0  0
 38 34  2  0  0  0  0
 41 29  1  0  0  0  0
 43 31  1  0  0  0  0
 46 36  1  0  0  0  0
M  END
$$$$
