NCA.pdb
 OpenBabel07022418093D

 37 36  0  0  1  0  0  0  0  0999 V2000
   -0.9910   -2.5100    1.4600 N   0  0  0  0  0  0  0  0  0  0  0  0
   -0.2080   -3.5580    1.9810 C   0  0  0  0  0  0  0  0  0  0  0  0
   -0.5990   -4.0070    3.1140 O   0  0  0  0  0  0  0  0  0  0  0  0
    0.9600   -4.1200    1.3180 C   0  0  0  0  0  0  0  0  0  0  0  0
    1.4150   -3.4590    0.0560 C   0  0  2  0  0  0  0  0  0  0  0  0
    2.6040   -4.2680   -0.3960 N   0  0  0  0  0  0  0  0  0  0  0  0
    1.9040   -2.0880    0.2790 C   0  0  0  0  0  0  0  0  0  0  0  0
    3.0760   -1.8870    0.7670 O   0  0  0  0  0  0  0  0  0  0  0  0
   -1.2080   -1.7120    2.0930 H   0  0  0  0  0  0  0  0  0  0  0  0
   -1.3440   -2.5220    0.4920 H   0  0  0  0  0  0  0  0  0  0  0  0
    1.8020   -4.1090    2.0570 H   0  0  0  0  0  0  0  0  0  0  0  0
    0.7930   -5.2200    1.1170 H   0  0  0  0  0  0  0  0  0  0  0  0
    0.6960   -3.5060   -0.7390 H   0  0  0  0  0  0  0  0  0  0  0  0
    2.2730   -5.2560   -0.3070 H   0  0  0  0  0  0  0  0  0  0  0  0
    2.7050   -4.0690   -1.4120 H   0  0  0  0  0  0  0  0  0  0  0  0
    1.1860   -0.8940   -0.0070 N   0  0  0  0  0  0  0  0  0  0  0  0
    1.7510    0.4040    0.2410 C   0  0  1  0  0  0  0  0  0  0  0  0
    2.2190    0.9030   -1.1510 C   0  0  0  0  0  0  0  0  0  0  0  0
    2.9620    2.5240   -1.0510 S   0  0  0  0  0  0  0  0  0  0  0  0
    0.7810    1.3970    0.7110 C   0  0  0  0  0  0  0  0  0  0  0  0
    1.1500    2.5900    0.9730 O   0  0  0  0  0  0  0  0  0  0  0  0
    0.2350   -0.9760   -0.4230 H   0  0  0  0  0  0  0  0  0  0  0  0
    2.6820    0.3230    0.8360 H   0  0  0  0  0  0  0  0  0  0  0  0
    1.3660    0.8280   -1.8310 H   0  0  0  0  0  0  0  0  0  0  0  0
    3.0070    0.1760   -1.4520 H   0  0  0  0  0  0  0  0  0  0  0  0
    2.1470    3.5510   -1.5310 H   0  0  0  0  0  0  0  0  0  0  0  0
   -2.7010    2.3620    0.4630 C   0  0  0  0  0  0  0  0  0  0  0  0
   -1.5070    2.1960    1.3780 C   0  0  2  0  0  0  0  0  0  0  0  0
   -0.6020    1.1360    0.9080 N   0  0  0  0  0  0  0  0  0  0  0  0
   -2.0190    1.7900    2.7030 C   0  0  0  0  0  0  0  0  0  0  0  0
   -1.6410    0.7320    3.2230 O   0  0  0  0  0  0  0  0  0  0  0  0
   -2.9230    2.5920    3.3690 O   0  0  0  0  0  0  0  0  0  0  0  0
   -2.8610    1.4390   -0.1440 H   0  0  0  0  0  0  0  0  0  0  0  0
   -3.5960    2.6360    1.0660 H   0  0  0  0  0  0  0  0  0  0  0  0
   -2.4970    3.2440   -0.1950 H   0  0  0  0  0  0  0  0  0  0  0  0
   -0.9570    3.1610    1.4440 H   0  0  0  0  0  0  0  0  0  0  0  0
   -0.9530    0.1790    0.7060 H   0  0  0  0  0  0  0  0  0  0  0  0
  1  2  1  0  0  0  0
  1  9  1  0  0  0  0
  2  3  2  0  0  0  0
  4  2  1  0  0  0  0
  4 11  1  0  0  0  0
  5 13  1  6  0  0  0
  5  7  1  0  0  0  0
  5  4  1  0  0  0  0
  6 14  1  0  0  0  0
  6  5  1  0  0  0  0
  7  8  2  0  0  0  0
 10  1  1  0  0  0  0
 12  4  1  0  0  0  0
 15  6  1  0  0  0  0
 16 17  1  0  0  0  0
 16  7  1  0  0  0  0
 17 20  1  0  0  0  0
 17 23  1  1  0  0  0
 18 19  1  0  0  0  0
 18 17  1  0  0  0  0
 20 29  1  0  0  0  0
 20 21  2  0  0  0  0
 22 16  1  0  0  0  0
 24 18  1  0  0  0  0
 25 18  1  0  0  0  0
 26 19  1  0  0  0  0
 27 34  1  0  0  0  0
 27 28  1  0  0  0  0
 28 36  1  1  0  0  0
 28 30  1  0  0  0  0
 29 28  1  0  0  0  0
 30 31  2  0  0  0  0
 30 32  1  0  0  0  0
 33 27  1  0  0  0  0
 35 27  1  0  0  0  0
 37 29  1  0  0  0  0
M  END
$$$$
