NCC.pdb
 OpenBabel07022418093D

 38 37  0  0  1  0  0  0  0  0999 V2000
    1.6370   -6.3440    0.7280 N   0  0  0  0  0  0  0  0  0  0  0  0
    1.8330   -5.2930   -0.2060 C   0  0  0  0  0  0  0  0  0  0  0  0
    2.2490   -5.6370   -1.3600 O   0  0  0  0  0  0  0  0  0  0  0  0
    1.5710   -3.8710    0.1330 C   0  0  0  0  0  0  0  0  0  0  0  0
    1.8580   -2.9720   -1.0290 C   0  0  2  0  0  0  0  0  0  0  0  0
    3.2540   -3.1350   -1.3780 N   0  0  0  0  0  0  0  0  0  0  0  0
    1.5730   -1.5680   -0.8060 C   0  0  0  0  0  0  0  0  0  0  0  0
    2.5230   -0.7270   -0.9370 O   0  0  0  0  0  0  0  0  0  0  0  0
    2.0230   -6.2450    1.6920 H   0  0  0  0  0  0  0  0  0  0  0  0
    1.1240   -7.2140    0.4980 H   0  0  0  0  0  0  0  0  0  0  0  0
    0.4740   -3.7920    0.3440 H   0  0  0  0  0  0  0  0  0  0  0  0
    2.1180   -3.6380    1.0370 H   0  0  0  0  0  0  0  0  0  0  0  0
    1.2830   -3.2950   -1.9390 H   0  0  0  0  0  0  0  0  0  0  0  0
    3.6420   -2.2100   -1.6730 H   0  0  0  0  0  0  0  0  0  0  0  0
    3.7790   -3.3960   -0.5080 H   0  0  0  0  0  0  0  0  0  0  0  0
    0.2640   -1.1110   -0.4450 N   0  0  0  0  0  0  0  0  0  0  0  0
    0.0710    0.2920   -0.2440 C   0  0  1  0  0  0  0  0  0  0  0  0
   -0.8950    0.8980   -1.2330 C   0  0  0  0  0  0  0  0  0  0  0  0
   -2.5330    0.1460   -1.1400 S   0  0  0  0  0  0  0  0  0  0  0  0
   -0.2950    0.5510    1.1590 C   0  0  0  0  0  0  0  0  0  0  0  0
   -0.3870   -0.4190    1.9510 O   0  0  0  0  0  0  0  0  0  0  0  0
   -0.4630   -1.8380   -0.3540 H   0  0  0  0  0  0  0  0  0  0  0  0
    1.0330    0.8190   -0.4130 H   0  0  0  0  0  0  0  0  0  0  0  0
   -0.4890    0.6640   -2.2460 H   0  0  0  0  0  0  0  0  0  0  0  0
   -0.8890    1.9760   -1.0970 H   0  0  0  0  0  0  0  0  0  0  0  0
   -3.2000    0.1690   -2.3650 H   0  0  0  0  0  0  0  0  0  0  0  0
   -0.5530    1.8510    1.6780 N   0  0  0  0  0  0  0  0  0  0  0  0
   -0.9100    2.1100    3.0450 C   0  0  1  0  0  0  0  0  0  0  0  0
    0.0920    3.0050    3.7440 C   0  0  0  0  0  0  0  0  0  0  0  0
    0.2220    4.6170    2.9090 S   0  0  0  0  0  0  0  0  0  0  0  0
   -2.2630    2.7160    3.0830 C   0  0  0  0  0  0  0  0  0  0  0  0
   -2.8980    2.9230    2.0220 O   0  0  0  0  0  0  0  0  0  0  0  0
   -2.8750    3.0770    4.2780 O   0  0  0  0  0  0  0  0  0  0  0  0
   -0.4710    2.6350    1.0070 H   0  0  0  0  0  0  0  0  0  0  0  0
   -0.9580    1.1720    3.6370 H   0  0  0  0  0  0  0  0  0  0  0  0
    1.0530    2.4910    3.7970 H   0  0  0  0  0  0  0  0  0  0  0  0
   -0.3040    3.1990    4.7630 H   0  0  0  0  0  0  0  0  0  0  0  0
   -0.8450    5.4580    3.2860 H   0  0  0  0  0  0  0  0  0  0  0  0
  1  9  1  0  0  0  0
  2  4  1  0  0  0  0
  2  1  1  0  0  0  0
  3  2  2  0  0  0  0
  4 11  1  0  0  0  0
  4 12  1  0  0  0  0
  5 13  1  6  0  0  0
  5  7  1  0  0  0  0
  5  4  1  0  0  0  0
  6  5  1  0  0  0  0
  6 15  1  0  0  0  0
  7 16  1  0  0  0  0
  8  7  2  0  0  0  0
 10  1  1  0  0  0  0
 14  6  1  0  0  0  0
 16 22  1  0  0  0  0
 16 17  1  0  0  0  0
 17 23  1  6  0  0  0
 17 20  1  0  0  0  0
 18 19  1  0  0  0  0
 18 25  1  0  0  0  0
 18 17  1  0  0  0  0
 20 27  1  0  0  0  0
 20 21  2  0  0  0  0
 24 18  1  0  0  0  0
 26 19  1  0  0  0  0
 27 28  1  0  0  0  0
 28 31  1  0  0  0  0
 28 35  1  1  0  0  0
 28 29  1  0  0  0  0
 29 36  1  0  0  0  0
 29 37  1  0  0  0  0
 30 38  1  0  0  0  0
 30 29  1  0  0  0  0
 31 33  1  0  0  0  0
 32 31  2  0  0  0  0
 34 27  1  0  0  0  0
M  END
$$$$
