NCE.pdb
 OpenBabel07022418093D

 43 42  0  0  1  0  0  0  0  0999 V2000
    1.0070   -5.6350    2.2290 N   0  0  0  0  0  0  0  0  0  0  0  0
    2.2720   -5.5290    1.5920 C   0  0  0  0  0  0  0  0  0  0  0  0
    2.8590   -6.6030    1.3110 O   0  0  0  0  0  0  0  0  0  0  0  0
    2.8810   -4.2140    1.2690 C   0  0  0  0  0  0  0  0  0  0  0  0
    1.9320   -3.1210    1.7310 C   0  0  2  0  0  0  0  0  0  0  0  0
    0.6740   -3.2950    1.0230 N   0  0  0  0  0  0  0  0  0  0  0  0
    2.4720   -1.7750    1.4090 C   0  0  0  0  0  0  0  0  0  0  0  0
    3.5570   -1.3470    1.8830 O   0  0  0  0  0  0  0  0  0  0  0  0
    0.7350   -5.1030    3.0830 H   0  0  0  0  0  0  0  0  0  0  0  0
    0.2950   -6.2830    1.8280 H   0  0  0  0  0  0  0  0  0  0  0  0
    3.0550   -4.1770    0.1780 H   0  0  0  0  0  0  0  0  0  0  0  0
    3.8580   -4.1110    1.8040 H   0  0  0  0  0  0  0  0  0  0  0  0
    1.7970   -3.2840    2.8180 H   0  0  0  0  0  0  0  0  0  0  0  0
   -0.0150   -2.5960    1.3160 H   0  0  0  0  0  0  0  0  0  0  0  0
    0.7820   -3.2850    0.0060 H   0  0  0  0  0  0  0  0  0  0  0  0
    1.7750   -0.8980    0.5360 N   0  0  0  0  0  0  0  0  0  0  0  0
    2.2690    0.4230    0.1960 C   0  0  1  0  0  0  0  0  0  0  0  0
    2.4670    0.4960   -1.3230 C   0  0  0  0  0  0  0  0  0  0  0  0
    3.0830    2.1280   -1.8010 S   0  0  0  0  0  0  0  0  0  0  0  0
    1.2500    1.4710    0.5450 C   0  0  0  0  0  0  0  0  0  0  0  0
    1.5050    2.6810    0.3190 O   0  0  0  0  0  0  0  0  0  0  0  0
    0.8760   -1.2060    0.1180 H   0  0  0  0  0  0  0  0  0  0  0  0
    3.2140    0.5820    0.7120 H   0  0  0  0  0  0  0  0  0  0  0  0
    1.4960    0.3490   -1.8390 H   0  0  0  0  0  0  0  0  0  0  0  0
    3.1910   -0.2910   -1.6350 H   0  0  0  0  0  0  0  0  0  0  0  0
    4.4810    2.2080   -1.7630 H   0  0  0  0  0  0  0  0  0  0  0  0
   -0.0020    1.1230    1.1280 N   0  0  0  0  0  0  0  0  0  0  0  0
   -1.0020    2.1060    1.4740 C   0  0  1  0  0  0  0  0  0  0  0  0
   -2.2940    1.9180    0.7410 C   0  0  0  0  0  0  0  0  0  0  0  0
   -2.1340    2.0080   -0.7570 C   0  0  0  0  0  0  0  0  0  0  0  0
   -3.4150    1.8210   -1.4730 C   0  0  0  0  0  0  0  0  0  0  0  0
   -3.3980    1.8760   -2.7240 O   0  0  0  0  0  0  0  0  0  0  0  0
   -1.3000    2.0610    2.9300 C   0  0  0  0  0  0  0  0  0  0  0  0
   -0.7010    1.2420    3.6410 O   0  0  0  0  0  0  0  0  0  0  0  0
   -4.6240    1.5900   -0.8450 O   0  0  0  0  0  0  0  0  0  0  0  0
   -2.2240    2.9080    3.4950 O   0  0  0  0  0  0  0  0  0  0  0  0
   -0.1600    0.0970    1.2940 H   0  0  0  0  0  0  0  0  0  0  0  0
   -0.6060    3.1060    1.2060 H   0  0  0  0  0  0  0  0  0  0  0  0
   -2.6650    0.8830    0.9970 H   0  0  0  0  0  0  0  0  0  0  0  0
   -3.0320    2.6210    1.1410 H   0  0  0  0  0  0  0  0  0  0  0  0
   -1.6950    3.0000   -0.9770 H   0  0  0  0  0  0  0  0  0  0  0  0
   -1.4710    1.1730   -1.0770 H   0  0  0  0  0  0  0  0  0  0  0  0
   -5.3660    1.1330   -1.3550 H   0  0  0  0  0  0  0  0  0  0  0  0
  1  9  1  0  0  0  0
  2  1  1  0  0  0  0
  3  2  2  0  0  0  0
  4  2  1  0  0  0  0
  4  5  1  0  0  0  0
  4 12  1  0  0  0  0
  5 13  1  1  0  0  0
  6 14  1  0  0  0  0
  6  5  1  0  0  0  0
  7  5  1  0  0  0  0
  7  8  2  0  0  0  0
 10  1  1  0  0  0  0
 11  4  1  0  0  0  0
 15  6  1  0  0  0  0
 16  7  1  0  0  0  0
 17 16  1  0  0  0  0
 17 20  1  0  0  0  0
 17 23  1  1  0  0  0
 18 17  1  0  0  0  0
 19 26  1  0  0  0  0
 19 18  1  0  0  0  0
 20 27  1  0  0  0  0
 21 20  2  0  0  0  0
 22 16  1  0  0  0  0
 24 18  1  0  0  0  0
 25 18  1  0  0  0  0
 27 37  1  0  0  0  0
 27 28  1  0  0  0  0
 28 38  1  6  0  0  0
 28 33  1  0  0  0  0
 29 39  1  0  0  0  0
 29 40  1  0  0  0  0
 29 28  1  0  0  0  0
 30 29  1  0  0  0  0
 31 35  1  0  0  0  0
 31 30  1  0  0  0  0
 32 31  2  0  0  0  0
 33 36  2  0  0  0  0
 33 34  1  0  0  0  0
 41 30  1  0  0  0  0
 42 30  1  0  0  0  0
 43 35  1  0  0  0  0
M  END
$$$$
