NCQ.pdb
 OpenBabel07022418093D

 44 43  0  0  1  0  0  0  0  0999 V2000
    1.5600   -6.2530   -2.8720 N   0  0  0  0  0  0  0  0  0  0  0  0
    2.5950   -5.3050   -2.9950 C   0  0  0  0  0  0  0  0  0  0  0  0
    3.5530   -5.5760   -3.7630 O   0  0  0  0  0  0  0  0  0  0  0  0
    2.6230   -4.0040   -2.2720 C   0  0  0  0  0  0  0  0  0  0  0  0
    1.4060   -3.8290   -1.3930 C   0  0  2  0  0  0  0  0  0  0  0  0
    0.1980   -3.8640   -2.1560 N   0  0  0  0  0  0  0  0  0  0  0  0
    1.5710   -2.5350   -0.6570 C   0  0  0  0  0  0  0  0  0  0  0  0
    2.5920   -2.3620    0.0570 O   0  0  0  0  0  0  0  0  0  0  0  0
    1.3360   -6.6580   -1.9520 H   0  0  0  0  0  0  0  0  0  0  0  0
    1.0290   -6.5400   -3.7070 H   0  0  0  0  0  0  0  0  0  0  0  0
    2.6880   -3.2170   -3.0530 H   0  0  0  0  0  0  0  0  0  0  0  0
    3.5440   -3.9810   -1.6760 H   0  0  0  0  0  0  0  0  0  0  0  0
    1.4030   -4.6920   -0.6860 H   0  0  0  0  0  0  0  0  0  0  0  0
   -0.2210   -4.8200   -2.1260 H   0  0  0  0  0  0  0  0  0  0  0  0
    0.3390   -3.5900   -3.1500 H   0  0  0  0  0  0  0  0  0  0  0  0
    0.6340   -1.4880   -0.7230 N   0  0  0  0  0  0  0  0  0  0  0  0
    0.8190   -0.2180    0.0140 C   0  0  1  0  0  0  0  0  0  0  0  0
    0.9450    0.8620   -1.0440 C   0  0  0  0  0  0  0  0  0  0  0  0
    1.1840    2.4620   -0.2800 S   0  0  0  0  0  0  0  0  0  0  0  0
   -0.3570   -0.0250    0.8930 C   0  0  0  0  0  0  0  0  0  0  0  0
   -1.2860   -0.8800    0.8190 O   0  0  0  0  0  0  0  0  0  0  0  0
   -0.2170   -1.6010   -1.3030 H   0  0  0  0  0  0  0  0  0  0  0  0
    1.7560   -0.2530    0.5750 H   0  0  0  0  0  0  0  0  0  0  0  0
    0.0960    0.8380   -1.7580 H   0  0  0  0  0  0  0  0  0  0  0  0
    1.8500    0.6190   -1.6320 H   0  0  0  0  0  0  0  0  0  0  0  0
    2.5640    2.7350   -0.1590 H   0  0  0  0  0  0  0  0  0  0  0  0
    0.3470    4.1770    5.2400 N   0  0  0  0  0  0  0  0  0  0  0  0
   -0.7030    3.2760    4.7530 C   0  0  0  0  0  0  0  0  0  0  0  0
   -1.7340    3.8450    4.3850 O   0  0  0  0  0  0  0  0  0  0  0  0
   -0.4410    1.8370    4.7500 C   0  0  0  0  0  0  0  0  0  0  0  0
   -1.4410    0.9940    4.0870 C   0  0  0  0  0  0  0  0  0  0  0  0
   -1.7260    1.1680    2.6500 C   0  0  2  0  0  0  0  0  0  0  0  0
   -0.5500    1.0210    1.8100 N   0  0  0  0  0  0  0  0  0  0  0  0
   -2.5090    2.3250    2.2310 C   0  0  0  0  0  0  0  0  0  0  0  0
   -2.1300    3.1830    1.3920 O   0  0  0  0  0  0  0  0  0  0  0  0
   -3.7950    2.5340    2.7760 O   0  0  0  0  0  0  0  0  0  0  0  0
    0.1160    5.0070    5.8080 H   0  0  0  0  0  0  0  0  0  0  0  0
    1.3460    3.9910    5.0190 H   0  0  0  0  0  0  0  0  0  0  0  0
   -0.4600    1.5400    5.8550 H   0  0  0  0  0  0  0  0  0  0  0  0
    0.6090    1.6600    4.3840 H   0  0  0  0  0  0  0  0  0  0  0  0
   -1.2260   -0.1160    4.2380 H   0  0  0  0  0  0  0  0  0  0  0  0
   -2.4450    1.0880    4.6190 H   0  0  0  0  0  0  0  0  0  0  0  0
   -2.4400    0.2800    2.4130 H   0  0  0  0  0  0  0  0  0  0  0  0
    0.2010    1.7320    1.8970 H   0  0  0  0  0  0  0  0  0  0  0  0
  1  9  1  0  0  0  0
  2  1  1  0  0  0  0
  2  4  1  0  0  0  0
  3  2  2  0  0  0  0
  4 12  1  0  0  0  0
  4  5  1  0  0  0  0
  5 13  1  1  0  0  0
  5  7  1  0  0  0  0
  6 14  1  0  0  0  0
  6  5  1  0  0  0  0
  7  8  2  0  0  0  0
 10  1  1  0  0  0  0
 11  4  1  0  0  0  0
 15  6  1  0  0  0  0
 16  7  1  0  0  0  0
 16 17  1  0  0  0  0
 17 23  1  1  0  0  0
 17 20  1  0  0  0  0
 18 19  1  0  0  0  0
 18 17  1  0  0  0  0
 19 26  1  0  0  0  0
 20 33  1  0  0  0  0
 21 20  2  0  0  0  0
 22 16  1  0  0  0  0
 24 18  1  0  0  0  0
 25 18  1  0  0  0  0
 27 37  1  0  0  0  0
 28 27  1  0  0  0  0
 29 28  2  0  0  0  0
 30 28  1  0  0  0  0
 30 39  1  0  0  0  0
 31 41  1  0  0  0  0
 31 42  1  0  0  0  0
 31 30  1  0  0  0  0
 32 43  1  6  0  0  0
 32 31  1  0  0  0  0
 33 44  1  0  0  0  0
 33 32  1  0  0  0  0
 34 32  1  0  0  0  0
 34 36  1  0  0  0  0
 35 34  2  0  0  0  0
 38 27  1  0  0  0  0
 40 30  1  0  0  0  0
M  END
$$$$
