NCS.pdb
 OpenBabel07022418093D

 38 37  0  0  1  0  0  0  0  0999 V2000
   -3.3500   -3.3880   -0.5180 N   0  0  0  0  0  0  0  0  0  0  0  0
   -2.0230   -3.3860   -1.0010 C   0  0  0  0  0  0  0  0  0  0  0  0
   -1.7980   -4.1250   -2.0190 O   0  0  0  0  0  0  0  0  0  0  0  0
   -0.9490   -2.5810   -0.3750 C   0  0  0  0  0  0  0  0  0  0  0  0
    0.3710   -2.7670   -1.0950 C   0  0  2  0  0  0  0  0  0  0  0  0
    0.7520   -4.1580   -1.0460 N   0  0  0  0  0  0  0  0  0  0  0  0
    1.4410   -1.9370   -0.4830 C   0  0  0  0  0  0  0  0  0  0  0  0
    2.4760   -2.5240   -0.0300 O   0  0  0  0  0  0  0  0  0  0  0  0
   -3.5240   -3.1530    0.4910 H   0  0  0  0  0  0  0  0  0  0  0  0
   -4.1810   -3.6080   -1.0900 H   0  0  0  0  0  0  0  0  0  0  0  0
   -1.1950   -1.4830   -0.4520 H   0  0  0  0  0  0  0  0  0  0  0  0
   -0.8740   -2.8160    0.6880 H   0  0  0  0  0  0  0  0  0  0  0  0
    0.3020   -2.4640   -2.1550 H   0  0  0  0  0  0  0  0  0  0  0  0
    1.7700   -4.2940   -0.8980 H   0  0  0  0  0  0  0  0  0  0  0  0
    0.2130   -4.6550   -0.3230 H   0  0  0  0  0  0  0  0  0  0  0  0
    1.3470   -0.5260   -0.3880 N   0  0  0  0  0  0  0  0  0  0  0  0
    2.4310    0.1980    0.2200 C   0  0  1  0  0  0  0  0  0  0  0  0
    3.1230    1.1280   -0.7480 C   0  0  0  0  0  0  0  0  0  0  0  0
    2.0610    2.3710   -1.4480 S   0  0  0  0  0  0  0  0  0  0  0  0
    2.0000    0.9020    1.4600 C   0  0  0  0  0  0  0  0  0  0  0  0
    2.8350    1.5820    2.1110 O   0  0  0  0  0  0  0  0  0  0  0  0
    0.4900   -0.0600   -0.7650 H   0  0  0  0  0  0  0  0  0  0  0  0
    3.1970   -0.5370    0.5270 H   0  0  0  0  0  0  0  0  0  0  0  0
    3.5250    0.4930   -1.5650 H   0  0  0  0  0  0  0  0  0  0  0  0
    3.9860    1.5710   -0.2260 H   0  0  0  0  0  0  0  0  0  0  0  0
    1.0370    1.7740   -2.2090 H   0  0  0  0  0  0  0  0  0  0  0  0
   -1.9830    1.9880    2.3670 O   0  0  0  0  0  0  0  0  0  0  0  0
   -0.8370    2.5460    2.9300 C   0  0  0  0  0  0  0  0  0  0  0  0
    0.2420    1.5290    3.1650 C   0  0  2  0  0  0  0  0  0  0  0  0
    0.6860    0.8630    1.9770 N   0  0  0  0  0  0  0  0  0  0  0  0
   -0.2240    0.5880    4.2130 C   0  0  0  0  0  0  0  0  0  0  0  0
   -0.2040   -0.6570    4.0170 O   0  0  0  0  0  0  0  0  0  0  0  0
   -0.6750    1.1440    5.4050 O   0  0  0  0  0  0  0  0  0  0  0  0
   -2.2890    2.4900    1.5620 H   0  0  0  0  0  0  0  0  0  0  0  0
   -0.4740    3.4340    2.3600 H   0  0  0  0  0  0  0  0  0  0  0  0
   -1.1400    2.9340    3.9270 H   0  0  0  0  0  0  0  0  0  0  0  0
    1.1140    2.0690    3.5900 H   0  0  0  0  0  0  0  0  0  0  0  0
   -0.0260    0.3030    1.4520 H   0  0  0  0  0  0  0  0  0  0  0  0
  1  9  1  0  0  0  0
  2  1  1  0  0  0  0
  2  4  1  0  0  0  0
  3  2  2  0  0  0  0
  4 12  1  0  0  0  0
  5 13  1  6  0  0  0
  5  6  1  0  0  0  0
  5  7  1  0  0  0  0
  5  4  1  0  0  0  0
  6 14  1  0  0  0  0
  6 15  1  0  0  0  0
  7 16  1  0  0  0  0
  7  8  2  0  0  0  0
 10  1  1  0  0  0  0
 11  4  1  0  0  0  0
 16 17  1  0  0  0  0
 17 23  1  1  0  0  0
 17 20  1  0  0  0  0
 18 25  1  0  0  0  0
 18 17  1  0  0  0  0
 19 18  1  0  0  0  0
 20 30  1  0  0  0  0
 20 21  2  0  0  0  0
 22 16  1  0  0  0  0
 24 18  1  0  0  0  0
 26 19  1  0  0  0  0
 27 28  1  0  0  0  0
 28 29  1  0  0  0  0
 28 36  1  0  0  0  0
 29 37  1  1  0  0  0
 29 31  1  0  0  0  0
 30 29  1  0  0  0  0
 31 33  1  0  0  0  0
 32 31  2  0  0  0  0
 34 27  1  0  0  0  0
 35 28  1  0  0  0  0
 38 30  1  0  0  0  0
M  END
$$$$
