NCT.pdb
 OpenBabel07022418093D

 41 40  0  0  1  0  0  0  0  0999 V2000
    4.9360   -0.6430    2.7100 N   0  0  0  0  0  0  0  0  0  0  0  0
    4.5760   -1.1590    1.4520 C   0  0  0  0  0  0  0  0  0  0  0  0
    5.3440   -1.9450    0.8770 O   0  0  0  0  0  0  0  0  0  0  0  0
    3.2640   -0.7520    0.8200 C   0  0  0  0  0  0  0  0  0  0  0  0
    3.1880   -1.4700   -0.4930 C   0  0  2  0  0  0  0  0  0  0  0  0
    4.2770   -1.0810   -1.3210 N   0  0  0  0  0  0  0  0  0  0  0  0
    1.8500   -1.4140   -1.1290 C   0  0  0  0  0  0  0  0  0  0  0  0
    1.7880   -1.1100   -2.3350 O   0  0  0  0  0  0  0  0  0  0  0  0
    5.3290    0.3410    2.7320 H   0  0  0  0  0  0  0  0  0  0  0  0
    4.8560   -1.1160    3.6070 H   0  0  0  0  0  0  0  0  0  0  0  0
    3.2370    0.3260    0.7210 H   0  0  0  0  0  0  0  0  0  0  0  0
    2.4530   -1.1630    1.4920 H   0  0  0  0  0  0  0  0  0  0  0  0
    3.3230   -2.5750   -0.2520 H   0  0  0  0  0  0  0  0  0  0  0  0
    5.0070   -1.8070   -1.4520 H   0  0  0  0  0  0  0  0  0  0  0  0
    4.0560   -0.5160   -2.1390 H   0  0  0  0  0  0  0  0  0  0  0  0
    0.6630   -1.6930   -0.4120 N   0  0  0  0  0  0  0  0  0  0  0  0
   -0.6450   -1.6580   -1.0100 C   0  0  1  0  0  0  0  0  0  0  0  0
   -1.3080   -3.0050   -0.8000 C   0  0  0  0  0  0  0  0  0  0  0  0
   -2.9610   -3.0050   -1.5390 S   0  0  0  0  0  0  0  0  0  0  0  0
   -1.5220   -0.6420   -0.3490 C   0  0  0  0  0  0  0  0  0  0  0  0
   -2.7090   -0.4650   -0.7230 O   0  0  0  0  0  0  0  0  0  0  0  0
    0.7680   -1.9350    0.6170 H   0  0  0  0  0  0  0  0  0  0  0  0
   -0.6230   -1.4500   -2.0790 H   0  0  0  0  0  0  0  0  0  0  0  0
   -0.7390   -3.8330   -1.2250 H   0  0  0  0  0  0  0  0  0  0  0  0
   -1.4400   -3.1240    0.3030 H   0  0  0  0  0  0  0  0  0  0  0  0
   -3.9800   -2.7700   -0.6200 H   0  0  0  0  0  0  0  0  0  0  0  0
   -2.5580   -0.5900    2.9040 C   0  0  0  0  0  0  0  0  0  0  0  0
   -1.9610    0.8240    2.8530 C   0  0  1  0  0  0  0  0  0  0  0  0
   -0.7010    0.7480    3.4410 O   0  0  0  0  0  0  0  0  0  0  0  0
   -1.8030    1.1520    1.4100 C   0  0  2  0  0  0  0  0  0  0  0  0
   -1.0420    0.1550    0.7200 N   0  0  0  0  0  0  0  0  0  0  0  0
   -1.2840    2.5240    1.1480 C   0  0  0  0  0  0  0  0  0  0  0  0
   -1.7830    3.5460    1.6510 O   0  0  0  0  0  0  0  0  0  0  0  0
   -0.1980    2.6490    0.3060 O   0  0  0  0  0  0  0  0  0  0  0  0
   -2.7280   -0.9160    3.9360 H   0  0  0  0  0  0  0  0  0  0  0  0
   -3.5280   -0.6150    2.3350 H   0  0  0  0  0  0  0  0  0  0  0  0
   -1.8880   -1.2960    2.3710 H   0  0  0  0  0  0  0  0  0  0  0  0
   -2.6060    1.5430    3.3670 H   0  0  0  0  0  0  0  0  0  0  0  0
   -0.5050    1.5480    3.9850 H   0  0  0  0  0  0  0  0  0  0  0  0
   -2.8330    1.1450    0.9380 H   0  0  0  0  0  0  0  0  0  0  0  0
   -0.0520   -0.0180    1.0110 H   0  0  0  0  0  0  0  0  0  0  0  0
  1  9  1  0  0  0  0
  1 10  1  0  0  0  0
  2  1  1  0  0  0  0
  3  2  2  0  0  0  0
  4  2  1  0  0  0  0
  4 12  1  0  0  0  0
  5 13  1  1  0  0  0
  5  4  1  0  0  0  0
  6  5  1  0  0  0  0
  7  5  1  0  0  0  0
  7 16  1  0  0  0  0
  8  7  2  0  0  0  0
 11  4  1  0  0  0  0
 14  6  1  0  0  0  0
 15  6  1  0  0  0  0
 16 22  1  0  0  0  0
 17 23  1  6  0  0  0
 17 18  1  0  0  0  0
 17 16  1  0  0  0  0
 17 20  1  0  0  0  0
 18 25  1  0  0  0  0
 19 18  1  0  0  0  0
 19 26  1  0  0  0  0
 20 31  1  0  0  0  0
 21 20  2  0  0  0  0
 24 18  1  0  0  0  0
 27 35  1  0  0  0  0
 28 27  1  0  0  0  0
 28 38  1  1  0  0  0
 28 29  1  0  0  0  0
 29 39  1  0  0  0  0
 30 40  1  6  0  0  0
 30 28  1  0  0  0  0
 31 41  1  0  0  0  0
 31 30  1  0  0  0  0
 32 30  1  0  0  0  0
 32 33  1  0  0  0  0
 34 32  2  0  0  0  0
 36 27  1  0  0  0  0
 37 27  1  0  0  0  0
M  END
$$$$
