NCV.pdb
 OpenBabel07022418093D

 43 42  0  0  1  0  0  0  0  0999 V2000
   -2.5490   -3.7780   -2.5410 N   0  0  0  0  0  0  0  0  0  0  0  0
   -2.5990   -3.1990   -1.2470 C   0  0  0  0  0  0  0  0  0  0  0  0
   -3.7300   -3.1300   -0.7000 O   0  0  0  0  0  0  0  0  0  0  0  0
   -1.3610   -2.7040   -0.5880 C   0  0  0  0  0  0  0  0  0  0  0  0
   -0.1900   -2.9380   -1.5150 C   0  0  2  0  0  0  0  0  0  0  0  0
   -0.0250   -4.3310   -1.8190 N   0  0  0  0  0  0  0  0  0  0  0  0
    1.0600   -2.3710   -1.0140 C   0  0  0  0  0  0  0  0  0  0  0  0
    2.0670   -3.0960   -0.9030 O   0  0  0  0  0  0  0  0  0  0  0  0
   -2.5360   -3.1230   -3.3740 H   0  0  0  0  0  0  0  0  0  0  0  0
   -2.5240   -4.8070   -2.7070 H   0  0  0  0  0  0  0  0  0  0  0  0
   -1.2600   -3.2570    0.3640 H   0  0  0  0  0  0  0  0  0  0  0  0
   -1.4940   -1.6360   -0.3950 H   0  0  0  0  0  0  0  0  0  0  0  0
   -0.4660   -2.4250   -2.4830 H   0  0  0  0  0  0  0  0  0  0  0  0
    0.4910   -4.5060   -2.7000 H   0  0  0  0  0  0  0  0  0  0  0  0
    0.3200   -4.8920   -1.0290 H   0  0  0  0  0  0  0  0  0  0  0  0
    1.1670   -0.9970   -0.6430 N   0  0  0  0  0  0  0  0  0  0  0  0
    2.4420   -0.4660   -0.1440 C   0  0  1  0  0  0  0  0  0  0  0  0
    2.8240    0.6480   -1.1270 C   0  0  0  0  0  0  0  0  0  0  0  0
    4.3940    1.3470   -0.5660 S   0  0  0  0  0  0  0  0  0  0  0  0
    2.2050    0.1900    1.1670 C   0  0  0  0  0  0  0  0  0  0  0  0
    3.1790    0.7110    1.7620 O   0  0  0  0  0  0  0  0  0  0  0  0
    0.3260   -0.4140   -0.7400 H   0  0  0  0  0  0  0  0  0  0  0  0
    3.1920   -1.2560   -0.1190 H   0  0  0  0  0  0  0  0  0  0  0  0
    2.0460    1.4260   -1.0090 H   0  0  0  0  0  0  0  0  0  0  0  0
    2.8870    0.2430   -2.1580 H   0  0  0  0  0  0  0  0  0  0  0  0
    4.5530    2.6620   -1.0540 H   0  0  0  0  0  0  0  0  0  0  0  0
    0.2790    3.1310    2.0280 C   0  0  0  0  0  0  0  0  0  0  0  0
   -0.2880    2.0420    2.9490 C   0  0  0  0  0  0  0  0  0  0  0  0
   -0.3510    2.6780    4.3260 C   0  0  0  0  0  0  0  0  0  0  0  0
    0.6660    0.8830    3.0450 C   0  0  2  0  0  0  0  0  0  0  0  0
    0.9410    0.2590    1.7790 N   0  0  0  0  0  0  0  0  0  0  0  0
    0.1630   -0.0680    4.0540 C   0  0  0  0  0  0  0  0  0  0  0  0
   -0.1350    0.2690    5.2240 O   0  0  0  0  0  0  0  0  0  0  0  0
    0.0060   -1.4030    3.7160 O   0  0  0  0  0  0  0  0  0  0  0  0
    0.1020    2.7900    0.9840 H   0  0  0  0  0  0  0  0  0  0  0  0
   -0.3180    4.0260    2.2120 H   0  0  0  0  0  0  0  0  0  0  0  0
    1.3220    3.3430    2.2480 H   0  0  0  0  0  0  0  0  0  0  0  0
   -1.3090    1.7780    2.6760 H   0  0  0  0  0  0  0  0  0  0  0  0
    0.5380    2.4820    4.9360 H   0  0  0  0  0  0  0  0  0  0  0  0
   -0.4490    3.7970    4.2340 H   0  0  0  0  0  0  0  0  0  0  0  0
   -1.2480    2.2900    4.8860 H   0  0  0  0  0  0  0  0  0  0  0  0
    1.6290    1.2880    3.4230 H   0  0  0  0  0  0  0  0  0  0  0  0
    0.1360   -0.1780    1.2770 H   0  0  0  0  0  0  0  0  0  0  0  0
  1  2  1  0  0  0  0
  2  3  2  0  0  0  0
  2  4  1  0  0  0  0
  4 12  1  0  0  0  0
  4 11  1  0  0  0  0
  5 13  1  6  0  0  0
  5  7  1  0  0  0  0
  5  4  1  0  0  0  0
  6  5  1  0  0  0  0
  6 15  1  0  0  0  0
  7  8  2  0  0  0  0
  7 16  1  0  0  0  0
  9  1  1  0  0  0  0
 10  1  1  0  0  0  0
 14  6  1  0  0  0  0
 16 17  1  0  0  0  0
 17 23  1  1  0  0  0
 17 20  1  0  0  0  0
 18 24  1  0  0  0  0
 18 19  1  0  0  0  0
 18 17  1  0  0  0  0
 20 21  2  0  0  0  0
 20 31  1  0  0  0  0
 22 16  1  0  0  0  0
 25 18  1  0  0  0  0
 26 19  1  0  0  0  0
 27 36  1  0  0  0  0
 27 37  1  0  0  0  0
 27 28  1  0  0  0  0
 28 30  1  0  0  0  0
 28 29  1  0  0  0  0
 29 41  1  0  0  0  0
 29 39  1  0  0  0  0
 30 42  1  1  0  0  0
 30 32  1  0  0  0  0
 31 30  1  0  0  0  0
 32 33  1  0  0  0  0
 34 32  2  0  0  0  0
 35 27  1  0  0  0  0
 38 28  1  0  0  0  0
 40 29  1  0  0  0  0
 43 31  1  0  0  0  0
M  END
$$$$
