NCW.pdb
 OpenBabel07022418093D

 51 52  0  0  1  0  0  0  0  0999 V2000
    0.4690   -4.5700    2.7740 N   0  0  0  0  0  0  0  0  0  0  0  0
    0.7870   -3.2830    3.3750 C   0  0  0  0  0  0  0  0  0  0  0  0
    1.3390   -2.4070    2.6800 O   0  0  0  0  0  0  0  0  0  0  0  0
    0.4580   -3.0410    4.7680 C   0  0  0  0  0  0  0  0  0  0  0  0
    0.7140   -1.6640    5.3180 C   0  0  2  0  0  0  0  0  0  0  0  0
    0.2800   -1.8340    6.7600 N   0  0  0  0  0  0  0  0  0  0  0  0
   -0.1140   -0.6000    4.7340 C   0  0  0  0  0  0  0  0  0  0  0  0
   -1.2680   -0.4330    5.2780 O   0  0  0  0  0  0  0  0  0  0  0  0
   -0.4850   -4.6390    2.3710 H   0  0  0  0  0  0  0  0  0  0  0  0
    1.1500   -5.3470    2.7580 H   0  0  0  0  0  0  0  0  0  0  0  0
    0.9660   -3.8000    5.4330 H   0  0  0  0  0  0  0  0  0  0  0  0
   -0.6370   -3.3140    4.8890 H   0  0  0  0  0  0  0  0  0  0  0  0
    1.7660   -1.4090    5.3610 H   0  0  0  0  0  0  0  0  0  0  0  0
   -0.6980   -2.2120    6.6400 H   0  0  0  0  0  0  0  0  0  0  0  0
    0.2550   -0.8860    7.2010 H   0  0  0  0  0  0  0  0  0  0  0  0
    0.2190    0.2510    3.6550 N   0  0  0  0  0  0  0  0  0  0  0  0
   -0.7260    1.2500    3.2090 C   0  0  1  0  0  0  0  0  0  0  0  0
   -0.2050    2.6460    3.5190 C   0  0  0  0  0  0  0  0  0  0  0  0
    0.0550    2.8760    5.2910 S   0  0  0  0  0  0  0  0  0  0  0  0
   -1.0190    1.2000    1.7620 C   0  0  0  0  0  0  0  0  0  0  0  0
   -1.8500    2.0410    1.2570 O   0  0  0  0  0  0  0  0  0  0  0  0
    1.1470    0.1720    3.1900 H   0  0  0  0  0  0  0  0  0  0  0  0
   -1.6870    1.1650    3.7600 H   0  0  0  0  0  0  0  0  0  0  0  0
    0.7730    2.8460    3.0130 H   0  0  0  0  0  0  0  0  0  0  0  0
   -0.9180    3.4070    3.1410 H   0  0  0  0  0  0  0  0  0  0  0  0
   -1.0320    2.3820    6.0430 H   0  0  0  0  0  0  0  0  0  0  0  0
   -0.4450    0.2800    0.8570 N   0  0  0  0  0  0  0  0  0  0  0  0
   -0.7470    0.2500   -0.5830 C   0  0  1  0  0  0  0  0  0  0  0  0
    0.4870    0.5380   -1.3670 C   0  0  0  0  0  0  0  0  0  0  0  0
    0.3840    0.5030   -2.8320 C   0  0  0  0  0  0  0  0  0  0  0  0
    0.1480    1.5750   -3.6990 C   0  0  0  0  0  0  0  0  0  0  0  0
    0.1080    1.1260   -4.9580 N   0  0  0  0  0  0  0  0  0  0  0  0
    0.3050   -0.1840   -4.9680 C   0  0  0  0  0  0  0  0  0  0  0  0
    0.3620   -1.0870   -6.0390 C   0  0  0  0  0  0  0  0  0  0  0  0
    0.5990   -2.4130   -5.7680 C   0  0  0  0  0  0  0  0  0  0  0  0
    0.7800   -2.8630   -4.4540 C   0  0  0  0  0  0  0  0  0  0  0  0
    0.7160   -1.9500   -3.4390 C   0  0  0  0  0  0  0  0  0  0  0  0
    0.4800   -0.6140   -3.6800 C   0  0  0  0  0  0  0  0  0  0  0  0
   -1.4070   -0.9710   -0.9870 C   0  0  0  0  0  0  0  0  0  0  0  0
   -1.4900   -1.9450   -0.1980 O   0  0  0  0  0  0  0  0  0  0  0  0
   -1.9970   -1.1710   -2.2380 O   0  0  0  0  0  0  0  0  0  0  0  0
    0.2260   -0.4150    1.2160 H   0  0  0  0  0  0  0  0  0  0  0  0
   -1.4490    1.1230   -0.7670 H   0  0  0  0  0  0  0  0  0  0  0  0
    0.8880    1.5710   -1.1140 H   0  0  0  0  0  0  0  0  0  0  0  0
    1.3220   -0.1370   -1.0310 H   0  0  0  0  0  0  0  0  0  0  0  0
    0.0220    2.5990   -3.3880 H   0  0  0  0  0  0  0  0  0  0  0  0
   -0.0530    1.6870   -5.8350 H   0  0  0  0  0  0  0  0  0  0  0  0
    0.2270   -0.7740   -7.0530 H   0  0  0  0  0  0  0  0  0  0  0  0
    0.6470   -3.1330   -6.5880 H   0  0  0  0  0  0  0  0  0  0  0  0
    0.9600   -3.9200   -4.3390 H   0  0  0  0  0  0  0  0  0  0  0  0
    0.8480   -2.2760   -2.4310 H   0  0  0  0  0  0  0  0  0  0  0  0
  1  2  1  0  0  0  0
  2  4  1  0  0  0  0
  3  2  2  0  0  0  0
  4 12  1  0  0  0  0
  4  5  1  0  0  0  0
  4 11  1  0  0  0  0
  5 13  1  6  0  0  0
  5  6  1  0  0  0  0
  6 15  1  0  0  0  0
  7  8  2  0  0  0  0
  7  5  1  0  0  0  0
  9  1  1  0  0  0  0
 10  1  1  0  0  0  0
 14  6  1  0  0  0  0
 16  7  1  0  0  0  0
 17 18  1  0  0  0  0
 17 16  1  0  0  0  0
 17 23  1  1  0  0  0
 18 19  1  0  0  0  0
 19 26  1  0  0  0  0
 20 17  1  0  0  0  0
 21 20  2  0  0  0  0
 22 16  1  0  0  0  0
 24 18  1  0  0  0  0
 25 18  1  0  0  0  0
 27 42  1  0  0  0  0
 27 20  1  0  0  0  0
 28 43  1  6  0  0  0
 28 27  1  0  0  0  0
 29 44  1  0  0  0  0
 29 45  1  0  0  0  0
 29 28  1  0  0  0  0
 30 29  1  0  0  0  0
 31 46  1  0  0  0  0
 31 30  2  0  0  0  0
 32 31  1  0  0  0  0
 33 32  1  0  0  0  0
 33 38  1  0  0  0  0
 34 35  1  0  0  0  0
 34 33  2  0  0  0  0
 35 36  2  0  0  0  0
 36 50  1  0  0  0  0
 36 37  1  0  0  0  0
 37 51  1  0  0  0  0
 38 37  2  0  0  0  0
 38 30  1  0  0  0  0
 39 28  1  0  0  0  0
 39 40  1  0  0  0  0
 41 39  2  0  0  0  0
 47 32  1  0  0  0  0
 48 34  1  0  0  0  0
 49 35  1  0  0  0  0
M  END
$$$$
