NDA.pdb
 OpenBabel07022418083D

 39 38  0  0  1  0  0  0  0  0999 V2000
   -2.2830   -4.5800   -0.8560 N   0  0  0  0  0  0  0  0  0  0  0  0
   -2.6480   -3.4680   -0.0630 C   0  0  0  0  0  0  0  0  0  0  0  0
   -3.8650   -3.3160    0.2050 O   0  0  0  0  0  0  0  0  0  0  0  0
   -1.6010   -2.5440    0.4100 C   0  0  0  0  0  0  0  0  0  0  0  0
   -0.2770   -3.0190   -0.0770 C   0  0  2  0  0  0  0  0  0  0  0  0
   -0.0150   -4.3390    0.4260 N   0  0  0  0  0  0  0  0  0  0  0  0
    0.8340   -2.1000    0.1920 C   0  0  0  0  0  0  0  0  0  0  0  0
    1.8380   -2.5570    0.7970 O   0  0  0  0  0  0  0  0  0  0  0  0
   -2.2890   -4.5170   -1.9050 H   0  0  0  0  0  0  0  0  0  0  0  0
   -1.9910   -5.5140   -0.4410 H   0  0  0  0  0  0  0  0  0  0  0  0
   -1.6540   -2.5000    1.5330 H   0  0  0  0  0  0  0  0  0  0  0  0
   -1.8540   -1.5160    0.0700 H   0  0  0  0  0  0  0  0  0  0  0  0
   -0.3590   -3.1020   -1.1990 H   0  0  0  0  0  0  0  0  0  0  0  0
    1.0170   -4.5160    0.4960 H   0  0  0  0  0  0  0  0  0  0  0  0
   -0.4720   -4.4630    1.3740 H   0  0  0  0  0  0  0  0  0  0  0  0
    0.8540   -0.7330   -0.1830 N   0  0  0  0  0  0  0  0  0  0  0  0
    2.0010    0.1040    0.1270 C   0  0  1  0  0  0  0  0  0  0  0  0
    2.6530    0.6620   -1.0810 C   0  0  0  0  0  0  0  0  0  0  0  0
    3.8050    1.4940   -0.6830 C   0  0  0  0  0  0  0  0  0  0  0  0
    3.7610    2.7330   -0.5110 O   0  0  0  0  0  0  0  0  0  0  0  0
    1.6010    1.1620    1.0520 C   0  0  0  0  0  0  0  0  0  0  0  0
    2.3730    2.0370    1.5430 O   0  0  0  0  0  0  0  0  0  0  0  0
    5.0570    0.8920   -0.4720 O   0  0  0  0  0  0  0  0  0  0  0  0
    0.0460   -0.3330   -0.6810 H   0  0  0  0  0  0  0  0  0  0  0  0
    2.7610   -0.5430    0.6510 H   0  0  0  0  0  0  0  0  0  0  0  0
    1.9150    1.3160   -1.6220 H   0  0  0  0  0  0  0  0  0  0  0  0
    3.0070   -0.1080   -1.7970 H   0  0  0  0  0  0  0  0  0  0  0  0
    5.7670    1.3950    0.0770 H   0  0  0  0  0  0  0  0  0  0  0  0
   -1.2980    3.1480    1.7380 C   0  0  0  0  0  0  0  0  0  0  0  0
   -0.2600    2.2600    2.3730 C   0  0  2  0  0  0  0  0  0  0  0  0
    0.2370    1.2580    1.4660 N   0  0  0  0  0  0  0  0  0  0  0  0
   -0.7530    1.6170    3.5880 C   0  0  0  0  0  0  0  0  0  0  0  0
   -1.2310    2.3050    4.5170 O   0  0  0  0  0  0  0  0  0  0  0  0
   -0.6980    0.2480    3.7290 O   0  0  0  0  0  0  0  0  0  0  0  0
   -2.1680    3.1850    2.4080 H   0  0  0  0  0  0  0  0  0  0  0  0
   -0.9130    4.1690    1.6320 H   0  0  0  0  0  0  0  0  0  0  0  0
   -1.6480    2.7710    0.7560 H   0  0  0  0  0  0  0  0  0  0  0  0
    0.6200    2.8930    2.6540 H   0  0  0  0  0  0  0  0  0  0  0  0
   -0.4290    0.5550    1.0840 H   0  0  0  0  0  0  0  0  0  0  0  0
  1 10  1  0  0  0  0
  1  2  1  0  0  0  0
  2  3  2  0  0  0  0
  2  4  1  0  0  0  0
  4 11  1  0  0  0  0
  5 13  1  6  0  0  0
  5  7  1  0  0  0  0
  5  4  1  0  0  0  0
  5  6  1  0  0  0  0
  6 14  1  0  0  0  0
  6 15  1  0  0  0  0
  7  8  2  0  0  0  0
  9  1  1  0  0  0  0
 12  4  1  0  0  0  0
 16 17  1  0  0  0  0
 16  7  1  0  0  0  0
 17 25  1  1  0  0  0
 17 21  1  0  0  0  0
 18 19  1  0  0  0  0
 18 17  1  0  0  0  0
 19 20  2  0  0  0  0
 19 23  1  0  0  0  0
 21 31  1  0  0  0  0
 21 22  2  0  0  0  0
 23 28  1  0  0  0  0
 24 16  1  0  0  0  0
 26 18  1  0  0  0  0
 27 18  1  0  0  0  0
 29 30  1  0  0  0  0
 29 35  1  0  0  0  0
 30 38  1  1  0  0  0
 30 32  1  0  0  0  0
 31 30  1  0  0  0  0
 32 34  2  0  0  0  0
 32 33  1  0  0  0  0
 36 29  1  0  0  0  0
 37 29  1  0  0  0  0
 39 31  1  0  0  0  0
M  END
$$$$
