NDF.pdb
 OpenBabel07022418083D

 49 49  0  0  1  0  0  0  0  0999 V2000
    3.0920   -4.6330    0.9010 N   0  0  0  0  0  0  0  0  0  0  0  0
    3.7600   -3.4830    1.3790 C   0  0  0  0  0  0  0  0  0  0  0  0
    4.9990   -3.5320    1.5380 O   0  0  0  0  0  0  0  0  0  0  0  0
    3.0250   -2.2620    1.6820 C   0  0  0  0  0  0  0  0  0  0  0  0
    3.9350   -1.1410    2.1840 C   0  0  2  0  0  0  0  0  0  0  0  0
    4.5990   -1.5620    3.3790 N   0  0  0  0  0  0  0  0  0  0  0  0
    3.0570    0.0230    2.4730 C   0  0  0  0  0  0  0  0  0  0  0  0
    2.9930    0.4800    3.6380 O   0  0  0  0  0  0  0  0  0  0  0  0
    3.4080   -5.1350    0.0410 H   0  0  0  0  0  0  0  0  0  0  0  0
    2.2600   -5.0200    1.3930 H   0  0  0  0  0  0  0  0  0  0  0  0
    2.1770   -2.4110    2.3800 H   0  0  0  0  0  0  0  0  0  0  0  0
    2.5530   -1.9070    0.7230 H   0  0  0  0  0  0  0  0  0  0  0  0
    4.6920   -0.9030    1.4300 H   0  0  0  0  0  0  0  0  0  0  0  0
    4.0470   -2.3340    3.8150 H   0  0  0  0  0  0  0  0  0  0  0  0
    5.5880   -1.7880    3.2070 H   0  0  0  0  0  0  0  0  0  0  0  0
    2.2690    0.6590    1.4720 N   0  0  0  0  0  0  0  0  0  0  0  0
    1.4130    1.7980    1.7630 C   0  0  1  0  0  0  0  0  0  0  0  0
    1.8340    3.0440    1.0510 C   0  0  0  0  0  0  0  0  0  0  0  0
    1.8310    2.9270   -0.4090 C   0  0  0  0  0  0  0  0  0  0  0  0
    1.4910    1.8560   -0.9480 O   0  0  0  0  0  0  0  0  0  0  0  0
    0.0170    1.4040    1.4530 C   0  0  0  0  0  0  0  0  0  0  0  0
   -0.9140    2.2290    1.6250 O   0  0  0  0  0  0  0  0  0  0  0  0
    2.1980    3.9880   -1.2050 O   0  0  0  0  0  0  0  0  0  0  0  0
    2.3470    0.2510    0.5130 H   0  0  0  0  0  0  0  0  0  0  0  0
    1.5290    2.0100    2.8660 H   0  0  0  0  0  0  0  0  0  0  0  0
    1.1430    3.8570    1.4110 H   0  0  0  0  0  0  0  0  0  0  0  0
    2.8320    3.3330    1.4590 H   0  0  0  0  0  0  0  0  0  0  0  0
    2.5280    3.8860   -2.1750 H   0  0  0  0  0  0  0  0  0  0  0  0
   -0.3430    0.1200    0.9620 N   0  0  0  0  0  0  0  0  0  0  0  0
   -1.7240   -0.2480    0.6620 C   0  0  1  0  0  0  0  0  0  0  0  0
   -1.9090   -0.5110   -0.8000 C   0  0  0  0  0  0  0  0  0  0  0  0
   -3.2800   -0.8910   -1.1890 C   0  0  0  0  0  0  0  0  0  0  0  0
   -4.2230    0.0360   -1.5130 C   0  0  0  0  0  0  0  0  0  0  0  0
   -5.5080   -0.3180   -1.8920 C   0  0  0  0  0  0  0  0  0  0  0  0
   -5.8540   -1.6650   -1.9450 C   0  0  0  0  0  0  0  0  0  0  0  0
   -4.8960   -2.5970   -1.6160 C   0  0  0  0  0  0  0  0  0  0  0  0
   -3.6130   -2.2270   -1.2380 C   0  0  0  0  0  0  0  0  0  0  0  0
   -2.1990   -1.3360    1.5160 C   0  0  0  0  0  0  0  0  0  0  0  0
   -3.3740   -1.7700    1.4310 O   0  0  0  0  0  0  0  0  0  0  0  0
   -1.3930   -1.9630    2.4750 O   0  0  0  0  0  0  0  0  0  0  0  0
    0.3800   -0.6020    0.8000 H   0  0  0  0  0  0  0  0  0  0  0  0
   -2.3380    0.6620    0.9030 H   0  0  0  0  0  0  0  0  0  0  0  0
   -1.6810    0.4440   -1.3410 H   0  0  0  0  0  0  0  0  0  0  0  0
   -1.1970   -1.3070   -1.1440 H   0  0  0  0  0  0  0  0  0  0  0  0
   -4.0030    1.1070   -1.4880 H   0  0  0  0  0  0  0  0  0  0  0  0
   -6.2410    0.4430   -2.1460 H   0  0  0  0  0  0  0  0  0  0  0  0
   -6.8540   -1.9920   -2.2380 H   0  0  0  0  0  0  0  0  0  0  0  0
   -5.1580   -3.6470   -1.6550 H   0  0  0  0  0  0  0  0  0  0  0  0
   -2.9120   -3.0250   -0.9930 H   0  0  0  0  0  0  0  0  0  0  0  0
  1  2  1  0  0  0  0
  1 10  1  0  0  0  0
  2  3  2  0  0  0  0
  2  4  1  0  0  0  0
  4  5  1  0  0  0  0
  4 11  1  0  0  0  0
  5 13  1  6  0  0  0
  5  7  1  0  0  0  0
  5  6  1  0  0  0  0
  6 14  1  0  0  0  0
  7  8  2  0  0  0  0
  9  1  1  0  0  0  0
 12  4  1  0  0  0  0
 15  6  1  0  0  0  0
 16 17  1  0  0  0  0
 16  7  1  0  0  0  0
 17 25  1  1  0  0  0
 18 26  1  0  0  0  0
 18 27  1  0  0  0  0
 18 17  1  0  0  0  0
 19 18  1  0  0  0  0
 20 19  2  0  0  0  0
 21 22  2  0  0  0  0
 21 17  1  0  0  0  0
 23 19  1  0  0  0  0
 24 16  1  0  0  0  0
 28 23  1  0  0  0  0
 29 21  1  0  0  0  0
 30 42  1  1  0  0  0
 30 29  1  0  0  0  0
 30 38  1  0  0  0  0
 31 30  1  0  0  0  0
 32 31  1  0  0  0  0
 33 45  1  0  0  0  0
 33 32  2  0  0  0  0
 34 33  1  0  0  0  0
 35 34  2  0  0  0  0
 35 36  1  0  0  0  0
 36 37  2  0  0  0  0
 37 32  1  0  0  0  0
 37 49  1  0  0  0  0
 38 40  1  0  0  0  0
 39 38  2  0  0  0  0
 41 29  1  0  0  0  0
 43 31  1  0  0  0  0
 44 31  1  0  0  0  0
 46 34  1  0  0  0  0
 47 35  1  0  0  0  0
 48 36  1  0  0  0  0
M  END
$$$$
