NDG.pdb
 OpenBabel07022418083D

 36 35  0  0  1  0  0  0  0  0999 V2000
    0.8860   -3.9540    3.0840 N   0  0  0  0  0  0  0  0  0  0  0  0
    1.3130   -3.5340    1.7970 C   0  0  0  0  0  0  0  0  0  0  0  0
    2.4300   -2.9620    1.7190 O   0  0  0  0  0  0  0  0  0  0  0  0
    0.4890   -3.7530    0.5820 C   0  0  0  0  0  0  0  0  0  0  0  0
    1.1300   -3.2320   -0.6610 C   0  0  2  0  0  0  0  0  0  0  0  0
    2.4080   -3.8560   -0.9300 N   0  0  0  0  0  0  0  0  0  0  0  0
    1.2770   -1.7860   -0.7340 C   0  0  0  0  0  0  0  0  0  0  0  0
    2.4120   -1.3130   -1.0070 O   0  0  0  0  0  0  0  0  0  0  0  0
    0.9860   -3.3860    3.9410 H   0  0  0  0  0  0  0  0  0  0  0  0
    0.4460   -4.8890    3.1730 H   0  0  0  0  0  0  0  0  0  0  0  0
    0.4180   -4.8720    0.4650 H   0  0  0  0  0  0  0  0  0  0  0  0
   -0.5200   -3.4010    0.7670 H   0  0  0  0  0  0  0  0  0  0  0  0
    0.4700   -3.5320   -1.5300 H   0  0  0  0  0  0  0  0  0  0  0  0
    2.3760   -4.8730   -1.0380 H   0  0  0  0  0  0  0  0  0  0  0  0
    3.2030   -3.4540   -0.4300 H   0  0  0  0  0  0  0  0  0  0  0  0
    0.2070   -0.8640   -0.5140 N   0  0  0  0  0  0  0  0  0  0  0  0
    0.4500    0.5650   -0.6100 C   0  0  1  0  0  0  0  0  0  0  0  0
   -0.4410    1.0880   -1.7090 C   0  0  0  0  0  0  0  0  0  0  0  0
   -0.3100    2.5410   -1.9340 C   0  0  0  0  0  0  0  0  0  0  0  0
   -0.9370    3.3510   -1.2070 O   0  0  0  0  0  0  0  0  0  0  0  0
    0.1950    1.2240    0.6860 C   0  0  0  0  0  0  0  0  0  0  0  0
    0.3250    2.4510    0.9080 O   0  0  0  0  0  0  0  0  0  0  0  0
    0.4960    3.0870   -2.9380 O   0  0  0  0  0  0  0  0  0  0  0  0
   -0.7190   -1.2770   -0.2910 H   0  0  0  0  0  0  0  0  0  0  0  0
    1.5140    0.7150   -0.8650 H   0  0  0  0  0  0  0  0  0  0  0  0
   -1.4950    0.8090   -1.4260 H   0  0  0  0  0  0  0  0  0  0  0  0
   -0.2540    0.5750   -2.6720 H   0  0  0  0  0  0  0  0  0  0  0  0
    0.7200    4.0890   -2.9230 H   0  0  0  0  0  0  0  0  0  0  0  0
   -0.2370    0.4280    1.8000 N   0  0  0  0  0  0  0  0  0  0  0  0
   -0.5020    0.9930    3.0830 C   0  0  0  0  0  0  0  0  0  0  0  0
   -1.5500    2.0030    3.1040 C   0  0  0  0  0  0  0  0  0  0  0  0
   -2.1560    2.3340    2.0650 O   0  0  0  0  0  0  0  0  0  0  0  0
   -1.8990    2.6210    4.2860 O   0  0  0  0  0  0  0  0  0  0  0  0
   -0.3510   -0.5840    1.6420 H   0  0  0  0  0  0  0  0  0  0  0  0
   -0.8180    0.1700    3.7690 H   0  0  0  0  0  0  0  0  0  0  0  0
    0.4220    1.4030    3.5730 H   0  0  0  0  0  0  0  0  0  0  0  0
  1 10  1  0  0  0  0
  1  9  1  0  0  0  0
  2  1  1  0  0  0  0
  3  2  2  0  0  0  0
  4 12  1  0  0  0  0
  4  2  1  0  0  0  0
  5 13  1  6  0  0  0
  5  4  1  0  0  0  0
  6  5  1  0  0  0  0
  6 15  1  0  0  0  0
  7  5  1  0  0  0  0
  7 16  1  0  0  0  0
  8  7  2  0  0  0  0
 11  4  1  0  0  0  0
 14  6  1  0  0  0  0
 16 24  1  0  0  0  0
 17 25  1  6  0  0  0
 17 16  1  0  0  0  0
 17 21  1  0  0  0  0
 18 26  1  0  0  0  0
 18 17  1  0  0  0  0
 19 18  1  0  0  0  0
 19 20  2  0  0  0  0
 21 22  2  0  0  0  0
 21 29  1  0  0  0  0
 23 28  1  0  0  0  0
 23 19  1  0  0  0  0
 27 18  1  0  0  0  0
 29 30  1  0  0  0  0
 30 31  1  0  0  0  0
 30 36  1  0  0  0  0
 30 35  1  0  0  0  0
 31 33  1  0  0  0  0
 32 31  2  0  0  0  0
 34 29  1  0  0  0  0
M  END
$$$$
