NDH.pdb
 OpenBabel07022418083D

 46 46  0  0  1  0  0  0  0  0999 V2000
    2.8510   -2.2060    6.5390 N   0  0  0  0  0  0  0  0  0  0  0  0
    2.4960   -2.8720    5.3400 C   0  0  0  0  0  0  0  0  0  0  0  0
    1.9160   -3.9880    5.4220 O   0  0  0  0  0  0  0  0  0  0  0  0
    2.8200   -2.2340    4.0430 C   0  0  0  0  0  0  0  0  0  0  0  0
    1.6280   -1.4840    3.4940 C   0  0  2  0  0  0  0  0  0  0  0  0
    0.4770   -2.3180    3.2710 N   0  0  0  0  0  0  0  0  0  0  0  0
    2.0020   -0.7310    2.2500 C   0  0  0  0  0  0  0  0  0  0  0  0
    3.0160   -0.0040    2.2690 O   0  0  0  0  0  0  0  0  0  0  0  0
    3.8200   -1.9330    6.7990 H   0  0  0  0  0  0  0  0  0  0  0  0
    2.1040   -1.9510    7.2470 H   0  0  0  0  0  0  0  0  0  0  0  0
    3.6510   -1.4890    4.2050 H   0  0  0  0  0  0  0  0  0  0  0  0
    3.1450   -2.9670    3.2960 H   0  0  0  0  0  0  0  0  0  0  0  0
    1.3490   -0.7160    4.2370 H   0  0  0  0  0  0  0  0  0  0  0  0
    0.5560   -2.9970    2.5110 H   0  0  0  0  0  0  0  0  0  0  0  0
   -0.3600   -1.7090    3.2010 H   0  0  0  0  0  0  0  0  0  0  0  0
    1.2470   -0.8190    1.0640 N   0  0  0  0  0  0  0  0  0  0  0  0
    1.5920   -0.0920   -0.1800 C   0  0  1  0  0  0  0  0  0  0  0  0
    1.7560   -1.0830   -1.3010 C   0  0  0  0  0  0  0  0  0  0  0  0
    2.1420   -0.4730   -2.5820 C   0  0  0  0  0  0  0  0  0  0  0  0
    2.4260    0.7330   -2.7830 O   0  0  0  0  0  0  0  0  0  0  0  0
    0.4430    0.8510   -0.4430 C   0  0  0  0  0  0  0  0  0  0  0  0
    0.5050    1.6040   -1.4260 O   0  0  0  0  0  0  0  0  0  0  0  0
    2.2230   -1.2690   -3.7540 O   0  0  0  0  0  0  0  0  0  0  0  0
    0.4140   -1.4170    1.0560 H   0  0  0  0  0  0  0  0  0  0  0  0
    2.5310    0.4660   -0.0740 H   0  0  0  0  0  0  0  0  0  0  0  0
    2.5880   -1.7610   -0.9830 H   0  0  0  0  0  0  0  0  0  0  0  0
    0.8450   -1.7110   -1.4230 H   0  0  0  0  0  0  0  0  0  0  0  0
    2.9580   -1.1080   -4.4330 H   0  0  0  0  0  0  0  0  0  0  0  0
   -0.6960    0.8760    0.4240 N   0  0  0  0  0  0  0  0  0  0  0  0
   -1.7830    1.7940    0.1430 C   0  0  1  0  0  0  0  0  0  0  0  0
   -3.0780    1.0650   -0.0680 C   0  0  0  0  0  0  0  0  0  0  0  0
   -3.0220    0.1220   -1.1870 C   0  0  0  0  0  0  0  0  0  0  0  0
   -4.1050   -0.6690   -1.5730 C   0  0  0  0  0  0  0  0  0  0  0  0
   -3.7420   -1.4190   -2.6160 N   0  0  0  0  0  0  0  0  0  0  0  0
   -2.4710   -1.1210   -2.8910 C   0  0  0  0  0  0  0  0  0  0  0  0
   -2.0080   -0.1840   -2.0340 N   0  0  0  0  0  0  0  0  0  0  0  0
   -1.8950    2.7370    1.2960 C   0  0  0  0  0  0  0  0  0  0  0  0
   -2.7840    3.6150    1.2520 O   0  0  0  0  0  0  0  0  0  0  0  0
   -1.0710    2.6880    2.4040 O   0  0  0  0  0  0  0  0  0  0  0  0
   -0.7440    0.2530    1.2330 H   0  0  0  0  0  0  0  0  0  0  0  0
   -1.5640    2.3740   -0.7830 H   0  0  0  0  0  0  0  0  0  0  0  0
   -3.4170    0.5450    0.8640 H   0  0  0  0  0  0  0  0  0  0  0  0
   -3.8440    1.8420   -0.2990 H   0  0  0  0  0  0  0  0  0  0  0  0
   -5.0700   -0.6700   -1.1040 H   0  0  0  0  0  0  0  0  0  0  0  0
   -4.3750   -2.0970   -3.0910 H   0  0  0  0  0  0  0  0  0  0  0  0
   -1.8770   -1.5550   -3.6800 H   0  0  0  0  0  0  0  0  0  0  0  0
  1  9  1  0  0  0  0
  1 10  1  0  0  0  0
  2  3  2  0  0  0  0
  2  1  1  0  0  0  0
  4 11  1  0  0  0  0
  4  2  1  0  0  0  0
  5  4  1  0  0  0  0
  5 13  1  1  0  0  0
  6  5  1  0  0  0  0
  7  8  2  0  0  0  0
  7  5  1  0  0  0  0
 12  4  1  0  0  0  0
 14  6  1  0  0  0  0
 15  6  1  0  0  0  0
 16  7  1  0  0  0  0
 17 25  1  1  0  0  0
 17 16  1  0  0  0  0
 18 26  1  0  0  0  0
 18 17  1  0  0  0  0
 19 18  1  0  0  0  0
 20 19  2  0  0  0  0
 21 17  1  0  0  0  0
 21 29  1  0  0  0  0
 22 21  2  0  0  0  0
 23 19  1  0  0  0  0
 24 16  1  0  0  0  0
 27 18  1  0  0  0  0
 28 23  1  0  0  0  0
 29 40  1  0  0  0  0
 30 41  1  6  0  0  0
 30 29  1  0  0  0  0
 30 37  1  0  0  0  0
 31 30  1  0  0  0  0
 31 42  1  0  0  0  0
 32 31  1  0  0  0  0
 33 32  2  0  0  0  0
 33 44  1  0  0  0  0
 34 33  1  0  0  0  0
 35 34  1  0  0  0  0
 35 36  2  0  0  0  0
 36 32  1  0  0  0  0
 37 39  1  0  0  0  0
 38 37  2  0  0  0  0
 43 31  1  0  0  0  0
 45 34  1  0  0  0  0
 46 35  1  0  0  0  0
M  END
$$$$
