NDI.pdb
 OpenBabel07022418083D

 48 47  0  0  1  0  0  0  0  0999 V2000
    2.3610   -4.6480   -2.3650 N   0  0  0  0  0  0  0  0  0  0  0  0
    3.5940   -4.0830   -1.9750 C   0  0  0  0  0  0  0  0  0  0  0  0
    4.6690   -4.4950   -2.4740 O   0  0  0  0  0  0  0  0  0  0  0  0
    3.5700   -2.9900   -0.9590 C   0  0  0  0  0  0  0  0  0  0  0  0
    2.1550   -2.6820   -0.5190 C   0  0  2  0  0  0  0  0  0  0  0  0
    1.3680   -2.2670   -1.6440 N   0  0  0  0  0  0  0  0  0  0  0  0
    2.2400   -1.6490    0.5390 C   0  0  0  0  0  0  0  0  0  0  0  0
    2.9020   -1.8870    1.5820 O   0  0  0  0  0  0  0  0  0  0  0  0
    1.7500   -5.0750   -1.6550 H   0  0  0  0  0  0  0  0  0  0  0  0
    2.1000   -4.6140   -3.3870 H   0  0  0  0  0  0  0  0  0  0  0  0
    4.0460   -2.0720   -1.3600 H   0  0  0  0  0  0  0  0  0  0  0  0
    4.2030   -3.3300   -0.1190 H   0  0  0  0  0  0  0  0  0  0  0  0
    1.7260   -3.6380   -0.1470 H   0  0  0  0  0  0  0  0  0  0  0  0
    1.9060   -2.2940   -2.5460 H   0  0  0  0  0  0  0  0  0  0  0  0
    0.5240   -2.8700   -1.8090 H   0  0  0  0  0  0  0  0  0  0  0  0
    1.6170   -0.3790    0.4660 N   0  0  0  0  0  0  0  0  0  0  0  0
    1.7110    0.6230    1.5090 C   0  0  1  0  0  0  0  0  0  0  0  0
    2.1800    1.9460    1.0130 C   0  0  0  0  0  0  0  0  0  0  0  0
    3.5230    1.8130    0.4110 C   0  0  0  0  0  0  0  0  0  0  0  0
    4.0850    0.6930    0.3810 O   0  0  0  0  0  0  0  0  0  0  0  0
    0.3250    0.7180    2.1010 C   0  0  0  0  0  0  0  0  0  0  0  0
    0.1320    1.5350    3.0460 O   0  0  0  0  0  0  0  0  0  0  0  0
    4.2100    2.8910   -0.1350 O   0  0  0  0  0  0  0  0  0  0  0  0
    1.0570   -0.1410   -0.3810 H   0  0  0  0  0  0  0  0  0  0  0  0
    2.3860    0.2820    2.3310 H   0  0  0  0  0  0  0  0  0  0  0  0
    2.1990    2.7050    1.8200 H   0  0  0  0  0  0  0  0  0  0  0  0
    1.4210    2.3000    0.2640 H   0  0  0  0  0  0  0  0  0  0  0  0
    5.1290    2.7880   -0.5380 H   0  0  0  0  0  0  0  0  0  0  0  0
   -4.6040    1.6720    2.8760 C   0  0  0  0  0  0  0  0  0  0  0  0
   -4.4950    0.6720    1.7470 C   0  0  0  0  0  0  0  0  0  0  0  0
   -3.0930    0.5250    1.2390 C   0  0  2  0  0  0  0  0  0  0  0  0
   -3.1370   -0.5150    0.1150 C   0  0  0  0  0  0  0  0  0  0  0  0
   -2.1030    0.0560    2.2500 C   0  0  2  0  0  0  0  0  0  0  0  0
   -0.7570   -0.0520    1.6580 N   0  0  0  0  0  0  0  0  0  0  0  0
   -2.4260   -1.2450    2.8750 C   0  0  0  0  0  0  0  0  0  0  0  0
   -1.6130   -2.2130    2.8130 O   0  0  0  0  0  0  0  0  0  0  0  0
   -3.6040   -1.4980    3.5550 O   0  0  0  0  0  0  0  0  0  0  0  0
   -5.5660    2.2210    2.8320 H   0  0  0  0  0  0  0  0  0  0  0  0
   -4.4880    1.1160    3.8440 H   0  0  0  0  0  0  0  0  0  0  0  0
   -3.7180    2.3320    2.8070 H   0  0  0  0  0  0  0  0  0  0  0  0
   -4.9010   -0.2830    2.1020 H   0  0  0  0  0  0  0  0  0  0  0  0
   -5.1300    1.0830    0.9230 H   0  0  0  0  0  0  0  0  0  0  0  0
   -2.7430    1.4540    0.7370 H   0  0  0  0  0  0  0  0  0  0  0  0
   -3.3170   -1.4860    0.6240 H   0  0  0  0  0  0  0  0  0  0  0  0
   -4.0470   -0.2790   -0.4740 H   0  0  0  0  0  0  0  0  0  0  0  0
   -2.2220   -0.5200   -0.4830 H   0  0  0  0  0  0  0  0  0  0  0  0
   -2.0420    0.8280    3.0560 H   0  0  0  0  0  0  0  0  0  0  0  0
   -0.5970   -0.7280    0.8760 H   0  0  0  0  0  0  0  0  0  0  0  0
  1  2  1  0  0  0  0
  1  9  1  0  0  0  0
  2  4  1  0  0  0  0
  3  2  2  0  0  0  0
  4  5  1  0  0  0  0
  4 12  1  0  0  0  0
  5 13  1  1  0  0  0
  5  7  1  0  0  0  0
  6  5  1  0  0  0  0
  7  8  2  0  0  0  0
 10  1  1  0  0  0  0
 11  4  1  0  0  0  0
 14  6  1  0  0  0  0
 15  6  1  0  0  0  0
 16  7  1  0  0  0  0
 16 17  1  0  0  0  0
 17 21  1  0  0  0  0
 17 25  1  1  0  0  0
 18 17  1  0  0  0  0
 18 26  1  0  0  0  0
 19 18  1  0  0  0  0
 20 19  2  0  0  0  0
 21 22  2  0  0  0  0
 23 19  1  0  0  0  0
 24 16  1  0  0  0  0
 27 18  1  0  0  0  0
 28 23  1  0  0  0  0
 29 39  1  0  0  0  0
 30 41  1  0  0  0  0
 30 29  1  0  0  0  0
 31 43  1  6  0  0  0
 31 30  1  0  0  0  0
 31 33  1  0  0  0  0
 32 44  1  0  0  0  0
 32 31  1  0  0  0  0
 33 35  1  0  0  0  0
 33 47  1  1  0  0  0
 34 21  1  0  0  0  0
 34 33  1  0  0  0  0
 35 37  1  0  0  0  0
 36 35  2  0  0  0  0
 38 29  1  0  0  0  0
 40 29  1  0  0  0  0
 42 30  1  0  0  0  0
 45 32  1  0  0  0  0
 46 32  1  0  0  0  0
 48 34  1  0  0  0  0
M  END
$$$$
