NDK.pdb
 OpenBabel07022418083D

 50 49  0  0  1  0  0  0  0  0999 V2000
    2.5780   -4.1730    2.5620 N   0  0  0  0  0  0  0  0  0  0  0  0
    3.2520   -4.4070    1.3440 C   0  0  0  0  0  0  0  0  0  0  0  0
    4.4190   -4.9240    1.4340 O   0  0  0  0  0  0  0  0  0  0  0  0
    2.7470   -4.1210   -0.0110 C   0  0  0  0  0  0  0  0  0  0  0  0
    1.5820   -3.1760    0.0630 C   0  0  2  0  0  0  0  0  0  0  0  0
    1.0130   -2.9020   -1.2520 N   0  0  0  0  0  0  0  0  0  0  0  0
    2.0990   -1.8810    0.6390 C   0  0  0  0  0  0  0  0  0  0  0  0
    2.8180   -1.7860    1.6510 O   0  0  0  0  0  0  0  0  0  0  0  0
    3.0410   -3.9480    3.4660 H   0  0  0  0  0  0  0  0  0  0  0  0
    1.5270   -4.2230    2.5920 H   0  0  0  0  0  0  0  0  0  0  0  0
    2.3710   -5.0780   -0.4700 H   0  0  0  0  0  0  0  0  0  0  0  0
    3.5650   -3.6970   -0.6380 H   0  0  0  0  0  0  0  0  0  0  0  0
    0.8070   -3.6390    0.6970 H   0  0  0  0  0  0  0  0  0  0  0  0
   -0.0340   -2.7620   -1.1620 H   0  0  0  0  0  0  0  0  0  0  0  0
    1.1280   -3.7250   -1.8830 H   0  0  0  0  0  0  0  0  0  0  0  0
    1.7650   -0.6330    0.0110 N   0  0  0  0  0  0  0  0  0  0  0  0
    2.2410    0.6460    0.5290 C   0  0  1  0  0  0  0  0  0  0  0  0
    2.6310    1.5780   -0.5600 C   0  0  0  0  0  0  0  0  0  0  0  0
    3.1350    2.8920   -0.1350 C   0  0  0  0  0  0  0  0  0  0  0  0
    3.3000    3.7880   -1.0110 O   0  0  0  0  0  0  0  0  0  0  0  0
    1.0950    1.1670    1.3660 C   0  0  0  0  0  0  0  0  0  0  0  0
    1.2250    2.2130    2.0340 O   0  0  0  0  0  0  0  0  0  0  0  0
    3.4420    3.2120    1.1690 O   0  0  0  0  0  0  0  0  0  0  0  0
    1.1690   -0.6810   -0.8260 H   0  0  0  0  0  0  0  0  0  0  0  0
    3.0650    0.5490    1.2520 H   0  0  0  0  0  0  0  0  0  0  0  0
    1.7990    1.6560   -1.3160 H   0  0  0  0  0  0  0  0  0  0  0  0
    3.4710    1.1240   -1.1720 H   0  0  0  0  0  0  0  0  0  0  0  0
    3.3090    4.1820    1.4970 H   0  0  0  0  0  0  0  0  0  0  0  0
   -0.1440    0.5010    1.4230 N   0  0  0  0  0  0  0  0  0  0  0  0
   -1.2900    0.9030    2.2000 C   0  0  1  0  0  0  0  0  0  0  0  0
   -2.3520    1.6040    1.4350 C   0  0  0  0  0  0  0  0  0  0  0  0
   -2.9770    0.8980    0.2990 C   0  0  0  0  0  0  0  0  0  0  0  0
   -3.6760   -0.3910    0.6100 C   0  0  0  0  0  0  0  0  0  0  0  0
   -4.2610   -0.9020   -0.7030 C   0  0  0  0  0  0  0  0  0  0  0  0
   -3.2100   -1.1090   -1.6660 N   0  0  0  0  0  0  0  0  0  0  0  0
   -1.7970   -0.2230    3.0060 C   0  0  0  0  0  0  0  0  0  0  0  0
   -1.2080   -1.3640    2.9680 O   0  0  0  0  0  0  0  0  0  0  0  0
   -2.9020   -0.1570    3.8370 O   0  0  0  0  0  0  0  0  0  0  0  0
   -0.2620   -0.3750    0.8500 H   0  0  0  0  0  0  0  0  0  0  0  0
   -0.9160    1.6830    2.9620 H   0  0  0  0  0  0  0  0  0  0  0  0
   -3.1700    1.8960    2.1460 H   0  0  0  0  0  0  0  0  0  0  0  0
   -1.9720    2.6090    1.0710 H   0  0  0  0  0  0  0  0  0  0  0  0
   -3.7860    1.5750   -0.1230 H   0  0  0  0  0  0  0  0  0  0  0  0
   -2.2830    0.7690   -0.5660 H   0  0  0  0  0  0  0  0  0  0  0  0
   -4.5250   -0.2220    1.2910 H   0  0  0  0  0  0  0  0  0  0  0  0
   -3.0200   -1.1970    0.9810 H   0  0  0  0  0  0  0  0  0  0  0  0
   -4.9410   -0.1250   -1.1440 H   0  0  0  0  0  0  0  0  0  0  0  0
   -4.8120   -1.8410   -0.5430 H   0  0  0  0  0  0  0  0  0  0  0  0
   -2.4150   -1.6850   -1.3310 H   0  0  0  0  0  0  0  0  0  0  0  0
   -2.9400   -0.2550   -2.1940 H   0  0  0  0  0  0  0  0  0  0  0  0
  1 10  1  0  0  0  0
  1  9  1  0  0  0  0
  2  3  2  0  0  0  0
  2  1  1  0  0  0  0
  4  5  1  0  0  0  0
  4  2  1  0  0  0  0
  5  7  1  0  0  0  0
  5 13  1  1  0  0  0
  6 14  1  0  0  0  0
  6  5  1  0  0  0  0
  7  8  2  0  0  0  0
 11  4  1  0  0  0  0
 12  4  1  0  0  0  0
 15  6  1  0  0  0  0
 16 17  1  0  0  0  0
 16  7  1  0  0  0  0
 17 25  1  1  0  0  0
 17 21  1  0  0  0  0
 18 19  1  0  0  0  0
 18 17  1  0  0  0  0
 19 23  1  0  0  0  0
 20 19  2  0  0  0  0
 21 29  1  0  0  0  0
 21 22  2  0  0  0  0
 23 28  1  0  0  0  0
 24 16  1  0  0  0  0
 26 18  1  0  0  0  0
 27 18  1  0  0  0  0
 29 30  1  0  0  0  0
 30 40  1  1  0  0  0
 30 36  1  0  0  0  0
 31 41  1  0  0  0  0
 31 30  1  0  0  0  0
 32 33  1  0  0  0  0
 32 31  1  0  0  0  0
 33 46  1  0  0  0  0
 33 45  1  0  0  0  0
 34 48  1  0  0  0  0
 34 33  1  0  0  0  0
 35 49  1  0  0  0  0
 35 34  1  0  0  0  0
 36 38  1  0  0  0  0
 37 36  2  0  0  0  0
 39 29  1  0  0  0  0
 42 31  1  0  0  0  0
 43 32  1  0  0  0  0
 44 32  1  0  0  0  0
 47 34  1  0  0  0  0
 50 35  1  0  0  0  0
M  END
$$$$
