NDL.pdb
 OpenBabel07022418083D

 48 47  0  0  1  0  0  0  0  0999 V2000
    4.0070   -4.6700    1.4110 N   0  0  0  0  0  0  0  0  0  0  0  0
    4.1020   -3.4650    2.1530 C   0  0  0  0  0  0  0  0  0  0  0  0
    4.4710   -3.4640    3.3440 O   0  0  0  0  0  0  0  0  0  0  0  0
    3.7530   -2.1790    1.4990 C   0  0  0  0  0  0  0  0  0  0  0  0
    2.2420   -2.2010    1.2480 C   0  0  2  0  0  0  0  0  0  0  0  0
    1.9590   -3.3080    0.3940 N   0  0  0  0  0  0  0  0  0  0  0  0
    1.8150   -0.8850    0.7750 C   0  0  0  0  0  0  0  0  0  0  0  0
    2.1320    0.1060    1.4970 O   0  0  0  0  0  0  0  0  0  0  0  0
    3.5690   -5.5250    1.8440 H   0  0  0  0  0  0  0  0  0  0  0  0
    4.3500   -4.7520    0.4320 H   0  0  0  0  0  0  0  0  0  0  0  0
    3.9890   -1.3320    2.1790 H   0  0  0  0  0  0  0  0  0  0  0  0
    4.2350   -2.1100    0.5030 H   0  0  0  0  0  0  0  0  0  0  0  0
    1.7760   -2.3550    2.2610 H   0  0  0  0  0  0  0  0  0  0  0  0
    2.4210   -3.2680   -0.5340 H   0  0  0  0  0  0  0  0  0  0  0  0
    0.9980   -3.6710    0.4010 H   0  0  0  0  0  0  0  0  0  0  0  0
    1.0870   -0.6040   -0.4010 N   0  0  0  0  0  0  0  0  0  0  0  0
    0.7050    0.7250   -0.8060 C   0  0  1  0  0  0  0  0  0  0  0  0
    1.1370    1.0890   -2.1770 C   0  0  0  0  0  0  0  0  0  0  0  0
    2.6150    1.0300   -2.3050 C   0  0  0  0  0  0  0  0  0  0  0  0
    3.1320    1.3240   -3.3980 O   0  0  0  0  0  0  0  0  0  0  0  0
   -0.7640    0.8960   -0.5850 C   0  0  0  0  0  0  0  0  0  0  0  0
   -1.3250    1.9480   -0.8640 O   0  0  0  0  0  0  0  0  0  0  0  0
    3.3920    0.6570   -1.2420 O   0  0  0  0  0  0  0  0  0  0  0  0
    0.8030   -1.4020   -1.0150 H   0  0  0  0  0  0  0  0  0  0  0  0
    1.1820    1.4220   -0.0810 H   0  0  0  0  0  0  0  0  0  0  0  0
    0.8650    2.1400   -2.4450 H   0  0  0  0  0  0  0  0  0  0  0  0
    0.6530    0.4110   -2.9220 H   0  0  0  0  0  0  0  0  0  0  0  0
    4.3830    0.5190   -1.2720 H   0  0  0  0  0  0  0  0  0  0  0  0
   -3.5430    0.5290    3.9460 C   0  0  0  0  0  0  0  0  0  0  0  0
   -2.9290   -0.1550    2.7480 C   0  0  0  0  0  0  0  0  0  0  0  0
   -1.4370   -0.0580    2.8460 C   0  0  0  0  0  0  0  0  0  0  0  0
   -3.4670    0.4370    1.4470 C   0  0  0  0  0  0  0  0  0  0  0  0
   -2.9370   -0.1740    0.2200 C   0  0  2  0  0  0  0  0  0  0  0  0
   -1.5630   -0.1580   -0.0410 N   0  0  0  0  0  0  0  0  0  0  0  0
   -3.6790    0.3870   -0.9820 C   0  0  0  0  0  0  0  0  0  0  0  0
   -3.1430    0.7130   -2.0490 O   0  0  0  0  0  0  0  0  0  0  0  0
   -5.0550    0.5300   -0.8360 O   0  0  0  0  0  0  0  0  0  0  0  0
   -4.6390    0.6240    3.8580 H   0  0  0  0  0  0  0  0  0  0  0  0
   -3.2790   -0.0650    4.8430 H   0  0  0  0  0  0  0  0  0  0  0  0
   -3.1390    1.5440    4.1140 H   0  0  0  0  0  0  0  0  0  0  0  0
   -3.1900   -1.2280    2.8340 H   0  0  0  0  0  0  0  0  0  0  0  0
   -1.1820    0.0740    3.9220 H   0  0  0  0  0  0  0  0  0  0  0  0
   -0.9620   -1.0430    2.5630 H   0  0  0  0  0  0  0  0  0  0  0  0
   -1.0000    0.7950    2.3240 H   0  0  0  0  0  0  0  0  0  0  0  0
   -3.4570    1.5420    1.4710 H   0  0  0  0  0  0  0  0  0  0  0  0
   -4.5760    0.2060    1.4760 H   0  0  0  0  0  0  0  0  0  0  0  0
   -3.2760   -1.2710    0.1120 H   0  0  0  0  0  0  0  0  0  0  0  0
   -0.9940   -1.0360    0.1780 H   0  0  0  0  0  0  0  0  0  0  0  0
  1  9  1  0  0  0  0
  1  2  1  0  0  0  0
  2  3  2  0  0  0  0
  4  2  1  0  0  0  0
  4 11  1  0  0  0  0
  5  4  1  0  0  0  0
  5 13  1  1  0  0  0
  6 15  1  0  0  0  0
  6  5  1  0  0  0  0
  7  5  1  0  0  0  0
  7  8  2  0  0  0  0
 10  1  1  0  0  0  0
 12  4  1  0  0  0  0
 14  6  1  0  0  0  0
 16  7  1  0  0  0  0
 17 21  1  0  0  0  0
 17 16  1  0  0  0  0
 17 25  1  1  0  0  0
 18 17  1  0  0  0  0
 19 18  1  0  0  0  0
 19 23  1  0  0  0  0
 20 19  2  0  0  0  0
 21 34  1  0  0  0  0
 22 21  2  0  0  0  0
 24 16  1  0  0  0  0
 26 18  1  0  0  0  0
 27 18  1  0  0  0  0
 28 23  1  0  0  0  0
 29 40  1  0  0  0  0
 29 39  1  0  0  0  0
 30 41  1  0  0  0  0
 30 31  1  0  0  0  0
 30 29  1  0  0  0  0
 31 42  1  0  0  0  0
 32 45  1  0  0  0  0
 32 46  1  0  0  0  0
 32 30  1  0  0  0  0
 33 47  1  1  0  0  0
 33 32  1  0  0  0  0
 34 48  1  0  0  0  0
 34 33  1  0  0  0  0
 35 37  1  0  0  0  0
 35 33  1  0  0  0  0
 36 35  2  0  0  0  0
 38 29  1  0  0  0  0
 43 31  1  0  0  0  0
 44 31  1  0  0  0  0
M  END
$$$$
