NDM.pdb
 OpenBabel07022418083D

 46 45  0  0  1  0  0  0  0  0999 V2000
    2.4660   -4.1760    3.1650 N   0  0  0  0  0  0  0  0  0  0  0  0
    3.6770   -3.4150    3.0690 C   0  0  0  0  0  0  0  0  0  0  0  0
    4.7850   -3.9100    3.3910 O   0  0  0  0  0  0  0  0  0  0  0  0
    3.6450   -2.0080    2.5800 C   0  0  0  0  0  0  0  0  0  0  0  0
    2.1910   -1.6340    2.2620 C   0  0  2  0  0  0  0  0  0  0  0  0
    1.6450   -2.4900    1.2590 N   0  0  0  0  0  0  0  0  0  0  0  0
    2.1230   -0.2340    1.7570 C   0  0  0  0  0  0  0  0  0  0  0  0
    2.5480    0.7400    2.4320 O   0  0  0  0  0  0  0  0  0  0  0  0
    1.6080   -3.8330    3.6090 H   0  0  0  0  0  0  0  0  0  0  0  0
    2.4670   -5.1430    2.7540 H   0  0  0  0  0  0  0  0  0  0  0  0
    4.0550   -1.3280    3.3550 H   0  0  0  0  0  0  0  0  0  0  0  0
    4.2450   -1.9650    1.6490 H   0  0  0  0  0  0  0  0  0  0  0  0
    1.6040   -1.6940    3.2050 H   0  0  0  0  0  0  0  0  0  0  0  0
    2.2710   -3.2120    0.8930 H   0  0  0  0  0  0  0  0  0  0  0  0
    0.6620   -2.7700    1.3970 H   0  0  0  0  0  0  0  0  0  0  0  0
    1.5670    0.0680    0.4700 N   0  0  0  0  0  0  0  0  0  0  0  0
    1.4890    1.4070   -0.0420 C   0  0  1  0  0  0  0  0  0  0  0  0
    2.0270    1.5930   -1.4170 C   0  0  0  0  0  0  0  0  0  0  0  0
    1.2890    0.7620   -2.3730 C   0  0  0  0  0  0  0  0  0  0  0  0
    0.3320    0.0370   -2.0340 O   0  0  0  0  0  0  0  0  0  0  0  0
    0.0280    1.7930   -0.0480 C   0  0  0  0  0  0  0  0  0  0  0  0
   -0.3290    2.9300   -0.4540 O   0  0  0  0  0  0  0  0  0  0  0  0
    1.6500    0.7600   -3.7270 O   0  0  0  0  0  0  0  0  0  0  0  0
    1.2270   -0.7410   -0.0640 H   0  0  0  0  0  0  0  0  0  0  0  0
    1.9430    2.1240    0.6950 H   0  0  0  0  0  0  0  0  0  0  0  0
    1.9820    2.6570   -1.7120 H   0  0  0  0  0  0  0  0  0  0  0  0
    3.0860    1.2190   -1.4100 H   0  0  0  0  0  0  0  0  0  0  0  0
    0.9720    0.4260   -4.4050 H   0  0  0  0  0  0  0  0  0  0  0  0
   -2.8930   -1.7220    2.4450 C   0  0  0  0  0  0  0  0  0  0  0  0
   -3.8450   -1.7990    0.9410 S   0  0  0  0  0  0  0  0  0  0  0  0
   -3.1780   -1.0090   -0.4880 C   0  0  0  0  0  0  0  0  0  0  0  0
   -3.1410    0.4570   -0.5780 C   0  0  0  0  0  0  0  0  0  0  0  0
   -2.3680    1.2560    0.3960 C   0  0  2  0  0  0  0  0  0  0  0  0
   -0.9740    0.9000    0.3970 N   0  0  0  0  0  0  0  0  0  0  0  0
   -3.0050    1.3760    1.6990 C   0  0  0  0  0  0  0  0  0  0  0  0
   -4.2540    1.5120    1.7300 O   0  0  0  0  0  0  0  0  0  0  0  0
   -2.3060    1.3540    2.9040 O   0  0  0  0  0  0  0  0  0  0  0  0
   -1.8910   -1.2620    2.3460 H   0  0  0  0  0  0  0  0  0  0  0  0
   -2.7470   -2.7340    2.9060 H   0  0  0  0  0  0  0  0  0  0  0  0
   -3.4600   -1.0790    3.1810 H   0  0  0  0  0  0  0  0  0  0  0  0
   -3.8160   -1.3540   -1.3800 H   0  0  0  0  0  0  0  0  0  0  0  0
   -2.1710   -1.4530   -0.7720 H   0  0  0  0  0  0  0  0  0  0  0  0
   -2.6750    0.6870   -1.6060 H   0  0  0  0  0  0  0  0  0  0  0  0
   -4.1950    0.8650   -0.7000 H   0  0  0  0  0  0  0  0  0  0  0  0
   -2.4010    2.3490   -0.0420 H   0  0  0  0  0  0  0  0  0  0  0  0
   -0.6570   -0.0300    0.7240 H   0  0  0  0  0  0  0  0  0  0  0  0
  1  9  1  0  0  0  0
  2  1  1  0  0  0  0
  2  3  2  0  0  0  0
  4  2  1  0  0  0  0
  4 11  1  0  0  0  0
  5  4  1  0  0  0  0
  5 13  1  1  0  0  0
  6 15  1  0  0  0  0
  6  5  1  0  0  0  0
  7  5  1  0  0  0  0
  7  8  2  0  0  0  0
 10  1  1  0  0  0  0
 12  4  1  0  0  0  0
 14  6  1  0  0  0  0
 16  7  1  0  0  0  0
 17 16  1  0  0  0  0
 17 25  1  1  0  0  0
 18 27  1  0  0  0  0
 18 17  1  0  0  0  0
 19 20  2  0  0  0  0
 19 18  1  0  0  0  0
 21 17  1  0  0  0  0
 21 34  1  0  0  0  0
 22 21  2  0  0  0  0
 23 19  1  0  0  0  0
 24 16  1  0  0  0  0
 26 18  1  0  0  0  0
 28 23  1  0  0  0  0
 29 39  1  0  0  0  0
 29 40  1  0  0  0  0
 30 29  1  0  0  0  0
 31 30  1  0  0  0  0
 32 31  1  0  0  0  0
 32 33  1  0  0  0  0
 33 45  1  6  0  0  0
 33 34  1  0  0  0  0
 33 35  1  0  0  0  0
 34 46  1  0  0  0  0
 35 36  2  0  0  0  0
 35 37  1  0  0  0  0
 38 29  1  0  0  0  0
 41 31  1  0  0  0  0
 42 31  1  0  0  0  0
 43 32  1  0  0  0  0
 44 32  1  0  0  0  0
M  END
$$$$
