NDN.pdb
 OpenBabel07022418083D

 43 42  0  0  1  0  0  0  0  0999 V2000
    3.9470   -3.1610    4.2910 N   0  0  0  0  0  0  0  0  0  0  0  0
    3.8640   -1.7540    4.2220 C   0  0  0  0  0  0  0  0  0  0  0  0
    3.8020   -1.0780    5.2630 O   0  0  0  0  0  0  0  0  0  0  0  0
    3.8490   -1.0850    2.9080 C   0  0  0  0  0  0  0  0  0  0  0  0
    2.4530   -0.6840    2.5800 C   0  0  2  0  0  0  0  0  0  0  0  0
    1.6160   -1.8630    2.5380 N   0  0  0  0  0  0  0  0  0  0  0  0
    2.3480    0.1230    1.3420 C   0  0  0  0  0  0  0  0  0  0  0  0
    3.0470    1.1610    1.2250 O   0  0  0  0  0  0  0  0  0  0  0  0
    3.1590   -3.7860    4.6120 H   0  0  0  0  0  0  0  0  0  0  0  0
    4.8270   -3.6550    4.0160 H   0  0  0  0  0  0  0  0  0  0  0  0
    4.4980   -0.1820    3.0000 H   0  0  0  0  0  0  0  0  0  0  0  0
    4.3090   -1.7640    2.1620 H   0  0  0  0  0  0  0  0  0  0  0  0
    2.0720   -0.0650    3.4260 H   0  0  0  0  0  0  0  0  0  0  0  0
    1.8640   -2.3800    1.6470 H   0  0  0  0  0  0  0  0  0  0  0  0
    0.6220   -1.5520    2.4300 H   0  0  0  0  0  0  0  0  0  0  0  0
    1.4900   -0.2140    0.2660 N   0  0  0  0  0  0  0  0  0  0  0  0
    1.3670    0.5540   -0.9550 C   0  0  1  0  0  0  0  0  0  0  0  0
    1.6720   -0.2220   -2.1990 C   0  0  0  0  0  0  0  0  0  0  0  0
    0.7910   -1.3870   -2.4130 C   0  0  0  0  0  0  0  0  0  0  0  0
   -0.1210   -1.6560   -1.6130 O   0  0  0  0  0  0  0  0  0  0  0  0
   -0.0380    1.0580   -1.0370 C   0  0  0  0  0  0  0  0  0  0  0  0
   -0.3750    1.7470   -2.0340 O   0  0  0  0  0  0  0  0  0  0  0  0
    1.0240   -2.1650   -3.5420 O   0  0  0  0  0  0  0  0  0  0  0  0
    0.9130   -1.0740    0.3720 H   0  0  0  0  0  0  0  0  0  0  0  0
    2.0720    1.4360   -0.9450 H   0  0  0  0  0  0  0  0  0  0  0  0
    1.6390    0.4750   -3.0580 H   0  0  0  0  0  0  0  0  0  0  0  0
    2.7200   -0.6190   -2.1620 H   0  0  0  0  0  0  0  0  0  0  0  0
    0.2500   -2.7250   -3.8820 H   0  0  0  0  0  0  0  0  0  0  0  0
   -2.5160   -1.9600    0.9210 N   0  0  0  0  0  0  0  0  0  0  0  0
   -3.2530   -0.7590    0.8810 C   0  0  0  0  0  0  0  0  0  0  0  0
   -3.8940   -0.4250    1.9110 O   0  0  0  0  0  0  0  0  0  0  0  0
   -3.3230    0.1380   -0.2940 C   0  0  0  0  0  0  0  0  0  0  0  0
   -2.3850    1.3160   -0.1720 C   0  0  2  0  0  0  0  0  0  0  0  0
   -1.0280    0.8100   -0.0590 N   0  0  0  0  0  0  0  0  0  0  0  0
   -2.7320    2.2360    0.9160 C   0  0  0  0  0  0  0  0  0  0  0  0
   -1.9040    2.5240    1.8190 O   0  0  0  0  0  0  0  0  0  0  0  0
   -3.9810    2.8300    1.0010 O   0  0  0  0  0  0  0  0  0  0  0  0
   -1.7470   -2.0600    1.6010 H   0  0  0  0  0  0  0  0  0  0  0  0
   -2.7350   -2.7390    0.2830 H   0  0  0  0  0  0  0  0  0  0  0  0
   -4.3400    0.5700   -0.4450 H   0  0  0  0  0  0  0  0  0  0  0  0
   -3.0450   -0.4000   -1.2230 H   0  0  0  0  0  0  0  0  0  0  0  0
   -2.4970    1.8960   -1.1290 H   0  0  0  0  0  0  0  0  0  0  0  0
   -0.7550    0.2410    0.7690 H   0  0  0  0  0  0  0  0  0  0  0  0
  1  9  1  0  0  0  0
  2  1  1  0  0  0  0
  2  3  2  0  0  0  0
  4 11  1  0  0  0  0
  4  2  1  0  0  0  0
  5  4  1  0  0  0  0
  5 13  1  1  0  0  0
  6  5  1  0  0  0  0
  7  5  1  0  0  0  0
  8  7  2  0  0  0  0
 10  1  1  0  0  0  0
 12  4  1  0  0  0  0
 14  6  1  0  0  0  0
 15  6  1  0  0  0  0
 16 24  1  0  0  0  0
 16  7  1  0  0  0  0
 17 25  1  1  0  0  0
 17 16  1  0  0  0  0
 18 27  1  0  0  0  0
 18 17  1  0  0  0  0
 19 18  1  0  0  0  0
 19 20  2  0  0  0  0
 21 17  1  0  0  0  0
 21 34  1  0  0  0  0
 22 21  2  0  0  0  0
 23 19  1  0  0  0  0
 26 18  1  0  0  0  0
 28 23  1  0  0  0  0
 29 38  1  0  0  0  0
 30 29  1  0  0  0  0
 30 31  2  0  0  0  0
 32 33  1  0  0  0  0
 32 30  1  0  0  0  0
 33 42  1  6  0  0  0
 33 34  1  0  0  0  0
 33 35  1  0  0  0  0
 34 43  1  0  0  0  0
 35 37  2  0  0  0  0
 35 36  1  0  0  0  0
 39 29  1  0  0  0  0
 40 32  1  0  0  0  0
 41 32  1  0  0  0  0
M  END
$$$$
