NDQ.pdb
 OpenBabel07022418083D

 46 45  0  0  1  0  0  0  0  0999 V2000
    4.7250   -3.3800    4.1560 N   0  0  0  0  0  0  0  0  0  0  0  0
    3.4040   -3.4950    3.6580 C   0  0  0  0  0  0  0  0  0  0  0  0
    3.2260   -3.8920    2.4870 O   0  0  0  0  0  0  0  0  0  0  0  0
    2.2730   -3.1360    4.5630 C   0  0  0  0  0  0  0  0  0  0  0  0
    0.9970   -3.3690    3.7860 C   0  0  2  0  0  0  0  0  0  0  0  0
    0.8790   -4.7580    3.3720 N   0  0  0  0  0  0  0  0  0  0  0  0
    0.9620   -2.5170    2.5470 C   0  0  0  0  0  0  0  0  0  0  0  0
    0.8940   -3.0430    1.4100 O   0  0  0  0  0  0  0  0  0  0  0  0
    5.4990   -3.2650    3.4900 H   0  0  0  0  0  0  0  0  0  0  0  0
    4.8930   -3.4150    5.1850 H   0  0  0  0  0  0  0  0  0  0  0  0
    2.2960   -3.8610    5.4010 H   0  0  0  0  0  0  0  0  0  0  0  0
    2.3380   -2.1090    4.9210 H   0  0  0  0  0  0  0  0  0  0  0  0
    0.1310   -3.1610    4.4480 H   0  0  0  0  0  0  0  0  0  0  0  0
    0.5950   -5.3190    4.2280 H   0  0  0  0  0  0  0  0  0  0  0  0
    0.0110   -4.7900    2.7590 H   0  0  0  0  0  0  0  0  0  0  0  0
    1.0030   -1.1060    2.6170 N   0  0  0  0  0  0  0  0  0  0  0  0
    0.9650   -0.2320    1.4270 C   0  0  1  0  0  0  0  0  0  0  0  0
    2.2500   -0.2840    0.6950 C   0  0  0  0  0  0  0  0  0  0  0  0
    2.2680    0.5570   -0.5080 C   0  0  0  0  0  0  0  0  0  0  0  0
    2.1010    0.0730   -1.6780 O   0  0  0  0  0  0  0  0  0  0  0  0
   -0.2660   -0.4090    0.6660 C   0  0  0  0  0  0  0  0  0  0  0  0
   -1.0370   -1.3680    1.0440 O   0  0  0  0  0  0  0  0  0  0  0  0
    2.4690    1.9240   -0.4280 O   0  0  0  0  0  0  0  0  0  0  0  0
    1.0640   -0.7010    3.5800 H   0  0  0  0  0  0  0  0  0  0  0  0
    0.8740    0.8080    1.8680 H   0  0  0  0  0  0  0  0  0  0  0  0
    2.5660   -1.3000    0.3870 H   0  0  0  0  0  0  0  0  0  0  0  0
    3.0730    0.0790    1.3530 H   0  0  0  0  0  0  0  0  0  0  0  0
    2.3670    2.5570   -1.2180 H   0  0  0  0  0  0  0  0  0  0  0  0
   -3.7350    4.7010   -1.3480 N   0  0  0  0  0  0  0  0  0  0  0  0
   -3.8220    3.3370   -0.9900 C   0  0  0  0  0  0  0  0  0  0  0  0
   -4.8410    2.9140   -0.4190 O   0  0  0  0  0  0  0  0  0  0  0  0
   -2.7050    2.4300   -1.2970 C   0  0  0  0  0  0  0  0  0  0  0  0
   -3.0480    1.0540   -0.8380 C   0  0  0  0  0  0  0  0  0  0  0  0
   -1.9860    0.0160   -1.0870 C   0  0  2  0  0  0  0  0  0  0  0  0
   -0.7320    0.3220   -0.4240 N   0  0  0  0  0  0  0  0  0  0  0  0
   -1.8080   -0.2640   -2.5260 C   0  0  0  0  0  0  0  0  0  0  0  0
   -2.8310   -0.5460   -3.2110 O   0  0  0  0  0  0  0  0  0  0  0  0
   -0.5890   -0.2360   -3.1750 O   0  0  0  0  0  0  0  0  0  0  0  0
   -4.3630    5.4290   -0.8980 H   0  0  0  0  0  0  0  0  0  0  0  0
   -3.0650    5.0730   -2.0600 H   0  0  0  0  0  0  0  0  0  0  0  0
   -1.8060    2.7790   -0.7470 H   0  0  0  0  0  0  0  0  0  0  0  0
   -2.4860    2.4190   -2.3970 H   0  0  0  0  0  0  0  0  0  0  0  0
   -3.9680    0.6820   -1.3600 H   0  0  0  0  0  0  0  0  0  0  0  0
   -3.3150    1.0790    0.2420 H   0  0  0  0  0  0  0  0  0  0  0  0
   -2.4020   -0.9280   -0.6220 H   0  0  0  0  0  0  0  0  0  0  0  0
   -0.1800    1.1120   -0.7640 H   0  0  0  0  0  0  0  0  0  0  0  0
  1 10  1  0  0  0  0
  2  1  1  0  0  0  0
  2  4  1  0  0  0  0
  3  2  2  0  0  0  0
  4 12  1  0  0  0  0
  4 11  1  0  0  0  0
  5 13  1  1  0  0  0
  5  4  1  0  0  0  0
  6  5  1  0  0  0  0
  6 14  1  0  0  0  0
  7 16  1  0  0  0  0
  7  5  1  0  0  0  0
  8  7  2  0  0  0  0
  9  1  1  0  0  0  0
 15  6  1  0  0  0  0
 16 24  1  0  0  0  0
 17 25  1  1  0  0  0
 17 16  1  0  0  0  0
 18 27  1  0  0  0  0
 18 17  1  0  0  0  0
 19 23  1  0  0  0  0
 19 18  1  0  0  0  0
 20 19  2  0  0  0  0
 21 22  2  0  0  0  0
 21 17  1  0  0  0  0
 26 18  1  0  0  0  0
 28 23  1  0  0  0  0
 29 30  1  0  0  0  0
 29 39  1  0  0  0  0
 30 31  2  0  0  0  0
 32 30  1  0  0  0  0
 32 33  1  0  0  0  0
 32 41  1  0  0  0  0
 33 44  1  0  0  0  0
 34 33  1  0  0  0  0
 34 45  1  1  0  0  0
 34 35  1  0  0  0  0
 35 21  1  0  0  0  0
 36 34  1  0  0  0  0
 37 36  2  0  0  0  0
 38 36  1  0  0  0  0
 40 29  1  0  0  0  0
 42 32  1  0  0  0  0
 43 33  1  0  0  0  0
 46 35  1  0  0  0  0
M  END
$$$$
