NDS.pdb
 OpenBabel07022418083D

 40 39  0  0  1  0  0  0  0  0999 V2000
    0.4740   -5.3620    2.1900 N   0  0  0  0  0  0  0  0  0  0  0  0
    1.3990   -4.5460    1.4810 C   0  0  0  0  0  0  0  0  0  0  0  0
    2.3220   -5.1570    0.8630 O   0  0  0  0  0  0  0  0  0  0  0  0
    1.2970   -3.0540    1.4600 C   0  0  0  0  0  0  0  0  0  0  0  0
    2.4320   -2.5220    0.6180 C   0  0  2  0  0  0  0  0  0  0  0  0
    3.7220   -2.8940    1.1440 N   0  0  0  0  0  0  0  0  0  0  0  0
    2.3470   -1.0800    0.3750 C   0  0  0  0  0  0  0  0  0  0  0  0
    3.3630   -0.3580    0.6410 O   0  0  0  0  0  0  0  0  0  0  0  0
    0.7180   -5.7030    3.1560 H   0  0  0  0  0  0  0  0  0  0  0  0
   -0.4470   -5.6470    1.8060 H   0  0  0  0  0  0  0  0  0  0  0  0
    1.2760   -2.6570    2.4720 H   0  0  0  0  0  0  0  0  0  0  0  0
    0.3410   -2.8070    0.9730 H   0  0  0  0  0  0  0  0  0  0  0  0
    2.3340   -3.0320   -0.3840 H   0  0  0  0  0  0  0  0  0  0  0  0
    4.3530   -2.0700    1.2660 H   0  0  0  0  0  0  0  0  0  0  0  0
    3.6740   -3.3820    2.0640 H   0  0  0  0  0  0  0  0  0  0  0  0
    1.2200   -0.4200   -0.1350 N   0  0  0  0  0  0  0  0  0  0  0  0
    1.1510    1.0170   -0.3710 C   0  0  1  0  0  0  0  0  0  0  0  0
    0.8500    1.1730   -1.8420 C   0  0  0  0  0  0  0  0  0  0  0  0
    0.7620    2.5970   -2.1980 C   0  0  0  0  0  0  0  0  0  0  0  0
   -0.2870    3.2870   -2.1530 O   0  0  0  0  0  0  0  0  0  0  0  0
    0.0080    1.5750    0.3940 C   0  0  0  0  0  0  0  0  0  0  0  0
   -0.2890    2.7970    0.3960 O   0  0  0  0  0  0  0  0  0  0  0  0
    1.9570    3.2130   -2.6180 O   0  0  0  0  0  0  0  0  0  0  0  0
    0.3660   -0.9700   -0.3690 H   0  0  0  0  0  0  0  0  0  0  0  0
    2.0980    1.5140   -0.1240 H   0  0  0  0  0  0  0  0  0  0  0  0
    1.6050    0.6240   -2.4500 H   0  0  0  0  0  0  0  0  0  0  0  0
   -0.1280    0.6850   -2.0980 H   0  0  0  0  0  0  0  0  0  0  0  0
    1.9620    4.0990   -3.0830 H   0  0  0  0  0  0  0  0  0  0  0  0
   -3.1500   -0.7390    1.3910 O   0  0  0  0  0  0  0  0  0  0  0  0
   -3.1870    0.6610    1.2900 C   0  0  0  0  0  0  0  0  0  0  0  0
   -1.9210    1.2640    1.9140 C   0  0  2  0  0  0  0  0  0  0  0  0
   -0.8120    0.7250    1.1720 N   0  0  0  0  0  0  0  0  0  0  0  0
   -1.8470    0.9650    3.3550 C   0  0  0  0  0  0  0  0  0  0  0  0
   -2.7700    1.3920    4.0950 O   0  0  0  0  0  0  0  0  0  0  0  0
   -0.8280    0.2430    3.9600 O   0  0  0  0  0  0  0  0  0  0  0  0
   -2.4530   -0.9950    2.0460 H   0  0  0  0  0  0  0  0  0  0  0  0
   -4.0920    1.0840    1.7380 H   0  0  0  0  0  0  0  0  0  0  0  0
   -3.1210    0.8870    0.2000 H   0  0  0  0  0  0  0  0  0  0  0  0
   -1.9820    2.3470    1.7600 H   0  0  0  0  0  0  0  0  0  0  0  0
   -0.6630   -0.3210    1.2510 H   0  0  0  0  0  0  0  0  0  0  0  0
  1  9  1  0  0  0  0
  2  1  1  0  0  0  0
  3  2  2  0  0  0  0
  4  2  1  0  0  0  0
  4 11  1  0  0  0  0
  5 13  1  6  0  0  0
  5  6  1  0  0  0  0
  5  4  1  0  0  0  0
  6 14  1  0  0  0  0
  6 15  1  0  0  0  0
  7  5  1  0  0  0  0
  7  8  2  0  0  0  0
 10  1  1  0  0  0  0
 12  4  1  0  0  0  0
 16  7  1  0  0  0  0
 17 16  1  0  0  0  0
 17 25  1  1  0  0  0
 17 21  1  0  0  0  0
 18 17  1  0  0  0  0
 19 20  2  0  0  0  0
 19 18  1  0  0  0  0
 21 22  2  0  0  0  0
 21 32  1  0  0  0  0
 23 19  1  0  0  0  0
 24 16  1  0  0  0  0
 26 18  1  0  0  0  0
 27 18  1  0  0  0  0
 28 23  1  0  0  0  0
 29 36  1  0  0  0  0
 30 29  1  0  0  0  0
 30 37  1  0  0  0  0
 30 31  1  0  0  0  0
 31 39  1  6  0  0  0
 31 33  1  0  0  0  0
 32 40  1  0  0  0  0
 32 31  1  0  0  0  0
 33 35  2  0  0  0  0
 33 34  1  0  0  0  0
 38 30  1  0  0  0  0
M  END
$$$$
