NDT.pdb
 OpenBabel07022418083D

 43 42  0  0  1  0  0  0  0  0999 V2000
    1.0520   -4.3980   -4.1980 N   0  0  0  0  0  0  0  0  0  0  0  0
    0.4870   -3.7400   -3.0810 C   0  0  0  0  0  0  0  0  0  0  0  0
   -0.7520   -3.7480   -2.9310 O   0  0  0  0  0  0  0  0  0  0  0  0
    1.3510   -3.0500   -2.1040 C   0  0  0  0  0  0  0  0  0  0  0  0
    0.5100   -2.4430   -1.0330 C   0  0  2  0  0  0  0  0  0  0  0  0
   -0.4080   -1.4910   -1.6060 N   0  0  0  0  0  0  0  0  0  0  0  0
    1.3410   -1.7840    0.0330 C   0  0  0  0  0  0  0  0  0  0  0  0
    2.1990   -2.4620    0.6460 O   0  0  0  0  0  0  0  0  0  0  0  0
    0.4990   -4.8880   -4.9260 H   0  0  0  0  0  0  0  0  0  0  0  0
    2.1010   -4.4210   -4.3450 H   0  0  0  0  0  0  0  0  0  0  0  0
    1.8510   -2.2100   -2.6720 H   0  0  0  0  0  0  0  0  0  0  0  0
    2.1020   -3.7660   -1.7380 H   0  0  0  0  0  0  0  0  0  0  0  0
   -0.0810   -3.2250   -0.5050 H   0  0  0  0  0  0  0  0  0  0  0  0
   -1.4030   -1.8050   -1.5700 H   0  0  0  0  0  0  0  0  0  0  0  0
   -0.1840   -1.3270   -2.6130 H   0  0  0  0  0  0  0  0  0  0  0  0
    1.1930   -0.4250    0.3730 N   0  0  0  0  0  0  0  0  0  0  0  0
    1.9790    0.2350    1.3930 C   0  0  1  0  0  0  0  0  0  0  0  0
    2.7510    1.4090    0.8910 C   0  0  0  0  0  0  0  0  0  0  0  0
    3.7080    1.1090   -0.1580 C   0  0  0  0  0  0  0  0  0  0  0  0
    4.4150    2.0080   -0.6600 O   0  0  0  0  0  0  0  0  0  0  0  0
    1.1160    0.6390    2.5540 C   0  0  0  0  0  0  0  0  0  0  0  0
    1.6740    1.2250    3.5140 O   0  0  0  0  0  0  0  0  0  0  0  0
    3.8560   -0.1810   -0.6220 O   0  0  0  0  0  0  0  0  0  0  0  0
    0.4810    0.1400   -0.1340 H   0  0  0  0  0  0  0  0  0  0  0  0
    2.7000   -0.5130    1.7920 H   0  0  0  0  0  0  0  0  0  0  0  0
    2.1130    2.2510    0.5590 H   0  0  0  0  0  0  0  0  0  0  0  0
    3.3260    1.8140    1.7700 H   0  0  0  0  0  0  0  0  0  0  0  0
    4.6490   -0.4420   -1.2130 H   0  0  0  0  0  0  0  0  0  0  0  0
   -1.7150    3.0520    2.8640 C   0  0  0  0  0  0  0  0  0  0  0  0
   -2.2460    1.6940    3.2940 C   0  0  1  0  0  0  0  0  0  0  0  0
   -3.0710    1.1310    2.3490 O   0  0  0  0  0  0  0  0  0  0  0  0
   -1.1180    0.7770    3.7240 C   0  0  2  0  0  0  0  0  0  0  0  0
   -0.2660    0.4050    2.6320 N   0  0  0  0  0  0  0  0  0  0  0  0
   -1.7500   -0.4330    4.3110 C   0  0  0  0  0  0  0  0  0  0  0  0
   -2.5400   -0.3780    5.2800 O   0  0  0  0  0  0  0  0  0  0  0  0
   -1.4660   -1.6780    3.7770 O   0  0  0  0  0  0  0  0  0  0  0  0
   -2.5020    3.8060    3.0720 H   0  0  0  0  0  0  0  0  0  0  0  0
   -1.4970    3.0970    1.7890 H   0  0  0  0  0  0  0  0  0  0  0  0
   -0.8470    3.3110    3.5050 H   0  0  0  0  0  0  0  0  0  0  0  0
   -2.8620    1.8770    4.2090 H   0  0  0  0  0  0  0  0  0  0  0  0
   -4.0080    1.4460    2.4060 H   0  0  0  0  0  0  0  0  0  0  0  0
   -0.5900    1.2890    4.5450 H   0  0  0  0  0  0  0  0  0  0  0  0
   -0.7160   -0.0850    1.8210 H   0  0  0  0  0  0  0  0  0  0  0  0
  1  2  1  0  0  0  0
  2  3  2  0  0  0  0
  2  4  1  0  0  0  0
  4 12  1  0  0  0  0
  4  5  1  0  0  0  0
  5 13  1  1  0  0  0
  5  7  1  0  0  0  0
  6 14  1  0  0  0  0
  6  5  1  0  0  0  0
  7 16  1  0  0  0  0
  7  8  2  0  0  0  0
  9  1  1  0  0  0  0
 10  1  1  0  0  0  0
 11  4  1  0  0  0  0
 15  6  1  0  0  0  0
 16 17  1  0  0  0  0
 17 25  1  1  0  0  0
 17 21  1  0  0  0  0
 18 17  1  0  0  0  0
 18 27  1  0  0  0  0
 19 18  1  0  0  0  0
 20 19  2  0  0  0  0
 21 33  1  0  0  0  0
 21 22  2  0  0  0  0
 23 19  1  0  0  0  0
 24 16  1  0  0  0  0
 26 18  1  0  0  0  0
 28 23  1  0  0  0  0
 29 37  1  0  0  0  0
 29 30  1  0  0  0  0
 29 39  1  0  0  0  0
 30 32  1  0  0  0  0
 30 40  1  1  0  0  0
 31 41  1  0  0  0  0
 31 30  1  0  0  0  0
 32 34  1  0  0  0  0
 32 42  1  1  0  0  0
 33 32  1  0  0  0  0
 34 35  1  0  0  0  0
 36 34  2  0  0  0  0
 38 29  1  0  0  0  0
 43 33  1  0  0  0  0
M  END
$$$$
