NDV.pdb
 OpenBabel07022418083D

 45 44  0  0  1  0  0  0  0  0999 V2000
   -1.7720   -4.8460   -1.3370 N   0  0  0  0  0  0  0  0  0  0  0  0
   -0.5150   -4.2670   -1.7420 C   0  0  0  0  0  0  0  0  0  0  0  0
   -0.0320   -4.6990   -2.8200 O   0  0  0  0  0  0  0  0  0  0  0  0
    0.1430   -3.2300   -0.9180 C   0  0  0  0  0  0  0  0  0  0  0  0
    1.4340   -2.8220   -1.5910 C   0  0  2  0  0  0  0  0  0  0  0  0
    2.3280   -3.9570   -1.7250 N   0  0  0  0  0  0  0  0  0  0  0  0
    2.1310   -1.7670   -0.7950 C   0  0  0  0  0  0  0  0  0  0  0  0
    3.3080   -1.9620   -0.3380 O   0  0  0  0  0  0  0  0  0  0  0  0
   -2.4100   -4.3500   -0.6770 H   0  0  0  0  0  0  0  0  0  0  0  0
   -2.0860   -5.7750   -1.6890 H   0  0  0  0  0  0  0  0  0  0  0  0
    0.4410   -3.6370    0.0850 H   0  0  0  0  0  0  0  0  0  0  0  0
   -0.4820   -2.3360   -0.8130 H   0  0  0  0  0  0  0  0  0  0  0  0
    1.2040   -2.4640   -2.6130 H   0  0  0  0  0  0  0  0  0  0  0  0
    2.2740   -4.3480   -2.7060 H   0  0  0  0  0  0  0  0  0  0  0  0
    3.3130   -3.6080   -1.6080 H   0  0  0  0  0  0  0  0  0  0  0  0
    1.5490   -0.5110   -0.4990 N   0  0  0  0  0  0  0  0  0  0  0  0
    2.1950    0.5140    0.2610 C   0  0  1  0  0  0  0  0  0  0  0  0
    2.5370    1.7300   -0.5610 C   0  0  0  0  0  0  0  0  0  0  0  0
    1.3640    2.3780   -1.1770 C   0  0  0  0  0  0  0  0  0  0  0  0
    0.2050    1.9680   -1.0450 O   0  0  0  0  0  0  0  0  0  0  0  0
    1.5170    0.8260    1.5340 C   0  0  0  0  0  0  0  0  0  0  0  0
    1.9390    1.7040    2.3350 O   0  0  0  0  0  0  0  0  0  0  0  0
    1.5940    3.5110   -1.9460 O   0  0  0  0  0  0  0  0  0  0  0  0
    0.5780   -0.3410   -0.8710 H   0  0  0  0  0  0  0  0  0  0  0  0
    3.1990    0.0810    0.5620 H   0  0  0  0  0  0  0  0  0  0  0  0
    3.0070    2.4980    0.1030 H   0  0  0  0  0  0  0  0  0  0  0  0
    3.3190    1.4530   -1.2980 H   0  0  0  0  0  0  0  0  0  0  0  0
    0.8790    4.2270   -2.0590 H   0  0  0  0  0  0  0  0  0  0  0  0
   -2.4310    1.0990    4.2550 C   0  0  0  0  0  0  0  0  0  0  0  0
   -1.7620    0.8650    2.9220 C   0  0  0  0  0  0  0  0  0  0  0  0
   -1.8290    2.1610    2.1470 C   0  0  0  0  0  0  0  0  0  0  0  0
   -0.3750    0.3870    3.1490 C   0  0  2  0  0  0  0  0  0  0  0  0
    0.3470    0.1390    1.9110 N   0  0  0  0  0  0  0  0  0  0  0  0
   -0.3960   -0.8170    4.0050 C   0  0  0  0  0  0  0  0  0  0  0  0
    0.1470   -1.9020    3.6270 O   0  0  0  0  0  0  0  0  0  0  0  0
   -0.9920   -0.8410    5.2450 O   0  0  0  0  0  0  0  0  0  0  0  0
   -1.6940    1.3670    5.0460 H   0  0  0  0  0  0  0  0  0  0  0  0
   -2.9600    0.1690    4.5800 H   0  0  0  0  0  0  0  0  0  0  0  0
   -3.1690    1.9330    4.1060 H   0  0  0  0  0  0  0  0  0  0  0  0
   -2.3620    0.0630    2.4140 H   0  0  0  0  0  0  0  0  0  0  0  0
   -2.8740    2.5130    2.0270 H   0  0  0  0  0  0  0  0  0  0  0  0
   -1.2710    2.9720    2.6080 H   0  0  0  0  0  0  0  0  0  0  0  0
   -1.4740    1.9350    1.1190 H   0  0  0  0  0  0  0  0  0  0  0  0
    0.1950    1.1920    3.6730 H   0  0  0  0  0  0  0  0  0  0  0  0
   -0.0340   -0.5890    1.2790 H   0  0  0  0  0  0  0  0  0  0  0  0
  1  9  1  0  0  0  0
  2  1  1  0  0  0  0
  2  4  1  0  0  0  0
  3  2  2  0  0  0  0
  4 12  1  0  0  0  0
  4 11  1  0  0  0  0
  5 13  1  6  0  0  0
  5  4  1  0  0  0  0
  5  7  1  0  0  0  0
  6 15  1  0  0  0  0
  6  5  1  0  0  0  0
  7 16  1  0  0  0  0
  7  8  2  0  0  0  0
 10  1  1  0  0  0  0
 14  6  1  0  0  0  0
 16 17  1  0  0  0  0
 17 25  1  1  0  0  0
 17 21  1  0  0  0  0
 18 26  1  0  0  0  0
 18 17  1  0  0  0  0
 19 20  2  0  0  0  0
 19 18  1  0  0  0  0
 21 33  1  0  0  0  0
 21 22  2  0  0  0  0
 23 19  1  0  0  0  0
 24 16  1  0  0  0  0
 27 18  1  0  0  0  0
 28 23  1  0  0  0  0
 29 38  1  0  0  0  0
 29 37  1  0  0  0  0
 30 32  1  0  0  0  0
 30 29  1  0  0  0  0
 31 42  1  0  0  0  0
 31 30  1  0  0  0  0
 32 44  1  1  0  0  0
 32 34  1  0  0  0  0
 33 32  1  0  0  0  0
 34 36  1  0  0  0  0
 35 34  2  0  0  0  0
 39 29  1  0  0  0  0
 40 30  1  0  0  0  0
 41 31  1  0  0  0  0
 43 31  1  0  0  0  0
 45 33  1  0  0  0  0
M  END
$$$$
