NDW.pdb
 OpenBabel07022418083D

 53 54  0  0  1  0  0  0  0  0999 V2000
    3.4890   -2.8810    5.4170 N   0  0  0  0  0  0  0  0  0  0  0  0
    3.5870   -1.5160    5.0120 C   0  0  0  0  0  0  0  0  0  0  0  0
    4.1770   -0.7300    5.8200 O   0  0  0  0  0  0  0  0  0  0  0  0
    3.0280   -1.0340    3.7220 C   0  0  0  0  0  0  0  0  0  0  0  0
    3.1880    0.4630    3.6680 C   0  0  2  0  0  0  0  0  0  0  0  0
    2.4730    1.0190    4.7910 N   0  0  0  0  0  0  0  0  0  0  0  0
    2.5980    0.9970    2.3760 C   0  0  0  0  0  0  0  0  0  0  0  0
    3.2410    0.8480    1.3240 O   0  0  0  0  0  0  0  0  0  0  0  0
    3.7270   -3.1910    6.3670 H   0  0  0  0  0  0  0  0  0  0  0  0
    3.1590   -3.5780    4.7120 H   0  0  0  0  0  0  0  0  0  0  0  0
    1.9740   -1.3760    3.7000 H   0  0  0  0  0  0  0  0  0  0  0  0
    3.6490   -1.5290    2.9230 H   0  0  0  0  0  0  0  0  0  0  0  0
    4.2300    0.7230    3.7110 H   0  0  0  0  0  0  0  0  0  0  0  0
    1.8140    0.3770    5.2490 H   0  0  0  0  0  0  0  0  0  0  0  0
    3.1930    1.3540    5.4800 H   0  0  0  0  0  0  0  0  0  0  0  0
    1.3610    1.6350    2.3750 N   0  0  0  0  0  0  0  0  0  0  0  0
    0.6720    2.1950    1.2350 C   0  0  1  0  0  0  0  0  0  0  0  0
    1.6400    3.1410    0.5300 C   0  0  0  0  0  0  0  0  0  0  0  0
    1.0880    3.8580   -0.6250 C   0  0  0  0  0  0  0  0  0  0  0  0
   -0.1010    3.9150   -0.9710 O   0  0  0  0  0  0  0  0  0  0  0  0
    0.2700    1.0640    0.3890 C   0  0  0  0  0  0  0  0  0  0  0  0
    0.9670    0.0110    0.4450 O   0  0  0  0  0  0  0  0  0  0  0  0
    1.9670    4.5890   -1.4850 O   0  0  0  0  0  0  0  0  0  0  0  0
    0.8350    1.7420    3.3200 H   0  0  0  0  0  0  0  0  0  0  0  0
   -0.1560    2.8380    1.5690 H   0  0  0  0  0  0  0  0  0  0  0  0
    2.4160    2.4430    0.0710 H   0  0  0  0  0  0  0  0  0  0  0  0
    2.1350    3.8140    1.2200 H   0  0  0  0  0  0  0  0  0  0  0  0
    1.6150    5.4540   -1.8820 H   0  0  0  0  0  0  0  0  0  0  0  0
   -0.8180    0.9640   -0.5060 N   0  0  0  0  0  0  0  0  0  0  0  0
   -1.0690   -0.2200   -1.3040 C   0  0  1  0  0  0  0  0  0  0  0  0
   -1.7280   -1.3250   -0.5670 C   0  0  0  0  0  0  0  0  0  0  0  0
   -1.9170   -2.4990   -1.4340 C   0  0  0  0  0  0  0  0  0  0  0  0
   -1.0390   -2.9420   -2.4380 C   0  0  0  0  0  0  0  0  0  0  0  0
   -1.5680   -4.0240   -2.9540 N   0  0  0  0  0  0  0  0  0  0  0  0
   -2.7440   -4.3280   -2.3610 C   0  0  0  0  0  0  0  0  0  0  0  0
   -3.6390   -5.3750   -2.5450 C   0  0  0  0  0  0  0  0  0  0  0  0
   -4.7450   -5.4250   -1.7490 C   0  0  0  0  0  0  0  0  0  0  0  0
   -4.9980   -4.4860   -0.7920 C   0  0  0  0  0  0  0  0  0  0  0  0
   -4.1250   -3.4130   -0.5720 C   0  0  0  0  0  0  0  0  0  0  0  0
   -3.0070   -3.3820   -1.3880 C   0  0  0  0  0  0  0  0  0  0  0  0
   -1.8440    0.1290   -2.4820 C   0  0  0  0  0  0  0  0  0  0  0  0
   -2.1790    1.3790   -2.6000 O   0  0  0  0  0  0  0  0  0  0  0  0
   -2.2530   -0.7460   -3.4740 O   0  0  0  0  0  0  0  0  0  0  0  0
   -1.4620    1.7560   -0.5850 H   0  0  0  0  0  0  0  0  0  0  0  0
   -0.0750   -0.6130   -1.6280 H   0  0  0  0  0  0  0  0  0  0  0  0
   -2.7420   -0.9910   -0.2320 H   0  0  0  0  0  0  0  0  0  0  0  0
   -1.2340   -1.6860    0.3410 H   0  0  0  0  0  0  0  0  0  0  0  0
   -0.0950   -2.4140   -2.6880 H   0  0  0  0  0  0  0  0  0  0  0  0
   -1.1240   -4.5900   -3.7480 H   0  0  0  0  0  0  0  0  0  0  0  0
   -3.4420   -6.1050   -3.2930 H   0  0  0  0  0  0  0  0  0  0  0  0
   -5.4320   -6.2770   -1.9060 H   0  0  0  0  0  0  0  0  0  0  0  0
   -5.8690   -4.5330   -0.1570 H   0  0  0  0  0  0  0  0  0  0  0  0
   -4.2700   -2.6490    0.1590 H   0  0  0  0  0  0  0  0  0  0  0  0
  1  9  1  0  0  0  0
  2  1  1  0  0  0  0
  2  3  2  0  0  0  0
  4  2  1  0  0  0  0
  5 13  1  1  0  0  0
  5  4  1  0  0  0  0
  5  6  1  0  0  0  0
  6 14  1  0  0  0  0
  6 15  1  0  0  0  0
  7  5  1  0  0  0  0
  8  7  2  0  0  0  0
 10  1  1  0  0  0  0
 11  4  1  0  0  0  0
 12  4  1  0  0  0  0
 16  7  1  0  0  0  0
 16 24  1  0  0  0  0
 17 25  1  1  0  0  0
 17 16  1  0  0  0  0
 18 27  1  0  0  0  0
 18 17  1  0  0  0  0
 19 18  1  0  0  0  0
 20 19  2  0  0  0  0
 21 22  2  0  0  0  0
 21 17  1  0  0  0  0
 23 19  1  0  0  0  0
 26 18  1  0  0  0  0
 28 23  1  0  0  0  0
 29 21  1  0  0  0  0
 30 45  1  6  0  0  0
 30 31  1  0  0  0  0
 30 29  1  0  0  0  0
 31 46  1  0  0  0  0
 31 47  1  0  0  0  0
 32 40  1  0  0  0  0
 32 31  1  0  0  0  0
 33 32  2  0  0  0  0
 34 33  1  0  0  0  0
 34 35  1  0  0  0  0
 35 40  1  0  0  0  0
 36 35  2  0  0  0  0
 36 37  1  0  0  0  0
 37 38  2  0  0  0  0
 38 39  1  0  0  0  0
 38 52  1  0  0  0  0
 39 53  1  0  0  0  0
 40 39  2  0  0  0  0
 41 30  1  0  0  0  0
 42 41  1  0  0  0  0
 43 41  2  0  0  0  0
 44 29  1  0  0  0  0
 48 33  1  0  0  0  0
 49 34  1  0  0  0  0
 50 36  1  0  0  0  0
 51 37  1  0  0  0  0
M  END
$$$$
