NDY.pdb
 OpenBabel07022418083D

 50 50  0  0  1  0  0  0  0  0999 V2000
    1.4720   -3.6460    0.8610 N   0  0  0  0  0  0  0  0  0  0  0  0
    1.9280   -2.6330    1.7340 C   0  0  0  0  0  0  0  0  0  0  0  0
    1.6280   -2.7180    2.9440 O   0  0  0  0  0  0  0  0  0  0  0  0
    2.7260   -1.5170    1.2460 C   0  0  0  0  0  0  0  0  0  0  0  0
    3.1230   -0.5350    2.3150 C   0  0  2  0  0  0  0  0  0  0  0  0
    3.9100   -1.1980    3.3340 N   0  0  0  0  0  0  0  0  0  0  0  0
    1.9970    0.2210    2.8630 C   0  0  0  0  0  0  0  0  0  0  0  0
    1.8180    0.2250    4.1070 O   0  0  0  0  0  0  0  0  0  0  0  0
    1.4860   -4.6380    1.1960 H   0  0  0  0  0  0  0  0  0  0  0  0
    1.1180   -3.4870   -0.1030 H   0  0  0  0  0  0  0  0  0  0  0  0
    2.1800   -0.9660    0.4570 H   0  0  0  0  0  0  0  0  0  0  0  0
    3.6880   -1.8500    0.7560 H   0  0  0  0  0  0  0  0  0  0  0  0
    3.8130    0.2060    1.8280 H   0  0  0  0  0  0  0  0  0  0  0  0
    4.5610   -0.5040    3.7920 H   0  0  0  0  0  0  0  0  0  0  0  0
    4.5460   -1.8810    2.8370 H   0  0  0  0  0  0  0  0  0  0  0  0
    1.1070    0.9460    2.0250 N   0  0  0  0  0  0  0  0  0  0  0  0
   -0.0050    1.6950    2.5380 C   0  0  1  0  0  0  0  0  0  0  0  0
    0.0760    3.1620    2.2460 C   0  0  0  0  0  0  0  0  0  0  0  0
    0.1170    3.4910    0.8060 C   0  0  0  0  0  0  0  0  0  0  0  0
    0.1960    4.6980    0.4640 O   0  0  0  0  0  0  0  0  0  0  0  0
   -1.3150    1.1940    2.0640 C   0  0  0  0  0  0  0  0  0  0  0  0
   -2.3330    1.8390    2.4740 O   0  0  0  0  0  0  0  0  0  0  0  0
    0.0740    2.5410   -0.2010 O   0  0  0  0  0  0  0  0  0  0  0  0
    1.2650    0.9350    0.9940 H   0  0  0  0  0  0  0  0  0  0  0  0
   -0.0410    1.5990    3.6630 H   0  0  0  0  0  0  0  0  0  0  0  0
    0.9640    3.6210    2.7760 H   0  0  0  0  0  0  0  0  0  0  0  0
   -0.7940    3.7230    2.6650 H   0  0  0  0  0  0  0  0  0  0  0  0
    0.5520    2.7380   -1.0720 H   0  0  0  0  0  0  0  0  0  0  0  0
    0.7510   -3.8440   -3.3070 O   0  0  0  0  0  0  0  0  0  0  0  0
   -0.1340   -2.9580   -2.6650 C   0  0  0  0  0  0  0  0  0  0  0  0
    0.2170   -1.6530   -2.4020 C   0  0  0  0  0  0  0  0  0  0  0  0
   -0.6800   -0.8190   -1.7710 C   0  0  0  0  0  0  0  0  0  0  0  0
   -1.9380   -1.2310   -1.3790 C   0  0  0  0  0  0  0  0  0  0  0  0
   -2.8930   -0.3340   -0.7050 C   0  0  0  0  0  0  0  0  0  0  0  0
   -2.7730   -0.3410    0.8010 C   0  0  2  0  0  0  0  0  0  0  0  0
   -1.4590    0.0780    1.2120 N   0  0  0  0  0  0  0  0  0  0  0  0
   -3.1080   -1.6880    1.3600 C   0  0  0  0  0  0  0  0  0  0  0  0
   -4.2020   -2.2430    1.1400 O   0  0  0  0  0  0  0  0  0  0  0  0
   -2.2920   -2.5360   -1.6400 C   0  0  0  0  0  0  0  0  0  0  0  0
   -1.3890   -3.3660   -2.2730 C   0  0  0  0  0  0  0  0  0  0  0  0
   -2.1820   -2.3510    2.1500 O   0  0  0  0  0  0  0  0  0  0  0  0
    1.5680   -3.4500   -3.7180 H   0  0  0  0  0  0  0  0  0  0  0  0
    1.1980   -1.3020   -2.6990 H   0  0  0  0  0  0  0  0  0  0  0  0
   -0.3800    0.2140   -1.5730 H   0  0  0  0  0  0  0  0  0  0  0  0
   -2.6450    0.7050   -1.0320 H   0  0  0  0  0  0  0  0  0  0  0  0
   -3.9080   -0.5380   -1.0480 H   0  0  0  0  0  0  0  0  0  0  0  0
   -3.5120    0.3640    1.2180 H   0  0  0  0  0  0  0  0  0  0  0  0
   -0.6380   -0.4480    0.8760 H   0  0  0  0  0  0  0  0  0  0  0  0
   -3.2820   -2.9170   -1.3500 H   0  0  0  0  0  0  0  0  0  0  0  0
   -1.6740   -4.3980   -2.4770 H   0  0  0  0  0  0  0  0  0  0  0  0
  1  9  1  0  0  0  0
  1  2  1  0  0  0  0
  2  3  2  0  0  0  0
  4  2  1  0  0  0  0
  4  5  1  0  0  0  0
  5 13  1  6  0  0  0
  5  7  1  0  0  0  0
  5  6  1  0  0  0  0
  6 14  1  0  0  0  0
  7  8  2  0  0  0  0
 10  1  1  0  0  0  0
 11  4  1  0  0  0  0
 12  4  1  0  0  0  0
 15  6  1  0  0  0  0
 16 17  1  0  0  0  0
 16  7  1  0  0  0  0
 17 25  1  1  0  0  0
 18 17  1  0  0  0  0
 18 27  1  0  0  0  0
 18 26  1  0  0  0  0
 19 18  1  0  0  0  0
 20 19  2  0  0  0  0
 21 22  2  0  0  0  0
 21 17  1  0  0  0  0
 23 19  1  0  0  0  0
 24 16  1  0  0  0  0
 28 23  1  0  0  0  0
 29 30  1  0  0  0  0
 30 31  2  0  0  0  0
 30 40  1  0  0  0  0
 31 32  1  0  0  0  0
 32 44  1  0  0  0  0
 32 33  2  0  0  0  0
 33 34  1  0  0  0  0
 34 35  1  0  0  0  0
 35 36  1  0  0  0  0
 35 47  1  1  0  0  0
 35 37  1  0  0  0  0
 36 21  1  0  0  0  0
 37 41  1  0  0  0  0
 38 37  2  0  0  0  0
 39 33  1  0  0  0  0
 39 49  1  0  0  0  0
 40 39  2  0  0  0  0
 42 29  1  0  0  0  0
 43 31  1  0  0  0  0
 45 34  1  0  0  0  0
 46 34  1  0  0  0  0
 48 36  1  0  0  0  0
 50 40  1  0  0  0  0
M  END
$$$$
