NEA.pdb
 OpenBabel07022418083D

 42 41  0  0  1  0  0  0  0  0999 V2000
    3.6660   -5.2240    3.7980 N   0  0  0  0  0  0  0  0  0  0  0  0
    3.7390   -3.8590    3.4340 C   0  0  0  0  0  0  0  0  0  0  0  0
    4.6490   -3.1610    3.9570 O   0  0  0  0  0  0  0  0  0  0  0  0
    2.8150   -3.2360    2.4880 C   0  0  0  0  0  0  0  0  0  0  0  0
    3.0980   -1.7720    2.2550 C   0  0  2  0  0  0  0  0  0  0  0  0
    2.9960   -1.0460    3.4690 N   0  0  0  0  0  0  0  0  0  0  0  0
    2.1770   -1.3240    1.1730 C   0  0  0  0  0  0  0  0  0  0  0  0
    2.2140   -1.9620    0.1170 O   0  0  0  0  0  0  0  0  0  0  0  0
    3.6790   -5.4870    4.8060 H   0  0  0  0  0  0  0  0  0  0  0  0
    3.5990   -6.0070    3.1110 H   0  0  0  0  0  0  0  0  0  0  0  0
    1.7670   -3.3490    2.8890 H   0  0  0  0  0  0  0  0  0  0  0  0
    2.7740   -3.7620    1.4960 H   0  0  0  0  0  0  0  0  0  0  0  0
    4.1460   -1.7070    1.8700 H   0  0  0  0  0  0  0  0  0  0  0  0
    2.9870   -0.0290    3.4000 H   0  0  0  0  0  0  0  0  0  0  0  0
    2.3280   -1.4460    4.1640 H   0  0  0  0  0  0  0  0  0  0  0  0
    1.2960   -0.2420    1.2960 N   0  0  0  0  0  0  0  0  0  0  0  0
    0.3880    0.2950    0.3380 C   0  0  1  0  0  0  0  0  0  0  0  0
    0.5730   -0.0870   -1.0930 C   0  0  0  0  0  0  0  0  0  0  0  0
    1.8320    0.3920   -1.6880 C   0  0  0  0  0  0  0  0  0  0  0  0
    1.8120    1.8950   -1.7560 C   0  0  0  0  0  0  0  0  0  0  0  0
    0.8280    2.6050   -1.5060 O   0  0  0  0  0  0  0  0  0  0  0  0
   -1.0060    0.2710    0.8130 C   0  0  0  0  0  0  0  0  0  0  0  0
   -1.2700   -0.1870    1.9810 O   0  0  0  0  0  0  0  0  0  0  0  0
    2.9870    2.5850   -2.1310 O   0  0  0  0  0  0  0  0  0  0  0  0
    1.3220    0.2390    2.2530 H   0  0  0  0  0  0  0  0  0  0  0  0
    0.7660    1.4050    0.2800 H   0  0  0  0  0  0  0  0  0  0  0  0
    0.3330   -1.1510   -1.3020 H   0  0  0  0  0  0  0  0  0  0  0  0
   -0.2550    0.4590   -1.6470 H   0  0  0  0  0  0  0  0  0  0  0  0
    1.8030    0.0700   -2.7870 H   0  0  0  0  0  0  0  0  0  0  0  0
    2.7840    0.0440   -1.2930 H   0  0  0  0  0  0  0  0  0  0  0  0
    3.0950    3.5450   -1.8050 H   0  0  0  0  0  0  0  0  0  0  0  0
   -4.1340    2.0300    0.6230 C   0  0  0  0  0  0  0  0  0  0  0  0
   -3.4900    0.6870    0.5820 C   0  0  2  0  0  0  0  0  0  0  0  0
   -2.1210    0.7200    0.0860 N   0  0  0  0  0  0  0  0  0  0  0  0
   -4.2960   -0.3290   -0.1460 C   0  0  0  0  0  0  0  0  0  0  0  0
   -3.7470   -0.9950   -1.0410 O   0  0  0  0  0  0  0  0  0  0  0  0
   -5.6290   -0.5420    0.1540 O   0  0  0  0  0  0  0  0  0  0  0  0
   -4.2070    2.4050    1.6630 H   0  0  0  0  0  0  0  0  0  0  0  0
   -3.5570    2.7500   -0.0290 H   0  0  0  0  0  0  0  0  0  0  0  0
   -5.1440    1.9340    0.1680 H   0  0  0  0  0  0  0  0  0  0  0  0
   -3.4180    0.3020    1.6340 H   0  0  0  0  0  0  0  0  0  0  0  0
   -1.9980    1.1050   -0.8660 H   0  0  0  0  0  0  0  0  0  0  0  0
  1  9  1  0  0  0  0
  2  1  1  0  0  0  0
  2  3  2  0  0  0  0
  4 11  1  0  0  0  0
  4  2  1  0  0  0  0
  5 13  1  6  0  0  0
  5  4  1  0  0  0  0
  5  6  1  0  0  0  0
  6 15  1  0  0  0  0
  7 16  1  0  0  0  0
  7  5  1  0  0  0  0
  8  7  2  0  0  0  0
 10  1  1  0  0  0  0
 12  4  1  0  0  0  0
 14  6  1  0  0  0  0
 16 25  1  0  0  0  0
 17 26  1  1  0  0  0
 17 22  1  0  0  0  0
 17 16  1  0  0  0  0
 18 17  1  0  0  0  0
 19 30  1  0  0  0  0
 19 18  1  0  0  0  0
 20 19  1  0  0  0  0
 20 21  2  0  0  0  0
 22 23  2  0  0  0  0
 24 31  1  0  0  0  0
 24 20  1  0  0  0  0
 27 18  1  0  0  0  0
 28 18  1  0  0  0  0
 29 19  1  0  0  0  0
 32 38  1  0  0  0  0
 33 32  1  0  0  0  0
 33 41  1  1  0  0  0
 34 33  1  0  0  0  0
 34 22  1  0  0  0  0
 35 37  1  0  0  0  0
 35 33  1  0  0  0  0
 36 35  2  0  0  0  0
 39 32  1  0  0  0  0
 40 32  1  0  0  0  0
 42 34  1  0  0  0  0
M  END
$$$$
