NEF.pdb
 OpenBabel07022418093D

 52 52  0  0  1  0  0  0  0  0999 V2000
    4.3830   -1.8010   -2.8550 N   0  0  0  0  0  0  0  0  0  0  0  0
    4.3190   -1.3260   -1.5280 C   0  0  0  0  0  0  0  0  0  0  0  0
    4.1210   -2.1260   -0.5720 O   0  0  0  0  0  0  0  0  0  0  0  0
    4.4820    0.1110   -1.2250 C   0  0  0  0  0  0  0  0  0  0  0  0
    4.3780    0.3720    0.2670 C   0  0  2  0  0  0  0  0  0  0  0  0
    5.4460   -0.3990    0.8970 N   0  0  0  0  0  0  0  0  0  0  0  0
    3.0540    0.0010    0.8050 C   0  0  0  0  0  0  0  0  0  0  0  0
    2.9220   -0.8870    1.6910 O   0  0  0  0  0  0  0  0  0  0  0  0
    4.2860   -2.8050   -3.0970 H   0  0  0  0  0  0  0  0  0  0  0  0
    4.5320   -1.1270   -3.6300 H   0  0  0  0  0  0  0  0  0  0  0  0
    3.7430    0.6970   -1.8080 H   0  0  0  0  0  0  0  0  0  0  0  0
    5.5370    0.3910   -1.4990 H   0  0  0  0  0  0  0  0  0  0  0  0
    4.5930    1.4580    0.4040 H   0  0  0  0  0  0  0  0  0  0  0  0
    5.1510   -0.5990    1.8830 H   0  0  0  0  0  0  0  0  0  0  0  0
    6.3250    0.1960    0.9280 H   0  0  0  0  0  0  0  0  0  0  0  0
    1.8930    0.6520    0.3190 N   0  0  0  0  0  0  0  0  0  0  0  0
    0.5950    0.2490    0.8840 C   0  0  1  0  0  0  0  0  0  0  0  0
    0.0530    1.4900    1.5520 C   0  0  0  0  0  0  0  0  0  0  0  0
    0.9270    2.0280    2.6370 C   0  0  0  0  0  0  0  0  0  0  0  0
    1.1100    1.0720    3.7480 C   0  0  0  0  0  0  0  0  0  0  0  0
    0.5760   -0.0530    3.8400 O   0  0  0  0  0  0  0  0  0  0  0  0
   -0.3390   -0.1470   -0.2160 C   0  0  0  0  0  0  0  0  0  0  0  0
    0.0890   -0.0840   -1.3770 O   0  0  0  0  0  0  0  0  0  0  0  0
    1.9570    1.4230    4.8230 O   0  0  0  0  0  0  0  0  0  0  0  0
    1.9160    1.3960   -0.4130 H   0  0  0  0  0  0  0  0  0  0  0  0
    0.7150   -0.5350    1.6250 H   0  0  0  0  0  0  0  0  0  0  0  0
   -0.0680    2.3180    0.7920 H   0  0  0  0  0  0  0  0  0  0  0  0
   -0.9610    1.3070    1.9870 H   0  0  0  0  0  0  0  0  0  0  0  0
    1.9370    2.2470    2.2270 H   0  0  0  0  0  0  0  0  0  0  0  0
    0.5380    2.9940    3.0420 H   0  0  0  0  0  0  0  0  0  0  0  0
    2.1400    0.7550    5.5810 H   0  0  0  0  0  0  0  0  0  0  0  0
   -1.6450   -0.5780   -0.0070 N   0  0  0  0  0  0  0  0  0  0  0  0
   -2.5940   -0.9720   -0.9950 C   0  0  1  0  0  0  0  0  0  0  0  0
   -3.0780   -2.3690   -0.9500 C   0  0  0  0  0  0  0  0  0  0  0  0
   -3.7600   -2.7270    0.3420 C   0  0  0  0  0  0  0  0  0  0  0  0
   -3.0320   -3.2110    1.3900 C   0  0  0  0  0  0  0  0  0  0  0  0
   -3.6460   -3.5420    2.5660 C   0  0  0  0  0  0  0  0  0  0  0  0
   -5.0050   -3.4100    2.7600 C   0  0  0  0  0  0  0  0  0  0  0  0
   -5.7200   -2.9190    1.6880 C   0  0  0  0  0  0  0  0  0  0  0  0
   -5.1120   -2.5820    0.4980 C   0  0  0  0  0  0  0  0  0  0  0  0
   -3.7130   -0.0290   -0.9880 C   0  0  0  0  0  0  0  0  0  0  0  0
   -3.7450    0.9200   -0.1880 O   0  0  0  0  0  0  0  0  0  0  0  0
   -4.7590   -0.1700   -1.8680 O   0  0  0  0  0  0  0  0  0  0  0  0
   -1.9990   -0.6270    0.9950 H   0  0  0  0  0  0  0  0  0  0  0  0
   -2.0600   -0.8650   -1.9900 H   0  0  0  0  0  0  0  0  0  0  0  0
   -3.8730   -2.4700   -1.7230 H   0  0  0  0  0  0  0  0  0  0  0  0
   -2.3250   -3.1290   -1.2300 H   0  0  0  0  0  0  0  0  0  0  0  0
   -1.9550   -3.3530    1.3390 H   0  0  0  0  0  0  0  0  0  0  0  0
   -3.0930   -3.9310    3.4220 H   0  0  0  0  0  0  0  0  0  0  0  0
   -5.4910   -3.6750    3.7020 H   0  0  0  0  0  0  0  0  0  0  0  0
   -6.8070   -2.8000    1.8050 H   0  0  0  0  0  0  0  0  0  0  0  0
   -5.7450   -2.1950   -0.3290 H   0  0  0  0  0  0  0  0  0  0  0  0
  1  2  1  0  0  0  0
  2  4  1  0  0  0  0
  2  3  2  0  0  0  0
  4  5  1  0  0  0  0
  5 13  1  1  0  0  0
  5  7  1  0  0  0  0
  5  6  1  0  0  0  0
  6 15  1  0  0  0  0
  6 14  1  0  0  0  0
  7  8  2  0  0  0  0
  9  1  1  0  0  0  0
 10  1  1  0  0  0  0
 11  4  1  0  0  0  0
 12  4  1  0  0  0  0
 16  7  1  0  0  0  0
 16 17  1  0  0  0  0
 17 18  1  0  0  0  0
 17 26  1  1  0  0  0
 18 28  1  0  0  0  0
 18 19  1  0  0  0  0
 19 30  1  0  0  0  0
 19 20  1  0  0  0  0
 20 21  2  0  0  0  0
 20 24  1  0  0  0  0
 22 32  1  0  0  0  0
 22 17  1  0  0  0  0
 23 22  2  0  0  0  0
 24 31  1  0  0  0  0
 25 16  1  0  0  0  0
 27 18  1  0  0  0  0
 29 19  1  0  0  0  0
 32 44  1  0  0  0  0
 33 45  1  6  0  0  0
 33 41  1  0  0  0  0
 33 34  1  0  0  0  0
 33 32  1  0  0  0  0
 34 35  1  0  0  0  0
 35 40  2  0  0  0  0
 35 36  1  0  0  0  0
 36 37  2  0  0  0  0
 37 38  1  0  0  0  0
 37 49  1  0  0  0  0
 38 50  1  0  0  0  0
 39 51  1  0  0  0  0
 39 38  2  0  0  0  0
 40 39  1  0  0  0  0
 41 42  1  0  0  0  0
 43 41  2  0  0  0  0
 46 34  1  0  0  0  0
 47 34  1  0  0  0  0
 48 36  1  0  0  0  0
 52 40  1  0  0  0  0
M  END
$$$$
