NEG.pdb
 OpenBabel07022418083D

 39 38  0  0  1  0  0  0  0  0999 V2000
    0.5020   -5.6670    0.7600 N   0  0  0  0  0  0  0  0  0  0  0  0
   -0.3200   -4.8050    1.5290 C   0  0  0  0  0  0  0  0  0  0  0  0
   -1.2650   -5.3470    2.1680 O   0  0  0  0  0  0  0  0  0  0  0  0
   -0.0580   -3.3460    1.5600 C   0  0  0  0  0  0  0  0  0  0  0  0
    1.1210   -3.0420    0.7050 C   0  0  2  0  0  0  0  0  0  0  0  0
    2.2670   -3.7500    1.2040 N   0  0  0  0  0  0  0  0  0  0  0  0
    1.3900   -1.6090    0.5350 C   0  0  0  0  0  0  0  0  0  0  0  0
    2.5370   -1.1860    0.8330 O   0  0  0  0  0  0  0  0  0  0  0  0
    0.5570   -5.5750   -0.2620 H   0  0  0  0  0  0  0  0  0  0  0  0
    1.0470   -6.3960    1.2610 H   0  0  0  0  0  0  0  0  0  0  0  0
    0.0680   -3.0480    2.6170 H   0  0  0  0  0  0  0  0  0  0  0  0
   -0.9660   -2.7870    1.2040 H   0  0  0  0  0  0  0  0  0  0  0  0
    0.8930   -3.4470   -0.3220 H   0  0  0  0  0  0  0  0  0  0  0  0
    3.1660   -3.2190    1.0690 H   0  0  0  0  0  0  0  0  0  0  0  0
    2.1670   -3.9350    2.2320 H   0  0  0  0  0  0  0  0  0  0  0  0
    0.4560   -0.6620    0.0610 N   0  0  0  0  0  0  0  0  0  0  0  0
    0.8260    0.7670   -0.0760 C   0  0  1  0  0  0  0  0  0  0  0  0
    0.6970    1.1910   -1.5000 C   0  0  0  0  0  0  0  0  0  0  0  0
    1.0470    2.6170   -1.7470 C   0  0  0  0  0  0  0  0  0  0  0  0
    2.4210    2.9910   -1.4140 C   0  0  0  0  0  0  0  0  0  0  0  0
    3.2610    2.1700   -0.9930 O   0  0  0  0  0  0  0  0  0  0  0  0
   -0.0420    1.5720    0.8120 C   0  0  0  0  0  0  0  0  0  0  0  0
    0.0590    2.8110    0.9270 O   0  0  0  0  0  0  0  0  0  0  0  0
    2.8830    4.3090   -1.5490 O   0  0  0  0  0  0  0  0  0  0  0  0
   -0.4960   -0.9860   -0.1930 H   0  0  0  0  0  0  0  0  0  0  0  0
    1.8730    0.8600    0.2410 H   0  0  0  0  0  0  0  0  0  0  0  0
   -0.3270    1.0320   -1.9070 H   0  0  0  0  0  0  0  0  0  0  0  0
    1.3510    0.5710   -2.1780 H   0  0  0  0  0  0  0  0  0  0  0  0
    0.3530    3.3530   -1.2800 H   0  0  0  0  0  0  0  0  0  0  0  0
    0.9430    2.7940   -2.8590 H   0  0  0  0  0  0  0  0  0  0  0  0
    3.5800    4.6050   -0.8780 H   0  0  0  0  0  0  0  0  0  0  0  0
   -1.0390    0.9130    1.5720 N   0  0  0  0  0  0  0  0  0  0  0  0
   -1.8940    1.6840    2.4430 C   0  0  0  0  0  0  0  0  0  0  0  0
   -2.8580    0.7900    3.1380 C   0  0  0  0  0  0  0  0  0  0  0  0
   -2.8390   -0.4570    2.9180 O   0  0  0  0  0  0  0  0  0  0  0  0
   -3.7940    1.2570    4.0290 O   0  0  0  0  0  0  0  0  0  0  0  0
   -1.1710   -0.1160    1.5190 H   0  0  0  0  0  0  0  0  0  0  0  0
   -1.2520    2.1460    3.2280 H   0  0  0  0  0  0  0  0  0  0  0  0
   -2.4500    2.4680    1.8870 H   0  0  0  0  0  0  0  0  0  0  0  0
  1 10  1  0  0  0  0
  1  2  1  0  0  0  0
  2  4  1  0  0  0  0
  2  3  2  0  0  0  0
  4 11  1  0  0  0  0
  5 13  1  6  0  0  0
  5  6  1  0  0  0  0
  5  4  1  0  0  0  0
  6 15  1  0  0  0  0
  7  5  1  0  0  0  0
  7  8  2  0  0  0  0
  9  1  1  0  0  0  0
 12  4  1  0  0  0  0
 14  6  1  0  0  0  0
 16  7  1  0  0  0  0
 17 16  1  0  0  0  0
 17 26  1  1  0  0  0
 17 22  1  0  0  0  0
 18 17  1  0  0  0  0
 19 18  1  0  0  0  0
 19 20  1  0  0  0  0
 19 29  1  0  0  0  0
 20 21  2  0  0  0  0
 22 23  2  0  0  0  0
 22 32  1  0  0  0  0
 24 20  1  0  0  0  0
 24 31  1  0  0  0  0
 25 16  1  0  0  0  0
 27 18  1  0  0  0  0
 28 18  1  0  0  0  0
 30 19  1  0  0  0  0
 32 33  1  0  0  0  0
 33 34  1  0  0  0  0
 33 38  1  0  0  0  0
 34 36  1  0  0  0  0
 35 34  2  0  0  0  0
 37 32  1  0  0  0  0
 39 33  1  0  0  0  0
M  END
$$$$
