NEI.pdb
 OpenBabel07022418093D

 51 50  0  0  1  0  0  0  0  0999 V2000
    2.6290   -3.7780    4.0050 N   0  0  0  0  0  0  0  0  0  0  0  0
    2.0060   -2.5780    3.5730 C   0  0  0  0  0  0  0  0  0  0  0  0
    1.0350   -2.6940    2.7840 O   0  0  0  0  0  0  0  0  0  0  0  0
    2.5430   -1.3070    4.0800 C   0  0  0  0  0  0  0  0  0  0  0  0
    1.8390   -0.0900    3.5900 C   0  0  2  0  0  0  0  0  0  0  0  0
    0.4470   -0.0260    3.9210 N   0  0  0  0  0  0  0  0  0  0  0  0
    2.0780    0.1480    2.1160 C   0  0  0  0  0  0  0  0  0  0  0  0
    3.2350    0.1030    1.6490 O   0  0  0  0  0  0  0  0  0  0  0  0
    3.2360   -4.2840    3.3330 H   0  0  0  0  0  0  0  0  0  0  0  0
    2.5100   -4.1730    4.9570 H   0  0  0  0  0  0  0  0  0  0  0  0
    2.6010   -1.3300    5.1860 H   0  0  0  0  0  0  0  0  0  0  0  0
    3.6080   -1.2330    3.7130 H   0  0  0  0  0  0  0  0  0  0  0  0
    2.3230    0.7900    4.1110 H   0  0  0  0  0  0  0  0  0  0  0  0
    0.0430    0.9060    3.7030 H   0  0  0  0  0  0  0  0  0  0  0  0
   -0.0800   -0.7380    3.3980 H   0  0  0  0  0  0  0  0  0  0  0  0
    1.0110    0.4220    1.2410 N   0  0  0  0  0  0  0  0  0  0  0  0
    0.9820    0.6960   -0.1300 C   0  0  1  0  0  0  0  0  0  0  0  0
    2.2440    0.9810   -0.8810 C   0  0  0  0  0  0  0  0  0  0  0  0
    2.9800    2.2190   -0.4870 C   0  0  0  0  0  0  0  0  0  0  0  0
    2.1100    3.4130   -0.7120 C   0  0  0  0  0  0  0  0  0  0  0  0
    1.9100    3.7980   -1.8780 O   0  0  0  0  0  0  0  0  0  0  0  0
    0.0480   -0.0820   -0.9590 C   0  0  0  0  0  0  0  0  0  0  0  0
   -0.0360    0.1350   -2.2180 O   0  0  0  0  0  0  0  0  0  0  0  0
    1.5360    4.0780    0.3460 O   0  0  0  0  0  0  0  0  0  0  0  0
    0.0480    0.4190    1.7340 H   0  0  0  0  0  0  0  0  0  0  0  0
    0.5220    1.7970   -0.1600 H   0  0  0  0  0  0  0  0  0  0  0  0
    2.9140    0.0990   -0.9590 H   0  0  0  0  0  0  0  0  0  0  0  0
    1.9080    1.1600   -1.9490 H   0  0  0  0  0  0  0  0  0  0  0  0
    3.3850    2.3140    0.5000 H   0  0  0  0  0  0  0  0  0  0  0  0
    3.8790    2.2810   -1.1860 H   0  0  0  0  0  0  0  0  0  0  0  0
    1.0790    4.9640    0.1350 H   0  0  0  0  0  0  0  0  0  0  0  0
   -3.7040   -2.4130    1.1270 C   0  0  0  0  0  0  0  0  0  0  0  0
   -3.6790   -1.1490    0.3030 C   0  0  0  0  0  0  0  0  0  0  0  0
   -3.0960   -1.4050   -1.0800 C   0  0  2  0  0  0  0  0  0  0  0  0
   -3.9890   -2.4410   -1.7260 C   0  0  0  0  0  0  0  0  0  0  0  0
   -1.7110   -1.9260   -1.0170 C   0  0  2  0  0  0  0  0  0  0  0  0
   -0.7700   -1.0800   -0.3710 N   0  0  0  0  0  0  0  0  0  0  0  0
   -1.1860   -2.4650   -2.2940 C   0  0  0  0  0  0  0  0  0  0  0  0
   -1.9340   -3.1640   -3.0530 O   0  0  0  0  0  0  0  0  0  0  0  0
    0.0970   -2.2800   -2.7680 O   0  0  0  0  0  0  0  0  0  0  0  0
   -4.2440   -3.2280    0.6130 H   0  0  0  0  0  0  0  0  0  0  0  0
   -2.7130   -2.7390    1.4650 H   0  0  0  0  0  0  0  0  0  0  0  0
   -4.2800   -2.1900    2.0520 H   0  0  0  0  0  0  0  0  0  0  0  0
   -3.1580   -0.3700    0.8550 H   0  0  0  0  0  0  0  0  0  0  0  0
   -4.7330   -0.8420    0.1450 H   0  0  0  0  0  0  0  0  0  0  0  0
   -3.2180   -0.4690   -1.6380 H   0  0  0  0  0  0  0  0  0  0  0  0
   -5.0260   -2.2690   -1.3420 H   0  0  0  0  0  0  0  0  0  0  0  0
   -4.0050   -2.2110   -2.8180 H   0  0  0  0  0  0  0  0  0  0  0  0
   -3.6530   -3.4700   -1.5610 H   0  0  0  0  0  0  0  0  0  0  0  0
   -1.7500   -2.8800   -0.3660 H   0  0  0  0  0  0  0  0  0  0  0  0
   -0.6500   -1.1860    0.6830 H   0  0  0  0  0  0  0  0  0  0  0  0
  1 10  1  0  0  0  0
  2  1  1  0  0  0  0
  2  4  1  0  0  0  0
  3  2  2  0  0  0  0
  4 11  1  0  0  0  0
  5  6  1  0  0  0  0
  5  4  1  0  0  0  0
  5 13  1  1  0  0  0
  7  5  1  0  0  0  0
  8  7  2  0  0  0  0
  9  1  1  0  0  0  0
 12  4  1  0  0  0  0
 14  6  1  0  0  0  0
 15  6  1  0  0  0  0
 16 25  1  0  0  0  0
 16  7  1  0  0  0  0
 17 26  1  6  0  0  0
 17 16  1  0  0  0  0
 18 19  1  0  0  0  0
 18 17  1  0  0  0  0
 19 29  1  0  0  0  0
 20 19  1  0  0  0  0
 20 24  1  0  0  0  0
 21 20  2  0  0  0  0
 22 37  1  0  0  0  0
 22 17  1  0  0  0  0
 23 22  2  0  0  0  0
 27 18  1  0  0  0  0
 28 18  1  0  0  0  0
 30 19  1  0  0  0  0
 31 24  1  0  0  0  0
 32 42  1  0  0  0  0
 32 43  1  0  0  0  0
 33 44  1  0  0  0  0
 33 32  1  0  0  0  0
 34 46  1  6  0  0  0
 34 36  1  0  0  0  0
 34 33  1  0  0  0  0
 35 49  1  0  0  0  0
 35 47  1  0  0  0  0
 35 34  1  0  0  0  0
 36 37  1  0  0  0  0
 36 50  1  1  0  0  0
 37 51  1  0  0  0  0
 38 36  1  0  0  0  0
 39 38  2  0  0  0  0
 40 38  1  0  0  0  0
 41 32  1  0  0  0  0
 45 33  1  0  0  0  0
 48 35  1  0  0  0  0
M  END
$$$$
