NEL.pdb
 OpenBabel07022418093D

 51 50  0  0  1  0  0  0  0  0999 V2000
    4.5110   -1.4280    4.8980 N   0  0  0  0  0  0  0  0  0  0  0  0
    3.3850   -1.7650    4.0650 C   0  0  0  0  0  0  0  0  0  0  0  0
    2.2520   -1.6530    4.5690 O   0  0  0  0  0  0  0  0  0  0  0  0
    3.5710   -2.2210    2.6810 C   0  0  0  0  0  0  0  0  0  0  0  0
    2.2990   -2.3620    1.9410 C   0  0  2  0  0  0  0  0  0  0  0  0
    2.6420   -2.8760    0.5940 N   0  0  0  0  0  0  0  0  0  0  0  0
    1.5110   -1.1180    1.7660 C   0  0  0  0  0  0  0  0  0  0  0  0
    1.0550   -0.5030    2.7350 O   0  0  0  0  0  0  0  0  0  0  0  0
    5.3640   -2.0360    4.9410 H   0  0  0  0  0  0  0  0  0  0  0  0
    4.5200   -0.5700    5.4890 H   0  0  0  0  0  0  0  0  0  0  0  0
    4.1130   -3.2100    2.6890 H   0  0  0  0  0  0  0  0  0  0  0  0
    4.2180   -1.4600    2.1710 H   0  0  0  0  0  0  0  0  0  0  0  0
    1.6580   -3.1220    2.4000 H   0  0  0  0  0  0  0  0  0  0  0  0
    1.8570   -3.3710    0.1640 H   0  0  0  0  0  0  0  0  0  0  0  0
    3.5540   -3.3360    0.5760 H   0  0  0  0  0  0  0  0  0  0  0  0
    1.2380   -0.5660    0.4790 N   0  0  0  0  0  0  0  0  0  0  0  0
    0.4770    0.6400    0.2510 C   0  0  1  0  0  0  0  0  0  0  0  0
    1.2690    1.6540   -0.5450 C   0  0  0  0  0  0  0  0  0  0  0  0
    2.5380    2.0580    0.1510 C   0  0  0  0  0  0  0  0  0  0  0  0
    2.3480    2.7070    1.4570 C   0  0  0  0  0  0  0  0  0  0  0  0
    3.3600    2.9470    2.1560 O   0  0  0  0  0  0  0  0  0  0  0  0
   -0.7680    0.2550   -0.4730 C   0  0  0  0  0  0  0  0  0  0  0  0
   -1.5490    1.1760   -0.7740 O   0  0  0  0  0  0  0  0  0  0  0  0
    1.1060    3.0540    1.9250 O   0  0  0  0  0  0  0  0  0  0  0  0
    1.6240   -1.0820   -0.3400 H   0  0  0  0  0  0  0  0  0  0  0  0
    0.1630    1.1230    1.1920 H   0  0  0  0  0  0  0  0  0  0  0  0
    0.6660    2.5780   -0.6780 H   0  0  0  0  0  0  0  0  0  0  0  0
    1.5110    1.2950   -1.5490 H   0  0  0  0  0  0  0  0  0  0  0  0
    3.1520    1.1230    0.3070 H   0  0  0  0  0  0  0  0  0  0  0  0
    3.1690    2.6930   -0.5230 H   0  0  0  0  0  0  0  0  0  0  0  0
    0.9630    3.7200    2.6790 H   0  0  0  0  0  0  0  0  0  0  0  0
   -4.1860   -2.0300    0.7100 C   0  0  0  0  0  0  0  0  0  0  0  0
   -3.8550   -0.6670    0.0940 C   0  0  0  0  0  0  0  0  0  0  0  0
   -5.1590    0.1350    0.1050 C   0  0  0  0  0  0  0  0  0  0  0  0
   -3.3950   -0.8180   -1.3240 C   0  0  0  0  0  0  0  0  0  0  0  0
   -2.1430   -1.6630   -1.4460 C   0  0  2  0  0  0  0  0  0  0  0  0
   -1.0380   -1.0670   -0.7920 N   0  0  0  0  0  0  0  0  0  0  0  0
   -1.9180   -2.2570   -2.7500 C   0  0  0  0  0  0  0  0  0  0  0  0
   -2.8990   -2.7850   -3.3400 O   0  0  0  0  0  0  0  0  0  0  0  0
   -0.7050   -2.3040   -3.4260 O   0  0  0  0  0  0  0  0  0  0  0  0
   -3.4010   -2.2510    1.4530 H   0  0  0  0  0  0  0  0  0  0  0  0
   -5.1590   -1.9790    1.2790 H   0  0  0  0  0  0  0  0  0  0  0  0
   -4.3380   -2.8060   -0.0540 H   0  0  0  0  0  0  0  0  0  0  0  0
   -3.1420   -0.1240    0.7120 H   0  0  0  0  0  0  0  0  0  0  0  0
   -5.1720    0.8510   -0.7640 H   0  0  0  0  0  0  0  0  0  0  0  0
   -5.9930   -0.5870    0.0030 H   0  0  0  0  0  0  0  0  0  0  0  0
   -5.2350    0.6350    1.0810 H   0  0  0  0  0  0  0  0  0  0  0  0
   -4.2200   -1.3730   -1.8520 H   0  0  0  0  0  0  0  0  0  0  0  0
   -3.3030    0.1750   -1.7940 H   0  0  0  0  0  0  0  0  0  0  0  0
   -2.4360   -2.5450   -0.7290 H   0  0  0  0  0  0  0  0  0  0  0  0
   -0.2720   -1.7730   -0.4920 H   0  0  0  0  0  0  0  0  0  0  0  0
  1  9  1  0  0  0  0
  1 10  1  0  0  0  0
  2  3  2  0  0  0  0
  2  1  1  0  0  0  0
  4 11  1  0  0  0  0
  4  2  1  0  0  0  0
  5 13  1  1  0  0  0
  5  4  1  0  0  0  0
  6  5  1  0  0  0  0
  7  5  1  0  0  0  0
  7  8  2  0  0  0  0
 12  4  1  0  0  0  0
 14  6  1  0  0  0  0
 15  6  1  0  0  0  0
 16  7  1  0  0  0  0
 17 16  1  0  0  0  0
 17 26  1  1  0  0  0
 18 19  1  0  0  0  0
 18 17  1  0  0  0  0
 19 29  1  0  0  0  0
 19 20  1  0  0  0  0
 20 24  1  0  0  0  0
 20 21  2  0  0  0  0
 22 17  1  0  0  0  0
 23 22  2  0  0  0  0
 24 31  1  0  0  0  0
 25 16  1  0  0  0  0
 27 18  1  0  0  0  0
 28 18  1  0  0  0  0
 30 19  1  0  0  0  0
 32 42  1  0  0  0  0
 32 41  1  0  0  0  0
 33 34  1  0  0  0  0
 33 32  1  0  0  0  0
 33 44  1  0  0  0  0
 34 47  1  0  0  0  0
 35 33  1  0  0  0  0
 36 35  1  0  0  0  0
 36 37  1  0  0  0  0
 36 50  1  1  0  0  0
 37 51  1  0  0  0  0
 37 22  1  0  0  0  0
 38 36  1  0  0  0  0
 39 38  1  0  0  0  0
 40 38  2  0  0  0  0
 43 32  1  0  0  0  0
 45 34  1  0  0  0  0
 46 34  1  0  0  0  0
 48 35  1  0  0  0  0
 49 35  1  0  0  0  0
M  END
$$$$
