NEM.pdb
 OpenBabel07022418093D

 49 48  0  0  1  0  0  0  0  0999 V2000
    1.8290   -3.4020    2.3770 N   0  0  0  0  0  0  0  0  0  0  0  0
    1.8850   -3.3990    0.9770 C   0  0  0  0  0  0  0  0  0  0  0  0
    1.2940   -4.3130    0.3470 O   0  0  0  0  0  0  0  0  0  0  0  0
    2.6020   -2.3830    0.1640 C   0  0  0  0  0  0  0  0  0  0  0  0
    3.2690   -1.3420    1.0390 C   0  0  2  0  0  0  0  0  0  0  0  0
    4.2330   -1.9620    1.9260 N   0  0  0  0  0  0  0  0  0  0  0  0
    2.2740   -0.5540    1.8210 C   0  0  0  0  0  0  0  0  0  0  0  0
    2.3080   -0.4690    3.0800 O   0  0  0  0  0  0  0  0  0  0  0  0
    2.6730   -3.4930    3.0110 H   0  0  0  0  0  0  0  0  0  0  0  0
    0.8950   -3.3080    2.8310 H   0  0  0  0  0  0  0  0  0  0  0  0
    1.8730   -1.8930   -0.4850 H   0  0  0  0  0  0  0  0  0  0  0  0
    3.4030   -2.8810   -0.4060 H   0  0  0  0  0  0  0  0  0  0  0  0
    3.7890   -0.6350    0.3680 H   0  0  0  0  0  0  0  0  0  0  0  0
    4.7550   -2.7150    1.4480 H   0  0  0  0  0  0  0  0  0  0  0  0
    4.8610   -1.2390    2.3200 H   0  0  0  0  0  0  0  0  0  0  0  0
    1.2420    0.1340    1.1410 N   0  0  0  0  0  0  0  0  0  0  0  0
    0.2630    0.9080    1.8910 C   0  0  1  0  0  0  0  0  0  0  0  0
    0.3950    2.3250    1.4450 C   0  0  0  0  0  0  0  0  0  0  0  0
   -0.5250    3.2990    2.0960 C   0  0  0  0  0  0  0  0  0  0  0  0
   -0.2720    4.6540    1.5570 C   0  0  0  0  0  0  0  0  0  0  0  0
    0.6130    4.8070    0.6870 O   0  0  0  0  0  0  0  0  0  0  0  0
   -1.0550    0.3040    1.7060 C   0  0  0  0  0  0  0  0  0  0  0  0
   -2.1060    0.7630    2.2710 O   0  0  0  0  0  0  0  0  0  0  0  0
   -0.9790    5.7690    1.9760 O   0  0  0  0  0  0  0  0  0  0  0  0
    1.1800    0.0910    0.1100 H   0  0  0  0  0  0  0  0  0  0  0  0
    0.4840    0.8710    2.9850 H   0  0  0  0  0  0  0  0  0  0  0  0
    0.2740    2.3630    0.3240 H   0  0  0  0  0  0  0  0  0  0  0  0
    1.4550    2.6370    1.6100 H   0  0  0  0  0  0  0  0  0  0  0  0
   -1.5870    3.0020    1.9930 H   0  0  0  0  0  0  0  0  0  0  0  0
   -0.2590    3.3540    3.1920 H   0  0  0  0  0  0  0  0  0  0  0  0
   -0.9850    6.6480    1.4710 H   0  0  0  0  0  0  0  0  0  0  0  0
    0.2190   -1.7820   -3.5140 C   0  0  0  0  0  0  0  0  0  0  0  0
   -0.5410   -1.0390   -2.0460 S   0  0  0  0  0  0  0  0  0  0  0  0
   -2.1850   -1.6960   -1.8570 C   0  0  0  0  0  0  0  0  0  0  0  0
   -2.9850   -1.2210   -0.7160 C   0  0  0  0  0  0  0  0  0  0  0  0
   -2.4820   -1.4740    0.6620 C   0  0  2  0  0  0  0  0  0  0  0  0
   -1.2110   -0.8530    0.8640 N   0  0  0  0  0  0  0  0  0  0  0  0
   -2.5020   -2.9020    1.0390 C   0  0  0  0  0  0  0  0  0  0  0  0
   -1.4990   -3.4900    1.4880 O   0  0  0  0  0  0  0  0  0  0  0  0
   -3.6640   -3.6270    0.8970 O   0  0  0  0  0  0  0  0  0  0  0  0
    0.3750   -2.8750   -3.3970 H   0  0  0  0  0  0  0  0  0  0  0  0
   -0.4580   -1.6840   -4.4110 H   0  0  0  0  0  0  0  0  0  0  0  0
    1.1480   -1.2430   -3.7960 H   0  0  0  0  0  0  0  0  0  0  0  0
   -2.7500   -1.4300   -2.8020 H   0  0  0  0  0  0  0  0  0  0  0  0
   -2.1390   -2.8260   -1.9240 H   0  0  0  0  0  0  0  0  0  0  0  0
   -3.1140   -0.0970   -0.7970 H   0  0  0  0  0  0  0  0  0  0  0  0
   -4.0410   -1.5940   -0.8590 H   0  0  0  0  0  0  0  0  0  0  0  0
   -3.2690   -0.9910    1.3390 H   0  0  0  0  0  0  0  0  0  0  0  0
   -0.3510   -1.2190    0.4200 H   0  0  0  0  0  0  0  0  0  0  0  0
  1 10  1  0  0  0  0
  1  9  1  0  0  0  0
  2  1  1  0  0  0  0
  3  2  2  0  0  0  0
  4  2  1  0  0  0  0
  4  5  1  0  0  0  0
  5 13  1  6  0  0  0
  5  7  1  0  0  0  0
  5  6  1  0  0  0  0
  6 15  1  0  0  0  0
  7  8  2  0  0  0  0
 11  4  1  0  0  0  0
 12  4  1  0  0  0  0
 14  6  1  0  0  0  0
 16  7  1  0  0  0  0
 16 17  1  0  0  0  0
 17 26  1  1  0  0  0
 18 28  1  0  0  0  0
 18 17  1  0  0  0  0
 18 19  1  0  0  0  0
 19 30  1  0  0  0  0
 20 24  1  0  0  0  0
 20 19  1  0  0  0  0
 21 20  2  0  0  0  0
 22 17  1  0  0  0  0
 22 23  2  0  0  0  0
 25 16  1  0  0  0  0
 27 18  1  0  0  0  0
 29 19  1  0  0  0  0
 31 24  1  0  0  0  0
 32 41  1  0  0  0  0
 32 33  1  0  0  0  0
 33 34  1  0  0  0  0
 34 35  1  0  0  0  0
 35 36  1  0  0  0  0
 36 37  1  0  0  0  0
 36 38  1  0  0  0  0
 36 48  1  1  0  0  0
 37 22  1  0  0  0  0
 38 39  1  0  0  0  0
 40 38  2  0  0  0  0
 42 32  1  0  0  0  0
 43 32  1  0  0  0  0
 44 34  1  0  0  0  0
 45 34  1  0  0  0  0
 46 35  1  0  0  0  0
 47 35  1  0  0  0  0
 49 37  1  0  0  0  0
M  END
$$$$
