NEN.pdb
 OpenBabel07022418083D

 46 45  0  0  1  0  0  0  0  0999 V2000
    4.6540   -4.3150    1.9870 N   0  0  0  0  0  0  0  0  0  0  0  0
    3.3170   -4.0710    1.5130 C   0  0  0  0  0  0  0  0  0  0  0  0
    2.3890   -4.5950    2.1650 O   0  0  0  0  0  0  0  0  0  0  0  0
    3.0820   -3.2520    0.3320 C   0  0  0  0  0  0  0  0  0  0  0  0
    1.6680   -2.9140    0.0110 C   0  0  2  0  0  0  0  0  0  0  0  0
    1.6010   -2.1280   -1.2360 N   0  0  0  0  0  0  0  0  0  0  0  0
    1.1070   -2.0670    1.1100 C   0  0  0  0  0  0  0  0  0  0  0  0
    0.9900   -2.5490    2.2450 O   0  0  0  0  0  0  0  0  0  0  0  0
    5.1940   -5.0590    1.5340 H   0  0  0  0  0  0  0  0  0  0  0  0
    5.0730   -3.7580    2.7650 H   0  0  0  0  0  0  0  0  0  0  0  0
    3.6480   -2.2800    0.4690 H   0  0  0  0  0  0  0  0  0  0  0  0
    3.5730   -3.7040   -0.5890 H   0  0  0  0  0  0  0  0  0  0  0  0
    1.0290   -3.7890   -0.1190 H   0  0  0  0  0  0  0  0  0  0  0  0
    2.2060   -1.2840   -1.1700 H   0  0  0  0  0  0  0  0  0  0  0  0
    0.6220   -1.9370   -1.4820 H   0  0  0  0  0  0  0  0  0  0  0  0
    0.7070   -0.7340    0.9000 N   0  0  0  0  0  0  0  0  0  0  0  0
    0.1660    0.0410    2.0240 C   0  0  1  0  0  0  0  0  0  0  0  0
    1.1040    1.1840    2.3010 C   0  0  0  0  0  0  0  0  0  0  0  0
    0.6990    2.0780    3.4330 C   0  0  0  0  0  0  0  0  0  0  0  0
    1.7270    3.1550    3.6040 C   0  0  0  0  0  0  0  0  0  0  0  0
    2.7080    3.1520    2.8270 O   0  0  0  0  0  0  0  0  0  0  0  0
   -1.2270    0.4460    1.7530 C   0  0  0  0  0  0  0  0  0  0  0  0
   -1.9090    1.0880    2.6110 O   0  0  0  0  0  0  0  0  0  0  0  0
    1.6470    4.1400    4.5640 O   0  0  0  0  0  0  0  0  0  0  0  0
    0.8020   -0.3200   -0.0460 H   0  0  0  0  0  0  0  0  0  0  0  0
    0.1960   -0.6210    2.9110 H   0  0  0  0  0  0  0  0  0  0  0  0
    2.1420    0.8260    2.4560 H   0  0  0  0  0  0  0  0  0  0  0  0
    1.1610    1.7880    1.3460 H   0  0  0  0  0  0  0  0  0  0  0  0
   -0.3060    2.5050    3.3550 H   0  0  0  0  0  0  0  0  0  0  0  0
    0.7140    1.5030    4.3980 H   0  0  0  0  0  0  0  0  0  0  0  0
    2.1020    5.0480    4.4840 H   0  0  0  0  0  0  0  0  0  0  0  0
   -2.1370   -0.5150   -2.4120 N   0  0  0  0  0  0  0  0  0  0  0  0
   -2.6120    0.7890   -2.2290 C   0  0  0  0  0  0  0  0  0  0  0  0
   -2.5530    1.5560   -3.2510 O   0  0  0  0  0  0  0  0  0  0  0  0
   -3.1700    1.3890   -1.0150 C   0  0  0  0  0  0  0  0  0  0  0  0
   -3.1770    0.4820    0.1910 C   0  0  2  0  0  0  0  0  0  0  0  0
   -1.8080    0.1000    0.4920 N   0  0  0  0  0  0  0  0  0  0  0  0
   -4.0450   -0.6890   -0.0260 C   0  0  0  0  0  0  0  0  0  0  0  0
   -5.2460   -0.5580   -0.3260 O   0  0  0  0  0  0  0  0  0  0  0  0
   -3.5260   -1.9560    0.1050 O   0  0  0  0  0  0  0  0  0  0  0  0
   -2.7800   -1.3250   -2.4340 H   0  0  0  0  0  0  0  0  0  0  0  0
   -1.1230   -0.6830   -2.5340 H   0  0  0  0  0  0  0  0  0  0  0  0
   -4.2220    1.7090   -1.2640 H   0  0  0  0  0  0  0  0  0  0  0  0
   -2.6150    2.3330   -0.7910 H   0  0  0  0  0  0  0  0  0  0  0  0
   -3.6260    1.0170    1.0750 H   0  0  0  0  0  0  0  0  0  0  0  0
   -1.2160   -0.4230   -0.1730 H   0  0  0  0  0  0  0  0  0  0  0  0
  1 10  1  0  0  0  0
  2  1  1  0  0  0  0
  2  3  2  0  0  0  0
  4 11  1  0  0  0  0
  4  2  1  0  0  0  0
  5 13  1  6  0  0  0
  5  4  1  0  0  0  0
  5  7  1  0  0  0  0
  6 14  1  0  0  0  0
  6  5  1  0  0  0  0
  7  8  2  0  0  0  0
  9  1  1  0  0  0  0
 12  4  1  0  0  0  0
 15  6  1  0  0  0  0
 16  7  1  0  0  0  0
 16 17  1  0  0  0  0
 17 18  1  0  0  0  0
 17 26  1  1  0  0  0
 18 27  1  0  0  0  0
 18 19  1  0  0  0  0
 19 20  1  0  0  0  0
 19 30  1  0  0  0  0
 20 24  1  0  0  0  0
 21 20  2  0  0  0  0
 22 17  1  0  0  0  0
 22 23  2  0  0  0  0
 25 16  1  0  0  0  0
 28 18  1  0  0  0  0
 29 19  1  0  0  0  0
 31 24  1  0  0  0  0
 32 33  1  0  0  0  0
 33 35  1  0  0  0  0
 34 33  2  0  0  0  0
 35 44  1  0  0  0  0
 35 36  1  0  0  0  0
 36 37  1  0  0  0  0
 36 45  1  1  0  0  0
 37 22  1  0  0  0  0
 38 40  1  0  0  0  0
 38 36  1  0  0  0  0
 39 38  2  0  0  0  0
 41 32  1  0  0  0  0
 42 32  1  0  0  0  0
 43 35  1  0  0  0  0
 46 37  1  0  0  0  0
M  END
$$$$
