NEP.pdb
 OpenBabel07022418093D

 46 46  0  0  1  0  0  0  0  0999 V2000
   -0.0760   -4.7480    3.9140 N   0  0  0  0  0  0  0  0  0  0  0  0
   -0.1810   -3.3360    3.9810 C   0  0  0  0  0  0  0  0  0  0  0  0
   -0.7770   -2.8510    4.9870 O   0  0  0  0  0  0  0  0  0  0  0  0
    0.3940   -2.4990    2.9040 C   0  0  0  0  0  0  0  0  0  0  0  0
    0.1730   -1.0240    3.1700 C   0  0  2  0  0  0  0  0  0  0  0  0
   -1.2350   -0.7220    3.2560 N   0  0  0  0  0  0  0  0  0  0  0  0
    0.7570   -0.1970    2.0610 C   0  0  0  0  0  0  0  0  0  0  0  0
    1.9840   -0.3690    1.8780 O   0  0  0  0  0  0  0  0  0  0  0  0
   -0.9090   -5.3130    3.6520 H   0  0  0  0  0  0  0  0  0  0  0  0
    0.8140   -5.2090    4.1230 H   0  0  0  0  0  0  0  0  0  0  0  0
    1.4580   -2.7480    2.8020 H   0  0  0  0  0  0  0  0  0  0  0  0
   -0.1080   -2.7270    1.9490 H   0  0  0  0  0  0  0  0  0  0  0  0
    0.6580   -0.7160    4.1180 H   0  0  0  0  0  0  0  0  0  0  0  0
   -1.7990   -1.6080    3.1220 H   0  0  0  0  0  0  0  0  0  0  0  0
   -1.5050   -0.3410    4.1710 H   0  0  0  0  0  0  0  0  0  0  0  0
   -0.0420    0.6860    1.3150 N   0  0  0  0  0  0  0  0  0  0  0  0
    0.3750    1.5340    0.2590 C   0  0  1  0  0  0  0  0  0  0  0  0
    1.8770    1.8330    0.3880 C   0  0  0  0  0  0  0  0  0  0  0  0
    2.0690    2.5520    1.6950 C   0  0  0  0  0  0  0  0  0  0  0  0
    3.5060    2.8600    1.9480 C   0  0  0  0  0  0  0  0  0  0  0  0
    4.4240    2.5450    1.1470 O   0  0  0  0  0  0  0  0  0  0  0  0
   -0.0110    1.1740   -1.0610 C   0  0  0  0  0  0  0  0  0  0  0  0
    0.2730    1.9950   -2.0440 O   0  0  0  0  0  0  0  0  0  0  0  0
    3.8140    3.5210    3.1210 O   0  0  0  0  0  0  0  0  0  0  0  0
   -1.0720    0.7150    1.6300 H   0  0  0  0  0  0  0  0  0  0  0  0
   -0.0410    2.5880    0.5380 H   0  0  0  0  0  0  0  0  0  0  0  0
    2.0620    2.5580   -0.4670 H   0  0  0  0  0  0  0  0  0  0  0  0
    2.5240    0.9900    0.2200 H   0  0  0  0  0  0  0  0  0  0  0  0
    1.5830    3.5930    1.6020 H   0  0  0  0  0  0  0  0  0  0  0  0
    1.5360    2.0980    2.5170 H   0  0  0  0  0  0  0  0  0  0  0  0
    4.7210    3.8710    3.3550 H   0  0  0  0  0  0  0  0  0  0  0  0
   -0.6810    0.0120   -1.4780 N   0  0  0  0  0  0  0  0  0  0  0  0
   -1.0560   -0.2710   -2.9030 C   0  0  0  0  0  0  0  0  0  0  0  0
   -2.3810   -0.9590   -2.7840 C   0  0  0  0  0  0  0  0  0  0  0  0
   -2.5800   -1.3030   -1.3490 C   0  0  0  0  0  0  0  0  0  0  0  0
   -1.1570   -1.1610   -0.8000 C   0  0  1  0  0  0  0  0  0  0  0  0
   -0.3400   -2.3750   -1.0770 C   0  0  0  0  0  0  0  0  0  0  0  0
    0.6940   -2.2750   -1.7680 O   0  0  0  0  0  0  0  0  0  0  0  0
   -0.7020   -3.6100   -0.5850 O   0  0  0  0  0  0  0  0  0  0  0  0
   -1.1150    0.6940   -3.4460 H   0  0  0  0  0  0  0  0  0  0  0  0
   -0.3120   -0.9500   -3.3320 H   0  0  0  0  0  0  0  0  0  0  0  0
   -2.4410   -1.8900   -3.4080 H   0  0  0  0  0  0  0  0  0  0  0  0
   -3.2030   -0.2490   -3.0740 H   0  0  0  0  0  0  0  0  0  0  0  0
   -2.9260   -2.3340   -1.1720 H   0  0  0  0  0  0  0  0  0  0  0  0
   -3.1890   -0.5470   -0.7940 H   0  0  0  0  0  0  0  0  0  0  0  0
   -1.2600   -1.0710    0.2890 H   0  0  0  0  0  0  0  0  0  0  0  0
  1  2  1  0  0  0  0
  1 10  1  0  0  0  0
  2  3  2  0  0  0  0
  4  5  1  0  0  0  0
  4  2  1  0  0  0  0
  5  6  1  0  0  0  0
  5 13  1  1  0  0  0
  6 15  1  0  0  0  0
  7  5  1  0  0  0  0
  8  7  2  0  0  0  0
  9  1  1  0  0  0  0
 11  4  1  0  0  0  0
 12  4  1  0  0  0  0
 14  6  1  0  0  0  0
 16 25  1  0  0  0  0
 16  7  1  0  0  0  0
 17 18  1  0  0  0  0
 17 26  1  1  0  0  0
 17 16  1  0  0  0  0
 18 19  1  0  0  0  0
 19 20  1  0  0  0  0
 19 30  1  0  0  0  0
 20 24  1  0  0  0  0
 21 20  2  0  0  0  0
 22 17  1  0  0  0  0
 23 22  2  0  0  0  0
 24 31  1  0  0  0  0
 27 18  1  0  0  0  0
 28 18  1  0  0  0  0
 29 19  1  0  0  0  0
 32 22  1  0  0  0  0
 32 36  1  0  0  0  0
 33 34  1  0  0  0  0
 33 32  1  0  0  0  0
 34 35  1  0  0  0  0
 35 44  1  0  0  0  0
 35 36  1  0  0  0  0
 35 45  1  0  0  0  0
 36 46  1  1  0  0  0
 37 36  1  0  0  0  0
 37 39  1  0  0  0  0
 38 37  2  0  0  0  0
 40 33  1  0  0  0  0
 41 33  1  0  0  0  0
 42 34  1  0  0  0  0
 43 34  1  0  0  0  0
M  END
$$$$
