NER.pdb
 OpenBabel07022418083D

 55 54  0  0  1  0  0  0  0  0999 V2000
   -0.2220   -2.7550    3.1070 N   0  0  0  0  0  0  0  0  0  0  0  0
    0.6080   -2.1610    4.0880 C   0  0  0  0  0  0  0  0  0  0  0  0
    0.0460   -1.6360    5.0990 O   0  0  0  0  0  0  0  0  0  0  0  0
    2.0730   -2.1190    4.0040 C   0  0  0  0  0  0  0  0  0  0  0  0
    2.6300   -0.7240    4.0400 C   0  0  2  0  0  0  0  0  0  0  0  0
    2.2390   -0.0940    5.2690 N   0  0  0  0  0  0  0  0  0  0  0  0
    2.1150    0.0200    2.8550 C   0  0  0  0  0  0  0  0  0  0  0  0
    1.4810    1.0780    3.0520 O   0  0  0  0  0  0  0  0  0  0  0  0
   -1.1920   -2.3990    2.9890 H   0  0  0  0  0  0  0  0  0  0  0  0
    0.1060   -3.5310    2.5010 H   0  0  0  0  0  0  0  0  0  0  0  0
    2.3670   -2.5720    3.0360 H   0  0  0  0  0  0  0  0  0  0  0  0
    2.5680   -2.7400    4.7910 H   0  0  0  0  0  0  0  0  0  0  0  0
    3.7410   -0.7970    4.0210 H   0  0  0  0  0  0  0  0  0  0  0  0
    1.8860    0.8680    5.0700 H   0  0  0  0  0  0  0  0  0  0  0  0
    2.9850   -0.1520    5.9630 H   0  0  0  0  0  0  0  0  0  0  0  0
    2.3050   -0.4090    1.5370 N   0  0  0  0  0  0  0  0  0  0  0  0
    1.7710    0.3690    0.4290 C   0  0  1  0  0  0  0  0  0  0  0  0
    2.8690    0.7760   -0.5240 C   0  0  0  0  0  0  0  0  0  0  0  0
    3.9210    1.6040    0.1200 C   0  0  0  0  0  0  0  0  0  0  0  0
    3.4570    2.8870    0.6790 C   0  0  0  0  0  0  0  0  0  0  0  0
    4.2200    3.6180    1.3810 O   0  0  0  0  0  0  0  0  0  0  0  0
    0.7750   -0.5010   -0.2730 C   0  0  0  0  0  0  0  0  0  0  0  0
    0.5770   -1.6470    0.1520 O   0  0  0  0  0  0  0  0  0  0  0  0
    2.1770    3.3630    0.4710 O   0  0  0  0  0  0  0  0  0  0  0  0
    2.8230   -1.2760    1.3190 H   0  0  0  0  0  0  0  0  0  0  0  0
    1.2900    1.2850    0.8150 H   0  0  0  0  0  0  0  0  0  0  0  0
    3.3020   -0.1010   -1.0520 H   0  0  0  0  0  0  0  0  0  0  0  0
    2.3960    1.3910   -1.3210 H   0  0  0  0  0  0  0  0  0  0  0  0
    4.4720    1.0580    0.9200 H   0  0  0  0  0  0  0  0  0  0  0  0
    4.6950    1.8740   -0.6520 H   0  0  0  0  0  0  0  0  0  0  0  0
    1.6730    3.9020    1.1660 H   0  0  0  0  0  0  0  0  0  0  0  0
   -5.0090   -1.6770    1.2400 N   0  0  0  0  0  0  0  0  0  0  0  0
   -4.9790   -2.2480   -0.0790 C   0  0  0  0  0  0  0  0  0  0  0  0
   -6.0720   -2.3670   -0.7270 N   0  0  0  0  0  0  0  0  0  0  0  0
   -3.7540   -2.6620   -0.6240 N   0  0  0  0  0  0  0  0  0  0  0  0
   -3.4960   -2.5970   -2.0290 C   0  0  0  0  0  0  0  0  0  0  0  0
   -3.4030   -1.1810   -2.5490 C   0  0  0  0  0  0  0  0  0  0  0  0
   -2.3280   -0.3830   -1.9090 C   0  0  0  0  0  0  0  0  0  0  0  0
   -0.9330   -0.9400   -2.0810 C   0  0  2  0  0  0  0  0  0  0  0  0
    0.0370   -0.0850   -1.4040 N   0  0  0  0  0  0  0  0  0  0  0  0
   -0.5590   -1.1510   -3.4950 C   0  0  0  0  0  0  0  0  0  0  0  0
    0.4810   -0.5950   -3.9660 O   0  0  0  0  0  0  0  0  0  0  0  0
   -1.2890   -1.9360   -4.3530 O   0  0  0  0  0  0  0  0  0  0  0  0
   -5.4930   -2.1270    2.0360 H   0  0  0  0  0  0  0  0  0  0  0  0
   -4.5180   -0.7570    1.4010 H   0  0  0  0  0  0  0  0  0  0  0  0
   -6.0600   -2.7770   -1.6770 H   0  0  0  0  0  0  0  0  0  0  0  0
   -3.0020   -3.0320    0.0340 H   0  0  0  0  0  0  0  0  0  0  0  0
   -2.5680   -3.1740   -2.2730 H   0  0  0  0  0  0  0  0  0  0  0  0
   -4.2970   -3.1090   -2.5950 H   0  0  0  0  0  0  0  0  0  0  0  0
   -3.3470   -1.2120   -3.6510 H   0  0  0  0  0  0  0  0  0  0  0  0
   -4.3780   -0.6890   -2.3190 H   0  0  0  0  0  0  0  0  0  0  0  0
   -2.5490   -0.1290   -0.8590 H   0  0  0  0  0  0  0  0  0  0  0  0
   -2.3140    0.6160   -2.4410 H   0  0  0  0  0  0  0  0  0  0  0  0
   -0.9130   -1.9140   -1.5260 H   0  0  0  0  0  0  0  0  0  0  0  0
    0.1980    0.8760   -1.7670 H   0  0  0  0  0  0  0  0  0  0  0  0
  1  2  1  0  0  0  0
  2  3  2  0  0  0  0
  4  5  1  0  0  0  0
  4  2  1  0  0  0  0
  4 12  1  0  0  0  0
  5 13  1  6  0  0  0
  5  6  1  0  0  0  0
  6 15  1  0  0  0  0
  7  8  2  0  0  0  0
  7  5  1  0  0  0  0
  9  1  1  0  0  0  0
 10  1  1  0  0  0  0
 11  4  1  0  0  0  0
 14  6  1  0  0  0  0
 16  7  1  0  0  0  0
 17 26  1  1  0  0  0
 17 16  1  0  0  0  0
 18 19  1  0  0  0  0
 18 17  1  0  0  0  0
 19 20  1  0  0  0  0
 19 29  1  0  0  0  0
 20 21  2  0  0  0  0
 22 23  2  0  0  0  0
 22 17  1  0  0  0  0
 24 20  1  0  0  0  0
 24 31  1  0  0  0  0
 25 16  1  0  0  0  0
 27 18  1  0  0  0  0
 28 18  1  0  0  0  0
 30 19  1  0  0  0  0
 32 45  1  0  0  0  0
 32 44  1  0  0  0  0
 33 32  1  0  0  0  0
 34 33  2  0  0  0  0
 35 33  1  0  0  0  0
 35 47  1  0  0  0  0
 36 35  1  0  0  0  0
 37 51  1  0  0  0  0
 37 36  1  0  0  0  0
 37 38  1  0  0  0  0
 38 52  1  0  0  0  0
 39 38  1  0  0  0  0
 39 54  1  1  0  0  0
 39 40  1  0  0  0  0
 40 22  1  0  0  0  0
 41 39  1  0  0  0  0
 42 41  1  0  0  0  0
 43 41  2  0  0  0  0
 46 34  1  0  0  0  0
 48 36  1  0  0  0  0
 49 36  1  0  0  0  0
 50 37  1  0  0  0  0
 53 38  1  0  0  0  0
 55 40  1  0  0  0  0
M  END
$$$$
