NEV.pdb
 OpenBabel07022418093D

 48 47  0  0  1  0  0  0  0  0999 V2000
    1.4260   -4.8240    3.7880 N   0  0  0  0  0  0  0  0  0  0  0  0
    1.1900   -3.4390    3.9870 C   0  0  0  0  0  0  0  0  0  0  0  0
    0.8980   -3.0480    5.1390 O   0  0  0  0  0  0  0  0  0  0  0  0
    1.2920   -2.4990    2.8500 C   0  0  0  0  0  0  0  0  0  0  0  0
    1.0040   -1.0810    3.2520 C   0  0  2  0  0  0  0  0  0  0  0  0
   -0.3010   -0.8880    3.7900 N   0  0  0  0  0  0  0  0  0  0  0  0
    1.1510   -0.1890    2.0400 C   0  0  0  0  0  0  0  0  0  0  0  0
    2.2680   -0.2410    1.4460 O   0  0  0  0  0  0  0  0  0  0  0  0
    0.8150   -5.5580    4.1810 H   0  0  0  0  0  0  0  0  0  0  0  0
    2.2430   -5.1540    3.2260 H   0  0  0  0  0  0  0  0  0  0  0  0
    0.5330   -2.7690    2.0610 H   0  0  0  0  0  0  0  0  0  0  0  0
    2.3180   -2.5410    2.4120 H   0  0  0  0  0  0  0  0  0  0  0  0
    1.7740   -0.7810    4.0060 H   0  0  0  0  0  0  0  0  0  0  0  0
   -0.2360   -0.3610    4.6810 H   0  0  0  0  0  0  0  0  0  0  0  0
   -0.8440   -1.7870    3.8930 H   0  0  0  0  0  0  0  0  0  0  0  0
    0.0770    0.6170    1.6580 N   0  0  0  0  0  0  0  0  0  0  0  0
    0.0930    1.5130    0.5480 C   0  0  1  0  0  0  0  0  0  0  0  0
    1.4630    2.0490    0.2280 C   0  0  0  0  0  0  0  0  0  0  0  0
    2.0040    2.8210    1.3870 C   0  0  0  0  0  0  0  0  0  0  0  0
    1.2500    4.0270    1.7340 C   0  0  0  0  0  0  0  0  0  0  0  0
    0.2910    4.4410    1.0530 O   0  0  0  0  0  0  0  0  0  0  0  0
   -0.5580    0.8630   -0.6080 C   0  0  0  0  0  0  0  0  0  0  0  0
   -0.6350    1.4810   -1.7170 O   0  0  0  0  0  0  0  0  0  0  0  0
    1.5750    4.7820    2.8630 O   0  0  0  0  0  0  0  0  0  0  0  0
   -0.8120    0.5720    2.2170 H   0  0  0  0  0  0  0  0  0  0  0  0
   -0.5580    2.4290    0.7970 H   0  0  0  0  0  0  0  0  0  0  0  0
    2.1620    1.3050   -0.1470 H   0  0  0  0  0  0  0  0  0  0  0  0
    1.2800    2.8470   -0.5820 H   0  0  0  0  0  0  0  0  0  0  0  0
    3.0290    3.1890    1.0620 H   0  0  0  0  0  0  0  0  0  0  0  0
    2.1190    2.2230    2.3310 H   0  0  0  0  0  0  0  0  0  0  0  0
    0.9560    5.5070    3.1920 H   0  0  0  0  0  0  0  0  0  0  0  0
    0.3330   -2.3800   -2.1820 C   0  0  0  0  0  0  0  0  0  0  0  0
   -1.1540   -2.4520   -1.9300 C   0  0  0  0  0  0  0  0  0  0  0  0
   -1.8080   -3.0370   -3.1600 C   0  0  0  0  0  0  0  0  0  0  0  0
   -1.7480   -1.0710   -1.6920 C   0  0  2  0  0  0  0  0  0  0  0  0
   -1.1080   -0.4510   -0.5200 N   0  0  0  0  0  0  0  0  0  0  0  0
   -3.1770   -1.2620   -1.3970 C   0  0  0  0  0  0  0  0  0  0  0  0
   -3.9390   -1.7570   -2.2500 O   0  0  0  0  0  0  0  0  0  0  0  0
   -3.6730   -0.8930   -0.1720 O   0  0  0  0  0  0  0  0  0  0  0  0
    0.5750   -1.8200   -3.1020 H   0  0  0  0  0  0  0  0  0  0  0  0
    0.6780   -3.4230   -2.3350 H   0  0  0  0  0  0  0  0  0  0  0  0
    0.8800   -1.9990   -1.2920 H   0  0  0  0  0  0  0  0  0  0  0  0
   -1.3270   -3.0320   -1.0140 H   0  0  0  0  0  0  0  0  0  0  0  0
   -2.7300   -3.6140   -2.9370 H   0  0  0  0  0  0  0  0  0  0  0  0
   -2.0890   -2.2280   -3.8590 H   0  0  0  0  0  0  0  0  0  0  0  0
   -1.0930   -3.7380   -3.6780 H   0  0  0  0  0  0  0  0  0  0  0  0
   -1.6550   -0.3980   -2.5620 H   0  0  0  0  0  0  0  0  0  0  0  0
   -1.0380   -0.9420    0.3940 H   0  0  0  0  0  0  0  0  0  0  0  0
  1  2  1  0  0  0  0
  1  9  1  0  0  0  0
  2  3  2  0  0  0  0
  4  5  1  0  0  0  0
  4  2  1  0  0  0  0
  5  6  1  0  0  0  0
  5 13  1  1  0  0  0
  6 15  1  0  0  0  0
  6 14  1  0  0  0  0
  7  5  1  0  0  0  0
  8  7  2  0  0  0  0
 10  1  1  0  0  0  0
 11  4  1  0  0  0  0
 12  4  1  0  0  0  0
 16  7  1  0  0  0  0
 16 25  1  0  0  0  0
 17 26  1  1  0  0  0
 17 16  1  0  0  0  0
 18 17  1  0  0  0  0
 18 19  1  0  0  0  0
 19 20  1  0  0  0  0
 19 30  1  0  0  0  0
 20 24  1  0  0  0  0
 21 20  2  0  0  0  0
 22 36  1  0  0  0  0
 22 17  1  0  0  0  0
 23 22  2  0  0  0  0
 24 31  1  0  0  0  0
 27 18  1  0  0  0  0
 28 18  1  0  0  0  0
 29 19  1  0  0  0  0
 32 33  1  0  0  0  0
 32 42  1  0  0  0  0
 33 35  1  0  0  0  0
 33 43  1  0  0  0  0
 34 44  1  0  0  0  0
 34 33  1  0  0  0  0
 35 47  1  6  0  0  0
 35 37  1  0  0  0  0
 35 36  1  0  0  0  0
 36 48  1  0  0  0  0
 37 39  1  0  0  0  0
 38 37  2  0  0  0  0
 40 32  1  0  0  0  0
 41 32  1  0  0  0  0
 45 34  1  0  0  0  0
 46 34  1  0  0  0  0
M  END
$$$$
