NEW.pdb
 OpenBabel07022418093D

 56 57  0  0  1  0  0  0  0  0999 V2000
   -1.1110   -1.2400    3.8550 N   0  0  0  0  0  0  0  0  0  0  0  0
   -0.5670   -2.2780    3.0920 C   0  0  0  0  0  0  0  0  0  0  0  0
   -1.3540   -3.2080    2.7390 O   0  0  0  0  0  0  0  0  0  0  0  0
    0.8340   -2.3950    2.6570 C   0  0  0  0  0  0  0  0  0  0  0  0
    1.6840   -1.2350    3.1160 C   0  0  2  0  0  0  0  0  0  0  0  0
    1.7260   -1.0970    4.5370 N   0  0  0  0  0  0  0  0  0  0  0  0
    1.3040    0.0340    2.4690 C   0  0  0  0  0  0  0  0  0  0  0  0
    1.0580    1.0440    3.1980 O   0  0  0  0  0  0  0  0  0  0  0  0
   -1.3470   -1.3650    4.8840 H   0  0  0  0  0  0  0  0  0  0  0  0
   -1.3150   -0.3030    3.4760 H   0  0  0  0  0  0  0  0  0  0  0  0
    1.2570   -3.3040    3.1380 H   0  0  0  0  0  0  0  0  0  0  0  0
    0.9460   -2.4650    1.5670 H   0  0  0  0  0  0  0  0  0  0  0  0
    2.7230   -1.4650    2.7760 H   0  0  0  0  0  0  0  0  0  0  0  0
    2.4910   -1.5650    5.0250 H   0  0  0  0  0  0  0  0  0  0  0  0
    1.3680   -0.2220    4.9250 H   0  0  0  0  0  0  0  0  0  0  0  0
    1.1910    0.2180    1.0830 N   0  0  0  0  0  0  0  0  0  0  0  0
    0.8070    1.5020    0.4900 C   0  0  1  0  0  0  0  0  0  0  0  0
    1.7650    1.9380   -0.5420 C   0  0  0  0  0  0  0  0  0  0  0  0
    1.4200    3.2530   -1.1560 C   0  0  0  0  0  0  0  0  0  0  0  0
    1.4280    4.3120   -0.1270 C   0  0  0  0  0  0  0  0  0  0  0  0
    1.7660    4.1530    1.0620 O   0  0  0  0  0  0  0  0  0  0  0  0
   -0.5270    1.2210   -0.1490 C   0  0  0  0  0  0  0  0  0  0  0  0
   -1.1710    2.1270   -0.7160 O   0  0  0  0  0  0  0  0  0  0  0  0
    1.0310    5.6190   -0.4740 O   0  0  0  0  0  0  0  0  0  0  0  0
    1.3830   -0.5610    0.4470 H   0  0  0  0  0  0  0  0  0  0  0  0
    0.6260    2.2620    1.2360 H   0  0  0  0  0  0  0  0  0  0  0  0
    1.7520    1.1870   -1.3730 H   0  0  0  0  0  0  0  0  0  0  0  0
    2.8160    2.0530   -0.1510 H   0  0  0  0  0  0  0  0  0  0  0  0
    2.2290    3.5200   -1.9400 H   0  0  0  0  0  0  0  0  0  0  0  0
    0.4450    3.2890   -1.6880 H   0  0  0  0  0  0  0  0  0  0  0  0
    0.5380    6.2180    0.1770 H   0  0  0  0  0  0  0  0  0  0  0  0
   -1.1260   -0.0690   -0.1460 N   0  0  0  0  0  0  0  0  0  0  0  0
   -2.4040   -0.2860   -0.7720 C   0  0  1  0  0  0  0  0  0  0  0  0
   -2.3960   -1.1950   -1.9510 C   0  0  0  0  0  0  0  0  0  0  0  0
   -1.9220   -2.5540   -1.7080 C   0  0  0  0  0  0  0  0  0  0  0  0
   -2.6810   -3.7120   -1.4780 C   0  0  0  0  0  0  0  0  0  0  0  0
   -1.8540   -4.7380   -1.2800 N   0  0  0  0  0  0  0  0  0  0  0  0
   -0.5500   -4.3290   -1.3640 C   0  0  0  0  0  0  0  0  0  0  0  0
    0.6320   -5.0270   -1.2390 C   0  0  0  0  0  0  0  0  0  0  0  0
    1.8310   -4.3730   -1.3790 C   0  0  0  0  0  0  0  0  0  0  0  0
    1.7940   -3.0210   -1.6460 C   0  0  0  0  0  0  0  0  0  0  0  0
    0.6140   -2.3240   -1.7710 C   0  0  0  0  0  0  0  0  0  0  0  0
   -0.6150   -2.9730   -1.6300 C   0  0  0  0  0  0  0  0  0  0  0  0
   -3.4370   -0.6730    0.2360 C   0  0  0  0  0  0  0  0  0  0  0  0
   -3.0820   -0.7630    1.4300 O   0  0  0  0  0  0  0  0  0  0  0  0
   -4.7320   -0.9220   -0.1390 O   0  0  0  0  0  0  0  0  0  0  0  0
   -0.6140   -0.8350    0.3280 H   0  0  0  0  0  0  0  0  0  0  0  0
   -2.7780    0.7150   -1.1600 H   0  0  0  0  0  0  0  0  0  0  0  0
   -3.4050   -1.1570   -2.4260 H   0  0  0  0  0  0  0  0  0  0  0  0
   -1.7170   -0.7230   -2.7170 H   0  0  0  0  0  0  0  0  0  0  0  0
   -3.7630   -3.6630   -1.4860 H   0  0  0  0  0  0  0  0  0  0  0  0
   -2.1600   -5.7040   -1.0890 H   0  0  0  0  0  0  0  0  0  0  0  0
    0.6400   -6.0830   -1.0300 H   0  0  0  0  0  0  0  0  0  0  0  0
    2.7920   -4.9070   -1.2840 H   0  0  0  0  0  0  0  0  0  0  0  0
    2.7320   -2.4700   -1.7650 H   0  0  0  0  0  0  0  0  0  0  0  0
    0.5760   -1.2640   -1.9830 H   0  0  0  0  0  0  0  0  0  0  0  0
  1  9  1  0  0  0  0
  2  1  1  0  0  0  0
  3  2  2  0  0  0  0
  4  2  1  0  0  0  0
  4  5  1  0  0  0  0
  4 11  1  0  0  0  0
  5 13  1  6  0  0  0
  5  6  1  0  0  0  0
  6 15  1  0  0  0  0
  6 14  1  0  0  0  0
  7  5  1  0  0  0  0
  7  8  2  0  0  0  0
 10  1  1  0  0  0  0
 12  4  1  0  0  0  0
 16  7  1  0  0  0  0
 17 16  1  0  0  0  0
 17 26  1  1  0  0  0
 18 28  1  0  0  0  0
 18 17  1  0  0  0  0
 19 18  1  0  0  0  0
 19 20  1  0  0  0  0
 20 21  2  0  0  0  0
 22 32  1  0  0  0  0
 22 17  1  0  0  0  0
 23 22  2  0  0  0  0
 24 20  1  0  0  0  0
 24 31  1  0  0  0  0
 25 16  1  0  0  0  0
 27 18  1  0  0  0  0
 29 19  1  0  0  0  0
 30 19  1  0  0  0  0
 32 47  1  0  0  0  0
 33 48  1  6  0  0  0
 33 32  1  0  0  0  0
 33 44  1  0  0  0  0
 34 35  1  0  0  0  0
 34 33  1  0  0  0  0
 35 43  1  0  0  0  0
 35 36  2  0  0  0  0
 36 37  1  0  0  0  0
 37 52  1  0  0  0  0
 38 37  1  0  0  0  0
 38 39  1  0  0  0  0
 39 53  1  0  0  0  0
 40 54  1  0  0  0  0
 40 39  2  0  0  0  0
 41 40  1  0  0  0  0
 42 41  2  0  0  0  0
 42 43  1  0  0  0  0
 43 38  2  0  0  0  0
 44 45  1  0  0  0  0
 46 44  2  0  0  0  0
 49 34  1  0  0  0  0
 50 34  1  0  0  0  0
 51 36  1  0  0  0  0
 55 41  1  0  0  0  0
 56 42  1  0  0  0  0
M  END
$$$$
