NFA.pdb
 OpenBabel07022418103D

 46 46  0  0  1  0  0  0  0  0999 V2000
    2.4120   -5.8740    2.2530 N   0  0  0  0  0  0  0  0  0  0  0  0
    2.7010   -4.5860    1.7250 C   0  0  0  0  0  0  0  0  0  0  0  0
    3.2380   -3.7600    2.4700 O   0  0  0  0  0  0  0  0  0  0  0  0
    2.3440   -4.3110    0.3200 C   0  0  0  0  0  0  0  0  0  0  0  0
    0.9700   -3.7310    0.1670 C   0  0  2  0  0  0  0  0  0  0  0  0
    0.6810   -3.4860   -1.2380 N   0  0  0  0  0  0  0  0  0  0  0  0
    0.8690   -2.4660    0.9530 C   0  0  0  0  0  0  0  0  0  0  0  0
    1.0210   -2.4320    2.1980 O   0  0  0  0  0  0  0  0  0  0  0  0
    1.5160   -6.0860    2.7290 H   0  0  0  0  0  0  0  0  0  0  0  0
    3.1090   -6.6440    2.1700 H   0  0  0  0  0  0  0  0  0  0  0  0
    3.1070   -3.5920   -0.0670 H   0  0  0  0  0  0  0  0  0  0  0  0
    2.4080   -5.2440   -0.3030 H   0  0  0  0  0  0  0  0  0  0  0  0
    0.2320   -4.4920    0.5190 H   0  0  0  0  0  0  0  0  0  0  0  0
   -0.3450   -3.5690   -1.4280 H   0  0  0  0  0  0  0  0  0  0  0  0
    1.2620   -4.0780   -1.8710 H   0  0  0  0  0  0  0  0  0  0  0  0
    0.5940   -1.2150    0.3350 N   0  0  0  0  0  0  0  0  0  0  0  0
    0.4870    0.0440    1.0610 C   0  0  1  0  0  0  0  0  0  0  0  0
    1.5510    1.0160    0.6150 C   0  0  0  0  0  0  0  0  0  0  0  0
    1.4600    2.3010    1.3370 C   0  0  0  0  0  0  0  0  0  0  0  0
    0.7590    3.4000    0.8910 C   0  0  0  0  0  0  0  0  0  0  0  0
    0.7080    4.5900    1.6270 C   0  0  0  0  0  0  0  0  0  0  0  0
    1.3660    4.6900    2.8300 C   0  0  0  0  0  0  0  0  0  0  0  0
    2.0730    3.5940    3.2880 C   0  0  0  0  0  0  0  0  0  0  0  0
    2.1140    2.4380    2.5590 C   0  0  0  0  0  0  0  0  0  0  0  0
   -0.8780    0.6000    0.9170 C   0  0  0  0  0  0  0  0  0  0  0  0
   -1.2710    1.6580    1.4670 O   0  0  0  0  0  0  0  0  0  0  0  0
    0.4630   -1.2090   -0.6970 H   0  0  0  0  0  0  0  0  0  0  0  0
    0.6520   -0.1170    2.1580 H   0  0  0  0  0  0  0  0  0  0  0  0
    1.5390    1.1730   -0.4880 H   0  0  0  0  0  0  0  0  0  0  0  0
    2.5500    0.5710    0.8300 H   0  0  0  0  0  0  0  0  0  0  0  0
    0.2420    3.3420   -0.0500 H   0  0  0  0  0  0  0  0  0  0  0  0
    0.1620    5.4530    1.2840 H   0  0  0  0  0  0  0  0  0  0  0  0
    1.3330    5.6060    3.4080 H   0  0  0  0  0  0  0  0  0  0  0  0
    2.5770    3.7210    4.2440 H   0  0  0  0  0  0  0  0  0  0  0  0
    2.6620    1.6070    2.9270 H   0  0  0  0  0  0  0  0  0  0  0  0
   -3.5430    0.7250   -1.4970 C   0  0  0  0  0  0  0  0  0  0  0  0
   -3.1950    0.4420   -0.0540 C   0  0  2  0  0  0  0  0  0  0  0  0
   -1.8730   -0.0590    0.1100 N   0  0  0  0  0  0  0  0  0  0  0  0
   -4.1690   -0.5160    0.5100 C   0  0  0  0  0  0  0  0  0  0  0  0
   -5.4080   -0.3200    0.4970 O   0  0  0  0  0  0  0  0  0  0  0  0
   -3.7030   -1.6870    1.0790 O   0  0  0  0  0  0  0  0  0  0  0  0
   -4.6510    0.6820   -1.5690 H   0  0  0  0  0  0  0  0  0  0  0  0
   -3.1390   -0.0360   -2.1820 H   0  0  0  0  0  0  0  0  0  0  0  0
   -3.2540    1.7600   -1.7520 H   0  0  0  0  0  0  0  0  0  0  0  0
   -3.2920    1.3840    0.5300 H   0  0  0  0  0  0  0  0  0  0  0  0
   -1.5930   -0.9340   -0.3610 H   0  0  0  0  0  0  0  0  0  0  0  0
  1  9  1  0  0  0  0
  2  1  1  0  0  0  0
  2  3  2  0  0  0  0
  4  2  1  0  0  0  0
  5  4  1  0  0  0  0
  5 13  1  1  0  0  0
  5  7  1  0  0  0  0
  6  5  1  0  0  0  0
  7  8  2  0  0  0  0
 10  1  1  0  0  0  0
 11  4  1  0  0  0  0
 12  4  1  0  0  0  0
 14  6  1  0  0  0  0
 15  6  1  0  0  0  0
 16  7  1  0  0  0  0
 16 17  1  0  0  0  0
 17 28  1  1  0  0  0
 18 30  1  0  0  0  0
 18 17  1  0  0  0  0
 18 19  1  0  0  0  0
 19 24  1  0  0  0  0
 20 19  2  0  0  0  0
 20 21  1  0  0  0  0
 21 22  2  0  0  0  0
 22 23  1  0  0  0  0
 22 33  1  0  0  0  0
 23 34  1  0  0  0  0
 24 35  1  0  0  0  0
 24 23  2  0  0  0  0
 25 17  1  0  0  0  0
 25 26  2  0  0  0  0
 27 16  1  0  0  0  0
 29 18  1  0  0  0  0
 31 20  1  0  0  0  0
 32 21  1  0  0  0  0
 36 37  1  0  0  0  0
 37 38  1  0  0  0  0
 37 39  1  0  0  0  0
 37 45  1  1  0  0  0
 38 25  1  0  0  0  0
 39 41  1  0  0  0  0
 40 39  2  0  0  0  0
 42 36  1  0  0  0  0
 43 36  1  0  0  0  0
 44 36  1  0  0  0  0
 46 38  1  0  0  0  0
M  END
$$$$
