NFD.pdb
 OpenBabel07022418103D

 49 49  0  0  1  0  0  0  0  0999 V2000
    1.0990   -3.5670    1.5790 N   0  0  0  0  0  0  0  0  0  0  0  0
    2.4170   -3.0120    1.7740 C   0  0  0  0  0  0  0  0  0  0  0  0
    2.9970   -3.2850    2.8420 O   0  0  0  0  0  0  0  0  0  0  0  0
    3.0640   -2.1580    0.7580 C   0  0  0  0  0  0  0  0  0  0  0  0
    2.9980   -0.6950    1.2150 C   0  0  2  0  0  0  0  0  0  0  0  0
    3.7080   -0.6900    2.4960 N   0  0  0  0  0  0  0  0  0  0  0  0
    1.5970   -0.2910    1.4640 C   0  0  0  0  0  0  0  0  0  0  0  0
    1.1430   -0.1150    2.6540 O   0  0  0  0  0  0  0  0  0  0  0  0
    0.9360   -4.6000    1.6260 H   0  0  0  0  0  0  0  0  0  0  0  0
    0.2780   -2.9560    1.3940 H   0  0  0  0  0  0  0  0  0  0  0  0
    2.4970   -2.2460   -0.1730 H   0  0  0  0  0  0  0  0  0  0  0  0
    4.1050   -2.4530    0.5550 H   0  0  0  0  0  0  0  0  0  0  0  0
    3.5370   -0.0190    0.5480 H   0  0  0  0  0  0  0  0  0  0  0  0
    2.9800   -0.8250    3.2320 H   0  0  0  0  0  0  0  0  0  0  0  0
    4.4020   -1.4410    2.5350 H   0  0  0  0  0  0  0  0  0  0  0  0
    0.6390   -0.0610    0.4190 N   0  0  0  0  0  0  0  0  0  0  0  0
   -0.7250    0.3350    0.7230 C   0  0  1  0  0  0  0  0  0  0  0  0
   -1.0090    1.7280    0.1660 C   0  0  0  0  0  0  0  0  0  0  0  0
   -0.0510    2.6890    0.7780 C   0  0  0  0  0  0  0  0  0  0  0  0
    1.1710    2.9560    0.1980 C   0  0  0  0  0  0  0  0  0  0  0  0
    2.0570    3.8420    0.7680 C   0  0  0  0  0  0  0  0  0  0  0  0
    1.7650    4.4990    1.9370 C   0  0  0  0  0  0  0  0  0  0  0  0
    0.5470    4.2450    2.5300 C   0  0  0  0  0  0  0  0  0  0  0  0
   -0.3320    3.3570    1.9530 C   0  0  0  0  0  0  0  0  0  0  0  0
   -1.6270   -0.6840    0.1220 C   0  0  0  0  0  0  0  0  0  0  0  0
   -2.8470   -0.5030    0.3010 O   0  0  0  0  0  0  0  0  0  0  0  0
    1.0100   -0.1930   -0.5440 H   0  0  0  0  0  0  0  0  0  0  0  0
   -0.8940    0.4070    1.8200 H   0  0  0  0  0  0  0  0  0  0  0  0
   -0.8500    1.6680   -0.9290 H   0  0  0  0  0  0  0  0  0  0  0  0
   -2.0430    2.0180    0.3350 H   0  0  0  0  0  0  0  0  0  0  0  0
    1.3980    2.4290   -0.7360 H   0  0  0  0  0  0  0  0  0  0  0  0
    3.0080    4.0280    0.2840 H   0  0  0  0  0  0  0  0  0  0  0  0
    2.4800    5.2060    2.3910 H   0  0  0  0  0  0  0  0  0  0  0  0
    0.3200    4.7580    3.4450 H   0  0  0  0  0  0  0  0  0  0  0  0
   -1.3060    3.1530    2.4200 H   0  0  0  0  0  0  0  0  0  0  0  0
   -1.1780   -1.7870   -0.6060 N   0  0  0  0  0  0  0  0  0  0  0  0
   -1.8710   -2.8530   -1.2320 C   0  0  1  0  0  0  0  0  0  0  0  0
   -3.2230   -3.1520   -0.5670 C   0  0  0  0  0  0  0  0  0  0  0  0
   -3.0930   -3.5730    0.8350 C   0  0  0  0  0  0  0  0  0  0  0  0
   -2.4370   -3.0350    1.7480 O   0  0  0  0  0  0  0  0  0  0  0  0
   -1.9770   -2.7970   -2.6800 C   0  0  0  0  0  0  0  0  0  0  0  0
   -2.5640   -3.6910   -3.3180 O   0  0  0  0  0  0  0  0  0  0  0  0
   -3.7980   -4.7540    1.2230 O   0  0  0  0  0  0  0  0  0  0  0  0
   -1.4280   -1.7420   -3.3810 O   0  0  0  0  0  0  0  0  0  0  0  0
   -0.1050   -1.8400   -0.6980 H   0  0  0  0  0  0  0  0  0  0  0  0
   -1.2910   -3.8020   -0.8680 H   0  0  0  0  0  0  0  0  0  0  0  0
   -3.9030   -2.2810   -0.6140 H   0  0  0  0  0  0  0  0  0  0  0  0
   -3.7390   -3.9440   -1.1770 H   0  0  0  0  0  0  0  0  0  0  0  0
   -3.4150   -5.2930    2.0230 H   0  0  0  0  0  0  0  0  0  0  0  0
  1  9  1  0  0  0  0
  1  2  1  0  0  0  0
  2  3  2  0  0  0  0
  4  5  1  0  0  0  0
  4  2  1  0  0  0  0
  5 13  1  6  0  0  0
  5  7  1  0  0  0  0
  5  6  1  0  0  0  0
  6 15  1  0  0  0  0
  6 14  1  0  0  0  0
  7  8  2  0  0  0  0
 10  1  1  0  0  0  0
 11  4  1  0  0  0  0
 12  4  1  0  0  0  0
 16 17  1  0  0  0  0
 16  7  1  0  0  0  0
 17 28  1  1  0  0  0
 18 30  1  0  0  0  0
 18 17  1  0  0  0  0
 18 19  1  0  0  0  0
 19 24  1  0  0  0  0
 20 21  1  0  0  0  0
 20 19  2  0  0  0  0
 21 22  2  0  0  0  0
 22 33  1  0  0  0  0
 22 23  1  0  0  0  0
 23 34  1  0  0  0  0
 24 35  1  0  0  0  0
 24 23  2  0  0  0  0
 25 26  2  0  0  0  0
 25 17  1  0  0  0  0
 27 16  1  0  0  0  0
 29 18  1  0  0  0  0
 31 20  1  0  0  0  0
 32 21  1  0  0  0  0
 36 25  1  0  0  0  0
 37 46  1  1  0  0  0
 37 36  1  0  0  0  0
 37 38  1  0  0  0  0
 38 39  1  0  0  0  0
 39 43  1  0  0  0  0
 39 40  2  0  0  0  0
 41 37  1  0  0  0  0
 42 41  1  0  0  0  0
 43 49  1  0  0  0  0
 44 41  2  0  0  0  0
 45 36  1  0  0  0  0
 47 38  1  0  0  0  0
 48 38  1  0  0  0  0
M  END
$$$$
