NFH.pdb
 OpenBabel07022418113D

 53 54  0  0  1  0  0  0  0  0999 V2000
    2.7640   -2.9070    1.3260 N   0  0  0  0  0  0  0  0  0  0  0  0
    3.8490   -2.2480    1.9650 C   0  0  0  0  0  0  0  0  0  0  0  0
    4.5020   -2.9000    2.8480 O   0  0  0  0  0  0  0  0  0  0  0  0
    4.2540   -0.8530    1.6560 C   0  0  0  0  0  0  0  0  0  0  0  0
    3.7840    0.0090    2.8300 C   0  0  2  0  0  0  0  0  0  0  0  0
    4.4380   -0.4970    4.0030 N   0  0  0  0  0  0  0  0  0  0  0  0
    2.3010   -0.1450    2.9100 C   0  0  0  0  0  0  0  0  0  0  0  0
    1.7560   -0.6770    3.9250 O   0  0  0  0  0  0  0  0  0  0  0  0
    2.5670   -2.7220    0.3190 H   0  0  0  0  0  0  0  0  0  0  0  0
    2.1390   -3.5790    1.8070 H   0  0  0  0  0  0  0  0  0  0  0  0
    5.3560   -0.7980    1.5430 H   0  0  0  0  0  0  0  0  0  0  0  0
    3.7620   -0.5270    0.7080 H   0  0  0  0  0  0  0  0  0  0  0  0
    4.0350    1.0720    2.6720 H   0  0  0  0  0  0  0  0  0  0  0  0
    3.8980   -1.2590    4.4840 H   0  0  0  0  0  0  0  0  0  0  0  0
    5.3930   -0.8790    3.8170 H   0  0  0  0  0  0  0  0  0  0  0  0
    1.4430    0.2900    1.8700 N   0  0  0  0  0  0  0  0  0  0  0  0
    0.0070    0.1630    1.9030 C   0  0  1  0  0  0  0  0  0  0  0  0
   -0.5930    1.5370    2.0110 C   0  0  0  0  0  0  0  0  0  0  0  0
   -0.2580    2.4360    0.9140 C   0  0  0  0  0  0  0  0  0  0  0  0
    0.8510    3.2490    0.9310 C   0  0  0  0  0  0  0  0  0  0  0  0
    1.1360    4.0980   -0.1400 C   0  0  0  0  0  0  0  0  0  0  0  0
    0.3130    4.1450   -1.2410 C   0  0  0  0  0  0  0  0  0  0  0  0
   -0.7970    3.3350   -1.2620 C   0  0  0  0  0  0  0  0  0  0  0  0
   -1.0570    2.5100   -0.2010 C   0  0  0  0  0  0  0  0  0  0  0  0
   -0.4840   -0.6540    0.7990 C   0  0  0  0  0  0  0  0  0  0  0  0
    0.3670   -1.1120   -0.0370 O   0  0  0  0  0  0  0  0  0  0  0  0
    1.8930    0.7290    1.0320 H   0  0  0  0  0  0  0  0  0  0  0  0
   -0.2300   -0.3440    2.8860 H   0  0  0  0  0  0  0  0  0  0  0  0
   -0.2500    1.9510    2.9960 H   0  0  0  0  0  0  0  0  0  0  0  0
   -1.7080    1.4140    2.1510 H   0  0  0  0  0  0  0  0  0  0  0  0
    1.5250    3.2560    1.7550 H   0  0  0  0  0  0  0  0  0  0  0  0
    2.0060    4.7360   -0.1280 H   0  0  0  0  0  0  0  0  0  0  0  0
    0.5340    4.8160   -2.0900 H   0  0  0  0  0  0  0  0  0  0  0  0
   -1.4780    3.3410   -2.1180 H   0  0  0  0  0  0  0  0  0  0  0  0
   -1.9320    1.8790   -0.2280 H   0  0  0  0  0  0  0  0  0  0  0  0
   -1.8280   -1.0030    0.5490 N   0  0  0  0  0  0  0  0  0  0  0  0
   -2.2510   -1.8230   -0.5690 C   0  0  1  0  0  0  0  0  0  0  0  0
   -2.8520   -3.0780    0.0560 C   0  0  0  0  0  0  0  0  0  0  0  0
   -3.3400   -4.0360   -0.9660 C   0  0  0  0  0  0  0  0  0  0  0  0
   -2.6110   -5.0490   -1.5520 C   0  0  0  0  0  0  0  0  0  0  0  0
   -3.3910   -5.7120   -2.4350 N   0  0  0  0  0  0  0  0  0  0  0  0
   -4.6080   -5.1340   -2.4180 C   0  0  0  0  0  0  0  0  0  0  0  0
   -4.5730   -4.1220   -1.5280 N   0  0  0  0  0  0  0  0  0  0  0  0
   -3.2880   -1.1730   -1.3860 C   0  0  0  0  0  0  0  0  0  0  0  0
   -3.7030   -0.0350   -1.0550 O   0  0  0  0  0  0  0  0  0  0  0  0
   -3.8460   -1.7480   -2.5170 O   0  0  0  0  0  0  0  0  0  0  0  0
   -2.5540   -0.6490    1.2060 H   0  0  0  0  0  0  0  0  0  0  0  0
   -1.4070   -2.0990   -1.2270 H   0  0  0  0  0  0  0  0  0  0  0  0
   -2.0700   -3.5150    0.6860 H   0  0  0  0  0  0  0  0  0  0  0  0
   -3.6850   -2.7190    0.7160 H   0  0  0  0  0  0  0  0  0  0  0  0
   -1.5620   -5.3060   -1.3600 H   0  0  0  0  0  0  0  0  0  0  0  0
   -3.1090   -6.5240   -3.0260 H   0  0  0  0  0  0  0  0  0  0  0  0
   -5.4280   -5.4720   -3.0370 H   0  0  0  0  0  0  0  0  0  0  0  0
  1 10  1  0  0  0  0
  1  2  1  0  0  0  0
  2  3  2  0  0  0  0
  4  2  1  0  0  0  0
  4  5  1  0  0  0  0
  5 13  1  6  0  0  0
  5  7  1  0  0  0  0
  5  6  1  0  0  0  0
  6 14  1  0  0  0  0
  7  8  2  0  0  0  0
  9  1  1  0  0  0  0
 11  4  1  0  0  0  0
 12  4  1  0  0  0  0
 15  6  1  0  0  0  0
 16 17  1  0  0  0  0
 16  7  1  0  0  0  0
 17 18  1  0  0  0  0
 17 28  1  1  0  0  0
 18 30  1  0  0  0  0
 18 29  1  0  0  0  0
 19 20  1  0  0  0  0
 19 18  1  0  0  0  0
 20 31  1  0  0  0  0
 21 32  1  0  0  0  0
 21 20  2  0  0  0  0
 22 21  1  0  0  0  0
 23 22  2  0  0  0  0
 23 24  1  0  0  0  0
 24 19  2  0  0  0  0
 25 17  1  0  0  0  0
 26 25  2  0  0  0  0
 27 16  1  0  0  0  0
 33 22  1  0  0  0  0
 34 23  1  0  0  0  0
 35 24  1  0  0  0  0
 36 25  1  0  0  0  0
 36 47  1  0  0  0  0
 37 48  1  6  0  0  0
 37 38  1  0  0  0  0
 37 36  1  0  0  0  0
 38 49  1  0  0  0  0
 38 50  1  0  0  0  0
 39 38  1  0  0  0  0
 40 51  1  0  0  0  0
 40 39  2  0  0  0  0
 41 42  1  0  0  0  0
 41 40  1  0  0  0  0
 42 43  2  0  0  0  0
 43 39  1  0  0  0  0
 44 45  1  0  0  0  0
 44 37  1  0  0  0  0
 46 44  2  0  0  0  0
 52 41  1  0  0  0  0
 53 42  1  0  0  0  0
M  END
$$$$
