NFI.pdb
 OpenBabel07022418113D

 55 55  0  0  1  0  0  0  0  0999 V2000
    1.8200   -3.9370    1.9100 N   0  0  0  0  0  0  0  0  0  0  0  0
    2.6950   -3.2620    2.7920 C   0  0  0  0  0  0  0  0  0  0  0  0
    2.7920   -3.7140    3.9610 O   0  0  0  0  0  0  0  0  0  0  0  0
    3.4760   -2.0860    2.4080 C   0  0  0  0  0  0  0  0  0  0  0  0
    2.9360   -0.7840    2.9040 C   0  0  2  0  0  0  0  0  0  0  0  0
    2.8480   -0.6930    4.3440 N   0  0  0  0  0  0  0  0  0  0  0  0
    1.6360   -0.4160    2.2440 C   0  0  0  0  0  0  0  0  0  0  0  0
    0.6300   -0.0590    2.9070 O   0  0  0  0  0  0  0  0  0  0  0  0
    0.9210   -4.2900    2.2760 H   0  0  0  0  0  0  0  0  0  0  0  0
    2.0580   -4.0830    0.9170 H   0  0  0  0  0  0  0  0  0  0  0  0
    3.5470   -2.0610    1.2980 H   0  0  0  0  0  0  0  0  0  0  0  0
    4.5040   -2.1960    2.8140 H   0  0  0  0  0  0  0  0  0  0  0  0
    3.6880    0.0030    2.5980 H   0  0  0  0  0  0  0  0  0  0  0  0
    1.9750   -0.3040    4.7100 H   0  0  0  0  0  0  0  0  0  0  0  0
    3.7180   -0.4220    4.8100 H   0  0  0  0  0  0  0  0  0  0  0  0
    1.4910   -0.4590    0.8350 N   0  0  0  0  0  0  0  0  0  0  0  0
    0.2220   -0.0960    0.2430 C   0  0  1  0  0  0  0  0  0  0  0  0
    0.4490    1.0520   -0.7280 C   0  0  0  0  0  0  0  0  0  0  0  0
    1.0080    2.1780    0.0270 C   0  0  0  0  0  0  0  0  0  0  0  0
    2.3650    2.3150    0.1590 C   0  0  0  0  0  0  0  0  0  0  0  0
    2.9290    3.3730    0.8720 C   0  0  0  0  0  0  0  0  0  0  0  0
    2.0650    4.2940    1.4520 C   0  0  0  0  0  0  0  0  0  0  0  0
    0.6980    4.1800    1.3340 C   0  0  0  0  0  0  0  0  0  0  0  0
    0.1860    3.1060    0.6120 C   0  0  0  0  0  0  0  0  0  0  0  0
   -0.2650   -1.3210   -0.4580 C   0  0  0  0  0  0  0  0  0  0  0  0
    0.3690   -2.4060   -0.4760 O   0  0  0  0  0  0  0  0  0  0  0  0
    2.2640   -0.7420    0.2010 H   0  0  0  0  0  0  0  0  0  0  0  0
   -0.5110    0.2300    1.0160 H   0  0  0  0  0  0  0  0  0  0  0  0
   -0.4870    1.3240   -1.2470 H   0  0  0  0  0  0  0  0  0  0  0  0
    1.1730    0.7240   -1.5150 H   0  0  0  0  0  0  0  0  0  0  0  0
    3.0240    1.5980   -0.2920 H   0  0  0  0  0  0  0  0  0  0  0  0
    3.9950    3.4360    0.9470 H   0  0  0  0  0  0  0  0  0  0  0  0
    2.5280    5.1010    1.9970 H   0  0  0  0  0  0  0  0  0  0  0  0
    0.0770    4.9170    1.8000 H   0  0  0  0  0  0  0  0  0  0  0  0
   -0.8980    3.0550    0.5450 H   0  0  0  0  0  0  0  0  0  0  0  0
   -4.4260   -0.9400   -0.1740 C   0  0  0  0  0  0  0  0  0  0  0  0
   -4.5190   -2.0850   -1.1130 C   0  0  0  0  0  0  0  0  0  0  0  0
   -3.3180   -2.9380   -1.2610 C   0  0  2  0  0  0  0  0  0  0  0  0
   -2.9640   -3.5250    0.1090 C   0  0  0  0  0  0  0  0  0  0  0  0
   -2.0940   -2.3330   -1.8400 C   0  0  2  0  0  0  0  0  0  0  0  0
   -1.5340   -1.2220   -1.1410 N   0  0  0  0  0  0  0  0  0  0  0  0
   -2.2100   -2.0660   -3.3040 C   0  0  0  0  0  0  0  0  0  0  0  0
   -1.8220   -0.9460   -3.7170 O   0  0  0  0  0  0  0  0  0  0  0  0
   -2.7140   -2.9770   -4.2100 O   0  0  0  0  0  0  0  0  0  0  0  0
   -5.3960   -0.8280    0.3890 H   0  0  0  0  0  0  0  0  0  0  0  0
   -3.5720   -0.9780    0.5360 H   0  0  0  0  0  0  0  0  0  0  0  0
   -4.3440    0.0030   -0.7490 H   0  0  0  0  0  0  0  0  0  0  0  0
   -5.3470   -2.7580   -0.7280 H   0  0  0  0  0  0  0  0  0  0  0  0
   -4.9280   -1.7080   -2.0760 H   0  0  0  0  0  0  0  0  0  0  0  0
   -3.5670   -3.8290   -1.9180 H   0  0  0  0  0  0  0  0  0  0  0  0
   -2.3540   -4.4420   -0.1210 H   0  0  0  0  0  0  0  0  0  0  0  0
   -2.2590   -2.8370    0.6250 H   0  0  0  0  0  0  0  0  0  0  0  0
   -3.8480   -3.7510    0.7110 H   0  0  0  0  0  0  0  0  0  0  0  0
   -1.3030   -3.1560   -1.7870 H   0  0  0  0  0  0  0  0  0  0  0  0
   -2.0280   -0.2840   -1.1090 H   0  0  0  0  0  0  0  0  0  0  0  0
  1  9  1  0  0  0  0
  1  2  1  0  0  0  0
  2  3  2  0  0  0  0
  4  2  1  0  0  0  0
  4 12  1  0  0  0  0
  4  5  1  0  0  0  0
  5 13  1  6  0  0  0
  5  6  1  0  0  0  0
  6 14  1  0  0  0  0
  6 15  1  0  0  0  0
  7  5  1  0  0  0  0
  7  8  2  0  0  0  0
 10  1  1  0  0  0  0
 11  4  1  0  0  0  0
 16  7  1  0  0  0  0
 17 16  1  0  0  0  0
 17 28  1  1  0  0  0
 18 19  1  0  0  0  0
 18 17  1  0  0  0  0
 19 20  2  0  0  0  0
 19 24  1  0  0  0  0
 20 21  1  0  0  0  0
 21 32  1  0  0  0  0
 21 22  2  0  0  0  0
 22 33  1  0  0  0  0
 23 22  1  0  0  0  0
 23 34  1  0  0  0  0
 24 23  2  0  0  0  0
 25 17  1  0  0  0  0
 26 25  2  0  0  0  0
 27 16  1  0  0  0  0
 29 18  1  0  0  0  0
 30 18  1  0  0  0  0
 31 20  1  0  0  0  0
 35 24  1  0  0  0  0
 36 45  1  0  0  0  0
 36 46  1  0  0  0  0
 37 48  1  0  0  0  0
 37 36  1  0  0  0  0
 38 50  1  6  0  0  0
 38 37  1  0  0  0  0
 38 39  1  0  0  0  0
 39 52  1  0  0  0  0
 39 53  1  0  0  0  0
 40 54  1  1  0  0  0
 40 38  1  0  0  0  0
 40 41  1  0  0  0  0
 41 55  1  0  0  0  0
 41 25  1  0  0  0  0
 42 40  1  0  0  0  0
 43 42  1  0  0  0  0
 44 42  2  0  0  0  0
 47 36  1  0  0  0  0
 49 37  1  0  0  0  0
 51 39  1  0  0  0  0
M  END
$$$$
