NFK.pdb
 OpenBabel07022418113D

 57 57  0  0  1  0  0  0  0  0999 V2000
    2.9450   -5.3360    0.0220 N   0  0  0  0  0  0  0  0  0  0  0  0
    3.4970   -4.0780    0.3620 C   0  0  0  0  0  0  0  0  0  0  0  0
    3.6560   -3.8390    1.5870 O   0  0  0  0  0  0  0  0  0  0  0  0
    3.8650   -3.1040   -0.6650 C   0  0  0  0  0  0  0  0  0  0  0  0
    4.4340   -1.8280   -0.1110 C   0  0  2  0  0  0  0  0  0  0  0  0
    5.6230   -2.1700    0.6390 N   0  0  0  0  0  0  0  0  0  0  0  0
    3.4630   -1.0670    0.7000 C   0  0  0  0  0  0  0  0  0  0  0  0
    3.7720   -0.8190    1.8930 O   0  0  0  0  0  0  0  0  0  0  0  0
    2.1590   -5.6950    0.5970 H   0  0  0  0  0  0  0  0  0  0  0  0
    3.2770   -5.9230   -0.7670 H   0  0  0  0  0  0  0  0  0  0  0  0
    3.0020   -2.8780   -1.3350 H   0  0  0  0  0  0  0  0  0  0  0  0
    4.6500   -3.5340   -1.3410 H   0  0  0  0  0  0  0  0  0  0  0  0
    4.7500   -1.2150   -0.9990 H   0  0  0  0  0  0  0  0  0  0  0  0
    5.7480   -1.5440    1.4420 H   0  0  0  0  0  0  0  0  0  0  0  0
    6.4350   -2.1360    0.0100 H   0  0  0  0  0  0  0  0  0  0  0  0
    2.2320   -0.6400    0.1380 N   0  0  0  0  0  0  0  0  0  0  0  0
    1.2700    0.1130    0.9400 C   0  0  1  0  0  0  0  0  0  0  0  0
    1.1050    1.4550    0.2550 C   0  0  0  0  0  0  0  0  0  0  0  0
    0.1550    2.3730    0.9030 C   0  0  0  0  0  0  0  0  0  0  0  0
    0.5380    3.2020    1.9340 C   0  0  0  0  0  0  0  0  0  0  0  0
   -0.3370    4.0860    2.5300 C   0  0  0  0  0  0  0  0  0  0  0  0
   -1.6510    4.1910    2.1250 C   0  0  0  0  0  0  0  0  0  0  0  0
   -2.0540    3.3700    1.0940 C   0  0  0  0  0  0  0  0  0  0  0  0
   -1.1790    2.4850    0.4980 C   0  0  0  0  0  0  0  0  0  0  0  0
   -0.0170   -0.6310    1.0280 C   0  0  0  0  0  0  0  0  0  0  0  0
   -0.1250   -1.6270    0.2910 O   0  0  0  0  0  0  0  0  0  0  0  0
    1.9710   -0.8430   -0.8500 H   0  0  0  0  0  0  0  0  0  0  0  0
    1.6240    0.2830    1.9720 H   0  0  0  0  0  0  0  0  0  0  0  0
    2.0850    2.0000    0.2240 H   0  0  0  0  0  0  0  0  0  0  0  0
    0.8160    1.3280   -0.8110 H   0  0  0  0  0  0  0  0  0  0  0  0
    1.5690    3.1320    2.2650 H   0  0  0  0  0  0  0  0  0  0  0  0
   -0.0200    4.7300    3.3380 H   0  0  0  0  0  0  0  0  0  0  0  0
   -2.3440    4.8810    2.5860 H   0  0  0  0  0  0  0  0  0  0  0  0
   -3.0950    3.4600    0.7810 H   0  0  0  0  0  0  0  0  0  0  0  0
   -1.5040    1.8510   -0.3050 H   0  0  0  0  0  0  0  0  0  0  0  0
   -1.0540   -0.2640    1.8770 N   0  0  0  0  0  0  0  0  0  0  0  0
   -2.3260   -0.9100    2.0000 C   0  0  1  0  0  0  0  0  0  0  0  0
   -2.7220   -1.7780    0.8160 C   0  0  0  0  0  0  0  0  0  0  0  0
   -2.8870   -1.0350   -0.4630 C   0  0  0  0  0  0  0  0  0  0  0  0
   -3.2500   -2.0490   -1.5420 C   0  0  0  0  0  0  0  0  0  0  0  0
   -3.4150   -1.2760   -2.8380 C   0  0  0  0  0  0  0  0  0  0  0  0
   -3.7620   -2.1420   -3.9330 N   0  0  0  0  0  0  0  0  0  0  0  0
   -2.4740   -1.6700    3.2320 C   0  0  0  0  0  0  0  0  0  0  0  0
   -3.5450   -2.2890    3.4690 O   0  0  0  0  0  0  0  0  0  0  0  0
   -1.4740   -1.7620    4.2010 O   0  0  0  0  0  0  0  0  0  0  0  0
   -0.9130    0.5630    2.5220 H   0  0  0  0  0  0  0  0  0  0  0  0
   -3.1370   -0.0960    1.9950 H   0  0  0  0  0  0  0  0  0  0  0  0
   -3.7520   -2.1670    1.1020 H   0  0  0  0  0  0  0  0  0  0  0  0
   -2.1050   -2.6900    0.7470 H   0  0  0  0  0  0  0  0  0  0  0  0
   -2.0880   -0.4170   -0.8230 H   0  0  0  0  0  0  0  0  0  0  0  0
   -3.8270   -0.3860   -0.3450 H   0  0  0  0  0  0  0  0  0  0  0  0
   -2.3920   -2.7330   -1.6860 H   0  0  0  0  0  0  0  0  0  0  0  0
   -4.1530   -2.6240   -1.2920 H   0  0  0  0  0  0  0  0  0  0  0  0
   -4.1670   -0.4670   -2.7210 H   0  0  0  0  0  0  0  0  0  0  0  0
   -2.4480   -0.7960   -3.0710 H   0  0  0  0  0  0  0  0  0  0  0  0
   -3.1830   -2.0020   -4.7820 H   0  0  0  0  0  0  0  0  0  0  0  0
   -3.7350   -3.1440   -3.6940 H   0  0  0  0  0  0  0  0  0  0  0  0
  1  2  1  0  0  0  0
  1  9  1  0  0  0  0
  2  3  2  0  0  0  0
  4  5  1  0  0  0  0
  4  2  1  0  0  0  0
  5 13  1  6  0  0  0
  5  6  1  0  0  0  0
  5  7  1  0  0  0  0
  6 14  1  0  0  0  0
  7  8  2  0  0  0  0
 10  1  1  0  0  0  0
 11  4  1  0  0  0  0
 12  4  1  0  0  0  0
 15  6  1  0  0  0  0
 16  7  1  0  0  0  0
 16 17  1  0  0  0  0
 17 25  1  0  0  0  0
 17 28  1  1  0  0  0
 18 19  1  0  0  0  0
 18 17  1  0  0  0  0
 19 20  1  0  0  0  0
 20 31  1  0  0  0  0
 20 21  2  0  0  0  0
 21 32  1  0  0  0  0
 22 21  1  0  0  0  0
 22 33  1  0  0  0  0
 23 22  2  0  0  0  0
 24 19  2  0  0  0  0
 24 23  1  0  0  0  0
 25 36  1  0  0  0  0
 26 25  2  0  0  0  0
 27 16  1  0  0  0  0
 29 18  1  0  0  0  0
 30 18  1  0  0  0  0
 34 23  1  0  0  0  0
 35 24  1  0  0  0  0
 36 37  1  0  0  0  0
 36 46  1  0  0  0  0
 37 47  1  1  0  0  0
 37 43  1  0  0  0  0
 38 48  1  0  0  0  0
 38 37  1  0  0  0  0
 39 51  1  0  0  0  0
 39 38  1  0  0  0  0
 40 53  1  0  0  0  0
 40 39  1  0  0  0  0
 41 54  1  0  0  0  0
 41 40  1  0  0  0  0
 42 57  1  0  0  0  0
 42 41  1  0  0  0  0
 43 44  2  0  0  0  0
 43 45  1  0  0  0  0
 49 38  1  0  0  0  0
 50 39  1  0  0  0  0
 52 40  1  0  0  0  0
 55 41  1  0  0  0  0
 56 42  1  0  0  0  0
M  END
$$$$
