NFL.pdb
 OpenBabel07022418113D

 55 55  0  0  1  0  0  0  0  0999 V2000
    2.7060   -2.8340    1.9100 N   0  0  0  0  0  0  0  0  0  0  0  0
    3.9080   -2.0840    2.0310 C   0  0  0  0  0  0  0  0  0  0  0  0
    4.5500   -2.1760    3.1040 O   0  0  0  0  0  0  0  0  0  0  0  0
    4.4230   -1.2070    0.9470 C   0  0  0  0  0  0  0  0  0  0  0  0
    4.0420    0.2440    1.2490 C   0  0  2  0  0  0  0  0  0  0  0  0
    4.6160    0.6330    2.4970 N   0  0  0  0  0  0  0  0  0  0  0  0
    2.5410    0.2670    1.2900 C   0  0  0  0  0  0  0  0  0  0  0  0
    1.9760    0.5980    2.3560 O   0  0  0  0  0  0  0  0  0  0  0  0
    2.6860   -3.6520    1.2740 H   0  0  0  0  0  0  0  0  0  0  0  0
    1.8620   -2.5740    2.4430 H   0  0  0  0  0  0  0  0  0  0  0  0
    5.5170   -1.3010    0.8020 H   0  0  0  0  0  0  0  0  0  0  0  0
    3.9120   -1.5460    0.0080 H   0  0  0  0  0  0  0  0  0  0  0  0
    4.4270    0.8870    0.4360 H   0  0  0  0  0  0  0  0  0  0  0  0
    3.9960    0.3400    3.2780 H   0  0  0  0  0  0  0  0  0  0  0  0
    5.5790    0.2350    2.5960 H   0  0  0  0  0  0  0  0  0  0  0  0
    1.7480   -0.0670    0.1790 N   0  0  0  0  0  0  0  0  0  0  0  0
    0.2980   -0.0640    0.1540 C   0  0  1  0  0  0  0  0  0  0  0  0
   -0.1820    1.0390   -0.7830 C   0  0  0  0  0  0  0  0  0  0  0  0
    0.3250    2.3330   -0.2760 C   0  0  0  0  0  0  0  0  0  0  0  0
    1.5350    2.8180   -0.6860 C   0  0  0  0  0  0  0  0  0  0  0  0
    2.0380    4.0390   -0.2230 C   0  0  0  0  0  0  0  0  0  0  0  0
    1.2970    4.7910    0.6830 C   0  0  0  0  0  0  0  0  0  0  0  0
    0.0790    4.3020    1.0960 C   0  0  0  0  0  0  0  0  0  0  0  0
   -0.3940    3.0940    0.6220 C   0  0  0  0  0  0  0  0  0  0  0  0
   -0.1670   -1.3910   -0.2740 C   0  0  0  0  0  0  0  0  0  0  0  0
    0.6610   -2.3290   -0.5430 O   0  0  0  0  0  0  0  0  0  0  0  0
    2.2250   -0.3430   -0.7070 H   0  0  0  0  0  0  0  0  0  0  0  0
   -0.0680    0.2360    1.1620 H   0  0  0  0  0  0  0  0  0  0  0  0
    0.2500    0.8070   -1.7760 H   0  0  0  0  0  0  0  0  0  0  0  0
   -1.2780    1.0120   -0.8860 H   0  0  0  0  0  0  0  0  0  0  0  0
    2.1120    2.2520   -1.3780 H   0  0  0  0  0  0  0  0  0  0  0  0
    2.9880    4.4240   -0.5420 H   0  0  0  0  0  0  0  0  0  0  0  0
    1.7070    5.7340    1.0290 H   0  0  0  0  0  0  0  0  0  0  0  0
   -0.4880    4.8890    1.7960 H   0  0  0  0  0  0  0  0  0  0  0  0
   -1.3570    2.6900    0.9370 H   0  0  0  0  0  0  0  0  0  0  0  0
   -5.0530   -2.6780   -0.2930 C   0  0  0  0  0  0  0  0  0  0  0  0
   -3.9840   -2.9100    0.7450 C   0  0  0  0  0  0  0  0  0  0  0  0
   -4.6500   -3.6970    1.8820 C   0  0  0  0  0  0  0  0  0  0  0  0
   -2.7880   -3.6490    0.2690 C   0  0  0  0  0  0  0  0  0  0  0  0
   -2.0170   -3.0270   -0.8390 C   0  0  2  0  0  0  0  0  0  0  0  0
   -1.5430   -1.7180   -0.4160 N   0  0  0  0  0  0  0  0  0  0  0  0
   -2.6920   -2.9650   -2.1380 C   0  0  0  0  0  0  0  0  0  0  0  0
   -2.7950   -1.8530   -2.7240 O   0  0  0  0  0  0  0  0  0  0  0  0
   -3.2190   -4.0730   -2.7450 O   0  0  0  0  0  0  0  0  0  0  0  0
   -5.1920   -3.5780   -0.9280 H   0  0  0  0  0  0  0  0  0  0  0  0
   -6.0240   -2.4180    0.2300 H   0  0  0  0  0  0  0  0  0  0  0  0
   -4.8600   -1.7970   -0.9380 H   0  0  0  0  0  0  0  0  0  0  0  0
   -3.7550   -1.9180    1.1830 H   0  0  0  0  0  0  0  0  0  0  0  0
   -5.1390   -4.6150    1.5040 H   0  0  0  0  0  0  0  0  0  0  0  0
   -5.4360   -3.0350    2.3050 H   0  0  0  0  0  0  0  0  0  0  0  0
   -3.9160   -3.9170    2.6930 H   0  0  0  0  0  0  0  0  0  0  0  0
   -2.0920   -3.7370    1.1490 H   0  0  0  0  0  0  0  0  0  0  0  0
   -3.0600   -4.7010    0.0300 H   0  0  0  0  0  0  0  0  0  0  0  0
   -1.0660   -3.6360   -0.9740 H   0  0  0  0  0  0  0  0  0  0  0  0
   -2.2280   -0.9350   -0.1910 H   0  0  0  0  0  0  0  0  0  0  0  0
  1  2  1  0  0  0  0
  1 10  1  0  0  0  0
  2  3  2  0  0  0  0
  4  5  1  0  0  0  0
  4  2  1  0  0  0  0
  5 13  1  6  0  0  0
  5  7  1  0  0  0  0
  5  6  1  0  0  0  0
  6 15  1  0  0  0  0
  6 14  1  0  0  0  0
  7  8  2  0  0  0  0
  9  1  1  0  0  0  0
 11  4  1  0  0  0  0
 12  4  1  0  0  0  0
 16  7  1  0  0  0  0
 17 16  1  0  0  0  0
 17 28  1  1  0  0  0
 18 19  1  0  0  0  0
 18 17  1  0  0  0  0
 19 24  1  0  0  0  0
 20 19  2  0  0  0  0
 20 21  1  0  0  0  0
 21 22  2  0  0  0  0
 22 33  1  0  0  0  0
 22 23  1  0  0  0  0
 23 34  1  0  0  0  0
 24 35  1  0  0  0  0
 24 23  2  0  0  0  0
 25 17  1  0  0  0  0
 26 25  2  0  0  0  0
 27 16  1  0  0  0  0
 29 18  1  0  0  0  0
 30 18  1  0  0  0  0
 31 20  1  0  0  0  0
 32 21  1  0  0  0  0
 36 46  1  0  0  0  0
 36 37  1  0  0  0  0
 37 48  1  0  0  0  0
 37 38  1  0  0  0  0
 38 50  1  0  0  0  0
 38 51  1  0  0  0  0
 39 37  1  0  0  0  0
 39 52  1  0  0  0  0
 40 54  1  6  0  0  0
 40 41  1  0  0  0  0
 40 39  1  0  0  0  0
 41 25  1  0  0  0  0
 41 55  1  0  0  0  0
 42 40  1  0  0  0  0
 43 42  1  0  0  0  0
 44 42  2  0  0  0  0
 45 36  1  0  0  0  0
 47 36  1  0  0  0  0
 49 38  1  0  0  0  0
 53 39  1  0  0  0  0
M  END
$$$$
