NFM.pdb
 OpenBabel07022418113D

 53 53  0  0  1  0  0  0  0  0999 V2000
   -0.0430   -3.3300    1.8680 N   0  0  0  0  0  0  0  0  0  0  0  0
    1.2470   -3.2020    2.4210 C   0  0  0  0  0  0  0  0  0  0  0  0
    1.3920   -3.5230    3.6410 O   0  0  0  0  0  0  0  0  0  0  0  0
    2.4340   -2.7120    1.6530 C   0  0  0  0  0  0  0  0  0  0  0  0
    2.7400   -1.2700    2.0900 C   0  0  2  0  0  0  0  0  0  0  0  0
    3.0190   -1.2680    3.5140 N   0  0  0  0  0  0  0  0  0  0  0  0
    1.4600   -0.5230    1.8200 C   0  0  0  0  0  0  0  0  0  0  0  0
    0.7420   -0.0990    2.7620 O   0  0  0  0  0  0  0  0  0  0  0  0
   -0.8660   -2.9330    2.3910 H   0  0  0  0  0  0  0  0  0  0  0  0
   -0.2080   -3.8000    0.9670 H   0  0  0  0  0  0  0  0  0  0  0  0
    3.3140   -3.3150    1.9440 H   0  0  0  0  0  0  0  0  0  0  0  0
    2.2770   -2.7400    0.5740 H   0  0  0  0  0  0  0  0  0  0  0  0
    3.5360   -0.8730    1.4680 H   0  0  0  0  0  0  0  0  0  0  0  0
    2.4100   -0.5740    3.9630 H   0  0  0  0  0  0  0  0  0  0  0  0
    4.0300   -1.0020    3.6250 H   0  0  0  0  0  0  0  0  0  0  0  0
    1.0210   -0.2710    0.4940 N   0  0  0  0  0  0  0  0  0  0  0  0
   -0.1950    0.4380    0.1600 C   0  0  1  0  0  0  0  0  0  0  0  0
    0.1290    1.7210   -0.5870 C   0  0  0  0  0  0  0  0  0  0  0  0
    0.9810    2.5370    0.3140 C   0  0  0  0  0  0  0  0  0  0  0  0
    2.3660    2.3990    0.2960 C   0  0  0  0  0  0  0  0  0  0  0  0
    3.1640    3.1460    1.1190 C   0  0  0  0  0  0  0  0  0  0  0  0
    2.6040    4.0550    1.9880 C   0  0  0  0  0  0  0  0  0  0  0  0
    1.2470    4.2050    2.0200 C   0  0  0  0  0  0  0  0  0  0  0  0
    0.4280    3.4450    1.1820 C   0  0  0  0  0  0  0  0  0  0  0  0
   -1.0430   -0.4580   -0.6800 C   0  0  0  0  0  0  0  0  0  0  0  0
   -2.1130    0.0140   -1.0820 O   0  0  0  0  0  0  0  0  0  0  0  0
    1.6450   -0.6270   -0.2600 H   0  0  0  0  0  0  0  0  0  0  0  0
   -0.7520    0.7460    1.0660 H   0  0  0  0  0  0  0  0  0  0  0  0
    0.6280    1.5110   -1.5390 H   0  0  0  0  0  0  0  0  0  0  0  0
   -0.8330    2.2260   -0.7590 H   0  0  0  0  0  0  0  0  0  0  0  0
    2.7730    1.6820   -0.3930 H   0  0  0  0  0  0  0  0  0  0  0  0
    4.2390    2.9900    1.0570 H   0  0  0  0  0  0  0  0  0  0  0  0
    3.2540    4.6320    2.6260 H   0  0  0  0  0  0  0  0  0  0  0  0
    0.8130    4.9180    2.7020 H   0  0  0  0  0  0  0  0  0  0  0  0
   -0.6280    3.6090    1.2550 H   0  0  0  0  0  0  0  0  0  0  0  0
   -5.8070   -2.1210    1.2200 C   0  0  0  0  0  0  0  0  0  0  0  0
   -5.1970   -2.0200   -0.4830 S   0  0  0  0  0  0  0  0  0  0  0  0
   -3.4370   -2.4610   -0.4970 C   0  0  0  0  0  0  0  0  0  0  0  0
   -2.8590   -2.4020   -1.8840 C   0  0  0  0  0  0  0  0  0  0  0  0
   -1.3690   -2.7430   -1.7800 C   0  0  2  0  0  0  0  0  0  0  0  0
   -0.6590   -1.7700   -1.0040 N   0  0  0  0  0  0  0  0  0  0  0  0
   -0.7540   -3.1770   -3.0120 C   0  0  0  0  0  0  0  0  0  0  0  0
   -1.3060   -4.0220   -3.7640 O   0  0  0  0  0  0  0  0  0  0  0  0
    0.4850   -2.6940   -3.4570 O   0  0  0  0  0  0  0  0  0  0  0  0
   -6.1690   -3.1790    1.3600 H   0  0  0  0  0  0  0  0  0  0  0  0
   -4.9370   -2.0000    1.8940 H   0  0  0  0  0  0  0  0  0  0  0  0
   -6.6160   -1.3850    1.4190 H   0  0  0  0  0  0  0  0  0  0  0  0
   -2.9350   -1.9210    0.2970 H   0  0  0  0  0  0  0  0  0  0  0  0
   -3.3810   -3.5570   -0.1260 H   0  0  0  0  0  0  0  0  0  0  0  0
   -3.0740   -1.5100   -2.4570 H   0  0  0  0  0  0  0  0  0  0  0  0
   -3.3140   -3.2930   -2.4370 H   0  0  0  0  0  0  0  0  0  0  0  0
   -1.4630   -3.6640   -1.0610 H   0  0  0  0  0  0  0  0  0  0  0  0
    0.3000   -2.0520   -0.5970 H   0  0  0  0  0  0  0  0  0  0  0  0
  1  9  1  0  0  0  0
  1  2  1  0  0  0  0
  2  3  2  0  0  0  0
  4 11  1  0  0  0  0
  4  5  1  0  0  0  0
  4  2  1  0  0  0  0
  5 13  1  6  0  0  0
  5  6  1  0  0  0  0
  6 15  1  0  0  0  0
  6 14  1  0  0  0  0
  7  5  1  0  0  0  0
  7  8  2  0  0  0  0
 10  1  1  0  0  0  0
 12  4  1  0  0  0  0
 16  7  1  0  0  0  0
 17 16  1  0  0  0  0
 17 28  1  1  0  0  0
 18 17  1  0  0  0  0
 18 19  1  0  0  0  0
 19 24  1  0  0  0  0
 20 19  2  0  0  0  0
 20 21  1  0  0  0  0
 21 22  2  0  0  0  0
 22 23  1  0  0  0  0
 22 33  1  0  0  0  0
 23 34  1  0  0  0  0
 24 35  1  0  0  0  0
 24 23  2  0  0  0  0
 25 17  1  0  0  0  0
 26 25  2  0  0  0  0
 27 16  1  0  0  0  0
 29 18  1  0  0  0  0
 30 18  1  0  0  0  0
 31 20  1  0  0  0  0
 32 21  1  0  0  0  0
 36 45  1  0  0  0  0
 36 47  1  0  0  0  0
 36 46  1  0  0  0  0
 37 36  1  0  0  0  0
 38 37  1  0  0  0  0
 38 49  1  0  0  0  0
 38 48  1  0  0  0  0
 39 40  1  0  0  0  0
 39 38  1  0  0  0  0
 40 52  1  1  0  0  0
 40 41  1  0  0  0  0
 41 25  1  0  0  0  0
 41 53  1  0  0  0  0
 42 40  1  0  0  0  0
 43 42  2  0  0  0  0
 44 42  1  0  0  0  0
 50 39  1  0  0  0  0
 51 39  1  0  0  0  0
M  END
$$$$
