NFN.pdb
 OpenBabel07022418103D

 50 50  0  0  1  0  0  0  0  0999 V2000
    2.0340   -3.0430    1.9190 N   0  0  0  0  0  0  0  0  0  0  0  0
    3.1830   -2.4070    1.3950 C   0  0  0  0  0  0  0  0  0  0  0  0
    4.2840   -2.4650    2.0020 O   0  0  0  0  0  0  0  0  0  0  0  0
    3.1560   -1.6390    0.1060 C   0  0  0  0  0  0  0  0  0  0  0  0
    3.0280   -0.1660    0.4910 C   0  0  2  0  0  0  0  0  0  0  0  0
    4.1730    0.1750    1.3090 N   0  0  0  0  0  0  0  0  0  0  0  0
    1.8050   -0.0210    1.2830 C   0  0  0  0  0  0  0  0  0  0  0  0
    1.8660    0.2210    2.5220 O   0  0  0  0  0  0  0  0  0  0  0  0
    1.1980   -2.4730    2.1490 H   0  0  0  0  0  0  0  0  0  0  0  0
    2.0180   -4.0690    2.0760 H   0  0  0  0  0  0  0  0  0  0  0  0
    2.3050   -1.9950   -0.4850 H   0  0  0  0  0  0  0  0  0  0  0  0
    4.0850   -1.7570   -0.4530 H   0  0  0  0  0  0  0  0  0  0  0  0
    2.9790    0.4720   -0.4180 H   0  0  0  0  0  0  0  0  0  0  0  0
    3.8420    0.3280    2.2810 H   0  0  0  0  0  0  0  0  0  0  0  0
    4.5480    1.0860    0.9650 H   0  0  0  0  0  0  0  0  0  0  0  0
    0.5170   -0.1510    0.6600 N   0  0  0  0  0  0  0  0  0  0  0  0
   -0.6740   -0.0010    1.4630 C   0  0  1  0  0  0  0  0  0  0  0  0
   -1.3280    1.3350    1.1170 C   0  0  0  0  0  0  0  0  0  0  0  0
   -0.3240    2.3850    1.4290 C   0  0  0  0  0  0  0  0  0  0  0  0
    0.5690    2.8110    0.4640 C   0  0  0  0  0  0  0  0  0  0  0  0
    1.5190    3.7920    0.7360 C   0  0  0  0  0  0  0  0  0  0  0  0
    1.5990    4.3720    1.9820 C   0  0  0  0  0  0  0  0  0  0  0  0
    0.7130    3.9530    2.9490 C   0  0  0  0  0  0  0  0  0  0  0  0
   -0.2320    2.9750    2.6730 C   0  0  0  0  0  0  0  0  0  0  0  0
   -1.6150   -1.1190    1.2390 C   0  0  0  0  0  0  0  0  0  0  0  0
   -2.7320   -1.1850    1.8560 O   0  0  0  0  0  0  0  0  0  0  0  0
    0.4940   -0.3500   -0.3600 H   0  0  0  0  0  0  0  0  0  0  0  0
   -0.4070    0.0430    2.5380 H   0  0  0  0  0  0  0  0  0  0  0  0
   -1.4830    1.3110    0.0070 H   0  0  0  0  0  0  0  0  0  0  0  0
   -2.2830    1.4810    1.6190 H   0  0  0  0  0  0  0  0  0  0  0  0
    0.5110    2.3610   -0.5130 H   0  0  0  0  0  0  0  0  0  0  0  0
    2.2200    4.1280   -0.0160 H   0  0  0  0  0  0  0  0  0  0  0  0
    2.3530    5.1460    2.1880 H   0  0  0  0  0  0  0  0  0  0  0  0
    0.7850    4.4160    3.9250 H   0  0  0  0  0  0  0  0  0  0  0  0
   -0.9360    2.6410    3.4380 H   0  0  0  0  0  0  0  0  0  0  0  0
   -3.9520   -2.1920   -3.1280 N   0  0  0  0  0  0  0  0  0  0  0  0
   -3.4330   -2.2420   -1.8020 C   0  0  0  0  0  0  0  0  0  0  0  0
   -3.6010   -1.2060   -1.1050 O   0  0  0  0  0  0  0  0  0  0  0  0
   -2.7410   -3.4540   -1.2950 C   0  0  0  0  0  0  0  0  0  0  0  0
   -2.2890   -3.2690    0.1190 C   0  0  2  0  0  0  0  0  0  0  0  0
   -1.3800   -2.2020    0.3390 N   0  0  0  0  0  0  0  0  0  0  0  0
   -1.7410   -4.5270    0.6860 C   0  0  0  0  0  0  0  0  0  0  0  0
   -0.6290   -4.5410    1.2660 O   0  0  0  0  0  0  0  0  0  0  0  0
   -2.4120   -5.7460    0.6130 O   0  0  0  0  0  0  0  0  0  0  0  0
   -4.3300   -1.3450   -3.5700 H   0  0  0  0  0  0  0  0  0  0  0  0
   -3.9450   -3.0720   -3.6810 H   0  0  0  0  0  0  0  0  0  0  0  0
   -1.9400   -3.7990   -1.9730 H   0  0  0  0  0  0  0  0  0  0  0  0
   -3.5060   -4.2710   -1.2910 H   0  0  0  0  0  0  0  0  0  0  0  0
   -3.2110   -3.0500    0.7360 H   0  0  0  0  0  0  0  0  0  0  0  0
   -0.4710   -2.1810   -0.1780 H   0  0  0  0  0  0  0  0  0  0  0  0
  1 10  1  0  0  0  0
  1  9  1  0  0  0  0
  2  1  1  0  0  0  0
  2  3  2  0  0  0  0
  4  5  1  0  0  0  0
  4  2  1  0  0  0  0
  5 13  1  6  0  0  0
  5  7  1  0  0  0  0
  5  6  1  0  0  0  0
  6 14  1  0  0  0  0
  7  8  2  0  0  0  0
 11  4  1  0  0  0  0
 12  4  1  0  0  0  0
 15  6  1  0  0  0  0
 16  7  1  0  0  0  0
 16 17  1  0  0  0  0
 17 28  1  1  0  0  0
 18 19  1  0  0  0  0
 18 17  1  0  0  0  0
 18 30  1  0  0  0  0
 19 24  1  0  0  0  0
 20 21  1  0  0  0  0
 20 19  2  0  0  0  0
 21 22  2  0  0  0  0
 22 33  1  0  0  0  0
 22 23  1  0  0  0  0
 23 34  1  0  0  0  0
 24 23  2  0  0  0  0
 24 35  1  0  0  0  0
 25 17  1  0  0  0  0
 25 26  2  0  0  0  0
 27 16  1  0  0  0  0
 29 18  1  0  0  0  0
 31 20  1  0  0  0  0
 32 21  1  0  0  0  0
 36 37  1  0  0  0  0
 37 39  1  0  0  0  0
 37 38  2  0  0  0  0
 39 48  1  0  0  0  0
 39 40  1  0  0  0  0
 40 41  1  0  0  0  0
 40 42  1  0  0  0  0
 40 49  1  1  0  0  0
 41 25  1  0  0  0  0
 42 43  1  0  0  0  0
 44 42  2  0  0  0  0
 45 36  1  0  0  0  0
 46 36  1  0  0  0  0
 47 39  1  0  0  0  0
 50 41  1  0  0  0  0
M  END
$$$$
