NFQ.pdb
 OpenBabel07022418113D

 53 53  0  0  1  0  0  0  0  0999 V2000
   -0.2920   -3.5830    2.7070 N   0  0  0  0  0  0  0  0  0  0  0  0
    0.5350   -3.0920    3.7490 C   0  0  0  0  0  0  0  0  0  0  0  0
    0.1180   -3.1870    4.9290 O   0  0  0  0  0  0  0  0  0  0  0  0
    1.8330   -2.4940    3.4400 C   0  0  0  0  0  0  0  0  0  0  0  0
    1.8420   -0.9820    3.5610 C   0  0  2  0  0  0  0  0  0  0  0  0
    1.5050   -0.5570    4.8870 N   0  0  0  0  0  0  0  0  0  0  0  0
    0.9340   -0.3690    2.5400 C   0  0  0  0  0  0  0  0  0  0  0  0
   -0.0010    0.4060    2.8880 O   0  0  0  0  0  0  0  0  0  0  0  0
   -1.3020   -3.3470    2.7370 H   0  0  0  0  0  0  0  0  0  0  0  0
    0.0910   -4.1610    1.9340 H   0  0  0  0  0  0  0  0  0  0  0  0
    2.1440   -2.7480    2.3920 H   0  0  0  0  0  0  0  0  0  0  0  0
    2.6630   -2.8680    4.0940 H   0  0  0  0  0  0  0  0  0  0  0  0
    2.8790   -0.6550    3.3280 H   0  0  0  0  0  0  0  0  0  0  0  0
    2.0300    0.3470    5.0680 H   0  0  0  0  0  0  0  0  0  0  0  0
    1.9120   -1.2610    5.5600 H   0  0  0  0  0  0  0  0  0  0  0  0
    1.0700   -0.6200    1.1550 N   0  0  0  0  0  0  0  0  0  0  0  0
    0.2040   -0.0370    0.1560 C   0  0  1  0  0  0  0  0  0  0  0  0
    0.9990    0.8130   -0.8400 C   0  0  0  0  0  0  0  0  0  0  0  0
    1.6890    1.9110   -0.1070 C   0  0  0  0  0  0  0  0  0  0  0  0
    2.9630    1.7420    0.3950 C   0  0  0  0  0  0  0  0  0  0  0  0
    3.5870    2.7870    1.0800 C   0  0  0  0  0  0  0  0  0  0  0  0
    2.9600    4.0010    1.2740 C   0  0  0  0  0  0  0  0  0  0  0  0
    1.6850    4.1420    0.7600 C   0  0  0  0  0  0  0  0  0  0  0  0
    1.0480    3.1240    0.0800 C   0  0  0  0  0  0  0  0  0  0  0  0
   -0.4070   -1.1290   -0.6350 C   0  0  0  0  0  0  0  0  0  0  0  0
   -0.1260   -2.3150   -0.3470 O   0  0  0  0  0  0  0  0  0  0  0  0
    1.8280   -1.2530    0.8310 H   0  0  0  0  0  0  0  0  0  0  0  0
   -0.5610    0.6100    0.6420 H   0  0  0  0  0  0  0  0  0  0  0  0
    1.7300    0.1820   -1.3500 H   0  0  0  0  0  0  0  0  0  0  0  0
    0.2550    1.2350   -1.5520 H   0  0  0  0  0  0  0  0  0  0  0  0
    3.4830    0.7860    0.2540 H   0  0  0  0  0  0  0  0  0  0  0  0
    4.5850    2.6620    1.4770 H   0  0  0  0  0  0  0  0  0  0  0  0
    3.4370    4.8210    1.8060 H   0  0  0  0  0  0  0  0  0  0  0  0
    1.1840    5.0950    0.9100 H   0  0  0  0  0  0  0  0  0  0  0  0
    0.0360    3.2350   -0.3280 H   0  0  0  0  0  0  0  0  0  0  0  0
   -4.1450   -3.2550    1.0820 N   0  0  0  0  0  0  0  0  0  0  0  0
   -3.6780   -3.1840   -0.2550 C   0  0  0  0  0  0  0  0  0  0  0  0
   -3.0130   -4.1390   -0.7090 O   0  0  0  0  0  0  0  0  0  0  0  0
   -3.9700   -2.0120   -1.0890 C   0  0  0  0  0  0  0  0  0  0  0  0
   -3.3370   -2.0060   -2.4360 C   0  0  0  0  0  0  0  0  0  0  0  0
   -1.8390   -2.0370   -2.4140 C   0  0  2  0  0  0  0  0  0  0  0  0
   -1.3000   -0.8900   -1.7090 N   0  0  0  0  0  0  0  0  0  0  0  0
   -1.3430   -1.9500   -3.8190 C   0  0  0  0  0  0  0  0  0  0  0  0
   -1.6520   -2.8240   -4.6760 O   0  0  0  0  0  0  0  0  0  0  0  0
   -0.5210   -0.9200   -4.2680 O   0  0  0  0  0  0  0  0  0  0  0  0
   -5.0800   -3.6390    1.3220 H   0  0  0  0  0  0  0  0  0  0  0  0
   -3.5500   -2.9180    1.8670 H   0  0  0  0  0  0  0  0  0  0  0  0
   -3.7210   -1.0630   -0.5430 H   0  0  0  0  0  0  0  0  0  0  0  0
   -5.0760   -1.9440   -1.2520 H   0  0  0  0  0  0  0  0  0  0  0  0
   -3.6670   -2.8810   -3.0670 H   0  0  0  0  0  0  0  0  0  0  0  0
   -3.7310   -1.1140   -2.9980 H   0  0  0  0  0  0  0  0  0  0  0  0
   -1.4980   -2.9880   -2.0040 H   0  0  0  0  0  0  0  0  0  0  0  0
   -1.5620    0.0730   -1.9860 H   0  0  0  0  0  0  0  0  0  0  0  0
  1  9  1  0  0  0  0
  1  2  1  0  0  0  0
  2  3  2  0  0  0  0
  4  5  1  0  0  0  0
  4  2  1  0  0  0  0
  4 12  1  0  0  0  0
  5 13  1  6  0  0  0
  5  6  1  0  0  0  0
  6 14  1  0  0  0  0
  6 15  1  0  0  0  0
  7  8  2  0  0  0  0
  7  5  1  0  0  0  0
 10  1  1  0  0  0  0
 11  4  1  0  0  0  0
 16  7  1  0  0  0  0
 17 28  1  1  0  0  0
 17 16  1  0  0  0  0
 18 19  1  0  0  0  0
 18 17  1  0  0  0  0
 19 24  2  0  0  0  0
 19 20  1  0  0  0  0
 20 21  2  0  0  0  0
 21 22  1  0  0  0  0
 21 32  1  0  0  0  0
 22 33  1  0  0  0  0
 23 34  1  0  0  0  0
 23 22  2  0  0  0  0
 24 23  1  0  0  0  0
 25 26  2  0  0  0  0
 25 17  1  0  0  0  0
 27 16  1  0  0  0  0
 29 18  1  0  0  0  0
 30 18  1  0  0  0  0
 31 20  1  0  0  0  0
 35 24  1  0  0  0  0
 36 46  1  0  0  0  0
 36 47  1  0  0  0  0
 37 36  1  0  0  0  0
 38 37  2  0  0  0  0
 39 48  1  0  0  0  0
 39 37  1  0  0  0  0
 40 41  1  0  0  0  0
 40 39  1  0  0  0  0
 41 52  1  1  0  0  0
 41 42  1  0  0  0  0
 42 25  1  0  0  0  0
 43 41  1  0  0  0  0
 44 43  2  0  0  0  0
 45 43  1  0  0  0  0
 49 39  1  0  0  0  0
 50 40  1  0  0  0  0
 51 40  1  0  0  0  0
 53 42  1  0  0  0  0
M  END
$$$$
