NFR.pdb
 OpenBabel07022418103D

 59 59  0  0  1  0  0  0  0  0999 V2000
    0.6520   -3.3740    4.9770 N   0  0  0  0  0  0  0  0  0  0  0  0
    1.0680   -2.0370    4.9310 C   0  0  0  0  0  0  0  0  0  0  0  0
    1.8670   -1.5940    5.7750 O   0  0  0  0  0  0  0  0  0  0  0  0
    0.5560   -1.1480    3.8750 C   0  0  0  0  0  0  0  0  0  0  0  0
    1.1200    0.2520    3.9940 C   0  0  2  0  0  0  0  0  0  0  0  0
    0.7280    0.7710    5.2850 N   0  0  0  0  0  0  0  0  0  0  0  0
    0.6420    1.0620    2.8720 C   0  0  0  0  0  0  0  0  0  0  0  0
   -0.0520    2.1190    3.0150 O   0  0  0  0  0  0  0  0  0  0  0  0
    0.7370   -3.9690    4.1340 H   0  0  0  0  0  0  0  0  0  0  0  0
    0.2560   -3.7920    5.8380 H   0  0  0  0  0  0  0  0  0  0  0  0
    0.8190   -1.5060    2.8480 H   0  0  0  0  0  0  0  0  0  0  0  0
   -0.5650   -1.1120    4.0160 H   0  0  0  0  0  0  0  0  0  0  0  0
    2.2240    0.1880    4.0000 H   0  0  0  0  0  0  0  0  0  0  0  0
   -0.2280    0.4850    5.5620 H   0  0  0  0  0  0  0  0  0  0  0  0
    1.4570    0.7030    6.0030 H   0  0  0  0  0  0  0  0  0  0  0  0
    0.9520    0.6760    1.5530 N   0  0  0  0  0  0  0  0  0  0  0  0
    0.5070    1.4390    0.4030 C   0  0  1  0  0  0  0  0  0  0  0  0
    1.6690    2.0060   -0.3760 C   0  0  0  0  0  0  0  0  0  0  0  0
    2.4650    2.9060    0.5020 C   0  0  0  0  0  0  0  0  0  0  0  0
    2.2270    4.2510    0.6210 C   0  0  0  0  0  0  0  0  0  0  0  0
    2.9890    5.0290    1.4430 C   0  0  0  0  0  0  0  0  0  0  0  0
    4.0370    4.5230    2.1980 C   0  0  0  0  0  0  0  0  0  0  0  0
    4.2750    3.1720    2.0770 C   0  0  0  0  0  0  0  0  0  0  0  0
    3.5140    2.3610    1.2490 C   0  0  0  0  0  0  0  0  0  0  0  0
   -0.4060    0.6360   -0.4460 C   0  0  0  0  0  0  0  0  0  0  0  0
   -0.8820    1.1820   -1.4700 O   0  0  0  0  0  0  0  0  0  0  0  0
    1.5200   -0.1840    1.3530 H   0  0  0  0  0  0  0  0  0  0  0  0
   -0.0800    2.2940    0.7940 H   0  0  0  0  0  0  0  0  0  0  0  0
    2.3710    1.1940   -0.7040 H   0  0  0  0  0  0  0  0  0  0  0  0
    1.2960    2.5910   -1.2210 H   0  0  0  0  0  0  0  0  0  0  0  0
    1.3980    4.6380    0.0200 H   0  0  0  0  0  0  0  0  0  0  0  0
    2.7880    6.0940    1.5270 H   0  0  0  0  0  0  0  0  0  0  0  0
    4.6540    5.1040    2.8500 H   0  0  0  0  0  0  0  0  0  0  0  0
    5.0870    2.7250    2.6500 H   0  0  0  0  0  0  0  0  0  0  0  0
    3.7310    1.2890    1.1760 H   0  0  0  0  0  0  0  0  0  0  0  0
   -3.6380   -5.8990   -5.6540 N   0  0  0  0  0  0  0  0  0  0  0  0
   -3.1990   -4.9770   -4.6700 C   0  0  0  0  0  0  0  0  0  0  0  0
   -3.0220   -3.7170   -4.9970 N   0  0  0  0  0  0  0  0  0  0  0  0
   -2.9380   -5.3300   -3.3340 N   0  0  0  0  0  0  0  0  0  0  0  0
   -2.6880   -4.3020   -2.3150 C   0  0  0  0  0  0  0  0  0  0  0  0
   -1.4120   -3.6070   -2.4970 C   0  0  0  0  0  0  0  0  0  0  0  0
   -0.9410   -2.6480   -1.5080 C   0  0  0  0  0  0  0  0  0  0  0  0
   -1.7170   -1.4510   -1.0920 C   0  0  2  0  0  0  0  0  0  0  0  0
   -0.7640   -0.6930   -0.1650 N   0  0  0  0  0  0  0  0  0  0  0  0
   -2.7830   -1.8040   -0.1330 C   0  0  0  0  0  0  0  0  0  0  0  0
   -2.5950   -1.5920    1.1140 O   0  0  0  0  0  0  0  0  0  0  0  0
   -3.9740   -2.3430   -0.4660 O   0  0  0  0  0  0  0  0  0  0  0  0
   -3.1620   -5.9410   -6.5630 H   0  0  0  0  0  0  0  0  0  0  0  0
   -4.4330   -6.5180   -5.4470 H   0  0  0  0  0  0  0  0  0  0  0  0
   -3.2090   -3.4200   -5.9750 H   0  0  0  0  0  0  0  0  0  0  0  0
   -2.9200   -6.3340   -3.0560 H   0  0  0  0  0  0  0  0  0  0  0  0
   -2.8250   -4.6900   -1.3170 H   0  0  0  0  0  0  0  0  0  0  0  0
   -3.5140   -3.5200   -2.4840 H   0  0  0  0  0  0  0  0  0  0  0  0
   -0.5740   -4.4070   -2.5950 H   0  0  0  0  0  0  0  0  0  0  0  0
   -1.3200   -3.1290   -3.5280 H   0  0  0  0  0  0  0  0  0  0  0  0
    0.1340   -2.3460   -1.7680 H   0  0  0  0  0  0  0  0  0  0  0  0
   -0.7530   -3.2490   -0.5440 H   0  0  0  0  0  0  0  0  0  0  0  0
   -1.9900   -0.7430   -1.8640 H   0  0  0  0  0  0  0  0  0  0  0  0
   -0.4220   -1.1990    0.6350 H   0  0  0  0  0  0  0  0  0  0  0  0
  1 10  1  0  0  0  0
  2  1  1  0  0  0  0
  2  3  2  0  0  0  0
  4  5  1  0  0  0  0
  4 12  1  0  0  0  0
  4  2  1  0  0  0  0
  5 13  1  6  0  0  0
  5  6  1  0  0  0  0
  6 14  1  0  0  0  0
  6 15  1  0  0  0  0
  7  8  2  0  0  0  0
  7  5  1  0  0  0  0
  9  1  1  0  0  0  0
 11  4  1  0  0  0  0
 16  7  1  0  0  0  0
 17 28  1  1  0  0  0
 17 16  1  0  0  0  0
 18 17  1  0  0  0  0
 18 19  1  0  0  0  0
 19 20  2  0  0  0  0
 19 24  1  0  0  0  0
 20 21  1  0  0  0  0
 21 32  1  0  0  0  0
 21 22  2  0  0  0  0
 22 33  1  0  0  0  0
 23 22  1  0  0  0  0
 23 34  1  0  0  0  0
 24 23  2  0  0  0  0
 25 44  1  0  0  0  0
 25 17  1  0  0  0  0
 26 25  2  0  0  0  0
 27 16  1  0  0  0  0
 29 18  1  0  0  0  0
 30 18  1  0  0  0  0
 31 20  1  0  0  0  0
 35 24  1  0  0  0  0
 36 49  1  0  0  0  0
 36 37  1  0  0  0  0
 37 39  1  0  0  0  0
 38 37  2  0  0  0  0
 39 51  1  0  0  0  0
 39 40  1  0  0  0  0
 40 52  1  0  0  0  0
 41 40  1  0  0  0  0
 41 42  1  0  0  0  0
 42 43  1  0  0  0  0
 42 57  1  0  0  0  0
 43 58  1  6  0  0  0
 43 44  1  0  0  0  0
 43 45  1  0  0  0  0
 44 59  1  0  0  0  0
 45 46  1  0  0  0  0
 47 45  2  0  0  0  0
 48 36  1  0  0  0  0
 50 38  1  0  0  0  0
 53 40  1  0  0  0  0
 54 41  1  0  0  0  0
 55 41  1  0  0  0  0
 56 42  1  0  0  0  0
M  END
$$$$
