NFS.pdb
 OpenBabel07022418113D

 47 47  0  0  1  0  0  0  0  0999 V2000
    2.0570   -5.6480    1.5940 N   0  0  0  0  0  0  0  0  0  0  0  0
    2.1620   -4.2450    1.6450 C   0  0  0  0  0  0  0  0  0  0  0  0
    3.2620   -3.7020    1.8520 O   0  0  0  0  0  0  0  0  0  0  0  0
    0.9600   -3.4150    1.4500 C   0  0  0  0  0  0  0  0  0  0  0  0
    0.5060   -2.9630    2.8300 C   0  0  2  0  0  0  0  0  0  0  0  0
    0.2170   -4.1400    3.5950 N   0  0  0  0  0  0  0  0  0  0  0  0
   -0.5990   -2.0040    2.7720 C   0  0  0  0  0  0  0  0  0  0  0  0
   -1.6940   -2.2380    3.3590 O   0  0  0  0  0  0  0  0  0  0  0  0
    1.4670   -6.1310    0.8820 H   0  0  0  0  0  0  0  0  0  0  0  0
    2.5720   -6.2530    2.2740 H   0  0  0  0  0  0  0  0  0  0  0  0
    1.2590   -2.4940    0.8730 H   0  0  0  0  0  0  0  0  0  0  0  0
    0.1480   -3.9470    0.9120 H   0  0  0  0  0  0  0  0  0  0  0  0
    1.4110   -2.4720    3.2900 H   0  0  0  0  0  0  0  0  0  0  0  0
   -0.7490   -4.0860    3.9760 H   0  0  0  0  0  0  0  0  0  0  0  0
    0.9420   -4.3560    4.3030 H   0  0  0  0  0  0  0  0  0  0  0  0
   -0.4140   -0.7980    2.0390 N   0  0  0  0  0  0  0  0  0  0  0  0
   -1.4520    0.1810    1.9410 C   0  0  1  0  0  0  0  0  0  0  0  0
   -0.9760    1.4890    2.5390 C   0  0  0  0  0  0  0  0  0  0  0  0
    0.2240    2.0140    1.8440 C   0  0  0  0  0  0  0  0  0  0  0  0
    0.1690    2.8650    0.7740 C   0  0  0  0  0  0  0  0  0  0  0  0
    1.2940    3.3360    0.1520 C   0  0  0  0  0  0  0  0  0  0  0  0
    2.5440    2.9750    0.5740 C   0  0  0  0  0  0  0  0  0  0  0  0
    2.6430    2.1090    1.6600 C   0  0  0  0  0  0  0  0  0  0  0  0
    1.4990    1.6450    2.2750 C   0  0  0  0  0  0  0  0  0  0  0  0
   -1.8890    0.4570    0.5590 C   0  0  0  0  0  0  0  0  0  0  0  0
   -2.7970    1.3090    0.3530 O   0  0  0  0  0  0  0  0  0  0  0  0
    0.5080   -0.6340    1.5620 H   0  0  0  0  0  0  0  0  0  0  0  0
   -2.3550   -0.1770    2.5120 H   0  0  0  0  0  0  0  0  0  0  0  0
   -0.7370    1.3900    3.6170 H   0  0  0  0  0  0  0  0  0  0  0  0
   -1.7590    2.2820    2.4630 H   0  0  0  0  0  0  0  0  0  0  0  0
   -0.7880    3.1770    0.4080 H   0  0  0  0  0  0  0  0  0  0  0  0
    1.2440    4.0190   -0.7060 H   0  0  0  0  0  0  0  0  0  0  0  0
    3.4190    3.3540    0.0740 H   0  0  0  0  0  0  0  0  0  0  0  0
    3.6360    1.8360    1.9780 H   0  0  0  0  0  0  0  0  0  0  0  0
    1.6120    0.9740    3.1160 H   0  0  0  0  0  0  0  0  0  0  0  0
   -0.0950    1.7520   -2.3110 O   0  0  0  0  0  0  0  0  0  0  0  0
   -0.7030    0.6150   -2.7940 C   0  0  0  0  0  0  0  0  0  0  0  0
   -1.8250    0.1350   -1.9120 C   0  0  2  0  0  0  0  0  0  0  0  0
   -1.3510   -0.1790   -0.5850 N   0  0  0  0  0  0  0  0  0  0  0  0
   -2.4230   -1.0490   -2.5850 C   0  0  0  0  0  0  0  0  0  0  0  0
   -2.5130   -2.1810   -2.0880 O   0  0  0  0  0  0  0  0  0  0  0  0
   -2.9100   -0.8480   -3.8690 O   0  0  0  0  0  0  0  0  0  0  0  0
    0.9110    1.6940   -2.3050 H   0  0  0  0  0  0  0  0  0  0  0  0
   -1.1290    0.8640   -3.7970 H   0  0  0  0  0  0  0  0  0  0  0  0
    0.0060   -0.2270   -2.9390 H   0  0  0  0  0  0  0  0  0  0  0  0
   -2.6140    0.9130   -1.9060 H   0  0  0  0  0  0  0  0  0  0  0  0
   -0.6000   -0.8830   -0.4300 H   0  0  0  0  0  0  0  0  0  0  0  0
  1  2  1  0  0  0  0
  1 10  1  0  0  0  0
  2  3  2  0  0  0  0
  4  2  1  0  0  0  0
  4  5  1  0  0  0  0
  5 13  1  1  0  0  0
  5  6  1  0  0  0  0
  6 14  1  0  0  0  0
  6 15  1  0  0  0  0
  7  5  1  0  0  0  0
  7  8  2  0  0  0  0
  9  1  1  0  0  0  0
 11  4  1  0  0  0  0
 12  4  1  0  0  0  0
 16  7  1  0  0  0  0
 17 16  1  0  0  0  0
 17 28  1  1  0  0  0
 17 18  1  0  0  0  0
 18 29  1  0  0  0  0
 19 24  1  0  0  0  0
 19 18  1  0  0  0  0
 20 19  2  0  0  0  0
 21 22  2  0  0  0  0
 21 20  1  0  0  0  0
 22 23  1  0  0  0  0
 23 34  1  0  0  0  0
 23 24  2  0  0  0  0
 24 35  1  0  0  0  0
 25 17  1  0  0  0  0
 26 25  2  0  0  0  0
 27 16  1  0  0  0  0
 30 18  1  0  0  0  0
 31 20  1  0  0  0  0
 32 21  1  0  0  0  0
 33 22  1  0  0  0  0
 36 43  1  0  0  0  0
 37 36  1  0  0  0  0
 37 38  1  0  0  0  0
 38 46  1  1  0  0  0
 38 39  1  0  0  0  0
 39 47  1  0  0  0  0
 39 25  1  0  0  0  0
 40 41  1  0  0  0  0
 40 38  1  0  0  0  0
 42 40  2  0  0  0  0
 44 37  1  0  0  0  0
 45 37  1  0  0  0  0
M  END
$$$$
