NFV.pdb
 OpenBabel07022418113D

 52 52  0  0  1  0  0  0  0  0999 V2000
    0.3700    0.2020    6.5940 N   0  0  0  0  0  0  0  0  0  0  0  0
    0.0570   -0.7420    5.5390 C   0  0  0  0  0  0  0  0  0  0  0  0
   -1.1670   -0.9010    5.3090 O   0  0  0  0  0  0  0  0  0  0  0  0
    1.1480   -1.4270    4.8320 C   0  0  0  0  0  0  0  0  0  0  0  0
    0.6210   -2.2650    3.7030 C   0  0  2  0  0  0  0  0  0  0  0  0
    1.7950   -2.9300    3.0920 N   0  0  0  0  0  0  0  0  0  0  0  0
   -0.0360   -1.4340    2.6300 C   0  0  0  0  0  0  0  0  0  0  0  0
   -1.0840   -0.7790    2.7860 O   0  0  0  0  0  0  0  0  0  0  0  0
    1.1200   -0.0730    7.2590 H   0  0  0  0  0  0  0  0  0  0  0  0
   -0.1690    1.0880    6.6210 H   0  0  0  0  0  0  0  0  0  0  0  0
    1.6900   -2.1140    5.5460 H   0  0  0  0  0  0  0  0  0  0  0  0
    1.9180   -0.6960    4.4820 H   0  0  0  0  0  0  0  0  0  0  0  0
   -0.1210   -2.9810    4.0590 H   0  0  0  0  0  0  0  0  0  0  0  0
    1.8670   -3.8520    3.5320 H   0  0  0  0  0  0  0  0  0  0  0  0
    2.6480   -2.3730    3.3160 H   0  0  0  0  0  0  0  0  0  0  0  0
    0.5500   -1.3640    1.3280 N   0  0  0  0  0  0  0  0  0  0  0  0
   -0.0150   -0.5970    0.2570 C   0  0  1  0  0  0  0  0  0  0  0  0
    0.9640    0.5130   -0.0900 C   0  0  0  0  0  0  0  0  0  0  0  0
    1.1720    1.3660    1.1070 C   0  0  0  0  0  0  0  0  0  0  0  0
    0.3680    2.4580    1.3430 C   0  0  0  0  0  0  0  0  0  0  0  0
    0.5900    3.2290    2.4650 C   0  0  0  0  0  0  0  0  0  0  0  0
    1.6080    2.9160    3.3510 C   0  0  0  0  0  0  0  0  0  0  0  0
    2.3890    1.8210    3.0850 C   0  0  0  0  0  0  0  0  0  0  0  0
    2.1910    1.0340    1.9730 C   0  0  0  0  0  0  0  0  0  0  0  0
   -0.3050   -1.4240   -0.9410 C   0  0  0  0  0  0  0  0  0  0  0  0
   -0.0560   -2.6660   -0.9610 O   0  0  0  0  0  0  0  0  0  0  0  0
    1.4250   -1.9020    1.1720 H   0  0  0  0  0  0  0  0  0  0  0  0
   -0.9290   -0.1070    0.6290 H   0  0  0  0  0  0  0  0  0  0  0  0
    0.4990    1.1370   -0.9010 H   0  0  0  0  0  0  0  0  0  0  0  0
    1.9110    0.0680   -0.4190 H   0  0  0  0  0  0  0  0  0  0  0  0
   -0.4380    2.7230    0.6600 H   0  0  0  0  0  0  0  0  0  0  0  0
   -0.0120    4.1040    2.7040 H   0  0  0  0  0  0  0  0  0  0  0  0
    1.8000    3.5100    4.2400 H   0  0  0  0  0  0  0  0  0  0  0  0
    3.1880    1.5850    3.7900 H   0  0  0  0  0  0  0  0  0  0  0  0
    2.8310    0.1650    1.7860 H   0  0  0  0  0  0  0  0  0  0  0  0
   -3.3430   -2.3570   -2.3710 C   0  0  0  0  0  0  0  0  0  0  0  0
   -2.6390   -1.7480   -3.5900 C   0  0  0  0  0  0  0  0  0  0  0  0
   -2.9520   -2.6610   -4.7510 C   0  0  0  0  0  0  0  0  0  0  0  0
   -1.1580   -1.6930   -3.2950 C   0  0  2  0  0  0  0  0  0  0  0  0
   -0.8740   -0.8830   -2.1260 N   0  0  0  0  0  0  0  0  0  0  0  0
   -0.3890   -1.2680   -4.4760 C   0  0  0  0  0  0  0  0  0  0  0  0
   -0.5350   -1.8880   -5.5490 O   0  0  0  0  0  0  0  0  0  0  0  0
    0.4890   -0.2060   -4.4340 O   0  0  0  0  0  0  0  0  0  0  0  0
   -4.4340   -2.3530   -2.5310 H   0  0  0  0  0  0  0  0  0  0  0  0
   -2.9170   -3.3300   -2.1110 H   0  0  0  0  0  0  0  0  0  0  0  0
   -3.1440   -1.6240   -1.5400 H   0  0  0  0  0  0  0  0  0  0  0  0
   -3.0950   -0.7480   -3.7320 H   0  0  0  0  0  0  0  0  0  0  0  0
   -2.3550   -3.5930   -4.7040 H   0  0  0  0  0  0  0  0  0  0  0  0
   -2.8380   -2.1710   -5.7430 H   0  0  0  0  0  0  0  0  0  0  0  0
   -4.0240   -3.0050   -4.6570 H   0  0  0  0  0  0  0  0  0  0  0  0
   -0.8450   -2.7330   -3.0480 H   0  0  0  0  0  0  0  0  0  0  0  0
   -1.0910    0.1410   -2.1390 H   0  0  0  0  0  0  0  0  0  0  0  0
  1 10  1  0  0  0  0
  1  9  1  0  0  0  0
  2  1  1  0  0  0  0
  3  2  2  0  0  0  0
  4  2  1  0  0  0  0
  4 11  1  0  0  0  0
  5 13  1  1  0  0  0
  5  4  1  0  0  0  0
  6 15  1  0  0  0  0
  6 14  1  0  0  0  0
  6  5  1  0  0  0  0
  7  8  2  0  0  0  0
  7  5  1  0  0  0  0
 12  4  1  0  0  0  0
 16  7  1  0  0  0  0
 17 28  1  1  0  0  0
 17 16  1  0  0  0  0
 18 17  1  0  0  0  0
 18 19  1  0  0  0  0
 19 20  2  0  0  0  0
 19 24  1  0  0  0  0
 20 21  1  0  0  0  0
 21 32  1  0  0  0  0
 21 22  2  0  0  0  0
 22 33  1  0  0  0  0
 23 22  1  0  0  0  0
 23 34  1  0  0  0  0
 24 23  2  0  0  0  0
 25 17  1  0  0  0  0
 26 25  2  0  0  0  0
 27 16  1  0  0  0  0
 29 18  1  0  0  0  0
 30 18  1  0  0  0  0
 31 20  1  0  0  0  0
 35 24  1  0  0  0  0
 36 45  1  0  0  0  0
 36 46  1  0  0  0  0
 37 39  1  0  0  0  0
 37 36  1  0  0  0  0
 38 48  1  0  0  0  0
 38 50  1  0  0  0  0
 38 37  1  0  0  0  0
 39 51  1  1  0  0  0
 39 40  1  0  0  0  0
 40 25  1  0  0  0  0
 41 43  1  0  0  0  0
 41 39  1  0  0  0  0
 42 41  2  0  0  0  0
 44 36  1  0  0  0  0
 47 37  1  0  0  0  0
 49 38  1  0  0  0  0
 52 40  1  0  0  0  0
M  END
$$$$
