NFW.pdb
 OpenBabel07022418113D

 60 62  0  0  1  0  0  0  0  0999 V2000
    3.4610   -3.1130    3.6000 N   0  0  0  0  0  0  0  0  0  0  0  0
    4.3590   -2.0370    3.4340 C   0  0  0  0  0  0  0  0  0  0  0  0
    4.9680   -1.5630    4.4560 O   0  0  0  0  0  0  0  0  0  0  0  0
    4.6870   -1.3710    2.1590 C   0  0  0  0  0  0  0  0  0  0  0  0
    3.8590   -1.8270    0.9820 C   0  0  2  0  0  0  0  0  0  0  0  0
    4.3800   -1.0460   -0.1700 N   0  0  0  0  0  0  0  0  0  0  0  0
    2.4730   -1.3060    1.1740 C   0  0  0  0  0  0  0  0  0  0  0  0
    1.7820   -1.8610    2.0580 O   0  0  0  0  0  0  0  0  0  0  0  0
    3.4640   -3.8850    2.9020 H   0  0  0  0  0  0  0  0  0  0  0  0
    2.8350   -3.0650    4.4310 H   0  0  0  0  0  0  0  0  0  0  0  0
    5.7790   -1.4650    1.9550 H   0  0  0  0  0  0  0  0  0  0  0  0
    4.5430   -0.2690    2.3510 H   0  0  0  0  0  0  0  0  0  0  0  0
    3.9090   -2.8970    0.8070 H   0  0  0  0  0  0  0  0  0  0  0  0
    4.0070   -1.4330   -1.0660 H   0  0  0  0  0  0  0  0  0  0  0  0
    5.4250   -1.0580   -0.1580 H   0  0  0  0  0  0  0  0  0  0  0  0
    1.9030   -0.2490    0.4380 N   0  0  0  0  0  0  0  0  0  0  0  0
    0.5080    0.2170    0.6840 C   0  0  1  0  0  0  0  0  0  0  0  0
    0.5520    1.6370    1.1150 C   0  0  0  0  0  0  0  0  0  0  0  0
   -0.7420    2.2280    1.4210 C   0  0  0  0  0  0  0  0  0  0  0  0
   -1.4560    2.9850    0.5330 C   0  0  0  0  0  0  0  0  0  0  0  0
   -2.6940    3.5350    0.9030 C   0  0  0  0  0  0  0  0  0  0  0  0
   -3.2250    3.3360    2.1540 C   0  0  0  0  0  0  0  0  0  0  0  0
   -2.5070    2.5730    3.0510 C   0  0  0  0  0  0  0  0  0  0  0  0
   -1.2880    2.0350    2.6770 C   0  0  0  0  0  0  0  0  0  0  0  0
   -0.2040    0.0110   -0.5730 C   0  0  0  0  0  0  0  0  0  0  0  0
    0.4850   -0.2780   -1.6250 O   0  0  0  0  0  0  0  0  0  0  0  0
    2.4730    0.2090   -0.2910 H   0  0  0  0  0  0  0  0  0  0  0  0
    0.0540   -0.4130    1.4760 H   0  0  0  0  0  0  0  0  0  0  0  0
    0.9790    2.2790    0.2690 H   0  0  0  0  0  0  0  0  0  0  0  0
    1.3100    1.8160    1.9280 H   0  0  0  0  0  0  0  0  0  0  0  0
   -1.0620    3.1550   -0.4560 H   0  0  0  0  0  0  0  0  0  0  0  0
   -3.2710    4.1350    0.2160 H   0  0  0  0  0  0  0  0  0  0  0  0
   -4.1920    3.7760    2.4170 H   0  0  0  0  0  0  0  0  0  0  0  0
   -2.9330    2.4220    4.0340 H   0  0  0  0  0  0  0  0  0  0  0  0
   -0.7470    1.4490    3.3790 H   0  0  0  0  0  0  0  0  0  0  0  0
   -1.6150    0.0800   -0.8040 N   0  0  0  0  0  0  0  0  0  0  0  0
   -2.1760   -0.1720   -2.1120 C   0  0  1  0  0  0  0  0  0  0  0  0
   -2.9210   -1.5000   -2.1900 C   0  0  0  0  0  0  0  0  0  0  0  0
   -2.0760   -2.6600   -1.8990 C   0  0  0  0  0  0  0  0  0  0  0  0
   -1.4990   -3.4660   -2.8670 C   0  0  0  0  0  0  0  0  0  0  0  0
   -0.7820   -4.4020   -2.2420 N   0  0  0  0  0  0  0  0  0  0  0  0
   -0.8860   -4.2170   -0.9160 C   0  0  0  0  0  0  0  0  0  0  0  0
   -0.3300   -4.9310    0.1390 C   0  0  0  0  0  0  0  0  0  0  0  0
   -0.5920   -4.5470    1.4130 C   0  0  0  0  0  0  0  0  0  0  0  0
   -1.3950   -3.4650    1.6640 C   0  0  0  0  0  0  0  0  0  0  0  0
   -1.9440   -2.7600    0.6280 C   0  0  0  0  0  0  0  0  0  0  0  0
   -1.7040   -3.1140   -0.6670 C   0  0  0  0  0  0  0  0  0  0  0  0
   -3.0780    0.8970   -2.5720 C   0  0  0  0  0  0  0  0  0  0  0  0
   -3.6380    0.8410   -3.7130 O   0  0  0  0  0  0  0  0  0  0  0  0
   -3.3820    2.0170   -1.8230 O   0  0  0  0  0  0  0  0  0  0  0  0
   -2.2070    0.3090    0.0190 H   0  0  0  0  0  0  0  0  0  0  0  0
   -1.3210   -0.2230   -2.8580 H   0  0  0  0  0  0  0  0  0  0  0  0
   -3.3510   -1.5440   -3.2180 H   0  0  0  0  0  0  0  0  0  0  0  0
   -3.7820   -1.4700   -1.4940 H   0  0  0  0  0  0  0  0  0  0  0  0
   -1.6270   -3.3330   -3.9330 H   0  0  0  0  0  0  0  0  0  0  0  0
   -0.2230   -5.1660   -2.7040 H   0  0  0  0  0  0  0  0  0  0  0  0
    0.3070   -5.7900   -0.0930 H   0  0  0  0  0  0  0  0  0  0  0  0
   -0.1750   -5.0810    2.2510 H   0  0  0  0  0  0  0  0  0  0  0  0
   -1.6070   -3.1540    2.7070 H   0  0  0  0  0  0  0  0  0  0  0  0
   -2.5960   -1.8990    0.8290 H   0  0  0  0  0  0  0  0  0  0  0  0
  1 10  1  0  0  0  0
  2  1  1  0  0  0  0
  2  3  2  0  0  0  0
  4 12  1  0  0  0  0
  4  2  1  0  0  0  0
  5 13  1  6  0  0  0
  5  7  1  0  0  0  0
  5  4  1  0  0  0  0
  6 15  1  0  0  0  0
  6  5  1  0  0  0  0
  7  8  2  0  0  0  0
  9  1  1  0  0  0  0
 11  4  1  0  0  0  0
 14  6  1  0  0  0  0
 16 17  1  0  0  0  0
 16  7  1  0  0  0  0
 17 18  1  0  0  0  0
 17 28  1  1  0  0  0
 18 19  1  0  0  0  0
 18 30  1  0  0  0  0
 19 24  1  0  0  0  0
 20 21  1  0  0  0  0
 20 19  2  0  0  0  0
 21 22  2  0  0  0  0
 22 33  1  0  0  0  0
 22 23  1  0  0  0  0
 23 34  1  0  0  0  0
 24 23  2  0  0  0  0
 24 35  1  0  0  0  0
 25 17  1  0  0  0  0
 26 25  2  0  0  0  0
 27 16  1  0  0  0  0
 29 18  1  0  0  0  0
 31 20  1  0  0  0  0
 32 21  1  0  0  0  0
 36 25  1  0  0  0  0
 36 51  1  0  0  0  0
 37 52  1  6  0  0  0
 37 36  1  0  0  0  0
 38 37  1  0  0  0  0
 38 39  1  0  0  0  0
 38 54  1  0  0  0  0
 39 47  1  0  0  0  0
 40 41  1  0  0  0  0
 40 39  2  0  0  0  0
 41 42  1  0  0  0  0
 42 47  2  0  0  0  0
 42 43  1  0  0  0  0
 43 44  2  0  0  0  0
 44 45  1  0  0  0  0
 44 58  1  0  0  0  0
 45 59  1  0  0  0  0
 46 60  1  0  0  0  0
 46 45  2  0  0  0  0
 47 46  1  0  0  0  0
 48 37  1  0  0  0  0
 48 50  1  0  0  0  0
 49 48  2  0  0  0  0
 53 38  1  0  0  0  0
 55 40  1  0  0  0  0
 56 41  1  0  0  0  0
 57 43  1  0  0  0  0
M  END
$$$$
