NFY.pdb
 OpenBabel07022418113D

 57 58  0  0  1  0  0  0  0  0999 V2000
    1.3500   -3.7610    3.0090 N   0  0  0  0  0  0  0  0  0  0  0  0
    1.4850   -2.3440    3.0620 C   0  0  0  0  0  0  0  0  0  0  0  0
    0.5070   -1.6580    3.4370 O   0  0  0  0  0  0  0  0  0  0  0  0
    2.7530   -1.7050    2.6830 C   0  0  0  0  0  0  0  0  0  0  0  0
    2.6000   -0.2040    2.7840 C   0  0  2  0  0  0  0  0  0  0  0  0
    2.2540    0.1250    4.1170 N   0  0  0  0  0  0  0  0  0  0  0  0
    1.6470    0.2520    1.7370 C   0  0  0  0  0  0  0  0  0  0  0  0
    1.9350    0.0850    0.5000 O   0  0  0  0  0  0  0  0  0  0  0  0
    0.5640   -4.2060    2.5110 H   0  0  0  0  0  0  0  0  0  0  0  0
    2.0340   -4.4020    3.4680 H   0  0  0  0  0  0  0  0  0  0  0  0
    3.5080   -1.9900    3.4580 H   0  0  0  0  0  0  0  0  0  0  0  0
    3.0980   -1.9900    1.6680 H   0  0  0  0  0  0  0  0  0  0  0  0
    3.6290    0.2130    2.5790 H   0  0  0  0  0  0  0  0  0  0  0  0
    1.6800    0.9340    4.3030 H   0  0  0  0  0  0  0  0  0  0  0  0
    2.1770   -0.7000    4.7170 H   0  0  0  0  0  0  0  0  0  0  0  0
    0.4020    0.8820    1.9880 N   0  0  0  0  0  0  0  0  0  0  0  0
   -0.5100    1.3340    0.9930 C   0  0  1  0  0  0  0  0  0  0  0  0
    0.1880    2.4330    0.1640 C   0  0  0  0  0  0  0  0  0  0  0  0
    0.5830    3.5850    1.0120 C   0  0  0  0  0  0  0  0  0  0  0  0
    1.8130    3.7130    1.6190 C   0  0  0  0  0  0  0  0  0  0  0  0
    2.1280    4.8140    2.4100 C   0  0  0  0  0  0  0  0  0  0  0  0
    1.2020    5.8130    2.6040 C   0  0  0  0  0  0  0  0  0  0  0  0
   -0.0240    5.6900    2.0010 C   0  0  0  0  0  0  0  0  0  0  0  0
   -0.3480    4.5900    1.2070 C   0  0  0  0  0  0  0  0  0  0  0  0
   -1.1150    0.3270    0.1320 C   0  0  0  0  0  0  0  0  0  0  0  0
   -1.9270    0.7600   -0.7610 O   0  0  0  0  0  0  0  0  0  0  0  0
    0.1410    1.0190    3.0090 H   0  0  0  0  0  0  0  0  0  0  0  0
   -1.3100    1.9480    1.5380 H   0  0  0  0  0  0  0  0  0  0  0  0
   -0.4920    2.7470   -0.6620 H   0  0  0  0  0  0  0  0  0  0  0  0
    1.0980    2.0560   -0.3320 H   0  0  0  0  0  0  0  0  0  0  0  0
    2.5670    2.9530    1.4860 H   0  0  0  0  0  0  0  0  0  0  0  0
    3.0830    4.9270    2.8890 H   0  0  0  0  0  0  0  0  0  0  0  0
    1.4570    6.6600    3.2180 H   0  0  0  0  0  0  0  0  0  0  0  0
   -0.7440    6.4770    2.1580 H   0  0  0  0  0  0  0  0  0  0  0  0
   -1.3000    4.4950    0.7400 H   0  0  0  0  0  0  0  0  0  0  0  0
   -2.7070   -6.4880   -5.2110 O   0  0  0  0  0  0  0  0  0  0  0  0
   -2.1910   -5.5350   -4.3220 C   0  0  0  0  0  0  0  0  0  0  0  0
   -1.9940   -4.2320   -4.7330 C   0  0  0  0  0  0  0  0  0  0  0  0
   -1.4850   -3.3180   -3.8360 C   0  0  0  0  0  0  0  0  0  0  0  0
   -1.1770   -3.7210   -2.5320 C   0  0  0  0  0  0  0  0  0  0  0  0
   -0.6270   -2.7730   -1.5730 C   0  0  0  0  0  0  0  0  0  0  0  0
   -1.6080   -1.9760   -0.7880 C   0  0  2  0  0  0  0  0  0  0  0  0
   -0.9280   -1.0650    0.1480 N   0  0  0  0  0  0  0  0  0  0  0  0
   -2.4790   -2.8780   -0.0060 C   0  0  0  0  0  0  0  0  0  0  0  0
   -3.2110   -3.7460   -0.5380 O   0  0  0  0  0  0  0  0  0  0  0  0
   -1.3850   -5.0300   -2.1550 C   0  0  0  0  0  0  0  0  0  0  0  0
   -1.8970   -5.9610   -3.0460 C   0  0  0  0  0  0  0  0  0  0  0  0
   -2.5370   -2.8130    1.3990 O   0  0  0  0  0  0  0  0  0  0  0  0
   -3.5490   -6.3470   -5.7320 H   0  0  0  0  0  0  0  0  0  0  0  0
   -2.2420   -3.9320   -5.7630 H   0  0  0  0  0  0  0  0  0  0  0  0
   -1.3200   -2.2900   -4.1290 H   0  0  0  0  0  0  0  0  0  0  0  0
    0.0540   -2.0810   -2.1530 H   0  0  0  0  0  0  0  0  0  0  0  0
    0.0870   -3.3430   -0.9150 H   0  0  0  0  0  0  0  0  0  0  0  0
   -2.2650   -1.4050   -1.4700 H   0  0  0  0  0  0  0  0  0  0  0  0
   -0.2790   -1.4570    0.8560 H   0  0  0  0  0  0  0  0  0  0  0  0
   -1.1610   -5.4190   -1.1520 H   0  0  0  0  0  0  0  0  0  0  0  0
   -2.0640   -7.0020   -2.7480 H   0  0  0  0  0  0  0  0  0  0  0  0
  1  2  1  0  0  0  0
  1 10  1  0  0  0  0
  2  3  2  0  0  0  0
  4  5  1  0  0  0  0
  4  2  1  0  0  0  0
  4 11  1  0  0  0  0
  5 13  1  6  0  0  0
  5  6  1  0  0  0  0
  6 14  1  0  0  0  0
  6 15  1  0  0  0  0
  7 16  1  0  0  0  0
  7  5  1  0  0  0  0
  8  7  2  0  0  0  0
  9  1  1  0  0  0  0
 12  4  1  0  0  0  0
 16 27  1  0  0  0  0
 17 28  1  1  0  0  0
 17 16  1  0  0  0  0
 18 17  1  0  0  0  0
 18 19  1  0  0  0  0
 19 24  2  0  0  0  0
 19 20  1  0  0  0  0
 20 21  2  0  0  0  0
 21 22  1  0  0  0  0
 21 32  1  0  0  0  0
 22 33  1  0  0  0  0
 23 34  1  0  0  0  0
 23 22  2  0  0  0  0
 24 23  1  0  0  0  0
 25 43  1  0  0  0  0
 25 17  1  0  0  0  0
 26 25  2  0  0  0  0
 29 18  1  0  0  0  0
 30 18  1  0  0  0  0
 31 20  1  0  0  0  0
 35 24  1  0  0  0  0
 36 37  1  0  0  0  0
 37 47  1  0  0  0  0
 38 37  2  0  0  0  0
 38 39  1  0  0  0  0
 39 40  2  0  0  0  0
 40 46  1  0  0  0  0
 40 41  1  0  0  0  0
 41 53  1  0  0  0  0
 41 42  1  0  0  0  0
 42 54  1  6  0  0  0
 42 44  1  0  0  0  0
 42 43  1  0  0  0  0
 43 55  1  0  0  0  0
 44 48  1  0  0  0  0
 45 44  2  0  0  0  0
 46 56  1  0  0  0  0
 47 57  1  0  0  0  0
 47 46  2  0  0  0  0
 49 36  1  0  0  0  0
 50 38  1  0  0  0  0
 51 39  1  0  0  0  0
 52 41  1  0  0  0  0
M  END
$$$$
