NGA.pdb
 OpenBabel07022418093D

 33 32  0  0  1  0  0  0  0  0999 V2000
   -2.1000   -4.3270    3.2410 N   0  0  0  0  0  0  0  0  0  0  0  0
   -0.7660   -4.2080    2.7560 C   0  0  0  0  0  0  0  0  0  0  0  0
   -0.2010   -5.2630    2.3620 O   0  0  0  0  0  0  0  0  0  0  0  0
   -0.0240   -2.9270    2.6920 C   0  0  0  0  0  0  0  0  0  0  0  0
   -0.0430   -2.3410    1.2940 C   0  0  2  0  0  0  0  0  0  0  0  0
    0.5800   -3.2930    0.3850 N   0  0  0  0  0  0  0  0  0  0  0  0
    0.7030   -1.0690    1.2220 C   0  0  0  0  0  0  0  0  0  0  0  0
    0.3200   -0.1080    1.9340 O   0  0  0  0  0  0  0  0  0  0  0  0
   -2.7620   -5.0400    2.8410 H   0  0  0  0  0  0  0  0  0  0  0  0
   -2.4270   -3.6980    4.0080 H   0  0  0  0  0  0  0  0  0  0  0  0
    1.0330   -3.1430    2.9970 H   0  0  0  0  0  0  0  0  0  0  0  0
   -0.3990   -2.1810    3.4210 H   0  0  0  0  0  0  0  0  0  0  0  0
   -1.0740   -2.2130    0.9620 H   0  0  0  0  0  0  0  0  0  0  0  0
    1.4410   -3.6390    0.8700 H   0  0  0  0  0  0  0  0  0  0  0  0
   -0.0800   -4.1000    0.3120 H   0  0  0  0  0  0  0  0  0  0  0  0
    1.8360   -0.8850    0.3810 N   0  0  0  0  0  0  0  0  0  0  0  0
    2.5760    0.3500    0.2830 C   0  0  0  0  0  0  0  0  0  0  0  0
    1.7720    1.4780   -0.2380 C   0  0  0  0  0  0  0  0  0  0  0  0
    2.2810    2.6490   -0.3420 O   0  0  0  0  0  0  0  0  0  0  0  0
    2.1360   -1.7260   -0.2040 H   0  0  0  0  0  0  0  0  0  0  0  0
    3.4120    0.2110   -0.4340 H   0  0  0  0  0  0  0  0  0  0  0  0
    3.0200    0.6290    1.2830 H   0  0  0  0  0  0  0  0  0  0  0  0
   -0.7760    2.2390   -2.5710 C   0  0  0  0  0  0  0  0  0  0  0  0
   -0.3000    2.5720   -1.1580 C   0  0  2  0  0  0  0  0  0  0  0  0
    0.4190    1.3900   -0.6590 N   0  0  0  0  0  0  0  0  0  0  0  0
   -1.5320    2.8170   -0.3670 C   0  0  0  0  0  0  0  0  0  0  0  0
   -2.3150    3.7560   -0.5840 O   0  0  0  0  0  0  0  0  0  0  0  0
   -1.8000    1.9320    0.6670 O   0  0  0  0  0  0  0  0  0  0  0  0
   -1.3620    1.2830   -2.4690 H   0  0  0  0  0  0  0  0  0  0  0  0
    0.0540    2.1520   -3.2760 H   0  0  0  0  0  0  0  0  0  0  0  0
   -1.5160    3.0270   -2.8330 H   0  0  0  0  0  0  0  0  0  0  0  0
    0.3470    3.4620   -1.1440 H   0  0  0  0  0  0  0  0  0  0  0  0
   -0.0810    0.4760   -0.6320 H   0  0  0  0  0  0  0  0  0  0  0  0
  1 10  1  0  0  0  0
  2  1  1  0  0  0  0
  3  2  2  0  0  0  0
  4  2  1  0  0  0  0
  4 11  1  0  0  0  0
  4 12  1  0  0  0  0
  5 13  1  6  0  0  0
  5  4  1  0  0  0  0
  6 14  1  0  0  0  0
  6  5  1  0  0  0  0
  7  5  1  0  0  0  0
  7  8  2  0  0  0  0
  9  1  1  0  0  0  0
 15  6  1  0  0  0  0
 16  7  1  0  0  0  0
 17 16  1  0  0  0  0
 17 22  1  0  0  0  0
 18 17  1  0  0  0  0
 19 18  2  0  0  0  0
 20 16  1  0  0  0  0
 21 17  1  0  0  0  0
 23 29  1  0  0  0  0
 23 24  1  0  0  0  0
 24 32  1  6  0  0  0
 24 25  1  0  0  0  0
 24 26  1  0  0  0  0
 25 33  1  0  0  0  0
 25 18  1  0  0  0  0
 26 28  1  0  0  0  0
 27 26  2  0  0  0  0
 30 23  1  0  0  0  0
 31 23  1  0  0  0  0
M  END
$$$$
