NGD.pdb
 OpenBabel07022418093D

 36 35  0  0  1  0  0  0  0  0999 V2000
   -1.2320   -1.0760    3.8550 N   0  0  0  0  0  0  0  0  0  0  0  0
   -0.4550   -1.8290    2.9400 C   0  0  0  0  0  0  0  0  0  0  0  0
    0.7070   -1.4540    2.7000 O   0  0  0  0  0  0  0  0  0  0  0  0
   -1.0170   -3.0140    2.3020 C   0  0  0  0  0  0  0  0  0  0  0  0
   -0.1540   -3.7100    1.3090 C   0  0  2  0  0  0  0  0  0  0  0  0
    1.1080   -4.1850    1.8210 N   0  0  0  0  0  0  0  0  0  0  0  0
    0.0210   -2.9650    0.0260 C   0  0  0  0  0  0  0  0  0  0  0  0
    1.2160   -2.7920   -0.3830 O   0  0  0  0  0  0  0  0  0  0  0  0
   -0.8190   -0.2920    4.4160 H   0  0  0  0  0  0  0  0  0  0  0  0
   -2.2520   -1.2660    4.0120 H   0  0  0  0  0  0  0  0  0  0  0  0
   -1.2960   -3.7300    3.1320 H   0  0  0  0  0  0  0  0  0  0  0  0
   -1.9930   -2.8140    1.7990 H   0  0  0  0  0  0  0  0  0  0  0  0
   -0.7210   -4.6840    1.0680 H   0  0  0  0  0  0  0  0  0  0  0  0
    1.0000   -5.0520    2.3900 H   0  0  0  0  0  0  0  0  0  0  0  0
    1.7160   -3.4730    2.2390 H   0  0  0  0  0  0  0  0  0  0  0  0
   -1.0460   -2.4670   -0.7270 N   0  0  0  0  0  0  0  0  0  0  0  0
   -0.9280   -1.7530   -1.9630 C   0  0  0  0  0  0  0  0  0  0  0  0
   -0.2110   -0.4780   -1.8220 C   0  0  0  0  0  0  0  0  0  0  0  0
    0.0170    0.2640   -2.8510 O   0  0  0  0  0  0  0  0  0  0  0  0
   -2.0260   -2.6340   -0.3490 H   0  0  0  0  0  0  0  0  0  0  0  0
   -1.9310   -1.5330   -2.4120 H   0  0  0  0  0  0  0  0  0  0  0  0
   -0.3990   -2.3830   -2.7230 H   0  0  0  0  0  0  0  0  0  0  0  0
    0.2900    0.0730   -0.6160 N   0  0  0  0  0  0  0  0  0  0  0  0
    0.9980    1.3530   -0.5710 C   0  0  1  0  0  0  0  0  0  0  0  0
    0.3280    2.2900    0.4110 C   0  0  0  0  0  0  0  0  0  0  0  0
    1.0220    3.5930    0.4710 C   0  0  0  0  0  0  0  0  0  0  0  0
    1.9880    3.7260    1.2610 O   0  0  0  0  0  0  0  0  0  0  0  0
    2.3930    1.0300   -0.1850 C   0  0  0  0  0  0  0  0  0  0  0  0
    2.7840   -0.1620    0.0680 O   0  0  0  0  0  0  0  0  0  0  0  0
    0.6640    4.6890   -0.3030 O   0  0  0  0  0  0  0  0  0  0  0  0
    3.4050    1.9910   -0.0610 O   0  0  0  0  0  0  0  0  0  0  0  0
    0.1370   -0.4400    0.2710 H   0  0  0  0  0  0  0  0  0  0  0  0
    1.0580    1.8100   -1.5800 H   0  0  0  0  0  0  0  0  0  0  0  0
   -0.7500    2.4030    0.1630 H   0  0  0  0  0  0  0  0  0  0  0  0
    0.4150    1.8210    1.4300 H   0  0  0  0  0  0  0  0  0  0  0  0
    1.3620    5.3660   -0.6370 H   0  0  0  0  0  0  0  0  0  0  0  0
  1 10  1  0  0  0  0
  1  9  1  0  0  0  0
  2  1  1  0  0  0  0
  3  2  2  0  0  0  0
  4  2  1  0  0  0  0
  4 11  1  0  0  0  0
  5 13  1  6  0  0  0
  5  6  1  0  0  0  0
  5  4  1  0  0  0  0
  6 15  1  0  0  0  0
  6 14  1  0  0  0  0
  7  5  1  0  0  0  0
  8  7  2  0  0  0  0
 12  4  1  0  0  0  0
 16 20  1  0  0  0  0
 16  7  1  0  0  0  0
 17 18  1  0  0  0  0
 17 16  1  0  0  0  0
 18 23  1  0  0  0  0
 19 18  2  0  0  0  0
 21 17  1  0  0  0  0
 22 17  1  0  0  0  0
 23 24  1  0  0  0  0
 23 32  1  0  0  0  0
 24 33  1  6  0  0  0
 24 28  1  0  0  0  0
 24 25  1  0  0  0  0
 25 26  1  0  0  0  0
 25 35  1  0  0  0  0
 26 27  2  0  0  0  0
 28 31  2  0  0  0  0
 28 29  1  0  0  0  0
 30 26  1  0  0  0  0
 34 25  1  0  0  0  0
 36 30  1  0  0  0  0
M  END
$$$$
