NGE.pdb
 OpenBabel07022418093D

 39 38  0  0  1  0  0  0  0  0999 V2000
    3.5700   -3.6660    2.3030 N   0  0  0  0  0  0  0  0  0  0  0  0
    2.2310   -3.2840    2.5350 C   0  0  0  0  0  0  0  0  0  0  0  0
    1.6980   -3.6790    3.6100 O   0  0  0  0  0  0  0  0  0  0  0  0
    1.5060   -2.4550    1.5400 C   0  0  0  0  0  0  0  0  0  0  0  0
    2.4040   -2.1570    0.3880 C   0  0  2  0  0  0  0  0  0  0  0  0
    3.5620   -1.4370    0.8770 N   0  0  0  0  0  0  0  0  0  0  0  0
    1.7490   -1.3990   -0.6950 C   0  0  0  0  0  0  0  0  0  0  0  0
    2.2470   -0.2910   -1.0350 O   0  0  0  0  0  0  0  0  0  0  0  0
    4.3220   -3.2810    2.8980 H   0  0  0  0  0  0  0  0  0  0  0  0
    3.7960   -4.3210    1.5480 H   0  0  0  0  0  0  0  0  0  0  0  0
    1.1460   -1.5590    2.0720 H   0  0  0  0  0  0  0  0  0  0  0  0
    0.6170   -3.0620    1.2260 H   0  0  0  0  0  0  0  0  0  0  0  0
    2.7450   -3.1360   -0.0310 H   0  0  0  0  0  0  0  0  0  0  0  0
    4.4200   -1.9900    0.7860 H   0  0  0  0  0  0  0  0  0  0  0  0
    3.4570   -1.1050    1.8540 H   0  0  0  0  0  0  0  0  0  0  0  0
    0.5920   -1.8390   -1.3770 N   0  0  0  0  0  0  0  0  0  0  0  0
   -0.0390   -1.0780   -2.4220 C   0  0  0  0  0  0  0  0  0  0  0  0
   -0.5620    0.2000   -1.9440 C   0  0  0  0  0  0  0  0  0  0  0  0
   -1.1120    1.0520   -2.7110 O   0  0  0  0  0  0  0  0  0  0  0  0
    0.2000   -2.7700   -1.0820 H   0  0  0  0  0  0  0  0  0  0  0  0
   -0.9230   -1.6660   -2.8110 H   0  0  0  0  0  0  0  0  0  0  0  0
    0.6490   -0.9720   -3.2950 H   0  0  0  0  0  0  0  0  0  0  0  0
   -0.5110    0.6050   -0.5900 N   0  0  0  0  0  0  0  0  0  0  0  0
   -1.0220    1.8690   -0.1180 C   0  0  1  0  0  0  0  0  0  0  0  0
   -2.2320    1.5840    0.7420 C   0  0  0  0  0  0  0  0  0  0  0  0
   -1.8600    0.7160    1.9190 C   0  0  0  0  0  0  0  0  0  0  0  0
   -3.0540    0.4530    2.7530 C   0  0  0  0  0  0  0  0  0  0  0  0
   -4.1540    0.9380    2.4210 O   0  0  0  0  0  0  0  0  0  0  0  0
   -0.0340    2.7120    0.5280 C   0  0  0  0  0  0  0  0  0  0  0  0
    1.1520    2.3380    0.6450 O   0  0  0  0  0  0  0  0  0  0  0  0
   -2.9190   -0.3310    3.8880 O   0  0  0  0  0  0  0  0  0  0  0  0
   -0.3830    3.9490    1.0270 O   0  0  0  0  0  0  0  0  0  0  0  0
   -0.1070   -0.0150    0.1290 H   0  0  0  0  0  0  0  0  0  0  0  0
   -1.4050    2.4210   -1.0160 H   0  0  0  0  0  0  0  0  0  0  0  0
   -2.7020    2.5260    1.0900 H   0  0  0  0  0  0  0  0  0  0  0  0
   -2.9310    0.9860    0.1140 H   0  0  0  0  0  0  0  0  0  0  0  0
   -1.5490   -0.2770    1.5180 H   0  0  0  0  0  0  0  0  0  0  0  0
   -1.0530    1.1430    2.5330 H   0  0  0  0  0  0  0  0  0  0  0  0
   -3.6080   -0.2600    4.6520 H   0  0  0  0  0  0  0  0  0  0  0  0
  1  2  1  0  0  0  0
  1  9  1  0  0  0  0
  2  3  2  0  0  0  0
  4 11  1  0  0  0  0
  4  2  1  0  0  0  0
  5 13  1  6  0  0  0
  5  6  1  0  0  0  0
  5  4  1  0  0  0  0
  6 15  1  0  0  0  0
  7  5  1  0  0  0  0
  8  7  2  0  0  0  0
 10  1  1  0  0  0  0
 12  4  1  0  0  0  0
 14  6  1  0  0  0  0
 16 20  1  0  0  0  0
 16  7  1  0  0  0  0
 17 18  1  0  0  0  0
 17 16  1  0  0  0  0
 18 23  1  0  0  0  0
 19 18  2  0  0  0  0
 21 17  1  0  0  0  0
 22 17  1  0  0  0  0
 23 24  1  0  0  0  0
 23 33  1  0  0  0  0
 24 34  1  6  0  0  0
 24 29  1  0  0  0  0
 24 25  1  0  0  0  0
 25 35  1  0  0  0  0
 25 26  1  0  0  0  0
 26 38  1  0  0  0  0
 26 27  1  0  0  0  0
 27 31  1  0  0  0  0
 28 27  2  0  0  0  0
 29 30  2  0  0  0  0
 29 32  1  0  0  0  0
 31 39  1  0  0  0  0
 36 25  1  0  0  0  0
 37 26  1  0  0  0  0
M  END
$$$$
