NGF.pdb
 OpenBabel07022418093D

 43 43  0  0  1  0  0  0  0  0999 V2000
   -0.7810   -5.9170   -0.1990 N   0  0  0  0  0  0  0  0  0  0  0  0
   -0.3030   -4.6940    0.3330 C   0  0  0  0  0  0  0  0  0  0  0  0
   -0.3410   -4.5580    1.5880 O   0  0  0  0  0  0  0  0  0  0  0  0
    0.2010   -3.6590   -0.5990 C   0  0  0  0  0  0  0  0  0  0  0  0
   -0.9800   -2.9680   -1.2810 C   0  0  2  0  0  0  0  0  0  0  0  0
   -1.7620   -3.9150   -2.0340 N   0  0  0  0  0  0  0  0  0  0  0  0
   -0.5360   -1.8020   -2.0720 C   0  0  0  0  0  0  0  0  0  0  0  0
   -0.6970   -1.6830   -3.3090 O   0  0  0  0  0  0  0  0  0  0  0  0
   -1.7100   -6.3150    0.1380 H   0  0  0  0  0  0  0  0  0  0  0  0
   -0.2050   -6.4030   -0.9140 H   0  0  0  0  0  0  0  0  0  0  0  0
    0.9220   -4.0650   -1.3120 H   0  0  0  0  0  0  0  0  0  0  0  0
    0.7460   -2.9200    0.0270 H   0  0  0  0  0  0  0  0  0  0  0  0
   -1.6420   -2.6140   -0.4530 H   0  0  0  0  0  0  0  0  0  0  0  0
   -2.7870   -3.7800   -1.9710 H   0  0  0  0  0  0  0  0  0  0  0  0
   -1.4030   -4.1310   -2.9740 H   0  0  0  0  0  0  0  0  0  0  0  0
    0.1280   -0.7230   -1.3780 N   0  0  0  0  0  0  0  0  0  0  0  0
    0.5810    0.4380   -2.0970 C   0  0  0  0  0  0  0  0  0  0  0  0
    1.2130    1.4730   -1.2530 C   0  0  0  0  0  0  0  0  0  0  0  0
    1.6540    2.5370   -1.7850 O   0  0  0  0  0  0  0  0  0  0  0  0
    0.2470   -0.8470   -0.3730 H   0  0  0  0  0  0  0  0  0  0  0  0
   -0.3040    0.9040   -2.5830 H   0  0  0  0  0  0  0  0  0  0  0  0
    1.2800    0.1120   -2.9100 H   0  0  0  0  0  0  0  0  0  0  0  0
    1.3810    1.3910    0.1580 N   0  0  0  0  0  0  0  0  0  0  0  0
    2.0210    2.4720    0.9260 C   0  0  1  0  0  0  0  0  0  0  0  0
    0.9690    3.1160    1.8340 C   0  0  0  0  0  0  0  0  0  0  0  0
    0.4020    2.0960    2.7630 C   0  0  0  0  0  0  0  0  0  0  0  0
    0.9630    1.9100    4.0050 C   0  0  0  0  0  0  0  0  0  0  0  0
    0.4350    0.9680    4.8440 C   0  0  0  0  0  0  0  0  0  0  0  0
   -0.6530    0.1880    4.4840 C   0  0  0  0  0  0  0  0  0  0  0  0
   -1.2220    0.3680    3.2390 C   0  0  0  0  0  0  0  0  0  0  0  0
   -0.6820    1.3170    2.4070 C   0  0  0  0  0  0  0  0  0  0  0  0
    3.0950    1.9060    1.7600 C   0  0  0  0  0  0  0  0  0  0  0  0
    3.3120    0.6850    1.7810 O   0  0  0  0  0  0  0  0  0  0  0  0
    3.8830    2.7480    2.5380 O   0  0  0  0  0  0  0  0  0  0  0  0
    1.0500    0.5580    0.6560 H   0  0  0  0  0  0  0  0  0  0  0  0
    2.3690    3.2520    0.2490 H   0  0  0  0  0  0  0  0  0  0  0  0
    1.4240    3.8920    2.4650 H   0  0  0  0  0  0  0  0  0  0  0  0
    0.1450    3.5430    1.2520 H   0  0  0  0  0  0  0  0  0  0  0  0
    1.8100    2.5140    4.2980 H   0  0  0  0  0  0  0  0  0  0  0  0
    0.8520    0.7910    5.8360 H   0  0  0  0  0  0  0  0  0  0  0  0
   -1.0410   -0.5430    5.1780 H   0  0  0  0  0  0  0  0  0  0  0  0
   -2.0720   -0.2390    2.9500 H   0  0  0  0  0  0  0  0  0  0  0  0
   -1.0970    1.4860    1.4300 H   0  0  0  0  0  0  0  0  0  0  0  0
  1  9  1  0  0  0  0
  1  2  1  0  0  0  0
  2  3  2  0  0  0  0
  4 12  1  0  0  0  0
  4  2  1  0  0  0  0
  5  4  1  0  0  0  0
  5 13  1  1  0  0  0
  6 14  1  0  0  0  0
  6  5  1  0  0  0  0
  7 16  1  0  0  0  0
  7  5  1  0  0  0  0
  8  7  2  0  0  0  0
 10  1  1  0  0  0  0
 11  4  1  0  0  0  0
 15  6  1  0  0  0  0
 16 20  1  0  0  0  0
 17 16  1  0  0  0  0
 17 18  1  0  0  0  0
 18 23  1  0  0  0  0
 19 18  2  0  0  0  0
 21 17  1  0  0  0  0
 22 17  1  0  0  0  0
 23 35  1  0  0  0  0
 23 24  1  0  0  0  0
 24 36  1  6  0  0  0
 24 32  1  0  0  0  0
 24 25  1  0  0  0  0
 25 37  1  0  0  0  0
 25 26  1  0  0  0  0
 26 27  1  0  0  0  0
 27 39  1  0  0  0  0
 27 28  2  0  0  0  0
 28 40  1  0  0  0  0
 29 28  1  0  0  0  0
 29 41  1  0  0  0  0
 30 29  2  0  0  0  0
 31 26  2  0  0  0  0
 31 30  1  0  0  0  0
 32 33  2  0  0  0  0
 32 34  1  0  0  0  0
 38 25  1  0  0  0  0
 42 30  1  0  0  0  0
 43 31  1  0  0  0  0
M  END
$$$$
