NGG.pdb
 OpenBabel07022418093D

 30 29  0  0  1  0  0  0  0  0999 V2000
   -1.0200   -2.7480    2.7460 N   0  0  0  0  0  0  0  0  0  0  0  0
    0.1300   -1.9950    3.0580 C   0  0  0  0  0  0  0  0  0  0  0  0
   -0.0050   -1.1640    4.0200 O   0  0  0  0  0  0  0  0  0  0  0  0
    1.4300   -2.0950    2.3840 C   0  0  0  0  0  0  0  0  0  0  0  0
    1.2780   -2.7280    1.0370 C   0  0  2  0  0  0  0  0  0  0  0  0
    2.5800   -2.8650    0.3750 N   0  0  0  0  0  0  0  0  0  0  0  0
    0.4270   -1.8450    0.1770 C   0  0  0  0  0  0  0  0  0  0  0  0
   -0.7470   -1.5470    0.4780 O   0  0  0  0  0  0  0  0  0  0  0  0
   -0.9310   -3.7310    2.4120 H   0  0  0  0  0  0  0  0  0  0  0  0
   -1.9890   -2.3590    2.8340 H   0  0  0  0  0  0  0  0  0  0  0  0
    2.1160   -2.6920    3.0490 H   0  0  0  0  0  0  0  0  0  0  0  0
    1.8470   -1.0630    2.3320 H   0  0  0  0  0  0  0  0  0  0  0  0
    0.8580   -3.7270    1.1400 H   0  0  0  0  0  0  0  0  0  0  0  0
    2.5060   -3.6710   -0.2760 H   0  0  0  0  0  0  0  0  0  0  0  0
    3.2750   -3.1230    1.1130 H   0  0  0  0  0  0  0  0  0  0  0  0
    0.9480   -1.3100   -1.0370 N   0  0  0  0  0  0  0  0  0  0  0  0
    0.1520   -0.4530   -1.8650 C   0  0  0  0  0  0  0  0  0  0  0  0
   -0.2180    0.8150   -1.2100 C   0  0  0  0  0  0  0  0  0  0  0  0
   -0.9720    1.6070   -1.8620 O   0  0  0  0  0  0  0  0  0  0  0  0
    1.9100   -1.5520   -1.3070 H   0  0  0  0  0  0  0  0  0  0  0  0
   -0.7600   -1.0340   -2.1780 H   0  0  0  0  0  0  0  0  0  0  0  0
    0.6770   -0.2220   -2.8230 H   0  0  0  0  0  0  0  0  0  0  0  0
    0.2300    1.1650    0.0790 N   0  0  0  0  0  0  0  0  0  0  0  0
   -0.1800    2.4300    0.6650 C   0  0  0  0  0  0  0  0  0  0  0  0
   -1.6440    2.5090    0.7900 C   0  0  0  0  0  0  0  0  0  0  0  0
   -2.1360    3.5620    1.2880 O   0  0  0  0  0  0  0  0  0  0  0  0
   -2.5010    1.4970    0.3950 O   0  0  0  0  0  0  0  0  0  0  0  0
    0.8630    0.5400    0.6110 H   0  0  0  0  0  0  0  0  0  0  0  0
    0.2560    2.5260    1.6800 H   0  0  0  0  0  0  0  0  0  0  0  0
    0.2210    3.2700    0.0530 H   0  0  0  0  0  0  0  0  0  0  0  0
  1 10  1  0  0  0  0
  1  2  1  0  0  0  0
  2  3  2  0  0  0  0
  4 11  1  0  0  0  0
  4  2  1  0  0  0  0
  5 13  1  1  0  0  0
  5  4  1  0  0  0  0
  6  5  1  0  0  0  0
  6 15  1  0  0  0  0
  7  8  2  0  0  0  0
  7  5  1  0  0  0  0
  9  1  1  0  0  0  0
 12  4  1  0  0  0  0
 14  6  1  0  0  0  0
 16  7  1  0  0  0  0
 17 18  1  0  0  0  0
 17 16  1  0  0  0  0
 18 23  1  0  0  0  0
 19 18  2  0  0  0  0
 20 16  1  0  0  0  0
 21 17  1  0  0  0  0
 22 17  1  0  0  0  0
 23 28  1  0  0  0  0
 23 24  1  0  0  0  0
 24 25  1  0  0  0  0
 24 29  1  0  0  0  0
 25 26  1  0  0  0  0
 27 25  2  0  0  0  0
 30 24  1  0  0  0  0
M  END
$$$$
