NGH.pdb
 OpenBabel07022418093D

 40 40  0  0  1  0  0  0  0  0999 V2000
    1.4200   -3.8970   -1.4020 N   0  0  0  0  0  0  0  0  0  0  0  0
    0.5880   -3.7150   -2.5270 C   0  0  0  0  0  0  0  0  0  0  0  0
    0.2040   -4.7430   -3.1660 O   0  0  0  0  0  0  0  0  0  0  0  0
    0.1250   -2.3910   -3.0200 C   0  0  0  0  0  0  0  0  0  0  0  0
    0.6610   -1.2740   -2.1600 C   0  0  2  0  0  0  0  0  0  0  0  0
    2.1080   -1.2690   -2.1640 N   0  0  0  0  0  0  0  0  0  0  0  0
    0.1370   -1.3910   -0.7690 C   0  0  0  0  0  0  0  0  0  0  0  0
    0.9640   -1.4640    0.1710 O   0  0  0  0  0  0  0  0  0  0  0  0
    2.4370   -3.7940   -1.4940 H   0  0  0  0  0  0  0  0  0  0  0  0
    1.0010   -4.1330   -0.4890 H   0  0  0  0  0  0  0  0  0  0  0  0
   -0.9690   -2.3760   -3.0270 H   0  0  0  0  0  0  0  0  0  0  0  0
    0.4780   -2.2990   -4.0630 H   0  0  0  0  0  0  0  0  0  0  0  0
    0.3200   -0.3230   -2.5870 H   0  0  0  0  0  0  0  0  0  0  0  0
    2.5330   -1.4100   -1.2360 H   0  0  0  0  0  0  0  0  0  0  0  0
    2.5020   -1.8620   -2.9140 H   0  0  0  0  0  0  0  0  0  0  0  0
   -1.2540   -1.4200   -0.5040 N   0  0  0  0  0  0  0  0  0  0  0  0
   -1.8150   -1.5200    0.8070 C   0  0  0  0  0  0  0  0  0  0  0  0
   -1.5140   -0.3980    1.7170 C   0  0  0  0  0  0  0  0  0  0  0  0
   -1.9610   -0.4230    2.9210 O   0  0  0  0  0  0  0  0  0  0  0  0
   -1.8900   -1.3620   -1.3440 H   0  0  0  0  0  0  0  0  0  0  0  0
   -2.9060   -1.7350    0.7490 H   0  0  0  0  0  0  0  0  0  0  0  0
   -1.3830   -2.4380    1.2870 H   0  0  0  0  0  0  0  0  0  0  0  0
   -0.7590    0.7550    1.4000 N   0  0  0  0  0  0  0  0  0  0  0  0
   -0.5000    1.8290    2.3350 C   0  0  1  0  0  0  0  0  0  0  0  0
    0.9330    1.9740    2.7360 C   0  0  0  0  0  0  0  0  0  0  0  0
    1.4670    0.7590    3.4020 C   0  0  0  0  0  0  0  0  0  0  0  0
    1.4410    0.4860    4.7760 C   0  0  0  0  0  0  0  0  0  0  0  0
    2.0140   -0.7060    5.0150 N   0  0  0  0  0  0  0  0  0  0  0  0
    2.3970   -1.1800    3.8150 C   0  0  0  0  0  0  0  0  0  0  0  0
    2.0710   -0.3050    2.8520 N   0  0  0  0  0  0  0  0  0  0  0  0
   -1.0460    3.0950    1.8170 C   0  0  0  0  0  0  0  0  0  0  0  0
   -1.6270    3.1160    0.7190 O   0  0  0  0  0  0  0  0  0  0  0  0
   -0.9100    4.2490    2.5490 O   0  0  0  0  0  0  0  0  0  0  0  0
   -0.3710    0.8420    0.4200 H   0  0  0  0  0  0  0  0  0  0  0  0
   -1.0560    1.5420    3.2800 H   0  0  0  0  0  0  0  0  0  0  0  0
    0.9730    2.7860    3.4990 H   0  0  0  0  0  0  0  0  0  0  0  0
    1.5890    2.3120    1.9090 H   0  0  0  0  0  0  0  0  0  0  0  0
    1.0250    1.1350    5.5070 H   0  0  0  0  0  0  0  0  0  0  0  0
    2.1450   -1.1870    5.9520 H   0  0  0  0  0  0  0  0  0  0  0  0
    2.8960   -2.1330    3.6760 H   0  0  0  0  0  0  0  0  0  0  0  0
  1 10  1  0  0  0  0
  2  1  1  0  0  0  0
  3  2  2  0  0  0  0
  4  2  1  0  0  0  0
  4  5  1  0  0  0  0
  5 13  1  6  0  0  0
  5  7  1  0  0  0  0
  6  5  1  0  0  0  0
  6 14  1  0  0  0  0
  7 16  1  0  0  0  0
  7  8  2  0  0  0  0
  9  1  1  0  0  0  0
 11  4  1  0  0  0  0
 12  4  1  0  0  0  0
 15  6  1  0  0  0  0
 16 17  1  0  0  0  0
 17 22  1  0  0  0  0
 17 18  1  0  0  0  0
 18 19  2  0  0  0  0
 20 16  1  0  0  0  0
 21 17  1  0  0  0  0
 23 18  1  0  0  0  0
 23 24  1  0  0  0  0
 24 25  1  0  0  0  0
 24 35  1  1  0  0  0
 25 26  1  0  0  0  0
 25 36  1  0  0  0  0
 26 27  2  0  0  0  0
 27 28  1  0  0  0  0
 27 38  1  0  0  0  0
 28 39  1  0  0  0  0
 29 28  1  0  0  0  0
 30 26  1  0  0  0  0
 30 29  2  0  0  0  0
 31 24  1  0  0  0  0
 31 33  1  0  0  0  0
 32 31  2  0  0  0  0
 34 23  1  0  0  0  0
 37 25  1  0  0  0  0
 40 29  1  0  0  0  0
M  END
$$$$
