NGK.pdb
 OpenBabel07022418093D

 44 43  0  0  1  0  0  0  0  0999 V2000
    1.1040   -6.0510   -0.8770 N   0  0  0  0  0  0  0  0  0  0  0  0
   -0.0410   -5.3270   -0.4860 C   0  0  0  0  0  0  0  0  0  0  0  0
   -1.0200   -6.0100   -0.0320 O   0  0  0  0  0  0  0  0  0  0  0  0
   -0.1290   -3.8410   -0.5870 C   0  0  0  0  0  0  0  0  0  0  0  0
    1.1690   -3.3330   -1.1530 C   0  0  2  0  0  0  0  0  0  0  0  0
    2.2430   -3.7170   -0.2670 N   0  0  0  0  0  0  0  0  0  0  0  0
    1.1580   -1.8740   -1.3930 C   0  0  0  0  0  0  0  0  0  0  0  0
    2.0490   -1.1920   -0.8170 O   0  0  0  0  0  0  0  0  0  0  0  0
    1.3220   -6.1660   -1.8780 H   0  0  0  0  0  0  0  0  0  0  0  0
    1.7210   -6.4620   -0.1640 H   0  0  0  0  0  0  0  0  0  0  0  0
   -0.3490   -3.4630    0.4160 H   0  0  0  0  0  0  0  0  0  0  0  0
   -0.9770   -3.6230   -1.2670 H   0  0  0  0  0  0  0  0  0  0  0  0
    1.3350   -3.8470   -2.1210 H   0  0  0  0  0  0  0  0  0  0  0  0
    2.8980   -4.4020   -0.6960 H   0  0  0  0  0  0  0  0  0  0  0  0
    1.9120   -3.9920    0.6840 H   0  0  0  0  0  0  0  0  0  0  0  0
    0.2260   -1.2140   -2.2140 N   0  0  0  0  0  0  0  0  0  0  0  0
    0.1830    0.2040   -2.4600 C   0  0  0  0  0  0  0  0  0  0  0  0
   -0.0780    1.0250   -1.2520 C   0  0  0  0  0  0  0  0  0  0  0  0
   -0.1000    2.2990   -1.3200 O   0  0  0  0  0  0  0  0  0  0  0  0
   -0.4940   -1.8260   -2.6800 H   0  0  0  0  0  0  0  0  0  0  0  0
   -0.5570    0.4430   -3.2500 H   0  0  0  0  0  0  0  0  0  0  0  0
    1.1840    0.5020   -2.8500 H   0  0  0  0  0  0  0  0  0  0  0  0
   -0.3190    0.4820    0.0340 N   0  0  0  0  0  0  0  0  0  0  0  0
   -0.5630    1.3510    1.1460 C   0  0  1  0  0  0  0  0  0  0  0  0
    0.6240    2.1040    1.6070 C   0  0  0  0  0  0  0  0  0  0  0  0
    0.4140    3.0180    2.7730 C   0  0  0  0  0  0  0  0  0  0  0  0
   -0.0640    2.3040    4.0140 C   0  0  0  0  0  0  0  0  0  0  0  0
    0.9190    1.2540    4.4780 C   0  0  0  0  0  0  0  0  0  0  0  0
    0.3350    0.6460    5.6780 N   0  0  0  0  0  0  0  0  0  0  0  0
   -1.7450    2.2310    0.9110 C   0  0  0  0  0  0  0  0  0  0  0  0
   -2.1660    3.0900    1.6950 O   0  0  0  0  0  0  0  0  0  0  0  0
   -2.4660    2.1010   -0.2920 O   0  0  0  0  0  0  0  0  0  0  0  0
   -0.3350   -0.5670    0.1860 H   0  0  0  0  0  0  0  0  0  0  0  0
   -0.9030    0.6910    2.0010 H   0  0  0  0  0  0  0  0  0  0  0  0
    1.4960    1.4650    1.8560 H   0  0  0  0  0  0  0  0  0  0  0  0
    0.9450    2.7720    0.7540 H   0  0  0  0  0  0  0  0  0  0  0  0
   -0.2110    3.8870    2.5920 H   0  0  0  0  0  0  0  0  0  0  0  0
    1.4400    3.4120    3.0480 H   0  0  0  0  0  0  0  0  0  0  0  0
   -0.1170    3.0650    4.8240 H   0  0  0  0  0  0  0  0  0  0  0  0
   -1.0890    1.8960    3.9090 H   0  0  0  0  0  0  0  0  0  0  0  0
    1.8760    1.7370    4.7600 H   0  0  0  0  0  0  0  0  0  0  0  0
    1.1310    0.4820    3.7430 H   0  0  0  0  0  0  0  0  0  0  0  0
   -0.7200    0.6040    5.5840 H   0  0  0  0  0  0  0  0  0  0  0  0
    0.6370   -0.3700    5.7270 H   0  0  0  0  0  0  0  0  0  0  0  0
  1  2  1  0  0  0  0
  1 10  1  0  0  0  0
  2  3  2  0  0  0  0
  4  2  1  0  0  0  0
  4 11  1  0  0  0  0
  5 13  1  6  0  0  0
  5  4  1  0  0  0  0
  5  6  1  0  0  0  0
  6 15  1  0  0  0  0
  7  5  1  0  0  0  0
  7  8  2  0  0  0  0
  9  1  1  0  0  0  0
 12  4  1  0  0  0  0
 14  6  1  0  0  0  0
 16  7  1  0  0  0  0
 17 16  1  0  0  0  0
 17 18  1  0  0  0  0
 18 23  1  0  0  0  0
 19 18  2  0  0  0  0
 20 16  1  0  0  0  0
 21 17  1  0  0  0  0
 22 17  1  0  0  0  0
 23 33  1  0  0  0  0
 23 24  1  0  0  0  0
 24 25  1  0  0  0  0
 24 34  1  1  0  0  0
 25 35  1  0  0  0  0
 25 26  1  0  0  0  0
 26 38  1  0  0  0  0
 26 27  1  0  0  0  0
 27 28  1  0  0  0  0
 27 39  1  0  0  0  0
 28 41  1  0  0  0  0
 28 29  1  0  0  0  0
 29 44  1  0  0  0  0
 30 24  1  0  0  0  0
 30 31  1  0  0  0  0
 32 30  2  0  0  0  0
 36 25  1  0  0  0  0
 37 26  1  0  0  0  0
 40 27  1  0  0  0  0
 42 28  1  0  0  0  0
 43 29  1  0  0  0  0
M  END
$$$$
