NGM.pdb
 OpenBabel07022418093D

 40 39  0  0  1  0  0  0  0  0999 V2000
   -2.6200   -2.1030    1.6310 N   0  0  0  0  0  0  0  0  0  0  0  0
   -1.3050   -2.5490    1.3470 C   0  0  0  0  0  0  0  0  0  0  0  0
   -0.4270   -2.3450    2.2160 O   0  0  0  0  0  0  0  0  0  0  0  0
   -0.9950   -3.2270    0.0700 C   0  0  0  0  0  0  0  0  0  0  0  0
    0.4480   -3.5840   -0.0770 C   0  0  2  0  0  0  0  0  0  0  0  0
    0.8780   -4.4560    0.9820 N   0  0  0  0  0  0  0  0  0  0  0  0
    1.3900   -2.4880   -0.2420 C   0  0  0  0  0  0  0  0  0  0  0  0
    2.3420   -2.3850    0.5750 O   0  0  0  0  0  0  0  0  0  0  0  0
   -3.0560   -2.2270    2.5800 H   0  0  0  0  0  0  0  0  0  0  0  0
   -3.2190   -1.6290    0.9100 H   0  0  0  0  0  0  0  0  0  0  0  0
   -1.5600   -4.1940    0.0900 H   0  0  0  0  0  0  0  0  0  0  0  0
   -1.4050   -2.6690   -0.7860 H   0  0  0  0  0  0  0  0  0  0  0  0
    0.5480   -4.2160   -1.0190 H   0  0  0  0  0  0  0  0  0  0  0  0
    0.2760   -5.2660    1.1480 H   0  0  0  0  0  0  0  0  0  0  0  0
    1.2210   -3.9710    1.8230 H   0  0  0  0  0  0  0  0  0  0  0  0
    1.2770   -1.5330   -1.2950 N   0  0  0  0  0  0  0  0  0  0  0  0
    2.2330   -0.4880   -1.4010 C   0  0  0  0  0  0  0  0  0  0  0  0
    2.2940    0.4580   -0.2760 C   0  0  0  0  0  0  0  0  0  0  0  0
    3.1920    1.3590   -0.3720 O   0  0  0  0  0  0  0  0  0  0  0  0
    0.4520   -1.6720   -1.9540 H   0  0  0  0  0  0  0  0  0  0  0  0
    2.0430    0.1440   -2.3190 H   0  0  0  0  0  0  0  0  0  0  0  0
    3.2760   -0.8750   -1.5660 H   0  0  0  0  0  0  0  0  0  0  0  0
   -1.8220    0.9510   -0.2520 C   0  0  0  0  0  0  0  0  0  0  0  0
   -0.3780    1.9840   -0.4940 S   0  0  0  0  0  0  0  0  0  0  0  0
   -0.0380    3.0380    0.9340 C   0  0  0  0  0  0  0  0  0  0  0  0
    0.3730    2.2670    2.1610 C   0  0  0  0  0  0  0  0  0  0  0  0
    1.6290    1.4560    1.9380 C   0  0  2  0  0  0  0  0  0  0  0  0
    1.4770    0.4710    0.8730 N   0  0  0  0  0  0  0  0  0  0  0  0
    1.9350    0.7620    3.2030 C   0  0  0  0  0  0  0  0  0  0  0  0
    2.0250   -0.4860    3.1980 O   0  0  0  0  0  0  0  0  0  0  0  0
    2.1320    1.4140    4.4100 O   0  0  0  0  0  0  0  0  0  0  0  0
   -1.5920   -0.1240   -0.2020 H   0  0  0  0  0  0  0  0  0  0  0  0
   -2.4730    1.0760   -1.1590 H   0  0  0  0  0  0  0  0  0  0  0  0
   -2.4360    1.2570    0.6260 H   0  0  0  0  0  0  0  0  0  0  0  0
   -1.0270    3.5180    1.1990 H   0  0  0  0  0  0  0  0  0  0  0  0
    0.6330    3.8700    0.7030 H   0  0  0  0  0  0  0  0  0  0  0  0
    0.6150    2.9950    2.9610 H   0  0  0  0  0  0  0  0  0  0  0  0
   -0.4200    1.5980    2.4890 H   0  0  0  0  0  0  0  0  0  0  0  0
    2.5010    2.1280    1.7070 H   0  0  0  0  0  0  0  0  0  0  0  0
    0.7350   -0.2570    0.9320 H   0  0  0  0  0  0  0  0  0  0  0  0
  1  9  1  0  0  0  0
  2  1  1  0  0  0  0
  2  3  2  0  0  0  0
  4 11  1  0  0  0  0
  4  2  1  0  0  0  0
  5 13  1  6  0  0  0
  5  4  1  0  0  0  0
  5  6  1  0  0  0  0
  6 14  1  0  0  0  0
  6 15  1  0  0  0  0
  7  5  1  0  0  0  0
  7  8  2  0  0  0  0
 10  1  1  0  0  0  0
 12  4  1  0  0  0  0
 16  7  1  0  0  0  0
 17 16  1  0  0  0  0
 17 18  1  0  0  0  0
 18 28  1  0  0  0  0
 19 18  2  0  0  0  0
 20 16  1  0  0  0  0
 21 17  1  0  0  0  0
 22 17  1  0  0  0  0
 23 32  1  0  0  0  0
 23 34  1  0  0  0  0
 24 23  1  0  0  0  0
 24 25  1  0  0  0  0
 25 35  1  0  0  0  0
 25 26  1  0  0  0  0
 26 38  1  0  0  0  0
 26 37  1  0  0  0  0
 27 39  1  6  0  0  0
 27 26  1  0  0  0  0
 27 29  1  0  0  0  0
 28 40  1  0  0  0  0
 28 27  1  0  0  0  0
 29 31  1  0  0  0  0
 30 29  2  0  0  0  0
 33 23  1  0  0  0  0
 36 25  1  0  0  0  0
M  END
$$$$
