NGP.pdb
 OpenBabel07022418093D

 37 37  0  0  1  0  0  0  0  0999 V2000
    1.5350   -3.2880    4.7530 N   0  0  0  0  0  0  0  0  0  0  0  0
    1.6960   -4.2450    3.7320 C   0  0  0  0  0  0  0  0  0  0  0  0
    2.7870   -4.8510    3.6310 O   0  0  0  0  0  0  0  0  0  0  0  0
    0.6070   -4.5390    2.7940 C   0  0  0  0  0  0  0  0  0  0  0  0
   -0.5520   -3.5710    2.8450 C   0  0  2  0  0  0  0  0  0  0  0  0
   -1.5070   -4.0980    1.8420 N   0  0  0  0  0  0  0  0  0  0  0  0
   -0.0530   -2.2370    2.3530 C   0  0  0  0  0  0  0  0  0  0  0  0
    0.7440   -1.5200    3.0080 O   0  0  0  0  0  0  0  0  0  0  0  0
    2.3640   -2.6980    5.0580 H   0  0  0  0  0  0  0  0  0  0  0  0
    0.6010   -3.1520    5.2180 H   0  0  0  0  0  0  0  0  0  0  0  0
    1.0170   -4.5180    1.7400 H   0  0  0  0  0  0  0  0  0  0  0  0
    0.2330   -5.6000    2.9090 H   0  0  0  0  0  0  0  0  0  0  0  0
   -1.0580   -3.5180    3.8040 H   0  0  0  0  0  0  0  0  0  0  0  0
   -2.2620   -3.3960    1.6860 H   0  0  0  0  0  0  0  0  0  0  0  0
   -0.9540   -4.1900    0.9660 H   0  0  0  0  0  0  0  0  0  0  0  0
   -0.4580   -1.6990    1.0990 N   0  0  0  0  0  0  0  0  0  0  0  0
    0.0380   -0.4000    0.6350 C   0  0  0  0  0  0  0  0  0  0  0  0
   -0.5120   -0.0480   -0.6780 C   0  0  0  0  0  0  0  0  0  0  0  0
   -1.3030   -0.8580   -1.2250 O   0  0  0  0  0  0  0  0  0  0  0  0
   -1.1130   -2.2270    0.4980 H   0  0  0  0  0  0  0  0  0  0  0  0
   -0.0670    0.3810    1.3990 H   0  0  0  0  0  0  0  0  0  0  0  0
    1.1440   -0.5490    0.4960 H   0  0  0  0  0  0  0  0  0  0  0  0
   -0.1330    1.1820   -1.2760 N   0  0  0  0  0  0  0  0  0  0  0  0
   -0.6380    1.6130   -2.5880 C   0  0  0  0  0  0  0  0  0  0  0  0
   -0.0340    2.9820   -2.7970 C   0  0  0  0  0  0  0  0  0  0  0  0
    1.2200    2.9860   -1.9400 C   0  0  0  0  0  0  0  0  0  0  0  0
    0.7550    2.1710   -0.7500 C   0  0  1  0  0  0  0  0  0  0  0  0
    0.0860    3.0590    0.2590 C   0  0  0  0  0  0  0  0  0  0  0  0
   -1.1050    2.9330    0.5900 O   0  0  0  0  0  0  0  0  0  0  0  0
    0.8700    4.0610    0.8300 O   0  0  0  0  0  0  0  0  0  0  0  0
   -1.7440    1.6540   -2.5740 H   0  0  0  0  0  0  0  0  0  0  0  0
   -0.2240    0.9030   -3.3180 H   0  0  0  0  0  0  0  0  0  0  0  0
    0.2730    3.1320   -3.8440 H   0  0  0  0  0  0  0  0  0  0  0  0
   -0.7010    3.7950   -2.4840 H   0  0  0  0  0  0  0  0  0  0  0  0
    1.5400    3.9860   -1.6400 H   0  0  0  0  0  0  0  0  0  0  0  0
    2.0500    2.4310   -2.4300 H   0  0  0  0  0  0  0  0  0  0  0  0
    1.6710    1.7410   -0.2930 H   0  0  0  0  0  0  0  0  0  0  0  0
  1  9  1  0  0  0  0
  1 10  1  0  0  0  0
  2  1  1  0  0  0  0
  3  2  2  0  0  0  0
  4  5  1  0  0  0  0
  4 12  1  0  0  0  0
  4  2  1  0  0  0  0
  5 13  1  1  0  0  0
  6  5  1  0  0  0  0
  7  5  1  0  0  0  0
  7  8  2  0  0  0  0
 11  4  1  0  0  0  0
 14  6  1  0  0  0  0
 15  6  1  0  0  0  0
 16  7  1  0  0  0  0
 17 16  1  0  0  0  0
 17 21  1  0  0  0  0
 18 17  1  0  0  0  0
 19 18  2  0  0  0  0
 20 16  1  0  0  0  0
 22 17  1  0  0  0  0
 23 27  1  0  0  0  0
 23 18  1  0  0  0  0
 24 31  1  0  0  0  0
 24 23  1  0  0  0  0
 25 24  1  0  0  0  0
 25 34  1  0  0  0  0
 25 26  1  0  0  0  0
 26 35  1  0  0  0  0
 26 27  1  0  0  0  0
 27 37  1  1  0  0  0
 27 28  1  0  0  0  0
 28 29  2  0  0  0  0
 28 30  1  0  0  0  0
 32 24  1  0  0  0  0
 33 25  1  0  0  0  0
 36 26  1  0  0  0  0
M  END
$$$$
