NGQ.pdb
 OpenBabel07022418093D

 40 39  0  0  1  0  0  0  0  0999 V2000
    4.5310   -1.2550    2.0700 N   0  0  0  0  0  0  0  0  0  0  0  0
    3.8720   -1.8110    0.9510 C   0  0  0  0  0  0  0  0  0  0  0  0
    4.5620   -2.3970    0.0800 O   0  0  0  0  0  0  0  0  0  0  0  0
    2.4130   -1.7210    0.7830 C   0  0  0  0  0  0  0  0  0  0  0  0
    1.9420   -2.3880   -0.4900 C   0  0  2  0  0  0  0  0  0  0  0  0
    2.5150   -1.8120   -1.6650 N   0  0  0  0  0  0  0  0  0  0  0  0
    0.4610   -2.3230   -0.5990 C   0  0  0  0  0  0  0  0  0  0  0  0
   -0.2290   -2.7790    0.3520 O   0  0  0  0  0  0  0  0  0  0  0  0
    5.5680   -1.2780    2.1450 H   0  0  0  0  0  0  0  0  0  0  0  0
    3.9510   -0.8200    2.8180 H   0  0  0  0  0  0  0  0  0  0  0  0
    2.0820   -0.6570    0.7590 H   0  0  0  0  0  0  0  0  0  0  0  0
    1.9190   -2.1700    1.6680 H   0  0  0  0  0  0  0  0  0  0  0  0
    2.2310   -3.4600   -0.4080 H   0  0  0  0  0  0  0  0  0  0  0  0
    3.3900   -2.2890   -1.9670 H   0  0  0  0  0  0  0  0  0  0  0  0
    2.5950   -0.7810   -1.6430 H   0  0  0  0  0  0  0  0  0  0  0  0
   -0.1630   -1.7680   -1.7330 N   0  0  0  0  0  0  0  0  0  0  0  0
   -1.5860   -1.7040   -1.8180 C   0  0  0  0  0  0  0  0  0  0  0  0
   -2.2330   -0.8520   -0.7900 C   0  0  0  0  0  0  0  0  0  0  0  0
   -3.5040   -0.7560   -0.7450 O   0  0  0  0  0  0  0  0  0  0  0  0
    0.4350   -1.4080   -2.5060 H   0  0  0  0  0  0  0  0  0  0  0  0
   -1.9710   -2.7440   -1.7190 H   0  0  0  0  0  0  0  0  0  0  0  0
   -1.8990   -1.3590   -2.8470 H   0  0  0  0  0  0  0  0  0  0  0  0
    1.7520    0.9390    3.0780 N   0  0  0  0  0  0  0  0  0  0  0  0
    0.3240    1.1440    3.0060 C   0  0  0  0  0  0  0  0  0  0  0  0
   -0.1650    2.2740    3.0330 O   0  0  0  0  0  0  0  0  0  0  0  0
   -0.4880   -0.0630    2.9040 C   0  0  0  0  0  0  0  0  0  0  0  0
   -1.9010    0.1180    2.5100 C   0  0  0  0  0  0  0  0  0  0  0  0
   -2.1550    0.7100    1.1630 C   0  0  2  0  0  0  0  0  0  0  0  0
   -1.5160   -0.1130    0.1700 N   0  0  0  0  0  0  0  0  0  0  0  0
   -2.0070    2.1420    1.0130 C   0  0  0  0  0  0  0  0  0  0  0  0
   -1.2310    2.6230    0.1590 O   0  0  0  0  0  0  0  0  0  0  0  0
   -2.7240    3.0220    1.8060 O   0  0  0  0  0  0  0  0  0  0  0  0
    2.1870    0.4960    3.8920 H   0  0  0  0  0  0  0  0  0  0  0  0
    2.3100    1.2620    2.2700 H   0  0  0  0  0  0  0  0  0  0  0  0
   -0.4700   -0.5670    3.9300 H   0  0  0  0  0  0  0  0  0  0  0  0
    0.0170   -0.8320    2.2480 H   0  0  0  0  0  0  0  0  0  0  0  0
   -2.4350    0.7440    3.2920 H   0  0  0  0  0  0  0  0  0  0  0  0
   -2.3890   -0.9070    2.5350 H   0  0  0  0  0  0  0  0  0  0  0  0
   -3.2840    0.5260    0.9750 H   0  0  0  0  0  0  0  0  0  0  0  0
   -0.4710   -0.1200    0.1990 H   0  0  0  0  0  0  0  0  0  0  0  0
  1  9  1  0  0  0  0
  1 10  1  0  0  0  0
  2  1  1  0  0  0  0
  3  2  2  0  0  0  0
  4  2  1  0  0  0  0
  4 12  1  0  0  0  0
  5 13  1  1  0  0  0
  5  4  1  0  0  0  0
  6 15  1  0  0  0  0
  6  5  1  0  0  0  0
  7  5  1  0  0  0  0
  7  8  2  0  0  0  0
 11  4  1  0  0  0  0
 14  6  1  0  0  0  0
 16  7  1  0  0  0  0
 17 16  1  0  0  0  0
 17 21  1  0  0  0  0
 17 18  1  0  0  0  0
 18 19  2  0  0  0  0
 18 29  1  0  0  0  0
 20 16  1  0  0  0  0
 22 17  1  0  0  0  0
 23 33  1  0  0  0  0
 24 25  2  0  0  0  0
 24 23  1  0  0  0  0
 26 24  1  0  0  0  0
 26 35  1  0  0  0  0
 27 38  1  0  0  0  0
 27 26  1  0  0  0  0
 27 37  1  0  0  0  0
 28 39  1  6  0  0  0
 28 27  1  0  0  0  0
 29 40  1  0  0  0  0
 29 28  1  0  0  0  0
 30 28  1  0  0  0  0
 30 32  1  0  0  0  0
 31 30  2  0  0  0  0
 34 23  1  0  0  0  0
 36 26  1  0  0  0  0
M  END
$$$$
