NGS.pdb
 OpenBabel07022418093D

 34 33  0  0  1  0  0  0  0  0999 V2000
   -1.6850   -2.3000    0.4250 N   0  0  0  0  0  0  0  0  0  0  0  0
   -0.7480   -2.6540    1.4240 C   0  0  0  0  0  0  0  0  0  0  0  0
   -0.9980   -2.3800    2.6270 O   0  0  0  0  0  0  0  0  0  0  0  0
    0.5110   -3.3310    1.0980 C   0  0  0  0  0  0  0  0  0  0  0  0
    1.7020   -2.5950    1.6340 C   0  0  2  0  0  0  0  0  0  0  0  0
    1.7460   -2.4300    3.0500 N   0  0  0  0  0  0  0  0  0  0  0  0
    1.9440   -1.3090    0.9180 C   0  0  0  0  0  0  0  0  0  0  0  0
    2.2100   -0.2980    1.6040 O   0  0  0  0  0  0  0  0  0  0  0  0
   -1.8780   -2.9580   -0.3560 H   0  0  0  0  0  0  0  0  0  0  0  0
   -2.2040   -1.4040    0.4200 H   0  0  0  0  0  0  0  0  0  0  0  0
    0.4770   -4.3900    1.5060 H   0  0  0  0  0  0  0  0  0  0  0  0
    0.6220   -3.4630    0.0190 H   0  0  0  0  0  0  0  0  0  0  0  0
    2.5960   -3.2500    1.3700 H   0  0  0  0  0  0  0  0  0  0  0  0
    1.8940   -3.2930    3.5980 H   0  0  0  0  0  0  0  0  0  0  0  0
    1.0720   -1.7870    3.4730 H   0  0  0  0  0  0  0  0  0  0  0  0
    1.8730   -1.2420   -0.4900 N   0  0  0  0  0  0  0  0  0  0  0  0
    2.0870   -0.0440   -1.2520 C   0  0  0  0  0  0  0  0  0  0  0  0
    1.1150    1.0290   -0.9530 C   0  0  0  0  0  0  0  0  0  0  0  0
    1.2430    2.1560   -1.5580 O   0  0  0  0  0  0  0  0  0  0  0  0
    1.6550   -2.1130   -1.0370 H   0  0  0  0  0  0  0  0  0  0  0  0
    2.0100   -0.2640   -2.3400 H   0  0  0  0  0  0  0  0  0  0  0  0
    3.1130    0.3290   -1.0440 H   0  0  0  0  0  0  0  0  0  0  0  0
   -2.1220    1.4690   -1.6810 O   0  0  0  0  0  0  0  0  0  0  0  0
   -2.2580    1.7730   -0.3240 C   0  0  0  0  0  0  0  0  0  0  0  0
   -0.8450    2.0940    0.1520 C   0  0  2  0  0  0  0  0  0  0  0  0
    0.0360    0.9580   -0.0570 N   0  0  0  0  0  0  0  0  0  0  0  0
   -0.9340    2.4700    1.5750 C   0  0  0  0  0  0  0  0  0  0  0  0
   -1.6630    3.4330    1.9060 O   0  0  0  0  0  0  0  0  0  0  0  0
   -0.2370    1.7930    2.5520 O   0  0  0  0  0  0  0  0  0  0  0  0
   -1.8770    0.5320   -1.8320 H   0  0  0  0  0  0  0  0  0  0  0  0
   -2.8810    2.6820   -0.1720 H   0  0  0  0  0  0  0  0  0  0  0  0
   -2.6380    0.9540    0.2870 H   0  0  0  0  0  0  0  0  0  0  0  0
   -0.5180    2.9560   -0.5030 H   0  0  0  0  0  0  0  0  0  0  0  0
   -0.1520    0.0840    0.4550 H   0  0  0  0  0  0  0  0  0  0  0  0
  1  2  1  0  0  0  0
  2  3  2  0  0  0  0
  4  2  1  0  0  0  0
  4 11  1  0  0  0  0
  4  5  1  0  0  0  0
  5 13  1  6  0  0  0
  5  6  1  0  0  0  0
  6 15  1  0  0  0  0
  6 14  1  0  0  0  0
  7  8  2  0  0  0  0
  7  5  1  0  0  0  0
  9  1  1  0  0  0  0
 10  1  1  0  0  0  0
 12  4  1  0  0  0  0
 16  7  1  0  0  0  0
 17 22  1  0  0  0  0
 17 18  1  0  0  0  0
 17 16  1  0  0  0  0
 18 26  1  0  0  0  0
 19 18  2  0  0  0  0
 20 16  1  0  0  0  0
 21 17  1  0  0  0  0
 23 24  1  0  0  0  0
 24 31  1  0  0  0  0
 24 25  1  0  0  0  0
 24 32  1  0  0  0  0
 25 33  1  6  0  0  0
 25 27  1  0  0  0  0
 26 25  1  0  0  0  0
 26 34  1  0  0  0  0
 27 28  2  0  0  0  0
 27 29  1  0  0  0  0
 30 23  1  0  0  0  0
M  END
$$$$
