NGT.pdb
 OpenBabel07022418093D

 37 36  0  0  1  0  0  0  0  0999 V2000
   -0.8980   -4.3460    4.1470 N   0  0  0  0  0  0  0  0  0  0  0  0
   -0.3390   -4.4230    2.8470 C   0  0  0  0  0  0  0  0  0  0  0  0
   -0.7030   -5.4200    2.1390 O   0  0  0  0  0  0  0  0  0  0  0  0
    0.6120   -3.4250    2.3110 C   0  0  0  0  0  0  0  0  0  0  0  0
    1.0170   -3.7930    0.9030 C   0  0  2  0  0  0  0  0  0  0  0  0
    1.6470   -5.0920    0.9170 N   0  0  0  0  0  0  0  0  0  0  0  0
    1.9150   -2.7840    0.3000 C   0  0  0  0  0  0  0  0  0  0  0  0
    3.0620   -3.1140   -0.1180 O   0  0  0  0  0  0  0  0  0  0  0  0
   -0.3690   -3.9270    4.9400 H   0  0  0  0  0  0  0  0  0  0  0  0
   -1.8570   -4.7090    4.3420 H   0  0  0  0  0  0  0  0  0  0  0  0
    0.2070   -2.4080    2.3870 H   0  0  0  0  0  0  0  0  0  0  0  0
    1.5160   -3.4600    2.9790 H   0  0  0  0  0  0  0  0  0  0  0  0
    0.0950   -3.8190    0.2760 H   0  0  0  0  0  0  0  0  0  0  0  0
    1.0040   -5.8280    0.5290 H   0  0  0  0  0  0  0  0  0  0  0  0
    2.5430   -5.0310    0.3950 H   0  0  0  0  0  0  0  0  0  0  0  0
    1.5110   -1.4200    0.1750 N   0  0  0  0  0  0  0  0  0  0  0  0
    2.3300   -0.4080   -0.3940 C   0  0  0  0  0  0  0  0  0  0  0  0
    1.7550    0.9460   -0.4430 C   0  0  0  0  0  0  0  0  0  0  0  0
    2.4470    1.9090   -0.9480 O   0  0  0  0  0  0  0  0  0  0  0  0
    0.5660   -1.2100    0.5330 H   0  0  0  0  0  0  0  0  0  0  0  0
    3.3630   -0.4080    0.0490 H   0  0  0  0  0  0  0  0  0  0  0  0
    2.5390   -0.6800   -1.4760 H   0  0  0  0  0  0  0  0  0  0  0  0
   -2.3660    2.0100   -0.5160 C   0  0  0  0  0  0  0  0  0  0  0  0
   -1.2000    2.8260   -0.9950 C   0  0  1  0  0  0  0  0  0  0  0  0
   -1.6080    4.1580   -1.0570 O   0  0  0  0  0  0  0  0  0  0  0  0
    0.0030    2.7300   -0.0840 C   0  0  2  0  0  0  0  0  0  0  0  0
    0.4750    1.3430    0.0170 N   0  0  0  0  0  0  0  0  0  0  0  0
   -0.2450    3.3080    1.2490 C   0  0  0  0  0  0  0  0  0  0  0  0
   -0.0560    2.6380    2.3200 O   0  0  0  0  0  0  0  0  0  0  0  0
   -0.6940    4.5990    1.4010 O   0  0  0  0  0  0  0  0  0  0  0  0
   -2.0820    1.1420    0.1020 H   0  0  0  0  0  0  0  0  0  0  0  0
   -2.9330    1.6890   -1.4350 H   0  0  0  0  0  0  0  0  0  0  0  0
   -3.1010    2.6030    0.0790 H   0  0  0  0  0  0  0  0  0  0  0  0
   -0.9000    2.5400   -2.0170 H   0  0  0  0  0  0  0  0  0  0  0  0
   -1.1390    4.6360   -1.8130 H   0  0  0  0  0  0  0  0  0  0  0  0
    0.8160    3.3120   -0.5570 H   0  0  0  0  0  0  0  0  0  0  0  0
   -0.1330    0.6070    0.4360 H   0  0  0  0  0  0  0  0  0  0  0  0
  1 10  1  0  0  0  0
  1  9  1  0  0  0  0
  2  1  1  0  0  0  0
  3  2  2  0  0  0  0
  4 11  1  0  0  0  0
  4  2  1  0  0  0  0
  4 12  1  0  0  0  0
  5 13  1  6  0  0  0
  5  6  1  0  0  0  0
  5  4  1  0  0  0  0
  7  5  1  0  0  0  0
  8  7  2  0  0  0  0
 14  6  1  0  0  0  0
 15  6  1  0  0  0  0
 16  7  1  0  0  0  0
 16 20  1  0  0  0  0
 17 21  1  0  0  0  0
 17 16  1  0  0  0  0
 18 17  1  0  0  0  0
 18 27  1  0  0  0  0
 19 18  2  0  0  0  0
 22 17  1  0  0  0  0
 23 33  1  0  0  0  0
 23 31  1  0  0  0  0
 24 34  1  6  0  0  0
 24 23  1  0  0  0  0
 24 26  1  0  0  0  0
 25 24  1  0  0  0  0
 26 36  1  6  0  0  0
 26 27  1  0  0  0  0
 26 28  1  0  0  0  0
 27 37  1  0  0  0  0
 28 30  2  0  0  0  0
 28 29  1  0  0  0  0
 32 23  1  0  0  0  0
 35 25  1  0  0  0  0
M  END
$$$$
