NGV.pdb
 OpenBabel07022418093D

 39 38  0  0  1  0  0  0  0  0999 V2000
    5.5690   -2.3630    0.3420 N   0  0  0  0  0  0  0  0  0  0  0  0
    4.4540   -2.8900    1.0290 C   0  0  0  0  0  0  0  0  0  0  0  0
    4.6170   -3.4790    2.1120 O   0  0  0  0  0  0  0  0  0  0  0  0
    3.1080   -2.7360    0.4560 C   0  0  0  0  0  0  0  0  0  0  0  0
    2.1120   -3.3720    1.3940 C   0  0  2  0  0  0  0  0  0  0  0  0
    2.4500   -4.7720    1.5290 N   0  0  0  0  0  0  0  0  0  0  0  0
    0.7170   -3.2480    0.9490 C   0  0  0  0  0  0  0  0  0  0  0  0
    0.0380   -4.2900    0.7690 O   0  0  0  0  0  0  0  0  0  0  0  0
    6.0900   -2.9100   -0.3470 H   0  0  0  0  0  0  0  0  0  0  0  0
    5.8540   -1.3830    0.5570 H   0  0  0  0  0  0  0  0  0  0  0  0
    2.8490   -1.6780    0.2410 H   0  0  0  0  0  0  0  0  0  0  0  0
    3.1080   -3.2430   -0.5340 H   0  0  0  0  0  0  0  0  0  0  0  0
    2.1940   -2.9380    2.4260 H   0  0  0  0  0  0  0  0  0  0  0  0
    1.6180   -5.2580    1.9100 H   0  0  0  0  0  0  0  0  0  0  0  0
    2.6630   -5.2130    0.6010 H   0  0  0  0  0  0  0  0  0  0  0  0
    0.1130   -1.9550    0.7160 N   0  0  0  0  0  0  0  0  0  0  0  0
   -1.2420   -1.9540    0.2900 C   0  0  0  0  0  0  0  0  0  0  0  0
   -1.8580   -0.6530    0.0540 C   0  0  0  0  0  0  0  0  0  0  0  0
   -3.0590   -0.6360   -0.3260 O   0  0  0  0  0  0  0  0  0  0  0  0
    0.7370   -1.1550    0.8850 H   0  0  0  0  0  0  0  0  0  0  0  0
   -1.4140   -2.6420   -0.5870 H   0  0  0  0  0  0  0  0  0  0  0  0
   -1.8360   -2.4440    1.1200 H   0  0  0  0  0  0  0  0  0  0  0  0
   -0.6910    3.0670    1.7760 C   0  0  0  0  0  0  0  0  0  0  0  0
   -2.0450    2.7360    1.1820 C   0  0  0  0  0  0  0  0  0  0  0  0
   -3.0030    2.1720    2.1960 C   0  0  0  0  0  0  0  0  0  0  0  0
   -1.8930    1.8650   -0.0350 C   0  0  2  0  0  0  0  0  0  0  0  0
   -1.2470    0.6200    0.2080 N   0  0  0  0  0  0  0  0  0  0  0  0
   -1.3190    2.6350   -1.1650 C   0  0  0  0  0  0  0  0  0  0  0  0
   -1.7770    3.7560   -1.5030 O   0  0  0  0  0  0  0  0  0  0  0  0
   -0.2450    2.1710   -1.9220 O   0  0  0  0  0  0  0  0  0  0  0  0
   -0.4060    2.3740    2.5850 H   0  0  0  0  0  0  0  0  0  0  0  0
    0.0460    3.0960    0.9470 H   0  0  0  0  0  0  0  0  0  0  0  0
   -0.6980    4.0900    2.2170 H   0  0  0  0  0  0  0  0  0  0  0  0
   -2.4760    3.7330    0.8770 H   0  0  0  0  0  0  0  0  0  0  0  0
   -3.1920    2.9810    2.9460 H   0  0  0  0  0  0  0  0  0  0  0  0
   -2.6160    1.3180    2.7580 H   0  0  0  0  0  0  0  0  0  0  0  0
   -3.9620    1.9890    1.6910 H   0  0  0  0  0  0  0  0  0  0  0  0
   -2.9490    1.6200   -0.3620 H   0  0  0  0  0  0  0  0  0  0  0  0
   -0.2310    0.5770    0.5300 H   0  0  0  0  0  0  0  0  0  0  0  0
  1 10  1  0  0  0  0
  1  2  1  0  0  0  0
  2  3  2  0  0  0  0
  4  2  1  0  0  0  0
  4  5  1  0  0  0  0
  5  6  1  0  0  0  0
  5 13  1  1  0  0  0
  6 14  1  0  0  0  0
  7  5  1  0  0  0  0
  8  7  2  0  0  0  0
  9  1  1  0  0  0  0
 11  4  1  0  0  0  0
 12  4  1  0  0  0  0
 15  6  1  0  0  0  0
 16 20  1  0  0  0  0
 16  7  1  0  0  0  0
 17 16  1  0  0  0  0
 17 22  1  0  0  0  0
 18 27  1  0  0  0  0
 18 17  1  0  0  0  0
 19 18  2  0  0  0  0
 21 17  1  0  0  0  0
 23 33  1  0  0  0  0
 23 31  1  0  0  0  0
 24 23  1  0  0  0  0
 24 25  1  0  0  0  0
 25 36  1  0  0  0  0
 25 35  1  0  0  0  0
 26 38  1  6  0  0  0
 26 27  1  0  0  0  0
 26 24  1  0  0  0  0
 27 39  1  0  0  0  0
 28 26  1  0  0  0  0
 29 28  1  0  0  0  0
 30 28  2  0  0  0  0
 32 23  1  0  0  0  0
 34 24  1  0  0  0  0
 37 25  1  0  0  0  0
M  END
$$$$
