NGW.pdb
 OpenBabel07022418093D

 47 48  0  0  1  0  0  0  0  0999 V2000
    2.8610    4.2040    5.5870 N   0  0  0  0  0  0  0  0  0  0  0  0
    3.5900    3.0670    5.1560 C   0  0  0  0  0  0  0  0  0  0  0  0
    4.7700    2.9260    5.5220 O   0  0  0  0  0  0  0  0  0  0  0  0
    2.9610    2.0400    4.2710 C   0  0  0  0  0  0  0  0  0  0  0  0
    3.9490    0.9360    3.9550 C   0  0  2  0  0  0  0  0  0  0  0  0
    5.0810    1.5160    3.2850 N   0  0  0  0  0  0  0  0  0  0  0  0
    3.2490   -0.0940    3.1610 C   0  0  0  0  0  0  0  0  0  0  0  0
    2.2080   -0.6490    3.6410 O   0  0  0  0  0  0  0  0  0  0  0  0
    3.2950    4.9610    6.1290 H   0  0  0  0  0  0  0  0  0  0  0  0
    1.8460    4.3080    5.3620 H   0  0  0  0  0  0  0  0  0  0  0  0
    2.6530    2.5730    3.3520 H   0  0  0  0  0  0  0  0  0  0  0  0
    2.0450    1.6210    4.7510 H   0  0  0  0  0  0  0  0  0  0  0  0
    4.2890    0.5220    4.9470 H   0  0  0  0  0  0  0  0  0  0  0  0
    4.7520    2.1750    2.5530 H   0  0  0  0  0  0  0  0  0  0  0  0
    5.6690    0.7920    2.8380 H   0  0  0  0  0  0  0  0  0  0  0  0
    3.6500   -0.5310    1.8690 N   0  0  0  0  0  0  0  0  0  0  0  0
    2.9000   -1.5530    1.1540 C   0  0  0  0  0  0  0  0  0  0  0  0
    1.5280   -1.0510    0.9430 C   0  0  0  0  0  0  0  0  0  0  0  0
    1.1740    0.0650    1.3410 O   0  0  0  0  0  0  0  0  0  0  0  0
    4.4870   -0.1100    1.4430 H   0  0  0  0  0  0  0  0  0  0  0  0
    3.4100   -1.8390    0.2230 H   0  0  0  0  0  0  0  0  0  0  0  0
    2.8940   -2.4820    1.7850 H   0  0  0  0  0  0  0  0  0  0  0  0
    0.6060   -1.8710    0.2710 N   0  0  0  0  0  0  0  0  0  0  0  0
   -0.7840   -1.5040   -0.0080 C   0  0  1  0  0  0  0  0  0  0  0  0
   -0.8820   -1.3350   -1.4960 C   0  0  0  0  0  0  0  0  0  0  0  0
   -2.2160   -0.9820   -2.0010 C   0  0  0  0  0  0  0  0  0  0  0  0
   -2.6810    0.3180   -2.2500 C   0  0  0  0  0  0  0  0  0  0  0  0
   -3.9520    0.2540   -2.6750 N   0  0  0  0  0  0  0  0  0  0  0  0
   -4.3790   -1.0280   -2.7300 C   0  0  0  0  0  0  0  0  0  0  0  0
   -5.5760   -1.5940   -3.1080 C   0  0  0  0  0  0  0  0  0  0  0  0
   -5.6990   -2.9600   -3.0700 C   0  0  0  0  0  0  0  0  0  0  0  0
   -4.6500   -3.7570   -2.6610 C   0  0  0  0  0  0  0  0  0  0  0  0
   -3.4710   -3.1550   -2.2900 C   0  0  0  0  0  0  0  0  0  0  0  0
   -3.2910   -1.7870   -2.3090 C   0  0  0  0  0  0  0  0  0  0  0  0
   -1.7300   -2.3850    0.6340 C   0  0  0  0  0  0  0  0  0  0  0  0
   -2.9650   -2.2000    0.6330 O   0  0  0  0  0  0  0  0  0  0  0  0
   -1.2680   -3.5180    1.3020 O   0  0  0  0  0  0  0  0  0  0  0  0
    0.9030   -2.8000   -0.0610 H   0  0  0  0  0  0  0  0  0  0  0  0
   -0.8730   -0.4650    0.4490 H   0  0  0  0  0  0  0  0  0  0  0  0
   -0.1080   -0.6330   -1.8860 H   0  0  0  0  0  0  0  0  0  0  0  0
   -0.6240   -2.3360   -1.9590 H   0  0  0  0  0  0  0  0  0  0  0  0
   -2.0510    1.1870   -2.0980 H   0  0  0  0  0  0  0  0  0  0  0  0
   -4.5010    1.1020   -2.9200 H   0  0  0  0  0  0  0  0  0  0  0  0
   -6.4180   -1.0110   -3.4330 H   0  0  0  0  0  0  0  0  0  0  0  0
   -6.6380   -3.4560   -3.3640 H   0  0  0  0  0  0  0  0  0  0  0  0
   -4.7530   -4.8300   -2.6330 H   0  0  0  0  0  0  0  0  0  0  0  0
   -2.6020   -3.7370   -1.9560 H   0  0  0  0  0  0  0  0  0  0  0  0
  1  9  1  0  0  0  0
  2  3  2  0  0  0  0
  2  1  1  0  0  0  0
  4 12  1  0  0  0  0
  4  2  1  0  0  0  0
  5  4  1  0  0  0  0
  5 13  1  1  0  0  0
  6  5  1  0  0  0  0
  7  8  2  0  0  0  0
  7  5  1  0  0  0  0
 10  1  1  0  0  0  0
 11  4  1  0  0  0  0
 14  6  1  0  0  0  0
 15  6  1  0  0  0  0
 16  7  1  0  0  0  0
 17 22  1  0  0  0  0
 17 16  1  0  0  0  0
 18 17  1  0  0  0  0
 18 19  2  0  0  0  0
 20 16  1  0  0  0  0
 21 17  1  0  0  0  0
 23 18  1  0  0  0  0
 24 23  1  0  0  0  0
 24 39  1  1  0  0  0
 24 35  1  0  0  0  0
 25 24  1  0  0  0  0
 26 25  1  0  0  0  0
 27 42  1  0  0  0  0
 27 26  2  0  0  0  0
 28 27  1  0  0  0  0
 29 28  1  0  0  0  0
 29 34  1  0  0  0  0
 30 31  1  0  0  0  0
 30 29  2  0  0  0  0
 31 32  2  0  0  0  0
 32 46  1  0  0  0  0
 32 33  1  0  0  0  0
 33 47  1  0  0  0  0
 34 33  2  0  0  0  0
 34 26  1  0  0  0  0
 35 37  1  0  0  0  0
 36 35  2  0  0  0  0
 38 23  1  0  0  0  0
 40 25  1  0  0  0  0
 41 25  1  0  0  0  0
 43 28  1  0  0  0  0
 44 30  1  0  0  0  0
 45 31  1  0  0  0  0
M  END
$$$$
