NHF.pdb
 OpenBabel07022418093D

 53 54  0  0  1  0  0  0  0  0999 V2000
    2.1030   -2.6610    4.0150 N   0  0  0  0  0  0  0  0  0  0  0  0
    3.1180   -2.9830    3.0970 C   0  0  0  0  0  0  0  0  0  0  0  0
    3.1610   -4.1620    2.6590 O   0  0  0  0  0  0  0  0  0  0  0  0
    4.1460   -2.0520    2.6000 C   0  0  0  0  0  0  0  0  0  0  0  0
    4.0200   -0.6660    3.1750 C   0  0  2  0  0  0  0  0  0  0  0  0
    4.1420   -0.6880    4.6010 N   0  0  0  0  0  0  0  0  0  0  0  0
    2.8280    0.0510    2.6970 C   0  0  0  0  0  0  0  0  0  0  0  0
    2.0470    0.5650    3.5340 O   0  0  0  0  0  0  0  0  0  0  0  0
    1.1110   -2.6810    3.6890 H   0  0  0  0  0  0  0  0  0  0  0  0
    2.2590   -2.4010    5.0080 H   0  0  0  0  0  0  0  0  0  0  0  0
    5.1580   -2.4180    2.8410 H   0  0  0  0  0  0  0  0  0  0  0  0
    4.0510   -1.9740    1.5040 H   0  0  0  0  0  0  0  0  0  0  0  0
    4.9120   -0.0920    2.7860 H   0  0  0  0  0  0  0  0  0  0  0  0
    4.8080    0.0280    4.9780 H   0  0  0  0  0  0  0  0  0  0  0  0
    4.5330   -1.6140    4.9230 H   0  0  0  0  0  0  0  0  0  0  0  0
    2.5030    0.2010    1.3250 N   0  0  0  0  0  0  0  0  0  0  0  0
    1.2660    0.9490    0.9210 C   0  0  1  0  0  0  0  0  0  0  0  0
    1.6830    2.0690    0.0330 C   0  0  0  0  0  0  0  0  0  0  0  0
    0.5600    2.8900   -0.4280 C   0  0  0  0  0  0  0  0  0  0  0  0
    0.0390    3.9990    0.2470 C   0  0  0  0  0  0  0  0  0  0  0  0
   -0.9640    4.4560   -0.4990 N   0  0  0  0  0  0  0  0  0  0  0  0
   -1.0930    3.7050   -1.5850 C   0  0  0  0  0  0  0  0  0  0  0  0
   -0.1590    2.7450   -1.5400 N   0  0  0  0  0  0  0  0  0  0  0  0
    0.4310   -0.0280    0.2040 C   0  0  0  0  0  0  0  0  0  0  0  0
    0.9950   -1.1370   -0.1230 O   0  0  0  0  0  0  0  0  0  0  0  0
    3.1190   -0.2070    0.5930 H   0  0  0  0  0  0  0  0  0  0  0  0
    0.7680    1.2900    1.8280 H   0  0  0  0  0  0  0  0  0  0  0  0
    2.4750    2.7120    0.4950 H   0  0  0  0  0  0  0  0  0  0  0  0
    2.1840    1.6860   -0.9120 H   0  0  0  0  0  0  0  0  0  0  0  0
    0.4320    4.3440    1.1800 H   0  0  0  0  0  0  0  0  0  0  0  0
   -1.5460    5.3020   -0.2260 H   0  0  0  0  0  0  0  0  0  0  0  0
   -1.8160    3.8360   -2.3650 H   0  0  0  0  0  0  0  0  0  0  0  0
   -0.9270    0.1300   -0.1520 N   0  0  0  0  0  0  0  0  0  0  0  0
   -1.5890   -0.9710   -0.8580 C   0  0  1  0  0  0  0  0  0  0  0  0
   -2.5610   -1.6520    0.1030 C   0  0  0  0  0  0  0  0  0  0  0  0
   -3.2600   -2.7750   -0.5580 C   0  0  0  0  0  0  0  0  0  0  0  0
   -2.6900   -4.0420   -0.5610 C   0  0  0  0  0  0  0  0  0  0  0  0
   -3.3800   -5.0550   -1.1680 C   0  0  0  0  0  0  0  0  0  0  0  0
   -4.6030   -4.9090   -1.7780 C   0  0  0  0  0  0  0  0  0  0  0  0
   -5.1500   -3.6350   -1.7610 C   0  0  0  0  0  0  0  0  0  0  0  0
   -4.4880   -2.5980   -1.1630 C   0  0  0  0  0  0  0  0  0  0  0  0
   -2.2530   -0.5170   -2.0910 C   0  0  0  0  0  0  0  0  0  0  0  0
   -2.2850    0.6930   -2.3920 O   0  0  0  0  0  0  0  0  0  0  0  0
   -2.8700   -1.4170   -2.9750 O   0  0  0  0  0  0  0  0  0  0  0  0
   -1.4150    0.9950    0.1010 H   0  0  0  0  0  0  0  0  0  0  0  0
   -0.8260   -1.7260   -1.1200 H   0  0  0  0  0  0  0  0  0  0  0  0
   -1.9880   -1.9700    0.9850 H   0  0  0  0  0  0  0  0  0  0  0  0
   -3.2890   -0.8860    0.4150 H   0  0  0  0  0  0  0  0  0  0  0  0
   -1.7420   -4.1990   -0.0980 H   0  0  0  0  0  0  0  0  0  0  0  0
   -2.9590   -6.0700   -1.1890 H   0  0  0  0  0  0  0  0  0  0  0  0
   -5.1230   -5.7270   -2.2490 H   0  0  0  0  0  0  0  0  0  0  0  0
   -6.1120   -3.4970   -2.2360 H   0  0  0  0  0  0  0  0  0  0  0  0
   -4.9520   -1.6120   -1.1720 H   0  0  0  0  0  0  0  0  0  0  0  0
  1 10  1  0  0  0  0
  2  1  1  0  0  0  0
  3  2  2  0  0  0  0
  4 11  1  0  0  0  0
  4  2  1  0  0  0  0
  4  5  1  0  0  0  0
  5 13  1  6  0  0  0
  5  6  1  0  0  0  0
  6 15  1  0  0  0  0
  6 14  1  0  0  0  0
  7  5  1  0  0  0  0
  7  8  2  0  0  0  0
  9  1  1  0  0  0  0
 12  4  1  0  0  0  0
 16  7  1  0  0  0  0
 17 16  1  0  0  0  0
 17 27  1  1  0  0  0
 18 28  1  0  0  0  0
 18 17  1  0  0  0  0
 19 18  1  0  0  0  0
 19 20  2  0  0  0  0
 20 30  1  0  0  0  0
 21 31  1  0  0  0  0
 21 20  1  0  0  0  0
 22 23  2  0  0  0  0
 22 21  1  0  0  0  0
 23 19  1  0  0  0  0
 24 17  1  0  0  0  0
 25 24  2  0  0  0  0
 26 16  1  0  0  0  0
 29 18  1  0  0  0  0
 32 22  1  0  0  0  0
 33 45  1  0  0  0  0
 33 24  1  0  0  0  0
 34 46  1  6  0  0  0
 34 33  1  0  0  0  0
 34 35  1  0  0  0  0
 35 48  1  0  0  0  0
 35 47  1  0  0  0  0
 36 35  1  0  0  0  0
 37 36  1  0  0  0  0
 37 49  1  0  0  0  0
 38 37  2  0  0  0  0
 39 40  2  0  0  0  0
 39 38  1  0  0  0  0
 40 41  1  0  0  0  0
 41 36  2  0  0  0  0
 42 34  1  0  0  0  0
 43 42  1  0  0  0  0
 44 42  2  0  0  0  0
 50 38  1  0  0  0  0
 51 39  1  0  0  0  0
 52 40  1  0  0  0  0
 53 41  1  0  0  0  0
M  END
$$$$
