NHG.pdb
 OpenBabel07022418093D

 40 40  0  0  1  0  0  0  0  0999 V2000
   -0.5960   -3.8510    1.3610 N   0  0  0  0  0  0  0  0  0  0  0  0
    0.6780   -4.2380    0.8840 C   0  0  0  0  0  0  0  0  0  0  0  0
    1.3290   -5.1030    1.5130 O   0  0  0  0  0  0  0  0  0  0  0  0
    1.1920   -3.6010   -0.3500 C   0  0  0  0  0  0  0  0  0  0  0  0
    2.1530   -2.5200   -0.0130 C   0  0  2  0  0  0  0  0  0  0  0  0
    3.2540   -3.1010    0.7270 N   0  0  0  0  0  0  0  0  0  0  0  0
    1.6330   -1.3860    0.7180 C   0  0  0  0  0  0  0  0  0  0  0  0
    2.1530   -1.0680    1.8160 O   0  0  0  0  0  0  0  0  0  0  0  0
   -0.7690   -3.6170    2.3730 H   0  0  0  0  0  0  0  0  0  0  0  0
   -1.3790   -3.8010    0.6730 H   0  0  0  0  0  0  0  0  0  0  0  0
    0.3450   -3.3060   -0.9700 H   0  0  0  0  0  0  0  0  0  0  0  0
    1.7400   -4.3950   -0.9080 H   0  0  0  0  0  0  0  0  0  0  0  0
    2.6080   -2.1350   -0.9700 H   0  0  0  0  0  0  0  0  0  0  0  0
    3.1810   -2.8950    1.7530 H   0  0  0  0  0  0  0  0  0  0  0  0
    4.1780   -2.7540    0.4180 H   0  0  0  0  0  0  0  0  0  0  0  0
    0.5260   -0.5980    0.2270 N   0  0  0  0  0  0  0  0  0  0  0  0
    0.0070    0.5360    0.9620 C   0  0  1  0  0  0  0  0  0  0  0  0
    0.1830    1.8290    0.1590 C   0  0  0  0  0  0  0  0  0  0  0  0
    1.6110    2.0830   -0.1270 C   0  0  0  0  0  0  0  0  0  0  0  0
    2.3280    1.6580   -1.2240 C   0  0  0  0  0  0  0  0  0  0  0  0
    3.6130    2.1000   -1.1150 N   0  0  0  0  0  0  0  0  0  0  0  0
    3.6910    2.7900    0.0340 C   0  0  0  0  0  0  0  0  0  0  0  0
    2.4880    2.7750    0.6210 N   0  0  0  0  0  0  0  0  0  0  0  0
   -1.4470    0.3010    1.2270 C   0  0  0  0  0  0  0  0  0  0  0  0
   -2.0170   -0.7650    0.8160 O   0  0  0  0  0  0  0  0  0  0  0  0
    0.1530   -0.9210   -0.6800 H   0  0  0  0  0  0  0  0  0  0  0  0
    0.5890    0.6580    1.8940 H   0  0  0  0  0  0  0  0  0  0  0  0
   -0.4010    1.6770   -0.7890 H   0  0  0  0  0  0  0  0  0  0  0  0
   -0.3070    2.6520    0.6870 H   0  0  0  0  0  0  0  0  0  0  0  0
    1.9900    1.0730   -2.0590 H   0  0  0  0  0  0  0  0  0  0  0  0
    4.4050    1.9410   -1.7920 H   0  0  0  0  0  0  0  0  0  0  0  0
    4.5810    3.2670    0.4050 H   0  0  0  0  0  0  0  0  0  0  0  0
   -2.2570    1.2180    1.9290 N   0  0  0  0  0  0  0  0  0  0  0  0
   -3.6590    1.0110    2.1950 C   0  0  0  0  0  0  0  0  0  0  0  0
   -3.8180   -0.2190    2.9970 C   0  0  0  0  0  0  0  0  0  0  0  0
   -4.9280   -0.6660    3.3820 O   0  0  0  0  0  0  0  0  0  0  0  0
   -2.6870   -0.9300    3.3500 O   0  0  0  0  0  0  0  0  0  0  0  0
   -1.8000    2.1030    2.2750 H   0  0  0  0  0  0  0  0  0  0  0  0
   -4.2420    0.8790    1.2570 H   0  0  0  0  0  0  0  0  0  0  0  0
   -4.0600    1.8480    2.8020 H   0  0  0  0  0  0  0  0  0  0  0  0
  1  9  1  0  0  0  0
  2  1  1  0  0  0  0
  2  3  2  0  0  0  0
  4  5  1  0  0  0  0
  4  2  1  0  0  0  0
  5 13  1  6  0  0  0
  5  7  1  0  0  0  0
  5  6  1  0  0  0  0
  6 14  1  0  0  0  0
  7  8  2  0  0  0  0
 10  1  1  0  0  0  0
 11  4  1  0  0  0  0
 12  4  1  0  0  0  0
 15  6  1  0  0  0  0
 16  7  1  0  0  0  0
 16 17  1  0  0  0  0
 17 24  1  0  0  0  0
 17 27  1  1  0  0  0
 18 29  1  0  0  0  0
 18 17  1  0  0  0  0
 19 18  1  0  0  0  0
 19 23  1  0  0  0  0
 20 21  1  0  0  0  0
 20 19  2  0  0  0  0
 21 22  1  0  0  0  0
 22 32  1  0  0  0  0
 22 23  2  0  0  0  0
 24 33  1  0  0  0  0
 25 24  2  0  0  0  0
 26 16  1  0  0  0  0
 28 18  1  0  0  0  0
 30 20  1  0  0  0  0
 31 21  1  0  0  0  0
 33 34  1  0  0  0  0
 33 38  1  0  0  0  0
 34 40  1  0  0  0  0
 34 35  1  0  0  0  0
 35 37  2  0  0  0  0
 35 36  1  0  0  0  0
 39 34  1  0  0  0  0
M  END
$$$$
