NHH.pdb
 OpenBabel07022418093D

 50 51  0  0  1  0  0  0  0  0999 V2000
    1.2770   -3.9670   -0.6730 N   0  0  0  0  0  0  0  0  0  0  0  0
    1.9040   -2.9630    0.0910 C   0  0  0  0  0  0  0  0  0  0  0  0
    2.1960   -3.1570    1.3080 O   0  0  0  0  0  0  0  0  0  0  0  0
    2.2560   -1.6350   -0.4810 C   0  0  0  0  0  0  0  0  0  0  0  0
    2.9130   -0.7410    0.5270 C   0  0  2  0  0  0  0  0  0  0  0  0
    4.1280   -1.3850    0.9860 N   0  0  0  0  0  0  0  0  0  0  0  0
    2.0230   -0.3590    1.6270 C   0  0  0  0  0  0  0  0  0  0  0  0
    2.2870   -0.5700    2.8480 O   0  0  0  0  0  0  0  0  0  0  0  0
    0.8970   -4.8040   -0.2030 H   0  0  0  0  0  0  0  0  0  0  0  0
    1.2020   -3.8570   -1.6980 H   0  0  0  0  0  0  0  0  0  0  0  0
    2.9000   -1.8060   -1.3580 H   0  0  0  0  0  0  0  0  0  0  0  0
    1.3210   -1.1500   -0.8700 H   0  0  0  0  0  0  0  0  0  0  0  0
    3.2280    0.1830   -0.0220 H   0  0  0  0  0  0  0  0  0  0  0  0
    4.3320   -1.1070    1.9890 H   0  0  0  0  0  0  0  0  0  0  0  0
    4.9490   -1.0620    0.4270 H   0  0  0  0  0  0  0  0  0  0  0  0
    0.7920    0.2820    1.3490 N   0  0  0  0  0  0  0  0  0  0  0  0
   -0.1520    0.6960    2.3630 C   0  0  1  0  0  0  0  0  0  0  0  0
   -0.2070    2.2070    2.3300 C   0  0  0  0  0  0  0  0  0  0  0  0
    1.1620    2.7020    2.6200 C   0  0  0  0  0  0  0  0  0  0  0  0
    2.1870    2.9770    1.7410 C   0  0  0  0  0  0  0  0  0  0  0  0
    3.2170    3.3960    2.4950 N   0  0  0  0  0  0  0  0  0  0  0  0
    2.8710    3.3920    3.8040 C   0  0  0  0  0  0  0  0  0  0  0  0
    1.6060    2.9630    3.8610 N   0  0  0  0  0  0  0  0  0  0  0  0
   -1.4620    0.0660    2.2240 C   0  0  0  0  0  0  0  0  0  0  0  0
   -2.3620    0.3540    3.0540 O   0  0  0  0  0  0  0  0  0  0  0  0
    0.5310    0.4770    0.3560 H   0  0  0  0  0  0  0  0  0  0  0  0
    0.2700    0.4190    3.3620 H   0  0  0  0  0  0  0  0  0  0  0  0
   -0.8800    2.6410    3.0920 H   0  0  0  0  0  0  0  0  0  0  0  0
   -0.5330    2.5580    1.3100 H   0  0  0  0  0  0  0  0  0  0  0  0
    2.1430    2.8690    0.6710 H   0  0  0  0  0  0  0  0  0  0  0  0
    4.1680    3.6930    2.1620 H   0  0  0  0  0  0  0  0  0  0  0  0
    3.4490    3.6660    4.6700 H   0  0  0  0  0  0  0  0  0  0  0  0
   -1.7260   -0.8560    1.1750 N   0  0  0  0  0  0  0  0  0  0  0  0
   -3.0250   -1.4820    1.0350 C   0  0  1  0  0  0  0  0  0  0  0  0
   -3.7050   -1.0430   -0.2560 C   0  0  0  0  0  0  0  0  0  0  0  0
   -2.9140   -1.4000   -1.4480 C   0  0  0  0  0  0  0  0  0  0  0  0
   -2.9810   -2.5630   -2.1810 C   0  0  0  0  0  0  0  0  0  0  0  0
   -2.0970   -2.4950   -3.1880 N   0  0  0  0  0  0  0  0  0  0  0  0
   -1.4730   -1.3170   -3.1110 C   0  0  0  0  0  0  0  0  0  0  0  0
   -1.9720   -0.6640   -2.0590 N   0  0  0  0  0  0  0  0  0  0  0  0
   -2.9580   -2.9430    1.1650 C   0  0  0  0  0  0  0  0  0  0  0  0
   -1.8440   -3.4820    1.3730 O   0  0  0  0  0  0  0  0  0  0  0  0
   -4.0750   -3.7540    1.0670 O   0  0  0  0  0  0  0  0  0  0  0  0
   -1.0060   -1.1260    0.4590 H   0  0  0  0  0  0  0  0  0  0  0  0
   -3.6850   -1.1050    1.8580 H   0  0  0  0  0  0  0  0  0  0  0  0
   -3.8730    0.0480   -0.1630 H   0  0  0  0  0  0  0  0  0  0  0  0
   -4.7060   -1.5490   -0.2570 H   0  0  0  0  0  0  0  0  0  0  0  0
   -3.6580   -3.4110   -1.9640 H   0  0  0  0  0  0  0  0  0  0  0  0
   -1.9560   -3.2690   -3.8970 H   0  0  0  0  0  0  0  0  0  0  0  0
   -0.7070   -0.9510   -3.7690 H   0  0  0  0  0  0  0  0  0  0  0  0
  1  9  1  0  0  0  0
  1  2  1  0  0  0  0
  2  3  2  0  0  0  0
  4  2  1  0  0  0  0
  4  5  1  0  0  0  0
  5 13  1  6  0  0  0
  5  6  1  0  0  0  0
  5  7  1  0  0  0  0
  6 14  1  0  0  0  0
  7  8  2  0  0  0  0
 10  1  1  0  0  0  0
 11  4  1  0  0  0  0
 12  4  1  0  0  0  0
 15  6  1  0  0  0  0
 16  7  1  0  0  0  0
 16 17  1  0  0  0  0
 17 27  1  1  0  0  0
 18 17  1  0  0  0  0
 18 19  1  0  0  0  0
 18 28  1  0  0  0  0
 19 23  1  0  0  0  0
 20 21  1  0  0  0  0
 20 19  2  0  0  0  0
 21 22  1  0  0  0  0
 22 23  2  0  0  0  0
 22 32  1  0  0  0  0
 24 17  1  0  0  0  0
 24 25  2  0  0  0  0
 26 16  1  0  0  0  0
 29 18  1  0  0  0  0
 30 20  1  0  0  0  0
 31 21  1  0  0  0  0
 33 24  1  0  0  0  0
 34 41  1  0  0  0  0
 34 33  1  0  0  0  0
 34 45  1  1  0  0  0
 35 46  1  0  0  0  0
 35 34  1  0  0  0  0
 36 35  1  0  0  0  0
 37 48  1  0  0  0  0
 37 36  2  0  0  0  0
 38 39  1  0  0  0  0
 38 37  1  0  0  0  0
 39 40  2  0  0  0  0
 40 36  1  0  0  0  0
 41 42  1  0  0  0  0
 43 41  2  0  0  0  0
 44 33  1  0  0  0  0
 47 35  1  0  0  0  0
 49 38  1  0  0  0  0
 50 39  1  0  0  0  0
M  END
$$$$
