NHI.pdb
 OpenBabel07022418093D

 52 52  0  0  1  0  0  0  0  0999 V2000
    2.8350   -1.3100    4.5180 N   0  0  0  0  0  0  0  0  0  0  0  0
    2.3790   -2.4050    5.2730 C   0  0  0  0  0  0  0  0  0  0  0  0
    2.5320   -2.3350    6.5370 O   0  0  0  0  0  0  0  0  0  0  0  0
    1.7490   -3.6020    4.7100 C   0  0  0  0  0  0  0  0  0  0  0  0
    1.6200   -3.6210    3.2100 C   0  0  2  0  0  0  0  0  0  0  0  0
    2.9230   -3.5320    2.6210 N   0  0  0  0  0  0  0  0  0  0  0  0
    0.7040   -2.5330    2.7840 C   0  0  0  0  0  0  0  0  0  0  0  0
   -0.4260   -2.4830    3.3760 O   0  0  0  0  0  0  0  0  0  0  0  0
    3.8470   -1.1550    4.3560 H   0  0  0  0  0  0  0  0  0  0  0  0
    2.1650   -0.6330    4.1120 H   0  0  0  0  0  0  0  0  0  0  0  0
    0.7330   -3.6740    5.1980 H   0  0  0  0  0  0  0  0  0  0  0  0
    2.2990   -4.5140    5.0420 H   0  0  0  0  0  0  0  0  0  0  0  0
    1.1700   -4.6240    2.9070 H   0  0  0  0  0  0  0  0  0  0  0  0
    3.0410   -4.1070    1.7590 H   0  0  0  0  0  0  0  0  0  0  0  0
    3.2540   -2.5730    2.5530 H   0  0  0  0  0  0  0  0  0  0  0  0
    1.0120   -1.5760    1.7800 N   0  0  0  0  0  0  0  0  0  0  0  0
    0.0780   -0.5340    1.4050 C   0  0  1  0  0  0  0  0  0  0  0  0
    0.6120    0.8450    1.6970 C   0  0  0  0  0  0  0  0  0  0  0  0
    1.8720    1.1250    0.9680 C   0  0  0  0  0  0  0  0  0  0  0  0
    2.5280    2.3300    1.0930 C   0  0  0  0  0  0  0  0  0  0  0  0
    3.6370    2.3260    0.3320 N   0  0  0  0  0  0  0  0  0  0  0  0
    3.6450    1.1140   -0.2510 C   0  0  0  0  0  0  0  0  0  0  0  0
    2.5810    0.3870    0.1300 N   0  0  0  0  0  0  0  0  0  0  0  0
   -0.3630   -0.6770   -0.0060 C   0  0  0  0  0  0  0  0  0  0  0  0
    0.1070   -1.6360   -0.6670 O   0  0  0  0  0  0  0  0  0  0  0  0
    1.9520   -1.6640    1.3240 H   0  0  0  0  0  0  0  0  0  0  0  0
   -0.8260   -0.6700    2.0330 H   0  0  0  0  0  0  0  0  0  0  0  0
    0.7570    0.9180    2.7950 H   0  0  0  0  0  0  0  0  0  0  0  0
   -0.1760    1.5700    1.4260 H   0  0  0  0  0  0  0  0  0  0  0  0
    2.2360    3.1880    1.7020 H   0  0  0  0  0  0  0  0  0  0  0  0
    4.3570    3.0920    0.2040 H   0  0  0  0  0  0  0  0  0  0  0  0
    4.4460    0.8260   -0.9370 H   0  0  0  0  0  0  0  0  0  0  0  0
   -5.1290   -1.4550   -1.2330 C   0  0  0  0  0  0  0  0  0  0  0  0
   -3.6200   -1.3690   -1.2830 C   0  0  0  0  0  0  0  0  0  0  0  0
   -3.1870   -0.1370   -2.0490 C   0  0  2  0  0  0  0  0  0  0  0  0
   -3.7220   -0.2140   -3.4470 C   0  0  0  0  0  0  0  0  0  0  0  0
   -1.6980    0.0540   -2.0160 C   0  0  2  0  0  0  0  0  0  0  0  0
   -1.2700    0.1980   -0.6350 N   0  0  0  0  0  0  0  0  0  0  0  0
   -1.3480    1.2520   -2.8190 C   0  0  0  0  0  0  0  0  0  0  0  0
   -1.6480    1.2890   -4.0340 O   0  0  0  0  0  0  0  0  0  0  0  0
   -0.6950    2.3610   -2.2990 O   0  0  0  0  0  0  0  0  0  0  0  0
   -5.4780   -1.6910   -0.2090 H   0  0  0  0  0  0  0  0  0  0  0  0
   -5.5280   -0.4450   -1.5350 H   0  0  0  0  0  0  0  0  0  0  0  0
   -5.4940   -2.1780   -1.9850 H   0  0  0  0  0  0  0  0  0  0  0  0
   -3.2520   -1.3510   -0.2340 H   0  0  0  0  0  0  0  0  0  0  0  0
   -3.2530   -2.2830   -1.7930 H   0  0  0  0  0  0  0  0  0  0  0  0
   -3.6740    0.7330   -1.5380 H   0  0  0  0  0  0  0  0  0  0  0  0
   -4.6960   -0.7760   -3.3950 H   0  0  0  0  0  0  0  0  0  0  0  0
   -3.0590   -0.8120   -4.0950 H   0  0  0  0  0  0  0  0  0  0  0  0
   -3.9280    0.7940   -3.8610 H   0  0  0  0  0  0  0  0  0  0  0  0
   -1.2220   -0.8190   -2.4960 H   0  0  0  0  0  0  0  0  0  0  0  0
   -1.6480    0.9880   -0.0690 H   0  0  0  0  0  0  0  0  0  0  0  0
  1  2  1  0  0  0  0
  2  3  2  0  0  0  0
  4 12  1  0  0  0  0
  4 11  1  0  0  0  0
  4  2  1  0  0  0  0
  5 13  1  6  0  0  0
  5  4  1  0  0  0  0
  6  5  1  0  0  0  0
  7  5  1  0  0  0  0
  7  8  2  0  0  0  0
  9  1  1  0  0  0  0
 10  1  1  0  0  0  0
 14  6  1  0  0  0  0
 15  6  1  0  0  0  0
 16  7  1  0  0  0  0
 17 18  1  0  0  0  0
 17 16  1  0  0  0  0
 17 27  1  1  0  0  0
 18 28  1  0  0  0  0
 19 20  2  0  0  0  0
 19 18  1  0  0  0  0
 20 30  1  0  0  0  0
 21 20  1  0  0  0  0
 22 23  2  0  0  0  0
 22 21  1  0  0  0  0
 23 19  1  0  0  0  0
 24 17  1  0  0  0  0
 25 24  2  0  0  0  0
 26 16  1  0  0  0  0
 29 18  1  0  0  0  0
 31 21  1  0  0  0  0
 32 22  1  0  0  0  0
 33 42  1  0  0  0  0
 34 33  1  0  0  0  0
 34 45  1  0  0  0  0
 35 37  1  0  0  0  0
 35 47  1  1  0  0  0
 35 34  1  0  0  0  0
 36 48  1  0  0  0  0
 36 35  1  0  0  0  0
 37 51  1  6  0  0  0
 37 38  1  0  0  0  0
 38 52  1  0  0  0  0
 38 24  1  0  0  0  0
 39 41  1  0  0  0  0
 39 37  1  0  0  0  0
 40 39  2  0  0  0  0
 43 33  1  0  0  0  0
 44 33  1  0  0  0  0
 46 34  1  0  0  0  0
 49 36  1  0  0  0  0
 50 36  1  0  0  0  0
M  END
$$$$
