NHK.pdb
 OpenBabel07022418093D

 54 54  0  0  1  0  0  0  0  0999 V2000
    1.0630   -3.1150    2.9870 N   0  0  0  0  0  0  0  0  0  0  0  0
    2.4340   -2.7960    2.9540 C   0  0  0  0  0  0  0  0  0  0  0  0
    3.1530   -3.0810    3.9480 O   0  0  0  0  0  0  0  0  0  0  0  0
    3.0550   -2.1440    1.8040 C   0  0  0  0  0  0  0  0  0  0  0  0
    3.3220   -0.6850    2.0560 C   0  0  2  0  0  0  0  0  0  0  0  0
    4.2060   -0.6290    3.2190 N   0  0  0  0  0  0  0  0  0  0  0  0
    2.1250    0.1490    2.2220 C   0  0  0  0  0  0  0  0  0  0  0  0
    1.8970    0.7000    3.3460 O   0  0  0  0  0  0  0  0  0  0  0  0
    0.5790   -2.9610    3.9110 H   0  0  0  0  0  0  0  0  0  0  0  0
    0.4940   -3.4830    2.1970 H   0  0  0  0  0  0  0  0  0  0  0  0
    2.3620   -2.2710    0.9290 H   0  0  0  0  0  0  0  0  0  0  0  0
    4.0390   -2.6110    1.5710 H   0  0  0  0  0  0  0  0  0  0  0  0
    3.9130   -0.3050    1.1790 H   0  0  0  0  0  0  0  0  0  0  0  0
    3.6070   -0.5930    4.0670 H   0  0  0  0  0  0  0  0  0  0  0  0
    4.8250   -1.4510    3.2440 H   0  0  0  0  0  0  0  0  0  0  0  0
    1.2420    0.3330    1.1250 N   0  0  0  0  0  0  0  0  0  0  0  0
    0.0590    1.1560    1.2090 C   0  0  1  0  0  0  0  0  0  0  0  0
    0.1340    2.1910    0.1080 C   0  0  0  0  0  0  0  0  0  0  0  0
    1.3480    3.0160    0.2960 C   0  0  0  0  0  0  0  0  0  0  0  0
    1.7720    4.0730   -0.5090 C   0  0  0  0  0  0  0  0  0  0  0  0
    2.9110    4.5680   -0.0190 N   0  0  0  0  0  0  0  0  0  0  0  0
    3.2420    3.8710    1.0750 C   0  0  0  0  0  0  0  0  0  0  0  0
    2.2880    2.9400    1.2470 N   0  0  0  0  0  0  0  0  0  0  0  0
   -1.1330    0.3040    1.0680 C   0  0  0  0  0  0  0  0  0  0  0  0
   -2.2750    0.8910    1.0740 O   0  0  0  0  0  0  0  0  0  0  0  0
    1.4710   -0.1610    0.2090 H   0  0  0  0  0  0  0  0  0  0  0  0
    0.0260    1.6340    2.2080 H   0  0  0  0  0  0  0  0  0  0  0  0
    0.2970    1.6120   -0.8450 H   0  0  0  0  0  0  0  0  0  0  0  0
   -0.7540    2.8390    0.0550 H   0  0  0  0  0  0  0  0  0  0  0  0
    1.2180    4.3940   -1.3820 H   0  0  0  0  0  0  0  0  0  0  0  0
    3.4710    5.3560   -0.3920 H   0  0  0  0  0  0  0  0  0  0  0  0
    4.0920    3.9890    1.7250 H   0  0  0  0  0  0  0  0  0  0  0  0
   -1.1730   -1.0990    0.9250 N   0  0  0  0  0  0  0  0  0  0  0  0
   -2.4160   -1.8380    0.7800 C   0  0  1  0  0  0  0  0  0  0  0  0
   -2.4510   -2.6230   -0.5110 C   0  0  0  0  0  0  0  0  0  0  0  0
   -2.3170   -1.6260   -1.6400 C   0  0  0  0  0  0  0  0  0  0  0  0
   -2.3360   -2.2580   -2.9950 C   0  0  0  0  0  0  0  0  0  0  0  0
   -3.6440   -3.0020   -3.2120 C   0  0  0  0  0  0  0  0  0  0  0  0
   -4.6980   -1.9870   -3.0880 N   0  0  0  0  0  0  0  0  0  0  0  0
   -2.7710   -2.6370    1.9680 C   0  0  0  0  0  0  0  0  0  0  0  0
   -3.8160   -3.3450    1.9620 O   0  0  0  0  0  0  0  0  0  0  0  0
   -2.0280   -2.6770    3.1340 O   0  0  0  0  0  0  0  0  0  0  0  0
   -0.2390   -1.5890    0.9280 H   0  0  0  0  0  0  0  0  0  0  0  0
   -3.2280   -1.0540    0.6890 H   0  0  0  0  0  0  0  0  0  0  0  0
   -3.3460   -3.2380   -0.5630 H   0  0  0  0  0  0  0  0  0  0  0  0
   -1.5620   -3.3160   -0.5260 H   0  0  0  0  0  0  0  0  0  0  0  0
   -1.3720   -1.0860   -1.5160 H   0  0  0  0  0  0  0  0  0  0  0  0
   -3.1790   -0.9390   -1.5690 H   0  0  0  0  0  0  0  0  0  0  0  0
   -1.4770   -2.9160   -3.1950 H   0  0  0  0  0  0  0  0  0  0  0  0
   -2.2950   -1.4410   -3.7410 H   0  0  0  0  0  0  0  0  0  0  0  0
   -3.7780   -3.8160   -2.4910 H   0  0  0  0  0  0  0  0  0  0  0  0
   -3.6080   -3.4150   -4.2430 H   0  0  0  0  0  0  0  0  0  0  0  0
   -5.5840   -2.5050   -2.9120 H   0  0  0  0  0  0  0  0  0  0  0  0
   -4.7220   -1.4490   -4.0020 H   0  0  0  0  0  0  0  0  0  0  0  0
  1  9  1  0  0  0  0
  2  1  1  0  0  0  0
  2  3  2  0  0  0  0
  4  5  1  0  0  0  0
  4  2  1  0  0  0  0
  5 13  1  6  0  0  0
  5  7  1  0  0  0  0
  5  6  1  0  0  0  0
  6 15  1  0  0  0  0
  6 14  1  0  0  0  0
  7  8  2  0  0  0  0
 10  1  1  0  0  0  0
 11  4  1  0  0  0  0
 12  4  1  0  0  0  0
 16 17  1  0  0  0  0
 16  7  1  0  0  0  0
 17 27  1  1  0  0  0
 18 19  1  0  0  0  0
 18 17  1  0  0  0  0
 19 23  1  0  0  0  0
 20 21  1  0  0  0  0
 20 19  2  0  0  0  0
 21 22  1  0  0  0  0
 22 23  2  0  0  0  0
 22 32  1  0  0  0  0
 24 25  2  0  0  0  0
 24 17  1  0  0  0  0
 26 16  1  0  0  0  0
 28 18  1  0  0  0  0
 29 18  1  0  0  0  0
 30 20  1  0  0  0  0
 31 21  1  0  0  0  0
 33 43  1  0  0  0  0
 33 24  1  0  0  0  0
 34 44  1  6  0  0  0
 34 33  1  0  0  0  0
 34 40  1  0  0  0  0
 35 34  1  0  0  0  0
 36 48  1  0  0  0  0
 36 47  1  0  0  0  0
 36 35  1  0  0  0  0
 37 36  1  0  0  0  0
 38 39  1  0  0  0  0
 38 37  1  0  0  0  0
 38 51  1  0  0  0  0
 39 53  1  0  0  0  0
 40 42  1  0  0  0  0
 41 40  2  0  0  0  0
 45 35  1  0  0  0  0
 46 35  1  0  0  0  0
 49 37  1  0  0  0  0
 50 37  1  0  0  0  0
 52 38  1  0  0  0  0
 54 39  1  0  0  0  0
M  END
$$$$
