NHL.pdb
 OpenBabel07022418093D

 52 52  0  0  1  0  0  0  0  0999 V2000
   -0.8850    4.2120    2.7370 N   0  0  0  0  0  0  0  0  0  0  0  0
   -1.5790    3.0250    3.0920 C   0  0  0  0  0  0  0  0  0  0  0  0
   -2.6600    3.1440    3.7250 O   0  0  0  0  0  0  0  0  0  0  0  0
   -1.0530    1.6820    2.7320 C   0  0  0  0  0  0  0  0  0  0  0  0
    0.2500    1.8600    1.9790 C   0  0  2  0  0  0  0  0  0  0  0  0
   -0.0300    2.6250    0.8090 N   0  0  0  0  0  0  0  0  0  0  0  0
    0.7730    0.4820    1.6970 C   0  0  0  0  0  0  0  0  0  0  0  0
    1.0030   -0.1930    2.7260 O   0  0  0  0  0  0  0  0  0  0  0  0
    0.0650    4.4020    3.1120 H   0  0  0  0  0  0  0  0  0  0  0  0
   -1.3290    4.8930    2.0990 H   0  0  0  0  0  0  0  0  0  0  0  0
   -0.9470    1.0460    3.6190 H   0  0  0  0  0  0  0  0  0  0  0  0
   -1.7810    1.2640    1.9840 H   0  0  0  0  0  0  0  0  0  0  0  0
    1.0070    2.3280    2.6390 H   0  0  0  0  0  0  0  0  0  0  0  0
   -0.5440    2.1450    0.0740 H   0  0  0  0  0  0  0  0  0  0  0  0
    0.8590    3.0010    0.4270 H   0  0  0  0  0  0  0  0  0  0  0  0
    0.9870   -0.0130    0.4250 N   0  0  0  0  0  0  0  0  0  0  0  0
    1.4930   -1.2770    0.0570 C   0  0  1  0  0  0  0  0  0  0  0  0
    2.0380   -2.0560    1.2440 C   0  0  0  0  0  0  0  0  0  0  0  0
    3.1930   -1.2940    1.7810 C   0  0  0  0  0  0  0  0  0  0  0  0
    3.7630   -0.1350    1.3060 C   0  0  0  0  0  0  0  0  0  0  0  0
    4.8200    0.2250    2.0540 N   0  0  0  0  0  0  0  0  0  0  0  0
    4.9210   -0.7090    3.0090 C   0  0  0  0  0  0  0  0  0  0  0  0
    3.9590   -1.6250    2.8630 N   0  0  0  0  0  0  0  0  0  0  0  0
    0.5910   -2.0330   -0.8010 C   0  0  0  0  0  0  0  0  0  0  0  0
    0.8450   -3.1830   -1.2560 O   0  0  0  0  0  0  0  0  0  0  0  0
    0.7420    0.6370   -0.3860 H   0  0  0  0  0  0  0  0  0  0  0  0
    2.4920   -1.1220   -0.5430 H   0  0  0  0  0  0  0  0  0  0  0  0
    2.4240   -3.0410    0.8320 H   0  0  0  0  0  0  0  0  0  0  0  0
    1.2980   -2.3340    1.9840 H   0  0  0  0  0  0  0  0  0  0  0  0
    3.3800    0.3960    0.4340 H   0  0  0  0  0  0  0  0  0  0  0  0
    5.4220    1.0560    1.9100 H   0  0  0  0  0  0  0  0  0  0  0  0
    5.7020   -0.6710    3.7690 H   0  0  0  0  0  0  0  0  0  0  0  0
   -2.1100   -2.6200    1.0380 C   0  0  0  0  0  0  0  0  0  0  0  0
   -2.9100   -3.1670   -0.0910 C   0  0  0  0  0  0  0  0  0  0  0  0
   -2.5330   -4.6230   -0.2780 C   0  0  0  0  0  0  0  0  0  0  0  0
   -2.9060   -2.3910   -1.3510 C   0  0  0  0  0  0  0  0  0  0  0  0
   -1.6030   -2.1790   -2.0220 C   0  0  2  0  0  0  0  0  0  0  0  0
   -0.6790   -1.4560   -1.1680 N   0  0  0  0  0  0  0  0  0  0  0  0
   -1.7990   -1.4640   -3.3130 C   0  0  0  0  0  0  0  0  0  0  0  0
   -2.5510   -1.8820   -4.2250 O   0  0  0  0  0  0  0  0  0  0  0  0
   -1.1180   -0.2810   -3.5140 O   0  0  0  0  0  0  0  0  0  0  0  0
   -1.9790   -1.5380    1.0490 H   0  0  0  0  0  0  0  0  0  0  0  0
   -1.1470   -3.1930    1.1810 H   0  0  0  0  0  0  0  0  0  0  0  0
   -2.6670   -2.8520    2.0000 H   0  0  0  0  0  0  0  0  0  0  0  0
   -3.9910   -3.2050    0.2460 H   0  0  0  0  0  0  0  0  0  0  0  0
   -1.4520   -4.7840   -0.3220 H   0  0  0  0  0  0  0  0  0  0  0  0
   -3.0750   -5.0690   -1.1510 H   0  0  0  0  0  0  0  0  0  0  0  0
   -2.9100   -5.1630    0.6160 H   0  0  0  0  0  0  0  0  0  0  0  0
   -3.5760   -2.9350   -2.0770 H   0  0  0  0  0  0  0  0  0  0  0  0
   -3.4420   -1.4320   -1.1590 H   0  0  0  0  0  0  0  0  0  0  0  0
   -1.1740   -3.1720   -2.3060 H   0  0  0  0  0  0  0  0  0  0  0  0
   -0.8910   -0.5050   -0.7960 H   0  0  0  0  0  0  0  0  0  0  0  0
  1  2  1  0  0  0  0
  1  9  1  0  0  0  0
  2  3  2  0  0  0  0
  4  2  1  0  0  0  0
  4 11  1  0  0  0  0
  5 13  1  1  0  0  0
  5  4  1  0  0  0  0
  6  5  1  0  0  0  0
  7  5  1  0  0  0  0
  7  8  2  0  0  0  0
 10  1  1  0  0  0  0
 12  4  1  0  0  0  0
 14  6  1  0  0  0  0
 15  6  1  0  0  0  0
 16  7  1  0  0  0  0
 17 27  1  6  0  0  0
 17 16  1  0  0  0  0
 17 18  1  0  0  0  0
 18 19  1  0  0  0  0
 18 29  1  0  0  0  0
 19 23  1  0  0  0  0
 20 19  2  0  0  0  0
 20 21  1  0  0  0  0
 21 22  1  0  0  0  0
 22 32  1  0  0  0  0
 23 22  2  0  0  0  0
 24 17  1  0  0  0  0
 25 24  2  0  0  0  0
 26 16  1  0  0  0  0
 28 18  1  0  0  0  0
 30 20  1  0  0  0  0
 31 21  1  0  0  0  0
 33 42  1  0  0  0  0
 33 43  1  0  0  0  0
 33 44  1  0  0  0  0
 34 45  1  0  0  0  0
 34 33  1  0  0  0  0
 35 34  1  0  0  0  0
 35 48  1  0  0  0  0
 36 50  1  0  0  0  0
 36 34  1  0  0  0  0
 37 51  1  6  0  0  0
 37 36  1  0  0  0  0
 37 38  1  0  0  0  0
 38 24  1  0  0  0  0
 38 52  1  0  0  0  0
 39 37  1  0  0  0  0
 40 39  2  0  0  0  0
 41 39  1  0  0  0  0
 46 35  1  0  0  0  0
 47 35  1  0  0  0  0
 49 36  1  0  0  0  0
M  END
$$$$
