NHN.pdb
 OpenBabel07022418093D

 47 47  0  0  1  0  0  0  0  0999 V2000
    4.7570   -3.3030    3.0440 N   0  0  0  0  0  0  0  0  0  0  0  0
    3.5570   -3.5060    2.2520 C   0  0  0  0  0  0  0  0  0  0  0  0
    2.5900   -3.9520    2.9160 O   0  0  0  0  0  0  0  0  0  0  0  0
    3.5330   -3.2070    0.8260 C   0  0  0  0  0  0  0  0  0  0  0  0
    2.1940   -3.3570    0.1570 C   0  0  2  0  0  0  0  0  0  0  0  0
    2.3630   -3.0570   -1.2750 N   0  0  0  0  0  0  0  0  0  0  0  0
    1.2570   -2.3610    0.7470 C   0  0  0  0  0  0  0  0  0  0  0  0
    0.8760   -2.3920    1.9340 O   0  0  0  0  0  0  0  0  0  0  0  0
    5.6880   -3.5990    2.7360 H   0  0  0  0  0  0  0  0  0  0  0  0
    4.6600   -2.8310    3.9740 H   0  0  0  0  0  0  0  0  0  0  0  0
    3.9530   -2.1910    0.5960 H   0  0  0  0  0  0  0  0  0  0  0  0
    4.2630   -3.9120    0.3300 H   0  0  0  0  0  0  0  0  0  0  0  0
    1.8740   -4.3960    0.2300 H   0  0  0  0  0  0  0  0  0  0  0  0
    3.1830   -3.6540   -1.5950 H   0  0  0  0  0  0  0  0  0  0  0  0
    1.5430   -3.4740   -1.8100 H   0  0  0  0  0  0  0  0  0  0  0  0
    0.7200   -1.2810   -0.0290 N   0  0  0  0  0  0  0  0  0  0  0  0
   -0.1840   -0.3310    0.5680 C   0  0  1  0  0  0  0  0  0  0  0  0
    0.3360    1.0850    0.4960 C   0  0  0  0  0  0  0  0  0  0  0  0
    1.6270    1.2820    1.1810 C   0  0  0  0  0  0  0  0  0  0  0  0
    2.8790    1.1500    0.6150 C   0  0  0  0  0  0  0  0  0  0  0  0
    3.8030    1.4090    1.5430 N   0  0  0  0  0  0  0  0  0  0  0  0
    3.1910    1.7040    2.6880 C   0  0  0  0  0  0  0  0  0  0  0  0
    1.8570    1.6250    2.4600 N   0  0  0  0  0  0  0  0  0  0  0  0
   -1.4440   -0.3500   -0.2070 C   0  0  0  0  0  0  0  0  0  0  0  0
   -1.5340   -1.1170   -1.1920 O   0  0  0  0  0  0  0  0  0  0  0  0
    0.9850   -1.1830   -1.0260 H   0  0  0  0  0  0  0  0  0  0  0  0
   -0.3750   -0.5450    1.6420 H   0  0  0  0  0  0  0  0  0  0  0  0
   -0.4680    1.7310    0.9370 H   0  0  0  0  0  0  0  0  0  0  0  0
    0.3710    1.3570   -0.5760 H   0  0  0  0  0  0  0  0  0  0  0  0
    3.1080    0.8820   -0.4050 H   0  0  0  0  0  0  0  0  0  0  0  0
    4.8630    1.3980    1.4390 H   0  0  0  0  0  0  0  0  0  0  0  0
    3.6900    1.9590    3.6200 H   0  0  0  0  0  0  0  0  0  0  0  0
   -4.7860    0.2530    2.7090 N   0  0  0  0  0  0  0  0  0  0  0  0
   -5.2000    0.6300    1.4120 C   0  0  0  0  0  0  0  0  0  0  0  0
   -5.8510    1.7160    1.3130 O   0  0  0  0  0  0  0  0  0  0  0  0
   -4.9400   -0.1230    0.1830 C   0  0  0  0  0  0  0  0  0  0  0  0
   -3.7930    0.4580   -0.6270 C   0  0  2  0  0  0  0  0  0  0  0  0
   -2.5610    0.4650    0.1170 N   0  0  0  0  0  0  0  0  0  0  0  0
   -4.1280    1.7570   -1.2430 C   0  0  0  0  0  0  0  0  0  0  0  0
   -5.1910    1.8270   -1.9080 O   0  0  0  0  0  0  0  0  0  0  0  0
   -3.3620    2.9080   -1.1460 O   0  0  0  0  0  0  0  0  0  0  0  0
   -4.0160    0.7700    3.1600 H   0  0  0  0  0  0  0  0  0  0  0  0
   -5.2410   -0.5270    3.2060 H   0  0  0  0  0  0  0  0  0  0  0  0
   -4.6710   -1.1520    0.4270 H   0  0  0  0  0  0  0  0  0  0  0  0
   -5.8190   -0.1310   -0.5190 H   0  0  0  0  0  0  0  0  0  0  0  0
   -3.6440   -0.2790   -1.4700 H   0  0  0  0  0  0  0  0  0  0  0  0
   -2.4490    1.0960    0.9500 H   0  0  0  0  0  0  0  0  0  0  0  0
  1 10  1  0  0  0  0
  2  3  2  0  0  0  0
  2  1  1  0  0  0  0
  4  2  1  0  0  0  0
  5 13  1  1  0  0  0
  5  7  1  0  0  0  0
  5  4  1  0  0  0  0
  6  5  1  0  0  0  0
  7  8  2  0  0  0  0
  9  1  1  0  0  0  0
 11  4  1  0  0  0  0
 12  4  1  0  0  0  0
 14  6  1  0  0  0  0
 15  6  1  0  0  0  0
 16 17  1  0  0  0  0
 16  7  1  0  0  0  0
 17 27  1  1  0  0  0
 18 17  1  0  0  0  0
 18 28  1  0  0  0  0
 18 19  1  0  0  0  0
 19 23  1  0  0  0  0
 20 19  2  0  0  0  0
 20 21  1  0  0  0  0
 21 22  1  0  0  0  0
 22 32  1  0  0  0  0
 23 22  2  0  0  0  0
 24 38  1  0  0  0  0
 24 17  1  0  0  0  0
 25 24  2  0  0  0  0
 26 16  1  0  0  0  0
 29 18  1  0  0  0  0
 30 20  1  0  0  0  0
 31 21  1  0  0  0  0
 33 42  1  0  0  0  0
 33 43  1  0  0  0  0
 34 33  1  0  0  0  0
 35 34  2  0  0  0  0
 36 44  1  0  0  0  0
 36 34  1  0  0  0  0
 37 46  1  6  0  0  0
 37 38  1  0  0  0  0
 37 36  1  0  0  0  0
 38 47  1  0  0  0  0
 39 41  1  0  0  0  0
 39 37  1  0  0  0  0
 40 39  2  0  0  0  0
 45 36  1  0  0  0  0
M  END
$$$$
