NHQ.pdb
 OpenBabel07022418093D

 50 50  0  0  1  0  0  0  0  0999 V2000
    3.0010    1.2600    5.4980 N   0  0  0  0  0  0  0  0  0  0  0  0
    2.7490    0.3420    4.4470 C   0  0  0  0  0  0  0  0  0  0  0  0
    3.2910    0.5400    3.3360 O   0  0  0  0  0  0  0  0  0  0  0  0
    1.8740   -0.8160    4.6460 C   0  0  0  0  0  0  0  0  0  0  0  0
    1.6760   -1.6730    3.4280 C   0  0  2  0  0  0  0  0  0  0  0  0
    2.9320   -2.1810    2.9690 N   0  0  0  0  0  0  0  0  0  0  0  0
    0.8500   -1.0150    2.3880 C   0  0  0  0  0  0  0  0  0  0  0  0
   -0.2210   -0.4530    2.8040 O   0  0  0  0  0  0  0  0  0  0  0  0
    3.9290    1.4110    5.9150 H   0  0  0  0  0  0  0  0  0  0  0  0
    2.2070    1.8380    5.8970 H   0  0  0  0  0  0  0  0  0  0  0  0
    0.8640   -0.4740    5.0200 H   0  0  0  0  0  0  0  0  0  0  0  0
    2.2450   -1.5020    5.4510 H   0  0  0  0  0  0  0  0  0  0  0  0
    1.0440   -2.5710    3.7400 H   0  0  0  0  0  0  0  0  0  0  0  0
    3.3520   -1.5260    2.2790 H   0  0  0  0  0  0  0  0  0  0  0  0
    3.5910   -2.1790    3.7970 H   0  0  0  0  0  0  0  0  0  0  0  0
    1.1680   -0.9810    1.0160 N   0  0  0  0  0  0  0  0  0  0  0  0
    0.3000   -0.3300    0.0640 C   0  0  1  0  0  0  0  0  0  0  0  0
    0.9690    0.6740   -0.7990 C   0  0  0  0  0  0  0  0  0  0  0  0
    1.5540    1.7510    0.0240 C   0  0  0  0  0  0  0  0  0  0  0  0
    0.9480    2.9380    0.4350 C   0  0  0  0  0  0  0  0  0  0  0  0
    1.7860    3.6740    1.1680 N   0  0  0  0  0  0  0  0  0  0  0  0
    2.9240    2.9820    1.2390 C   0  0  0  0  0  0  0  0  0  0  0  0
    2.7890    1.8140    0.5460 N   0  0  0  0  0  0  0  0  0  0  0  0
   -0.3370   -1.4240   -0.7370 C   0  0  0  0  0  0  0  0  0  0  0  0
   -0.0830   -2.6320   -0.5230 O   0  0  0  0  0  0  0  0  0  0  0  0
    2.0710   -1.4540    0.7110 H   0  0  0  0  0  0  0  0  0  0  0  0
   -0.4920    0.2030    0.6670 H   0  0  0  0  0  0  0  0  0  0  0  0
    0.2000    1.1560   -1.4420 H   0  0  0  0  0  0  0  0  0  0  0  0
    1.7530    0.2110   -1.4560 H   0  0  0  0  0  0  0  0  0  0  0  0
   -0.0720    3.2250    0.1900 H   0  0  0  0  0  0  0  0  0  0  0  0
    1.6080    4.6070    1.6090 H   0  0  0  0  0  0  0  0  0  0  0  0
    3.8220    3.2970    1.7650 H   0  0  0  0  0  0  0  0  0  0  0  0
   -3.4370   -2.2220    1.4520 N   0  0  0  0  0  0  0  0  0  0  0  0
   -3.5210   -1.8040    0.0970 C   0  0  0  0  0  0  0  0  0  0  0  0
   -3.3730   -0.5730   -0.1980 O   0  0  0  0  0  0  0  0  0  0  0  0
   -3.7790   -2.7530   -0.9820 C   0  0  0  0  0  0  0  0  0  0  0  0
   -3.3610   -2.3490   -2.3610 C   0  0  0  0  0  0  0  0  0  0  0  0
   -1.9070   -2.1550   -2.5830 C   0  0  2  0  0  0  0  0  0  0  0  0
   -1.2760   -1.1440   -1.7950 N   0  0  0  0  0  0  0  0  0  0  0  0
   -1.5570   -2.0480   -4.0260 C   0  0  0  0  0  0  0  0  0  0  0  0
   -0.7900   -1.1540   -4.4560 O   0  0  0  0  0  0  0  0  0  0  0  0
   -2.0780   -2.9460   -4.9430 O   0  0  0  0  0  0  0  0  0  0  0  0
   -3.4470   -1.5130    2.2000 H   0  0  0  0  0  0  0  0  0  0  0  0
   -3.3660   -3.2210    1.6940 H   0  0  0  0  0  0  0  0  0  0  0  0
   -4.8230   -3.1520   -0.9670 H   0  0  0  0  0  0  0  0  0  0  0  0
   -3.1470   -3.6680   -0.7380 H   0  0  0  0  0  0  0  0  0  0  0  0
   -3.9790   -1.4860   -2.7140 H   0  0  0  0  0  0  0  0  0  0  0  0
   -3.6670   -3.2180   -3.0250 H   0  0  0  0  0  0  0  0  0  0  0  0
   -1.4270   -3.1350   -2.2390 H   0  0  0  0  0  0  0  0  0  0  0  0
   -1.4550   -0.1270   -1.9650 H   0  0  0  0  0  0  0  0  0  0  0  0
  1 10  1  0  0  0  0
  1  9  1  0  0  0  0
  2  4  1  0  0  0  0
  2  1  1  0  0  0  0
  3  2  2  0  0  0  0
  4 11  1  0  0  0  0
  4 12  1  0  0  0  0
  5 13  1  1  0  0  0
  5  4  1  0  0  0  0
  6  5  1  0  0  0  0
  6 15  1  0  0  0  0
  7  8  2  0  0  0  0
  7  5  1  0  0  0  0
 14  6  1  0  0  0  0
 16  7  1  0  0  0  0
 17 27  1  1  0  0  0
 17 16  1  0  0  0  0
 18 19  1  0  0  0  0
 18 17  1  0  0  0  0
 19 20  2  0  0  0  0
 19 23  1  0  0  0  0
 20 21  1  0  0  0  0
 21 22  1  0  0  0  0
 21 31  1  0  0  0  0
 22 32  1  0  0  0  0
 23 22  2  0  0  0  0
 24 25  2  0  0  0  0
 24 17  1  0  0  0  0
 26 16  1  0  0  0  0
 28 18  1  0  0  0  0
 29 18  1  0  0  0  0
 30 20  1  0  0  0  0
 33 44  1  0  0  0  0
 33 43  1  0  0  0  0
 34 33  1  0  0  0  0
 35 34  2  0  0  0  0
 36 45  1  0  0  0  0
 36 46  1  0  0  0  0
 36 34  1  0  0  0  0
 37 36  1  0  0  0  0
 38 37  1  0  0  0  0
 38 49  1  1  0  0  0
 38 39  1  0  0  0  0
 39 24  1  0  0  0  0
 40 38  1  0  0  0  0
 41 40  1  0  0  0  0
 42 40  2  0  0  0  0
 47 37  1  0  0  0  0
 48 37  1  0  0  0  0
 50 39  1  0  0  0  0
M  END
$$$$
