NHR.pdb
 OpenBabel07022418093D

 56 56  0  0  1  0  0  0  0  0999 V2000
    0.4840   -0.7410    4.0620 N   0  0  0  0  0  0  0  0  0  0  0  0
    1.4190   -1.7330    4.4080 C   0  0  0  0  0  0  0  0  0  0  0  0
    1.0290   -2.6730    5.1490 O   0  0  0  0  0  0  0  0  0  0  0  0
    2.8240   -1.7770    3.9820 C   0  0  0  0  0  0  0  0  0  0  0  0
    3.2380   -0.6330    3.1060 C   0  0  2  0  0  0  0  0  0  0  0  0
    3.0860    0.6480    3.7340 N   0  0  0  0  0  0  0  0  0  0  0  0
    2.5580   -0.6920    1.7670 C   0  0  0  0  0  0  0  0  0  0  0  0
    2.6550   -1.7820    1.1630 O   0  0  0  0  0  0  0  0  0  0  0  0
   -0.5120   -1.0000    3.8920 H   0  0  0  0  0  0  0  0  0  0  0  0
    0.7140    0.2700    3.9560 H   0  0  0  0  0  0  0  0  0  0  0  0
    3.5270   -1.8580    4.8150 H   0  0  0  0  0  0  0  0  0  0  0  0
    2.9410   -2.7120    3.3660 H   0  0  0  0  0  0  0  0  0  0  0  0
    4.3190   -0.7720    2.8900 H   0  0  0  0  0  0  0  0  0  0  0  0
    3.6870    1.3840    3.3390 H   0  0  0  0  0  0  0  0  0  0  0  0
    3.2350    0.5020    4.7760 H   0  0  0  0  0  0  0  0  0  0  0  0
    1.8580    0.3830    1.2100 N   0  0  0  0  0  0  0  0  0  0  0  0
    1.2130    0.2780   -0.0720 C   0  0  1  0  0  0  0  0  0  0  0  0
    2.1050    0.5010   -1.2410 C   0  0  0  0  0  0  0  0  0  0  0  0
    2.7120    1.8550   -1.2140 C   0  0  0  0  0  0  0  0  0  0  0  0
    3.8920    2.2100   -0.6290 C   0  0  0  0  0  0  0  0  0  0  0  0
    4.1120    3.5290   -0.8140 N   0  0  0  0  0  0  0  0  0  0  0  0
    3.0690    4.0060   -1.5170 C   0  0  0  0  0  0  0  0  0  0  0  0
    2.2190    2.9850   -1.7600 N   0  0  0  0  0  0  0  0  0  0  0  0
    0.3120   -0.9000   -0.2000 C   0  0  0  0  0  0  0  0  0  0  0  0
    0.1460   -1.6130    0.8130 O   0  0  0  0  0  0  0  0  0  0  0  0
    1.8270    1.2860    1.7850 H   0  0  0  0  0  0  0  0  0  0  0  0
    0.4630    1.1480   -0.0700 H   0  0  0  0  0  0  0  0  0  0  0  0
    1.6220    0.3910   -2.2130 H   0  0  0  0  0  0  0  0  0  0  0  0
    2.9800   -0.2150   -1.2530 H   0  0  0  0  0  0  0  0  0  0  0  0
    4.5560    1.5440   -0.0960 H   0  0  0  0  0  0  0  0  0  0  0  0
    4.9490    4.0710   -0.4660 H   0  0  0  0  0  0  0  0  0  0  0  0
    2.9680    5.0380   -1.8170 H   0  0  0  0  0  0  0  0  0  0  0  0
   -6.3420   -3.7450    0.0550 N   0  0  0  0  0  0  0  0  0  0  0  0
   -5.7140   -2.4630    0.2240 C   0  0  0  0  0  0  0  0  0  0  0  0
   -5.4110   -2.0080    1.3900 N   0  0  0  0  0  0  0  0  0  0  0  0
   -5.4420   -1.7190   -0.9610 N   0  0  0  0  0  0  0  0  0  0  0  0
   -4.5250   -0.5970   -0.9290 C   0  0  0  0  0  0  0  0  0  0  0  0
   -3.1030   -1.0620   -0.6810 C   0  0  0  0  0  0  0  0  0  0  0  0
   -2.6340   -2.0100   -1.7690 C   0  0  0  0  0  0  0  0  0  0  0  0
   -1.2160   -2.4110   -1.4330 C   0  0  2  0  0  0  0  0  0  0  0  0
   -0.3530   -1.2490   -1.3820 N   0  0  0  0  0  0  0  0  0  0  0  0
   -0.6940   -3.4300   -2.3850 C   0  0  0  0  0  0  0  0  0  0  0  0
   -1.2950   -4.5180   -2.5770 O   0  0  0  0  0  0  0  0  0  0  0  0
    0.4810   -3.2440   -3.1140 O   0  0  0  0  0  0  0  0  0  0  0  0
   -7.2090   -3.8680   -0.4920 H   0  0  0  0  0  0  0  0  0  0  0  0
   -5.8790   -4.5650    0.5150 H   0  0  0  0  0  0  0  0  0  0  0  0
   -5.6370   -2.6020    2.2130 H   0  0  0  0  0  0  0  0  0  0  0  0
   -5.9170   -1.9920   -1.8700 H   0  0  0  0  0  0  0  0  0  0  0  0
   -4.5350   -0.0970   -1.9240 H   0  0  0  0  0  0  0  0  0  0  0  0
   -4.7960    0.0850   -0.1090 H   0  0  0  0  0  0  0  0  0  0  0  0
   -3.1160   -1.6430    0.2640 H   0  0  0  0  0  0  0  0  0  0  0  0
   -2.4050   -0.2150   -0.6580 H   0  0  0  0  0  0  0  0  0  0  0  0
   -3.2830   -2.9060   -1.6970 H   0  0  0  0  0  0  0  0  0  0  0  0
   -2.7090   -1.5460   -2.7740 H   0  0  0  0  0  0  0  0  0  0  0  0
   -1.2430   -2.9120   -0.4380 H   0  0  0  0  0  0  0  0  0  0  0  0
   -0.2290   -0.6730   -2.2280 H   0  0  0  0  0  0  0  0  0  0  0  0
  1  2  1  0  0  0  0
  2  3  2  0  0  0  0
  4  2  1  0  0  0  0
  4 11  1  0  0  0  0
  5 13  1  6  0  0  0
  5  6  1  0  0  0  0
  5  4  1  0  0  0  0
  6 15  1  0  0  0  0
  7  5  1  0  0  0  0
  8  7  2  0  0  0  0
  9  1  1  0  0  0  0
 10  1  1  0  0  0  0
 12  4  1  0  0  0  0
 14  6  1  0  0  0  0
 16  7  1  0  0  0  0
 16 26  1  0  0  0  0
 17 27  1  6  0  0  0
 17 16  1  0  0  0  0
 18 19  1  0  0  0  0
 18 17  1  0  0  0  0
 19 20  2  0  0  0  0
 20 30  1  0  0  0  0
 21 20  1  0  0  0  0
 21 31  1  0  0  0  0
 22 21  1  0  0  0  0
 23 22  2  0  0  0  0
 23 19  1  0  0  0  0
 24 17  1  0  0  0  0
 24 25  2  0  0  0  0
 28 18  1  0  0  0  0
 29 18  1  0  0  0  0
 32 22  1  0  0  0  0
 33 34  1  0  0  0  0
 33 46  1  0  0  0  0
 34 35  2  0  0  0  0
 35 47  1  0  0  0  0
 36 37  1  0  0  0  0
 36 34  1  0  0  0  0
 37 38  1  0  0  0  0
 37 50  1  0  0  0  0
 38 52  1  0  0  0  0
 38 51  1  0  0  0  0
 39 53  1  0  0  0  0
 39 40  1  0  0  0  0
 39 38  1  0  0  0  0
 40 41  1  0  0  0  0
 40 55  1  1  0  0  0
 41 24  1  0  0  0  0
 42 40  1  0  0  0  0
 43 42  1  0  0  0  0
 44 42  2  0  0  0  0
 45 33  1  0  0  0  0
 48 36  1  0  0  0  0
 49 37  1  0  0  0  0
 54 39  1  0  0  0  0
 56 41  1  0  0  0  0
M  END
$$$$
