NHT.pdb
 OpenBabel07022418093D

 47 47  0  0  1  0  0  0  0  0999 V2000
    4.6810   -0.6800    4.1280 N   0  0  0  0  0  0  0  0  0  0  0  0
    3.8170   -1.3330    3.1640 C   0  0  0  0  0  0  0  0  0  0  0  0
    2.6610   -1.6470    3.4660 O   0  0  0  0  0  0  0  0  0  0  0  0
    4.3860   -1.5860    1.8560 C   0  0  0  0  0  0  0  0  0  0  0  0
    3.4650   -2.2220    0.8460 C   0  0  2  0  0  0  0  0  0  0  0  0
    4.3200   -2.3700   -0.3680 N   0  0  0  0  0  0  0  0  0  0  0  0
    2.3490   -1.3180    0.4200 C   0  0  0  0  0  0  0  0  0  0  0  0
    2.6530   -0.4740   -0.4600 O   0  0  0  0  0  0  0  0  0  0  0  0
    5.3820   -0.0090    3.8050 H   0  0  0  0  0  0  0  0  0  0  0  0
    4.5160   -0.9530    5.1210 H   0  0  0  0  0  0  0  0  0  0  0  0
    5.3070   -2.2200    1.8840 H   0  0  0  0  0  0  0  0  0  0  0  0
    4.7410   -0.6330    1.3620 H   0  0  0  0  0  0  0  0  0  0  0  0
    3.1230   -3.2300    1.1050 H   0  0  0  0  0  0  0  0  0  0  0  0
    5.1560   -1.7670   -0.3230 H   0  0  0  0  0  0  0  0  0  0  0  0
    3.7850   -2.1400   -1.2200 H   0  0  0  0  0  0  0  0  0  0  0  0
    1.0440   -1.3610    0.9230 N   0  0  0  0  0  0  0  0  0  0  0  0
   -0.0510   -0.5150    0.5920 C   0  0  1  0  0  0  0  0  0  0  0  0
    0.2470    0.6410   -0.3400 C   0  0  0  0  0  0  0  0  0  0  0  0
    1.1720    1.6400    0.2250 C   0  0  0  0  0  0  0  0  0  0  0  0
    1.6920    1.6760    1.4830 C   0  0  0  0  0  0  0  0  0  0  0  0
    2.4360    2.8020    1.5370 N   0  0  0  0  0  0  0  0  0  0  0  0
    2.3890    3.4480    0.3710 C   0  0  0  0  0  0  0  0  0  0  0  0
    1.6010    2.7140   -0.4320 N   0  0  0  0  0  0  0  0  0  0  0  0
   -1.3150   -1.1860    0.2920 C   0  0  0  0  0  0  0  0  0  0  0  0
   -1.3180   -2.4630    0.3370 O   0  0  0  0  0  0  0  0  0  0  0  0
    0.8700   -2.1520    1.6270 H   0  0  0  0  0  0  0  0  0  0  0  0
   -0.1930    0.1230    1.5760 H   0  0  0  0  0  0  0  0  0  0  0  0
   -0.7130    1.1640   -0.5180 H   0  0  0  0  0  0  0  0  0  0  0  0
    0.6090    0.3100   -1.3250 H   0  0  0  0  0  0  0  0  0  0  0  0
    1.5550    0.9640    2.2900 H   0  0  0  0  0  0  0  0  0  0  0  0
    2.9700    3.1040    2.3950 H   0  0  0  0  0  0  0  0  0  0  0  0
    2.8910    4.3770    0.1330 H   0  0  0  0  0  0  0  0  0  0  0  0
   -6.0950   -1.6750    0.4190 C   0  0  0  0  0  0  0  0  0  0  0  0
   -4.8140   -0.9280    0.7020 C   0  0  1  0  0  0  0  0  0  0  0  0
   -4.3550   -1.1990    1.9930 O   0  0  0  0  0  0  0  0  0  0  0  0
   -3.7550   -1.3430   -0.3270 C   0  0  2  0  0  0  0  0  0  0  0  0
   -2.5430   -0.5710   -0.0430 N   0  0  0  0  0  0  0  0  0  0  0  0
   -4.2900   -1.0400   -1.6600 C   0  0  0  0  0  0  0  0  0  0  0  0
   -3.7760   -0.2130   -2.4630 O   0  0  0  0  0  0  0  0  0  0  0  0
   -5.4340   -1.7000   -2.0750 O   0  0  0  0  0  0  0  0  0  0  0  0
   -6.6570   -1.8210    1.3890 H   0  0  0  0  0  0  0  0  0  0  0  0
   -5.8700   -2.6790   -0.0020 H   0  0  0  0  0  0  0  0  0  0  0  0
   -6.7800   -1.1320   -0.2600 H   0  0  0  0  0  0  0  0  0  0  0  0
   -5.0090    0.1550    0.6430 H   0  0  0  0  0  0  0  0  0  0  0  0
   -4.0700   -0.3570    2.4690 H   0  0  0  0  0  0  0  0  0  0  0  0
   -3.5300   -2.4050   -0.2410 H   0  0  0  0  0  0  0  0  0  0  0  0
   -2.5620    0.4700   -0.0830 H   0  0  0  0  0  0  0  0  0  0  0  0
  1 10  1  0  0  0  0
  2  3  2  0  0  0  0
  2  1  1  0  0  0  0
  4 11  1  0  0  0  0
  4  2  1  0  0  0  0
  5 13  1  1  0  0  0
  5  4  1  0  0  0  0
  6 14  1  0  0  0  0
  6  5  1  0  0  0  0
  7  5  1  0  0  0  0
  7 16  1  0  0  0  0
  8  7  2  0  0  0  0
  9  1  1  0  0  0  0
 12  4  1  0  0  0  0
 15  6  1  0  0  0  0
 16 26  1  0  0  0  0
 17 16  1  0  0  0  0
 17 27  1  1  0  0  0
 18 19  1  0  0  0  0
 18 17  1  0  0  0  0
 19 20  2  0  0  0  0
 20 21  1  0  0  0  0
 20 30  1  0  0  0  0
 21 31  1  0  0  0  0
 22 21  1  0  0  0  0
 23 19  1  0  0  0  0
 23 22  2  0  0  0  0
 24 25  2  0  0  0  0
 24 17  1  0  0  0  0
 28 18  1  0  0  0  0
 29 18  1  0  0  0  0
 32 22  1  0  0  0  0
 33 34  1  0  0  0  0
 33 41  1  0  0  0  0
 34 44  1  6  0  0  0
 34 35  1  0  0  0  0
 35 45  1  0  0  0  0
 36 46  1  1  0  0  0
 36 37  1  0  0  0  0
 36 34  1  0  0  0  0
 37 24  1  0  0  0  0
 38 36  1  0  0  0  0
 39 38  2  0  0  0  0
 40 38  1  0  0  0  0
 42 33  1  0  0  0  0
 43 33  1  0  0  0  0
 47 37  1  0  0  0  0
M  END
$$$$
