NHV.pdb
 OpenBabel07022418103D

 49 49  0  0  1  0  0  0  0  0999 V2000
    1.5430   -3.7130    5.3290 N   0  0  0  0  0  0  0  0  0  0  0  0
    1.5710   -2.3550    4.9530 C   0  0  0  0  0  0  0  0  0  0  0  0
    1.5390   -1.4570    5.8390 O   0  0  0  0  0  0  0  0  0  0  0  0
    1.6370   -2.0420    3.5010 C   0  0  0  0  0  0  0  0  0  0  0  0
    1.6610   -0.5520    3.2520 C   0  0  2  0  0  0  0  0  0  0  0  0
    0.4850    0.1060    3.7700 N   0  0  0  0  0  0  0  0  0  0  0  0
    1.7430   -0.3830    1.7560 C   0  0  0  0  0  0  0  0  0  0  0  0
    2.6900   -0.8840    1.1400 O   0  0  0  0  0  0  0  0  0  0  0  0
    1.0460   -4.3960    4.7410 H   0  0  0  0  0  0  0  0  0  0  0  0
    2.0190   -4.0170    6.1890 H   0  0  0  0  0  0  0  0  0  0  0  0
    2.5790   -2.4640    3.1220 H   0  0  0  0  0  0  0  0  0  0  0  0
    0.8120   -2.5440    2.9650 H   0  0  0  0  0  0  0  0  0  0  0  0
    2.5560   -0.1160    3.6950 H   0  0  0  0  0  0  0  0  0  0  0  0
   -0.3970   -0.2860    3.4130 H   0  0  0  0  0  0  0  0  0  0  0  0
    0.6060    1.1290    3.6090 H   0  0  0  0  0  0  0  0  0  0  0  0
    0.7500    0.3420    1.0400 N   0  0  0  0  0  0  0  0  0  0  0  0
    0.7100    0.5910   -0.3500 C   0  0  1  0  0  0  0  0  0  0  0  0
    2.0480    0.7550   -1.0500 C   0  0  0  0  0  0  0  0  0  0  0  0
    2.7540    1.9250   -0.5080 C   0  0  0  0  0  0  0  0  0  0  0  0
    3.6530    2.1200    0.4960 C   0  0  0  0  0  0  0  0  0  0  0  0
    4.0090    3.4130    0.5770 N   0  0  0  0  0  0  0  0  0  0  0  0
    3.3300    4.0530   -0.3860 C   0  0  0  0  0  0  0  0  0  0  0  0
    2.5740    3.1650   -1.0420 N   0  0  0  0  0  0  0  0  0  0  0  0
   -0.2690   -0.1860   -1.1340 C   0  0  0  0  0  0  0  0  0  0  0  0
   -0.3370    0.0090   -2.3870 O   0  0  0  0  0  0  0  0  0  0  0  0
   -0.0270    0.7170    1.6750 H   0  0  0  0  0  0  0  0  0  0  0  0
    0.3330    1.6910   -0.4200 H   0  0  0  0  0  0  0  0  0  0  0  0
    1.8050    0.9450   -2.1170 H   0  0  0  0  0  0  0  0  0  0  0  0
    2.6530   -0.1720   -1.0610 H   0  0  0  0  0  0  0  0  0  0  0  0
    4.0580    1.3730    1.1570 H   0  0  0  0  0  0  0  0  0  0  0  0
    4.6940    3.8500    1.2670 H   0  0  0  0  0  0  0  0  0  0  0  0
    3.4240    5.1190   -0.5520 H   0  0  0  0  0  0  0  0  0  0  0  0
   -3.9480   -1.2540    0.2820 C   0  0  0  0  0  0  0  0  0  0  0  0
   -3.4960   -1.3960   -1.1780 C   0  0  0  0  0  0  0  0  0  0  0  0
   -4.4820   -2.3320   -1.8280 C   0  0  0  0  0  0  0  0  0  0  0  0
   -2.1120   -1.9540   -1.2300 C   0  0  2  0  0  0  0  0  0  0  0  0
   -1.1380   -1.1380   -0.5610 N   0  0  0  0  0  0  0  0  0  0  0  0
   -1.7090   -2.4710   -2.5550 C   0  0  0  0  0  0  0  0  0  0  0  0
   -2.5580   -3.1120   -3.2740 O   0  0  0  0  0  0  0  0  0  0  0  0
   -0.4630   -2.3380   -3.1280 O   0  0  0  0  0  0  0  0  0  0  0  0
   -3.6560   -2.2340    0.7580 H   0  0  0  0  0  0  0  0  0  0  0  0
   -3.4300   -0.4140    0.7720 H   0  0  0  0  0  0  0  0  0  0  0  0
   -5.0410   -1.1510    0.3550 H   0  0  0  0  0  0  0  0  0  0  0  0
   -3.5650   -0.3890   -1.6490 H   0  0  0  0  0  0  0  0  0  0  0  0
   -4.1780   -3.3640   -1.6270 H   0  0  0  0  0  0  0  0  0  0  0  0
   -4.6180   -2.1050   -2.9110 H   0  0  0  0  0  0  0  0  0  0  0  0
   -5.4800   -2.2210   -1.3070 H   0  0  0  0  0  0  0  0  0  0  0  0
   -2.1400   -2.9300   -0.6010 H   0  0  0  0  0  0  0  0  0  0  0  0
   -1.0170   -1.2230    0.5090 H   0  0  0  0  0  0  0  0  0  0  0  0
  1 10  1  0  0  0  0
  2  1  1  0  0  0  0
  2  3  2  0  0  0  0
  4  2  1  0  0  0  0
  5  4  1  0  0  0  0
  5 13  1  1  0  0  0
  5  6  1  0  0  0  0
  7  5  1  0  0  0  0
  8  7  2  0  0  0  0
  9  1  1  0  0  0  0
 11  4  1  0  0  0  0
 12  4  1  0  0  0  0
 14  6  1  0  0  0  0
 15  6  1  0  0  0  0
 16 26  1  0  0  0  0
 16  7  1  0  0  0  0
 17 27  1  6  0  0  0
 17 16  1  0  0  0  0
 18 19  1  0  0  0  0
 18 17  1  0  0  0  0
 19 20  2  0  0  0  0
 20 21  1  0  0  0  0
 20 30  1  0  0  0  0
 21 31  1  0  0  0  0
 22 21  1  0  0  0  0
 23 19  1  0  0  0  0
 23 22  2  0  0  0  0
 24 37  1  0  0  0  0
 24 17  1  0  0  0  0
 25 24  2  0  0  0  0
 28 18  1  0  0  0  0
 29 18  1  0  0  0  0
 32 22  1  0  0  0  0
 33 43  1  0  0  0  0
 33 41  1  0  0  0  0
 33 42  1  0  0  0  0
 34 33  1  0  0  0  0
 35 45  1  0  0  0  0
 35 47  1  0  0  0  0
 35 34  1  0  0  0  0
 36 34  1  0  0  0  0
 36 48  1  1  0  0  0
 36 37  1  0  0  0  0
 37 49  1  0  0  0  0
 38 36  1  0  0  0  0
 39 38  2  0  0  0  0
 40 38  1  0  0  0  0
 44 34  1  0  0  0  0
 46 35  1  0  0  0  0
M  END
$$$$
