NHW.pdb
 OpenBabel07022418093D

 57 59  0  0  1  0  0  0  0  0999 V2000
    2.3030   -2.9110    3.9650 N   0  0  0  0  0  0  0  0  0  0  0  0
    3.0410   -3.0060    2.7530 C   0  0  0  0  0  0  0  0  0  0  0  0
    2.8960   -4.0950    2.1050 O   0  0  0  0  0  0  0  0  0  0  0  0
    3.9250   -1.9160    2.2600 C   0  0  0  0  0  0  0  0  0  0  0  0
    3.5160   -1.4950    0.8620 C   0  0  2  0  0  0  0  0  0  0  0  0
    4.3610   -0.4320    0.3580 N   0  0  0  0  0  0  0  0  0  0  0  0
    2.0940   -1.0590    0.8330 C   0  0  0  0  0  0  0  0  0  0  0  0
    1.2030   -1.8690    1.2110 O   0  0  0  0  0  0  0  0  0  0  0  0
    1.3020   -3.1710    4.0500 H   0  0  0  0  0  0  0  0  0  0  0  0
    2.7930   -2.5600    4.8120 H   0  0  0  0  0  0  0  0  0  0  0  0
    4.9430   -2.3910    2.1530 H   0  0  0  0  0  0  0  0  0  0  0  0
    3.9940   -1.1020    2.9790 H   0  0  0  0  0  0  0  0  0  0  0  0
    3.6670   -2.3730    0.2060 H   0  0  0  0  0  0  0  0  0  0  0  0
    5.3090   -0.8540    0.1830 H   0  0  0  0  0  0  0  0  0  0  0  0
    3.9820   -0.2000   -0.6010 H   0  0  0  0  0  0  0  0  0  0  0  0
    1.6390    0.2140    0.4090 N   0  0  0  0  0  0  0  0  0  0  0  0
    0.2330    0.6150    0.3900 C   0  0  1  0  0  0  0  0  0  0  0  0
   -0.0470    1.9480    0.9520 C   0  0  0  0  0  0  0  0  0  0  0  0
    0.3000    2.1010    2.3800 C   0  0  0  0  0  0  0  0  0  0  0  0
    0.7800    1.1760    3.2670 C   0  0  0  0  0  0  0  0  0  0  0  0
    0.9100    1.7910    4.4750 N   0  0  0  0  0  0  0  0  0  0  0  0
    0.5240    3.0700    4.3590 C   0  0  0  0  0  0  0  0  0  0  0  0
    0.1510    3.2710    3.0940 N   0  0  0  0  0  0  0  0  0  0  0  0
   -0.3160    0.4610   -0.9970 C   0  0  0  0  0  0  0  0  0  0  0  0
    0.3620    0.1050   -1.9710 O   0  0  0  0  0  0  0  0  0  0  0  0
    2.3340    0.9060    0.0940 H   0  0  0  0  0  0  0  0  0  0  0  0
   -0.3060   -0.1610    0.9710 H   0  0  0  0  0  0  0  0  0  0  0  0
    0.4020    2.7870    0.3610 H   0  0  0  0  0  0  0  0  0  0  0  0
   -1.1560    2.1370    0.8620 H   0  0  0  0  0  0  0  0  0  0  0  0
    1.0130    0.1410    3.0880 H   0  0  0  0  0  0  0  0  0  0  0  0
    1.2620    1.2970    5.3300 H   0  0  0  0  0  0  0  0  0  0  0  0
    0.5200    3.8110    5.1690 H   0  0  0  0  0  0  0  0  0  0  0  0
   -1.6890    0.7450   -1.1770 N   0  0  0  0  0  0  0  0  0  0  0  0
   -2.4000    0.6670   -2.4260 C   0  0  1  0  0  0  0  0  0  0  0  0
   -3.3380   -0.4860   -2.4250 C   0  0  0  0  0  0  0  0  0  0  0  0
   -2.6860   -1.8110   -2.2440 C   0  0  0  0  0  0  0  0  0  0  0  0
   -2.3260   -2.6890   -3.2630 C   0  0  0  0  0  0  0  0  0  0  0  0
   -1.7380   -3.7480   -2.6960 N   0  0  0  0  0  0  0  0  0  0  0  0
   -1.7020   -3.5960   -1.3580 C   0  0  0  0  0  0  0  0  0  0  0  0
   -1.2030   -4.4370   -0.3920 C   0  0  0  0  0  0  0  0  0  0  0  0
   -1.2900   -4.0710    0.9280 C   0  0  0  0  0  0  0  0  0  0  0  0
   -1.8740   -2.8730    1.2450 C   0  0  0  0  0  0  0  0  0  0  0  0
   -2.3680   -2.0450    0.2690 C   0  0  0  0  0  0  0  0  0  0  0  0
   -2.3010   -2.3710   -1.0670 C   0  0  0  0  0  0  0  0  0  0  0  0
   -2.9940    1.9300   -2.8410 C   0  0  0  0  0  0  0  0  0  0  0  0
   -3.6390    2.0240   -3.9000 O   0  0  0  0  0  0  0  0  0  0  0  0
   -2.8450    3.0540   -2.0490 O   0  0  0  0  0  0  0  0  0  0  0  0
   -2.3040    1.0490   -0.3580 H   0  0  0  0  0  0  0  0  0  0  0  0
   -1.5890    0.3940   -3.1850 H   0  0  0  0  0  0  0  0  0  0  0  0
   -4.1080   -0.4200   -1.6090 H   0  0  0  0  0  0  0  0  0  0  0  0
   -3.9290   -0.4610   -3.3710 H   0  0  0  0  0  0  0  0  0  0  0  0
   -2.5250   -2.4720   -4.2950 H   0  0  0  0  0  0  0  0  0  0  0  0
   -1.3510   -4.5940   -3.2040 H   0  0  0  0  0  0  0  0  0  0  0  0
   -0.7390   -5.3860   -0.6250 H   0  0  0  0  0  0  0  0  0  0  0  0
   -0.8910   -4.7400    1.7080 H   0  0  0  0  0  0  0  0  0  0  0  0
   -1.9330   -2.6050    2.2850 H   0  0  0  0  0  0  0  0  0  0  0  0
   -2.8440   -1.0920    0.5240 H   0  0  0  0  0  0  0  0  0  0  0  0
  1  9  1  0  0  0  0
  1 10  1  0  0  0  0
  2  1  1  0  0  0  0
  3  2  2  0  0  0  0
  4  2  1  0  0  0  0
  4 12  1  0  0  0  0
  5 13  1  6  0  0  0
  5  4  1  0  0  0  0
  6  5  1  0  0  0  0
  7  5  1  0  0  0  0
  7  8  2  0  0  0  0
 11  4  1  0  0  0  0
 14  6  1  0  0  0  0
 15  6  1  0  0  0  0
 16  7  1  0  0  0  0
 17 16  1  0  0  0  0
 17 18  1  0  0  0  0
 17 27  1  1  0  0  0
 18 19  1  0  0  0  0
 19 23  1  0  0  0  0
 19 20  2  0  0  0  0
 20 21  1  0  0  0  0
 21 31  1  0  0  0  0
 22 21  1  0  0  0  0
 22 32  1  0  0  0  0
 23 22  2  0  0  0  0
 24 17  1  0  0  0  0
 25 24  2  0  0  0  0
 26 16  1  0  0  0  0
 28 18  1  0  0  0  0
 29 18  1  0  0  0  0
 30 20  1  0  0  0  0
 33 24  1  0  0  0  0
 33 48  1  0  0  0  0
 34 49  1  6  0  0  0
 34 35  1  0  0  0  0
 34 33  1  0  0  0  0
 35 36  1  0  0  0  0
 35 50  1  0  0  0  0
 36 44  1  0  0  0  0
 37 38  1  0  0  0  0
 37 36  2  0  0  0  0
 38 39  1  0  0  0  0
 39 44  2  0  0  0  0
 39 40  1  0  0  0  0
 40 41  2  0  0  0  0
 41 42  1  0  0  0  0
 41 55  1  0  0  0  0
 42 56  1  0  0  0  0
 43 57  1  0  0  0  0
 43 42  2  0  0  0  0
 44 43  1  0  0  0  0
 45 34  1  0  0  0  0
 45 47  1  0  0  0  0
 46 45  2  0  0  0  0
 51 35  1  0  0  0  0
 52 37  1  0  0  0  0
 53 38  1  0  0  0  0
 54 40  1  0  0  0  0
M  END
$$$$
