NHY.pdb
 OpenBabel07022418093D

 54 55  0  0  1  0  0  0  0  0999 V2000
   -0.1420   -0.2580    6.8900 N   0  0  0  0  0  0  0  0  0  0  0  0
    0.5160    0.3850    5.8080 C   0  0  0  0  0  0  0  0  0  0  0  0
    1.0270    1.5070    5.9810 O   0  0  0  0  0  0  0  0  0  0  0  0
    0.5990   -0.2670    4.4810 C   0  0  0  0  0  0  0  0  0  0  0  0
    1.3540    0.6400    3.5120 C   0  0  2  0  0  0  0  0  0  0  0  0
    0.7090    1.9020    3.3470 N   0  0  0  0  0  0  0  0  0  0  0  0
    1.3690   -0.0490    2.1750 C   0  0  0  0  0  0  0  0  0  0  0  0
    1.9000   -1.1850    2.1160 O   0  0  0  0  0  0  0  0  0  0  0  0
   -0.6440    0.3480    7.5740 H   0  0  0  0  0  0  0  0  0  0  0  0
   -0.1390   -1.2760    7.0200 H   0  0  0  0  0  0  0  0  0  0  0  0
   -0.4660   -0.3640    4.1210 H   0  0  0  0  0  0  0  0  0  0  0  0
    1.0490   -1.2690    4.5070 H   0  0  0  0  0  0  0  0  0  0  0  0
    2.3960    0.7370    3.8600 H   0  0  0  0  0  0  0  0  0  0  0  0
   -0.1260    2.0570    3.9170 H   0  0  0  0  0  0  0  0  0  0  0  0
    1.3990    2.6660    3.3260 H   0  0  0  0  0  0  0  0  0  0  0  0
    0.8100    0.5580    1.0380 N   0  0  0  0  0  0  0  0  0  0  0  0
    0.7890   -0.0520   -0.2550 C   0  0  1  0  0  0  0  0  0  0  0  0
    2.0590    0.1900   -0.9900 C   0  0  0  0  0  0  0  0  0  0  0  0
    2.2240    1.6590   -1.1420 C   0  0  0  0  0  0  0  0  0  0  0  0
    2.8430    2.5790   -0.3230 C   0  0  0  0  0  0  0  0  0  0  0  0
    2.7430    3.8150   -0.8730 N   0  0  0  0  0  0  0  0  0  0  0  0
    2.0680    3.6750   -2.0260 C   0  0  0  0  0  0  0  0  0  0  0  0
    1.7570    2.3820   -2.1860 N   0  0  0  0  0  0  0  0  0  0  0  0
    0.3250   -1.4700   -0.2580 C   0  0  0  0  0  0  0  0  0  0  0  0
   -0.0760   -2.0510    0.7740 O   0  0  0  0  0  0  0  0  0  0  0  0
    0.3950    1.5300    1.2150 H   0  0  0  0  0  0  0  0  0  0  0  0
   -0.0110    0.5380   -0.8310 H   0  0  0  0  0  0  0  0  0  0  0  0
    2.0860   -0.2690   -1.9960 H   0  0  0  0  0  0  0  0  0  0  0  0
    2.9640   -0.1710   -0.4630 H   0  0  0  0  0  0  0  0  0  0  0  0
    3.3280    2.3430    0.6080 H   0  0  0  0  0  0  0  0  0  0  0  0
    3.1230    4.6970   -0.4650 H   0  0  0  0  0  0  0  0  0  0  0  0
    1.8170    4.4680   -2.7110 H   0  0  0  0  0  0  0  0  0  0  0  0
   -5.2670   -0.3920    0.3150 O   0  0  0  0  0  0  0  0  0  0  0  0
   -4.3300   -1.2170   -0.3150 C   0  0  0  0  0  0  0  0  0  0  0  0
   -4.1930   -2.5450    0.0050 C   0  0  0  0  0  0  0  0  0  0  0  0
   -3.2690   -3.3520   -0.6170 C   0  0  0  0  0  0  0  0  0  0  0  0
   -2.4290   -2.8470   -1.6080 C   0  0  0  0  0  0  0  0  0  0  0  0
   -1.4300   -3.7060   -2.2870 C   0  0  0  0  0  0  0  0  0  0  0  0
   -0.1310   -3.6280   -1.4840 C   0  0  2  0  0  0  0  0  0  0  0  0
    0.3150   -2.2480   -1.4520 N   0  0  0  0  0  0  0  0  0  0  0  0
    0.8910   -4.5340   -2.0080 C   0  0  0  0  0  0  0  0  0  0  0  0
    2.0190   -4.1360   -2.3820 O   0  0  0  0  0  0  0  0  0  0  0  0
   -2.5700   -1.5130   -1.9270 C   0  0  0  0  0  0  0  0  0  0  0  0
   -3.4940   -0.7120   -1.3010 C   0  0  0  0  0  0  0  0  0  0  0  0
    0.6070   -5.8890   -2.0960 O   0  0  0  0  0  0  0  0  0  0  0  0
   -5.8410    0.2610   -0.2400 H   0  0  0  0  0  0  0  0  0  0  0  0
   -4.8180   -2.9880    0.7650 H   0  0  0  0  0  0  0  0  0  0  0  0
   -3.1640   -4.3890   -0.3650 H   0  0  0  0  0  0  0  0  0  0  0  0
   -1.7730   -4.7510   -2.3130 H   0  0  0  0  0  0  0  0  0  0  0  0
   -1.2380   -3.3240   -3.3060 H   0  0  0  0  0  0  0  0  0  0  0  0
   -0.4300   -3.8870   -0.4320 H   0  0  0  0  0  0  0  0  0  0  0  0
    0.6440   -1.7840   -2.3260 H   0  0  0  0  0  0  0  0  0  0  0  0
   -1.9330   -1.0900   -2.6910 H   0  0  0  0  0  0  0  0  0  0  0  0
   -3.6070    0.3350   -1.5490 H   0  0  0  0  0  0  0  0  0  0  0  0
  1 10  1  0  0  0  0
  1  9  1  0  0  0  0
  2  3  2  0  0  0  0
  2  1  1  0  0  0  0
  4 12  1  0  0  0  0
  4  2  1  0  0  0  0
  5 13  1  1  0  0  0
  5  4  1  0  0  0  0
  6  5  1  0  0  0  0
  6 14  1  0  0  0  0
  7  5  1  0  0  0  0
  8  7  2  0  0  0  0
 11  4  1  0  0  0  0
 15  6  1  0  0  0  0
 16 26  1  0  0  0  0
 16  7  1  0  0  0  0
 17 27  1  6  0  0  0
 17 16  1  0  0  0  0
 18 29  1  0  0  0  0
 18 17  1  0  0  0  0
 19 18  1  0  0  0  0
 19 20  2  0  0  0  0
 20 30  1  0  0  0  0
 21 31  1  0  0  0  0
 21 20  1  0  0  0  0
 22 21  1  0  0  0  0
 23 22  2  0  0  0  0
 23 19  1  0  0  0  0
 24 17  1  0  0  0  0
 24 25  2  0  0  0  0
 28 18  1  0  0  0  0
 32 22  1  0  0  0  0
 34 35  1  0  0  0  0
 34 33  1  0  0  0  0
 35 47  1  0  0  0  0
 36 48  1  0  0  0  0
 36 35  2  0  0  0  0
 37 36  1  0  0  0  0
 38 37  1  0  0  0  0
 38 39  1  0  0  0  0
 39 40  1  0  0  0  0
 39 51  1  1  0  0  0
 40 24  1  0  0  0  0
 41 39  1  0  0  0  0
 42 41  2  0  0  0  0
 43 37  2  0  0  0  0
 43 44  1  0  0  0  0
 44 34  2  0  0  0  0
 45 41  1  0  0  0  0
 46 33  1  0  0  0  0
 49 38  1  0  0  0  0
 50 38  1  0  0  0  0
 52 40  1  0  0  0  0
 53 43  1  0  0  0  0
 54 44  1  0  0  0  0
M  END
$$$$
