NIA.pdb
 OpenBabel07022418103D

 45 44  0  0  1  0  0  0  0  0999 V2000
    4.4080   -4.6930    0.7940 N   0  0  0  0  0  0  0  0  0  0  0  0
    4.4920   -3.2910    1.0010 C   0  0  0  0  0  0  0  0  0  0  0  0
    5.6180   -2.7360    0.9810 O   0  0  0  0  0  0  0  0  0  0  0  0
    3.2560   -2.5140    1.2360 C   0  0  0  0  0  0  0  0  0  0  0  0
    3.5670   -1.0340    1.4350 C   0  0  2  0  0  0  0  0  0  0  0  0
    4.4350   -0.9040    2.5770 N   0  0  0  0  0  0  0  0  0  0  0  0
    2.3140   -0.2860    1.7180 C   0  0  0  0  0  0  0  0  0  0  0  0
    2.1700    0.3220    2.8270 O   0  0  0  0  0  0  0  0  0  0  0  0
    3.5900   -5.0370    0.2310 H   0  0  0  0  0  0  0  0  0  0  0  0
    5.1170   -5.3420    1.1780 H   0  0  0  0  0  0  0  0  0  0  0  0
    2.7770   -2.9320    2.1410 H   0  0  0  0  0  0  0  0  0  0  0  0
    2.5540   -2.5640    0.3600 H   0  0  0  0  0  0  0  0  0  0  0  0
    4.1080   -0.6310    0.5640 H   0  0  0  0  0  0  0  0  0  0  0  0
    5.4470   -0.7960    2.2860 H   0  0  0  0  0  0  0  0  0  0  0  0
    4.3940   -1.7700    3.1600 H   0  0  0  0  0  0  0  0  0  0  0  0
   -1.1760    0.6390   -1.8040 C   0  0  0  0  0  0  0  0  0  0  0  0
   -0.0040    1.4160   -1.2990 C   0  0  0  0  0  0  0  0  0  0  0  0
   -0.0390    1.7070    0.1590 C   0  0  2  0  0  0  0  0  0  0  0  0
    1.2360    2.5160    0.4720 C   0  0  0  0  0  0  0  0  0  0  0  0
    0.0170    0.5140    1.0570 C   0  0  2  0  0  0  0  0  0  0  0  0
    1.2410   -0.2080    0.7980 N   0  0  0  0  0  0  0  0  0  0  0  0
   -1.1250   -0.3920    1.0110 C   0  0  0  0  0  0  0  0  0  0  0  0
   -0.9430   -1.6340    0.7570 O   0  0  0  0  0  0  0  0  0  0  0  0
   -1.1280   -0.4390   -1.6800 H   0  0  0  0  0  0  0  0  0  0  0  0
   -2.0800    1.0540   -1.3010 H   0  0  0  0  0  0  0  0  0  0  0  0
   -1.3700    0.8620   -2.9010 H   0  0  0  0  0  0  0  0  0  0  0  0
   -0.0330    2.4120   -1.8310 H   0  0  0  0  0  0  0  0  0  0  0  0
    0.9740    0.9780   -1.6170 H   0  0  0  0  0  0  0  0  0  0  0  0
   -0.9100    2.3620    0.3730 H   0  0  0  0  0  0  0  0  0  0  0  0
    2.1200    1.9830    0.0760 H   0  0  0  0  0  0  0  0  0  0  0  0
    1.3670    2.6300    1.5670 H   0  0  0  0  0  0  0  0  0  0  0  0
    1.1330    3.5500    0.0630 H   0  0  0  0  0  0  0  0  0  0  0  0
    0.1700    0.9450    2.0980 H   0  0  0  0  0  0  0  0  0  0  0  0
    1.3400   -0.6970   -0.1100 H   0  0  0  0  0  0  0  0  0  0  0  0
   -4.1250   -1.0330    2.6030 C   0  0  0  0  0  0  0  0  0  0  0  0
   -3.5660   -0.9960    1.1690 C   0  0  2  0  0  0  0  0  0  0  0  0
   -2.4820   -0.0330    1.2290 N   0  0  0  0  0  0  0  0  0  0  0  0
   -4.6400   -0.6400    0.2450 C   0  0  0  0  0  0  0  0  0  0  0  0
   -4.5880    0.4200   -0.4110 O   0  0  0  0  0  0  0  0  0  0  0  0
   -5.7270   -1.4710    0.0840 O   0  0  0  0  0  0  0  0  0  0  0  0
   -4.7780   -1.8920    2.7530 H   0  0  0  0  0  0  0  0  0  0  0  0
   -4.6170   -0.0500    2.7550 H   0  0  0  0  0  0  0  0  0  0  0  0
   -3.2310   -1.0330    3.2850 H   0  0  0  0  0  0  0  0  0  0  0  0
   -3.1880   -2.0090    0.8980 H   0  0  0  0  0  0  0  0  0  0  0  0
   -2.6980    0.9620    1.4380 H   0  0  0  0  0  0  0  0  0  0  0  0
  1  2  1  0  0  0  0
  1 10  1  0  0  0  0
  2  4  1  0  0  0  0
  3  2  2  0  0  0  0
  4  5  1  0  0  0  0
  4 11  1  0  0  0  0
  5 13  1  6  0  0  0
  5  7  1  0  0  0  0
  5  6  1  0  0  0  0
  6 15  1  0  0  0  0
  7  8  2  0  0  0  0
  9  1  1  0  0  0  0
 12  4  1  0  0  0  0
 14  6  1  0  0  0  0
 16 24  1  0  0  0  0
 16 25  1  0  0  0  0
 16 17  1  0  0  0  0
 17 18  1  0  0  0  0
 18 29  1  1  0  0  0
 18 19  1  0  0  0  0
 18 20  1  0  0  0  0
 19 31  1  0  0  0  0
 20 33  1  1  0  0  0
 21 20  1  0  0  0  0
 21  7  1  0  0  0  0
 22 20  1  0  0  0  0
 22 37  1  0  0  0  0
 23 22  2  0  0  0  0
 26 16  1  0  0  0  0
 27 17  1  0  0  0  0
 28 17  1  0  0  0  0
 30 19  1  0  0  0  0
 32 19  1  0  0  0  0
 34 21  1  0  0  0  0
 35 41  1  0  0  0  0
 35 42  1  0  0  0  0
 35 43  1  0  0  0  0
 36 44  1  6  0  0  0
 36 37  1  0  0  0  0
 36 35  1  0  0  0  0
 37 45  1  0  0  0  0
 38 36  1  0  0  0  0
 39 38  2  0  0  0  0
 40 38  1  0  0  0  0
M  END
$$$$
