NID.pdb
 OpenBabel07022418103D

 48 47  0  0  1  0  0  0  0  0999 V2000
    2.2810   -3.8850    5.9490 N   0  0  0  0  0  0  0  0  0  0  0  0
    2.5970   -2.5950    5.4560 C   0  0  0  0  0  0  0  0  0  0  0  0
    3.5670   -1.9860    5.9650 O   0  0  0  0  0  0  0  0  0  0  0  0
    1.7540   -2.0480    4.3630 C   0  0  0  0  0  0  0  0  0  0  0  0
    2.2070   -0.6790    3.9670 C   0  0  2  0  0  0  0  0  0  0  0  0
    2.1130    0.1950    5.1160 N   0  0  0  0  0  0  0  0  0  0  0  0
    1.4810   -0.0910    2.8510 C   0  0  0  0  0  0  0  0  0  0  0  0
    0.9210    1.0310    3.0180 O   0  0  0  0  0  0  0  0  0  0  0  0
    1.3060   -4.1530    6.1200 H   0  0  0  0  0  0  0  0  0  0  0  0
    3.0640   -4.5450    6.1300 H   0  0  0  0  0  0  0  0  0  0  0  0
    1.9210   -2.7140    3.4740 H   0  0  0  0  0  0  0  0  0  0  0  0
    0.7150   -2.1250    4.6550 H   0  0  0  0  0  0  0  0  0  0  0  0
    3.2900   -0.6920    3.6850 H   0  0  0  0  0  0  0  0  0  0  0  0
    1.9220    1.1780    4.8740 H   0  0  0  0  0  0  0  0  0  0  0  0
    1.5380   -0.1870    5.8900 H   0  0  0  0  0  0  0  0  0  0  0  0
    0.5830    2.2990   -1.5200 C   0  0  0  0  0  0  0  0  0  0  0  0
    1.0940    0.9000   -1.8040 C   0  0  0  0  0  0  0  0  0  0  0  0
    1.5880    0.1950   -0.5890 C   0  0  2  0  0  0  0  0  0  0  0  0
    2.0790   -1.1900   -0.9810 C   0  0  0  0  0  0  0  0  0  0  0  0
    0.5840    0.0210    0.5270 C   0  0  2  0  0  0  0  0  0  0  0  0
    1.3430   -0.6740    1.5740 N   0  0  0  0  0  0  0  0  0  0  0  0
   -0.5210   -0.8310    0.0600 C   0  0  0  0  0  0  0  0  0  0  0  0
   -0.5900   -2.0460    0.4610 O   0  0  0  0  0  0  0  0  0  0  0  0
   -0.1470    2.5250   -2.3460 H   0  0  0  0  0  0  0  0  0  0  0  0
    0.0300    2.3470   -0.5670 H   0  0  0  0  0  0  0  0  0  0  0  0
    1.4200    3.0020   -1.4920 H   0  0  0  0  0  0  0  0  0  0  0  0
    0.3780    0.3170   -2.3740 H   0  0  0  0  0  0  0  0  0  0  0  0
    1.9870    1.0160   -2.4930 H   0  0  0  0  0  0  0  0  0  0  0  0
    2.4900    0.7050   -0.1630 H   0  0  0  0  0  0  0  0  0  0  0  0
    1.3100   -1.9600   -0.8370 H   0  0  0  0  0  0  0  0  0  0  0  0
    2.2770   -1.1840   -2.0940 H   0  0  0  0  0  0  0  0  0  0  0  0
    3.0110   -1.4760   -0.4660 H   0  0  0  0  0  0  0  0  0  0  0  0
    0.2250    0.9800    0.9410 H   0  0  0  0  0  0  0  0  0  0  0  0
    1.7860   -1.5910    1.3970 H   0  0  0  0  0  0  0  0  0  0  0  0
   -1.5560   -0.4320   -0.8160 N   0  0  0  0  0  0  0  0  0  0  0  0
   -2.6160   -1.3220   -1.2460 C   0  0  1  0  0  0  0  0  0  0  0  0
   -3.9610   -0.8880   -0.6780 C   0  0  0  0  0  0  0  0  0  0  0  0
   -4.3440    0.4640   -1.0910 C   0  0  0  0  0  0  0  0  0  0  0  0
   -3.7210    1.4540   -0.5920 O   0  0  0  0  0  0  0  0  0  0  0  0
   -2.6660   -1.4440   -2.7100 C   0  0  0  0  0  0  0  0  0  0  0  0
   -1.8570   -0.8240   -3.4840 O   0  0  0  0  0  0  0  0  0  0  0  0
   -5.3490    0.7550   -1.9990 O   0  0  0  0  0  0  0  0  0  0  0  0
   -3.5970   -2.2420   -3.3560 O   0  0  0  0  0  0  0  0  0  0  0  0
   -1.6070    0.5350   -1.1790 H   0  0  0  0  0  0  0  0  0  0  0  0
   -2.4170   -2.3130   -0.7920 H   0  0  0  0  0  0  0  0  0  0  0  0
   -4.7150   -1.5940   -1.1270 H   0  0  0  0  0  0  0  0  0  0  0  0
   -4.0170   -1.0250    0.4030 H   0  0  0  0  0  0  0  0  0  0  0  0
   -5.2250    1.5130   -2.6810 H   0  0  0  0  0  0  0  0  0  0  0  0
  1  9  1  0  0  0  0
  1 10  1  0  0  0  0
  2  1  1  0  0  0  0
  2  3  2  0  0  0  0
  4 12  1  0  0  0  0
  4  2  1  0  0  0  0
  5 13  1  6  0  0  0
  5  4  1  0  0  0  0
  5  6  1  0  0  0  0
  6 15  1  0  0  0  0
  7  8  2  0  0  0  0
  7  5  1  0  0  0  0
 11  4  1  0  0  0  0
 14  6  1  0  0  0  0
 16 26  1  0  0  0  0
 16 25  1  0  0  0  0
 17 16  1  0  0  0  0
 17 18  1  0  0  0  0
 18 29  1  1  0  0  0
 18 20  1  0  0  0  0
 19 30  1  0  0  0  0
 19 18  1  0  0  0  0
 19 32  1  0  0  0  0
 20 33  1  1  0  0  0
 20 21  1  0  0  0  0
 21  7  1  0  0  0  0
 22 23  2  0  0  0  0
 22 20  1  0  0  0  0
 24 16  1  0  0  0  0
 27 17  1  0  0  0  0
 28 17  1  0  0  0  0
 31 19  1  0  0  0  0
 34 21  1  0  0  0  0
 35 22  1  0  0  0  0
 36 35  1  0  0  0  0
 36 45  1  1  0  0  0
 36 37  1  0  0  0  0
 37 47  1  0  0  0  0
 38 37  1  0  0  0  0
 38 39  2  0  0  0  0
 40 36  1  0  0  0  0
 41 40  2  0  0  0  0
 42 38  1  0  0  0  0
 43 40  1  0  0  0  0
 44 35  1  0  0  0  0
 46 37  1  0  0  0  0
 48 42  1  0  0  0  0
M  END
$$$$
