NIE.pdb
 OpenBabel07022418103D

 51 50  0  0  1  0  0  0  0  0999 V2000
   -0.8080   -1.3300    5.4610 N   0  0  0  0  0  0  0  0  0  0  0  0
   -0.5150   -0.1450    4.7490 C   0  0  0  0  0  0  0  0  0  0  0  0
   -1.5010    0.5390    4.3350 O   0  0  0  0  0  0  0  0  0  0  0  0
    0.8850    0.2320    4.5280 C   0  0  0  0  0  0  0  0  0  0  0  0
    1.0180    1.5260    3.7510 C   0  0  2  0  0  0  0  0  0  0  0  0
    0.3910    2.6300    4.4420 N   0  0  0  0  0  0  0  0  0  0  0  0
    0.5000    1.4060    2.3780 C   0  0  0  0  0  0  0  0  0  0  0  0
   -0.3860    2.2340    1.9790 O   0  0  0  0  0  0  0  0  0  0  0  0
   -1.5200   -1.9850    5.0870 H   0  0  0  0  0  0  0  0  0  0  0  0
   -0.3340   -1.5710    6.3480 H   0  0  0  0  0  0  0  0  0  0  0  0
    1.4930    0.2400    5.4520 H   0  0  0  0  0  0  0  0  0  0  0  0
    1.3410   -0.5670    3.8840 H   0  0  0  0  0  0  0  0  0  0  0  0
    2.1230    1.7450    3.7090 H   0  0  0  0  0  0  0  0  0  0  0  0
    0.8270    3.5470    4.2080 H   0  0  0  0  0  0  0  0  0  0  0  0
   -0.6280    2.7110    4.2240 H   0  0  0  0  0  0  0  0  0  0  0  0
    3.7420   -0.4820   -1.6600 C   0  0  0  0  0  0  0  0  0  0  0  0
    2.6440   -0.5810   -0.6560 C   0  0  0  0  0  0  0  0  0  0  0  0
    1.5800    0.4710   -0.8240 C   0  0  2  0  0  0  0  0  0  0  0  0
    2.1190    1.8690   -0.6950 C   0  0  0  0  0  0  0  0  0  0  0  0
    0.4540    0.2890    0.1700 C   0  0  2  0  0  0  0  0  0  0  0  0
    0.9830    0.3810    1.5140 N   0  0  0  0  0  0  0  0  0  0  0  0
   -0.1820   -1.0330   -0.0810 C   0  0  0  0  0  0  0  0  0  0  0  0
   -0.1700   -1.8530    0.8740 O   0  0  0  0  0  0  0  0  0  0  0  0
    4.5650   -1.1550   -1.3420 H   0  0  0  0  0  0  0  0  0  0  0  0
    4.1820    0.5270   -1.7470 H   0  0  0  0  0  0  0  0  0  0  0  0
    3.4290   -0.8650   -2.6710 H   0  0  0  0  0  0  0  0  0  0  0  0
    3.0820   -0.6020    0.3470 H   0  0  0  0  0  0  0  0  0  0  0  0
    2.1430   -1.5690   -0.8030 H   0  0  0  0  0  0  0  0  0  0  0  0
    1.1400    0.3650   -1.8370 H   0  0  0  0  0  0  0  0  0  0  0  0
    2.8470    2.0550   -1.5350 H   0  0  0  0  0  0  0  0  0  0  0  0
    2.5410    2.0940    0.2850 H   0  0  0  0  0  0  0  0  0  0  0  0
    1.2890    2.5820   -0.8790 H   0  0  0  0  0  0  0  0  0  0  0  0
   -0.3000    1.0770   -0.0150 H   0  0  0  0  0  0  0  0  0  0  0  0
    1.6980   -0.2530    1.9010 H   0  0  0  0  0  0  0  0  0  0  0  0
   -0.7740   -1.3660   -1.3280 N   0  0  0  0  0  0  0  0  0  0  0  0
   -1.3630   -2.6560   -1.4880 C   0  0  1  0  0  0  0  0  0  0  0  0
   -2.7820   -2.6140   -1.9850 C   0  0  0  0  0  0  0  0  0  0  0  0
   -3.7310   -1.8820   -1.1010 C   0  0  0  0  0  0  0  0  0  0  0  0
   -3.8420   -2.4470    0.2510 C   0  0  0  0  0  0  0  0  0  0  0  0
   -4.6390   -1.8380    1.0440 O   0  0  0  0  0  0  0  0  0  0  0  0
   -0.5740   -3.3630   -2.5610 C   0  0  0  0  0  0  0  0  0  0  0  0
    0.4020   -2.8270   -3.1430 O   0  0  0  0  0  0  0  0  0  0  0  0
   -3.1840   -3.5450    0.7330 O   0  0  0  0  0  0  0  0  0  0  0  0
   -0.9130   -4.6520   -2.9420 O   0  0  0  0  0  0  0  0  0  0  0  0
   -0.7500   -0.6430   -2.0770 H   0  0  0  0  0  0  0  0  0  0  0  0
   -1.2750   -3.2570   -0.5710 H   0  0  0  0  0  0  0  0  0  0  0  0
   -2.8140   -2.2550   -3.0290 H   0  0  0  0  0  0  0  0  0  0  0  0
   -3.1330   -3.6810   -2.0290 H   0  0  0  0  0  0  0  0  0  0  0  0
   -3.5070   -0.7990   -1.0070 H   0  0  0  0  0  0  0  0  0  0  0  0
   -4.7360   -1.9440   -1.5680 H   0  0  0  0  0  0  0  0  0  0  0  0
   -3.0230   -3.6060    1.7410 H   0  0  0  0  0  0  0  0  0  0  0  0
  1 10  1  0  0  0  0
  2  1  1  0  0  0  0
  3  2  2  0  0  0  0
  4  2  1  0  0  0  0
  4 11  1  0  0  0  0
  5 13  1  6  0  0  0
  5  6  1  0  0  0  0
  5  4  1  0  0  0  0
  7  5  1  0  0  0  0
  8  7  2  0  0  0  0
  9  1  1  0  0  0  0
 12  4  1  0  0  0  0
 14  6  1  0  0  0  0
 15  6  1  0  0  0  0
 16 24  1  0  0  0  0
 16 17  1  0  0  0  0
 17 27  1  0  0  0  0
 18 29  1  6  0  0  0
 18 19  1  0  0  0  0
 18 17  1  0  0  0  0
 18 20  1  0  0  0  0
 19 31  1  0  0  0  0
 20 33  1  6  0  0  0
 20 21  1  0  0  0  0
 21 34  1  0  0  0  0
 21  7  1  0  0  0  0
 22 20  1  0  0  0  0
 22 23  2  0  0  0  0
 25 16  1  0  0  0  0
 26 16  1  0  0  0  0
 28 17  1  0  0  0  0
 30 19  1  0  0  0  0
 32 19  1  0  0  0  0
 35 22  1  0  0  0  0
 36 35  1  0  0  0  0
 36 46  1  1  0  0  0
 37 36  1  0  0  0  0
 37 38  1  0  0  0  0
 38 49  1  0  0  0  0
 38 39  1  0  0  0  0
 39 43  1  0  0  0  0
 39 40  2  0  0  0  0
 41 36  1  0  0  0  0
 42 41  2  0  0  0  0
 43 51  1  0  0  0  0
 44 41  1  0  0  0  0
 45 35  1  0  0  0  0
 47 37  1  0  0  0  0
 48 37  1  0  0  0  0
 50 38  1  0  0  0  0
M  END
$$$$
