NIF.pdb
 OpenBabel07022418103D

 55 55  0  0  1  0  0  0  0  0999 V2000
    1.4240   -3.3250    3.6680 N   0  0  0  0  0  0  0  0  0  0  0  0
    1.8680   -1.9770    3.7250 C   0  0  0  0  0  0  0  0  0  0  0  0
    1.3090   -1.1880    4.5180 O   0  0  0  0  0  0  0  0  0  0  0  0
    2.9810   -1.5900    2.8260 C   0  0  0  0  0  0  0  0  0  0  0  0
    3.3340   -0.1290    3.0160 C   0  0  2  0  0  0  0  0  0  0  0  0
    3.7450    0.1460    4.3750 N   0  0  0  0  0  0  0  0  0  0  0  0
    2.2320    0.7580    2.5720 C   0  0  0  0  0  0  0  0  0  0  0  0
    1.7560    1.6280    3.3450 O   0  0  0  0  0  0  0  0  0  0  0  0
    0.4170   -3.4900    3.4570 H   0  0  0  0  0  0  0  0  0  0  0  0
    2.1160   -4.0780    3.8370 H   0  0  0  0  0  0  0  0  0  0  0  0
    2.6380   -1.6880    1.7730 H   0  0  0  0  0  0  0  0  0  0  0  0
    3.8620   -2.2440    2.9240 H   0  0  0  0  0  0  0  0  0  0  0  0
    4.2280    0.0530    2.3770 H   0  0  0  0  0  0  0  0  0  0  0  0
    4.0160    1.1530    4.4260 H   0  0  0  0  0  0  0  0  0  0  0  0
    4.6500   -0.3900    4.5160 H   0  0  0  0  0  0  0  0  0  0  0  0
    1.0040    4.2050   -1.8760 C   0  0  0  0  0  0  0  0  0  0  0  0
    0.2280    3.2300   -0.9970 C   0  0  0  0  0  0  0  0  0  0  0  0
    1.2060    2.3050   -0.3310 C   0  0  2  0  0  0  0  0  0  0  0  0
    2.0140    1.5100   -1.3360 C   0  0  0  0  0  0  0  0  0  0  0  0
    0.6290    1.4620    0.7600 C   0  0  2  0  0  0  0  0  0  0  0  0
    1.7020    0.6420    1.2830 N   0  0  0  0  0  0  0  0  0  0  0  0
   -0.5540    0.6800    0.3870 C   0  0  0  0  0  0  0  0  0  0  0  0
   -1.5750    1.2480   -0.0810 O   0  0  0  0  0  0  0  0  0  0  0  0
    0.6430    5.2580   -1.6880 H   0  0  0  0  0  0  0  0  0  0  0  0
    0.8760    3.9310   -2.9390 H   0  0  0  0  0  0  0  0  0  0  0  0
    2.0620    4.2080   -1.5510 H   0  0  0  0  0  0  0  0  0  0  0  0
   -0.4770    2.6280   -1.6030 H   0  0  0  0  0  0  0  0  0  0  0  0
   -0.3020    3.8070   -0.2230 H   0  0  0  0  0  0  0  0  0  0  0  0
    1.9630    2.9800    0.1710 H   0  0  0  0  0  0  0  0  0  0  0  0
    1.6680    0.4500   -1.3730 H   0  0  0  0  0  0  0  0  0  0  0  0
    1.9030    2.0220   -2.3220 H   0  0  0  0  0  0  0  0  0  0  0  0
    3.0910    1.4610   -1.0580 H   0  0  0  0  0  0  0  0  0  0  0  0
    0.3490    2.1620    1.5960 H   0  0  0  0  0  0  0  0  0  0  0  0
    2.0930   -0.0780    0.6380 H   0  0  0  0  0  0  0  0  0  0  0  0
   -0.6380   -0.7320    0.5200 N   0  0  0  0  0  0  0  0  0  0  0  0
   -1.8590   -1.4670    0.1270 C   0  0  1  0  0  0  0  0  0  0  0  0
   -1.5540   -2.4130   -0.9880 C   0  0  0  0  0  0  0  0  0  0  0  0
   -2.7300   -3.1630   -1.4090 C   0  0  0  0  0  0  0  0  0  0  0  0
   -3.6100   -2.6430   -2.3610 C   0  0  0  0  0  0  0  0  0  0  0  0
   -4.7060   -3.3550   -2.7740 C   0  0  0  0  0  0  0  0  0  0  0  0
   -4.9960   -4.6040   -2.2810 C   0  0  0  0  0  0  0  0  0  0  0  0
   -4.1540   -5.1390   -1.3500 C   0  0  0  0  0  0  0  0  0  0  0  0
   -3.0520   -4.4230   -0.9350 C   0  0  0  0  0  0  0  0  0  0  0  0
   -2.3610   -2.1640    1.3010 C   0  0  0  0  0  0  0  0  0  0  0  0
   -1.7380   -2.1420    2.4150 O   0  0  0  0  0  0  0  0  0  0  0  0
   -3.5450   -2.8780    1.2390 O   0  0  0  0  0  0  0  0  0  0  0  0
    0.1770   -1.2520    0.9020 H   0  0  0  0  0  0  0  0  0  0  0  0
   -2.6180   -0.7380   -0.2620 H   0  0  0  0  0  0  0  0  0  0  0  0
   -0.7650   -3.1500   -0.7220 H   0  0  0  0  0  0  0  0  0  0  0  0
   -1.1620   -1.8660   -1.8970 H   0  0  0  0  0  0  0  0  0  0  0  0
   -3.3950   -1.6420   -2.7680 H   0  0  0  0  0  0  0  0  0  0  0  0
   -5.3850   -2.9420   -3.5150 H   0  0  0  0  0  0  0  0  0  0  0  0
   -5.8720   -5.1400   -2.6310 H   0  0  0  0  0  0  0  0  0  0  0  0
   -4.3550   -6.1370   -0.9340 H   0  0  0  0  0  0  0  0  0  0  0  0
   -2.4120   -4.9000   -0.1950 H   0  0  0  0  0  0  0  0  0  0  0  0
  1  2  1  0  0  0  0
  1 10  1  0  0  0  0
  2  3  2  0  0  0  0
  4 12  1  0  0  0  0
  4  5  1  0  0  0  0
  4  2  1  0  0  0  0
  5 13  1  6  0  0  0
  5  6  1  0  0  0  0
  6 14  1  0  0  0  0
  6 15  1  0  0  0  0
  7  5  1  0  0  0  0
  7  8  2  0  0  0  0
  9  1  1  0  0  0  0
 11  4  1  0  0  0  0
 16 24  1  0  0  0  0
 16 26  1  0  0  0  0
 16 17  1  0  0  0  0
 17 18  1  0  0  0  0
 17 28  1  0  0  0  0
 18 29  1  1  0  0  0
 18 20  1  0  0  0  0
 19 32  1  0  0  0  0
 19 18  1  0  0  0  0
 20 21  1  0  0  0  0
 20 33  1  1  0  0  0
 21  7  1  0  0  0  0
 22 35  1  0  0  0  0
 22 20  1  0  0  0  0
 23 22  2  0  0  0  0
 25 16  1  0  0  0  0
 27 17  1  0  0  0  0
 30 19  1  0  0  0  0
 31 19  1  0  0  0  0
 34 21  1  0  0  0  0
 35 47  1  0  0  0  0
 36 48  1  6  0  0  0
 36 35  1  0  0  0  0
 36 44  1  0  0  0  0
 37 49  1  0  0  0  0
 37 36  1  0  0  0  0
 38 37  1  0  0  0  0
 38 43  1  0  0  0  0
 39 38  2  0  0  0  0
 40 39  1  0  0  0  0
 40 41  2  0  0  0  0
 41 42  1  0  0  0  0
 42 43  2  0  0  0  0
 42 54  1  0  0  0  0
 43 55  1  0  0  0  0
 44 45  1  0  0  0  0
 46 44  2  0  0  0  0
 50 37  1  0  0  0  0
 51 39  1  0  0  0  0
 52 40  1  0  0  0  0
 53 41  1  0  0  0  0
M  END
$$$$
