NIG.pdb
 OpenBabel07022418103D

 42 41  0  0  1  0  0  0  0  0999 V2000
   -0.5100   -4.3950    3.5230 N   0  0  0  0  0  0  0  0  0  0  0  0
    0.3820   -3.4280    2.9930 C   0  0  0  0  0  0  0  0  0  0  0  0
    0.3950   -2.2860    3.5100 O   0  0  0  0  0  0  0  0  0  0  0  0
    1.2720   -3.7460    1.8670 C   0  0  0  0  0  0  0  0  0  0  0  0
    2.1070   -2.5790    1.4280 C   0  0  2  0  0  0  0  0  0  0  0  0
    2.9480   -2.0800    2.4980 N   0  0  0  0  0  0  0  0  0  0  0  0
    1.3250   -1.4910    0.7920 C   0  0  0  0  0  0  0  0  0  0  0  0
    0.6100   -1.8060   -0.1820 O   0  0  0  0  0  0  0  0  0  0  0  0
   -1.0230   -4.2360    4.4210 H   0  0  0  0  0  0  0  0  0  0  0  0
   -0.6870   -5.3070    3.0300 H   0  0  0  0  0  0  0  0  0  0  0  0
    1.8850   -4.6210    2.1410 H   0  0  0  0  0  0  0  0  0  0  0  0
    0.6600   -4.0510    0.9680 H   0  0  0  0  0  0  0  0  0  0  0  0
    2.8430   -2.9460    0.6440 H   0  0  0  0  0  0  0  0  0  0  0  0
    3.4010   -2.9090    2.9460 H   0  0  0  0  0  0  0  0  0  0  0  0
    3.7390   -1.5310    2.0660 H   0  0  0  0  0  0  0  0  0  0  0  0
    0.7180    0.4760   -2.4730 C   0  0  0  0  0  0  0  0  0  0  0  0
    1.7960    0.9960   -1.5900 C   0  0  0  0  0  0  0  0  0  0  0  0
    1.3920    1.7040   -0.3630 C   0  0  2  0  0  0  0  0  0  0  0  0
    2.7160    2.1250    0.3190 C   0  0  0  0  0  0  0  0  0  0  0  0
    0.6550    0.9650    0.6990 C   0  0  2  0  0  0  0  0  0  0  0  0
    1.3750   -0.1510    1.2520 N   0  0  0  0  0  0  0  0  0  0  0  0
   -0.7860    0.8280    0.5440 C   0  0  0  0  0  0  0  0  0  0  0  0
   -1.4160    1.7130   -0.0940 O   0  0  0  0  0  0  0  0  0  0  0  0
    0.4560    1.1760   -3.3050 H   0  0  0  0  0  0  0  0  0  0  0  0
   -0.1930    0.1130   -1.9470 H   0  0  0  0  0  0  0  0  0  0  0  0
    1.1120   -0.4270   -3.0120 H   0  0  0  0  0  0  0  0  0  0  0  0
    2.5560    0.1990   -1.4420 H   0  0  0  0  0  0  0  0  0  0  0  0
    2.3550    1.7680   -2.2080 H   0  0  0  0  0  0  0  0  0  0  0  0
    0.9030    2.6570   -0.6360 H   0  0  0  0  0  0  0  0  0  0  0  0
    2.4970    2.7910    1.1840 H   0  0  0  0  0  0  0  0  0  0  0  0
    3.2160    1.1960    0.6680 H   0  0  0  0  0  0  0  0  0  0  0  0
    3.3800    2.6260   -0.3990 H   0  0  0  0  0  0  0  0  0  0  0  0
    0.6970    1.7250    1.5860 H   0  0  0  0  0  0  0  0  0  0  0  0
    2.0360   -0.0450    2.0900 H   0  0  0  0  0  0  0  0  0  0  0  0
   -1.5140   -0.2520    1.0790 N   0  0  0  0  0  0  0  0  0  0  0  0
   -2.9670   -0.2770    0.8480 C   0  0  0  0  0  0  0  0  0  0  0  0
   -3.5450    0.9360    1.4570 C   0  0  0  0  0  0  0  0  0  0  0  0
   -2.8890    1.8140    2.0690 O   0  0  0  0  0  0  0  0  0  0  0  0
   -4.9210    1.1280    1.3470 O   0  0  0  0  0  0  0  0  0  0  0  0
   -1.1180   -1.0270    1.6370 H   0  0  0  0  0  0  0  0  0  0  0  0
   -3.1470   -0.2940   -0.2590 H   0  0  0  0  0  0  0  0  0  0  0  0
   -3.3850   -1.2190    1.2270 H   0  0  0  0  0  0  0  0  0  0  0  0
  1  9  1  0  0  0  0
  2  3  2  0  0  0  0
  2  1  1  0  0  0  0
  4 11  1  0  0  0  0
  4  2  1  0  0  0  0
  5 13  1  6  0  0  0
  5  4  1  0  0  0  0
  5  6  1  0  0  0  0
  6 14  1  0  0  0  0
  7 21  1  0  0  0  0
  7  5  1  0  0  0  0
  8  7  2  0  0  0  0
 10  1  1  0  0  0  0
 12  4  1  0  0  0  0
 15  6  1  0  0  0  0
 16 25  1  0  0  0  0
 16 17  1  0  0  0  0
 17 27  1  0  0  0  0
 17 18  1  0  0  0  0
 18 29  1  6  0  0  0
 18 19  1  0  0  0  0
 18 20  1  0  0  0  0
 19 31  1  0  0  0  0
 19 30  1  0  0  0  0
 20 21  1  0  0  0  0
 20 33  1  1  0  0  0
 21 34  1  0  0  0  0
 22 20  1  0  0  0  0
 22 35  1  0  0  0  0
 23 22  2  0  0  0  0
 24 16  1  0  0  0  0
 26 16  1  0  0  0  0
 28 17  1  0  0  0  0
 32 19  1  0  0  0  0
 35 40  1  0  0  0  0
 36 35  1  0  0  0  0
 36 42  1  0  0  0  0
 36 37  1  0  0  0  0
 37 38  1  0  0  0  0
 39 37  2  0  0  0  0
 41 36  1  0  0  0  0
M  END
$$$$
