NIH.pdb
 OpenBabel07022418103D

 52 52  0  0  1  0  0  0  0  0999 V2000
   -0.7560   -3.6860    2.6320 N   0  0  0  0  0  0  0  0  0  0  0  0
    0.4520   -4.3420    2.3330 C   0  0  0  0  0  0  0  0  0  0  0  0
    0.8330   -5.3280    3.0560 O   0  0  0  0  0  0  0  0  0  0  0  0
    1.3650   -3.9910    1.2200 C   0  0  0  0  0  0  0  0  0  0  0  0
    2.5300   -3.1660    1.7930 C   0  0  2  0  0  0  0  0  0  0  0  0
    3.2130   -3.9620    2.7900 N   0  0  0  0  0  0  0  0  0  0  0  0
    1.9320   -1.9270    2.3500 C   0  0  0  0  0  0  0  0  0  0  0  0
    1.8840   -1.7110    3.5880 O   0  0  0  0  0  0  0  0  0  0  0  0
   -0.8080   -2.7490    3.0880 H   0  0  0  0  0  0  0  0  0  0  0  0
   -1.6510   -4.1510    2.3890 H   0  0  0  0  0  0  0  0  0  0  0  0
    1.7810   -4.9030    0.7450 H   0  0  0  0  0  0  0  0  0  0  0  0
    0.8590   -3.4160    0.4160 H   0  0  0  0  0  0  0  0  0  0  0  0
    3.2260   -2.9450    0.9780 H   0  0  0  0  0  0  0  0  0  0  0  0
    3.2730   -4.9460    2.4390 H   0  0  0  0  0  0  0  0  0  0  0  0
    4.1990   -3.6200    2.8370 H   0  0  0  0  0  0  0  0  0  0  0  0
    2.9050    0.8960   -0.2800 C   0  0  0  0  0  0  0  0  0  0  0  0
    1.9960    1.8220    0.4410 C   0  0  0  0  0  0  0  0  0  0  0  0
    1.6960    1.5110    1.8560 C   0  0  2  0  0  0  0  0  0  0  0  0
    2.8600    1.4530    2.7840 C   0  0  0  0  0  0  0  0  0  0  0  0
    0.7970    0.3010    2.0610 C   0  0  2  0  0  0  0  0  0  0  0  0
    1.3780   -0.9050    1.5200 N   0  0  0  0  0  0  0  0  0  0  0  0
   -0.5190    0.5200    1.4510 C   0  0  0  0  0  0  0  0  0  0  0  0
   -1.1850    1.5290    1.7920 O   0  0  0  0  0  0  0  0  0  0  0  0
    3.7400    1.4650   -0.7970 H   0  0  0  0  0  0  0  0  0  0  0  0
    2.3890    0.3780   -1.1120 H   0  0  0  0  0  0  0  0  0  0  0  0
    3.4390    0.1600    0.3480 H   0  0  0  0  0  0  0  0  0  0  0  0
    2.3860    2.8710    0.3380 H   0  0  0  0  0  0  0  0  0  0  0  0
    1.0020    1.8670   -0.0960 H   0  0  0  0  0  0  0  0  0  0  0  0
    1.0570    2.3770    2.2340 H   0  0  0  0  0  0  0  0  0  0  0  0
    3.6580    0.7460    2.4430 H   0  0  0  0  0  0  0  0  0  0  0  0
    3.2830    2.4540    3.0080 H   0  0  0  0  0  0  0  0  0  0  0  0
    2.5060    1.0510    3.7570 H   0  0  0  0  0  0  0  0  0  0  0  0
    0.6850    0.2390    3.1720 H   0  0  0  0  0  0  0  0  0  0  0  0
    1.4150   -1.0800    0.4960 H   0  0  0  0  0  0  0  0  0  0  0  0
   -1.0810   -0.3500    0.4900 N   0  0  0  0  0  0  0  0  0  0  0  0
   -2.3920   -0.0980   -0.1050 C   0  0  1  0  0  0  0  0  0  0  0  0
   -2.0910    0.2100   -1.5800 C   0  0  0  0  0  0  0  0  0  0  0  0
   -3.3480    0.4890   -2.3150 C   0  0  0  0  0  0  0  0  0  0  0  0
   -3.9100    1.7550   -2.4450 C   0  0  0  0  0  0  0  0  0  0  0  0
   -5.0410    1.6460   -3.1670 N   0  0  0  0  0  0  0  0  0  0  0  0
   -5.2040    0.3450   -3.4950 C   0  0  0  0  0  0  0  0  0  0  0  0
   -4.1730   -0.3380   -2.9720 N   0  0  0  0  0  0  0  0  0  0  0  0
   -3.1690   -1.3320   -0.0860 C   0  0  0  0  0  0  0  0  0  0  0  0
   -4.3480   -1.4060   -0.5260 O   0  0  0  0  0  0  0  0  0  0  0  0
   -2.6280   -2.4950    0.4280 O   0  0  0  0  0  0  0  0  0  0  0  0
   -0.5610   -1.2000    0.1890 H   0  0  0  0  0  0  0  0  0  0  0  0
   -2.8660    0.7920    0.3020 H   0  0  0  0  0  0  0  0  0  0  0  0
   -1.5850   -0.6660   -2.0690 H   0  0  0  0  0  0  0  0  0  0  0  0
   -1.4100    1.0540   -1.6900 H   0  0  0  0  0  0  0  0  0  0  0  0
   -3.5440    2.6920   -2.0540 H   0  0  0  0  0  0  0  0  0  0  0  0
   -5.6780    2.4330   -3.4260 H   0  0  0  0  0  0  0  0  0  0  0  0
   -6.0430   -0.0100   -4.0780 H   0  0  0  0  0  0  0  0  0  0  0  0
  1  9  1  0  0  0  0
  2  1  1  0  0  0  0
  2  3  2  0  0  0  0
  4  5  1  0  0  0  0
  4  2  1  0  0  0  0
  5 13  1  6  0  0  0
  5  7  1  0  0  0  0
  5  6  1  0  0  0  0
  6 15  1  0  0  0  0
  7  8  2  0  0  0  0
 10  1  1  0  0  0  0
 11  4  1  0  0  0  0
 12  4  1  0  0  0  0
 14  6  1  0  0  0  0
 16 26  1  0  0  0  0
 16 17  1  0  0  0  0
 17 18  1  0  0  0  0
 18 20  1  0  0  0  0
 18 29  1  1  0  0  0
 18 19  1  0  0  0  0
 19 31  1  0  0  0  0
 19 32  1  0  0  0  0
 20 33  1  1  0  0  0
 21 20  1  0  0  0  0
 21  7  1  0  0  0  0
 22 23  2  0  0  0  0
 22 20  1  0  0  0  0
 24 16  1  0  0  0  0
 25 16  1  0  0  0  0
 27 17  1  0  0  0  0
 28 17  1  0  0  0  0
 30 19  1  0  0  0  0
 34 21  1  0  0  0  0
 35 22  1  0  0  0  0
 36 43  1  0  0  0  0
 36 47  1  1  0  0  0
 36 35  1  0  0  0  0
 37 36  1  0  0  0  0
 38 37  1  0  0  0  0
 39 38  2  0  0  0  0
 39 50  1  0  0  0  0
 40 39  1  0  0  0  0
 41 40  1  0  0  0  0
 41 42  2  0  0  0  0
 42 38  1  0  0  0  0
 43 45  1  0  0  0  0
 44 43  2  0  0  0  0
 46 35  1  0  0  0  0
 48 37  1  0  0  0  0
 49 37  1  0  0  0  0
 51 40  1  0  0  0  0
 52 41  1  0  0  0  0
M  END
$$$$
