NII.pdb
 OpenBabel07022418103D

 54 53  0  0  1  0  0  0  0  0999 V2000
    2.0510   -5.0530    3.7060 N   0  0  0  0  0  0  0  0  0  0  0  0
    2.4760   -3.6970    3.7570 C   0  0  0  0  0  0  0  0  0  0  0  0
    3.5540   -3.4170    4.3420 O   0  0  0  0  0  0  0  0  0  0  0  0
    1.6890   -2.5950    3.1390 C   0  0  0  0  0  0  0  0  0  0  0  0
    2.3620   -1.2610    3.3320 C   0  0  2  0  0  0  0  0  0  0  0  0
    2.4800   -1.0280    4.7570 N   0  0  0  0  0  0  0  0  0  0  0  0
    1.6440   -0.1560    2.6940 C   0  0  0  0  0  0  0  0  0  0  0  0
    1.2480    0.8050    3.4130 O   0  0  0  0  0  0  0  0  0  0  0  0
    1.6280   -5.5740    4.4820 H   0  0  0  0  0  0  0  0  0  0  0  0
    2.1830   -5.5560    2.8010 H   0  0  0  0  0  0  0  0  0  0  0  0
    1.5750   -2.8130    2.0480 H   0  0  0  0  0  0  0  0  0  0  0  0
    0.6930   -2.6050    3.5830 H   0  0  0  0  0  0  0  0  0  0  0  0
    3.4080   -1.3770    2.9510 H   0  0  0  0  0  0  0  0  0  0  0  0
    1.9090   -1.6790    5.3240 H   0  0  0  0  0  0  0  0  0  0  0  0
    3.4460   -0.9090    5.0850 H   0  0  0  0  0  0  0  0  0  0  0  0
    0.3510    3.9530   -0.0100 C   0  0  0  0  0  0  0  0  0  0  0  0
    0.9090    2.9370   -0.9410 C   0  0  0  0  0  0  0  0  0  0  0  0
    1.5160    1.7240   -0.2420 C   0  0  2  0  0  0  0  0  0  0  0  0
    2.0670    0.7420   -1.2580 C   0  0  0  0  0  0  0  0  0  0  0  0
    0.6260    1.0720    0.7540 C   0  0  2  0  0  0  0  0  0  0  0  0
    1.3440   -0.0540    1.3300 N   0  0  0  0  0  0  0  0  0  0  0  0
   -0.6900    0.6510    0.2290 C   0  0  0  0  0  0  0  0  0  0  0  0
   -1.3960    1.5460   -0.2980 O   0  0  0  0  0  0  0  0  0  0  0  0
    0.8840    4.9200   -0.1840 H   0  0  0  0  0  0  0  0  0  0  0  0
   -0.7170    4.1920   -0.1650 H   0  0  0  0  0  0  0  0  0  0  0  0
    0.5870    3.6860    1.0350 H   0  0  0  0  0  0  0  0  0  0  0  0
    1.6670    3.4400   -1.5780 H   0  0  0  0  0  0  0  0  0  0  0  0
    0.1460    2.5900   -1.7050 H   0  0  0  0  0  0  0  0  0  0  0  0
    2.4040    2.1130    0.2990 H   0  0  0  0  0  0  0  0  0  0  0  0
    2.9840    0.2370   -0.8770 H   0  0  0  0  0  0  0  0  0  0  0  0
    1.3070   -0.0610   -1.3620 H   0  0  0  0  0  0  0  0  0  0  0  0
    2.3250    1.2040   -2.2150 H   0  0  0  0  0  0  0  0  0  0  0  0
    0.4160    1.7580    1.5970 H   0  0  0  0  0  0  0  0  0  0  0  0
    1.6400   -0.8100    0.6830 H   0  0  0  0  0  0  0  0  0  0  0  0
   -2.0350   -0.6730   -3.1610 C   0  0  0  0  0  0  0  0  0  0  0  0
   -1.4800   -1.8530   -2.3940 C   0  0  0  0  0  0  0  0  0  0  0  0
   -2.3240   -2.1950   -1.1900 C   0  0  2  0  0  0  0  0  0  0  0  0
   -3.7010   -2.5310   -1.6850 C   0  0  0  0  0  0  0  0  0  0  0  0
   -2.3840   -1.0730   -0.1860 C   0  0  2  0  0  0  0  0  0  0  0  0
   -1.1070   -0.7040    0.3310 N   0  0  0  0  0  0  0  0  0  0  0  0
   -3.2460   -1.5300    0.9440 C   0  0  0  0  0  0  0  0  0  0  0  0
   -2.8040   -1.5490    2.1140 O   0  0  0  0  0  0  0  0  0  0  0  0
   -4.5570   -1.9520    0.7710 O   0  0  0  0  0  0  0  0  0  0  0  0
   -1.2320    0.1120   -3.2560 H   0  0  0  0  0  0  0  0  0  0  0  0
   -2.3090   -0.9310   -4.2050 H   0  0  0  0  0  0  0  0  0  0  0  0
   -2.8830   -0.1910   -2.6690 H   0  0  0  0  0  0  0  0  0  0  0  0
   -0.4180   -1.7130   -2.1660 H   0  0  0  0  0  0  0  0  0  0  0  0
   -1.5450   -2.7320   -3.0810 H   0  0  0  0  0  0  0  0  0  0  0  0
   -1.8950   -3.1150   -0.7430 H   0  0  0  0  0  0  0  0  0  0  0  0
   -3.7050   -2.9030   -2.7300 H   0  0  0  0  0  0  0  0  0  0  0  0
   -4.3210   -1.6140   -1.6780 H   0  0  0  0  0  0  0  0  0  0  0  0
   -4.1800   -3.3270   -1.0750 H   0  0  0  0  0  0  0  0  0  0  0  0
   -2.9070   -0.2100   -0.6300 H   0  0  0  0  0  0  0  0  0  0  0  0
   -0.5050   -1.4310    0.7720 H   0  0  0  0  0  0  0  0  0  0  0  0
  1  2  1  0  0  0  0
  1  9  1  0  0  0  0
  2  3  2  0  0  0  0
  4  5  1  0  0  0  0
  4 12  1  0  0  0  0
  4  2  1  0  0  0  0
  5 13  1  6  0  0  0
  5  6  1  0  0  0  0
  6 15  1  0  0  0  0
  6 14  1  0  0  0  0
  7  5  1  0  0  0  0
  7  8  2  0  0  0  0
 10  1  1  0  0  0  0
 11  4  1  0  0  0  0
 16 26  1  0  0  0  0
 17 18  1  0  0  0  0
 17 16  1  0  0  0  0
 18 29  1  1  0  0  0
 18 20  1  0  0  0  0
 19 30  1  0  0  0  0
 19 18  1  0  0  0  0
 20 21  1  0  0  0  0
 20 33  1  1  0  0  0
 21  7  1  0  0  0  0
 22 40  1  0  0  0  0
 22 20  1  0  0  0  0
 23 22  2  0  0  0  0
 24 16  1  0  0  0  0
 25 16  1  0  0  0  0
 27 17  1  0  0  0  0
 28 17  1  0  0  0  0
 31 19  1  0  0  0  0
 32 19  1  0  0  0  0
 34 21  1  0  0  0  0
 35 46  1  0  0  0  0
 35 36  1  0  0  0  0
 36 47  1  0  0  0  0
 36 37  1  0  0  0  0
 37 49  1  1  0  0  0
 37 39  1  0  0  0  0
 38 51  1  0  0  0  0
 38 37  1  0  0  0  0
 38 52  1  0  0  0  0
 39 53  1  6  0  0  0
 39 40  1  0  0  0  0
 39 41  1  0  0  0  0
 40 54  1  0  0  0  0
 41 42  1  0  0  0  0
 43 41  2  0  0  0  0
 44 35  1  0  0  0  0
 45 35  1  0  0  0  0
 48 36  1  0  0  0  0
 50 38  1  0  0  0  0
M  END
$$$$
