NIK.pdb
 OpenBabel07022418103D

 56 55  0  0  1  0  0  0  0  0999 V2000
    5.5050   -3.2060   -1.2750 N   0  0  0  0  0  0  0  0  0  0  0  0
    4.1370   -3.4130   -0.9030 C   0  0  0  0  0  0  0  0  0  0  0  0
    3.9540   -4.1590    0.0780 O   0  0  0  0  0  0  0  0  0  0  0  0
    3.0580   -2.7660   -1.6590 C   0  0  0  0  0  0  0  0  0  0  0  0
    1.7120   -2.9780   -1.0280 C   0  0  2  0  0  0  0  0  0  0  0  0
    0.7500   -2.3180   -1.9280 N   0  0  0  0  0  0  0  0  0  0  0  0
    1.6840   -2.2940    0.2870 C   0  0  0  0  0  0  0  0  0  0  0  0
    2.3340   -2.6900    1.2650 O   0  0  0  0  0  0  0  0  0  0  0  0
    5.8970   -3.8240   -2.0070 H   0  0  0  0  0  0  0  0  0  0  0  0
    6.1110   -2.4820   -0.8550 H   0  0  0  0  0  0  0  0  0  0  0  0
    3.0530   -3.0920   -2.7260 H   0  0  0  0  0  0  0  0  0  0  0  0
    3.2570   -1.6590   -1.5940 H   0  0  0  0  0  0  0  0  0  0  0  0
    1.4690   -4.0330   -1.0240 H   0  0  0  0  0  0  0  0  0  0  0  0
   -0.1830   -2.7340   -1.8570 H   0  0  0  0  0  0  0  0  0  0  0  0
    1.1220   -2.2540   -2.8950 H   0  0  0  0  0  0  0  0  0  0  0  0
    3.6380    0.6480    2.0160 C   0  0  0  0  0  0  0  0  0  0  0  0
    2.5950    1.2310    1.1080 C   0  0  0  0  0  0  0  0  0  0  0  0
    1.2100    1.0400    1.6320 C   0  0  2  0  0  0  0  0  0  0  0  0
    1.0470    1.6980    2.9760 C   0  0  0  0  0  0  0  0  0  0  0  0
    0.8320   -0.4180    1.7740 C   0  0  2  0  0  0  0  0  0  0  0  0
    0.8900   -1.1170    0.5100 N   0  0  0  0  0  0  0  0  0  0  0  0
   -0.5710   -0.4490    2.2490 C   0  0  0  0  0  0  0  0  0  0  0  0
   -0.9350    0.0760    3.3330 O   0  0  0  0  0  0  0  0  0  0  0  0
    3.4430   -0.3990    2.3010 H   0  0  0  0  0  0  0  0  0  0  0  0
    3.7230    1.2210    2.9610 H   0  0  0  0  0  0  0  0  0  0  0  0
    4.6210    0.7280    1.4830 H   0  0  0  0  0  0  0  0  0  0  0  0
    2.7800    2.3250    1.0510 H   0  0  0  0  0  0  0  0  0  0  0  0
    2.6770    0.8370    0.0900 H   0  0  0  0  0  0  0  0  0  0  0  0
    0.4960    1.4990    0.8970 H   0  0  0  0  0  0  0  0  0  0  0  0
    1.8390    2.4790    3.1330 H   0  0  0  0  0  0  0  0  0  0  0  0
    1.1520    1.0000    3.8240 H   0  0  0  0  0  0  0  0  0  0  0  0
    0.0400    2.1780    3.0410 H   0  0  0  0  0  0  0  0  0  0  0  0
    1.4790   -0.8880    2.5430 H   0  0  0  0  0  0  0  0  0  0  0  0
    0.3390   -0.7710   -0.3010 H   0  0  0  0  0  0  0  0  0  0  0  0
   -1.5570   -1.0910    1.4610 N   0  0  0  0  0  0  0  0  0  0  0  0
   -2.9450   -1.1570    1.8680 C   0  0  1  0  0  0  0  0  0  0  0  0
   -3.8070   -0.3420    0.9220 C   0  0  0  0  0  0  0  0  0  0  0  0
   -3.7230   -0.8350   -0.4840 C   0  0  0  0  0  0  0  0  0  0  0  0
   -4.5810   -0.0340   -1.4160 C   0  0  0  0  0  0  0  0  0  0  0  0
   -4.1730    1.4040   -1.4360 C   0  0  0  0  0  0  0  0  0  0  0  0
   -2.7900    1.5650   -1.8630 N   0  0  0  0  0  0  0  0  0  0  0  0
   -3.4420   -2.5350    1.9280 C   0  0  0  0  0  0  0  0  0  0  0  0
   -4.6120   -2.7790    2.2580 O   0  0  0  0  0  0  0  0  0  0  0  0
   -2.5970   -3.5810    1.6140 O   0  0  0  0  0  0  0  0  0  0  0  0
   -1.3430   -1.5590    0.5350 H   0  0  0  0  0  0  0  0  0  0  0  0
   -3.0430   -0.6480    2.8610 H   0  0  0  0  0  0  0  0  0  0  0  0
   -4.8480   -0.4040    1.2940 H   0  0  0  0  0  0  0  0  0  0  0  0
   -3.5060    0.7360    1.0050 H   0  0  0  0  0  0  0  0  0  0  0  0
   -4.1060   -1.8830   -0.5000 H   0  0  0  0  0  0  0  0  0  0  0  0
   -2.6540   -0.8010   -0.8260 H   0  0  0  0  0  0  0  0  0  0  0  0
   -4.5470   -0.4590   -2.4430 H   0  0  0  0  0  0  0  0  0  0  0  0
   -5.6460   -0.0860   -1.1070 H   0  0  0  0  0  0  0  0  0  0  0  0
   -4.8050    1.9420   -2.1810 H   0  0  0  0  0  0  0  0  0  0  0  0
   -4.3140    1.8710   -0.4450 H   0  0  0  0  0  0  0  0  0  0  0  0
   -2.6480    2.6020   -2.0230 H   0  0  0  0  0  0  0  0  0  0  0  0
   -2.6690    1.0700   -2.7860 H   0  0  0  0  0  0  0  0  0  0  0  0
  1  2  1  0  0  0  0
  1 10  1  0  0  0  0
  2  3  2  0  0  0  0
  4 12  1  0  0  0  0
  4  5  1  0  0  0  0
  4  2  1  0  0  0  0
  5 13  1  1  0  0  0
  5  7  1  0  0  0  0
  6 14  1  0  0  0  0
  6  5  1  0  0  0  0
  7 21  1  0  0  0  0
  7  8  2  0  0  0  0
  9  1  1  0  0  0  0
 11  4  1  0  0  0  0
 15  6  1  0  0  0  0
 16 24  1  0  0  0  0
 16 25  1  0  0  0  0
 17 18  1  0  0  0  0
 17 16  1  0  0  0  0
 18 29  1  6  0  0  0
 18 20  1  0  0  0  0
 18 19  1  0  0  0  0
 19 32  1  0  0  0  0
 19 30  1  0  0  0  0
 19 31  1  0  0  0  0
 20 22  1  0  0  0  0
 20 33  1  1  0  0  0
 21 20  1  0  0  0  0
 22 23  2  0  0  0  0
 26 16  1  0  0  0  0
 27 17  1  0  0  0  0
 28 17  1  0  0  0  0
 34 21  1  0  0  0  0
 35 36  1  0  0  0  0
 35 22  1  0  0  0  0
 36 42  1  0  0  0  0
 36 46  1  1  0  0  0
 37 48  1  0  0  0  0
 37 47  1  0  0  0  0
 37 36  1  0  0  0  0
 38 37  1  0  0  0  0
 39 52  1  0  0  0  0
 39 38  1  0  0  0  0
 40 39  1  0  0  0  0
 40 54  1  0  0  0  0
 41 40  1  0  0  0  0
 42 43  1  0  0  0  0
 44 42  2  0  0  0  0
 45 35  1  0  0  0  0
 49 38  1  0  0  0  0
 50 38  1  0  0  0  0
 51 39  1  0  0  0  0
 53 40  1  0  0  0  0
 55 41  1  0  0  0  0
 56 41  1  0  0  0  0
M  END
$$$$
