NIL.pdb
 OpenBabel07022418103D

 54 53  0  0  1  0  0  0  0  0999 V2000
    6.2590   -1.1040    2.3850 N   0  0  0  0  0  0  0  0  0  0  0  0
    4.8770   -0.8570    2.6860 C   0  0  0  0  0  0  0  0  0  0  0  0
    4.0870   -1.7750    2.3350 O   0  0  0  0  0  0  0  0  0  0  0  0
    4.4670    0.3920    3.3560 C   0  0  0  0  0  0  0  0  0  0  0  0
    2.9900    0.3700    3.6400 C   0  0  2  0  0  0  0  0  0  0  0  0
    2.5960   -0.6920    4.5100 N   0  0  0  0  0  0  0  0  0  0  0  0
    2.2040    0.3870    2.3660 C   0  0  0  0  0  0  0  0  0  0  0  0
    2.4840    1.3610    1.5850 O   0  0  0  0  0  0  0  0  0  0  0  0
    6.6380   -2.0560    2.3730 H   0  0  0  0  0  0  0  0  0  0  0  0
    6.8720   -0.2940    2.1780 H   0  0  0  0  0  0  0  0  0  0  0  0
    5.0050    0.4040    4.3440 H   0  0  0  0  0  0  0  0  0  0  0  0
    4.7910    1.2970    2.8290 H   0  0  0  0  0  0  0  0  0  0  0  0
    2.7330    1.3300    4.1860 H   0  0  0  0  0  0  0  0  0  0  0  0
    1.5720   -0.7910    4.5480 H   0  0  0  0  0  0  0  0  0  0  0  0
    3.1600   -1.5230    4.3750 H   0  0  0  0  0  0  0  0  0  0  0  0
    0.5760   -4.1320   -0.4050 C   0  0  0  0  0  0  0  0  0  0  0  0
    0.3940   -3.0120    0.5940 C   0  0  0  0  0  0  0  0  0  0  0  0
    0.7770   -1.7210   -0.0920 C   0  0  2  0  0  0  0  0  0  0  0  0
    2.2100   -1.7820   -0.5460 C   0  0  0  0  0  0  0  0  0  0  0  0
    0.4940   -0.5210    0.7820 C   0  0  2  0  0  0  0  0  0  0  0  0
    1.2320   -0.5770    2.0280 N   0  0  0  0  0  0  0  0  0  0  0  0
   -0.9610   -0.4250    1.0350 C   0  0  0  0  0  0  0  0  0  0  0  0
   -1.3610   -0.4040    2.2210 O   0  0  0  0  0  0  0  0  0  0  0  0
   -0.2420   -4.8920   -0.3440 H   0  0  0  0  0  0  0  0  0  0  0  0
    0.5770   -3.7660   -1.4510 H   0  0  0  0  0  0  0  0  0  0  0  0
    1.5360   -4.6740   -0.2380 H   0  0  0  0  0  0  0  0  0  0  0  0
    1.1120   -3.1750    1.4350 H   0  0  0  0  0  0  0  0  0  0  0  0
   -0.6040   -2.9780    1.0280 H   0  0  0  0  0  0  0  0  0  0  0  0
    0.1560   -1.6080   -1.0050 H   0  0  0  0  0  0  0  0  0  0  0  0
    2.7340   -0.8130   -0.5040 H   0  0  0  0  0  0  0  0  0  0  0  0
    2.2750   -2.1140   -1.6210 H   0  0  0  0  0  0  0  0  0  0  0  0
    2.7790   -2.5800    0.0150 H   0  0  0  0  0  0  0  0  0  0  0  0
    0.8380    0.3770    0.1920 H   0  0  0  0  0  0  0  0  0  0  0  0
    1.0510   -1.3460    2.6980 H   0  0  0  0  0  0  0  0  0  0  0  0
   -4.3120    2.6580   -2.1230 C   0  0  0  0  0  0  0  0  0  0  0  0
   -3.6560    1.2990   -1.8280 C   0  0  0  0  0  0  0  0  0  0  0  0
   -4.2880    0.3130   -2.7570 C   0  0  0  0  0  0  0  0  0  0  0  0
   -3.8730    1.0270   -0.3860 C   0  0  0  0  0  0  0  0  0  0  0  0
   -3.3050   -0.2650    0.1180 C   0  0  2  0  0  0  0  0  0  0  0  0
   -1.8730   -0.3590   -0.0510 N   0  0  0  0  0  0  0  0  0  0  0  0
   -4.0210   -1.4470   -0.3810 C   0  0  0  0  0  0  0  0  0  0  0  0
   -5.2580   -1.5080   -0.2990 O   0  0  0  0  0  0  0  0  0  0  0  0
   -3.3330   -2.4930   -0.9410 O   0  0  0  0  0  0  0  0  0  0  0  0
   -4.3060    2.8260   -3.2360 H   0  0  0  0  0  0  0  0  0  0  0  0
   -5.3570    2.6820   -1.7820 H   0  0  0  0  0  0  0  0  0  0  0  0
   -3.7010    3.4530   -1.6780 H   0  0  0  0  0  0  0  0  0  0  0  0
   -2.6010    1.4190   -2.1240 H   0  0  0  0  0  0  0  0  0  0  0  0
   -5.3390    0.0830   -2.5360 H   0  0  0  0  0  0  0  0  0  0  0  0
   -3.6360   -0.5670   -2.8770 H   0  0  0  0  0  0  0  0  0  0  0  0
   -4.3050    0.8050   -3.7750 H   0  0  0  0  0  0  0  0  0  0  0  0
   -4.9750    0.9860   -0.2100 H   0  0  0  0  0  0  0  0  0  0  0  0
   -3.5060    1.8800    0.2200 H   0  0  0  0  0  0  0  0  0  0  0  0
   -3.4800   -0.2550    1.2370 H   0  0  0  0  0  0  0  0  0  0  0  0
   -1.4850   -0.3800   -0.9970 H   0  0  0  0  0  0  0  0  0  0  0  0
  1  2  1  0  0  0  0
  2  4  1  0  0  0  0
  3  2  2  0  0  0  0
  4  5  1  0  0  0  0
  4 11  1  0  0  0  0
  5 13  1  1  0  0  0
  5  6  1  0  0  0  0
  6 14  1  0  0  0  0
  7  5  1  0  0  0  0
  8  7  2  0  0  0  0
  9  1  1  0  0  0  0
 10  1  1  0  0  0  0
 12  4  1  0  0  0  0
 15  6  1  0  0  0  0
 16 24  1  0  0  0  0
 16 26  1  0  0  0  0
 16 17  1  0  0  0  0
 17 28  1  0  0  0  0
 17 27  1  0  0  0  0
 18 29  1  6  0  0  0
 18 17  1  0  0  0  0
 18 20  1  0  0  0  0
 19 30  1  0  0  0  0
 19 18  1  0  0  0  0
 19 32  1  0  0  0  0
 20 33  1  6  0  0  0
 20 22  1  0  0  0  0
 20 21  1  0  0  0  0
 21  7  1  0  0  0  0
 21 34  1  0  0  0  0
 22 23  2  0  0  0  0
 25 16  1  0  0  0  0
 31 19  1  0  0  0  0
 35 36  1  0  0  0  0
 35 45  1  0  0  0  0
 35 46  1  0  0  0  0
 36 38  1  0  0  0  0
 37 48  1  0  0  0  0
 37 36  1  0  0  0  0
 38 51  1  0  0  0  0
 38 39  1  0  0  0  0
 38 52  1  0  0  0  0
 39 53  1  1  0  0  0
 40 39  1  0  0  0  0
 40 22  1  0  0  0  0
 41 42  1  0  0  0  0
 41 39  1  0  0  0  0
 43 41  2  0  0  0  0
 44 35  1  0  0  0  0
 47 36  1  0  0  0  0
 49 37  1  0  0  0  0
 50 37  1  0  0  0  0
 54 40  1  0  0  0  0
M  END
$$$$
