NIM.pdb
 OpenBabel07022418103D

 52 51  0  0  1  0  0  0  0  0999 V2000
   -1.1090   -0.5960    5.2100 N   0  0  0  0  0  0  0  0  0  0  0  0
   -0.4360    0.3880    4.4060 C   0  0  0  0  0  0  0  0  0  0  0  0
   -1.1720    1.2040    3.8000 O   0  0  0  0  0  0  0  0  0  0  0  0
    1.0300    0.3610    4.3600 C   0  0  0  0  0  0  0  0  0  0  0  0
    1.6080    1.4390    3.4880 C   0  0  2  0  0  0  0  0  0  0  0  0
    1.2140    2.7360    3.9860 N   0  0  0  0  0  0  0  0  0  0  0  0
    1.1800    1.3390    2.0760 C   0  0  0  0  0  0  0  0  0  0  0  0
    0.5770    2.2980    1.4950 O   0  0  0  0  0  0  0  0  0  0  0  0
   -2.0220   -0.9980    4.9380 H   0  0  0  0  0  0  0  0  0  0  0  0
   -0.6820   -0.9380    6.1110 H   0  0  0  0  0  0  0  0  0  0  0  0
    1.3910    0.5760    5.4020 H   0  0  0  0  0  0  0  0  0  0  0  0
    1.3670   -0.6440    4.1170 H   0  0  0  0  0  0  0  0  0  0  0  0
    2.7240    1.4190    3.5140 H   0  0  0  0  0  0  0  0  0  0  0  0
    0.2740    3.0330    3.6650 H   0  0  0  0  0  0  0  0  0  0  0  0
    1.4060    2.8930    4.9820 H   0  0  0  0  0  0  0  0  0  0  0  0
    2.7700    2.3020   -1.0950 C   0  0  0  0  0  0  0  0  0  0  0  0
    3.2570    0.9430   -0.7220 C   0  0  0  0  0  0  0  0  0  0  0  0
    2.2180   -0.1470   -0.9130 C   0  0  2  0  0  0  0  0  0  0  0  0
    1.8380   -0.1640   -2.3490 C   0  0  0  0  0  0  0  0  0  0  0  0
    1.0000    0.0990   -0.0480 C   0  0  2  0  0  0  0  0  0  0  0  0
    1.4540    0.1390    1.3680 N   0  0  0  0  0  0  0  0  0  0  0  0
    0.1350   -1.1020   -0.1550 C   0  0  0  0  0  0  0  0  0  0  0  0
    0.1240   -1.8810    0.8670 O   0  0  0  0  0  0  0  0  0  0  0  0
    1.7540    2.3020   -1.5350 H   0  0  0  0  0  0  0  0  0  0  0  0
    2.6800    2.9240   -0.1590 H   0  0  0  0  0  0  0  0  0  0  0  0
    3.5010    2.8150   -1.7310 H   0  0  0  0  0  0  0  0  0  0  0  0
    4.0960    0.6710   -1.4260 H   0  0  0  0  0  0  0  0  0  0  0  0
    3.6940    0.9620    0.2730 H   0  0  0  0  0  0  0  0  0  0  0  0
    2.6590   -1.0980   -0.6180 H   0  0  0  0  0  0  0  0  0  0  0  0
    2.7510    0.0880   -2.9850 H   0  0  0  0  0  0  0  0  0  0  0  0
    1.5430   -1.1680   -2.7080 H   0  0  0  0  0  0  0  0  0  0  0  0
    1.0770    0.5650   -2.6550 H   0  0  0  0  0  0  0  0  0  0  0  0
    0.5210    1.0200   -0.3530 H   0  0  0  0  0  0  0  0  0  0  0  0
    1.9400   -0.6800    1.7830 H   0  0  0  0  0  0  0  0  0  0  0  0
   -4.2320   -3.3030    1.7010 C   0  0  0  0  0  0  0  0  0  0  0  0
   -3.6970   -4.3380    0.3130 S   0  0  0  0  0  0  0  0  0  0  0  0
   -3.8580   -3.4170   -1.2380 C   0  0  0  0  0  0  0  0  0  0  0  0
   -2.9060   -2.2500   -1.2940 C   0  0  0  0  0  0  0  0  0  0  0  0
   -1.4510   -2.6840   -1.1830 C   0  0  2  0  0  0  0  0  0  0  0  0
   -0.6620   -1.4590   -1.2520 N   0  0  0  0  0  0  0  0  0  0  0  0
   -1.0920   -3.5380   -2.3230 C   0  0  0  0  0  0  0  0  0  0  0  0
   -0.2540   -3.1760   -3.1640 O   0  0  0  0  0  0  0  0  0  0  0  0
   -1.6650   -4.7970   -2.5290 O   0  0  0  0  0  0  0  0  0  0  0  0
   -5.0230   -2.5730    1.3700 H   0  0  0  0  0  0  0  0  0  0  0  0
   -4.6060   -3.9070    2.5470 H   0  0  0  0  0  0  0  0  0  0  0  0
   -3.3300   -2.7640    2.0840 H   0  0  0  0  0  0  0  0  0  0  0  0
   -3.8360   -4.0630   -2.1330 H   0  0  0  0  0  0  0  0  0  0  0  0
   -4.9010   -2.9800   -1.2120 H   0  0  0  0  0  0  0  0  0  0  0  0
   -3.1260   -1.6150   -0.4110 H   0  0  0  0  0  0  0  0  0  0  0  0
   -3.0100   -1.7080   -2.2500 H   0  0  0  0  0  0  0  0  0  0  0  0
   -1.2560   -3.1680   -0.2200 H   0  0  0  0  0  0  0  0  0  0  0  0
   -0.6920   -0.8440   -2.0890 H   0  0  0  0  0  0  0  0  0  0  0  0
  1 10  1  0  0  0  0
  2  1  1  0  0  0  0
  3  2  2  0  0  0  0
  4  2  1  0  0  0  0
  4 11  1  0  0  0  0
  5 13  1  1  0  0  0
  5  6  1  0  0  0  0
  5  4  1  0  0  0  0
  6 15  1  0  0  0  0
  7  5  1  0  0  0  0
  8  7  2  0  0  0  0
  9  1  1  0  0  0  0
 12  4  1  0  0  0  0
 14  6  1  0  0  0  0
 16 17  1  0  0  0  0
 16 25  1  0  0  0  0
 17 28  1  0  0  0  0
 18 17  1  0  0  0  0
 18 29  1  1  0  0  0
 18 20  1  0  0  0  0
 19 18  1  0  0  0  0
 20 33  1  6  0  0  0
 20 21  1  0  0  0  0
 21 34  1  0  0  0  0
 21  7  1  0  0  0  0
 22 20  1  0  0  0  0
 22 23  2  0  0  0  0
 24 16  1  0  0  0  0
 26 16  1  0  0  0  0
 27 17  1  0  0  0  0
 30 19  1  0  0  0  0
 31 19  1  0  0  0  0
 32 19  1  0  0  0  0
 35 46  1  0  0  0  0
 35 45  1  0  0  0  0
 36 35  1  0  0  0  0
 37 48  1  0  0  0  0
 37 36  1  0  0  0  0
 38 37  1  0  0  0  0
 38 39  1  0  0  0  0
 38 49  1  0  0  0  0
 39 51  1  1  0  0  0
 40 39  1  0  0  0  0
 40 22  1  0  0  0  0
 41 39  1  0  0  0  0
 42 41  2  0  0  0  0
 43 41  1  0  0  0  0
 44 35  1  0  0  0  0
 47 37  1  0  0  0  0
 50 38  1  0  0  0  0
 52 40  1  0  0  0  0
M  END
$$$$
