NIN.pdb
 OpenBabel07022418103D

 49 48  0  0  1  0  0  0  0  0999 V2000
   -4.4000   -1.1660    3.7560 N   0  0  0  0  0  0  0  0  0  0  0  0
   -3.1290   -0.5610    3.8870 C   0  0  0  0  0  0  0  0  0  0  0  0
   -2.9180    0.1760    4.8820 O   0  0  0  0  0  0  0  0  0  0  0  0
   -2.0660   -0.7740    2.8980 C   0  0  0  0  0  0  0  0  0  0  0  0
   -0.7970   -0.0090    3.2750 C   0  0  2  0  0  0  0  0  0  0  0  0
   -1.1450    1.3910    3.3250 N   0  0  0  0  0  0  0  0  0  0  0  0
    0.1650   -0.2480    2.1290 C   0  0  0  0  0  0  0  0  0  0  0  0
    0.5990   -1.3980    1.9000 O   0  0  0  0  0  0  0  0  0  0  0  0
   -5.2760   -0.7040    4.0750 H   0  0  0  0  0  0  0  0  0  0  0  0
   -4.4790   -2.1100    3.3260 H   0  0  0  0  0  0  0  0  0  0  0  0
   -1.7640   -1.8540    2.8320 H   0  0  0  0  0  0  0  0  0  0  0  0
   -2.4250   -0.4970    1.9020 H   0  0  0  0  0  0  0  0  0  0  0  0
   -0.3870   -0.3440    4.2250 H   0  0  0  0  0  0  0  0  0  0  0  0
   -2.1040    1.5700    2.9690 H   0  0  0  0  0  0  0  0  0  0  0  0
   -0.9070    1.8560    4.2060 H   0  0  0  0  0  0  0  0  0  0  0  0
    3.6430    1.5910   -1.8150 C   0  0  0  0  0  0  0  0  0  0  0  0
    3.8550    0.6430   -0.6890 C   0  0  0  0  0  0  0  0  0  0  0  0
    2.9290    0.7610    0.4710 C   0  0  2  0  0  0  0  0  0  0  0  0
    3.3240   -0.2820    1.4960 C   0  0  0  0  0  0  0  0  0  0  0  0
    1.4860    0.7160    0.1860 C   0  0  2  0  0  0  0  0  0  0  0  0
    0.5880    0.8210    1.3010 N   0  0  0  0  0  0  0  0  0  0  0  0
    1.0260   -0.2000   -0.8740 C   0  0  0  0  0  0  0  0  0  0  0  0
    1.7270   -0.5270   -1.8610 O   0  0  0  0  0  0  0  0  0  0  0  0
    3.7090    1.1060   -2.8230 H   0  0  0  0  0  0  0  0  0  0  0  0
    2.7120    2.1530   -1.6880 H   0  0  0  0  0  0  0  0  0  0  0  0
    4.4460    2.3870   -1.8730 H   0  0  0  0  0  0  0  0  0  0  0  0
    3.9880   -0.4190   -1.0320 H   0  0  0  0  0  0  0  0  0  0  0  0
    4.8870    0.8740   -0.2730 H   0  0  0  0  0  0  0  0  0  0  0  0
    3.2080    1.7480    0.9580 H   0  0  0  0  0  0  0  0  0  0  0  0
    2.8740   -0.0560    2.4900 H   0  0  0  0  0  0  0  0  0  0  0  0
    3.1940   -1.3100    1.1500 H   0  0  0  0  0  0  0  0  0  0  0  0
    4.4410   -0.2090    1.7130 H   0  0  0  0  0  0  0  0  0  0  0  0
    1.2980    1.7530   -0.3540 H   0  0  0  0  0  0  0  0  0  0  0  0
    0.1600    1.7660    1.5930 H   0  0  0  0  0  0  0  0  0  0  0  0
   -0.4220   -4.7600    0.3610 N   0  0  0  0  0  0  0  0  0  0  0  0
   -0.1610   -3.5830   -0.4380 C   0  0  0  0  0  0  0  0  0  0  0  0
    1.0240   -3.1620   -0.5410 O   0  0  0  0  0  0  0  0  0  0  0  0
   -1.2800   -2.8990   -1.1160 C   0  0  0  0  0  0  0  0  0  0  0  0
   -0.8150   -1.6560   -1.8080 C   0  0  2  0  0  0  0  0  0  0  0  0
   -0.2690   -0.7460   -0.8050 N   0  0  0  0  0  0  0  0  0  0  0  0
   -1.9420   -0.9520   -2.4900 C   0  0  0  0  0  0  0  0  0  0  0  0
   -2.5660   -1.5470   -3.3920 O   0  0  0  0  0  0  0  0  0  0  0  0
   -2.2950    0.3260   -2.1380 O   0  0  0  0  0  0  0  0  0  0  0  0
   -1.3420   -4.8980    0.8080 H   0  0  0  0  0  0  0  0  0  0  0  0
    0.3190   -5.4550    0.4780 H   0  0  0  0  0  0  0  0  0  0  0  0
   -1.7120   -3.6210   -1.8480 H   0  0  0  0  0  0  0  0  0  0  0  0
   -2.0300   -2.6430   -0.3320 H   0  0  0  0  0  0  0  0  0  0  0  0
   -0.0330   -1.9400   -2.5570 H   0  0  0  0  0  0  0  0  0  0  0  0
   -0.9750   -0.5350   -0.0310 H   0  0  0  0  0  0  0  0  0  0  0  0
  1  2  1  0  0  0  0
  1  9  1  0  0  0  0
  2  3  2  0  0  0  0
  4  5  1  0  0  0  0
  4  2  1  0  0  0  0
  5  6  1  0  0  0  0
  5 13  1  1  0  0  0
  6 15  1  0  0  0  0
  7  5  1  0  0  0  0
  8  7  2  0  0  0  0
 10  1  1  0  0  0  0
 11  4  1  0  0  0  0
 12  4  1  0  0  0  0
 14  6  1  0  0  0  0
 16 25  1  0  0  0  0
 16 17  1  0  0  0  0
 17 28  1  0  0  0  0
 17 18  1  0  0  0  0
 18 29  1  1  0  0  0
 18 19  1  0  0  0  0
 19 32  1  0  0  0  0
 19 30  1  0  0  0  0
 20 33  1  6  0  0  0
 20 18  1  0  0  0  0
 20 21  1  0  0  0  0
 21 34  1  0  0  0  0
 21  7  1  0  0  0  0
 22 40  1  0  0  0  0
 22 20  1  0  0  0  0
 23 22  2  0  0  0  0
 24 16  1  0  0  0  0
 26 16  1  0  0  0  0
 27 17  1  0  0  0  0
 31 19  1  0  0  0  0
 35 45  1  0  0  0  0
 35 44  1  0  0  0  0
 36 35  1  0  0  0  0
 37 36  2  0  0  0  0
 38 36  1  0  0  0  0
 38 47  1  0  0  0  0
 39 48  1  6  0  0  0
 39 38  1  0  0  0  0
 39 40  1  0  0  0  0
 40 49  1  0  0  0  0
 41 43  1  0  0  0  0
 41 39  1  0  0  0  0
 42 41  2  0  0  0  0
 46 38  1  0  0  0  0
M  END
$$$$
