NIQ.pdb
 OpenBabel07022418103D

 52 51  0  0  1  0  0  0  0  0999 V2000
   -3.8480    1.2190    3.0470 N   0  0  0  0  0  0  0  0  0  0  0  0
   -2.5190    1.7150    2.8730 C   0  0  0  0  0  0  0  0  0  0  0  0
   -1.7610    1.6550    3.8530 O   0  0  0  0  0  0  0  0  0  0  0  0
   -2.1080    2.2610    1.5840 C   0  0  0  0  0  0  0  0  0  0  0  0
   -0.6630    2.6540    1.4630 C   0  0  2  0  0  0  0  0  0  0  0  0
   -0.5340    3.1960    0.0970 N   0  0  0  0  0  0  0  0  0  0  0  0
    0.1420    1.3670    1.5230 C   0  0  0  0  0  0  0  0  0  0  0  0
    0.2520    0.7580    2.6030 O   0  0  0  0  0  0  0  0  0  0  0  0
   -4.6850    1.6250    2.5760 H   0  0  0  0  0  0  0  0  0  0  0  0
   -4.0070    0.4050    3.6780 H   0  0  0  0  0  0  0  0  0  0  0  0
   -2.7020    3.1810    1.3010 H   0  0  0  0  0  0  0  0  0  0  0  0
   -2.3000    1.5130    0.7560 H   0  0  0  0  0  0  0  0  0  0  0  0
   -0.3120    3.4020    2.1580 H   0  0  0  0  0  0  0  0  0  0  0  0
   -1.1310    2.6730   -0.5650 H   0  0  0  0  0  0  0  0  0  0  0  0
   -0.6690    4.2240    0.0810 H   0  0  0  0  0  0  0  0  0  0  0  0
    4.3940    0.3960    1.1920 C   0  0  0  0  0  0  0  0  0  0  0  0
    3.2090    0.1260    2.1030 C   0  0  0  0  0  0  0  0  0  0  0  0
    2.2280   -0.8280    1.4640 C   0  0  2  0  0  0  0  0  0  0  0  0
    2.9640   -2.1330    1.1700 C   0  0  0  0  0  0  0  0  0  0  0  0
    1.5740   -0.3240    0.2400 C   0  0  2  0  0  0  0  0  0  0  0  0
    0.7650    0.8570    0.3690 N   0  0  0  0  0  0  0  0  0  0  0  0
    0.8870   -1.3910   -0.4890 C   0  0  0  0  0  0  0  0  0  0  0  0
    1.4510   -2.4650   -0.7640 O   0  0  0  0  0  0  0  0  0  0  0  0
    4.6030   -0.4590    0.5240 H   0  0  0  0  0  0  0  0  0  0  0  0
    4.2310    1.3420    0.6520 H   0  0  0  0  0  0  0  0  0  0  0  0
    5.2750    0.5400    1.8500 H   0  0  0  0  0  0  0  0  0  0  0  0
    2.7820    1.0980    2.3500 H   0  0  0  0  0  0  0  0  0  0  0  0
    3.5660   -0.3470    3.0380 H   0  0  0  0  0  0  0  0  0  0  0  0
    1.4770   -1.1000    2.2310 H   0  0  0  0  0  0  0  0  0  0  0  0
    2.2930   -3.0060    1.2420 H   0  0  0  0  0  0  0  0  0  0  0  0
    3.4590   -2.1270    0.1860 H   0  0  0  0  0  0  0  0  0  0  0  0
    3.8150   -2.2460    1.9080 H   0  0  0  0  0  0  0  0  0  0  0  0
    2.4750   -0.0030   -0.4160 H   0  0  0  0  0  0  0  0  0  0  0  0
    0.6060    1.4330   -0.5160 H   0  0  0  0  0  0  0  0  0  0  0  0
   -0.5140   -4.9770    1.5200 N   0  0  0  0  0  0  0  0  0  0  0  0
   -1.2180   -4.4330    0.3930 C   0  0  0  0  0  0  0  0  0  0  0  0
   -1.1300   -5.0320   -0.6990 O   0  0  0  0  0  0  0  0  0  0  0  0
   -2.0300   -3.2090    0.4990 C   0  0  0  0  0  0  0  0  0  0  0  0
   -2.3930   -2.6960   -0.8640 C   0  0  0  0  0  0  0  0  0  0  0  0
   -1.1720   -2.3100   -1.6530 C   0  0  2  0  0  0  0  0  0  0  0  0
   -0.4700   -1.2760   -0.9340 N   0  0  0  0  0  0  0  0  0  0  0  0
   -1.6470   -1.8110   -2.9820 C   0  0  0  0  0  0  0  0  0  0  0  0
   -1.4000   -0.6250   -3.2990 O   0  0  0  0  0  0  0  0  0  0  0  0
   -2.3470   -2.6000   -3.8730 O   0  0  0  0  0  0  0  0  0  0  0  0
   -0.4010   -6.0000    1.6350 H   0  0  0  0  0  0  0  0  0  0  0  0
   -0.1310   -4.3020    2.2000 H   0  0  0  0  0  0  0  0  0  0  0  0
   -2.9420   -3.4310    1.1010 H   0  0  0  0  0  0  0  0  0  0  0  0
   -1.4800   -2.4110    1.0780 H   0  0  0  0  0  0  0  0  0  0  0  0
   -3.0620   -1.7950   -0.7790 H   0  0  0  0  0  0  0  0  0  0  0  0
   -2.9460   -3.5030   -1.4110 H   0  0  0  0  0  0  0  0  0  0  0  0
   -0.5440   -3.1970   -1.8240 H   0  0  0  0  0  0  0  0  0  0  0  0
   -0.9640   -0.3900   -0.7180 H   0  0  0  0  0  0  0  0  0  0  0  0
  1 10  1  0  0  0  0
  2  1  1  0  0  0  0
  2  3  2  0  0  0  0
  4  2  1  0  0  0  0
  5  7  1  0  0  0  0
  5  4  1  0  0  0  0
  5 13  1  1  0  0  0
  6  5  1  0  0  0  0
  7  8  2  0  0  0  0
  9  1  1  0  0  0  0
 11  4  1  0  0  0  0
 12  4  1  0  0  0  0
 14  6  1  0  0  0  0
 15  6  1  0  0  0  0
 16 26  1  0  0  0  0
 16 17  1  0  0  0  0
 17 27  1  0  0  0  0
 17 28  1  0  0  0  0
 18 17  1  0  0  0  0
 18 29  1  1  0  0  0
 19 30  1  0  0  0  0
 19 18  1  0  0  0  0
 19 32  1  0  0  0  0
 20 33  1  6  0  0  0
 20 21  1  0  0  0  0
 20 18  1  0  0  0  0
 21  7  1  0  0  0  0
 22 20  1  0  0  0  0
 23 22  2  0  0  0  0
 24 16  1  0  0  0  0
 25 16  1  0  0  0  0
 31 19  1  0  0  0  0
 34 21  1  0  0  0  0
 35 45  1  0  0  0  0
 35 46  1  0  0  0  0
 36 38  1  0  0  0  0
 36 35  1  0  0  0  0
 37 36  2  0  0  0  0
 38 48  1  0  0  0  0
 38 47  1  0  0  0  0
 39 49  1  0  0  0  0
 39 38  1  0  0  0  0
 40 51  1  6  0  0  0
 40 41  1  0  0  0  0
 40 39  1  0  0  0  0
 41 52  1  0  0  0  0
 41 22  1  0  0  0  0
 42 40  1  0  0  0  0
 43 42  1  0  0  0  0
 44 42  2  0  0  0  0
 50 39  1  0  0  0  0
M  END
$$$$
