NIR.pdb
 OpenBabel07022418103D

 58 57  0  0  1  0  0  0  0  0999 V2000
   -1.8490   -2.5470    5.0170 N   0  0  0  0  0  0  0  0  0  0  0  0
   -1.2240   -1.2870    4.7760 C   0  0  0  0  0  0  0  0  0  0  0  0
   -1.0950   -0.4680    5.7090 O   0  0  0  0  0  0  0  0  0  0  0  0
   -0.7500   -1.0100    3.3950 C   0  0  0  0  0  0  0  0  0  0  0  0
   -0.1250    0.3810    3.3710 C   0  0  2  0  0  0  0  0  0  0  0  0
   -1.1190    1.3580    3.7610 N   0  0  0  0  0  0  0  0  0  0  0  0
    0.3280    0.7050    1.9910 C   0  0  0  0  0  0  0  0  0  0  0  0
   -0.1470    1.6730    1.3550 O   0  0  0  0  0  0  0  0  0  0  0  0
   -2.6360   -2.5530    5.7050 H   0  0  0  0  0  0  0  0  0  0  0  0
   -1.5610   -3.4280    4.5500 H   0  0  0  0  0  0  0  0  0  0  0  0
   -1.5810   -1.0500    2.6560 H   0  0  0  0  0  0  0  0  0  0  0  0
    0.0100   -1.7580    3.1390 H   0  0  0  0  0  0  0  0  0  0  0  0
    0.6950    0.4080    4.1140 H   0  0  0  0  0  0  0  0  0  0  0  0
   -1.1490    2.1680    3.0980 H   0  0  0  0  0  0  0  0  0  0  0  0
   -0.9020    1.7860    4.6990 H   0  0  0  0  0  0  0  0  0  0  0  0
    4.4450   -1.5040   -0.1410 C   0  0  0  0  0  0  0  0  0  0  0  0
    4.3090   -0.1090    0.3180 C   0  0  0  0  0  0  0  0  0  0  0  0
    3.1750    0.6930   -0.1770 C   0  0  2  0  0  0  0  0  0  0  0  0
    3.2490    2.0990    0.4370 C   0  0  0  0  0  0  0  0  0  0  0  0
    1.8020    0.2090   -0.0280 C   0  0  2  0  0  0  0  0  0  0  0  0
    1.3160   -0.0440    1.3020 N   0  0  0  0  0  0  0  0  0  0  0  0
    1.3080   -0.7560   -1.0230 C   0  0  0  0  0  0  0  0  0  0  0  0
    1.6570   -0.6660   -2.2030 O   0  0  0  0  0  0  0  0  0  0  0  0
    4.4990   -1.5890   -1.2480 H   0  0  0  0  0  0  0  0  0  0  0  0
    5.4590   -1.8670    0.2070 H   0  0  0  0  0  0  0  0  0  0  0  0
    3.7310   -2.2260    0.2920 H   0  0  0  0  0  0  0  0  0  0  0  0
    4.3030   -0.0700    1.4510 H   0  0  0  0  0  0  0  0  0  0  0  0
    5.2920    0.3770    0.0890 H   0  0  0  0  0  0  0  0  0  0  0  0
    3.3620    0.8570   -1.2660 H   0  0  0  0  0  0  0  0  0  0  0  0
    4.2630    2.5370    0.3090 H   0  0  0  0  0  0  0  0  0  0  0  0
    3.0770    2.0540    1.5350 H   0  0  0  0  0  0  0  0  0  0  0  0
    2.5500    2.7930   -0.0720 H   0  0  0  0  0  0  0  0  0  0  0  0
    1.1780    1.1350   -0.3240 H   0  0  0  0  0  0  0  0  0  0  0  0
    1.7000   -0.8580    1.8670 H   0  0  0  0  0  0  0  0  0  0  0  0
   -5.7010   -0.2870   -0.1650 N   0  0  0  0  0  0  0  0  0  0  0  0
   -4.2760   -0.4230   -0.0750 C   0  0  0  0  0  0  0  0  0  0  0  0
   -3.7390   -1.1340    0.8570 N   0  0  0  0  0  0  0  0  0  0  0  0
   -3.4090    0.2150   -0.9990 N   0  0  0  0  0  0  0  0  0  0  0  0
   -2.1290   -0.3930   -1.3700 C   0  0  0  0  0  0  0  0  0  0  0  0
   -2.3170   -1.6320   -2.1630 C   0  0  0  0  0  0  0  0  0  0  0  0
   -1.0530   -2.2670   -2.5910 C   0  0  0  0  0  0  0  0  0  0  0  0
   -0.1030   -2.7670   -1.5600 C   0  0  2  0  0  0  0  0  0  0  0  0
    0.4280   -1.7950   -0.6450 N   0  0  0  0  0  0  0  0  0  0  0  0
    1.0230   -3.5240   -2.2200 C   0  0  0  0  0  0  0  0  0  0  0  0
    0.7730   -4.4180   -3.0580 O   0  0  0  0  0  0  0  0  0  0  0  0
    2.3100   -3.1870   -1.8600 O   0  0  0  0  0  0  0  0  0  0  0  0
   -6.3500   -1.0540   -0.4190 H   0  0  0  0  0  0  0  0  0  0  0  0
   -6.0960    0.6490    0.0410 H   0  0  0  0  0  0  0  0  0  0  0  0
   -4.3750   -1.6020    1.5350 H   0  0  0  0  0  0  0  0  0  0  0  0
   -3.7060    1.1230   -1.4070 H   0  0  0  0  0  0  0  0  0  0  0  0
   -1.5160   -0.5690   -0.4850 H   0  0  0  0  0  0  0  0  0  0  0  0
   -1.5810    0.3440   -2.0100 H   0  0  0  0  0  0  0  0  0  0  0  0
   -2.9150   -2.4080   -1.6180 H   0  0  0  0  0  0  0  0  0  0  0  0
   -2.9240   -1.4090   -3.1000 H   0  0  0  0  0  0  0  0  0  0  0  0
   -0.5040   -1.5660   -3.2960 H   0  0  0  0  0  0  0  0  0  0  0  0
   -1.3380   -3.1590   -3.2490 H   0  0  0  0  0  0  0  0  0  0  0  0
   -0.6310   -3.5590   -0.9710 H   0  0  0  0  0  0  0  0  0  0  0  0
    0.1520   -1.8770    0.3920 H   0  0  0  0  0  0  0  0  0  0  0  0
  1  9  1  0  0  0  0
  2  1  1  0  0  0  0
  2  3  2  0  0  0  0
  4  2  1  0  0  0  0
  5  4  1  0  0  0  0
  5  6  1  0  0  0  0
  5 13  1  1  0  0  0
  6 15  1  0  0  0  0
  7  5  1  0  0  0  0
  8  7  2  0  0  0  0
 10  1  1  0  0  0  0
 11  4  1  0  0  0  0
 12  4  1  0  0  0  0
 14  6  1  0  0  0  0
 16 25  1  0  0  0  0
 16 26  1  0  0  0  0
 16 17  1  0  0  0  0
 17 27  1  0  0  0  0
 18 29  1  6  0  0  0
 18 20  1  0  0  0  0
 18 17  1  0  0  0  0
 18 19  1  0  0  0  0
 19 31  1  0  0  0  0
 20 33  1  6  0  0  0
 20 21  1  0  0  0  0
 21 34  1  0  0  0  0
 21  7  1  0  0  0  0
 22 43  1  0  0  0  0
 22 20  1  0  0  0  0
 23 22  2  0  0  0  0
 24 16  1  0  0  0  0
 28 17  1  0  0  0  0
 30 19  1  0  0  0  0
 32 19  1  0  0  0  0
 35 36  1  0  0  0  0
 35 48  1  0  0  0  0
 36 37  2  0  0  0  0
 37 49  1  0  0  0  0
 38 36  1  0  0  0  0
 39 38  1  0  0  0  0
 39 51  1  0  0  0  0
 40 53  1  0  0  0  0
 40 39  1  0  0  0  0
 41 40  1  0  0  0  0
 41 42  1  0  0  0  0
 42 57  1  1  0  0  0
 42 43  1  0  0  0  0
 43 58  1  0  0  0  0
 44 46  1  0  0  0  0
 44 42  1  0  0  0  0
 45 44  2  0  0  0  0
 47 35  1  0  0  0  0
 50 38  1  0  0  0  0
 52 39  1  0  0  0  0
 54 40  1  0  0  0  0
 55 41  1  0  0  0  0
 56 41  1  0  0  0  0
M  END
$$$$
