NIS.pdb
 OpenBabel07022418103D

 46 45  0  0  1  0  0  0  0  0999 V2000
   -0.0400   -6.3090    1.0950 N   0  0  0  0  0  0  0  0  0  0  0  0
   -0.7280   -5.1500    0.6370 C   0  0  0  0  0  0  0  0  0  0  0  0
   -1.9510   -5.2830    0.3110 O   0  0  0  0  0  0  0  0  0  0  0  0
   -0.0120   -3.8660    0.5590 C   0  0  0  0  0  0  0  0  0  0  0  0
   -0.2390   -3.0250    1.7920 C   0  0  2  0  0  0  0  0  0  0  0  0
   -1.6330   -2.7530    1.9360 N   0  0  0  0  0  0  0  0  0  0  0  0
    0.5740   -1.7760    1.6760 C   0  0  0  0  0  0  0  0  0  0  0  0
    1.8100   -1.8920    1.5670 O   0  0  0  0  0  0  0  0  0  0  0  0
    0.9930   -6.3740    0.9180 H   0  0  0  0  0  0  0  0  0  0  0  0
   -0.5970   -7.0380    1.5850 H   0  0  0  0  0  0  0  0  0  0  0  0
   -0.3500   -3.2660   -0.3190 H   0  0  0  0  0  0  0  0  0  0  0  0
    1.0810   -4.0360    0.3760 H   0  0  0  0  0  0  0  0  0  0  0  0
    0.1420   -3.5880    2.6710 H   0  0  0  0  0  0  0  0  0  0  0  0
   -1.7660   -2.1930    2.8170 H   0  0  0  0  0  0  0  0  0  0  0  0
   -2.1890   -3.6130    1.9080 H   0  0  0  0  0  0  0  0  0  0  0  0
    1.4800    1.4620    4.3430 C   0  0  0  0  0  0  0  0  0  0  0  0
    2.2950    0.5260    3.4290 C   0  0  0  0  0  0  0  0  0  0  0  0
    2.0850    0.8780    1.9850 C   0  0  2  0  0  0  0  0  0  0  0  0
    2.5260    2.3120    1.8000 C   0  0  0  0  0  0  0  0  0  0  0  0
    0.6410    0.7720    1.6060 C   0  0  2  0  0  0  0  0  0  0  0  0
    0.0200   -0.4950    1.6850 N   0  0  0  0  0  0  0  0  0  0  0  0
    0.2820    1.4830    0.3740 C   0  0  0  0  0  0  0  0  0  0  0  0
    0.6690    2.6200    0.0240 O   0  0  0  0  0  0  0  0  0  0  0  0
    0.4470    1.0930    4.4940 H   0  0  0  0  0  0  0  0  0  0  0  0
    1.9270    1.4700    5.3690 H   0  0  0  0  0  0  0  0  0  0  0  0
    1.4320    2.4780    3.9110 H   0  0  0  0  0  0  0  0  0  0  0  0
    3.3620    0.5740    3.7290 H   0  0  0  0  0  0  0  0  0  0  0  0
    1.9040   -0.4690    3.6710 H   0  0  0  0  0  0  0  0  0  0  0  0
    2.7520    0.2950    1.3090 H   0  0  0  0  0  0  0  0  0  0  0  0
    3.4630    2.5200    2.4030 H   0  0  0  0  0  0  0  0  0  0  0  0
    1.7500    3.0570    2.0080 H   0  0  0  0  0  0  0  0  0  0  0  0
    2.8740    2.4950    0.7440 H   0  0  0  0  0  0  0  0  0  0  0  0
    0.1720    1.3440    2.5050 H   0  0  0  0  0  0  0  0  0  0  0  0
   -1.0500   -0.4710    1.7610 H   0  0  0  0  0  0  0  0  0  0  0  0
   -0.9180    1.3470   -4.2010 O   0  0  0  0  0  0  0  0  0  0  0  0
   -0.5400    0.7190   -3.0200 C   0  0  0  0  0  0  0  0  0  0  0  0
   -1.0000    1.5040   -1.8080 C   0  0  2  0  0  0  0  0  0  0  0  0
   -0.6080    0.8560   -0.5750 N   0  0  0  0  0  0  0  0  0  0  0  0
   -2.4760    1.5960   -1.8310 C   0  0  0  0  0  0  0  0  0  0  0  0
   -3.0870    2.1210   -2.7920 O   0  0  0  0  0  0  0  0  0  0  0  0
   -3.2170    1.0970   -0.7790 O   0  0  0  0  0  0  0  0  0  0  0  0
   -1.6550    0.8800   -4.6650 H   0  0  0  0  0  0  0  0  0  0  0  0
   -0.9290   -0.3190   -3.0100 H   0  0  0  0  0  0  0  0  0  0  0  0
    0.5760    0.6610   -3.0310 H   0  0  0  0  0  0  0  0  0  0  0  0
   -0.5220    2.5080   -1.8880 H   0  0  0  0  0  0  0  0  0  0  0  0
   -0.9890   -0.0940   -0.3760 H   0  0  0  0  0  0  0  0  0  0  0  0
  1 10  1  0  0  0  0
  2  1  1  0  0  0  0
  3  2  2  0  0  0  0
  4  2  1  0  0  0  0
  4  5  1  0  0  0  0
  5  6  1  0  0  0  0
  5 13  1  1  0  0  0
  6 14  1  0  0  0  0
  7 21  1  0  0  0  0
  7  5  1  0  0  0  0
  8  7  2  0  0  0  0
  9  1  1  0  0  0  0
 11  4  1  0  0  0  0
 12  4  1  0  0  0  0
 15  6  1  0  0  0  0
 16 24  1  0  0  0  0
 16 25  1  0  0  0  0
 17 28  1  0  0  0  0
 17 27  1  0  0  0  0
 17 16  1  0  0  0  0
 18 29  1  6  0  0  0
 18 17  1  0  0  0  0
 19 18  1  0  0  0  0
 19 31  1  0  0  0  0
 19 30  1  0  0  0  0
 20 21  1  0  0  0  0
 20 18  1  0  0  0  0
 20 33  1  1  0  0  0
 21 34  1  0  0  0  0
 22 20  1  0  0  0  0
 23 22  2  0  0  0  0
 26 16  1  0  0  0  0
 32 19  1  0  0  0  0
 35 36  1  0  0  0  0
 36 43  1  0  0  0  0
 36 37  1  0  0  0  0
 37 45  1  6  0  0  0
 37 38  1  0  0  0  0
 38 46  1  0  0  0  0
 38 22  1  0  0  0  0
 39 37  1  0  0  0  0
 39 41  1  0  0  0  0
 40 39  2  0  0  0  0
 42 35  1  0  0  0  0
 44 36  1  0  0  0  0
M  END
$$$$
