NIT.pdb
 OpenBabel07022418103D

 49 48  0  0  1  0  0  0  0  0999 V2000
   -3.1000   -3.0310    3.7020 N   0  0  0  0  0  0  0  0  0  0  0  0
   -2.1380   -2.2030    4.3410 C   0  0  0  0  0  0  0  0  0  0  0  0
   -2.2120   -2.0380    5.5710 O   0  0  0  0  0  0  0  0  0  0  0  0
   -1.0550   -1.5370    3.5760 C   0  0  0  0  0  0  0  0  0  0  0  0
   -1.1660   -1.8840    2.1010 C   0  0  2  0  0  0  0  0  0  0  0  0
   -1.0590   -3.2970    1.8970 N   0  0  0  0  0  0  0  0  0  0  0  0
   -0.0150   -1.2200    1.3990 C   0  0  0  0  0  0  0  0  0  0  0  0
    0.7930   -1.9580    0.7940 O   0  0  0  0  0  0  0  0  0  0  0  0
   -3.9150   -2.6390    3.2000 H   0  0  0  0  0  0  0  0  0  0  0  0
   -2.9970   -4.0740    3.7290 H   0  0  0  0  0  0  0  0  0  0  0  0
   -0.0820   -1.8900    3.9320 H   0  0  0  0  0  0  0  0  0  0  0  0
   -1.1460   -0.4570    3.6970 H   0  0  0  0  0  0  0  0  0  0  0  0
   -2.1370   -1.5020    1.6970 H   0  0  0  0  0  0  0  0  0  0  0  0
   -0.5440   -3.7930    2.6300 H   0  0  0  0  0  0  0  0  0  0  0  0
   -1.8930   -3.7550    1.5220 H   0  0  0  0  0  0  0  0  0  0  0  0
    2.5270    2.0890    3.1030 C   0  0  0  0  0  0  0  0  0  0  0  0
    2.5720    0.6150    2.7870 C   0  0  0  0  0  0  0  0  0  0  0  0
    2.5280    0.3360    1.3060 C   0  0  2  0  0  0  0  0  0  0  0  0
    3.7200    0.9940    0.6340 C   0  0  0  0  0  0  0  0  0  0  0  0
    1.2270    0.8510    0.7760 C   0  0  2  0  0  0  0  0  0  0  0  0
    0.1300    0.1930    1.4350 N   0  0  0  0  0  0  0  0  0  0  0  0
    1.0670    0.7420   -0.6830 C   0  0  0  0  0  0  0  0  0  0  0  0
    1.9180    1.1680   -1.5090 O   0  0  0  0  0  0  0  0  0  0  0  0
    1.4980    2.4960    3.0940 H   0  0  0  0  0  0  0  0  0  0  0  0
    2.9060    2.2100    4.1420 H   0  0  0  0  0  0  0  0  0  0  0  0
    3.2180    2.6840    2.4570 H   0  0  0  0  0  0  0  0  0  0  0  0
    1.7300    0.1300    3.2870 H   0  0  0  0  0  0  0  0  0  0  0  0
    3.5040    0.2070    3.2380 H   0  0  0  0  0  0  0  0  0  0  0  0
    2.6510   -0.7400    1.1540 H   0  0  0  0  0  0  0  0  0  0  0  0
    4.1710    0.3140   -0.1430 H   0  0  0  0  0  0  0  0  0  0  0  0
    4.4970    1.1290    1.4130 H   0  0  0  0  0  0  0  0  0  0  0  0
    3.4730    1.9820    0.2030 H   0  0  0  0  0  0  0  0  0  0  0  0
    1.1930    1.9660    0.9840 H   0  0  0  0  0  0  0  0  0  0  0  0
   -0.6060    0.7300    1.9690 H   0  0  0  0  0  0  0  0  0  0  0  0
   -1.3080   -2.2300   -2.0900 C   0  0  0  0  0  0  0  0  0  0  0  0
   -0.2770   -1.5120   -2.9340 C   0  0  1  0  0  0  0  0  0  0  0  0
   -0.4760   -1.7760   -4.2870 O   0  0  0  0  0  0  0  0  0  0  0  0
   -0.3060   -0.0060   -2.6540 C   0  0  2  0  0  0  0  0  0  0  0  0
   -0.0880    0.1350   -1.2240 N   0  0  0  0  0  0  0  0  0  0  0  0
   -1.5610    0.5960   -3.0980 C   0  0  0  0  0  0  0  0  0  0  0  0
   -2.3170    1.1560   -2.2750 O   0  0  0  0  0  0  0  0  0  0  0  0
   -1.9320    0.5580   -4.4250 O   0  0  0  0  0  0  0  0  0  0  0  0
   -0.8530   -2.7910   -1.2590 H   0  0  0  0  0  0  0  0  0  0  0  0
   -2.0720   -1.5570   -1.6760 H   0  0  0  0  0  0  0  0  0  0  0  0
   -1.8340   -2.9690   -2.7520 H   0  0  0  0  0  0  0  0  0  0  0  0
    0.7300   -1.8640   -2.6330 H   0  0  0  0  0  0  0  0  0  0  0  0
   -1.1240   -2.5450   -4.3470 H   0  0  0  0  0  0  0  0  0  0  0  0
    0.5760    0.4380   -3.1640 H   0  0  0  0  0  0  0  0  0  0  0  0
   -0.8400   -0.2330   -0.6240 H   0  0  0  0  0  0  0  0  0  0  0  0
  1 10  1  0  0  0  0
  1  2  1  0  0  0  0
  2  3  2  0  0  0  0
  4 12  1  0  0  0  0
  4 11  1  0  0  0  0
  4  2  1  0  0  0  0
  5 13  1  6  0  0  0
  5  4  1  0  0  0  0
  6  5  1  0  0  0  0
  6 14  1  0  0  0  0
  7 21  1  0  0  0  0
  7  5  1  0  0  0  0
  8  7  2  0  0  0  0
  9  1  1  0  0  0  0
 15  6  1  0  0  0  0
 16 25  1  0  0  0  0
 17 16  1  0  0  0  0
 17 28  1  0  0  0  0
 17 27  1  0  0  0  0
 18 29  1  6  0  0  0
 18 17  1  0  0  0  0
 19 18  1  0  0  0  0
 19 31  1  0  0  0  0
 20 33  1  1  0  0  0
 20 18  1  0  0  0  0
 20 21  1  0  0  0  0
 21 34  1  0  0  0  0
 22 20  1  0  0  0  0
 23 22  2  0  0  0  0
 24 16  1  0  0  0  0
 26 16  1  0  0  0  0
 30 19  1  0  0  0  0
 32 19  1  0  0  0  0
 35 44  1  0  0  0  0
 35 43  1  0  0  0  0
 36 38  1  0  0  0  0
 36 46  1  1  0  0  0
 36 35  1  0  0  0  0
 37 36  1  0  0  0  0
 38 48  1  6  0  0  0
 38 39  1  0  0  0  0
 39 22  1  0  0  0  0
 39 49  1  0  0  0  0
 40 38  1  0  0  0  0
 40 41  1  0  0  0  0
 42 40  2  0  0  0  0
 45 35  1  0  0  0  0
 47 37  1  0  0  0  0
M  END
$$$$
