NIV.pdb
 OpenBabel07022418103D

 51 50  0  0  1  0  0  0  0  0999 V2000
    2.1140   -1.3150    6.0690 N   0  0  0  0  0  0  0  0  0  0  0  0
    3.2570   -1.1940    5.2440 C   0  0  0  0  0  0  0  0  0  0  0  0
    4.3760   -1.4900    5.7250 O   0  0  0  0  0  0  0  0  0  0  0  0
    3.1690   -0.7370    3.8550 C   0  0  0  0  0  0  0  0  0  0  0  0
    1.7500   -0.4230    3.4320 C   0  0  2  0  0  0  0  0  0  0  0  0
    0.8880   -1.5840    3.5420 N   0  0  0  0  0  0  0  0  0  0  0  0
    1.8340   -0.0010    1.9870 C   0  0  0  0  0  0  0  0  0  0  0  0
    2.5580    1.0060    1.7420 O   0  0  0  0  0  0  0  0  0  0  0  0
    1.6660   -0.5250    6.5800 H   0  0  0  0  0  0  0  0  0  0  0  0
    1.6870   -2.2590    6.1780 H   0  0  0  0  0  0  0  0  0  0  0  0
    3.5940   -1.4900    3.1770 H   0  0  0  0  0  0  0  0  0  0  0  0
    3.7560    0.2030    3.6720 H   0  0  0  0  0  0  0  0  0  0  0  0
    1.3310    0.4060    4.0480 H   0  0  0  0  0  0  0  0  0  0  0  0
    1.4060   -2.4540    3.7980 H   0  0  0  0  0  0  0  0  0  0  0  0
    0.1650   -1.4130    4.2580 H   0  0  0  0  0  0  0  0  0  0  0  0
    2.7550    0.0430   -2.8710 C   0  0  0  0  0  0  0  0  0  0  0  0
    1.9090   -1.1680   -2.6560 C   0  0  0  0  0  0  0  0  0  0  0  0
    1.7520   -1.4520   -1.1990 C   0  0  2  0  0  0  0  0  0  0  0  0
    0.8970   -2.6740   -1.0230 C   0  0  0  0  0  0  0  0  0  0  0  0
    1.2250   -0.2970   -0.3840 C   0  0  2  0  0  0  0  0  0  0  0  0
    1.1310   -0.7130    0.9790 N   0  0  0  0  0  0  0  0  0  0  0  0
   -0.0930    0.0970   -0.9400 C   0  0  0  0  0  0  0  0  0  0  0  0
   -0.2080    0.4970   -2.1230 O   0  0  0  0  0  0  0  0  0  0  0  0
    3.6100   -0.1700   -3.5770 H   0  0  0  0  0  0  0  0  0  0  0  0
    2.2250    0.9000   -3.3300 H   0  0  0  0  0  0  0  0  0  0  0  0
    3.2780    0.3640   -1.9230 H   0  0  0  0  0  0  0  0  0  0  0  0
    0.9650   -1.1790   -3.2340 H   0  0  0  0  0  0  0  0  0  0  0  0
    2.4870   -2.0480   -3.0710 H   0  0  0  0  0  0  0  0  0  0  0  0
    2.7770   -1.7290   -0.8120 H   0  0  0  0  0  0  0  0  0  0  0  0
   -0.1740   -2.4490   -0.9380 H   0  0  0  0  0  0  0  0  0  0  0  0
    1.1820   -3.2740   -0.1160 H   0  0  0  0  0  0  0  0  0  0  0  0
    0.9960   -3.3650   -1.9060 H   0  0  0  0  0  0  0  0  0  0  0  0
    1.8780    0.5810   -0.4570 H   0  0  0  0  0  0  0  0  0  0  0  0
    0.5660   -1.5310    1.3130 H   0  0  0  0  0  0  0  0  0  0  0  0
   -3.5820   -1.3150    0.7270 C   0  0  0  0  0  0  0  0  0  0  0  0
   -3.4340   -0.8180   -0.7070 C   0  0  0  0  0  0  0  0  0  0  0  0
   -4.7700   -0.6320   -1.3510 C   0  0  0  0  0  0  0  0  0  0  0  0
   -2.5850    0.4370   -0.7340 C   0  0  2  0  0  0  0  0  0  0  0  0
   -1.2920    0.0450   -0.1720 N   0  0  0  0  0  0  0  0  0  0  0  0
   -3.1960    1.5340    0.0460 C   0  0  0  0  0  0  0  0  0  0  0  0
   -2.6350    2.0220    1.0430 O   0  0  0  0  0  0  0  0  0  0  0  0
   -4.4280    2.0320   -0.3460 O   0  0  0  0  0  0  0  0  0  0  0  0
   -2.6820   -1.8770    1.0600 H   0  0  0  0  0  0  0  0  0  0  0  0
   -4.4420   -2.0040    0.8200 H   0  0  0  0  0  0  0  0  0  0  0  0
   -3.7340   -0.4040    1.3720 H   0  0  0  0  0  0  0  0  0  0  0  0
   -2.8440   -1.6080   -1.2380 H   0  0  0  0  0  0  0  0  0  0  0  0
   -5.1860   -1.6650   -1.5350 H   0  0  0  0  0  0  0  0  0  0  0  0
   -5.4240   -0.0530   -0.7010 H   0  0  0  0  0  0  0  0  0  0  0  0
   -4.5890   -0.1480   -2.3480 H   0  0  0  0  0  0  0  0  0  0  0  0
   -2.5090    0.7590   -1.7700 H   0  0  0  0  0  0  0  0  0  0  0  0
   -1.2020   -0.2860    0.8110 H   0  0  0  0  0  0  0  0  0  0  0  0
  1 10  1  0  0  0  0
  1  9  1  0  0  0  0
  2  3  2  0  0  0  0
  2  1  1  0  0  0  0
  4  2  1  0  0  0  0
  5  6  1  0  0  0  0
  5  4  1  0  0  0  0
  5 13  1  1  0  0  0
  6 14  1  0  0  0  0
  6 15  1  0  0  0  0
  7  5  1  0  0  0  0
  8  7  2  0  0  0  0
 11  4  1  0  0  0  0
 12  4  1  0  0  0  0
 16 17  1  0  0  0  0
 16 26  1  0  0  0  0
 17 18  1  0  0  0  0
 18 19  1  0  0  0  0
 18 29  1  1  0  0  0
 18 20  1  0  0  0  0
 19 30  1  0  0  0  0
 19 31  1  0  0  0  0
 20 33  1  6  0  0  0
 20 21  1  0  0  0  0
 21 34  1  0  0  0  0
 21  7  1  0  0  0  0
 22 20  1  0  0  0  0
 22 39  1  0  0  0  0
 23 22  2  0  0  0  0
 24 16  1  0  0  0  0
 25 16  1  0  0  0  0
 27 17  1  0  0  0  0
 28 17  1  0  0  0  0
 32 19  1  0  0  0  0
 35 44  1  0  0  0  0
 35 43  1  0  0  0  0
 35 45  1  0  0  0  0
 36 35  1  0  0  0  0
 37 36  1  0  0  0  0
 37 48  1  0  0  0  0
 38 50  1  6  0  0  0
 38 36  1  0  0  0  0
 38 39  1  0  0  0  0
 38 40  1  0  0  0  0
 39 51  1  0  0  0  0
 40 41  1  0  0  0  0
 42 40  2  0  0  0  0
 46 36  1  0  0  0  0
 47 37  1  0  0  0  0
 49 37  1  0  0  0  0
M  END
$$$$
