NKA.pdb
 OpenBabel07022418103D

 47 46  0  0  1  0  0  0  0  0999 V2000
   -0.2880   -3.5920    2.3690 N   0  0  0  0  0  0  0  0  0  0  0  0
   -0.1790   -4.0030    1.0210 C   0  0  0  0  0  0  0  0  0  0  0  0
   -1.0150   -4.8370    0.5750 O   0  0  0  0  0  0  0  0  0  0  0  0
    0.8760   -3.5030    0.0980 C   0  0  0  0  0  0  0  0  0  0  0  0
    1.7260   -2.5360    0.8690 C   0  0  2  0  0  0  0  0  0  0  0  0
    2.3530   -3.1550    2.0170 N   0  0  0  0  0  0  0  0  0  0  0  0
    1.0420   -1.3210    1.2830 C   0  0  0  0  0  0  0  0  0  0  0  0
    1.0700   -0.9750    2.4930 O   0  0  0  0  0  0  0  0  0  0  0  0
    0.3310   -4.0840    3.0610 H   0  0  0  0  0  0  0  0  0  0  0  0
   -0.9310   -2.8490    2.6950 H   0  0  0  0  0  0  0  0  0  0  0  0
    0.3870   -3.0810   -0.7720 H   0  0  0  0  0  0  0  0  0  0  0  0
    1.4600   -4.3830   -0.2340 H   0  0  0  0  0  0  0  0  0  0  0  0
    2.5720   -2.2430    0.1800 H   0  0  0  0  0  0  0  0  0  0  0  0
    2.6300   -2.4110    2.6930 H   0  0  0  0  0  0  0  0  0  0  0  0
    3.2320   -3.6310    1.7130 H   0  0  0  0  0  0  0  0  0  0  0  0
    0.3190   -0.4530    0.4190 N   0  0  0  0  0  0  0  0  0  0  0  0
   -0.3490    0.7510    0.8760 C   0  0  1  0  0  0  0  0  0  0  0  0
    0.0540    1.9620    0.0890 C   0  0  0  0  0  0  0  0  0  0  0  0
    1.4980    2.2960    0.1280 C   0  0  0  0  0  0  0  0  0  0  0  0
    2.0450    2.5800    1.5030 C   0  0  0  0  0  0  0  0  0  0  0  0
    3.5210    2.9110    1.4570 C   0  0  0  0  0  0  0  0  0  0  0  0
    4.3230    1.8550    0.9150 N   0  0  0  0  0  0  0  0  0  0  0  0
   -1.8210    0.5690    0.6770 C   0  0  0  0  0  0  0  0  0  0  0  0
   -2.6470    1.4690    0.9920 O   0  0  0  0  0  0  0  0  0  0  0  0
    0.2960   -0.7430   -0.5930 H   0  0  0  0  0  0  0  0  0  0  0  0
   -0.1870    0.8310    1.9480 H   0  0  0  0  0  0  0  0  0  0  0  0
   -0.2170    1.7670   -0.9730 H   0  0  0  0  0  0  0  0  0  0  0  0
   -0.5400    2.8490    0.3900 H   0  0  0  0  0  0  0  0  0  0  0  0
    1.6660    3.1550   -0.5560 H   0  0  0  0  0  0  0  0  0  0  0  0
    2.1190    1.4660   -0.2930 H   0  0  0  0  0  0  0  0  0  0  0  0
    1.7750    1.8410    2.2510 H   0  0  0  0  0  0  0  0  0  0  0  0
    1.5480    3.5420    1.8350 H   0  0  0  0  0  0  0  0  0  0  0  0
    3.8950    3.1740    2.4510 H   0  0  0  0  0  0  0  0  0  0  0  0
    3.6160    3.7840    0.7570 H   0  0  0  0  0  0  0  0  0  0  0  0
    4.7690    2.0790    0.0180 H   0  0  0  0  0  0  0  0  0  0  0  0
    4.9080    1.3530    1.5910 H   0  0  0  0  0  0  0  0  0  0  0  0
   -4.0300   -1.0130   -1.5410 C   0  0  0  0  0  0  0  0  0  0  0  0
   -3.8220   -0.7740   -0.0600 C   0  0  2  0  0  0  0  0  0  0  0  0
   -2.3730   -0.6230    0.1240 N   0  0  0  0  0  0  0  0  0  0  0  0
   -4.2380   -2.0230    0.6480 C   0  0  0  0  0  0  0  0  0  0  0  0
   -5.4330   -2.4050    0.6590 O   0  0  0  0  0  0  0  0  0  0  0  0
   -3.3160   -2.8180    1.3270 O   0  0  0  0  0  0  0  0  0  0  0  0
   -3.3400   -1.8070   -1.8860 H   0  0  0  0  0  0  0  0  0  0  0  0
   -3.7850   -0.1030   -2.1360 H   0  0  0  0  0  0  0  0  0  0  0  0
   -5.0730   -1.2740   -1.7700 H   0  0  0  0  0  0  0  0  0  0  0  0
   -4.3580    0.1130    0.2750 H   0  0  0  0  0  0  0  0  0  0  0  0
   -1.7400   -1.4020   -0.1560 H   0  0  0  0  0  0  0  0  0  0  0  0
  1 10  1  0  0  0  0
  1  9  1  0  0  0  0
  2  1  1  0  0  0  0
  3  2  2  0  0  0  0
  4  5  1  0  0  0  0
  4  2  1  0  0  0  0
  5 13  1  6  0  0  0
  5  7  1  0  0  0  0
  5  6  1  0  0  0  0
  6 14  1  0  0  0  0
  7  8  2  0  0  0  0
 11  4  1  0  0  0  0
 12  4  1  0  0  0  0
 15  6  1  0  0  0  0
 16 17  1  0  0  0  0
 16  7  1  0  0  0  0
 17 26  1  1  0  0  0
 18 19  1  0  0  0  0
 18 28  1  0  0  0  0
 18 17  1  0  0  0  0
 19 20  1  0  0  0  0
 20 32  1  0  0  0  0
 20 31  1  0  0  0  0
 21 20  1  0  0  0  0
 21 33  1  0  0  0  0
 22 21  1  0  0  0  0
 22 36  1  0  0  0  0
 23 17  1  0  0  0  0
 23 24  2  0  0  0  0
 25 16  1  0  0  0  0
 27 18  1  0  0  0  0
 29 19  1  0  0  0  0
 30 19  1  0  0  0  0
 34 21  1  0  0  0  0
 35 22  1  0  0  0  0
 37 38  1  0  0  0  0
 38 39  1  0  0  0  0
 38 46  1  1  0  0  0
 38 40  1  0  0  0  0
 39 23  1  0  0  0  0
 40 41  2  0  0  0  0
 40 42  1  0  0  0  0
 43 37  1  0  0  0  0
 44 37  1  0  0  0  0
 45 37  1  0  0  0  0
 47 39  1  0  0  0  0
M  END
$$$$
