NKC.pdb
 OpenBabel07022418103D

 48 47  0  0  1  0  0  0  0  0999 V2000
   -3.9860   -1.3100    4.7660 N   0  0  0  0  0  0  0  0  0  0  0  0
   -3.0940   -0.4030    4.1460 C   0  0  0  0  0  0  0  0  0  0  0  0
   -3.2710    0.8310    4.2920 O   0  0  0  0  0  0  0  0  0  0  0  0
   -1.9650   -0.8960    3.3350 C   0  0  0  0  0  0  0  0  0  0  0  0
   -1.1690    0.2710    2.7880 C   0  0  2  0  0  0  0  0  0  0  0  0
   -2.0490    1.0640    1.9720 N   0  0  0  0  0  0  0  0  0  0  0  0
   -0.0200   -0.2820    1.9780 C   0  0  0  0  0  0  0  0  0  0  0  0
    0.7810   -0.9760    2.6050 O   0  0  0  0  0  0  0  0  0  0  0  0
   -4.5620   -1.0410    5.5840 H   0  0  0  0  0  0  0  0  0  0  0  0
   -4.0660   -2.2730    4.3900 H   0  0  0  0  0  0  0  0  0  0  0  0
   -2.3130   -1.5380    2.4860 H   0  0  0  0  0  0  0  0  0  0  0  0
   -1.2850   -1.5080    3.9610 H   0  0  0  0  0  0  0  0  0  0  0  0
   -0.7850    0.8330    3.6530 H   0  0  0  0  0  0  0  0  0  0  0  0
   -2.4690    0.4490    1.2340 H   0  0  0  0  0  0  0  0  0  0  0  0
   -1.6420    1.9350    1.6150 H   0  0  0  0  0  0  0  0  0  0  0  0
    0.0760    0.0050    0.6190 N   0  0  0  0  0  0  0  0  0  0  0  0
    1.0800   -0.4030   -0.2900 C   0  0  1  0  0  0  0  0  0  0  0  0
    2.3880   -0.8430    0.3250 C   0  0  0  0  0  0  0  0  0  0  0  0
    3.1380    0.1750    1.0860 C   0  0  0  0  0  0  0  0  0  0  0  0
    3.5600    1.3870    0.2650 C   0  0  0  0  0  0  0  0  0  0  0  0
    4.3240    2.3270    1.1750 C   0  0  0  0  0  0  0  0  0  0  0  0
    3.5660    2.7890    2.2880 N   0  0  0  0  0  0  0  0  0  0  0  0
    0.5570   -1.3220   -1.3160 C   0  0  0  0  0  0  0  0  0  0  0  0
    1.3110   -1.8030   -2.2290 O   0  0  0  0  0  0  0  0  0  0  0  0
   -0.7050    0.6090    0.2120 H   0  0  0  0  0  0  0  0  0  0  0  0
    1.4410    0.5350   -0.8920 H   0  0  0  0  0  0  0  0  0  0  0  0
    3.0630   -1.2290   -0.5000 H   0  0  0  0  0  0  0  0  0  0  0  0
    2.1980   -1.7240    0.9620 H   0  0  0  0  0  0  0  0  0  0  0  0
    4.1160   -0.3230    1.3890 H   0  0  0  0  0  0  0  0  0  0  0  0
    2.7330    0.5580    2.0150 H   0  0  0  0  0  0  0  0  0  0  0  0
    4.2650    1.0530   -0.5210 H   0  0  0  0  0  0  0  0  0  0  0  0
    2.7270    1.9000   -0.2280 H   0  0  0  0  0  0  0  0  0  0  0  0
    4.7230    3.1980    0.6230 H   0  0  0  0  0  0  0  0  0  0  0  0
    5.2050    1.7660    1.5730 H   0  0  0  0  0  0  0  0  0  0  0  0
    3.9380    2.5090    3.2080 H   0  0  0  0  0  0  0  0  0  0  0  0
    2.5550    2.6560    2.2400 H   0  0  0  0  0  0  0  0  0  0  0  0
   -0.7980   -1.7400   -1.3730 N   0  0  0  0  0  0  0  0  0  0  0  0
   -1.2930   -2.6570   -2.4080 C   0  0  1  0  0  0  0  0  0  0  0  0
   -1.7170   -3.9300   -1.6880 C   0  0  0  0  0  0  0  0  0  0  0  0
   -0.3310   -4.6710   -0.8110 S   0  0  0  0  0  0  0  0  0  0  0  0
   -2.4700   -2.1260   -3.0950 C   0  0  0  0  0  0  0  0  0  0  0  0
   -2.9380   -1.0150   -2.7790 O   0  0  0  0  0  0  0  0  0  0  0  0
   -3.0700   -2.8500   -4.0980 O   0  0  0  0  0  0  0  0  0  0  0  0
   -1.4530   -1.3740   -0.6490 H   0  0  0  0  0  0  0  0  0  0  0  0
   -0.4740   -2.9510   -3.0950 H   0  0  0  0  0  0  0  0  0  0  0  0
   -2.0700   -4.6830   -2.4470 H   0  0  0  0  0  0  0  0  0  0  0  0
   -2.6010   -3.7480   -1.0320 H   0  0  0  0  0  0  0  0  0  0  0  0
   -0.7010   -4.7750    0.5590 H   0  0  0  0  0  0  0  0  0  0  0  0
  1  9  1  0  0  0  0
  2  3  2  0  0  0  0
  2  1  1  0  0  0  0
  4 12  1  0  0  0  0
  4  2  1  0  0  0  0
  5  4  1  0  0  0  0
  5 13  1  1  0  0  0
  6  5  1  0  0  0  0
  7  8  2  0  0  0  0
  7  5  1  0  0  0  0
 10  1  1  0  0  0  0
 11  4  1  0  0  0  0
 14  6  1  0  0  0  0
 15  6  1  0  0  0  0
 16  7  1  0  0  0  0
 17 26  1  6  0  0  0
 17 18  1  0  0  0  0
 17 16  1  0  0  0  0
 18 28  1  0  0  0  0
 18 19  1  0  0  0  0
 19 29  1  0  0  0  0
 19 30  1  0  0  0  0
 20 19  1  0  0  0  0
 20 21  1  0  0  0  0
 21 34  1  0  0  0  0
 21 22  1  0  0  0  0
 22 35  1  0  0  0  0
 23 17  1  0  0  0  0
 24 23  2  0  0  0  0
 25 16  1  0  0  0  0
 27 18  1  0  0  0  0
 31 20  1  0  0  0  0
 32 20  1  0  0  0  0
 33 21  1  0  0  0  0
 36 22  1  0  0  0  0
 37 23  1  0  0  0  0
 37 44  1  0  0  0  0
 38 45  1  6  0  0  0
 38 39  1  0  0  0  0
 38 37  1  0  0  0  0
 39 47  1  0  0  0  0
 39 40  1  0  0  0  0
 40 48  1  0  0  0  0
 41 42  1  0  0  0  0
 41 38  1  0  0  0  0
 43 41  2  0  0  0  0
 46 39  1  0  0  0  0
M  END
$$$$
