NKE.pdb
 OpenBabel07022418103D

 53 52  0  0  1  0  0  0  0  0999 V2000
    2.4600   -3.1160    6.7590 N   0  0  0  0  0  0  0  0  0  0  0  0
    1.8080   -3.3330    5.5080 C   0  0  0  0  0  0  0  0  0  0  0  0
    1.7020   -4.5150    5.1040 O   0  0  0  0  0  0  0  0  0  0  0  0
    1.2960   -2.1550    4.7610 C   0  0  0  0  0  0  0  0  0  0  0  0
    0.6620   -2.6730    3.4890 C   0  0  2  0  0  0  0  0  0  0  0  0
    1.6800   -3.3620    2.7530 N   0  0  0  0  0  0  0  0  0  0  0  0
    0.0010   -1.6040    2.7140 C   0  0  0  0  0  0  0  0  0  0  0  0
   -0.9040   -0.9400    3.2340 O   0  0  0  0  0  0  0  0  0  0  0  0
    3.2460   -2.4070    6.8020 H   0  0  0  0  0  0  0  0  0  0  0  0
    2.2200   -3.6040    7.6340 H   0  0  0  0  0  0  0  0  0  0  0  0
    0.5800   -1.6250    5.4200 H   0  0  0  0  0  0  0  0  0  0  0  0
    2.1800   -1.5050    4.5170 H   0  0  0  0  0  0  0  0  0  0  0  0
   -0.1180   -3.4030    3.7840 H   0  0  0  0  0  0  0  0  0  0  0  0
    2.4130   -2.6800    2.4200 H   0  0  0  0  0  0  0  0  0  0  0  0
    1.2580   -3.8790    1.9740 H   0  0  0  0  0  0  0  0  0  0  0  0
    0.3330   -1.2700    1.3830 N   0  0  0  0  0  0  0  0  0  0  0  0
   -0.2560   -0.2600    0.5830 C   0  0  1  0  0  0  0  0  0  0  0  0
    0.6200    0.8900    0.2040 C   0  0  0  0  0  0  0  0  0  0  0  0
    1.8280    0.5340   -0.5750 C   0  0  0  0  0  0  0  0  0  0  0  0
    2.7180    1.6670   -0.9900 C   0  0  0  0  0  0  0  0  0  0  0  0
    3.3000    2.4640    0.1470 C   0  0  0  0  0  0  0  0  0  0  0  0
    2.3460    3.1180    0.9870 N   0  0  0  0  0  0  0  0  0  0  0  0
   -0.9440   -0.8800   -0.5650 C   0  0  0  0  0  0  0  0  0  0  0  0
   -0.9200   -2.1240   -0.6900 O   0  0  0  0  0  0  0  0  0  0  0  0
    1.1060   -1.8380    0.9410 H   0  0  0  0  0  0  0  0  0  0  0  0
   -1.0670    0.1990    1.2320 H   0  0  0  0  0  0  0  0  0  0  0  0
    0.8140    1.4390    1.1380 H   0  0  0  0  0  0  0  0  0  0  0  0
    0.0070    1.5730   -0.4220 H   0  0  0  0  0  0  0  0  0  0  0  0
    2.5200   -0.1650   -0.0050 H   0  0  0  0  0  0  0  0  0  0  0  0
    1.6120   -0.0390   -1.5030 H   0  0  0  0  0  0  0  0  0  0  0  0
    2.2300    2.3340   -1.7380 H   0  0  0  0  0  0  0  0  0  0  0  0
    3.6020    1.2230   -1.5460 H   0  0  0  0  0  0  0  0  0  0  0  0
    4.0140    1.8470    0.7560 H   0  0  0  0  0  0  0  0  0  0  0  0
    3.9620    3.2860   -0.2600 H   0  0  0  0  0  0  0  0  0  0  0  0
    2.5470    3.0850    1.9960 H   0  0  0  0  0  0  0  0  0  0  0  0
    1.9940    4.0180    0.6290 H   0  0  0  0  0  0  0  0  0  0  0  0
   -1.6460   -0.1570   -1.5620 N   0  0  0  0  0  0  0  0  0  0  0  0
   -2.3180   -0.7640   -2.6870 C   0  0  1  0  0  0  0  0  0  0  0  0
   -3.7770   -0.4780   -2.7260 C   0  0  0  0  0  0  0  0  0  0  0  0
   -4.4690   -0.9750   -1.5130 C   0  0  0  0  0  0  0  0  0  0  0  0
   -4.4080   -2.4340   -1.3120 C   0  0  0  0  0  0  0  0  0  0  0  0
   -3.8760   -3.2030   -2.1370 O   0  0  0  0  0  0  0  0  0  0  0  0
   -1.7130   -0.3640   -3.9820 C   0  0  0  0  0  0  0  0  0  0  0  0
   -2.2230   -0.8330   -5.0230 O   0  0  0  0  0  0  0  0  0  0  0  0
   -4.9570   -3.0290   -0.1600 O   0  0  0  0  0  0  0  0  0  0  0  0
   -0.6340    0.4850   -4.1090 O   0  0  0  0  0  0  0  0  0  0  0  0
   -1.6760    0.8840   -1.4700 H   0  0  0  0  0  0  0  0  0  0  0  0
   -2.1490   -1.8500   -2.6040 H   0  0  0  0  0  0  0  0  0  0  0  0
   -4.0020    0.5880   -2.9410 H   0  0  0  0  0  0  0  0  0  0  0  0
   -4.1920   -1.0300   -3.6160 H   0  0  0  0  0  0  0  0  0  0  0  0
   -4.0960   -0.4830   -0.5740 H   0  0  0  0  0  0  0  0  0  0  0  0
   -5.5430   -0.6470   -1.5990 H   0  0  0  0  0  0  0  0  0  0  0  0
   -5.3030   -3.9880   -0.2720 H   0  0  0  0  0  0  0  0  0  0  0  0
  1  9  1  0  0  0  0
  1 10  1  0  0  0  0
  2  1  1  0  0  0  0
  3  2  2  0  0  0  0
  4 11  1  0  0  0  0
  4  2  1  0  0  0  0
  5 13  1  1  0  0  0
  5  4  1  0  0  0  0
  6  5  1  0  0  0  0
  7  8  2  0  0  0  0
  7  5  1  0  0  0  0
 12  4  1  0  0  0  0
 14  6  1  0  0  0  0
 15  6  1  0  0  0  0
 16  7  1  0  0  0  0
 17 26  1  1  0  0  0
 17 16  1  0  0  0  0
 18 17  1  0  0  0  0
 18 27  1  0  0  0  0
 19 29  1  0  0  0  0
 19 18  1  0  0  0  0
 20 19  1  0  0  0  0
 20 21  1  0  0  0  0
 21 33  1  0  0  0  0
 21 22  1  0  0  0  0
 22 35  1  0  0  0  0
 23 17  1  0  0  0  0
 24 23  2  0  0  0  0
 25 16  1  0  0  0  0
 28 18  1  0  0  0  0
 30 19  1  0  0  0  0
 31 20  1  0  0  0  0
 32 20  1  0  0  0  0
 34 21  1  0  0  0  0
 36 22  1  0  0  0  0
 37 47  1  0  0  0  0
 37 23  1  0  0  0  0
 38 48  1  1  0  0  0
 38 37  1  0  0  0  0
 39 38  1  0  0  0  0
 39 40  1  0  0  0  0
 40 41  1  0  0  0  0
 40 51  1  0  0  0  0
 41 45  1  0  0  0  0
 42 41  2  0  0  0  0
 43 38  1  0  0  0  0
 44 43  2  0  0  0  0
 46 43  1  0  0  0  0
 49 39  1  0  0  0  0
 50 39  1  0  0  0  0
 52 40  1  0  0  0  0
 53 45  1  0  0  0  0
M  END
$$$$
