NKF.pdb
 OpenBabel07022418103D

 57 57  0  0  1  0  0  0  0  0999 V2000
   -2.5060   -2.6380    3.5890 N   0  0  0  0  0  0  0  0  0  0  0  0
   -1.6840   -1.4980    3.7010 C   0  0  0  0  0  0  0  0  0  0  0  0
   -2.1850   -0.3660    3.5490 O   0  0  0  0  0  0  0  0  0  0  0  0
   -0.2420   -1.6460    3.9970 C   0  0  0  0  0  0  0  0  0  0  0  0
    0.4400   -0.2780    4.0890 C   0  0  2  0  0  0  0  0  0  0  0  0
   -0.2350    0.4190    5.1640 N   0  0  0  0  0  0  0  0  0  0  0  0
    0.2790    0.4850    2.8480 C   0  0  0  0  0  0  0  0  0  0  0  0
   -0.3770    1.5580    2.8540 O   0  0  0  0  0  0  0  0  0  0  0  0
   -2.1370   -3.6220    3.6970 H   0  0  0  0  0  0  0  0  0  0  0  0
   -3.5240   -2.5560    3.3920 H   0  0  0  0  0  0  0  0  0  0  0  0
    0.2900   -2.2920    3.2680 H   0  0  0  0  0  0  0  0  0  0  0  0
   -0.1450   -2.1750    4.9790 H   0  0  0  0  0  0  0  0  0  0  0  0
    1.4940   -0.4580    4.3730 H   0  0  0  0  0  0  0  0  0  0  0  0
   -0.2010    1.4420    5.0950 H   0  0  0  0  0  0  0  0  0  0  0  0
   -0.0410    0.0140    6.0880 H   0  0  0  0  0  0  0  0  0  0  0  0
    0.8300    0.0840    1.5970 N   0  0  0  0  0  0  0  0  0  0  0  0
    0.6200    0.9100    0.4160 C   0  0  1  0  0  0  0  0  0  0  0  0
    1.9460    1.3160   -0.1920 C   0  0  0  0  0  0  0  0  0  0  0  0
    2.8260    2.1040    0.7130 C   0  0  0  0  0  0  0  0  0  0  0  0
    2.2540    3.4120    1.1790 C   0  0  0  0  0  0  0  0  0  0  0  0
    3.2880    4.0730    2.0940 C   0  0  0  0  0  0  0  0  0  0  0  0
    2.7820    5.3640    2.5790 N   0  0  0  0  0  0  0  0  0  0  0  0
   -0.0920    0.1170   -0.6280 C   0  0  0  0  0  0  0  0  0  0  0  0
   -0.3980    0.6550   -1.7230 O   0  0  0  0  0  0  0  0  0  0  0  0
    1.3720   -0.7830    1.5350 H   0  0  0  0  0  0  0  0  0  0  0  0
    0.0710    1.8340    0.6740 H   0  0  0  0  0  0  0  0  0  0  0  0
    2.5000    0.3580   -0.4240 H   0  0  0  0  0  0  0  0  0  0  0  0
    1.8070    1.8190   -1.1740 H   0  0  0  0  0  0  0  0  0  0  0  0
    3.7950    2.2790    0.2110 H   0  0  0  0  0  0  0  0  0  0  0  0
    3.0750    1.4410    1.5890 H   0  0  0  0  0  0  0  0  0  0  0  0
    1.2680    3.3620    1.6340 H   0  0  0  0  0  0  0  0  0  0  0  0
    2.1840    4.1060    0.2950 H   0  0  0  0  0  0  0  0  0  0  0  0
    4.2000    4.2740    1.4920 H   0  0  0  0  0  0  0  0  0  0  0  0
    3.5770    3.4220    2.9260 H   0  0  0  0  0  0  0  0  0  0  0  0
    2.4730    5.9640    1.8080 H   0  0  0  0  0  0  0  0  0  0  0  0
    1.9660    5.1470    3.1850 H   0  0  0  0  0  0  0  0  0  0  0  0
   -0.4520   -1.2430   -0.4510 N   0  0  0  0  0  0  0  0  0  0  0  0
   -1.1540   -2.0010   -1.4990 C   0  0  1  0  0  0  0  0  0  0  0  0
   -0.2510   -3.0860   -2.0400 C   0  0  0  0  0  0  0  0  0  0  0  0
   -0.9740   -3.8390   -3.0880 C   0  0  0  0  0  0  0  0  0  0  0  0
   -1.6850   -5.0130   -2.8280 C   0  0  0  0  0  0  0  0  0  0  0  0
   -2.3640   -5.7060   -3.8070 C   0  0  0  0  0  0  0  0  0  0  0  0
   -2.3520   -5.2390   -5.1030 C   0  0  0  0  0  0  0  0  0  0  0  0
   -1.6480   -4.0810   -5.3530 C   0  0  0  0  0  0  0  0  0  0  0  0
   -0.9640   -3.3710   -4.3990 C   0  0  0  0  0  0  0  0  0  0  0  0
   -2.4020   -2.5060   -0.9220 C   0  0  0  0  0  0  0  0  0  0  0  0
   -3.2390   -3.1490   -1.5920 O   0  0  0  0  0  0  0  0  0  0  0  0
   -2.6960   -2.2810    0.4060 O   0  0  0  0  0  0  0  0  0  0  0  0
   -0.2080   -1.7110    0.4490 H   0  0  0  0  0  0  0  0  0  0  0  0
   -1.3390   -1.2540   -2.3210 H   0  0  0  0  0  0  0  0  0  0  0  0
    0.7000   -2.6440   -2.4460 H   0  0  0  0  0  0  0  0  0  0  0  0
    0.0700   -3.7940   -1.2600 H   0  0  0  0  0  0  0  0  0  0  0  0
   -1.6740   -5.3650   -1.7920 H   0  0  0  0  0  0  0  0  0  0  0  0
   -2.9000   -6.6080   -3.5570 H   0  0  0  0  0  0  0  0  0  0  0  0
   -2.8740   -5.7510   -5.9180 H   0  0  0  0  0  0  0  0  0  0  0  0
   -1.6530   -3.7340   -6.3810 H   0  0  0  0  0  0  0  0  0  0  0  0
   -0.4120   -2.4550   -4.6130 H   0  0  0  0  0  0  0  0  0  0  0  0
  1  9  1  0  0  0  0
  1  2  1  0  0  0  0
  2  4  1  0  0  0  0
  3  2  2  0  0  0  0
  4  5  1  0  0  0  0
  4 12  1  0  0  0  0
  5 13  1  1  0  0  0
  5  6  1  0  0  0  0
  6 15  1  0  0  0  0
  7  8  2  0  0  0  0
  7  5  1  0  0  0  0
 10  1  1  0  0  0  0
 11  4  1  0  0  0  0
 14  6  1  0  0  0  0
 16  7  1  0  0  0  0
 17 26  1  1  0  0  0
 17 16  1  0  0  0  0
 18 17  1  0  0  0  0
 18 19  1  0  0  0  0
 19 20  1  0  0  0  0
 19 30  1  0  0  0  0
 20 31  1  0  0  0  0
 20 21  1  0  0  0  0
 21 22  1  0  0  0  0
 21 34  1  0  0  0  0
 22 36  1  0  0  0  0
 23 37  1  0  0  0  0
 23 17  1  0  0  0  0
 24 23  2  0  0  0  0
 25 16  1  0  0  0  0
 27 18  1  0  0  0  0
 28 18  1  0  0  0  0
 29 19  1  0  0  0  0
 32 20  1  0  0  0  0
 33 21  1  0  0  0  0
 35 22  1  0  0  0  0
 37 49  1  0  0  0  0
 38 50  1  6  0  0  0
 38 46  1  0  0  0  0
 38 37  1  0  0  0  0
 39 38  1  0  0  0  0
 39 52  1  0  0  0  0
 40 41  1  0  0  0  0
 40 39  1  0  0  0  0
 41 53  1  0  0  0  0
 42 54  1  0  0  0  0
 42 41  2  0  0  0  0
 43 42  1  0  0  0  0
 44 43  2  0  0  0  0
 44 45  1  0  0  0  0
 45 40  2  0  0  0  0
 46 48  1  0  0  0  0
 47 46  2  0  0  0  0
 51 39  1  0  0  0  0
 55 43  1  0  0  0  0
 56 44  1  0  0  0  0
 57 45  1  0  0  0  0
M  END
$$$$
