NKH.pdb
 OpenBabel07022418103D

 54 54  0  0  1  0  0  0  0  0999 V2000
    0.5490   -3.6480    2.8340 N   0  0  0  0  0  0  0  0  0  0  0  0
    1.1590   -2.9580    3.9160 C   0  0  0  0  0  0  0  0  0  0  0  0
    0.6870   -3.1750    5.0720 O   0  0  0  0  0  0  0  0  0  0  0  0
    2.2820   -2.0260    3.7970 C   0  0  0  0  0  0  0  0  0  0  0  0
    1.8520   -0.5680    3.9910 C   0  0  2  0  0  0  0  0  0  0  0  0
    1.2840   -0.4230    5.2890 N   0  0  0  0  0  0  0  0  0  0  0  0
    0.9020   -0.2550    2.8940 C   0  0  0  0  0  0  0  0  0  0  0  0
   -0.2660    0.0890    3.1990 O   0  0  0  0  0  0  0  0  0  0  0  0
   -0.4670   -3.4910    2.6650 H   0  0  0  0  0  0  0  0  0  0  0  0
    1.0430   -4.3000    2.1940 H   0  0  0  0  0  0  0  0  0  0  0  0
    2.7560   -2.1820    2.8110 H   0  0  0  0  0  0  0  0  0  0  0  0
    3.0640   -2.2280    4.5750 H   0  0  0  0  0  0  0  0  0  0  0  0
    2.7850    0.0200    3.9490 H   0  0  0  0  0  0  0  0  0  0  0  0
    0.3170   -0.7420    5.4040 H   0  0  0  0  0  0  0  0  0  0  0  0
    1.9580   -0.8130    5.9810 H   0  0  0  0  0  0  0  0  0  0  0  0
    1.2250   -0.3190    1.5270 N   0  0  0  0  0  0  0  0  0  0  0  0
    0.3180   -0.0190    0.4400 C   0  0  1  0  0  0  0  0  0  0  0  0
    0.8060    1.1430   -0.3990 C   0  0  0  0  0  0  0  0  0  0  0  0
    0.9100    2.3460    0.5180 C   0  0  0  0  0  0  0  0  0  0  0  0
    1.3880    3.5710   -0.2220 C   0  0  0  0  0  0  0  0  0  0  0  0
    0.4410    3.9450   -1.3470 C   0  0  0  0  0  0  0  0  0  0  0  0
   -0.8820    4.2310   -0.8680 N   0  0  0  0  0  0  0  0  0  0  0  0
    0.1530   -1.2530   -0.3550 C   0  0  0  0  0  0  0  0  0  0  0  0
    0.7780   -2.3050   -0.0050 O   0  0  0  0  0  0  0  0  0  0  0  0
    2.1940   -0.6050    1.2670 H   0  0  0  0  0  0  0  0  0  0  0  0
   -0.6940    0.2780    0.8200 H   0  0  0  0  0  0  0  0  0  0  0  0
    1.7670    0.9000   -0.8740 H   0  0  0  0  0  0  0  0  0  0  0  0
    0.0080    1.3790   -1.1320 H   0  0  0  0  0  0  0  0  0  0  0  0
    1.6300    2.1070    1.3080 H   0  0  0  0  0  0  0  0  0  0  0  0
   -0.1120    2.5810    0.8870 H   0  0  0  0  0  0  0  0  0  0  0  0
    1.3790    4.4150    0.4970 H   0  0  0  0  0  0  0  0  0  0  0  0
    2.4280    3.4840   -0.5870 H   0  0  0  0  0  0  0  0  0  0  0  0
    0.4590    3.1260   -2.1060 H   0  0  0  0  0  0  0  0  0  0  0  0
    0.8030    4.8500   -1.8740 H   0  0  0  0  0  0  0  0  0  0  0  0
   -1.2040    5.2080   -1.1120 H   0  0  0  0  0  0  0  0  0  0  0  0
   -1.5400    3.5900   -1.3830 H   0  0  0  0  0  0  0  0  0  0  0  0
   -0.6600   -1.3570   -1.4950 N   0  0  0  0  0  0  0  0  0  0  0  0
   -0.7620   -2.6060   -2.2130 C   0  0  1  0  0  0  0  0  0  0  0  0
   -2.2140   -3.0900   -2.2440 C   0  0  0  0  0  0  0  0  0  0  0  0
   -2.7130   -3.2910   -0.8620 C   0  0  0  0  0  0  0  0  0  0  0  0
   -3.3430   -2.3190   -0.0930 C   0  0  0  0  0  0  0  0  0  0  0  0
   -3.6650   -2.8280    1.1020 N   0  0  0  0  0  0  0  0  0  0  0  0
   -3.2480   -4.1040    1.0940 C   0  0  0  0  0  0  0  0  0  0  0  0
   -2.6730   -4.3890   -0.0880 N   0  0  0  0  0  0  0  0  0  0  0  0
   -0.2550   -2.4350   -3.5910 C   0  0  0  0  0  0  0  0  0  0  0  0
   -0.2590   -3.4130   -4.3720 O   0  0  0  0  0  0  0  0  0  0  0  0
    0.2270   -1.2210   -4.0500 O   0  0  0  0  0  0  0  0  0  0  0  0
   -1.1800   -0.5040   -1.7920 H   0  0  0  0  0  0  0  0  0  0  0  0
   -0.1360   -3.3550   -1.6930 H   0  0  0  0  0  0  0  0  0  0  0  0
   -2.8240   -2.3720   -2.8240 H   0  0  0  0  0  0  0  0  0  0  0  0
   -2.1810   -4.0650   -2.7880 H   0  0  0  0  0  0  0  0  0  0  0  0
   -3.5200   -1.3130   -0.4600 H   0  0  0  0  0  0  0  0  0  0  0  0
   -4.1430   -2.3330    1.8800 H   0  0  0  0  0  0  0  0  0  0  0  0
   -3.3890   -4.7650    1.9630 H   0  0  0  0  0  0  0  0  0  0  0  0
  1  2  1  0  0  0  0
  2  3  2  0  0  0  0
  4  2  1  0  0  0  0
  4  5  1  0  0  0  0
  4 12  1  0  0  0  0
  5 13  1  6  0  0  0
  5  6  1  0  0  0  0
  6 14  1  0  0  0  0
  6 15  1  0  0  0  0
  7  8  2  0  0  0  0
  7  5  1  0  0  0  0
  9  1  1  0  0  0  0
 10  1  1  0  0  0  0
 11  4  1  0  0  0  0
 16  7  1  0  0  0  0
 17 26  1  1  0  0  0
 17 16  1  0  0  0  0
 18 17  1  0  0  0  0
 18 19  1  0  0  0  0
 19 30  1  0  0  0  0
 19 29  1  0  0  0  0
 20 31  1  0  0  0  0
 20 19  1  0  0  0  0
 21 22  1  0  0  0  0
 21 20  1  0  0  0  0
 23 24  2  0  0  0  0
 23 17  1  0  0  0  0
 25 16  1  0  0  0  0
 27 18  1  0  0  0  0
 28 18  1  0  0  0  0
 32 20  1  0  0  0  0
 33 21  1  0  0  0  0
 34 21  1  0  0  0  0
 35 22  1  0  0  0  0
 36 22  1  0  0  0  0
 37 23  1  0  0  0  0
 38 49  1  1  0  0  0
 38 37  1  0  0  0  0
 39 38  1  0  0  0  0
 39 40  1  0  0  0  0
 40 41  2  0  0  0  0
 40 44  1  0  0  0  0
 41 42  1  0  0  0  0
 42 53  1  0  0  0  0
 43 42  1  0  0  0  0
 43 54  1  0  0  0  0
 44 43  2  0  0  0  0
 45 38  1  0  0  0  0
 46 45  2  0  0  0  0
 47 45  1  0  0  0  0
 48 37  1  0  0  0  0
 50 39  1  0  0  0  0
 51 39  1  0  0  0  0
 52 41  1  0  0  0  0
M  END
$$$$
