NKN.pdb
 OpenBabel07022418103D

 51 50  0  0  1  0  0  0  0  0999 V2000
    1.3550   -5.7960    2.5980 N   0  0  0  0  0  0  0  0  0  0  0  0
    1.2900   -4.4380    2.2270 C   0  0  0  0  0  0  0  0  0  0  0  0
    0.3460   -3.7310    2.6300 O   0  0  0  0  0  0  0  0  0  0  0  0
    2.3320   -3.8530    1.3690 C   0  0  0  0  0  0  0  0  0  0  0  0
    2.9490   -2.6170    2.0100 C   0  0  2  0  0  0  0  0  0  0  0  0
    3.5320   -3.0420    3.2720 N   0  0  0  0  0  0  0  0  0  0  0  0
    1.9890   -1.5400    2.2660 C   0  0  0  0  0  0  0  0  0  0  0  0
    1.6680   -1.1710    3.4490 O   0  0  0  0  0  0  0  0  0  0  0  0
    1.5180   -6.5510    1.8650 H   0  0  0  0  0  0  0  0  0  0  0  0
    1.2480   -6.1270    3.5950 H   0  0  0  0  0  0  0  0  0  0  0  0
    1.9530   -3.6030    0.3580 H   0  0  0  0  0  0  0  0  0  0  0  0
    3.1490   -4.5900    1.2510 H   0  0  0  0  0  0  0  0  0  0  0  0
    3.7990   -2.3300    1.3450 H   0  0  0  0  0  0  0  0  0  0  0  0
    2.9720   -2.6620    4.0450 H   0  0  0  0  0  0  0  0  0  0  0  0
    4.5070   -2.6860    3.3720 H   0  0  0  0  0  0  0  0  0  0  0  0
    1.3330   -0.8090    1.2320 N   0  0  0  0  0  0  0  0  0  0  0  0
    0.3900    0.2540    1.5160 C   0  0  1  0  0  0  0  0  0  0  0  0
    0.9100    1.5920    1.1300 C   0  0  0  0  0  0  0  0  0  0  0  0
   -0.0230    2.7410    1.4080 C   0  0  0  0  0  0  0  0  0  0  0  0
    0.6850    4.0360    1.0000 C   0  0  0  0  0  0  0  0  0  0  0  0
   -0.1810    5.2450    1.2460 C   0  0  0  0  0  0  0  0  0  0  0  0
   -1.4190    5.2050    0.5030 N   0  0  0  0  0  0  0  0  0  0  0  0
   -0.8570   -0.0440    0.8010 C   0  0  0  0  0  0  0  0  0  0  0  0
   -1.8800    0.6990    0.8130 O   0  0  0  0  0  0  0  0  0  0  0  0
    1.5330   -1.0320    0.2370 H   0  0  0  0  0  0  0  0  0  0  0  0
    0.2210    0.3070    2.6370 H   0  0  0  0  0  0  0  0  0  0  0  0
    1.0600    1.6030    0.0060 H   0  0  0  0  0  0  0  0  0  0  0  0
    1.9410    1.7900    1.5100 H   0  0  0  0  0  0  0  0  0  0  0  0
   -0.9180    2.7220    0.7120 H   0  0  0  0  0  0  0  0  0  0  0  0
   -0.4290    2.7710    2.4190 H   0  0  0  0  0  0  0  0  0  0  0  0
    0.9060    3.9730   -0.0810 H   0  0  0  0  0  0  0  0  0  0  0  0
    1.6160    4.1730    1.6100 H   0  0  0  0  0  0  0  0  0  0  0  0
    0.3960    6.1300    0.9220 H   0  0  0  0  0  0  0  0  0  0  0  0
   -0.3880    5.3400    2.3360 H   0  0  0  0  0  0  0  0  0  0  0  0
   -1.2900    5.5530   -0.4800 H   0  0  0  0  0  0  0  0  0  0  0  0
   -2.2190    5.6370    0.9990 H   0  0  0  0  0  0  0  0  0  0  0  0
   -2.3790   -2.5060   -4.4080 N   0  0  0  0  0  0  0  0  0  0  0  0
   -2.7470   -2.1690   -3.0810 C   0  0  0  0  0  0  0  0  0  0  0  0
   -3.9540   -2.1680   -2.7790 O   0  0  0  0  0  0  0  0  0  0  0  0
   -1.7190   -1.8350   -2.1150 C   0  0  0  0  0  0  0  0  0  0  0  0
   -2.1930   -1.5720   -0.7050 C   0  0  2  0  0  0  0  0  0  0  0  0
   -0.9560   -1.2390    0.0370 N   0  0  0  0  0  0  0  0  0  0  0  0
   -2.7870   -2.7980   -0.0760 C   0  0  0  0  0  0  0  0  0  0  0  0
   -2.1970   -3.3530    0.8970 O   0  0  0  0  0  0  0  0  0  0  0  0
   -3.9660   -3.3750   -0.4980 O   0  0  0  0  0  0  0  0  0  0  0  0
   -2.9050   -3.1820   -4.9960 H   0  0  0  0  0  0  0  0  0  0  0  0
   -1.5260   -2.0640   -4.8690 H   0  0  0  0  0  0  0  0  0  0  0  0
   -1.0690   -0.9820   -2.4100 H   0  0  0  0  0  0  0  0  0  0  0  0
   -1.0310   -2.7280   -2.0290 H   0  0  0  0  0  0  0  0  0  0  0  0
   -2.8620   -0.7220   -0.5910 H   0  0  0  0  0  0  0  0  0  0  0  0
   -0.2080   -1.9540   -0.0600 H   0  0  0  0  0  0  0  0  0  0  0  0
  1 10  1  0  0  0  0
  2  1  1  0  0  0  0
  2  3  2  0  0  0  0
  4  5  1  0  0  0  0
  4  2  1  0  0  0  0
  5 13  1  6  0  0  0
  5  7  1  0  0  0  0
  5  6  1  0  0  0  0
  6 15  1  0  0  0  0
  6 14  1  0  0  0  0
  7  8  2  0  0  0  0
  9  1  1  0  0  0  0
 11  4  1  0  0  0  0
 12  4  1  0  0  0  0
 16 17  1  0  0  0  0
 16  7  1  0  0  0  0
 17 26  1  1  0  0  0
 18 19  1  0  0  0  0
 18 28  1  0  0  0  0
 18 17  1  0  0  0  0
 19 30  1  0  0  0  0
 20 21  1  0  0  0  0
 20 19  1  0  0  0  0
 20 32  1  0  0  0  0
 21 34  1  0  0  0  0
 22 36  1  0  0  0  0
 22 21  1  0  0  0  0
 23 24  2  0  0  0  0
 23 17  1  0  0  0  0
 25 16  1  0  0  0  0
 27 18  1  0  0  0  0
 29 19  1  0  0  0  0
 31 20  1  0  0  0  0
 33 21  1  0  0  0  0
 35 22  1  0  0  0  0
 37 38  1  0  0  0  0
 38 39  2  0  0  0  0
 38 40  1  0  0  0  0
 40 49  1  0  0  0  0
 40 41  1  0  0  0  0
 41 50  1  1  0  0  0
 41 43  1  0  0  0  0
 41 42  1  0  0  0  0
 42 23  1  0  0  0  0
 43 44  1  0  0  0  0
 45 43  2  0  0  0  0
 46 37  1  0  0  0  0
 47 37  1  0  0  0  0
 48 40  1  0  0  0  0
 51 42  1  0  0  0  0
M  END
$$$$
