NKQ.pdb
 OpenBabel07022418103D

 54 53  0  0  1  0  0  0  0  0999 V2000
    0.9160   -5.0000    3.1040 N   0  0  0  0  0  0  0  0  0  0  0  0
    1.1400   -3.9260    2.2090 C   0  0  0  0  0  0  0  0  0  0  0  0
    0.1530   -3.4460    1.5970 O   0  0  0  0  0  0  0  0  0  0  0  0
    2.5060   -3.3560    1.9780 C   0  0  0  0  0  0  0  0  0  0  0  0
    2.6610   -2.0240    2.6780 C   0  0  2  0  0  0  0  0  0  0  0  0
    2.4480   -2.2630    4.0990 N   0  0  0  0  0  0  0  0  0  0  0  0
    1.6680   -1.0190    2.2360 C   0  0  0  0  0  0  0  0  0  0  0  0
    0.7920   -0.5720    3.0160 O   0  0  0  0  0  0  0  0  0  0  0  0
    1.4580   -5.1550    3.9830 H   0  0  0  0  0  0  0  0  0  0  0  0
    0.1610   -5.6810    2.8730 H   0  0  0  0  0  0  0  0  0  0  0  0
    3.2200   -4.0760    2.4270 H   0  0  0  0  0  0  0  0  0  0  0  0
    2.6710   -3.2890    0.8830 H   0  0  0  0  0  0  0  0  0  0  0  0
    3.6810   -1.6570    2.4950 H   0  0  0  0  0  0  0  0  0  0  0  0
    1.4230   -2.1460    4.2670 H   0  0  0  0  0  0  0  0  0  0  0  0
    2.9690   -1.5270    4.6250 H   0  0  0  0  0  0  0  0  0  0  0  0
    1.6530   -0.5080    0.9080 N   0  0  0  0  0  0  0  0  0  0  0  0
    0.6880    0.4760    0.4590 C   0  0  1  0  0  0  0  0  0  0  0  0
    1.4840    1.6760    0.0130 C   0  0  0  0  0  0  0  0  0  0  0  0
    0.6740    2.8070   -0.4890 C   0  0  0  0  0  0  0  0  0  0  0  0
   -0.2990    3.3930    0.4660 C   0  0  0  0  0  0  0  0  0  0  0  0
    0.3180    3.9500    1.7180 C   0  0  0  0  0  0  0  0  0  0  0  0
   -0.7290    4.4920    2.5660 N   0  0  0  0  0  0  0  0  0  0  0  0
   -0.1180   -0.1160   -0.6230 C   0  0  0  0  0  0  0  0  0  0  0  0
   -1.0280    0.5620   -1.1560 O   0  0  0  0  0  0  0  0  0  0  0  0
    2.3860   -0.8800    0.2660 H   0  0  0  0  0  0  0  0  0  0  0  0
   -0.0040    0.7270    1.2950 H   0  0  0  0  0  0  0  0  0  0  0  0
    2.1430    1.3310   -0.8150 H   0  0  0  0  0  0  0  0  0  0  0  0
    2.1700    1.9370    0.8480 H   0  0  0  0  0  0  0  0  0  0  0  0
    1.4020    3.6280   -0.7560 H   0  0  0  0  0  0  0  0  0  0  0  0
    0.1790    2.5400   -1.4200 H   0  0  0  0  0  0  0  0  0  0  0  0
   -1.1060    2.6900    0.7640 H   0  0  0  0  0  0  0  0  0  0  0  0
   -0.8150    4.2370   -0.0470 H   0  0  0  0  0  0  0  0  0  0  0  0
    0.9080    3.2060    2.2840 H   0  0  0  0  0  0  0  0  0  0  0  0
    1.0100    4.7920    1.4980 H   0  0  0  0  0  0  0  0  0  0  0  0
   -0.8090    4.0080    3.4810 H   0  0  0  0  0  0  0  0  0  0  0  0
   -1.6280    4.5380    2.0410 H   0  0  0  0  0  0  0  0  0  0  0  0
   -5.0320   -2.3400    0.1650 N   0  0  0  0  0  0  0  0  0  0  0  0
   -3.9480   -2.9030   -0.5250 C   0  0  0  0  0  0  0  0  0  0  0  0
   -3.9280   -4.1220   -0.7730 O   0  0  0  0  0  0  0  0  0  0  0  0
   -2.8300   -2.0430   -0.9570 C   0  0  0  0  0  0  0  0  0  0  0  0
   -1.8010   -2.8810   -1.6690 C   0  0  0  0  0  0  0  0  0  0  0  0
   -0.6280   -2.0970   -2.1460 C   0  0  2  0  0  0  0  0  0  0  0  0
    0.0920   -1.4340   -1.0930 N   0  0  0  0  0  0  0  0  0  0  0  0
   -0.8770   -1.2770   -3.3490 C   0  0  0  0  0  0  0  0  0  0  0  0
   -1.5900   -1.7500   -4.2620 O   0  0  0  0  0  0  0  0  0  0  0  0
   -0.3450   -0.0280   -3.4800 O   0  0  0  0  0  0  0  0  0  0  0  0
   -5.6010   -2.9270    0.7960 H   0  0  0  0  0  0  0  0  0  0  0  0
   -5.2660   -1.3430    0.0480 H   0  0  0  0  0  0  0  0  0  0  0  0
   -2.4110   -1.5880   -0.0290 H   0  0  0  0  0  0  0  0  0  0  0  0
   -3.1720   -1.1830   -1.5730 H   0  0  0  0  0  0  0  0  0  0  0  0
   -1.4150   -3.6160   -0.9090 H   0  0  0  0  0  0  0  0  0  0  0  0
   -2.2460   -3.5070   -2.4670 H   0  0  0  0  0  0  0  0  0  0  0  0
    0.1350   -2.8680   -2.5460 H   0  0  0  0  0  0  0  0  0  0  0  0
    0.8840   -1.9430   -0.5710 H   0  0  0  0  0  0  0  0  0  0  0  0
  1  9  1  0  0  0  0
  2  1  1  0  0  0  0
  3  2  2  0  0  0  0
  4  2  1  0  0  0  0
  4 11  1  0  0  0  0
  4  5  1  0  0  0  0
  5 13  1  6  0  0  0
  5  6  1  0  0  0  0
  6 14  1  0  0  0  0
  6 15  1  0  0  0  0
  7  5  1  0  0  0  0
  7  8  2  0  0  0  0
 10  1  1  0  0  0  0
 12  4  1  0  0  0  0
 16  7  1  0  0  0  0
 17 16  1  0  0  0  0
 17 26  1  1  0  0  0
 18 17  1  0  0  0  0
 18 28  1  0  0  0  0
 19 18  1  0  0  0  0
 19 20  1  0  0  0  0
 20 31  1  0  0  0  0
 20 21  1  0  0  0  0
 21 33  1  0  0  0  0
 21 22  1  0  0  0  0
 22 35  1  0  0  0  0
 23 17  1  0  0  0  0
 24 23  2  0  0  0  0
 25 16  1  0  0  0  0
 27 18  1  0  0  0  0
 29 19  1  0  0  0  0
 30 19  1  0  0  0  0
 32 20  1  0  0  0  0
 34 21  1  0  0  0  0
 36 22  1  0  0  0  0
 37 47  1  0  0  0  0
 38 37  1  0  0  0  0
 39 38  2  0  0  0  0
 40 38  1  0  0  0  0
 40 49  1  0  0  0  0
 41 40  1  0  0  0  0
 41 51  1  0  0  0  0
 42 53  1  6  0  0  0
 42 41  1  0  0  0  0
 42 43  1  0  0  0  0
 43 23  1  0  0  0  0
 43 54  1  0  0  0  0
 44 42  1  0  0  0  0
 45 44  2  0  0  0  0
 46 44  1  0  0  0  0
 48 37  1  0  0  0  0
 50 40  1  0  0  0  0
 52 41  1  0  0  0  0
M  END
$$$$
