NKV.pdb
 OpenBabel07022418103D

 53 52  0  0  1  0  0  0  0  0999 V2000
    1.9520   -3.2070    4.8100 N   0  0  0  0  0  0  0  0  0  0  0  0
    3.0420   -2.3530    4.5320 C   0  0  0  0  0  0  0  0  0  0  0  0
    3.5450   -1.7130    5.5110 O   0  0  0  0  0  0  0  0  0  0  0  0
    3.6300   -2.1530    3.2150 C   0  0  0  0  0  0  0  0  0  0  0  0
    2.7640   -2.6160    2.0980 C   0  0  2  0  0  0  0  0  0  0  0  0
    3.5160   -2.3780    0.8300 N   0  0  0  0  0  0  0  0  0  0  0  0
    1.4540   -1.9320    1.9910 C   0  0  0  0  0  0  0  0  0  0  0  0
    0.6610   -1.9690    2.9450 O   0  0  0  0  0  0  0  0  0  0  0  0
    1.2800   -2.9630    5.5690 H   0  0  0  0  0  0  0  0  0  0  0  0
    1.7690   -4.0950    4.2900 H   0  0  0  0  0  0  0  0  0  0  0  0
    4.0460   -1.1340    3.0620 H   0  0  0  0  0  0  0  0  0  0  0  0
    4.5530   -2.8110    3.1830 H   0  0  0  0  0  0  0  0  0  0  0  0
    2.5670   -3.6990    2.2010 H   0  0  0  0  0  0  0  0  0  0  0  0
    3.3350   -3.2020    0.2120 H   0  0  0  0  0  0  0  0  0  0  0  0
    4.5340   -2.3740    1.0650 H   0  0  0  0  0  0  0  0  0  0  0  0
    1.0540   -1.2120    0.8000 N   0  0  0  0  0  0  0  0  0  0  0  0
   -0.2080   -0.5570    0.7100 C   0  0  1  0  0  0  0  0  0  0  0  0
   -0.1500    0.9190    0.8760 C   0  0  0  0  0  0  0  0  0  0  0  0
    0.6200    1.7510   -0.0540 C   0  0  0  0  0  0  0  0  0  0  0  0
    2.0760    1.5800   -0.1910 C   0  0  0  0  0  0  0  0  0  0  0  0
    2.8560    1.7520    1.0910 C   0  0  0  0  0  0  0  0  0  0  0  0
    2.7080    3.0420    1.6860 N   0  0  0  0  0  0  0  0  0  0  0  0
   -0.9990   -0.9790   -0.4790 C   0  0  0  0  0  0  0  0  0  0  0  0
   -0.5680   -1.8400   -1.2960 O   0  0  0  0  0  0  0  0  0  0  0  0
    1.7560   -1.2510    0.0450 H   0  0  0  0  0  0  0  0  0  0  0  0
   -0.8360   -0.9090    1.6130 H   0  0  0  0  0  0  0  0  0  0  0  0
    0.3330    1.0710    1.9100 H   0  0  0  0  0  0  0  0  0  0  0  0
   -1.1810    1.3510    1.0700 H   0  0  0  0  0  0  0  0  0  0  0  0
    0.3830    2.8260    0.1820 H   0  0  0  0  0  0  0  0  0  0  0  0
    0.1930    1.6480   -1.1050 H   0  0  0  0  0  0  0  0  0  0  0  0
    2.4030    2.4440   -0.8950 H   0  0  0  0  0  0  0  0  0  0  0  0
    2.4390    0.7040   -0.7280 H   0  0  0  0  0  0  0  0  0  0  0  0
    2.6470    0.9050    1.7710 H   0  0  0  0  0  0  0  0  0  0  0  0
    3.9410    1.6410    0.8060 H   0  0  0  0  0  0  0  0  0  0  0  0
    2.5660    2.9430    2.7080 H   0  0  0  0  0  0  0  0  0  0  0  0
    3.5190    3.6860    1.5260 H   0  0  0  0  0  0  0  0  0  0  0  0
   -4.0460   -2.5900   -0.4810 C   0  0  0  0  0  0  0  0  0  0  0  0
   -4.3660   -1.3510   -1.2920 C   0  0  0  0  0  0  0  0  0  0  0  0
   -5.3710   -1.7570   -2.3360 C   0  0  0  0  0  0  0  0  0  0  0  0
   -3.1160   -0.7590   -1.8400 C   0  0  2  0  0  0  0  0  0  0  0  0
   -2.2630   -0.4130   -0.7110 N   0  0  0  0  0  0  0  0  0  0  0  0
   -3.2930    0.3350   -2.7740 C   0  0  0  0  0  0  0  0  0  0  0  0
   -2.7440    1.4330   -2.5690 O   0  0  0  0  0  0  0  0  0  0  0  0
   -4.0620    0.1950   -3.9020 O   0  0  0  0  0  0  0  0  0  0  0  0
   -4.1230   -3.5260   -1.0980 H   0  0  0  0  0  0  0  0  0  0  0  0
   -2.9820   -2.5210   -0.1850 H   0  0  0  0  0  0  0  0  0  0  0  0
   -4.7030   -2.6640    0.4110 H   0  0  0  0  0  0  0  0  0  0  0  0
   -4.8920   -0.6560   -0.6000 H   0  0  0  0  0  0  0  0  0  0  0  0
   -4.9890   -2.5680   -3.0020 H   0  0  0  0  0  0  0  0  0  0  0  0
   -6.2180   -2.2470   -1.7690 H   0  0  0  0  0  0  0  0  0  0  0  0
   -5.8330   -0.9220   -2.8730 H   0  0  0  0  0  0  0  0  0  0  0  0
   -2.5580   -1.5700   -2.3940 H   0  0  0  0  0  0  0  0  0  0  0  0
   -2.6490    0.3060   -0.0540 H   0  0  0  0  0  0  0  0  0  0  0  0
  1  9  1  0  0  0  0
  2  1  1  0  0  0  0
  2  3  2  0  0  0  0
  4  2  1  0  0  0  0
  5 13  1  1  0  0  0
  5  4  1  0  0  0  0
  6 15  1  0  0  0  0
  6  5  1  0  0  0  0
  7  5  1  0  0  0  0
  7  8  2  0  0  0  0
 10  1  1  0  0  0  0
 11  4  1  0  0  0  0
 12  4  1  0  0  0  0
 14  6  1  0  0  0  0
 16  7  1  0  0  0  0
 17 16  1  0  0  0  0
 17 18  1  0  0  0  0
 17 26  1  1  0  0  0
 18 28  1  0  0  0  0
 18 27  1  0  0  0  0
 19 29  1  0  0  0  0
 19 18  1  0  0  0  0
 20 19  1  0  0  0  0
 20 21  1  0  0  0  0
 21 22  1  0  0  0  0
 21 33  1  0  0  0  0
 22 35  1  0  0  0  0
 23 17  1  0  0  0  0
 24 23  2  0  0  0  0
 25 16  1  0  0  0  0
 30 19  1  0  0  0  0
 31 20  1  0  0  0  0
 32 20  1  0  0  0  0
 34 21  1  0  0  0  0
 36 22  1  0  0  0  0
 37 46  1  0  0  0  0
 37 47  1  0  0  0  0
 38 48  1  0  0  0  0
 38 37  1  0  0  0  0
 39 50  1  0  0  0  0
 39 38  1  0  0  0  0
 40 52  1  6  0  0  0
 40 38  1  0  0  0  0
 40 41  1  0  0  0  0
 41 23  1  0  0  0  0
 41 53  1  0  0  0  0
 42 43  1  0  0  0  0
 42 40  1  0  0  0  0
 44 42  2  0  0  0  0
 45 37  1  0  0  0  0
 49 39  1  0  0  0  0
 51 39  1  0  0  0  0
M  END
$$$$
