NKY.pdb
 OpenBabel07022418103D

 58 58  0  0  1  0  0  0  0  0999 V2000
    3.8480   -1.9940    2.1850 N   0  0  0  0  0  0  0  0  0  0  0  0
    4.3120   -0.6680    2.1240 C   0  0  0  0  0  0  0  0  0  0  0  0
    4.9300   -0.1810    3.0970 O   0  0  0  0  0  0  0  0  0  0  0  0
    4.0810    0.1640    0.9240 C   0  0  0  0  0  0  0  0  0  0  0  0
    3.0690    1.2690    1.2240 C   0  0  2  0  0  0  0  0  0  0  0  0
    3.6590    2.0300    2.3150 N   0  0  0  0  0  0  0  0  0  0  0  0
    1.7780    0.6720    1.7220 C   0  0  0  0  0  0  0  0  0  0  0  0
    1.6030    0.5720    2.9610 O   0  0  0  0  0  0  0  0  0  0  0  0
    2.8330   -2.1530    2.3580 H   0  0  0  0  0  0  0  0  0  0  0  0
    4.4910   -2.7950    2.0620 H   0  0  0  0  0  0  0  0  0  0  0  0
    3.7550   -0.4870    0.1090 H   0  0  0  0  0  0  0  0  0  0  0  0
    5.0220    0.6990    0.6520 H   0  0  0  0  0  0  0  0  0  0  0  0
    2.9360    1.9160    0.3600 H   0  0  0  0  0  0  0  0  0  0  0  0
    3.1600    1.9360    3.2130 H   0  0  0  0  0  0  0  0  0  0  0  0
    4.6820    2.0100    2.3440 H   0  0  0  0  0  0  0  0  0  0  0  0
    0.7780    0.2360    0.8460 N   0  0  0  0  0  0  0  0  0  0  0  0
   -0.4660   -0.3230    1.2690 C   0  0  1  0  0  0  0  0  0  0  0  0
   -1.6450    0.4520    0.7170 C   0  0  0  0  0  0  0  0  0  0  0  0
   -1.7920    1.8740    1.0470 C   0  0  0  0  0  0  0  0  0  0  0  0
   -2.0460    2.3560    2.4070 C   0  0  0  0  0  0  0  0  0  0  0  0
   -1.1000    2.1290    3.5080 C   0  0  0  0  0  0  0  0  0  0  0  0
   -1.6480    2.7940    4.7350 N   0  0  0  0  0  0  0  0  0  0  0  0
   -0.6050   -1.7510    0.7410 C   0  0  0  0  0  0  0  0  0  0  0  0
   -1.6170   -2.3590    1.0880 O   0  0  0  0  0  0  0  0  0  0  0  0
    0.9490    0.3220   -0.1960 H   0  0  0  0  0  0  0  0  0  0  0  0
   -0.6070   -0.4470    2.3400 H   0  0  0  0  0  0  0  0  0  0  0  0
   -1.6970    0.3170   -0.4040 H   0  0  0  0  0  0  0  0  0  0  0  0
   -2.6020   -0.0700    1.0650 H   0  0  0  0  0  0  0  0  0  0  0  0
   -0.9090    2.4630    0.6090 H   0  0  0  0  0  0  0  0  0  0  0  0
   -2.6290    2.2680    0.3480 H   0  0  0  0  0  0  0  0  0  0  0  0
   -2.1820    3.4980    2.3430 H   0  0  0  0  0  0  0  0  0  0  0  0
   -3.0880    2.0600    2.7700 H   0  0  0  0  0  0  0  0  0  0  0  0
   -0.1320    2.6520    3.3380 H   0  0  0  0  0  0  0  0  0  0  0  0
   -0.9690    1.0920    3.8660 H   0  0  0  0  0  0  0  0  0  0  0  0
   -2.5910    2.3790    4.9200 H   0  0  0  0  0  0  0  0  0  0  0  0
   -1.0410    2.4700    5.5420 H   0  0  0  0  0  0  0  0  0  0  0  0
   -4.7830   -0.9740   -3.5740 O   0  0  0  0  0  0  0  0  0  0  0  0
   -3.6160   -1.6450   -3.2160 C   0  0  0  0  0  0  0  0  0  0  0  0
   -2.3930   -1.0090   -3.1660 C   0  0  0  0  0  0  0  0  0  0  0  0
   -1.2410   -1.6770   -2.8110 C   0  0  0  0  0  0  0  0  0  0  0  0
   -1.2510   -3.0140   -2.4890 C   0  0  0  0  0  0  0  0  0  0  0  0
   -0.0250   -3.7750   -2.0940 C   0  0  0  0  0  0  0  0  0  0  0  0
    0.1770   -3.7220   -0.6000 C   0  0  2  0  0  0  0  0  0  0  0  0
    0.3390   -2.3740   -0.0990 N   0  0  0  0  0  0  0  0  0  0  0  0
    1.3350   -4.5300   -0.1900 C   0  0  0  0  0  0  0  0  0  0  0  0
    2.2830   -4.0680    0.4820 O   0  0  0  0  0  0  0  0  0  0  0  0
   -2.4730   -3.6530   -2.5380 C   0  0  0  0  0  0  0  0  0  0  0  0
   -3.6290   -2.9870   -2.8930 C   0  0  0  0  0  0  0  0  0  0  0  0
    1.4530   -5.8910   -0.5310 O   0  0  0  0  0  0  0  0  0  0  0  0
   -5.6820   -1.1850   -3.1220 H   0  0  0  0  0  0  0  0  0  0  0  0
   -2.3870    0.0610   -3.4250 H   0  0  0  0  0  0  0  0  0  0  0  0
   -0.3050   -1.1490   -2.7840 H   0  0  0  0  0  0  0  0  0  0  0  0
   -0.2230   -4.8340   -2.3610 H   0  0  0  0  0  0  0  0  0  0  0  0
    0.8320   -3.4460   -2.6710 H   0  0  0  0  0  0  0  0  0  0  0  0
   -0.7330   -4.2110   -0.1720 H   0  0  0  0  0  0  0  0  0  0  0  0
    1.1810   -1.8140   -0.3520 H   0  0  0  0  0  0  0  0  0  0  0  0
   -2.4800   -4.7150   -2.2820 H   0  0  0  0  0  0  0  0  0  0  0  0
   -4.5810   -3.5060   -2.9260 H   0  0  0  0  0  0  0  0  0  0  0  0
  1  9  1  0  0  0  0
  2  1  1  0  0  0  0
  2  3  2  0  0  0  0
  4  5  1  0  0  0  0
  4  2  1  0  0  0  0
  5 13  1  6  0  0  0
  5  7  1  0  0  0  0
  5  6  1  0  0  0  0
  6 15  1  0  0  0  0
  6 14  1  0  0  0  0
  7  8  2  0  0  0  0
 10  1  1  0  0  0  0
 11  4  1  0  0  0  0
 12  4  1  0  0  0  0
 16 17  1  0  0  0  0
 16  7  1  0  0  0  0
 17 26  1  1  0  0  0
 18 19  1  0  0  0  0
 18 28  1  0  0  0  0
 18 17  1  0  0  0  0
 19 20  1  0  0  0  0
 20 32  1  0  0  0  0
 20 21  1  0  0  0  0
 21 34  1  0  0  0  0
 21 22  1  0  0  0  0
 22 35  1  0  0  0  0
 22 36  1  0  0  0  0
 23 24  2  0  0  0  0
 23 17  1  0  0  0  0
 25 16  1  0  0  0  0
 27 18  1  0  0  0  0
 29 19  1  0  0  0  0
 30 19  1  0  0  0  0
 31 20  1  0  0  0  0
 33 21  1  0  0  0  0
 37 38  1  0  0  0  0
 37 50  1  0  0  0  0
 38 39  2  0  0  0  0
 38 48  1  0  0  0  0
 39 40  1  0  0  0  0
 40 52  1  0  0  0  0
 40 41  2  0  0  0  0
 41 42  1  0  0  0  0
 42 43  1  0  0  0  0
 43 45  1  0  0  0  0
 43 55  1  1  0  0  0
 43 44  1  0  0  0  0
 44 23  1  0  0  0  0
 45 46  1  0  0  0  0
 47 41  1  0  0  0  0
 47 57  1  0  0  0  0
 48 47  2  0  0  0  0
 49 45  2  0  0  0  0
 51 39  1  0  0  0  0
 53 42  1  0  0  0  0
 54 42  1  0  0  0  0
 56 44  1  0  0  0  0
 58 48  1  0  0  0  0
M  END
$$$$
