NLC.pdb
 OpenBabel07022418103D

 46 45  0  0  1  0  0  0  0  0999 V2000
   -0.2560   -3.6180    3.7840 N   0  0  0  0  0  0  0  0  0  0  0  0
    0.8640   -2.8200    3.4390 C   0  0  0  0  0  0  0  0  0  0  0  0
    1.2630   -1.9610    4.2750 O   0  0  0  0  0  0  0  0  0  0  0  0
    1.5600   -2.9800    2.1270 C   0  0  0  0  0  0  0  0  0  0  0  0
    2.7170   -2.0140    2.0040 C   0  0  2  0  0  0  0  0  0  0  0  0
    3.6690   -2.2470    3.0500 N   0  0  0  0  0  0  0  0  0  0  0  0
    2.2520   -0.6040    1.9580 C   0  0  0  0  0  0  0  0  0  0  0  0
    2.6520    0.2850    2.7560 O   0  0  0  0  0  0  0  0  0  0  0  0
   -1.0330   -3.1650    4.3130 H   0  0  0  0  0  0  0  0  0  0  0  0
   -0.3210   -4.6350    3.5240 H   0  0  0  0  0  0  0  0  0  0  0  0
    0.8200   -2.7650    1.3510 H   0  0  0  0  0  0  0  0  0  0  0  0
    1.8920   -4.0220    1.9880 H   0  0  0  0  0  0  0  0  0  0  0  0
    3.2020   -2.2130    1.0220 H   0  0  0  0  0  0  0  0  0  0  0  0
    3.6760   -1.5500    3.8040 H   0  0  0  0  0  0  0  0  0  0  0  0
    3.6170   -3.2450    3.3990 H   0  0  0  0  0  0  0  0  0  0  0  0
    1.7880    2.3370   -2.7050 C   0  0  0  0  0  0  0  0  0  0  0  0
    1.1620    1.3260   -1.7060 C   0  0  0  0  0  0  0  0  0  0  0  0
    1.8540   -0.0170   -1.9640 C   0  0  0  0  0  0  0  0  0  0  0  0
    1.3340    1.8340   -0.3260 C   0  0  0  0  0  0  0  0  0  0  0  0
    0.7790    1.0280    0.7960 C   0  0  2  0  0  0  0  0  0  0  0  0
    1.2930   -0.2900    0.9310 N   0  0  0  0  0  0  0  0  0  0  0  0
   -0.7030    1.0920    0.8670 C   0  0  0  0  0  0  0  0  0  0  0  0
   -1.2780    2.2050    0.7600 O   0  0  0  0  0  0  0  0  0  0  0  0
    1.6310    1.8880   -3.7250 H   0  0  0  0  0  0  0  0  0  0  0  0
    1.1560    3.2390   -2.6710 H   0  0  0  0  0  0  0  0  0  0  0  0
    2.8410    2.4970   -2.4630 H   0  0  0  0  0  0  0  0  0  0  0  0
    0.1280    1.2150   -2.0130 H   0  0  0  0  0  0  0  0  0  0  0  0
    2.5890   -0.2290   -1.1900 H   0  0  0  0  0  0  0  0  0  0  0  0
    1.1360   -0.8530   -2.0410 H   0  0  0  0  0  0  0  0  0  0  0  0
    2.4110    0.0510   -2.9400 H   0  0  0  0  0  0  0  0  0  0  0  0
    2.4350    2.0420   -0.1810 H   0  0  0  0  0  0  0  0  0  0  0  0
    0.8850    2.8670   -0.2790 H   0  0  0  0  0  0  0  0  0  0  0  0
    1.1180    1.5880    1.7350 H   0  0  0  0  0  0  0  0  0  0  0  0
    0.9510   -1.0320    0.2840 H   0  0  0  0  0  0  0  0  0  0  0  0
   -1.5290   -0.0500    1.0520 N   0  0  0  0  0  0  0  0  0  0  0  0
   -2.9620    0.0130    1.1210 C   0  0  1  0  0  0  0  0  0  0  0  0
   -3.4900   -0.8380   -0.0350 C   0  0  0  0  0  0  0  0  0  0  0  0
   -5.2950   -0.7810    0.0220 S   0  0  0  0  0  0  0  0  0  0  0  0
   -3.4080   -0.6080    2.3820 C   0  0  0  0  0  0  0  0  0  0  0  0
   -2.5750   -1.0810    3.1880 O   0  0  0  0  0  0  0  0  0  0  0  0
   -4.7760   -0.6670    2.6750 O   0  0  0  0  0  0  0  0  0  0  0  0
   -1.0400   -0.9640    1.1390 H   0  0  0  0  0  0  0  0  0  0  0  0
   -3.3620    1.0290    1.0180 H   0  0  0  0  0  0  0  0  0  0  0  0
   -3.0730   -1.8380    0.0810 H   0  0  0  0  0  0  0  0  0  0  0  0
   -3.0930   -0.3620   -0.9590 H   0  0  0  0  0  0  0  0  0  0  0  0
   -5.8140   -0.2600   -1.1670 H   0  0  0  0  0  0  0  0  0  0  0  0
  1  9  1  0  0  0  0
  2  1  1  0  0  0  0
  2  3  2  0  0  0  0
  4  2  1  0  0  0  0
  5 13  1  6  0  0  0
  5  4  1  0  0  0  0
  5  6  1  0  0  0  0
  6 15  1  0  0  0  0
  6 14  1  0  0  0  0
  7  5  1  0  0  0  0
  7  8  2  0  0  0  0
 10  1  1  0  0  0  0
 11  4  1  0  0  0  0
 12  4  1  0  0  0  0
 16 25  1  0  0  0  0
 16 26  1  0  0  0  0
 16 17  1  0  0  0  0
 17 19  1  0  0  0  0
 18 17  1  0  0  0  0
 18 28  1  0  0  0  0
 19 32  1  0  0  0  0
 19 31  1  0  0  0  0
 19 20  1  0  0  0  0
 20 22  1  0  0  0  0
 20 21  1  0  0  0  0
 20 33  1  1  0  0  0
 21  7  1  0  0  0  0
 22 35  1  0  0  0  0
 23 22  2  0  0  0  0
 24 16  1  0  0  0  0
 27 17  1  0  0  0  0
 29 18  1  0  0  0  0
 30 18  1  0  0  0  0
 34 21  1  0  0  0  0
 35 36  1  0  0  0  0
 35 42  1  0  0  0  0
 36 43  1  6  0  0  0
 36 39  1  0  0  0  0
 37 38  1  0  0  0  0
 37 44  1  0  0  0  0
 37 36  1  0  0  0  0
 39 41  2  0  0  0  0
 39 40  1  0  0  0  0
 45 37  1  0  0  0  0
 46 38  1  0  0  0  0
M  END
$$$$
