NLD.pdb
 OpenBabel07022418103D

 48 47  0  0  1  0  0  0  0  0999 V2000
    2.2810   -4.2130    5.3580 N   0  0  0  0  0  0  0  0  0  0  0  0
    1.6050   -2.9720    5.4380 C   0  0  0  0  0  0  0  0  0  0  0  0
    0.8000   -2.7820    6.3820 O   0  0  0  0  0  0  0  0  0  0  0  0
    1.8620   -1.9370    4.4140 C   0  0  0  0  0  0  0  0  0  0  0  0
    0.5530   -1.5500    3.7120 C   0  0  2  0  0  0  0  0  0  0  0  0
    0.0740   -2.7670    3.1040 N   0  0  0  0  0  0  0  0  0  0  0  0
    0.8240   -0.5170    2.6960 C   0  0  0  0  0  0  0  0  0  0  0  0
    1.2260    0.6410    2.9860 O   0  0  0  0  0  0  0  0  0  0  0  0
    1.7800   -5.1080    5.5930 H   0  0  0  0  0  0  0  0  0  0  0  0
    3.2740   -4.2730    5.0690 H   0  0  0  0  0  0  0  0  0  0  0  0
    2.2370   -1.0130    4.9270 H   0  0  0  0  0  0  0  0  0  0  0  0
    2.5600   -2.2980    3.6510 H   0  0  0  0  0  0  0  0  0  0  0  0
   -0.1860   -1.2540    4.4660 H   0  0  0  0  0  0  0  0  0  0  0  0
   -0.7500   -2.6040    2.4810 H   0  0  0  0  0  0  0  0  0  0  0  0
    0.8550   -3.2910    2.6260 H   0  0  0  0  0  0  0  0  0  0  0  0
    1.3070    1.0810   -2.8480 C   0  0  0  0  0  0  0  0  0  0  0  0
    2.2610    0.5660   -1.8510 C   0  0  0  0  0  0  0  0  0  0  0  0
    3.1980    1.6980   -1.3690 C   0  0  0  0  0  0  0  0  0  0  0  0
    1.8100   -0.2690   -0.7250 C   0  0  0  0  0  0  0  0  0  0  0  0
    0.9010    0.2260    0.2810 C   0  0  2  0  0  0  0  0  0  0  0  0
    0.6390   -0.7900    1.3330 N   0  0  0  0  0  0  0  0  0  0  0  0
   -0.4420    0.6150   -0.1740 C   0  0  0  0  0  0  0  0  0  0  0  0
   -0.6990    1.5740   -0.9500 O   0  0  0  0  0  0  0  0  0  0  0  0
    0.4220    0.4650   -3.0150 H   0  0  0  0  0  0  0  0  0  0  0  0
    1.0120    2.1440   -2.7630 H   0  0  0  0  0  0  0  0  0  0  0  0
    1.8540    1.0890   -3.8670 H   0  0  0  0  0  0  0  0  0  0  0  0
    3.0100   -0.0830   -2.4500 H   0  0  0  0  0  0  0  0  0  0  0  0
    4.0470    1.2050   -0.8530 H   0  0  0  0  0  0  0  0  0  0  0  0
    2.6520    2.4170   -0.7590 H   0  0  0  0  0  0  0  0  0  0  0  0
    3.5970    2.1990   -2.2560 H   0  0  0  0  0  0  0  0  0  0  0  0
    1.3210   -1.1890   -1.2500 H   0  0  0  0  0  0  0  0  0  0  0  0
    2.7220   -0.8020   -0.3000 H   0  0  0  0  0  0  0  0  0  0  0  0
    1.3010    1.1080    0.8320 H   0  0  0  0  0  0  0  0  0  0  0  0
    0.3170   -1.7030    0.9550 H   0  0  0  0  0  0  0  0  0  0  0  0
   -1.6410   -0.0880    0.2390 N   0  0  0  0  0  0  0  0  0  0  0  0
   -2.9680    0.2970   -0.2160 C   0  0  1  0  0  0  0  0  0  0  0  0
   -3.6340   -0.8910   -0.8280 C   0  0  0  0  0  0  0  0  0  0  0  0
   -2.9090   -1.4430   -1.9980 C   0  0  0  0  0  0  0  0  0  0  0  0
   -1.8470   -0.9060   -2.3590 O   0  0  0  0  0  0  0  0  0  0  0  0
   -3.7700    0.8970    0.8620 C   0  0  0  0  0  0  0  0  0  0  0  0
   -3.2700    1.0190    1.9980 O   0  0  0  0  0  0  0  0  0  0  0  0
   -3.3870   -2.5460   -2.7000 O   0  0  0  0  0  0  0  0  0  0  0  0
   -5.0550    1.3190    0.6210 O   0  0  0  0  0  0  0  0  0  0  0  0
   -1.5090   -0.8840    0.8810 H   0  0  0  0  0  0  0  0  0  0  0  0
   -2.8600    1.0870   -0.9950 H   0  0  0  0  0  0  0  0  0  0  0  0
   -4.6640   -0.5810   -1.1660 H   0  0  0  0  0  0  0  0  0  0  0  0
   -3.8030   -1.7200   -0.0970 H   0  0  0  0  0  0  0  0  0  0  0  0
   -2.7370   -3.2130   -3.1290 H   0  0  0  0  0  0  0  0  0  0  0  0
  1  2  1  0  0  0  0
  1  9  1  0  0  0  0
  2  3  2  0  0  0  0
  4 11  1  0  0  0  0
  4  2  1  0  0  0  0
  5  4  1  0  0  0  0
  5 13  1  1  0  0  0
  6  5  1  0  0  0  0
  7  8  2  0  0  0  0
  7  5  1  0  0  0  0
 10  1  1  0  0  0  0
 12  4  1  0  0  0  0
 14  6  1  0  0  0  0
 15  6  1  0  0  0  0
 16 25  1  0  0  0  0
 16 17  1  0  0  0  0
 17 18  1  0  0  0  0
 17 19  1  0  0  0  0
 18 28  1  0  0  0  0
 18 29  1  0  0  0  0
 19 32  1  0  0  0  0
 19 20  1  0  0  0  0
 20 33  1  1  0  0  0
 20 21  1  0  0  0  0
 21  7  1  0  0  0  0
 22 35  1  0  0  0  0
 22 20  1  0  0  0  0
 23 22  2  0  0  0  0
 24 16  1  0  0  0  0
 26 16  1  0  0  0  0
 27 17  1  0  0  0  0
 30 18  1  0  0  0  0
 31 19  1  0  0  0  0
 34 21  1  0  0  0  0
 35 44  1  0  0  0  0
 36 45  1  6  0  0  0
 36 35  1  0  0  0  0
 36 40  1  0  0  0  0
 37 36  1  0  0  0  0
 37 47  1  0  0  0  0
 38 37  1  0  0  0  0
 39 38  2  0  0  0  0
 40 41  1  0  0  0  0
 42 38  1  0  0  0  0
 43 40  2  0  0  0  0
 46 37  1  0  0  0  0
 48 42  1  0  0  0  0
M  END
$$$$
