NLE.pdb
 OpenBabel07022418103D

 51 50  0  0  1  0  0  0  0  0999 V2000
    5.3790   -3.5990   -0.5240 N   0  0  0  0  0  0  0  0  0  0  0  0
    3.9420   -3.5180   -0.6700 C   0  0  0  0  0  0  0  0  0  0  0  0
    3.3130   -4.3490    0.0230 O   0  0  0  0  0  0  0  0  0  0  0  0
    3.3240   -2.5340   -1.5610 C   0  0  0  0  0  0  0  0  0  0  0  0
    1.8430   -2.4120   -1.4120 C   0  0  2  0  0  0  0  0  0  0  0  0
    1.3160   -1.4530   -2.3910 N   0  0  0  0  0  0  0  0  0  0  0  0
    1.5120   -1.9430   -0.0480 C   0  0  0  0  0  0  0  0  0  0  0  0
    1.8240   -2.6600    0.9190 O   0  0  0  0  0  0  0  0  0  0  0  0
    5.8820   -4.1880   -1.2100 H   0  0  0  0  0  0  0  0  0  0  0  0
    5.9070   -3.1060    0.2190 H   0  0  0  0  0  0  0  0  0  0  0  0
    3.5850   -2.8510   -2.6070 H   0  0  0  0  0  0  0  0  0  0  0  0
    3.8420   -1.5410   -1.3740 H   0  0  0  0  0  0  0  0  0  0  0  0
    1.3600   -3.3690   -1.5910 H   0  0  0  0  0  0  0  0  0  0  0  0
    0.2730   -1.4780   -2.3980 H   0  0  0  0  0  0  0  0  0  0  0  0
    1.7210   -0.5210   -2.2880 H   0  0  0  0  0  0  0  0  0  0  0  0
    3.2950    0.7700    0.6670 C   0  0  0  0  0  0  0  0  0  0  0  0
    2.6460    0.9830    1.9920 C   0  0  0  0  0  0  0  0  0  0  0  0
    3.1310    2.2990    2.5900 C   0  0  0  0  0  0  0  0  0  0  0  0
    1.1470    0.9740    1.9900 C   0  0  0  0  0  0  0  0  0  0  0  0
    0.5450   -0.2960    1.5150 C   0  0  2  0  0  0  0  0  0  0  0  0
    0.8480   -0.6970    0.1800 N   0  0  0  0  0  0  0  0  0  0  0  0
   -0.9390   -0.3360    1.7750 C   0  0  0  0  0  0  0  0  0  0  0  0
   -1.3510   -0.0010    2.9120 O   0  0  0  0  0  0  0  0  0  0  0  0
    2.6550    0.9760   -0.2080 H   0  0  0  0  0  0  0  0  0  0  0  0
    4.1780    1.4570    0.6060 H   0  0  0  0  0  0  0  0  0  0  0  0
    3.7650   -0.2540    0.6120 H   0  0  0  0  0  0  0  0  0  0  0  0
    3.0190    0.1620    2.6730 H   0  0  0  0  0  0  0  0  0  0  0  0
    4.1080    2.5840    2.1620 H   0  0  0  0  0  0  0  0  0  0  0  0
    3.2050    2.2150    3.6910 H   0  0  0  0  0  0  0  0  0  0  0  0
    2.4190    3.1080    2.3790 H   0  0  0  0  0  0  0  0  0  0  0  0
    0.8480    1.0760    3.0750 H   0  0  0  0  0  0  0  0  0  0  0  0
    0.7190    1.8810    1.5130 H   0  0  0  0  0  0  0  0  0  0  0  0
    0.9440   -1.1050    2.2070 H   0  0  0  0  0  0  0  0  0  0  0  0
    0.6010   -0.1250   -0.6280 H   0  0  0  0  0  0  0  0  0  0  0  0
   -1.8570   -0.7350    0.7780 N   0  0  0  0  0  0  0  0  0  0  0  0
   -3.3240   -0.7720    1.0380 C   0  0  1  0  0  0  0  0  0  0  0  0
   -4.0180    0.0850    0.0360 C   0  0  0  0  0  0  0  0  0  0  0  0
   -5.4980    0.1250    0.2070 C   0  0  0  0  0  0  0  0  0  0  0  0
   -5.8530    0.6860    1.5230 C   0  0  0  0  0  0  0  0  0  0  0  0
   -5.0010    1.1360    2.3080 O   0  0  0  0  0  0  0  0  0  0  0  0
   -3.7850   -2.1740    0.9110 C   0  0  0  0  0  0  0  0  0  0  0  0
   -2.9690   -3.0580    0.5480 O   0  0  0  0  0  0  0  0  0  0  0  0
   -7.1980    0.7340    1.9510 O   0  0  0  0  0  0  0  0  0  0  0  0
   -5.0720   -2.5870    1.1710 O   0  0  0  0  0  0  0  0  0  0  0  0
   -1.4880   -1.0080   -0.1560 H   0  0  0  0  0  0  0  0  0  0  0  0
   -3.4520   -0.4400    2.0610 H   0  0  0  0  0  0  0  0  0  0  0  0
   -3.8040   -0.2650   -1.0140 H   0  0  0  0  0  0  0  0  0  0  0  0
   -3.6010    1.1330    0.0560 H   0  0  0  0  0  0  0  0  0  0  0  0
   -5.9420   -0.8880    0.0170 H   0  0  0  0  0  0  0  0  0  0  0  0
   -5.9240    0.7950   -0.6190 H   0  0  0  0  0  0  0  0  0  0  0  0
   -7.4100    0.7390    2.9590 H   0  0  0  0  0  0  0  0  0  0  0  0
  1 10  1  0  0  0  0
  2  1  1  0  0  0  0
  2  3  2  0  0  0  0
  4  5  1  0  0  0  0
  4 12  1  0  0  0  0
  4  2  1  0  0  0  0
  5 13  1  6  0  0  0
  5  7  1  0  0  0  0
  6 15  1  0  0  0  0
  6  5  1  0  0  0  0
  7 21  1  0  0  0  0
  7  8  2  0  0  0  0
  9  1  1  0  0  0  0
 11  4  1  0  0  0  0
 14  6  1  0  0  0  0
 16 17  1  0  0  0  0
 17 18  1  0  0  0  0
 17 27  1  0  0  0  0
 18 29  1  0  0  0  0
 19 17  1  0  0  0  0
 19 31  1  0  0  0  0
 20 22  1  0  0  0  0
 20 19  1  0  0  0  0
 20 33  1  1  0  0  0
 21 20  1  0  0  0  0
 22 23  2  0  0  0  0
 24 16  1  0  0  0  0
 25 16  1  0  0  0  0
 26 16  1  0  0  0  0
 28 18  1  0  0  0  0
 30 18  1  0  0  0  0
 32 19  1  0  0  0  0
 34 21  1  0  0  0  0
 35 36  1  0  0  0  0
 35 22  1  0  0  0  0
 36 46  1  1  0  0  0
 37 48  1  0  0  0  0
 37 38  1  0  0  0  0
 37 36  1  0  0  0  0
 38 39  1  0  0  0  0
 39 43  1  0  0  0  0
 39 40  2  0  0  0  0
 41 36  1  0  0  0  0
 41 44  1  0  0  0  0
 42 41  2  0  0  0  0
 43 51  1  0  0  0  0
 45 35  1  0  0  0  0
 47 37  1  0  0  0  0
 49 38  1  0  0  0  0
 50 38  1  0  0  0  0
M  END
$$$$
