NLF.pdb
 OpenBabel07022418103D

 55 55  0  0  1  0  0  0  0  0999 V2000
    2.4580   -3.4620    5.8080 N   0  0  0  0  0  0  0  0  0  0  0  0
    3.4410   -2.5050    5.4770 C   0  0  0  0  0  0  0  0  0  0  0  0
    4.5530   -2.5640    6.0550 O   0  0  0  0  0  0  0  0  0  0  0  0
    3.2150   -1.4470    4.4890 C   0  0  0  0  0  0  0  0  0  0  0  0
    1.8980   -1.5180    3.7680 C   0  0  2  0  0  0  0  0  0  0  0  0
    1.7550   -2.7510    3.0270 N   0  0  0  0  0  0  0  0  0  0  0  0
    1.7350   -0.3170    2.8800 C   0  0  0  0  0  0  0  0  0  0  0  0
    1.7270    0.8430    3.3740 O   0  0  0  0  0  0  0  0  0  0  0  0
    1.5100   -3.2590    6.1760 H   0  0  0  0  0  0  0  0  0  0  0  0
    2.7200   -4.4750    5.6650 H   0  0  0  0  0  0  0  0  0  0  0  0
    3.3350   -0.4170    4.9120 H   0  0  0  0  0  0  0  0  0  0  0  0
    4.0600   -1.5210    3.7410 H   0  0  0  0  0  0  0  0  0  0  0  0
    1.0880   -1.4930    4.5290 H   0  0  0  0  0  0  0  0  0  0  0  0
    1.4180   -3.4840    3.7210 H   0  0  0  0  0  0  0  0  0  0  0  0
    0.9170   -2.6700    2.3730 H   0  0  0  0  0  0  0  0  0  0  0  0
    3.8890    1.4820   -2.2170 C   0  0  0  0  0  0  0  0  0  0  0  0
    2.6070    1.8680   -1.3910 C   0  0  0  0  0  0  0  0  0  0  0  0
    1.5440    1.9280   -2.4670 C   0  0  0  0  0  0  0  0  0  0  0  0
    2.4850    0.7840   -0.4040 C   0  0  0  0  0  0  0  0  0  0  0  0
    1.4240    0.7910    0.6300 C   0  0  2  0  0  0  0  0  0  0  0  0
    1.5870   -0.4380    1.4770 N   0  0  0  0  0  0  0  0  0  0  0  0
    0.0720    0.7150    0.0820 C   0  0  0  0  0  0  0  0  0  0  0  0
   -0.5350    1.5970   -0.5720 O   0  0  0  0  0  0  0  0  0  0  0  0
    3.8700    2.0260   -3.1800 H   0  0  0  0  0  0  0  0  0  0  0  0
    3.8520    0.3990   -2.4480 H   0  0  0  0  0  0  0  0  0  0  0  0
    4.7880    1.7630   -1.6630 H   0  0  0  0  0  0  0  0  0  0  0  0
    2.7320    2.8760   -0.9970 H   0  0  0  0  0  0  0  0  0  0  0  0
    0.9020    2.8370   -2.3570 H   0  0  0  0  0  0  0  0  0  0  0  0
    2.0580    2.0920   -3.4810 H   0  0  0  0  0  0  0  0  0  0  0  0
    1.0230    0.9820   -2.5960 H   0  0  0  0  0  0  0  0  0  0  0  0
    2.4400   -0.1840   -1.0220 H   0  0  0  0  0  0  0  0  0  0  0  0
    3.4810    0.6090    0.1460 H   0  0  0  0  0  0  0  0  0  0  0  0
    1.5340    1.6740    1.3340 H   0  0  0  0  0  0  0  0  0  0  0  0
    1.5990   -1.3660    1.0110 H   0  0  0  0  0  0  0  0  0  0  0  0
   -0.7040   -0.4710    0.2750 N   0  0  0  0  0  0  0  0  0  0  0  0
   -2.0490   -0.5820   -0.2570 C   0  0  1  0  0  0  0  0  0  0  0  0
   -2.2600   -1.7410   -1.1370 C   0  0  0  0  0  0  0  0  0  0  0  0
   -3.6520   -1.7700   -1.6240 C   0  0  0  0  0  0  0  0  0  0  0  0
   -3.9250   -0.9930   -2.7510 C   0  0  0  0  0  0  0  0  0  0  0  0
   -5.1680   -0.9360   -3.3340 C   0  0  0  0  0  0  0  0  0  0  0  0
   -6.2030   -1.6710   -2.7980 C   0  0  0  0  0  0  0  0  0  0  0  0
   -5.9210   -2.4420   -1.6760 C   0  0  0  0  0  0  0  0  0  0  0  0
   -4.6780   -2.5020   -1.0890 C   0  0  0  0  0  0  0  0  0  0  0  0
   -2.9570   -0.6440    0.9030 C   0  0  0  0  0  0  0  0  0  0  0  0
   -2.4770   -0.7000    2.0930 O   0  0  0  0  0  0  0  0  0  0  0  0
   -4.3400   -0.6440    0.8490 O   0  0  0  0  0  0  0  0  0  0  0  0
   -0.3820   -1.3140    0.7940 H   0  0  0  0  0  0  0  0  0  0  0  0
   -2.3280    0.3470   -0.8390 H   0  0  0  0  0  0  0  0  0  0  0  0
   -2.1300   -2.6800   -0.5400 H   0  0  0  0  0  0  0  0  0  0  0  0
   -1.6180   -1.7590   -2.0480 H   0  0  0  0  0  0  0  0  0  0  0  0
   -3.1380   -0.3950   -3.2120 H   0  0  0  0  0  0  0  0  0  0  0  0
   -5.3620   -0.3190   -4.2200 H   0  0  0  0  0  0  0  0  0  0  0  0
   -7.2100   -1.6650   -3.2170 H   0  0  0  0  0  0  0  0  0  0  0  0
   -6.7470   -3.0210   -1.2580 H   0  0  0  0  0  0  0  0  0  0  0  0
   -4.4620   -3.1130   -0.2220 H   0  0  0  0  0  0  0  0  0  0  0  0
  1  9  1  0  0  0  0
  2  1  1  0  0  0  0
  2  3  2  0  0  0  0
  4 11  1  0  0  0  0
  4  2  1  0  0  0  0
  5  4  1  0  0  0  0
  5 13  1  1  0  0  0
  6 14  1  0  0  0  0
  6  5  1  0  0  0  0
  7  8  2  0  0  0  0
  7  5  1  0  0  0  0
 10  1  1  0  0  0  0
 12  4  1  0  0  0  0
 15  6  1  0  0  0  0
 16 26  1  0  0  0  0
 16 17  1  0  0  0  0
 17 27  1  0  0  0  0
 17 19  1  0  0  0  0
 18 28  1  0  0  0  0
 18 17  1  0  0  0  0
 19 32  1  0  0  0  0
 19 20  1  0  0  0  0
 20 33  1  1  0  0  0
 20 21  1  0  0  0  0
 21  7  1  0  0  0  0
 22 35  1  0  0  0  0
 22 20  1  0  0  0  0
 23 22  2  0  0  0  0
 24 16  1  0  0  0  0
 25 16  1  0  0  0  0
 29 18  1  0  0  0  0
 30 18  1  0  0  0  0
 31 19  1  0  0  0  0
 34 21  1  0  0  0  0
 35 47  1  0  0  0  0
 36 48  1  6  0  0  0
 36 35  1  0  0  0  0
 36 44  1  0  0  0  0
 37 49  1  0  0  0  0
 37 36  1  0  0  0  0
 38 37  1  0  0  0  0
 38 43  1  0  0  0  0
 39 38  2  0  0  0  0
 40 41  2  0  0  0  0
 40 39  1  0  0  0  0
 41 42  1  0  0  0  0
 42 54  1  0  0  0  0
 42 43  2  0  0  0  0
 43 55  1  0  0  0  0
 44 45  1  0  0  0  0
 46 44  2  0  0  0  0
 50 37  1  0  0  0  0
 51 39  1  0  0  0  0
 52 40  1  0  0  0  0
 53 41  1  0  0  0  0
M  END
$$$$
