NLH.pdb
 OpenBabel07022418103D

 52 52  0  0  1  0  0  0  0  0999 V2000
    3.3380   -1.8390    2.8180 N   0  0  0  0  0  0  0  0  0  0  0  0
    3.0850   -3.1810    3.1150 C   0  0  0  0  0  0  0  0  0  0  0  0
    3.7360   -3.7100    4.0830 O   0  0  0  0  0  0  0  0  0  0  0  0
    2.1290   -4.0390    2.4030 C   0  0  0  0  0  0  0  0  0  0  0  0
    1.4820   -3.3110    1.2630 C   0  0  2  0  0  0  0  0  0  0  0  0
    2.4880   -2.8820    0.3270 N   0  0  0  0  0  0  0  0  0  0  0  0
    0.6270   -2.2020    1.7370 C   0  0  0  0  0  0  0  0  0  0  0  0
    0.0130   -2.3570    2.8220 O   0  0  0  0  0  0  0  0  0  0  0  0
    4.0950   -1.5060    2.1860 H   0  0  0  0  0  0  0  0  0  0  0  0
    2.7510   -1.0560    3.2380 H   0  0  0  0  0  0  0  0  0  0  0  0
    1.3000   -4.3770    3.0790 H   0  0  0  0  0  0  0  0  0  0  0  0
    2.6510   -4.9680    2.0320 H   0  0  0  0  0  0  0  0  0  0  0  0
    0.8090   -4.0650    0.7130 H   0  0  0  0  0  0  0  0  0  0  0  0
    2.6860   -1.8810    0.3000 H   0  0  0  0  0  0  0  0  0  0  0  0
    2.2940   -3.2700   -0.6180 H   0  0  0  0  0  0  0  0  0  0  0  0
    2.4310    1.3660    1.0200 C   0  0  0  0  0  0  0  0  0  0  0  0
    1.2160    1.9960    1.6110 C   0  0  0  0  0  0  0  0  0  0  0  0
    1.4390    2.1660    3.0940 C   0  0  0  0  0  0  0  0  0  0  0  0
   -0.0880    1.4170    1.2540 C   0  0  0  0  0  0  0  0  0  0  0  0
   -0.3990    0.0200    1.5880 C   0  0  2  0  0  0  0  0  0  0  0  0
    0.4700   -0.9880    1.0220 N   0  0  0  0  0  0  0  0  0  0  0  0
   -1.7720   -0.2290    0.9440 C   0  0  0  0  0  0  0  0  0  0  0  0
   -2.7580    0.4890    1.2220 O   0  0  0  0  0  0  0  0  0  0  0  0
    3.3090    1.9620    1.4170 H   0  0  0  0  0  0  0  0  0  0  0  0
    2.5000    1.5290   -0.0890 H   0  0  0  0  0  0  0  0  0  0  0  0
    2.6260    0.3440    1.3150 H   0  0  0  0  0  0  0  0  0  0  0  0
    1.2040    3.0550    1.2050 H   0  0  0  0  0  0  0  0  0  0  0  0
    1.1750    1.2860    3.6860 H   0  0  0  0  0  0  0  0  0  0  0  0
    0.8790    3.0480    3.4930 H   0  0  0  0  0  0  0  0  0  0  0  0
    2.5200    2.3630    3.2640 H   0  0  0  0  0  0  0  0  0  0  0  0
   -0.1930    1.5380    0.1310 H   0  0  0  0  0  0  0  0  0  0  0  0
   -0.8760    2.0840    1.7170 H   0  0  0  0  0  0  0  0  0  0  0  0
   -0.5800   -0.2110    2.6580 H   0  0  0  0  0  0  0  0  0  0  0  0
    0.9710   -0.8360    0.0990 H   0  0  0  0  0  0  0  0  0  0  0  0
   -1.9720   -1.2750    0.0170 N   0  0  0  0  0  0  0  0  0  0  0  0
   -3.2640   -1.4890   -0.5720 C   0  0  1  0  0  0  0  0  0  0  0  0
   -3.2000   -1.2450   -2.0910 C   0  0  0  0  0  0  0  0  0  0  0  0
   -2.7780    0.1250   -2.4140 C   0  0  0  0  0  0  0  0  0  0  0  0
   -1.4760    0.5460   -2.6000 C   0  0  0  0  0  0  0  0  0  0  0  0
   -1.4910    1.8430   -2.8770 N   0  0  0  0  0  0  0  0  0  0  0  0
   -2.7550    2.2750   -2.8760 C   0  0  0  0  0  0  0  0  0  0  0  0
   -3.5400    1.2100   -2.5900 N   0  0  0  0  0  0  0  0  0  0  0  0
   -3.8050   -2.8280   -0.3310 C   0  0  0  0  0  0  0  0  0  0  0  0
   -4.9210   -3.1700   -0.7770 O   0  0  0  0  0  0  0  0  0  0  0  0
   -3.0930   -3.7590    0.4010 O   0  0  0  0  0  0  0  0  0  0  0  0
   -1.1720   -1.8990   -0.2420 H   0  0  0  0  0  0  0  0  0  0  0  0
   -3.9550   -0.7060   -0.1840 H   0  0  0  0  0  0  0  0  0  0  0  0
   -4.2100   -1.4090   -2.5190 H   0  0  0  0  0  0  0  0  0  0  0  0
   -2.4550   -1.9560   -2.4960 H   0  0  0  0  0  0  0  0  0  0  0  0
   -0.6270   -0.1180   -2.5200 H   0  0  0  0  0  0  0  0  0  0  0  0
   -0.6650    2.4510   -3.0690 H   0  0  0  0  0  0  0  0  0  0  0  0
   -3.0900    3.2810   -3.0670 H   0  0  0  0  0  0  0  0  0  0  0  0
  1  2  1  0  0  0  0
  1 10  1  0  0  0  0
  2  3  2  0  0  0  0
  4 11  1  0  0  0  0
  4  2  1  0  0  0  0
  5 13  1  6  0  0  0
  5  7  1  0  0  0  0
  5  4  1  0  0  0  0
  6  5  1  0  0  0  0
  7  8  2  0  0  0  0
  9  1  1  0  0  0  0
 12  4  1  0  0  0  0
 14  6  1  0  0  0  0
 15  6  1  0  0  0  0
 16 26  1  0  0  0  0
 16 24  1  0  0  0  0
 16 17  1  0  0  0  0
 17 18  1  0  0  0  0
 18 30  1  0  0  0  0
 18 29  1  0  0  0  0
 18 28  1  0  0  0  0
 19 20  1  0  0  0  0
 19 17  1  0  0  0  0
 19 32  1  0  0  0  0
 20 33  1  1  0  0  0
 21 20  1  0  0  0  0
 21  7  1  0  0  0  0
 22 23  2  0  0  0  0
 22 20  1  0  0  0  0
 25 16  1  0  0  0  0
 27 17  1  0  0  0  0
 31 19  1  0  0  0  0
 34 21  1  0  0  0  0
 35 22  1  0  0  0  0
 36 43  1  0  0  0  0
 36 47  1  1  0  0  0
 36 35  1  0  0  0  0
 37 36  1  0  0  0  0
 38 37  1  0  0  0  0
 39 50  1  0  0  0  0
 39 38  2  0  0  0  0
 40 41  1  0  0  0  0
 40 39  1  0  0  0  0
 41 42  2  0  0  0  0
 42 38  1  0  0  0  0
 43 45  1  0  0  0  0
 44 43  2  0  0  0  0
 46 35  1  0  0  0  0
 48 37  1  0  0  0  0
 49 37  1  0  0  0  0
 51 40  1  0  0  0  0
 52 41  1  0  0  0  0
M  END
$$$$
