NLK.pdb
 OpenBabel07022418103D

 56 55  0  0  1  0  0  0  0  0999 V2000
    5.0420   -4.4390    0.7200 N   0  0  0  0  0  0  0  0  0  0  0  0
    3.6410   -4.1970    0.5450 C   0  0  0  0  0  0  0  0  0  0  0  0
    2.8680   -4.7990    1.3200 O   0  0  0  0  0  0  0  0  0  0  0  0
    3.1150   -3.2950   -0.4820 C   0  0  0  0  0  0  0  0  0  0  0  0
    1.6540   -3.0570   -0.3130 C   0  0  2  0  0  0  0  0  0  0  0  0
    1.1960   -2.1920   -1.4180 N   0  0  0  0  0  0  0  0  0  0  0  0
    1.3920   -2.3470    0.9670 C   0  0  0  0  0  0  0  0  0  0  0  0
    1.6200   -2.8150    2.0880 O   0  0  0  0  0  0  0  0  0  0  0  0
    5.4930   -5.1400    0.1080 H   0  0  0  0  0  0  0  0  0  0  0  0
    5.5690   -3.9250    1.4350 H   0  0  0  0  0  0  0  0  0  0  0  0
    3.3510   -3.6790   -1.5050 H   0  0  0  0  0  0  0  0  0  0  0  0
    3.6110   -2.2850   -0.4500 H   0  0  0  0  0  0  0  0  0  0  0  0
    1.1010   -3.9950   -0.3970 H   0  0  0  0  0  0  0  0  0  0  0  0
    0.1790   -2.1290   -1.4730 H   0  0  0  0  0  0  0  0  0  0  0  0
    1.7300   -1.3270   -1.4860 H   0  0  0  0  0  0  0  0  0  0  0  0
    3.2990    0.5150    0.9880 C   0  0  0  0  0  0  0  0  0  0  0  0
    2.6980    1.0510    2.2410 C   0  0  0  0  0  0  0  0  0  0  0  0
    3.1300    2.5160    2.3730 C   0  0  0  0  0  0  0  0  0  0  0  0
    1.2080    1.0370    2.2920 C   0  0  0  0  0  0  0  0  0  0  0  0
    0.5640   -0.2990    2.1670 C   0  0  2  0  0  0  0  0  0  0  0  0
    0.8310   -1.0120    0.9610 N   0  0  0  0  0  0  0  0  0  0  0  0
   -0.9150   -0.0900    2.3330 C   0  0  0  0  0  0  0  0  0  0  0  0
   -1.3390    0.5250    3.3450 O   0  0  0  0  0  0  0  0  0  0  0  0
    4.2510    1.0820    0.7950 H   0  0  0  0  0  0  0  0  0  0  0  0
    3.6340   -0.5260    1.1760 H   0  0  0  0  0  0  0  0  0  0  0  0
    2.6880    0.6450    0.0890 H   0  0  0  0  0  0  0  0  0  0  0  0
    3.1670    0.5330    3.1080 H   0  0  0  0  0  0  0  0  0  0  0  0
    4.2080    2.5360    2.1180 H   0  0  0  0  0  0  0  0  0  0  0  0
    2.9320    2.8860    3.3970 H   0  0  0  0  0  0  0  0  0  0  0  0
    2.5780    3.1050    1.6130 H   0  0  0  0  0  0  0  0  0  0  0  0
    0.9220    1.4330    3.3080 H   0  0  0  0  0  0  0  0  0  0  0  0
    0.7920    1.7770    1.5770 H   0  0  0  0  0  0  0  0  0  0  0  0
    0.8590   -0.9120    3.0450 H   0  0  0  0  0  0  0  0  0  0  0  0
    0.6180   -0.5670    0.0460 H   0  0  0  0  0  0  0  0  0  0  0  0
   -1.8520   -0.5690    1.3770 N   0  0  0  0  0  0  0  0  0  0  0  0
   -3.2880   -0.3630    1.5450 C   0  0  1  0  0  0  0  0  0  0  0  0
   -3.8560    0.4030    0.3900 C   0  0  0  0  0  0  0  0  0  0  0  0
   -3.6570   -0.3140   -0.9300 C   0  0  0  0  0  0  0  0  0  0  0  0
   -4.2730    0.5630   -2.0020 C   0  0  0  0  0  0  0  0  0  0  0  0
   -4.1410   -0.0430   -3.3780 C   0  0  0  0  0  0  0  0  0  0  0  0
   -2.7790   -0.2570   -3.7790 N   0  0  0  0  0  0  0  0  0  0  0  0
   -3.9950   -1.6830    1.6090 C   0  0  0  0  0  0  0  0  0  0  0  0
   -5.2430   -1.7060    1.7530 O   0  0  0  0  0  0  0  0  0  0  0  0
   -3.3350   -2.8970    1.5150 O   0  0  0  0  0  0  0  0  0  0  0  0
   -1.5140   -1.0760    0.5420 H   0  0  0  0  0  0  0  0  0  0  0  0
   -3.4700    0.1860    2.4700 H   0  0  0  0  0  0  0  0  0  0  0  0
   -3.3720    1.4030    0.3640 H   0  0  0  0  0  0  0  0  0  0  0  0
   -4.9300    0.5850    0.5860 H   0  0  0  0  0  0  0  0  0  0  0  0
   -2.6090   -0.5570   -1.1230 H   0  0  0  0  0  0  0  0  0  0  0  0
   -4.2590   -1.2430   -0.8880 H   0  0  0  0  0  0  0  0  0  0  0  0
   -5.3640    0.6170   -1.7780 H   0  0  0  0  0  0  0  0  0  0  0  0
   -3.8140    1.5500   -1.9340 H   0  0  0  0  0  0  0  0  0  0  0  0
   -4.7100   -1.0080   -3.3930 H   0  0  0  0  0  0  0  0  0  0  0  0
   -4.6460    0.6490   -4.0820 H   0  0  0  0  0  0  0  0  0  0  0  0
   -2.6420    0.1220   -4.7270 H   0  0  0  0  0  0  0  0  0  0  0  0
   -2.1090    0.1950   -3.1370 H   0  0  0  0  0  0  0  0  0  0  0  0
  1 10  1  0  0  0  0
  2  1  1  0  0  0  0
  2  3  2  0  0  0  0
  4 12  1  0  0  0  0
  4  5  1  0  0  0  0
  4  2  1  0  0  0  0
  5 13  1  6  0  0  0
  5  7  1  0  0  0  0
  6  5  1  0  0  0  0
  7  8  2  0  0  0  0
  9  1  1  0  0  0  0
 11  4  1  0  0  0  0
 14  6  1  0  0  0  0
 15  6  1  0  0  0  0
 16 25  1  0  0  0  0
 16 17  1  0  0  0  0
 17 19  1  0  0  0  0
 17 18  1  0  0  0  0
 17 27  1  0  0  0  0
 18 29  1  0  0  0  0
 19 31  1  0  0  0  0
 20 19  1  0  0  0  0
 20 22  1  0  0  0  0
 20 33  1  1  0  0  0
 21  7  1  0  0  0  0
 21 20  1  0  0  0  0
 22 23  2  0  0  0  0
 24 16  1  0  0  0  0
 26 16  1  0  0  0  0
 28 18  1  0  0  0  0
 30 18  1  0  0  0  0
 32 19  1  0  0  0  0
 34 21  1  0  0  0  0
 35 36  1  0  0  0  0
 35 22  1  0  0  0  0
 36 42  1  0  0  0  0
 36 46  1  1  0  0  0
 37 48  1  0  0  0  0
 37 36  1  0  0  0  0
 38 50  1  0  0  0  0
 38 37  1  0  0  0  0
 39 52  1  0  0  0  0
 39 51  1  0  0  0  0
 39 38  1  0  0  0  0
 40 39  1  0  0  0  0
 41 40  1  0  0  0  0
 41 56  1  0  0  0  0
 42 43  1  0  0  0  0
 44 42  2  0  0  0  0
 45 35  1  0  0  0  0
 47 37  1  0  0  0  0
 49 38  1  0  0  0  0
 53 40  1  0  0  0  0
 54 40  1  0  0  0  0
 55 41  1  0  0  0  0
M  END
$$$$
