NLL.pdb
 OpenBabel07022418103D

 54 53  0  0  1  0  0  0  0  0999 V2000
    5.1990   -1.8860    1.7930 N   0  0  0  0  0  0  0  0  0  0  0  0
    4.3150   -2.7900    2.4720 C   0  0  0  0  0  0  0  0  0  0  0  0
    4.1650   -3.9480    1.9950 O   0  0  0  0  0  0  0  0  0  0  0  0
    3.5780   -2.4210    3.6970 C   0  0  0  0  0  0  0  0  0  0  0  0
    2.1250   -2.0940    3.4050 C   0  0  2  0  0  0  0  0  0  0  0  0
    1.5190   -3.2680    2.8210 N   0  0  0  0  0  0  0  0  0  0  0  0
    2.0040   -0.9450    2.4570 C   0  0  0  0  0  0  0  0  0  0  0  0
    2.4720    0.1790    2.7760 O   0  0  0  0  0  0  0  0  0  0  0  0
    4.8520   -1.4700    0.8890 H   0  0  0  0  0  0  0  0  0  0  0  0
    6.1310   -1.6700    2.1970 H   0  0  0  0  0  0  0  0  0  0  0  0
    3.6050   -3.2110    4.4470 H   0  0  0  0  0  0  0  0  0  0  0  0
    4.0560   -1.4920    4.0990 H   0  0  0  0  0  0  0  0  0  0  0  0
    1.5810   -1.8950    4.3510 H   0  0  0  0  0  0  0  0  0  0  0  0
    1.8740   -3.5020    1.8860 H   0  0  0  0  0  0  0  0  0  0  0  0
    0.4690   -3.2530    2.8620 H   0  0  0  0  0  0  0  0  0  0  0  0
    2.3710    0.6270   -3.3390 C   0  0  0  0  0  0  0  0  0  0  0  0
    1.7270    0.9610   -1.9710 C   0  0  0  0  0  0  0  0  0  0  0  0
    2.3540    2.2240   -1.5030 C   0  0  0  0  0  0  0  0  0  0  0  0
    1.8420   -0.1990   -1.0430 C   0  0  0  0  0  0  0  0  0  0  0  0
    1.2670    0.0710    0.2800 C   0  0  2  0  0  0  0  0  0  0  0  0
    1.3850   -1.0470    1.2030 N   0  0  0  0  0  0  0  0  0  0  0  0
   -0.1790    0.3990    0.1670 C   0  0  0  0  0  0  0  0  0  0  0  0
   -0.6560    1.3640   -0.4750 O   0  0  0  0  0  0  0  0  0  0  0  0
    1.6930    0.0130   -3.9430 H   0  0  0  0  0  0  0  0  0  0  0  0
    2.4750    1.6070   -3.8460 H   0  0  0  0  0  0  0  0  0  0  0  0
    3.3590    0.1870   -3.1820 H   0  0  0  0  0  0  0  0  0  0  0  0
    0.6520    1.1630   -2.2280 H   0  0  0  0  0  0  0  0  0  0  0  0
    2.1410    2.5050   -0.4680 H   0  0  0  0  0  0  0  0  0  0  0  0
    1.9300    3.0610   -2.1330 H   0  0  0  0  0  0  0  0  0  0  0  0
    3.4580    2.2570   -1.6770 H   0  0  0  0  0  0  0  0  0  0  0  0
    2.9020   -0.5250   -1.0420 H   0  0  0  0  0  0  0  0  0  0  0  0
    1.2470   -1.0340   -1.5230 H   0  0  0  0  0  0  0  0  0  0  0  0
    1.7520    0.9360    0.7770 H   0  0  0  0  0  0  0  0  0  0  0  0
    0.9890   -1.9500    0.9020 H   0  0  0  0  0  0  0  0  0  0  0  0
   -5.1060    0.2200   -0.8050 C   0  0  0  0  0  0  0  0  0  0  0  0
   -4.8250   -0.9760    0.0890 C   0  0  0  0  0  0  0  0  0  0  0  0
   -5.5480   -2.1850   -0.5450 C   0  0  0  0  0  0  0  0  0  0  0  0
   -3.3680   -1.2840    0.1840 C   0  0  0  0  0  0  0  0  0  0  0  0
   -2.6010   -0.1270    0.7330 C   0  0  2  0  0  0  0  0  0  0  0  0
   -1.1780   -0.4140    0.8200 N   0  0  0  0  0  0  0  0  0  0  0  0
   -3.0300    0.2650    2.0970 C   0  0  0  0  0  0  0  0  0  0  0  0
   -2.1900    0.2600    3.0630 O   0  0  0  0  0  0  0  0  0  0  0  0
   -4.3160    0.6550    2.4350 O   0  0  0  0  0  0  0  0  0  0  0  0
   -4.2900    0.4300   -1.4970 H   0  0  0  0  0  0  0  0  0  0  0  0
   -6.0610    0.0220   -1.3280 H   0  0  0  0  0  0  0  0  0  0  0  0
   -5.2850    1.1060   -0.1580 H   0  0  0  0  0  0  0  0  0  0  0  0
   -5.3500   -0.8110    1.0360 H   0  0  0  0  0  0  0  0  0  0  0  0
   -5.3980   -2.1330   -1.6420 H   0  0  0  0  0  0  0  0  0  0  0  0
   -6.6250   -2.0850   -0.3190 H   0  0  0  0  0  0  0  0  0  0  0  0
   -5.1380   -3.1050   -0.0880 H   0  0  0  0  0  0  0  0  0  0  0  0
   -2.9330   -1.5620   -0.7850 H   0  0  0  0  0  0  0  0  0  0  0  0
   -3.2540   -2.1490    0.8740 H   0  0  0  0  0  0  0  0  0  0  0  0
   -2.7010    0.7890    0.1020 H   0  0  0  0  0  0  0  0  0  0  0  0
   -0.8570   -1.2280    1.3690 H   0  0  0  0  0  0  0  0  0  0  0  0
  1 10  1  0  0  0  0
  1  2  1  0  0  0  0
  2  4  1  0  0  0  0
  3  2  2  0  0  0  0
  4 12  1  0  0  0  0
  4 11  1  0  0  0  0
  5  4  1  0  0  0  0
  5 13  1  1  0  0  0
  6 15  1  0  0  0  0
  6  5  1  0  0  0  0
  7  8  2  0  0  0  0
  7  5  1  0  0  0  0
  9  1  1  0  0  0  0
 14  6  1  0  0  0  0
 16 26  1  0  0  0  0
 16 17  1  0  0  0  0
 17 18  1  0  0  0  0
 17 19  1  0  0  0  0
 18 28  1  0  0  0  0
 19 31  1  0  0  0  0
 19 20  1  0  0  0  0
 20 33  1  1  0  0  0
 20 21  1  0  0  0  0
 21  7  1  0  0  0  0
 22 20  1  0  0  0  0
 22 40  1  0  0  0  0
 23 22  2  0  0  0  0
 24 16  1  0  0  0  0
 25 16  1  0  0  0  0
 27 17  1  0  0  0  0
 29 18  1  0  0  0  0
 30 18  1  0  0  0  0
 32 19  1  0  0  0  0
 34 21  1  0  0  0  0
 35 46  1  0  0  0  0
 35 36  1  0  0  0  0
 36 38  1  0  0  0  0
 36 47  1  0  0  0  0
 37 49  1  0  0  0  0
 37 50  1  0  0  0  0
 37 36  1  0  0  0  0
 38 39  1  0  0  0  0
 38 52  1  0  0  0  0
 39 53  1  6  0  0  0
 39 40  1  0  0  0  0
 39 41  1  0  0  0  0
 40 54  1  0  0  0  0
 41 43  2  0  0  0  0
 41 42  1  0  0  0  0
 44 35  1  0  0  0  0
 45 35  1  0  0  0  0
 48 37  1  0  0  0  0
 51 38  1  0  0  0  0
M  END
$$$$
