NLM.pdb
 OpenBabel07022418103D

 52 51  0  0  1  0  0  0  0  0999 V2000
    4.4910   -1.3650    3.2850 N   0  0  0  0  0  0  0  0  0  0  0  0
    3.5840   -1.6400    4.3440 C   0  0  0  0  0  0  0  0  0  0  0  0
    3.3390   -2.8250    4.6820 O   0  0  0  0  0  0  0  0  0  0  0  0
    2.9440   -0.4910    5.0290 C   0  0  0  0  0  0  0  0  0  0  0  0
    1.5450   -0.2380    4.5010 C   0  0  2  0  0  0  0  0  0  0  0  0
    0.7700   -1.4350    4.7390 N   0  0  0  0  0  0  0  0  0  0  0  0
    1.5560    0.0460    3.0450 C   0  0  0  0  0  0  0  0  0  0  0  0
    2.1640    1.0580    2.5930 O   0  0  0  0  0  0  0  0  0  0  0  0
    4.4130   -1.8130    2.3590 H   0  0  0  0  0  0  0  0  0  0  0  0
    5.2540   -0.6740    3.4910 H   0  0  0  0  0  0  0  0  0  0  0  0
    2.8380   -0.7840    6.0940 H   0  0  0  0  0  0  0  0  0  0  0  0
    3.5500    0.4210    4.9140 H   0  0  0  0  0  0  0  0  0  0  0  0
    1.0500    0.5790    5.0640 H   0  0  0  0  0  0  0  0  0  0  0  0
    1.1090   -2.2780    4.2680 H   0  0  0  0  0  0  0  0  0  0  0  0
   -0.2420   -1.2830    4.7500 H   0  0  0  0  0  0  0  0  0  0  0  0
    2.3070   -2.7810   -2.1120 C   0  0  0  0  0  0  0  0  0  0  0  0
    1.5830   -1.5820   -1.4680 C   0  0  0  0  0  0  0  0  0  0  0  0
    2.2990   -0.3180   -1.9000 C   0  0  0  0  0  0  0  0  0  0  0  0
    1.5560   -1.7320    0.0170 C   0  0  0  0  0  0  0  0  0  0  0  0
    0.8580   -0.5800    0.6780 C   0  0  2  0  0  0  0  0  0  0  0  0
    0.8930   -0.8000    2.1500 N   0  0  0  0  0  0  0  0  0  0  0  0
   -0.5780   -0.4770    0.3660 C   0  0  0  0  0  0  0  0  0  0  0  0
   -1.4140   -0.8400    1.2720 O   0  0  0  0  0  0  0  0  0  0  0  0
    1.5890   -3.6030   -2.1590 H   0  0  0  0  0  0  0  0  0  0  0  0
    2.5520   -2.4700   -3.1370 H   0  0  0  0  0  0  0  0  0  0  0  0
    3.2390   -3.0120   -1.5620 H   0  0  0  0  0  0  0  0  0  0  0  0
    0.5910   -1.5910   -1.9570 H   0  0  0  0  0  0  0  0  0  0  0  0
    2.7890    0.1590   -1.0130 H   0  0  0  0  0  0  0  0  0  0  0  0
    1.6330    0.4150   -2.3640 H   0  0  0  0  0  0  0  0  0  0  0  0
    3.1110   -0.5830   -2.6430 H   0  0  0  0  0  0  0  0  0  0  0  0
    2.6010   -1.8190    0.3640 H   0  0  0  0  0  0  0  0  0  0  0  0
    0.9580   -2.6390    0.2430 H   0  0  0  0  0  0  0  0  0  0  0  0
    1.4370    0.3370    0.4770 H   0  0  0  0  0  0  0  0  0  0  0  0
    0.3910   -1.6280    2.4760 H   0  0  0  0  0  0  0  0  0  0  0  0
   -5.4530   -0.6440    0.4920 C   0  0  0  0  0  0  0  0  0  0  0  0
   -5.4900    1.0750    0.0760 S   0  0  0  0  0  0  0  0  0  0  0  0
   -4.5270    1.5950   -1.3400 C   0  0  0  0  0  0  0  0  0  0  0  0
   -3.0600    1.4550   -1.1840 C   0  0  0  0  0  0  0  0  0  0  0  0
   -2.6340    0.0390   -1.0230 C   0  0  2  0  0  0  0  0  0  0  0  0
   -1.1580   -0.0170   -0.8190 N   0  0  0  0  0  0  0  0  0  0  0  0
   -2.9780   -0.7970   -2.1890 C   0  0  0  0  0  0  0  0  0  0  0  0
   -2.0250   -1.4240   -2.7650 O   0  0  0  0  0  0  0  0  0  0  0  0
   -4.2180   -0.9880   -2.7450 O   0  0  0  0  0  0  0  0  0  0  0  0
   -4.8350   -0.8590    1.3970 H   0  0  0  0  0  0  0  0  0  0  0  0
   -6.5100   -0.9300    0.8160 H   0  0  0  0  0  0  0  0  0  0  0  0
   -5.2390   -1.3560   -0.3210 H   0  0  0  0  0  0  0  0  0  0  0  0
   -4.9240    1.1290   -2.2780 H   0  0  0  0  0  0  0  0  0  0  0  0
   -4.7750    2.7010   -1.4970 H   0  0  0  0  0  0  0  0  0  0  0  0
   -2.4790    1.9550   -1.9950 H   0  0  0  0  0  0  0  0  0  0  0  0
   -2.7850    1.9870   -0.2280 H   0  0  0  0  0  0  0  0  0  0  0  0
   -3.0670   -0.3870   -0.1130 H   0  0  0  0  0  0  0  0  0  0  0  0
   -0.5930    0.3220   -1.5960 H   0  0  0  0  0  0  0  0  0  0  0  0
  1 10  1  0  0  0  0
  1  2  1  0  0  0  0
  2  3  2  0  0  0  0
  2  4  1  0  0  0  0
  4 11  1  0  0  0  0
  5  6  1  0  0  0  0
  5  4  1  0  0  0  0
  5 13  1  1  0  0  0
  6 15  1  0  0  0  0
  7  5  1  0  0  0  0
  8  7  2  0  0  0  0
  9  1  1  0  0  0  0
 12  4  1  0  0  0  0
 14  6  1  0  0  0  0
 16 26  1  0  0  0  0
 16 17  1  0  0  0  0
 17 19  1  0  0  0  0
 18 17  1  0  0  0  0
 18 28  1  0  0  0  0
 19 32  1  0  0  0  0
 19 31  1  0  0  0  0
 19 20  1  0  0  0  0
 20 33  1  6  0  0  0
 20 21  1  0  0  0  0
 21 34  1  0  0  0  0
 21  7  1  0  0  0  0
 22 20  1  0  0  0  0
 22 23  2  0  0  0  0
 24 16  1  0  0  0  0
 25 16  1  0  0  0  0
 27 17  1  0  0  0  0
 29 18  1  0  0  0  0
 30 18  1  0  0  0  0
 35 45  1  0  0  0  0
 35 44  1  0  0  0  0
 36 35  1  0  0  0  0
 37 38  1  0  0  0  0
 37 36  1  0  0  0  0
 38 39  1  0  0  0  0
 38 50  1  0  0  0  0
 39 40  1  0  0  0  0
 39 51  1  1  0  0  0
 40 22  1  0  0  0  0
 41 39  1  0  0  0  0
 42 41  2  0  0  0  0
 43 41  1  0  0  0  0
 46 35  1  0  0  0  0
 47 37  1  0  0  0  0
 48 37  1  0  0  0  0
 49 38  1  0  0  0  0
 52 40  1  0  0  0  0
M  END
$$$$
