NLN.pdb
 OpenBabel07022418103D

 49 48  0  0  1  0  0  0  0  0999 V2000
    4.1740   -3.4430    6.0270 N   0  0  0  0  0  0  0  0  0  0  0  0
    2.8650   -3.2160    5.5370 C   0  0  0  0  0  0  0  0  0  0  0  0
    1.8970   -3.8240    6.0580 O   0  0  0  0  0  0  0  0  0  0  0  0
    2.6010   -2.2650    4.4080 C   0  0  0  0  0  0  0  0  0  0  0  0
    1.1020   -2.2280    4.1030 C   0  0  2  0  0  0  0  0  0  0  0  0
    0.7090   -3.5510    3.7420 N   0  0  0  0  0  0  0  0  0  0  0  0
    0.9540   -1.2780    2.9520 C   0  0  0  0  0  0  0  0  0  0  0  0
    1.2500   -0.0700    3.0870 O   0  0  0  0  0  0  0  0  0  0  0  0
    4.4750   -4.3690    6.4000 H   0  0  0  0  0  0  0  0  0  0  0  0
    4.8800   -2.6700    6.0260 H   0  0  0  0  0  0  0  0  0  0  0  0
    2.9860   -1.2860    4.7170 H   0  0  0  0  0  0  0  0  0  0  0  0
    3.1780   -2.6220    3.5530 H   0  0  0  0  0  0  0  0  0  0  0  0
    0.5340   -1.8990    4.9840 H   0  0  0  0  0  0  0  0  0  0  0  0
    0.2110   -4.0870    4.4550 H   0  0  0  0  0  0  0  0  0  0  0  0
    1.3400   -4.0610    3.1220 H   0  0  0  0  0  0  0  0  0  0  0  0
    2.3400   -0.9280   -2.7240 C   0  0  0  0  0  0  0  0  0  0  0  0
    1.2880   -0.3230   -1.7540 C   0  0  0  0  0  0  0  0  0  0  0  0
    1.7300    1.0900   -1.5380 C   0  0  0  0  0  0  0  0  0  0  0  0
    1.2800   -1.1640   -0.5330 C   0  0  0  0  0  0  0  0  0  0  0  0
    0.3380   -0.7490    0.5440 C   0  0  2  0  0  0  0  0  0  0  0  0
    0.4820   -1.7060    1.6870 N   0  0  0  0  0  0  0  0  0  0  0  0
   -1.0880   -0.6950    0.1660 C   0  0  0  0  0  0  0  0  0  0  0  0
   -1.9100   -1.5450    0.6820 O   0  0  0  0  0  0  0  0  0  0  0  0
    2.1460   -0.4520   -3.7060 H   0  0  0  0  0  0  0  0  0  0  0  0
    3.3310   -0.5480   -2.3870 H   0  0  0  0  0  0  0  0  0  0  0  0
    2.2640   -2.0130   -2.7580 H   0  0  0  0  0  0  0  0  0  0  0  0
    0.3430   -0.4170   -2.3520 H   0  0  0  0  0  0  0  0  0  0  0  0
    1.4320    1.5020   -0.5530 H   0  0  0  0  0  0  0  0  0  0  0  0
    1.2340    1.7110   -2.3400 H   0  0  0  0  0  0  0  0  0  0  0  0
    2.8240    1.2430   -1.6310 H   0  0  0  0  0  0  0  0  0  0  0  0
    0.9880   -2.2070   -0.8710 H   0  0  0  0  0  0  0  0  0  0  0  0
    2.3210   -1.2930   -0.1640 H   0  0  0  0  0  0  0  0  0  0  0  0
    0.6610    0.2290    0.9380 H   0  0  0  0  0  0  0  0  0  0  0  0
    0.2370   -2.7090    1.5770 H   0  0  0  0  0  0  0  0  0  0  0  0
   -3.6500    3.9610   -0.7290 N   0  0  0  0  0  0  0  0  0  0  0  0
   -3.1840    2.6880   -1.1510 C   0  0  0  0  0  0  0  0  0  0  0  0
   -2.3130    2.6410   -2.0450 O   0  0  0  0  0  0  0  0  0  0  0  0
   -3.7290    1.4650   -0.5360 C   0  0  0  0  0  0  0  0  0  0  0  0
   -3.1090    0.1840   -1.0310 C   0  0  2  0  0  0  0  0  0  0  0  0
   -1.6900    0.2120   -0.7220 N   0  0  0  0  0  0  0  0  0  0  0  0
   -3.2680    0.0950   -2.4970 C   0  0  0  0  0  0  0  0  0  0  0  0
   -4.4150    0.0490   -3.0450 O   0  0  0  0  0  0  0  0  0  0  0  0
   -2.1630    0.0600   -3.3090 O   0  0  0  0  0  0  0  0  0  0  0  0
   -4.4440    4.3850   -1.2520 H   0  0  0  0  0  0  0  0  0  0  0  0
   -3.2450    4.4820    0.0620 H   0  0  0  0  0  0  0  0  0  0  0  0
   -4.8410    1.4240   -0.6670 H   0  0  0  0  0  0  0  0  0  0  0  0
   -3.5610    1.5760    0.5730 H   0  0  0  0  0  0  0  0  0  0  0  0
   -3.6210   -0.6570   -0.5140 H   0  0  0  0  0  0  0  0  0  0  0  0
   -1.0970    0.9360   -1.1620 H   0  0  0  0  0  0  0  0  0  0  0  0
  1  9  1  0  0  0  0
  2  1  1  0  0  0  0
  2  3  2  0  0  0  0
  4 11  1  0  0  0  0
  4  2  1  0  0  0  0
  5  4  1  0  0  0  0
  5 13  1  1  0  0  0
  6  5  1  0  0  0  0
  6 14  1  0  0  0  0
  7  8  2  0  0  0  0
  7  5  1  0  0  0  0
 10  1  1  0  0  0  0
 12  4  1  0  0  0  0
 15  6  1  0  0  0  0
 16 25  1  0  0  0  0
 16 17  1  0  0  0  0
 17 18  1  0  0  0  0
 17 19  1  0  0  0  0
 18 28  1  0  0  0  0
 19 32  1  0  0  0  0
 19 20  1  0  0  0  0
 20 33  1  1  0  0  0
 20 21  1  0  0  0  0
 21  7  1  0  0  0  0
 22 20  1  0  0  0  0
 22 23  2  0  0  0  0
 24 16  1  0  0  0  0
 26 16  1  0  0  0  0
 27 17  1  0  0  0  0
 29 18  1  0  0  0  0
 30 18  1  0  0  0  0
 31 19  1  0  0  0  0
 34 21  1  0  0  0  0
 35 45  1  0  0  0  0
 36 35  1  0  0  0  0
 36 38  1  0  0  0  0
 37 36  2  0  0  0  0
 38 47  1  0  0  0  0
 39 40  1  0  0  0  0
 39 38  1  0  0  0  0
 39 48  1  1  0  0  0
 40 22  1  0  0  0  0
 41 39  1  0  0  0  0
 42 41  1  0  0  0  0
 43 41  2  0  0  0  0
 44 35  1  0  0  0  0
 46 38  1  0  0  0  0
 49 40  1  0  0  0  0
M  END
$$$$
