NLQ.pdb
 OpenBabel07022418103D

 52 51  0  0  1  0  0  0  0  0999 V2000
   -1.4010    0.0900    6.7500 N   0  0  0  0  0  0  0  0  0  0  0  0
   -0.4100    0.5950    5.8890 C   0  0  0  0  0  0  0  0  0  0  0  0
    0.3290    1.5400    6.2750 O   0  0  0  0  0  0  0  0  0  0  0  0
   -0.2740   -0.0160    4.5450 C   0  0  0  0  0  0  0  0  0  0  0  0
    0.8310    0.6290    3.7330 C   0  0  2  0  0  0  0  0  0  0  0  0
    0.5740    2.0280    3.5450 N   0  0  0  0  0  0  0  0  0  0  0  0
    0.8930   -0.1250    2.4430 C   0  0  0  0  0  0  0  0  0  0  0  0
    1.1110   -1.3340    2.5130 O   0  0  0  0  0  0  0  0  0  0  0  0
   -2.2770   -0.2870    6.3610 H   0  0  0  0  0  0  0  0  0  0  0  0
   -1.2520    0.0970    7.7710 H   0  0  0  0  0  0  0  0  0  0  0  0
    0.0520   -1.0810    4.7090 H   0  0  0  0  0  0  0  0  0  0  0  0
   -1.2020   -0.0170    3.9700 H   0  0  0  0  0  0  0  0  0  0  0  0
    1.8010    0.5420    4.2920 H   0  0  0  0  0  0  0  0  0  0  0  0
   -0.2780    2.2000    2.9710 H   0  0  0  0  0  0  0  0  0  0  0  0
    1.3890    2.5760    3.2550 H   0  0  0  0  0  0  0  0  0  0  0  0
    2.1680    1.8790   -1.8410 C   0  0  0  0  0  0  0  0  0  0  0  0
    2.8680    0.8610   -0.9890 C   0  0  0  0  0  0  0  0  0  0  0  0
    3.3970    1.4410    0.2800 C   0  0  0  0  0  0  0  0  0  0  0  0
    2.0110   -0.3840   -0.7650 C   0  0  0  0  0  0  0  0  0  0  0  0
    0.7390   -0.1180   -0.1010 C   0  0  2  0  0  0  0  0  0  0  0  0
    0.7190    0.4610    1.1780 N   0  0  0  0  0  0  0  0  0  0  0  0
   -0.1170   -1.3630   -0.1530 C   0  0  0  0  0  0  0  0  0  0  0  0
   -0.7450   -1.6630    0.8700 O   0  0  0  0  0  0  0  0  0  0  0  0
    2.9270    2.6280   -2.1490 H   0  0  0  0  0  0  0  0  0  0  0  0
    1.8410    1.3770   -2.7830 H   0  0  0  0  0  0  0  0  0  0  0  0
    1.3290    2.3500   -1.2950 H   0  0  0  0  0  0  0  0  0  0  0  0
    3.7620    0.5160   -1.5890 H   0  0  0  0  0  0  0  0  0  0  0  0
    4.4020    1.8350    0.1050 H   0  0  0  0  0  0  0  0  0  0  0  0
    2.7370    2.2730    0.6180 H   0  0  0  0  0  0  0  0  0  0  0  0
    3.4400    0.6220    1.0380 H   0  0  0  0  0  0  0  0  0  0  0  0
    1.7890   -0.7200   -1.8040 H   0  0  0  0  0  0  0  0  0  0  0  0
    2.6520   -1.1630   -0.3410 H   0  0  0  0  0  0  0  0  0  0  0  0
    0.1300    0.5620   -0.7960 H   0  0  0  0  0  0  0  0  0  0  0  0
    0.5480    1.5190    1.2340 H   0  0  0  0  0  0  0  0  0  0  0  0
   -4.5600   -0.9140   -0.5350 N   0  0  0  0  0  0  0  0  0  0  0  0
   -3.7900   -2.0620   -0.8980 C   0  0  0  0  0  0  0  0  0  0  0  0
   -3.7890   -3.0600   -0.1510 O   0  0  0  0  0  0  0  0  0  0  0  0
   -3.0280   -2.0210   -2.1450 C   0  0  0  0  0  0  0  0  0  0  0  0
   -2.1540   -3.2070   -2.3120 C   0  0  0  0  0  0  0  0  0  0  0  0
   -1.0920   -3.3820   -1.2540 C   0  0  2  0  0  0  0  0  0  0  0  0
   -0.2350   -2.1830   -1.2880 N   0  0  0  0  0  0  0  0  0  0  0  0
   -0.2750   -4.5960   -1.5140 C   0  0  0  0  0  0  0  0  0  0  0  0
    0.9540   -4.5070   -1.7210 O   0  0  0  0  0  0  0  0  0  0  0  0
   -0.8590   -5.8460   -1.5330 O   0  0  0  0  0  0  0  0  0  0  0  0
   -5.4160   -0.7350   -1.1090 H   0  0  0  0  0  0  0  0  0  0  0  0
   -4.2400   -0.3350    0.2550 H   0  0  0  0  0  0  0  0  0  0  0  0
   -2.4190   -1.0910   -2.2340 H   0  0  0  0  0  0  0  0  0  0  0  0
   -3.7470   -2.0270   -3.0120 H   0  0  0  0  0  0  0  0  0  0  0  0
   -2.7620   -4.1520   -2.3000 H   0  0  0  0  0  0  0  0  0  0  0  0
   -1.6790   -3.2140   -3.3310 H   0  0  0  0  0  0  0  0  0  0  0  0
   -1.5650   -3.4930   -0.2800 H   0  0  0  0  0  0  0  0  0  0  0  0
    0.2770   -1.9480   -2.1550 H   0  0  0  0  0  0  0  0  0  0  0  0
  1 10  1  0  0  0  0
  2  3  2  0  0  0  0
  2  1  1  0  0  0  0
  4 11  1  0  0  0  0
  4  2  1  0  0  0  0
  5 13  1  1  0  0  0
  5  4  1  0  0  0  0
  6  5  1  0  0  0  0
  7  8  2  0  0  0  0
  7  5  1  0  0  0  0
  9  1  1  0  0  0  0
 12  4  1  0  0  0  0
 14  6  1  0  0  0  0
 15  6  1  0  0  0  0
 16 26  1  0  0  0  0
 16 17  1  0  0  0  0
 17 19  1  0  0  0  0
 17 18  1  0  0  0  0
 18 29  1  0  0  0  0
 18 30  1  0  0  0  0
 19 32  1  0  0  0  0
 19 20  1  0  0  0  0
 20 33  1  6  0  0  0
 20 21  1  0  0  0  0
 21 34  1  0  0  0  0
 21  7  1  0  0  0  0
 22 20  1  0  0  0  0
 22 23  2  0  0  0  0
 24 16  1  0  0  0  0
 25 16  1  0  0  0  0
 27 17  1  0  0  0  0
 28 18  1  0  0  0  0
 31 19  1  0  0  0  0
 35 46  1  0  0  0  0
 36 35  1  0  0  0  0
 36 37  2  0  0  0  0
 38 36  1  0  0  0  0
 39 49  1  0  0  0  0
 39 38  1  0  0  0  0
 39 40  1  0  0  0  0
 40 51  1  1  0  0  0
 41 40  1  0  0  0  0
 41 22  1  0  0  0  0
 42 40  1  0  0  0  0
 43 42  2  0  0  0  0
 44 42  1  0  0  0  0
 45 35  1  0  0  0  0
 47 38  1  0  0  0  0
 48 38  1  0  0  0  0
 50 39  1  0  0  0  0
 52 41  1  0  0  0  0
M  END
$$$$
