NLR.pdb
 OpenBabel07022418103D

 58 57  0  0  1  0  0  0  0  0999 V2000
   -1.5900   -1.4040    3.4710 N   0  0  0  0  0  0  0  0  0  0  0  0
   -0.4780   -2.2890    3.5580 C   0  0  0  0  0  0  0  0  0  0  0  0
   -0.7250   -3.5090    3.3780 O   0  0  0  0  0  0  0  0  0  0  0  0
    0.9110   -1.8060    3.8450 C   0  0  0  0  0  0  0  0  0  0  0  0
    0.9290   -0.3020    3.9960 C   0  0  2  0  0  0  0  0  0  0  0  0
    0.0450    0.0200    5.0990 N   0  0  0  0  0  0  0  0  0  0  0  0
    0.5310    0.3650    2.7450 C   0  0  0  0  0  0  0  0  0  0  0  0
   -0.4830    1.1040    2.6820 O   0  0  0  0  0  0  0  0  0  0  0  0
   -1.9860   -0.9730    4.3560 H   0  0  0  0  0  0  0  0  0  0  0  0
   -2.0480   -1.1470    2.5840 H   0  0  0  0  0  0  0  0  0  0  0  0
    1.2160   -2.2690    4.8070 H   0  0  0  0  0  0  0  0  0  0  0  0
    1.5730   -2.1820    3.0670 H   0  0  0  0  0  0  0  0  0  0  0  0
    1.9500    0.0120    4.3140 H   0  0  0  0  0  0  0  0  0  0  0  0
    0.3620   -0.5270    5.9300 H   0  0  0  0  0  0  0  0  0  0  0  0
    0.1320    1.0370    5.3680 H   0  0  0  0  0  0  0  0  0  0  0  0
    4.2060    2.5330   -1.0270 C   0  0  0  0  0  0  0  0  0  0  0  0
    3.3980    1.3500   -0.4600 C   0  0  0  0  0  0  0  0  0  0  0  0
    3.5330    0.2520   -1.5230 C   0  0  0  0  0  0  0  0  0  0  0  0
    1.9780    1.7370   -0.2450 C   0  0  0  0  0  0  0  0  0  0  0  0
    1.0520    0.7480    0.3040 C   0  0  2  0  0  0  0  0  0  0  0  0
    1.3110    0.1730    1.5740 N   0  0  0  0  0  0  0  0  0  0  0  0
    0.6570   -0.2620   -0.7110 C   0  0  0  0  0  0  0  0  0  0  0  0
    0.5340    0.0360   -1.9250 O   0  0  0  0  0  0  0  0  0  0  0  0
    4.8680    2.2220   -1.8570 H   0  0  0  0  0  0  0  0  0  0  0  0
    4.8830    2.9420   -0.2370 H   0  0  0  0  0  0  0  0  0  0  0  0
    3.5270    3.3290   -1.3820 H   0  0  0  0  0  0  0  0  0  0  0  0
    3.9270    1.0050    0.4280 H   0  0  0  0  0  0  0  0  0  0  0  0
    3.1480    0.6400   -2.4870 H   0  0  0  0  0  0  0  0  0  0  0  0
    4.6250    0.0540   -1.7210 H   0  0  0  0  0  0  0  0  0  0  0  0
    3.1190   -0.6860   -1.1780 H   0  0  0  0  0  0  0  0  0  0  0  0
    1.9040    2.7580    0.2540 H   0  0  0  0  0  0  0  0  0  0  0  0
    1.5780    1.9910   -1.2830 H   0  0  0  0  0  0  0  0  0  0  0  0
    0.0640    1.3360    0.4630 H   0  0  0  0  0  0  0  0  0  0  0  0
    2.1560   -0.4510    1.6530 H   0  0  0  0  0  0  0  0  0  0  0  0
   -5.9780   -1.3200    0.6300 N   0  0  0  0  0  0  0  0  0  0  0  0
   -4.5710   -1.4470    0.3520 C   0  0  0  0  0  0  0  0  0  0  0  0
   -3.8740   -2.3980    0.8760 N   0  0  0  0  0  0  0  0  0  0  0  0
   -3.9020   -0.5480   -0.4960 N   0  0  0  0  0  0  0  0  0  0  0  0
   -2.5130   -0.8120   -0.9050 C   0  0  0  0  0  0  0  0  0  0  0  0
   -2.4280   -1.9900   -1.7960 C   0  0  0  0  0  0  0  0  0  0  0  0
   -1.0760   -2.3250   -2.2610 C   0  0  0  0  0  0  0  0  0  0  0  0
   -0.0220   -2.6370   -1.2540 C   0  0  2  0  0  0  0  0  0  0  0  0
    0.3890   -1.6220   -0.3550 N   0  0  0  0  0  0  0  0  0  0  0  0
    1.0920   -3.3910   -1.8110 C   0  0  0  0  0  0  0  0  0  0  0  0
    0.8620   -4.2790   -2.6870 O   0  0  0  0  0  0  0  0  0  0  0  0
    2.3950   -3.1990   -1.4400 O   0  0  0  0  0  0  0  0  0  0  0  0
   -6.6850   -1.8290    0.0690 H   0  0  0  0  0  0  0  0  0  0  0  0
   -6.3070   -0.7000    1.4160 H   0  0  0  0  0  0  0  0  0  0  0  0
   -4.2660   -3.1160    1.5160 H   0  0  0  0  0  0  0  0  0  0  0  0
   -4.3500    0.3030   -0.8500 H   0  0  0  0  0  0  0  0  0  0  0  0
   -1.9140   -1.0010    0.0210 H   0  0  0  0  0  0  0  0  0  0  0  0
   -2.0880    0.0750   -1.3980 H   0  0  0  0  0  0  0  0  0  0  0  0
   -2.9840   -2.8760   -1.3730 H   0  0  0  0  0  0  0  0  0  0  0  0
   -3.0460   -1.7660   -2.7330 H   0  0  0  0  0  0  0  0  0  0  0  0
   -0.7590   -1.5310   -2.9880 H   0  0  0  0  0  0  0  0  0  0  0  0
   -1.1720   -3.2660   -2.9020 H   0  0  0  0  0  0  0  0  0  0  0  0
   -0.5950   -3.4390   -0.5910 H   0  0  0  0  0  0  0  0  0  0  0  0
    0.5150   -1.8620    0.6590 H   0  0  0  0  0  0  0  0  0  0  0  0
  1  2  1  0  0  0  0
  1  9  1  0  0  0  0
  2  4  1  0  0  0  0
  3  2  2  0  0  0  0
  4  5  1  0  0  0  0
  4 11  1  0  0  0  0
  5 13  1  1  0  0  0
  5  6  1  0  0  0  0
  6 15  1  0  0  0  0
  6 14  1  0  0  0  0
  7  5  1  0  0  0  0
  8  7  2  0  0  0  0
 10  1  1  0  0  0  0
 12  4  1  0  0  0  0
 16 17  1  0  0  0  0
 16 25  1  0  0  0  0
 17 19  1  0  0  0  0
 17 27  1  0  0  0  0
 18 30  1  0  0  0  0
 18 17  1  0  0  0  0
 19 31  1  0  0  0  0
 19 20  1  0  0  0  0
 20 33  1  1  0  0  0
 20 21  1  0  0  0  0
 21 34  1  0  0  0  0
 21  7  1  0  0  0  0
 22 43  1  0  0  0  0
 22 20  1  0  0  0  0
 23 22  2  0  0  0  0
 24 16  1  0  0  0  0
 26 16  1  0  0  0  0
 28 18  1  0  0  0  0
 29 18  1  0  0  0  0
 32 19  1  0  0  0  0
 35 48  1  0  0  0  0
 36 35  1  0  0  0  0
 36 37  2  0  0  0  0
 37 49  1  0  0  0  0
 38 36  1  0  0  0  0
 39 38  1  0  0  0  0
 39 51  1  0  0  0  0
 40 53  1  0  0  0  0
 40 39  1  0  0  0  0
 41 40  1  0  0  0  0
 41 42  1  0  0  0  0
 42 57  1  1  0  0  0
 42 43  1  0  0  0  0
 43 58  1  0  0  0  0
 44 46  1  0  0  0  0
 44 42  1  0  0  0  0
 45 44  2  0  0  0  0
 47 35  1  0  0  0  0
 50 38  1  0  0  0  0
 52 39  1  0  0  0  0
 54 40  1  0  0  0  0
 55 41  1  0  0  0  0
 56 41  1  0  0  0  0
M  END
$$$$
