NLS.pdb
 OpenBabel07022418103D

 46 45  0  0  1  0  0  0  0  0999 V2000
   -0.4730   -5.1270    2.9100 N   0  0  0  0  0  0  0  0  0  0  0  0
    0.5900   -4.1980    2.7480 C   0  0  0  0  0  0  0  0  0  0  0  0
    1.7600   -4.6290    2.9040 O   0  0  0  0  0  0  0  0  0  0  0  0
    0.3510   -2.7730    2.4080 C   0  0  0  0  0  0  0  0  0  0  0  0
    1.6830   -2.0650    2.3100 C   0  0  2  0  0  0  0  0  0  0  0  0
    2.4140   -2.1290    3.5580 N   0  0  0  0  0  0  0  0  0  0  0  0
    1.5450   -0.6520    1.9190 C   0  0  0  0  0  0  0  0  0  0  0  0
    2.0320    0.2460    2.6450 O   0  0  0  0  0  0  0  0  0  0  0  0
   -0.3710   -5.9370    3.5350 H   0  0  0  0  0  0  0  0  0  0  0  0
   -1.3960   -5.0170    2.3990 H   0  0  0  0  0  0  0  0  0  0  0  0
   -0.2950   -2.3580    3.2030 H   0  0  0  0  0  0  0  0  0  0  0  0
   -0.1910   -2.7330    1.4640 H   0  0  0  0  0  0  0  0  0  0  0  0
    2.2410   -2.5730    1.4860 H   0  0  0  0  0  0  0  0  0  0  0  0
    3.0310   -1.2890    3.6010 H   0  0  0  0  0  0  0  0  0  0  0  0
    1.6940   -2.0870    4.3240 H   0  0  0  0  0  0  0  0  0  0  0  0
    2.8650    1.3950   -2.8130 C   0  0  0  0  0  0  0  0  0  0  0  0
    2.6560    1.0480   -1.3180 C   0  0  0  0  0  0  0  0  0  0  0  0
    2.8700   -0.4650   -1.2800 C   0  0  0  0  0  0  0  0  0  0  0  0
    1.2410    1.3590   -1.0350 C   0  0  0  0  0  0  0  0  0  0  0  0
    0.7400    1.1470    0.3520 C   0  0  2  0  0  0  0  0  0  0  0  0
    0.8750   -0.2300    0.7340 N   0  0  0  0  0  0  0  0  0  0  0  0
   -0.6980    1.5990    0.4790 C   0  0  0  0  0  0  0  0  0  0  0  0
   -1.0480    2.7610    0.1990 O   0  0  0  0  0  0  0  0  0  0  0  0
    2.1500    0.7460   -3.3590 H   0  0  0  0  0  0  0  0  0  0  0  0
    2.5080    2.4460   -2.9490 H   0  0  0  0  0  0  0  0  0  0  0  0
    3.9110    1.2530   -3.1030 H   0  0  0  0  0  0  0  0  0  0  0  0
    3.3790    1.5640   -0.6900 H   0  0  0  0  0  0  0  0  0  0  0  0
    3.3050   -0.7570   -0.3120 H   0  0  0  0  0  0  0  0  0  0  0  0
    3.6930   -0.7250   -2.0260 H   0  0  0  0  0  0  0  0  0  0  0  0
    2.0120   -1.0390   -1.6260 H   0  0  0  0  0  0  0  0  0  0  0  0
    0.5800    0.8970   -1.8050 H   0  0  0  0  0  0  0  0  0  0  0  0
    1.1130    2.4720   -1.2350 H   0  0  0  0  0  0  0  0  0  0  0  0
    1.2740    1.7780    1.1040 H   0  0  0  0  0  0  0  0  0  0  0  0
    0.4670   -0.9690    0.1440 H   0  0  0  0  0  0  0  0  0  0  0  0
   -5.1560    0.1790    0.1940 O   0  0  0  0  0  0  0  0  0  0  0  0
   -3.7910    0.0130    0.1280 C   0  0  0  0  0  0  0  0  0  0  0  0
   -3.0560    0.9530    1.0970 C   0  0  2  0  0  0  0  0  0  0  0  0
   -1.6510    0.6740    0.9250 N   0  0  0  0  0  0  0  0  0  0  0  0
   -3.4500    0.5750    2.4560 C   0  0  0  0  0  0  0  0  0  0  0  0
   -4.6320    0.7310    2.8280 O   0  0  0  0  0  0  0  0  0  0  0  0
   -2.5300    0.0490    3.3320 O   0  0  0  0  0  0  0  0  0  0  0  0
   -5.3640    1.0970    0.4810 H   0  0  0  0  0  0  0  0  0  0  0  0
   -3.5290   -1.0270    0.3960 H   0  0  0  0  0  0  0  0  0  0  0  0
   -3.4410    0.1710   -0.9140 H   0  0  0  0  0  0  0  0  0  0  0  0
   -3.3160    1.9980    0.8350 H   0  0  0  0  0  0  0  0  0  0  0  0
   -1.3360   -0.2970    1.1540 H   0  0  0  0  0  0  0  0  0  0  0  0
  1  9  1  0  0  0  0
  2  3  2  0  0  0  0
  2  1  1  0  0  0  0
  4  2  1  0  0  0  0
  4 11  1  0  0  0  0
  5 13  1  6  0  0  0
  5  4  1  0  0  0  0
  5  6  1  0  0  0  0
  6 14  1  0  0  0  0
  6 15  1  0  0  0  0
  7  5  1  0  0  0  0
  7  8  2  0  0  0  0
 10  1  1  0  0  0  0
 12  4  1  0  0  0  0
 16 17  1  0  0  0  0
 17 18  1  0  0  0  0
 17 19  1  0  0  0  0
 17 27  1  0  0  0  0
 18 28  1  0  0  0  0
 19 20  1  0  0  0  0
 20 22  1  0  0  0  0
 20 21  1  0  0  0  0
 20 33  1  1  0  0  0
 21  7  1  0  0  0  0
 22 38  1  0  0  0  0
 23 22  2  0  0  0  0
 24 16  1  0  0  0  0
 25 16  1  0  0  0  0
 26 16  1  0  0  0  0
 29 18  1  0  0  0  0
 30 18  1  0  0  0  0
 31 19  1  0  0  0  0
 32 19  1  0  0  0  0
 34 21  1  0  0  0  0
 35 42  1  0  0  0  0
 36 35  1  0  0  0  0
 36 43  1  0  0  0  0
 36 37  1  0  0  0  0
 37 45  1  6  0  0  0
 37 39  1  0  0  0  0
 38 37  1  0  0  0  0
 38 46  1  0  0  0  0
 39 40  2  0  0  0  0
 39 41  1  0  0  0  0
 44 36  1  0  0  0  0
M  END
$$$$
