NLT.pdb
 OpenBabel07022418103D

 49 48  0  0  1  0  0  0  0  0999 V2000
    2.4610   -6.1870    2.2760 N   0  0  0  0  0  0  0  0  0  0  0  0
    2.5120   -4.9730    3.0100 C   0  0  0  0  0  0  0  0  0  0  0  0
    3.2540   -4.9210    4.0220 O   0  0  0  0  0  0  0  0  0  0  0  0
    1.6810   -3.8480    2.5270 C   0  0  0  0  0  0  0  0  0  0  0  0
    1.8410   -2.6200    3.4200 C   0  0  2  0  0  0  0  0  0  0  0  0
    1.4200   -3.0120    4.7500 N   0  0  0  0  0  0  0  0  0  0  0  0
    0.9410   -1.5850    2.9140 C   0  0  0  0  0  0  0  0  0  0  0  0
   -0.0180   -1.2020    3.6290 O   0  0  0  0  0  0  0  0  0  0  0  0
    1.7250   -6.8900    2.5100 H   0  0  0  0  0  0  0  0  0  0  0  0
    3.1180   -6.4200    1.5140 H   0  0  0  0  0  0  0  0  0  0  0  0
    0.6190   -4.1660    2.5930 H   0  0  0  0  0  0  0  0  0  0  0  0
    1.9500   -3.5690    1.4890 H   0  0  0  0  0  0  0  0  0  0  0  0
    2.9020   -2.3140    3.4930 H   0  0  0  0  0  0  0  0  0  0  0  0
    0.6060   -3.6940    4.6970 H   0  0  0  0  0  0  0  0  0  0  0  0
    1.0200   -2.1670    5.2530 H   0  0  0  0  0  0  0  0  0  0  0  0
    1.7620    1.2530   -1.2050 C   0  0  0  0  0  0  0  0  0  0  0  0
    2.0310    1.5540    0.2700 C   0  0  0  0  0  0  0  0  0  0  0  0
    3.2730    0.8930    0.7690 C   0  0  0  0  0  0  0  0  0  0  0  0
    0.8270    1.3970    1.1040 C   0  0  0  0  0  0  0  0  0  0  0  0
    0.1570    0.0730    1.1560 C   0  0  2  0  0  0  0  0  0  0  0  0
    1.0520   -0.9520    1.6540 N   0  0  0  0  0  0  0  0  0  0  0  0
   -0.6120   -0.3330   -0.0110 C   0  0  0  0  0  0  0  0  0  0  0  0
   -0.5400   -1.4540   -0.5910 O   0  0  0  0  0  0  0  0  0  0  0  0
    2.7020    1.4250   -1.8090 H   0  0  0  0  0  0  0  0  0  0  0  0
    1.4950    0.2070   -1.3820 H   0  0  0  0  0  0  0  0  0  0  0  0
    1.0400    1.9910   -1.6120 H   0  0  0  0  0  0  0  0  0  0  0  0
    2.2570    2.6670    0.2670 H   0  0  0  0  0  0  0  0  0  0  0  0
    4.1660    1.5900    0.7810 H   0  0  0  0  0  0  0  0  0  0  0  0
    3.6250    0.0500    0.1030 H   0  0  0  0  0  0  0  0  0  0  0  0
    3.2000    0.5540    1.8370 H   0  0  0  0  0  0  0  0  0  0  0  0
    0.0950    2.1950    0.8140 H   0  0  0  0  0  0  0  0  0  0  0  0
    1.1140    1.6630    2.1600 H   0  0  0  0  0  0  0  0  0  0  0  0
   -0.6090    0.1870    1.9920 H   0  0  0  0  0  0  0  0  0  0  0  0
    1.8340   -1.2430    1.0320 H   0  0  0  0  0  0  0  0  0  0  0  0
   -4.2430    1.3930   -0.5940 C   0  0  0  0  0  0  0  0  0  0  0  0
   -3.7780    0.1160   -1.2540 C   0  0  1  0  0  0  0  0  0  0  0  0
   -4.6450   -0.1920   -2.2930 O   0  0  0  0  0  0  0  0  0  0  0  0
   -2.3460    0.2520   -1.7430 C   0  0  2  0  0  0  0  0  0  0  0  0
   -1.5470    0.5670   -0.5980 N   0  0  0  0  0  0  0  0  0  0  0  0
   -2.2290    1.1970   -2.8560 C   0  0  0  0  0  0  0  0  0  0  0  0
   -2.8810    1.0110   -3.9120 O   0  0  0  0  0  0  0  0  0  0  0  0
   -1.4120    2.3120   -2.7930 O   0  0  0  0  0  0  0  0  0  0  0  0
   -4.0640    1.3570    0.5040 H   0  0  0  0  0  0  0  0  0  0  0  0
   -3.7670    2.2820   -1.0460 H   0  0  0  0  0  0  0  0  0  0  0  0
   -5.3480    1.4470   -0.7390 H   0  0  0  0  0  0  0  0  0  0  0  0
   -3.8580   -0.6970   -0.5140 H   0  0  0  0  0  0  0  0  0  0  0  0
   -5.0990    0.6250   -2.5690 H   0  0  0  0  0  0  0  0  0  0  0  0
   -2.0520   -0.7870   -2.0750 H   0  0  0  0  0  0  0  0  0  0  0  0
   -1.6670    1.5210   -0.1750 H   0  0  0  0  0  0  0  0  0  0  0  0
  1  9  1  0  0  0  0
  1  2  1  0  0  0  0
  2  3  2  0  0  0  0
  4 11  1  0  0  0  0
  4  2  1  0  0  0  0
  4  5  1  0  0  0  0
  5 13  1  1  0  0  0
  5  6  1  0  0  0  0
  6 15  1  0  0  0  0
  7  5  1  0  0  0  0
  7  8  2  0  0  0  0
 10  1  1  0  0  0  0
 12  4  1  0  0  0  0
 14  6  1  0  0  0  0
 16 17  1  0  0  0  0
 17 18  1  0  0  0  0
 17 19  1  0  0  0  0
 18 28  1  0  0  0  0
 18 30  1  0  0  0  0
 19 20  1  0  0  0  0
 19 32  1  0  0  0  0
 20 21  1  0  0  0  0
 20 33  1  1  0  0  0
 21  7  1  0  0  0  0
 22 20  1  0  0  0  0
 23 22  2  0  0  0  0
 24 16  1  0  0  0  0
 25 16  1  0  0  0  0
 26 16  1  0  0  0  0
 27 17  1  0  0  0  0
 29 18  1  0  0  0  0
 31 19  1  0  0  0  0
 34 21  1  0  0  0  0
 35 43  1  0  0  0  0
 36 35  1  0  0  0  0
 36 46  1  1  0  0  0
 37 36  1  0  0  0  0
 38 48  1  6  0  0  0
 38 36  1  0  0  0  0
 38 39  1  0  0  0  0
 39 49  1  0  0  0  0
 39 22  1  0  0  0  0
 40 42  1  0  0  0  0
 40 38  1  0  0  0  0
 41 40  2  0  0  0  0
 44 35  1  0  0  0  0
 45 35  1  0  0  0  0
 47 37  1  0  0  0  0
M  END
$$$$
