NLW.pdb
 OpenBabel07022418103D

 59 60  0  0  1  0  0  0  0  0999 V2000
    0.6690   -3.8110    2.2560 N   0  0  0  0  0  0  0  0  0  0  0  0
    0.8910   -3.3020    3.5650 C   0  0  0  0  0  0  0  0  0  0  0  0
    0.3050   -3.9350    4.5030 O   0  0  0  0  0  0  0  0  0  0  0  0
    1.7380   -2.1200    3.8410 C   0  0  0  0  0  0  0  0  0  0  0  0
    1.0370   -1.1080    4.7030 C   0  0  2  0  0  0  0  0  0  0  0  0
    0.6480   -1.6650    5.9740 N   0  0  0  0  0  0  0  0  0  0  0  0
   -0.1030   -0.4790    3.9940 C   0  0  0  0  0  0  0  0  0  0  0  0
   -1.1900   -0.3150    4.5990 O   0  0  0  0  0  0  0  0  0  0  0  0
    1.4690   -3.9490    1.6180 H   0  0  0  0  0  0  0  0  0  0  0  0
   -0.3180   -4.0450    1.9390 H   0  0  0  0  0  0  0  0  0  0  0  0
    2.1790   -1.7090    2.9320 H   0  0  0  0  0  0  0  0  0  0  0  0
    2.6100   -2.5100    4.4450 H   0  0  0  0  0  0  0  0  0  0  0  0
    1.7880   -0.2750    4.8610 H   0  0  0  0  0  0  0  0  0  0  0  0
    1.3850   -2.3410    6.2670 H   0  0  0  0  0  0  0  0  0  0  0  0
   -0.2450   -2.1990    5.8880 H   0  0  0  0  0  0  0  0  0  0  0  0
    1.6240    2.0940    1.1820 C   0  0  0  0  0  0  0  0  0  0  0  0
    0.2660    2.3350    0.6030 C   0  0  0  0  0  0  0  0  0  0  0  0
    0.1290    3.8340    0.3030 C   0  0  0  0  0  0  0  0  0  0  0  0
   -0.8560    1.9370    1.4690 C   0  0  0  0  0  0  0  0  0  0  0  0
   -1.0150    0.5390    1.8850 C   0  0  2  0  0  0  0  0  0  0  0  0
    0.0380   -0.0710    2.6410 N   0  0  0  0  0  0  0  0  0  0  0  0
   -1.4020   -0.4090    0.7720 C   0  0  0  0  0  0  0  0  0  0  0  0
   -0.8260   -1.5060    0.7210 O   0  0  0  0  0  0  0  0  0  0  0  0
    2.1030    1.1770    0.7770 H   0  0  0  0  0  0  0  0  0  0  0  0
    1.5500    2.0120    2.2660 H   0  0  0  0  0  0  0  0  0  0  0  0
    2.2660    2.9690    0.8860 H   0  0  0  0  0  0  0  0  0  0  0  0
    0.2650    1.8510   -0.4020 H   0  0  0  0  0  0  0  0  0  0  0  0
    0.9650    4.1200   -0.3720 H   0  0  0  0  0  0  0  0  0  0  0  0
    0.2120    4.4460    1.2120 H   0  0  0  0  0  0  0  0  0  0  0  0
   -0.8070    3.9960   -0.2340 H   0  0  0  0  0  0  0  0  0  0  0  0
   -1.8180    2.2630    0.9910 H   0  0  0  0  0  0  0  0  0  0  0  0
   -0.7910    2.5580    2.4120 H   0  0  0  0  0  0  0  0  0  0  0  0
   -1.9110    0.5380    2.6090 H   0  0  0  0  0  0  0  0  0  0  0  0
    0.9720   -0.2590    2.2130 H   0  0  0  0  0  0  0  0  0  0  0  0
   -2.3810   -0.1010   -0.1960 N   0  0  0  0  0  0  0  0  0  0  0  0
   -2.8140   -0.9600   -1.2540 C   0  0  1  0  0  0  0  0  0  0  0  0
   -2.2260   -0.7270   -2.5810 C   0  0  0  0  0  0  0  0  0  0  0  0
   -0.7840   -0.8020   -2.7520 C   0  0  0  0  0  0  0  0  0  0  0  0
    0.0280    0.3130   -2.8420 C   0  0  0  0  0  0  0  0  0  0  0  0
    1.2860   -0.1150   -2.9850 N   0  0  0  0  0  0  0  0  0  0  0  0
    1.3270   -1.4570   -2.9930 C   0  0  0  0  0  0  0  0  0  0  0  0
    2.4060   -2.3230   -3.1180 C   0  0  0  0  0  0  0  0  0  0  0  0
    2.2010   -3.6790   -3.0980 C   0  0  0  0  0  0  0  0  0  0  0  0
    0.9040   -4.1190   -2.9510 C   0  0  0  0  0  0  0  0  0  0  0  0
   -0.1590   -3.2630   -2.8300 C   0  0  0  0  0  0  0  0  0  0  0  0
    0.0300   -1.8950   -2.8470 C   0  0  0  0  0  0  0  0  0  0  0  0
   -3.0720   -2.3730   -0.8630 C   0  0  0  0  0  0  0  0  0  0  0  0
   -2.8840   -2.8620    0.2770 O   0  0  0  0  0  0  0  0  0  0  0  0
   -3.5750   -3.3030   -1.7930 O   0  0  0  0  0  0  0  0  0  0  0  0
   -2.8010    0.8780   -0.0740 H   0  0  0  0  0  0  0  0  0  0  0  0
   -3.9310   -0.6120   -1.3910 H   0  0  0  0  0  0  0  0  0  0  0  0
   -2.6220    0.2590   -2.9720 H   0  0  0  0  0  0  0  0  0  0  0  0
   -2.6990   -1.4690   -3.2870 H   0  0  0  0  0  0  0  0  0  0  0  0
   -0.2560    1.3590   -2.8070 H   0  0  0  0  0  0  0  0  0  0  0  0
    2.1470    0.4930   -3.0830 H   0  0  0  0  0  0  0  0  0  0  0  0
    3.4120   -1.9410   -3.2320 H   0  0  0  0  0  0  0  0  0  0  0  0
    3.0540   -4.3330   -3.1970 H   0  0  0  0  0  0  0  0  0  0  0  0
    0.7740   -5.2150   -2.9390 H   0  0  0  0  0  0  0  0  0  0  0  0
   -1.1420   -3.6440   -2.7240 H   0  0  0  0  0  0  0  0  0  0  0  0
  1  2  1  0  0  0  0
  2  4  1  0  0  0  0
  2  3  2  0  0  0  0
  4 12  1  0  0  0  0
  4  5  1  0  0  0  0
  5 13  1  1  0  0  0
  5  6  1  0  0  0  0
  6 14  1  0  0  0  0
  7  8  2  0  0  0  0
  7  5  1  0  0  0  0
  9  1  1  0  0  0  0
 10  1  1  0  0  0  0
 11  4  1  0  0  0  0
 15  6  1  0  0  0  0
 16 25  1  0  0  0  0
 17 16  1  0  0  0  0
 17 19  1  0  0  0  0
 18 17  1  0  0  0  0
 18 29  1  0  0  0  0
 19 20  1  0  0  0  0
 19 32  1  0  0  0  0
 20 33  1  1  0  0  0
 20 21  1  0  0  0  0
 21  7  1  0  0  0  0
 22 20  1  0  0  0  0
 23 22  2  0  0  0  0
 24 16  1  0  0  0  0
 26 16  1  0  0  0  0
 27 17  1  0  0  0  0
 28 18  1  0  0  0  0
 30 18  1  0  0  0  0
 31 19  1  0  0  0  0
 34 21  1  0  0  0  0
 35 50  1  0  0  0  0
 35 22  1  0  0  0  0
 36 51  1  6  0  0  0
 36 47  1  0  0  0  0
 36 35  1  0  0  0  0
 37 36  1  0  0  0  0
 38 37  1  0  0  0  0
 39 54  1  0  0  0  0
 39 38  2  0  0  0  0
 40 39  1  0  0  0  0
 41 40  1  0  0  0  0
 41 46  1  0  0  0  0
 42 43  1  0  0  0  0
 42 41  2  0  0  0  0
 43 44  2  0  0  0  0
 44 58  1  0  0  0  0
 44 45  1  0  0  0  0
 45 59  1  0  0  0  0
 46 45  2  0  0  0  0
 46 38  1  0  0  0  0
 47 48  1  0  0  0  0
 49 47  2  0  0  0  0
 52 37  1  0  0  0  0
 53 37  1  0  0  0  0
 55 40  1  0  0  0  0
 56 42  1  0  0  0  0
 57 43  1  0  0  0  0
M  END
$$$$
