NMA.pdb
 OpenBabel07022418103D

 43 42  0  0  1  0  0  0  0  0999 V2000
    5.2460   -1.4780    2.0170 N   0  0  0  0  0  0  0  0  0  0  0  0
    4.5900   -2.7000    2.2290 C   0  0  0  0  0  0  0  0  0  0  0  0
    5.2940   -3.7480    2.0050 O   0  0  0  0  0  0  0  0  0  0  0  0
    3.2240   -2.9240    2.6690 C   0  0  0  0  0  0  0  0  0  0  0  0
    2.3550   -1.7160    2.7600 C   0  0  2  0  0  0  0  0  0  0  0  0
    1.0230   -2.1330    3.2450 N   0  0  0  0  0  0  0  0  0  0  0  0
    2.1660   -1.0840    1.4230 C   0  0  0  0  0  0  0  0  0  0  0  0
    3.1150   -0.5480    0.8290 O   0  0  0  0  0  0  0  0  0  0  0  0
    5.7360   -1.2490    1.1280 H   0  0  0  0  0  0  0  0  0  0  0  0
    5.2540   -0.7640    2.7710 H   0  0  0  0  0  0  0  0  0  0  0  0
    3.2060   -3.5310    3.6160 H   0  0  0  0  0  0  0  0  0  0  0  0
    2.7540   -3.6120    1.8970 H   0  0  0  0  0  0  0  0  0  0  0  0
    2.7870   -0.9600    3.4300 H   0  0  0  0  0  0  0  0  0  0  0  0
    1.2090   -2.6500    4.1380 H   0  0  0  0  0  0  0  0  0  0  0  0
    0.7110   -2.8800    2.5680 H   0  0  0  0  0  0  0  0  0  0  0  0
   -2.8880   -0.4440   -2.6360 C   0  0  0  0  0  0  0  0  0  0  0  0
   -1.2380    0.0250   -3.2030 S   0  0  0  0  0  0  0  0  0  0  0  0
   -0.0430   -1.2580   -2.8390 C   0  0  0  0  0  0  0  0  0  0  0  0
    0.2130   -1.4980   -1.4140 C   0  0  0  0  0  0  0  0  0  0  0  0
    0.7750   -0.4180   -0.5610 C   0  0  2  0  0  0  0  0  0  0  0  0
    0.9010   -1.0700    0.7790 N   0  0  0  0  0  0  0  0  0  0  0  0
   -0.1340    0.7290   -0.3330 C   0  0  0  0  0  0  0  0  0  0  0  0
   -0.4030    1.6130   -1.2090 O   0  0  0  0  0  0  0  0  0  0  0  0
   -2.8870   -1.2860   -1.9260 H   0  0  0  0  0  0  0  0  0  0  0  0
   -3.5330   -0.7790   -3.5000 H   0  0  0  0  0  0  0  0  0  0  0  0
   -3.3720    0.4680   -2.2290 H   0  0  0  0  0  0  0  0  0  0  0  0
   -0.4990   -2.2200   -3.2460 H   0  0  0  0  0  0  0  0  0  0  0  0
    0.8780   -1.1500   -3.4620 H   0  0  0  0  0  0  0  0  0  0  0  0
   -0.7830   -1.7700   -0.9370 H   0  0  0  0  0  0  0  0  0  0  0  0
    0.7980   -2.4630   -1.3030 H   0  0  0  0  0  0  0  0  0  0  0  0
    1.7610   -0.0570   -0.8520 H   0  0  0  0  0  0  0  0  0  0  0  0
    0.0760   -1.5000    1.2020 H   0  0  0  0  0  0  0  0  0  0  0  0
   -3.0730    1.6490    1.5830 C   0  0  0  0  0  0  0  0  0  0  0  0
   -1.7070    2.0900    1.1030 C   0  0  2  0  0  0  0  0  0  0  0  0
   -0.8140    0.9590    0.9180 N   0  0  0  0  0  0  0  0  0  0  0  0
   -1.1340    2.9280    2.1860 C   0  0  0  0  0  0  0  0  0  0  0  0
   -0.0640    2.6610    2.7910 O   0  0  0  0  0  0  0  0  0  0  0  0
   -1.7870    4.1060    2.6020 O   0  0  0  0  0  0  0  0  0  0  0  0
   -3.6350    1.0850    0.8330 H   0  0  0  0  0  0  0  0  0  0  0  0
   -3.6640    2.5130    1.9040 H   0  0  0  0  0  0  0  0  0  0  0  0
   -2.9400    0.9710    2.4580 H   0  0  0  0  0  0  0  0  0  0  0  0
   -1.7710    2.6920    0.1880 H   0  0  0  0  0  0  0  0  0  0  0  0
   -0.6480    0.2900    1.6990 H   0  0  0  0  0  0  0  0  0  0  0  0
  1  2  1  0  0  0  0
  1 10  1  0  0  0  0
  2  4  1  0  0  0  0
  3  2  2  0  0  0  0
  4  5  1  0  0  0  0
  4 11  1  0  0  0  0
  5  6  1  0  0  0  0
  5 13  1  1  0  0  0
  6 14  1  0  0  0  0
  7  5  1  0  0  0  0
  8  7  2  0  0  0  0
  9  1  1  0  0  0  0
 12  4  1  0  0  0  0
 15  6  1  0  0  0  0
 16 26  1  0  0  0  0
 16 24  1  0  0  0  0
 17 18  1  0  0  0  0
 17 16  1  0  0  0  0
 18 19  1  0  0  0  0
 19 30  1  0  0  0  0
 19 29  1  0  0  0  0
 19 20  1  0  0  0  0
 20 31  1  6  0  0  0
 20 22  1  0  0  0  0
 20 21  1  0  0  0  0
 21 32  1  0  0  0  0
 21  7  1  0  0  0  0
 22 35  1  0  0  0  0
 23 22  2  0  0  0  0
 25 16  1  0  0  0  0
 27 18  1  0  0  0  0
 28 18  1  0  0  0  0
 33 40  1  0  0  0  0
 33 41  1  0  0  0  0
 34 42  1  6  0  0  0
 34 33  1  0  0  0  0
 34 36  1  0  0  0  0
 35 34  1  0  0  0  0
 35 43  1  0  0  0  0
 36 38  2  0  0  0  0
 36 37  1  0  0  0  0
 39 33  1  0  0  0  0
M  END
$$$$
