NMC.pdb
 OpenBabel07022418103D

 44 43  0  0  1  0  0  0  0  0999 V2000
    2.5840   -6.0310    2.0450 N   0  0  0  0  0  0  0  0  0  0  0  0
    3.1820   -4.7910    2.3710 C   0  0  0  0  0  0  0  0  0  0  0  0
    3.8630   -4.7300    3.4270 O   0  0  0  0  0  0  0  0  0  0  0  0
    3.0530   -3.5790    1.5510 C   0  0  0  0  0  0  0  0  0  0  0  0
    2.0110   -2.6230    2.0800 C   0  0  2  0  0  0  0  0  0  0  0  0
    0.7030   -3.1990    2.1350 N   0  0  0  0  0  0  0  0  0  0  0  0
    2.0360   -1.4140    1.2050 C   0  0  0  0  0  0  0  0  0  0  0  0
    3.1150   -0.7630    1.0370 O   0  0  0  0  0  0  0  0  0  0  0  0
    2.9920   -6.9130    2.3930 H   0  0  0  0  0  0  0  0  0  0  0  0
    1.7440   -6.0480    1.4630 H   0  0  0  0  0  0  0  0  0  0  0  0
    2.8500   -3.8140    0.4970 H   0  0  0  0  0  0  0  0  0  0  0  0
    4.0420   -3.0470    1.5960 H   0  0  0  0  0  0  0  0  0  0  0  0
    2.2980   -2.3290    3.1090 H   0  0  0  0  0  0  0  0  0  0  0  0
    0.3520   -3.5470    1.2190 H   0  0  0  0  0  0  0  0  0  0  0  0
    0.6300   -3.8760    2.9040 H   0  0  0  0  0  0  0  0  0  0  0  0
   -2.3340    1.6160   -2.8320 C   0  0  0  0  0  0  0  0  0  0  0  0
   -0.6580    2.2380   -2.5710 S   0  0  0  0  0  0  0  0  0  0  0  0
    0.5880    0.9830   -2.7320 C   0  0  0  0  0  0  0  0  0  0  0  0
    0.6150   -0.1070   -1.7270 C   0  0  0  0  0  0  0  0  0  0  0  0
    0.9060    0.2630   -0.3410 C   0  0  2  0  0  0  0  0  0  0  0  0
    0.8990   -0.9360    0.5310 N   0  0  0  0  0  0  0  0  0  0  0  0
    0.1280    1.2540    0.3670 C   0  0  0  0  0  0  0  0  0  0  0  0
    0.0650    2.4350   -0.0420 O   0  0  0  0  0  0  0  0  0  0  0  0
   -2.5370    0.6710   -2.3060 H   0  0  0  0  0  0  0  0  0  0  0  0
   -3.0400    2.3720   -2.4340 H   0  0  0  0  0  0  0  0  0  0  0  0
   -2.5620    1.5070   -3.9180 H   0  0  0  0  0  0  0  0  0  0  0  0
    1.5890    1.5300   -2.7090 H   0  0  0  0  0  0  0  0  0  0  0  0
    0.5610    0.6010   -3.7860 H   0  0  0  0  0  0  0  0  0  0  0  0
    1.4700   -0.7950   -2.0560 H   0  0  0  0  0  0  0  0  0  0  0  0
   -0.2660   -0.8030   -1.8350 H   0  0  0  0  0  0  0  0  0  0  0  0
    1.9850    0.6110   -0.3030 H   0  0  0  0  0  0  0  0  0  0  0  0
    0.0000   -1.4230    0.6290 H   0  0  0  0  0  0  0  0  0  0  0  0
   -0.6190    0.9940    1.5590 N   0  0  0  0  0  0  0  0  0  0  0  0
   -1.3930    1.9920    2.2610 C   0  0  1  0  0  0  0  0  0  0  0  0
   -2.8420    1.5620    2.2240 C   0  0  0  0  0  0  0  0  0  0  0  0
   -3.3670    1.4440    0.5010 S   0  0  0  0  0  0  0  0  0  0  0  0
   -0.9090    2.2510    3.6150 C   0  0  0  0  0  0  0  0  0  0  0  0
   -1.4940    3.0920    4.3320 O   0  0  0  0  0  0  0  0  0  0  0  0
    0.1850    1.5860    4.1290 O   0  0  0  0  0  0  0  0  0  0  0  0
   -0.6040    0.0400    1.9390 H   0  0  0  0  0  0  0  0  0  0  0  0
   -1.3010    2.9560    1.6780 H   0  0  0  0  0  0  0  0  0  0  0  0
   -2.9190    0.5780    2.7360 H   0  0  0  0  0  0  0  0  0  0  0  0
   -3.4630    2.2910    2.7670 H   0  0  0  0  0  0  0  0  0  0  0  0
   -4.0370    2.6040    0.0900 H   0  0  0  0  0  0  0  0  0  0  0  0
  1  2  1  0  0  0  0
  1  9  1  0  0  0  0
  2  3  2  0  0  0  0
  4 12  1  0  0  0  0
  4  5  1  0  0  0  0
  4  2  1  0  0  0  0
  5  6  1  0  0  0  0
  5 13  1  1  0  0  0
  6 15  1  0  0  0  0
  7  5  1  0  0  0  0
  8  7  2  0  0  0  0
 10  1  1  0  0  0  0
 11  4  1  0  0  0  0
 14  6  1  0  0  0  0
 16 17  1  0  0  0  0
 16 25  1  0  0  0  0
 16 24  1  0  0  0  0
 18 27  1  0  0  0  0
 18 17  1  0  0  0  0
 18 19  1  0  0  0  0
 19 20  1  0  0  0  0
 20 31  1  1  0  0  0
 20 22  1  0  0  0  0
 20 21  1  0  0  0  0
 21 32  1  0  0  0  0
 21  7  1  0  0  0  0
 22 33  1  0  0  0  0
 23 22  2  0  0  0  0
 26 16  1  0  0  0  0
 28 18  1  0  0  0  0
 29 19  1  0  0  0  0
 30 19  1  0  0  0  0
 33 40  1  0  0  0  0
 33 34  1  0  0  0  0
 34 41  1  6  0  0  0
 34 37  1  0  0  0  0
 35 34  1  0  0  0  0
 35 42  1  0  0  0  0
 35 43  1  0  0  0  0
 36 35  1  0  0  0  0
 37 39  2  0  0  0  0
 37 38  1  0  0  0  0
 44 36  1  0  0  0  0
M  END
$$$$
