NMD.pdb
 OpenBabel07022418103D

 46 45  0  0  1  0  0  0  0  0999 V2000
    0.1840   -5.2470    3.0420 N   0  0  0  0  0  0  0  0  0  0  0  0
    1.0340   -4.1080    3.0090 C   0  0  0  0  0  0  0  0  0  0  0  0
    2.2080   -4.2660    3.4180 O   0  0  0  0  0  0  0  0  0  0  0  0
    0.6090   -2.7740    2.5250 C   0  0  0  0  0  0  0  0  0  0  0  0
    1.7580   -1.8160    2.6360 C   0  0  2  0  0  0  0  0  0  0  0  0
    2.1800   -1.7130    4.0180 N   0  0  0  0  0  0  0  0  0  0  0  0
    1.4860   -0.4780    2.1250 C   0  0  0  0  0  0  0  0  0  0  0  0
    1.6360    0.5280    2.8650 O   0  0  0  0  0  0  0  0  0  0  0  0
   -0.7590   -5.2400    3.4820 H   0  0  0  0  0  0  0  0  0  0  0  0
    0.4940   -6.1600    2.6080 H   0  0  0  0  0  0  0  0  0  0  0  0
    0.3410   -2.9110    1.4400 H   0  0  0  0  0  0  0  0  0  0  0  0
   -0.2930   -2.4590    3.0430 H   0  0  0  0  0  0  0  0  0  0  0  0
    2.6360   -2.2600    2.0940 H   0  0  0  0  0  0  0  0  0  0  0  0
    1.4020   -2.1020    4.6250 H   0  0  0  0  0  0  0  0  0  0  0  0
    2.2870   -0.7150    4.2960 H   0  0  0  0  0  0  0  0  0  0  0  0
    3.5420    4.1610    0.1760 C   0  0  0  0  0  0  0  0  0  0  0  0
    3.6430    2.4580    0.7020 S   0  0  0  0  0  0  0  0  0  0  0  0
    3.1340    1.2800   -0.5480 C   0  0  0  0  0  0  0  0  0  0  0  0
    1.6650    1.3790   -0.8800 C   0  0  0  0  0  0  0  0  0  0  0  0
    0.7780    1.1320    0.2980 C   0  0  2  0  0  0  0  0  0  0  0  0
    1.0440   -0.2040    0.7930 N   0  0  0  0  0  0  0  0  0  0  0  0
   -0.6410    1.2680   -0.1450 C   0  0  0  0  0  0  0  0  0  0  0  0
   -1.0870    2.3400   -0.6220 O   0  0  0  0  0  0  0  0  0  0  0  0
    3.4620    4.2010   -0.9490 H   0  0  0  0  0  0  0  0  0  0  0  0
    2.6730    4.7170    0.5610 H   0  0  0  0  0  0  0  0  0  0  0  0
    4.4520    4.7120    0.4720 H   0  0  0  0  0  0  0  0  0  0  0  0
    3.6780    1.5530   -1.5010 H   0  0  0  0  0  0  0  0  0  0  0  0
    3.4680    0.2490   -0.3180 H   0  0  0  0  0  0  0  0  0  0  0  0
    1.4980    2.4140   -1.2660 H   0  0  0  0  0  0  0  0  0  0  0  0
    1.3810    0.7020   -1.7090 H   0  0  0  0  0  0  0  0  0  0  0  0
    0.9800    1.8950    1.1050 H   0  0  0  0  0  0  0  0  0  0  0  0
    0.9130   -1.0060    0.1700 H   0  0  0  0  0  0  0  0  0  0  0  0
   -1.5180    0.1510   -0.0240 N   0  0  0  0  0  0  0  0  0  0  0  0
   -2.8910    0.1670   -0.4160 C   0  0  1  0  0  0  0  0  0  0  0  0
   -3.2320   -0.9000   -1.4280 C   0  0  0  0  0  0  0  0  0  0  0  0
   -2.9780   -2.2630   -0.9330 C   0  0  0  0  0  0  0  0  0  0  0  0
   -3.2040   -3.2150   -1.7240 O   0  0  0  0  0  0  0  0  0  0  0  0
   -3.7410   -0.0540    0.7780 C   0  0  0  0  0  0  0  0  0  0  0  0
   -3.2170   -0.2160    1.8850 O   0  0  0  0  0  0  0  0  0  0  0  0
   -2.5140   -2.5750    0.3240 O   0  0  0  0  0  0  0  0  0  0  0  0
   -5.1210   -0.0830    0.6830 O   0  0  0  0  0  0  0  0  0  0  0  0
   -1.1100   -0.7200    0.3780 H   0  0  0  0  0  0  0  0  0  0  0  0
   -3.1890    1.1500   -0.8460 H   0  0  0  0  0  0  0  0  0  0  0  0
   -2.6190   -0.7530   -2.3340 H   0  0  0  0  0  0  0  0  0  0  0  0
   -4.2840   -0.8110   -1.7100 H   0  0  0  0  0  0  0  0  0  0  0  0
   -1.8610   -3.3430    0.4050 H   0  0  0  0  0  0  0  0  0  0  0  0
  1  9  1  0  0  0  0
  2  1  1  0  0  0  0
  2  3  2  0  0  0  0
  4  5  1  0  0  0  0
  4  2  1  0  0  0  0
  4 12  1  0  0  0  0
  5 13  1  6  0  0  0
  5  6  1  0  0  0  0
  6 15  1  0  0  0  0
  6 14  1  0  0  0  0
  7  5  1  0  0  0  0
  7  8  2  0  0  0  0
 10  1  1  0  0  0  0
 11  4  1  0  0  0  0
 16 26  1  0  0  0  0
 16 25  1  0  0  0  0
 16 17  1  0  0  0  0
 18 28  1  0  0  0  0
 18 17  1  0  0  0  0
 19 18  1  0  0  0  0
 19 20  1  0  0  0  0
 20 21  1  0  0  0  0
 20 31  1  1  0  0  0
 21  7  1  0  0  0  0
 22 33  1  0  0  0  0
 22 20  1  0  0  0  0
 23 22  2  0  0  0  0
 24 16  1  0  0  0  0
 27 18  1  0  0  0  0
 29 19  1  0  0  0  0
 30 19  1  0  0  0  0
 32 21  1  0  0  0  0
 33 42  1  0  0  0  0
 34 43  1  6  0  0  0
 34 33  1  0  0  0  0
 34 38  1  0  0  0  0
 35 36  1  0  0  0  0
 35 34  1  0  0  0  0
 36 40  1  0  0  0  0
 37 36  2  0  0  0  0
 38 39  1  0  0  0  0
 40 46  1  0  0  0  0
 41 38  2  0  0  0  0
 44 35  1  0  0  0  0
 45 35  1  0  0  0  0
M  END
$$$$
