NME.pdb
 OpenBabel07022418103D

 49 48  0  0  1  0  0  0  0  0999 V2000
    0.9300   -4.5850    5.2780 N   0  0  0  0  0  0  0  0  0  0  0  0
    0.5930   -4.2610    3.9370 C   0  0  0  0  0  0  0  0  0  0  0  0
    1.4460   -3.7770    3.1560 O   0  0  0  0  0  0  0  0  0  0  0  0
   -0.7720   -4.4940    3.4550 C   0  0  0  0  0  0  0  0  0  0  0  0
   -0.9140   -4.0340    2.0180 C   0  0  2  0  0  0  0  0  0  0  0  0
    0.0060   -4.7570    1.1580 N   0  0  0  0  0  0  0  0  0  0  0  0
   -0.7810   -2.5750    1.8830 C   0  0  0  0  0  0  0  0  0  0  0  0
   -1.5700   -1.8500    2.5640 O   0  0  0  0  0  0  0  0  0  0  0  0
    1.5940   -5.3660    5.4380 H   0  0  0  0  0  0  0  0  0  0  0  0
    0.5540   -4.0870    6.1100 H   0  0  0  0  0  0  0  0  0  0  0  0
   -1.5410   -3.9430    4.0640 H   0  0  0  0  0  0  0  0  0  0  0  0
   -1.0300   -5.5670    3.5420 H   0  0  0  0  0  0  0  0  0  0  0  0
   -1.9370   -4.3090    1.6880 H   0  0  0  0  0  0  0  0  0  0  0  0
   -0.1870   -5.7790    1.3260 H   0  0  0  0  0  0  0  0  0  0  0  0
   -0.3160   -4.5760    0.1750 H   0  0  0  0  0  0  0  0  0  0  0  0
    4.6660    1.2300    1.3710 C   0  0  0  0  0  0  0  0  0  0  0  0
    3.3240    1.9130    2.3570 S   0  0  0  0  0  0  0  0  0  0  0  0
    1.7460    1.4550    1.5380 C   0  0  0  0  0  0  0  0  0  0  0  0
    1.5390   -0.0190    1.5800 C   0  0  0  0  0  0  0  0  0  0  0  0
    0.2440   -0.4300    0.9670 C   0  0  2  0  0  0  0  0  0  0  0  0
    0.1450   -1.9120    1.0670 N   0  0  0  0  0  0  0  0  0  0  0  0
    0.0860   -0.0080   -0.4060 C   0  0  0  0  0  0  0  0  0  0  0  0
    0.1850   -0.8380   -1.3810 O   0  0  0  0  0  0  0  0  0  0  0  0
    4.4610    1.2540    0.2720 H   0  0  0  0  0  0  0  0  0  0  0  0
    5.6370    1.7420    1.5460 H   0  0  0  0  0  0  0  0  0  0  0  0
    4.7960    0.1600    1.6910 H   0  0  0  0  0  0  0  0  0  0  0  0
    0.9230    2.0590    1.9300 H   0  0  0  0  0  0  0  0  0  0  0  0
    1.9040    1.7650    0.4630 H   0  0  0  0  0  0  0  0  0  0  0  0
    1.6030   -0.3190    2.6590 H   0  0  0  0  0  0  0  0  0  0  0  0
    2.4180   -0.4920    1.0500 H   0  0  0  0  0  0  0  0  0  0  0  0
   -0.5820   -0.0490    1.5890 H   0  0  0  0  0  0  0  0  0  0  0  0
    0.8060   -2.4570    0.4930 H   0  0  0  0  0  0  0  0  0  0  0  0
   -0.1930    1.3260   -0.7750 N   0  0  0  0  0  0  0  0  0  0  0  0
   -0.3490    1.7310   -2.1340 C   0  0  1  0  0  0  0  0  0  0  0  0
   -1.7350    2.1540   -2.4600 C   0  0  0  0  0  0  0  0  0  0  0  0
   -2.7500    1.1030   -2.2820 C   0  0  0  0  0  0  0  0  0  0  0  0
   -3.0340    0.6290   -0.9450 C   0  0  0  0  0  0  0  0  0  0  0  0
   -2.7360    1.2420    0.0950 O   0  0  0  0  0  0  0  0  0  0  0  0
    0.6540    2.7570   -2.5600 C   0  0  0  0  0  0  0  0  0  0  0  0
    1.5100    3.2130   -1.7730 O   0  0  0  0  0  0  0  0  0  0  0  0
   -3.6930   -0.6120   -0.7660 O   0  0  0  0  0  0  0  0  0  0  0  0
    0.6430    3.2270   -3.8740 O   0  0  0  0  0  0  0  0  0  0  0  0
   -0.2970    2.1060   -0.0600 H   0  0  0  0  0  0  0  0  0  0  0  0
   -0.0610    0.8150   -2.7590 H   0  0  0  0  0  0  0  0  0  0  0  0
   -2.0370    3.0350   -1.7970 H   0  0  0  0  0  0  0  0  0  0  0  0
   -1.7450    2.5910   -3.4950 H   0  0  0  0  0  0  0  0  0  0  0  0
   -3.7200    1.4720   -2.7450 H   0  0  0  0  0  0  0  0  0  0  0  0
   -2.4300    0.2330   -2.9520 H   0  0  0  0  0  0  0  0  0  0  0  0
   -4.2660   -0.7690    0.0570 H   0  0  0  0  0  0  0  0  0  0  0  0
  1  9  1  0  0  0  0
  1 10  1  0  0  0  0
  2  1  1  0  0  0  0
  3  2  2  0  0  0  0
  4 12  1  0  0  0  0
  4  2  1  0  0  0  0
  4 11  1  0  0  0  0
  5 13  1  6  0  0  0
  5  4  1  0  0  0  0
  6 14  1  0  0  0  0
  6  5  1  0  0  0  0
  7  5  1  0  0  0  0
  7  8  2  0  0  0  0
 15  6  1  0  0  0  0
 16 25  1  0  0  0  0
 16 26  1  0  0  0  0
 16 17  1  0  0  0  0
 18 19  1  0  0  0  0
 18 27  1  0  0  0  0
 18 17  1  0  0  0  0
 19 29  1  0  0  0  0
 20 21  1  0  0  0  0
 20 19  1  0  0  0  0
 20 31  1  1  0  0  0
 21  7  1  0  0  0  0
 22 20  1  0  0  0  0
 23 22  2  0  0  0  0
 24 16  1  0  0  0  0
 28 18  1  0  0  0  0
 30 19  1  0  0  0  0
 32 21  1  0  0  0  0
 33 22  1  0  0  0  0
 33 43  1  0  0  0  0
 34 44  1  6  0  0  0
 34 33  1  0  0  0  0
 35 36  1  0  0  0  0
 35 34  1  0  0  0  0
 35 45  1  0  0  0  0
 36 37  1  0  0  0  0
 37 41  1  0  0  0  0
 37 38  2  0  0  0  0
 39 34  1  0  0  0  0
 39 40  1  0  0  0  0
 41 49  1  0  0  0  0
 42 39  2  0  0  0  0
 46 35  1  0  0  0  0
 47 36  1  0  0  0  0
 48 36  1  0  0  0  0
M  END
$$$$
