NMG.pdb
 OpenBabel07022418103D

 40 39  0  0  1  0  0  0  0  0999 V2000
   -0.6290   -2.9170    2.8430 N   0  0  0  0  0  0  0  0  0  0  0  0
    0.7690   -3.2350    2.7380 C   0  0  0  0  0  0  0  0  0  0  0  0
    1.5250   -3.0120    3.7030 O   0  0  0  0  0  0  0  0  0  0  0  0
    1.2950   -3.8200    1.5040 C   0  0  0  0  0  0  0  0  0  0  0  0
    2.1670   -2.8440    0.7590 C   0  0  2  0  0  0  0  0  0  0  0  0
    3.2970   -2.4410    1.5280 N   0  0  0  0  0  0  0  0  0  0  0  0
    1.3930   -1.6230    0.3650 C   0  0  0  0  0  0  0  0  0  0  0  0
    0.3580   -1.8770   -0.3310 O   0  0  0  0  0  0  0  0  0  0  0  0
   -1.0060   -2.5250    3.7330 H   0  0  0  0  0  0  0  0  0  0  0  0
   -1.2630   -3.0750    2.0350 H   0  0  0  0  0  0  0  0  0  0  0  0
    1.8660   -4.7530    1.6720 H   0  0  0  0  0  0  0  0  0  0  0  0
    0.4350   -4.0780    0.8180 H   0  0  0  0  0  0  0  0  0  0  0  0
    2.4920   -3.3750   -0.1760 H   0  0  0  0  0  0  0  0  0  0  0  0
    3.8560   -3.2840    1.8090 H   0  0  0  0  0  0  0  0  0  0  0  0
    2.9910   -1.9100    2.3650 H   0  0  0  0  0  0  0  0  0  0  0  0
   -1.0180   -1.2500   -3.4160 C   0  0  0  0  0  0  0  0  0  0  0  0
    0.0610    0.1810   -3.5430 S   0  0  0  0  0  0  0  0  0  0  0  0
    1.0990    0.3870   -2.0750 C   0  0  0  0  0  0  0  0  0  0  0  0
    0.2940    0.7070   -0.8560 C   0  0  0  0  0  0  0  0  0  0  0  0
    1.1010    0.8730    0.4010 C   0  0  2  0  0  0  0  0  0  0  0  0
    1.8000   -0.3340    0.7500 N   0  0  0  0  0  0  0  0  0  0  0  0
    0.3970    1.4020    1.5430 C   0  0  0  0  0  0  0  0  0  0  0  0
    0.5120    0.7920    2.6610 O   0  0  0  0  0  0  0  0  0  0  0  0
   -1.5760   -1.3030   -2.4730 H   0  0  0  0  0  0  0  0  0  0  0  0
   -0.3780   -2.1740   -3.5180 H   0  0  0  0  0  0  0  0  0  0  0  0
   -1.7320   -1.2470   -4.2660 H   0  0  0  0  0  0  0  0  0  0  0  0
    1.7840    1.2680   -2.3360 H   0  0  0  0  0  0  0  0  0  0  0  0
    1.7900   -0.4540   -2.0110 H   0  0  0  0  0  0  0  0  0  0  0  0
   -0.1080    1.7670   -1.0560 H   0  0  0  0  0  0  0  0  0  0  0  0
   -0.5930    0.1000   -0.8000 H   0  0  0  0  0  0  0  0  0  0  0  0
    1.9470    1.6180    0.1300 H   0  0  0  0  0  0  0  0  0  0  0  0
    2.6880   -0.2550    1.3330 H   0  0  0  0  0  0  0  0  0  0  0  0
   -0.4380    2.5590    1.5810 N   0  0  0  0  0  0  0  0  0  0  0  0
   -1.0850    2.9670    2.8040 C   0  0  0  0  0  0  0  0  0  0  0  0
   -1.9920    1.9040    3.3200 C   0  0  0  0  0  0  0  0  0  0  0  0
   -2.1080    0.8290    2.6580 O   0  0  0  0  0  0  0  0  0  0  0  0
   -2.7240    2.0080    4.4860 O   0  0  0  0  0  0  0  0  0  0  0  0
   -0.5640    3.0960    0.7010 H   0  0  0  0  0  0  0  0  0  0  0  0
   -0.3400    3.1970    3.6020 H   0  0  0  0  0  0  0  0  0  0  0  0
   -1.7060    3.8550    2.6260 H   0  0  0  0  0  0  0  0  0  0  0  0
  1  9  1  0  0  0  0
  2  1  1  0  0  0  0
  2  3  2  0  0  0  0
  4 11  1  0  0  0  0
  4  2  1  0  0  0  0
  5 13  1  6  0  0  0
  5  4  1  0  0  0  0
  5  6  1  0  0  0  0
  6 14  1  0  0  0  0
  6 15  1  0  0  0  0
  7 21  1  0  0  0  0
  7  5  1  0  0  0  0
  8  7  2  0  0  0  0
 10  1  1  0  0  0  0
 12  4  1  0  0  0  0
 16 24  1  0  0  0  0
 17 16  1  0  0  0  0
 17 18  1  0  0  0  0
 18 28  1  0  0  0  0
 18 19  1  0  0  0  0
 19 30  1  0  0  0  0
 19 20  1  0  0  0  0
 20 31  1  6  0  0  0
 20 21  1  0  0  0  0
 20 22  1  0  0  0  0
 21 32  1  0  0  0  0
 22 33  1  0  0  0  0
 22 23  2  0  0  0  0
 25 16  1  0  0  0  0
 26 16  1  0  0  0  0
 27 18  1  0  0  0  0
 29 19  1  0  0  0  0
 33 34  1  0  0  0  0
 34 35  1  0  0  0  0
 34 39  1  0  0  0  0
 35 37  1  0  0  0  0
 36 35  2  0  0  0  0
 38 33  1  0  0  0  0
 40 34  1  0  0  0  0
M  END
$$$$
