NMH.pdb
 OpenBabel07022418103D

 50 50  0  0  1  0  0  0  0  0999 V2000
    3.4710   -2.0740    5.7200 N   0  0  0  0  0  0  0  0  0  0  0  0
    2.3790   -2.1890    4.8300 C   0  0  0  0  0  0  0  0  0  0  0  0
    1.7750   -3.2800    4.7610 O   0  0  0  0  0  0  0  0  0  0  0  0
    1.9640   -1.0550    4.0060 C   0  0  0  0  0  0  0  0  0  0  0  0
    0.8080   -1.3380    3.0780 C   0  0  2  0  0  0  0  0  0  0  0  0
    1.0460   -2.3660    2.1300 N   0  0  0  0  0  0  0  0  0  0  0  0
    0.4470   -0.0330    2.4540 C   0  0  0  0  0  0  0  0  0  0  0  0
    0.1530    0.9640    3.1700 O   0  0  0  0  0  0  0  0  0  0  0  0
    4.4260   -2.2750    5.3610 H   0  0  0  0  0  0  0  0  0  0  0  0
    3.3360   -1.8000    6.6980 H   0  0  0  0  0  0  0  0  0  0  0  0
    1.5930   -0.2590    4.7170 H   0  0  0  0  0  0  0  0  0  0  0  0
    2.8130   -0.5640    3.4740 H   0  0  0  0  0  0  0  0  0  0  0  0
   -0.0240   -1.6990    3.7460 H   0  0  0  0  0  0  0  0  0  0  0  0
    0.4110   -2.3600    1.3060 H   0  0  0  0  0  0  0  0  0  0  0  0
    1.1750   -3.3150    2.5350 H   0  0  0  0  0  0  0  0  0  0  0  0
    4.0750    1.8280   -2.0160 C   0  0  0  0  0  0  0  0  0  0  0  0
    3.6210    3.0350   -0.7460 S   0  0  0  0  0  0  0  0  0  0  0  0
    2.3660    2.3030    0.3470 C   0  0  0  0  0  0  0  0  0  0  0  0
    1.0730    2.0600   -0.4130 C   0  0  0  0  0  0  0  0  0  0  0  0
    0.0490    1.4660    0.4770 C   0  0  2  0  0  0  0  0  0  0  0  0
    0.4010    0.2030    1.0640 N   0  0  0  0  0  0  0  0  0  0  0  0
   -1.2240    1.2600   -0.2700 C   0  0  0  0  0  0  0  0  0  0  0  0
   -1.7620    2.2270   -0.8950 O   0  0  0  0  0  0  0  0  0  0  0  0
    4.9960    2.1380   -2.5600 H   0  0  0  0  0  0  0  0  0  0  0  0
    3.2040    1.7130   -2.7120 H   0  0  0  0  0  0  0  0  0  0  0  0
    4.2350    0.8490   -1.5580 H   0  0  0  0  0  0  0  0  0  0  0  0
    2.1470    3.0600    1.1240 H   0  0  0  0  0  0  0  0  0  0  0  0
    2.8000    1.3730    0.7550 H   0  0  0  0  0  0  0  0  0  0  0  0
    1.2410    1.5220   -1.3600 H   0  0  0  0  0  0  0  0  0  0  0  0
    0.7130    3.0790   -0.7050 H   0  0  0  0  0  0  0  0  0  0  0  0
   -0.1770    2.2070    1.2840 H   0  0  0  0  0  0  0  0  0  0  0  0
    0.6360   -0.5750    0.4140 H   0  0  0  0  0  0  0  0  0  0  0  0
   -1.8970    0.0100   -0.3310 N   0  0  0  0  0  0  0  0  0  0  0  0
   -3.1340   -0.2070   -1.0520 C   0  0  1  0  0  0  0  0  0  0  0  0
   -2.9620   -1.2160   -2.1620 C   0  0  0  0  0  0  0  0  0  0  0  0
   -2.5230   -2.5290   -1.6550 C   0  0  0  0  0  0  0  0  0  0  0  0
   -1.2210   -2.9380   -1.4940 C   0  0  0  0  0  0  0  0  0  0  0  0
   -1.2660   -4.1840   -1.0130 N   0  0  0  0  0  0  0  0  0  0  0  0
   -2.5480   -4.5680   -0.8680 C   0  0  0  0  0  0  0  0  0  0  0  0
   -3.3100   -3.5390   -1.2670 N   0  0  0  0  0  0  0  0  0  0  0  0
   -4.2420   -0.5780   -0.1550 C   0  0  0  0  0  0  0  0  0  0  0  0
   -5.3750   -0.7940   -0.6490 O   0  0  0  0  0  0  0  0  0  0  0  0
   -4.0730   -0.6950    1.1960 O   0  0  0  0  0  0  0  0  0  0  0  0
   -1.4260   -0.7800    0.1990 H   0  0  0  0  0  0  0  0  0  0  0  0
   -3.4040    0.7600   -1.5220 H   0  0  0  0  0  0  0  0  0  0  0  0
   -2.2240   -0.7870   -2.8740 H   0  0  0  0  0  0  0  0  0  0  0  0
   -3.9390   -1.3530   -2.6540 H   0  0  0  0  0  0  0  0  0  0  0  0
   -0.3360   -2.3300   -1.7260 H   0  0  0  0  0  0  0  0  0  0  0  0
   -0.4330   -4.7680   -0.7860 H   0  0  0  0  0  0  0  0  0  0  0  0
   -2.9040   -5.5350   -0.4950 H   0  0  0  0  0  0  0  0  0  0  0  0
  1 10  1  0  0  0  0
  2  1  1  0  0  0  0
  3  2  2  0  0  0  0
  4 11  1  0  0  0  0
  4  2  1  0  0  0  0
  5 13  1  1  0  0  0
  5  4  1  0  0  0  0
  6 15  1  0  0  0  0
  6  5  1  0  0  0  0
  7  5  1  0  0  0  0
  7  8  2  0  0  0  0
  9  1  1  0  0  0  0
 12  4  1  0  0  0  0
 14  6  1  0  0  0  0
 16 26  1  0  0  0  0
 16 17  1  0  0  0  0
 17 18  1  0  0  0  0
 18 28  1  0  0  0  0
 18 27  1  0  0  0  0
 19 18  1  0  0  0  0
 19 20  1  0  0  0  0
 20 21  1  0  0  0  0
 20 31  1  1  0  0  0
 21  7  1  0  0  0  0
 22 20  1  0  0  0  0
 23 22  2  0  0  0  0
 24 16  1  0  0  0  0
 25 16  1  0  0  0  0
 29 19  1  0  0  0  0
 30 19  1  0  0  0  0
 32 21  1  0  0  0  0
 33 22  1  0  0  0  0
 33 44  1  0  0  0  0
 34 45  1  6  0  0  0
 34 33  1  0  0  0  0
 34 41  1  0  0  0  0
 35 36  1  0  0  0  0
 35 34  1  0  0  0  0
 36 37  2  0  0  0  0
 36 40  1  0  0  0  0
 37 38  1  0  0  0  0
 38 39  1  0  0  0  0
 38 49  1  0  0  0  0
 39 50  1  0  0  0  0
 40 39  2  0  0  0  0
 41 43  1  0  0  0  0
 42 41  2  0  0  0  0
 46 35  1  0  0  0  0
 47 35  1  0  0  0  0
 48 37  1  0  0  0  0
M  END
$$$$
