NMM.pdb
 OpenBabel07022418103D

 50 49  0  0  1  0  0  0  0  0999 V2000
    2.1470   -5.9350    0.8430 N   0  0  0  0  0  0  0  0  0  0  0  0
    2.7600   -4.7640    1.3940 C   0  0  0  0  0  0  0  0  0  0  0  0
    3.9780   -4.7830    1.6830 O   0  0  0  0  0  0  0  0  0  0  0  0
    1.9410   -3.5450    1.6140 C   0  0  0  0  0  0  0  0  0  0  0  0
    2.8050   -2.4560    2.1960 C   0  0  2  0  0  0  0  0  0  0  0  0
    3.3650   -2.8890    3.4600 N   0  0  0  0  0  0  0  0  0  0  0  0
    2.0990   -1.1930    2.3930 C   0  0  0  0  0  0  0  0  0  0  0  0
    2.0620   -0.6730    3.5280 O   0  0  0  0  0  0  0  0  0  0  0  0
    2.7040   -6.7910    0.6680 H   0  0  0  0  0  0  0  0  0  0  0  0
    1.1340   -5.9510    0.6080 H   0  0  0  0  0  0  0  0  0  0  0  0
    1.6020   -3.1930    0.6030 H   0  0  0  0  0  0  0  0  0  0  0  0
    1.1020   -3.8250    2.2480 H   0  0  0  0  0  0  0  0  0  0  0  0
    3.6690   -2.2740    1.5150 H   0  0  0  0  0  0  0  0  0  0  0  0
    3.1560   -2.2050    4.2200 H   0  0  0  0  0  0  0  0  0  0  0  0
    3.0180   -3.8340    3.7320 H   0  0  0  0  0  0  0  0  0  0  0  0
    2.9620    4.7540    0.2620 C   0  0  0  0  0  0  0  0  0  0  0  0
    3.6230    3.1140   -0.0920 S   0  0  0  0  0  0  0  0  0  0  0  0
    2.8390    1.8880    1.0100 C   0  0  0  0  0  0  0  0  0  0  0  0
    1.3650    1.7880    0.6630 C   0  0  0  0  0  0  0  0  0  0  0  0
    0.7340    0.7680    1.5870 C   0  0  2  0  0  0  0  0  0  0  0  0
    1.4300   -0.4940    1.3460 N   0  0  0  0  0  0  0  0  0  0  0  0
   -0.7140    0.5960    1.2200 C   0  0  0  0  0  0  0  0  0  0  0  0
   -1.5410    1.5330    1.3390 O   0  0  0  0  0  0  0  0  0  0  0  0
    3.2440    5.4270   -0.5950 H   0  0  0  0  0  0  0  0  0  0  0  0
    3.4220    5.2020    1.1630 H   0  0  0  0  0  0  0  0  0  0  0  0
    1.8570    4.7580    0.3210 H   0  0  0  0  0  0  0  0  0  0  0  0
    2.9940    2.2310    2.0500 H   0  0  0  0  0  0  0  0  0  0  0  0
    3.3260    0.8980    0.9140 H   0  0  0  0  0  0  0  0  0  0  0  0
    1.3040    1.3560   -0.3680 H   0  0  0  0  0  0  0  0  0  0  0  0
    0.8670    2.7570    0.6660 H   0  0  0  0  0  0  0  0  0  0  0  0
    0.8500    1.0120    2.6500 H   0  0  0  0  0  0  0  0  0  0  0  0
    1.4700   -0.9410    0.3990 H   0  0  0  0  0  0  0  0  0  0  0  0
   -4.5630    1.5890   -2.3850 C   0  0  0  0  0  0  0  0  0  0  0  0
   -5.1510    0.2110   -1.3630 S   0  0  0  0  0  0  0  0  0  0  0  0
   -4.1300   -1.2580   -1.5710 C   0  0  0  0  0  0  0  0  0  0  0  0
   -2.7440   -1.0970   -1.0660 C   0  0  0  0  0  0  0  0  0  0  0  0
   -2.6130   -0.7650    0.3810 C   0  0  2  0  0  0  0  0  0  0  0  0
   -1.2090   -0.6380    0.7230 N   0  0  0  0  0  0  0  0  0  0  0  0
   -3.1510   -1.8430    1.2460 C   0  0  0  0  0  0  0  0  0  0  0  0
   -2.4210   -2.4880    2.0760 O   0  0  0  0  0  0  0  0  0  0  0  0
   -4.4790   -2.2400    1.2310 O   0  0  0  0  0  0  0  0  0  0  0  0
   -3.5250    1.8590   -2.0290 H   0  0  0  0  0  0  0  0  0  0  0  0
   -4.5870    1.3670   -3.4580 H   0  0  0  0  0  0  0  0  0  0  0  0
   -5.1820    2.4860   -2.1790 H   0  0  0  0  0  0  0  0  0  0  0  0
   -4.0610   -1.5620   -2.6480 H   0  0  0  0  0  0  0  0  0  0  0  0
   -4.6230   -2.1070   -1.0650 H   0  0  0  0  0  0  0  0  0  0  0  0
   -2.1530   -0.3790   -1.6740 H   0  0  0  0  0  0  0  0  0  0  0  0
   -2.2280   -2.0890   -1.2160 H   0  0  0  0  0  0  0  0  0  0  0  0
   -3.1810    0.1590    0.5650 H   0  0  0  0  0  0  0  0  0  0  0  0
   -0.5750   -1.4580    0.5990 H   0  0  0  0  0  0  0  0  0  0  0  0
  1  2  1  0  0  0  0
  2  4  1  0  0  0  0
  2  3  2  0  0  0  0
  4  5  1  0  0  0  0
  4 12  1  0  0  0  0
  5 13  1  6  0  0  0
  5  7  1  0  0  0  0
  5  6  1  0  0  0  0
  6 15  1  0  0  0  0
  6 14  1  0  0  0  0
  7  8  2  0  0  0  0
  9  1  1  0  0  0  0
 10  1  1  0  0  0  0
 11  4  1  0  0  0  0
 16 26  1  0  0  0  0
 16 25  1  0  0  0  0
 17 16  1  0  0  0  0
 17 18  1  0  0  0  0
 18 27  1  0  0  0  0
 19 30  1  0  0  0  0
 19 18  1  0  0  0  0
 19 20  1  0  0  0  0
 20 31  1  1  0  0  0
 21 20  1  0  0  0  0
 21  7  1  0  0  0  0
 22 23  2  0  0  0  0
 22 20  1  0  0  0  0
 24 16  1  0  0  0  0
 28 18  1  0  0  0  0
 29 19  1  0  0  0  0
 32 21  1  0  0  0  0
 33 44  1  0  0  0  0
 33 42  1  0  0  0  0
 33 34  1  0  0  0  0
 35 34  1  0  0  0  0
 35 36  1  0  0  0  0
 35 46  1  0  0  0  0
 36 37  1  0  0  0  0
 37 49  1  1  0  0  0
 37 38  1  0  0  0  0
 37 39  1  0  0  0  0
 38 22  1  0  0  0  0
 39 40  1  0  0  0  0
 41 39  2  0  0  0  0
 43 33  1  0  0  0  0
 45 35  1  0  0  0  0
 47 36  1  0  0  0  0
 48 36  1  0  0  0  0
 50 38  1  0  0  0  0
M  END
$$$$
