NMN.pdb
 OpenBabel07022418103D

 47 46  0  0  1  0  0  0  0  0999 V2000
    2.8300   -5.2100    3.7270 N   0  0  0  0  0  0  0  0  0  0  0  0
    2.7200   -3.9410    4.3740 C   0  0  0  0  0  0  0  0  0  0  0  0
    2.5780   -3.9460    5.6230 O   0  0  0  0  0  0  0  0  0  0  0  0
    2.7640   -2.6470    3.6570 C   0  0  0  0  0  0  0  0  0  0  0  0
    1.3370   -2.1330    3.4170 C   0  0  2  0  0  0  0  0  0  0  0  0
    0.6950   -3.1620    2.6150 N   0  0  0  0  0  0  0  0  0  0  0  0
    1.4660   -0.8620    2.6550 C   0  0  0  0  0  0  0  0  0  0  0  0
    1.9610    0.1810    3.1450 O   0  0  0  0  0  0  0  0  0  0  0  0
    2.0540   -5.9060    3.8230 H   0  0  0  0  0  0  0  0  0  0  0  0
    3.6510   -5.4690    3.1630 H   0  0  0  0  0  0  0  0  0  0  0  0
    3.3150   -1.9270    4.3080 H   0  0  0  0  0  0  0  0  0  0  0  0
    3.2730   -2.7890    2.6840 H   0  0  0  0  0  0  0  0  0  0  0  0
    0.7790   -2.0420    4.3540 H   0  0  0  0  0  0  0  0  0  0  0  0
   -0.2840   -2.9080    2.3650 H   0  0  0  0  0  0  0  0  0  0  0  0
    1.2170   -3.3360    1.7260 H   0  0  0  0  0  0  0  0  0  0  0  0
    2.3460   -0.0010   -4.1250 C   0  0  0  0  0  0  0  0  0  0  0  0
    3.1630    1.1170   -2.9830 S   0  0  0  0  0  0  0  0  0  0  0  0
    2.1400    1.4870   -1.5250 C   0  0  0  0  0  0  0  0  0  0  0  0
    1.9320    0.2700   -0.6740 C   0  0  0  0  0  0  0  0  0  0  0  0
    1.1430    0.4500    0.5640 C   0  0  2  0  0  0  0  0  0  0  0  0
    1.0230   -0.7890    1.3230 N   0  0  0  0  0  0  0  0  0  0  0  0
   -0.2340    0.8930    0.2310 C   0  0  0  0  0  0  0  0  0  0  0  0
   -0.3930    1.9680   -0.3790 O   0  0  0  0  0  0  0  0  0  0  0  0
    1.3220    0.3390   -4.4210 H   0  0  0  0  0  0  0  0  0  0  0  0
    2.3610   -1.0590   -3.8180 H   0  0  0  0  0  0  0  0  0  0  0  0
    2.9340    0.0400   -5.0860 H   0  0  0  0  0  0  0  0  0  0  0  0
    1.1940    1.9410   -1.8740 H   0  0  0  0  0  0  0  0  0  0  0  0
    2.6910    2.3060   -0.9820 H   0  0  0  0  0  0  0  0  0  0  0  0
    1.4250   -0.4720   -1.3750 H   0  0  0  0  0  0  0  0  0  0  0  0
    2.9150   -0.2660   -0.4880 H   0  0  0  0  0  0  0  0  0  0  0  0
    1.6370    1.1930    1.2170 H   0  0  0  0  0  0  0  0  0  0  0  0
    0.6080   -1.6060    0.8390 H   0  0  0  0  0  0  0  0  0  0  0  0
   -5.8200    0.6150    1.2920 N   0  0  0  0  0  0  0  0  0  0  0  0
   -4.8320    1.5820    0.9930 C   0  0  0  0  0  0  0  0  0  0  0  0
   -5.1820    2.6550    0.4610 O   0  0  0  0  0  0  0  0  0  0  0  0
   -3.4260    1.2960    1.3160 C   0  0  0  0  0  0  0  0  0  0  0  0
   -2.7520    0.4620    0.2940 C   0  0  2  0  0  0  0  0  0  0  0  0
   -1.3920    0.1580    0.5680 N   0  0  0  0  0  0  0  0  0  0  0  0
   -3.0440    0.9440   -1.0780 C   0  0  0  0  0  0  0  0  0  0  0  0
   -4.1760    1.3030   -1.4650 O   0  0  0  0  0  0  0  0  0  0  0  0
   -2.0270    1.0130   -2.0150 O   0  0  0  0  0  0  0  0  0  0  0  0
   -6.4870    0.2000    0.6050 H   0  0  0  0  0  0  0  0  0  0  0  0
   -5.8950    0.2830    2.2780 H   0  0  0  0  0  0  0  0  0  0  0  0
   -3.3320    0.7970    2.3090 H   0  0  0  0  0  0  0  0  0  0  0  0
   -2.8480    2.2640    1.4610 H   0  0  0  0  0  0  0  0  0  0  0  0
   -3.2800   -0.5630    0.2940 H   0  0  0  0  0  0  0  0  0  0  0  0
   -1.1690   -0.7360    1.1080 H   0  0  0  0  0  0  0  0  0  0  0  0
  1  9  1  0  0  0  0
  1  2  1  0  0  0  0
  2  3  2  0  0  0  0
  4 11  1  0  0  0  0
  4  2  1  0  0  0  0
  5  4  1  0  0  0  0
  5 13  1  1  0  0  0
  6  5  1  0  0  0  0
  7  8  2  0  0  0  0
  7  5  1  0  0  0  0
 10  1  1  0  0  0  0
 12  4  1  0  0  0  0
 14  6  1  0  0  0  0
 15  6  1  0  0  0  0
 16 25  1  0  0  0  0
 16 17  1  0  0  0  0
 17 18  1  0  0  0  0
 18 28  1  0  0  0  0
 18 19  1  0  0  0  0
 19 30  1  0  0  0  0
 19 20  1  0  0  0  0
 20 31  1  1  0  0  0
 20 21  1  0  0  0  0
 21  7  1  0  0  0  0
 22 20  1  0  0  0  0
 22 38  1  0  0  0  0
 23 22  2  0  0  0  0
 24 16  1  0  0  0  0
 26 16  1  0  0  0  0
 27 18  1  0  0  0  0
 29 19  1  0  0  0  0
 32 21  1  0  0  0  0
 33 43  1  0  0  0  0
 34 33  1  0  0  0  0
 34 36  1  0  0  0  0
 35 34  2  0  0  0  0
 36 45  1  0  0  0  0
 36 44  1  0  0  0  0
 37 46  1  1  0  0  0
 37 38  1  0  0  0  0
 37 36  1  0  0  0  0
 38 47  1  0  0  0  0
 39 37  1  0  0  0  0
 40 39  1  0  0  0  0
 41 39  2  0  0  0  0
 42 33  1  0  0  0  0
M  END
$$$$
