NMP.pdb
 OpenBabel07022418103D

 47 47  0  0  1  0  0  0  0  0999 V2000
    3.0150   -5.8100    0.1860 N   0  0  0  0  0  0  0  0  0  0  0  0
    2.8670   -4.5390    0.7970 C   0  0  0  0  0  0  0  0  0  0  0  0
    2.1980   -4.4790    1.8570 O   0  0  0  0  0  0  0  0  0  0  0  0
    3.4560   -3.3290    0.2440 C   0  0  0  0  0  0  0  0  0  0  0  0
    2.6020   -2.5400   -0.6930 C   0  0  2  0  0  0  0  0  0  0  0  0
    3.3140   -1.3570   -1.1760 N   0  0  0  0  0  0  0  0  0  0  0  0
    1.3380   -2.1460   -0.0180 C   0  0  0  0  0  0  0  0  0  0  0  0
    0.5850   -3.0520    0.4020 O   0  0  0  0  0  0  0  0  0  0  0  0
    3.1780   -6.6380    0.8180 H   0  0  0  0  0  0  0  0  0  0  0  0
    2.9620   -5.9110   -0.8660 H   0  0  0  0  0  0  0  0  0  0  0  0
    4.4150   -3.5470   -0.3060 H   0  0  0  0  0  0  0  0  0  0  0  0
    3.7790   -2.6840    1.1120 H   0  0  0  0  0  0  0  0  0  0  0  0
    2.3270   -3.1940   -1.5450 H   0  0  0  0  0  0  0  0  0  0  0  0
    3.1700   -1.2400   -2.2160 H   0  0  0  0  0  0  0  0  0  0  0  0
    4.3240   -1.4220   -0.9270 H   0  0  0  0  0  0  0  0  0  0  0  0
    3.1370    1.4830    1.2960 C   0  0  0  0  0  0  0  0  0  0  0  0
    2.4790    0.7320    2.7400 S   0  0  0  0  0  0  0  0  0  0  0  0
    0.7580    0.5850    2.9790 C   0  0  0  0  0  0  0  0  0  0  0  0
   -0.0810   -0.3860    2.2780 C   0  0  0  0  0  0  0  0  0  0  0  0
   -0.2590   -0.4480    0.8170 C   0  0  2  0  0  0  0  0  0  0  0  0
    0.9980   -0.7600    0.1440 N   0  0  0  0  0  0  0  0  0  0  0  0
   -0.9270    0.6800    0.1730 C   0  0  0  0  0  0  0  0  0  0  0  0
   -0.2450    1.2230   -0.7890 O   0  0  0  0  0  0  0  0  0  0  0  0
    2.4120    1.9650    0.6100 H   0  0  0  0  0  0  0  0  0  0  0  0
    3.6810    0.7140    0.6720 H   0  0  0  0  0  0  0  0  0  0  0  0
    3.9150    2.2630    1.4870 H   0  0  0  0  0  0  0  0  0  0  0  0
    0.2340    1.6250    3.0020 H   0  0  0  0  0  0  0  0  0  0  0  0
    0.6120    0.3280    4.1050 H   0  0  0  0  0  0  0  0  0  0  0  0
    0.3160   -1.4520    2.5510 H   0  0  0  0  0  0  0  0  0  0  0  0
   -1.1200   -0.3620    2.7450 H   0  0  0  0  0  0  0  0  0  0  0  0
   -0.8890   -1.3920    0.6540 H   0  0  0  0  0  0  0  0  0  0  0  0
    1.6560   -0.1060   -0.2610 H   0  0  0  0  0  0  0  0  0  0  0  0
   -2.1730    1.2500    0.4360 N   0  0  0  0  0  0  0  0  0  0  0  0
   -2.6720    2.4190   -0.3380 C   0  0  0  0  0  0  0  0  0  0  0  0
   -4.1640    2.3940   -0.1990 C   0  0  0  0  0  0  0  0  0  0  0  0
   -4.3130    1.9000    1.2320 C   0  0  0  0  0  0  0  0  0  0  0  0
   -3.1600    0.8920    1.3900 C   0  0  1  0  0  0  0  0  0  0  0  0
   -3.7440   -0.4570    1.0760 C   0  0  0  0  0  0  0  0  0  0  0  0
   -3.4770   -1.0790    0.0360 O   0  0  0  0  0  0  0  0  0  0  0  0
   -4.6280   -1.0460    1.9860 O   0  0  0  0  0  0  0  0  0  0  0  0
   -2.4340    2.2210   -1.4060 H   0  0  0  0  0  0  0  0  0  0  0  0
   -2.2020    3.3460   -0.0060 H   0  0  0  0  0  0  0  0  0  0  0  0
   -4.6040    3.4210   -0.2310 H   0  0  0  0  0  0  0  0  0  0  0  0
   -4.6790    1.7670   -0.9340 H   0  0  0  0  0  0  0  0  0  0  0  0
   -5.2800    1.3660    1.2940 H   0  0  0  0  0  0  0  0  0  0  0  0
   -4.2300    2.7370    1.9380 H   0  0  0  0  0  0  0  0  0  0  0  0
   -2.8810    0.9500    2.4420 H   0  0  0  0  0  0  0  0  0  0  0  0
  1  2  1  0  0  0  0
  1  9  1  0  0  0  0
  2  3  2  0  0  0  0
  4  2  1  0  0  0  0
  4 12  1  0  0  0  0
  5 13  1  6  0  0  0
  5  7  1  0  0  0  0
  5  4  1  0  0  0  0
  6 15  1  0  0  0  0
  6  5  1  0  0  0  0
  7 21  1  0  0  0  0
  7  8  2  0  0  0  0
 10  1  1  0  0  0  0
 11  4  1  0  0  0  0
 14  6  1  0  0  0  0
 16 26  1  0  0  0  0
 16 17  1  0  0  0  0
 17 18  1  0  0  0  0
 18 27  1  0  0  0  0
 18 28  1  0  0  0  0
 19 29  1  0  0  0  0
 19 30  1  0  0  0  0
 19 18  1  0  0  0  0
 20 31  1  6  0  0  0
 20 19  1  0  0  0  0
 21 20  1  0  0  0  0
 22 33  1  0  0  0  0
 22 20  1  0  0  0  0
 23 22  2  0  0  0  0
 24 16  1  0  0  0  0
 25 16  1  0  0  0  0
 32 21  1  0  0  0  0
 33 37  1  0  0  0  0
 34 35  1  0  0  0  0
 34 42  1  0  0  0  0
 34 33  1  0  0  0  0
 35 36  1  0  0  0  0
 36 45  1  0  0  0  0
 36 37  1  0  0  0  0
 36 46  1  0  0  0  0
 37 47  1  1  0  0  0
 38 37  1  0  0  0  0
 38 40  1  0  0  0  0
 39 38  2  0  0  0  0
 41 34  1  0  0  0  0
 43 35  1  0  0  0  0
 44 35  1  0  0  0  0
M  END
$$$$
