NMS.pdb
 OpenBabel07022418103D

 44 43  0  0  1  0  0  0  0  0999 V2000
    3.1770   -3.7660    4.8740 N   0  0  0  0  0  0  0  0  0  0  0  0
    3.1410   -2.3600    4.7610 C   0  0  0  0  0  0  0  0  0  0  0  0
    3.1980   -1.6620    5.7940 O   0  0  0  0  0  0  0  0  0  0  0  0
    3.0380   -1.7360    3.4290 C   0  0  0  0  0  0  0  0  0  0  0  0
    1.6400   -1.2990    3.0900 C   0  0  2  0  0  0  0  0  0  0  0  0
    0.7060   -2.3820    3.0870 N   0  0  0  0  0  0  0  0  0  0  0  0
    1.6960   -0.5930    1.7790 C   0  0  0  0  0  0  0  0  0  0  0  0
    2.4720    0.3820    1.6130 O   0  0  0  0  0  0  0  0  0  0  0  0
    2.9050   -4.2620    5.7620 H   0  0  0  0  0  0  0  0  0  0  0  0
    3.4870   -4.3190    4.0400 H   0  0  0  0  0  0  0  0  0  0  0  0
    3.4520   -2.4150    2.6680 H   0  0  0  0  0  0  0  0  0  0  0  0
    3.6700   -0.8020    3.3620 H   0  0  0  0  0  0  0  0  0  0  0  0
    1.3080   -0.5620    3.8420 H   0  0  0  0  0  0  0  0  0  0  0  0
    0.3750   -2.5590    4.0390 H   0  0  0  0  0  0  0  0  0  0  0  0
    1.0380   -3.2250    2.5720 H   0  0  0  0  0  0  0  0  0  0  0  0
    1.0140    2.3170   -3.4250 C   0  0  0  0  0  0  0  0  0  0  0  0
    0.6340    0.6120   -3.9150 S   0  0  0  0  0  0  0  0  0  0  0  0
    1.4680   -0.6510   -3.0510 C   0  0  0  0  0  0  0  0  0  0  0  0
    1.1360   -1.1620   -1.7210 C   0  0  0  0  0  0  0  0  0  0  0  0
    0.9970   -0.2310   -0.6060 C   0  0  2  0  0  0  0  0  0  0  0  0
    0.8960   -0.9770    0.6820 N   0  0  0  0  0  0  0  0  0  0  0  0
   -0.4280    0.3380   -0.6440 C   0  0  0  0  0  0  0  0  0  0  0  0
   -0.8110    0.9200   -1.6540 O   0  0  0  0  0  0  0  0  0  0  0  0
    0.0670    2.8910   -3.4750 H   0  0  0  0  0  0  0  0  0  0  0  0
    1.7250    2.7890   -4.1370 H   0  0  0  0  0  0  0  0  0  0  0  0
    1.4080    2.3640   -2.3910 H   0  0  0  0  0  0  0  0  0  0  0  0
    2.6290   -0.4140   -3.0800 H   0  0  0  0  0  0  0  0  0  0  0  0
    1.5250   -1.5580   -3.8020 H   0  0  0  0  0  0  0  0  0  0  0  0
    1.8970   -1.9850   -1.4980 H   0  0  0  0  0  0  0  0  0  0  0  0
    0.1240   -1.7060   -1.8470 H   0  0  0  0  0  0  0  0  0  0  0  0
    1.7260    0.5570   -0.5780 H   0  0  0  0  0  0  0  0  0  0  0  0
    0.2330   -1.7490    0.6960 H   0  0  0  0  0  0  0  0  0  0  0  0
   -3.4970   -1.0100    1.6700 O   0  0  0  0  0  0  0  0  0  0  0  0
   -3.6290   -0.3700    0.4480 C   0  0  0  0  0  0  0  0  0  0  0  0
   -2.6540    0.7850    0.3300 C   0  0  2  0  0  0  0  0  0  0  0  0
   -1.3290    0.2150    0.4580 N   0  0  0  0  0  0  0  0  0  0  0  0
   -2.9630    1.7410    1.4050 C   0  0  0  0  0  0  0  0  0  0  0  0
   -2.1300    1.9940    2.3030 O   0  0  0  0  0  0  0  0  0  0  0  0
   -4.1880    2.3790    1.4380 O   0  0  0  0  0  0  0  0  0  0  0  0
   -3.9190   -0.5540    2.4210 H   0  0  0  0  0  0  0  0  0  0  0  0
   -4.6650   -0.0140    0.3670 H   0  0  0  0  0  0  0  0  0  0  0  0
   -3.3920   -1.0850   -0.3580 H   0  0  0  0  0  0  0  0  0  0  0  0
   -2.7470    1.2520   -0.6450 H   0  0  0  0  0  0  0  0  0  0  0  0
   -1.0150   -0.2700    1.3120 H   0  0  0  0  0  0  0  0  0  0  0  0
  1  9  1  0  0  0  0
  2  1  1  0  0  0  0
  2  3  2  0  0  0  0
  4  2  1  0  0  0  0
  5  4  1  0  0  0  0
  5 13  1  1  0  0  0
  6  5  1  0  0  0  0
  6 14  1  0  0  0  0
  7  5  1  0  0  0  0
  8  7  2  0  0  0  0
 10  1  1  0  0  0  0
 11  4  1  0  0  0  0
 12  4  1  0  0  0  0
 15  6  1  0  0  0  0
 16 26  1  0  0  0  0
 17 16  1  0  0  0  0
 17 18  1  0  0  0  0
 18 19  1  0  0  0  0
 19 29  1  0  0  0  0
 19 20  1  0  0  0  0
 20 31  1  1  0  0  0
 20 21  1  0  0  0  0
 21 32  1  0  0  0  0
 21  7  1  0  0  0  0
 22 20  1  0  0  0  0
 22 36  1  0  0  0  0
 23 22  2  0  0  0  0
 24 16  1  0  0  0  0
 25 16  1  0  0  0  0
 27 18  1  0  0  0  0
 28 18  1  0  0  0  0
 30 19  1  0  0  0  0
 33 40  1  0  0  0  0
 34 33  1  0  0  0  0
 35 43  1  6  0  0  0
 35 34  1  0  0  0  0
 35 36  1  0  0  0  0
 35 37  1  0  0  0  0
 36 44  1  0  0  0  0
 37 39  2  0  0  0  0
 37 38  1  0  0  0  0
 41 34  1  0  0  0  0
 42 34  1  0  0  0  0
M  END
$$$$
