NMT.pdb
 OpenBabel07022418103D

 47 46  0  0  1  0  0  0  0  0999 V2000
    3.9520   -5.4720    1.5580 N   0  0  0  0  0  0  0  0  0  0  0  0
    3.6810   -4.1380    1.9640 C   0  0  0  0  0  0  0  0  0  0  0  0
    3.0190   -3.9890    3.0330 O   0  0  0  0  0  0  0  0  0  0  0  0
    4.1770   -3.0400    1.1310 C   0  0  0  0  0  0  0  0  0  0  0  0
    3.2080   -2.5240    0.1110 C   0  0  2  0  0  0  0  0  0  0  0  0
    3.8130   -1.4440   -0.6460 N   0  0  0  0  0  0  0  0  0  0  0  0
    1.9630   -2.0900    0.7810 C   0  0  0  0  0  0  0  0  0  0  0  0
    1.2550   -2.8660    1.4660 O   0  0  0  0  0  0  0  0  0  0  0  0
    3.1930   -6.1750    1.6910 H   0  0  0  0  0  0  0  0  0  0  0  0
    4.8480   -5.7550    1.1490 H   0  0  0  0  0  0  0  0  0  0  0  0
    5.1730   -3.2710    0.6820 H   0  0  0  0  0  0  0  0  0  0  0  0
    4.3860   -2.1780    1.8300 H   0  0  0  0  0  0  0  0  0  0  0  0
    3.0190   -3.3610   -0.6130 H   0  0  0  0  0  0  0  0  0  0  0  0
    4.6990   -1.8450   -1.0650 H   0  0  0  0  0  0  0  0  0  0  0  0
    3.2020   -1.1820   -1.4430 H   0  0  0  0  0  0  0  0  0  0  0  0
    0.3780    2.6380   -0.7050 C   0  0  0  0  0  0  0  0  0  0  0  0
    0.2380    3.1590    1.0020 S   0  0  0  0  0  0  0  0  0  0  0  0
    1.0150    2.0410    2.1380 C   0  0  0  0  0  0  0  0  0  0  0  0
    0.4210    0.7250    2.3820 C   0  0  0  0  0  0  0  0  0  0  0  0
    0.2730   -0.2830    1.3280 C   0  0  2  0  0  0  0  0  0  0  0  0
    1.4880   -0.7300    0.6820 N   0  0  0  0  0  0  0  0  0  0  0  0
   -0.8260   -0.0660    0.3610 C   0  0  0  0  0  0  0  0  0  0  0  0
   -0.6840   -0.3430   -0.8820 O   0  0  0  0  0  0  0  0  0  0  0  0
   -0.6320    2.3880   -1.1310 H   0  0  0  0  0  0  0  0  0  0  0  0
    1.0450    1.7840   -0.8320 H   0  0  0  0  0  0  0  0  0  0  0  0
    0.7500    3.5230   -1.2910 H   0  0  0  0  0  0  0  0  0  0  0  0
    1.0160    2.5750    3.1540 H   0  0  0  0  0  0  0  0  0  0  0  0
    2.1290    1.9670    1.9420 H   0  0  0  0  0  0  0  0  0  0  0  0
    1.0190    0.2490    3.2250 H   0  0  0  0  0  0  0  0  0  0  0  0
   -0.5870    0.8890    2.8680 H   0  0  0  0  0  0  0  0  0  0  0  0
   -0.1360   -1.2190    1.9200 H   0  0  0  0  0  0  0  0  0  0  0  0
    2.0770   -0.0940    0.1210 H   0  0  0  0  0  0  0  0  0  0  0  0
   -4.0300   -1.6320    0.3460 C   0  0  0  0  0  0  0  0  0  0  0  0
   -4.3420   -0.1650    0.2890 C   0  0  1  0  0  0  0  0  0  0  0  0
   -4.6940    0.2550    1.5690 O   0  0  0  0  0  0  0  0  0  0  0  0
   -3.1790    0.6680   -0.2120 C   0  0  2  0  0  0  0  0  0  0  0  0
   -2.0920    0.4510    0.7220 N   0  0  0  0  0  0  0  0  0  0  0  0
   -3.6100    2.0850   -0.0760 C   0  0  0  0  0  0  0  0  0  0  0  0
   -3.0810    2.8910    0.7330 O   0  0  0  0  0  0  0  0  0  0  0  0
   -4.6490    2.5980   -0.8610 O   0  0  0  0  0  0  0  0  0  0  0  0
   -4.9350   -2.1360    0.7450 H   0  0  0  0  0  0  0  0  0  0  0  0
   -3.2090   -1.8760    1.0490 H   0  0  0  0  0  0  0  0  0  0  0  0
   -3.7980   -2.0870   -0.6210 H   0  0  0  0  0  0  0  0  0  0  0  0
   -5.2220   -0.0230   -0.3520 H   0  0  0  0  0  0  0  0  0  0  0  0
   -4.5250   -0.4380    2.2340 H   0  0  0  0  0  0  0  0  0  0  0  0
   -2.8960    0.4020   -1.2440 H   0  0  0  0  0  0  0  0  0  0  0  0
   -2.2590    0.6930    1.7200 H   0  0  0  0  0  0  0  0  0  0  0  0
  1  9  1  0  0  0  0
  1  2  1  0  0  0  0
  2  3  2  0  0  0  0
  4 12  1  0  0  0  0
  4  2  1  0  0  0  0
  5 13  1  6  0  0  0
  5  7  1  0  0  0  0
  5  4  1  0  0  0  0
  6  5  1  0  0  0  0
  7  8  2  0  0  0  0
 10  1  1  0  0  0  0
 11  4  1  0  0  0  0
 14  6  1  0  0  0  0
 15  6  1  0  0  0  0
 16 17  1  0  0  0  0
 17 18  1  0  0  0  0
 18 19  1  0  0  0  0
 18 27  1  0  0  0  0
 19 30  1  0  0  0  0
 19 29  1  0  0  0  0
 20 31  1  1  0  0  0
 20 19  1  0  0  0  0
 21  7  1  0  0  0  0
 21 20  1  0  0  0  0
 22 37  1  0  0  0  0
 22 20  1  0  0  0  0
 23 22  2  0  0  0  0
 24 16  1  0  0  0  0
 25 16  1  0  0  0  0
 26 16  1  0  0  0  0
 28 18  1  0  0  0  0
 32 21  1  0  0  0  0
 33 41  1  0  0  0  0
 33 42  1  0  0  0  0
 34 44  1  6  0  0  0
 34 33  1  0  0  0  0
 34 35  1  0  0  0  0
 35 45  1  0  0  0  0
 36 46  1  6  0  0  0
 36 38  1  0  0  0  0
 36 34  1  0  0  0  0
 36 37  1  0  0  0  0
 37 47  1  0  0  0  0
 38 39  1  0  0  0  0
 40 38  2  0  0  0  0
 43 33  1  0  0  0  0
M  END
$$$$
