NMV.pdb
 OpenBabel07022418103D

 49 48  0  0  1  0  0  0  0  0999 V2000
    1.8740   -4.9030    3.7270 N   0  0  0  0  0  0  0  0  0  0  0  0
    2.6280   -3.6930    3.6070 C   0  0  0  0  0  0  0  0  0  0  0  0
    2.6090   -2.9170    4.6170 O   0  0  0  0  0  0  0  0  0  0  0  0
    3.3680   -3.4070    2.3610 C   0  0  0  0  0  0  0  0  0  0  0  0
    2.4810   -2.8540    1.3030 C   0  0  2  0  0  0  0  0  0  0  0  0
    3.1830   -2.5690    0.0690 N   0  0  0  0  0  0  0  0  0  0  0  0
    1.7160   -1.6870    1.7860 C   0  0  0  0  0  0  0  0  0  0  0  0
    1.1060   -1.7270    2.8810 O   0  0  0  0  0  0  0  0  0  0  0  0
    1.1750   -5.0490    4.4960 H   0  0  0  0  0  0  0  0  0  0  0  0
    2.0100   -5.6730    3.0360 H   0  0  0  0  0  0  0  0  0  0  0  0
    3.8600   -4.3610    2.0460 H   0  0  0  0  0  0  0  0  0  0  0  0
    4.1650   -2.6500    2.6260 H   0  0  0  0  0  0  0  0  0  0  0  0
    1.7320   -3.6610    1.0260 H   0  0  0  0  0  0  0  0  0  0  0  0
    4.0960   -2.1200    0.1770 H   0  0  0  0  0  0  0  0  0  0  0  0
    2.5900   -2.2790   -0.7110 H   0  0  0  0  0  0  0  0  0  0  0  0
    0.4760    1.7500   -1.8030 C   0  0  0  0  0  0  0  0  0  0  0  0
    1.0320    3.1110   -0.7750 S   0  0  0  0  0  0  0  0  0  0  0  0
    2.1160    2.6660    0.5590 C   0  0  0  0  0  0  0  0  0  0  0  0
    1.5110    1.9620    1.6990 C   0  0  0  0  0  0  0  0  0  0  0  0
    0.8580    0.6650    1.5620 C   0  0  2  0  0  0  0  0  0  0  0  0
    1.6050   -0.4450    1.0660 N   0  0  0  0  0  0  0  0  0  0  0  0
   -0.5040    0.6710    0.9160 C   0  0  0  0  0  0  0  0  0  0  0  0
   -1.2790    1.6290    1.1030 O   0  0  0  0  0  0  0  0  0  0  0  0
    0.6860    2.0220   -2.8820 H   0  0  0  0  0  0  0  0  0  0  0  0
    0.9920    0.8070   -1.5500 H   0  0  0  0  0  0  0  0  0  0  0  0
   -0.6420    1.6120   -1.7890 H   0  0  0  0  0  0  0  0  0  0  0  0
    2.5340    3.6560    0.9630 H   0  0  0  0  0  0  0  0  0  0  0  0
    3.0600    2.1580    0.1940 H   0  0  0  0  0  0  0  0  0  0  0  0
    2.2410    1.9430    2.5930 H   0  0  0  0  0  0  0  0  0  0  0  0
    0.7120    2.6690    2.1430 H   0  0  0  0  0  0  0  0  0  0  0  0
    0.5630    0.4000    2.6820 H   0  0  0  0  0  0  0  0  0  0  0  0
    2.1120   -0.4180    0.1590 H   0  0  0  0  0  0  0  0  0  0  0  0
   -3.5870    0.2760    1.1970 C   0  0  0  0  0  0  0  0  0  0  0  0
   -3.2070    0.3740   -0.2580 C   0  0  0  0  0  0  0  0  0  0  0  0
   -4.4480    0.0280   -1.0680 C   0  0  0  0  0  0  0  0  0  0  0  0
   -2.0940   -0.6350   -0.5560 C   0  0  2  0  0  0  0  0  0  0  0  0
   -0.8620   -0.4260    0.1130 N   0  0  0  0  0  0  0  0  0  0  0  0
   -2.0180   -1.0370   -1.9550 C   0  0  0  0  0  0  0  0  0  0  0  0
   -3.0040   -1.2760   -2.6700 O   0  0  0  0  0  0  0  0  0  0  0  0
   -0.7550   -1.1660   -2.5500 O   0  0  0  0  0  0  0  0  0  0  0  0
   -3.8420    1.2410    1.6580 H   0  0  0  0  0  0  0  0  0  0  0  0
   -4.5390   -0.3720    1.2710 H   0  0  0  0  0  0  0  0  0  0  0  0
   -2.8720   -0.3340    1.8010 H   0  0  0  0  0  0  0  0  0  0  0  0
   -2.8790    1.4140   -0.5430 H   0  0  0  0  0  0  0  0  0  0  0  0
   -4.6080   -1.0660   -1.0040 H   0  0  0  0  0  0  0  0  0  0  0  0
   -4.4480    0.4360   -2.0810 H   0  0  0  0  0  0  0  0  0  0  0  0
   -5.3010    0.4990   -0.5290 H   0  0  0  0  0  0  0  0  0  0  0  0
   -2.5720   -1.5590    0.0080 H   0  0  0  0  0  0  0  0  0  0  0  0
   -0.1090   -1.2080   -0.0110 H   0  0  0  0  0  0  0  0  0  0  0  0
  1  9  1  0  0  0  0
  2  1  1  0  0  0  0
  2  3  2  0  0  0  0
  4 12  1  0  0  0  0
  4  2  1  0  0  0  0
  5 13  1  6  0  0  0
  5  7  1  0  0  0  0
  5  4  1  0  0  0  0
  6 14  1  0  0  0  0
  6  5  1  0  0  0  0
  7  8  2  0  0  0  0
 10  1  1  0  0  0  0
 11  4  1  0  0  0  0
 15  6  1  0  0  0  0
 16 26  1  0  0  0  0
 16 25  1  0  0  0  0
 16 17  1  0  0  0  0
 17 18  1  0  0  0  0
 18 27  1  0  0  0  0
 18 19  1  0  0  0  0
 19 30  1  0  0  0  0
 19 29  1  0  0  0  0
 20 19  1  0  0  0  0
 20 31  1  1  0  0  0
 21 20  1  0  0  0  0
 21  7  1  0  0  0  0
 22 23  2  0  0  0  0
 22 20  1  0  0  0  0
 24 16  1  0  0  0  0
 28 18  1  0  0  0  0
 32 21  1  0  0  0  0
 33 42  1  0  0  0  0
 33 41  1  0  0  0  0
 33 43  1  0  0  0  0
 34 33  1  0  0  0  0
 35 45  1  0  0  0  0
 35 47  1  0  0  0  0
 35 34  1  0  0  0  0
 36 34  1  0  0  0  0
 36 48  1  1  0  0  0
 36 37  1  0  0  0  0
 37 22  1  0  0  0  0
 38 36  1  0  0  0  0
 39 38  2  0  0  0  0
 40 38  1  0  0  0  0
 44 34  1  0  0  0  0
 46 35  1  0  0  0  0
 49 37  1  0  0  0  0
M  END
$$$$
