NMW.pdb
 OpenBabel07022418103D

 57 58  0  0  1  0  0  0  0  0999 V2000
   -0.6660    0.0620    5.7880 N   0  0  0  0  0  0  0  0  0  0  0  0
   -0.0430    1.1210    5.0540 C   0  0  0  0  0  0  0  0  0  0  0  0
   -0.8070    1.9260    4.4610 O   0  0  0  0  0  0  0  0  0  0  0  0
    1.4420    1.2440    5.0090 C   0  0  0  0  0  0  0  0  0  0  0  0
    1.8390    2.4370    4.1730 C   0  0  2  0  0  0  0  0  0  0  0  0
    1.2840    3.6380    4.7470 N   0  0  0  0  0  0  0  0  0  0  0  0
    1.4130    2.3370    2.7690 C   0  0  0  0  0  0  0  0  0  0  0  0
    0.6960    3.2400    2.2850 O   0  0  0  0  0  0  0  0  0  0  0  0
   -0.1390   -0.8160    5.9900 H   0  0  0  0  0  0  0  0  0  0  0  0
   -1.6440    0.1500    6.1270 H   0  0  0  0  0  0  0  0  0  0  0  0
    1.9350    0.3150    4.6900 H   0  0  0  0  0  0  0  0  0  0  0  0
    1.7730    1.4500    6.0480 H   0  0  0  0  0  0  0  0  0  0  0  0
    2.9700    2.4900    4.1390 H   0  0  0  0  0  0  0  0  0  0  0  0
    0.4360    3.8890    4.2260 H   0  0  0  0  0  0  0  0  0  0  0  0
    1.1630    3.5790    5.7790 H   0  0  0  0  0  0  0  0  0  0  0  0
    5.5070    1.5210    1.1660 C   0  0  0  0  0  0  0  0  0  0  0  0
    4.5000    0.0010    1.1280 S   0  0  0  0  0  0  0  0  0  0  0  0
    3.5170    0.0170   -0.3610 C   0  0  0  0  0  0  0  0  0  0  0  0
    2.4780    1.0680   -0.4570 C   0  0  0  0  0  0  0  0  0  0  0  0
    1.4100    1.0850    0.5610 C   0  0  2  0  0  0  0  0  0  0  0  0
    1.7810    1.2470    1.9200 N   0  0  0  0  0  0  0  0  0  0  0  0
    0.5340   -0.1360    0.4500 C   0  0  0  0  0  0  0  0  0  0  0  0
    0.2590   -0.8160    1.4730 O   0  0  0  0  0  0  0  0  0  0  0  0
    6.3440    1.4410    1.8880 H   0  0  0  0  0  0  0  0  0  0  0  0
    4.8840    2.3850    1.5430 H   0  0  0  0  0  0  0  0  0  0  0  0
    5.8430    1.8030    0.1460 H   0  0  0  0  0  0  0  0  0  0  0  0
    4.1720    0.1310   -1.2770 H   0  0  0  0  0  0  0  0  0  0  0  0
    3.0920   -1.0200   -0.4880 H   0  0  0  0  0  0  0  0  0  0  0  0
    1.9760    0.9190   -1.4600 H   0  0  0  0  0  0  0  0  0  0  0  0
    2.9290    2.0980   -0.5760 H   0  0  0  0  0  0  0  0  0  0  0  0
    0.7430    1.9630    0.3020 H   0  0  0  0  0  0  0  0  0  0  0  0
    2.3700    0.5110    2.3570 H   0  0  0  0  0  0  0  0  0  0  0  0
   -0.0090   -0.5620   -0.7890 N   0  0  0  0  0  0  0  0  0  0  0  0
   -0.8710   -1.7670   -0.8780 C   0  0  1  0  0  0  0  0  0  0  0  0
   -2.2240   -1.3700   -1.3580 C   0  0  0  0  0  0  0  0  0  0  0  0
   -3.1380   -2.4990   -1.5030 C   0  0  0  0  0  0  0  0  0  0  0  0
   -3.9580   -2.9530   -0.4630 C   0  0  0  0  0  0  0  0  0  0  0  0
   -4.6520   -4.0230   -0.8630 N   0  0  0  0  0  0  0  0  0  0  0  0
   -4.3270   -4.2940   -2.1210 C   0  0  0  0  0  0  0  0  0  0  0  0
   -4.7660   -5.2730   -3.0020 C   0  0  0  0  0  0  0  0  0  0  0  0
   -4.2740   -5.3070   -4.2680 C   0  0  0  0  0  0  0  0  0  0  0  0
   -3.3390   -4.3760   -4.6880 C   0  0  0  0  0  0  0  0  0  0  0  0
   -2.8910   -3.4000   -3.8330 C   0  0  0  0  0  0  0  0  0  0  0  0
   -3.3960   -3.3730   -2.5450 C   0  0  0  0  0  0  0  0  0  0  0  0
   -0.2210   -2.7710   -1.7250 C   0  0  0  0  0  0  0  0  0  0  0  0
   -0.6240   -3.9430   -1.8510 O   0  0  0  0  0  0  0  0  0  0  0  0
    0.9330   -2.4130   -2.4520 O   0  0  0  0  0  0  0  0  0  0  0  0
    0.1940   -0.0310   -1.6460 H   0  0  0  0  0  0  0  0  0  0  0  0
   -0.9350   -2.1410    0.1860 H   0  0  0  0  0  0  0  0  0  0  0  0
   -2.6400   -0.5780   -0.6700 H   0  0  0  0  0  0  0  0  0  0  0  0
   -2.0830   -0.9030   -2.3760 H   0  0  0  0  0  0  0  0  0  0  0  0
   -4.0180   -2.5020    0.5190 H   0  0  0  0  0  0  0  0  0  0  0  0
   -5.3450   -4.5660   -0.2800 H   0  0  0  0  0  0  0  0  0  0  0  0
   -5.4950   -5.9800   -2.6350 H   0  0  0  0  0  0  0  0  0  0  0  0
   -4.6040   -6.0580   -4.9570 H   0  0  0  0  0  0  0  0  0  0  0  0
   -2.9550   -4.4080   -5.6890 H   0  0  0  0  0  0  0  0  0  0  0  0
   -2.1650   -2.6580   -4.1230 H   0  0  0  0  0  0  0  0  0  0  0  0
  1  9  1  0  0  0  0
  1 10  1  0  0  0  0
  2  1  1  0  0  0  0
  3  2  2  0  0  0  0
  4  2  1  0  0  0  0
  4 12  1  0  0  0  0
  5 13  1  1  0  0  0
  5  6  1  0  0  0  0
  5  4  1  0  0  0  0
  6 15  1  0  0  0  0
  7  5  1  0  0  0  0
  8  7  2  0  0  0  0
 11  4  1  0  0  0  0
 14  6  1  0  0  0  0
 16 25  1  0  0  0  0
 16 24  1  0  0  0  0
 17 16  1  0  0  0  0
 18 17  1  0  0  0  0
 19 18  1  0  0  0  0
 19 20  1  0  0  0  0
 20 31  1  6  0  0  0
 20 21  1  0  0  0  0
 21 32  1  0  0  0  0
 21  7  1  0  0  0  0
 22 20  1  0  0  0  0
 22 23  2  0  0  0  0
 26 16  1  0  0  0  0
 27 18  1  0  0  0  0
 28 18  1  0  0  0  0
 29 19  1  0  0  0  0
 30 19  1  0  0  0  0
 33 22  1  0  0  0  0
 34 33  1  0  0  0  0
 34 49  1  1  0  0  0
 35 34  1  0  0  0  0
 35 50  1  0  0  0  0
 36 35  1  0  0  0  0
 36 37  2  0  0  0  0
 37 52  1  0  0  0  0
 38 37  1  0  0  0  0
 38 53  1  0  0  0  0
 39 38  1  0  0  0  0
 40 54  1  0  0  0  0
 40 39  2  0  0  0  0
 41 40  1  0  0  0  0
 42 41  2  0  0  0  0
 42 43  1  0  0  0  0
 43 44  2  0  0  0  0
 44 39  1  0  0  0  0
 44 36  1  0  0  0  0
 45 34  1  0  0  0  0
 46 45  1  0  0  0  0
 47 45  2  0  0  0  0
 48 33  1  0  0  0  0
 51 35  1  0  0  0  0
 55 41  1  0  0  0  0
 56 42  1  0  0  0  0
 57 43  1  0  0  0  0
M  END
$$$$
