NMY.pdb
 OpenBabel07022418103D

 54 54  0  0  1  0  0  0  0  0999 V2000
    0.1610   -2.0670    3.2980 N   0  0  0  0  0  0  0  0  0  0  0  0
    0.3450   -3.1420    2.4070 C   0  0  0  0  0  0  0  0  0  0  0  0
   -0.6020   -3.9560    2.2650 O   0  0  0  0  0  0  0  0  0  0  0  0
    1.5830   -3.3620    1.6350 C   0  0  0  0  0  0  0  0  0  0  0  0
    2.6110   -2.2820    1.8770 C   0  0  2  0  0  0  0  0  0  0  0  0
    3.0070   -2.1790    3.2440 N   0  0  0  0  0  0  0  0  0  0  0  0
    2.2150   -0.9580    1.3520 C   0  0  0  0  0  0  0  0  0  0  0  0
    2.2500    0.0300    2.1240 O   0  0  0  0  0  0  0  0  0  0  0  0
    0.2780   -2.2120    4.3100 H   0  0  0  0  0  0  0  0  0  0  0  0
   -0.0900   -1.1380    2.9340 H   0  0  0  0  0  0  0  0  0  0  0  0
    1.4200   -3.4310    0.5500 H   0  0  0  0  0  0  0  0  0  0  0  0
    2.0260   -4.3110    1.9630 H   0  0  0  0  0  0  0  0  0  0  0  0
    3.5310   -2.6300    1.3160 H   0  0  0  0  0  0  0  0  0  0  0  0
    2.6130   -1.3640    3.7520 H   0  0  0  0  0  0  0  0  0  0  0  0
    4.0130   -2.3510    3.4210 H   0  0  0  0  0  0  0  0  0  0  0  0
    3.4130    4.0390   -0.2300 C   0  0  0  0  0  0  0  0  0  0  0  0
    3.8160    2.3680    0.3120 S   0  0  0  0  0  0  0  0  0  0  0  0
    3.7660    1.1700   -1.0400 C   0  0  0  0  0  0  0  0  0  0  0  0
    2.3980    0.9690   -1.5940 C   0  0  0  0  0  0  0  0  0  0  0  0
    1.4150    0.4610   -0.5540 C   0  0  2  0  0  0  0  0  0  0  0  0
    1.8010   -0.7910    0.0020 N   0  0  0  0  0  0  0  0  0  0  0  0
    0.0230    0.4660   -1.1270 C   0  0  0  0  0  0  0  0  0  0  0  0
   -0.4060    1.5180   -1.6680 O   0  0  0  0  0  0  0  0  0  0  0  0
    2.6130    4.4170    0.4730 H   0  0  0  0  0  0  0  0  0  0  0  0
    3.0840    4.0900   -1.2890 H   0  0  0  0  0  0  0  0  0  0  0  0
    4.2590    4.7500   -0.1190 H   0  0  0  0  0  0  0  0  0  0  0  0
    4.2420    0.2380   -0.6840 H   0  0  0  0  0  0  0  0  0  0  0  0
    4.4080    1.5480   -1.8670 H   0  0  0  0  0  0  0  0  0  0  0  0
    2.4580    0.2050   -2.3890 H   0  0  0  0  0  0  0  0  0  0  0  0
    2.0260    1.9230   -2.0070 H   0  0  0  0  0  0  0  0  0  0  0  0
    1.4200    1.2240    0.2490 H   0  0  0  0  0  0  0  0  0  0  0  0
    1.7860   -1.6580   -0.6100 H   0  0  0  0  0  0  0  0  0  0  0  0
   -3.9970   -2.9550    4.1600 O   0  0  0  0  0  0  0  0  0  0  0  0
   -3.7940   -2.2770    2.9600 C   0  0  0  0  0  0  0  0  0  0  0  0
   -4.4220   -2.7150    1.8070 C   0  0  0  0  0  0  0  0  0  0  0  0
   -4.2390   -2.0610    0.6010 C   0  0  0  0  0  0  0  0  0  0  0  0
   -3.4230   -0.9570    0.5260 C   0  0  0  0  0  0  0  0  0  0  0  0
   -3.2540   -0.2730   -0.7550 C   0  0  0  0  0  0  0  0  0  0  0  0
   -2.1570   -0.7490   -1.6260 C   0  0  2  0  0  0  0  0  0  0  0  0
   -0.8280   -0.6660   -1.0850 N   0  0  0  0  0  0  0  0  0  0  0  0
   -2.2880   -0.1870   -3.0050 C   0  0  0  0  0  0  0  0  0  0  0  0
   -1.3040    0.2230   -3.6260 O   0  0  0  0  0  0  0  0  0  0  0  0
   -2.7950   -0.5120    1.6550 C   0  0  0  0  0  0  0  0  0  0  0  0
   -2.9770   -1.1700    2.8790 C   0  0  0  0  0  0  0  0  0  0  0  0
   -3.5440   -0.1340   -3.5770 O   0  0  0  0  0  0  0  0  0  0  0  0
   -4.7980   -2.6880    4.7210 H   0  0  0  0  0  0  0  0  0  0  0  0
   -5.0690   -3.5800    1.8380 H   0  0  0  0  0  0  0  0  0  0  0  0
   -4.7580   -2.4520   -0.2640 H   0  0  0  0  0  0  0  0  0  0  0  0
   -4.2190   -0.2660   -1.3260 H   0  0  0  0  0  0  0  0  0  0  0  0
   -3.0660    0.8120   -0.5340 H   0  0  0  0  0  0  0  0  0  0  0  0
   -2.3010   -1.8750   -1.8330 H   0  0  0  0  0  0  0  0  0  0  0  0
   -0.3860   -1.5090   -0.5900 H   0  0  0  0  0  0  0  0  0  0  0  0
   -2.1430    0.3410    1.6800 H   0  0  0  0  0  0  0  0  0  0  0  0
   -2.4900   -0.8350    3.7830 H   0  0  0  0  0  0  0  0  0  0  0  0
  1  9  1  0  0  0  0
  2  1  1  0  0  0  0
  3  2  2  0  0  0  0
  4  5  1  0  0  0  0
  4 12  1  0  0  0  0
  4  2  1  0  0  0  0
  5 13  1  6  0  0  0
  5  6  1  0  0  0  0
  6 15  1  0  0  0  0
  6 14  1  0  0  0  0
  7  5  1  0  0  0  0
  7  8  2  0  0  0  0
 10  1  1  0  0  0  0
 11  4  1  0  0  0  0
 16 26  1  0  0  0  0
 16 17  1  0  0  0  0
 16 24  1  0  0  0  0
 18 27  1  0  0  0  0
 18 17  1  0  0  0  0
 19 18  1  0  0  0  0
 19 20  1  0  0  0  0
 20 21  1  0  0  0  0
 20 31  1  1  0  0  0
 21  7  1  0  0  0  0
 22 40  1  0  0  0  0
 22 20  1  0  0  0  0
 23 22  2  0  0  0  0
 25 16  1  0  0  0  0
 28 18  1  0  0  0  0
 29 19  1  0  0  0  0
 30 19  1  0  0  0  0
 32 21  1  0  0  0  0
 33 46  1  0  0  0  0
 34 33  1  0  0  0  0
 35 47  1  0  0  0  0
 35 34  2  0  0  0  0
 36 35  1  0  0  0  0
 37 36  2  0  0  0  0
 37 43  1  0  0  0  0
 38 50  1  0  0  0  0
 38 37  1  0  0  0  0
 39 51  1  6  0  0  0
 39 40  1  0  0  0  0
 39 38  1  0  0  0  0
 40 52  1  0  0  0  0
 41 39  1  0  0  0  0
 42 41  2  0  0  0  0
 43 53  1  0  0  0  0
 43 44  2  0  0  0  0
 44 34  1  0  0  0  0
 44 54  1  0  0  0  0
 45 41  1  0  0  0  0
 48 36  1  0  0  0  0
 49 38  1  0  0  0  0
M  END
$$$$
