NNA.pdb
 OpenBabel07022418083D

 40 39  0  0  1  0  0  0  0  0999 V2000
    3.4270   -4.2420   -1.8180 N   0  0  0  0  0  0  0  0  0  0  0  0
    3.6170   -4.0490   -0.4270 C   0  0  0  0  0  0  0  0  0  0  0  0
    4.5210   -4.7140    0.1400 O   0  0  0  0  0  0  0  0  0  0  0  0
    2.7450   -3.0790    0.2850 C   0  0  0  0  0  0  0  0  0  0  0  0
    3.5240   -1.7780    0.5310 C   0  0  2  0  0  0  0  0  0  0  0  0
    4.6590   -2.1180    1.3270 N   0  0  0  0  0  0  0  0  0  0  0  0
    2.6660   -0.7800    1.2070 C   0  0  0  0  0  0  0  0  0  0  0  0
    2.9520   -0.3190    2.3460 O   0  0  0  0  0  0  0  0  0  0  0  0
    2.4980   -4.5940   -2.1550 H   0  0  0  0  0  0  0  0  0  0  0  0
    4.1570   -4.0540   -2.5190 H   0  0  0  0  0  0  0  0  0  0  0  0
    2.5620   -3.5040    1.2950 H   0  0  0  0  0  0  0  0  0  0  0  0
    1.8290   -2.8940   -0.2790 H   0  0  0  0  0  0  0  0  0  0  0  0
    3.7840   -1.3710   -0.4630 H   0  0  0  0  0  0  0  0  0  0  0  0
    5.4700   -2.4570    0.7880 H   0  0  0  0  0  0  0  0  0  0  0  0
    4.8860   -1.4390    2.0780 H   0  0  0  0  0  0  0  0  0  0  0  0
   -0.4270    0.6210   -1.5220 N   0  0  0  0  0  0  0  0  0  0  0  0
    0.0510    1.8020   -0.9160 C   0  0  0  0  0  0  0  0  0  0  0  0
   -0.0080    2.8360   -1.6840 O   0  0  0  0  0  0  0  0  0  0  0  0
    0.5810    1.9440    0.4440 C   0  0  0  0  0  0  0  0  0  0  0  0
    0.6240    0.6890    1.2590 C   0  0  2  0  0  0  0  0  0  0  0  0
    1.4650   -0.2890    0.5970 N   0  0  0  0  0  0  0  0  0  0  0  0
   -0.7390    0.1530    1.4640 C   0  0  0  0  0  0  0  0  0  0  0  0
   -1.0040   -1.0390    1.1020 O   0  0  0  0  0  0  0  0  0  0  0  0
    0.1950    0.1930   -2.2710 H   0  0  0  0  0  0  0  0  0  0  0  0
   -1.3070    0.1340   -1.3240 H   0  0  0  0  0  0  0  0  0  0  0  0
    1.6490    2.2920    0.3480 H   0  0  0  0  0  0  0  0  0  0  0  0
    0.0430    2.7510    1.0220 H   0  0  0  0  0  0  0  0  0  0  0  0
    1.0650    0.9350    2.2610 H   0  0  0  0  0  0  0  0  0  0  0  0
    1.2530   -0.6880   -0.3400 H   0  0  0  0  0  0  0  0  0  0  0  0
   -3.3820    0.2660    3.6950 C   0  0  0  0  0  0  0  0  0  0  0  0
   -3.0860    0.3030    2.2100 C   0  0  2  0  0  0  0  0  0  0  0  0
   -1.7940    0.8970    2.0480 N   0  0  0  0  0  0  0  0  0  0  0  0
   -4.1710    1.0010    1.5390 C   0  0  0  0  0  0  0  0  0  0  0  0
   -3.9580    2.0360    0.8790 O   0  0  0  0  0  0  0  0  0  0  0  0
   -5.4570    0.5170    1.6280 O   0  0  0  0  0  0  0  0  0  0  0  0
   -2.5090   -0.1090    4.2730 H   0  0  0  0  0  0  0  0  0  0  0  0
   -4.2410   -0.4290    3.8340 H   0  0  0  0  0  0  0  0  0  0  0  0
   -3.6720    1.2740    4.0310 H   0  0  0  0  0  0  0  0  0  0  0  0
   -3.0700   -0.7400    1.8250 H   0  0  0  0  0  0  0  0  0  0  0  0
   -1.5560    1.8770    2.3390 H   0  0  0  0  0  0  0  0  0  0  0  0
  1  2  1  0  0  0  0
  2  3  2  0  0  0  0
  2  4  1  0  0  0  0
  4  5  1  0  0  0  0
  4 11  1  0  0  0  0
  5 13  1  6  0  0  0
  5  7  1  0  0  0  0
  5  6  1  0  0  0  0
  6 15  1  0  0  0  0
  7  8  2  0  0  0  0
  9  1  1  0  0  0  0
 10  1  1  0  0  0  0
 12  4  1  0  0  0  0
 14  6  1  0  0  0  0
 16 25  1  0  0  0  0
 16 17  1  0  0  0  0
 17 19  1  0  0  0  0
 18 17  2  0  0  0  0
 19 27  1  0  0  0  0
 19 20  1  0  0  0  0
 20 22  1  0  0  0  0
 20 28  1  1  0  0  0
 21  7  1  0  0  0  0
 21 20  1  0  0  0  0
 22 32  1  0  0  0  0
 23 22  2  0  0  0  0
 24 16  1  0  0  0  0
 26 19  1  0  0  0  0
 29 21  1  0  0  0  0
 30 37  1  0  0  0  0
 30 38  1  0  0  0  0
 30 36  1  0  0  0  0
 31 39  1  6  0  0  0
 31 30  1  0  0  0  0
 32 31  1  0  0  0  0
 32 40  1  0  0  0  0
 33 35  1  0  0  0  0
 33 31  1  0  0  0  0
 34 33  2  0  0  0  0
M  END
$$$$
