NNC.pdb
 OpenBabel07022418083D

 41 40  0  0  1  0  0  0  0  0999 V2000
    1.7550   -3.2460    4.8580 N   0  0  0  0  0  0  0  0  0  0  0  0
    2.4300   -2.2820    4.0800 C   0  0  0  0  0  0  0  0  0  0  0  0
    3.5760   -1.9140    4.4050 O   0  0  0  0  0  0  0  0  0  0  0  0
    1.7660   -1.7250    2.8900 C   0  0  0  0  0  0  0  0  0  0  0  0
    2.6570   -0.7280    2.1510 C   0  0  2  0  0  0  0  0  0  0  0  0
    3.0080    0.3590    2.9920 N   0  0  0  0  0  0  0  0  0  0  0  0
    1.8900   -0.3370    0.9200 C   0  0  0  0  0  0  0  0  0  0  0  0
    1.4170   -1.2960    0.2270 O   0  0  0  0  0  0  0  0  0  0  0  0
    0.7240   -3.3340    4.8660 H   0  0  0  0  0  0  0  0  0  0  0  0
    2.3150   -3.8950    5.4470 H   0  0  0  0  0  0  0  0  0  0  0  0
    0.8270   -1.2400    3.2210 H   0  0  0  0  0  0  0  0  0  0  0  0
    1.4990   -2.5070    2.1270 H   0  0  0  0  0  0  0  0  0  0  0  0
    3.5920   -1.2340    1.8250 H   0  0  0  0  0  0  0  0  0  0  0  0
    3.4320    1.1470    2.5140 H   0  0  0  0  0  0  0  0  0  0  0  0
    2.4730    0.5120    3.8440 H   0  0  0  0  0  0  0  0  0  0  0  0
    2.3520   -0.0100   -3.8250 N   0  0  0  0  0  0  0  0  0  0  0  0
    2.4560    0.4530   -2.4860 C   0  0  0  0  0  0  0  0  0  0  0  0
    3.3200   -0.0960   -1.7570 O   0  0  0  0  0  0  0  0  0  0  0  0
    1.6160    1.5120   -1.9430 C   0  0  0  0  0  0  0  0  0  0  0  0
    0.9220    1.2830   -0.6700 C   0  0  2  0  0  0  0  0  0  0  0  0
    1.6690    0.9810    0.4980 N   0  0  0  0  0  0  0  0  0  0  0  0
   -0.3910    0.5560   -0.7890 C   0  0  0  0  0  0  0  0  0  0  0  0
   -0.9400    0.5420   -1.9140 O   0  0  0  0  0  0  0  0  0  0  0  0
    2.6470   -0.9860   -4.0300 H   0  0  0  0  0  0  0  0  0  0  0  0
    1.9970    0.5590   -4.6270 H   0  0  0  0  0  0  0  0  0  0  0  0
    0.8100    1.7240   -2.7160 H   0  0  0  0  0  0  0  0  0  0  0  0
    2.1550    2.4940   -1.8790 H   0  0  0  0  0  0  0  0  0  0  0  0
    0.4810    2.3510   -0.4080 H   0  0  0  0  0  0  0  0  0  0  0  0
    2.1020    1.7480    1.1080 H   0  0  0  0  0  0  0  0  0  0  0  0
   -1.0290   -0.0960    0.2840 N   0  0  0  0  0  0  0  0  0  0  0  0
   -2.3030   -0.7830    0.0710 C   0  0  1  0  0  0  0  0  0  0  0  0
   -2.2190   -2.2520    0.4520 C   0  0  0  0  0  0  0  0  0  0  0  0
   -3.8500   -2.9740    0.1430 S   0  0  0  0  0  0  0  0  0  0  0  0
   -3.3040   -0.1090    0.9450 C   0  0  0  0  0  0  0  0  0  0  0  0
   -2.9570    0.8560    1.6620 O   0  0  0  0  0  0  0  0  0  0  0  0
   -4.6370   -0.5100    1.0030 O   0  0  0  0  0  0  0  0  0  0  0  0
   -0.6160   -0.0720    1.2370 H   0  0  0  0  0  0  0  0  0  0  0  0
   -2.5890   -0.7140   -0.9940 H   0  0  0  0  0  0  0  0  0  0  0  0
   -1.4330   -2.7430   -0.1370 H   0  0  0  0  0  0  0  0  0  0  0  0
   -2.0080   -2.3740    1.5260 H   0  0  0  0  0  0  0  0  0  0  0  0
   -4.4810   -3.4140    1.3060 H   0  0  0  0  0  0  0  0  0  0  0  0
  1  9  1  0  0  0  0
  1 10  1  0  0  0  0
  2  3  2  0  0  0  0
  2  1  1  0  0  0  0
  4 11  1  0  0  0  0
  4  2  1  0  0  0  0
  5 13  1  6  0  0  0
  5  4  1  0  0  0  0
  5  6  1  0  0  0  0
  6 15  1  0  0  0  0
  7  5  1  0  0  0  0
  8  7  2  0  0  0  0
 12  4  1  0  0  0  0
 14  6  1  0  0  0  0
 16 17  1  0  0  0  0
 17 19  1  0  0  0  0
 17 18  2  0  0  0  0
 19 27  1  0  0  0  0
 19 20  1  0  0  0  0
 20 28  1  1  0  0  0
 20 21  1  0  0  0  0
 21  7  1  0  0  0  0
 21 29  1  0  0  0  0
 22 20  1  0  0  0  0
 22 30  1  0  0  0  0
 23 22  2  0  0  0  0
 24 16  1  0  0  0  0
 25 16  1  0  0  0  0
 26 19  1  0  0  0  0
 30 37  1  0  0  0  0
 31 38  1  6  0  0  0
 31 30  1  0  0  0  0
 31 32  1  0  0  0  0
 31 34  1  0  0  0  0
 32 40  1  0  0  0  0
 33 32  1  0  0  0  0
 33 41  1  0  0  0  0
 34 36  2  0  0  0  0
 34 35  1  0  0  0  0
 39 32  1  0  0  0  0
M  END
$$$$
