NNE.pdb
 OpenBabel07022418083D

 46 45  0  0  1  0  0  0  0  0999 V2000
    5.1990   -1.4050    4.7270 N   0  0  0  0  0  0  0  0  0  0  0  0
    4.0110   -0.6350    4.4020 C   0  0  0  0  0  0  0  0  0  0  0  0
    4.1120    0.4590    3.8270 O   0  0  0  0  0  0  0  0  0  0  0  0
    2.7410   -1.2350    4.7950 C   0  0  0  0  0  0  0  0  0  0  0  0
    1.5210   -0.4670    4.3470 C   0  0  2  0  0  0  0  0  0  0  0  0
    0.3760   -1.2240    4.8820 N   0  0  0  0  0  0  0  0  0  0  0  0
    1.4580   -0.5160    2.8490 C   0  0  0  0  0  0  0  0  0  0  0  0
    2.2590    0.1290    2.1480 O   0  0  0  0  0  0  0  0  0  0  0  0
    5.2910   -2.3160    4.2400 H   0  0  0  0  0  0  0  0  0  0  0  0
    5.8640   -1.0050    5.4060 H   0  0  0  0  0  0  0  0  0  0  0  0
    2.7690   -1.3750    5.9030 H   0  0  0  0  0  0  0  0  0  0  0  0
    2.6880   -2.2980    4.4010 H   0  0  0  0  0  0  0  0  0  0  0  0
    1.4930    0.5340    4.7620 H   0  0  0  0  0  0  0  0  0  0  0  0
   -0.5200   -0.8660    4.4780 H   0  0  0  0  0  0  0  0  0  0  0  0
    0.3750   -1.1680    5.9280 H   0  0  0  0  0  0  0  0  0  0  0  0
    1.8400   -2.3260   -2.0080 N   0  0  0  0  0  0  0  0  0  0  0  0
    0.7400   -2.8370   -1.2680 C   0  0  0  0  0  0  0  0  0  0  0  0
   -0.1960   -3.3770   -1.9210 O   0  0  0  0  0  0  0  0  0  0  0  0
    0.7670   -2.7010    0.1930 C   0  0  0  0  0  0  0  0  0  0  0  0
    0.4420   -1.3300    0.6850 C   0  0  2  0  0  0  0  0  0  0  0  0
    0.4890   -1.2930    2.1560 N   0  0  0  0  0  0  0  0  0  0  0  0
   -0.7990   -0.7240    0.2460 C   0  0  0  0  0  0  0  0  0  0  0  0
   -1.6410   -0.3820    1.1290 O   0  0  0  0  0  0  0  0  0  0  0  0
    1.6360   -1.7280   -2.8280 H   0  0  0  0  0  0  0  0  0  0  0  0
    2.8250   -2.5240   -1.7660 H   0  0  0  0  0  0  0  0  0  0  0  0
    1.7980   -2.9450    0.5230 H   0  0  0  0  0  0  0  0  0  0  0  0
    0.1240   -3.4960    0.6110 H   0  0  0  0  0  0  0  0  0  0  0  0
    1.2820   -0.6760    0.3380 H   0  0  0  0  0  0  0  0  0  0  0  0
   -0.1870   -1.8380    2.7270 H   0  0  0  0  0  0  0  0  0  0  0  0
   -1.2030   -0.4550   -1.0860 N   0  0  0  0  0  0  0  0  0  0  0  0
   -2.4790    0.1600   -1.4410 C   0  0  1  0  0  0  0  0  0  0  0  0
   -2.2690    1.4030   -2.2720 C   0  0  0  0  0  0  0  0  0  0  0  0
   -1.4790    2.4740   -1.5970 C   0  0  0  0  0  0  0  0  0  0  0  0
   -2.0790    2.9960   -0.3530 C   0  0  0  0  0  0  0  0  0  0  0  0
   -1.4690    3.8390    0.3500 O   0  0  0  0  0  0  0  0  0  0  0  0
   -3.2590   -0.7850   -2.2820 C   0  0  0  0  0  0  0  0  0  0  0  0
   -2.8250   -1.9190   -2.5930 O   0  0  0  0  0  0  0  0  0  0  0  0
   -3.3250    2.5790    0.0750 O   0  0  0  0  0  0  0  0  0  0  0  0
   -4.5130   -0.4270   -2.7530 O   0  0  0  0  0  0  0  0  0  0  0  0
   -0.5340   -0.7100   -1.8380 H   0  0  0  0  0  0  0  0  0  0  0  0
   -3.0920    0.3650   -0.5430 H   0  0  0  0  0  0  0  0  0  0  0  0
   -3.2230    1.8320   -2.6290 H   0  0  0  0  0  0  0  0  0  0  0  0
   -1.7140    1.1240   -3.2010 H   0  0  0  0  0  0  0  0  0  0  0  0
   -0.4170    2.1490   -1.4150 H   0  0  0  0  0  0  0  0  0  0  0  0
   -1.3710    3.3650   -2.2810 H   0  0  0  0  0  0  0  0  0  0  0  0
   -3.7010    2.7580    1.0000 H   0  0  0  0  0  0  0  0  0  0  0  0
  1 10  1  0  0  0  0
  2  1  1  0  0  0  0
  2  4  1  0  0  0  0
  3  2  2  0  0  0  0
  4 11  1  0  0  0  0
  5 13  1  1  0  0  0
  5  4  1  0  0  0  0
  5  6  1  0  0  0  0
  6 15  1  0  0  0  0
  7  5  1  0  0  0  0
  8  7  2  0  0  0  0
  9  1  1  0  0  0  0
 12  4  1  0  0  0  0
 14  6  1  0  0  0  0
 16 25  1  0  0  0  0
 16 17  1  0  0  0  0
 17 19  1  0  0  0  0
 18 17  2  0  0  0  0
 19 26  1  0  0  0  0
 19 27  1  0  0  0  0
 19 20  1  0  0  0  0
 20 28  1  6  0  0  0
 20 21  1  0  0  0  0
 21 29  1  0  0  0  0
 21  7  1  0  0  0  0
 22 20  1  0  0  0  0
 22 23  2  0  0  0  0
 24 16  1  0  0  0  0
 30 22  1  0  0  0  0
 31 30  1  0  0  0  0
 31 41  1  1  0  0  0
 32 33  1  0  0  0  0
 32 31  1  0  0  0  0
 33 44  1  0  0  0  0
 33 34  1  0  0  0  0
 34 38  1  0  0  0  0
 34 35  2  0  0  0  0
 36 31  1  0  0  0  0
 37 36  1  0  0  0  0
 38 46  1  0  0  0  0
 39 36  2  0  0  0  0
 40 30  1  0  0  0  0
 42 32  1  0  0  0  0
 43 32  1  0  0  0  0
 45 33  1  0  0  0  0
M  END
$$$$
