NNF.pdb
 OpenBabel07022418083D

 50 50  0  0  1  0  0  0  0  0999 V2000
    1.7470   -1.0440    3.7930 N   0  0  0  0  0  0  0  0  0  0  0  0
    2.9650   -1.6840    3.4790 C   0  0  0  0  0  0  0  0  0  0  0  0
    3.7030   -2.1170    4.3930 O   0  0  0  0  0  0  0  0  0  0  0  0
    3.4100   -1.8630    2.0720 C   0  0  0  0  0  0  0  0  0  0  0  0
    4.1130   -0.5640    1.6030 C   0  0  2  0  0  0  0  0  0  0  0  0
    5.2300   -0.3240    2.4800 N   0  0  0  0  0  0  0  0  0  0  0  0
    3.0960    0.5270    1.6360 C   0  0  0  0  0  0  0  0  0  0  0  0
    3.1510    1.3690    2.5400 O   0  0  0  0  0  0  0  0  0  0  0  0
    1.3140   -1.0700    4.7500 H   0  0  0  0  0  0  0  0  0  0  0  0
    1.2120   -0.5030    3.0680 H   0  0  0  0  0  0  0  0  0  0  0  0
    2.5650   -2.0450    1.3860 H   0  0  0  0  0  0  0  0  0  0  0  0
    4.1450   -2.6870    1.9620 H   0  0  0  0  0  0  0  0  0  0  0  0
    4.4860   -0.7730    0.5970 H   0  0  0  0  0  0  0  0  0  0  0  0
    5.5580   -1.2330    2.8820 H   0  0  0  0  0  0  0  0  0  0  0  0
    6.0470    0.1280    2.0290 H   0  0  0  0  0  0  0  0  0  0  0  0
    2.8820    3.6220   -2.1410 N   0  0  0  0  0  0  0  0  0  0  0  0
    2.5310    2.9630   -0.9170 C   0  0  0  0  0  0  0  0  0  0  0  0
    3.3970    2.9310   -0.0190 O   0  0  0  0  0  0  0  0  0  0  0  0
    1.2170    2.3560   -0.7330 C   0  0  0  0  0  0  0  0  0  0  0  0
    1.0560    1.6630    0.6320 C   0  0  2  0  0  0  0  0  0  0  0  0
    2.0710    0.6390    0.6700 N   0  0  0  0  0  0  0  0  0  0  0  0
   -0.3130    1.1130    0.7140 C   0  0  0  0  0  0  0  0  0  0  0  0
   -1.2930    1.8810    0.7590 O   0  0  0  0  0  0  0  0  0  0  0  0
    3.3640    4.5440   -2.1870 H   0  0  0  0  0  0  0  0  0  0  0  0
    2.6480    3.1630   -3.0490 H   0  0  0  0  0  0  0  0  0  0  0  0
    0.4220    3.1090   -0.9000 H   0  0  0  0  0  0  0  0  0  0  0  0
    1.1200    1.5100   -1.4750 H   0  0  0  0  0  0  0  0  0  0  0  0
    1.1730    2.3960    1.4530 H   0  0  0  0  0  0  0  0  0  0  0  0
    2.0490   -0.0860   -0.0830 H   0  0  0  0  0  0  0  0  0  0  0  0
   -0.5210   -0.2800    0.7370 N   0  0  0  0  0  0  0  0  0  0  0  0
   -1.8630   -0.8620    0.8050 C   0  0  1  0  0  0  0  0  0  0  0  0
   -2.1080   -1.5310   -0.5560 C   0  0  0  0  0  0  0  0  0  0  0  0
   -3.4340   -2.1740   -0.6390 C   0  0  0  0  0  0  0  0  0  0  0  0
   -4.5680   -1.4650   -1.0400 C   0  0  0  0  0  0  0  0  0  0  0  0
   -5.7850   -2.0810   -1.1280 C   0  0  0  0  0  0  0  0  0  0  0  0
   -5.9660   -3.4190   -0.8310 C   0  0  0  0  0  0  0  0  0  0  0  0
   -4.8590   -4.1350   -0.4340 C   0  0  0  0  0  0  0  0  0  0  0  0
   -3.6340   -3.5140   -0.3460 C   0  0  0  0  0  0  0  0  0  0  0  0
   -1.8790   -1.9030    1.8410 C   0  0  0  0  0  0  0  0  0  0  0  0
   -0.8240   -2.2120    2.4670 O   0  0  0  0  0  0  0  0  0  0  0  0
   -3.0450   -2.5960    2.1870 O   0  0  0  0  0  0  0  0  0  0  0  0
    0.2660   -0.9960    0.7090 H   0  0  0  0  0  0  0  0  0  0  0  0
   -2.6370   -0.0850    0.9610 H   0  0  0  0  0  0  0  0  0  0  0  0
   -1.9600   -0.7820   -1.3790 H   0  0  0  0  0  0  0  0  0  0  0  0
   -1.3490   -2.3240   -0.7080 H   0  0  0  0  0  0  0  0  0  0  0  0
   -4.3960   -0.4260   -1.2640 H   0  0  0  0  0  0  0  0  0  0  0  0
   -6.6320   -1.5030   -1.4400 H   0  0  0  0  0  0  0  0  0  0  0  0
   -6.9550   -3.8830   -0.9120 H   0  0  0  0  0  0  0  0  0  0  0  0
   -4.9810   -5.1780   -0.1990 H   0  0  0  0  0  0  0  0  0  0  0  0
   -2.7900   -4.1390   -0.0310 H   0  0  0  0  0  0  0  0  0  0  0  0
  1  9  1  0  0  0  0
  2  1  1  0  0  0  0
  2  3  2  0  0  0  0
  4  2  1  0  0  0  0
  5 13  1  6  0  0  0
  5  7  1  0  0  0  0
  5  4  1  0  0  0  0
  5  6  1  0  0  0  0
  6 14  1  0  0  0  0
  7  8  2  0  0  0  0
 10  1  1  0  0  0  0
 11  4  1  0  0  0  0
 12  4  1  0  0  0  0
 15  6  1  0  0  0  0
 16 17  1  0  0  0  0
 17 19  1  0  0  0  0
 17 18  2  0  0  0  0
 19 20  1  0  0  0  0
 20 21  1  0  0  0  0
 20 22  1  0  0  0  0
 20 28  1  1  0  0  0
 21  7  1  0  0  0  0
 22 30  1  0  0  0  0
 22 23  2  0  0  0  0
 24 16  1  0  0  0  0
 25 16  1  0  0  0  0
 26 19  1  0  0  0  0
 27 19  1  0  0  0  0
 29 21  1  0  0  0  0
 30 31  1  0  0  0  0
 31 43  1  1  0  0  0
 31 39  1  0  0  0  0
 32 31  1  0  0  0  0
 33 32  1  0  0  0  0
 33 38  1  0  0  0  0
 34 33  2  0  0  0  0
 35 34  1  0  0  0  0
 35 36  2  0  0  0  0
 36 37  1  0  0  0  0
 37 38  2  0  0  0  0
 37 49  1  0  0  0  0
 38 50  1  0  0  0  0
 39 41  2  0  0  0  0
 39 40  1  0  0  0  0
 42 30  1  0  0  0  0
 44 32  1  0  0  0  0
 45 32  1  0  0  0  0
 46 34  1  0  0  0  0
 47 35  1  0  0  0  0
 48 36  1  0  0  0  0
M  END
$$$$
