NNG.pdb
 OpenBabel07022418083D

 37 36  0  0  1  0  0  0  0  0999 V2000
    0.1250   -3.1430    3.8010 N   0  0  0  0  0  0  0  0  0  0  0  0
    1.0320   -2.7040    2.8070 C   0  0  0  0  0  0  0  0  0  0  0  0
    1.9620   -1.9350    3.1440 O   0  0  0  0  0  0  0  0  0  0  0  0
    0.8960   -3.1360    1.4010 C   0  0  0  0  0  0  0  0  0  0  0  0
    1.9670   -2.5550    0.5170 C   0  0  2  0  0  0  0  0  0  0  0  0
    3.2650   -2.9730    0.9830 N   0  0  0  0  0  0  0  0  0  0  0  0
    1.9280   -1.0740    0.4840 C   0  0  0  0  0  0  0  0  0  0  0  0
    2.8970   -0.3460    0.8200 O   0  0  0  0  0  0  0  0  0  0  0  0
    0.1350   -2.7730    4.7640 H   0  0  0  0  0  0  0  0  0  0  0  0
   -0.6020   -3.8720    3.5940 H   0  0  0  0  0  0  0  0  0  0  0  0
    1.0350   -4.2500    1.3970 H   0  0  0  0  0  0  0  0  0  0  0  0
   -0.1180   -2.9540    1.0340 H   0  0  0  0  0  0  0  0  0  0  0  0
    1.7930   -2.9110   -0.5170 H   0  0  0  0  0  0  0  0  0  0  0  0
    3.5360   -3.8810    0.5810 H   0  0  0  0  0  0  0  0  0  0  0  0
    3.9490   -2.2030    0.7660 H   0  0  0  0  0  0  0  0  0  0  0  0
    1.0890   -0.1140   -3.2170 N   0  0  0  0  0  0  0  0  0  0  0  0
    1.2880    1.0300   -2.4040 C   0  0  0  0  0  0  0  0  0  0  0  0
    2.3500    1.6830   -2.5230 O   0  0  0  0  0  0  0  0  0  0  0  0
    0.2890    1.4870   -1.4150 C   0  0  0  0  0  0  0  0  0  0  0  0
    0.6670    1.0720    0.0070 C   0  0  2  0  0  0  0  0  0  0  0  0
    0.7460   -0.3660    0.0540 N   0  0  0  0  0  0  0  0  0  0  0  0
   -0.4320    1.5260    0.8910 C   0  0  0  0  0  0  0  0  0  0  0  0
   -0.7310    2.7520    1.0020 O   0  0  0  0  0  0  0  0  0  0  0  0
    0.1500   -0.5870   -3.3040 H   0  0  0  0  0  0  0  0  0  0  0  0
    1.8650   -0.5290   -3.7580 H   0  0  0  0  0  0  0  0  0  0  0  0
    0.1910    2.5980   -1.3950 H   0  0  0  0  0  0  0  0  0  0  0  0
   -0.6880    1.0820   -1.7050 H   0  0  0  0  0  0  0  0  0  0  0  0
    1.6350    1.5540    0.2750 H   0  0  0  0  0  0  0  0  0  0  0  0
   -0.0850   -0.9180   -0.2420 H   0  0  0  0  0  0  0  0  0  0  0  0
   -1.1520    0.5450    1.6220 N   0  0  0  0  0  0  0  0  0  0  0  0
   -2.2370    0.9080    2.5030 C   0  0  0  0  0  0  0  0  0  0  0  0
   -3.2820    1.5870    1.7120 C   0  0  0  0  0  0  0  0  0  0  0  0
   -3.1020    1.7410    0.4780 O   0  0  0  0  0  0  0  0  0  0  0  0
   -4.4520    2.0540    2.3110 O   0  0  0  0  0  0  0  0  0  0  0  0
   -0.9030   -0.4600    1.5340 H   0  0  0  0  0  0  0  0  0  0  0  0
   -2.6720   -0.0270    2.9200 H   0  0  0  0  0  0  0  0  0  0  0  0
   -1.8900    1.5230    3.3620 H   0  0  0  0  0  0  0  0  0  0  0  0
  1  9  1  0  0  0  0
  2  3  2  0  0  0  0
  2  1  1  0  0  0  0
  4  2  1  0  0  0  0
  5 13  1  6  0  0  0
  5  6  1  0  0  0  0
  5  4  1  0  0  0  0
  7  5  1  0  0  0  0
  7  8  2  0  0  0  0
 10  1  1  0  0  0  0
 11  4  1  0  0  0  0
 12  4  1  0  0  0  0
 14  6  1  0  0  0  0
 15  6  1  0  0  0  0
 16 17  1  0  0  0  0
 17 19  1  0  0  0  0
 18 17  2  0  0  0  0
 19 26  1  0  0  0  0
 19 20  1  0  0  0  0
 20 21  1  0  0  0  0
 20 28  1  1  0  0  0
 20 22  1  0  0  0  0
 21  7  1  0  0  0  0
 22 23  2  0  0  0  0
 22 30  1  0  0  0  0
 24 16  1  0  0  0  0
 25 16  1  0  0  0  0
 27 19  1  0  0  0  0
 29 21  1  0  0  0  0
 30 31  1  0  0  0  0
 31 36  1  0  0  0  0
 31 37  1  0  0  0  0
 32 34  1  0  0  0  0
 32 31  1  0  0  0  0
 33 32  2  0  0  0  0
 35 30  1  0  0  0  0
M  END
$$$$
