NNL.pdb
 OpenBabel07022418083D

 49 48  0  0  1  0  0  0  0  0999 V2000
    3.1410   -4.6080    4.2230 N   0  0  0  0  0  0  0  0  0  0  0  0
    2.5990   -3.3720    4.6150 C   0  0  0  0  0  0  0  0  0  0  0  0
    1.9600   -3.2730    5.6740 O   0  0  0  0  0  0  0  0  0  0  0  0
    2.7920   -2.1880    3.7630 C   0  0  0  0  0  0  0  0  0  0  0  0
    1.5270   -2.0040    2.9550 C   0  0  2  0  0  0  0  0  0  0  0  0
    1.3320   -3.1900    2.1640 N   0  0  0  0  0  0  0  0  0  0  0  0
    1.5860   -0.8070    2.0890 C   0  0  0  0  0  0  0  0  0  0  0  0
    1.7520    0.3570    2.5480 O   0  0  0  0  0  0  0  0  0  0  0  0
    2.6160   -5.5140    4.2120 H   0  0  0  0  0  0  0  0  0  0  0  0
    4.1500   -4.6900    3.9050 H   0  0  0  0  0  0  0  0  0  0  0  0
    3.6830   -2.3370    3.1280 H   0  0  0  0  0  0  0  0  0  0  0  0
    2.9850   -1.3100    4.4350 H   0  0  0  0  0  0  0  0  0  0  0  0
    0.7000   -1.8450    3.6830 H   0  0  0  0  0  0  0  0  0  0  0  0
    0.4250   -3.1210    1.6820 H   0  0  0  0  0  0  0  0  0  0  0  0
    2.1580   -3.3000    1.5480 H   0  0  0  0  0  0  0  0  0  0  0  0
    3.1630    2.3810   -1.8880 N   0  0  0  0  0  0  0  0  0  0  0  0
    2.5720    1.1280   -2.1990 C   0  0  0  0  0  0  0  0  0  0  0  0
    2.0150    1.0110   -3.3320 O   0  0  0  0  0  0  0  0  0  0  0  0
    2.5970   -0.0040   -1.2470 C   0  0  0  0  0  0  0  0  0  0  0  0
    1.4930    0.1310   -0.2680 C   0  0  2  0  0  0  0  0  0  0  0  0
    1.4550   -0.9480    0.7010 N   0  0  0  0  0  0  0  0  0  0  0  0
    0.1750    0.2820   -0.9500 C   0  0  0  0  0  0  0  0  0  0  0  0
   -0.0370    1.1770   -1.7980 O   0  0  0  0  0  0  0  0  0  0  0  0
    2.8940    3.2340   -2.4090 H   0  0  0  0  0  0  0  0  0  0  0  0
    3.8850    2.4990   -1.1310 H   0  0  0  0  0  0  0  0  0  0  0  0
    3.5960    0.0320   -0.7580 H   0  0  0  0  0  0  0  0  0  0  0  0
    2.5020   -0.9370   -1.8770 H   0  0  0  0  0  0  0  0  0  0  0  0
    1.6470    1.0670    0.3060 H   0  0  0  0  0  0  0  0  0  0  0  0
    1.3160   -1.9120    0.3030 H   0  0  0  0  0  0  0  0  0  0  0  0
   -2.2990    0.3130    1.6900 C   0  0  0  0  0  0  0  0  0  0  0  0
   -3.5070    0.1840    0.7920 C   0  0  0  0  0  0  0  0  0  0  0  0
   -4.4340    1.3480    1.1750 C   0  0  0  0  0  0  0  0  0  0  0  0
   -3.1710    0.3750   -0.6600 C   0  0  0  0  0  0  0  0  0  0  0  0
   -2.1940   -0.5820   -1.2260 C   0  0  2  0  0  0  0  0  0  0  0  0
   -0.8970   -0.6140   -0.6410 N   0  0  0  0  0  0  0  0  0  0  0  0
   -2.1520   -0.4970   -2.7160 C   0  0  0  0  0  0  0  0  0  0  0  0
   -3.2170   -0.3770   -3.3850 O   0  0  0  0  0  0  0  0  0  0  0  0
   -0.9600   -0.5490   -3.4040 O   0  0  0  0  0  0  0  0  0  0  0  0
   -1.5690    0.9780    1.2330 H   0  0  0  0  0  0  0  0  0  0  0  0
   -1.8910   -0.6680    2.0110 H   0  0  0  0  0  0  0  0  0  0  0  0
   -2.5880    0.8170    2.6640 H   0  0  0  0  0  0  0  0  0  0  0  0
   -4.0390   -0.7790    0.9660 H   0  0  0  0  0  0  0  0  0  0  0  0
   -3.7620    2.2320    1.2610 H   0  0  0  0  0  0  0  0  0  0  0  0
   -4.8350    1.1840    2.2080 H   0  0  0  0  0  0  0  0  0  0  0  0
   -5.2170    1.5110    0.4360 H   0  0  0  0  0  0  0  0  0  0  0  0
   -4.1060    0.3190   -1.2710 H   0  0  0  0  0  0  0  0  0  0  0  0
   -2.7980    1.4380   -0.7420 H   0  0  0  0  0  0  0  0  0  0  0  0
   -2.6260   -1.6320   -1.0320 H   0  0  0  0  0  0  0  0  0  0  0  0
   -0.6450   -1.3460    0.0960 H   0  0  0  0  0  0  0  0  0  0  0  0
  1  2  1  0  0  0  0
  2  3  2  0  0  0  0
  4 12  1  0  0  0  0
  4  2  1  0  0  0  0
  5 13  1  1  0  0  0
  5  4  1  0  0  0  0
  6  5  1  0  0  0  0
  7  8  2  0  0  0  0
  7  5  1  0  0  0  0
  9  1  1  0  0  0  0
 10  1  1  0  0  0  0
 11  4  1  0  0  0  0
 14  6  1  0  0  0  0
 15  6  1  0  0  0  0
 16 25  1  0  0  0  0
 17 16  1  0  0  0  0
 17 19  1  0  0  0  0
 18 17  2  0  0  0  0
 19 26  1  0  0  0  0
 19 20  1  0  0  0  0
 20 28  1  1  0  0  0
 20 21  1  0  0  0  0
 21  7  1  0  0  0  0
 22 35  1  0  0  0  0
 22 20  1  0  0  0  0
 23 22  2  0  0  0  0
 24 16  1  0  0  0  0
 27 19  1  0  0  0  0
 29 21  1  0  0  0  0
 30 40  1  0  0  0  0
 30 41  1  0  0  0  0
 31 42  1  0  0  0  0
 31 32  1  0  0  0  0
 31 30  1  0  0  0  0
 32 43  1  0  0  0  0
 32 44  1  0  0  0  0
 33 31  1  0  0  0  0
 34 48  1  1  0  0  0
 34 33  1  0  0  0  0
 34 35  1  0  0  0  0
 35 49  1  0  0  0  0
 36 34  1  0  0  0  0
 37 36  1  0  0  0  0
 38 36  2  0  0  0  0
 39 30  1  0  0  0  0
 45 32  1  0  0  0  0
 46 33  1  0  0  0  0
 47 33  1  0  0  0  0
M  END
$$$$
