NNN.pdb
 OpenBabel07022418083D

 44 43  0  0  1  0  0  0  0  0999 V2000
    4.3930   -4.5910    3.1620 N   0  0  0  0  0  0  0  0  0  0  0  0
    3.2530   -3.9500    3.6980 C   0  0  0  0  0  0  0  0  0  0  0  0
    2.8280   -4.3100    4.8170 O   0  0  0  0  0  0  0  0  0  0  0  0
    2.5540   -2.8710    2.9720 C   0  0  0  0  0  0  0  0  0  0  0  0
    3.3000   -2.6300    1.6760 C   0  0  2  0  0  0  0  0  0  0  0  0
    4.6480   -2.2430    2.0340 N   0  0  0  0  0  0  0  0  0  0  0  0
    2.7100   -1.5570    0.8690 C   0  0  0  0  0  0  0  0  0  0  0  0
    3.3950   -0.5320    0.6180 O   0  0  0  0  0  0  0  0  0  0  0  0
    4.2390   -5.3030    2.4150 H   0  0  0  0  0  0  0  0  0  0  0  0
    5.3760   -4.4090    3.4540 H   0  0  0  0  0  0  0  0  0  0  0  0
    1.4900   -3.0910    2.7690 H   0  0  0  0  0  0  0  0  0  0  0  0
    2.5620   -1.9430    3.6000 H   0  0  0  0  0  0  0  0  0  0  0  0
    3.3280   -3.6100    1.1570 H   0  0  0  0  0  0  0  0  0  0  0  0
    5.2680   -2.0900    1.2210 H   0  0  0  0  0  0  0  0  0  0  0  0
    4.6040   -1.3290    2.5410 H   0  0  0  0  0  0  0  0  0  0  0  0
    0.5960    1.0880   -3.2970 N   0  0  0  0  0  0  0  0  0  0  0  0
   -0.1040    0.0580   -2.6630 C   0  0  0  0  0  0  0  0  0  0  0  0
   -1.3710    0.0370   -2.8060 O   0  0  0  0  0  0  0  0  0  0  0  0
    0.4920   -1.0030   -1.8460 C   0  0  0  0  0  0  0  0  0  0  0  0
    0.8320   -0.4780   -0.4760 C   0  0  2  0  0  0  0  0  0  0  0  0
    1.4140   -1.5630    0.3340 N   0  0  0  0  0  0  0  0  0  0  0  0
   -0.3390    0.0330    0.2690 C   0  0  0  0  0  0  0  0  0  0  0  0
   -0.7300   -0.6180    1.2760 O   0  0  0  0  0  0  0  0  0  0  0  0
    0.1110    1.9600   -3.5640 H   0  0  0  0  0  0  0  0  0  0  0  0
    1.6050    0.9780   -3.5010 H   0  0  0  0  0  0  0  0  0  0  0  0
    1.4760   -1.2450   -2.3250 H   0  0  0  0  0  0  0  0  0  0  0  0
   -0.1840   -1.8640   -1.8250 H   0  0  0  0  0  0  0  0  0  0  0  0
    1.5600    0.3420   -0.6160 H   0  0  0  0  0  0  0  0  0  0  0  0
    0.8040   -2.3810    0.5080 H   0  0  0  0  0  0  0  0  0  0  0  0
   -5.2710    2.7660    0.7780 N   0  0  0  0  0  0  0  0  0  0  0  0
   -4.5930    1.5700    1.1660 C   0  0  0  0  0  0  0  0  0  0  0  0
   -5.0410    1.0360    2.2400 O   0  0  0  0  0  0  0  0  0  0  0  0
   -3.4720    1.0070    0.3880 C   0  0  0  0  0  0  0  0  0  0  0  0
   -2.2120    1.7060    0.6850 C   0  0  2  0  0  0  0  0  0  0  0  0
   -1.0670    1.2030   -0.0450 N   0  0  0  0  0  0  0  0  0  0  0  0
   -1.9730    1.8080    2.1510 C   0  0  0  0  0  0  0  0  0  0  0  0
   -2.8800    2.2150    2.9080 O   0  0  0  0  0  0  0  0  0  0  0  0
   -0.7410    1.4600    2.7420 O   0  0  0  0  0  0  0  0  0  0  0  0
   -6.1810    3.0700    1.1480 H   0  0  0  0  0  0  0  0  0  0  0  0
   -4.8320    3.4080    0.0590 H   0  0  0  0  0  0  0  0  0  0  0  0
   -3.4610   -0.0840    0.6070 H   0  0  0  0  0  0  0  0  0  0  0  0
   -3.7710    1.0910   -0.6920 H   0  0  0  0  0  0  0  0  0  0  0  0
   -2.3190    2.7890    0.3740 H   0  0  0  0  0  0  0  0  0  0  0  0
   -0.7050    1.7440   -0.8890 H   0  0  0  0  0  0  0  0  0  0  0  0
  1 10  1  0  0  0  0
  1  2  1  0  0  0  0
  2  3  2  0  0  0  0
  4 12  1  0  0  0  0
  4  2  1  0  0  0  0
  5 13  1  6  0  0  0
  5  6  1  0  0  0  0
  5  4  1  0  0  0  0
  6 15  1  0  0  0  0
  7  5  1  0  0  0  0
  8  7  2  0  0  0  0
  9  1  1  0  0  0  0
 11  4  1  0  0  0  0
 14  6  1  0  0  0  0
 16 17  1  0  0  0  0
 17 19  1  0  0  0  0
 18 17  2  0  0  0  0
 19 27  1  0  0  0  0
 19 20  1  0  0  0  0
 20 28  1  6  0  0  0
 20 22  1  0  0  0  0
 20 21  1  0  0  0  0
 21 29  1  0  0  0  0
 21  7  1  0  0  0  0
 22 23  2  0  0  0  0
 24 16  1  0  0  0  0
 25 16  1  0  0  0  0
 26 19  1  0  0  0  0
 30 39  1  0  0  0  0
 30 31  1  0  0  0  0
 31 32  2  0  0  0  0
 33 41  1  0  0  0  0
 33 34  1  0  0  0  0
 33 31  1  0  0  0  0
 34 43  1  6  0  0  0
 34 36  1  0  0  0  0
 35 22  1  0  0  0  0
 35 34  1  0  0  0  0
 36 38  2  0  0  0  0
 36 37  1  0  0  0  0
 40 30  1  0  0  0  0
 42 33  1  0  0  0  0
 44 35  1  0  0  0  0
M  END
$$$$
