NNS.pdb
 OpenBabel07022418083D

 41 40  0  0  1  0  0  0  0  0999 V2000
    3.5090   -5.2170    0.2200 N   0  0  0  0  0  0  0  0  0  0  0  0
    2.8240   -4.0480    0.6230 C   0  0  0  0  0  0  0  0  0  0  0  0
    1.6780   -3.7810    0.2100 O   0  0  0  0  0  0  0  0  0  0  0  0
    3.4580   -3.0810    1.5690 C   0  0  0  0  0  0  0  0  0  0  0  0
    2.5500   -1.9140    1.8580 C   0  0  2  0  0  0  0  0  0  0  0  0
    1.3450   -2.4180    2.4420 N   0  0  0  0  0  0  0  0  0  0  0  0
    2.2670   -1.0900    0.6730 C   0  0  0  0  0  0  0  0  0  0  0  0
    3.1790   -0.5340   -0.0040 O   0  0  0  0  0  0  0  0  0  0  0  0
    4.5310   -5.2730    0.0290 H   0  0  0  0  0  0  0  0  0  0  0  0
    2.9720   -6.1020    0.0970 H   0  0  0  0  0  0  0  0  0  0  0  0
    3.5710   -3.6390    2.5340 H   0  0  0  0  0  0  0  0  0  0  0  0
    4.4710   -2.7890    1.2660 H   0  0  0  0  0  0  0  0  0  0  0  0
    3.0720   -1.2750    2.6010 H   0  0  0  0  0  0  0  0  0  0  0  0
    1.3810   -3.4300    2.5970 H   0  0  0  0  0  0  0  0  0  0  0  0
    1.0450   -1.8710    3.2760 H   0  0  0  0  0  0  0  0  0  0  0  0
   -1.8420   -1.5520   -0.3750 N   0  0  0  0  0  0  0  0  0  0  0  0
   -1.2840   -1.6280   -1.6640 C   0  0  0  0  0  0  0  0  0  0  0  0
   -1.8450   -2.3250   -2.5340 O   0  0  0  0  0  0  0  0  0  0  0  0
   -0.0490   -0.9030   -2.0140 C   0  0  0  0  0  0  0  0  0  0  0  0
    0.5520   -0.1100   -0.8890 C   0  0  2  0  0  0  0  0  0  0  0  0
    0.9210   -0.8940    0.2490 N   0  0  0  0  0  0  0  0  0  0  0  0
   -0.2220    1.1000   -0.5510 C   0  0  0  0  0  0  0  0  0  0  0  0
   -0.5990    1.8500   -1.4880 O   0  0  0  0  0  0  0  0  0  0  0  0
   -2.2020   -0.6340   -0.0450 H   0  0  0  0  0  0  0  0  0  0  0  0
   -1.8820   -2.3990    0.2100 H   0  0  0  0  0  0  0  0  0  0  0  0
    0.7060   -1.5660   -2.4850 H   0  0  0  0  0  0  0  0  0  0  0  0
   -0.3420   -0.1940   -2.8450 H   0  0  0  0  0  0  0  0  0  0  0  0
    1.5250    0.2850   -1.3180 H   0  0  0  0  0  0  0  0  0  0  0  0
    0.1870   -1.3730    0.8410 H   0  0  0  0  0  0  0  0  0  0  0  0
   -2.1830    1.5210    2.9420 O   0  0  0  0  0  0  0  0  0  0  0  0
   -2.6100    2.2160    1.7910 C   0  0  0  0  0  0  0  0  0  0  0  0
   -1.3320    2.6660    1.0890 C   0  0  2  0  0  0  0  0  0  0  0  0
   -0.5800    1.4910    0.7650 N   0  0  0  0  0  0  0  0  0  0  0  0
   -0.5570    3.5670    1.9710 C   0  0  0  0  0  0  0  0  0  0  0  0
   -1.0510    4.6550    2.3650 O   0  0  0  0  0  0  0  0  0  0  0  0
    0.7200    3.1920    2.3530 O   0  0  0  0  0  0  0  0  0  0  0  0
   -2.9260    1.4950    3.5920 H   0  0  0  0  0  0  0  0  0  0  0  0
   -3.0900    1.4680    1.1350 H   0  0  0  0  0  0  0  0  0  0  0  0
   -3.2530    3.0710    2.0460 H   0  0  0  0  0  0  0  0  0  0  0  0
   -1.6020    3.2320    0.1690 H   0  0  0  0  0  0  0  0  0  0  0  0
   -0.2670    0.8690    1.5410 H   0  0  0  0  0  0  0  0  0  0  0  0
  1  2  1  0  0  0  0
  2  4  1  0  0  0  0
  3  2  2  0  0  0  0
  4  5  1  0  0  0  0
  4 11  1  0  0  0  0
  5  6  1  0  0  0  0
  5 13  1  1  0  0  0
  6 14  1  0  0  0  0
  6 15  1  0  0  0  0
  7  5  1  0  0  0  0
  8  7  2  0  0  0  0
  9  1  1  0  0  0  0
 10  1  1  0  0  0  0
 12  4  1  0  0  0  0
 16 24  1  0  0  0  0
 16 25  1  0  0  0  0
 17 16  1  0  0  0  0
 18 17  2  0  0  0  0
 19 17  1  0  0  0  0
 19 20  1  0  0  0  0
 20 28  1  6  0  0  0
 20 22  1  0  0  0  0
 20 21  1  0  0  0  0
 21  7  1  0  0  0  0
 21 29  1  0  0  0  0
 22 33  1  0  0  0  0
 23 22  2  0  0  0  0
 26 19  1  0  0  0  0
 27 19  1  0  0  0  0
 30 37  1  0  0  0  0
 31 39  1  0  0  0  0
 31 30  1  0  0  0  0
 32 40  1  6  0  0  0
 32 31  1  0  0  0  0
 32 34  1  0  0  0  0
 33 32  1  0  0  0  0
 33 41  1  0  0  0  0
 34 36  2  0  0  0  0
 34 35  1  0  0  0  0
 38 31  1  0  0  0  0
M  END
$$$$
