NNT.pdb
 OpenBabel07022418083D

 44 43  0  0  1  0  0  0  0  0999 V2000
    3.9410   -5.0000    3.4230 N   0  0  0  0  0  0  0  0  0  0  0  0
    3.1040   -3.8580    3.2350 C   0  0  0  0  0  0  0  0  0  0  0  0
    2.3000   -3.5950    4.1650 O   0  0  0  0  0  0  0  0  0  0  0  0
    3.1560   -3.0130    2.0310 C   0  0  0  0  0  0  0  0  0  0  0  0
    2.1450   -1.8930    2.1560 C   0  0  2  0  0  0  0  0  0  0  0  0
    0.8410   -2.5100    2.2940 N   0  0  0  0  0  0  0  0  0  0  0  0
    2.1880   -1.0220    0.9540 C   0  0  0  0  0  0  0  0  0  0  0  0
    3.1840   -0.3770    0.5920 O   0  0  0  0  0  0  0  0  0  0  0  0
    3.6860   -5.7630    4.0600 H   0  0  0  0  0  0  0  0  0  0  0  0
    4.8450   -5.0450    2.8830 H   0  0  0  0  0  0  0  0  0  0  0  0
    2.8630   -3.6160    1.1500 H   0  0  0  0  0  0  0  0  0  0  0  0
    4.1650   -2.5650    1.9020 H   0  0  0  0  0  0  0  0  0  0  0  0
    2.3240   -1.2980    3.0840 H   0  0  0  0  0  0  0  0  0  0  0  0
    0.3140   -2.1030    3.0880 H   0  0  0  0  0  0  0  0  0  0  0  0
    0.8930   -3.5390    2.3010 H   0  0  0  0  0  0  0  0  0  0  0  0
   -0.0390   -0.4480   -4.6580 N   0  0  0  0  0  0  0  0  0  0  0  0
    0.5260    0.0770   -3.4380 C   0  0  0  0  0  0  0  0  0  0  0  0
    1.0030    1.2310   -3.5360 O   0  0  0  0  0  0  0  0  0  0  0  0
    0.4930   -0.7590   -2.2260 C   0  0  0  0  0  0  0  0  0  0  0  0
    1.0230   -0.0670   -1.0280 C   0  0  2  0  0  0  0  0  0  0  0  0
    1.0140   -0.9140    0.1600 N   0  0  0  0  0  0  0  0  0  0  0  0
    0.0400    1.0280   -0.6820 C   0  0  0  0  0  0  0  0  0  0  0  0
   -0.2520    1.9650   -1.4370 O   0  0  0  0  0  0  0  0  0  0  0  0
   -0.6640    0.1750   -5.1810 H   0  0  0  0  0  0  0  0  0  0  0  0
    0.2020   -1.4310   -4.9690 H   0  0  0  0  0  0  0  0  0  0  0  0
    1.0180   -1.7020   -2.4830 H   0  0  0  0  0  0  0  0  0  0  0  0
   -0.5550   -1.0910   -1.9790 H   0  0  0  0  0  0  0  0  0  0  0  0
    1.9780    0.4100   -1.2290 H   0  0  0  0  0  0  0  0  0  0  0  0
    0.1260   -1.4180    0.3780 H   0  0  0  0  0  0  0  0  0  0  0  0
   -2.7130    0.3700    2.2620 C   0  0  0  0  0  0  0  0  0  0  0  0
   -2.9210    1.4070    1.1900 C   0  0  1  0  0  0  0  0  0  0  0  0
   -3.8950    2.3380    1.5270 O   0  0  0  0  0  0  0  0  0  0  0  0
   -1.5780    2.0890    0.9260 C   0  0  2  0  0  0  0  0  0  0  0  0
   -0.6420    1.0540    0.5890 N   0  0  0  0  0  0  0  0  0  0  0  0
   -1.1990    2.8390    2.1400 C   0  0  0  0  0  0  0  0  0  0  0  0
   -0.1610    2.5690    2.7730 O   0  0  0  0  0  0  0  0  0  0  0  0
   -2.0140    3.8590    2.5800 O   0  0  0  0  0  0  0  0  0  0  0  0
   -3.6710    0.0560    2.7420 H   0  0  0  0  0  0  0  0  0  0  0  0
   -1.9740    0.6860    3.0350 H   0  0  0  0  0  0  0  0  0  0  0  0
   -2.2870   -0.5650    1.8170 H   0  0  0  0  0  0  0  0  0  0  0  0
   -3.1720    0.8730    0.2510 H   0  0  0  0  0  0  0  0  0  0  0  0
   -4.6580    1.8450    1.9290 H   0  0  0  0  0  0  0  0  0  0  0  0
   -1.7090    2.8340    0.1160 H   0  0  0  0  0  0  0  0  0  0  0  0
   -0.4550    0.3040    1.2870 H   0  0  0  0  0  0  0  0  0  0  0  0
  1  9  1  0  0  0  0
  2  1  1  0  0  0  0
  2  3  2  0  0  0  0
  4  5  1  0  0  0  0
  4  2  1  0  0  0  0
  5  6  1  0  0  0  0
  5 13  1  1  0  0  0
  6 15  1  0  0  0  0
  6 14  1  0  0  0  0
  7  5  1  0  0  0  0
  8  7  2  0  0  0  0
 10  1  1  0  0  0  0
 11  4  1  0  0  0  0
 12  4  1  0  0  0  0
 16 17  1  0  0  0  0
 17 19  1  0  0  0  0
 18 17  2  0  0  0  0
 19 27  1  0  0  0  0
 19 20  1  0  0  0  0
 20 28  1  6  0  0  0
 20 22  1  0  0  0  0
 20 21  1  0  0  0  0
 21 29  1  0  0  0  0
 21  7  1  0  0  0  0
 22 34  1  0  0  0  0
 23 22  2  0  0  0  0
 24 16  1  0  0  0  0
 25 16  1  0  0  0  0
 26 19  1  0  0  0  0
 30 38  1  0  0  0  0
 30 39  1  0  0  0  0
 31 41  1  6  0  0  0
 31 32  1  0  0  0  0
 31 30  1  0  0  0  0
 32 42  1  0  0  0  0
 33 43  1  6  0  0  0
 33 31  1  0  0  0  0
 33 35  1  0  0  0  0
 34 33  1  0  0  0  0
 34 44  1  0  0  0  0
 35 37  2  0  0  0  0
 35 36  1  0  0  0  0
 40 30  1  0  0  0  0
M  END
$$$$
