NNW.pdb
 OpenBabel07022418083D

 54 55  0  0  1  0  0  0  0  0999 V2000
    2.0900   -3.2230    2.2680 N   0  0  0  0  0  0  0  0  0  0  0  0
    3.3340   -2.7050    1.8300 C   0  0  0  0  0  0  0  0  0  0  0  0
    3.9880   -3.3780    0.9960 O   0  0  0  0  0  0  0  0  0  0  0  0
    3.8200   -1.4120    2.3530 C   0  0  0  0  0  0  0  0  0  0  0  0
    2.8630   -0.8150    3.3630 C   0  0  2  0  0  0  0  0  0  0  0  0
    2.6760   -1.6750    4.4860 N   0  0  0  0  0  0  0  0  0  0  0  0
    1.5790   -0.4190    2.7210 C   0  0  0  0  0  0  0  0  0  0  0  0
    0.4620   -0.8180    3.1580 O   0  0  0  0  0  0  0  0  0  0  0  0
    1.2320   -3.0130    1.6970 H   0  0  0  0  0  0  0  0  0  0  0  0
    2.0650   -3.7880    3.1300 H   0  0  0  0  0  0  0  0  0  0  0  0
    3.9990   -0.6930    1.5270 H   0  0  0  0  0  0  0  0  0  0  0  0
    4.8110   -1.6020    2.8110 H   0  0  0  0  0  0  0  0  0  0  0  0
    3.3520    0.1200    3.7350 H   0  0  0  0  0  0  0  0  0  0  0  0
    1.7190   -1.9840    4.6750 H   0  0  0  0  0  0  0  0  0  0  0  0
    3.4210   -2.3780    4.5130 H   0  0  0  0  0  0  0  0  0  0  0  0
    0.3270    4.3620    2.3210 N   0  0  0  0  0  0  0  0  0  0  0  0
    0.3430    2.9570    2.2290 C   0  0  0  0  0  0  0  0  0  0  0  0
    0.4150    2.2670    3.2630 O   0  0  0  0  0  0  0  0  0  0  0  0
    0.2730    2.3320    0.9030 C   0  0  0  0  0  0  0  0  0  0  0  0
    0.2880    0.8210    0.9490 C   0  0  2  0  0  0  0  0  0  0  0  0
    1.5270    0.4270    1.5830 N   0  0  0  0  0  0  0  0  0  0  0  0
    0.2010    0.3610   -0.4530 C   0  0  0  0  0  0  0  0  0  0  0  0
    1.1430   -0.2830   -0.9410 O   0  0  0  0  0  0  0  0  0  0  0  0
   -0.4130    4.9000    1.8480 H   0  0  0  0  0  0  0  0  0  0  0  0
    1.0540    4.8500    2.8610 H   0  0  0  0  0  0  0  0  0  0  0  0
   -0.6370    2.6380    0.3460 H   0  0  0  0  0  0  0  0  0  0  0  0
    1.1690    2.6190    0.2850 H   0  0  0  0  0  0  0  0  0  0  0  0
   -0.5480    0.3970    1.5550 H   0  0  0  0  0  0  0  0  0  0  0  0
    2.4070    0.7960    1.1650 H   0  0  0  0  0  0  0  0  0  0  0  0
   -0.9500    0.6560   -1.2190 N   0  0  0  0  0  0  0  0  0  0  0  0
   -1.1290    0.2510   -2.5880 C   0  0  1  0  0  0  0  0  0  0  0  0
   -2.2390   -0.7330   -2.8220 C   0  0  0  0  0  0  0  0  0  0  0  0
   -2.0660   -2.0170   -2.0900 C   0  0  0  0  0  0  0  0  0  0  0  0
   -1.5550   -3.2010   -2.5540 C   0  0  0  0  0  0  0  0  0  0  0  0
   -1.5560   -4.0790   -1.5490 N   0  0  0  0  0  0  0  0  0  0  0  0
   -2.0520   -3.5130   -0.4380 C   0  0  0  0  0  0  0  0  0  0  0  0
   -2.2660   -3.9830    0.8320 C   0  0  0  0  0  0  0  0  0  0  0  0
   -2.8130   -3.1980    1.8430 C   0  0  0  0  0  0  0  0  0  0  0  0
   -3.1410   -1.9020    1.5220 C   0  0  0  0  0  0  0  0  0  0  0  0
   -2.9300   -1.4190    0.2490 C   0  0  0  0  0  0  0  0  0  0  0  0
   -2.3780   -2.2120   -0.7660 C   0  0  0  0  0  0  0  0  0  0  0  0
   -1.3790    1.4600   -3.4100 C   0  0  0  0  0  0  0  0  0  0  0  0
   -1.4080    2.6150   -2.8930 O   0  0  0  0  0  0  0  0  0  0  0  0
   -1.5950    1.4000   -4.7870 O   0  0  0  0  0  0  0  0  0  0  0  0
   -1.7000    1.2220   -0.7220 H   0  0  0  0  0  0  0  0  0  0  0  0
   -0.1700   -0.2050   -2.9940 H   0  0  0  0  0  0  0  0  0  0  0  0
   -3.2230   -0.2620   -2.5770 H   0  0  0  0  0  0  0  0  0  0  0  0
   -2.3010   -0.9880   -3.8980 H   0  0  0  0  0  0  0  0  0  0  0  0
   -1.2160   -3.3800   -3.5550 H   0  0  0  0  0  0  0  0  0  0  0  0
   -1.2270   -5.0900   -1.5630 H   0  0  0  0  0  0  0  0  0  0  0  0
   -2.0060   -4.9930    1.0670 H   0  0  0  0  0  0  0  0  0  0  0  0
   -2.9650   -3.5990    2.8220 H   0  0  0  0  0  0  0  0  0  0  0  0
   -3.5650   -1.2560    2.2650 H   0  0  0  0  0  0  0  0  0  0  0  0
   -3.2070   -0.4020    0.0200 H   0  0  0  0  0  0  0  0  0  0  0  0
  1 10  1  0  0  0  0
  2  1  1  0  0  0  0
  2  4  1  0  0  0  0
  3  2  2  0  0  0  0
  4 12  1  0  0  0  0
  4  5  1  0  0  0  0
  5 13  1  1  0  0  0
  5  6  1  0  0  0  0
  6 15  1  0  0  0  0
  6 14  1  0  0  0  0
  7  8  2  0  0  0  0
  7  5  1  0  0  0  0
  9  1  1  0  0  0  0
 11  4  1  0  0  0  0
 16 25  1  0  0  0  0
 17 16  1  0  0  0  0
 17 18  2  0  0  0  0
 19 20  1  0  0  0  0
 19 17  1  0  0  0  0
 20 28  1  1  0  0  0
 20 21  1  0  0  0  0
 21  7  1  0  0  0  0
 22 20  1  0  0  0  0
 23 22  2  0  0  0  0
 24 16  1  0  0  0  0
 26 19  1  0  0  0  0
 27 19  1  0  0  0  0
 29 21  1  0  0  0  0
 30 45  1  0  0  0  0
 30 22  1  0  0  0  0
 31 46  1  6  0  0  0
 31 30  1  0  0  0  0
 32 31  1  0  0  0  0
 32 47  1  0  0  0  0
 32 33  1  0  0  0  0
 33 41  1  0  0  0  0
 34 33  2  0  0  0  0
 34 35  1  0  0  0  0
 35 36  1  0  0  0  0
 36 37  1  0  0  0  0
 37 51  1  0  0  0  0
 37 38  2  0  0  0  0
 38 52  1  0  0  0  0
 39 38  1  0  0  0  0
 39 53  1  0  0  0  0
 40 39  2  0  0  0  0
 41 36  2  0  0  0  0
 41 40  1  0  0  0  0
 42 43  1  0  0  0  0
 42 31  1  0  0  0  0
 44 42  2  0  0  0  0
 48 32  1  0  0  0  0
 49 34  1  0  0  0  0
 50 35  1  0  0  0  0
 54 40  1  0  0  0  0
M  END
$$$$
