NNY.pdb
 OpenBabel07022418083D

 51 51  0  0  1  0  0  0  0  0999 V2000
    5.0500    1.8500    5.9760 N   0  0  0  0  0  0  0  0  0  0  0  0
    4.8300    0.7220    5.1510 C   0  0  0  0  0  0  0  0  0  0  0  0
    5.6820   -0.2000    5.1960 O   0  0  0  0  0  0  0  0  0  0  0  0
    3.6230    0.7170    4.3080 C   0  0  0  0  0  0  0  0  0  0  0  0
    3.5090   -0.5590    3.4720 C   0  0  2  0  0  0  0  0  0  0  0  0
    4.6180   -0.7390    2.5910 N   0  0  0  0  0  0  0  0  0  0  0  0
    2.2680   -0.3990    2.6680 C   0  0  0  0  0  0  0  0  0  0  0  0
    1.1890   -0.2260    3.2820 O   0  0  0  0  0  0  0  0  0  0  0  0
    5.1720    1.7510    6.9990 H   0  0  0  0  0  0  0  0  0  0  0  0
    5.0870    2.7880    5.5420 H   0  0  0  0  0  0  0  0  0  0  0  0
    2.6970    0.7980    4.9140 H   0  0  0  0  0  0  0  0  0  0  0  0
    3.6580    1.6110    3.6540 H   0  0  0  0  0  0  0  0  0  0  0  0
    3.4620   -1.4400    4.1390 H   0  0  0  0  0  0  0  0  0  0  0  0
    5.4230   -1.2370    2.9830 H   0  0  0  0  0  0  0  0  0  0  0  0
    4.8240    0.0400    1.9620 H   0  0  0  0  0  0  0  0  0  0  0  0
   -1.2250    1.8840   -0.5980 N   0  0  0  0  0  0  0  0  0  0  0  0
   -0.0180    1.3300   -1.0800 C   0  0  0  0  0  0  0  0  0  0  0  0
    0.0700    1.0670   -2.3250 O   0  0  0  0  0  0  0  0  0  0  0  0
    1.1490    1.0320   -0.2570 C   0  0  0  0  0  0  0  0  0  0  0  0
    0.9900   -0.2690    0.4860 C   0  0  2  0  0  0  0  0  0  0  0  0
    2.2370   -0.4310    1.2540 N   0  0  0  0  0  0  0  0  0  0  0  0
    0.7130   -1.4360   -0.3350 C   0  0  0  0  0  0  0  0  0  0  0  0
    1.5570   -2.3890   -0.4630 O   0  0  0  0  0  0  0  0  0  0  0  0
   -1.5990    1.5910    0.3340 H   0  0  0  0  0  0  0  0  0  0  0  0
   -1.7810    2.5840   -1.1300 H   0  0  0  0  0  0  0  0  0  0  0  0
    1.2960    1.8360    0.5250 H   0  0  0  0  0  0  0  0  0  0  0  0
    2.0860    0.9230   -0.8640 H   0  0  0  0  0  0  0  0  0  0  0  0
    0.1330   -0.1270    1.1830 H   0  0  0  0  0  0  0  0  0  0  0  0
    3.1390   -0.5750    0.7570 H   0  0  0  0  0  0  0  0  0  0  0  0
   -6.4090   -0.1720   -0.3390 O   0  0  0  0  0  0  0  0  0  0  0  0
   -5.3100   -0.9990   -0.5420 C   0  0  0  0  0  0  0  0  0  0  0  0
   -5.2020   -1.8240   -1.6370 C   0  0  0  0  0  0  0  0  0  0  0  0
   -4.0960   -2.6540   -1.8370 C   0  0  0  0  0  0  0  0  0  0  0  0
   -3.0790   -2.6500   -0.9140 C   0  0  0  0  0  0  0  0  0  0  0  0
   -1.8910   -3.5020   -1.0690 C   0  0  0  0  0  0  0  0  0  0  0  0
   -0.7790   -2.7680   -1.8490 C   0  0  2  0  0  0  0  0  0  0  0  0
   -0.4980   -1.5950   -1.0330 N   0  0  0  0  0  0  0  0  0  0  0  0
   -1.3870   -2.3760   -3.1310 C   0  0  0  0  0  0  0  0  0  0  0  0
   -1.6560   -3.2930   -3.9840 O   0  0  0  0  0  0  0  0  0  0  0  0
   -3.1990   -1.8200    0.1780 C   0  0  0  0  0  0  0  0  0  0  0  0
   -4.2860   -1.0020    0.3780 C   0  0  0  0  0  0  0  0  0  0  0  0
   -1.7080   -1.0940   -3.5240 O   0  0  0  0  0  0  0  0  0  0  0  0
   -6.7630    0.0250    0.5820 H   0  0  0  0  0  0  0  0  0  0  0  0
   -6.0170   -1.8200   -2.3660 H   0  0  0  0  0  0  0  0  0  0  0  0
   -4.0800   -3.2770   -2.7190 H   0  0  0  0  0  0  0  0  0  0  0  0
   -2.1420   -4.4470   -1.6110 H   0  0  0  0  0  0  0  0  0  0  0  0
   -1.4540   -3.8110   -0.0980 H   0  0  0  0  0  0  0  0  0  0  0  0
    0.0930   -3.4290   -1.9650 H   0  0  0  0  0  0  0  0  0  0  0  0
   -1.2600   -0.8850   -1.0000 H   0  0  0  0  0  0  0  0  0  0  0  0
   -2.4110   -1.7880    0.9350 H   0  0  0  0  0  0  0  0  0  0  0  0
   -4.3780   -0.3440    1.2460 H   0  0  0  0  0  0  0  0  0  0  0  0
  1  9  1  0  0  0  0
  2  3  2  0  0  0  0
  2  1  1  0  0  0  0
  4 11  1  0  0  0  0
  4  2  1  0  0  0  0
  5 13  1  1  0  0  0
  5  4  1  0  0  0  0
  6 14  1  0  0  0  0
  6  5  1  0  0  0  0
  7  8  2  0  0  0  0
  7  5  1  0  0  0  0
 10  1  1  0  0  0  0
 12  4  1  0  0  0  0
 15  6  1  0  0  0  0
 16 24  1  0  0  0  0
 17 16  1  0  0  0  0
 17 19  1  0  0  0  0
 18 17  2  0  0  0  0
 19 20  1  0  0  0  0
 19 26  1  0  0  0  0
 20 28  1  1  0  0  0
 20 21  1  0  0  0  0
 21  7  1  0  0  0  0
 22 20  1  0  0  0  0
 23 22  2  0  0  0  0
 25 16  1  0  0  0  0
 27 19  1  0  0  0  0
 29 21  1  0  0  0  0
 30 43  1  0  0  0  0
 31 30  1  0  0  0  0
 31 41  1  0  0  0  0
 32 31  2  0  0  0  0
 33 32  1  0  0  0  0
 33 34  2  0  0  0  0
 34 40  1  0  0  0  0
 35 34  1  0  0  0  0
 35 47  1  0  0  0  0
 36 48  1  6  0  0  0
 36 35  1  0  0  0  0
 36 37  1  0  0  0  0
 37 49  1  0  0  0  0
 37 22  1  0  0  0  0
 38 36  1  0  0  0  0
 39 38  2  0  0  0  0
 40 41  2  0  0  0  0
 40 50  1  0  0  0  0
 41 51  1  0  0  0  0
 42 38  1  0  0  0  0
 44 32  1  0  0  0  0
 45 33  1  0  0  0  0
 46 35  1  0  0  0  0
M  END
$$$$
