NPA.pdb
 OpenBabel07022418113D

 40 40  0  0  1  0  0  0  0  0999 V2000
   -1.8800   -5.0110    0.2960 N   0  0  0  0  0  0  0  0  0  0  0  0
   -0.6750   -4.3020    0.0190 C   0  0  0  0  0  0  0  0  0  0  0  0
    0.1820   -4.2450    0.9140 O   0  0  0  0  0  0  0  0  0  0  0  0
   -0.4520   -3.6570   -1.2820 C   0  0  0  0  0  0  0  0  0  0  0  0
    0.8760   -2.9300   -1.3730 C   0  0  2  0  0  0  0  0  0  0  0  0
    1.8850   -3.9730   -1.1330 N   0  0  0  0  0  0  0  0  0  0  0  0
    1.0580   -1.8910   -0.3380 C   0  0  0  0  0  0  0  0  0  0  0  0
    1.7430   -2.1970    0.6600 O   0  0  0  0  0  0  0  0  0  0  0  0
   -2.3440   -4.9040    1.2260 H   0  0  0  0  0  0  0  0  0  0  0  0
   -2.2900   -5.6290   -0.4240 H   0  0  0  0  0  0  0  0  0  0  0  0
   -0.3650   -4.4990   -2.0320 H   0  0  0  0  0  0  0  0  0  0  0  0
   -1.3260   -3.0710   -1.5470 H   0  0  0  0  0  0  0  0  0  0  0  0
    0.9650   -2.5500   -2.4030 H   0  0  0  0  0  0  0  0  0  0  0  0
    2.1620   -4.4170   -2.0380 H   0  0  0  0  0  0  0  0  0  0  0  0
    2.7060   -3.4940   -0.7170 H   0  0  0  0  0  0  0  0  0  0  0  0
    0.4850   -0.6250   -0.4800 N   0  0  0  0  0  0  0  0  0  0  0  0
   -0.2850   -0.2390   -1.7030 C   0  0  0  0  0  0  0  0  0  0  0  0
   -1.4700    0.5170   -1.1460 C   0  0  0  0  0  0  0  0  0  0  0  0
   -1.1580    0.6940    0.3290 C   0  0  0  0  0  0  0  0  0  0  0  0
    0.3740    0.5800    0.2790 C   0  0  1  0  0  0  0  0  0  0  0  0
    0.9970    0.7140    1.5600 C   0  0  0  0  0  0  0  0  0  0  0  0
    1.6670   -0.2000    2.0920 O   0  0  0  0  0  0  0  0  0  0  0  0
   -0.5330   -1.0590   -2.3390 H   0  0  0  0  0  0  0  0  0  0  0  0
    0.4160    0.4560   -2.2460 H   0  0  0  0  0  0  0  0  0  0  0  0
   -2.4230   -0.0210   -1.3050 H   0  0  0  0  0  0  0  0  0  0  0  0
   -1.4720    1.5320   -1.5930 H   0  0  0  0  0  0  0  0  0  0  0  0
   -1.4810    1.6560    0.7270 H   0  0  0  0  0  0  0  0  0  0  0  0
   -1.6020   -0.1790    0.8560 H   0  0  0  0  0  0  0  0  0  0  0  0
    0.6760    1.4170   -0.4110 H   0  0  0  0  0  0  0  0  0  0  0  0
    2.5680    3.1290    3.6190 C   0  0  0  0  0  0  0  0  0  0  0  0
    1.5120    2.0440    3.5940 C   0  0  2  0  0  0  0  0  0  0  0  0
    0.8760    1.9350    2.3070 N   0  0  0  0  0  0  0  0  0  0  0  0
    0.5440    2.3020    4.6730 C   0  0  0  0  0  0  0  0  0  0  0  0
   -0.6690    2.4000    4.4130 O   0  0  0  0  0  0  0  0  0  0  0  0
    0.9790    2.4360    5.9710 O   0  0  0  0  0  0  0  0  0  0  0  0
    2.1280    4.1360    3.6370 H   0  0  0  0  0  0  0  0  0  0  0  0
    3.1320    2.9970    4.5750 H   0  0  0  0  0  0  0  0  0  0  0  0
    3.3040    3.0110    2.8030 H   0  0  0  0  0  0  0  0  0  0  0  0
    2.0500    1.1010    3.8680 H   0  0  0  0  0  0  0  0  0  0  0  0
    0.3200    2.6940    1.8640 H   0  0  0  0  0  0  0  0  0  0  0  0
  1  9  1  0  0  0  0
  2  1  1  0  0  0  0
  2  3  2  0  0  0  0
  4  2  1  0  0  0  0
  5 13  1  6  0  0  0
  5  4  1  0  0  0  0
  5  6  1  0  0  0  0
  5  7  1  0  0  0  0
  6 15  1  0  0  0  0
  7  8  2  0  0  0  0
 10  1  1  0  0  0  0
 11  4  1  0  0  0  0
 12  4  1  0  0  0  0
 14  6  1  0  0  0  0
 16  7  1  0  0  0  0
 16 20  1  0  0  0  0
 17 18  1  0  0  0  0
 17 16  1  0  0  0  0
 18 19  1  0  0  0  0
 19 27  1  0  0  0  0
 19 28  1  0  0  0  0
 20 29  1  6  0  0  0
 20 19  1  0  0  0  0
 20 21  1  0  0  0  0
 21 22  2  0  0  0  0
 21 32  1  0  0  0  0
 23 17  1  0  0  0  0
 24 17  1  0  0  0  0
 25 18  1  0  0  0  0
 26 18  1  0  0  0  0
 30 36  1  0  0  0  0
 30 37  1  0  0  0  0
 31 30  1  0  0  0  0
 31 39  1  1  0  0  0
 31 33  1  0  0  0  0
 32 31  1  0  0  0  0
 33 35  1  0  0  0  0
 34 33  2  0  0  0  0
 38 30  1  0  0  0  0
 40 32  1  0  0  0  0
M  END
$$$$
