NPC.pdb
 OpenBabel07022418113D

 41 41  0  0  1  0  0  0  0  0999 V2000
    2.9520   -4.6060    0.9280 N   0  0  0  0  0  0  0  0  0  0  0  0
    2.0380   -4.0880    1.9090 C   0  0  0  0  0  0  0  0  0  0  0  0
    1.9380   -4.7020    3.0160 O   0  0  0  0  0  0  0  0  0  0  0  0
    1.2580   -2.8610    1.5800 C   0  0  0  0  0  0  0  0  0  0  0  0
    1.5370   -1.8870    2.7010 C   0  0  2  0  0  0  0  0  0  0  0  0
    1.0660   -2.5970    3.9090 N   0  0  0  0  0  0  0  0  0  0  0  0
    0.8150   -0.6190    2.6130 C   0  0  0  0  0  0  0  0  0  0  0  0
   -0.1690   -0.4630    3.4190 O   0  0  0  0  0  0  0  0  0  0  0  0
    2.6050   -4.8240   -0.0160 H   0  0  0  0  0  0  0  0  0  0  0  0
    3.9650   -4.7610    1.1650 H   0  0  0  0  0  0  0  0  0  0  0  0
    0.1870   -3.1750    1.5900 H   0  0  0  0  0  0  0  0  0  0  0  0
    1.5760   -2.5190    0.5900 H   0  0  0  0  0  0  0  0  0  0  0  0
    2.6190   -1.7640    2.8310 H   0  0  0  0  0  0  0  0  0  0  0  0
    1.7990   -2.6390    4.6300 H   0  0  0  0  0  0  0  0  0  0  0  0
    0.1820   -2.1890    4.2820 H   0  0  0  0  0  0  0  0  0  0  0  0
    1.0880    0.4480    1.7410 N   0  0  0  0  0  0  0  0  0  0  0  0
    2.1430    0.4930    0.7760 C   0  0  0  0  0  0  0  0  0  0  0  0
    1.9850    1.7930    0.0300 C   0  0  0  0  0  0  0  0  0  0  0  0
    1.3170    2.6820    1.0540 C   0  0  0  0  0  0  0  0  0  0  0  0
    0.3450    1.6840    1.6790 C   0  0  1  0  0  0  0  0  0  0  0  0
   -0.8020    1.6010    0.7470 C   0  0  0  0  0  0  0  0  0  0  0  0
   -1.5670    2.6080    0.7050 O   0  0  0  0  0  0  0  0  0  0  0  0
    2.2060   -0.3710    0.0910 H   0  0  0  0  0  0  0  0  0  0  0  0
    3.1020    0.6110    1.3620 H   0  0  0  0  0  0  0  0  0  0  0  0
    2.9470    2.2310   -0.3070 H   0  0  0  0  0  0  0  0  0  0  0  0
    1.3200    1.6740   -0.8600 H   0  0  0  0  0  0  0  0  0  0  0  0
    2.0720    2.9500    1.8130 H   0  0  0  0  0  0  0  0  0  0  0  0
    0.7800    3.5270    0.6200 H   0  0  0  0  0  0  0  0  0  0  0  0
    0.0130    2.0790    2.6350 H   0  0  0  0  0  0  0  0  0  0  0  0
   -1.0890    0.4870   -0.0790 N   0  0  0  0  0  0  0  0  0  0  0  0
   -2.2210    0.4200   -0.9860 C   0  0  1  0  0  0  0  0  0  0  0  0
   -1.6070    0.4420   -2.4010 C   0  0  0  0  0  0  0  0  0  0  0  0
   -0.5090   -0.9680   -2.5870 S   0  0  0  0  0  0  0  0  0  0  0  0
   -2.9430   -0.8570   -0.8090 C   0  0  0  0  0  0  0  0  0  0  0  0
   -3.9640   -1.1510   -1.4810 O   0  0  0  0  0  0  0  0  0  0  0  0
   -2.4970   -1.8020    0.1370 O   0  0  0  0  0  0  0  0  0  0  0  0
   -0.4570   -0.3360   -0.0340 H   0  0  0  0  0  0  0  0  0  0  0  0
   -2.9100    1.2900   -0.8840 H   0  0  0  0  0  0  0  0  0  0  0  0
   -1.1040    1.4230   -2.5600 H   0  0  0  0  0  0  0  0  0  0  0  0
   -2.4270    0.3500   -3.1440 H   0  0  0  0  0  0  0  0  0  0  0  0
    0.8390   -0.5990   -2.3100 H   0  0  0  0  0  0  0  0  0  0  0  0
  1 10  1  0  0  0  0
  1  2  1  0  0  0  0
  2  3  2  0  0  0  0
  4 11  1  0  0  0  0
  4  2  1  0  0  0  0
  4  5  1  0  0  0  0
  5 13  1  1  0  0  0
  5  6  1  0  0  0  0
  6 15  1  0  0  0  0
  6 14  1  0  0  0  0
  7  5  1  0  0  0  0
  7  8  2  0  0  0  0
  9  1  1  0  0  0  0
 12  4  1  0  0  0  0
 16  7  1  0  0  0  0
 17 24  1  0  0  0  0
 17 16  1  0  0  0  0
 18 17  1  0  0  0  0
 18 19  1  0  0  0  0
 19 20  1  0  0  0  0
 19 27  1  0  0  0  0
 20 16  1  0  0  0  0
 20 29  1  1  0  0  0
 21 20  1  0  0  0  0
 22 21  2  0  0  0  0
 23 17  1  0  0  0  0
 25 18  1  0  0  0  0
 26 18  1  0  0  0  0
 28 19  1  0  0  0  0
 30 37  1  0  0  0  0
 30 21  1  0  0  0  0
 31 38  1  1  0  0  0
 31 34  1  0  0  0  0
 31 30  1  0  0  0  0
 32 31  1  0  0  0  0
 33 32  1  0  0  0  0
 33 41  1  0  0  0  0
 34 36  1  0  0  0  0
 35 34  2  0  0  0  0
 39 32  1  0  0  0  0
 40 32  1  0  0  0  0
M  END
$$$$
