NPG.pdb
 OpenBabel07022418113D

 37 37  0  0  1  0  0  0  0  0999 V2000
    1.7480   -4.7520    3.2290 N   0  0  0  0  0  0  0  0  0  0  0  0
    2.1230   -4.0940    2.0130 C   0  0  0  0  0  0  0  0  0  0  0  0
    2.4300   -4.8480    1.0580 O   0  0  0  0  0  0  0  0  0  0  0  0
    2.1510   -2.6330    1.8740 C   0  0  0  0  0  0  0  0  0  0  0  0
    0.9510   -2.1000    1.1210 C   0  0  2  0  0  0  0  0  0  0  0  0
    0.8490   -2.6300   -0.2120 N   0  0  0  0  0  0  0  0  0  0  0  0
    1.0160   -0.6130    1.0680 C   0  0  0  0  0  0  0  0  0  0  0  0
    1.1870   -0.0100    2.1790 O   0  0  0  0  0  0  0  0  0  0  0  0
    1.1190   -5.5790    3.1520 H   0  0  0  0  0  0  0  0  0  0  0  0
    2.0800   -4.4280    4.1620 H   0  0  0  0  0  0  0  0  0  0  0  0
    3.0590   -2.2810    1.3590 H   0  0  0  0  0  0  0  0  0  0  0  0
    2.1810   -2.1820    2.8970 H   0  0  0  0  0  0  0  0  0  0  0  0
    0.0570   -2.4350    1.6900 H   0  0  0  0  0  0  0  0  0  0  0  0
    0.1520   -3.4150   -0.2150 H   0  0  0  0  0  0  0  0  0  0  0  0
    1.7700   -3.0410   -0.5020 H   0  0  0  0  0  0  0  0  0  0  0  0
    0.9050    0.1560   -0.1010 N   0  0  0  0  0  0  0  0  0  0  0  0
    0.7090   -0.3670   -1.4270 C   0  0  0  0  0  0  0  0  0  0  0  0
    0.6120    0.8010   -2.3710 C   0  0  0  0  0  0  0  0  0  0  0  0
    0.8250    2.0380   -1.5700 C   0  0  0  0  0  0  0  0  0  0  0  0
    0.9780    1.6000   -0.1240 C   0  0  1  0  0  0  0  0  0  0  0  0
   -0.1630    2.1530    0.6120 C   0  0  0  0  0  0  0  0  0  0  0  0
   -0.2410    3.3780    0.8670 O   0  0  0  0  0  0  0  0  0  0  0  0
    1.5700   -1.0040   -1.7460 H   0  0  0  0  0  0  0  0  0  0  0  0
   -0.2480   -0.9400   -1.4430 H   0  0  0  0  0  0  0  0  0  0  0  0
    1.3340    0.6910   -3.2100 H   0  0  0  0  0  0  0  0  0  0  0  0
   -0.4030    0.8170   -2.8670 H   0  0  0  0  0  0  0  0  0  0  0  0
    1.7260    2.6010   -1.9370 H   0  0  0  0  0  0  0  0  0  0  0  0
   -0.0240    2.7670   -1.7010 H   0  0  0  0  0  0  0  0  0  0  0  0
    1.9530    1.9740    0.2610 H   0  0  0  0  0  0  0  0  0  0  0  0
   -1.2030    1.3070    1.0480 N   0  0  0  0  0  0  0  0  0  0  0  0
   -2.3080    1.8730    1.7740 C   0  0  0  0  0  0  0  0  0  0  0  0
   -3.2550    0.7970    2.1230 C   0  0  0  0  0  0  0  0  0  0  0  0
   -3.0950   -0.3880    1.8140 O   0  0  0  0  0  0  0  0  0  0  0  0
   -4.3980    1.1510    2.8470 O   0  0  0  0  0  0  0  0  0  0  0  0
   -1.2110    0.2740    0.8600 H   0  0  0  0  0  0  0  0  0  0  0  0
   -2.7970    2.6900    1.2020 H   0  0  0  0  0  0  0  0  0  0  0  0
   -1.8930    2.3040    2.7290 H   0  0  0  0  0  0  0  0  0  0  0  0
  1 10  1  0  0  0  0
  2  1  1  0  0  0  0
  3  2  2  0  0  0  0
  4  2  1  0  0  0  0
  4 12  1  0  0  0  0
  5 13  1  1  0  0  0
  5  4  1  0  0  0  0
  6  5  1  0  0  0  0
  7  5  1  0  0  0  0
  7  8  2  0  0  0  0
  9  1  1  0  0  0  0
 11  4  1  0  0  0  0
 14  6  1  0  0  0  0
 15  6  1  0  0  0  0
 16  7  1  0  0  0  0
 17 16  1  0  0  0  0
 18 19  1  0  0  0  0
 18 17  1  0  0  0  0
 19 20  1  0  0  0  0
 20 16  1  0  0  0  0
 20 29  1  1  0  0  0
 20 21  1  0  0  0  0
 21 22  2  0  0  0  0
 21 30  1  0  0  0  0
 23 17  1  0  0  0  0
 24 17  1  0  0  0  0
 25 18  1  0  0  0  0
 26 18  1  0  0  0  0
 27 19  1  0  0  0  0
 28 19  1  0  0  0  0
 30 31  1  0  0  0  0
 31 32  1  0  0  0  0
 31 37  1  0  0  0  0
 32 34  1  0  0  0  0
 33 32  2  0  0  0  0
 35 30  1  0  0  0  0
 36 31  1  0  0  0  0
M  END
$$$$
