NPH.pdb
 OpenBabel07022418113D

 47 48  0  0  1  0  0  0  0  0999 V2000
    2.3620   -5.9980    0.5250 N   0  0  0  0  0  0  0  0  0  0  0  0
    1.6240   -4.8880    0.0430 C   0  0  0  0  0  0  0  0  0  0  0  0
    0.4090   -4.9890   -0.2540 O   0  0  0  0  0  0  0  0  0  0  0  0
    2.2840   -3.5720   -0.1210 C   0  0  0  0  0  0  0  0  0  0  0  0
    1.2780   -2.5350   -0.6550 C   0  0  2  0  0  0  0  0  0  0  0  0
    0.7890   -3.0280   -1.9620 N   0  0  0  0  0  0  0  0  0  0  0  0
    1.9070   -1.2270   -0.8800 C   0  0  0  0  0  0  0  0  0  0  0  0
    2.1640   -0.9180   -2.1020 O   0  0  0  0  0  0  0  0  0  0  0  0
    3.2340   -6.2580    0.0140 H   0  0  0  0  0  0  0  0  0  0  0  0
    2.1040   -6.5720    1.3490 H   0  0  0  0  0  0  0  0  0  0  0  0
    3.0860   -3.7290   -0.9000 H   0  0  0  0  0  0  0  0  0  0  0  0
    2.7300   -3.2440    0.8080 H   0  0  0  0  0  0  0  0  0  0  0  0
    0.4270   -2.5520    0.0210 H   0  0  0  0  0  0  0  0  0  0  0  0
   -0.2340   -3.1750   -1.9510 H   0  0  0  0  0  0  0  0  0  0  0  0
    0.9800   -2.3300   -2.7160 H   0  0  0  0  0  0  0  0  0  0  0  0
    2.2510   -0.2840    0.1220 N   0  0  0  0  0  0  0  0  0  0  0  0
    2.8980    1.0020   -0.1730 C   0  0  0  0  0  0  0  0  0  0  0  0
    3.8880    1.0620    1.0000 C   0  0  0  0  0  0  0  0  0  0  0  0
    2.8880    0.8200    2.1310 C   0  0  0  0  0  0  0  0  0  0  0  0
    2.0600   -0.3240    1.5300 C   0  0  1  0  0  0  0  0  0  0  0  0
    0.6560   -0.0580    1.9400 C   0  0  0  0  0  0  0  0  0  0  0  0
    0.3340   -0.0720    3.1560 O   0  0  0  0  0  0  0  0  0  0  0  0
    2.1600    1.8080   -0.0610 H   0  0  0  0  0  0  0  0  0  0  0  0
    3.4290    0.9940   -1.1240 H   0  0  0  0  0  0  0  0  0  0  0  0
    4.5630    0.1910    0.9290 H   0  0  0  0  0  0  0  0  0  0  0  0
    4.3860    2.0270    1.0740 H   0  0  0  0  0  0  0  0  0  0  0  0
    3.3650    0.5430    3.0670 H   0  0  0  0  0  0  0  0  0  0  0  0
    2.2530    1.7210    2.1730 H   0  0  0  0  0  0  0  0  0  0  0  0
    2.4720   -1.2310    1.9560 H   0  0  0  0  0  0  0  0  0  0  0  0
   -0.3890    0.2220    1.0180 N   0  0  0  0  0  0  0  0  0  0  0  0
   -1.7680    0.4800    1.4820 C   0  0  1  0  0  0  0  0  0  0  0  0
   -2.2010    1.8530    1.0860 C   0  0  0  0  0  0  0  0  0  0  0  0
   -3.5740    2.1130    1.5470 C   0  0  0  0  0  0  0  0  0  0  0  0
   -4.7980    1.9450    0.9310 C   0  0  0  0  0  0  0  0  0  0  0  0
   -5.8020    2.3430    1.7370 N   0  0  0  0  0  0  0  0  0  0  0  0
   -5.2200    2.7630    2.8630 C   0  0  0  0  0  0  0  0  0  0  0  0
   -3.8980    2.6340    2.7680 N   0  0  0  0  0  0  0  0  0  0  0  0
   -2.6230   -0.5500    0.8840 C   0  0  0  0  0  0  0  0  0  0  0  0
   -3.8410   -0.6010    1.1630 O   0  0  0  0  0  0  0  0  0  0  0  0
   -2.0990   -1.4780    0.0050 O   0  0  0  0  0  0  0  0  0  0  0  0
   -0.1950    0.2480    0.0150 H   0  0  0  0  0  0  0  0  0  0  0  0
   -1.7940    0.4010    2.5930 H   0  0  0  0  0  0  0  0  0  0  0  0
   -1.5430    2.6210    1.5690 H   0  0  0  0  0  0  0  0  0  0  0  0
   -2.1280    1.9890   -0.0180 H   0  0  0  0  0  0  0  0  0  0  0  0
   -4.9310    1.5470   -0.0810 H   0  0  0  0  0  0  0  0  0  0  0  0
   -6.8190    2.3180    1.5070 H   0  0  0  0  0  0  0  0  0  0  0  0
   -5.8020    3.1490    3.7100 H   0  0  0  0  0  0  0  0  0  0  0  0
  1 10  1  0  0  0  0
  2  1  1  0  0  0  0
  3  2  2  0  0  0  0
  4  2  1  0  0  0  0
  4 12  1  0  0  0  0
  5  4  1  0  0  0  0
  5 13  1  1  0  0  0
  6 14  1  0  0  0  0
  6  5  1  0  0  0  0
  7  5  1  0  0  0  0
  7 16  1  0  0  0  0
  8  7  2  0  0  0  0
  9  1  1  0  0  0  0
 11  4  1  0  0  0  0
 15  6  1  0  0  0  0
 16 20  1  0  0  0  0
 17 23  1  0  0  0  0
 17 16  1  0  0  0  0
 17 18  1  0  0  0  0
 18 26  1  0  0  0  0
 18 19  1  0  0  0  0
 19 28  1  0  0  0  0
 19 27  1  0  0  0  0
 20 21  1  0  0  0  0
 20 29  1  1  0  0  0
 20 19  1  0  0  0  0
 21 22  2  0  0  0  0
 24 17  1  0  0  0  0
 25 18  1  0  0  0  0
 30 31  1  0  0  0  0
 30 21  1  0  0  0  0
 31 42  1  1  0  0  0
 32 31  1  0  0  0  0
 32 33  1  0  0  0  0
 32 43  1  0  0  0  0
 33 37  1  0  0  0  0
 34 33  2  0  0  0  0
 34 35  1  0  0  0  0
 35 36  1  0  0  0  0
 36 47  1  0  0  0  0
 37 36  2  0  0  0  0
 38 39  1  0  0  0  0
 38 31  1  0  0  0  0
 40 38  2  0  0  0  0
 41 30  1  0  0  0  0
 44 32  1  0  0  0  0
 45 34  1  0  0  0  0
 46 35  1  0  0  0  0
M  END
$$$$
