NPI.pdb
 OpenBabel07022418113D

 49 49  0  0  1  0  0  0  0  0999 V2000
    0.1660   -2.3480    4.4130 N   0  0  0  0  0  0  0  0  0  0  0  0
    1.5290   -2.0200    4.5110 C   0  0  0  0  0  0  0  0  0  0  0  0
    2.1880   -2.7000    5.3780 O   0  0  0  0  0  0  0  0  0  0  0  0
    2.2500   -0.9960    3.7350 C   0  0  0  0  0  0  0  0  0  0  0  0
    1.3770   -0.4580    2.6100 C   0  0  2  0  0  0  0  0  0  0  0  0
    1.0470   -1.5270    1.7400 N   0  0  0  0  0  0  0  0  0  0  0  0
    2.1110    0.5790    1.8440 C   0  0  0  0  0  0  0  0  0  0  0  0
    2.6950    1.4160    2.6720 O   0  0  0  0  0  0  0  0  0  0  0  0
   -0.6130   -1.6560    4.5410 H   0  0  0  0  0  0  0  0  0  0  0  0
   -0.1550   -3.3330    4.2010 H   0  0  0  0  0  0  0  0  0  0  0  0
    3.1680   -1.4320    3.2890 H   0  0  0  0  0  0  0  0  0  0  0  0
    2.4680   -0.1410    4.4170 H   0  0  0  0  0  0  0  0  0  0  0  0
    0.4960   -0.0240    3.1420 H   0  0  0  0  0  0  0  0  0  0  0  0
    1.9430   -1.8190    1.2630 H   0  0  0  0  0  0  0  0  0  0  0  0
    0.6280   -2.3690    2.1380 H   0  0  0  0  0  0  0  0  0  0  0  0
    2.2440    0.7520    0.4720 N   0  0  0  0  0  0  0  0  0  0  0  0
    3.1520    1.8570   -0.0290 C   0  0  0  0  0  0  0  0  0  0  0  0
    3.9830    1.0510   -1.0430 C   0  0  0  0  0  0  0  0  0  0  0  0
    3.1470   -0.2070   -1.3560 C   0  0  0  0  0  0  0  0  0  0  0  0
    1.8240    0.2530   -0.7730 C   0  0  1  0  0  0  0  0  0  0  0  0
    0.6800   -0.5660   -0.9900 C   0  0  0  0  0  0  0  0  0  0  0  0
    0.8070   -1.7800   -1.2750 O   0  0  0  0  0  0  0  0  0  0  0  0
    2.5410    2.6190   -0.5440 H   0  0  0  0  0  0  0  0  0  0  0  0
    3.8130    2.2140    0.7460 H   0  0  0  0  0  0  0  0  0  0  0  0
    4.0370    1.6270   -1.9870 H   0  0  0  0  0  0  0  0  0  0  0  0
    4.9610    0.7810   -0.6440 H   0  0  0  0  0  0  0  0  0  0  0  0
    3.1040   -0.4130   -2.4290 H   0  0  0  0  0  0  0  0  0  0  0  0
    3.5440   -1.0160   -0.7220 H   0  0  0  0  0  0  0  0  0  0  0  0
    1.6080    1.2000   -1.4450 H   0  0  0  0  0  0  0  0  0  0  0  0
   -2.4650   -2.0000    1.6000 C   0  0  0  0  0  0  0  0  0  0  0  0
   -2.6920   -0.5470    1.2420 C   0  0  0  0  0  0  0  0  0  0  0  0
   -2.9730   -0.3530   -0.2100 C   0  0  2  0  0  0  0  0  0  0  0  0
   -4.2160   -1.1680   -0.5570 C   0  0  0  0  0  0  0  0  0  0  0  0
   -1.8590   -0.7640   -1.1160 C   0  0  2  0  0  0  0  0  0  0  0  0
   -0.6260   -0.0370   -0.9010 N   0  0  0  0  0  0  0  0  0  0  0  0
   -2.2940   -0.6420   -2.5480 C   0  0  0  0  0  0  0  0  0  0  0  0
   -3.3220   -1.2430   -2.9290 O   0  0  0  0  0  0  0  0  0  0  0  0
   -1.6240    0.1070   -3.4970 O   0  0  0  0  0  0  0  0  0  0  0  0
   -3.4180   -2.3790    2.0780 H   0  0  0  0  0  0  0  0  0  0  0  0
   -1.7020   -2.1240    2.3840 H   0  0  0  0  0  0  0  0  0  0  0  0
   -2.2800   -2.6600    0.7560 H   0  0  0  0  0  0  0  0  0  0  0  0
   -1.7990    0.0730    1.5220 H   0  0  0  0  0  0  0  0  0  0  0  0
   -3.5770   -0.1530    1.8030 H   0  0  0  0  0  0  0  0  0  0  0  0
   -3.2180    0.7430   -0.3350 H   0  0  0  0  0  0  0  0  0  0  0  0
   -4.8100   -1.3000    0.3800 H   0  0  0  0  0  0  0  0  0  0  0  0
   -4.8490   -0.6950   -1.3200 H   0  0  0  0  0  0  0  0  0  0  0  0
   -3.9530   -2.1840   -0.9140 H   0  0  0  0  0  0  0  0  0  0  0  0
   -1.6730   -1.8440   -0.9960 H   0  0  0  0  0  0  0  0  0  0  0  0
   -0.7270    0.9920   -0.6580 H   0  0  0  0  0  0  0  0  0  0  0  0
  1  2  1  0  0  0  0
  1  9  1  0  0  0  0
  2  3  2  0  0  0  0
  4 12  1  0  0  0  0
  4  2  1  0  0  0  0
  5 13  1  1  0  0  0
  5  4  1  0  0  0  0
  6 15  1  0  0  0  0
  6  5  1  0  0  0  0
  7  5  1  0  0  0  0
  7  8  2  0  0  0  0
 10  1  1  0  0  0  0
 11  4  1  0  0  0  0
 14  6  1  0  0  0  0
 16  7  1  0  0  0  0
 17 16  1  0  0  0  0
 17 24  1  0  0  0  0
 18 26  1  0  0  0  0
 18 17  1  0  0  0  0
 19 18  1  0  0  0  0
 19 20  1  0  0  0  0
 19 28  1  0  0  0  0
 20 29  1  6  0  0  0
 20 16  1  0  0  0  0
 21 35  1  0  0  0  0
 21 20  1  0  0  0  0
 22 21  2  0  0  0  0
 23 17  1  0  0  0  0
 25 18  1  0  0  0  0
 27 19  1  0  0  0  0
 30 39  1  0  0  0  0
 30 40  1  0  0  0  0
 31 42  1  0  0  0  0
 31 30  1  0  0  0  0
 31 43  1  0  0  0  0
 32 44  1  6  0  0  0
 32 31  1  0  0  0  0
 33 32  1  0  0  0  0
 33 45  1  0  0  0  0
 34 48  1  1  0  0  0
 34 35  1  0  0  0  0
 34 32  1  0  0  0  0
 35 49  1  0  0  0  0
 36 34  1  0  0  0  0
 37 36  1  0  0  0  0
 38 36  2  0  0  0  0
 41 30  1  0  0  0  0
 46 33  1  0  0  0  0
 47 33  1  0  0  0  0
M  END
$$$$
