NPM.pdb
 OpenBabel07022418113D

 47 47  0  0  1  0  0  0  0  0999 V2000
    3.3400   -2.0990    4.2010 N   0  0  0  0  0  0  0  0  0  0  0  0
    3.5220   -1.1710    3.1510 C   0  0  0  0  0  0  0  0  0  0  0  0
    3.4910    0.0550    3.4230 O   0  0  0  0  0  0  0  0  0  0  0  0
    3.7470   -1.5670    1.7460 C   0  0  0  0  0  0  0  0  0  0  0  0
    2.4770   -1.6190    0.9170 C   0  0  2  0  0  0  0  0  0  0  0  0
    2.7850   -2.0110   -0.4290 N   0  0  0  0  0  0  0  0  0  0  0  0
    1.6790   -0.3850    0.9890 C   0  0  0  0  0  0  0  0  0  0  0  0
    1.2290   -0.0560    2.1470 O   0  0  0  0  0  0  0  0  0  0  0  0
    3.6440   -1.8360    5.1630 H   0  0  0  0  0  0  0  0  0  0  0  0
    2.9150   -3.0320    4.0360 H   0  0  0  0  0  0  0  0  0  0  0  0
    4.1810   -2.5810    1.7250 H   0  0  0  0  0  0  0  0  0  0  0  0
    4.4070   -0.8060    1.2740 H   0  0  0  0  0  0  0  0  0  0  0  0
    1.8910   -2.4770    1.3600 H   0  0  0  0  0  0  0  0  0  0  0  0
    2.2670   -2.8450   -0.7360 H   0  0  0  0  0  0  0  0  0  0  0  0
    3.8190   -2.0740   -0.5630 H   0  0  0  0  0  0  0  0  0  0  0  0
    1.3730    0.4620   -0.1230 N   0  0  0  0  0  0  0  0  0  0  0  0
    1.8560    0.1610   -1.4360 C   0  0  0  0  0  0  0  0  0  0  0  0
    1.5310    1.2990   -2.3410 C   0  0  0  0  0  0  0  0  0  0  0  0
    0.6450    2.1710   -1.5430 C   0  0  0  0  0  0  0  0  0  0  0  0
    0.6100    1.6460   -0.1450 C   0  0  1  0  0  0  0  0  0  0  0  0
   -0.8080    1.5040    0.2300 C   0  0  0  0  0  0  0  0  0  0  0  0
   -1.4860    2.5890    0.2290 O   0  0  0  0  0  0  0  0  0  0  0  0
    2.9810    0.0760   -1.3900 H   0  0  0  0  0  0  0  0  0  0  0  0
    1.4400   -0.7730   -1.8700 H   0  0  0  0  0  0  0  0  0  0  0  0
    1.0410    0.9330   -3.2870 H   0  0  0  0  0  0  0  0  0  0  0  0
    2.4570    1.8770   -2.6240 H   0  0  0  0  0  0  0  0  0  0  0  0
   -0.3710    2.1310   -2.0130 H   0  0  0  0  0  0  0  0  0  0  0  0
    0.9870    3.2360   -1.5910 H   0  0  0  0  0  0  0  0  0  0  0  0
    1.1220    2.4100    0.4950 H   0  0  0  0  0  0  0  0  0  0  0  0
   -2.3470   -3.0570    2.1740 C   0  0  0  0  0  0  0  0  0  0  0  0
   -3.5910   -3.0610    0.9160 S   0  0  0  0  0  0  0  0  0  0  0  0
   -3.5010   -1.8390   -0.3490 C   0  0  0  0  0  0  0  0  0  0  0  0
   -3.7520   -0.4290   -0.0250 C   0  0  0  0  0  0  0  0  0  0  0  0
   -2.9020    0.2850    0.9430 C   0  0  2  0  0  0  0  0  0  0  0  0
   -1.4930    0.3400    0.5830 N   0  0  0  0  0  0  0  0  0  0  0  0
   -3.1440    0.0260    2.3720 C   0  0  0  0  0  0  0  0  0  0  0  0
   -2.2540   -0.0600    3.2320 O   0  0  0  0  0  0  0  0  0  0  0  0
   -4.4640   -0.1300    2.7710 O   0  0  0  0  0  0  0  0  0  0  0  0
   -2.8330   -2.7410    3.1450 H   0  0  0  0  0  0  0  0  0  0  0  0
   -1.4960   -2.3990    2.0180 H   0  0  0  0  0  0  0  0  0  0  0  0
   -1.9230   -4.0630    2.4050 H   0  0  0  0  0  0  0  0  0  0  0  0
   -2.5370   -1.9710   -0.9440 H   0  0  0  0  0  0  0  0  0  0  0  0
   -4.2760   -2.1190   -1.1370 H   0  0  0  0  0  0  0  0  0  0  0  0
   -4.8360   -0.2310    0.2530 H   0  0  0  0  0  0  0  0  0  0  0  0
   -3.6590    0.1420   -1.0080 H   0  0  0  0  0  0  0  0  0  0  0  0
   -3.2480    1.3960    0.8460 H   0  0  0  0  0  0  0  0  0  0  0  0
   -0.9740   -0.5480    0.5930 H   0  0  0  0  0  0  0  0  0  0  0  0
  1  9  1  0  0  0  0
  2  3  2  0  0  0  0
  2  1  1  0  0  0  0
  4  2  1  0  0  0  0
  5  7  1  0  0  0  0
  5 13  1  1  0  0  0
  5  4  1  0  0  0  0
  6  5  1  0  0  0  0
  7  8  2  0  0  0  0
 10  1  1  0  0  0  0
 11  4  1  0  0  0  0
 12  4  1  0  0  0  0
 14  6  1  0  0  0  0
 15  6  1  0  0  0  0
 16  7  1  0  0  0  0
 17 23  1  0  0  0  0
 17 16  1  0  0  0  0
 18 19  1  0  0  0  0
 18 17  1  0  0  0  0
 19 20  1  0  0  0  0
 20 16  1  0  0  0  0
 20 21  1  0  0  0  0
 20 29  1  1  0  0  0
 21 35  1  0  0  0  0
 22 21  2  0  0  0  0
 24 17  1  0  0  0  0
 25 18  1  0  0  0  0
 26 18  1  0  0  0  0
 27 19  1  0  0  0  0
 28 19  1  0  0  0  0
 30 41  1  0  0  0  0
 30 39  1  0  0  0  0
 31 30  1  0  0  0  0
 32 33  1  0  0  0  0
 32 31  1  0  0  0  0
 33 44  1  0  0  0  0
 33 34  1  0  0  0  0
 34 46  1  6  0  0  0
 34 36  1  0  0  0  0
 35 47  1  0  0  0  0
 35 34  1  0  0  0  0
 36 38  2  0  0  0  0
 36 37  1  0  0  0  0
 40 30  1  0  0  0  0
 42 32  1  0  0  0  0
 43 32  1  0  0  0  0
 45 33  1  0  0  0  0
M  END
$$$$
