NPN.pdb
 OpenBabel07022418113D

 44 44  0  0  1  0  0  0  0  0999 V2000
    1.9600   -1.9920    5.6650 N   0  0  0  0  0  0  0  0  0  0  0  0
    1.1650   -1.1070    4.8480 C   0  0  0  0  0  0  0  0  0  0  0  0
   -0.0580   -1.0470    5.1300 O   0  0  0  0  0  0  0  0  0  0  0  0
    1.7970   -0.3280    3.7440 C   0  0  0  0  0  0  0  0  0  0  0  0
    1.4440   -1.0700    2.4590 C   0  0  2  0  0  0  0  0  0  0  0  0
    2.0170   -2.3980    2.6350 N   0  0  0  0  0  0  0  0  0  0  0  0
    2.0470   -0.4770    1.2600 C   0  0  0  0  0  0  0  0  0  0  0  0
    3.0650   -1.0460    0.7390 O   0  0  0  0  0  0  0  0  0  0  0  0
    1.5380   -2.7100    6.2820 H   0  0  0  0  0  0  0  0  0  0  0  0
    3.0010   -1.9050    5.6330 H   0  0  0  0  0  0  0  0  0  0  0  0
    2.8940   -0.3940    3.8930 H   0  0  0  0  0  0  0  0  0  0  0  0
    1.4030    0.6820    3.8090 H   0  0  0  0  0  0  0  0  0  0  0  0
    0.3650   -1.0640    2.3730 H   0  0  0  0  0  0  0  0  0  0  0  0
    1.3470   -3.0560    3.0890 H   0  0  0  0  0  0  0  0  0  0  0  0
    2.3820   -2.7350    1.7310 H   0  0  0  0  0  0  0  0  0  0  0  0
    1.5620    0.7000    0.6360 N   0  0  0  0  0  0  0  0  0  0  0  0
    2.2340    1.2650   -0.5560 C   0  0  0  0  0  0  0  0  0  0  0  0
    2.0930    2.7640   -0.3050 C   0  0  0  0  0  0  0  0  0  0  0  0
    0.6630    2.8120    0.1430 C   0  0  0  0  0  0  0  0  0  0  0  0
    0.4600    1.5440    0.9140 C   0  0  1  0  0  0  0  0  0  0  0  0
   -0.8560    0.9280    0.6220 C   0  0  0  0  0  0  0  0  0  0  0  0
   -1.8880    1.5570    0.9010 O   0  0  0  0  0  0  0  0  0  0  0  0
    1.5820    1.0280   -1.4160 H   0  0  0  0  0  0  0  0  0  0  0  0
    3.2690    0.9470   -0.6330 H   0  0  0  0  0  0  0  0  0  0  0  0
    2.7210    3.0500    0.5800 H   0  0  0  0  0  0  0  0  0  0  0  0
    2.3070    3.3650   -1.1970 H   0  0  0  0  0  0  0  0  0  0  0  0
    0.0460    2.8050   -0.7990 H   0  0  0  0  0  0  0  0  0  0  0  0
    0.4370    3.7210    0.7460 H   0  0  0  0  0  0  0  0  0  0  0  0
    0.4790    1.8590    2.0020 H   0  0  0  0  0  0  0  0  0  0  0  0
   -1.2820   -2.1520   -3.8140 N   0  0  0  0  0  0  0  0  0  0  0  0
   -1.2490   -1.9710   -2.3910 C   0  0  0  0  0  0  0  0  0  0  0  0
   -0.2970   -2.5180   -1.7910 O   0  0  0  0  0  0  0  0  0  0  0  0
   -2.3240   -1.1690   -1.7710 C   0  0  0  0  0  0  0  0  0  0  0  0
   -2.1740   -1.0160   -0.2790 C   0  0  2  0  0  0  0  0  0  0  0  0
   -0.9290   -0.3510    0.0360 N   0  0  0  0  0  0  0  0  0  0  0  0
   -2.3110   -2.3350    0.3340 C   0  0  0  0  0  0  0  0  0  0  0  0
   -1.4830   -2.9020    1.0600 O   0  0  0  0  0  0  0  0  0  0  0  0
   -3.5080   -3.0270    0.0670 O   0  0  0  0  0  0  0  0  0  0  0  0
   -0.4650   -1.9260   -4.4110 H   0  0  0  0  0  0  0  0  0  0  0  0
   -2.1290   -2.5170   -4.3050 H   0  0  0  0  0  0  0  0  0  0  0  0
   -3.2740   -1.7580   -1.9200 H   0  0  0  0  0  0  0  0  0  0  0  0
   -2.4630   -0.1880   -2.2770 H   0  0  0  0  0  0  0  0  0  0  0  0
   -3.0570   -0.3890    0.0380 H   0  0  0  0  0  0  0  0  0  0  0  0
   -0.0460   -0.8790   -0.1970 H   0  0  0  0  0  0  0  0  0  0  0  0
  1  9  1  0  0  0  0
  2  3  2  0  0  0  0
  2  1  1  0  0  0  0
  4 12  1  0  0  0  0
  4 11  1  0  0  0  0
  4  2  1  0  0  0  0
  5 13  1  6  0  0  0
  5  6  1  0  0  0  0
  5  4  1  0  0  0  0
  6 14  1  0  0  0  0
  7  5  1  0  0  0  0
  8  7  2  0  0  0  0
 10  1  1  0  0  0  0
 15  6  1  0  0  0  0
 16 20  1  0  0  0  0
 16  7  1  0  0  0  0
 17 18  1  0  0  0  0
 17 16  1  0  0  0  0
 18 19  1  0  0  0  0
 18 25  1  0  0  0  0
 19 28  1  0  0  0  0
 19 20  1  0  0  0  0
 20 29  1  1  0  0  0
 21 22  2  0  0  0  0
 21 20  1  0  0  0  0
 23 17  1  0  0  0  0
 24 17  1  0  0  0  0
 26 18  1  0  0  0  0
 27 19  1  0  0  0  0
 30 31  1  0  0  0  0
 31 32  2  0  0  0  0
 31 33  1  0  0  0  0
 33 34  1  0  0  0  0
 34 35  1  0  0  0  0
 34 43  1  1  0  0  0
 34 36  1  0  0  0  0
 35 21  1  0  0  0  0
 36 37  1  0  0  0  0
 38 36  2  0  0  0  0
 39 30  1  0  0  0  0
 40 30  1  0  0  0  0
 41 33  1  0  0  0  0
 42 33  1  0  0  0  0
 44 35  1  0  0  0  0
M  END
$$$$
