NPR.pdb
 OpenBabel07022418113D

 53 53  0  0  1  0  0  0  0  0999 V2000
    4.3080   -1.2790    3.1670 N   0  0  0  0  0  0  0  0  0  0  0  0
    3.3860   -2.2250    2.5850 C   0  0  0  0  0  0  0  0  0  0  0  0
    2.3030   -2.4470    3.1830 O   0  0  0  0  0  0  0  0  0  0  0  0
    3.7260   -2.9030    1.3220 C   0  0  0  0  0  0  0  0  0  0  0  0
    3.0440   -2.3050    0.0950 C   0  0  2  0  0  0  0  0  0  0  0  0
    3.5480   -3.1640   -1.0120 N   0  0  0  0  0  0  0  0  0  0  0  0
    3.5200   -0.9460   -0.2100 C   0  0  0  0  0  0  0  0  0  0  0  0
    4.5880   -0.8780   -0.9240 O   0  0  0  0  0  0  0  0  0  0  0  0
    5.2080   -1.0810    2.6840 H   0  0  0  0  0  0  0  0  0  0  0  0
    4.0770   -0.8000    4.0610 H   0  0  0  0  0  0  0  0  0  0  0  0
    3.5010   -3.9790    1.4170 H   0  0  0  0  0  0  0  0  0  0  0  0
    4.8390   -2.8470    1.1970 H   0  0  0  0  0  0  0  0  0  0  0  0
    1.9700   -2.4310    0.1130 H   0  0  0  0  0  0  0  0  0  0  0  0
    2.9100   -4.0110   -1.0960 H   0  0  0  0  0  0  0  0  0  0  0  0
    3.4320   -2.5800   -1.8730 H   0  0  0  0  0  0  0  0  0  0  0  0
    2.9120    0.2600    0.2050 N   0  0  0  0  0  0  0  0  0  0  0  0
    3.4120    1.6030   -0.0840 C   0  0  0  0  0  0  0  0  0  0  0  0
    3.1010    2.4180    1.1490 C   0  0  0  0  0  0  0  0  0  0  0  0
    1.7540    1.8300    1.5590 C   0  0  0  0  0  0  0  0  0  0  0  0
    1.7060    0.4480    0.9400 C   0  0  1  0  0  0  0  0  0  0  0  0
    0.5710    0.3430   -0.0400 C   0  0  0  0  0  0  0  0  0  0  0  0
    0.7570    0.0200   -1.2450 O   0  0  0  0  0  0  0  0  0  0  0  0
    2.8890    2.0520   -0.9490 H   0  0  0  0  0  0  0  0  0  0  0  0
    4.4930    1.6210   -0.2510 H   0  0  0  0  0  0  0  0  0  0  0  0
    3.8500    2.3100    1.9460 H   0  0  0  0  0  0  0  0  0  0  0  0
    2.9710    3.4950    0.9130 H   0  0  0  0  0  0  0  0  0  0  0  0
    0.9270    2.4840    1.2760 H   0  0  0  0  0  0  0  0  0  0  0  0
    1.7820    1.8020    2.6680 H   0  0  0  0  0  0  0  0  0  0  0  0
    1.5280   -0.2470    1.7710 H   0  0  0  0  0  0  0  0  0  0  0  0
   -4.8710   -4.9700    0.6850 N   0  0  0  0  0  0  0  0  0  0  0  0
   -4.7440   -3.6690    0.1440 C   0  0  0  0  0  0  0  0  0  0  0  0
   -4.5460   -3.5330   -1.1070 N   0  0  0  0  0  0  0  0  0  0  0  0
   -4.8320   -2.4990    0.9120 N   0  0  0  0  0  0  0  0  0  0  0  0
   -5.1740   -1.2130    0.4770 C   0  0  0  0  0  0  0  0  0  0  0  0
   -4.2630   -0.4460   -0.4110 C   0  0  0  0  0  0  0  0  0  0  0  0
   -2.9500   -0.2310    0.2790 C   0  0  0  0  0  0  0  0  0  0  0  0
   -1.9230    0.5360   -0.4890 C   0  0  2  0  0  0  0  0  0  0  0  0
   -0.7390    0.6120    0.3910 N   0  0  0  0  0  0  0  0  0  0  0  0
   -2.3810    1.9310   -0.8020 C   0  0  0  0  0  0  0  0  0  0  0  0
   -3.3660    2.0740   -1.5560 O   0  0  0  0  0  0  0  0  0  0  0  0
   -1.7680    3.0650   -0.3000 O   0  0  0  0  0  0  0  0  0  0  0  0
   -5.4370   -5.6940    0.2250 H   0  0  0  0  0  0  0  0  0  0  0  0
   -4.3790   -5.1990    1.5720 H   0  0  0  0  0  0  0  0  0  0  0  0
   -4.4630   -4.2760   -1.7990 H   0  0  0  0  0  0  0  0  0  0  0  0
   -4.6080   -2.6190    1.9480 H   0  0  0  0  0  0  0  0  0  0  0  0
   -6.1840   -1.2960   -0.0360 H   0  0  0  0  0  0  0  0  0  0  0  0
   -5.4020   -0.5620    1.3490 H   0  0  0  0  0  0  0  0  0  0  0  0
   -4.1840   -0.7890   -1.4390 H   0  0  0  0  0  0  0  0  0  0  0  0
   -4.7390    0.5770   -0.4870 H   0  0  0  0  0  0  0  0  0  0  0  0
   -3.0780    0.3390    1.2480 H   0  0  0  0  0  0  0  0  0  0  0  0
   -2.5550   -1.2280    0.6220 H   0  0  0  0  0  0  0  0  0  0  0  0
   -1.6150    0.1170   -1.4490 H   0  0  0  0  0  0  0  0  0  0  0  0
   -0.8690    0.8800    1.3950 H   0  0  0  0  0  0  0  0  0  0  0  0
  1 10  1  0  0  0  0
  2  1  1  0  0  0  0
  2  3  2  0  0  0  0
  4 11  1  0  0  0  0
  4  2  1  0  0  0  0
  5 13  1  1  0  0  0
  5  4  1  0  0  0  0
  6  5  1  0  0  0  0
  7  5  1  0  0  0  0
  7 16  1  0  0  0  0
  8  7  2  0  0  0  0
  9  1  1  0  0  0  0
 12  4  1  0  0  0  0
 14  6  1  0  0  0  0
 15  6  1  0  0  0  0
 16 20  1  0  0  0  0
 17 16  1  0  0  0  0
 17 18  1  0  0  0  0
 18 19  1  0  0  0  0
 18 25  1  0  0  0  0
 19 28  1  0  0  0  0
 20 19  1  0  0  0  0
 20 29  1  1  0  0  0
 21 38  1  0  0  0  0
 21 20  1  0  0  0  0
 22 21  2  0  0  0  0
 23 17  1  0  0  0  0
 24 17  1  0  0  0  0
 26 18  1  0  0  0  0
 27 19  1  0  0  0  0
 30 43  1  0  0  0  0
 31 30  1  0  0  0  0
 31 33  1  0  0  0  0
 32 31  2  0  0  0  0
 33 45  1  0  0  0  0
 34 33  1  0  0  0  0
 34 47  1  0  0  0  0
 35 36  1  0  0  0  0
 35 34  1  0  0  0  0
 36 51  1  0  0  0  0
 36 50  1  0  0  0  0
 37 52  1  6  0  0  0
 37 36  1  0  0  0  0
 37 38  1  0  0  0  0
 38 53  1  0  0  0  0
 39 37  1  0  0  0  0
 39 41  1  0  0  0  0
 40 39  2  0  0  0  0
 42 30  1  0  0  0  0
 44 32  1  0  0  0  0
 46 34  1  0  0  0  0
 48 35  1  0  0  0  0
 49 35  1  0  0  0  0
M  END
$$$$
