NPV.pdb
 OpenBabel07022418113D

 46 46  0  0  1  0  0  0  0  0999 V2000
    1.2810   -4.5730    2.9260 N   0  0  0  0  0  0  0  0  0  0  0  0
    2.2050   -3.5450    2.6310 C   0  0  0  0  0  0  0  0  0  0  0  0
    3.4310   -3.8160    2.7650 O   0  0  0  0  0  0  0  0  0  0  0  0
    1.7620   -2.2190    2.1890 C   0  0  0  0  0  0  0  0  0  0  0  0
    2.9130   -1.2760    1.9290 C   0  0  2  0  0  0  0  0  0  0  0  0
    3.7070   -1.0760    3.1260 N   0  0  0  0  0  0  0  0  0  0  0  0
    2.4390    0.0610    1.4820 C   0  0  0  0  0  0  0  0  0  0  0  0
    2.6440    1.0850    2.2280 O   0  0  0  0  0  0  0  0  0  0  0  0
    1.4170   -5.1310    3.7880 H   0  0  0  0  0  0  0  0  0  0  0  0
    0.4760   -4.7870    2.3140 H   0  0  0  0  0  0  0  0  0  0  0  0
    1.0810   -1.8030    2.9780 H   0  0  0  0  0  0  0  0  0  0  0  0
    1.1410   -2.3010    1.2820 H   0  0  0  0  0  0  0  0  0  0  0  0
    3.5610   -1.7030    1.1530 H   0  0  0  0  0  0  0  0  0  0  0  0
    3.1250   -1.0780    3.9910 H   0  0  0  0  0  0  0  0  0  0  0  0
    4.3760   -0.3060    3.0460 H   0  0  0  0  0  0  0  0  0  0  0  0
    1.7650    0.2740    0.2590 N   0  0  0  0  0  0  0  0  0  0  0  0
    1.4610   -0.7330   -0.7120 C   0  0  0  0  0  0  0  0  0  0  0  0
    1.6960    0.0180   -2.0090 C   0  0  0  0  0  0  0  0  0  0  0  0
    1.4710    1.4670   -1.7070 C   0  0  0  0  0  0  0  0  0  0  0  0
    1.2690    1.5230   -0.2210 C   0  0  1  0  0  0  0  0  0  0  0  0
   -0.2060    1.6920    0.0190 C   0  0  0  0  0  0  0  0  0  0  0  0
   -0.8220    2.6880   -0.4510 O   0  0  0  0  0  0  0  0  0  0  0  0
    0.4440   -1.1360   -0.6800 H   0  0  0  0  0  0  0  0  0  0  0  0
    2.1940   -1.5710   -0.7150 H   0  0  0  0  0  0  0  0  0  0  0  0
    2.7060   -0.1900   -2.4140 H   0  0  0  0  0  0  0  0  0  0  0  0
    0.9800   -0.3610   -2.7760 H   0  0  0  0  0  0  0  0  0  0  0  0
    2.3880    2.0110   -2.0320 H   0  0  0  0  0  0  0  0  0  0  0  0
    0.5890    1.8610   -2.2640 H   0  0  0  0  0  0  0  0  0  0  0  0
    1.8180    2.3950    0.2330 H   0  0  0  0  0  0  0  0  0  0  0  0
   -2.7750   -1.4450    1.0870 C   0  0  0  0  0  0  0  0  0  0  0  0
   -3.2040   -0.1740    0.3660 C   0  0  0  0  0  0  0  0  0  0  0  0
   -2.8400   -0.3390   -1.0860 C   0  0  0  0  0  0  0  0  0  0  0  0
   -2.4190    1.0030    0.9600 C   0  0  2  0  0  0  0  0  0  0  0  0
   -0.9830    0.7730    0.7690 N   0  0  0  0  0  0  0  0  0  0  0  0
   -2.7420    1.1330    2.4010 C   0  0  0  0  0  0  0  0  0  0  0  0
   -1.8060    1.0360    3.2290 O   0  0  0  0  0  0  0  0  0  0  0  0
   -4.0180    1.3560    2.8730 O   0  0  0  0  0  0  0  0  0  0  0  0
   -1.8130   -1.7600    0.5980 H   0  0  0  0  0  0  0  0  0  0  0  0
   -3.4960   -2.2570    0.8590 H   0  0  0  0  0  0  0  0  0  0  0  0
   -2.6550   -1.2770    2.1710 H   0  0  0  0  0  0  0  0  0  0  0  0
   -4.2770    0.0270    0.4790 H   0  0  0  0  0  0  0  0  0  0  0  0
   -3.6370   -0.9020   -1.6260 H   0  0  0  0  0  0  0  0  0  0  0  0
   -1.8920   -0.8700   -1.1600 H   0  0  0  0  0  0  0  0  0  0  0  0
   -2.7120    0.6570   -1.5950 H   0  0  0  0  0  0  0  0  0  0  0  0
   -2.7050    1.9250    0.4540 H   0  0  0  0  0  0  0  0  0  0  0  0
   -0.5290   -0.0640    1.1890 H   0  0  0  0  0  0  0  0  0  0  0  0
  1  9  1  0  0  0  0
  2  3  2  0  0  0  0
  2  1  1  0  0  0  0
  4  2  1  0  0  0  0
  4 11  1  0  0  0  0
  5 13  1  6  0  0  0
  5  4  1  0  0  0  0
  5  6  1  0  0  0  0
  6 14  1  0  0  0  0
  7  5  1  0  0  0  0
  7  8  2  0  0  0  0
 10  1  1  0  0  0  0
 12  4  1  0  0  0  0
 15  6  1  0  0  0  0
 16  7  1  0  0  0  0
 17 23  1  0  0  0  0
 17 16  1  0  0  0  0
 18 19  1  0  0  0  0
 18 17  1  0  0  0  0
 19 20  1  0  0  0  0
 20 21  1  0  0  0  0
 20 29  1  1  0  0  0
 20 16  1  0  0  0  0
 21 34  1  0  0  0  0
 22 21  2  0  0  0  0
 24 17  1  0  0  0  0
 25 18  1  0  0  0  0
 26 18  1  0  0  0  0
 27 19  1  0  0  0  0
 28 19  1  0  0  0  0
 30 40  1  0  0  0  0
 31 41  1  0  0  0  0
 31 33  1  0  0  0  0
 31 30  1  0  0  0  0
 32 31  1  0  0  0  0
 33 45  1  6  0  0  0
 33 35  1  0  0  0  0
 34 33  1  0  0  0  0
 34 46  1  0  0  0  0
 35 37  2  0  0  0  0
 35 36  1  0  0  0  0
 38 30  1  0  0  0  0
 39 30  1  0  0  0  0
 42 32  1  0  0  0  0
 43 32  1  0  0  0  0
 44 32  1  0  0  0  0
M  END
$$$$
