NPW.pdb
 OpenBabel07022418113D

 54 56  0  0  1  0  0  0  0  0999 V2000
    2.0490   -2.2580    3.1110 N   0  0  0  0  0  0  0  0  0  0  0  0
    3.0340   -2.0790    2.1130 C   0  0  0  0  0  0  0  0  0  0  0  0
    3.2650   -3.0300    1.3240 O   0  0  0  0  0  0  0  0  0  0  0  0
    3.7560   -0.7970    2.0290 C   0  0  0  0  0  0  0  0  0  0  0  0
    3.1560    0.3300    2.7820 C   0  0  2  0  0  0  0  0  0  0  0  0
    3.0680   -0.0220    4.1980 N   0  0  0  0  0  0  0  0  0  0  0  0
    1.9010    0.8980    2.3120 C   0  0  0  0  0  0  0  0  0  0  0  0
    0.9020    0.8640    3.1130 O   0  0  0  0  0  0  0  0  0  0  0  0
    2.2870   -2.8540    3.9310 H   0  0  0  0  0  0  0  0  0  0  0  0
    1.1200   -1.8320    3.0690 H   0  0  0  0  0  0  0  0  0  0  0  0
    4.7660   -0.9900    2.5400 H   0  0  0  0  0  0  0  0  0  0  0  0
    4.0440   -0.5370    1.0070 H   0  0  0  0  0  0  0  0  0  0  0  0
    3.9260    1.1640    2.7720 H   0  0  0  0  0  0  0  0  0  0  0  0
    3.6540   -0.8520    4.3470 H   0  0  0  0  0  0  0  0  0  0  0  0
    2.0870   -0.1450    4.4830 H   0  0  0  0  0  0  0  0  0  0  0  0
    1.6570    1.5030    1.0430 N   0  0  0  0  0  0  0  0  0  0  0  0
    2.6410    1.5830    0.0120 C   0  0  0  0  0  0  0  0  0  0  0  0
    2.0540    2.6090   -0.9910 C   0  0  0  0  0  0  0  0  0  0  0  0
    0.5720    2.2130   -0.8740 C   0  0  0  0  0  0  0  0  0  0  0  0
    0.4780    2.1710    0.6610 C   0  0  1  0  0  0  0  0  0  0  0  0
   -0.8110    1.5890    1.0580 C   0  0  0  0  0  0  0  0  0  0  0  0
   -1.7240    2.3640    1.4490 O   0  0  0  0  0  0  0  0  0  0  0  0
    3.5830    2.0000    0.4240 H   0  0  0  0  0  0  0  0  0  0  0  0
    2.8070    0.6430   -0.5580 H   0  0  0  0  0  0  0  0  0  0  0  0
    2.4100    2.4310   -2.0020 H   0  0  0  0  0  0  0  0  0  0  0  0
    2.1790    3.6110   -0.5820 H   0  0  0  0  0  0  0  0  0  0  0  0
   -0.0990    2.9300   -1.3280 H   0  0  0  0  0  0  0  0  0  0  0  0
    0.4850    1.1670   -1.2000 H   0  0  0  0  0  0  0  0  0  0  0  0
    0.5650    3.2400    1.0170 H   0  0  0  0  0  0  0  0  0  0  0  0
   -1.0020    0.1950    0.9890 N   0  0  0  0  0  0  0  0  0  0  0  0
   -2.3290   -0.2990    1.4060 C   0  0  1  0  0  0  0  0  0  0  0  0
   -3.2680   -0.1820    0.1920 C   0  0  0  0  0  0  0  0  0  0  0  0
   -2.7530   -0.9630   -0.9700 C   0  0  0  0  0  0  0  0  0  0  0  0
   -1.9540   -0.4070   -1.9840 C   0  0  0  0  0  0  0  0  0  0  0  0
   -1.6400   -1.3870   -2.8210 N   0  0  0  0  0  0  0  0  0  0  0  0
   -2.1820   -2.5500   -2.4230 C   0  0  0  0  0  0  0  0  0  0  0  0
   -2.1310   -3.8240   -2.9930 C   0  0  0  0  0  0  0  0  0  0  0  0
   -2.8090   -4.8400   -2.3610 C   0  0  0  0  0  0  0  0  0  0  0  0
   -3.5060   -4.5730   -1.2080 C   0  0  0  0  0  0  0  0  0  0  0  0
   -3.5660   -3.3230   -0.6340 C   0  0  0  0  0  0  0  0  0  0  0  0
   -2.8740   -2.2870   -1.2740 C   0  0  0  0  0  0  0  0  0  0  0  0
   -2.3110   -1.6410    1.9280 C   0  0  0  0  0  0  0  0  0  0  0  0
   -3.3000   -2.1600    2.5250 O   0  0  0  0  0  0  0  0  0  0  0  0
   -1.1510   -2.4150    1.7700 O   0  0  0  0  0  0  0  0  0  0  0  0
   -0.3190   -0.5150    0.6810 H   0  0  0  0  0  0  0  0  0  0  0  0
   -2.7700    0.4580    2.1220 H   0  0  0  0  0  0  0  0  0  0  0  0
   -4.2330   -0.6160    0.5030 H   0  0  0  0  0  0  0  0  0  0  0  0
   -3.3810    0.8720   -0.0960 H   0  0  0  0  0  0  0  0  0  0  0  0
   -1.6970    0.6290   -2.0000 H   0  0  0  0  0  0  0  0  0  0  0  0
   -1.0550   -1.3170   -3.6870 H   0  0  0  0  0  0  0  0  0  0  0  0
   -1.5850   -4.0220   -3.8940 H   0  0  0  0  0  0  0  0  0  0  0  0
   -2.8270   -5.8760   -2.7310 H   0  0  0  0  0  0  0  0  0  0  0  0
   -4.0470   -5.3880   -0.7060 H   0  0  0  0  0  0  0  0  0  0  0  0
   -4.1220   -3.1190    0.2450 H   0  0  0  0  0  0  0  0  0  0  0  0
  1  9  1  0  0  0  0
  2  1  1  0  0  0  0
  3  2  2  0  0  0  0
  4  2  1  0  0  0  0
  4 11  1  0  0  0  0
  4  5  1  0  0  0  0
  5 13  1  6  0  0  0
  5  6  1  0  0  0  0
  6 14  1  0  0  0  0
  6 15  1  0  0  0  0
  7  5  1  0  0  0  0
  7  8  2  0  0  0  0
 10  1  1  0  0  0  0
 12  4  1  0  0  0  0
 16  7  1  0  0  0  0
 17 23  1  0  0  0  0
 17 16  1  0  0  0  0
 18 19  1  0  0  0  0
 18 26  1  0  0  0  0
 18 17  1  0  0  0  0
 19 20  1  0  0  0  0
 20 29  1  1  0  0  0
 20 16  1  0  0  0  0
 20 21  1  0  0  0  0
 21 22  2  0  0  0  0
 24 17  1  0  0  0  0
 25 18  1  0  0  0  0
 27 19  1  0  0  0  0
 28 19  1  0  0  0  0
 30 21  1  0  0  0  0
 30 31  1  0  0  0  0
 31 42  1  0  0  0  0
 31 46  1  1  0  0  0
 32 47  1  0  0  0  0
 32 31  1  0  0  0  0
 33 32  1  0  0  0  0
 34 33  2  0  0  0  0
 35 36  1  0  0  0  0
 35 34  1  0  0  0  0
 36 41  1  0  0  0  0
 37 36  2  0  0  0  0
 37 38  1  0  0  0  0
 38 39  2  0  0  0  0
 39 53  1  0  0  0  0
 39 40  1  0  0  0  0
 40 54  1  0  0  0  0
 41 33  1  0  0  0  0
 41 40  2  0  0  0  0
 42 43  1  0  0  0  0
 44 42  2  0  0  0  0
 45 30  1  0  0  0  0
 48 32  1  0  0  0  0
 49 34  1  0  0  0  0
 50 35  1  0  0  0  0
 51 37  1  0  0  0  0
 52 38  1  0  0  0  0
M  END
$$$$
