NPY.pdb
 OpenBabel07022418113D

 51 52  0  0  1  0  0  0  0  0999 V2000
    2.4940    2.3940    3.9430 N   0  0  0  0  0  0  0  0  0  0  0  0
    2.9430    1.0440    3.9070 C   0  0  0  0  0  0  0  0  0  0  0  0
    4.1640    0.7920    3.6700 O   0  0  0  0  0  0  0  0  0  0  0  0
    1.9410   -0.0220    4.1550 C   0  0  0  0  0  0  0  0  0  0  0  0
    1.4740   -0.6420    2.8560 C   0  0  2  0  0  0  0  0  0  0  0  0
    2.6320   -1.2020    2.2080 N   0  0  0  0  0  0  0  0  0  0  0  0
    0.7970    0.3010    1.9790 C   0  0  0  0  0  0  0  0  0  0  0  0
   -0.3200    0.7440    2.3480 O   0  0  0  0  0  0  0  0  0  0  0  0
    2.8150    3.1100    3.2790 H   0  0  0  0  0  0  0  0  0  0  0  0
    1.8010    2.6350    4.6950 H   0  0  0  0  0  0  0  0  0  0  0  0
    2.4720   -0.8360    4.7140 H   0  0  0  0  0  0  0  0  0  0  0  0
    1.1020    0.3790    4.7370 H   0  0  0  0  0  0  0  0  0  0  0  0
    0.7630   -1.4810    3.0670 H   0  0  0  0  0  0  0  0  0  0  0  0
    3.4320   -1.2870    2.8620 H   0  0  0  0  0  0  0  0  0  0  0  0
    2.4460   -2.1800    1.8640 H   0  0  0  0  0  0  0  0  0  0  0  0
    1.3050    0.7640    0.7250 N   0  0  0  0  0  0  0  0  0  0  0  0
    2.6010    0.3920    0.2330 C   0  0  0  0  0  0  0  0  0  0  0  0
    2.9110    1.3450   -0.9110 C   0  0  0  0  0  0  0  0  0  0  0  0
    1.5380    1.6270   -1.4450 C   0  0  0  0  0  0  0  0  0  0  0  0
    0.6810    1.6120   -0.2180 C   0  0  1  0  0  0  0  0  0  0  0  0
   -0.7210    1.2640   -0.5460 C   0  0  0  0  0  0  0  0  0  0  0  0
   -1.3830    2.1790   -1.1220 O   0  0  0  0  0  0  0  0  0  0  0  0
    2.6420   -0.6590   -0.0910 H   0  0  0  0  0  0  0  0  0  0  0  0
    3.3420    0.6140    1.0610 H   0  0  0  0  0  0  0  0  0  0  0  0
    3.2850    2.3070   -0.4640 H   0  0  0  0  0  0  0  0  0  0  0  0
    3.6030    0.9200   -1.6340 H   0  0  0  0  0  0  0  0  0  0  0  0
    1.4840    2.5880   -2.0010 H   0  0  0  0  0  0  0  0  0  0  0  0
    1.2110    0.7710   -2.1070 H   0  0  0  0  0  0  0  0  0  0  0  0
    0.6690    2.6700    0.1720 H   0  0  0  0  0  0  0  0  0  0  0  0
   -0.9600   -6.2840   -0.1990 O   0  0  0  0  0  0  0  0  0  0  0  0
   -1.4560   -5.0370   -0.5700 C   0  0  0  0  0  0  0  0  0  0  0  0
   -2.7640   -4.6630   -0.3260 C   0  0  0  0  0  0  0  0  0  0  0  0
   -3.2650   -3.4370   -0.6860 C   0  0  0  0  0  0  0  0  0  0  0  0
   -2.4510   -2.5290   -1.3170 C   0  0  0  0  0  0  0  0  0  0  0  0
   -2.9320   -1.2080   -1.7240 C   0  0  0  0  0  0  0  0  0  0  0  0
   -2.7600   -0.1430   -0.6680 C   0  0  2  0  0  0  0  0  0  0  0  0
   -1.3720    0.0520   -0.2910 N   0  0  0  0  0  0  0  0  0  0  0  0
   -3.6240   -0.3790    0.5220 C   0  0  0  0  0  0  0  0  0  0  0  0
   -4.8540   -0.5650    0.3640 O   0  0  0  0  0  0  0  0  0  0  0  0
   -1.1410   -2.8630   -1.5780 C   0  0  0  0  0  0  0  0  0  0  0  0
   -0.6580   -4.1090   -1.2040 C   0  0  0  0  0  0  0  0  0  0  0  0
   -3.1460   -0.4060    1.8220 O   0  0  0  0  0  0  0  0  0  0  0  0
   -1.3050   -6.7400    0.6360 H   0  0  0  0  0  0  0  0  0  0  0  0
   -3.4080   -5.3790    0.1720 H   0  0  0  0  0  0  0  0  0  0  0  0
   -4.3010   -3.1490   -0.4890 H   0  0  0  0  0  0  0  0  0  0  0  0
   -2.5030   -0.8320   -2.6520 H   0  0  0  0  0  0  0  0  0  0  0  0
   -4.0460   -1.2720   -1.9000 H   0  0  0  0  0  0  0  0  0  0  0  0
   -3.1150    0.8010   -1.1260 H   0  0  0  0  0  0  0  0  0  0  0  0
   -0.8220   -0.7130    0.1680 H   0  0  0  0  0  0  0  0  0  0  0  0
   -0.5030   -2.1450   -2.0750 H   0  0  0  0  0  0  0  0  0  0  0  0
    0.3860   -4.3570   -1.4190 H   0  0  0  0  0  0  0  0  0  0  0  0
  1 10  1  0  0  0  0
  2  1  1  0  0  0  0
  2  4  1  0  0  0  0
  3  2  2  0  0  0  0
  4 11  1  0  0  0  0
  4 12  1  0  0  0  0
  5 13  1  1  0  0  0
  5  4  1  0  0  0  0
  6  5  1  0  0  0  0
  6 14  1  0  0  0  0
  7  8  2  0  0  0  0
  7  5  1  0  0  0  0
  9  1  1  0  0  0  0
 15  6  1  0  0  0  0
 16  7  1  0  0  0  0
 17 16  1  0  0  0  0
 17 24  1  0  0  0  0
 18 25  1  0  0  0  0
 18 17  1  0  0  0  0
 19 18  1  0  0  0  0
 19 20  1  0  0  0  0
 20 29  1  1  0  0  0
 20 16  1  0  0  0  0
 21 37  1  0  0  0  0
 21 20  1  0  0  0  0
 22 21  2  0  0  0  0
 23 17  1  0  0  0  0
 26 18  1  0  0  0  0
 27 19  1  0  0  0  0
 28 19  1  0  0  0  0
 30 43  1  0  0  0  0
 31 32  1  0  0  0  0
 31 30  1  0  0  0  0
 32 44  1  0  0  0  0
 33 45  1  0  0  0  0
 33 32  2  0  0  0  0
 34 33  1  0  0  0  0
 35 34  1  0  0  0  0
 35 36  1  0  0  0  0
 36 48  1  6  0  0  0
 36 37  1  0  0  0  0
 36 38  1  0  0  0  0
 37 49  1  0  0  0  0
 38 42  1  0  0  0  0
 39 38  2  0  0  0  0
 40 34  2  0  0  0  0
 40 41  1  0  0  0  0
 41 31  2  0  0  0  0
 46 35  1  0  0  0  0
 47 35  1  0  0  0  0
 50 40  1  0  0  0  0
 51 41  1  0  0  0  0
M  END
$$$$
