NQA.pdb
 OpenBabel07022418093D

 43 42  0  0  1  0  0  0  0  0999 V2000
    0.6270   -3.9280    2.2140 N   0  0  0  0  0  0  0  0  0  0  0  0
    1.5120   -3.6390    3.2890 C   0  0  0  0  0  0  0  0  0  0  0  0
    1.3280   -4.2870    4.3470 O   0  0  0  0  0  0  0  0  0  0  0  0
    2.5650   -2.6180    3.0890 C   0  0  0  0  0  0  0  0  0  0  0  0
    2.1930   -1.2730    3.6580 C   0  0  2  0  0  0  0  0  0  0  0  0
    1.9660   -1.4030    5.0720 N   0  0  0  0  0  0  0  0  0  0  0  0
    1.0570   -0.6430    2.9490 C   0  0  0  0  0  0  0  0  0  0  0  0
    0.0020   -0.2820    3.5440 O   0  0  0  0  0  0  0  0  0  0  0  0
   -0.4020   -3.9180    2.3280 H   0  0  0  0  0  0  0  0  0  0  0  0
    1.0120   -4.1580    1.2740 H   0  0  0  0  0  0  0  0  0  0  0  0
    2.7950   -2.5610    1.9990 H   0  0  0  0  0  0  0  0  0  0  0  0
    3.4920   -2.9550    3.6050 H   0  0  0  0  0  0  0  0  0  0  0  0
    3.0670   -0.5790    3.5410 H   0  0  0  0  0  0  0  0  0  0  0  0
    1.3610   -2.1860    5.3500 H   0  0  0  0  0  0  0  0  0  0  0  0
    2.8890   -1.4980    5.5490 H   0  0  0  0  0  0  0  0  0  0  0  0
    2.0350    4.7940    1.1350 N   0  0  0  0  0  0  0  0  0  0  0  0
    1.5120    3.6680    0.4730 C   0  0  0  0  0  0  0  0  0  0  0  0
    1.4560    3.7050   -0.7960 O   0  0  0  0  0  0  0  0  0  0  0  0
    1.0310    2.4580    1.1910 C   0  0  0  0  0  0  0  0  0  0  0  0
    0.5450    1.4690    0.1700 C   0  0  0  0  0  0  0  0  0  0  0  0
    0.0290    0.1960    0.8040 C   0  0  2  0  0  0  0  0  0  0  0  0
    1.0970   -0.4110    1.5540 N   0  0  0  0  0  0  0  0  0  0  0  0
   -0.3760   -0.7580   -0.2560 C   0  0  0  0  0  0  0  0  0  0  0  0
    0.1990   -1.8910   -0.3550 O   0  0  0  0  0  0  0  0  0  0  0  0
    2.3010    5.6350    0.6060 H   0  0  0  0  0  0  0  0  0  0  0  0
    2.1500    4.7730    2.1620 H   0  0  0  0  0  0  0  0  0  0  0  0
    1.8940    1.9700    1.7200 H   0  0  0  0  0  0  0  0  0  0  0  0
    0.2470    2.7280    1.9310 H   0  0  0  0  0  0  0  0  0  0  0  0
   -0.2040    1.9380   -0.4970 H   0  0  0  0  0  0  0  0  0  0  0  0
    1.4250    1.1890   -0.4480 H   0  0  0  0  0  0  0  0  0  0  0  0
   -0.8110    0.4190    1.5010 H   0  0  0  0  0  0  0  0  0  0  0  0
    1.9540   -0.6970    1.0420 H   0  0  0  0  0  0  0  0  0  0  0  0
   -3.2780   -1.7450   -2.1460 C   0  0  0  0  0  0  0  0  0  0  0  0
   -1.8100   -1.4020   -2.2480 C   0  0  2  0  0  0  0  0  0  0  0  0
   -1.4010   -0.4820   -1.2050 N   0  0  0  0  0  0  0  0  0  0  0  0
   -1.4800   -0.7830   -3.5540 C   0  0  0  0  0  0  0  0  0  0  0  0
   -0.9360    0.3480   -3.6180 O   0  0  0  0  0  0  0  0  0  0  0  0
   -1.7620   -1.4330   -4.7430 O   0  0  0  0  0  0  0  0  0  0  0  0
   -3.5880   -2.1100   -3.1670 H   0  0  0  0  0  0  0  0  0  0  0  0
   -3.8890   -0.8970   -1.8010 H   0  0  0  0  0  0  0  0  0  0  0  0
   -3.4070   -2.6090   -1.4600 H   0  0  0  0  0  0  0  0  0  0  0  0
   -1.2420   -2.3520   -2.2060 H   0  0  0  0  0  0  0  0  0  0  0  0
   -1.8570    0.4640   -1.0970 H   0  0  0  0  0  0  0  0  0  0  0  0
  1  9  1  0  0  0  0
  1  2  1  0  0  0  0
  2  3  2  0  0  0  0
  4  2  1  0  0  0  0
  4 12  1  0  0  0  0
  4  5  1  0  0  0  0
  5 13  1  6  0  0  0
  5  6  1  0  0  0  0
  6 14  1  0  0  0  0
  6 15  1  0  0  0  0
  7  8  2  0  0  0  0
  7  5  1  0  0  0  0
 10  1  1  0  0  0  0
 11  4  1  0  0  0  0
 16 26  1  0  0  0  0
 17 16  1  0  0  0  0
 17 19  1  0  0  0  0
 18 17  2  0  0  0  0
 19 27  1  0  0  0  0
 19 28  1  0  0  0  0
 20 21  1  0  0  0  0
 20 19  1  0  0  0  0
 21 31  1  1  0  0  0
 21 22  1  0  0  0  0
 22  7  1  0  0  0  0
 23 21  1  0  0  0  0
 24 23  2  0  0  0  0
 25 16  1  0  0  0  0
 29 20  1  0  0  0  0
 30 20  1  0  0  0  0
 32 22  1  0  0  0  0
 33 40  1  0  0  0  0
 33 41  1  0  0  0  0
 34 42  1  1  0  0  0
 34 33  1  0  0  0  0
 34 35  1  0  0  0  0
 35 43  1  0  0  0  0
 35 23  1  0  0  0  0
 36 34  1  0  0  0  0
 37 36  1  0  0  0  0
 38 36  2  0  0  0  0
 39 33  1  0  0  0  0
M  END
$$$$
