NQD.pdb
 OpenBabel07022418093D

 46 45  0  0  1  0  0  0  0  0999 V2000
    4.7220   -2.3200    3.2350 N   0  0  0  0  0  0  0  0  0  0  0  0
    3.3520   -2.7210    3.3420 C   0  0  0  0  0  0  0  0  0  0  0  0
    2.7270   -2.2420    4.3190 O   0  0  0  0  0  0  0  0  0  0  0  0
    2.7540   -3.6300    2.3600 C   0  0  0  0  0  0  0  0  0  0  0  0
    1.2600   -3.5370    2.2960 C   0  0  2  0  0  0  0  0  0  0  0  0
    0.8090   -4.6290    1.3580 N   0  0  0  0  0  0  0  0  0  0  0  0
    0.7370   -2.3050    1.6510 C   0  0  0  0  0  0  0  0  0  0  0  0
   -0.1230   -2.4670    0.7050 O   0  0  0  0  0  0  0  0  0  0  0  0
    5.4220   -2.9880    2.8480 H   0  0  0  0  0  0  0  0  0  0  0  0
    5.0440   -1.3760    3.5340 H   0  0  0  0  0  0  0  0  0  0  0  0
    3.0630   -4.6980    2.5730 H   0  0  0  0  0  0  0  0  0  0  0  0
    3.2200   -3.3680    1.3670 H   0  0  0  0  0  0  0  0  0  0  0  0
    0.8250   -3.7860    3.2610 H   0  0  0  0  0  0  0  0  0  0  0  0
    0.7020   -4.2540    0.4160 H   0  0  0  0  0  0  0  0  0  0  0  0
    0.0360   -5.1550    1.7730 H   0  0  0  0  0  0  0  0  0  0  0  0
    4.4600    1.5830   -1.2660 N   0  0  0  0  0  0  0  0  0  0  0  0
    3.1320    1.1090   -1.2510 C   0  0  0  0  0  0  0  0  0  0  0  0
    2.5220    0.9600   -2.3310 O   0  0  0  0  0  0  0  0  0  0  0  0
    2.5090    0.8060    0.0590 C   0  0  0  0  0  0  0  0  0  0  0  0
    1.0480    0.4330   -0.1150 C   0  0  0  0  0  0  0  0  0  0  0  0
    0.4220    0.1420    1.1930 C   0  0  2  0  0  0  0  0  0  0  0  0
    1.0500   -0.9660    1.9270 N   0  0  0  0  0  0  0  0  0  0  0  0
   -1.0410    0.0630    1.1660 C   0  0  0  0  0  0  0  0  0  0  0  0
   -1.6470   -0.7920    1.8360 O   0  0  0  0  0  0  0  0  0  0  0  0
    4.6520    2.5580   -1.5290 H   0  0  0  0  0  0  0  0  0  0  0  0
    5.2370    0.9560   -1.0150 H   0  0  0  0  0  0  0  0  0  0  0  0
    3.0310   -0.1170    0.4430 H   0  0  0  0  0  0  0  0  0  0  0  0
    2.6900    1.5690    0.8220 H   0  0  0  0  0  0  0  0  0  0  0  0
    0.9890   -0.3790   -0.8520 H   0  0  0  0  0  0  0  0  0  0  0  0
    0.5680    1.3320   -0.5570 H   0  0  0  0  0  0  0  0  0  0  0  0
    0.6310    1.0520    1.8520 H   0  0  0  0  0  0  0  0  0  0  0  0
    1.7430   -0.7400    2.6510 H   0  0  0  0  0  0  0  0  0  0  0  0
   -1.8280    0.9460    0.3850 N   0  0  0  0  0  0  0  0  0  0  0  0
   -3.2940    0.8630    0.3690 C   0  0  1  0  0  0  0  0  0  0  0  0
   -3.8950    2.2250    0.5490 C   0  0  0  0  0  0  0  0  0  0  0  0
   -5.3640    2.1500    0.5600 C   0  0  0  0  0  0  0  0  0  0  0  0
   -6.0280    3.2230    0.4170 O   0  0  0  0  0  0  0  0  0  0  0  0
   -3.6460    0.2650   -0.9450 C   0  0  0  0  0  0  0  0  0  0  0  0
   -2.7160   -0.0850   -1.7230 O   0  0  0  0  0  0  0  0  0  0  0  0
   -6.0170    0.9540    0.7240 O   0  0  0  0  0  0  0  0  0  0  0  0
   -4.9300    0.0560   -1.3990 O   0  0  0  0  0  0  0  0  0  0  0  0
   -1.3490    1.6640   -0.1840 H   0  0  0  0  0  0  0  0  0  0  0  0
   -3.6310    0.1450    1.1300 H   0  0  0  0  0  0  0  0  0  0  0  0
   -3.4900    2.6820    1.4810 H   0  0  0  0  0  0  0  0  0  0  0  0
   -3.5460    2.8720   -0.3040 H   0  0  0  0  0  0  0  0  0  0  0  0
   -7.0220    0.8600    0.7940 H   0  0  0  0  0  0  0  0  0  0  0  0
  1  2  1  0  0  0  0
  1 10  1  0  0  0  0
  2  3  2  0  0  0  0
  4 11  1  0  0  0  0
  4  2  1  0  0  0  0
  5  4  1  0  0  0  0
  5 13  1  1  0  0  0
  6 15  1  0  0  0  0
  6  5  1  0  0  0  0
  7 22  1  0  0  0  0
  7  5  1  0  0  0  0
  8  7  2  0  0  0  0
  9  1  1  0  0  0  0
 12  4  1  0  0  0  0
 14  6  1  0  0  0  0
 16 17  1  0  0  0  0
 16 26  1  0  0  0  0
 17 19  1  0  0  0  0
 18 17  2  0  0  0  0
 19 27  1  0  0  0  0
 19 28  1  0  0  0  0
 20 19  1  0  0  0  0
 20 21  1  0  0  0  0
 21 31  1  1  0  0  0
 21 22  1  0  0  0  0
 22 32  1  0  0  0  0
 23 21  1  0  0  0  0
 23 24  2  0  0  0  0
 25 16  1  0  0  0  0
 29 20  1  0  0  0  0
 30 20  1  0  0  0  0
 33 23  1  0  0  0  0
 34 33  1  0  0  0  0
 34 35  1  0  0  0  0
 34 43  1  1  0  0  0
 35 36  1  0  0  0  0
 35 44  1  0  0  0  0
 36 40  1  0  0  0  0
 37 36  2  0  0  0  0
 38 34  1  0  0  0  0
 39 38  2  0  0  0  0
 40 46  1  0  0  0  0
 41 38  1  0  0  0  0
 42 33  1  0  0  0  0
 45 35  1  0  0  0  0
M  END
$$$$
