NQE.pdb
 OpenBabel07022418093D

 49 48  0  0  1  0  0  0  0  0999 V2000
    0.5060   -3.3240    1.9640 N   0  0  0  0  0  0  0  0  0  0  0  0
    1.7730   -3.6390    1.4100 C   0  0  0  0  0  0  0  0  0  0  0  0
    2.4270   -4.5730    1.9350 O   0  0  0  0  0  0  0  0  0  0  0  0
    2.3020   -2.8710    0.2350 C   0  0  0  0  0  0  0  0  0  0  0  0
    3.0970   -1.6660    0.7100 C   0  0  2  0  0  0  0  0  0  0  0  0
    4.2150   -2.0800    1.5410 N   0  0  0  0  0  0  0  0  0  0  0  0
    2.2610   -0.6860    1.4030 C   0  0  0  0  0  0  0  0  0  0  0  0
    2.4460   -0.4110    2.6100 O   0  0  0  0  0  0  0  0  0  0  0  0
   -0.0520   -3.9980    2.5240 H   0  0  0  0  0  0  0  0  0  0  0  0
    0.1190   -2.3490    1.7940 H   0  0  0  0  0  0  0  0  0  0  0  0
    2.9230   -3.5460   -0.3820 H   0  0  0  0  0  0  0  0  0  0  0  0
    1.4770   -2.5110   -0.4020 H   0  0  0  0  0  0  0  0  0  0  0  0
    3.5240   -1.1910   -0.1950 H   0  0  0  0  0  0  0  0  0  0  0  0
    4.8820   -2.6710    1.0320 H   0  0  0  0  0  0  0  0  0  0  0  0
    3.8900   -2.5090    2.4340 H   0  0  0  0  0  0  0  0  0  0  0  0
    3.7540    4.5480    1.2750 N   0  0  0  0  0  0  0  0  0  0  0  0
    2.4330    4.0930    1.0520 C   0  0  0  0  0  0  0  0  0  0  0  0
    1.5980    4.8930    0.5730 O   0  0  0  0  0  0  0  0  0  0  0  0
    2.0680    2.7190    1.3790 C   0  0  0  0  0  0  0  0  0  0  0  0
    0.6120    2.4070    1.0740 C   0  0  0  0  0  0  0  0  0  0  0  0
    0.3930    0.9740    1.4630 C   0  0  2  0  0  0  0  0  0  0  0  0
    1.1930    0.0280    0.7880 N   0  0  0  0  0  0  0  0  0  0  0  0
   -1.0300    0.6730    1.2320 C   0  0  0  0  0  0  0  0  0  0  0  0
   -1.9020    1.4340    1.7520 O   0  0  0  0  0  0  0  0  0  0  0  0
    3.9350    5.4970    1.6810 H   0  0  0  0  0  0  0  0  0  0  0  0
    4.5260    3.9010    1.0190 H   0  0  0  0  0  0  0  0  0  0  0  0
    2.7420    1.9640    0.8760 H   0  0  0  0  0  0  0  0  0  0  0  0
    2.2080    2.5140    2.4700 H   0  0  0  0  0  0  0  0  0  0  0  0
    0.0160    3.0310    1.7800 H   0  0  0  0  0  0  0  0  0  0  0  0
    0.3070    2.6750    0.0700 H   0  0  0  0  0  0  0  0  0  0  0  0
    0.6140    0.9000    2.5570 H   0  0  0  0  0  0  0  0  0  0  0  0
    1.0030   -0.1710   -0.2180 H   0  0  0  0  0  0  0  0  0  0  0  0
   -1.5440   -0.4070    0.4680 N   0  0  0  0  0  0  0  0  0  0  0  0
   -2.9610   -0.6290    0.2790 C   0  0  1  0  0  0  0  0  0  0  0  0
   -3.4200   -0.6290   -1.1310 C   0  0  0  0  0  0  0  0  0  0  0  0
   -2.8320   -1.6270   -2.0530 C   0  0  0  0  0  0  0  0  0  0  0  0
   -3.0750   -3.0120   -1.6390 C   0  0  0  0  0  0  0  0  0  0  0  0
   -2.2150   -3.6760   -1.0120 O   0  0  0  0  0  0  0  0  0  0  0  0
   -3.3760   -1.8440    1.0030 C   0  0  0  0  0  0  0  0  0  0  0  0
   -4.5930   -2.2010    0.8660 O   0  0  0  0  0  0  0  0  0  0  0  0
   -4.2880   -3.6570   -1.9280 O   0  0  0  0  0  0  0  0  0  0  0  0
   -2.5770   -2.6160    1.8040 O   0  0  0  0  0  0  0  0  0  0  0  0
   -0.8550   -1.0550    0.0320 H   0  0  0  0  0  0  0  0  0  0  0  0
   -3.5440    0.2080    0.7850 H   0  0  0  0  0  0  0  0  0  0  0  0
   -3.3470    0.4120   -1.5540 H   0  0  0  0  0  0  0  0  0  0  0  0
   -4.5380   -0.8170   -1.0980 H   0  0  0  0  0  0  0  0  0  0  0  0
   -3.3120   -1.4490   -3.0640 H   0  0  0  0  0  0  0  0  0  0  0  0
   -1.7410   -1.4510   -2.2380 H   0  0  0  0  0  0  0  0  0  0  0  0
   -4.3110   -4.6750   -1.8500 H   0  0  0  0  0  0  0  0  0  0  0  0
  1  9  1  0  0  0  0
  2  3  2  0  0  0  0
  2  1  1  0  0  0  0
  4  5  1  0  0  0  0
  4  2  1  0  0  0  0
  5 13  1  6  0  0  0
  5  7  1  0  0  0  0
  5  6  1  0  0  0  0
  6 15  1  0  0  0  0
  7  8  2  0  0  0  0
 10  1  1  0  0  0  0
 11  4  1  0  0  0  0
 12  4  1  0  0  0  0
 14  6  1  0  0  0  0
 16 25  1  0  0  0  0
 17 16  1  0  0  0  0
 17 19  1  0  0  0  0
 18 17  2  0  0  0  0
 19 28  1  0  0  0  0
 20 19  1  0  0  0  0
 20 21  1  0  0  0  0
 20 29  1  0  0  0  0
 21 31  1  1  0  0  0
 22  7  1  0  0  0  0
 22 21  1  0  0  0  0
 23 21  1  0  0  0  0
 23 24  2  0  0  0  0
 26 16  1  0  0  0  0
 27 19  1  0  0  0  0
 30 20  1  0  0  0  0
 32 22  1  0  0  0  0
 33 23  1  0  0  0  0
 34 33  1  0  0  0  0
 34 44  1  1  0  0  0
 34 39  1  0  0  0  0
 35 46  1  0  0  0  0
 35 34  1  0  0  0  0
 36 37  1  0  0  0  0
 36 35  1  0  0  0  0
 37 38  2  0  0  0  0
 39 42  1  0  0  0  0
 40 39  2  0  0  0  0
 41 49  1  0  0  0  0
 41 37  1  0  0  0  0
 43 33  1  0  0  0  0
 45 35  1  0  0  0  0
 47 36  1  0  0  0  0
 48 36  1  0  0  0  0
M  END
$$$$
