NQF.pdb
 OpenBabel07022418093D

 53 53  0  0  1  0  0  0  0  0999 V2000
    3.5480   -1.9940    0.7540 N   0  0  0  0  0  0  0  0  0  0  0  0
    4.5150   -0.9730    0.6770 C   0  0  0  0  0  0  0  0  0  0  0  0
    5.7150   -1.2640    0.8970 O   0  0  0  0  0  0  0  0  0  0  0  0
    4.1240    0.4240    0.3420 C   0  0  0  0  0  0  0  0  0  0  0  0
    3.9190    1.2250    1.6280 C   0  0  2  0  0  0  0  0  0  0  0  0
    5.1890    1.1940    2.3590 N   0  0  0  0  0  0  0  0  0  0  0  0
    2.8450    0.6100    2.4530 C   0  0  0  0  0  0  0  0  0  0  0  0
    3.1830    0.0520    3.5350 O   0  0  0  0  0  0  0  0  0  0  0  0
    3.7910   -2.9510    0.4090 H   0  0  0  0  0  0  0  0  0  0  0  0
    2.5940   -1.7820    1.1580 H   0  0  0  0  0  0  0  0  0  0  0  0
    4.9210    0.9210   -0.2340 H   0  0  0  0  0  0  0  0  0  0  0  0
    3.1970    0.4740   -0.2620 H   0  0  0  0  0  0  0  0  0  0  0  0
    3.6800    2.2590    1.3290 H   0  0  0  0  0  0  0  0  0  0  0  0
    5.1190    0.5360    3.1580 H   0  0  0  0  0  0  0  0  0  0  0  0
    5.9830    0.8920    1.7280 H   0  0  0  0  0  0  0  0  0  0  0  0
   -2.4710    2.4010    0.7600 N   0  0  0  0  0  0  0  0  0  0  0  0
   -2.1540    1.6440    1.9570 C   0  0  0  0  0  0  0  0  0  0  0  0
   -2.8890    0.6420    2.1170 O   0  0  0  0  0  0  0  0  0  0  0  0
   -1.0680    2.0710    2.8540 C   0  0  0  0  0  0  0  0  0  0  0  0
   -0.3320    1.0450    3.5960 C   0  0  0  0  0  0  0  0  0  0  0  0
    0.4830    0.0400    2.8590 C   0  0  2  0  0  0  0  0  0  0  0  0
    1.4980    0.6510    2.0400 N   0  0  0  0  0  0  0  0  0  0  0  0
   -0.3260   -0.8800    2.0550 C   0  0  0  0  0  0  0  0  0  0  0  0
   -1.1860   -1.6680    2.6170 O   0  0  0  0  0  0  0  0  0  0  0  0
   -3.3300    2.9920    0.7030 H   0  0  0  0  0  0  0  0  0  0  0  0
   -1.8320    2.3570   -0.0560 H   0  0  0  0  0  0  0  0  0  0  0  0
   -0.4010    2.8260    2.3510 H   0  0  0  0  0  0  0  0  0  0  0  0
   -1.5880    2.7200    3.6360 H   0  0  0  0  0  0  0  0  0  0  0  0
   -1.0820    0.5130    4.2670 H   0  0  0  0  0  0  0  0  0  0  0  0
    0.3490    1.5220    4.3780 H   0  0  0  0  0  0  0  0  0  0  0  0
    1.0510   -0.5510    3.6660 H   0  0  0  0  0  0  0  0  0  0  0  0
    1.2510    1.1120    1.1640 H   0  0  0  0  0  0  0  0  0  0  0  0
   -0.2690   -1.0170    0.6410 N   0  0  0  0  0  0  0  0  0  0  0  0
   -1.0920   -1.9560   -0.0990 C   0  0  1  0  0  0  0  0  0  0  0  0
   -2.1050   -1.2190   -0.9500 C   0  0  0  0  0  0  0  0  0  0  0  0
   -2.9690   -2.1320   -1.7380 C   0  0  0  0  0  0  0  0  0  0  0  0
   -4.1240   -2.6180   -1.1550 C   0  0  0  0  0  0  0  0  0  0  0  0
   -4.9180   -3.4630   -1.9140 C   0  0  0  0  0  0  0  0  0  0  0  0
   -4.5700   -3.8070   -3.2050 C   0  0  0  0  0  0  0  0  0  0  0  0
   -3.4060   -3.3100   -3.7780 C   0  0  0  0  0  0  0  0  0  0  0  0
   -2.6040   -2.4730   -3.0470 C   0  0  0  0  0  0  0  0  0  0  0  0
   -0.2920   -2.9200   -0.8550 C   0  0  0  0  0  0  0  0  0  0  0  0
    0.9780   -2.8100   -0.8160 O   0  0  0  0  0  0  0  0  0  0  0  0
   -0.8260   -3.9480   -1.6120 O   0  0  0  0  0  0  0  0  0  0  0  0
    0.4200   -0.3950    0.1210 H   0  0  0  0  0  0  0  0  0  0  0  0
   -1.6980   -2.5170    0.6630 H   0  0  0  0  0  0  0  0  0  0  0  0
   -1.6270   -0.5020   -1.6530 H   0  0  0  0  0  0  0  0  0  0  0  0
   -2.7570   -0.6470   -0.2620 H   0  0  0  0  0  0  0  0  0  0  0  0
   -4.4310   -2.3700   -0.1490 H   0  0  0  0  0  0  0  0  0  0  0  0
   -5.8360   -3.8420   -1.4420 H   0  0  0  0  0  0  0  0  0  0  0  0
   -5.2410   -4.4840   -3.7570 H   0  0  0  0  0  0  0  0  0  0  0  0
   -3.1780   -3.6070   -4.7860 H   0  0  0  0  0  0  0  0  0  0  0  0
   -1.6780   -2.0620   -3.4790 H   0  0  0  0  0  0  0  0  0  0  0  0
  1 10  1  0  0  0  0
  2  1  1  0  0  0  0
  2  3  2  0  0  0  0
  4  2  1  0  0  0  0
  4  5  1  0  0  0  0
  5 13  1  6  0  0  0
  5  6  1  0  0  0  0
  5  7  1  0  0  0  0
  6 14  1  0  0  0  0
  7  8  2  0  0  0  0
  9  1  1  0  0  0  0
 11  4  1  0  0  0  0
 12  4  1  0  0  0  0
 15  6  1  0  0  0  0
 16 17  1  0  0  0  0
 17 18  2  0  0  0  0
 17 19  1  0  0  0  0
 19 20  1  0  0  0  0
 19 28  1  0  0  0  0
 20 29  1  0  0  0  0
 20 30  1  0  0  0  0
 21 20  1  0  0  0  0
 21 31  1  1  0  0  0
 22  7  1  0  0  0  0
 22 21  1  0  0  0  0
 23 24  2  0  0  0  0
 23 21  1  0  0  0  0
 25 16  1  0  0  0  0
 26 16  1  0  0  0  0
 27 19  1  0  0  0  0
 32 22  1  0  0  0  0
 33 23  1  0  0  0  0
 34 33  1  0  0  0  0
 34 46  1  1  0  0  0
 35 48  1  0  0  0  0
 35 34  1  0  0  0  0
 36 37  1  0  0  0  0
 36 35  1  0  0  0  0
 37 49  1  0  0  0  0
 38 50  1  0  0  0  0
 38 37  2  0  0  0  0
 39 38  1  0  0  0  0
 40 39  2  0  0  0  0
 40 41  1  0  0  0  0
 41 36  2  0  0  0  0
 42 43  1  0  0  0  0
 42 34  1  0  0  0  0
 44 42  2  0  0  0  0
 45 33  1  0  0  0  0
 47 35  1  0  0  0  0
 51 39  1  0  0  0  0
 52 40  1  0  0  0  0
 53 41  1  0  0  0  0
M  END
$$$$
