NQG.pdb
 OpenBabel07022418093D

 40 39  0  0  1  0  0  0  0  0999 V2000
    1.4270   -5.0450   -0.3180 N   0  0  0  0  0  0  0  0  0  0  0  0
    2.1910   -4.4870    0.7590 C   0  0  0  0  0  0  0  0  0  0  0  0
    3.1450   -5.1690    1.1910 O   0  0  0  0  0  0  0  0  0  0  0  0
    1.8110   -3.1530    1.2890 C   0  0  0  0  0  0  0  0  0  0  0  0
    2.7010   -2.1330    0.6410 C   0  0  2  0  0  0  0  0  0  0  0  0
    4.0720   -2.4440    0.9750 N   0  0  0  0  0  0  0  0  0  0  0  0
    2.3860   -0.7340    1.0290 C   0  0  0  0  0  0  0  0  0  0  0  0
    3.2810   -0.0200    1.5630 O   0  0  0  0  0  0  0  0  0  0  0  0
    1.3820   -4.5360   -1.2480 H   0  0  0  0  0  0  0  0  0  0  0  0
    0.9020   -5.9280   -0.2560 H   0  0  0  0  0  0  0  0  0  0  0  0
    1.9290   -3.1800    2.3920 H   0  0  0  0  0  0  0  0  0  0  0  0
    0.7450   -2.9890    1.0450 H   0  0  0  0  0  0  0  0  0  0  0  0
    2.6040   -2.1880   -0.4610 H   0  0  0  0  0  0  0  0  0  0  0  0
    4.5550   -1.5650    1.2950 H   0  0  0  0  0  0  0  0  0  0  0  0
    4.0850   -3.0890    1.7920 H   0  0  0  0  0  0  0  0  0  0  0  0
   -1.0920    0.3840   -2.7030 N   0  0  0  0  0  0  0  0  0  0  0  0
   -0.0030    0.8160   -1.8880 C   0  0  0  0  0  0  0  0  0  0  0  0
    1.0700    0.2040   -1.9350 O   0  0  0  0  0  0  0  0  0  0  0  0
   -0.1950    1.9910   -1.0140 C   0  0  0  0  0  0  0  0  0  0  0  0
    0.7550    2.1510    0.1000 C   0  0  0  0  0  0  0  0  0  0  0  0
    0.7890    1.1300    1.1730 C   0  0  2  0  0  0  0  0  0  0  0  0
    1.0830   -0.2190    0.7960 N   0  0  0  0  0  0  0  0  0  0  0  0
   -0.3870    1.1990    2.0860 C   0  0  0  0  0  0  0  0  0  0  0  0
   -0.8080    2.2980    2.5300 O   0  0  0  0  0  0  0  0  0  0  0  0
   -1.9640    0.1180   -2.1920 H   0  0  0  0  0  0  0  0  0  0  0  0
   -0.9890    0.3480   -3.7330 H   0  0  0  0  0  0  0  0  0  0  0  0
   -1.2690    2.1020   -0.7170 H   0  0  0  0  0  0  0  0  0  0  0  0
   -0.0370    2.8840   -1.6960 H   0  0  0  0  0  0  0  0  0  0  0  0
    0.5560    3.1310    0.5860 H   0  0  0  0  0  0  0  0  0  0  0  0
    1.7770    2.2580   -0.3330 H   0  0  0  0  0  0  0  0  0  0  0  0
    1.6620    1.4620    1.8360 H   0  0  0  0  0  0  0  0  0  0  0  0
    0.3870   -0.8740    0.3700 H   0  0  0  0  0  0  0  0  0  0  0  0
   -1.1050    0.0340    2.5140 N   0  0  0  0  0  0  0  0  0  0  0  0
   -2.2440    0.1200    3.4010 C   0  0  0  0  0  0  0  0  0  0  0  0
   -3.3390    0.9370    2.8290 C   0  0  0  0  0  0  0  0  0  0  0  0
   -3.2660    1.4830    1.7070 O   0  0  0  0  0  0  0  0  0  0  0  0
   -4.4910    1.0940    3.5880 O   0  0  0  0  0  0  0  0  0  0  0  0
   -0.7910   -0.8750    2.1710 H   0  0  0  0  0  0  0  0  0  0  0  0
   -1.9520    0.4690    4.4190 H   0  0  0  0  0  0  0  0  0  0  0  0
   -2.6470   -0.9010    3.5350 H   0  0  0  0  0  0  0  0  0  0  0  0
  1 10  1  0  0  0  0
  1  2  1  0  0  0  0
  2  3  2  0  0  0  0
  2  4  1  0  0  0  0
  4 11  1  0  0  0  0
  5 13  1  6  0  0  0
  5  6  1  0  0  0  0
  5  7  1  0  0  0  0
  5  4  1  0  0  0  0
  6 14  1  0  0  0  0
  6 15  1  0  0  0  0
  7  8  2  0  0  0  0
  9  1  1  0  0  0  0
 12  4  1  0  0  0  0
 16 25  1  0  0  0  0
 16 17  1  0  0  0  0
 17 19  1  0  0  0  0
 18 17  2  0  0  0  0
 19 27  1  0  0  0  0
 19 20  1  0  0  0  0
 20 29  1  0  0  0  0
 20 21  1  0  0  0  0
 21 31  1  1  0  0  0
 21 23  1  0  0  0  0
 22  7  1  0  0  0  0
 22 21  1  0  0  0  0
 23 33  1  0  0  0  0
 23 24  2  0  0  0  0
 26 16  1  0  0  0  0
 28 19  1  0  0  0  0
 30 20  1  0  0  0  0
 32 22  1  0  0  0  0
 33 34  1  0  0  0  0
 34 40  1  0  0  0  0
 34 39  1  0  0  0  0
 35 34  1  0  0  0  0
 35 37  1  0  0  0  0
 36 35  2  0  0  0  0
 38 33  1  0  0  0  0
M  END
$$$$
