NQH.pdb
 OpenBabel07022418093D

 50 50  0  0  1  0  0  0  0  0999 V2000
   -0.3700   -2.5240    3.2780 N   0  0  0  0  0  0  0  0  0  0  0  0
    1.0400   -2.5580    3.4060 C   0  0  0  0  0  0  0  0  0  0  0  0
    1.5170   -2.6760    4.5690 O   0  0  0  0  0  0  0  0  0  0  0  0
    1.9450   -2.4600    2.2500 C   0  0  0  0  0  0  0  0  0  0  0  0
    2.7200   -1.1330    2.2630 C   0  0  2  0  0  0  0  0  0  0  0  0
    3.4800   -1.0920    3.4920 N   0  0  0  0  0  0  0  0  0  0  0  0
    1.8490    0.0320    2.1070 C   0  0  0  0  0  0  0  0  0  0  0  0
    1.7380    0.9060    3.0060 O   0  0  0  0  0  0  0  0  0  0  0  0
   -0.9160   -1.6870    3.5930 H   0  0  0  0  0  0  0  0  0  0  0  0
   -0.9330   -3.3030    2.8750 H   0  0  0  0  0  0  0  0  0  0  0  0
    1.3590   -2.5530    1.2930 H   0  0  0  0  0  0  0  0  0  0  0  0
    2.6780   -3.2920    2.2120 H   0  0  0  0  0  0  0  0  0  0  0  0
    3.4520   -1.2150    1.4250 H   0  0  0  0  0  0  0  0  0  0  0  0
    2.8800   -0.8080    4.2810 H   0  0  0  0  0  0  0  0  0  0  0  0
    3.8640   -2.0370    3.7080 H   0  0  0  0  0  0  0  0  0  0  0  0
    4.0450    4.2590   -0.8320 N   0  0  0  0  0  0  0  0  0  0  0  0
    2.7650    3.6650   -0.9800 C   0  0  0  0  0  0  0  0  0  0  0  0
    2.1180    3.9230   -2.0320 O   0  0  0  0  0  0  0  0  0  0  0  0
    2.1830    2.7640    0.0570 C   0  0  0  0  0  0  0  0  0  0  0  0
    0.8200    2.2680   -0.3590 C   0  0  0  0  0  0  0  0  0  0  0  0
    0.2220    1.3400    0.7030 C   0  0  2  0  0  0  0  0  0  0  0  0
    1.0930    0.1950    0.8930 N   0  0  0  0  0  0  0  0  0  0  0  0
   -1.1510    0.9630    0.3580 C   0  0  0  0  0  0  0  0  0  0  0  0
   -2.0220    1.8700    0.1680 O   0  0  0  0  0  0  0  0  0  0  0  0
    4.6400    4.5460   -1.6210 H   0  0  0  0  0  0  0  0  0  0  0  0
    4.4310    4.4260    0.1290 H   0  0  0  0  0  0  0  0  0  0  0  0
    2.9010    1.9680    0.2380 H   0  0  0  0  0  0  0  0  0  0  0  0
    2.1240    3.3830    0.9880 H   0  0  0  0  0  0  0  0  0  0  0  0
    0.1490    3.1390   -0.4950 H   0  0  0  0  0  0  0  0  0  0  0  0
    0.9290    1.7760   -1.3330 H   0  0  0  0  0  0  0  0  0  0  0  0
    0.2210    1.9000    1.6650 H   0  0  0  0  0  0  0  0  0  0  0  0
    1.2060   -0.5420    0.1750 H   0  0  0  0  0  0  0  0  0  0  0  0
   -1.6120   -0.3720    0.2110 N   0  0  0  0  0  0  0  0  0  0  0  0
   -2.9900   -0.6440   -0.1380 C   0  0  1  0  0  0  0  0  0  0  0  0
   -3.1040   -1.4300   -1.4270 C   0  0  0  0  0  0  0  0  0  0  0  0
   -2.4000   -2.7200   -1.2720 C   0  0  0  0  0  0  0  0  0  0  0  0
   -2.8580   -3.9470   -0.8320 C   0  0  0  0  0  0  0  0  0  0  0  0
   -1.8080   -4.8070   -0.8810 N   0  0  0  0  0  0  0  0  0  0  0  0
   -0.7220   -4.1560   -1.3340 C   0  0  0  0  0  0  0  0  0  0  0  0
   -1.0990   -2.9080   -1.5620 N   0  0  0  0  0  0  0  0  0  0  0  0
   -3.6920   -1.4400    0.9190 C   0  0  0  0  0  0  0  0  0  0  0  0
   -3.1150   -1.8010    1.9640 O   0  0  0  0  0  0  0  0  0  0  0  0
   -5.0210   -1.8050    0.7660 O   0  0  0  0  0  0  0  0  0  0  0  0
   -0.9570   -1.1650    0.3530 H   0  0  0  0  0  0  0  0  0  0  0  0
   -3.5720    0.3080   -0.2610 H   0  0  0  0  0  0  0  0  0  0  0  0
   -2.7280   -0.8490   -2.3000 H   0  0  0  0  0  0  0  0  0  0  0  0
   -4.1750   -1.6620   -1.5620 H   0  0  0  0  0  0  0  0  0  0  0  0
   -3.8740   -4.1440   -0.5140 H   0  0  0  0  0  0  0  0  0  0  0  0
   -1.8580   -5.8140   -0.6040 H   0  0  0  0  0  0  0  0  0  0  0  0
    0.2660   -4.5720   -1.4850 H   0  0  0  0  0  0  0  0  0  0  0  0
  1  2  1  0  0  0  0
  1  9  1  0  0  0  0
  2  3  2  0  0  0  0
  4  5  1  0  0  0  0
  4  2  1  0  0  0  0
  5 13  1  6  0  0  0
  5  6  1  0  0  0  0
  6 15  1  0  0  0  0
  6 14  1  0  0  0  0
  7  5  1  0  0  0  0
  7  8  2  0  0  0  0
 10  1  1  0  0  0  0
 11  4  1  0  0  0  0
 12  4  1  0  0  0  0
 16 26  1  0  0  0  0
 17 16  1  0  0  0  0
 17 19  1  0  0  0  0
 18 17  2  0  0  0  0
 19 27  1  0  0  0  0
 19 28  1  0  0  0  0
 20 19  1  0  0  0  0
 20 21  1  0  0  0  0
 21 22  1  0  0  0  0
 21 31  1  1  0  0  0
 22  7  1  0  0  0  0
 23 21  1  0  0  0  0
 24 23  2  0  0  0  0
 25 16  1  0  0  0  0
 29 20  1  0  0  0  0
 30 20  1  0  0  0  0
 32 22  1  0  0  0  0
 33 44  1  0  0  0  0
 33 23  1  0  0  0  0
 34 45  1  6  0  0  0
 34 33  1  0  0  0  0
 34 41  1  0  0  0  0
 35 36  1  0  0  0  0
 35 34  1  0  0  0  0
 36 37  2  0  0  0  0
 37 48  1  0  0  0  0
 38 37  1  0  0  0  0
 38 49  1  0  0  0  0
 39 38  1  0  0  0  0
 40 39  2  0  0  0  0
 40 36  1  0  0  0  0
 41 42  1  0  0  0  0
 43 41  2  0  0  0  0
 46 35  1  0  0  0  0
 47 35  1  0  0  0  0
 50 39  1  0  0  0  0
M  END
$$$$
