NQM.pdb
 OpenBabel07022418093D

 50 49  0  0  1  0  0  0  0  0999 V2000
    2.7850   -3.2060    4.3530 N   0  0  0  0  0  0  0  0  0  0  0  0
    3.5900   -3.3140    3.2090 C   0  0  0  0  0  0  0  0  0  0  0  0
    4.8550   -3.3780    3.3590 O   0  0  0  0  0  0  0  0  0  0  0  0
    3.0280   -3.3600    1.8590 C   0  0  0  0  0  0  0  0  0  0  0  0
    1.5880   -2.9870    1.7660 C   0  0  2  0  0  0  0  0  0  0  0  0
    1.2230   -3.1240    0.3560 N   0  0  0  0  0  0  0  0  0  0  0  0
    1.2710   -1.6200    2.2410 C   0  0  0  0  0  0  0  0  0  0  0  0
    1.4500   -1.1940    3.4000 O   0  0  0  0  0  0  0  0  0  0  0  0
    1.8850   -3.7220    4.4530 H   0  0  0  0  0  0  0  0  0  0  0  0
    3.1180   -2.5730    5.1310 H   0  0  0  0  0  0  0  0  0  0  0  0
    3.6510   -2.7920    1.1150 H   0  0  0  0  0  0  0  0  0  0  0  0
    3.1340   -4.4290    1.5080 H   0  0  0  0  0  0  0  0  0  0  0  0
    0.9680   -3.6980    2.3340 H   0  0  0  0  0  0  0  0  0  0  0  0
    1.7480   -3.8630   -0.1210 H   0  0  0  0  0  0  0  0  0  0  0  0
    0.2140   -3.0950    0.1920 H   0  0  0  0  0  0  0  0  0  0  0  0
    4.6890    2.4920   -0.0830 N   0  0  0  0  0  0  0  0  0  0  0  0
    3.2700    2.4340   -0.0260 C   0  0  0  0  0  0  0  0  0  0  0  0
    2.6140    3.2120   -0.7610 O   0  0  0  0  0  0  0  0  0  0  0  0
    2.6180    1.4630    0.8930 C   0  0  0  0  0  0  0  0  0  0  0  0
    1.1370    1.6160    0.7360 C   0  0  0  0  0  0  0  0  0  0  0  0
    0.3530    0.6670    1.6340 C   0  0  2  0  0  0  0  0  0  0  0  0
    0.7060   -0.6900    1.2970 N   0  0  0  0  0  0  0  0  0  0  0  0
   -1.0750    0.9500    1.3930 C   0  0  0  0  0  0  0  0  0  0  0  0
   -1.5030    2.1040    1.6470 O   0  0  0  0  0  0  0  0  0  0  0  0
    5.1680    3.3580   -0.4160 H   0  0  0  0  0  0  0  0  0  0  0  0
    5.2410    1.6430    0.2160 H   0  0  0  0  0  0  0  0  0  0  0  0
    2.9480    0.4600    0.5900 H   0  0  0  0  0  0  0  0  0  0  0  0
    2.9110    1.7250    1.9270 H   0  0  0  0  0  0  0  0  0  0  0  0
    0.8590    2.6560    1.0480 H   0  0  0  0  0  0  0  0  0  0  0  0
    0.8810    1.4820   -0.3240 H   0  0  0  0  0  0  0  0  0  0  0  0
    0.5710    0.9110    2.6930 H   0  0  0  0  0  0  0  0  0  0  0  0
    0.5400   -1.0050    0.3200 H   0  0  0  0  0  0  0  0  0  0  0  0
   -2.6780   -0.4800   -4.0500 C   0  0  0  0  0  0  0  0  0  0  0  0
   -3.8160   -1.4640   -3.0370 S   0  0  0  0  0  0  0  0  0  0  0  0
   -3.4410   -1.2710   -1.2680 C   0  0  0  0  0  0  0  0  0  0  0  0
   -3.7170    0.1470   -0.8100 C   0  0  0  0  0  0  0  0  0  0  0  0
   -3.4050    0.3040    0.6610 C   0  0  2  0  0  0  0  0  0  0  0  0
   -2.0070    0.0020    0.8900 N   0  0  0  0  0  0  0  0  0  0  0  0
   -4.2980   -0.5300    1.4920 C   0  0  0  0  0  0  0  0  0  0  0  0
   -5.5380   -0.3710    1.3910 O   0  0  0  0  0  0  0  0  0  0  0  0
   -3.8380   -1.4890    2.3880 O   0  0  0  0  0  0  0  0  0  0  0  0
   -2.0790   -1.1290   -4.7120 H   0  0  0  0  0  0  0  0  0  0  0  0
   -1.9970    0.1450   -3.4320 H   0  0  0  0  0  0  0  0  0  0  0  0
   -3.2950    0.1800   -4.6960 H   0  0  0  0  0  0  0  0  0  0  0  0
   -4.1050   -1.9750   -0.7240 H   0  0  0  0  0  0  0  0  0  0  0  0
   -2.4120   -1.5940   -1.1190 H   0  0  0  0  0  0  0  0  0  0  0  0
   -3.0990    0.8680   -1.3720 H   0  0  0  0  0  0  0  0  0  0  0  0
   -4.7940    0.3380   -1.0050 H   0  0  0  0  0  0  0  0  0  0  0  0
   -3.6370    1.3690    0.9290 H   0  0  0  0  0  0  0  0  0  0  0  0
   -1.6830   -0.9600    0.6720 H   0  0  0  0  0  0  0  0  0  0  0  0
  1  9  1  0  0  0  0
  1 10  1  0  0  0  0
  2  3  2  0  0  0  0
  2  1  1  0  0  0  0
  4  2  1  0  0  0  0
  5  4  1  0  0  0  0
  5  7  1  0  0  0  0
  5 13  1  1  0  0  0
  6  5  1  0  0  0  0
  7  8  2  0  0  0  0
 11  4  1  0  0  0  0
 12  4  1  0  0  0  0
 14  6  1  0  0  0  0
 15  6  1  0  0  0  0
 16 17  1  0  0  0  0
 16 26  1  0  0  0  0
 17 19  1  0  0  0  0
 18 17  2  0  0  0  0
 19 28  1  0  0  0  0
 20 19  1  0  0  0  0
 20 29  1  0  0  0  0
 20 21  1  0  0  0  0
 21 31  1  1  0  0  0
 22 21  1  0  0  0  0
 22  7  1  0  0  0  0
 23 21  1  0  0  0  0
 23 24  2  0  0  0  0
 25 16  1  0  0  0  0
 27 19  1  0  0  0  0
 30 20  1  0  0  0  0
 32 22  1  0  0  0  0
 33 43  1  0  0  0  0
 33 34  1  0  0  0  0
 34 35  1  0  0  0  0
 35 46  1  0  0  0  0
 35 36  1  0  0  0  0
 35 45  1  0  0  0  0
 36 37  1  0  0  0  0
 37 38  1  0  0  0  0
 37 49  1  1  0  0  0
 37 39  1  0  0  0  0
 38 23  1  0  0  0  0
 39 41  1  0  0  0  0
 40 39  2  0  0  0  0
 42 33  1  0  0  0  0
 44 33  1  0  0  0  0
 47 36  1  0  0  0  0
 48 36  1  0  0  0  0
 50 38  1  0  0  0  0
M  END
$$$$
