NQQ.pdb
 OpenBabel07022418093D

 50 49  0  0  1  0  0  0  0  0999 V2000
    0.0780   -5.2580    4.8250 N   0  0  0  0  0  0  0  0  0  0  0  0
    1.0700   -4.3030    4.5160 C   0  0  0  0  0  0  0  0  0  0  0  0
    2.1910   -4.4010    5.0750 O   0  0  0  0  0  0  0  0  0  0  0  0
    0.8410   -3.1870    3.5580 C   0  0  0  0  0  0  0  0  0  0  0  0
    2.0750   -2.3420    3.4440 C   0  0  2  0  0  0  0  0  0  0  0  0
    2.3670   -1.8150    4.7600 N   0  0  0  0  0  0  0  0  0  0  0  0
    1.9810   -1.2500    2.4880 C   0  0  0  0  0  0  0  0  0  0  0  0
    2.1550   -0.0670    2.9040 O   0  0  0  0  0  0  0  0  0  0  0  0
    0.1600   -5.8640    5.6550 H   0  0  0  0  0  0  0  0  0  0  0  0
   -0.7420   -5.3490    4.2050 H   0  0  0  0  0  0  0  0  0  0  0  0
   -0.0460   -2.6480    3.8730 H   0  0  0  0  0  0  0  0  0  0  0  0
    0.6970   -3.6760    2.5590 H   0  0  0  0  0  0  0  0  0  0  0  0
    2.9560   -2.9760    3.1690 H   0  0  0  0  0  0  0  0  0  0  0  0
    2.5180   -0.7820    4.7400 H   0  0  0  0  0  0  0  0  0  0  0  0
    3.1790   -2.2820    5.2190 H   0  0  0  0  0  0  0  0  0  0  0  0
    1.3720    1.8990   -3.5620 N   0  0  0  0  0  0  0  0  0  0  0  0
    1.7420    0.7230   -2.8750 C   0  0  0  0  0  0  0  0  0  0  0  0
    1.1610   -0.3510   -3.1490 O   0  0  0  0  0  0  0  0  0  0  0  0
    2.7930    0.7530   -1.8620 C   0  0  0  0  0  0  0  0  0  0  0  0
    2.7290   -0.2860   -0.7960 C   0  0  0  0  0  0  0  0  0  0  0  0
    1.6220   -0.2430    0.1790 C   0  0  2  0  0  0  0  0  0  0  0  0
    1.7090   -1.3790    1.1120 N   0  0  0  0  0  0  0  0  0  0  0  0
    0.2530   -0.0080   -0.2780 C   0  0  0  0  0  0  0  0  0  0  0  0
   -0.0810    1.0410   -0.9040 O   0  0  0  0  0  0  0  0  0  0  0  0
    1.1390    2.8090   -3.1080 H   0  0  0  0  0  0  0  0  0  0  0  0
    1.3240    1.8700   -4.6030 H   0  0  0  0  0  0  0  0  0  0  0  0
    2.8620    1.7570   -1.3680 H   0  0  0  0  0  0  0  0  0  0  0  0
    3.7710    0.6860   -2.4400 H   0  0  0  0  0  0  0  0  0  0  0  0
    2.7960   -1.3310   -1.2350 H   0  0  0  0  0  0  0  0  0  0  0  0
    3.6890   -0.1370   -0.1950 H   0  0  0  0  0  0  0  0  0  0  0  0
    1.8530    0.6680    0.8470 H   0  0  0  0  0  0  0  0  0  0  0  0
    1.5610   -2.3160    0.7190 H   0  0  0  0  0  0  0  0  0  0  0  0
   -3.2790    3.7440    0.9130 N   0  0  0  0  0  0  0  0  0  0  0  0
   -3.2090    2.6700   -0.0130 C   0  0  0  0  0  0  0  0  0  0  0  0
   -3.6070    2.8470   -1.1720 O   0  0  0  0  0  0  0  0  0  0  0  0
   -2.6450    1.3670    0.4920 C   0  0  0  0  0  0  0  0  0  0  0  0
   -2.6840    0.4170   -0.6530 C   0  0  0  0  0  0  0  0  0  0  0  0
   -2.1150   -0.9620   -0.3380 C   0  0  2  0  0  0  0  0  0  0  0  0
   -0.7320   -0.9890   -0.0100 N   0  0  0  0  0  0  0  0  0  0  0  0
   -2.5960   -1.9370   -1.2880 C   0  0  0  0  0  0  0  0  0  0  0  0
   -1.7960   -2.7890   -1.8090 O   0  0  0  0  0  0  0  0  0  0  0  0
   -3.9130   -2.0410   -1.7110 O   0  0  0  0  0  0  0  0  0  0  0  0
   -2.4550    3.8850    1.5480 H   0  0  0  0  0  0  0  0  0  0  0  0
   -4.1030    4.3820    0.9820 H   0  0  0  0  0  0  0  0  0  0  0  0
   -1.6980    1.5390    0.9970 H   0  0  0  0  0  0  0  0  0  0  0  0
   -3.4250    1.0130    1.2410 H   0  0  0  0  0  0  0  0  0  0  0  0
   -2.3020    0.8460   -1.5790 H   0  0  0  0  0  0  0  0  0  0  0  0
   -3.7800    0.2170   -0.8540 H   0  0  0  0  0  0  0  0  0  0  0  0
   -2.6440   -1.1500    0.6830 H   0  0  0  0  0  0  0  0  0  0  0  0
   -0.4000   -1.8590    0.5030 H   0  0  0  0  0  0  0  0  0  0  0  0
  1  9  1  0  0  0  0
  2  1  1  0  0  0  0
  2  3  2  0  0  0  0
  4 11  1  0  0  0  0
  4  2  1  0  0  0  0
  5 13  1  6  0  0  0
  5  4  1  0  0  0  0
  5  6  1  0  0  0  0
  6 15  1  0  0  0  0
  7  8  2  0  0  0  0
  7  5  1  0  0  0  0
 10  1  1  0  0  0  0
 12  4  1  0  0  0  0
 14  6  1  0  0  0  0
 16 25  1  0  0  0  0
 16 17  1  0  0  0  0
 17 19  1  0  0  0  0
 18 17  2  0  0  0  0
 19 27  1  0  0  0  0
 19 20  1  0  0  0  0
 20 30  1  0  0  0  0
 20 21  1  0  0  0  0
 21 31  1  1  0  0  0
 21 22  1  0  0  0  0
 22  7  1  0  0  0  0
 23 39  1  0  0  0  0
 23 21  1  0  0  0  0
 24 23  2  0  0  0  0
 26 16  1  0  0  0  0
 28 19  1  0  0  0  0
 29 20  1  0  0  0  0
 32 22  1  0  0  0  0
 33 44  1  0  0  0  0
 33 43  1  0  0  0  0
 34 36  1  0  0  0  0
 34 33  1  0  0  0  0
 35 34  2  0  0  0  0
 36 45  1  0  0  0  0
 36 46  1  0  0  0  0
 37 38  1  0  0  0  0
 37 36  1  0  0  0  0
 38 39  1  0  0  0  0
 38 49  1  1  0  0  0
 39 50  1  0  0  0  0
 40 38  1  0  0  0  0
 41 40  2  0  0  0  0
 42 40  1  0  0  0  0
 47 37  1  0  0  0  0
 48 37  1  0  0  0  0
M  END
$$$$
