NQR.pdb
 OpenBabel07022418093D

 56 55  0  0  1  0  0  0  0  0999 V2000
    1.1430    4.6560    5.7210 N   0  0  0  0  0  0  0  0  0  0  0  0
    0.5830    3.3870    5.3530 C   0  0  0  0  0  0  0  0  0  0  0  0
   -0.6220    3.3710    5.0360 O   0  0  0  0  0  0  0  0  0  0  0  0
    1.3750    2.1500    5.3430 C   0  0  0  0  0  0  0  0  0  0  0  0
    0.6670    0.9510    4.7780 C   0  0  2  0  0  0  0  0  0  0  0  0
    1.6160   -0.1720    4.9130 N   0  0  0  0  0  0  0  0  0  0  0  0
    0.4650    1.1890    3.3040 C   0  0  0  0  0  0  0  0  0  0  0  0
   -0.3320    2.0610    2.9400 O   0  0  0  0  0  0  0  0  0  0  0  0
    0.6080    5.3000    6.3620 H   0  0  0  0  0  0  0  0  0  0  0  0
    2.0620    4.9980    5.3930 H   0  0  0  0  0  0  0  0  0  0  0  0
    2.2280    2.3470    4.6180 H   0  0  0  0  0  0  0  0  0  0  0  0
    1.8200    1.9260    6.3450 H   0  0  0  0  0  0  0  0  0  0  0  0
   -0.2410    0.6610    5.3020 H   0  0  0  0  0  0  0  0  0  0  0  0
    1.6530   -0.4900    5.9060 H   0  0  0  0  0  0  0  0  0  0  0  0
    2.5520    0.0970    4.5370 H   0  0  0  0  0  0  0  0  0  0  0  0
    1.6490    2.8250   -2.9480 N   0  0  0  0  0  0  0  0  0  0  0  0
    1.6260    2.4900   -1.5660 C   0  0  0  0  0  0  0  0  0  0  0  0
    0.9260    3.1330   -0.7640 O   0  0  0  0  0  0  0  0  0  0  0  0
    2.4450    1.3610   -1.0740 C   0  0  0  0  0  0  0  0  0  0  0  0
    2.3080    1.0620    0.3660 C   0  0  0  0  0  0  0  0  0  0  0  0
    0.9680    0.6690    0.8780 C   0  0  2  0  0  0  0  0  0  0  0  0
    1.1490    0.4550    2.3270 N   0  0  0  0  0  0  0  0  0  0  0  0
    0.3960   -0.5550    0.2730 C   0  0  0  0  0  0  0  0  0  0  0  0
    0.2570   -1.6020    0.9760 O   0  0  0  0  0  0  0  0  0  0  0  0
    2.5450    2.9590   -3.4790 H   0  0  0  0  0  0  0  0  0  0  0  0
    0.7170    2.9320   -3.4090 H   0  0  0  0  0  0  0  0  0  0  0  0
    2.3730    0.4860   -1.7470 H   0  0  0  0  0  0  0  0  0  0  0  0
    3.5180    1.7100   -1.2170 H   0  0  0  0  0  0  0  0  0  0  0  0
    2.7090    1.9600    0.9230 H   0  0  0  0  0  0  0  0  0  0  0  0
    3.0780    0.2660    0.6070 H   0  0  0  0  0  0  0  0  0  0  0  0
    0.2660    1.5100    0.7830 H   0  0  0  0  0  0  0  0  0  0  0  0
    1.8230   -0.2830    2.5940 H   0  0  0  0  0  0  0  0  0  0  0  0
   -4.0170   -7.5960   -2.0800 N   0  0  0  0  0  0  0  0  0  0  0  0
   -3.3080   -6.5190   -1.5020 C   0  0  0  0  0  0  0  0  0  0  0  0
   -2.7160   -6.6620   -0.3600 N   0  0  0  0  0  0  0  0  0  0  0  0
   -3.2590   -5.2820   -2.1940 N   0  0  0  0  0  0  0  0  0  0  0  0
   -2.6130   -4.1330   -1.5950 C   0  0  0  0  0  0  0  0  0  0  0  0
   -2.6930   -2.9290   -2.5190 C   0  0  0  0  0  0  0  0  0  0  0  0
   -2.0350   -1.7140   -1.9420 C   0  0  0  0  0  0  0  0  0  0  0  0
   -0.5840   -1.8890   -1.6330 C   0  0  2  0  0  0  0  0  0  0  0  0
   -0.0210   -0.6420   -1.0710 N   0  0  0  0  0  0  0  0  0  0  0  0
    0.2400   -2.3240   -2.7780 C   0  0  0  0  0  0  0  0  0  0  0  0
    1.2450   -1.6480   -3.1800 O   0  0  0  0  0  0  0  0  0  0  0  0
   -0.0480   -3.4880   -3.4600 O   0  0  0  0  0  0  0  0  0  0  0  0
   -4.0300   -7.6650   -3.1260 H   0  0  0  0  0  0  0  0  0  0  0  0
   -4.4950   -8.2720   -1.4670 H   0  0  0  0  0  0  0  0  0  0  0  0
   -2.7650   -7.5910    0.1410 H   0  0  0  0  0  0  0  0  0  0  0  0
   -3.6840   -5.1720   -3.1450 H   0  0  0  0  0  0  0  0  0  0  0  0
   -3.1540   -3.9220   -0.6400 H   0  0  0  0  0  0  0  0  0  0  0  0
   -1.5620   -4.3290   -1.3200 H   0  0  0  0  0  0  0  0  0  0  0  0
   -2.3230   -3.2240   -3.5160 H   0  0  0  0  0  0  0  0  0  0  0  0
   -3.7960   -2.7450   -2.6640 H   0  0  0  0  0  0  0  0  0  0  0  0
   -2.0980   -0.9210   -2.7430 H   0  0  0  0  0  0  0  0  0  0  0  0
   -2.6270   -1.3680   -1.0810 H   0  0  0  0  0  0  0  0  0  0  0  0
   -0.5050   -2.6590   -0.8400 H   0  0  0  0  0  0  0  0  0  0  0  0
    0.0310    0.1500   -1.7400 H   0  0  0  0  0  0  0  0  0  0  0  0
  1  9  1  0  0  0  0
  2  1  1  0  0  0  0
  3  2  2  0  0  0  0
  4  2  1  0  0  0  0
  4 12  1  0  0  0  0
  5  6  1  0  0  0  0
  5 13  1  1  0  0  0
  5  4  1  0  0  0  0
  6 14  1  0  0  0  0
  7  5  1  0  0  0  0
  8  7  2  0  0  0  0
 10  1  1  0  0  0  0
 11  4  1  0  0  0  0
 15  6  1  0  0  0  0
 16 17  1  0  0  0  0
 17 19  1  0  0  0  0
 17 18  2  0  0  0  0
 19 20  1  0  0  0  0
 20 30  1  0  0  0  0
 20 21  1  0  0  0  0
 20 29  1  0  0  0  0
 21 31  1  6  0  0  0
 21 22  1  0  0  0  0
 22 32  1  0  0  0  0
 22  7  1  0  0  0  0
 23 21  1  0  0  0  0
 23 24  2  0  0  0  0
 25 16  1  0  0  0  0
 26 16  1  0  0  0  0
 27 19  1  0  0  0  0
 28 19  1  0  0  0  0
 33 34  1  0  0  0  0
 33 46  1  0  0  0  0
 34 35  2  0  0  0  0
 35 47  1  0  0  0  0
 36 37  1  0  0  0  0
 36 34  1  0  0  0  0
 37 50  1  0  0  0  0
 37 49  1  0  0  0  0
 38 39  1  0  0  0  0
 38 37  1  0  0  0  0
 39 40  1  0  0  0  0
 39 54  1  0  0  0  0
 40 41  1  0  0  0  0
 40 55  1  1  0  0  0
 41 23  1  0  0  0  0
 42 40  1  0  0  0  0
 43 42  1  0  0  0  0
 44 42  2  0  0  0  0
 45 33  1  0  0  0  0
 48 36  1  0  0  0  0
 51 38  1  0  0  0  0
 52 38  1  0  0  0  0
 53 39  1  0  0  0  0
 56 41  1  0  0  0  0
M  END
$$$$
