NQV.pdb
 OpenBabel07022418093D

 49 48  0  0  1  0  0  0  0  0999 V2000
    3.7690   -4.3650    4.1590 N   0  0  0  0  0  0  0  0  0  0  0  0
    3.5890   -3.0070    3.8200 C   0  0  0  0  0  0  0  0  0  0  0  0
    3.2990   -2.1760    4.7020 O   0  0  0  0  0  0  0  0  0  0  0  0
    3.7440   -2.5710    2.4250 C   0  0  0  0  0  0  0  0  0  0  0  0
    2.4570   -2.5640    1.6730 C   0  0  2  0  0  0  0  0  0  0  0  0
    2.7140   -2.1220    0.3200 N   0  0  0  0  0  0  0  0  0  0  0  0
    1.3720   -1.7790    2.2980 C   0  0  0  0  0  0  0  0  0  0  0  0
    0.9990   -2.0580    3.4740 O   0  0  0  0  0  0  0  0  0  0  0  0
    3.0850   -4.9230    4.7210 H   0  0  0  0  0  0  0  0  0  0  0  0
    4.6450   -4.8450    3.8240 H   0  0  0  0  0  0  0  0  0  0  0  0
    4.2380   -1.5650    2.3700 H   0  0  0  0  0  0  0  0  0  0  0  0
    4.4520   -3.2870    1.9300 H   0  0  0  0  0  0  0  0  0  0  0  0
    2.0980   -3.6280    1.5890 H   0  0  0  0  0  0  0  0  0  0  0  0
    2.3900   -2.7630   -0.4070 H   0  0  0  0  0  0  0  0  0  0  0  0
    3.6380   -1.7000    0.1890 H   0  0  0  0  0  0  0  0  0  0  0  0
    1.1940    4.2700   -0.2350 N   0  0  0  0  0  0  0  0  0  0  0  0
    0.8410    3.4970    0.8780 C   0  0  0  0  0  0  0  0  0  0  0  0
    0.8640    4.0540    2.0230 O   0  0  0  0  0  0  0  0  0  0  0  0
    0.4410    2.0820    0.8350 C   0  0  0  0  0  0  0  0  0  0  0  0
    0.1240    1.5230    2.1890 C   0  0  0  0  0  0  0  0  0  0  0  0
   -0.2850    0.0680    2.1180 C   0  0  2  0  0  0  0  0  0  0  0  0
    0.7680   -0.7200    1.5570 N   0  0  0  0  0  0  0  0  0  0  0  0
   -1.5380    0.0020    1.3230 C   0  0  0  0  0  0  0  0  0  0  0  0
   -2.5110    0.6930    1.7740 O   0  0  0  0  0  0  0  0  0  0  0  0
    2.1150    4.1760   -0.7370 H   0  0  0  0  0  0  0  0  0  0  0  0
    0.5580    5.0070   -0.6510 H   0  0  0  0  0  0  0  0  0  0  0  0
    1.3360    1.5110    0.4490 H   0  0  0  0  0  0  0  0  0  0  0  0
   -0.4170    1.9970    0.1330 H   0  0  0  0  0  0  0  0  0  0  0  0
   -0.6840    2.1180    2.6810 H   0  0  0  0  0  0  0  0  0  0  0  0
    1.0170    1.6410    2.8320 H   0  0  0  0  0  0  0  0  0  0  0  0
   -0.4990   -0.2910    3.1620 H   0  0  0  0  0  0  0  0  0  0  0  0
    1.1350   -0.5570    0.5950 H   0  0  0  0  0  0  0  0  0  0  0  0
   -1.7200   -1.3470   -2.7680 C   0  0  0  0  0  0  0  0  0  0  0  0
   -2.6990   -0.4340   -2.0660 C   0  0  0  0  0  0  0  0  0  0  0  0
   -2.2760    1.0170   -2.1580 C   0  0  0  0  0  0  0  0  0  0  0  0
   -2.8820   -0.8240   -0.6130 C   0  0  2  0  0  0  0  0  0  0  0  0
   -1.6740   -0.7710    0.1380 N   0  0  0  0  0  0  0  0  0  0  0  0
   -3.4000   -2.2150   -0.6210 C   0  0  0  0  0  0  0  0  0  0  0  0
   -2.7500   -3.0940   -0.0100 O   0  0  0  0  0  0  0  0  0  0  0  0
   -4.5620   -2.6020   -1.2650 O   0  0  0  0  0  0  0  0  0  0  0  0
   -0.8930   -0.7950   -3.2450 H   0  0  0  0  0  0  0  0  0  0  0  0
   -2.2070   -1.9350   -3.5710 H   0  0  0  0  0  0  0  0  0  0  0  0
   -1.3360   -2.0640   -2.0000 H   0  0  0  0  0  0  0  0  0  0  0  0
   -3.6610   -0.5150   -2.6130 H   0  0  0  0  0  0  0  0  0  0  0  0
   -2.4200    1.5440   -1.1790 H   0  0  0  0  0  0  0  0  0  0  0  0
   -2.9120    1.5920   -2.8870 H   0  0  0  0  0  0  0  0  0  0  0  0
   -1.2440    1.0950   -2.5280 H   0  0  0  0  0  0  0  0  0  0  0  0
   -3.6220   -0.1610   -0.1100 H   0  0  0  0  0  0  0  0  0  0  0  0
   -0.8360   -1.3080   -0.1650 H   0  0  0  0  0  0  0  0  0  0  0  0
  1  9  1  0  0  0  0
  2  1  1  0  0  0  0
  2  3  2  0  0  0  0
  4  2  1  0  0  0  0
  5 13  1  6  0  0  0
  5  7  1  0  0  0  0
  5  4  1  0  0  0  0
  6  5  1  0  0  0  0
  7  8  2  0  0  0  0
 10  1  1  0  0  0  0
 11  4  1  0  0  0  0
 12  4  1  0  0  0  0
 14  6  1  0  0  0  0
 15  6  1  0  0  0  0
 16 17  1  0  0  0  0
 17 18  2  0  0  0  0
 19 17  1  0  0  0  0
 19 20  1  0  0  0  0
 20 29  1  0  0  0  0
 20 30  1  0  0  0  0
 21 20  1  0  0  0  0
 21 31  1  1  0  0  0
 22 21  1  0  0  0  0
 22  7  1  0  0  0  0
 23 24  2  0  0  0  0
 23 21  1  0  0  0  0
 25 16  1  0  0  0  0
 26 16  1  0  0  0  0
 27 19  1  0  0  0  0
 28 19  1  0  0  0  0
 32 22  1  0  0  0  0
 33 34  1  0  0  0  0
 33 43  1  0  0  0  0
 34 36  1  0  0  0  0
 35 34  1  0  0  0  0
 35 45  1  0  0  0  0
 36 48  1  1  0  0  0
 36 37  1  0  0  0  0
 37 23  1  0  0  0  0
 38 36  1  0  0  0  0
 38 39  1  0  0  0  0
 40 38  2  0  0  0  0
 41 33  1  0  0  0  0
 42 33  1  0  0  0  0
 44 34  1  0  0  0  0
 46 35  1  0  0  0  0
 47 35  1  0  0  0  0
 49 37  1  0  0  0  0
M  END
$$$$
