NQW.pdb
 OpenBabel07022418093D

 57 58  0  0  1  0  0  0  0  0999 V2000
   -0.5530    1.0330    4.7390 N   0  0  0  0  0  0  0  0  0  0  0  0
    0.2620    0.8900    5.8820 C   0  0  0  0  0  0  0  0  0  0  0  0
   -0.3280    0.5290    6.9460 O   0  0  0  0  0  0  0  0  0  0  0  0
    1.7020    1.1230    5.9250 C   0  0  0  0  0  0  0  0  0  0  0  0
    2.3380    1.6020    4.6750 C   0  0  2  0  0  0  0  0  0  0  0  0
    1.7720    2.8570    4.2690 N   0  0  0  0  0  0  0  0  0  0  0  0
    2.2410    0.5560    3.6070 C   0  0  0  0  0  0  0  0  0  0  0  0
    2.6320   -0.6020    3.8800 O   0  0  0  0  0  0  0  0  0  0  0  0
   -0.5130    0.3830    3.9330 H   0  0  0  0  0  0  0  0  0  0  0  0
   -1.2270    1.8210    4.6990 H   0  0  0  0  0  0  0  0  0  0  0  0
    1.9470    1.7610    6.8020 H   0  0  0  0  0  0  0  0  0  0  0  0
    2.1790    0.1310    6.1770 H   0  0  0  0  0  0  0  0  0  0  0  0
    3.4240    1.8030    4.9100 H   0  0  0  0  0  0  0  0  0  0  0  0
    0.8170    2.7830    3.9170 H   0  0  0  0  0  0  0  0  0  0  0  0
    1.8100    3.5100    5.0670 H   0  0  0  0  0  0  0  0  0  0  0  0
    5.9820   -2.5340    1.6510 N   0  0  0  0  0  0  0  0  0  0  0  0
    4.5790   -2.4370    1.5520 C   0  0  0  0  0  0  0  0  0  0  0  0
    3.9170   -3.5270    1.6140 O   0  0  0  0  0  0  0  0  0  0  0  0
    3.8720   -1.1310    1.3820 C   0  0  0  0  0  0  0  0  0  0  0  0
    2.3860   -1.3250    1.3280 C   0  0  0  0  0  0  0  0  0  0  0  0
    1.6010   -0.0360    1.2110 C   0  0  2  0  0  0  0  0  0  0  0  0
    1.7320    0.8360    2.3290 N   0  0  0  0  0  0  0  0  0  0  0  0
    0.2650   -0.1930    0.6510 C   0  0  0  0  0  0  0  0  0  0  0  0
   -0.6730    0.4750    1.2020 O   0  0  0  0  0  0  0  0  0  0  0  0
    6.4840   -3.2490    1.1020 H   0  0  0  0  0  0  0  0  0  0  0  0
    6.4950   -1.8900    2.2730 H   0  0  0  0  0  0  0  0  0  0  0  0
    4.2220   -0.8110    0.3190 H   0  0  0  0  0  0  0  0  0  0  0  0
    4.2690   -0.3290    1.9970 H   0  0  0  0  0  0  0  0  0  0  0  0
    2.1850   -1.9420    0.4010 H   0  0  0  0  0  0  0  0  0  0  0  0
    2.0540   -1.9630    2.1560 H   0  0  0  0  0  0  0  0  0  0  0  0
    2.2330    0.5010    0.3740 H   0  0  0  0  0  0  0  0  0  0  0  0
    1.4030    1.8610    2.2030 H   0  0  0  0  0  0  0  0  0  0  0  0
   -0.0730   -1.0070   -0.4310 N   0  0  0  0  0  0  0  0  0  0  0  0
   -1.4410   -1.0890   -0.9080 C   0  0  1  0  0  0  0  0  0  0  0  0
   -1.4560   -0.4660   -2.2530 C   0  0  0  0  0  0  0  0  0  0  0  0
   -2.7120   -0.4320   -2.9910 C   0  0  0  0  0  0  0  0  0  0  0  0
   -3.6640    0.5600   -3.0710 C   0  0  0  0  0  0  0  0  0  0  0  0
   -4.6540    0.1260   -3.8460 N   0  0  0  0  0  0  0  0  0  0  0  0
   -4.3910   -1.1140   -4.2820 C   0  0  0  0  0  0  0  0  0  0  0  0
   -5.1100   -1.9580   -5.1110 C   0  0  0  0  0  0  0  0  0  0  0  0
   -4.6050   -3.1980   -5.4240 C   0  0  0  0  0  0  0  0  0  0  0  0
   -3.3900   -3.6100   -4.9220 C   0  0  0  0  0  0  0  0  0  0  0  0
   -2.6990   -2.7510   -4.1000 C   0  0  0  0  0  0  0  0  0  0  0  0
   -3.1780   -1.4900   -3.7610 C   0  0  0  0  0  0  0  0  0  0  0  0
   -2.0090   -2.4240   -0.7710 C   0  0  0  0  0  0  0  0  0  0  0  0
   -3.2250   -2.6200   -1.0260 O   0  0  0  0  0  0  0  0  0  0  0  0
   -1.2900   -3.5420   -0.3650 O   0  0  0  0  0  0  0  0  0  0  0  0
    0.6430   -1.5740   -0.9200 H   0  0  0  0  0  0  0  0  0  0  0  0
   -2.0460   -0.3850   -0.2430 H   0  0  0  0  0  0  0  0  0  0  0  0
   -1.0340    0.5780   -2.1660 H   0  0  0  0  0  0  0  0  0  0  0  0
   -0.7040   -0.9890   -2.9060 H   0  0  0  0  0  0  0  0  0  0  0  0
   -3.5430    1.5080   -2.5540 H   0  0  0  0  0  0  0  0  0  0  0  0
   -5.5230    0.7070   -4.0720 H   0  0  0  0  0  0  0  0  0  0  0  0
   -6.0550   -1.6300   -5.4980 H   0  0  0  0  0  0  0  0  0  0  0  0
   -5.1460   -3.8930   -6.0780 H   0  0  0  0  0  0  0  0  0  0  0  0
   -2.9500   -4.5800   -5.1410 H   0  0  0  0  0  0  0  0  0  0  0  0
   -1.7340   -3.0290   -3.6760 H   0  0  0  0  0  0  0  0  0  0  0  0
  1  2  1  0  0  0  0
  2  4  1  0  0  0  0
  2  3  2  0  0  0  0
  4 12  1  0  0  0  0
  4 11  1  0  0  0  0
  5 13  1  1  0  0  0
  5  4  1  0  0  0  0
  6  5  1  0  0  0  0
  6 15  1  0  0  0  0
  7  8  2  0  0  0  0
  7  5  1  0  0  0  0
  9  1  1  0  0  0  0
 10  1  1  0  0  0  0
 14  6  1  0  0  0  0
 16 26  1  0  0  0  0
 17 18  2  0  0  0  0
 17 16  1  0  0  0  0
 19 17  1  0  0  0  0
 19 28  1  0  0  0  0
 20 19  1  0  0  0  0
 20 30  1  0  0  0  0
 21 31  1  6  0  0  0
 21 20  1  0  0  0  0
 21 22  1  0  0  0  0
 22  7  1  0  0  0  0
 23 24  2  0  0  0  0
 23 21  1  0  0  0  0
 25 16  1  0  0  0  0
 27 19  1  0  0  0  0
 29 20  1  0  0  0  0
 32 22  1  0  0  0  0
 33 23  1  0  0  0  0
 34 45  1  0  0  0  0
 34 33  1  0  0  0  0
 34 49  1  1  0  0  0
 35 50  1  0  0  0  0
 35 34  1  0  0  0  0
 36 35  1  0  0  0  0
 37 36  2  0  0  0  0
 37 52  1  0  0  0  0
 38 37  1  0  0  0  0
 39 38  1  0  0  0  0
 39 44  1  0  0  0  0
 40 39  2  0  0  0  0
 41 40  1  0  0  0  0
 41 42  2  0  0  0  0
 42 43  1  0  0  0  0
 43 44  2  0  0  0  0
 43 57  1  0  0  0  0
 44 36  1  0  0  0  0
 45 47  1  0  0  0  0
 46 45  2  0  0  0  0
 48 33  1  0  0  0  0
 51 35  1  0  0  0  0
 53 38  1  0  0  0  0
 54 40  1  0  0  0  0
 55 41  1  0  0  0  0
 56 42  1  0  0  0  0
M  END
$$$$
