NQY.pdb
 OpenBabel07022418093D

 54 54  0  0  1  0  0  0  0  0999 V2000
    2.4010   -3.7240    1.4600 N   0  0  0  0  0  0  0  0  0  0  0  0
    3.7510   -3.3240    1.6500 C   0  0  0  0  0  0  0  0  0  0  0  0
    4.4470   -4.0470    2.4240 O   0  0  0  0  0  0  0  0  0  0  0  0
    4.2920   -2.1390    0.9790 C   0  0  0  0  0  0  0  0  0  0  0  0
    4.4750   -0.9710    1.9300 C   0  0  2  0  0  0  0  0  0  0  0  0
    5.3870   -1.3910    2.9600 N   0  0  0  0  0  0  0  0  0  0  0  0
    3.2270   -0.5030    2.5420 C   0  0  0  0  0  0  0  0  0  0  0  0
    3.0840   -0.6010    3.7880 O   0  0  0  0  0  0  0  0  0  0  0  0
    2.1260   -4.5440    0.8890 H   0  0  0  0  0  0  0  0  0  0  0  0
    1.6550   -3.1610    1.9220 H   0  0  0  0  0  0  0  0  0  0  0  0
    5.3290   -2.4050    0.6330 H   0  0  0  0  0  0  0  0  0  0  0  0
    3.7270   -1.8450    0.0830 H   0  0  0  0  0  0  0  0  0  0  0  0
    4.9200   -0.1350    1.3490 H   0  0  0  0  0  0  0  0  0  0  0  0
    5.9830   -2.1720    2.6070 H   0  0  0  0  0  0  0  0  0  0  0  0
    4.9280   -1.7130    3.8320 H   0  0  0  0  0  0  0  0  0  0  0  0
    0.6130    4.9220    0.1070 N   0  0  0  0  0  0  0  0  0  0  0  0
    0.6600    4.0870    1.2530 C   0  0  0  0  0  0  0  0  0  0  0  0
    0.5930    4.6500    2.3820 O   0  0  0  0  0  0  0  0  0  0  0  0
    0.7810    2.6140    1.1540 C   0  0  0  0  0  0  0  0  0  0  0  0
    0.8200    2.0160    2.5400 C   0  0  0  0  0  0  0  0  0  0  0  0
    0.9410    0.5040    2.5090 C   0  0  2  0  0  0  0  0  0  0  0  0
    2.1320    0.0680    1.8400 N   0  0  0  0  0  0  0  0  0  0  0  0
   -0.3130   -0.0240    1.9320 C   0  0  0  0  0  0  0  0  0  0  0  0
   -1.4470    0.2620    2.4550 O   0  0  0  0  0  0  0  0  0  0  0  0
    0.7190    5.9560    0.1500 H   0  0  0  0  0  0  0  0  0  0  0  0
    0.4670    4.5040   -0.8400 H   0  0  0  0  0  0  0  0  0  0  0  0
    0.0420    2.1450    0.5020 H   0  0  0  0  0  0  0  0  0  0  0  0
    1.7880    2.4250    0.6770 H   0  0  0  0  0  0  0  0  0  0  0  0
   -0.1230    2.2510    3.0740 H   0  0  0  0  0  0  0  0  0  0  0  0
    1.6380    2.4780    3.1250 H   0  0  0  0  0  0  0  0  0  0  0  0
    1.0420    0.2190    3.5980 H   0  0  0  0  0  0  0  0  0  0  0  0
    2.2060    0.1680    0.8100 H   0  0  0  0  0  0  0  0  0  0  0  0
   -6.9720   -2.4870   -3.1900 O   0  0  0  0  0  0  0  0  0  0  0  0
   -5.7580   -2.0510   -2.6710 C   0  0  0  0  0  0  0  0  0  0  0  0
   -4.5710   -2.6730   -3.0360 C   0  0  0  0  0  0  0  0  0  0  0  0
   -3.3620   -2.2550   -2.5320 C   0  0  0  0  0  0  0  0  0  0  0  0
   -3.2500   -1.2090   -1.6460 C   0  0  0  0  0  0  0  0  0  0  0  0
   -1.9770   -0.7210   -1.0700 C   0  0  0  0  0  0  0  0  0  0  0  0
   -1.6450   -1.3620    0.2490 C   0  0  2  0  0  0  0  0  0  0  0  0
   -0.3920   -0.8640    0.7890 N   0  0  0  0  0  0  0  0  0  0  0  0
   -1.7240   -2.8250    0.2650 C   0  0  0  0  0  0  0  0  0  0  0  0
   -0.7550   -3.4990    0.6820 O   0  0  0  0  0  0  0  0  0  0  0  0
   -4.4480   -0.5850   -1.2810 C   0  0  0  0  0  0  0  0  0  0  0  0
   -5.6630   -1.0020   -1.7840 C   0  0  0  0  0  0  0  0  0  0  0  0
   -2.8500   -3.4900   -0.1700 O   0  0  0  0  0  0  0  0  0  0  0  0
   -7.0020   -2.8930   -4.1150 H   0  0  0  0  0  0  0  0  0  0  0  0
   -4.6200   -3.4980   -3.7310 H   0  0  0  0  0  0  0  0  0  0  0  0
   -2.4230   -2.7370   -2.8130 H   0  0  0  0  0  0  0  0  0  0  0  0
   -2.1130    0.3900   -0.9630 H   0  0  0  0  0  0  0  0  0  0  0  0
   -1.1390   -0.9450   -1.7750 H   0  0  0  0  0  0  0  0  0  0  0  0
   -2.4470   -0.9900    0.9570 H   0  0  0  0  0  0  0  0  0  0  0  0
    0.5030   -1.1360    0.3130 H   0  0  0  0  0  0  0  0  0  0  0  0
   -4.3630    0.2440   -0.5810 H   0  0  0  0  0  0  0  0  0  0  0  0
   -6.5730   -0.5010   -1.4840 H   0  0  0  0  0  0  0  0  0  0  0  0
  1  2  1  0  0  0  0
  1 10  1  0  0  0  0
  2  3  2  0  0  0  0
  4  2  1  0  0  0  0
  4  5  1  0  0  0  0
  5 13  1  6  0  0  0
  5  7  1  0  0  0  0
  5  6  1  0  0  0  0
  6 15  1  0  0  0  0
  7  8  2  0  0  0  0
  9  1  1  0  0  0  0
 11  4  1  0  0  0  0
 12  4  1  0  0  0  0
 14  6  1  0  0  0  0
 16 25  1  0  0  0  0
 16 17  1  0  0  0  0
 17 18  2  0  0  0  0
 19 17  1  0  0  0  0
 19 20  1  0  0  0  0
 20 29  1  0  0  0  0
 20 30  1  0  0  0  0
 21 20  1  0  0  0  0
 21 31  1  1  0  0  0
 22 21  1  0  0  0  0
 22  7  1  0  0  0  0
 23 24  2  0  0  0  0
 23 21  1  0  0  0  0
 26 16  1  0  0  0  0
 27 19  1  0  0  0  0
 28 19  1  0  0  0  0
 32 22  1  0  0  0  0
 33 34  1  0  0  0  0
 34 44  1  0  0  0  0
 35 34  2  0  0  0  0
 35 36  1  0  0  0  0
 36 37  2  0  0  0  0
 37 43  1  0  0  0  0
 37 38  1  0  0  0  0
 38 49  1  0  0  0  0
 38 39  1  0  0  0  0
 39 41  1  0  0  0  0
 39 40  1  0  0  0  0
 39 51  1  1  0  0  0
 40 23  1  0  0  0  0
 41 42  1  0  0  0  0
 43 53  1  0  0  0  0
 44 54  1  0  0  0  0
 44 43  2  0  0  0  0
 45 41  2  0  0  0  0
 46 33  1  0  0  0  0
 47 35  1  0  0  0  0
 48 36  1  0  0  0  0
 50 38  1  0  0  0  0
 52 40  1  0  0  0  0
M  END
$$$$
