NRA.pdb
 OpenBabel07022418083D

 49 48  0  0  1  0  0  0  0  0999 V2000
    4.1050   -4.7300    2.8040 N   0  0  0  0  0  0  0  0  0  0  0  0
    2.8090   -4.4510    2.3220 C   0  0  0  0  0  0  0  0  0  0  0  0
    2.0760   -5.3800    1.9270 O   0  0  0  0  0  0  0  0  0  0  0  0
    2.2850   -3.0620    2.2740 C   0  0  0  0  0  0  0  0  0  0  0  0
    0.8650   -3.0730    1.7160 C   0  0  2  0  0  0  0  0  0  0  0  0
    0.9120   -3.6390    0.3880 N   0  0  0  0  0  0  0  0  0  0  0  0
    0.3860   -1.6730    1.6750 C   0  0  0  0  0  0  0  0  0  0  0  0
    0.3470   -0.9980    2.7070 O   0  0  0  0  0  0  0  0  0  0  0  0
    4.4760   -5.7060    2.8970 H   0  0  0  0  0  0  0  0  0  0  0  0
    4.7690   -3.9830    3.0950 H   0  0  0  0  0  0  0  0  0  0  0  0
    2.2240   -2.6020    3.2860 H   0  0  0  0  0  0  0  0  0  0  0  0
    2.9380   -2.3960    1.6740 H   0  0  0  0  0  0  0  0  0  0  0  0
    0.2120   -3.7380    2.3200 H   0  0  0  0  0  0  0  0  0  0  0  0
   -0.0070   -3.7670   -0.0560 H   0  0  0  0  0  0  0  0  0  0  0  0
    1.5680   -3.0780   -0.2170 H   0  0  0  0  0  0  0  0  0  0  0  0
    1.6910    5.4470    1.5080 N   0  0  0  0  0  0  0  0  0  0  0  0
    1.8350    4.0620    1.7390 C   0  0  0  0  0  0  0  0  0  0  0  0
    2.2000    3.6150    2.9020 N   0  0  0  0  0  0  0  0  0  0  0  0
    1.5660    3.1970    0.6450 N   0  0  0  0  0  0  0  0  0  0  0  0
    2.0540    1.8370    0.7160 C   0  0  0  0  0  0  0  0  0  0  0  0
    1.7220    1.0530   -0.5320 C   0  0  0  0  0  0  0  0  0  0  0  0
    0.2700    0.9480   -0.8170 C   0  0  0  0  0  0  0  0  0  0  0  0
   -0.5160    0.2370    0.2650 C   0  0  2  0  0  0  0  0  0  0  0  0
   -0.0240   -1.1330    0.4300 N   0  0  0  0  0  0  0  0  0  0  0  0
   -1.9170    0.1190   -0.2310 C   0  0  0  0  0  0  0  0  0  0  0  0
   -2.5610    1.1690   -0.4140 O   0  0  0  0  0  0  0  0  0  0  0  0
    2.0670    5.8610    0.6390 H   0  0  0  0  0  0  0  0  0  0  0  0
    1.2170    6.0400    2.2040 H   0  0  0  0  0  0  0  0  0  0  0  0
    2.3850    4.3040    3.6610 H   0  0  0  0  0  0  0  0  0  0  0  0
    1.0380    3.4730   -0.2180 H   0  0  0  0  0  0  0  0  0  0  0  0
    1.7580    1.2940    1.6260 H   0  0  0  0  0  0  0  0  0  0  0  0
    3.1700    1.9030    0.7600 H   0  0  0  0  0  0  0  0  0  0  0  0
    2.2260    0.0670   -0.3950 H   0  0  0  0  0  0  0  0  0  0  0  0
    2.2280    1.5480   -1.3830 H   0  0  0  0  0  0  0  0  0  0  0  0
    0.1560    0.3820   -1.7720 H   0  0  0  0  0  0  0  0  0  0  0  0
   -0.1330    1.9590   -1.0050 H   0  0  0  0  0  0  0  0  0  0  0  0
   -0.4490    0.7320    1.2300 H   0  0  0  0  0  0  0  0  0  0  0  0
    0.0390   -1.7590   -0.4010 H   0  0  0  0  0  0  0  0  0  0  0  0
   -3.8220   -1.8410   -2.3450 C   0  0  0  0  0  0  0  0  0  0  0  0
   -3.8650   -1.2040   -0.9680 C   0  0  2  0  0  0  0  0  0  0  0  0
   -2.4970   -1.1560   -0.4870 N   0  0  0  0  0  0  0  0  0  0  0  0
   -4.6550   -2.0270   -0.0180 C   0  0  0  0  0  0  0  0  0  0  0  0
   -5.8920   -2.2380   -0.2130 O   0  0  0  0  0  0  0  0  0  0  0  0
   -4.0690   -2.5860    1.1050 O   0  0  0  0  0  0  0  0  0  0  0  0
   -4.7490   -2.4620   -2.4400 H   0  0  0  0  0  0  0  0  0  0  0  0
   -3.8450   -1.0910   -3.1570 H   0  0  0  0  0  0  0  0  0  0  0  0
   -2.9240   -2.4700   -2.4420 H   0  0  0  0  0  0  0  0  0  0  0  0
   -4.3040   -0.1870   -1.0230 H   0  0  0  0  0  0  0  0  0  0  0  0
   -1.9720   -2.0360   -0.3400 H   0  0  0  0  0  0  0  0  0  0  0  0
  1  9  1  0  0  0  0
  1 10  1  0  0  0  0
  2  1  1  0  0  0  0
  3  2  2  0  0  0  0
  4  2  1  0  0  0  0
  4 11  1  0  0  0  0
  5  4  1  0  0  0  0
  5 13  1  1  0  0  0
  6  5  1  0  0  0  0
  7  5  1  0  0  0  0
  7  8  2  0  0  0  0
 12  4  1  0  0  0  0
 14  6  1  0  0  0  0
 15  6  1  0  0  0  0
 16 17  1  0  0  0  0
 16 28  1  0  0  0  0
 17 18  2  0  0  0  0
 18 29  1  0  0  0  0
 19 20  1  0  0  0  0
 19 17  1  0  0  0  0
 20 32  1  0  0  0  0
 20 31  1  0  0  0  0
 21 33  1  0  0  0  0
 21 20  1  0  0  0  0
 22 21  1  0  0  0  0
 22 23  1  0  0  0  0
 23 24  1  0  0  0  0
 23 37  1  1  0  0  0
 24  7  1  0  0  0  0
 25 23  1  0  0  0  0
 26 25  2  0  0  0  0
 27 16  1  0  0  0  0
 30 19  1  0  0  0  0
 34 21  1  0  0  0  0
 35 22  1  0  0  0  0
 36 22  1  0  0  0  0
 38 24  1  0  0  0  0
 39 40  1  0  0  0  0
 40 48  1  6  0  0  0
 40 41  1  0  0  0  0
 40 42  1  0  0  0  0
 41 49  1  0  0  0  0
 41 25  1  0  0  0  0
 42 44  1  0  0  0  0
 43 42  2  0  0  0  0
 45 39  1  0  0  0  0
 46 39  1  0  0  0  0
 47 39  1  0  0  0  0
M  END
$$$$
