NRC.pdb
 OpenBabel07022418083D

 50 49  0  0  1  0  0  0  0  0999 V2000
    4.5400   -3.3980    0.7660 N   0  0  0  0  0  0  0  0  0  0  0  0
    3.1210   -3.4050    0.5780 C   0  0  0  0  0  0  0  0  0  0  0  0
    2.4660   -4.0430    1.4350 O   0  0  0  0  0  0  0  0  0  0  0  0
    2.4790   -2.7060   -0.5470 C   0  0  0  0  0  0  0  0  0  0  0  0
    0.9820   -2.7450   -0.4690 C   0  0  2  0  0  0  0  0  0  0  0  0
    0.5040   -2.0460   -1.6730 N   0  0  0  0  0  0  0  0  0  0  0  0
    0.4250   -1.9650    0.6750 C   0  0  0  0  0  0  0  0  0  0  0  0
    0.6150   -2.3840    1.8330 O   0  0  0  0  0  0  0  0  0  0  0  0
    5.0750   -4.2760    0.5910 H   0  0  0  0  0  0  0  0  0  0  0  0
    5.0700   -2.5550    1.0710 H   0  0  0  0  0  0  0  0  0  0  0  0
    2.8600   -1.6440   -0.6210 H   0  0  0  0  0  0  0  0  0  0  0  0
    2.7570   -3.1770   -1.5170 H   0  0  0  0  0  0  0  0  0  0  0  0
    0.6090   -3.7710   -0.5330 H   0  0  0  0  0  0  0  0  0  0  0  0
    1.1880   -2.1470   -2.4540 H   0  0  0  0  0  0  0  0  0  0  0  0
   -0.4630   -2.3500   -1.9250 H   0  0  0  0  0  0  0  0  0  0  0  0
    5.2210    2.1980    1.1770 N   0  0  0  0  0  0  0  0  0  0  0  0
    3.8620    1.8270    1.3660 C   0  0  0  0  0  0  0  0  0  0  0  0
    3.5040    1.0470    2.3280 N   0  0  0  0  0  0  0  0  0  0  0  0
    2.8170    2.2840    0.5170 N   0  0  0  0  0  0  0  0  0  0  0  0
    1.4840    1.7010    0.5260 C   0  0  0  0  0  0  0  0  0  0  0  0
    0.7270    1.9630    1.7640 C   0  0  0  0  0  0  0  0  0  0  0  0
   -0.6360    1.3820    1.7380 C   0  0  0  0  0  0  0  0  0  0  0  0
   -0.8170   -0.0680    1.6170 C   0  0  2  0  0  0  0  0  0  0  0  0
   -0.3250   -0.7440    0.4760 N   0  0  0  0  0  0  0  0  0  0  0  0
   -2.3230   -0.3100    1.7180 C   0  0  0  0  0  0  0  0  0  0  0  0
   -2.9020    0.2230    2.6860 O   0  0  0  0  0  0  0  0  0  0  0  0
    5.5470    2.3270    0.1980 H   0  0  0  0  0  0  0  0  0  0  0  0
    5.9130    2.3500    1.9370 H   0  0  0  0  0  0  0  0  0  0  0  0
    4.2400    0.6940    2.9660 H   0  0  0  0  0  0  0  0  0  0  0  0
    3.0530    3.0700   -0.1230 H   0  0  0  0  0  0  0  0  0  0  0  0
    0.9180    2.1480   -0.3260 H   0  0  0  0  0  0  0  0  0  0  0  0
    1.5290    0.6180    0.2930 H   0  0  0  0  0  0  0  0  0  0  0  0
    1.2220    1.6130    2.6950 H   0  0  0  0  0  0  0  0  0  0  0  0
    0.6500    3.0870    1.9030 H   0  0  0  0  0  0  0  0  0  0  0  0
   -1.2840    1.9230    0.9620 H   0  0  0  0  0  0  0  0  0  0  0  0
   -1.1750    1.6900    2.6990 H   0  0  0  0  0  0  0  0  0  0  0  0
   -0.4110   -0.5580    2.5560 H   0  0  0  0  0  0  0  0  0  0  0  0
   -0.4470   -0.4540   -0.5060 H   0  0  0  0  0  0  0  0  0  0  0  0
   -3.0130   -1.0880    0.7720 N   0  0  0  0  0  0  0  0  0  0  0  0
   -4.4580   -1.3040    0.8920 C   0  0  1  0  0  0  0  0  0  0  0  0
   -5.1370   -0.6470   -0.3130 C   0  0  0  0  0  0  0  0  0  0  0  0
   -4.7590    1.1150   -0.3030 S   0  0  0  0  0  0  0  0  0  0  0  0
   -4.7730   -2.7520    0.8920 C   0  0  0  0  0  0  0  0  0  0  0  0
   -3.8290   -3.5940    0.7910 O   0  0  0  0  0  0  0  0  0  0  0  0
   -6.0580   -3.2520    0.9970 O   0  0  0  0  0  0  0  0  0  0  0  0
   -2.4670   -1.5020   -0.0110 H   0  0  0  0  0  0  0  0  0  0  0  0
   -4.8670   -0.8150    1.7750 H   0  0  0  0  0  0  0  0  0  0  0  0
   -6.2330   -0.7740   -0.1900 H   0  0  0  0  0  0  0  0  0  0  0  0
   -4.7640   -1.1630   -1.2090 H   0  0  0  0  0  0  0  0  0  0  0  0
   -3.7160    1.3690   -1.2240 H   0  0  0  0  0  0  0  0  0  0  0  0
  1 10  1  0  0  0  0
  2  1  1  0  0  0  0
  2  3  2  0  0  0  0
  4  5  1  0  0  0  0
  4  2  1  0  0  0  0
  5 13  1  1  0  0  0
  5  7  1  0  0  0  0
  6  5  1  0  0  0  0
  7  8  2  0  0  0  0
  9  1  1  0  0  0  0
 11  4  1  0  0  0  0
 12  4  1  0  0  0  0
 14  6  1  0  0  0  0
 15  6  1  0  0  0  0
 16 17  1  0  0  0  0
 16 28  1  0  0  0  0
 17 18  2  0  0  0  0
 18 29  1  0  0  0  0
 19 20  1  0  0  0  0
 19 17  1  0  0  0  0
 20 21  1  0  0  0  0
 21 34  1  0  0  0  0
 21 33  1  0  0  0  0
 22 21  1  0  0  0  0
 22 36  1  0  0  0  0
 23 25  1  0  0  0  0
 23 22  1  0  0  0  0
 23 37  1  1  0  0  0
 24  7  1  0  0  0  0
 24 23  1  0  0  0  0
 25 26  2  0  0  0  0
 27 16  1  0  0  0  0
 30 19  1  0  0  0  0
 31 20  1  0  0  0  0
 32 20  1  0  0  0  0
 35 22  1  0  0  0  0
 38 24  1  0  0  0  0
 39 40  1  0  0  0  0
 39 25  1  0  0  0  0
 40 47  1  1  0  0  0
 41 42  1  0  0  0  0
 41 48  1  0  0  0  0
 41 40  1  0  0  0  0
 43 40  1  0  0  0  0
 43 45  1  0  0  0  0
 44 43  2  0  0  0  0
 46 39  1  0  0  0  0
 49 41  1  0  0  0  0
 50 42  1  0  0  0  0
M  END
$$$$
