NRD.pdb
 OpenBabel07022418083D

 52 51  0  0  1  0  0  0  0  0999 V2000
   -0.3210   -1.4600    6.7110 N   0  0  0  0  0  0  0  0  0  0  0  0
    0.4500   -1.7030    5.5430 C   0  0  0  0  0  0  0  0  0  0  0  0
    1.2870   -2.6400    5.5790 O   0  0  0  0  0  0  0  0  0  0  0  0
    0.2240   -0.8420    4.3530 C   0  0  0  0  0  0  0  0  0  0  0  0
    1.1370   -1.2930    3.2500 C   0  0  2  0  0  0  0  0  0  0  0  0
    2.5100   -1.1950    3.6360 N   0  0  0  0  0  0  0  0  0  0  0  0
    0.8930   -0.5100    1.9790 C   0  0  0  0  0  0  0  0  0  0  0  0
    1.8390    0.0910    1.4180 O   0  0  0  0  0  0  0  0  0  0  0  0
   -0.3770   -0.5320    7.1960 H   0  0  0  0  0  0  0  0  0  0  0  0
   -0.8960   -2.2300    7.1630 H   0  0  0  0  0  0  0  0  0  0  0  0
    0.5250    0.1900    4.6700 H   0  0  0  0  0  0  0  0  0  0  0  0
   -0.8300   -0.7960    4.0430 H   0  0  0  0  0  0  0  0  0  0  0  0
    0.9150   -2.3770    3.0690 H   0  0  0  0  0  0  0  0  0  0  0  0
    3.1440   -1.4710    2.8580 H   0  0  0  0  0  0  0  0  0  0  0  0
    2.7840   -0.2770    4.0510 H   0  0  0  0  0  0  0  0  0  0  0  0
    3.8070    0.8640   -1.0790 N   0  0  0  0  0  0  0  0  0  0  0  0
    2.9600    1.9810   -1.2700 C   0  0  0  0  0  0  0  0  0  0  0  0
    2.4420    2.2230   -2.4370 N   0  0  0  0  0  0  0  0  0  0  0  0
    2.6500    2.8720   -0.2150 N   0  0  0  0  0  0  0  0  0  0  0  0
    1.3750    3.4160    0.0660 C   0  0  0  0  0  0  0  0  0  0  0  0
    0.4040    2.4190    0.6230 C   0  0  0  0  0  0  0  0  0  0  0  0
    0.1550    1.2870   -0.3020 C   0  0  0  0  0  0  0  0  0  0  0  0
   -0.8260    0.2490    0.2440 C   0  0  2  0  0  0  0  0  0  0  0  0
   -0.3990   -0.4470    1.4100 N   0  0  0  0  0  0  0  0  0  0  0  0
   -1.5270   -0.5120   -0.7700 C   0  0  0  0  0  0  0  0  0  0  0  0
   -1.9760   -0.0230   -1.8520 O   0  0  0  0  0  0  0  0  0  0  0  0
    3.8170    0.0650   -1.7440 H   0  0  0  0  0  0  0  0  0  0  0  0
    4.4500    0.8150   -0.2570 H   0  0  0  0  0  0  0  0  0  0  0  0
    1.8210    3.0070   -2.6610 H   0  0  0  0  0  0  0  0  0  0  0  0
    3.4650    3.1430    0.4180 H   0  0  0  0  0  0  0  0  0  0  0  0
    1.4220    4.3300    0.7180 H   0  0  0  0  0  0  0  0  0  0  0  0
    0.9470    3.8310   -0.9010 H   0  0  0  0  0  0  0  0  0  0  0  0
   -0.5940    3.0480    0.6520 H   0  0  0  0  0  0  0  0  0  0  0  0
    0.5320    2.2120    1.6820 H   0  0  0  0  0  0  0  0  0  0  0  0
    1.0560    0.7330   -0.6130 H   0  0  0  0  0  0  0  0  0  0  0  0
   -0.2540    1.7200   -1.2520 H   0  0  0  0  0  0  0  0  0  0  0  0
   -1.6170    0.9990    0.6890 H   0  0  0  0  0  0  0  0  0  0  0  0
   -1.1260   -1.0230    1.9800 H   0  0  0  0  0  0  0  0  0  0  0  0
   -1.7620   -1.9130   -0.6000 N   0  0  0  0  0  0  0  0  0  0  0  0
   -2.4680   -2.7070   -1.6040 C   0  0  1  0  0  0  0  0  0  0  0  0
   -1.6270   -3.8640   -2.0670 C   0  0  0  0  0  0  0  0  0  0  0  0
   -2.3350   -4.6310   -3.1050 C   0  0  0  0  0  0  0  0  0  0  0  0
   -1.9820   -5.8240   -3.3900 O   0  0  0  0  0  0  0  0  0  0  0  0
   -3.6460   -3.2620   -0.9050 C   0  0  0  0  0  0  0  0  0  0  0  0
   -3.8540   -3.0220    0.3020 O   0  0  0  0  0  0  0  0  0  0  0  0
   -3.4030   -4.1370   -3.8350 O   0  0  0  0  0  0  0  0  0  0  0  0
   -4.5440   -4.0580   -1.5680 O   0  0  0  0  0  0  0  0  0  0  0  0
   -1.4290   -2.4010    0.2590 H   0  0  0  0  0  0  0  0  0  0  0  0
   -2.8130   -2.1060   -2.4620 H   0  0  0  0  0  0  0  0  0  0  0  0
   -0.6510   -3.5460   -2.4810 H   0  0  0  0  0  0  0  0  0  0  0  0
   -1.3900   -4.5690   -1.2440 H   0  0  0  0  0  0  0  0  0  0  0  0
   -3.6180   -4.4110   -4.7750 H   0  0  0  0  0  0  0  0  0  0  0  0
  1 10  1  0  0  0  0
  1  9  1  0  0  0  0
  2  3  2  0  0  0  0
  2  1  1  0  0  0  0
  4 11  1  0  0  0  0
  4  2  1  0  0  0  0
  5 13  1  6  0  0  0
  5  6  1  0  0  0  0
  5  4  1  0  0  0  0
  6 15  1  0  0  0  0
  7  5  1  0  0  0  0
  8  7  2  0  0  0  0
 12  4  1  0  0  0  0
 14  6  1  0  0  0  0
 16 28  1  0  0  0  0
 17 16  1  0  0  0  0
 17 19  1  0  0  0  0
 18 17  2  0  0  0  0
 19 20  1  0  0  0  0
 19 30  1  0  0  0  0
 20 21  1  0  0  0  0
 20 31  1  0  0  0  0
 21 33  1  0  0  0  0
 21 34  1  0  0  0  0
 22 23  1  0  0  0  0
 22 21  1  0  0  0  0
 23 37  1  1  0  0  0
 23 24  1  0  0  0  0
 24  7  1  0  0  0  0
 24 38  1  0  0  0  0
 25 39  1  0  0  0  0
 25 23  1  0  0  0  0
 26 25  2  0  0  0  0
 27 16  1  0  0  0  0
 29 18  1  0  0  0  0
 32 20  1  0  0  0  0
 35 22  1  0  0  0  0
 36 22  1  0  0  0  0
 39 48  1  0  0  0  0
 40 49  1  6  0  0  0
 40 44  1  0  0  0  0
 40 39  1  0  0  0  0
 41 40  1  0  0  0  0
 41 51  1  0  0  0  0
 42 41  1  0  0  0  0
 43 42  2  0  0  0  0
 44 45  1  0  0  0  0
 46 42  1  0  0  0  0
 47 44  2  0  0  0  0
 50 41  1  0  0  0  0
 52 46  1  0  0  0  0
M  END
$$$$
