NRE.pdb
 OpenBabel07022418083D

 55 54  0  0  1  0  0  0  0  0999 V2000
    0.7070   -3.4420    2.6990 N   0  0  0  0  0  0  0  0  0  0  0  0
    2.0130   -2.9210    2.5450 C   0  0  0  0  0  0  0  0  0  0  0  0
    2.8320   -3.1980    3.4870 O   0  0  0  0  0  0  0  0  0  0  0  0
    2.4880   -2.1000    1.4050 C   0  0  0  0  0  0  0  0  0  0  0  0
    2.2710   -0.6040    1.6730 C   0  0  2  0  0  0  0  0  0  0  0  0
    2.9700   -0.2120    2.8710 N   0  0  0  0  0  0  0  0  0  0  0  0
    0.8190   -0.2950    1.7030 C   0  0  0  0  0  0  0  0  0  0  0  0
    0.1680   -0.2180    2.7840 O   0  0  0  0  0  0  0  0  0  0  0  0
    0.3070   -3.5740    3.6540 H   0  0  0  0  0  0  0  0  0  0  0  0
    0.0970   -3.7100    1.8960 H   0  0  0  0  0  0  0  0  0  0  0  0
    1.9690   -2.3270    0.4590 H   0  0  0  0  0  0  0  0  0  0  0  0
    3.5670   -2.2590    1.3050 H   0  0  0  0  0  0  0  0  0  0  0  0
    2.7100   -0.0780    0.8010 H   0  0  0  0  0  0  0  0  0  0  0  0
    2.3600    0.2840    3.5400 H   0  0  0  0  0  0  0  0  0  0  0  0
    3.5140   -1.0030    3.2360 H   0  0  0  0  0  0  0  0  0  0  0  0
    2.0890    5.6650    2.3040 N   0  0  0  0  0  0  0  0  0  0  0  0
    1.6240    4.9820    1.1150 C   0  0  0  0  0  0  0  0  0  0  0  0
    2.3530    4.9050    0.0580 N   0  0  0  0  0  0  0  0  0  0  0  0
    0.3450    4.3820    1.0860 N   0  0  0  0  0  0  0  0  0  0  0  0
    0.1440    3.1240    0.4130 C   0  0  0  0  0  0  0  0  0  0  0  0
   -1.3230    2.7800    0.5060 C   0  0  0  0  0  0  0  0  0  0  0  0
   -1.7490    1.5160   -0.1020 C   0  0  0  0  0  0  0  0  0  0  0  0
   -1.2600    0.2260    0.4320 C   0  0  2  0  0  0  0  0  0  0  0  0
    0.1070   -0.0640    0.4670 N   0  0  0  0  0  0  0  0  0  0  0  0
   -2.0560   -0.8270   -0.3400 C   0  0  0  0  0  0  0  0  0  0  0  0
   -3.2880   -0.5730   -0.3360 O   0  0  0  0  0  0  0  0  0  0  0  0
    2.8220    5.2310    2.9160 H   0  0  0  0  0  0  0  0  0  0  0  0
    1.6590    6.5960    2.5070 H   0  0  0  0  0  0  0  0  0  0  0  0
    3.3120    5.3670    0.0990 H   0  0  0  0  0  0  0  0  0  0  0  0
   -0.4530    4.8470    1.5530 H   0  0  0  0  0  0  0  0  0  0  0  0
    0.4180    3.3040   -0.6890 H   0  0  0  0  0  0  0  0  0  0  0  0
    0.8350    2.3420    0.7290 H   0  0  0  0  0  0  0  0  0  0  0  0
   -1.6900    2.9160    1.5580 H   0  0  0  0  0  0  0  0  0  0  0  0
   -1.8620    3.6100   -0.0500 H   0  0  0  0  0  0  0  0  0  0  0  0
   -1.5220    1.6040   -1.2170 H   0  0  0  0  0  0  0  0  0  0  0  0
   -2.8820    1.5140   -0.1100 H   0  0  0  0  0  0  0  0  0  0  0  0
   -1.6670    0.1160    1.4870 H   0  0  0  0  0  0  0  0  0  0  0  0
    0.6860   -0.1240   -0.3860 H   0  0  0  0  0  0  0  0  0  0  0  0
   -1.4130   -1.9070   -0.9450 N   0  0  0  0  0  0  0  0  0  0  0  0
   -2.0750   -2.9040   -1.7000 C   0  0  1  0  0  0  0  0  0  0  0  0
   -2.0000   -4.2860   -1.1770 C   0  0  0  0  0  0  0  0  0  0  0  0
   -0.6180   -4.8620   -1.0830 C   0  0  0  0  0  0  0  0  0  0  0  0
   -0.6320   -6.2350   -0.5330 C   0  0  0  0  0  0  0  0  0  0  0  0
   -1.3190   -6.4280    0.5200 O   0  0  0  0  0  0  0  0  0  0  0  0
   -3.3740   -2.6000   -2.3020 C   0  0  0  0  0  0  0  0  0  0  0  0
   -3.9180   -1.5060   -2.3680 O   0  0  0  0  0  0  0  0  0  0  0  0
    0.0400   -7.2760   -1.0890 O   0  0  0  0  0  0  0  0  0  0  0  0
   -4.0980   -3.6710   -2.8780 O   0  0  0  0  0  0  0  0  0  0  0  0
   -0.3480   -1.9340   -0.8050 H   0  0  0  0  0  0  0  0  0  0  0  0
   -1.4170   -2.9700   -2.7020 H   0  0  0  0  0  0  0  0  0  0  0  0
   -2.5370   -4.4370   -0.2140 H   0  0  0  0  0  0  0  0  0  0  0  0
   -2.5510   -4.9390   -1.9170 H   0  0  0  0  0  0  0  0  0  0  0  0
   -0.0120   -4.2090   -0.4260 H   0  0  0  0  0  0  0  0  0  0  0  0
   -0.1150   -4.8320   -2.0800 H   0  0  0  0  0  0  0  0  0  0  0  0
    0.3200   -8.1240   -0.5780 H   0  0  0  0  0  0  0  0  0  0  0  0
  1  9  1  0  0  0  0
  2  1  1  0  0  0  0
  2  3  2  0  0  0  0
  4  5  1  0  0  0  0
  4  2  1  0  0  0  0
  5 13  1  6  0  0  0
  5  7  1  0  0  0  0
  5  6  1  0  0  0  0
  6 15  1  0  0  0  0
  6 14  1  0  0  0  0
  7  8  2  0  0  0  0
 10  1  1  0  0  0  0
 11  4  1  0  0  0  0
 12  4  1  0  0  0  0
 16 28  1  0  0  0  0
 16 27  1  0  0  0  0
 17 16  1  0  0  0  0
 18 29  1  0  0  0  0
 18 17  2  0  0  0  0
 19 17  1  0  0  0  0
 19 30  1  0  0  0  0
 20 21  1  0  0  0  0
 20 32  1  0  0  0  0
 20 19  1  0  0  0  0
 21 33  1  0  0  0  0
 22 23  1  0  0  0  0
 22 21  1  0  0  0  0
 23 24  1  0  0  0  0
 23 37  1  1  0  0  0
 24  7  1  0  0  0  0
 25 26  2  0  0  0  0
 25 23  1  0  0  0  0
 31 20  1  0  0  0  0
 34 21  1  0  0  0  0
 35 22  1  0  0  0  0
 36 22  1  0  0  0  0
 38 24  1  0  0  0  0
 39 49  1  0  0  0  0
 39 25  1  0  0  0  0
 40 50  1  6  0  0  0
 40 41  1  0  0  0  0
 40 39  1  0  0  0  0
 41 42  1  0  0  0  0
 41 51  1  0  0  0  0
 42 43  1  0  0  0  0
 42 53  1  0  0  0  0
 43 44  2  0  0  0  0
 45 40  1  0  0  0  0
 46 45  1  0  0  0  0
 47 55  1  0  0  0  0
 47 43  1  0  0  0  0
 48 45  2  0  0  0  0
 52 41  1  0  0  0  0
 54 42  1  0  0  0  0
M  END
$$$$
