NRF.pdb
 OpenBabel07022418083D

 59 59  0  0  1  0  0  0  0  0999 V2000
   -2.1930   -2.0740    6.2360 N   0  0  0  0  0  0  0  0  0  0  0  0
   -2.4090   -2.2680    4.8240 C   0  0  0  0  0  0  0  0  0  0  0  0
   -3.5380   -2.1030    4.3520 O   0  0  0  0  0  0  0  0  0  0  0  0
   -1.2320   -2.6570    4.0330 C   0  0  0  0  0  0  0  0  0  0  0  0
   -1.4850   -2.7190    2.5490 C   0  0  2  0  0  0  0  0  0  0  0  0
   -0.2080   -3.1670    1.9530 N   0  0  0  0  0  0  0  0  0  0  0  0
   -1.7980   -1.3670    2.0090 C   0  0  0  0  0  0  0  0  0  0  0  0
   -2.8490   -0.7960    2.3250 O   0  0  0  0  0  0  0  0  0  0  0  0
   -1.4420   -2.6260    6.6940 H   0  0  0  0  0  0  0  0  0  0  0  0
   -2.7960   -1.3840    6.7700 H   0  0  0  0  0  0  0  0  0  0  0  0
   -0.4580   -1.8540    4.2410 H   0  0  0  0  0  0  0  0  0  0  0  0
   -0.7570   -3.5940    4.4100 H   0  0  0  0  0  0  0  0  0  0  0  0
   -2.2880   -3.4210    2.3060 H   0  0  0  0  0  0  0  0  0  0  0  0
   -0.0330   -4.1080    2.4000 H   0  0  0  0  0  0  0  0  0  0  0  0
    0.5140   -2.5250    2.3840 H   0  0  0  0  0  0  0  0  0  0  0  0
    4.6280    3.1230    0.8580 N   0  0  0  0  0  0  0  0  0  0  0  0
    3.5600    3.3800    1.7420 C   0  0  0  0  0  0  0  0  0  0  0  0
    3.5910    4.3920    2.5350 N   0  0  0  0  0  0  0  0  0  0  0  0
    2.4460    2.5080    1.7460 N   0  0  0  0  0  0  0  0  0  0  0  0
    1.2280    2.9150    2.4090 C   0  0  0  0  0  0  0  0  0  0  0  0
    0.1390    1.8640    2.3040 C   0  0  0  0  0  0  0  0  0  0  0  0
   -0.1630    1.6380    0.8530 C   0  0  0  0  0  0  0  0  0  0  0  0
   -1.2300    0.6160    0.6060 C   0  0  2  0  0  0  0  0  0  0  0  0
   -0.9170   -0.6840    1.1200 N   0  0  0  0  0  0  0  0  0  0  0  0
   -1.4330    0.5820   -0.8870 C   0  0  0  0  0  0  0  0  0  0  0  0
   -1.7290    1.6460   -1.4840 O   0  0  0  0  0  0  0  0  0  0  0  0
    5.4240    2.4890    1.1110 H   0  0  0  0  0  0  0  0  0  0  0  0
    4.6370    3.5720   -0.0770 H   0  0  0  0  0  0  0  0  0  0  0  0
    2.8380    4.6350    3.2080 H   0  0  0  0  0  0  0  0  0  0  0  0
    2.4750    1.5570    1.2770 H   0  0  0  0  0  0  0  0  0  0  0  0
    1.5120    3.0760    3.4910 H   0  0  0  0  0  0  0  0  0  0  0  0
    0.8860    3.8890    1.9960 H   0  0  0  0  0  0  0  0  0  0  0  0
    0.3700    0.9600    2.8610 H   0  0  0  0  0  0  0  0  0  0  0  0
   -0.7620    2.3170    2.8030 H   0  0  0  0  0  0  0  0  0  0  0  0
    0.7290    1.3640    0.2620 H   0  0  0  0  0  0  0  0  0  0  0  0
   -0.5410    2.6030    0.4230 H   0  0  0  0  0  0  0  0  0  0  0  0
   -2.1890    1.0180    0.9970 H   0  0  0  0  0  0  0  0  0  0  0  0
   -0.0300   -1.1490    0.8450 H   0  0  0  0  0  0  0  0  0  0  0  0
   -1.2760   -0.6620   -1.5390 N   0  0  0  0  0  0  0  0  0  0  0  0
   -1.4540   -0.7860   -2.9720 C   0  0  1  0  0  0  0  0  0  0  0  0
   -0.1860   -1.1760   -3.6660 C   0  0  0  0  0  0  0  0  0  0  0  0
    0.3750   -2.4750   -3.2130 C   0  0  0  0  0  0  0  0  0  0  0  0
    0.0540   -3.6820   -3.7980 C   0  0  0  0  0  0  0  0  0  0  0  0
    0.5980   -4.8650   -3.3490 C   0  0  0  0  0  0  0  0  0  0  0  0
    1.4850   -4.8880   -2.2960 C   0  0  0  0  0  0  0  0  0  0  0  0
    1.8290   -3.7040   -1.6870 C   0  0  0  0  0  0  0  0  0  0  0  0
    1.2790   -2.5320   -2.1450 C   0  0  0  0  0  0  0  0  0  0  0  0
   -2.5040   -1.7620   -3.2810 C   0  0  0  0  0  0  0  0  0  0  0  0
   -3.0980   -2.3500   -2.3390 O   0  0  0  0  0  0  0  0  0  0  0  0
   -2.8870   -2.0800   -4.5760 O   0  0  0  0  0  0  0  0  0  0  0  0
   -1.0270   -1.4840   -0.9530 H   0  0  0  0  0  0  0  0  0  0  0  0
   -1.7410    0.2200   -3.3570 H   0  0  0  0  0  0  0  0  0  0  0  0
   -0.4320   -1.2510   -4.7600 H   0  0  0  0  0  0  0  0  0  0  0  0
    0.5910   -0.4060   -3.5140 H   0  0  0  0  0  0  0  0  0  0  0  0
   -0.6480   -3.6620   -4.6330 H   0  0  0  0  0  0  0  0  0  0  0  0
    0.3020   -5.7780   -3.8570 H   0  0  0  0  0  0  0  0  0  0  0  0
    1.9140   -5.8410   -1.9470 H   0  0  0  0  0  0  0  0  0  0  0  0
    2.5250   -3.7440   -0.8650 H   0  0  0  0  0  0  0  0  0  0  0  0
    1.5390   -1.5900   -1.6760 H   0  0  0  0  0  0  0  0  0  0  0  0
  1  9  1  0  0  0  0
  1 10  1  0  0  0  0
  2  1  1  0  0  0  0
  3  2  2  0  0  0  0
  4 11  1  0  0  0  0
  4 12  1  0  0  0  0
  4  2  1  0  0  0  0
  5 13  1  6  0  0  0
  5  4  1  0  0  0  0
  6 15  1  0  0  0  0
  6 14  1  0  0  0  0
  6  5  1  0  0  0  0
  7  8  2  0  0  0  0
  7  5  1  0  0  0  0
 16 27  1  0  0  0  0
 16 17  1  0  0  0  0
 17 19  1  0  0  0  0
 17 18  2  0  0  0  0
 18 29  1  0  0  0  0
 19 20  1  0  0  0  0
 20 31  1  0  0  0  0
 21 20  1  0  0  0  0
 21 34  1  0  0  0  0
 21 33  1  0  0  0  0
 22 21  1  0  0  0  0
 23 22  1  0  0  0  0
 23 37  1  1  0  0  0
 23 24  1  0  0  0  0
 24  7  1  0  0  0  0
 25 23  1  0  0  0  0
 26 25  2  0  0  0  0
 28 16  1  0  0  0  0
 30 19  1  0  0  0  0
 32 20  1  0  0  0  0
 35 22  1  0  0  0  0
 36 22  1  0  0  0  0
 38 24  1  0  0  0  0
 39 51  1  0  0  0  0
 39 25  1  0  0  0  0
 40 52  1  6  0  0  0
 40 39  1  0  0  0  0
 41 54  1  0  0  0  0
 41 42  1  0  0  0  0
 41 40  1  0  0  0  0
 42 47  1  0  0  0  0
 43 44  1  0  0  0  0
 43 42  2  0  0  0  0
 44 45  2  0  0  0  0
 45 57  1  0  0  0  0
 45 46  1  0  0  0  0
 46 58  1  0  0  0  0
 47 46  2  0  0  0  0
 47 59  1  0  0  0  0
 48 40  1  0  0  0  0
 48 49  1  0  0  0  0
 50 48  2  0  0  0  0
 53 41  1  0  0  0  0
 55 43  1  0  0  0  0
 56 44  1  0  0  0  0
M  END
$$$$
