NRK.pdb
 OpenBabel07022418083D

 60 59  0  0  1  0  0  0  0  0999 V2000
   -0.1440   -2.5930    3.6320 N   0  0  0  0  0  0  0  0  0  0  0  0
    0.6970   -3.0180    2.5830 C   0  0  0  0  0  0  0  0  0  0  0  0
    0.6350   -4.2160    2.2140 O   0  0  0  0  0  0  0  0  0  0  0  0
    1.6540   -2.1080    1.8980 C   0  0  0  0  0  0  0  0  0  0  0  0
    1.5970   -0.7150    2.5070 C   0  0  2  0  0  0  0  0  0  0  0  0
    1.9370   -0.7920    3.9290 N   0  0  0  0  0  0  0  0  0  0  0  0
    0.2700   -0.0850    2.3220 C   0  0  0  0  0  0  0  0  0  0  0  0
   -0.5160    0.1800    3.2710 O   0  0  0  0  0  0  0  0  0  0  0  0
    0.2800   -2.3880    4.5500 H   0  0  0  0  0  0  0  0  0  0  0  0
   -1.1630   -2.4800    3.5180 H   0  0  0  0  0  0  0  0  0  0  0  0
    1.3610   -2.0640    0.8330 H   0  0  0  0  0  0  0  0  0  0  0  0
    2.6650   -2.5330    1.9670 H   0  0  0  0  0  0  0  0  0  0  0  0
    2.3470   -0.0770    2.0010 H   0  0  0  0  0  0  0  0  0  0  0  0
    1.9200    0.1670    4.3240 H   0  0  0  0  0  0  0  0  0  0  0  0
    2.9300   -1.1150    3.9760 H   0  0  0  0  0  0  0  0  0  0  0  0
    3.4950    5.2010    1.7880 N   0  0  0  0  0  0  0  0  0  0  0  0
    2.8950    4.2440    0.9300 C   0  0  0  0  0  0  0  0  0  0  0  0
    3.6510    3.4000    0.2940 N   0  0  0  0  0  0  0  0  0  0  0  0
    1.4860    4.1960    0.7590 N   0  0  0  0  0  0  0  0  0  0  0  0
    0.8580    2.9270    0.3580 C   0  0  0  0  0  0  0  0  0  0  0  0
   -0.6110    3.1740    0.2570 C   0  0  0  0  0  0  0  0  0  0  0  0
   -1.4420    2.0250   -0.1610 C   0  0  0  0  0  0  0  0  0  0  0  0
   -1.4460    0.8690    0.7630 C   0  0  2  0  0  0  0  0  0  0  0  0
   -0.1830    0.2610    0.9950 N   0  0  0  0  0  0  0  0  0  0  0  0
   -2.3750   -0.1490    0.1130 C   0  0  0  0  0  0  0  0  0  0  0  0
   -3.5680    0.1120   -0.1460 O   0  0  0  0  0  0  0  0  0  0  0  0
    4.5220    5.3320    1.8380 H   0  0  0  0  0  0  0  0  0  0  0  0
    2.8900    5.7870    2.3820 H   0  0  0  0  0  0  0  0  0  0  0  0
    4.6740    3.4060    0.3940 H   0  0  0  0  0  0  0  0  0  0  0  0
    0.9240    5.0540    0.9190 H   0  0  0  0  0  0  0  0  0  0  0  0
    1.2820    2.6740   -0.6530 H   0  0  0  0  0  0  0  0  0  0  0  0
    1.1900    2.1580    1.0430 H   0  0  0  0  0  0  0  0  0  0  0  0
   -1.0110    3.5730    1.2300 H   0  0  0  0  0  0  0  0  0  0  0  0
   -0.7850    4.0550   -0.4460 H   0  0  0  0  0  0  0  0  0  0  0  0
   -1.0900    1.6070   -1.1670 H   0  0  0  0  0  0  0  0  0  0  0  0
   -2.5230    2.3390   -0.3310 H   0  0  0  0  0  0  0  0  0  0  0  0
   -1.9270    1.1360    1.7600 H   0  0  0  0  0  0  0  0  0  0  0  0
    0.4550    0.0440    0.2090 H   0  0  0  0  0  0  0  0  0  0  0  0
   -1.9120   -1.4210   -0.2190 N   0  0  0  0  0  0  0  0  0  0  0  0
   -2.6800   -2.4430   -0.8260 C   0  0  1  0  0  0  0  0  0  0  0  0
   -2.4920   -2.7600   -2.2230 C   0  0  0  0  0  0  0  0  0  0  0  0
   -1.2510   -3.1720   -2.8620 C   0  0  0  0  0  0  0  0  0  0  0  0
   -0.4980   -4.3850   -2.4860 C   0  0  0  0  0  0  0  0  0  0  0  0
    0.1190   -4.5080   -1.1570 C   0  0  0  0  0  0  0  0  0  0  0  0
    0.8120   -5.8250   -1.1300 N   0  0  0  0  0  0  0  0  0  0  0  0
   -2.9080   -3.5410    0.1290 C   0  0  0  0  0  0  0  0  0  0  0  0
   -2.4460   -3.4390    1.2910 O   0  0  0  0  0  0  0  0  0  0  0  0
   -3.6060   -4.7090   -0.1470 O   0  0  0  0  0  0  0  0  0  0  0  0
   -0.8980   -1.7010   -0.0190 H   0  0  0  0  0  0  0  0  0  0  0  0
   -3.7630   -1.9350   -0.8350 H   0  0  0  0  0  0  0  0  0  0  0  0
   -3.2300   -3.6340   -2.4240 H   0  0  0  0  0  0  0  0  0  0  0  0
   -3.0350   -1.9630   -2.8390 H   0  0  0  0  0  0  0  0  0  0  0  0
   -0.5120   -2.3010   -2.9750 H   0  0  0  0  0  0  0  0  0  0  0  0
   -1.4910   -3.3390   -3.9850 H   0  0  0  0  0  0  0  0  0  0  0  0
   -1.2040   -5.2800   -2.6540 H   0  0  0  0  0  0  0  0  0  0  0  0
    0.3150   -4.6270   -3.2370 H   0  0  0  0  0  0  0  0  0  0  0  0
    0.9460   -3.7450   -1.0220 H   0  0  0  0  0  0  0  0  0  0  0  0
   -0.4680   -4.4950   -0.2670 H   0  0  0  0  0  0  0  0  0  0  0  0
    0.1160   -6.5490   -0.8030 H   0  0  0  0  0  0  0  0  0  0  0  0
    1.0830   -6.0860   -2.0940 H   0  0  0  0  0  0  0  0  0  0  0  0
  1  9  1  0  0  0  0
  2  1  1  0  0  0  0
  3  2  2  0  0  0  0
  4 12  1  0  0  0  0
  4  5  1  0  0  0  0
  4  2  1  0  0  0  0
  5 13  1  6  0  0  0
  5  6  1  0  0  0  0
  6 15  1  0  0  0  0
  6 14  1  0  0  0  0
  7  5  1  0  0  0  0
  7  8  2  0  0  0  0
 10  1  1  0  0  0  0
 11  4  1  0  0  0  0
 16 27  1  0  0  0  0
 16 28  1  0  0  0  0
 17 16  1  0  0  0  0
 18 29  1  0  0  0  0
 18 17  2  0  0  0  0
 19 30  1  0  0  0  0
 19 17  1  0  0  0  0
 20 19  1  0  0  0  0
 20 32  1  0  0  0  0
 21 20  1  0  0  0  0
 21 33  1  0  0  0  0
 22 21  1  0  0  0  0
 22 23  1  0  0  0  0
 23 24  1  0  0  0  0
 23 37  1  1  0  0  0
 24  7  1  0  0  0  0
 25 23  1  0  0  0  0
 26 25  2  0  0  0  0
 31 20  1  0  0  0  0
 34 21  1  0  0  0  0
 35 22  1  0  0  0  0
 36 22  1  0  0  0  0
 38 24  1  0  0  0  0
 39 49  1  0  0  0  0
 39 25  1  0  0  0  0
 40 50  1  6  0  0  0
 40 39  1  0  0  0  0
 40 46  1  0  0  0  0
 41 40  1  0  0  0  0
 42 43  1  0  0  0  0
 42 41  1  0  0  0  0
 43 44  1  0  0  0  0
 44 45  1  0  0  0  0
 44 57  1  0  0  0  0
 44 58  1  0  0  0  0
 45 59  1  0  0  0  0
 46 47  1  0  0  0  0
 48 46  2  0  0  0  0
 51 41  1  0  0  0  0
 52 41  1  0  0  0  0
 53 42  1  0  0  0  0
 54 42  1  0  0  0  0
 55 43  1  0  0  0  0
 56 43  1  0  0  0  0
 60 45  1  0  0  0  0
M  END
$$$$
