NRL.pdb
 OpenBabel07022418083D

 58 57  0  0  1  0  0  0  0  0999 V2000
    1.3630   -3.7560    3.7270 N   0  0  0  0  0  0  0  0  0  0  0  0
    1.0110   -2.4650    4.2010 C   0  0  0  0  0  0  0  0  0  0  0  0
   -0.0780   -2.2050    4.7700 O   0  0  0  0  0  0  0  0  0  0  0  0
    1.9930   -1.3520    4.0110 C   0  0  0  0  0  0  0  0  0  0  0  0
    1.4580   -0.0590    4.5910 C   0  0  2  0  0  0  0  0  0  0  0  0
    1.1930   -0.1730    6.0020 N   0  0  0  0  0  0  0  0  0  0  0  0
    0.2590    0.3430    3.8210 C   0  0  0  0  0  0  0  0  0  0  0  0
   -0.8330    0.5070    4.3900 O   0  0  0  0  0  0  0  0  0  0  0  0
    0.9900   -4.6000    4.2070 H   0  0  0  0  0  0  0  0  0  0  0  0
    1.9870   -3.9030    2.9080 H   0  0  0  0  0  0  0  0  0  0  0  0
    2.1390   -1.2460    2.9190 H   0  0  0  0  0  0  0  0  0  0  0  0
    2.9680   -1.6320    4.4790 H   0  0  0  0  0  0  0  0  0  0  0  0
    2.2690    0.7040    4.4830 H   0  0  0  0  0  0  0  0  0  0  0  0
    1.4900   -1.1070    6.3730 H   0  0  0  0  0  0  0  0  0  0  0  0
    1.6740    0.5560    6.5760 H   0  0  0  0  0  0  0  0  0  0  0  0
    2.4300   -1.1870   -2.0460 N   0  0  0  0  0  0  0  0  0  0  0  0
    1.7270    0.0300   -2.2510 C   0  0  0  0  0  0  0  0  0  0  0  0
    1.5040    0.5170   -3.3980 N   0  0  0  0  0  0  0  0  0  0  0  0
    1.2510    0.7390   -1.0930 N   0  0  0  0  0  0  0  0  0  0  0  0
    0.7720    2.0810   -1.1800 C   0  0  0  0  0  0  0  0  0  0  0  0
    0.4180    2.7130    0.0980 C   0  0  0  0  0  0  0  0  0  0  0  0
   -0.6600    2.2750    0.9630 C   0  0  0  0  0  0  0  0  0  0  0  0
   -0.7330    0.9330    1.5750 C   0  0  2  0  0  0  0  0  0  0  0  0
    0.3630    0.5450    2.3950 N   0  0  0  0  0  0  0  0  0  0  0  0
   -1.3270   -0.1310    0.7540 C   0  0  0  0  0  0  0  0  0  0  0  0
   -2.4140    0.2040    0.1680 O   0  0  0  0  0  0  0  0  0  0  0  0
    3.1250   -1.5700   -2.7560 H   0  0  0  0  0  0  0  0  0  0  0  0
    2.3130   -1.7820   -1.1950 H   0  0  0  0  0  0  0  0  0  0  0  0
    0.9980    1.3930   -3.5260 H   0  0  0  0  0  0  0  0  0  0  0  0
    1.2900    0.2100   -0.2150 H   0  0  0  0  0  0  0  0  0  0  0  0
   -0.0400    2.1780   -1.9610 H   0  0  0  0  0  0  0  0  0  0  0  0
    1.6240    2.6570   -1.6840 H   0  0  0  0  0  0  0  0  0  0  0  0
    0.1910    3.8260   -0.1580 H   0  0  0  0  0  0  0  0  0  0  0  0
    1.3980    2.8830    0.6840 H   0  0  0  0  0  0  0  0  0  0  0  0
   -1.6550    2.4590    0.4300 H   0  0  0  0  0  0  0  0  0  0  0  0
   -0.7620    3.0390    1.8250 H   0  0  0  0  0  0  0  0  0  0  0  0
   -1.6010    1.0550    2.3990 H   0  0  0  0  0  0  0  0  0  0  0  0
    1.3200    0.3860    2.0250 H   0  0  0  0  0  0  0  0  0  0  0  0
   -0.8550   -1.7200   -3.9180 C   0  0  0  0  0  0  0  0  0  0  0  0
   -1.4160   -1.3820   -2.5220 C   0  0  0  0  0  0  0  0  0  0  0  0
   -2.9310   -1.2280   -2.6670 C   0  0  0  0  0  0  0  0  0  0  0  0
   -1.0790   -2.5620   -1.6690 C   0  0  0  0  0  0  0  0  0  0  0  0
   -1.4850   -2.4720   -0.2360 C   0  0  2  0  0  0  0  0  0  0  0  0
   -0.8770   -1.4300    0.5380 N   0  0  0  0  0  0  0  0  0  0  0  0
   -1.4690   -3.8010    0.3690 C   0  0  0  0  0  0  0  0  0  0  0  0
   -1.9840   -4.7860   -0.2550 O   0  0  0  0  0  0  0  0  0  0  0  0
   -0.9270   -4.1070    1.6060 O   0  0  0  0  0  0  0  0  0  0  0  0
   -0.9580   -0.8480   -4.5740 H   0  0  0  0  0  0  0  0  0  0  0  0
   -1.3270   -2.6430   -4.3190 H   0  0  0  0  0  0  0  0  0  0  0  0
    0.2120   -1.9630   -3.7630 H   0  0  0  0  0  0  0  0  0  0  0  0
   -1.0250   -0.4240   -2.2340 H   0  0  0  0  0  0  0  0  0  0  0  0
   -3.4920   -1.9900   -2.1120 H   0  0  0  0  0  0  0  0  0  0  0  0
   -3.2150   -0.2020   -2.4050 H   0  0  0  0  0  0  0  0  0  0  0  0
   -3.1810   -1.3850   -3.7430 H   0  0  0  0  0  0  0  0  0  0  0  0
   -0.0180   -2.8490   -1.8110 H   0  0  0  0  0  0  0  0  0  0  0  0
   -1.6590   -3.4340   -2.0940 H   0  0  0  0  0  0  0  0  0  0  0  0
   -2.5960   -2.1650   -0.3090 H   0  0  0  0  0  0  0  0  0  0  0  0
    0.0510   -1.6710    1.0210 H   0  0  0  0  0  0  0  0  0  0  0  0
  1  2  1  0  0  0  0
  1  9  1  0  0  0  0
  2  3  2  0  0  0  0
  4  2  1  0  0  0  0
  4 12  1  0  0  0  0
  4  5  1  0  0  0  0
  5 13  1  6  0  0  0
  5  6  1  0  0  0  0
  6 14  1  0  0  0  0
  6 15  1  0  0  0  0
  7  8  2  0  0  0  0
  7  5  1  0  0  0  0
 10  1  1  0  0  0  0
 11  4  1  0  0  0  0
 16 28  1  0  0  0  0
 17 16  1  0  0  0  0
 17 19  1  0  0  0  0
 18 17  2  0  0  0  0
 19 30  1  0  0  0  0
 20 19  1  0  0  0  0
 20 21  1  0  0  0  0
 21 34  1  0  0  0  0
 21 22  1  0  0  0  0
 22 23  1  0  0  0  0
 22 36  1  0  0  0  0
 23 24  1  0  0  0  0
 23 37  1  1  0  0  0
 24  7  1  0  0  0  0
 25 23  1  0  0  0  0
 26 25  2  0  0  0  0
 27 16  1  0  0  0  0
 29 18  1  0  0  0  0
 31 20  1  0  0  0  0
 32 20  1  0  0  0  0
 33 21  1  0  0  0  0
 35 22  1  0  0  0  0
 38 24  1  0  0  0  0
 39 50  1  0  0  0  0
 39 40  1  0  0  0  0
 40 51  1  0  0  0  0
 40 42  1  0  0  0  0
 41 40  1  0  0  0  0
 41 53  1  0  0  0  0
 41 52  1  0  0  0  0
 42 43  1  0  0  0  0
 43 57  1  6  0  0  0
 43 45  1  0  0  0  0
 43 44  1  0  0  0  0
 44 25  1  0  0  0  0
 44 58  1  0  0  0  0
 45 47  1  0  0  0  0
 46 45  2  0  0  0  0
 48 39  1  0  0  0  0
 49 39  1  0  0  0  0
 54 41  1  0  0  0  0
 55 42  1  0  0  0  0
 56 42  1  0  0  0  0
M  END
$$$$
