NRP.pdb
 OpenBabel07022418083D

 53 53  0  0  1  0  0  0  0  0999 V2000
    3.4090   -3.5870    4.1650 N   0  0  0  0  0  0  0  0  0  0  0  0
    2.0390   -3.9430    4.1600 C   0  0  0  0  0  0  0  0  0  0  0  0
    1.5940   -4.8750    4.8800 O   0  0  0  0  0  0  0  0  0  0  0  0
    1.1080   -3.2090    3.2930 C   0  0  0  0  0  0  0  0  0  0  0  0
    0.3190   -2.1890    4.0790 C   0  0  2  0  0  0  0  0  0  0  0  0
   -0.4340   -2.8850    5.1050 N   0  0  0  0  0  0  0  0  0  0  0  0
   -0.6510   -1.5440    3.1230 C   0  0  0  0  0  0  0  0  0  0  0  0
   -1.8830   -1.6330    3.2490 O   0  0  0  0  0  0  0  0  0  0  0  0
    3.9080   -3.6170    3.2490 H   0  0  0  0  0  0  0  0  0  0  0  0
    3.8930   -3.3090    5.0460 H   0  0  0  0  0  0  0  0  0  0  0  0
    1.6650   -2.6870    2.5140 H   0  0  0  0  0  0  0  0  0  0  0  0
    0.3910   -3.8950    2.7730 H   0  0  0  0  0  0  0  0  0  0  0  0
    0.9590   -1.4290    4.5410 H   0  0  0  0  0  0  0  0  0  0  0  0
   -0.8660   -3.7160    4.6410 H   0  0  0  0  0  0  0  0  0  0  0  0
   -1.2430   -2.3120    5.4600 H   0  0  0  0  0  0  0  0  0  0  0  0
    3.4010   -0.8550   -0.5450 N   0  0  0  0  0  0  0  0  0  0  0  0
    2.6850    0.2540   -0.0570 C   0  0  0  0  0  0  0  0  0  0  0  0
    3.0130    0.8200    1.0410 N   0  0  0  0  0  0  0  0  0  0  0  0
    1.5510    0.8190   -0.7670 N   0  0  0  0  0  0  0  0  0  0  0  0
    0.9670    2.0430   -0.3530 C   0  0  0  0  0  0  0  0  0  0  0  0
    0.2310    2.0910    0.9330 C   0  0  0  0  0  0  0  0  0  0  0  0
   -0.9930    1.3180    1.1340 C   0  0  0  0  0  0  0  0  0  0  0  0
   -1.0440   -0.1420    1.0540 C   0  0  2  0  0  0  0  0  0  0  0  0
   -0.1480   -0.7950    2.0220 N   0  0  0  0  0  0  0  0  0  0  0  0
   -0.9860   -0.8160   -0.2370 C   0  0  0  0  0  0  0  0  0  0  0  0
   -0.1150   -1.7650   -0.3530 O   0  0  0  0  0  0  0  0  0  0  0  0
    4.4620   -0.8820   -0.5050 H   0  0  0  0  0  0  0  0  0  0  0  0
    2.9080   -1.6680   -0.9530 H   0  0  0  0  0  0  0  0  0  0  0  0
    3.8050    0.5410    1.6670 H   0  0  0  0  0  0  0  0  0  0  0  0
    1.2300    0.2760   -1.5810 H   0  0  0  0  0  0  0  0  0  0  0  0
    1.8380    2.7780   -0.2590 H   0  0  0  0  0  0  0  0  0  0  0  0
    0.3240    2.4440   -1.1860 H   0  0  0  0  0  0  0  0  0  0  0  0
    0.9630    1.9120    1.7800 H   0  0  0  0  0  0  0  0  0  0  0  0
   -0.0090    3.2050    1.0900 H   0  0  0  0  0  0  0  0  0  0  0  0
   -1.4340    1.6480    2.1590 H   0  0  0  0  0  0  0  0  0  0  0  0
   -1.7940    1.7420    0.4490 H   0  0  0  0  0  0  0  0  0  0  0  0
   -2.1300   -0.3930    1.4180 H   0  0  0  0  0  0  0  0  0  0  0  0
    0.8790   -0.7260    1.9250 H   0  0  0  0  0  0  0  0  0  0  0  0
   -1.7530   -0.5840   -1.3900 N   0  0  0  0  0  0  0  0  0  0  0  0
   -2.8060    0.4190   -1.5190 C   0  0  0  0  0  0  0  0  0  0  0  0
   -3.7170   -0.0880   -2.6380 C   0  0  0  0  0  0  0  0  0  0  0  0
   -3.1700   -1.4390   -2.9530 C   0  0  0  0  0  0  0  0  0  0  0  0
   -1.6730   -1.3030   -2.6630 C   0  0  1  0  0  0  0  0  0  0  0  0
   -0.9980   -0.5580   -3.7260 C   0  0  0  0  0  0  0  0  0  0  0  0
   -0.8370   -1.1340   -4.8320 O   0  0  0  0  0  0  0  0  0  0  0  0
   -0.5240    0.7330   -3.6010 O   0  0  0  0  0  0  0  0  0  0  0  0
   -3.4020    0.4160   -0.5900 H   0  0  0  0  0  0  0  0  0  0  0  0
   -2.3720    1.3910   -1.7800 H   0  0  0  0  0  0  0  0  0  0  0  0
   -4.7750   -0.1080   -2.3200 H   0  0  0  0  0  0  0  0  0  0  0  0
   -3.5990    0.5980   -3.5010 H   0  0  0  0  0  0  0  0  0  0  0  0
   -3.6150   -2.2130   -2.3270 H   0  0  0  0  0  0  0  0  0  0  0  0
   -3.3340   -1.6900   -4.0240 H   0  0  0  0  0  0  0  0  0  0  0  0
   -1.1830   -2.2610   -2.4860 H   0  0  0  0  0  0  0  0  0  0  0  0
  1 10  1  0  0  0  0
  2  1  1  0  0  0  0
  2  3  2  0  0  0  0
  4  5  1  0  0  0  0
  4  2  1  0  0  0  0
  5 13  1  1  0  0  0
  5  6  1  0  0  0  0
  6 15  1  0  0  0  0
  7  8  2  0  0  0  0
  7  5  1  0  0  0  0
  9  1  1  0  0  0  0
 11  4  1  0  0  0  0
 12  4  1  0  0  0  0
 14  6  1  0  0  0  0
 16 27  1  0  0  0  0
 16 17  1  0  0  0  0
 17 18  2  0  0  0  0
 18 29  1  0  0  0  0
 19 20  1  0  0  0  0
 19 17  1  0  0  0  0
 20 31  1  0  0  0  0
 20 21  1  0  0  0  0
 21 34  1  0  0  0  0
 21 22  1  0  0  0  0
 21 33  1  0  0  0  0
 22 35  1  0  0  0  0
 23 22  1  0  0  0  0
 23 37  1  1  0  0  0
 23 24  1  0  0  0  0
 24  7  1  0  0  0  0
 25 23  1  0  0  0  0
 26 25  2  0  0  0  0
 28 16  1  0  0  0  0
 30 19  1  0  0  0  0
 32 20  1  0  0  0  0
 36 22  1  0  0  0  0
 38 24  1  0  0  0  0
 39 25  1  0  0  0  0
 40 39  1  0  0  0  0
 40 47  1  0  0  0  0
 41 49  1  0  0  0  0
 41 40  1  0  0  0  0
 42 43  1  0  0  0  0
 42 41  1  0  0  0  0
 42 51  1  0  0  0  0
 43 53  1  1  0  0  0
 43 39  1  0  0  0  0
 44 46  1  0  0  0  0
 44 43  1  0  0  0  0
 45 44  2  0  0  0  0
 48 40  1  0  0  0  0
 50 41  1  0  0  0  0
 52 42  1  0  0  0  0
M  END
$$$$
