NRQ.pdb
 OpenBabel07022418083D

 56 55  0  0  1  0  0  0  0  0999 V2000
    1.5690   -4.1020    2.3570 N   0  0  0  0  0  0  0  0  0  0  0  0
    2.4700   -3.0600    2.6720 C   0  0  0  0  0  0  0  0  0  0  0  0
    2.9220   -2.9660    3.8620 O   0  0  0  0  0  0  0  0  0  0  0  0
    2.9480   -2.0330    1.7110 C   0  0  0  0  0  0  0  0  0  0  0  0
    2.6300   -0.6810    2.2930 C   0  0  2  0  0  0  0  0  0  0  0  0
    3.2860   -0.5230    3.5680 N   0  0  0  0  0  0  0  0  0  0  0  0
    1.1750   -0.5580    2.4160 C   0  0  0  0  0  0  0  0  0  0  0  0
    0.6560   -0.4430    3.5550 O   0  0  0  0  0  0  0  0  0  0  0  0
    1.7670   -4.6990    1.5280 H   0  0  0  0  0  0  0  0  0  0  0  0
    0.7050   -4.3260    2.8980 H   0  0  0  0  0  0  0  0  0  0  0  0
    4.0310   -2.1660    1.5190 H   0  0  0  0  0  0  0  0  0  0  0  0
    2.3450   -2.1630    0.7980 H   0  0  0  0  0  0  0  0  0  0  0  0
    3.0220    0.1470    1.6500 H   0  0  0  0  0  0  0  0  0  0  0  0
    2.6160   -0.6990    4.3430 H   0  0  0  0  0  0  0  0  0  0  0  0
    4.1700   -1.0210    3.6840 H   0  0  0  0  0  0  0  0  0  0  0  0
    2.8230    3.6290    0.8960 N   0  0  0  0  0  0  0  0  0  0  0  0
    1.7840    3.2400    0.0240 C   0  0  0  0  0  0  0  0  0  0  0  0
    2.0180    3.2290   -1.2640 N   0  0  0  0  0  0  0  0  0  0  0  0
    0.5000    2.8610    0.5200 N   0  0  0  0  0  0  0  0  0  0  0  0
   -0.3380    2.0910   -0.3400 C   0  0  0  0  0  0  0  0  0  0  0  0
   -1.6510    1.7140    0.2300 C   0  0  0  0  0  0  0  0  0  0  0  0
   -1.7160    0.9320    1.4580 C   0  0  0  0  0  0  0  0  0  0  0  0
   -1.1240   -0.4310    1.5290 C   0  0  2  0  0  0  0  0  0  0  0  0
    0.2680   -0.5580    1.2940 N   0  0  0  0  0  0  0  0  0  0  0  0
   -1.9020   -1.4420    0.7780 C   0  0  0  0  0  0  0  0  0  0  0  0
   -3.1680   -1.4290    0.9260 O   0  0  0  0  0  0  0  0  0  0  0  0
    3.8140    3.5890    0.5840 H   0  0  0  0  0  0  0  0  0  0  0  0
    2.6410    3.9620    1.8650 H   0  0  0  0  0  0  0  0  0  0  0  0
    2.9600    3.5050   -1.6230 H   0  0  0  0  0  0  0  0  0  0  0  0
    0.1930    3.1330    1.4650 H   0  0  0  0  0  0  0  0  0  0  0  0
    0.1610    1.2150   -0.7790 H   0  0  0  0  0  0  0  0  0  0  0  0
   -0.4870    2.7730   -1.2580 H   0  0  0  0  0  0  0  0  0  0  0  0
   -2.1930    2.6950    0.4330 H   0  0  0  0  0  0  0  0  0  0  0  0
   -2.3270    1.2300   -0.5290 H   0  0  0  0  0  0  0  0  0  0  0  0
   -2.8190    0.7900    1.7000 H   0  0  0  0  0  0  0  0  0  0  0  0
   -1.3820    1.5600    2.3520 H   0  0  0  0  0  0  0  0  0  0  0  0
   -1.3160   -0.7210    2.6340 H   0  0  0  0  0  0  0  0  0  0  0  0
    0.7080   -0.6710    0.3760 H   0  0  0  0  0  0  0  0  0  0  0  0
   -2.4700    0.3570   -3.3120 N   0  0  0  0  0  0  0  0  0  0  0  0
   -1.9810   -0.8860   -2.7960 C   0  0  0  0  0  0  0  0  0  0  0  0
   -0.8810   -0.8540   -2.2160 O   0  0  0  0  0  0  0  0  0  0  0  0
   -2.7210   -2.1350   -2.9380 C   0  0  0  0  0  0  0  0  0  0  0  0
   -2.2560   -3.3430   -2.2480 C   0  0  0  0  0  0  0  0  0  0  0  0
   -2.2230   -3.3570   -0.7570 C   0  0  2  0  0  0  0  0  0  0  0  0
   -1.3830   -2.4240   -0.0860 N   0  0  0  0  0  0  0  0  0  0  0  0
   -1.8860   -4.7460   -0.3220 C   0  0  0  0  0  0  0  0  0  0  0  0
   -2.5110   -5.7480   -0.7770 O   0  0  0  0  0  0  0  0  0  0  0  0
   -0.8690   -4.9100    0.5970 O   0  0  0  0  0  0  0  0  0  0  0  0
   -2.1990    0.6180   -4.2960 H   0  0  0  0  0  0  0  0  0  0  0  0
   -3.0670    1.0120   -2.7910 H   0  0  0  0  0  0  0  0  0  0  0  0
   -3.8310   -1.9800   -2.7310 H   0  0  0  0  0  0  0  0  0  0  0  0
   -2.7420   -2.3330   -4.0660 H   0  0  0  0  0  0  0  0  0  0  0  0
   -2.9760   -4.1820   -2.5340 H   0  0  0  0  0  0  0  0  0  0  0  0
   -1.2830   -3.7360   -2.6520 H   0  0  0  0  0  0  0  0  0  0  0  0
   -3.3100   -3.2050   -0.4100 H   0  0  0  0  0  0  0  0  0  0  0  0
   -0.3420   -2.4640   -0.2040 H   0  0  0  0  0  0  0  0  0  0  0  0
  1  2  1  0  0  0  0
  1 10  1  0  0  0  0
  2  3  2  0  0  0  0
  4  5  1  0  0  0  0
  4  2  1  0  0  0  0
  5 13  1  6  0  0  0
  5  7  1  0  0  0  0
  5  6  1  0  0  0  0
  6 15  1  0  0  0  0
  6 14  1  0  0  0  0
  7  8  2  0  0  0  0
  9  1  1  0  0  0  0
 11  4  1  0  0  0  0
 12  4  1  0  0  0  0
 16 28  1  0  0  0  0
 17 19  1  0  0  0  0
 17 16  1  0  0  0  0
 18 17  2  0  0  0  0
 19 30  1  0  0  0  0
 20 21  1  0  0  0  0
 20 19  1  0  0  0  0
 21 33  1  0  0  0  0
 21 22  1  0  0  0  0
 22 23  1  0  0  0  0
 22 35  1  0  0  0  0
 22 36  1  0  0  0  0
 23 37  1  1  0  0  0
 24 23  1  0  0  0  0
 24  7  1  0  0  0  0
 25 26  2  0  0  0  0
 25 23  1  0  0  0  0
 27 16  1  0  0  0  0
 29 18  1  0  0  0  0
 31 20  1  0  0  0  0
 32 20  1  0  0  0  0
 34 21  1  0  0  0  0
 38 24  1  0  0  0  0
 39 40  1  0  0  0  0
 39 50  1  0  0  0  0
 40 41  2  0  0  0  0
 42 40  1  0  0  0  0
 42 51  1  0  0  0  0
 42 43  1  0  0  0  0
 43 44  1  0  0  0  0
 44 55  1  1  0  0  0
 44 46  1  0  0  0  0
 44 45  1  0  0  0  0
 45 25  1  0  0  0  0
 46 48  1  0  0  0  0
 47 46  2  0  0  0  0
 49 39  1  0  0  0  0
 52 42  1  0  0  0  0
 53 43  1  0  0  0  0
 54 43  1  0  0  0  0
 56 45  1  0  0  0  0
M  END
$$$$
