NRR.pdb
 OpenBabel07022418083D

 62 61  0  0  1  0  0  0  0  0999 V2000
    1.7870   -2.4080    5.0120 N   0  0  0  0  0  0  0  0  0  0  0  0
    2.9800   -1.9070    4.4310 C   0  0  0  0  0  0  0  0  0  0  0  0
    3.7680   -2.7310    3.9010 O   0  0  0  0  0  0  0  0  0  0  0  0
    3.3560   -0.4790    4.4090 C   0  0  0  0  0  0  0  0  0  0  0  0
    2.2990    0.4180    5.0170 C   0  0  2  0  0  0  0  0  0  0  0  0
    2.0270    0.1010    6.3780 N   0  0  0  0  0  0  0  0  0  0  0  0
    1.0780    0.3910    4.1710 C   0  0  0  0  0  0  0  0  0  0  0  0
    0.0040    0.0220    4.7150 O   0  0  0  0  0  0  0  0  0  0  0  0
    1.0980   -2.8760    4.3650 H   0  0  0  0  0  0  0  0  0  0  0  0
    1.5750   -2.3290    6.0310 H   0  0  0  0  0  0  0  0  0  0  0  0
    3.5160   -0.1120    3.3530 H   0  0  0  0  0  0  0  0  0  0  0  0
    4.3170   -0.3540    4.9430 H   0  0  0  0  0  0  0  0  0  0  0  0
    2.7210    1.4500    4.9880 H   0  0  0  0  0  0  0  0  0  0  0  0
    2.7570   -0.3870    6.9060 H   0  0  0  0  0  0  0  0  0  0  0  0
    1.0510   -0.0720    6.6350 H   0  0  0  0  0  0  0  0  0  0  0  0
    3.0260    0.4550   -2.0740 N   0  0  0  0  0  0  0  0  0  0  0  0
    1.9730    1.3900   -1.9650 C   0  0  0  0  0  0  0  0  0  0  0  0
    1.3400    1.8880   -2.9850 N   0  0  0  0  0  0  0  0  0  0  0  0
    1.5920    1.8040   -0.6300 N   0  0  0  0  0  0  0  0  0  0  0  0
    0.6010    2.8080   -0.4790 C   0  0  0  0  0  0  0  0  0  0  0  0
    0.1000    3.0880    0.8920 C   0  0  0  0  0  0  0  0  0  0  0  0
   -0.6380    2.0490    1.6050 C   0  0  0  0  0  0  0  0  0  0  0  0
   -0.0680    0.7470    1.9650 C   0  0  2  0  0  0  0  0  0  0  0  0
    1.0900    0.7620    2.8000 N   0  0  0  0  0  0  0  0  0  0  0  0
    0.0060   -0.2800    0.9120 C   0  0  0  0  0  0  0  0  0  0  0  0
    1.0510   -1.0210    0.8880 O   0  0  0  0  0  0  0  0  0  0  0  0
    4.0040    0.7740   -1.9950 H   0  0  0  0  0  0  0  0  0  0  0  0
    2.8470   -0.5630   -2.2340 H   0  0  0  0  0  0  0  0  0  0  0  0
    1.6460    1.5610   -3.9260 H   0  0  0  0  0  0  0  0  0  0  0  0
    2.0960    1.3530    0.1340 H   0  0  0  0  0  0  0  0  0  0  0  0
   -0.2950    2.4730   -1.0960 H   0  0  0  0  0  0  0  0  0  0  0  0
    0.9020    3.7640   -1.0120 H   0  0  0  0  0  0  0  0  0  0  0  0
   -0.5800    4.0050    0.7710 H   0  0  0  0  0  0  0  0  0  0  0  0
    0.9350    3.5420    1.5200 H   0  0  0  0  0  0  0  0  0  0  0  0
   -1.1560    2.5390    2.5120 H   0  0  0  0  0  0  0  0  0  0  0  0
   -1.5750    1.8110    0.9750 H   0  0  0  0  0  0  0  0  0  0  0  0
   -0.9080    0.3070    2.6860 H   0  0  0  0  0  0  0  0  0  0  0  0
    2.0080    1.0540    2.4250 H   0  0  0  0  0  0  0  0  0  0  0  0
   -5.7620   -2.8770   -3.3940 N   0  0  0  0  0  0  0  0  0  0  0  0
   -4.6540   -3.6960   -3.0460 C   0  0  0  0  0  0  0  0  0  0  0  0
   -4.8620   -4.8010   -2.4350 N   0  0  0  0  0  0  0  0  0  0  0  0
   -3.3390   -3.2940   -3.3650 N   0  0  0  0  0  0  0  0  0  0  0  0
   -2.2060   -3.9760   -2.8510 C   0  0  0  0  0  0  0  0  0  0  0  0
   -1.9570   -3.8700   -1.4060 C   0  0  0  0  0  0  0  0  0  0  0  0
   -1.8130   -2.6000   -0.7210 C   0  0  0  0  0  0  0  0  0  0  0  0
   -0.7750   -1.6020   -1.0820 C   0  0  2  0  0  0  0  0  0  0  0  0
   -0.9840   -0.5100   -0.0700 N   0  0  0  0  0  0  0  0  0  0  0  0
   -0.9390   -0.9190   -2.3650 C   0  0  0  0  0  0  0  0  0  0  0  0
   -0.6960   -1.4780   -3.4480 O   0  0  0  0  0  0  0  0  0  0  0  0
   -1.3800    0.3960   -2.4390 O   0  0  0  0  0  0  0  0  0  0  0  0
   -5.5970   -1.8830   -3.6220 H   0  0  0  0  0  0  0  0  0  0  0  0
   -6.7200   -3.2500   -3.4240 H   0  0  0  0  0  0  0  0  0  0  0  0
   -5.8380   -5.0740   -2.2080 H   0  0  0  0  0  0  0  0  0  0  0  0
   -3.2140   -2.4790   -3.9920 H   0  0  0  0  0  0  0  0  0  0  0  0
   -1.2850   -3.9490   -3.4650 H   0  0  0  0  0  0  0  0  0  0  0  0
   -2.4920   -5.1110   -2.9940 H   0  0  0  0  0  0  0  0  0  0  0  0
   -2.7730   -4.4520   -0.8830 H   0  0  0  0  0  0  0  0  0  0  0  0
   -1.0290   -4.4890   -1.1790 H   0  0  0  0  0  0  0  0  0  0  0  0
   -1.5940   -2.8540    0.3780 H   0  0  0  0  0  0  0  0  0  0  0  0
   -2.7740   -2.0170   -0.6140 H   0  0  0  0  0  0  0  0  0  0  0  0
    0.2220   -2.0130   -0.8890 H   0  0  0  0  0  0  0  0  0  0  0  0
   -1.8310    0.0790   -0.0710 H   0  0  0  0  0  0  0  0  0  0  0  0
  1 10  1  0  0  0  0
  2  1  1  0  0  0  0
  3  2  2  0  0  0  0
  4  2  1  0  0  0  0
  4 12  1  0  0  0  0
  4  5  1  0  0  0  0
  5 13  1  6  0  0  0
  5  6  1  0  0  0  0
  6 15  1  0  0  0  0
  6 14  1  0  0  0  0
  7  8  2  0  0  0  0
  7  5  1  0  0  0  0
  9  1  1  0  0  0  0
 11  4  1  0  0  0  0
 16 27  1  0  0  0  0
 16 17  1  0  0  0  0
 17 19  1  0  0  0  0
 18 17  2  0  0  0  0
 19 20  1  0  0  0  0
 19 30  1  0  0  0  0
 20 21  1  0  0  0  0
 21 34  1  0  0  0  0
 21 22  1  0  0  0  0
 22 23  1  0  0  0  0
 22 35  1  0  0  0  0
 23 37  1  1  0  0  0
 23 24  1  0  0  0  0
 24  7  1  0  0  0  0
 25 23  1  0  0  0  0
 26 25  2  0  0  0  0
 28 16  1  0  0  0  0
 29 18  1  0  0  0  0
 31 20  1  0  0  0  0
 32 20  1  0  0  0  0
 33 21  1  0  0  0  0
 36 22  1  0  0  0  0
 38 24  1  0  0  0  0
 39 40  1  0  0  0  0
 40 41  2  0  0  0  0
 41 53  1  0  0  0  0
 42 40  1  0  0  0  0
 42 43  1  0  0  0  0
 43 44  1  0  0  0  0
 44 58  1  0  0  0  0
 44 57  1  0  0  0  0
 44 45  1  0  0  0  0
 45 60  1  0  0  0  0
 45 59  1  0  0  0  0
 46 61  1  1  0  0  0
 46 45  1  0  0  0  0
 46 47  1  0  0  0  0
 47 25  1  0  0  0  0
 48 46  1  0  0  0  0
 49 48  2  0  0  0  0
 50 48  1  0  0  0  0
 51 39  1  0  0  0  0
 52 39  1  0  0  0  0
 54 42  1  0  0  0  0
 55 43  1  0  0  0  0
 56 43  1  0  0  0  0
 62 47  1  0  0  0  0
M  END
$$$$
