NRV.pdb
 OpenBabel07022418083D

 55 54  0  0  1  0  0  0  0  0999 V2000
    2.3080   -3.9270    1.2870 N   0  0  0  0  0  0  0  0  0  0  0  0
    2.2240   -3.8620   -0.1180 C   0  0  0  0  0  0  0  0  0  0  0  0
    1.8650   -4.8900   -0.7570 O   0  0  0  0  0  0  0  0  0  0  0  0
    2.5330   -2.6550   -0.9030 C   0  0  0  0  0  0  0  0  0  0  0  0
    2.9600   -1.4920   -0.0390 C   0  0  2  0  0  0  0  0  0  0  0  0
    4.1540   -1.8890    0.6900 N   0  0  0  0  0  0  0  0  0  0  0  0
    1.8910   -1.0890    0.9070 C   0  0  0  0  0  0  0  0  0  0  0  0
    2.1530   -1.1600    2.1540 O   0  0  0  0  0  0  0  0  0  0  0  0
    3.2220   -4.1020    1.7470 H   0  0  0  0  0  0  0  0  0  0  0  0
    1.4590   -3.8020    1.8750 H   0  0  0  0  0  0  0  0  0  0  0  0
    3.4060   -2.8660   -1.5870 H   0  0  0  0  0  0  0  0  0  0  0  0
    1.6890   -2.4170   -1.5470 H   0  0  0  0  0  0  0  0  0  0  0  0
    3.2610   -0.6790   -0.7320 H   0  0  0  0  0  0  0  0  0  0  0  0
    4.9840   -1.9700    0.0610 H   0  0  0  0  0  0  0  0  0  0  0  0
    4.4180   -1.1210    1.3780 H   0  0  0  0  0  0  0  0  0  0  0  0
    3.1490    5.6040    0.5850 N   0  0  0  0  0  0  0  0  0  0  0  0
    2.1670    4.5750    0.5150 C   0  0  0  0  0  0  0  0  0  0  0  0
    2.2730    3.6840   -0.4140 N   0  0  0  0  0  0  0  0  0  0  0  0
    1.0830    4.4820    1.4130 N   0  0  0  0  0  0  0  0  0  0  0  0
    0.0010    3.5280    1.2560 C   0  0  0  0  0  0  0  0  0  0  0  0
    0.4590    2.0940    1.4700 C   0  0  0  0  0  0  0  0  0  0  0  0
   -0.7400    1.2050    1.2800 C   0  0  0  0  0  0  0  0  0  0  0  0
   -0.3940   -0.2590    1.4750 C   0  0  2  0  0  0  0  0  0  0  0  0
    0.6110   -0.6360    0.5140 N   0  0  0  0  0  0  0  0  0  0  0  0
   -1.6050   -1.1100    1.3820 C   0  0  0  0  0  0  0  0  0  0  0  0
   -2.5840   -0.9120    2.1710 O   0  0  0  0  0  0  0  0  0  0  0  0
    3.3350    6.1650    1.4460 H   0  0  0  0  0  0  0  0  0  0  0  0
    3.7310    5.8290   -0.2630 H   0  0  0  0  0  0  0  0  0  0  0  0
    3.0600    3.7220   -1.0930 H   0  0  0  0  0  0  0  0  0  0  0  0
    1.0880    5.1560    2.2340 H   0  0  0  0  0  0  0  0  0  0  0  0
   -0.7580    3.7250    2.0500 H   0  0  0  0  0  0  0  0  0  0  0  0
   -0.5150    3.6050    0.2890 H   0  0  0  0  0  0  0  0  0  0  0  0
    1.2760    1.8750    0.7700 H   0  0  0  0  0  0  0  0  0  0  0  0
    0.8730    1.9850    2.4920 H   0  0  0  0  0  0  0  0  0  0  0  0
   -1.4730    1.4580    2.0760 H   0  0  0  0  0  0  0  0  0  0  0  0
   -1.2410    1.3660    0.3080 H   0  0  0  0  0  0  0  0  0  0  0  0
    0.0330   -0.4070    2.4890 H   0  0  0  0  0  0  0  0  0  0  0  0
    0.3920   -0.5740   -0.4930 H   0  0  0  0  0  0  0  0  0  0  0  0
   -4.8890   -3.8050   -0.8310 C   0  0  0  0  0  0  0  0  0  0  0  0
   -3.6800   -2.8950   -0.9220 C   0  0  0  0  0  0  0  0  0  0  0  0
   -4.2120   -1.4900   -1.1800 C   0  0  0  0  0  0  0  0  0  0  0  0
   -2.9580   -2.9800    0.3840 C   0  0  2  0  0  0  0  0  0  0  0  0
   -1.7790   -2.1620    0.4630 N   0  0  0  0  0  0  0  0  0  0  0  0
   -2.5690   -4.3780    0.6490 C   0  0  0  0  0  0  0  0  0  0  0  0
   -3.4350   -5.2750    0.6440 O   0  0  0  0  0  0  0  0  0  0  0  0
   -1.2570   -4.7120    0.9050 O   0  0  0  0  0  0  0  0  0  0  0  0
   -5.7350   -3.3580   -1.4330 H   0  0  0  0  0  0  0  0  0  0  0  0
   -4.6680   -4.7990   -1.2710 H   0  0  0  0  0  0  0  0  0  0  0  0
   -5.2520   -3.8850    0.2320 H   0  0  0  0  0  0  0  0  0  0  0  0
   -3.0870   -3.2650   -1.7790 H   0  0  0  0  0  0  0  0  0  0  0  0
   -5.0250   -1.2290   -0.4870 H   0  0  0  0  0  0  0  0  0  0  0  0
   -4.6390   -1.4050   -2.2020 H   0  0  0  0  0  0  0  0  0  0  0  0
   -3.3760   -0.7370   -1.1600 H   0  0  0  0  0  0  0  0  0  0  0  0
   -3.6570   -2.6550    1.1730 H   0  0  0  0  0  0  0  0  0  0  0  0
   -1.0150   -2.3760   -0.2120 H   0  0  0  0  0  0  0  0  0  0  0  0
  1  9  1  0  0  0  0
  1 10  1  0  0  0  0
  2  1  1  0  0  0  0
  3  2  2  0  0  0  0
  4  2  1  0  0  0  0
  4  5  1  0  0  0  0
  5 13  1  6  0  0  0
  5  6  1  0  0  0  0
  5  7  1  0  0  0  0
  6 15  1  0  0  0  0
  7  8  2  0  0  0  0
 11  4  1  0  0  0  0
 12  4  1  0  0  0  0
 14  6  1  0  0  0  0
 16 27  1  0  0  0  0
 17 16  1  0  0  0  0
 17 19  1  0  0  0  0
 18 17  2  0  0  0  0
 19 30  1  0  0  0  0
 20 19  1  0  0  0  0
 20 21  1  0  0  0  0
 20 31  1  0  0  0  0
 21 34  1  0  0  0  0
 22 21  1  0  0  0  0
 22 23  1  0  0  0  0
 22 35  1  0  0  0  0
 23 37  1  1  0  0  0
 24  7  1  0  0  0  0
 24 23  1  0  0  0  0
 25 23  1  0  0  0  0
 25 26  2  0  0  0  0
 28 16  1  0  0  0  0
 29 18  1  0  0  0  0
 32 20  1  0  0  0  0
 33 21  1  0  0  0  0
 36 22  1  0  0  0  0
 38 24  1  0  0  0  0
 39 49  1  0  0  0  0
 40 39  1  0  0  0  0
 40 42  1  0  0  0  0
 41 53  1  0  0  0  0
 41 40  1  0  0  0  0
 41 51  1  0  0  0  0
 42 43  1  0  0  0  0
 42 44  1  0  0  0  0
 42 54  1  1  0  0  0
 43 25  1  0  0  0  0
 44 46  1  0  0  0  0
 45 44  2  0  0  0  0
 47 39  1  0  0  0  0
 48 39  1  0  0  0  0
 50 40  1  0  0  0  0
 52 41  1  0  0  0  0
 55 43  1  0  0  0  0
M  END
$$$$
