NSA.pdb
 OpenBabel07022418113D

 37 36  0  0  1  0  0  0  0  0999 V2000
    2.6250   -1.3850    4.4090 N   0  0  0  0  0  0  0  0  0  0  0  0
    2.8540   -2.5970    3.7190 C   0  0  0  0  0  0  0  0  0  0  0  0
    3.9470   -3.1890    4.0210 O   0  0  0  0  0  0  0  0  0  0  0  0
    1.9380   -3.1750    2.7270 C   0  0  0  0  0  0  0  0  0  0  0  0
    0.8090   -2.2830    2.3110 C   0  0  2  0  0  0  0  0  0  0  0  0
    0.0000   -3.0390    1.3460 N   0  0  0  0  0  0  0  0  0  0  0  0
    1.2770   -1.0390    1.6080 C   0  0  0  0  0  0  0  0  0  0  0  0
    1.9750   -0.1960    2.1800 O   0  0  0  0  0  0  0  0  0  0  0  0
    3.3890   -0.7270    4.5890 H   0  0  0  0  0  0  0  0  0  0  0  0
    1.6650   -1.1640    4.7360 H   0  0  0  0  0  0  0  0  0  0  0  0
    2.4900   -3.5300    1.8230 H   0  0  0  0  0  0  0  0  0  0  0  0
    1.5230   -4.1110    3.1970 H   0  0  0  0  0  0  0  0  0  0  0  0
    0.2060   -2.0020    3.1930 H   0  0  0  0  0  0  0  0  0  0  0  0
    0.4270   -3.9560    1.1120 H   0  0  0  0  0  0  0  0  0  0  0  0
   -0.9540   -3.2560    1.7490 H   0  0  0  0  0  0  0  0  0  0  0  0
    2.5470    1.0480   -2.4140 O   0  0  0  0  0  0  0  0  0  0  0  0
    2.1250   -0.0460   -1.6920 C   0  0  0  0  0  0  0  0  0  0  0  0
    1.3510    0.3850   -0.4720 C   0  0  2  0  0  0  0  0  0  0  0  0
    0.9310   -0.7860    0.2500 N   0  0  0  0  0  0  0  0  0  0  0  0
    0.1800    1.2250   -0.8080 C   0  0  0  0  0  0  0  0  0  0  0  0
    0.2910    2.3120   -1.4450 O   0  0  0  0  0  0  0  0  0  0  0  0
    2.3320    0.9570   -3.3800 H   0  0  0  0  0  0  0  0  0  0  0  0
    3.0190   -0.5930   -1.3410 H   0  0  0  0  0  0  0  0  0  0  0  0
    1.4780   -0.7420   -2.2560 H   0  0  0  0  0  0  0  0  0  0  0  0
    1.9870    1.0020    0.2260 H   0  0  0  0  0  0  0  0  0  0  0  0
    0.3420   -1.4860   -0.2500 H   0  0  0  0  0  0  0  0  0  0  0  0
   -3.3080    0.7780   -1.4960 C   0  0  0  0  0  0  0  0  0  0  0  0
   -2.3030    1.5710   -0.6950 C   0  0  2  0  0  0  0  0  0  0  0  0
   -1.1120    0.7980   -0.4020 N   0  0  0  0  0  0  0  0  0  0  0  0
   -2.9430    1.9050    0.6010 C   0  0  0  0  0  0  0  0  0  0  0  0
   -4.0020    2.5770    0.5830 O   0  0  0  0  0  0  0  0  0  0  0  0
   -2.4330    1.5160    1.8270 O   0  0  0  0  0  0  0  0  0  0  0  0
   -3.6700   -0.1010   -0.8940 H   0  0  0  0  0  0  0  0  0  0  0  0
   -2.9150    0.3730   -2.4290 H   0  0  0  0  0  0  0  0  0  0  0  0
   -4.1900    1.4230   -1.6720 H   0  0  0  0  0  0  0  0  0  0  0  0
   -2.0930    2.4890   -1.2510 H   0  0  0  0  0  0  0  0  0  0  0  0
   -1.2690   -0.1000    0.1310 H   0  0  0  0  0  0  0  0  0  0  0  0
  1  9  1  0  0  0  0
  1 10  1  0  0  0  0
  2  3  2  0  0  0  0
  2  1  1  0  0  0  0
  4 12  1  0  0  0  0
  4  2  1  0  0  0  0
  5  4  1  0  0  0  0
  5 13  1  1  0  0  0
  6 15  1  0  0  0  0
  6  5  1  0  0  0  0
  7  8  2  0  0  0  0
  7  5  1  0  0  0  0
 11  4  1  0  0  0  0
 14  6  1  0  0  0  0
 16 17  1  0  0  0  0
 17 23  1  0  0  0  0
 17 18  1  0  0  0  0
 18 25  1  1  0  0  0
 18 19  1  0  0  0  0
 19  7  1  0  0  0  0
 20 18  1  0  0  0  0
 20 29  1  0  0  0  0
 21 20  2  0  0  0  0
 22 16  1  0  0  0  0
 24 17  1  0  0  0  0
 26 19  1  0  0  0  0
 27 33  1  0  0  0  0
 27 28  1  0  0  0  0
 28 36  1  6  0  0  0
 28 29  1  0  0  0  0
 28 30  1  0  0  0  0
 29 37  1  0  0  0  0
 30 32  1  0  0  0  0
 31 30  2  0  0  0  0
 34 27  1  0  0  0  0
 35 27  1  0  0  0  0
M  END
$$$$
