NSE.pdb
 OpenBabel07022418113D

 43 42  0  0  1  0  0  0  0  0999 V2000
    0.6150   -3.8500    4.2960 N   0  0  0  0  0  0  0  0  0  0  0  0
    1.6830   -2.9830    3.9340 C   0  0  0  0  0  0  0  0  0  0  0  0
    2.8380   -3.3190    4.3160 O   0  0  0  0  0  0  0  0  0  0  0  0
    1.4520   -1.7350    3.1420 C   0  0  0  0  0  0  0  0  0  0  0  0
    2.7900   -1.0640    2.9410 C   0  0  2  0  0  0  0  0  0  0  0  0
    3.4100   -0.7210    4.2000 N   0  0  0  0  0  0  0  0  0  0  0  0
    2.7150    0.1210    2.0840 C   0  0  0  0  0  0  0  0  0  0  0  0
    3.1610    1.2100    2.5050 O   0  0  0  0  0  0  0  0  0  0  0  0
    0.1320   -3.6940    5.2000 H   0  0  0  0  0  0  0  0  0  0  0  0
    0.3480   -4.6150    3.6450 H   0  0  0  0  0  0  0  0  0  0  0  0
    1.0590   -2.0260    2.1500 H   0  0  0  0  0  0  0  0  0  0  0  0
    0.7480   -1.1160    3.7210 H   0  0  0  0  0  0  0  0  0  0  0  0
    3.4560   -1.8400    2.4700 H   0  0  0  0  0  0  0  0  0  0  0  0
    3.6600    0.2830    4.2690 H   0  0  0  0  0  0  0  0  0  0  0  0
    2.7990   -1.0620    4.9660 H   0  0  0  0  0  0  0  0  0  0  0  0
    2.2450   -0.0110   -2.0170 O   0  0  0  0  0  0  0  0  0  0  0  0
    2.8390    1.0650   -1.3680 C   0  0  0  0  0  0  0  0  0  0  0  0
    2.0870    1.2870   -0.0610 C   0  0  2  0  0  0  0  0  0  0  0  0
    2.1560    0.1150    0.7750 N   0  0  0  0  0  0  0  0  0  0  0  0
    0.6480    1.5340   -0.3700 C   0  0  0  0  0  0  0  0  0  0  0  0
    0.3420    2.5170   -1.0950 O   0  0  0  0  0  0  0  0  0  0  0  0
    2.2380    0.0910   -3.0060 H   0  0  0  0  0  0  0  0  0  0  0  0
    3.9110    0.9230   -1.1650 H   0  0  0  0  0  0  0  0  0  0  0  0
    2.7140    1.9440   -2.0290 H   0  0  0  0  0  0  0  0  0  0  0  0
    2.5130    2.1830    0.4220 H   0  0  0  0  0  0  0  0  0  0  0  0
    1.7840   -0.7760    0.4160 H   0  0  0  0  0  0  0  0  0  0  0  0
   -0.4010    0.7160    0.1110 N   0  0  0  0  0  0  0  0  0  0  0  0
   -1.7980    0.9530   -0.1860 C   0  0  1  0  0  0  0  0  0  0  0  0
   -2.4400   -0.2220   -0.8740 C   0  0  0  0  0  0  0  0  0  0  0  0
   -1.7650   -0.5490   -2.1880 C   0  0  0  0  0  0  0  0  0  0  0  0
   -2.3960   -1.7030   -2.8630 C   0  0  0  0  0  0  0  0  0  0  0  0
   -1.9410   -2.0920   -3.9690 O   0  0  0  0  0  0  0  0  0  0  0  0
   -2.4940    1.1720    1.1090 C   0  0  0  0  0  0  0  0  0  0  0  0
   -3.7300    1.4030    1.1520 O   0  0  0  0  0  0  0  0  0  0  0  0
   -3.4790   -2.4060   -2.3530 O   0  0  0  0  0  0  0  0  0  0  0  0
   -1.8230    1.1340    2.3310 O   0  0  0  0  0  0  0  0  0  0  0  0
   -0.1400   -0.0970    0.7110 H   0  0  0  0  0  0  0  0  0  0  0  0
   -1.9510    1.8340   -0.8240 H   0  0  0  0  0  0  0  0  0  0  0  0
   -2.4030   -1.0730   -0.1640 H   0  0  0  0  0  0  0  0  0  0  0  0
   -3.5100   -0.0090   -1.0600 H   0  0  0  0  0  0  0  0  0  0  0  0
   -1.7700    0.3580   -2.8210 H   0  0  0  0  0  0  0  0  0  0  0  0
   -0.7180   -0.8600   -1.9230 H   0  0  0  0  0  0  0  0  0  0  0  0
   -3.9370   -3.1620   -2.8490 H   0  0  0  0  0  0  0  0  0  0  0  0
  1  9  1  0  0  0  0
  2  1  1  0  0  0  0
  2  3  2  0  0  0  0
  4 12  1  0  0  0  0
  4  2  1  0  0  0  0
  5 13  1  6  0  0  0
  5  4  1  0  0  0  0
  5  6  1  0  0  0  0
  6 14  1  0  0  0  0
  6 15  1  0  0  0  0
  7  8  2  0  0  0  0
  7  5  1  0  0  0  0
 10  1  1  0  0  0  0
 11  4  1  0  0  0  0
 16 17  1  0  0  0  0
 17 23  1  0  0  0  0
 17 18  1  0  0  0  0
 18 25  1  1  0  0  0
 18 19  1  0  0  0  0
 19  7  1  0  0  0  0
 20 18  1  0  0  0  0
 20 27  1  0  0  0  0
 21 20  2  0  0  0  0
 22 16  1  0  0  0  0
 24 17  1  0  0  0  0
 26 19  1  0  0  0  0
 27 37  1  0  0  0  0
 28 38  1  6  0  0  0
 28 27  1  0  0  0  0
 28 33  1  0  0  0  0
 29 28  1  0  0  0  0
 29 39  1  0  0  0  0
 30 42  1  0  0  0  0
 30 29  1  0  0  0  0
 31 35  1  0  0  0  0
 31 30  1  0  0  0  0
 32 31  2  0  0  0  0
 33 34  2  0  0  0  0
 33 36  1  0  0  0  0
 40 29  1  0  0  0  0
 41 30  1  0  0  0  0
 43 35  1  0  0  0  0
M  END
$$$$
