NSF.pdb
 OpenBabel07022418113D

 47 47  0  0  1  0  0  0  0  0999 V2000
    4.7720   -6.3970    1.3400 N   0  0  0  0  0  0  0  0  0  0  0  0
    4.3320   -5.0710    1.6990 C   0  0  0  0  0  0  0  0  0  0  0  0
    5.2050   -4.1820    1.6560 O   0  0  0  0  0  0  0  0  0  0  0  0
    2.9260   -4.8990    2.0730 C   0  0  0  0  0  0  0  0  0  0  0  0
    2.5080   -3.4980    2.3980 C   0  0  2  0  0  0  0  0  0  0  0  0
    1.0910   -3.5750    2.7500 N   0  0  0  0  0  0  0  0  0  0  0  0
    2.7110   -2.5350    1.2850 C   0  0  0  0  0  0  0  0  0  0  0  0
    3.8400   -2.1260    0.8970 O   0  0  0  0  0  0  0  0  0  0  0  0
    5.7530   -6.6890    1.5200 H   0  0  0  0  0  0  0  0  0  0  0  0
    4.0840   -7.0430    0.9010 H   0  0  0  0  0  0  0  0  0  0  0  0
    2.2230   -5.3890    1.3590 H   0  0  0  0  0  0  0  0  0  0  0  0
    2.7770   -5.4870    3.0270 H   0  0  0  0  0  0  0  0  0  0  0  0
    3.0640   -3.1440    3.2760 H   0  0  0  0  0  0  0  0  0  0  0  0
    0.4970   -3.9430    2.0000 H   0  0  0  0  0  0  0  0  0  0  0  0
    0.8060   -2.5790    2.9790 H   0  0  0  0  0  0  0  0  0  0  0  0
    1.6620   -0.6960   -2.8240 O   0  0  0  0  0  0  0  0  0  0  0  0
    1.5350   -1.7140   -1.8820 C   0  0  0  0  0  0  0  0  0  0  0  0
    1.7200   -1.0630   -0.5190 C   0  0  2  0  0  0  0  0  0  0  0  0
    1.6080   -1.9910    0.5560 N   0  0  0  0  0  0  0  0  0  0  0  0
    0.8300    0.1000   -0.4590 C   0  0  0  0  0  0  0  0  0  0  0  0
    0.8670    0.9710   -1.3930 O   0  0  0  0  0  0  0  0  0  0  0  0
    2.2870   -0.9290   -3.5630 H   0  0  0  0  0  0  0  0  0  0  0  0
    2.4340   -2.3760   -2.0530 H   0  0  0  0  0  0  0  0  0  0  0  0
    0.5820   -2.2100   -2.0270 H   0  0  0  0  0  0  0  0  0  0  0  0
    2.7790   -0.7040   -0.5350 H   0  0  0  0  0  0  0  0  0  0  0  0
    0.6260   -2.2930    0.8290 H   0  0  0  0  0  0  0  0  0  0  0  0
   -0.1040    0.3420    0.5900 N   0  0  0  0  0  0  0  0  0  0  0  0
   -0.9740    1.5280    0.5710 C   0  0  1  0  0  0  0  0  0  0  0  0
   -2.4220    1.0750    0.5330 C   0  0  0  0  0  0  0  0  0  0  0  0
   -3.4010    2.1640    0.5010 C   0  0  0  0  0  0  0  0  0  0  0  0
   -3.8140    2.7230   -0.6880 C   0  0  0  0  0  0  0  0  0  0  0  0
   -4.7370    3.7300   -0.7390 C   0  0  0  0  0  0  0  0  0  0  0  0
   -5.3080    4.2430    0.4260 C   0  0  0  0  0  0  0  0  0  0  0  0
   -4.8840    3.6740    1.6020 C   0  0  0  0  0  0  0  0  0  0  0  0
   -3.9570    2.6600    1.6670 C   0  0  0  0  0  0  0  0  0  0  0  0
   -0.7510    2.3370    1.7660 C   0  0  0  0  0  0  0  0  0  0  0  0
    0.0730    1.9220    2.6400 O   0  0  0  0  0  0  0  0  0  0  0  0
   -1.3760    3.5450    2.0220 O   0  0  0  0  0  0  0  0  0  0  0  0
   -0.1360   -0.3610    1.3640 H   0  0  0  0  0  0  0  0  0  0  0  0
   -0.7300    2.0770   -0.3590 H   0  0  0  0  0  0  0  0  0  0  0  0
   -2.5950    0.4000   -0.3240 H   0  0  0  0  0  0  0  0  0  0  0  0
   -2.6410    0.4780    1.4650 H   0  0  0  0  0  0  0  0  0  0  0  0
   -3.3990    2.3590   -1.6250 H   0  0  0  0  0  0  0  0  0  0  0  0
   -5.0390    4.1450   -1.6980 H   0  0  0  0  0  0  0  0  0  0  0  0
   -6.0420    5.0470    0.3640 H   0  0  0  0  0  0  0  0  0  0  0  0
   -5.3100    4.0570    2.5250 H   0  0  0  0  0  0  0  0  0  0  0  0
   -3.6700    2.2470    2.6460 H   0  0  0  0  0  0  0  0  0  0  0  0
  1  9  1  0  0  0  0
  1  2  1  0  0  0  0
  2  4  1  0  0  0  0
  3  2  2  0  0  0  0
  4  5  1  0  0  0  0
  4 12  1  0  0  0  0
  5  6  1  0  0  0  0
  5 13  1  1  0  0  0
  6 15  1  0  0  0  0
  7  5  1  0  0  0  0
  8  7  2  0  0  0  0
 10  1  1  0  0  0  0
 11  4  1  0  0  0  0
 14  6  1  0  0  0  0
 16 17  1  0  0  0  0
 17 18  1  0  0  0  0
 18 25  1  1  0  0  0
 18 20  1  0  0  0  0
 18 19  1  0  0  0  0
 19 26  1  0  0  0  0
 19  7  1  0  0  0  0
 20 27  1  0  0  0  0
 21 20  2  0  0  0  0
 22 16  1  0  0  0  0
 23 17  1  0  0  0  0
 24 17  1  0  0  0  0
 27 39  1  0  0  0  0
 28 40  1  6  0  0  0
 28 27  1  0  0  0  0
 28 36  1  0  0  0  0
 29 28  1  0  0  0  0
 29 42  1  0  0  0  0
 30 29  1  0  0  0  0
 30 35  1  0  0  0  0
 31 30  2  0  0  0  0
 32 31  1  0  0  0  0
 32 33  2  0  0  0  0
 33 34  1  0  0  0  0
 34 35  2  0  0  0  0
 34 46  1  0  0  0  0
 35 47  1  0  0  0  0
 36 38  2  0  0  0  0
 36 37  1  0  0  0  0
 41 29  1  0  0  0  0
 43 31  1  0  0  0  0
 44 32  1  0  0  0  0
 45 33  1  0  0  0  0
M  END
$$$$
