NSI.pdb
 OpenBabel07022418113D

 46 45  0  0  1  0  0  0  0  0999 V2000
    3.9750   -0.4080   -4.1450 N   0  0  0  0  0  0  0  0  0  0  0  0
    3.1400   -0.5670   -3.0110 C   0  0  0  0  0  0  0  0  0  0  0  0
    1.9640   -0.1510   -3.0790 O   0  0  0  0  0  0  0  0  0  0  0  0
    3.6670   -1.2050   -1.8040 C   0  0  0  0  0  0  0  0  0  0  0  0
    2.6940   -1.3460   -0.6740 C   0  0  2  0  0  0  0  0  0  0  0  0
    1.5420   -2.1460   -1.0280 N   0  0  0  0  0  0  0  0  0  0  0  0
    2.2380   -0.0290   -0.2040 C   0  0  0  0  0  0  0  0  0  0  0  0
    3.0620    0.8790    0.1640 O   0  0  0  0  0  0  0  0  0  0  0  0
    5.0230   -0.3680   -4.0980 H   0  0  0  0  0  0  0  0  0  0  0  0
    3.5620   -0.3190   -5.1210 H   0  0  0  0  0  0  0  0  0  0  0  0
    4.5260   -0.5840   -1.4160 H   0  0  0  0  0  0  0  0  0  0  0  0
    4.1200   -2.2040   -2.0030 H   0  0  0  0  0  0  0  0  0  0  0  0
    3.2000   -1.9140    0.1670 H   0  0  0  0  0  0  0  0  0  0  0  0
    0.9500   -2.3470   -0.2090 H   0  0  0  0  0  0  0  0  0  0  0  0
    0.9670   -1.7840   -1.7880 H   0  0  0  0  0  0  0  0  0  0  0  0
   -0.8650    3.4730   -0.2520 O   0  0  0  0  0  0  0  0  0  0  0  0
   -0.4130    2.2560   -0.7810 C   0  0  0  0  0  0  0  0  0  0  0  0
    0.3410    1.5220    0.2960 C   0  0  2  0  0  0  0  0  0  0  0  0
    0.8490    0.2480   -0.1560 N   0  0  0  0  0  0  0  0  0  0  0  0
   -0.4650    1.3100    1.5130 C   0  0  0  0  0  0  0  0  0  0  0  0
   -0.9870    2.3460    2.0370 O   0  0  0  0  0  0  0  0  0  0  0  0
   -0.0650    3.8680    0.2060 H   0  0  0  0  0  0  0  0  0  0  0  0
    0.2300    2.5180   -1.6400 H   0  0  0  0  0  0  0  0  0  0  0  0
   -1.2910    1.7290   -1.1570 H   0  0  0  0  0  0  0  0  0  0  0  0
    1.2070    2.1540    0.5690 H   0  0  0  0  0  0  0  0  0  0  0  0
    0.1640   -0.4820   -0.4520 H   0  0  0  0  0  0  0  0  0  0  0  0
   -1.5580   -3.2540    3.4750 C   0  0  0  0  0  0  0  0  0  0  0  0
   -2.4470   -2.3940    2.6530 C   0  0  0  0  0  0  0  0  0  0  0  0
   -2.6620   -1.0120    3.1190 C   0  0  2  0  0  0  0  0  0  0  0  0
   -3.6060   -0.3330    2.1160 C   0  0  0  0  0  0  0  0  0  0  0  0
   -1.4570   -0.1650    3.2810 C   0  0  2  0  0  0  0  0  0  0  0  0
   -0.6800    0.0390    2.1080 N   0  0  0  0  0  0  0  0  0  0  0  0
   -0.6500   -0.6160    4.4600 C   0  0  0  0  0  0  0  0  0  0  0  0
   -1.2430   -0.8210    5.5320 O   0  0  0  0  0  0  0  0  0  0  0  0
    0.7160   -0.8120    4.4020 O   0  0  0  0  0  0  0  0  0  0  0  0
   -1.6700   -4.3120    3.0890 H   0  0  0  0  0  0  0  0  0  0  0  0
   -1.8260   -3.3120    4.5360 H   0  0  0  0  0  0  0  0  0  0  0  0
   -0.4810   -3.0200    3.2930 H   0  0  0  0  0  0  0  0  0  0  0  0
   -3.4280   -2.9120    2.5420 H   0  0  0  0  0  0  0  0  0  0  0  0
   -2.0260   -2.3850    1.6040 H   0  0  0  0  0  0  0  0  0  0  0  0
   -3.2190   -1.0170    4.0790 H   0  0  0  0  0  0  0  0  0  0  0  0
   -3.8480    0.6870    2.4810 H   0  0  0  0  0  0  0  0  0  0  0  0
   -4.5470   -0.8980    2.0460 H   0  0  0  0  0  0  0  0  0  0  0  0
   -3.1260   -0.3560    1.1350 H   0  0  0  0  0  0  0  0  0  0  0  0
   -1.8330    0.8570    3.5970 H   0  0  0  0  0  0  0  0  0  0  0  0
   -0.2350   -0.7820    1.6470 H   0  0  0  0  0  0  0  0  0  0  0  0
  1  9  1  0  0  0  0
  1  2  1  0  0  0  0
  2  4  1  0  0  0  0
  3  2  2  0  0  0  0
  4 11  1  0  0  0  0
  4  5  1  0  0  0  0
  5  7  1  0  0  0  0
  5 13  1  1  0  0  0
  6  5  1  0  0  0  0
  6 14  1  0  0  0  0
  7 19  1  0  0  0  0
  7  8  2  0  0  0  0
 10  1  1  0  0  0  0
 12  4  1  0  0  0  0
 15  6  1  0  0  0  0
 16 22  1  0  0  0  0
 17 16  1  0  0  0  0
 17 18  1  0  0  0  0
 18 25  1  1  0  0  0
 18 20  1  0  0  0  0
 19 18  1  0  0  0  0
 20 21  2  0  0  0  0
 20 32  1  0  0  0  0
 23 17  1  0  0  0  0
 24 17  1  0  0  0  0
 26 19  1  0  0  0  0
 27 37  1  0  0  0  0
 28 29  1  0  0  0  0
 28 27  1  0  0  0  0
 29 31  1  0  0  0  0
 29 41  1  1  0  0  0
 30 42  1  0  0  0  0
 30 29  1  0  0  0  0
 31 45  1  1  0  0  0
 31 33  1  0  0  0  0
 32 31  1  0  0  0  0
 33 34  1  0  0  0  0
 35 33  2  0  0  0  0
 36 27  1  0  0  0  0
 38 27  1  0  0  0  0
 39 28  1  0  0  0  0
 40 28  1  0  0  0  0
 43 30  1  0  0  0  0
 44 30  1  0  0  0  0
 46 32  1  0  0  0  0
M  END
$$$$
