NSL.pdb
 OpenBabel07022418113D

 46 45  0  0  1  0  0  0  0  0999 V2000
    6.1480   -3.5320   -0.1460 N   0  0  0  0  0  0  0  0  0  0  0  0
    5.1670   -2.6220    0.3070 C   0  0  0  0  0  0  0  0  0  0  0  0
    5.3650   -1.9950    1.3690 O   0  0  0  0  0  0  0  0  0  0  0  0
    3.9330   -2.4190   -0.4650 C   0  0  0  0  0  0  0  0  0  0  0  0
    3.0110   -1.4070    0.1800 C   0  0  2  0  0  0  0  0  0  0  0  0
    2.6100   -1.8110    1.5000 N   0  0  0  0  0  0  0  0  0  0  0  0
    1.8650   -1.1990   -0.7330 C   0  0  0  0  0  0  0  0  0  0  0  0
    2.0960   -0.8450   -1.9070 O   0  0  0  0  0  0  0  0  0  0  0  0
    6.8500   -3.9850    0.4700 H   0  0  0  0  0  0  0  0  0  0  0  0
    6.1830   -3.7750   -1.1630 H   0  0  0  0  0  0  0  0  0  0  0  0
    3.3590   -3.3680   -0.6100 H   0  0  0  0  0  0  0  0  0  0  0  0
    4.1330   -2.0460   -1.5050 H   0  0  0  0  0  0  0  0  0  0  0  0
    3.5800   -0.4390    0.2670 H   0  0  0  0  0  0  0  0  0  0  0  0
    2.7170   -2.8630    1.5490 H   0  0  0  0  0  0  0  0  0  0  0  0
    3.2410   -1.4430    2.2530 H   0  0  0  0  0  0  0  0  0  0  0  0
   -2.0140   -2.8540   -0.4190 O   0  0  0  0  0  0  0  0  0  0  0  0
   -1.3870   -2.3720   -1.5450 C   0  0  0  0  0  0  0  0  0  0  0  0
   -0.5330   -1.1590   -1.2850 C   0  0  2  0  0  0  0  0  0  0  0  0
    0.5140   -1.3780   -0.3510 N   0  0  0  0  0  0  0  0  0  0  0  0
   -1.3940   -0.0110   -0.8680 C   0  0  0  0  0  0  0  0  0  0  0  0
   -2.3790    0.3610   -1.5460 O   0  0  0  0  0  0  0  0  0  0  0  0
   -2.9600   -3.0350   -0.5100 H   0  0  0  0  0  0  0  0  0  0  0  0
   -0.7980   -3.1760   -2.0260 H   0  0  0  0  0  0  0  0  0  0  0  0
   -2.1740   -2.0790   -2.2730 H   0  0  0  0  0  0  0  0  0  0  0  0
   -0.0920   -0.8520   -2.2560 H   0  0  0  0  0  0  0  0  0  0  0  0
    0.2950   -1.6740    0.6240 H   0  0  0  0  0  0  0  0  0  0  0  0
   -3.2720    0.9180    4.1700 C   0  0  0  0  0  0  0  0  0  0  0  0
   -2.1280    1.1560    3.1540 C   0  0  0  0  0  0  0  0  0  0  0  0
   -1.3140   -0.0930    3.1750 C   0  0  0  0  0  0  0  0  0  0  0  0
   -2.8040    1.4890    1.8770 C   0  0  0  0  0  0  0  0  0  0  0  0
   -1.9620    1.7940    0.6940 C   0  0  2  0  0  0  0  0  0  0  0  0
   -1.1160    0.7040    0.3310 N   0  0  0  0  0  0  0  0  0  0  0  0
   -1.2250    3.0620    0.9100 C   0  0  0  0  0  0  0  0  0  0  0  0
    0.0150    3.1930    0.7930 O   0  0  0  0  0  0  0  0  0  0  0  0
   -1.9660    4.1780    1.2680 O   0  0  0  0  0  0  0  0  0  0  0  0
   -3.5830   -0.1360    4.0170 H   0  0  0  0  0  0  0  0  0  0  0  0
   -4.1110    1.6130    3.9710 H   0  0  0  0  0  0  0  0  0  0  0  0
   -2.8560    1.0050    5.1790 H   0  0  0  0  0  0  0  0  0  0  0  0
   -1.5160    2.0070    3.5110 H   0  0  0  0  0  0  0  0  0  0  0  0
   -1.5910   -0.8470    2.4160 H   0  0  0  0  0  0  0  0  0  0  0  0
   -0.2130    0.0860    3.2260 H   0  0  0  0  0  0  0  0  0  0  0  0
   -1.5210   -0.6230    4.1580 H   0  0  0  0  0  0  0  0  0  0  0  0
   -3.4160    2.4220    2.0850 H   0  0  0  0  0  0  0  0  0  0  0  0
   -3.5800    0.7280    1.6220 H   0  0  0  0  0  0  0  0  0  0  0  0
   -2.6940    2.0380   -0.1480 H   0  0  0  0  0  0  0  0  0  0  0  0
   -0.2950    0.4320    0.9150 H   0  0  0  0  0  0  0  0  0  0  0  0
  1  2  1  0  0  0  0
  1  9  1  0  0  0  0
  2  3  2  0  0  0  0
  4  5  1  0  0  0  0
  4  2  1  0  0  0  0
  5 13  1  1  0  0  0
  5  6  1  0  0  0  0
  6 14  1  0  0  0  0
  6 15  1  0  0  0  0
  7 19  1  0  0  0  0
  7  5  1  0  0  0  0
  8  7  2  0  0  0  0
 10  1  1  0  0  0  0
 11  4  1  0  0  0  0
 12  4  1  0  0  0  0
 17 18  1  0  0  0  0
 17 16  1  0  0  0  0
 18 25  1  6  0  0  0
 18 20  1  0  0  0  0
 18 19  1  0  0  0  0
 19 26  1  0  0  0  0
 20 32  1  0  0  0  0
 21 20  2  0  0  0  0
 22 16  1  0  0  0  0
 23 17  1  0  0  0  0
 24 17  1  0  0  0  0
 27 38  1  0  0  0  0
 28 29  1  0  0  0  0
 28 39  1  0  0  0  0
 28 27  1  0  0  0  0
 29 41  1  0  0  0  0
 29 42  1  0  0  0  0
 30 43  1  0  0  0  0
 30 28  1  0  0  0  0
 31 45  1  6  0  0  0
 31 33  1  0  0  0  0
 31 30  1  0  0  0  0
 32 31  1  0  0  0  0
 32 46  1  0  0  0  0
 33 35  1  0  0  0  0
 34 33  2  0  0  0  0
 36 27  1  0  0  0  0
 37 27  1  0  0  0  0
 40 29  1  0  0  0  0
 44 30  1  0  0  0  0
M  END
$$$$
