NSN.pdb
 OpenBabel07022418113D

 41 40  0  0  1  0  0  0  0  0999 V2000
   -1.5910   -5.2260   -2.7230 N   0  0  0  0  0  0  0  0  0  0  0  0
   -1.3680   -4.3030   -1.6970 C   0  0  0  0  0  0  0  0  0  0  0  0
   -1.5870   -3.0710   -1.9480 O   0  0  0  0  0  0  0  0  0  0  0  0
   -0.8990   -4.6290   -0.3400 C   0  0  0  0  0  0  0  0  0  0  0  0
   -0.7350   -3.4380    0.5460 C   0  0  2  0  0  0  0  0  0  0  0  0
   -1.9020   -2.6780    0.7710 N   0  0  0  0  0  0  0  0  0  0  0  0
    0.3680   -2.5660    0.0970 C   0  0  0  0  0  0  0  0  0  0  0  0
    1.4850   -3.0640   -0.1920 O   0  0  0  0  0  0  0  0  0  0  0  0
   -2.5390   -5.3910   -3.0830 H   0  0  0  0  0  0  0  0  0  0  0  0
   -0.7800   -5.7570   -3.1280 H   0  0  0  0  0  0  0  0  0  0  0  0
    0.1160   -5.1030   -0.4380 H   0  0  0  0  0  0  0  0  0  0  0  0
   -1.5680   -5.3970    0.0890 H   0  0  0  0  0  0  0  0  0  0  0  0
   -0.4010   -3.8470    1.5470 H   0  0  0  0  0  0  0  0  0  0  0  0
   -1.9560   -2.0790    1.5860 H   0  0  0  0  0  0  0  0  0  0  0  0
   -2.6560   -2.7030    0.0940 H   0  0  0  0  0  0  0  0  0  0  0  0
    2.1260    1.1930   -2.1750 O   0  0  0  0  0  0  0  0  0  0  0  0
    1.0520    0.4060   -1.7610 C   0  0  0  0  0  0  0  0  0  0  0  0
    1.3460   -0.3240   -0.4800 C   0  0  2  0  0  0  0  0  0  0  0  0
    0.2500   -1.1490   -0.0360 N   0  0  0  0  0  0  0  0  0  0  0  0
    1.8480    0.5740    0.5860 C   0  0  0  0  0  0  0  0  0  0  0  0
    2.8150    1.3660    0.3900 O   0  0  0  0  0  0  0  0  0  0  0  0
    1.9360    1.4580   -3.1120 H   0  0  0  0  0  0  0  0  0  0  0  0
    0.1510    1.0750   -1.6700 H   0  0  0  0  0  0  0  0  0  0  0  0
    0.8230   -0.2810   -2.6000 H   0  0  0  0  0  0  0  0  0  0  0  0
    2.2000   -1.0120   -0.6990 H   0  0  0  0  0  0  0  0  0  0  0  0
   -0.6870   -0.7540    0.2100 H   0  0  0  0  0  0  0  0  0  0  0  0
    0.8310    4.7090    2.3500 N   0  0  0  0  0  0  0  0  0  0  0  0
    0.2820    3.4040    2.4540 C   0  0  0  0  0  0  0  0  0  0  0  0
   -0.6210    3.1140    1.6360 O   0  0  0  0  0  0  0  0  0  0  0  0
    0.7560    2.4420    3.4790 C   0  0  0  0  0  0  0  0  0  0  0  0
    1.7440    1.4610    2.9470 C   0  0  2  0  0  0  0  0  0  0  0  0
    1.3090    0.6310    1.8900 N   0  0  0  0  0  0  0  0  0  0  0  0
    2.2440    0.6260    4.0610 C   0  0  0  0  0  0  0  0  0  0  0  0
    2.6780    1.1490    5.1020 O   0  0  0  0  0  0  0  0  0  0  0  0
    2.2340   -0.7550    3.9540 O   0  0  0  0  0  0  0  0  0  0  0  0
    0.9980    5.3180    3.1750 H   0  0  0  0  0  0  0  0  0  0  0  0
    1.0860    5.0940    1.4140 H   0  0  0  0  0  0  0  0  0  0  0  0
    1.2830    3.0490    4.2490 H   0  0  0  0  0  0  0  0  0  0  0  0
   -0.0870    1.9650    4.0370 H   0  0  0  0  0  0  0  0  0  0  0  0
    2.6160    2.0640    2.5680 H   0  0  0  0  0  0  0  0  0  0  0  0
    0.4920   -0.0160    2.0930 H   0  0  0  0  0  0  0  0  0  0  0  0
  1  2  1  0  0  0  0
  2  4  1  0  0  0  0
  3  2  2  0  0  0  0
  4 12  1  0  0  0  0
  4  5  1  0  0  0  0
  5  6  1  0  0  0  0
  5 13  1  1  0  0  0
  6 14  1  0  0  0  0
  7  5  1  0  0  0  0
  8  7  2  0  0  0  0
  9  1  1  0  0  0  0
 10  1  1  0  0  0  0
 11  4  1  0  0  0  0
 15  6  1  0  0  0  0
 16 17  1  0  0  0  0
 17 23  1  0  0  0  0
 17 18  1  0  0  0  0
 18 25  1  6  0  0  0
 18 19  1  0  0  0  0
 18 20  1  0  0  0  0
 19  7  1  0  0  0  0
 19 26  1  0  0  0  0
 20 32  1  0  0  0  0
 21 20  2  0  0  0  0
 22 16  1  0  0  0  0
 24 17  1  0  0  0  0
 27 28  1  0  0  0  0
 27 36  1  0  0  0  0
 28 30  1  0  0  0  0
 29 28  2  0  0  0  0
 30 39  1  0  0  0  0
 30 38  1  0  0  0  0
 31 40  1  6  0  0  0
 31 30  1  0  0  0  0
 31 33  1  0  0  0  0
 32 41  1  0  0  0  0
 32 31  1  0  0  0  0
 33 34  1  0  0  0  0
 35 33  2  0  0  0  0
 37 27  1  0  0  0  0
M  END
$$$$
