NSQ.pdb
 OpenBabel07022418113D

 44 43  0  0  1  0  0  0  0  0999 V2000
    4.0720   -4.4360    4.5810 N   0  0  0  0  0  0  0  0  0  0  0  0
    3.0970   -3.5130    4.1250 C   0  0  0  0  0  0  0  0  0  0  0  0
    2.0470   -3.3720    4.7990 O   0  0  0  0  0  0  0  0  0  0  0  0
    3.2730   -2.7260    2.9040 C   0  0  0  0  0  0  0  0  0  0  0  0
    2.1270   -1.8120    2.6060 C   0  0  2  0  0  0  0  0  0  0  0  0
    0.9380   -2.5970    2.4490 N   0  0  0  0  0  0  0  0  0  0  0  0
    2.4310   -0.9510    1.4440 C   0  0  0  0  0  0  0  0  0  0  0  0
    3.4500   -0.2320    1.5020 O   0  0  0  0  0  0  0  0  0  0  0  0
    3.8110   -5.2780    5.1260 H   0  0  0  0  0  0  0  0  0  0  0  0
    5.0970   -4.2720    4.3650 H   0  0  0  0  0  0  0  0  0  0  0  0
    3.3880   -3.4230    2.0230 H   0  0  0  0  0  0  0  0  0  0  0  0
    4.2410   -2.1520    2.9160 H   0  0  0  0  0  0  0  0  0  0  0  0
    1.9820   -1.1400    3.4850 H   0  0  0  0  0  0  0  0  0  0  0  0
    0.9960   -3.2620    1.6480 H   0  0  0  0  0  0  0  0  0  0  0  0
    0.0620   -2.0590    2.4010 H   0  0  0  0  0  0  0  0  0  0  0  0
    2.5170    0.0340   -3.1350 O   0  0  0  0  0  0  0  0  0  0  0  0
    2.2520   -0.8670   -2.1050 C   0  0  0  0  0  0  0  0  0  0  0  0
    1.9090   -0.0730   -0.8590 C   0  0  2  0  0  0  0  0  0  0  0  0
    1.6170   -0.9060    0.2670 N   0  0  0  0  0  0  0  0  0  0  0  0
    0.8250    0.9150   -1.1320 C   0  0  0  0  0  0  0  0  0  0  0  0
    0.9470    1.7150   -2.0960 O   0  0  0  0  0  0  0  0  0  0  0  0
    2.1150   -0.3460   -3.9580 H   0  0  0  0  0  0  0  0  0  0  0  0
    1.4950   -1.5920   -2.3840 H   0  0  0  0  0  0  0  0  0  0  0  0
    3.1970   -1.4180   -1.9250 H   0  0  0  0  0  0  0  0  0  0  0  0
    2.8520    0.4890   -0.6090 H   0  0  0  0  0  0  0  0  0  0  0  0
    0.7740   -1.5470    0.3030 H   0  0  0  0  0  0  0  0  0  0  0  0
   -4.2920   -0.5410    1.9060 N   0  0  0  0  0  0  0  0  0  0  0  0
   -3.7110    0.5510    1.1580 C   0  0  0  0  0  0  0  0  0  0  0  0
   -3.6520    1.6220    1.7690 O   0  0  0  0  0  0  0  0  0  0  0  0
   -3.2860    0.2270   -0.1950 C   0  0  0  0  0  0  0  0  0  0  0  0
   -2.6840    1.2750   -1.0310 C   0  0  0  0  0  0  0  0  0  0  0  0
   -1.4350    1.9320   -0.5580 C   0  0  2  0  0  0  0  0  0  0  0  0
   -0.3530    0.9960   -0.3420 N   0  0  0  0  0  0  0  0  0  0  0  0
   -1.5820    2.9710    0.4590 C   0  0  0  0  0  0  0  0  0  0  0  0
   -0.8790    2.9700    1.4790 O   0  0  0  0  0  0  0  0  0  0  0  0
   -2.5090    3.9690    0.2870 O   0  0  0  0  0  0  0  0  0  0  0  0
   -5.2340   -0.8420    1.6190 H   0  0  0  0  0  0  0  0  0  0  0  0
   -3.7910   -0.9920    2.6830 H   0  0  0  0  0  0  0  0  0  0  0  0
   -4.2340   -0.0980   -0.7350 H   0  0  0  0  0  0  0  0  0  0  0  0
   -2.6630   -0.7090   -0.2410 H   0  0  0  0  0  0  0  0  0  0  0  0
   -3.4320    2.0540   -1.2900 H   0  0  0  0  0  0  0  0  0  0  0  0
   -2.4500    0.7960   -2.0300 H   0  0  0  0  0  0  0  0  0  0  0  0
   -1.0830    2.5310   -1.4800 H   0  0  0  0  0  0  0  0  0  0  0  0
   -0.4230    0.3170    0.4520 H   0  0  0  0  0  0  0  0  0  0  0  0
  1  9  1  0  0  0  0
  2  1  1  0  0  0  0
  2  3  2  0  0  0  0
  4 12  1  0  0  0  0
  4  2  1  0  0  0  0
  5  4  1  0  0  0  0
  5 13  1  1  0  0  0
  6  5  1  0  0  0  0
  7  8  2  0  0  0  0
  7  5  1  0  0  0  0
 10  1  1  0  0  0  0
 11  4  1  0  0  0  0
 14  6  1  0  0  0  0
 15  6  1  0  0  0  0
 16 17  1  0  0  0  0
 17 24  1  0  0  0  0
 17 18  1  0  0  0  0
 18 25  1  1  0  0  0
 18 19  1  0  0  0  0
 19 26  1  0  0  0  0
 19  7  1  0  0  0  0
 20 18  1  0  0  0  0
 20 33  1  0  0  0  0
 21 20  2  0  0  0  0
 22 16  1  0  0  0  0
 23 17  1  0  0  0  0
 27 38  1  0  0  0  0
 28 29  2  0  0  0  0
 28 27  1  0  0  0  0
 30 28  1  0  0  0  0
 31 32  1  0  0  0  0
 31 30  1  0  0  0  0
 32 43  1  6  0  0  0
 32 33  1  0  0  0  0
 32 34  1  0  0  0  0
 33 44  1  0  0  0  0
 34 35  1  0  0  0  0
 36 34  2  0  0  0  0
 37 27  1  0  0  0  0
 39 30  1  0  0  0  0
 40 30  1  0  0  0  0
 41 31  1  0  0  0  0
 42 31  1  0  0  0  0
M  END
$$$$
