NSR.pdb
 OpenBabel07022418113D

 50 49  0  0  1  0  0  0  0  0999 V2000
    7.6810    2.1730    2.8140 N   0  0  0  0  0  0  0  0  0  0  0  0
    6.2910    1.9550    3.0010 C   0  0  0  0  0  0  0  0  0  0  0  0
    5.7770    2.2820    4.0950 O   0  0  0  0  0  0  0  0  0  0  0  0
    5.5410    1.3490    1.8760 C   0  0  0  0  0  0  0  0  0  0  0  0
    4.0720    1.1740    2.2130 C   0  0  2  0  0  0  0  0  0  0  0  0
    3.9630    0.3150    3.3570 N   0  0  0  0  0  0  0  0  0  0  0  0
    3.4070    0.6350    1.0140 C   0  0  0  0  0  0  0  0  0  0  0  0
    3.4530    1.3230   -0.0380 O   0  0  0  0  0  0  0  0  0  0  0  0
    8.2720    1.3360    2.5950 H   0  0  0  0  0  0  0  0  0  0  0  0
    8.1360    3.0960    2.8800 H   0  0  0  0  0  0  0  0  0  0  0  0
    5.9850    0.3520    1.6820 H   0  0  0  0  0  0  0  0  0  0  0  0
    5.6200    1.9640    0.9580 H   0  0  0  0  0  0  0  0  0  0  0  0
    3.6180    2.1490    2.4850 H   0  0  0  0  0  0  0  0  0  0  0  0
    4.2130   -0.6580    3.0690 H   0  0  0  0  0  0  0  0  0  0  0  0
    3.0550    0.3730    3.8420 H   0  0  0  0  0  0  0  0  0  0  0  0
    3.9360   -2.4390   -0.9660 O   0  0  0  0  0  0  0  0  0  0  0  0
    2.5760   -2.4610   -0.6480 C   0  0  0  0  0  0  0  0  0  0  0  0
    2.0740   -1.1200   -0.2110 C   0  0  2  0  0  0  0  0  0  0  0  0
    2.7200   -0.5910    0.9440 N   0  0  0  0  0  0  0  0  0  0  0  0
    0.6210   -1.2440    0.0800 C   0  0  0  0  0  0  0  0  0  0  0  0
    0.1480   -0.9010    1.2130 O   0  0  0  0  0  0  0  0  0  0  0  0
    4.1090   -1.9990   -1.8120 H   0  0  0  0  0  0  0  0  0  0  0  0
    2.3240   -3.2790    0.0550 H   0  0  0  0  0  0  0  0  0  0  0  0
    2.0450   -2.7060   -1.6010 H   0  0  0  0  0  0  0  0  0  0  0  0
    2.1930   -0.4160   -1.0560 H   0  0  0  0  0  0  0  0  0  0  0  0
    2.6810   -1.1650    1.8210 H   0  0  0  0  0  0  0  0  0  0  0  0
   -7.8860   -0.6770    1.6410 N   0  0  0  0  0  0  0  0  0  0  0  0
   -6.5150   -0.3370    1.4620 C   0  0  0  0  0  0  0  0  0  0  0  0
   -5.8920    0.2610    2.4190 N   0  0  0  0  0  0  0  0  0  0  0  0
   -5.8180   -0.6340    0.2680 N   0  0  0  0  0  0  0  0  0  0  0  0
   -4.3600   -0.5690    0.1750 C   0  0  0  0  0  0  0  0  0  0  0  0
   -3.9550   -0.9440   -1.2300 C   0  0  0  0  0  0  0  0  0  0  0  0
   -2.4700   -0.9120   -1.4620 C   0  0  0  0  0  0  0  0  0  0  0  0
   -1.7610   -1.8520   -0.5410 C   0  0  2  0  0  0  0  0  0  0  0  0
   -0.3160   -1.7380   -0.8540 N   0  0  0  0  0  0  0  0  0  0  0  0
   -2.1870   -3.2500   -0.6000 C   0  0  0  0  0  0  0  0  0  0  0  0
   -1.3520   -4.1620   -0.9350 O   0  0  0  0  0  0  0  0  0  0  0  0
   -3.4530   -3.7240   -0.3190 O   0  0  0  0  0  0  0  0  0  0  0  0
   -8.2090   -1.6750    1.7310 H   0  0  0  0  0  0  0  0  0  0  0  0
   -8.6140    0.0470    1.6890 H   0  0  0  0  0  0  0  0  0  0  0  0
   -6.3660    0.5020    3.3220 H   0  0  0  0  0  0  0  0  0  0  0  0
   -6.3860   -0.9080   -0.5620 H   0  0  0  0  0  0  0  0  0  0  0  0
   -4.0960    0.5020    0.3660 H   0  0  0  0  0  0  0  0  0  0  0  0
   -3.8740   -1.1550    0.9540 H   0  0  0  0  0  0  0  0  0  0  0  0
   -4.4590   -0.2230   -1.9330 H   0  0  0  0  0  0  0  0  0  0  0  0
   -4.3200   -1.9550   -1.4580 H   0  0  0  0  0  0  0  0  0  0  0  0
   -2.1110    0.1260   -1.2350 H   0  0  0  0  0  0  0  0  0  0  0  0
   -2.3050   -1.1580   -2.5370 H   0  0  0  0  0  0  0  0  0  0  0  0
   -1.9340   -1.4940    0.5040 H   0  0  0  0  0  0  0  0  0  0  0  0
    0.0330   -2.0280   -1.7910 H   0  0  0  0  0  0  0  0  0  0  0  0
  1 10  1  0  0  0  0
  1  2  1  0  0  0  0
  2  3  2  0  0  0  0
  4  5  1  0  0  0  0
  4  2  1  0  0  0  0
  5 13  1  1  0  0  0
  5  6  1  0  0  0  0
  6 15  1  0  0  0  0
  7  5  1  0  0  0  0
  8  7  2  0  0  0  0
  9  1  1  0  0  0  0
 11  4  1  0  0  0  0
 12  4  1  0  0  0  0
 14  6  1  0  0  0  0
 16 17  1  0  0  0  0
 17 18  1  0  0  0  0
 17 23  1  0  0  0  0
 18 25  1  6  0  0  0
 18 20  1  0  0  0  0
 18 19  1  0  0  0  0
 19  7  1  0  0  0  0
 19 26  1  0  0  0  0
 20 21  2  0  0  0  0
 22 16  1  0  0  0  0
 24 17  1  0  0  0  0
 27 40  1  0  0  0  0
 27 39  1  0  0  0  0
 28 27  1  0  0  0  0
 28 29  2  0  0  0  0
 29 41  1  0  0  0  0
 30 28  1  0  0  0  0
 31 30  1  0  0  0  0
 31 43  1  0  0  0  0
 31 44  1  0  0  0  0
 32 31  1  0  0  0  0
 33 47  1  0  0  0  0
 33 32  1  0  0  0  0
 33 34  1  0  0  0  0
 34 49  1  1  0  0  0
 35 34  1  0  0  0  0
 35 20  1  0  0  0  0
 36 34  1  0  0  0  0
 36 38  1  0  0  0  0
 37 36  2  0  0  0  0
 42 30  1  0  0  0  0
 45 32  1  0  0  0  0
 46 32  1  0  0  0  0
 48 33  1  0  0  0  0
 50 35  1  0  0  0  0
M  END
$$$$
