NSS.pdb
 OpenBabel07022418113D

 38 37  0  0  1  0  0  0  0  0999 V2000
   -2.2060   -2.6290    2.7770 N   0  0  0  0  0  0  0  0  0  0  0  0
   -1.0300   -2.9910    2.0580 C   0  0  0  0  0  0  0  0  0  0  0  0
    0.0450   -3.0030    2.7280 O   0  0  0  0  0  0  0  0  0  0  0  0
   -1.0830   -3.3300    0.6180 C   0  0  0  0  0  0  0  0  0  0  0  0
    0.2960   -3.6710    0.1300 C   0  0  2  0  0  0  0  0  0  0  0  0
    0.7630   -4.8060    0.8950 N   0  0  0  0  0  0  0  0  0  0  0  0
    1.2570   -2.5800    0.2380 C   0  0  0  0  0  0  0  0  0  0  0  0
    2.2910   -2.7550    0.9330 O   0  0  0  0  0  0  0  0  0  0  0  0
   -2.2910   -2.7800    3.7970 H   0  0  0  0  0  0  0  0  0  0  0  0
   -2.9840   -2.2010    2.2210 H   0  0  0  0  0  0  0  0  0  0  0  0
   -1.6860   -4.2800    0.5440 H   0  0  0  0  0  0  0  0  0  0  0  0
   -1.6100   -2.5900    0.0060 H   0  0  0  0  0  0  0  0  0  0  0  0
    0.2410   -3.9610   -0.9490 H   0  0  0  0  0  0  0  0  0  0  0  0
    1.2860   -5.4350    0.2470 H   0  0  0  0  0  0  0  0  0  0  0  0
    1.4650   -4.4640    1.5880 H   0  0  0  0  0  0  0  0  0  0  0  0
    3.6370    1.1370   -1.2730 O   0  0  0  0  0  0  0  0  0  0  0  0
    2.6740    0.1680   -1.5500 C   0  0  0  0  0  0  0  0  0  0  0  0
    2.0900   -0.3060   -0.2360 C   0  0  2  0  0  0  0  0  0  0  0  0
    1.0830   -1.3100   -0.4090 N   0  0  0  0  0  0  0  0  0  0  0  0
    1.5480    0.9060    0.4470 C   0  0  0  0  0  0  0  0  0  0  0  0
    2.3250    1.8550    0.6580 O   0  0  0  0  0  0  0  0  0  0  0  0
    3.3530    2.0130   -1.6170 H   0  0  0  0  0  0  0  0  0  0  0  0
    3.2200   -0.7060   -1.9850 H   0  0  0  0  0  0  0  0  0  0  0  0
    1.9130    0.5480   -2.2330 H   0  0  0  0  0  0  0  0  0  0  0  0
    2.8870   -0.6960    0.4100 H   0  0  0  0  0  0  0  0  0  0  0  0
    0.2290   -1.1900   -0.9730 H   0  0  0  0  0  0  0  0  0  0  0  0
   -0.8140    3.2500   -0.5030 O   0  0  0  0  0  0  0  0  0  0  0  0
   -1.3890    2.8870    0.7190 C   0  0  0  0  0  0  0  0  0  0  0  0
   -0.3060    2.2020    1.5200 C   0  0  2  0  0  0  0  0  0  0  0  0
    0.2070    1.0250    0.8600 N   0  0  0  0  0  0  0  0  0  0  0  0
   -0.7530    1.8480    2.8920 C   0  0  0  0  0  0  0  0  0  0  0  0
   -0.6470    0.6560    3.3020 O   0  0  0  0  0  0  0  0  0  0  0  0
   -1.2900    2.7670    3.7620 O   0  0  0  0  0  0  0  0  0  0  0  0
   -0.2030    4.0110   -0.3990 H   0  0  0  0  0  0  0  0  0  0  0  0
   -2.2940    2.2910    0.5970 H   0  0  0  0  0  0  0  0  0  0  0  0
   -1.6520    3.8190    1.2420 H   0  0  0  0  0  0  0  0  0  0  0  0
    0.5160    2.9620    1.6340 H   0  0  0  0  0  0  0  0  0  0  0  0
   -0.4310    0.2270    0.6790 H   0  0  0  0  0  0  0  0  0  0  0  0
  1  9  1  0  0  0  0
  2  3  2  0  0  0  0
  2  1  1  0  0  0  0
  4  2  1  0  0  0  0
  5 13  1  6  0  0  0
  5  7  1  0  0  0  0
  5  4  1  0  0  0  0
  5  6  1  0  0  0  0
  6 15  1  0  0  0  0
  7  8  2  0  0  0  0
 10  1  1  0  0  0  0
 11  4  1  0  0  0  0
 12  4  1  0  0  0  0
 14  6  1  0  0  0  0
 17 16  1  0  0  0  0
 17 18  1  0  0  0  0
 18 25  1  1  0  0  0
 18 20  1  0  0  0  0
 19 18  1  0  0  0  0
 19  7  1  0  0  0  0
 20 21  2  0  0  0  0
 20 30  1  0  0  0  0
 22 16  1  0  0  0  0
 23 17  1  0  0  0  0
 24 17  1  0  0  0  0
 26 19  1  0  0  0  0
 27 34  1  0  0  0  0
 27 28  1  0  0  0  0
 28 36  1  0  0  0  0
 28 29  1  0  0  0  0
 29 37  1  1  0  0  0
 29 31  1  0  0  0  0
 30 29  1  0  0  0  0
 31 32  2  0  0  0  0
 31 33  1  0  0  0  0
 35 28  1  0  0  0  0
 38 30  1  0  0  0  0
M  END
$$$$
