NST.pdb
 OpenBabel07022418113D

 41 40  0  0  1  0  0  0  0  0999 V2000
    0.2380   -4.4950   -2.3420 N   0  0  0  0  0  0  0  0  0  0  0  0
    0.8690   -4.5580   -1.0790 C   0  0  0  0  0  0  0  0  0  0  0  0
    1.4190   -5.6390   -0.7410 O   0  0  0  0  0  0  0  0  0  0  0  0
    0.8680   -3.3660   -0.2050 C   0  0  0  0  0  0  0  0  0  0  0  0
    2.3020   -3.0550    0.1750 C   0  0  2  0  0  0  0  0  0  0  0  0
    2.8380   -4.2020    0.8670 N   0  0  0  0  0  0  0  0  0  0  0  0
    2.4480   -1.8780    1.0220 C   0  0  0  0  0  0  0  0  0  0  0  0
    2.9900   -1.9740    2.1660 O   0  0  0  0  0  0  0  0  0  0  0  0
   -0.6810   -4.0120   -2.4810 H   0  0  0  0  0  0  0  0  0  0  0  0
    0.6670   -4.9330   -3.1840 H   0  0  0  0  0  0  0  0  0  0  0  0
    0.2880   -3.6810    0.7150 H   0  0  0  0  0  0  0  0  0  0  0  0
    0.3240   -2.5450   -0.6490 H   0  0  0  0  0  0  0  0  0  0  0  0
    2.9210   -2.9350   -0.7470 H   0  0  0  0  0  0  0  0  0  0  0  0
    3.3460   -4.8530    0.2570 H   0  0  0  0  0  0  0  0  0  0  0  0
    2.1390   -4.6710    1.4800 H   0  0  0  0  0  0  0  0  0  0  0  0
    4.3790    1.0340    0.6630 O   0  0  0  0  0  0  0  0  0  0  0  0
    3.1250    1.5820    0.9370 C   0  0  0  0  0  0  0  0  0  0  0  0
    2.2000    0.5580    1.5590 C   0  0  2  0  0  0  0  0  0  0  0  0
    2.0140   -0.5510    0.6660 N   0  0  0  0  0  0  0  0  0  0  0  0
    0.9310    1.1600    2.0150 C   0  0  0  0  0  0  0  0  0  0  0  0
    0.9450    2.1570    2.8070 O   0  0  0  0  0  0  0  0  0  0  0  0
    4.3960    0.4660   -0.1370 H   0  0  0  0  0  0  0  0  0  0  0  0
    2.7230    1.9240   -0.0610 H   0  0  0  0  0  0  0  0  0  0  0  0
    3.2830    2.4610    1.5860 H   0  0  0  0  0  0  0  0  0  0  0  0
    2.7070    0.1920    2.4800 H   0  0  0  0  0  0  0  0  0  0  0  0
    1.5700   -0.4690   -0.2780 H   0  0  0  0  0  0  0  0  0  0  0  0
   -1.8980    3.1570    0.4320 C   0  0  0  0  0  0  0  0  0  0  0  0
   -2.4440    1.8570    0.9650 C   0  0  1  0  0  0  0  0  0  0  0  0
   -2.7930    0.9760   -0.0520 O   0  0  0  0  0  0  0  0  0  0  0  0
   -1.6000    1.2570    2.0460 C   0  0  2  0  0  0  0  0  0  0  0  0
   -0.3540    0.7230    1.6440 N   0  0  0  0  0  0  0  0  0  0  0  0
   -2.4650    0.3340    2.8190 C   0  0  0  0  0  0  0  0  0  0  0  0
   -3.5810    0.7670    3.1960 O   0  0  0  0  0  0  0  0  0  0  0  0
   -2.1300   -0.9680    3.1560 O   0  0  0  0  0  0  0  0  0  0  0  0
   -1.0130    2.9210   -0.1960 H   0  0  0  0  0  0  0  0  0  0  0  0
   -1.6770    3.8880    1.2400 H   0  0  0  0  0  0  0  0  0  0  0  0
   -2.6110    3.6700   -0.2430 H   0  0  0  0  0  0  0  0  0  0  0  0
   -3.4200    2.1180    1.4670 H   0  0  0  0  0  0  0  0  0  0  0  0
   -2.7910    1.4740   -0.8970 H   0  0  0  0  0  0  0  0  0  0  0  0
   -1.3820    2.1210    2.7500 H   0  0  0  0  0  0  0  0  0  0  0  0
   -0.3990   -0.1050    0.9830 H   0  0  0  0  0  0  0  0  0  0  0  0
  1  2  1  0  0  0  0
  2  3  2  0  0  0  0
  2  4  1  0  0  0  0
  4  5  1  0  0  0  0
  4 11  1  0  0  0  0
  5 13  1  6  0  0  0
  5  6  1  0  0  0  0
  5  7  1  0  0  0  0
  6 15  1  0  0  0  0
  7  8  2  0  0  0  0
  9  1  1  0  0  0  0
 10  1  1  0  0  0  0
 12  4  1  0  0  0  0
 14  6  1  0  0  0  0
 16 17  1  0  0  0  0
 17 18  1  0  0  0  0
 17 24  1  0  0  0  0
 18 20  1  0  0  0  0
 18 25  1  1  0  0  0
 19  7  1  0  0  0  0
 19 18  1  0  0  0  0
 20 21  2  0  0  0  0
 22 16  1  0  0  0  0
 23 17  1  0  0  0  0
 26 19  1  0  0  0  0
 27 28  1  0  0  0  0
 27 36  1  0  0  0  0
 28 38  1  1  0  0  0
 28 30  1  0  0  0  0
 29 28  1  0  0  0  0
 30 40  1  1  0  0  0
 30 32  1  0  0  0  0
 31 20  1  0  0  0  0
 31 30  1  0  0  0  0
 32 34  2  0  0  0  0
 32 33  1  0  0  0  0
 35 27  1  0  0  0  0
 37 27  1  0  0  0  0
 39 29  1  0  0  0  0
 41 31  1  0  0  0  0
M  END
$$$$
