NSV.pdb
 OpenBabel07022418113D

 43 42  0  0  1  0  0  0  0  0999 V2000
   -1.7100   -3.9440    3.5800 N   0  0  0  0  0  0  0  0  0  0  0  0
   -0.3430   -3.6310    3.1870 C   0  0  0  0  0  0  0  0  0  0  0  0
   -0.0780   -3.8610    2.0010 O   0  0  0  0  0  0  0  0  0  0  0  0
    0.5060   -3.0990    4.2400 C   0  0  0  0  0  0  0  0  0  0  0  0
    1.9090   -2.7110    3.8640 C   0  0  2  0  0  0  0  0  0  0  0  0
    2.4940   -2.2370    5.1510 N   0  0  0  0  0  0  0  0  0  0  0  0
    1.9670   -1.5210    2.9840 C   0  0  0  0  0  0  0  0  0  0  0  0
    1.9990   -0.3740    3.5160 O   0  0  0  0  0  0  0  0  0  0  0  0
   -1.8790   -4.5960    4.3640 H   0  0  0  0  0  0  0  0  0  0  0  0
   -2.4420   -3.4640    3.0150 H   0  0  0  0  0  0  0  0  0  0  0  0
    0.5780   -3.7840    5.1180 H   0  0  0  0  0  0  0  0  0  0  0  0
    0.0180   -2.1740    4.6510 H   0  0  0  0  0  0  0  0  0  0  0  0
    2.4800   -3.5590    3.4870 H   0  0  0  0  0  0  0  0  0  0  0  0
    2.3640   -2.9410    5.8910 H   0  0  0  0  0  0  0  0  0  0  0  0
    2.0190   -1.3390    5.3810 H   0  0  0  0  0  0  0  0  0  0  0  0
    3.4540   -1.4020   -0.9360 O   0  0  0  0  0  0  0  0  0  0  0  0
    3.2880   -0.3310   -0.0830 C   0  0  0  0  0  0  0  0  0  0  0  0
    2.0420   -0.3940    0.7370 C   0  0  2  0  0  0  0  0  0  0  0  0
    1.9910   -1.5750    1.5860 N   0  0  0  0  0  0  0  0  0  0  0  0
    0.7970   -0.2480   -0.0580 C   0  0  0  0  0  0  0  0  0  0  0  0
   -0.1700   -1.0720    0.0390 O   0  0  0  0  0  0  0  0  0  0  0  0
    3.7120   -1.0380   -1.8200 H   0  0  0  0  0  0  0  0  0  0  0  0
    4.1430   -0.3850    0.6530 H   0  0  0  0  0  0  0  0  0  0  0  0
    3.3790    0.6500   -0.5730 H   0  0  0  0  0  0  0  0  0  0  0  0
    2.0620    0.4820    1.4330 H   0  0  0  0  0  0  0  0  0  0  0  0
    1.9900   -2.4970    1.1060 H   0  0  0  0  0  0  0  0  0  0  0  0
   -1.5360    2.3330    0.1250 C   0  0  0  0  0  0  0  0  0  0  0  0
   -1.2270    2.2950   -1.3400 C   0  0  0  0  0  0  0  0  0  0  0  0
   -2.5180    2.5520   -2.1170 C   0  0  0  0  0  0  0  0  0  0  0  0
   -0.6080    0.9600   -1.7480 C   0  0  2  0  0  0  0  0  0  0  0  0
    0.6140    0.8240   -0.9750 N   0  0  0  0  0  0  0  0  0  0  0  0
   -0.3490    0.9290   -3.2010 C   0  0  0  0  0  0  0  0  0  0  0  0
    0.8160    0.8010   -3.6330 O   0  0  0  0  0  0  0  0  0  0  0  0
   -1.3850    1.0420   -4.1020 O   0  0  0  0  0  0  0  0  0  0  0  0
   -1.4520    3.3980    0.4800 H   0  0  0  0  0  0  0  0  0  0  0  0
   -0.7800    1.7790    0.7330 H   0  0  0  0  0  0  0  0  0  0  0  0
   -2.5680    1.9820    0.3010 H   0  0  0  0  0  0  0  0  0  0  0  0
   -0.5080    3.1340   -1.5560 H   0  0  0  0  0  0  0  0  0  0  0  0
   -2.9330    1.5560   -2.3810 H   0  0  0  0  0  0  0  0  0  0  0  0
   -2.2340    3.1100   -3.0300 H   0  0  0  0  0  0  0  0  0  0  0  0
   -3.2290    3.1540   -1.4950 H   0  0  0  0  0  0  0  0  0  0  0  0
   -1.3420    0.1850   -1.5270 H   0  0  0  0  0  0  0  0  0  0  0  0
    1.3870    1.5170   -1.0790 H   0  0  0  0  0  0  0  0  0  0  0  0
  1  9  1  0  0  0  0
  2  1  1  0  0  0  0
  2  4  1  0  0  0  0
  3  2  2  0  0  0  0
  4 12  1  0  0  0  0
  4 11  1  0  0  0  0
  5 13  1  6  0  0  0
  5  4  1  0  0  0  0
  5  6  1  0  0  0  0
  6 15  1  0  0  0  0
  6 14  1  0  0  0  0
  7  8  2  0  0  0  0
  7  5  1  0  0  0  0
 10  1  1  0  0  0  0
 16 17  1  0  0  0  0
 17 23  1  0  0  0  0
 17 18  1  0  0  0  0
 18 25  1  1  0  0  0
 18 19  1  0  0  0  0
 19  7  1  0  0  0  0
 20 21  2  0  0  0  0
 20 18  1  0  0  0  0
 22 16  1  0  0  0  0
 24 17  1  0  0  0  0
 26 19  1  0  0  0  0
 27 37  1  0  0  0  0
 27 35  1  0  0  0  0
 27 36  1  0  0  0  0
 28 27  1  0  0  0  0
 29 41  1  0  0  0  0
 29 28  1  0  0  0  0
 30 42  1  1  0  0  0
 30 28  1  0  0  0  0
 30 31  1  0  0  0  0
 31 20  1  0  0  0  0
 32 30  1  0  0  0  0
 33 32  1  0  0  0  0
 34 32  2  0  0  0  0
 38 28  1  0  0  0  0
 39 29  1  0  0  0  0
 40 29  1  0  0  0  0
 43 31  1  0  0  0  0
M  END
$$$$
