NSW.pdb
 OpenBabel07022418113D

 51 52  0  0  1  0  0  0  0  0999 V2000
    7.1740   -2.9310   -0.2910 N   0  0  0  0  0  0  0  0  0  0  0  0
    5.9800   -2.6640    0.4250 C   0  0  0  0  0  0  0  0  0  0  0  0
    4.9060   -3.1320   -0.0410 O   0  0  0  0  0  0  0  0  0  0  0  0
    5.9910   -1.8540    1.6920 C   0  0  0  0  0  0  0  0  0  0  0  0
    4.5800   -1.7260    2.2250 C   0  0  2  0  0  0  0  0  0  0  0  0
    4.0340   -3.0450    2.5060 N   0  0  0  0  0  0  0  0  0  0  0  0
    3.7680   -0.9930    1.2330 C   0  0  0  0  0  0  0  0  0  0  0  0
    4.1020    0.1510    0.8990 O   0  0  0  0  0  0  0  0  0  0  0  0
    7.5410   -3.8910   -0.4510 H   0  0  0  0  0  0  0  0  0  0  0  0
    7.7630   -2.1530   -0.7060 H   0  0  0  0  0  0  0  0  0  0  0  0
    6.6930   -2.2540    2.4330 H   0  0  0  0  0  0  0  0  0  0  0  0
    6.3050   -0.8260    1.3890 H   0  0  0  0  0  0  0  0  0  0  0  0
    4.6470   -1.1880    3.1990 H   0  0  0  0  0  0  0  0  0  0  0  0
    3.2700   -2.9990    3.2430 H   0  0  0  0  0  0  0  0  0  0  0  0
    4.8140   -3.5890    2.9850 H   0  0  0  0  0  0  0  0  0  0  0  0
    3.1410   -1.6060   -2.2070 O   0  0  0  0  0  0  0  0  0  0  0  0
    1.8640   -1.5050   -1.7100 C   0  0  0  0  0  0  0  0  0  0  0  0
    1.8110   -0.8210   -0.3370 C   0  0  2  0  0  0  0  0  0  0  0  0
    2.5870   -1.5610    0.6300 N   0  0  0  0  0  0  0  0  0  0  0  0
    0.3830   -0.7410    0.0220 C   0  0  0  0  0  0  0  0  0  0  0  0
   -0.0270   -1.3010    1.0690 O   0  0  0  0  0  0  0  0  0  0  0  0
    3.5330   -0.6920   -2.2180 H   0  0  0  0  0  0  0  0  0  0  0  0
    1.3060   -0.7970   -2.3930 H   0  0  0  0  0  0  0  0  0  0  0  0
    1.2890   -2.4300   -1.7070 H   0  0  0  0  0  0  0  0  0  0  0  0
    2.2960    0.1650   -0.4780 H   0  0  0  0  0  0  0  0  0  0  0  0
    2.3580   -2.5270    0.9510 H   0  0  0  0  0  0  0  0  0  0  0  0
   -0.5930   -0.0580   -0.7480 N   0  0  0  0  0  0  0  0  0  0  0  0
   -1.9900   -0.0080   -0.3540 C   0  0  1  0  0  0  0  0  0  0  0  0
   -2.4680    1.3900   -0.0940 C   0  0  0  0  0  0  0  0  0  0  0  0
   -3.8990    1.3070    0.3020 C   0  0  0  0  0  0  0  0  0  0  0  0
   -5.0100    1.6350   -0.4680 C   0  0  0  0  0  0  0  0  0  0  0  0
   -6.1400    1.4220    0.2700 N   0  0  0  0  0  0  0  0  0  0  0  0
   -5.8010    0.9680    1.4870 C   0  0  0  0  0  0  0  0  0  0  0  0
   -6.5430    0.6070    2.5900 C   0  0  0  0  0  0  0  0  0  0  0  0
   -5.9450    0.1560    3.7700 C   0  0  0  0  0  0  0  0  0  0  0  0
   -4.5620    0.0940    3.7640 C   0  0  0  0  0  0  0  0  0  0  0  0
   -3.8010    0.4490    2.6760 C   0  0  0  0  0  0  0  0  0  0  0  0
   -4.4240    0.8930    1.5180 C   0  0  0  0  0  0  0  0  0  0  0  0
   -2.7770   -0.6170   -1.4440 C   0  0  0  0  0  0  0  0  0  0  0  0
   -4.0310   -0.7500   -1.4160 O   0  0  0  0  0  0  0  0  0  0  0  0
   -2.1660   -1.1010   -2.6160 O   0  0  0  0  0  0  0  0  0  0  0  0
   -0.3210    0.4260   -1.6210 H   0  0  0  0  0  0  0  0  0  0  0  0
   -2.1760   -0.5850    0.5720 H   0  0  0  0  0  0  0  0  0  0  0  0
   -2.3850    2.0650   -0.9630 H   0  0  0  0  0  0  0  0  0  0  0  0
   -1.9200    1.8540    0.7550 H   0  0  0  0  0  0  0  0  0  0  0  0
   -5.0160    2.0030   -1.4870 H   0  0  0  0  0  0  0  0  0  0  0  0
   -7.1020    1.5970   -0.0910 H   0  0  0  0  0  0  0  0  0  0  0  0
   -7.6230    0.6520    2.6050 H   0  0  0  0  0  0  0  0  0  0  0  0
   -6.5250   -0.1290    4.6390 H   0  0  0  0  0  0  0  0  0  0  0  0
   -4.1040   -0.2600    4.6960 H   0  0  0  0  0  0  0  0  0  0  0  0
   -2.7070    0.3900    2.7000 H   0  0  0  0  0  0  0  0  0  0  0  0
  1  2  1  0  0  0  0
  2  4  1  0  0  0  0
  3  2  2  0  0  0  0
  4  5  1  0  0  0  0
  4 11  1  0  0  0  0
  5  6  1  0  0  0  0
  5 13  1  1  0  0  0
  6 15  1  0  0  0  0
  6 14  1  0  0  0  0
  7  5  1  0  0  0  0
  8  7  2  0  0  0  0
  9  1  1  0  0  0  0
 10  1  1  0  0  0  0
 12  4  1  0  0  0  0
 16 17  1  0  0  0  0
 17 24  1  0  0  0  0
 17 18  1  0  0  0  0
 18 25  1  6  0  0  0
 18 20  1  0  0  0  0
 18 19  1  0  0  0  0
 19 26  1  0  0  0  0
 19  7  1  0  0  0  0
 20 21  2  0  0  0  0
 22 16  1  0  0  0  0
 23 17  1  0  0  0  0
 27 28  1  0  0  0  0
 27 20  1  0  0  0  0
 28 29  1  0  0  0  0
 28 43  1  1  0  0  0
 29 30  1  0  0  0  0
 29 45  1  0  0  0  0
 30 38  1  0  0  0  0
 31 32  1  0  0  0  0
 31 30  2  0  0  0  0
 32 33  1  0  0  0  0
 33 38  2  0  0  0  0
 33 34  1  0  0  0  0
 34 48  1  0  0  0  0
 34 35  2  0  0  0  0
 35 49  1  0  0  0  0
 36 35  1  0  0  0  0
 36 50  1  0  0  0  0
 37 51  1  0  0  0  0
 37 36  2  0  0  0  0
 38 37  1  0  0  0  0
 39 40  1  0  0  0  0
 39 28  1  0  0  0  0
 41 39  2  0  0  0  0
 42 27  1  0  0  0  0
 44 29  1  0  0  0  0
 46 31  1  0  0  0  0
 47 32  1  0  0  0  0
M  END
$$$$
