NSY.pdb
 OpenBabel07022418113D

 48 48  0  0  1  0  0  0  0  0999 V2000
    3.0840   -4.1620    3.1460 N   0  0  0  0  0  0  0  0  0  0  0  0
    4.0320   -3.1410    3.0420 C   0  0  0  0  0  0  0  0  0  0  0  0
    5.2360   -3.4120    3.3670 O   0  0  0  0  0  0  0  0  0  0  0  0
    3.7820   -1.7530    2.5870 C   0  0  0  0  0  0  0  0  0  0  0  0
    2.3680   -1.4830    2.2020 C   0  0  2  0  0  0  0  0  0  0  0  0
    1.8720   -2.2910    1.1320 N   0  0  0  0  0  0  0  0  0  0  0  0
    2.2260   -0.0260    1.9600 C   0  0  0  0  0  0  0  0  0  0  0  0
    2.6370    0.7480    2.8530 O   0  0  0  0  0  0  0  0  0  0  0  0
    3.2060   -4.9240    3.8330 H   0  0  0  0  0  0  0  0  0  0  0  0
    2.2510   -4.1670    2.5350 H   0  0  0  0  0  0  0  0  0  0  0  0
    4.0470   -1.0880    3.4350 H   0  0  0  0  0  0  0  0  0  0  0  0
    4.5100   -1.5400    1.7860 H   0  0  0  0  0  0  0  0  0  0  0  0
    1.7300   -1.7040    3.1030 H   0  0  0  0  0  0  0  0  0  0  0  0
    0.8720   -2.5430    1.2460 H   0  0  0  0  0  0  0  0  0  0  0  0
    2.1450   -1.9900    0.1900 H   0  0  0  0  0  0  0  0  0  0  0  0
    3.5780    2.2080   -0.6650 O   0  0  0  0  0  0  0  0  0  0  0  0
    2.1950    2.4270   -0.6910 C   0  0  0  0  0  0  0  0  0  0  0  0
    1.5180    1.9360    0.5510 C   0  0  2  0  0  0  0  0  0  0  0  0
    1.6650    0.5460    0.8050 N   0  0  0  0  0  0  0  0  0  0  0  0
    0.0620    2.2310    0.4090 C   0  0  0  0  0  0  0  0  0  0  0  0
   -0.3590    3.3950    0.1800 O   0  0  0  0  0  0  0  0  0  0  0  0
    3.9830    2.2340   -1.5460 H   0  0  0  0  0  0  0  0  0  0  0  0
    1.7320    2.0780   -1.6230 H   0  0  0  0  0  0  0  0  0  0  0  0
    2.0780    3.5470   -0.6940 H   0  0  0  0  0  0  0  0  0  0  0  0
    1.9120    2.5330    1.4020 H   0  0  0  0  0  0  0  0  0  0  0  0
    1.3220   -0.1200    0.0600 H   0  0  0  0  0  0  0  0  0  0  0  0
   -2.6890   -4.9250   -0.5930 O   0  0  0  0  0  0  0  0  0  0  0  0
   -2.7180   -3.5380   -0.6520 C   0  0  0  0  0  0  0  0  0  0  0  0
   -1.7240   -2.7980   -1.2780 C   0  0  0  0  0  0  0  0  0  0  0  0
   -1.7610   -1.4280   -1.3310 C   0  0  0  0  0  0  0  0  0  0  0  0
   -2.8120   -0.7570   -0.7470 C   0  0  0  0  0  0  0  0  0  0  0  0
   -2.9560    0.7010   -0.7420 C   0  0  0  0  0  0  0  0  0  0  0  0
   -2.3310    1.4070    0.4070 C   0  0  2  0  0  0  0  0  0  0  0  0
   -0.9140    1.2150    0.5280 N   0  0  0  0  0  0  0  0  0  0  0  0
   -3.0050    1.1350    1.6800 C   0  0  0  0  0  0  0  0  0  0  0  0
   -2.3270    0.7740    2.6760 O   0  0  0  0  0  0  0  0  0  0  0  0
   -3.7920   -1.5050   -0.1280 C   0  0  0  0  0  0  0  0  0  0  0  0
   -3.7700   -2.8760   -0.0660 C   0  0  0  0  0  0  0  0  0  0  0  0
   -4.3720    1.2540    1.8520 O   0  0  0  0  0  0  0  0  0  0  0  0
   -2.3110   -5.5040   -1.3410 H   0  0  0  0  0  0  0  0  0  0  0  0
   -0.8830   -3.3040   -1.7480 H   0  0  0  0  0  0  0  0  0  0  0  0
   -1.0050   -0.8190   -1.8110 H   0  0  0  0  0  0  0  0  0  0  0  0
   -2.5590    1.1080   -1.7100 H   0  0  0  0  0  0  0  0  0  0  0  0
   -4.0390    0.9410   -0.7510 H   0  0  0  0  0  0  0  0  0  0  0  0
   -2.4720    2.5120    0.2070 H   0  0  0  0  0  0  0  0  0  0  0  0
   -0.5820    0.2440    0.7180 H   0  0  0  0  0  0  0  0  0  0  0  0
   -4.6570   -1.0230    0.3560 H   0  0  0  0  0  0  0  0  0  0  0  0
   -4.5690   -3.4230    0.4360 H   0  0  0  0  0  0  0  0  0  0  0  0
  1  9  1  0  0  0  0
  2  1  1  0  0  0  0
  2  3  2  0  0  0  0
  4  2  1  0  0  0  0
  4 11  1  0  0  0  0
  5  4  1  0  0  0  0
  5 13  1  1  0  0  0
  6 14  1  0  0  0  0
  6  5  1  0  0  0  0
  7  5  1  0  0  0  0
  7  8  2  0  0  0  0
 10  1  1  0  0  0  0
 12  4  1  0  0  0  0
 15  6  1  0  0  0  0
 17 16  1  0  0  0  0
 17 18  1  0  0  0  0
 18 19  1  0  0  0  0
 18 25  1  1  0  0  0
 19  7  1  0  0  0  0
 20 34  1  0  0  0  0
 20 18  1  0  0  0  0
 21 20  2  0  0  0  0
 22 16  1  0  0  0  0
 23 17  1  0  0  0  0
 24 17  1  0  0  0  0
 26 19  1  0  0  0  0
 28 27  1  0  0  0  0
 28 38  1  0  0  0  0
 29 28  2  0  0  0  0
 30 29  1  0  0  0  0
 30 31  2  0  0  0  0
 31 32  1  0  0  0  0
 31 37  1  0  0  0  0
 32 33  1  0  0  0  0
 33 45  1  6  0  0  0
 33 34  1  0  0  0  0
 33 35  1  0  0  0  0
 34 46  1  0  0  0  0
 35 39  2  0  0  0  0
 35 36  1  0  0  0  0
 37 38  2  0  0  0  0
 37 47  1  0  0  0  0
 38 48  1  0  0  0  0
 40 27  1  0  0  0  0
 41 29  1  0  0  0  0
 42 30  1  0  0  0  0
 43 32  1  0  0  0  0
 44 32  1  0  0  0  0
M  END
$$$$
