NTC.pdb
 OpenBabel07022418113D

 41 40  0  0  1  0  0  0  0  0999 V2000
    0.9570   -5.2060    0.4480 N   0  0  0  0  0  0  0  0  0  0  0  0
    1.6860   -4.4830    1.4540 C   0  0  0  0  0  0  0  0  0  0  0  0
    2.3870   -5.1110    2.2900 O   0  0  0  0  0  0  0  0  0  0  0  0
    1.5800   -3.0230    1.4650 C   0  0  0  0  0  0  0  0  0  0  0  0
    2.7760   -2.3410    0.8500 C   0  0  2  0  0  0  0  0  0  0  0  0
    3.9560   -2.6940    1.5740 N   0  0  0  0  0  0  0  0  0  0  0  0
    2.5790   -0.8870    0.6990 C   0  0  0  0  0  0  0  0  0  0  0  0
    3.3900   -0.0320    1.1540 O   0  0  0  0  0  0  0  0  0  0  0  0
    0.0370   -4.8410    0.1500 H   0  0  0  0  0  0  0  0  0  0  0  0
    1.3930   -6.0580    0.0710 H   0  0  0  0  0  0  0  0  0  0  0  0
    1.4570   -2.6760    2.5250 H   0  0  0  0  0  0  0  0  0  0  0  0
    0.6280   -2.7180    0.9670 H   0  0  0  0  0  0  0  0  0  0  0  0
    2.8810   -2.8110   -0.1750 H   0  0  0  0  0  0  0  0  0  0  0  0
    4.7540   -2.0600    1.3230 H   0  0  0  0  0  0  0  0  0  0  0  0
    3.8070   -2.7530    2.5990 H   0  0  0  0  0  0  0  0  0  0  0  0
    0.8120    2.6540   -2.0520 C   0  0  0  0  0  0  0  0  0  0  0  0
    1.1580    1.2350   -1.6820 C   0  0  1  0  0  0  0  0  0  0  0  0
    2.4280    0.9040   -2.1670 O   0  0  0  0  0  0  0  0  0  0  0  0
    1.1430    1.0000   -0.1940 C   0  0  2  0  0  0  0  0  0  0  0  0
    1.4400   -0.4100    0.0180 N   0  0  0  0  0  0  0  0  0  0  0  0
   -0.0890    1.4250    0.4750 C   0  0  0  0  0  0  0  0  0  0  0  0
   -0.4560    2.6190    0.3410 O   0  0  0  0  0  0  0  0  0  0  0  0
   -0.2520    2.8810   -1.9700 H   0  0  0  0  0  0  0  0  0  0  0  0
    1.0950    2.7910   -3.1340 H   0  0  0  0  0  0  0  0  0  0  0  0
    1.4760    3.3240   -1.4780 H   0  0  0  0  0  0  0  0  0  0  0  0
    0.4370    0.5570   -2.1880 H   0  0  0  0  0  0  0  0  0  0  0  0
    2.5200    1.1210   -3.1110 H   0  0  0  0  0  0  0  0  0  0  0  0
    2.0010    1.5640    0.2670 H   0  0  0  0  0  0  0  0  0  0  0  0
    0.7640   -1.1350   -0.3580 H   0  0  0  0  0  0  0  0  0  0  0  0
   -0.9070    0.5880    1.2680 N   0  0  0  0  0  0  0  0  0  0  0  0
   -2.1270    1.0110    1.9270 C   0  0  1  0  0  0  0  0  0  0  0  0
   -3.2920    0.1100    1.4850 C   0  0  0  0  0  0  0  0  0  0  0  0
   -2.8320   -1.5710    1.9770 S   0  0  0  0  0  0  0  0  0  0  0  0
   -2.0020    0.7910    3.3900 C   0  0  0  0  0  0  0  0  0  0  0  0
   -0.9310    0.2990    3.8300 O   0  0  0  0  0  0  0  0  0  0  0  0
   -3.0250    1.1090    4.2780 O   0  0  0  0  0  0  0  0  0  0  0  0
   -0.5960   -0.4070    1.3790 H   0  0  0  0  0  0  0  0  0  0  0  0
   -2.3750    2.0630    1.7120 H   0  0  0  0  0  0  0  0  0  0  0  0
   -3.5030    0.1990    0.4190 H   0  0  0  0  0  0  0  0  0  0  0  0
   -4.1950    0.3890    2.0640 H   0  0  0  0  0  0  0  0  0  0  0  0
   -2.2960   -2.2180    0.8660 H   0  0  0  0  0  0  0  0  0  0  0  0
  1  2  1  0  0  0  0
  2  4  1  0  0  0  0
  2  3  2  0  0  0  0
  4 11  1  0  0  0  0
  5 13  1  6  0  0  0
  5  4  1  0  0  0  0
  5  6  1  0  0  0  0
  6 15  1  0  0  0  0
  7  5  1  0  0  0  0
  7  8  2  0  0  0  0
  9  1  1  0  0  0  0
 10  1  1  0  0  0  0
 12  4  1  0  0  0  0
 14  6  1  0  0  0  0
 16 23  1  0  0  0  0
 16 17  1  0  0  0  0
 16 25  1  0  0  0  0
 17 26  1  6  0  0  0
 17 19  1  0  0  0  0
 18 17  1  0  0  0  0
 19 20  1  0  0  0  0
 19 28  1  1  0  0  0
 19 21  1  0  0  0  0
 20  7  1  0  0  0  0
 21 30  1  0  0  0  0
 22 21  2  0  0  0  0
 24 16  1  0  0  0  0
 27 18  1  0  0  0  0
 29 20  1  0  0  0  0
 30 37  1  0  0  0  0
 30 31  1  0  0  0  0
 31 38  1  6  0  0  0
 31 34  1  0  0  0  0
 32 31  1  0  0  0  0
 32 33  1  0  0  0  0
 32 40  1  0  0  0  0
 34 35  2  0  0  0  0
 34 36  1  0  0  0  0
 39 32  1  0  0  0  0
 41 33  1  0  0  0  0
M  END
$$$$
