NTD.pdb
 OpenBabel07022418113D

 43 42  0  0  1  0  0  0  0  0999 V2000
    4.4570   -3.8470    3.3490 N   0  0  0  0  0  0  0  0  0  0  0  0
    4.3590   -2.9400    2.2760 C   0  0  0  0  0  0  0  0  0  0  0  0
    4.9760   -1.8470    2.3870 O   0  0  0  0  0  0  0  0  0  0  0  0
    3.5650   -3.2780    1.0890 C   0  0  0  0  0  0  0  0  0  0  0  0
    2.1620   -2.7900    1.2350 C   0  0  2  0  0  0  0  0  0  0  0  0
    1.3550   -3.1170    0.0660 N   0  0  0  0  0  0  0  0  0  0  0  0
    2.0260   -1.3550    1.5380 C   0  0  0  0  0  0  0  0  0  0  0  0
    2.5890   -0.8160    2.5390 O   0  0  0  0  0  0  0  0  0  0  0  0
    4.3140   -3.4870    4.3170 H   0  0  0  0  0  0  0  0  0  0  0  0
    4.6640   -4.8620    3.2390 H   0  0  0  0  0  0  0  0  0  0  0  0
    3.5050   -4.3990    1.0310 H   0  0  0  0  0  0  0  0  0  0  0  0
    4.0500   -2.9400    0.1490 H   0  0  0  0  0  0  0  0  0  0  0  0
    1.7020   -3.3930    2.0730 H   0  0  0  0  0  0  0  0  0  0  0  0
    1.4710   -4.1480   -0.0930 H   0  0  0  0  0  0  0  0  0  0  0  0
    0.3530   -2.9990    0.3610 H   0  0  0  0  0  0  0  0  0  0  0  0
    1.4210    3.0800   -0.2470 C   0  0  0  0  0  0  0  0  0  0  0  0
    1.6040    1.5880   -0.3300 C   0  0  1  0  0  0  0  0  0  0  0  0
    2.9830    1.3090   -0.4390 O   0  0  0  0  0  0  0  0  0  0  0  0
    1.0290    0.8730    0.8760 C   0  0  2  0  0  0  0  0  0  0  0  0
    1.2380   -0.5340    0.6860 N   0  0  0  0  0  0  0  0  0  0  0  0
   -0.3970    1.2460    0.9720 C   0  0  0  0  0  0  0  0  0  0  0  0
   -0.6650    2.4640    1.1390 O   0  0  0  0  0  0  0  0  0  0  0  0
    1.4280    3.4620    0.7860 H   0  0  0  0  0  0  0  0  0  0  0  0
    2.2270    3.6110   -0.8230 H   0  0  0  0  0  0  0  0  0  0  0  0
    0.4560    3.4190   -0.7090 H   0  0  0  0  0  0  0  0  0  0  0  0
    1.1220    1.2350   -1.2750 H   0  0  0  0  0  0  0  0  0  0  0  0
    3.2370    1.2780   -1.4070 H   0  0  0  0  0  0  0  0  0  0  0  0
    1.5580    1.2450    1.7690 H   0  0  0  0  0  0  0  0  0  0  0  0
    0.7830   -0.9960   -0.1300 H   0  0  0  0  0  0  0  0  0  0  0  0
   -1.4590    0.3290    0.8880 N   0  0  0  0  0  0  0  0  0  0  0  0
   -2.8640    0.6510    0.9740 C   0  0  1  0  0  0  0  0  0  0  0  0
   -3.5490    0.1010   -0.2560 C   0  0  0  0  0  0  0  0  0  0  0  0
   -2.9970    0.6820   -1.4990 C   0  0  0  0  0  0  0  0  0  0  0  0
   -2.0780    1.5220   -1.4240 O   0  0  0  0  0  0  0  0  0  0  0  0
   -3.4940    0.1050    2.1920 C   0  0  0  0  0  0  0  0  0  0  0  0
   -2.8050   -0.5500    2.9990 O   0  0  0  0  0  0  0  0  0  0  0  0
   -3.4890    0.3060   -2.7290 O   0  0  0  0  0  0  0  0  0  0  0  0
   -4.8300    0.3110    2.4450 O   0  0  0  0  0  0  0  0  0  0  0  0
   -1.2300   -0.6790    0.7520 H   0  0  0  0  0  0  0  0  0  0  0  0
   -2.9240    1.7580    1.0170 H   0  0  0  0  0  0  0  0  0  0  0  0
   -4.6550    0.2210   -0.1920 H   0  0  0  0  0  0  0  0  0  0  0  0
   -3.3930   -1.0060   -0.3440 H   0  0  0  0  0  0  0  0  0  0  0  0
   -3.0700    0.6140   -3.5870 H   0  0  0  0  0  0  0  0  0  0  0  0
  1  9  1  0  0  0  0
  2  3  2  0  0  0  0
  2  1  1  0  0  0  0
  4  5  1  0  0  0  0
  4  2  1  0  0  0  0
  5  7  1  0  0  0  0
  5 13  1  1  0  0  0
  6 15  1  0  0  0  0
  6  5  1  0  0  0  0
  7  8  2  0  0  0  0
 10  1  1  0  0  0  0
 11  4  1  0  0  0  0
 12  4  1  0  0  0  0
 14  6  1  0  0  0  0
 16 23  1  0  0  0  0
 17 26  1  6  0  0  0
 17 16  1  0  0  0  0
 17 19  1  0  0  0  0
 18 17  1  0  0  0  0
 19 21  1  0  0  0  0
 19 28  1  1  0  0  0
 20 19  1  0  0  0  0
 20  7  1  0  0  0  0
 21 22  2  0  0  0  0
 24 16  1  0  0  0  0
 25 16  1  0  0  0  0
 27 18  1  0  0  0  0
 29 20  1  0  0  0  0
 30 21  1  0  0  0  0
 30 31  1  0  0  0  0
 31 40  1  1  0  0  0
 31 35  1  0  0  0  0
 32 41  1  0  0  0  0
 32 31  1  0  0  0  0
 33 34  2  0  0  0  0
 33 32  1  0  0  0  0
 35 38  2  0  0  0  0
 35 36  1  0  0  0  0
 37 33  1  0  0  0  0
 39 30  1  0  0  0  0
 42 32  1  0  0  0  0
 43 37  1  0  0  0  0
M  END
$$$$
