NTE.pdb
 OpenBabel07022418113D

 46 45  0  0  1  0  0  0  0  0999 V2000
   -2.7900   -3.7530    3.5220 N   0  0  0  0  0  0  0  0  0  0  0  0
   -2.1980   -2.4410    3.6320 C   0  0  0  0  0  0  0  0  0  0  0  0
   -0.9650   -2.4150    3.5020 O   0  0  0  0  0  0  0  0  0  0  0  0
   -3.1090   -1.3350    3.8780 C   0  0  0  0  0  0  0  0  0  0  0  0
   -2.4860    0.0310    3.9230 C   0  0  2  0  0  0  0  0  0  0  0  0
   -3.5680    1.0150    4.2030 N   0  0  0  0  0  0  0  0  0  0  0  0
   -1.8830    0.3640    2.6170 C   0  0  0  0  0  0  0  0  0  0  0  0
   -2.6140    0.7720    1.6570 O   0  0  0  0  0  0  0  0  0  0  0  0
   -3.5330   -3.9950    4.1950 H   0  0  0  0  0  0  0  0  0  0  0  0
   -2.4660   -4.4040    2.7920 H   0  0  0  0  0  0  0  0  0  0  0  0
   -3.8680   -1.3670    3.0330 H   0  0  0  0  0  0  0  0  0  0  0  0
   -3.7310   -1.5060    4.8050 H   0  0  0  0  0  0  0  0  0  0  0  0
   -1.7760    0.1220    4.7440 H   0  0  0  0  0  0  0  0  0  0  0  0
   -4.2610    1.0140    3.4350 H   0  0  0  0  0  0  0  0  0  0  0  0
   -3.9720    0.8320    5.1440 H   0  0  0  0  0  0  0  0  0  0  0  0
    0.2640    2.9530    1.8780 C   0  0  0  0  0  0  0  0  0  0  0  0
    1.0210    1.7560    1.3570 C   0  0  1  0  0  0  0  0  0  0  0  0
    1.9910    1.4240    2.2970 O   0  0  0  0  0  0  0  0  0  0  0  0
    0.1180    0.5680    1.1140 C   0  0  2  0  0  0  0  0  0  0  0  0
   -0.4940    0.2450    2.4060 N   0  0  0  0  0  0  0  0  0  0  0  0
    0.9450   -0.5390    0.6320 C   0  0  0  0  0  0  0  0  0  0  0  0
    1.0410   -1.5940    1.3220 O   0  0  0  0  0  0  0  0  0  0  0  0
   -0.1990    2.7600    2.8680 H   0  0  0  0  0  0  0  0  0  0  0  0
    1.0460    3.7420    2.0800 H   0  0  0  0  0  0  0  0  0  0  0  0
   -0.4230    3.3920    1.1390 H   0  0  0  0  0  0  0  0  0  0  0  0
    1.5380    2.0550    0.4260 H   0  0  0  0  0  0  0  0  0  0  0  0
    1.7340    1.7890    3.1830 H   0  0  0  0  0  0  0  0  0  0  0  0
   -0.6530    0.8970    0.3880 H   0  0  0  0  0  0  0  0  0  0  0  0
    0.0990   -0.0580    3.2050 H   0  0  0  0  0  0  0  0  0  0  0  0
    1.6730   -0.5180   -0.5940 N   0  0  0  0  0  0  0  0  0  0  0  0
    2.4770   -1.6190   -1.0430 C   0  0  1  0  0  0  0  0  0  0  0  0
    2.0240   -2.3560   -2.2290 C   0  0  0  0  0  0  0  0  0  0  0  0
    1.8730   -1.7100   -3.5340 C   0  0  0  0  0  0  0  0  0  0  0  0
    0.9470   -0.5980   -3.6780 C   0  0  0  0  0  0  0  0  0  0  0  0
    1.3870    0.5770   -3.7820 O   0  0  0  0  0  0  0  0  0  0  0  0
    3.9290   -1.2730   -1.0650 C   0  0  0  0  0  0  0  0  0  0  0  0
    4.2520   -0.1140   -0.6980 O   0  0  0  0  0  0  0  0  0  0  0  0
   -0.4440   -0.7360   -3.7100 O   0  0  0  0  0  0  0  0  0  0  0  0
    4.9210   -2.1220   -1.4540 O   0  0  0  0  0  0  0  0  0  0  0  0
    1.6020    0.3460   -1.1500 H   0  0  0  0  0  0  0  0  0  0  0  0
    2.4230   -2.3850   -0.1960 H   0  0  0  0  0  0  0  0  0  0  0  0
    2.7150   -3.2300   -2.3640 H   0  0  0  0  0  0  0  0  0  0  0  0
    1.0370   -2.8290   -1.9670 H   0  0  0  0  0  0  0  0  0  0  0  0
    2.8500   -1.4500   -4.0350 H   0  0  0  0  0  0  0  0  0  0  0  0
    1.4810   -2.5190   -4.2350 H   0  0  0  0  0  0  0  0  0  0  0  0
   -1.0450    0.0610   -3.4610 H   0  0  0  0  0  0  0  0  0  0  0  0
  1  2  1  0  0  0  0
  1  9  1  0  0  0  0
  2  4  1  0  0  0  0
  3  2  2  0  0  0  0
  4  5  1  0  0  0  0
  4 12  1  0  0  0  0
  5  6  1  0  0  0  0
  5 13  1  1  0  0  0
  6 15  1  0  0  0  0
  7  5  1  0  0  0  0
  8  7  2  0  0  0  0
 10  1  1  0  0  0  0
 11  4  1  0  0  0  0
 14  6  1  0  0  0  0
 16 24  1  0  0  0  0
 16 23  1  0  0  0  0
 17 26  1  6  0  0  0
 17 16  1  0  0  0  0
 17 18  1  0  0  0  0
 18 27  1  0  0  0  0
 19 28  1  6  0  0  0
 19 17  1  0  0  0  0
 19 20  1  0  0  0  0
 20  7  1  0  0  0  0
 20 29  1  0  0  0  0
 21 19  1  0  0  0  0
 21 22  2  0  0  0  0
 25 16  1  0  0  0  0
 30 21  1  0  0  0  0
 31 30  1  0  0  0  0
 31 41  1  1  0  0  0
 32 43  1  0  0  0  0
 32 31  1  0  0  0  0
 33 32  1  0  0  0  0
 34 33  1  0  0  0  0
 35 34  2  0  0  0  0
 36 31  1  0  0  0  0
 36 37  1  0  0  0  0
 38 34  1  0  0  0  0
 38 46  1  0  0  0  0
 39 36  2  0  0  0  0
 40 30  1  0  0  0  0
 42 32  1  0  0  0  0
 44 33  1  0  0  0  0
 45 33  1  0  0  0  0
M  END
$$$$
