NTF.pdb
 OpenBabel07022418113D

 50 50  0  0  1  0  0  0  0  0999 V2000
    2.9350   -4.9160    2.9070 N   0  0  0  0  0  0  0  0  0  0  0  0
    3.5970   -4.1430    1.8930 C   0  0  0  0  0  0  0  0  0  0  0  0
    4.5480   -4.6950    1.2770 O   0  0  0  0  0  0  0  0  0  0  0  0
    3.1170   -2.7650    1.6520 C   0  0  0  0  0  0  0  0  0  0  0  0
    3.9320   -2.0600    0.5810 C   0  0  2  0  0  0  0  0  0  0  0  0
    5.3310   -1.9690    0.9740 N   0  0  0  0  0  0  0  0  0  0  0  0
    3.4520   -0.6750    0.3690 C   0  0  0  0  0  0  0  0  0  0  0  0
    4.1510    0.3430    0.6140 O   0  0  0  0  0  0  0  0  0  0  0  0
    3.5000   -5.0970    3.7770 H   0  0  0  0  0  0  0  0  0  0  0  0
    1.9710   -5.2850    2.8190 H   0  0  0  0  0  0  0  0  0  0  0  0
    2.0420   -2.7170    1.4920 H   0  0  0  0  0  0  0  0  0  0  0  0
    3.3620   -2.1950    2.6020 H   0  0  0  0  0  0  0  0  0  0  0  0
    3.8950   -2.7000   -0.3200 H   0  0  0  0  0  0  0  0  0  0  0  0
    5.7130   -1.0100    0.8120 H   0  0  0  0  0  0  0  0  0  0  0  0
    5.9450   -2.6500    0.4680 H   0  0  0  0  0  0  0  0  0  0  0  0
    3.0410    1.5040   -2.3520 C   0  0  0  0  0  0  0  0  0  0  0  0
    1.6580    1.3610   -1.7960 C   0  0  1  0  0  0  0  0  0  0  0  0
    0.8360    0.5500   -2.5730 O   0  0  0  0  0  0  0  0  0  0  0  0
    1.6710    0.9430   -0.3360 C   0  0  2  0  0  0  0  0  0  0  0  0
    2.1330   -0.3920   -0.1420 N   0  0  0  0  0  0  0  0  0  0  0  0
    0.3130    1.1810    0.2040 C   0  0  0  0  0  0  0  0  0  0  0  0
   -0.2280    2.3010    0.1630 O   0  0  0  0  0  0  0  0  0  0  0  0
    3.0850    2.1950   -3.2230 H   0  0  0  0  0  0  0  0  0  0  0  0
    3.4910    0.5520   -2.7200 H   0  0  0  0  0  0  0  0  0  0  0  0
    3.7180    1.9690   -1.5800 H   0  0  0  0  0  0  0  0  0  0  0  0
    1.1910    2.3780   -1.8190 H   0  0  0  0  0  0  0  0  0  0  0  0
    1.3020    0.1380   -3.3370 H   0  0  0  0  0  0  0  0  0  0  0  0
    2.3660    1.6540    0.1530 H   0  0  0  0  0  0  0  0  0  0  0  0
    1.5390   -1.2170   -0.3600 H   0  0  0  0  0  0  0  0  0  0  0  0
   -0.4200    0.1140    0.7910 N   0  0  0  0  0  0  0  0  0  0  0  0
   -1.7730    0.3760    1.3150 C   0  0  1  0  0  0  0  0  0  0  0  0
   -2.7430   -0.3460    0.3660 C   0  0  0  0  0  0  0  0  0  0  0  0
   -4.1450   -0.2010    0.7400 C   0  0  0  0  0  0  0  0  0  0  0  0
   -4.9050    0.8640    0.3090 C   0  0  0  0  0  0  0  0  0  0  0  0
   -6.2290    0.9620    0.6610 C   0  0  0  0  0  0  0  0  0  0  0  0
   -6.8610    0.0200    1.4500 C   0  0  0  0  0  0  0  0  0  0  0  0
   -6.0870   -1.0360    1.8720 C   0  0  0  0  0  0  0  0  0  0  0  0
   -4.7590   -1.1580    1.5340 C   0  0  0  0  0  0  0  0  0  0  0  0
   -1.8920   -0.1630    2.6780 C   0  0  0  0  0  0  0  0  0  0  0  0
   -2.9420   -0.0770    3.3550 O   0  0  0  0  0  0  0  0  0  0  0  0
   -0.8010   -0.7960    3.2480 O   0  0  0  0  0  0  0  0  0  0  0  0
   -0.0380   -0.8670    0.8690 H   0  0  0  0  0  0  0  0  0  0  0  0
   -1.9660    1.4760    1.2460 H   0  0  0  0  0  0  0  0  0  0  0  0
   -2.4750   -1.4390    0.4320 H   0  0  0  0  0  0  0  0  0  0  0  0
   -2.5150    0.0170   -0.6580 H   0  0  0  0  0  0  0  0  0  0  0  0
   -4.4340    1.6410   -0.3200 H   0  0  0  0  0  0  0  0  0  0  0  0
   -6.8000    1.8080    0.3100 H   0  0  0  0  0  0  0  0  0  0  0  0
   -7.9200    0.1120    1.7220 H   0  0  0  0  0  0  0  0  0  0  0  0
   -6.6060   -1.7790    2.4990 H   0  0  0  0  0  0  0  0  0  0  0  0
   -4.2060   -2.0310    1.9070 H   0  0  0  0  0  0  0  0  0  0  0  0
  1  9  1  0  0  0  0
  2  1  1  0  0  0  0
  3  2  2  0  0  0  0
  4  2  1  0  0  0  0
  4 12  1  0  0  0  0
  5 13  1  6  0  0  0
  5  6  1  0  0  0  0
  5  4  1  0  0  0  0
  7  5  1  0  0  0  0
  7  8  2  0  0  0  0
 10  1  1  0  0  0  0
 11  4  1  0  0  0  0
 14  6  1  0  0  0  0
 15  6  1  0  0  0  0
 16 17  1  0  0  0  0
 16 25  1  0  0  0  0
 17 26  1  6  0  0  0
 17 19  1  0  0  0  0
 18 17  1  0  0  0  0
 19 20  1  0  0  0  0
 19 28  1  1  0  0  0
 19 21  1  0  0  0  0
 20  7  1  0  0  0  0
 21 30  1  0  0  0  0
 22 21  2  0  0  0  0
 23 16  1  0  0  0  0
 24 16  1  0  0  0  0
 27 18  1  0  0  0  0
 29 20  1  0  0  0  0
 30 42  1  0  0  0  0
 30 31  1  0  0  0  0
 31 43  1  1  0  0  0
 31 39  1  0  0  0  0
 32 44  1  0  0  0  0
 32 33  1  0  0  0  0
 32 31  1  0  0  0  0
 33 38  1  0  0  0  0
 34 35  1  0  0  0  0
 34 33  2  0  0  0  0
 35 36  2  0  0  0  0
 36 48  1  0  0  0  0
 36 37  1  0  0  0  0
 37 49  1  0  0  0  0
 38 37  2  0  0  0  0
 38 50  1  0  0  0  0
 39 41  2  0  0  0  0
 39 40  1  0  0  0  0
 45 32  1  0  0  0  0
 46 34  1  0  0  0  0
 47 35  1  0  0  0  0
M  END
$$$$
