NTG.pdb
 OpenBabel07022418113D

 37 36  0  0  1  0  0  0  0  0999 V2000
    1.7770   -2.6990    5.0370 N   0  0  0  0  0  0  0  0  0  0  0  0
    1.9730   -3.0280    3.6680 C   0  0  0  0  0  0  0  0  0  0  0  0
    2.3980   -4.1820    3.4070 O   0  0  0  0  0  0  0  0  0  0  0  0
    1.6840   -2.0370    2.6010 C   0  0  0  0  0  0  0  0  0  0  0  0
    1.9820   -2.6560    1.2510 C   0  0  2  0  0  0  0  0  0  0  0  0
    3.3760   -3.0490    1.1640 N   0  0  0  0  0  0  0  0  0  0  0  0
    1.7280   -1.6900    0.1460 C   0  0  0  0  0  0  0  0  0  0  0  0
    2.6290   -1.3450   -0.6630 O   0  0  0  0  0  0  0  0  0  0  0  0
    1.5210   -3.4090    5.7580 H   0  0  0  0  0  0  0  0  0  0  0  0
    1.8950   -1.7000    5.3310 H   0  0  0  0  0  0  0  0  0  0  0  0
    0.6750   -1.6330    2.6680 H   0  0  0  0  0  0  0  0  0  0  0  0
    2.4110   -1.1800    2.7110 H   0  0  0  0  0  0  0  0  0  0  0  0
    1.3810   -3.5840    1.1480 H   0  0  0  0  0  0  0  0  0  0  0  0
    3.9440   -2.2390    0.8210 H   0  0  0  0  0  0  0  0  0  0  0  0
    3.4220   -3.7590    0.3760 H   0  0  0  0  0  0  0  0  0  0  0  0
   -2.1740   -0.7580   -1.5130 C   0  0  0  0  0  0  0  0  0  0  0  0
   -0.8120   -0.5810   -2.1230 C   0  0  1  0  0  0  0  0  0  0  0  0
   -0.8990    0.4360   -3.0760 O   0  0  0  0  0  0  0  0  0  0  0  0
    0.2300   -0.1750   -1.1300 C   0  0  2  0  0  0  0  0  0  0  0  0
    0.4610   -1.0920   -0.0760 N   0  0  0  0  0  0  0  0  0  0  0  0
   -0.2020    1.1280   -0.5350 C   0  0  0  0  0  0  0  0  0  0  0  0
   -0.4690    2.1080   -1.2750 O   0  0  0  0  0  0  0  0  0  0  0  0
   -2.1560   -0.7460   -0.3960 H   0  0  0  0  0  0  0  0  0  0  0  0
   -2.8900    0.0510   -1.8050 H   0  0  0  0  0  0  0  0  0  0  0  0
   -2.6560   -1.7060   -1.8930 H   0  0  0  0  0  0  0  0  0  0  0  0
   -0.4840   -1.4900   -2.7070 H   0  0  0  0  0  0  0  0  0  0  0  0
   -1.6510    0.3050   -3.7010 H   0  0  0  0  0  0  0  0  0  0  0  0
    1.1850   -0.0360   -1.7030 H   0  0  0  0  0  0  0  0  0  0  0  0
   -0.3420   -1.3320    0.5590 H   0  0  0  0  0  0  0  0  0  0  0  0
   -0.3270    1.3110    0.8700 N   0  0  0  0  0  0  0  0  0  0  0  0
   -0.7330    2.5220    1.5000 C   0  0  0  0  0  0  0  0  0  0  0  0
   -2.0590    2.9940    1.1270 C   0  0  0  0  0  0  0  0  0  0  0  0
   -2.7680    2.3660    0.3140 O   0  0  0  0  0  0  0  0  0  0  0  0
   -2.5630    4.1570    1.6710 O   0  0  0  0  0  0  0  0  0  0  0  0
   -0.1010    0.4860    1.4520 H   0  0  0  0  0  0  0  0  0  0  0  0
    0.0680    3.3000    1.3030 H   0  0  0  0  0  0  0  0  0  0  0  0
   -0.7160    2.3750    2.6030 H   0  0  0  0  0  0  0  0  0  0  0  0
  1 10  1  0  0  0  0
  1  9  1  0  0  0  0
  2  1  1  0  0  0  0
  3  2  2  0  0  0  0
  4 11  1  0  0  0  0
  4 12  1  0  0  0  0
  4  2  1  0  0  0  0
  5 13  1  6  0  0  0
  5  4  1  0  0  0  0
  6  5  1  0  0  0  0
  7  5  1  0  0  0  0
  8  7  2  0  0  0  0
 14  6  1  0  0  0  0
 15  6  1  0  0  0  0
 16 23  1  0  0  0  0
 17 26  1  6  0  0  0
 17 16  1  0  0  0  0
 17 19  1  0  0  0  0
 18 17  1  0  0  0  0
 19 28  1  6  0  0  0
 19 21  1  0  0  0  0
 19 20  1  0  0  0  0
 20  7  1  0  0  0  0
 20 29  1  0  0  0  0
 21 30  1  0  0  0  0
 22 21  2  0  0  0  0
 24 16  1  0  0  0  0
 25 16  1  0  0  0  0
 27 18  1  0  0  0  0
 30 35  1  0  0  0  0
 30 31  1  0  0  0  0
 31 37  1  0  0  0  0
 32 31  1  0  0  0  0
 32 34  1  0  0  0  0
 33 32  2  0  0  0  0
 36 31  1  0  0  0  0
M  END
$$$$
