NTH.pdb
 OpenBabel07022418113D

 47 47  0  0  1  0  0  0  0  0999 V2000
    5.0590   -5.1350   -0.0780 N   0  0  0  0  0  0  0  0  0  0  0  0
    3.7720   -4.5880    0.2930 C   0  0  0  0  0  0  0  0  0  0  0  0
    3.4920   -4.7510    1.5090 O   0  0  0  0  0  0  0  0  0  0  0  0
    2.9140   -3.9190   -0.6800 C   0  0  0  0  0  0  0  0  0  0  0  0
    1.6380   -3.3510   -0.1730 C   0  0  2  0  0  0  0  0  0  0  0  0
    0.9760   -2.7590   -1.3650 N   0  0  0  0  0  0  0  0  0  0  0  0
    1.7980   -2.2620    0.8290 C   0  0  0  0  0  0  0  0  0  0  0  0
    2.2980   -2.5120    1.9440 O   0  0  0  0  0  0  0  0  0  0  0  0
    5.1530   -5.9390   -0.7150 H   0  0  0  0  0  0  0  0  0  0  0  0
    5.8730   -4.6360    0.3630 H   0  0  0  0  0  0  0  0  0  0  0  0
    2.6340   -4.6920   -1.4550 H   0  0  0  0  0  0  0  0  0  0  0  0
    3.4750   -3.1490   -1.2900 H   0  0  0  0  0  0  0  0  0  0  0  0
    0.9500   -4.1340    0.1810 H   0  0  0  0  0  0  0  0  0  0  0  0
   -0.0410   -2.6710   -1.1490 H   0  0  0  0  0  0  0  0  0  0  0  0
    1.0780   -3.4800   -2.1200 H   0  0  0  0  0  0  0  0  0  0  0  0
    3.8590    0.7070    0.7520 C   0  0  0  0  0  0  0  0  0  0  0  0
    2.4910    1.1950    1.1430 C   0  0  1  0  0  0  0  0  0  0  0  0
    1.9580    1.8620    0.0380 O   0  0  0  0  0  0  0  0  0  0  0  0
    1.5960    0.0630    1.6070 C   0  0  2  0  0  0  0  0  0  0  0  0
    1.4020   -0.9250    0.5730 N   0  0  0  0  0  0  0  0  0  0  0  0
    0.2570    0.6470    1.9250 C   0  0  0  0  0  0  0  0  0  0  0  0
    0.1480    1.5580    2.8170 O   0  0  0  0  0  0  0  0  0  0  0  0
    4.1890   -0.0930    1.4360 H   0  0  0  0  0  0  0  0  0  0  0  0
    4.5510    1.5520    0.7950 H   0  0  0  0  0  0  0  0  0  0  0  0
    3.7920    0.3700   -0.3050 H   0  0  0  0  0  0  0  0  0  0  0  0
    2.6250    1.9540    1.9400 H   0  0  0  0  0  0  0  0  0  0  0  0
    2.0380    2.8410    0.1280 H   0  0  0  0  0  0  0  0  0  0  0  0
    2.0560   -0.3600    2.5170 H   0  0  0  0  0  0  0  0  0  0  0  0
    0.9790   -0.6420   -0.3310 H   0  0  0  0  0  0  0  0  0  0  0  0
   -0.9300    0.2240    1.2640 N   0  0  0  0  0  0  0  0  0  0  0  0
   -2.2410    0.8220    1.6010 C   0  0  1  0  0  0  0  0  0  0  0  0
   -2.8340    1.4550    0.3680 C   0  0  0  0  0  0  0  0  0  0  0  0
   -4.1380    2.0530    0.6900 C   0  0  0  0  0  0  0  0  0  0  0  0
   -5.3840    1.4810    0.5750 C   0  0  0  0  0  0  0  0  0  0  0  0
   -6.3260    2.3830    0.9500 N   0  0  0  0  0  0  0  0  0  0  0  0
   -5.6830    3.5100    1.2970 C   0  0  0  0  0  0  0  0  0  0  0  0
   -4.3640    3.3020    1.1370 N   0  0  0  0  0  0  0  0  0  0  0  0
   -3.1250   -0.2550    2.0730 C   0  0  0  0  0  0  0  0  0  0  0  0
   -4.2930   -0.0990    2.5040 O   0  0  0  0  0  0  0  0  0  0  0  0
   -2.6330   -1.5740    2.0440 O   0  0  0  0  0  0  0  0  0  0  0  0
   -0.8620   -0.5170    0.5340 H   0  0  0  0  0  0  0  0  0  0  0  0
   -2.0950    1.5920    2.4010 H   0  0  0  0  0  0  0  0  0  0  0  0
   -2.1350    2.1800   -0.1050 H   0  0  0  0  0  0  0  0  0  0  0  0
   -2.9470    0.6050   -0.3700 H   0  0  0  0  0  0  0  0  0  0  0  0
   -5.6580    0.4940    0.2460 H   0  0  0  0  0  0  0  0  0  0  0  0
   -7.3630    2.2820    0.9850 H   0  0  0  0  0  0  0  0  0  0  0  0
   -6.0970    4.4410    1.6470 H   0  0  0  0  0  0  0  0  0  0  0  0
  1  2  1  0  0  0  0
  1 10  1  0  0  0  0
  2  3  2  0  0  0  0
  4  5  1  0  0  0  0
  4  2  1  0  0  0  0
  5 13  1  1  0  0  0
  5  7  1  0  0  0  0
  6 14  1  0  0  0  0
  6  5  1  0  0  0  0
  7  8  2  0  0  0  0
  9  1  1  0  0  0  0
 11  4  1  0  0  0  0
 12  4  1  0  0  0  0
 15  6  1  0  0  0  0
 16 24  1  0  0  0  0
 16 17  1  0  0  0  0
 16 23  1  0  0  0  0
 17 19  1  0  0  0  0
 17 26  1  1  0  0  0
 18 27  1  0  0  0  0
 18 17  1  0  0  0  0
 19 21  1  0  0  0  0
 19 28  1  1  0  0  0
 20  7  1  0  0  0  0
 20 19  1  0  0  0  0
 21 22  2  0  0  0  0
 25 16  1  0  0  0  0
 29 20  1  0  0  0  0
 30 31  1  0  0  0  0
 30 21  1  0  0  0  0
 31 38  1  0  0  0  0
 31 42  1  1  0  0  0
 32 33  1  0  0  0  0
 32 31  1  0  0  0  0
 33 37  1  0  0  0  0
 34 33  2  0  0  0  0
 34 35  1  0  0  0  0
 35 46  1  0  0  0  0
 35 36  1  0  0  0  0
 36 47  1  0  0  0  0
 37 36  2  0  0  0  0
 38 39  1  0  0  0  0
 40 38  2  0  0  0  0
 41 30  1  0  0  0  0
 43 32  1  0  0  0  0
 44 32  1  0  0  0  0
 45 34  1  0  0  0  0
M  END
$$$$
