NTI.pdb
 OpenBabel07022418113D

 49 48  0  0  1  0  0  0  0  0999 V2000
    5.7370   -2.9840    1.2980 N   0  0  0  0  0  0  0  0  0  0  0  0
    5.0920   -1.7640    1.7030 C   0  0  0  0  0  0  0  0  0  0  0  0
    4.9500   -1.6080    2.9380 O   0  0  0  0  0  0  0  0  0  0  0  0
    4.6560   -0.8100    0.6610 C   0  0  0  0  0  0  0  0  0  0  0  0
    3.2800   -1.1410    0.1980 C   0  0  2  0  0  0  0  0  0  0  0  0
    2.8080   -0.2290   -0.8340 N   0  0  0  0  0  0  0  0  0  0  0  0
    2.3160   -1.0790    1.3420 C   0  0  0  0  0  0  0  0  0  0  0  0
    2.4320   -1.7940    2.3680 O   0  0  0  0  0  0  0  0  0  0  0  0
    5.2110   -3.8810    1.2240 H   0  0  0  0  0  0  0  0  0  0  0  0
    6.7550   -2.9300    1.0820 H   0  0  0  0  0  0  0  0  0  0  0  0
    4.7410    0.2330    1.0370 H   0  0  0  0  0  0  0  0  0  0  0  0
    5.3890   -0.9060   -0.1780 H   0  0  0  0  0  0  0  0  0  0  0  0
    3.2960   -2.1540   -0.2560 H   0  0  0  0  0  0  0  0  0  0  0  0
    3.1900    0.7090   -0.5830 H   0  0  0  0  0  0  0  0  0  0  0  0
    3.1240   -0.5760   -1.7460 H   0  0  0  0  0  0  0  0  0  0  0  0
   -0.1610    2.3340    2.1780 C   0  0  0  0  0  0  0  0  0  0  0  0
    0.2150    1.2160    3.0940 C   0  0  1  0  0  0  0  0  0  0  0  0
   -0.7170    1.1110    4.1350 O   0  0  0  0  0  0  0  0  0  0  0  0
    0.2710   -0.1300    2.4310 C   0  0  2  0  0  0  0  0  0  0  0  0
    1.1990   -0.1880    1.3240 N   0  0  0  0  0  0  0  0  0  0  0  0
   -1.0790   -0.6270    2.0350 C   0  0  0  0  0  0  0  0  0  0  0  0
   -1.9740   -0.6050    2.9160 O   0  0  0  0  0  0  0  0  0  0  0  0
    0.0600    3.2920    2.6700 H   0  0  0  0  0  0  0  0  0  0  0  0
    0.2670    2.2420    1.1660 H   0  0  0  0  0  0  0  0  0  0  0  0
   -1.2820    2.3060    2.0420 H   0  0  0  0  0  0  0  0  0  0  0  0
    1.1950    1.3870    3.5850 H   0  0  0  0  0  0  0  0  0  0  0  0
   -1.2310    1.9520    4.1600 H   0  0  0  0  0  0  0  0  0  0  0  0
    0.6300   -0.8500    3.2030 H   0  0  0  0  0  0  0  0  0  0  0  0
    1.0920    0.4160    0.4680 H   0  0  0  0  0  0  0  0  0  0  0  0
   -1.4150    0.0300   -2.1160 C   0  0  0  0  0  0  0  0  0  0  0  0
   -2.6470   -0.7830   -2.0450 C   0  0  0  0  0  0  0  0  0  0  0  0
   -3.3550   -0.8280   -0.7390 C   0  0  2  0  0  0  0  0  0  0  0  0
   -3.8080    0.5310   -0.2560 C   0  0  0  0  0  0  0  0  0  0  0  0
   -2.6910   -1.5900    0.3520 C   0  0  2  0  0  0  0  0  0  0  0  0
   -1.3800   -1.1110    0.7300 N   0  0  0  0  0  0  0  0  0  0  0  0
   -2.6850   -3.0540    0.0810 C   0  0  0  0  0  0  0  0  0  0  0  0
   -1.6710   -3.7710    0.1750 O   0  0  0  0  0  0  0  0  0  0  0  0
   -3.8740   -3.6610   -0.2970 O   0  0  0  0  0  0  0  0  0  0  0  0
   -0.4830   -0.5610   -2.2570 H   0  0  0  0  0  0  0  0  0  0  0  0
   -1.2950    0.7470   -1.2780 H   0  0  0  0  0  0  0  0  0  0  0  0
   -1.4630    0.6730   -3.0280 H   0  0  0  0  0  0  0  0  0  0  0  0
   -2.4360   -1.8260   -2.3550 H   0  0  0  0  0  0  0  0  0  0  0  0
   -3.3840   -0.4020   -2.7980 H   0  0  0  0  0  0  0  0  0  0  0  0
   -4.3220   -1.3870   -0.9390 H   0  0  0  0  0  0  0  0  0  0  0  0
   -4.7740    0.8080   -0.7270 H   0  0  0  0  0  0  0  0  0  0  0  0
   -3.0800    1.3250   -0.4510 H   0  0  0  0  0  0  0  0  0  0  0  0
   -4.0060    0.4340    0.8360 H   0  0  0  0  0  0  0  0  0  0  0  0
   -3.3330   -1.4730    1.2660 H   0  0  0  0  0  0  0  0  0  0  0  0
   -0.5660   -1.0900    0.0720 H   0  0  0  0  0  0  0  0  0  0  0  0
  1  2  1  0  0  0  0
  2  3  2  0  0  0  0
  4 11  1  0  0  0  0
  4  2  1  0  0  0  0
  5 13  1  6  0  0  0
  5  4  1  0  0  0  0
  5  7  1  0  0  0  0
  6 14  1  0  0  0  0
  6  5  1  0  0  0  0
  7  8  2  0  0  0  0
  9  1  1  0  0  0  0
 10  1  1  0  0  0  0
 12  4  1  0  0  0  0
 15  6  1  0  0  0  0
 16 23  1  0  0  0  0
 16 17  1  0  0  0  0
 17 26  1  1  0  0  0
 17 18  1  0  0  0  0
 18 27  1  0  0  0  0
 19 17  1  0  0  0  0
 19 28  1  1  0  0  0
 20  7  1  0  0  0  0
 20 19  1  0  0  0  0
 21 19  1  0  0  0  0
 21 22  2  0  0  0  0
 24 16  1  0  0  0  0
 25 16  1  0  0  0  0
 29 20  1  0  0  0  0
 30 31  1  0  0  0  0
 30 40  1  0  0  0  0
 31 32  1  0  0  0  0
 32 44  1  6  0  0  0
 32 33  1  0  0  0  0
 32 34  1  0  0  0  0
 33 47  1  0  0  0  0
 34 35  1  0  0  0  0
 34 48  1  1  0  0  0
 35 21  1  0  0  0  0
 36 37  1  0  0  0  0
 36 34  1  0  0  0  0
 38 36  2  0  0  0  0
 39 30  1  0  0  0  0
 41 30  1  0  0  0  0
 42 31  1  0  0  0  0
 43 31  1  0  0  0  0
 45 33  1  0  0  0  0
 46 33  1  0  0  0  0
 49 35  1  0  0  0  0
M  END
$$$$
