NTN.pdb
 OpenBabel07022418113D

 44 43  0  0  1  0  0  0  0  0999 V2000
    3.8500   -3.8050    0.2500 N   0  0  0  0  0  0  0  0  0  0  0  0
    4.2740   -3.0680   -0.8720 C   0  0  0  0  0  0  0  0  0  0  0  0
    5.1810   -3.5180   -1.6020 O   0  0  0  0  0  0  0  0  0  0  0  0
    3.6560   -1.7710   -1.1920 C   0  0  0  0  0  0  0  0  0  0  0  0
    2.6100   -1.4610   -0.1800 C   0  0  2  0  0  0  0  0  0  0  0  0
    1.5890   -2.4750   -0.1720 N   0  0  0  0  0  0  0  0  0  0  0  0
    2.0310   -0.1000   -0.3130 C   0  0  0  0  0  0  0  0  0  0  0  0
    2.7070    0.9390   -0.3820 O   0  0  0  0  0  0  0  0  0  0  0  0
    4.0430   -3.4360    1.2060 H   0  0  0  0  0  0  0  0  0  0  0  0
    3.3420   -4.7230    0.2010 H   0  0  0  0  0  0  0  0  0  0  0  0
    3.1630   -1.8540   -2.2020 H   0  0  0  0  0  0  0  0  0  0  0  0
    4.4030   -0.9540   -1.2860 H   0  0  0  0  0  0  0  0  0  0  0  0
    3.0820   -1.4870    0.8400 H   0  0  0  0  0  0  0  0  0  0  0  0
    1.3770   -2.8560    0.7700 H   0  0  0  0  0  0  0  0  0  0  0  0
    1.7340   -3.2050   -0.9030 H   0  0  0  0  0  0  0  0  0  0  0  0
   -1.7030    2.4020   -2.0540 C   0  0  0  0  0  0  0  0  0  0  0  0
   -0.9470    1.1380   -1.7180 C   0  0  1  0  0  0  0  0  0  0  0  0
   -0.0440    0.9410   -2.7910 O   0  0  0  0  0  0  0  0  0  0  0  0
   -0.1130    1.2530   -0.4900 C   0  0  2  0  0  0  0  0  0  0  0  0
    0.6350    0.0010   -0.3620 N   0  0  0  0  0  0  0  0  0  0  0  0
   -0.8950    1.3740    0.7670 C   0  0  0  0  0  0  0  0  0  0  0  0
   -1.6230    2.3970    0.8470 O   0  0  0  0  0  0  0  0  0  0  0  0
   -1.7380    2.6030   -3.1520 H   0  0  0  0  0  0  0  0  0  0  0  0
   -2.7710    2.2330   -1.7480 H   0  0  0  0  0  0  0  0  0  0  0  0
   -1.2890    3.2860   -1.5450 H   0  0  0  0  0  0  0  0  0  0  0  0
   -1.5950    0.2420   -1.7070 H   0  0  0  0  0  0  0  0  0  0  0  0
   -0.5080    0.7670   -3.6260 H   0  0  0  0  0  0  0  0  0  0  0  0
    0.5760    2.1180   -0.5850 H   0  0  0  0  0  0  0  0  0  0  0  0
    0.0220   -0.8640   -0.3060 H   0  0  0  0  0  0  0  0  0  0  0  0
   -1.9700   -2.5420    4.5250 N   0  0  0  0  0  0  0  0  0  0  0  0
   -2.1060   -1.8660    3.3020 C   0  0  0  0  0  0  0  0  0  0  0  0
   -1.7500   -2.4420    2.2480 O   0  0  0  0  0  0  0  0  0  0  0  0
   -2.6510   -0.5180    3.2420 C   0  0  0  0  0  0  0  0  0  0  0  0
   -1.6210    0.5620    3.0410 C   0  0  2  0  0  0  0  0  0  0  0  0
   -0.8620    0.4350    1.8310 N   0  0  0  0  0  0  0  0  0  0  0  0
   -0.7720    0.7650    4.2410 C   0  0  0  0  0  0  0  0  0  0  0  0
   -1.3460    0.8790    5.3560 O   0  0  0  0  0  0  0  0  0  0  0  0
    0.5970    0.8370    4.2340 O   0  0  0  0  0  0  0  0  0  0  0  0
   -1.1800   -2.3180    5.1520 H   0  0  0  0  0  0  0  0  0  0  0  0
   -2.6600   -3.2620    4.7920 H   0  0  0  0  0  0  0  0  0  0  0  0
   -3.1540   -0.2950    4.2170 H   0  0  0  0  0  0  0  0  0  0  0  0
   -3.4150   -0.3920    2.4460 H   0  0  0  0  0  0  0  0  0  0  0  0
   -2.2130    1.5190    2.9400 H   0  0  0  0  0  0  0  0  0  0  0  0
   -0.2130   -0.3940    1.6600 H   0  0  0  0  0  0  0  0  0  0  0  0
  1  9  1  0  0  0  0
  2  1  1  0  0  0  0
  3  2  2  0  0  0  0
  4  2  1  0  0  0  0
  4  5  1  0  0  0  0
  5  6  1  0  0  0  0
  5 13  1  1  0  0  0
  6 14  1  0  0  0  0
  7  5  1  0  0  0  0
  8  7  2  0  0  0  0
 10  1  1  0  0  0  0
 11  4  1  0  0  0  0
 12  4  1  0  0  0  0
 15  6  1  0  0  0  0
 16 24  1  0  0  0  0
 16 17  1  0  0  0  0
 16 25  1  0  0  0  0
 17 26  1  1  0  0  0
 17 19  1  0  0  0  0
 18 17  1  0  0  0  0
 19 28  1  6  0  0  0
 19 20  1  0  0  0  0
 19 21  1  0  0  0  0
 20  7  1  0  0  0  0
 20 29  1  0  0  0  0
 21 22  2  0  0  0  0
 21 35  1  0  0  0  0
 23 16  1  0  0  0  0
 27 18  1  0  0  0  0
 30 40  1  0  0  0  0
 30 39  1  0  0  0  0
 31 30  1  0  0  0  0
 32 31  2  0  0  0  0
 33 31  1  0  0  0  0
 33 41  1  0  0  0  0
 34 43  1  6  0  0  0
 34 33  1  0  0  0  0
 34 36  1  0  0  0  0
 35 34  1  0  0  0  0
 36 37  1  0  0  0  0
 38 36  2  0  0  0  0
 42 33  1  0  0  0  0
 44 35  1  0  0  0  0
M  END
$$$$
