NTT.pdb
 OpenBabel07022418113D

 44 43  0  0  1  0  0  0  0  0999 V2000
   -0.4610   -6.5340    1.5120 N   0  0  0  0  0  0  0  0  0  0  0  0
    0.6380   -5.7490    1.0700 C   0  0  0  0  0  0  0  0  0  0  0  0
    1.6220   -6.3180    0.5400 O   0  0  0  0  0  0  0  0  0  0  0  0
    0.6630   -4.2780    1.2140 C   0  0  0  0  0  0  0  0  0  0  0  0
    1.9340   -3.7310    0.6650 C   0  0  2  0  0  0  0  0  0  0  0  0
    3.1110   -4.2320    1.3140 N   0  0  0  0  0  0  0  0  0  0  0  0
    1.9930   -2.2670    0.6000 C   0  0  0  0  0  0  0  0  0  0  0  0
    2.9880   -1.6500    1.0810 O   0  0  0  0  0  0  0  0  0  0  0  0
   -0.3950   -7.1940    2.3210 H   0  0  0  0  0  0  0  0  0  0  0  0
   -1.3660   -6.4400    1.0030 H   0  0  0  0  0  0  0  0  0  0  0  0
    0.4840   -4.0370    2.2760 H   0  0  0  0  0  0  0  0  0  0  0  0
   -0.1980   -3.8750    0.6500 H   0  0  0  0  0  0  0  0  0  0  0  0
    1.9960   -4.0940   -0.4050 H   0  0  0  0  0  0  0  0  0  0  0  0
    3.0340   -4.3010    2.3380 H   0  0  0  0  0  0  0  0  0  0  0  0
    3.5660   -5.0140    0.8380 H   0  0  0  0  0  0  0  0  0  0  0  0
   -0.0260    0.0210   -2.2970 C   0  0  0  0  0  0  0  0  0  0  0  0
    1.1450    0.4780   -1.4740 C   0  0  1  0  0  0  0  0  0  0  0  0
    1.2170    1.8640   -1.5040 O   0  0  0  0  0  0  0  0  0  0  0  0
    1.0630    0.0080   -0.0360 C   0  0  2  0  0  0  0  0  0  0  0  0
    0.9900   -1.4460    0.0210 N   0  0  0  0  0  0  0  0  0  0  0  0
   -0.1300    0.5270    0.6770 C   0  0  0  0  0  0  0  0  0  0  0  0
   -0.9860   -0.2790    1.1790 O   0  0  0  0  0  0  0  0  0  0  0  0
    0.0220   -1.0740   -2.4730 H   0  0  0  0  0  0  0  0  0  0  0  0
   -0.9460    0.3410   -1.8030 H   0  0  0  0  0  0  0  0  0  0  0  0
    0.0570    0.4990   -3.2880 H   0  0  0  0  0  0  0  0  0  0  0  0
    2.0780    0.0450   -1.8880 H   0  0  0  0  0  0  0  0  0  0  0  0
    2.0150    2.1800   -2.0010 H   0  0  0  0  0  0  0  0  0  0  0  0
    2.0160    0.3710    0.4400 H   0  0  0  0  0  0  0  0  0  0  0  0
    0.1590   -1.9170   -0.3840 H   0  0  0  0  0  0  0  0  0  0  0  0
   -0.1650    2.2390    3.5710 C   0  0  0  0  0  0  0  0  0  0  0  0
   -1.0880    3.1290    2.7980 C   0  0  1  0  0  0  0  0  0  0  0  0
   -0.3000    4.1800    2.2800 O   0  0  0  0  0  0  0  0  0  0  0  0
   -1.6100    2.3660    1.5720 C   0  0  2  0  0  0  0  0  0  0  0  0
   -0.4320    1.8990    0.8680 N   0  0  0  0  0  0  0  0  0  0  0  0
   -2.4340    3.2730    0.7690 C   0  0  0  0  0  0  0  0  0  0  0  0
   -3.4850    3.7600    1.2380 O   0  0  0  0  0  0  0  0  0  0  0  0
   -2.0750    3.6120   -0.5200 O   0  0  0  0  0  0  0  0  0  0  0  0
    0.2330    1.4040    2.9800 H   0  0  0  0  0  0  0  0  0  0  0  0
   -0.6890    1.8190    4.4650 H   0  0  0  0  0  0  0  0  0  0  0  0
    0.7150    2.8110    3.9740 H   0  0  0  0  0  0  0  0  0  0  0  0
   -1.9310    3.5310    3.3870 H   0  0  0  0  0  0  0  0  0  0  0  0
    0.4530    4.3870    2.8850 H   0  0  0  0  0  0  0  0  0  0  0  0
   -2.2410    1.5530    1.9400 H   0  0  0  0  0  0  0  0  0  0  0  0
    0.2460    2.5850    0.4750 H   0  0  0  0  0  0  0  0  0  0  0  0
  1  9  1  0  0  0  0
  2  4  1  0  0  0  0
  2  1  1  0  0  0  0
  3  2  2  0  0  0  0
  4 11  1  0  0  0  0
  5 13  1  6  0  0  0
  5  4  1  0  0  0  0
  5  6  1  0  0  0  0
  6 14  1  0  0  0  0
  7  5  1  0  0  0  0
  7  8  2  0  0  0  0
 10  1  1  0  0  0  0
 12  4  1  0  0  0  0
 15  6  1  0  0  0  0
 16 24  1  0  0  0  0
 16 17  1  0  0  0  0
 17 26  1  6  0  0  0
 17 19  1  0  0  0  0
 18 17  1  0  0  0  0
 19 20  1  0  0  0  0
 19 28  1  1  0  0  0
 19 21  1  0  0  0  0
 20  7  1  0  0  0  0
 21 34  1  0  0  0  0
 21 22  2  0  0  0  0
 23 16  1  0  0  0  0
 25 16  1  0  0  0  0
 27 18  1  0  0  0  0
 29 20  1  0  0  0  0
 30 40  1  0  0  0  0
 30 39  1  0  0  0  0
 31 41  1  1  0  0  0
 31 30  1  0  0  0  0
 32 31  1  0  0  0  0
 32 42  1  0  0  0  0
 33 43  1  1  0  0  0
 33 31  1  0  0  0  0
 34 33  1  0  0  0  0
 35 36  1  0  0  0  0
 35 33  1  0  0  0  0
 37 35  2  0  0  0  0
 38 30  1  0  0  0  0
 44 34  1  0  0  0  0
M  END
$$$$
