NTW.pdb
 OpenBabel07022418113D

 54 55  0  0  1  0  0  0  0  0999 V2000
    0.5240   -2.6650    2.6480 N   0  0  0  0  0  0  0  0  0  0  0  0
    1.9270   -2.4380    2.6660 C   0  0  0  0  0  0  0  0  0  0  0  0
    2.5600   -2.7570    3.7200 O   0  0  0  0  0  0  0  0  0  0  0  0
    2.6540   -1.8530    1.5170 C   0  0  0  0  0  0  0  0  0  0  0  0
    3.4510   -0.6250    1.9240 C   0  0  2  0  0  0  0  0  0  0  0  0
    4.4240   -0.9140    2.9380 N   0  0  0  0  0  0  0  0  0  0  0  0
    2.5880    0.5360    2.2310 C   0  0  0  0  0  0  0  0  0  0  0  0
    2.6980    1.1240    3.3290 O   0  0  0  0  0  0  0  0  0  0  0  0
   -0.1080   -2.5450    3.4750 H   0  0  0  0  0  0  0  0  0  0  0  0
    0.0530   -2.9760    1.7580 H   0  0  0  0  0  0  0  0  0  0  0  0
    3.3840   -2.5890    1.1010 H   0  0  0  0  0  0  0  0  0  0  0  0
    1.9840   -1.5480    0.7040 H   0  0  0  0  0  0  0  0  0  0  0  0
    4.0520   -0.3220    1.0130 H   0  0  0  0  0  0  0  0  0  0  0  0
    4.8990   -1.8240    2.6870 H   0  0  0  0  0  0  0  0  0  0  0  0
    4.0520   -0.9970    3.8950 H   0  0  0  0  0  0  0  0  0  0  0  0
    0.2950    4.4140    0.6400 C   0  0  0  0  0  0  0  0  0  0  0  0
    1.1820    3.2130    0.5270 C   0  0  1  0  0  0  0  0  0  0  0  0
    2.5030    3.5750    0.7740 O   0  0  0  0  0  0  0  0  0  0  0  0
    0.7570    2.1240    1.5070 C   0  0  2  0  0  0  0  0  0  0  0  0
    1.6410    0.9940    1.2980 N   0  0  0  0  0  0  0  0  0  0  0  0
   -0.6080    1.7410    1.1320 C   0  0  0  0  0  0  0  0  0  0  0  0
   -1.5070    2.6120    1.2350 O   0  0  0  0  0  0  0  0  0  0  0  0
   -0.0660    4.4940    1.6830 H   0  0  0  0  0  0  0  0  0  0  0  0
    0.8770    5.3320    0.4140 H   0  0  0  0  0  0  0  0  0  0  0  0
   -0.5470    4.2540   -0.0600 H   0  0  0  0  0  0  0  0  0  0  0  0
    1.1220    2.8250   -0.5260 H   0  0  0  0  0  0  0  0  0  0  0  0
    3.1490    3.0000    0.3160 H   0  0  0  0  0  0  0  0  0  0  0  0
    0.8540    2.5200    2.5200 H   0  0  0  0  0  0  0  0  0  0  0  0
    1.5390    0.5020    0.3630 H   0  0  0  0  0  0  0  0  0  0  0  0
   -1.0270    0.4910    0.6610 N   0  0  0  0  0  0  0  0  0  0  0  0
   -2.3790    0.2150    0.3070 C   0  0  1  0  0  0  0  0  0  0  0  0
   -2.5960   -0.1200   -1.1240 C   0  0  0  0  0  0  0  0  0  0  0  0
   -1.8510   -1.2900   -1.6520 C   0  0  0  0  0  0  0  0  0  0  0  0
   -0.6360   -1.2260   -2.3080 C   0  0  0  0  0  0  0  0  0  0  0  0
   -0.2480   -2.4580   -2.5950 N   0  0  0  0  0  0  0  0  0  0  0  0
   -1.1770   -3.3200   -2.1440 C   0  0  0  0  0  0  0  0  0  0  0  0
   -1.2400   -4.7180   -2.2050 C   0  0  0  0  0  0  0  0  0  0  0  0
   -2.3320   -5.3580   -1.6640 C   0  0  0  0  0  0  0  0  0  0  0  0
   -3.3640   -4.6700   -1.0640 C   0  0  0  0  0  0  0  0  0  0  0  0
   -3.2950   -3.2950   -1.0060 C   0  0  0  0  0  0  0  0  0  0  0  0
   -2.1960   -2.6090   -1.5470 C   0  0  0  0  0  0  0  0  0  0  0  0
   -2.9960   -0.6500    1.3220 C   0  0  0  0  0  0  0  0  0  0  0  0
   -4.2090   -0.9870    1.3680 O   0  0  0  0  0  0  0  0  0  0  0  0
   -2.2190   -1.1860    2.3650 O   0  0  0  0  0  0  0  0  0  0  0  0
   -0.3270   -0.2830    0.5630 H   0  0  0  0  0  0  0  0  0  0  0  0
   -2.9320    1.2170    0.4250 H   0  0  0  0  0  0  0  0  0  0  0  0
   -2.4300    0.7870   -1.7270 H   0  0  0  0  0  0  0  0  0  0  0  0
   -3.6860   -0.3760   -1.2570 H   0  0  0  0  0  0  0  0  0  0  0  0
   -0.0990   -0.3190   -2.5460 H   0  0  0  0  0  0  0  0  0  0  0  0
    0.6430   -2.7730   -3.0970 H   0  0  0  0  0  0  0  0  0  0  0  0
   -0.4240   -5.2590   -2.6790 H   0  0  0  0  0  0  0  0  0  0  0  0
   -2.4180   -6.4370   -1.6920 H   0  0  0  0  0  0  0  0  0  0  0  0
   -4.2090   -5.1990   -0.6460 H   0  0  0  0  0  0  0  0  0  0  0  0
   -4.0910   -2.7180   -0.5620 H   0  0  0  0  0  0  0  0  0  0  0  0
  1  2  1  0  0  0  0
  1  9  1  0  0  0  0
  2  3  2  0  0  0  0
  4  5  1  0  0  0  0
  4  2  1  0  0  0  0
  5 13  1  6  0  0  0
  5  7  1  0  0  0  0
  5  6  1  0  0  0  0
  6 15  1  0  0  0  0
  7  8  2  0  0  0  0
 10  1  1  0  0  0  0
 11  4  1  0  0  0  0
 12  4  1  0  0  0  0
 14  6  1  0  0  0  0
 16 23  1  0  0  0  0
 17 26  1  6  0  0  0
 17 16  1  0  0  0  0
 17 18  1  0  0  0  0
 17 19  1  0  0  0  0
 19 28  1  1  0  0  0
 20 19  1  0  0  0  0
 20  7  1  0  0  0  0
 21 22  2  0  0  0  0
 21 19  1  0  0  0  0
 24 16  1  0  0  0  0
 25 16  1  0  0  0  0
 27 18  1  0  0  0  0
 29 20  1  0  0  0  0
 30 21  1  0  0  0  0
 31 46  1  1  0  0  0
 31 30  1  0  0  0  0
 31 42  1  0  0  0  0
 32 31  1  0  0  0  0
 33 41  1  0  0  0  0
 33 32  1  0  0  0  0
 34 33  2  0  0  0  0
 35 34  1  0  0  0  0
 35 36  1  0  0  0  0
 36 41  1  0  0  0  0
 37 36  2  0  0  0  0
 37 38  1  0  0  0  0
 38 39  2  0  0  0  0
 39 40  1  0  0  0  0
 39 53  1  0  0  0  0
 40 54  1  0  0  0  0
 41 40  2  0  0  0  0
 42 43  2  0  0  0  0
 42 44  1  0  0  0  0
 45 30  1  0  0  0  0
 47 32  1  0  0  0  0
 48 32  1  0  0  0  0
 49 34  1  0  0  0  0
 50 35  1  0  0  0  0
 51 37  1  0  0  0  0
 52 38  1  0  0  0  0
M  END
$$$$
