NTY.pdb
 OpenBabel07022418113D

 51 51  0  0  1  0  0  0  0  0999 V2000
   -0.4870   -3.0770    2.8750 N   0  0  0  0  0  0  0  0  0  0  0  0
    0.8010   -2.5280    2.6420 C   0  0  0  0  0  0  0  0  0  0  0  0
    1.3310   -1.8410    3.5570 O   0  0  0  0  0  0  0  0  0  0  0  0
    1.4990   -2.7590    1.3510 C   0  0  0  0  0  0  0  0  0  0  0  0
    2.8380   -2.0600    1.3930 C   0  0  2  0  0  0  0  0  0  0  0  0
    3.6640   -2.5570    2.4640 N   0  0  0  0  0  0  0  0  0  0  0  0
    2.7310   -0.6010    1.4720 C   0  0  0  0  0  0  0  0  0  0  0  0
    3.3220    0.0100    2.3930 O   0  0  0  0  0  0  0  0  0  0  0  0
   -1.0420   -2.8420    3.7040 H   0  0  0  0  0  0  0  0  0  0  0  0
   -0.8900   -3.7540    2.1700 H   0  0  0  0  0  0  0  0  0  0  0  0
    0.8660   -2.4150    0.5300 H   0  0  0  0  0  0  0  0  0  0  0  0
    1.6530   -3.8380    1.2340 H   0  0  0  0  0  0  0  0  0  0  0  0
    3.3690   -2.2970    0.4300 H   0  0  0  0  0  0  0  0  0  0  0  0
    3.7780   -1.8040    3.1880 H   0  0  0  0  0  0  0  0  0  0  0  0
    3.2240   -3.4160    2.8650 H   0  0  0  0  0  0  0  0  0  0  0  0
    1.9140    1.6440   -1.9440 C   0  0  0  0  0  0  0  0  0  0  0  0
    2.4450    2.1750   -0.6520 C   0  0  1  0  0  0  0  0  0  0  0  0
    2.2900    3.5530   -0.5270 O   0  0  0  0  0  0  0  0  0  0  0  0
    1.8450    1.5110    0.5670 C   0  0  2  0  0  0  0  0  0  0  0  0
    1.9660    0.0810    0.5120 N   0  0  0  0  0  0  0  0  0  0  0  0
    0.4020    1.9000    0.7280 C   0  0  0  0  0  0  0  0  0  0  0  0
    0.0850    3.1120    0.7950 O   0  0  0  0  0  0  0  0  0  0  0  0
    1.5140    2.4660   -2.6080 H   0  0  0  0  0  0  0  0  0  0  0  0
    2.7260    1.1730   -2.5730 H   0  0  0  0  0  0  0  0  0  0  0  0
    1.1480    0.8500   -1.8250 H   0  0  0  0  0  0  0  0  0  0  0  0
    3.5370    1.9740   -0.6200 H   0  0  0  0  0  0  0  0  0  0  0  0
    1.5430    3.9140   -1.0590 H   0  0  0  0  0  0  0  0  0  0  0  0
    2.4240    1.8780    1.4360 H   0  0  0  0  0  0  0  0  0  0  0  0
    1.4620   -0.4330   -0.2710 H   0  0  0  0  0  0  0  0  0  0  0  0
   -1.9710   -4.8530   -0.9920 O   0  0  0  0  0  0  0  0  0  0  0  0
   -2.1760   -3.4890   -0.8030 C   0  0  0  0  0  0  0  0  0  0  0  0
   -3.2360   -3.0260   -0.0530 C   0  0  0  0  0  0  0  0  0  0  0  0
   -3.4700   -1.6680    0.1560 C   0  0  0  0  0  0  0  0  0  0  0  0
   -2.5940   -0.7640   -0.4210 C   0  0  0  0  0  0  0  0  0  0  0  0
   -2.7660    0.6890   -0.2470 C   0  0  0  0  0  0  0  0  0  0  0  0
   -2.0060    1.1950    0.9600 C   0  0  2  0  0  0  0  0  0  0  0  0
   -0.6000    0.9170    0.8060 N   0  0  0  0  0  0  0  0  0  0  0  0
   -2.5980    0.5690    2.1630 C   0  0  0  0  0  0  0  0  0  0  0  0
   -3.7930    0.7370    2.4310 O   0  0  0  0  0  0  0  0  0  0  0  0
   -1.5150   -1.1940   -1.1830 C   0  0  0  0  0  0  0  0  0  0  0  0
   -1.3320   -2.5440   -1.3560 C   0  0  0  0  0  0  0  0  0  0  0  0
   -1.7630   -0.1990    2.9590 O   0  0  0  0  0  0  0  0  0  0  0  0
   -2.4080   -5.5170   -0.3790 H   0  0  0  0  0  0  0  0  0  0  0  0
   -3.8960   -3.7580    0.3790 H   0  0  0  0  0  0  0  0  0  0  0  0
   -4.3170   -1.3530    0.7510 H   0  0  0  0  0  0  0  0  0  0  0  0
   -3.8430    0.9620   -0.1900 H   0  0  0  0  0  0  0  0  0  0  0  0
   -2.3370    1.1990   -1.1340 H   0  0  0  0  0  0  0  0  0  0  0  0
   -2.1530    2.3070    1.0020 H   0  0  0  0  0  0  0  0  0  0  0  0
   -0.2910   -0.0810    0.7460 H   0  0  0  0  0  0  0  0  0  0  0  0
   -0.8470   -0.4670   -1.6220 H   0  0  0  0  0  0  0  0  0  0  0  0
   -0.4980   -2.8800   -1.9470 H   0  0  0  0  0  0  0  0  0  0  0  0
  1  9  1  0  0  0  0
  2  1  1  0  0  0  0
  2  3  2  0  0  0  0
  4  5  1  0  0  0  0
  4  2  1  0  0  0  0
  5 13  1  6  0  0  0
  5  7  1  0  0  0  0
  5  6  1  0  0  0  0
  6 15  1  0  0  0  0
  6 14  1  0  0  0  0
  7  8  2  0  0  0  0
 10  1  1  0  0  0  0
 11  4  1  0  0  0  0
 12  4  1  0  0  0  0
 16 25  1  0  0  0  0
 16 17  1  0  0  0  0
 17 26  1  1  0  0  0
 17 18  1  0  0  0  0
 17 19  1  0  0  0  0
 19 21  1  0  0  0  0
 19 28  1  1  0  0  0
 20 19  1  0  0  0  0
 20  7  1  0  0  0  0
 21 22  2  0  0  0  0
 21 37  1  0  0  0  0
 23 16  1  0  0  0  0
 24 16  1  0  0  0  0
 27 18  1  0  0  0  0
 29 20  1  0  0  0  0
 30 31  1  0  0  0  0
 30 43  1  0  0  0  0
 31 32  1  0  0  0  0
 32 33  2  0  0  0  0
 32 44  1  0  0  0  0
 33 45  1  0  0  0  0
 34 35  1  0  0  0  0
 34 33  1  0  0  0  0
 35 46  1  0  0  0  0
 35 36  1  0  0  0  0
 36 48  1  1  0  0  0
 36 38  1  0  0  0  0
 37 36  1  0  0  0  0
 38 39  2  0  0  0  0
 38 42  1  0  0  0  0
 40 34  2  0  0  0  0
 41 40  1  0  0  0  0
 41 31  2  0  0  0  0
 47 35  1  0  0  0  0
 49 37  1  0  0  0  0
 50 40  1  0  0  0  0
 51 41  1  0  0  0  0
M  END
$$$$
