NVA.pdb
 OpenBabel07022418123D

 42 41  0  0  1  0  0  0  0  0999 V2000
    2.8520   -0.9510    4.5730 N   0  0  0  0  0  0  0  0  0  0  0  0
    2.7180   -1.2460    3.1870 C   0  0  0  0  0  0  0  0  0  0  0  0
    2.8480   -0.2860    2.3950 O   0  0  0  0  0  0  0  0  0  0  0  0
    2.4450   -2.5910    2.6920 C   0  0  0  0  0  0  0  0  0  0  0  0
    2.3560   -2.7680    1.2180 C   0  0  2  0  0  0  0  0  0  0  0  0
    3.5810   -2.4030    0.5590 N   0  0  0  0  0  0  0  0  0  0  0  0
    1.2290   -1.9780    0.6390 C   0  0  0  0  0  0  0  0  0  0  0  0
    0.0530   -2.1770    1.0410 O   0  0  0  0  0  0  0  0  0  0  0  0
    3.7830   -1.0560    5.0090 H   0  0  0  0  0  0  0  0  0  0  0  0
    2.0440   -0.6380    5.1340 H   0  0  0  0  0  0  0  0  0  0  0  0
    3.2150   -3.2900    3.1160 H   0  0  0  0  0  0  0  0  0  0  0  0
    1.4820   -2.9850    3.1450 H   0  0  0  0  0  0  0  0  0  0  0  0
    2.1410   -3.8700    1.0620 H   0  0  0  0  0  0  0  0  0  0  0  0
    3.5220   -2.6010   -0.4560 H   0  0  0  0  0  0  0  0  0  0  0  0
    3.7990   -1.4130    0.7240 H   0  0  0  0  0  0  0  0  0  0  0  0
   -0.7980   -2.1980   -1.8570 C   0  0  0  0  0  0  0  0  0  0  0  0
   -0.1110   -0.9090   -2.1840 C   0  0  0  0  0  0  0  0  0  0  0  0
   -0.9840   -0.0070   -3.0280 C   0  0  0  0  0  0  0  0  0  0  0  0
    0.4660   -0.1830   -0.9970 C   0  0  2  0  0  0  0  0  0  0  0  0
    1.4250   -0.9980   -0.3610 N   0  0  0  0  0  0  0  0  0  0  0  0
   -0.5070    0.5460   -0.2130 C   0  0  0  0  0  0  0  0  0  0  0  0
   -1.4640    1.0950   -0.8250 O   0  0  0  0  0  0  0  0  0  0  0  0
   -1.6170   -2.1000   -1.1200 H   0  0  0  0  0  0  0  0  0  0  0  0
   -0.0830   -2.9850   -1.5670 H   0  0  0  0  0  0  0  0  0  0  0  0
   -1.2360   -2.5600   -2.8370 H   0  0  0  0  0  0  0  0  0  0  0  0
    0.7720   -1.1820   -2.8330 H   0  0  0  0  0  0  0  0  0  0  0  0
   -0.8990   -0.3330   -4.1030 H   0  0  0  0  0  0  0  0  0  0  0  0
   -2.0500   -0.0910   -2.7610 H   0  0  0  0  0  0  0  0  0  0  0  0
   -0.6080    1.0420   -2.9990 H   0  0  0  0  0  0  0  0  0  0  0  0
    1.0880    0.6670   -1.5030 H   0  0  0  0  0  0  0  0  0  0  0  0
    2.4470   -0.8810   -0.6650 H   0  0  0  0  0  0  0  0  0  0  0  0
   -2.2440    0.5580    2.8740 C   0  0  0  0  0  0  0  0  0  0  0  0
   -1.4980    1.4420    1.8920 C   0  0  2  0  0  0  0  0  0  0  0  0
   -0.4730    0.6980    1.1820 N   0  0  0  0  0  0  0  0  0  0  0  0
   -0.9740    2.5900    2.6380 C   0  0  0  0  0  0  0  0  0  0  0  0
    0.2130    2.9470    2.7030 O   0  0  0  0  0  0  0  0  0  0  0  0
   -1.9000    3.3520    3.3420 O   0  0  0  0  0  0  0  0  0  0  0  0
   -2.6860    1.1510    3.6970 H   0  0  0  0  0  0  0  0  0  0  0  0
   -3.1050    0.0290    2.3830 H   0  0  0  0  0  0  0  0  0  0  0  0
   -1.6060   -0.2160    3.3180 H   0  0  0  0  0  0  0  0  0  0  0  0
   -2.2390    1.8240    1.1590 H   0  0  0  0  0  0  0  0  0  0  0  0
    0.2820    0.3120    1.7850 H   0  0  0  0  0  0  0  0  0  0  0  0
  1  9  1  0  0  0  0
  1 10  1  0  0  0  0
  2  1  1  0  0  0  0
  3  2  2  0  0  0  0
  4 11  1  0  0  0  0
  4 12  1  0  0  0  0
  4  2  1  0  0  0  0
  5 13  1  6  0  0  0
  5  4  1  0  0  0  0
  6 15  1  0  0  0  0
  6  5  1  0  0  0  0
  7  8  2  0  0  0  0
  7  5  1  0  0  0  0
 14  6  1  0  0  0  0
 16 24  1  0  0  0  0
 16 23  1  0  0  0  0
 17 16  1  0  0  0  0
 17 19  1  0  0  0  0
 18 29  1  0  0  0  0
 18 28  1  0  0  0  0
 18 17  1  0  0  0  0
 19 30  1  6  0  0  0
 19 20  1  0  0  0  0
 19 21  1  0  0  0  0
 20  7  1  0  0  0  0
 21 34  1  0  0  0  0
 22 21  2  0  0  0  0
 25 16  1  0  0  0  0
 26 17  1  0  0  0  0
 27 18  1  0  0  0  0
 31 20  1  0  0  0  0
 32 40  1  0  0  0  0
 32 38  1  0  0  0  0
 33 41  1  6  0  0  0
 33 35  1  0  0  0  0
 33 32  1  0  0  0  0
 34 42  1  0  0  0  0
 34 33  1  0  0  0  0
 35 36  2  0  0  0  0
 35 37  1  0  0  0  0
 39 32  1  0  0  0  0
M  END
$$$$
