NVC.pdb
 OpenBabel07022418123D

 43 42  0  0  1  0  0  0  0  0999 V2000
    3.0580   -4.1590    2.2790 N   0  0  0  0  0  0  0  0  0  0  0  0
    2.9810   -2.9440    3.0100 C   0  0  0  0  0  0  0  0  0  0  0  0
    3.6480   -2.8470    4.0900 O   0  0  0  0  0  0  0  0  0  0  0  0
    2.1410   -1.8090    2.5260 C   0  0  0  0  0  0  0  0  0  0  0  0
    3.0450   -0.8380    1.8310 C   0  0  2  0  0  0  0  0  0  0  0  0
    4.0520   -0.3520    2.7390 N   0  0  0  0  0  0  0  0  0  0  0  0
    2.3190    0.2790    1.1980 C   0  0  0  0  0  0  0  0  0  0  0  0
    2.6570    1.4550    1.4930 O   0  0  0  0  0  0  0  0  0  0  0  0
    2.8700   -4.2030    1.2530 H   0  0  0  0  0  0  0  0  0  0  0  0
    3.3070   -5.0580    2.7520 H   0  0  0  0  0  0  0  0  0  0  0  0
    1.6300   -1.3800    3.4110 H   0  0  0  0  0  0  0  0  0  0  0  0
    1.3430   -2.1780    1.8570 H   0  0  0  0  0  0  0  0  0  0  0  0
    3.6020   -1.4350    1.0490 H   0  0  0  0  0  0  0  0  0  0  0  0
    4.7660    0.2400    2.2820 H   0  0  0  0  0  0  0  0  0  0  0  0
    3.6450    0.0980    3.5900 H   0  0  0  0  0  0  0  0  0  0  0  0
    0.0990   -0.1810   -2.3490 C   0  0  0  0  0  0  0  0  0  0  0  0
    0.7090    1.0920   -1.8260 C   0  0  0  0  0  0  0  0  0  0  0  0
    2.1850    1.0620   -2.2310 C   0  0  0  0  0  0  0  0  0  0  0  0
    0.5730    1.2110   -0.3240 C   0  0  2  0  0  0  0  0  0  0  0  0
    1.2530    0.0800    0.2690 N   0  0  0  0  0  0  0  0  0  0  0  0
   -0.8870    1.1950   -0.0230 C   0  0  0  0  0  0  0  0  0  0  0  0
   -1.6060    2.1210   -0.4740 O   0  0  0  0  0  0  0  0  0  0  0  0
   -0.7660   -0.5260   -1.7500 H   0  0  0  0  0  0  0  0  0  0  0  0
    0.8310   -1.0140   -2.4080 H   0  0  0  0  0  0  0  0  0  0  0  0
   -0.3050    0.0420   -3.3670 H   0  0  0  0  0  0  0  0  0  0  0  0
    0.1870    1.9530   -2.2760 H   0  0  0  0  0  0  0  0  0  0  0  0
    2.7790    0.5650   -1.4650 H   0  0  0  0  0  0  0  0  0  0  0  0
    2.4610    2.1020   -2.4480 H   0  0  0  0  0  0  0  0  0  0  0  0
    2.3200    0.4730   -3.1770 H   0  0  0  0  0  0  0  0  0  0  0  0
    1.0110    2.1450    0.0240 H   0  0  0  0  0  0  0  0  0  0  0  0
    1.0020   -0.9080    0.0500 H   0  0  0  0  0  0  0  0  0  0  0  0
   -1.5060    0.1830    0.7490 N   0  0  0  0  0  0  0  0  0  0  0  0
   -2.9490    0.1860    1.0350 C   0  0  1  0  0  0  0  0  0  0  0  0
   -3.5180   -1.0420    0.3460 C   0  0  0  0  0  0  0  0  0  0  0  0
   -5.3020   -1.1610    0.6200 S   0  0  0  0  0  0  0  0  0  0  0  0
   -3.2120    0.1930    2.4740 C   0  0  0  0  0  0  0  0  0  0  0  0
   -4.3760    0.2010    2.9320 O   0  0  0  0  0  0  0  0  0  0  0  0
   -2.1620    0.1920    3.3980 O   0  0  0  0  0  0  0  0  0  0  0  0
   -0.8870   -0.5750    1.1110 H   0  0  0  0  0  0  0  0  0  0  0  0
   -3.4310    1.0700    0.5750 H   0  0  0  0  0  0  0  0  0  0  0  0
   -3.0600   -1.9780    0.7230 H   0  0  0  0  0  0  0  0  0  0  0  0
   -3.3350   -1.0110   -0.7470 H   0  0  0  0  0  0  0  0  0  0  0  0
   -5.5580   -1.8630    1.8010 H   0  0  0  0  0  0  0  0  0  0  0  0
  1 10  1  0  0  0  0
  1  2  1  0  0  0  0
  2  3  2  0  0  0  0
  4  2  1  0  0  0  0
  4 11  1  0  0  0  0
  5 13  1  6  0  0  0
  5  4  1  0  0  0  0
  5  6  1  0  0  0  0
  6 15  1  0  0  0  0
  7  8  2  0  0  0  0
  7  5  1  0  0  0  0
  9  1  1  0  0  0  0
 12  4  1  0  0  0  0
 14  6  1  0  0  0  0
 16 17  1  0  0  0  0
 16 23  1  0  0  0  0
 17 19  1  0  0  0  0
 18 17  1  0  0  0  0
 18 27  1  0  0  0  0
 19 21  1  0  0  0  0
 19 30  1  1  0  0  0
 19 20  1  0  0  0  0
 20  7  1  0  0  0  0
 21 32  1  0  0  0  0
 22 21  2  0  0  0  0
 24 16  1  0  0  0  0
 25 16  1  0  0  0  0
 26 17  1  0  0  0  0
 28 18  1  0  0  0  0
 29 18  1  0  0  0  0
 31 20  1  0  0  0  0
 32 33  1  0  0  0  0
 32 39  1  0  0  0  0
 33 40  1  6  0  0  0
 33 36  1  0  0  0  0
 34 35  1  0  0  0  0
 34 41  1  0  0  0  0
 34 33  1  0  0  0  0
 35 43  1  0  0  0  0
 36 37  2  0  0  0  0
 36 38  1  0  0  0  0
 42 34  1  0  0  0  0
M  END
$$$$
