NVD.pdb
 OpenBabel07022418123D

 45 44  0  0  1  0  0  0  0  0999 V2000
    2.8480   -4.8980    2.3550 N   0  0  0  0  0  0  0  0  0  0  0  0
    3.8930   -3.9950    2.6800 C   0  0  0  0  0  0  0  0  0  0  0  0
    4.9550   -4.4270    3.1730 O   0  0  0  0  0  0  0  0  0  0  0  0
    3.6720   -2.5410    2.4120 C   0  0  0  0  0  0  0  0  0  0  0  0
    2.2720   -2.3060    1.8920 C   0  0  2  0  0  0  0  0  0  0  0  0
    1.9780   -2.9970    0.6730 N   0  0  0  0  0  0  0  0  0  0  0  0
    1.8830   -0.8850    1.8780 C   0  0  0  0  0  0  0  0  0  0  0  0
    2.1910   -0.1930    2.8860 O   0  0  0  0  0  0  0  0  0  0  0  0
    1.9330   -4.7810    2.8360 H   0  0  0  0  0  0  0  0  0  0  0  0
    2.9740   -5.6620    1.6580 H   0  0  0  0  0  0  0  0  0  0  0  0
    4.4660   -2.1620    1.7300 H   0  0  0  0  0  0  0  0  0  0  0  0
    3.7540   -2.0320    3.4160 H   0  0  0  0  0  0  0  0  0  0  0  0
    1.6040   -2.7750    2.6770 H   0  0  0  0  0  0  0  0  0  0  0  0
    0.9710   -3.0940    0.4990 H   0  0  0  0  0  0  0  0  0  0  0  0
    2.5490   -2.6820   -0.1370 H   0  0  0  0  0  0  0  0  0  0  0  0
    1.1200    3.2280   -0.5460 C   0  0  0  0  0  0  0  0  0  0  0  0
    1.4530    1.7690   -0.4620 C   0  0  0  0  0  0  0  0  0  0  0  0
    2.9530    1.5850   -0.4540 C   0  0  0  0  0  0  0  0  0  0  0  0
    0.8120    1.1280    0.7760 C   0  0  2  0  0  0  0  0  0  0  0  0
    1.1830   -0.2730    0.7860 N   0  0  0  0  0  0  0  0  0  0  0  0
   -0.6470    1.2940    0.6010 C   0  0  0  0  0  0  0  0  0  0  0  0
   -1.1620    2.4490    0.5280 O   0  0  0  0  0  0  0  0  0  0  0  0
    1.9740    3.8150   -0.9480 H   0  0  0  0  0  0  0  0  0  0  0  0
    0.2460    3.4130   -1.2370 H   0  0  0  0  0  0  0  0  0  0  0  0
    0.8320    3.6860    0.4240 H   0  0  0  0  0  0  0  0  0  0  0  0
    1.0310    1.2470   -1.3450 H   0  0  0  0  0  0  0  0  0  0  0  0
    3.3160    1.9640   -1.4340 H   0  0  0  0  0  0  0  0  0  0  0  0
    3.2350    0.5190   -0.3710 H   0  0  0  0  0  0  0  0  0  0  0  0
    3.4340    2.2240    0.3220 H   0  0  0  0  0  0  0  0  0  0  0  0
    1.1780    1.6460    1.6950 H   0  0  0  0  0  0  0  0  0  0  0  0
    0.9670   -0.9220    0.0020 H   0  0  0  0  0  0  0  0  0  0  0  0
   -1.4470    0.1230    0.5190 N   0  0  0  0  0  0  0  0  0  0  0  0
   -2.8880    0.2800    0.3460 C   0  0  1  0  0  0  0  0  0  0  0  0
   -3.4410   -0.6120   -0.7250 C   0  0  0  0  0  0  0  0  0  0  0  0
   -4.8880   -0.4540   -0.9130 C   0  0  0  0  0  0  0  0  0  0  0  0
   -5.3920    0.7010   -1.0780 O   0  0  0  0  0  0  0  0  0  0  0  0
   -3.5290   -0.1430    1.6440 C   0  0  0  0  0  0  0  0  0  0  0  0
   -4.7750   -0.0910    1.7320 O   0  0  0  0  0  0  0  0  0  0  0  0
   -5.7700   -1.5310   -0.9210 O   0  0  0  0  0  0  0  0  0  0  0  0
   -2.7730   -0.5800    2.7100 O   0  0  0  0  0  0  0  0  0  0  0  0
   -1.0690   -0.8480    0.5740 H   0  0  0  0  0  0  0  0  0  0  0  0
   -3.1490    1.3300    0.1900 H   0  0  0  0  0  0  0  0  0  0  0  0
   -3.1400   -1.6580   -0.5330 H   0  0  0  0  0  0  0  0  0  0  0  0
   -2.8820   -0.3310   -1.6710 H   0  0  0  0  0  0  0  0  0  0  0  0
   -6.6790   -1.4680   -0.4380 H   0  0  0  0  0  0  0  0  0  0  0  0
  1  2  1  0  0  0  0
  1  9  1  0  0  0  0
  2  3  2  0  0  0  0
  4  2  1  0  0  0  0
  4 12  1  0  0  0  0
  5  4  1  0  0  0  0
  5 13  1  1  0  0  0
  6  5  1  0  0  0  0
  7  5  1  0  0  0  0
  7  8  2  0  0  0  0
 10  1  1  0  0  0  0
 11  4  1  0  0  0  0
 14  6  1  0  0  0  0
 15  6  1  0  0  0  0
 16 17  1  0  0  0  0
 16 25  1  0  0  0  0
 17 18  1  0  0  0  0
 17 19  1  0  0  0  0
 18 28  1  0  0  0  0
 18 29  1  0  0  0  0
 19 20  1  0  0  0  0
 19 30  1  1  0  0  0
 20  7  1  0  0  0  0
 21 19  1  0  0  0  0
 22 21  2  0  0  0  0
 23 16  1  0  0  0  0
 24 16  1  0  0  0  0
 26 17  1  0  0  0  0
 27 18  1  0  0  0  0
 31 20  1  0  0  0  0
 32 41  1  0  0  0  0
 32 21  1  0  0  0  0
 33 42  1  6  0  0  0
 33 32  1  0  0  0  0
 33 37  1  0  0  0  0
 34 43  1  0  0  0  0
 34 33  1  0  0  0  0
 35 34  1  0  0  0  0
 36 35  2  0  0  0  0
 37 38  2  0  0  0  0
 37 40  1  0  0  0  0
 39 35  1  0  0  0  0
 39 45  1  0  0  0  0
 44 34  1  0  0  0  0
M  END
$$$$
