NVG.pdb
 OpenBabel07022418123D

 39 38  0  0  1  0  0  0  0  0999 V2000
    1.7260   -5.1800    3.1430 N   0  0  0  0  0  0  0  0  0  0  0  0
    0.7230   -4.4920    2.4090 C   0  0  0  0  0  0  0  0  0  0  0  0
   -0.3120   -4.1900    3.0440 O   0  0  0  0  0  0  0  0  0  0  0  0
    0.9170   -4.1660    0.9870 C   0  0  0  0  0  0  0  0  0  0  0  0
   -0.1850   -3.3190    0.4100 C   0  0  2  0  0  0  0  0  0  0  0  0
    0.1440   -3.1310   -1.0160 N   0  0  0  0  0  0  0  0  0  0  0  0
   -0.1130   -1.9800    1.0800 C   0  0  0  0  0  0  0  0  0  0  0  0
   -0.3980   -1.8030    2.2730 O   0  0  0  0  0  0  0  0  0  0  0  0
    2.3170   -5.8740    2.6630 H   0  0  0  0  0  0  0  0  0  0  0  0
    1.8690   -4.9940    4.1490 H   0  0  0  0  0  0  0  0  0  0  0  0
    1.9010   -3.6030    0.9440 H   0  0  0  0  0  0  0  0  0  0  0  0
    1.1000   -5.0830    0.3830 H   0  0  0  0  0  0  0  0  0  0  0  0
   -1.1290   -3.8300    0.5100 H   0  0  0  0  0  0  0  0  0  0  0  0
   -0.7860   -3.1100   -1.5110 H   0  0  0  0  0  0  0  0  0  0  0  0
    0.5880   -4.0390   -1.3430 H   0  0  0  0  0  0  0  0  0  0  0  0
    2.8000    0.2660    1.4780 C   0  0  0  0  0  0  0  0  0  0  0  0
    1.7480    1.1150    0.7980 C   0  0  0  0  0  0  0  0  0  0  0  0
    2.1210    1.4150   -0.6360 C   0  0  0  0  0  0  0  0  0  0  0  0
    0.3890    0.5060    0.9310 C   0  0  2  0  0  0  0  0  0  0  0  0
    0.2990   -0.8170    0.3430 N   0  0  0  0  0  0  0  0  0  0  0  0
   -0.6290    1.3790    0.2640 C   0  0  0  0  0  0  0  0  0  0  0  0
   -1.3780    0.9180   -0.6360 O   0  0  0  0  0  0  0  0  0  0  0  0
    3.8280    0.6220    1.2570 H   0  0  0  0  0  0  0  0  0  0  0  0
    2.6760    0.3250    2.5790 H   0  0  0  0  0  0  0  0  0  0  0  0
    2.7740   -0.7940    1.1250 H   0  0  0  0  0  0  0  0  0  0  0  0
    1.7290    2.0890    1.3300 H   0  0  0  0  0  0  0  0  0  0  0  0
    2.8920    0.6700   -0.9420 H   0  0  0  0  0  0  0  0  0  0  0  0
    1.2450    1.3360   -1.3280 H   0  0  0  0  0  0  0  0  0  0  0  0
    2.5250    2.4430   -0.7570 H   0  0  0  0  0  0  0  0  0  0  0  0
    0.1130    0.5040    2.0020 H   0  0  0  0  0  0  0  0  0  0  0  0
    0.5340   -0.9860   -0.6580 H   0  0  0  0  0  0  0  0  0  0  0  0
   -0.7920    2.7450    0.6120 N   0  0  0  0  0  0  0  0  0  0  0  0
   -1.7690    3.6060   -0.0190 C   0  0  0  0  0  0  0  0  0  0  0  0
   -3.1140    3.0470    0.2190 C   0  0  0  0  0  0  0  0  0  0  0  0
   -3.2250    1.9960    0.8890 O   0  0  0  0  0  0  0  0  0  0  0  0
   -4.2850    3.6170   -0.2580 O   0  0  0  0  0  0  0  0  0  0  0  0
   -0.1470    3.1020    1.3720 H   0  0  0  0  0  0  0  0  0  0  0  0
   -1.5570    3.7520   -1.1010 H   0  0  0  0  0  0  0  0  0  0  0  0
   -1.7430    4.5940    0.5140 H   0  0  0  0  0  0  0  0  0  0  0  0
  1 10  1  0  0  0  0
  2  3  2  0  0  0  0
  2  1  1  0  0  0  0
  4  2  1  0  0  0  0
  5 13  1  1  0  0  0
  5  4  1  0  0  0  0
  5  7  1  0  0  0  0
  6  5  1  0  0  0  0
  7  8  2  0  0  0  0
  9  1  1  0  0  0  0
 11  4  1  0  0  0  0
 12  4  1  0  0  0  0
 14  6  1  0  0  0  0
 15  6  1  0  0  0  0
 16 24  1  0  0  0  0
 17 19  1  0  0  0  0
 17 26  1  0  0  0  0
 17 16  1  0  0  0  0
 18 17  1  0  0  0  0
 19 30  1  1  0  0  0
 20 19  1  0  0  0  0
 20  7  1  0  0  0  0
 21 32  1  0  0  0  0
 21 19  1  0  0  0  0
 22 21  2  0  0  0  0
 23 16  1  0  0  0  0
 25 16  1  0  0  0  0
 27 18  1  0  0  0  0
 28 18  1  0  0  0  0
 29 18  1  0  0  0  0
 31 20  1  0  0  0  0
 32 37  1  0  0  0  0
 33 34  1  0  0  0  0
 33 39  1  0  0  0  0
 33 32  1  0  0  0  0
 34 35  1  0  0  0  0
 36 34  2  0  0  0  0
 38 33  1  0  0  0  0
M  END
$$$$
