NVH.pdb
 OpenBabel07022418123D

 49 49  0  0  1  0  0  0  0  0999 V2000
    3.8650    0.7390    0.6710 N   0  0  0  0  0  0  0  0  0  0  0  0
    4.7060   -0.3380    0.3700 C   0  0  0  0  0  0  0  0  0  0  0  0
    5.9680   -0.2110    0.5430 O   0  0  0  0  0  0  0  0  0  0  0  0
    4.1660   -1.6130   -0.1390 C   0  0  0  0  0  0  0  0  0  0  0  0
    2.6880   -1.5860   -0.3350 C   0  0  2  0  0  0  0  0  0  0  0  0
    2.2850   -0.5850   -1.2730 N   0  0  0  0  0  0  0  0  0  0  0  0
    1.9890   -1.4700    0.9720 C   0  0  0  0  0  0  0  0  0  0  0  0
    2.3030   -2.2370    1.9290 O   0  0  0  0  0  0  0  0  0  0  0  0
    3.1020    1.1330    0.0820 H   0  0  0  0  0  0  0  0  0  0  0  0
    4.0350    1.2080    1.6120 H   0  0  0  0  0  0  0  0  0  0  0  0
    4.4530   -2.4370    0.5840 H   0  0  0  0  0  0  0  0  0  0  0  0
    4.7070   -1.8990   -1.0730 H   0  0  0  0  0  0  0  0  0  0  0  0
    2.4310   -2.6290   -0.7390 H   0  0  0  0  0  0  0  0  0  0  0  0
    1.2730   -0.4840   -1.3950 H   0  0  0  0  0  0  0  0  0  0  0  0
    2.8080   -0.7170   -2.1590 H   0  0  0  0  0  0  0  0  0  0  0  0
   -0.4200    0.9280    4.4090 C   0  0  0  0  0  0  0  0  0  0  0  0
    0.3320    0.9550    3.0700 C   0  0  0  0  0  0  0  0  0  0  0  0
    1.7020    1.5080    3.2750 C   0  0  0  0  0  0  0  0  0  0  0  0
    0.2760   -0.4310    2.5210 C   0  0  2  0  0  0  0  0  0  0  0  0
    0.9550   -0.5330    1.2470 N   0  0  0  0  0  0  0  0  0  0  0  0
   -1.1810   -0.7440    2.3180 C   0  0  0  0  0  0  0  0  0  0  0  0
   -2.0220   -0.7390    3.2260 O   0  0  0  0  0  0  0  0  0  0  0  0
    0.0640    1.6700    5.1040 H   0  0  0  0  0  0  0  0  0  0  0  0
   -0.3940   -0.0750    4.8590 H   0  0  0  0  0  0  0  0  0  0  0  0
   -1.4610    1.2570    4.3020 H   0  0  0  0  0  0  0  0  0  0  0  0
   -0.2880    1.6090    2.4060 H   0  0  0  0  0  0  0  0  0  0  0  0
    2.4990    0.7740    3.4010 H   0  0  0  0  0  0  0  0  0  0  0  0
    1.6690    2.2560    4.1180 H   0  0  0  0  0  0  0  0  0  0  0  0
    1.9520    2.1200    2.3640 H   0  0  0  0  0  0  0  0  0  0  0  0
    0.7130   -1.1260    3.2640 H   0  0  0  0  0  0  0  0  0  0  0  0
    0.6920    0.1070    0.4660 H   0  0  0  0  0  0  0  0  0  0  0  0
   -1.6660   -1.0700    1.0240 N   0  0  0  0  0  0  0  0  0  0  0  0
   -2.9910   -1.3840    0.6780 C   0  0  1  0  0  0  0  0  0  0  0  0
   -3.6620   -0.5590   -0.3520 C   0  0  0  0  0  0  0  0  0  0  0  0
   -2.8960   -0.6610   -1.6110 C   0  0  0  0  0  0  0  0  0  0  0  0
   -1.8540    0.1080   -2.0800 C   0  0  0  0  0  0  0  0  0  0  0  0
   -1.4870   -0.3800   -3.2810 N   0  0  0  0  0  0  0  0  0  0  0  0
   -2.2520   -1.4240   -3.5920 C   0  0  0  0  0  0  0  0  0  0  0  0
   -3.1000   -1.5860   -2.5760 N   0  0  0  0  0  0  0  0  0  0  0  0
   -3.0710   -2.8010    0.2470 C   0  0  0  0  0  0  0  0  0  0  0  0
   -2.0190   -3.4860    0.2460 O   0  0  0  0  0  0  0  0  0  0  0  0
   -4.2300   -3.4250   -0.1580 O   0  0  0  0  0  0  0  0  0  0  0  0
   -0.9500   -1.0780    0.2350 H   0  0  0  0  0  0  0  0  0  0  0  0
   -3.6230   -1.3260    1.6140 H   0  0  0  0  0  0  0  0  0  0  0  0
   -3.8760    0.4860   -0.0540 H   0  0  0  0  0  0  0  0  0  0  0  0
   -4.6610   -1.0080   -0.5450 H   0  0  0  0  0  0  0  0  0  0  0  0
   -1.4320    0.9420   -1.5570 H   0  0  0  0  0  0  0  0  0  0  0  0
   -0.7210   -0.0260   -3.9140 H   0  0  0  0  0  0  0  0  0  0  0  0
   -2.2530   -2.0690   -4.4730 H   0  0  0  0  0  0  0  0  0  0  0  0
  1 10  1  0  0  0  0
  2  3  2  0  0  0  0
  2  1  1  0  0  0  0
  4  2  1  0  0  0  0
  4 11  1  0  0  0  0
  5 13  1  6  0  0  0
  5  4  1  0  0  0  0
  5  7  1  0  0  0  0
  6  5  1  0  0  0  0
  7 20  1  0  0  0  0
  7  8  2  0  0  0  0
  9  1  1  0  0  0  0
 12  4  1  0  0  0  0
 14  6  1  0  0  0  0
 15  6  1  0  0  0  0
 16 24  1  0  0  0  0
 16 23  1  0  0  0  0
 17 18  1  0  0  0  0
 17 16  1  0  0  0  0
 18 27  1  0  0  0  0
 18 28  1  0  0  0  0
 19 17  1  0  0  0  0
 19 30  1  1  0  0  0
 20 19  1  0  0  0  0
 21 19  1  0  0  0  0
 21 22  2  0  0  0  0
 25 16  1  0  0  0  0
 26 17  1  0  0  0  0
 29 18  1  0  0  0  0
 31 20  1  0  0  0  0
 32 21  1  0  0  0  0
 33 32  1  0  0  0  0
 33 44  1  1  0  0  0
 34 45  1  0  0  0  0
 34 33  1  0  0  0  0
 35 34  1  0  0  0  0
 36 35  2  0  0  0  0
 36 47  1  0  0  0  0
 37 36  1  0  0  0  0
 38 37  1  0  0  0  0
 38 39  2  0  0  0  0
 39 35  1  0  0  0  0
 40 33  1  0  0  0  0
 41 40  1  0  0  0  0
 42 40  2  0  0  0  0
 43 32  1  0  0  0  0
 46 34  1  0  0  0  0
 48 37  1  0  0  0  0
 49 38  1  0  0  0  0
M  END
$$$$
