NVK.pdb
 OpenBabel07022418123D

 53 52  0  0  1  0  0  0  0  0999 V2000
    4.1840   -4.3470   -0.9490 N   0  0  0  0  0  0  0  0  0  0  0  0
    4.3130   -3.2850   -0.0020 C   0  0  0  0  0  0  0  0  0  0  0  0
    5.4880   -2.9070    0.2490 O   0  0  0  0  0  0  0  0  0  0  0  0
    3.1170   -2.6610    0.6520 C   0  0  0  0  0  0  0  0  0  0  0  0
    3.6180   -1.5890    1.5800 C   0  0  2  0  0  0  0  0  0  0  0  0
    4.4810   -2.2290    2.5530 N   0  0  0  0  0  0  0  0  0  0  0  0
    2.5660   -0.8780    2.2970 C   0  0  0  0  0  0  0  0  0  0  0  0
    2.5320   -0.8990    3.5510 O   0  0  0  0  0  0  0  0  0  0  0  0
    3.4630   -5.0870   -0.8640 H   0  0  0  0  0  0  0  0  0  0  0  0
    4.8320   -4.3890   -1.7580 H   0  0  0  0  0  0  0  0  0  0  0  0
    2.4950   -2.2590   -0.1640 H   0  0  0  0  0  0  0  0  0  0  0  0
    2.5770   -3.4630    1.1490 H   0  0  0  0  0  0  0  0  0  0  0  0
    4.2880   -0.9000    0.9950 H   0  0  0  0  0  0  0  0  0  0  0  0
    4.4270   -1.6910    3.4470 H   0  0  0  0  0  0  0  0  0  0  0  0
    4.2910   -3.2250    2.6950 H   0  0  0  0  0  0  0  0  0  0  0  0
    1.8570    2.6640    2.4760 C   0  0  0  0  0  0  0  0  0  0  0  0
    0.5130    2.0550    2.1000 C   0  0  0  0  0  0  0  0  0  0  0  0
   -0.5810    2.7260    2.9020 C   0  0  0  0  0  0  0  0  0  0  0  0
    0.4970    0.5680    2.3960 C   0  0  2  0  0  0  0  0  0  0  0  0
    1.5280   -0.1280    1.6530 N   0  0  0  0  0  0  0  0  0  0  0  0
   -0.8160    0.0300    1.9640 C   0  0  0  0  0  0  0  0  0  0  0  0
   -1.8600    0.5090    2.5050 O   0  0  0  0  0  0  0  0  0  0  0  0
    2.6500    2.0860    1.9950 H   0  0  0  0  0  0  0  0  0  0  0  0
    1.8700    3.6820    2.0320 H   0  0  0  0  0  0  0  0  0  0  0  0
    1.9780    2.7830    3.5630 H   0  0  0  0  0  0  0  0  0  0  0  0
    0.3350    2.2710    1.0350 H   0  0  0  0  0  0  0  0  0  0  0  0
   -0.7970    2.1120    3.8130 H   0  0  0  0  0  0  0  0  0  0  0  0
   -1.5270    2.8040    2.3310 H   0  0  0  0  0  0  0  0  0  0  0  0
   -0.2980    3.7620    3.1930 H   0  0  0  0  0  0  0  0  0  0  0  0
    0.6610    0.4290    3.4880 H   0  0  0  0  0  0  0  0  0  0  0  0
    1.5600   -0.1110    0.6230 H   0  0  0  0  0  0  0  0  0  0  0  0
   -0.8650   -0.9760    0.9870 N   0  0  0  0  0  0  0  0  0  0  0  0
   -2.1570   -1.5120    0.5550 C   0  0  1  0  0  0  0  0  0  0  0  0
   -2.2940   -1.1110   -0.8950 C   0  0  0  0  0  0  0  0  0  0  0  0
   -3.5620   -1.5580   -1.5420 C   0  0  0  0  0  0  0  0  0  0  0  0
   -3.5810   -1.0780   -2.9840 C   0  0  0  0  0  0  0  0  0  0  0  0
   -3.5090    0.4110   -3.1100 C   0  0  0  0  0  0  0  0  0  0  0  0
   -4.6410    1.0170   -2.4290 N   0  0  0  0  0  0  0  0  0  0  0  0
   -2.2250   -2.9490    0.8010 C   0  0  0  0  0  0  0  0  0  0  0  0
   -1.2670   -3.6320    1.2700 O   0  0  0  0  0  0  0  0  0  0  0  0
   -3.3830   -3.6510    0.5250 O   0  0  0  0  0  0  0  0  0  0  0  0
   -0.0210   -1.3860    0.5290 H   0  0  0  0  0  0  0  0  0  0  0  0
   -2.9390   -0.9950    1.1150 H   0  0  0  0  0  0  0  0  0  0  0  0
   -2.1080   -0.0280   -1.0390 H   0  0  0  0  0  0  0  0  0  0  0  0
   -1.4450   -1.6230   -1.4320 H   0  0  0  0  0  0  0  0  0  0  0  0
   -3.6210   -2.6700   -1.5060 H   0  0  0  0  0  0  0  0  0  0  0  0
   -4.4700   -1.1680   -1.0480 H   0  0  0  0  0  0  0  0  0  0  0  0
   -2.7100   -1.5150   -3.5010 H   0  0  0  0  0  0  0  0  0  0  0  0
   -4.5130   -1.4390   -3.4400 H   0  0  0  0  0  0  0  0  0  0  0  0
   -3.6720    0.6640   -4.1980 H   0  0  0  0  0  0  0  0  0  0  0  0
   -2.5540    0.8630   -2.7960 H   0  0  0  0  0  0  0  0  0  0  0  0
   -4.5020    1.0620   -1.3960 H   0  0  0  0  0  0  0  0  0  0  0  0
   -4.8660    1.9340   -2.8620 H   0  0  0  0  0  0  0  0  0  0  0  0
  1  9  1  0  0  0  0
  1  2  1  0  0  0  0
  2  3  2  0  0  0  0
  2  4  1  0  0  0  0
  4 12  1  0  0  0  0
  4  5  1  0  0  0  0
  5 13  1  6  0  0  0
  5  7  1  0  0  0  0
  5  6  1  0  0  0  0
  6 15  1  0  0  0  0
  6 14  1  0  0  0  0
  7  8  2  0  0  0  0
 10  1  1  0  0  0  0
 11  4  1  0  0  0  0
 16 25  1  0  0  0  0
 17 19  1  0  0  0  0
 17 16  1  0  0  0  0
 17 18  1  0  0  0  0
 18 29  1  0  0  0  0
 18 27  1  0  0  0  0
 19 30  1  1  0  0  0
 20  7  1  0  0  0  0
 20 19  1  0  0  0  0
 21 19  1  0  0  0  0
 21 22  2  0  0  0  0
 23 16  1  0  0  0  0
 24 16  1  0  0  0  0
 26 17  1  0  0  0  0
 28 18  1  0  0  0  0
 31 20  1  0  0  0  0
 32 21  1  0  0  0  0
 33 39  1  0  0  0  0
 33 32  1  0  0  0  0
 33 43  1  1  0  0  0
 34 33  1  0  0  0  0
 35 46  1  0  0  0  0
 35 47  1  0  0  0  0
 35 34  1  0  0  0  0
 36 35  1  0  0  0  0
 37 36  1  0  0  0  0
 37 51  1  0  0  0  0
 37 38  1  0  0  0  0
 38 52  1  0  0  0  0
 39 40  1  0  0  0  0
 41 39  2  0  0  0  0
 42 32  1  0  0  0  0
 44 34  1  0  0  0  0
 45 34  1  0  0  0  0
 48 36  1  0  0  0  0
 49 36  1  0  0  0  0
 50 37  1  0  0  0  0
 53 38  1  0  0  0  0
M  END
$$$$
