NVM.pdb
 OpenBabel07022418123D

 49 48  0  0  1  0  0  0  0  0999 V2000
    3.7210   -2.6330    3.2960 N   0  0  0  0  0  0  0  0  0  0  0  0
    3.2960   -1.7900    4.3790 C   0  0  0  0  0  0  0  0  0  0  0  0
    4.0390   -1.8090    5.4020 O   0  0  0  0  0  0  0  0  0  0  0  0
    2.0670   -0.9570    4.2920 C   0  0  0  0  0  0  0  0  0  0  0  0
    1.4520   -1.1960    2.9370 C   0  0  2  0  0  0  0  0  0  0  0  0
    2.3530   -0.8310    1.8840 N   0  0  0  0  0  0  0  0  0  0  0  0
    0.1120   -0.5980    2.7940 C   0  0  0  0  0  0  0  0  0  0  0  0
   -0.7470   -0.8550    3.6640 O   0  0  0  0  0  0  0  0  0  0  0  0
    3.3430   -3.5950    3.1540 H   0  0  0  0  0  0  0  0  0  0  0  0
    4.4300   -2.3150    2.6020 H   0  0  0  0  0  0  0  0  0  0  0  0
    2.3490    0.1010    4.4510 H   0  0  0  0  0  0  0  0  0  0  0  0
    1.3510   -1.3360    5.0520 H   0  0  0  0  0  0  0  0  0  0  0  0
    1.3060   -2.3130    2.8590 H   0  0  0  0  0  0  0  0  0  0  0  0
    2.3290    0.1950    1.7630 H   0  0  0  0  0  0  0  0  0  0  0  0
    2.0350   -1.2520    0.9830 H   0  0  0  0  0  0  0  0  0  0  0  0
   -0.9340    2.8460    2.8400 C   0  0  0  0  0  0  0  0  0  0  0  0
   -1.5200    2.3590    1.5310 C   0  0  0  0  0  0  0  0  0  0  0  0
   -0.7940    2.8990    0.3400 C   0  0  0  0  0  0  0  0  0  0  0  0
   -1.5630    0.8480    1.5630 C   0  0  2  0  0  0  0  0  0  0  0  0
   -0.2710    0.2560    1.7250 N   0  0  0  0  0  0  0  0  0  0  0  0
   -2.1570    0.3130    0.3070 C   0  0  0  0  0  0  0  0  0  0  0  0
   -3.3020    0.7040   -0.0330 O   0  0  0  0  0  0  0  0  0  0  0  0
   -0.4490    3.8330    2.7490 H   0  0  0  0  0  0  0  0  0  0  0  0
   -1.7090    2.9000    3.6340 H   0  0  0  0  0  0  0  0  0  0  0  0
   -0.1800    2.0860    3.1840 H   0  0  0  0  0  0  0  0  0  0  0  0
   -2.5790    2.7110    1.5070 H   0  0  0  0  0  0  0  0  0  0  0  0
   -0.4660    3.9430    0.5420 H   0  0  0  0  0  0  0  0  0  0  0  0
    0.0550    2.3030    0.0050 H   0  0  0  0  0  0  0  0  0  0  0  0
   -1.5070    2.9430   -0.5340 H   0  0  0  0  0  0  0  0  0  0  0  0
   -2.2750    0.5740    2.3760 H   0  0  0  0  0  0  0  0  0  0  0  0
    0.4540    0.4630    1.0050 H   0  0  0  0  0  0  0  0  0  0  0  0
    2.0190   -3.5930   -2.5740 C   0  0  0  0  0  0  0  0  0  0  0  0
    0.3100   -3.0530   -2.6930 S   0  0  0  0  0  0  0  0  0  0  0  0
    0.2340   -1.2500   -2.8350 C   0  0  0  0  0  0  0  0  0  0  0  0
   -1.2020   -0.7710   -2.9370 C   0  0  0  0  0  0  0  0  0  0  0  0
   -2.0000   -1.1650   -1.7300 C   0  0  2  0  0  0  0  0  0  0  0  0
   -1.4690   -0.6200   -0.5100 N   0  0  0  0  0  0  0  0  0  0  0  0
   -2.1570   -2.6380   -1.6590 C   0  0  0  0  0  0  0  0  0  0  0  0
   -1.8320   -3.2330   -0.6070 O   0  0  0  0  0  0  0  0  0  0  0  0
   -2.6500   -3.3810   -2.7130 O   0  0  0  0  0  0  0  0  0  0  0  0
    2.0690   -4.5230   -1.9620 H   0  0  0  0  0  0  0  0  0  0  0  0
    2.4670   -3.7960   -3.5840 H   0  0  0  0  0  0  0  0  0  0  0  0
    2.6070   -2.8160   -2.0400 H   0  0  0  0  0  0  0  0  0  0  0  0
    0.8020   -0.9190   -3.7260 H   0  0  0  0  0  0  0  0  0  0  0  0
    0.7020   -0.7440   -1.9490 H   0  0  0  0  0  0  0  0  0  0  0  0
   -1.2620    0.3080   -3.0820 H   0  0  0  0  0  0  0  0  0  0  0  0
   -1.6810   -1.2530   -3.8190 H   0  0  0  0  0  0  0  0  0  0  0  0
   -3.0210   -0.7030   -1.8670 H   0  0  0  0  0  0  0  0  0  0  0  0
   -0.5210   -0.9230   -0.1980 H   0  0  0  0  0  0  0  0  0  0  0  0
  1  2  1  0  0  0  0
  2  3  2  0  0  0  0
  4  2  1  0  0  0  0
  4 11  1  0  0  0  0
  4 12  1  0  0  0  0
  5 13  1  6  0  0  0
  5  4  1  0  0  0  0
  6  5  1  0  0  0  0
  7  5  1  0  0  0  0
  7  8  2  0  0  0  0
  9  1  1  0  0  0  0
 10  1  1  0  0  0  0
 14  6  1  0  0  0  0
 15  6  1  0  0  0  0
 16 25  1  0  0  0  0
 16 24  1  0  0  0  0
 17 19  1  0  0  0  0
 17 16  1  0  0  0  0
 18 27  1  0  0  0  0
 18 17  1  0  0  0  0
 19 20  1  0  0  0  0
 19 30  1  1  0  0  0
 20  7  1  0  0  0  0
 21 19  1  0  0  0  0
 22 21  2  0  0  0  0
 23 16  1  0  0  0  0
 26 17  1  0  0  0  0
 28 18  1  0  0  0  0
 29 18  1  0  0  0  0
 31 20  1  0  0  0  0
 32 43  1  0  0  0  0
 32 41  1  0  0  0  0
 33 32  1  0  0  0  0
 34 33  1  0  0  0  0
 34 45  1  0  0  0  0
 35 34  1  0  0  0  0
 35 36  1  0  0  0  0
 36 48  1  6  0  0  0
 36 38  1  0  0  0  0
 36 37  1  0  0  0  0
 37 49  1  0  0  0  0
 37 21  1  0  0  0  0
 38 39  1  0  0  0  0
 40 38  2  0  0  0  0
 42 32  1  0  0  0  0
 44 34  1  0  0  0  0
 46 35  1  0  0  0  0
 47 35  1  0  0  0  0
M  END
$$$$
