NVP.pdb
 OpenBabel07022418123D

 46 46  0  0  1  0  0  0  0  0999 V2000
    1.5130   -5.4380    2.5650 N   0  0  0  0  0  0  0  0  0  0  0  0
    1.9350   -4.1210    2.9000 C   0  0  0  0  0  0  0  0  0  0  0  0
    2.9720   -4.0280    3.6190 O   0  0  0  0  0  0  0  0  0  0  0  0
    1.1900   -2.9240    2.4250 C   0  0  0  0  0  0  0  0  0  0  0  0
    1.8380   -1.6740    2.9130 C   0  0  2  0  0  0  0  0  0  0  0  0
    1.8870   -1.6050    4.3600 N   0  0  0  0  0  0  0  0  0  0  0  0
    1.3740   -0.4150    2.3690 C   0  0  0  0  0  0  0  0  0  0  0  0
    1.0940    0.5250    3.1900 O   0  0  0  0  0  0  0  0  0  0  0  0
    1.2070   -5.7110    1.6070 H   0  0  0  0  0  0  0  0  0  0  0  0
    1.5130   -6.1580    3.3230 H   0  0  0  0  0  0  0  0  0  0  0  0
    0.1460   -3.0560    2.7170 H   0  0  0  0  0  0  0  0  0  0  0  0
    1.2290   -2.9500    1.3170 H   0  0  0  0  0  0  0  0  0  0  0  0
    2.9280   -1.7610    2.6090 H   0  0  0  0  0  0  0  0  0  0  0  0
    1.8000   -0.6040    4.6870 H   0  0  0  0  0  0  0  0  0  0  0  0
    1.1040   -2.1200    4.8200 H   0  0  0  0  0  0  0  0  0  0  0  0
    1.3240    3.1570   -0.9000 C   0  0  0  0  0  0  0  0  0  0  0  0
    1.7420    1.8050   -0.4040 C   0  0  0  0  0  0  0  0  0  0  0  0
    3.0800    2.0080    0.3250 C   0  0  0  0  0  0  0  0  0  0  0  0
    0.7260    1.2020    0.5260 C   0  0  2  0  0  0  0  0  0  0  0  0
    1.1920   -0.0990    0.9910 N   0  0  0  0  0  0  0  0  0  0  0  0
   -0.6100    1.2130   -0.0500 C   0  0  0  0  0  0  0  0  0  0  0  0
   -1.0220    2.3500   -0.5200 O   0  0  0  0  0  0  0  0  0  0  0  0
    0.6780    3.1400   -1.7930 H   0  0  0  0  0  0  0  0  0  0  0  0
    0.7720    3.6820   -0.0950 H   0  0  0  0  0  0  0  0  0  0  0  0
    2.2650    3.7430   -1.1340 H   0  0  0  0  0  0  0  0  0  0  0  0
    1.9580    1.1390   -1.2710 H   0  0  0  0  0  0  0  0  0  0  0  0
    2.9110    2.4760    1.2970 H   0  0  0  0  0  0  0  0  0  0  0  0
    3.5540    1.0210    0.5020 H   0  0  0  0  0  0  0  0  0  0  0  0
    3.7070    2.6270   -0.3520 H   0  0  0  0  0  0  0  0  0  0  0  0
    0.7300    1.8400    1.4620 H   0  0  0  0  0  0  0  0  0  0  0  0
    1.4400   -0.8660    0.3260 H   0  0  0  0  0  0  0  0  0  0  0  0
   -1.5460    0.1830   -0.1840 N   0  0  0  0  0  0  0  0  0  0  0  0
   -1.5460   -1.2060    0.2090 C   0  0  0  0  0  0  0  0  0  0  0  0
   -1.7810   -1.8330   -1.1780 C   0  0  0  0  0  0  0  0  0  0  0  0
   -3.0550   -1.0540   -1.5440 C   0  0  0  0  0  0  0  0  0  0  0  0
   -2.8830    0.2780   -0.8370 C   0  0  1  0  0  0  0  0  0  0  0  0
   -3.8790    0.4430    0.2470 C   0  0  0  0  0  0  0  0  0  0  0  0
   -5.1040    0.5350   -0.0230 O   0  0  0  0  0  0  0  0  0  0  0  0
   -3.5090    0.5040    1.5810 O   0  0  0  0  0  0  0  0  0  0  0  0
   -0.6910   -1.5800    0.7280 H   0  0  0  0  0  0  0  0  0  0  0  0
   -2.5000   -1.4270    0.7600 H   0  0  0  0  0  0  0  0  0  0  0  0
   -1.9490   -2.9050   -1.1240 H   0  0  0  0  0  0  0  0  0  0  0  0
   -1.0090   -1.5070   -1.8990 H   0  0  0  0  0  0  0  0  0  0  0  0
   -3.1530   -0.9380   -2.6390 H   0  0  0  0  0  0  0  0  0  0  0  0
   -3.8910   -1.6320   -1.0960 H   0  0  0  0  0  0  0  0  0  0  0  0
   -2.9050    1.1320   -1.5310 H   0  0  0  0  0  0  0  0  0  0  0  0
  1  2  1  0  0  0  0
  1 10  1  0  0  0  0
  2  3  2  0  0  0  0
  4 11  1  0  0  0  0
  4  2  1  0  0  0  0
  4  5  1  0  0  0  0
  5 13  1  6  0  0  0
  5  6  1  0  0  0  0
  6 14  1  0  0  0  0
  6 15  1  0  0  0  0
  7  5  1  0  0  0  0
  7  8  2  0  0  0  0
  9  1  1  0  0  0  0
 12  4  1  0  0  0  0
 16 17  1  0  0  0  0
 16 24  1  0  0  0  0
 17 18  1  0  0  0  0
 17 19  1  0  0  0  0
 18 28  1  0  0  0  0
 18 27  1  0  0  0  0
 19 20  1  0  0  0  0
 19 30  1  1  0  0  0
 20  7  1  0  0  0  0
 21 19  1  0  0  0  0
 22 21  2  0  0  0  0
 23 16  1  0  0  0  0
 25 16  1  0  0  0  0
 26 17  1  0  0  0  0
 29 18  1  0  0  0  0
 31 20  1  0  0  0  0
 32 21  1  0  0  0  0
 32 33  1  0  0  0  0
 33 40  1  0  0  0  0
 33 41  1  0  0  0  0
 34 42  1  0  0  0  0
 34 33  1  0  0  0  0
 35 34  1  0  0  0  0
 35 45  1  0  0  0  0
 35 36  1  0  0  0  0
 36 46  1  6  0  0  0
 36 32  1  0  0  0  0
 36 37  1  0  0  0  0
 37 39  1  0  0  0  0
 38 37  2  0  0  0  0
 43 34  1  0  0  0  0
 44 35  1  0  0  0  0
M  END
$$$$
