NVQ.pdb
 OpenBabel07022418123D

 49 48  0  0  1  0  0  0  0  0999 V2000
    3.8270   -4.9820    2.0240 N   0  0  0  0  0  0  0  0  0  0  0  0
    2.6950   -4.4340    1.3290 C   0  0  0  0  0  0  0  0  0  0  0  0
    2.0740   -5.1800    0.5490 O   0  0  0  0  0  0  0  0  0  0  0  0
    2.3510   -3.0330    1.5870 C   0  0  0  0  0  0  0  0  0  0  0  0
    2.9280   -2.1690    0.4710 C   0  0  2  0  0  0  0  0  0  0  0  0
    4.3530   -2.3890    0.5240 N   0  0  0  0  0  0  0  0  0  0  0  0
    2.5890   -0.7370    0.7340 C   0  0  0  0  0  0  0  0  0  0  0  0
    3.4250   -0.0670    1.3790 O   0  0  0  0  0  0  0  0  0  0  0  0
    3.8190   -5.9630    2.3640 H   0  0  0  0  0  0  0  0  0  0  0  0
    4.6720   -4.4080    2.2010 H   0  0  0  0  0  0  0  0  0  0  0  0
    1.2610   -2.9190    1.6950 H   0  0  0  0  0  0  0  0  0  0  0  0
    2.7780   -2.7360    2.5740 H   0  0  0  0  0  0  0  0  0  0  0  0
    2.4760   -2.4880   -0.4690 H   0  0  0  0  0  0  0  0  0  0  0  0
    4.9080   -1.6370    0.0530 H   0  0  0  0  0  0  0  0  0  0  0  0
    4.5200   -3.3260    0.0950 H   0  0  0  0  0  0  0  0  0  0  0  0
    0.8460    3.5160   -0.4600 C   0  0  0  0  0  0  0  0  0  0  0  0
    1.2870    2.0830   -0.7040 C   0  0  0  0  0  0  0  0  0  0  0  0
    2.8080    2.1790   -0.8800 C   0  0  0  0  0  0  0  0  0  0  0  0
    0.9880    1.2120    0.5100 C   0  0  2  0  0  0  0  0  0  0  0  0
    1.3800   -0.1620    0.2770 N   0  0  0  0  0  0  0  0  0  0  0  0
   -0.4110    1.3530    0.9470 C   0  0  0  0  0  0  0  0  0  0  0  0
   -0.8310    2.5340    1.2080 O   0  0  0  0  0  0  0  0  0  0  0  0
   -0.2120    3.6790   -0.6780 H   0  0  0  0  0  0  0  0  0  0  0  0
    1.1960    3.8830    0.5080 H   0  0  0  0  0  0  0  0  0  0  0  0
    1.4100    4.1240   -1.2280 H   0  0  0  0  0  0  0  0  0  0  0  0
    0.8680    1.7240   -1.6350 H   0  0  0  0  0  0  0  0  0  0  0  0
    3.2950    2.3090    0.0930 H   0  0  0  0  0  0  0  0  0  0  0  0
    3.0110    3.1090   -1.4820 H   0  0  0  0  0  0  0  0  0  0  0  0
    3.1860    1.3380   -1.4950 H   0  0  0  0  0  0  0  0  0  0  0  0
    1.6830    1.5940    1.2940 H   0  0  0  0  0  0  0  0  0  0  0  0
    0.7520   -0.8240   -0.2740 H   0  0  0  0  0  0  0  0  0  0  0  0
   -3.9450   -3.2620   -0.6180 N   0  0  0  0  0  0  0  0  0  0  0  0
   -4.0930   -2.0990    0.2570 C   0  0  0  0  0  0  0  0  0  0  0  0
   -4.5150   -2.3800    1.3710 O   0  0  0  0  0  0  0  0  0  0  0  0
   -3.7180   -0.8560   -0.3630 C   0  0  0  0  0  0  0  0  0  0  0  0
   -3.6480    0.4000    0.3660 C   0  0  0  0  0  0  0  0  0  0  0  0
   -2.6690    0.5110    1.5060 C   0  0  2  0  0  0  0  0  0  0  0  0
   -1.3240    0.2870    1.0980 N   0  0  0  0  0  0  0  0  0  0  0  0
   -3.0930   -0.2570    2.6930 C   0  0  0  0  0  0  0  0  0  0  0  0
   -2.3300   -1.1380    3.1970 O   0  0  0  0  0  0  0  0  0  0  0  0
   -4.3180   -0.0680    3.3120 O   0  0  0  0  0  0  0  0  0  0  0  0
   -3.0350   -3.6760   -0.8390 H   0  0  0  0  0  0  0  0  0  0  0  0
   -4.8260   -3.6520   -1.0050 H   0  0  0  0  0  0  0  0  0  0  0  0
   -2.7070   -1.0570   -0.8760 H   0  0  0  0  0  0  0  0  0  0  0  0
   -4.4000   -0.7100   -1.2520 H   0  0  0  0  0  0  0  0  0  0  0  0
   -3.4100    1.2130   -0.3510 H   0  0  0  0  0  0  0  0  0  0  0  0
   -4.6360    0.7010    0.7950 H   0  0  0  0  0  0  0  0  0  0  0  0
   -2.7440    1.6000    1.8210 H   0  0  0  0  0  0  0  0  0  0  0  0
   -0.9990   -0.6790    0.9050 H   0  0  0  0  0  0  0  0  0  0  0  0
  1 10  1  0  0  0  0
  1  9  1  0  0  0  0
  2  4  1  0  0  0  0
  2  1  1  0  0  0  0
  3  2  2  0  0  0  0
  4 11  1  0  0  0  0
  4 12  1  0  0  0  0
  5 13  1  6  0  0  0
  5  6  1  0  0  0  0
  5  7  1  0  0  0  0
  5  4  1  0  0  0  0
  7  8  2  0  0  0  0
 14  6  1  0  0  0  0
 15  6  1  0  0  0  0
 16 24  1  0  0  0  0
 17 16  1  0  0  0  0
 17 19  1  0  0  0  0
 18 17  1  0  0  0  0
 18 27  1  0  0  0  0
 19 21  1  0  0  0  0
 19 30  1  1  0  0  0
 20 19  1  0  0  0  0
 20  7  1  0  0  0  0
 21 38  1  0  0  0  0
 21 22  2  0  0  0  0
 23 16  1  0  0  0  0
 25 16  1  0  0  0  0
 26 17  1  0  0  0  0
 28 18  1  0  0  0  0
 29 18  1  0  0  0  0
 31 20  1  0  0  0  0
 32 33  1  0  0  0  0
 33 34  2  0  0  0  0
 35 33  1  0  0  0  0
 35 36  1  0  0  0  0
 36 47  1  0  0  0  0
 36 37  1  0  0  0  0
 37 48  1  1  0  0  0
 37 39  1  0  0  0  0
 38 37  1  0  0  0  0
 39 40  2  0  0  0  0
 39 41  1  0  0  0  0
 42 32  1  0  0  0  0
 43 32  1  0  0  0  0
 44 35  1  0  0  0  0
 45 35  1  0  0  0  0
 46 36  1  0  0  0  0
 49 38  1  0  0  0  0
M  END
$$$$
