NVR.pdb
 OpenBabel07022418123D

 55 54  0  0  1  0  0  0  0  0999 V2000
    1.8700   -1.0400    7.5790 N   0  0  0  0  0  0  0  0  0  0  0  0
    1.0320   -1.2670    6.4550 C   0  0  0  0  0  0  0  0  0  0  0  0
    0.0170   -2.0100    6.6640 O   0  0  0  0  0  0  0  0  0  0  0  0
    1.2830   -0.6990    5.1240 C   0  0  0  0  0  0  0  0  0  0  0  0
    0.1970   -1.1420    4.1740 C   0  0  2  0  0  0  0  0  0  0  0  0
    0.2240   -2.6020    4.1180 N   0  0  0  0  0  0  0  0  0  0  0  0
    0.5330   -0.6140    2.8240 C   0  0  0  0  0  0  0  0  0  0  0  0
    0.5670    0.6370    2.6410 O   0  0  0  0  0  0  0  0  0  0  0  0
    2.7320   -1.5810    7.7370 H   0  0  0  0  0  0  0  0  0  0  0  0
    1.6010   -0.3070    8.2590 H   0  0  0  0  0  0  0  0  0  0  0  0
    1.2580    0.4000    5.2130 H   0  0  0  0  0  0  0  0  0  0  0  0
    2.2470   -1.0870    4.7370 H   0  0  0  0  0  0  0  0  0  0  0  0
   -0.7900   -0.8150    4.5000 H   0  0  0  0  0  0  0  0  0  0  0  0
    1.1730   -2.9180    3.8250 H   0  0  0  0  0  0  0  0  0  0  0  0
   -0.5100   -2.9790    3.4910 H   0  0  0  0  0  0  0  0  0  0  0  0
    3.0520   -0.7560   -1.2900 C   0  0  0  0  0  0  0  0  0  0  0  0
    2.5500   -1.2630    0.0250 C   0  0  0  0  0  0  0  0  0  0  0  0
    2.7030   -2.7840    0.0250 C   0  0  0  0  0  0  0  0  0  0  0  0
    1.1510   -0.8740    0.3870 C   0  0  2  0  0  0  0  0  0  0  0  0
    0.8200   -1.4360    1.7180 N   0  0  0  0  0  0  0  0  0  0  0  0
    0.1480   -1.3090   -0.5820 C   0  0  0  0  0  0  0  0  0  0  0  0
   -0.7410   -2.1380   -0.2090 O   0  0  0  0  0  0  0  0  0  0  0  0
    4.1920   -0.8100   -1.2670 H   0  0  0  0  0  0  0  0  0  0  0  0
    2.8220    0.3130   -1.4850 H   0  0  0  0  0  0  0  0  0  0  0  0
    2.7420   -1.3900   -2.1370 H   0  0  0  0  0  0  0  0  0  0  0  0
    3.2900   -0.8850    0.7950 H   0  0  0  0  0  0  0  0  0  0  0  0
    3.4440   -3.1170    0.7760 H   0  0  0  0  0  0  0  0  0  0  0  0
    3.0830   -3.1490   -0.9610 H   0  0  0  0  0  0  0  0  0  0  0  0
    1.7480   -3.2790    0.2380 H   0  0  0  0  0  0  0  0  0  0  0  0
    1.1100    0.2220    0.5070 H   0  0  0  0  0  0  0  0  0  0  0  0
    0.7970   -2.4710    1.8430 H   0  0  0  0  0  0  0  0  0  0  0  0
   -3.6180    3.3780    0.1540 N   0  0  0  0  0  0  0  0  0  0  0  0
   -3.3040    2.0560   -0.2100 C   0  0  0  0  0  0  0  0  0  0  0  0
   -2.3010    1.4640    0.3360 N   0  0  0  0  0  0  0  0  0  0  0  0
   -4.0570    1.3200   -1.1730 N   0  0  0  0  0  0  0  0  0  0  0  0
   -3.4750    0.1890   -1.8720 C   0  0  0  0  0  0  0  0  0  0  0  0
   -2.4190    0.6860   -2.7730 C   0  0  0  0  0  0  0  0  0  0  0  0
   -1.7090   -0.3510   -3.5860 C   0  0  0  0  0  0  0  0  0  0  0  0
   -1.0000   -1.3960   -2.8110 C   0  0  2  0  0  0  0  0  0  0  0  0
    0.0240   -0.9130   -1.9340 N   0  0  0  0  0  0  0  0  0  0  0  0
   -0.3490   -2.3150   -3.8010 C   0  0  0  0  0  0  0  0  0  0  0  0
   -1.0790   -2.8700   -4.6930 O   0  0  0  0  0  0  0  0  0  0  0  0
    0.9820   -2.6150   -3.8330 O   0  0  0  0  0  0  0  0  0  0  0  0
   -2.9010    4.0820    0.4300 H   0  0  0  0  0  0  0  0  0  0  0  0
   -4.6210    3.6680    0.1480 H   0  0  0  0  0  0  0  0  0  0  0  0
   -1.9680    0.5150    0.1630 H   0  0  0  0  0  0  0  0  0  0  0  0
   -5.0590    1.6310   -1.3610 H   0  0  0  0  0  0  0  0  0  0  0  0
   -4.2930   -0.2510   -2.5020 H   0  0  0  0  0  0  0  0  0  0  0  0
   -3.1530   -0.5380   -1.1080 H   0  0  0  0  0  0  0  0  0  0  0  0
   -1.6380    1.2070   -2.1450 H   0  0  0  0  0  0  0  0  0  0  0  0
   -2.8420    1.4900   -3.4090 H   0  0  0  0  0  0  0  0  0  0  0  0
   -0.9680    0.1350   -4.2570 H   0  0  0  0  0  0  0  0  0  0  0  0
   -2.4610   -0.8070   -4.2660 H   0  0  0  0  0  0  0  0  0  0  0  0
   -1.6590   -2.0750   -2.2190 H   0  0  0  0  0  0  0  0  0  0  0  0
    0.7040   -0.2290   -2.3110 H   0  0  0  0  0  0  0  0  0  0  0  0
  1  9  1  0  0  0  0
  1 10  1  0  0  0  0
  2  3  2  0  0  0  0
  2  1  1  0  0  0  0
  4 11  1  0  0  0  0
  4  2  1  0  0  0  0
  5 13  1  1  0  0  0
  5  4  1  0  0  0  0
  6  5  1  0  0  0  0
  7  5  1  0  0  0  0
  8  7  2  0  0  0  0
 12  4  1  0  0  0  0
 14  6  1  0  0  0  0
 15  6  1  0  0  0  0
 16 23  1  0  0  0  0
 16 17  1  0  0  0  0
 17 18  1  0  0  0  0
 17 19  1  0  0  0  0
 17 26  1  0  0  0  0
 18 29  1  0  0  0  0
 18 27  1  0  0  0  0
 19 30  1  1  0  0  0
 19 20  1  0  0  0  0
 20 31  1  0  0  0  0
 20  7  1  0  0  0  0
 21 22  2  0  0  0  0
 21 19  1  0  0  0  0
 24 16  1  0  0  0  0
 25 16  1  0  0  0  0
 28 18  1  0  0  0  0
 32 44  1  0  0  0  0
 33 32  1  0  0  0  0
 33 34  2  0  0  0  0
 35 33  1  0  0  0  0
 36 35  1  0  0  0  0
 36 49  1  0  0  0  0
 37 50  1  0  0  0  0
 37 36  1  0  0  0  0
 38 39  1  0  0  0  0
 38 37  1  0  0  0  0
 39 54  1  1  0  0  0
 39 40  1  0  0  0  0
 40 21  1  0  0  0  0
 41 39  1  0  0  0  0
 42 41  2  0  0  0  0
 43 41  1  0  0  0  0
 45 32  1  0  0  0  0
 46 34  1  0  0  0  0
 47 35  1  0  0  0  0
 48 36  1  0  0  0  0
 51 37  1  0  0  0  0
 52 38  1  0  0  0  0
 53 38  1  0  0  0  0
 55 40  1  0  0  0  0
M  END
$$$$
