NVS.pdb
 OpenBabel07022418123D

 43 42  0  0  1  0  0  0  0  0999 V2000
   -1.5920   -5.0940    0.1200 N   0  0  0  0  0  0  0  0  0  0  0  0
   -0.8430   -4.2570   -0.7280 C   0  0  0  0  0  0  0  0  0  0  0  0
   -0.7750   -4.5450   -1.9470 O   0  0  0  0  0  0  0  0  0  0  0  0
   -0.1270   -3.0470   -0.2530 C   0  0  0  0  0  0  0  0  0  0  0  0
    0.5810   -2.3630   -1.3940 C   0  0  2  0  0  0  0  0  0  0  0  0
    1.5460   -3.2620   -1.9910 N   0  0  0  0  0  0  0  0  0  0  0  0
    1.2590   -1.1300   -0.9890 C   0  0  0  0  0  0  0  0  0  0  0  0
    2.4850   -1.0000   -1.1860 O   0  0  0  0  0  0  0  0  0  0  0  0
   -2.1250   -4.7290    0.9420 H   0  0  0  0  0  0  0  0  0  0  0  0
   -1.6400   -6.1360   -0.0480 H   0  0  0  0  0  0  0  0  0  0  0  0
    0.5390   -3.3540    0.5540 H   0  0  0  0  0  0  0  0  0  0  0  0
   -0.9160   -2.3270    0.0980 H   0  0  0  0  0  0  0  0  0  0  0  0
   -0.1700   -2.1430   -2.1930 H   0  0  0  0  0  0  0  0  0  0  0  0
    2.0000   -2.7560   -2.7800 H   0  0  0  0  0  0  0  0  0  0  0  0
    2.2400   -3.4990   -1.2560 H   0  0  0  0  0  0  0  0  0  0  0  0
   -0.7040    2.6300   -0.5020 C   0  0  0  0  0  0  0  0  0  0  0  0
    0.7330    2.3330   -0.7290 C   0  0  0  0  0  0  0  0  0  0  0  0
    0.9970    2.1020   -2.2030 C   0  0  0  0  0  0  0  0  0  0  0  0
    1.2450    1.1300    0.0130 C   0  0  2  0  0  0  0  0  0  0  0  0
    0.5390   -0.0500   -0.3620 N   0  0  0  0  0  0  0  0  0  0  0  0
    1.2370    1.3430    1.4980 C   0  0  0  0  0  0  0  0  0  0  0  0
    1.8190    2.3430    1.9900 O   0  0  0  0  0  0  0  0  0  0  0  0
   -1.3370    1.7900   -0.2390 H   0  0  0  0  0  0  0  0  0  0  0  0
   -1.1530    3.1130   -1.4170 H   0  0  0  0  0  0  0  0  0  0  0  0
   -0.7620    3.4360    0.2870 H   0  0  0  0  0  0  0  0  0  0  0  0
    1.3890    3.1940   -0.4320 H   0  0  0  0  0  0  0  0  0  0  0  0
    2.0860    2.2220   -2.4440 H   0  0  0  0  0  0  0  0  0  0  0  0
    0.3940    2.8320   -2.8160 H   0  0  0  0  0  0  0  0  0  0  0  0
    0.6540    1.0940   -2.5390 H   0  0  0  0  0  0  0  0  0  0  0  0
    2.3130    1.0130   -0.2600 H   0  0  0  0  0  0  0  0  0  0  0  0
   -0.4770   -0.2220   -0.2270 H   0  0  0  0  0  0  0  0  0  0  0  0
   -0.8000    0.7850    5.7360 O   0  0  0  0  0  0  0  0  0  0  0  0
   -0.8610    0.6350    4.3580 C   0  0  0  0  0  0  0  0  0  0  0  0
    0.5520    0.6070    3.8180 C   0  0  2  0  0  0  0  0  0  0  0  0
    0.5930    0.4540    2.3910 N   0  0  0  0  0  0  0  0  0  0  0  0
    1.2430   -0.5780    4.4340 C   0  0  0  0  0  0  0  0  0  0  0  0
    1.3400   -0.6770    5.6920 O   0  0  0  0  0  0  0  0  0  0  0  0
    1.7930   -1.5940    3.6850 O   0  0  0  0  0  0  0  0  0  0  0  0
   -0.1050    1.3950    6.0470 H   0  0  0  0  0  0  0  0  0  0  0  0
   -1.3020   -0.3630    4.1510 H   0  0  0  0  0  0  0  0  0  0  0  0
   -1.3980    1.4600    3.8570 H   0  0  0  0  0  0  0  0  0  0  0  0
    1.0720    1.4910    4.1900 H   0  0  0  0  0  0  0  0  0  0  0  0
    0.1140   -0.3710    1.9750 H   0  0  0  0  0  0  0  0  0  0  0  0
  1  9  1  0  0  0  0
  2  4  1  0  0  0  0
  2  1  1  0  0  0  0
  3  2  2  0  0  0  0
  4 12  1  0  0  0  0
  4 11  1  0  0  0  0
  5 13  1  6  0  0  0
  5  7  1  0  0  0  0
  5  4  1  0  0  0  0
  6  5  1  0  0  0  0
  6 15  1  0  0  0  0
  7 20  1  0  0  0  0
  8  7  2  0  0  0  0
 10  1  1  0  0  0  0
 14  6  1  0  0  0  0
 16 23  1  0  0  0  0
 16 25  1  0  0  0  0
 17 16  1  0  0  0  0
 17 26  1  0  0  0  0
 17 19  1  0  0  0  0
 18 17  1  0  0  0  0
 19 30  1  6  0  0  0
 19 21  1  0  0  0  0
 20 31  1  0  0  0  0
 20 19  1  0  0  0  0
 21 22  2  0  0  0  0
 21 35  1  0  0  0  0
 24 16  1  0  0  0  0
 27 18  1  0  0  0  0
 28 18  1  0  0  0  0
 29 18  1  0  0  0  0
 32 39  1  0  0  0  0
 33 32  1  0  0  0  0
 34 42  1  1  0  0  0
 34 33  1  0  0  0  0
 34 36  1  0  0  0  0
 35 34  1  0  0  0  0
 36 37  1  0  0  0  0
 38 36  2  0  0  0  0
 40 33  1  0  0  0  0
 41 33  1  0  0  0  0
 43 35  1  0  0  0  0
M  END
$$$$
