NVV.pdb
 OpenBabel07022418123D

 48 47  0  0  1  0  0  0  0  0999 V2000
    1.5070   -4.4450    4.1210 N   0  0  0  0  0  0  0  0  0  0  0  0
    1.7390   -3.0600    4.1830 C   0  0  0  0  0  0  0  0  0  0  0  0
    2.6080   -2.6470    4.9880 O   0  0  0  0  0  0  0  0  0  0  0  0
    1.0160   -2.0660    3.3520 C   0  0  0  0  0  0  0  0  0  0  0  0
    1.5000   -0.6650    3.6610 C   0  0  2  0  0  0  0  0  0  0  0  0
    1.2430   -0.4230    5.0600 N   0  0  0  0  0  0  0  0  0  0  0  0
    0.8500    0.3500    2.8230 C   0  0  0  0  0  0  0  0  0  0  0  0
    0.1750    1.2710    3.4000 O   0  0  0  0  0  0  0  0  0  0  0  0
    0.5840   -4.9100    4.2380 H   0  0  0  0  0  0  0  0  0  0  0  0
    2.3160   -5.0940    3.9410 H   0  0  0  0  0  0  0  0  0  0  0  0
   -0.0700   -2.1420    3.4110 H   0  0  0  0  0  0  0  0  0  0  0  0
    1.3100   -2.2770    2.2920 H   0  0  0  0  0  0  0  0  0  0  0  0
    2.5910   -0.5780    3.5060 H   0  0  0  0  0  0  0  0  0  0  0  0
    1.2370    0.5920    5.3020 H   0  0  0  0  0  0  0  0  0  0  0  0
    0.3100   -0.8000    5.3040 H   0  0  0  0  0  0  0  0  0  0  0  0
    0.6790    3.1620   -1.0410 C   0  0  0  0  0  0  0  0  0  0  0  0
    1.3150    2.0800   -0.2030 C   0  0  0  0  0  0  0  0  0  0  0  0
    2.2880    2.7430    0.7490 C   0  0  0  0  0  0  0  0  0  0  0  0
    0.2930    1.3550    0.6440 C   0  0  2  0  0  0  0  0  0  0  0  0
    0.9460    0.3410    1.4180 N   0  0  0  0  0  0  0  0  0  0  0  0
   -0.7750    0.7430   -0.2260 C   0  0  0  0  0  0  0  0  0  0  0  0
   -1.4620    1.4780   -0.9810 O   0  0  0  0  0  0  0  0  0  0  0  0
    1.3640    4.0200   -1.2110 H   0  0  0  0  0  0  0  0  0  0  0  0
   -0.2470    3.5630   -0.6150 H   0  0  0  0  0  0  0  0  0  0  0  0
    0.4670    2.7260   -2.0470 H   0  0  0  0  0  0  0  0  0  0  0  0
    1.8290    1.3260   -0.8360 H   0  0  0  0  0  0  0  0  0  0  0  0
    1.6820    3.3920    1.4300 H   0  0  0  0  0  0  0  0  0  0  0  0
    2.9940    3.4130    0.2250 H   0  0  0  0  0  0  0  0  0  0  0  0
    2.8080    2.0060    1.3910 H   0  0  0  0  0  0  0  0  0  0  0  0
   -0.2300    2.0460    1.3320 H   0  0  0  0  0  0  0  0  0  0  0  0
    1.4890   -0.3980    0.9470 H   0  0  0  0  0  0  0  0  0  0  0  0
   -0.4160   -1.7880   -2.8770 C   0  0  0  0  0  0  0  0  0  0  0  0
   -1.4570   -2.3350   -1.9400 C   0  0  0  0  0  0  0  0  0  0  0  0
   -2.5090   -3.0500   -2.7160 C   0  0  0  0  0  0  0  0  0  0  0  0
   -2.0450   -1.2780   -1.0350 C   0  0  2  0  0  0  0  0  0  0  0  0
   -1.0290   -0.6610   -0.2130 N   0  0  0  0  0  0  0  0  0  0  0  0
   -3.0410   -1.9630   -0.1640 C   0  0  0  0  0  0  0  0  0  0  0  0
   -4.0280   -2.5760   -0.6460 O   0  0  0  0  0  0  0  0  0  0  0  0
   -2.9380   -1.9640    1.2270 O   0  0  0  0  0  0  0  0  0  0  0  0
    0.3440   -1.1640   -2.3450 H   0  0  0  0  0  0  0  0  0  0  0  0
    0.1650   -2.6790   -3.2530 H   0  0  0  0  0  0  0  0  0  0  0  0
   -0.8330   -1.2900   -3.7660 H   0  0  0  0  0  0  0  0  0  0  0  0
   -0.9400   -3.0800   -1.2870 H   0  0  0  0  0  0  0  0  0  0  0  0
   -3.3530   -2.4110   -3.0350 H   0  0  0  0  0  0  0  0  0  0  0  0
   -2.0270   -3.4110   -3.6720 H   0  0  0  0  0  0  0  0  0  0  0  0
   -2.8460   -3.9380   -2.1320 H   0  0  0  0  0  0  0  0  0  0  0  0
   -2.5810   -0.5410   -1.6520 H   0  0  0  0  0  0  0  0  0  0  0  0
   -0.4340   -1.2280    0.4290 H   0  0  0  0  0  0  0  0  0  0  0  0
  1  2  1  0  0  0  0
  1  9  1  0  0  0  0
  2  3  2  0  0  0  0
  4 11  1  0  0  0  0
  4  5  1  0  0  0  0
  4  2  1  0  0  0  0
  5 13  1  6  0  0  0
  5  6  1  0  0  0  0
  6 14  1  0  0  0  0
  6 15  1  0  0  0  0
  7  8  2  0  0  0  0
  7  5  1  0  0  0  0
 10  1  1  0  0  0  0
 12  4  1  0  0  0  0
 16 24  1  0  0  0  0
 16 17  1  0  0  0  0
 17 19  1  0  0  0  0
 17 18  1  0  0  0  0
 18 29  1  0  0  0  0
 18 27  1  0  0  0  0
 19 30  1  1  0  0  0
 19 20  1  0  0  0  0
 20  7  1  0  0  0  0
 21 36  1  0  0  0  0
 21 19  1  0  0  0  0
 22 21  2  0  0  0  0
 23 16  1  0  0  0  0
 25 16  1  0  0  0  0
 26 17  1  0  0  0  0
 28 18  1  0  0  0  0
 31 20  1  0  0  0  0
 32 40  1  0  0  0  0
 32 33  1  0  0  0  0
 33 43  1  0  0  0  0
 33 35  1  0  0  0  0
 34 46  1  0  0  0  0
 34 33  1  0  0  0  0
 35 47  1  6  0  0  0
 35 36  1  0  0  0  0
 35 37  1  0  0  0  0
 36 48  1  0  0  0  0
 37 39  1  0  0  0  0
 38 37  2  0  0  0  0
 41 32  1  0  0  0  0
 42 32  1  0  0  0  0
 44 34  1  0  0  0  0
 45 34  1  0  0  0  0
M  END
$$$$
