NVW.pdb
 OpenBabel07022418123D

 56 57  0  0  1  0  0  0  0  0999 V2000
    1.6000   -1.1680    6.3650 N   0  0  0  0  0  0  0  0  0  0  0  0
    1.8440    0.0080    5.5800 C   0  0  0  0  0  0  0  0  0  0  0  0
    2.8740    0.0300    4.8760 O   0  0  0  0  0  0  0  0  0  0  0  0
    0.8940    1.1370    5.6210 C   0  0  0  0  0  0  0  0  0  0  0  0
    0.1760    1.2300    4.2860 C   0  0  2  0  0  0  0  0  0  0  0  0
   -0.5110   -0.0470    4.1220 N   0  0  0  0  0  0  0  0  0  0  0  0
    1.1020    1.4590    3.1560 C   0  0  0  0  0  0  0  0  0  0  0  0
    1.7540    2.5190    3.0030 O   0  0  0  0  0  0  0  0  0  0  0  0
    0.9920   -1.1360    7.2150 H   0  0  0  0  0  0  0  0  0  0  0  0
    2.0190   -2.0920    6.1210 H   0  0  0  0  0  0  0  0  0  0  0  0
    0.1170    0.9170    6.3810 H   0  0  0  0  0  0  0  0  0  0  0  0
    1.4460    2.0820    5.8570 H   0  0  0  0  0  0  0  0  0  0  0  0
   -0.5170    2.0720    4.3210 H   0  0  0  0  0  0  0  0  0  0  0  0
    0.0100   -0.8490    4.5150 H   0  0  0  0  0  0  0  0  0  0  0  0
   -1.5010    0.0280    4.5010 H   0  0  0  0  0  0  0  0  0  0  0  0
    3.0070   -1.7650    1.3130 C   0  0  0  0  0  0  0  0  0  0  0  0
    3.3750   -0.3060    1.2190 C   0  0  0  0  0  0  0  0  0  0  0  0
    4.3130   -0.0890    0.0630 C   0  0  0  0  0  0  0  0  0  0  0  0
    2.1550    0.5880    1.0490 C   0  0  2  0  0  0  0  0  0  0  0  0
    1.2620    0.4250    2.1920 N   0  0  0  0  0  0  0  0  0  0  0  0
    1.4430    0.2800   -0.2100 C   0  0  0  0  0  0  0  0  0  0  0  0
    2.0650    0.3890   -1.3040 O   0  0  0  0  0  0  0  0  0  0  0  0
    3.3070   -2.1950    2.3090 H   0  0  0  0  0  0  0  0  0  0  0  0
    3.5380   -2.3820    0.5520 H   0  0  0  0  0  0  0  0  0  0  0  0
    1.9000   -1.8850    1.1640 H   0  0  0  0  0  0  0  0  0  0  0  0
    3.9020    0.0530    2.1450 H   0  0  0  0  0  0  0  0  0  0  0  0
    4.2490    0.9450   -0.3080 H   0  0  0  0  0  0  0  0  0  0  0  0
    5.3800   -0.3100    0.3450 H   0  0  0  0  0  0  0  0  0  0  0  0
    4.0470   -0.7560   -0.8090 H   0  0  0  0  0  0  0  0  0  0  0  0
    2.5570    1.6160    0.9740 H   0  0  0  0  0  0  0  0  0  0  0  0
    0.7490   -0.4820    2.2720 H   0  0  0  0  0  0  0  0  0  0  0  0
    0.0980   -0.1350   -0.2560 N   0  0  0  0  0  0  0  0  0  0  0  0
   -0.6000   -0.4490   -1.5280 C   0  0  1  0  0  0  0  0  0  0  0  0
   -0.8800   -1.9000   -1.6060 C   0  0  0  0  0  0  0  0  0  0  0  0
   -1.5980   -2.3470   -2.8080 C   0  0  0  0  0  0  0  0  0  0  0  0
   -1.0180   -2.8580   -3.9800 C   0  0  0  0  0  0  0  0  0  0  0  0
   -1.9800   -3.1430   -4.8590 N   0  0  0  0  0  0  0  0  0  0  0  0
   -3.2100   -2.8530   -4.3500 C   0  0  0  0  0  0  0  0  0  0  0  0
   -4.4840   -2.9880   -4.8710 C   0  0  0  0  0  0  0  0  0  0  0  0
   -5.5570   -2.6140   -4.0860 C   0  0  0  0  0  0  0  0  0  0  0  0
   -5.3190   -2.1240   -2.8220 C   0  0  0  0  0  0  0  0  0  0  0  0
   -4.0570   -1.9920   -2.3100 C   0  0  0  0  0  0  0  0  0  0  0  0
   -2.9510   -2.3600   -3.0750 C   0  0  0  0  0  0  0  0  0  0  0  0
   -1.6960    0.4860   -1.7660 C   0  0  0  0  0  0  0  0  0  0  0  0
   -2.3870    0.5770   -2.8070 O   0  0  0  0  0  0  0  0  0  0  0  0
   -2.0760    1.4170   -0.7650 O   0  0  0  0  0  0  0  0  0  0  0  0
   -0.4200   -0.2210    0.6440 H   0  0  0  0  0  0  0  0  0  0  0  0
    0.1720   -0.2360   -2.3220 H   0  0  0  0  0  0  0  0  0  0  0  0
   -1.4700   -2.1850   -0.6810 H   0  0  0  0  0  0  0  0  0  0  0  0
    0.0690   -2.5200   -1.5610 H   0  0  0  0  0  0  0  0  0  0  0  0
    0.0480   -2.9740   -4.0840 H   0  0  0  0  0  0  0  0  0  0  0  0
   -1.8410   -3.5360   -5.8160 H   0  0  0  0  0  0  0  0  0  0  0  0
   -4.6420   -3.3750   -5.8670 H   0  0  0  0  0  0  0  0  0  0  0  0
   -6.5740   -2.7050   -4.4680 H   0  0  0  0  0  0  0  0  0  0  0  0
   -6.1630   -1.8210   -2.1830 H   0  0  0  0  0  0  0  0  0  0  0  0
   -3.8670   -1.6030   -1.3060 H   0  0  0  0  0  0  0  0  0  0  0  0
  1  9  1  0  0  0  0
  2  4  1  0  0  0  0
  2  1  1  0  0  0  0
  3  2  2  0  0  0  0
  4 12  1  0  0  0  0
  4 11  1  0  0  0  0
  5 13  1  1  0  0  0
  5  4  1  0  0  0  0
  6  5  1  0  0  0  0
  6 15  1  0  0  0  0
  6 14  1  0  0  0  0
  7  5  1  0  0  0  0
  8  7  2  0  0  0  0
 10  1  1  0  0  0  0
 16 23  1  0  0  0  0
 17 16  1  0  0  0  0
 17 26  1  0  0  0  0
 18 28  1  0  0  0  0
 18 17  1  0  0  0  0
 19 30  1  6  0  0  0
 19 17  1  0  0  0  0
 19 20  1  0  0  0  0
 20 31  1  0  0  0  0
 20  7  1  0  0  0  0
 21 19  1  0  0  0  0
 22 21  2  0  0  0  0
 24 16  1  0  0  0  0
 25 16  1  0  0  0  0
 27 18  1  0  0  0  0
 29 18  1  0  0  0  0
 32 21  1  0  0  0  0
 32 47  1  0  0  0  0
 33 48  1  6  0  0  0
 33 32  1  0  0  0  0
 34 50  1  0  0  0  0
 34 33  1  0  0  0  0
 34 49  1  0  0  0  0
 35 34  1  0  0  0  0
 36 35  2  0  0  0  0
 37 38  1  0  0  0  0
 37 36  1  0  0  0  0
 38 43  1  0  0  0  0
 39 38  2  0  0  0  0
 39 40  1  0  0  0  0
 40 41  2  0  0  0  0
 41 42  1  0  0  0  0
 41 55  1  0  0  0  0
 42 56  1  0  0  0  0
 43 35  1  0  0  0  0
 43 42  2  0  0  0  0
 44 33  1  0  0  0  0
 44 46  1  0  0  0  0
 45 44  2  0  0  0  0
 51 36  1  0  0  0  0
 52 37  1  0  0  0  0
 53 39  1  0  0  0  0
 54 40  1  0  0  0  0
M  END
$$$$
