NVY.pdb
 OpenBabel07022418123D

 53 53  0  0  1  0  0  0  0  0999 V2000
    3.4720    1.6700    5.0840 N   0  0  0  0  0  0  0  0  0  0  0  0
    3.8350    0.3470    5.4270 C   0  0  0  0  0  0  0  0  0  0  0  0
    4.0420    0.0750    6.6320 O   0  0  0  0  0  0  0  0  0  0  0  0
    3.9790   -0.7200    4.4360 C   0  0  0  0  0  0  0  0  0  0  0  0
    3.7060   -0.3540    3.0270 C   0  0  2  0  0  0  0  0  0  0  0  0
    4.5190    0.6620    2.4390 N   0  0  0  0  0  0  0  0  0  0  0  0
    2.2740   -0.0900    2.7140 C   0  0  0  0  0  0  0  0  0  0  0  0
    1.3380   -0.3290    3.4980 O   0  0  0  0  0  0  0  0  0  0  0  0
    3.9930    2.5150    5.4330 H   0  0  0  0  0  0  0  0  0  0  0  0
    2.6600    1.8880    4.4640 H   0  0  0  0  0  0  0  0  0  0  0  0
    3.2920   -1.5560    4.7010 H   0  0  0  0  0  0  0  0  0  0  0  0
    5.0490   -1.0750    4.4630 H   0  0  0  0  0  0  0  0  0  0  0  0
    3.9340   -1.2990    2.4150 H   0  0  0  0  0  0  0  0  0  0  0  0
    3.9930    1.5820    2.4340 H   0  0  0  0  0  0  0  0  0  0  0  0
    5.4180    0.8270    2.9530 H   0  0  0  0  0  0  0  0  0  0  0  0
    1.0170    3.1800    1.2710 C   0  0  0  0  0  0  0  0  0  0  0  0
    0.5970    2.1030    0.2670 C   0  0  0  0  0  0  0  0  0  0  0  0
    1.5340    2.2390   -0.9140 C   0  0  0  0  0  0  0  0  0  0  0  0
    0.6670    0.7920    0.9500 C   0  0  2  0  0  0  0  0  0  0  0  0
    1.9870    0.4600    1.4390 N   0  0  0  0  0  0  0  0  0  0  0  0
    0.0470   -0.3470    0.2260 C   0  0  0  0  0  0  0  0  0  0  0  0
    0.6920   -1.4560    0.2560 O   0  0  0  0  0  0  0  0  0  0  0  0
    0.8520    4.1960    0.8910 H   0  0  0  0  0  0  0  0  0  0  0  0
    2.1150    3.0630    1.4190 H   0  0  0  0  0  0  0  0  0  0  0  0
    0.5700    2.9820    2.2670 H   0  0  0  0  0  0  0  0  0  0  0  0
   -0.4640    2.2960   -0.0370 H   0  0  0  0  0  0  0  0  0  0  0  0
    1.3500    3.2680   -1.3400 H   0  0  0  0  0  0  0  0  0  0  0  0
    2.5930    2.2420   -0.5960 H   0  0  0  0  0  0  0  0  0  0  0  0
    1.4000    1.4690   -1.6680 H   0  0  0  0  0  0  0  0  0  0  0  0
    0.0390    0.8650    1.8980 H   0  0  0  0  0  0  0  0  0  0  0  0
    2.7920    0.6440    0.7850 H   0  0  0  0  0  0  0  0  0  0  0  0
   -5.5800   -6.4670   -2.8110 O   0  0  0  0  0  0  0  0  0  0  0  0
   -4.9860   -5.3010   -2.3380 C   0  0  0  0  0  0  0  0  0  0  0  0
   -4.3130   -5.2590   -1.1450 C   0  0  0  0  0  0  0  0  0  0  0  0
   -3.7240   -4.1510   -0.6470 C   0  0  0  0  0  0  0  0  0  0  0  0
   -3.7680   -2.9300   -1.3550 C   0  0  0  0  0  0  0  0  0  0  0  0
   -3.1280   -1.7280   -0.7840 C   0  0  0  0  0  0  0  0  0  0  0  0
   -1.6780   -1.5560   -1.1280 C   0  0  2  0  0  0  0  0  0  0  0  0
   -1.1560   -0.3360   -0.4740 N   0  0  0  0  0  0  0  0  0  0  0  0
   -1.5090   -1.4600   -2.6020 C   0  0  0  0  0  0  0  0  0  0  0  0
   -1.0190   -0.4180   -3.0890 O   0  0  0  0  0  0  0  0  0  0  0  0
   -4.4380   -2.9580   -2.5570 C   0  0  0  0  0  0  0  0  0  0  0  0
   -5.0450   -4.1150   -3.0560 C   0  0  0  0  0  0  0  0  0  0  0  0
   -1.8740   -2.4880   -3.4520 O   0  0  0  0  0  0  0  0  0  0  0  0
   -6.2710   -6.9960   -2.3190 H   0  0  0  0  0  0  0  0  0  0  0  0
   -4.2690   -6.2010   -0.5890 H   0  0  0  0  0  0  0  0  0  0  0  0
   -3.1870   -4.1220    0.3030 H   0  0  0  0  0  0  0  0  0  0  0  0
   -3.7000   -0.8140   -1.1260 H   0  0  0  0  0  0  0  0  0  0  0  0
   -3.2460   -1.8180    0.3330 H   0  0  0  0  0  0  0  0  0  0  0  0
   -1.0270   -2.3870   -0.8100 H   0  0  0  0  0  0  0  0  0  0  0  0
   -1.7040    0.5190   -0.5590 H   0  0  0  0  0  0  0  0  0  0  0  0
   -4.5110   -2.0530   -3.1480 H   0  0  0  0  0  0  0  0  0  0  0  0
   -5.5700   -4.1300   -4.0080 H   0  0  0  0  0  0  0  0  0  0  0  0
  1  2  1  0  0  0  0
  1  9  1  0  0  0  0
  2  3  2  0  0  0  0
  4 12  1  0  0  0  0
  4 11  1  0  0  0  0
  4  2  1  0  0  0  0
  5 13  1  6  0  0  0
  5  4  1  0  0  0  0
  6 15  1  0  0  0  0
  6  5  1  0  0  0  0
  7  5  1  0  0  0  0
  7  8  2  0  0  0  0
 10  1  1  0  0  0  0
 14  6  1  0  0  0  0
 16 24  1  0  0  0  0
 16 25  1  0  0  0  0
 17 19  1  0  0  0  0
 17 16  1  0  0  0  0
 18 28  1  0  0  0  0
 18 17  1  0  0  0  0
 19 20  1  0  0  0  0
 19 30  1  1  0  0  0
 20  7  1  0  0  0  0
 21 22  2  0  0  0  0
 21 19  1  0  0  0  0
 23 16  1  0  0  0  0
 26 17  1  0  0  0  0
 27 18  1  0  0  0  0
 29 18  1  0  0  0  0
 31 20  1  0  0  0  0
 32 33  1  0  0  0  0
 32 45  1  0  0  0  0
 33 34  1  0  0  0  0
 34 35  2  0  0  0  0
 34 46  1  0  0  0  0
 35 47  1  0  0  0  0
 36 37  1  0  0  0  0
 36 35  1  0  0  0  0
 37 49  1  0  0  0  0
 38 50  1  1  0  0  0
 38 37  1  0  0  0  0
 38 39  1  0  0  0  0
 39 21  1  0  0  0  0
 40 38  1  0  0  0  0
 41 40  1  0  0  0  0
 42 36  2  0  0  0  0
 43 42  1  0  0  0  0
 43 33  2  0  0  0  0
 44 40  2  0  0  0  0
 48 37  1  0  0  0  0
 51 39  1  0  0  0  0
 52 42  1  0  0  0  0
 53 43  1  0  0  0  0
M  END
$$$$
