NWC.pdb
 OpenBabel07022418113D

 51 52  0  0  1  0  0  0  0  0999 V2000
    2.3210   -4.8040    3.0550 N   0  0  0  0  0  0  0  0  0  0  0  0
    2.0120   -3.4170    3.1590 C   0  0  0  0  0  0  0  0  0  0  0  0
    0.8920   -3.0980    3.6030 O   0  0  0  0  0  0  0  0  0  0  0  0
    3.0030   -2.3880    2.7470 C   0  0  0  0  0  0  0  0  0  0  0  0
    2.3920   -1.0080    2.9720 C   0  0  2  0  0  0  0  0  0  0  0  0
    2.0920   -0.9170    4.3850 N   0  0  0  0  0  0  0  0  0  0  0  0
    1.1980   -0.8090    2.1410 C   0  0  0  0  0  0  0  0  0  0  0  0
    0.0920   -0.6020    2.7330 O   0  0  0  0  0  0  0  0  0  0  0  0
    1.8010   -5.5040    3.5930 H   0  0  0  0  0  0  0  0  0  0  0  0
    3.0810   -5.0930    2.4280 H   0  0  0  0  0  0  0  0  0  0  0  0
    3.2040   -2.4930    1.6700 H   0  0  0  0  0  0  0  0  0  0  0  0
    3.9660   -2.4720    3.2850 H   0  0  0  0  0  0  0  0  0  0  0  0
    3.1740   -0.2440    2.7300 H   0  0  0  0  0  0  0  0  0  0  0  0
    2.1580    0.0970    4.6970 H   0  0  0  0  0  0  0  0  0  0  0  0
    2.7950   -1.4330    4.9460 H   0  0  0  0  0  0  0  0  0  0  0  0
    1.2560   -0.8430    0.7220 N   0  0  0  0  0  0  0  0  0  0  0  0
    0.0820   -0.6470   -0.1020 C   0  0  1  0  0  0  0  0  0  0  0  0
    0.1460    0.6180   -0.8970 C   0  0  0  0  0  0  0  0  0  0  0  0
    0.2560    1.8070    0.0070 C   0  0  0  0  0  0  0  0  0  0  0  0
    1.3770    2.5640    0.2780 C   0  0  0  0  0  0  0  0  0  0  0  0
    1.0400    3.5370    1.1410 N   0  0  0  0  0  0  0  0  0  0  0  0
   -0.2750    3.4570    1.4600 C   0  0  0  0  0  0  0  0  0  0  0  0
   -1.0850    4.2200    2.2940 C   0  0  0  0  0  0  0  0  0  0  0  0
   -2.4200    3.9100    2.4360 C   0  0  0  0  0  0  0  0  0  0  0  0
   -2.9030    2.8300    1.7270 C   0  0  0  0  0  0  0  0  0  0  0  0
   -2.0940    2.0730    0.8970 C   0  0  0  0  0  0  0  0  0  0  0  0
   -0.7610    2.3800    0.7530 C   0  0  0  0  0  0  0  0  0  0  0  0
   -0.2060   -1.8540   -0.8560 C   0  0  0  0  0  0  0  0  0  0  0  0
    0.5450   -2.8540   -0.7150 O   0  0  0  0  0  0  0  0  0  0  0  0
    2.2080   -1.0190    0.3190 H   0  0  0  0  0  0  0  0  0  0  0  0
   -0.7760   -0.4980    0.6210 H   0  0  0  0  0  0  0  0  0  0  0  0
    1.0790    0.5970   -1.4980 H   0  0  0  0  0  0  0  0  0  0  0  0
   -0.6780    0.7900   -1.5690 H   0  0  0  0  0  0  0  0  0  0  0  0
    2.3470    2.3550   -0.1660 H   0  0  0  0  0  0  0  0  0  0  0  0
    1.6960    4.2530    1.5150 H   0  0  0  0  0  0  0  0  0  0  0  0
   -0.6930    5.0540    2.8370 H   0  0  0  0  0  0  0  0  0  0  0  0
   -3.0840    4.4900    3.0850 H   0  0  0  0  0  0  0  0  0  0  0  0
   -3.9560    2.5950    1.8460 H   0  0  0  0  0  0  0  0  0  0  0  0
   -2.4650    1.2300    0.3400 H   0  0  0  0  0  0  0  0  0  0  0  0
   -1.2890   -2.0100   -1.7630 N   0  0  0  0  0  0  0  0  0  0  0  0
   -1.5530   -3.2220   -2.5010 C   0  0  1  0  0  0  0  0  0  0  0  0
   -2.9190   -3.7940   -2.1760 C   0  0  0  0  0  0  0  0  0  0  0  0
   -3.0830   -4.1980   -0.4300 S   0  0  0  0  0  0  0  0  0  0  0  0
   -1.4900   -2.9130   -3.9490 C   0  0  0  0  0  0  0  0  0  0  0  0
   -1.6810   -3.7970   -4.8300 O   0  0  0  0  0  0  0  0  0  0  0  0
   -1.2130   -1.6230   -4.3710 O   0  0  0  0  0  0  0  0  0  0  0  0
   -1.9120   -1.2000   -1.8870 H   0  0  0  0  0  0  0  0  0  0  0  0
   -0.8080   -4.0190   -2.2700 H   0  0  0  0  0  0  0  0  0  0  0  0
   -3.0850   -4.7230   -2.7580 H   0  0  0  0  0  0  0  0  0  0  0  0
   -3.7310   -3.0810   -2.4690 H   0  0  0  0  0  0  0  0  0  0  0  0
   -1.8760   -4.7410    0.0490 H   0  0  0  0  0  0  0  0  0  0  0  0
  1  2  1  0  0  0  0
  1  9  1  0  0  0  0
  2  3  2  0  0  0  0
  4  5  1  0  0  0  0
  4  2  1  0  0  0  0
  4 12  1  0  0  0  0
  5 13  1  6  0  0  0
  5  6  1  0  0  0  0
  6 14  1  0  0  0  0
  6 15  1  0  0  0  0
  7  8  2  0  0  0  0
  7  5  1  0  0  0  0
 10  1  1  0  0  0  0
 11  4  1  0  0  0  0
 16  7  1  0  0  0  0
 17 31  1  1  0  0  0
 17 16  1  0  0  0  0
 18 17  1  0  0  0  0
 18 19  1  0  0  0  0
 19 20  2  0  0  0  0
 19 27  1  0  0  0  0
 20 21  1  0  0  0  0
 21 22  1  0  0  0  0
 21 35  1  0  0  0  0
 22 23  1  0  0  0  0
 23 24  2  0  0  0  0
 23 36  1  0  0  0  0
 24 37  1  0  0  0  0
 25 38  1  0  0  0  0
 25 24  1  0  0  0  0
 26 25  2  0  0  0  0
 27 26  1  0  0  0  0
 27 22  2  0  0  0  0
 28 29  2  0  0  0  0
 28 17  1  0  0  0  0
 30 16  1  0  0  0  0
 32 18  1  0  0  0  0
 33 18  1  0  0  0  0
 34 20  1  0  0  0  0
 39 26  1  0  0  0  0
 40 28  1  0  0  0  0
 41 48  1  1  0  0  0
 41 42  1  0  0  0  0
 41 40  1  0  0  0  0
 42 43  1  0  0  0  0
 43 51  1  0  0  0  0
 44 41  1  0  0  0  0
 45 44  2  0  0  0  0
 46 44  1  0  0  0  0
 47 40  1  0  0  0  0
 49 42  1  0  0  0  0
 50 42  1  0  0  0  0
M  END
$$$$
