NWD.pdb
 OpenBabel07022418113D

 53 54  0  0  1  0  0  0  0  0999 V2000
    3.9390   -4.0820    0.8640 N   0  0  0  0  0  0  0  0  0  0  0  0
    3.9220   -2.7940    1.4510 C   0  0  0  0  0  0  0  0  0  0  0  0
    3.5900   -2.6920    2.6550 O   0  0  0  0  0  0  0  0  0  0  0  0
    4.2910   -1.6070    0.6480 C   0  0  0  0  0  0  0  0  0  0  0  0
    4.2020   -0.3480    1.4690 C   0  0  2  0  0  0  0  0  0  0  0  0
    5.0990   -0.4240    2.6070 N   0  0  0  0  0  0  0  0  0  0  0  0
    2.8030   -0.0900    1.9100 C   0  0  0  0  0  0  0  0  0  0  0  0
    2.5370   -0.0010    3.1380 O   0  0  0  0  0  0  0  0  0  0  0  0
    4.3250   -4.2700   -0.0930 H   0  0  0  0  0  0  0  0  0  0  0  0
    3.5600   -4.9130    1.3670 H   0  0  0  0  0  0  0  0  0  0  0  0
    3.5560   -1.4960   -0.1990 H   0  0  0  0  0  0  0  0  0  0  0  0
    5.3210   -1.6770    0.2420 H   0  0  0  0  0  0  0  0  0  0  0  0
    4.5330    0.4810    0.8250 H   0  0  0  0  0  0  0  0  0  0  0  0
    4.5790   -0.3160    3.5120 H   0  0  0  0  0  0  0  0  0  0  0  0
    5.5360   -1.3690    2.6200 H   0  0  0  0  0  0  0  0  0  0  0  0
    1.7480    0.0610    0.9750 N   0  0  0  0  0  0  0  0  0  0  0  0
    0.3650    0.3110    1.3770 C   0  0  1  0  0  0  0  0  0  0  0  0
   -0.0200    1.7300    1.1470 C   0  0  0  0  0  0  0  0  0  0  0  0
   -1.4020    2.1140    1.4820 C   0  0  0  0  0  0  0  0  0  0  0  0
   -1.8470    2.6620    2.6950 C   0  0  0  0  0  0  0  0  0  0  0  0
   -3.1670    2.8570    2.6550 N   0  0  0  0  0  0  0  0  0  0  0  0
   -3.6600    2.4620    1.4460 C   0  0  0  0  0  0  0  0  0  0  0  0
   -4.9360    2.4740    0.9210 C   0  0  0  0  0  0  0  0  0  0  0  0
   -5.1760    2.0280   -0.3560 C   0  0  0  0  0  0  0  0  0  0  0  0
   -4.0980    1.5710   -1.0840 C   0  0  0  0  0  0  0  0  0  0  0  0
   -2.8250    1.5590   -0.5580 C   0  0  0  0  0  0  0  0  0  0  0  0
   -2.5670    2.0100    0.7400 C   0  0  0  0  0  0  0  0  0  0  0  0
   -0.5560   -0.7180    0.8690 C   0  0  0  0  0  0  0  0  0  0  0  0
   -1.7530   -0.7220    1.2760 O   0  0  0  0  0  0  0  0  0  0  0  0
    2.0270   -0.0190   -0.0460 H   0  0  0  0  0  0  0  0  0  0  0  0
    0.4000    0.2180    2.5130 H   0  0  0  0  0  0  0  0  0  0  0  0
    0.0950    1.9720    0.0480 H   0  0  0  0  0  0  0  0  0  0  0  0
    0.6310    2.4480    1.7180 H   0  0  0  0  0  0  0  0  0  0  0  0
   -1.1400    2.8660    3.5020 H   0  0  0  0  0  0  0  0  0  0  0  0
   -3.7500    3.2500    3.4190 H   0  0  0  0  0  0  0  0  0  0  0  0
   -5.7670    2.8360    1.5050 H   0  0  0  0  0  0  0  0  0  0  0  0
   -6.1780    2.0270   -0.7980 H   0  0  0  0  0  0  0  0  0  0  0  0
   -4.3000    1.2170   -2.0970 H   0  0  0  0  0  0  0  0  0  0  0  0
   -1.9840    1.2090   -1.1160 H   0  0  0  0  0  0  0  0  0  0  0  0
   -0.2080   -1.7170   -0.0520 N   0  0  0  0  0  0  0  0  0  0  0  0
   -1.0940   -2.7490   -0.5800 C   0  0  1  0  0  0  0  0  0  0  0  0
   -1.2680   -2.6270   -2.0600 C   0  0  0  0  0  0  0  0  0  0  0  0
   -2.2050   -3.6460   -2.5660 C   0  0  0  0  0  0  0  0  0  0  0  0
   -2.8470   -4.4350   -1.8220 O   0  0  0  0  0  0  0  0  0  0  0  0
   -0.5240   -4.0460   -0.1380 C   0  0  0  0  0  0  0  0  0  0  0  0
   -0.9660   -5.1780   -0.3710 O   0  0  0  0  0  0  0  0  0  0  0  0
   -2.4600   -3.8220   -3.9260 O   0  0  0  0  0  0  0  0  0  0  0  0
    0.6560   -4.0330    0.6380 O   0  0  0  0  0  0  0  0  0  0  0  0
    0.7660   -1.7520   -0.4110 H   0  0  0  0  0  0  0  0  0  0  0  0
   -2.0700   -2.6240   -0.0860 H   0  0  0  0  0  0  0  0  0  0  0  0
   -0.3010   -2.6210   -2.6120 H   0  0  0  0  0  0  0  0  0  0  0  0
   -1.7320   -1.6320   -2.3090 H   0  0  0  0  0  0  0  0  0  0  0  0
   -3.0340   -4.5860   -4.2430 H   0  0  0  0  0  0  0  0  0  0  0  0
  1 10  1  0  0  0  0
  1  2  1  0  0  0  0
  2  3  2  0  0  0  0
  4  2  1  0  0  0  0
  4  5  1  0  0  0  0
  5 13  1  6  0  0  0
  5  7  1  0  0  0  0
  5  6  1  0  0  0  0
  6 15  1  0  0  0  0
  6 14  1  0  0  0  0
  7  8  2  0  0  0  0
  9  1  1  0  0  0  0
 11  4  1  0  0  0  0
 12  4  1  0  0  0  0
 16 17  1  0  0  0  0
 16  7  1  0  0  0  0
 17 31  1  1  0  0  0
 18 17  1  0  0  0  0
 18 19  1  0  0  0  0
 18 33  1  0  0  0  0
 19 20  2  0  0  0  0
 20 34  1  0  0  0  0
 21 20  1  0  0  0  0
 21 35  1  0  0  0  0
 22 21  1  0  0  0  0
 23 22  1  0  0  0  0
 23 36  1  0  0  0  0
 24 23  2  0  0  0  0
 25 26  2  0  0  0  0
 25 24  1  0  0  0  0
 26 27  1  0  0  0  0
 27 22  2  0  0  0  0
 27 19  1  0  0  0  0
 28 29  2  0  0  0  0
 28 17  1  0  0  0  0
 30 16  1  0  0  0  0
 32 18  1  0  0  0  0
 37 24  1  0  0  0  0
 38 25  1  0  0  0  0
 39 26  1  0  0  0  0
 40 28  1  0  0  0  0
 41 45  1  0  0  0  0
 41 50  1  1  0  0  0
 41 40  1  0  0  0  0
 42 41  1  0  0  0  0
 43 42  1  0  0  0  0
 43 44  2  0  0  0  0
 45 48  1  0  0  0  0
 46 45  2  0  0  0  0
 47 43  1  0  0  0  0
 49 40  1  0  0  0  0
 51 42  1  0  0  0  0
 52 42  1  0  0  0  0
 53 47  1  0  0  0  0
M  END
$$$$
