NWE.pdb
 OpenBabel07022418113D

 56 57  0  0  1  0  0  0  0  0999 V2000
    0.5510    1.4210    4.4140 N   0  0  0  0  0  0  0  0  0  0  0  0
    0.1810    0.3460    5.2330 C   0  0  0  0  0  0  0  0  0  0  0  0
   -0.6340    0.6130    6.1790 O   0  0  0  0  0  0  0  0  0  0  0  0
    0.6150   -1.0450    5.1340 C   0  0  0  0  0  0  0  0  0  0  0  0
    1.5650   -1.3830    4.0510 C   0  0  2  0  0  0  0  0  0  0  0  0
    2.8170   -0.7100    4.0570 N   0  0  0  0  0  0  0  0  0  0  0  0
    0.8600   -1.3850    2.7480 C   0  0  0  0  0  0  0  0  0  0  0  0
   -0.3080   -1.8460    2.7220 O   0  0  0  0  0  0  0  0  0  0  0  0
    0.0860    1.4970    3.4660 H   0  0  0  0  0  0  0  0  0  0  0  0
    1.2360    2.1640    4.6290 H   0  0  0  0  0  0  0  0  0  0  0  0
    0.9440   -1.3880    6.1450 H   0  0  0  0  0  0  0  0  0  0  0  0
   -0.3190   -1.6540    4.9380 H   0  0  0  0  0  0  0  0  0  0  0  0
    1.8280   -2.4830    4.2140 H   0  0  0  0  0  0  0  0  0  0  0  0
    2.8510    0.2050    4.5070 H   0  0  0  0  0  0  0  0  0  0  0  0
    3.4180   -0.8710    3.2530 H   0  0  0  0  0  0  0  0  0  0  0  0
    1.4130   -0.9070    1.5480 N   0  0  0  0  0  0  0  0  0  0  0  0
    0.6350   -0.9600    0.3350 C   0  0  1  0  0  0  0  0  0  0  0  0
    0.6120    0.3170   -0.4400 C   0  0  0  0  0  0  0  0  0  0  0  0
    0.0570    1.4730    0.2940 C   0  0  0  0  0  0  0  0  0  0  0  0
    0.7110    2.5500    0.8550 C   0  0  0  0  0  0  0  0  0  0  0  0
   -0.2020    3.3610    1.4110 N   0  0  0  0  0  0  0  0  0  0  0  0
   -1.4410    2.8750    1.2460 C   0  0  0  0  0  0  0  0  0  0  0  0
   -2.6840    3.3270    1.6250 C   0  0  0  0  0  0  0  0  0  0  0  0
   -3.8170    2.5730    1.2950 C   0  0  0  0  0  0  0  0  0  0  0  0
   -3.6930    1.3940    0.6010 C   0  0  0  0  0  0  0  0  0  0  0  0
   -2.4370    0.9740    0.2400 C   0  0  0  0  0  0  0  0  0  0  0  0
   -1.2850    1.6910    0.5460 C   0  0  0  0  0  0  0  0  0  0  0  0
    1.0520   -2.1210   -0.5130 C   0  0  0  0  0  0  0  0  0  0  0  0
    1.9740   -2.8580   -0.0850 O   0  0  0  0  0  0  0  0  0  0  0  0
    2.3760   -0.5200    1.5360 H   0  0  0  0  0  0  0  0  0  0  0  0
   -0.4060   -1.2090    0.6240 H   0  0  0  0  0  0  0  0  0  0  0  0
    0.0710    0.2530   -1.3930 H   0  0  0  0  0  0  0  0  0  0  0  0
    1.6640    0.6170   -0.7260 H   0  0  0  0  0  0  0  0  0  0  0  0
    1.7960    2.6460    0.8090 H   0  0  0  0  0  0  0  0  0  0  0  0
    0.0300    4.2480    1.9010 H   0  0  0  0  0  0  0  0  0  0  0  0
   -2.7770    4.2570    2.1710 H   0  0  0  0  0  0  0  0  0  0  0  0
   -4.7730    2.9590    1.6090 H   0  0  0  0  0  0  0  0  0  0  0  0
   -4.5530    0.8030    0.3410 H   0  0  0  0  0  0  0  0  0  0  0  0
   -2.2660    0.0440   -0.3130 H   0  0  0  0  0  0  0  0  0  0  0  0
    0.4560   -2.4130   -1.7550 N   0  0  0  0  0  0  0  0  0  0  0  0
    0.8550   -3.5350   -2.5790 C   0  0  1  0  0  0  0  0  0  0  0  0
   -0.1900   -4.5890   -2.6510 C   0  0  0  0  0  0  0  0  0  0  0  0
   -1.5310   -4.2230   -3.1390 C   0  0  0  0  0  0  0  0  0  0  0  0
   -1.6610   -3.7050   -4.4900 C   0  0  0  0  0  0  0  0  0  0  0  0
   -0.7320   -3.5770   -5.2780 O   0  0  0  0  0  0  0  0  0  0  0  0
    1.5390   -3.1850   -3.8200 C   0  0  0  0  0  0  0  0  0  0  0  0
    2.0510   -4.1380   -4.5090 O   0  0  0  0  0  0  0  0  0  0  0  0
   -2.9290   -3.3060   -4.9840 O   0  0  0  0  0  0  0  0  0  0  0  0
    1.6860   -1.8950   -4.3230 O   0  0  0  0  0  0  0  0  0  0  0  0
   -0.3140   -1.7640   -2.0690 H   0  0  0  0  0  0  0  0  0  0  0  0
    1.6960   -4.0280   -1.9450 H   0  0  0  0  0  0  0  0  0  0  0  0
    0.2190   -5.3910   -3.3250 H   0  0  0  0  0  0  0  0  0  0  0  0
   -0.2230   -5.0830   -1.6320 H   0  0  0  0  0  0  0  0  0  0  0  0
   -2.1750   -5.1520   -3.0960 H   0  0  0  0  0  0  0  0  0  0  0  0
   -2.0550   -3.5070   -2.4380 H   0  0  0  0  0  0  0  0  0  0  0  0
   -2.9420   -2.5990   -5.6920 H   0  0  0  0  0  0  0  0  0  0  0  0
  1 10  1  0  0  0  0
  1  2  1  0  0  0  0
  2  3  2  0  0  0  0
  4  2  1  0  0  0  0
  4 11  1  0  0  0  0
  5  6  1  0  0  0  0
  5 13  1  1  0  0  0
  5  4  1  0  0  0  0
  6 14  1  0  0  0  0
  7  5  1  0  0  0  0
  8  7  2  0  0  0  0
  9  1  1  0  0  0  0
 12  4  1  0  0  0  0
 15  6  1  0  0  0  0
 16  7  1  0  0  0  0
 17 31  1  1  0  0  0
 17 16  1  0  0  0  0
 18 19  1  0  0  0  0
 18 17  1  0  0  0  0
 19 27  1  0  0  0  0
 19 20  2  0  0  0  0
 20 21  1  0  0  0  0
 21 35  1  0  0  0  0
 22 21  1  0  0  0  0
 22 23  1  0  0  0  0
 23 36  1  0  0  0  0
 24 37  1  0  0  0  0
 24 23  2  0  0  0  0
 25 24  1  0  0  0  0
 26 27  1  0  0  0  0
 26 25  2  0  0  0  0
 27 22  2  0  0  0  0
 28 29  2  0  0  0  0
 28 17  1  0  0  0  0
 30 16  1  0  0  0  0
 32 18  1  0  0  0  0
 33 18  1  0  0  0  0
 34 20  1  0  0  0  0
 38 25  1  0  0  0  0
 39 26  1  0  0  0  0
 40 28  1  0  0  0  0
 41 51  1  1  0  0  0
 41 40  1  0  0  0  0
 42 41  1  0  0  0  0
 42 53  1  0  0  0  0
 43 54  1  0  0  0  0
 43 42  1  0  0  0  0
 43 55  1  0  0  0  0
 44 43  1  0  0  0  0
 45 44  2  0  0  0  0
 46 41  1  0  0  0  0
 47 46  2  0  0  0  0
 48 44  1  0  0  0  0
 49 46  1  0  0  0  0
 50 40  1  0  0  0  0
 52 42  1  0  0  0  0
 56 48  1  0  0  0  0
M  END
$$$$
