NWF.pdb
 OpenBabel07022418113D

 60 62  0  0  1  0  0  0  0  0999 V2000
    6.2990   -0.2550    3.0270 N   0  0  0  0  0  0  0  0  0  0  0  0
    5.1440    0.5400    2.8260 C   0  0  0  0  0  0  0  0  0  0  0  0
    4.1960    0.3730    3.6270 O   0  0  0  0  0  0  0  0  0  0  0  0
    5.1110    1.4970    1.7170 C   0  0  0  0  0  0  0  0  0  0  0  0
    4.5900    0.9140    0.4250 C   0  0  2  0  0  0  0  0  0  0  0  0
    4.5950    1.9380   -0.6260 N   0  0  0  0  0  0  0  0  0  0  0  0
    3.2090    0.4530    0.6430 C   0  0  0  0  0  0  0  0  0  0  0  0
    3.0140   -0.4670    1.4730 O   0  0  0  0  0  0  0  0  0  0  0  0
    7.0930    0.0740    3.6040 H   0  0  0  0  0  0  0  0  0  0  0  0
    6.3460   -1.1870    2.5820 H   0  0  0  0  0  0  0  0  0  0  0  0
    6.1570    1.8450    1.5470 H   0  0  0  0  0  0  0  0  0  0  0  0
    4.5070    2.3920    2.0310 H   0  0  0  0  0  0  0  0  0  0  0  0
    5.2830    0.1070    0.1250 H   0  0  0  0  0  0  0  0  0  0  0  0
    5.2570    1.6680   -1.3840 H   0  0  0  0  0  0  0  0  0  0  0  0
    4.9940    2.8340   -0.2120 H   0  0  0  0  0  0  0  0  0  0  0  0
    2.0710    0.9570   -0.0060 N   0  0  0  0  0  0  0  0  0  0  0  0
    0.7090    0.4590    0.2490 C   0  0  1  0  0  0  0  0  0  0  0  0
   -0.1820    1.5540    0.6830 C   0  0  0  0  0  0  0  0  0  0  0  0
   -1.5450    1.0830    0.9580 C   0  0  0  0  0  0  0  0  0  0  0  0
   -2.7120    1.3260    0.2300 C   0  0  0  0  0  0  0  0  0  0  0  0
   -3.7480    0.7480    0.8490 N   0  0  0  0  0  0  0  0  0  0  0  0
   -3.3520    0.1200    1.9670 C   0  0  0  0  0  0  0  0  0  0  0  0
   -4.0430   -0.6060    2.9250 C   0  0  0  0  0  0  0  0  0  0  0  0
   -3.3800   -1.1580    4.0000 C   0  0  0  0  0  0  0  0  0  0  0  0
   -2.0180   -0.9590    4.0780 C   0  0  0  0  0  0  0  0  0  0  0  0
   -1.3230   -0.2320    3.1200 C   0  0  0  0  0  0  0  0  0  0  0  0
   -1.9900    0.3210    2.0430 C   0  0  0  0  0  0  0  0  0  0  0  0
    0.2470   -0.1200   -1.0270 C   0  0  0  0  0  0  0  0  0  0  0  0
    0.9160    0.0940   -2.1140 O   0  0  0  0  0  0  0  0  0  0  0  0
    2.1820    1.7150   -0.6980 H   0  0  0  0  0  0  0  0  0  0  0  0
    0.7090   -0.3480    1.0050 H   0  0  0  0  0  0  0  0  0  0  0  0
    0.1430    2.0570    1.6240 H   0  0  0  0  0  0  0  0  0  0  0  0
   -0.2430    2.3820   -0.0880 H   0  0  0  0  0  0  0  0  0  0  0  0
   -2.7110    1.9010   -0.6870 H   0  0  0  0  0  0  0  0  0  0  0  0
   -4.7290    0.7850    0.5040 H   0  0  0  0  0  0  0  0  0  0  0  0
   -5.1110   -0.7680    2.8700 H   0  0  0  0  0  0  0  0  0  0  0  0
   -3.9130   -1.7300    4.7570 H   0  0  0  0  0  0  0  0  0  0  0  0
   -1.4760   -1.3890    4.9240 H   0  0  0  0  0  0  0  0  0  0  0  0
   -0.2550   -0.0740    3.1820 H   0  0  0  0  0  0  0  0  0  0  0  0
   -0.8990   -0.9340   -1.2110 N   0  0  0  0  0  0  0  0  0  0  0  0
   -1.2450   -1.4630   -2.5360 C   0  0  1  0  0  0  0  0  0  0  0  0
   -0.8360   -2.9380   -2.5230 C   0  0  0  0  0  0  0  0  0  0  0  0
   -1.5600   -3.6730   -1.4660 C   0  0  0  0  0  0  0  0  0  0  0  0
   -1.0490   -3.7760   -0.1960 C   0  0  0  0  0  0  0  0  0  0  0  0
   -1.6910   -4.4520    0.8090 C   0  0  0  0  0  0  0  0  0  0  0  0
   -2.8920   -5.0410    0.5110 C   0  0  0  0  0  0  0  0  0  0  0  0
   -3.4310   -4.9560   -0.7550 C   0  0  0  0  0  0  0  0  0  0  0  0
   -2.7680   -4.2740   -1.7390 C   0  0  0  0  0  0  0  0  0  0  0  0
   -2.6570   -1.2890   -2.7980 C   0  0  0  0  0  0  0  0  0  0  0  0
   -3.4720   -0.7880   -1.9990 O   0  0  0  0  0  0  0  0  0  0  0  0
   -3.1490   -1.7170   -4.0530 O   0  0  0  0  0  0  0  0  0  0  0  0
   -1.4820   -1.1550   -0.3780 H   0  0  0  0  0  0  0  0  0  0  0  0
   -0.6010   -0.9740   -3.2710 H   0  0  0  0  0  0  0  0  0  0  0  0
   -1.1020   -3.3690   -3.5240 H   0  0  0  0  0  0  0  0  0  0  0  0
    0.2570   -2.9920   -2.4230 H   0  0  0  0  0  0  0  0  0  0  0  0
   -0.1020   -3.3100    0.0360 H   0  0  0  0  0  0  0  0  0  0  0  0
   -1.2470   -4.5090    1.8080 H   0  0  0  0  0  0  0  0  0  0  0  0
   -3.4100   -5.5840    1.3110 H   0  0  0  0  0  0  0  0  0  0  0  0
   -4.3960   -5.4400   -0.9620 H   0  0  0  0  0  0  0  0  0  0  0  0
   -3.2000   -4.2070   -2.7490 H   0  0  0  0  0  0  0  0  0  0  0  0
  1  9  1  0  0  0  0
  2  1  1  0  0  0  0
  2  3  2  0  0  0  0
  4 12  1  0  0  0  0
  4  2  1  0  0  0  0
  5 13  1  6  0  0  0
  5  7  1  0  0  0  0
  5  4  1  0  0  0  0
  6 15  1  0  0  0  0
  6  5  1  0  0  0  0
  7  8  2  0  0  0  0
 10  1  1  0  0  0  0
 11  4  1  0  0  0  0
 14  6  1  0  0  0  0
 16 17  1  0  0  0  0
 16  7  1  0  0  0  0
 17 18  1  0  0  0  0
 17 31  1  1  0  0  0
 18 19  1  0  0  0  0
 18 32  1  0  0  0  0
 19 27  1  0  0  0  0
 20 21  1  0  0  0  0
 20 19  2  0  0  0  0
 21 22  1  0  0  0  0
 22 27  2  0  0  0  0
 22 23  1  0  0  0  0
 23 24  2  0  0  0  0
 24 25  1  0  0  0  0
 24 37  1  0  0  0  0
 25 38  1  0  0  0  0
 26 39  1  0  0  0  0
 26 25  2  0  0  0  0
 27 26  1  0  0  0  0
 28 17  1  0  0  0  0
 29 28  2  0  0  0  0
 30 16  1  0  0  0  0
 33 18  1  0  0  0  0
 34 20  1  0  0  0  0
 35 21  1  0  0  0  0
 36 23  1  0  0  0  0
 40 28  1  0  0  0  0
 40 52  1  0  0  0  0
 41 53  1  6  0  0  0
 41 42  1  0  0  0  0
 41 40  1  0  0  0  0
 42 55  1  0  0  0  0
 42 43  1  0  0  0  0
 43 44  1  0  0  0  0
 44 56  1  0  0  0  0
 44 45  2  0  0  0  0
 45 57  1  0  0  0  0
 46 45  1  0  0  0  0
 46 58  1  0  0  0  0
 47 46  2  0  0  0  0
 48 43  2  0  0  0  0
 48 47  1  0  0  0  0
 49 41  1  0  0  0  0
 49 50  1  0  0  0  0
 51 49  2  0  0  0  0
 54 42  1  0  0  0  0
 59 47  1  0  0  0  0
 60 48  1  0  0  0  0
M  END
$$$$
