NWI.pdb
 OpenBabel07022418113D

 59 60  0  0  1  0  0  0  0  0999 V2000
   -1.3230    0.5250    7.4120 N   0  0  0  0  0  0  0  0  0  0  0  0
   -0.9180   -0.5920    6.6460 C   0  0  0  0  0  0  0  0  0  0  0  0
   -0.3920   -1.5720    7.2120 O   0  0  0  0  0  0  0  0  0  0  0  0
   -1.1460   -0.5280    5.1930 C   0  0  0  0  0  0  0  0  0  0  0  0
   -0.6130   -1.7170    4.4370 C   0  0  2  0  0  0  0  0  0  0  0  0
    0.8300   -1.8560    4.6260 N   0  0  0  0  0  0  0  0  0  0  0  0
   -0.8240   -1.4040    2.9740 C   0  0  0  0  0  0  0  0  0  0  0  0
   -1.9920   -1.1780    2.5610 O   0  0  0  0  0  0  0  0  0  0  0  0
   -1.7300    0.4000    8.3450 H   0  0  0  0  0  0  0  0  0  0  0  0
   -1.2030    1.4780    7.0200 H   0  0  0  0  0  0  0  0  0  0  0  0
   -0.7030    0.3780    4.7320 H   0  0  0  0  0  0  0  0  0  0  0  0
   -2.2500   -0.4880    4.9640 H   0  0  0  0  0  0  0  0  0  0  0  0
   -1.0910   -2.6670    4.6800 H   0  0  0  0  0  0  0  0  0  0  0  0
    1.3100   -0.9250    4.6090 H   0  0  0  0  0  0  0  0  0  0  0  0
    1.0290   -2.3570    5.5110 H   0  0  0  0  0  0  0  0  0  0  0  0
    0.2340   -1.3600    2.0640 N   0  0  0  0  0  0  0  0  0  0  0  0
    0.1490   -1.0740    0.6490 C   0  0  1  0  0  0  0  0  0  0  0  0
    0.9510    0.1060    0.2150 C   0  0  0  0  0  0  0  0  0  0  0  0
    0.5140    1.3570    0.9060 C   0  0  0  0  0  0  0  0  0  0  0  0
    1.2010    1.9980    1.9250 C   0  0  0  0  0  0  0  0  0  0  0  0
    0.4970    3.0960    2.2990 N   0  0  0  0  0  0  0  0  0  0  0  0
   -0.6330    3.2020    1.5540 C   0  0  0  0  0  0  0  0  0  0  0  0
   -1.6610    4.1260    1.5570 C   0  0  0  0  0  0  0  0  0  0  0  0
   -2.6980    3.9510    0.6630 C   0  0  0  0  0  0  0  0  0  0  0  0
   -2.6960    2.8780   -0.2020 C   0  0  0  0  0  0  0  0  0  0  0  0
   -1.6710    1.9740   -0.1840 C   0  0  0  0  0  0  0  0  0  0  0  0
   -0.6150    2.1210    0.6960 C   0  0  0  0  0  0  0  0  0  0  0  0
    0.2210   -2.2610   -0.1900 C   0  0  0  0  0  0  0  0  0  0  0  0
    0.1570   -3.4020    0.4060 O   0  0  0  0  0  0  0  0  0  0  0  0
    1.2020   -1.5580    2.4700 H   0  0  0  0  0  0  0  0  0  0  0  0
   -0.9420   -0.7280    0.5370 H   0  0  0  0  0  0  0  0  0  0  0  0
    0.9450    0.3050   -0.8570 H   0  0  0  0  0  0  0  0  0  0  0  0
    2.0110   -0.0910    0.5070 H   0  0  0  0  0  0  0  0  0  0  0  0
    2.1430    1.6320    2.3180 H   0  0  0  0  0  0  0  0  0  0  0  0
    0.7730    3.7750    3.0460 H   0  0  0  0  0  0  0  0  0  0  0  0
   -1.6980    4.9780    2.2170 H   0  0  0  0  0  0  0  0  0  0  0  0
   -3.5380    4.6800    0.6440 H   0  0  0  0  0  0  0  0  0  0  0  0
   -3.5090    2.7450   -0.8950 H   0  0  0  0  0  0  0  0  0  0  0  0
   -1.6230    1.1130   -0.8550 H   0  0  0  0  0  0  0  0  0  0  0  0
    1.5090   -2.5460   -5.8570 C   0  0  0  0  0  0  0  0  0  0  0  0
    1.5010   -2.5560   -4.3590 C   0  0  0  0  0  0  0  0  0  0  0  0
    0.3180   -3.3680   -3.8180 C   0  0  2  0  0  0  0  0  0  0  0  0
   -0.9760   -2.7370   -4.2900 C   0  0  0  0  0  0  0  0  0  0  0  0
    0.3940   -3.5250   -2.3620 C   0  0  2  0  0  0  0  0  0  0  0  0
    0.3510   -2.3120   -1.5820 N   0  0  0  0  0  0  0  0  0  0  0  0
    1.7390   -4.2130   -2.0830 C   0  0  0  0  0  0  0  0  0  0  0  0
    2.5580   -3.7560   -1.2730 O   0  0  0  0  0  0  0  0  0  0  0  0
    1.9890   -5.3590   -2.7780 O   0  0  0  0  0  0  0  0  0  0  0  0
    2.4890   -3.0040   -6.1790 H   0  0  0  0  0  0  0  0  0  0  0  0
    1.5290   -1.5150   -6.2820 H   0  0  0  0  0  0  0  0  0  0  0  0
    0.7160   -3.1770   -6.3130 H   0  0  0  0  0  0  0  0  0  0  0  0
    2.4410   -2.9920   -3.9560 H   0  0  0  0  0  0  0  0  0  0  0  0
    1.4850   -1.5090   -4.0140 H   0  0  0  0  0  0  0  0  0  0  0  0
    0.3810   -4.3620   -4.2990 H   0  0  0  0  0  0  0  0  0  0  0  0
   -1.8050   -3.1970   -3.7380 H   0  0  0  0  0  0  0  0  0  0  0  0
   -0.9950   -1.6420   -4.0990 H   0  0  0  0  0  0  0  0  0  0  0  0
   -1.0780   -2.8510   -5.3940 H   0  0  0  0  0  0  0  0  0  0  0  0
   -0.3110   -4.2390   -1.9450 H   0  0  0  0  0  0  0  0  0  0  0  0
    0.4170   -1.4160   -2.1150 H   0  0  0  0  0  0  0  0  0  0  0  0
  1  9  1  0  0  0  0
  2  3  2  0  0  0  0
  2  1  1  0  0  0  0
  4  2  1  0  0  0  0
  5  6  1  0  0  0  0
  5 13  1  1  0  0  0
  5  4  1  0  0  0  0
  6 15  1  0  0  0  0
  7  5  1  0  0  0  0
  8  7  2  0  0  0  0
 10  1  1  0  0  0  0
 11  4  1  0  0  0  0
 12  4  1  0  0  0  0
 14  6  1  0  0  0  0
 16 30  1  0  0  0  0
 16  7  1  0  0  0  0
 17 31  1  6  0  0  0
 17 16  1  0  0  0  0
 18 33  1  0  0  0  0
 18 17  1  0  0  0  0
 18 19  1  0  0  0  0
 19 20  2  0  0  0  0
 20 21  1  0  0  0  0
 20 34  1  0  0  0  0
 21 35  1  0  0  0  0
 22 23  1  0  0  0  0
 22 21  1  0  0  0  0
 23 36  1  0  0  0  0
 24 23  2  0  0  0  0
 25 26  2  0  0  0  0
 25 24  1  0  0  0  0
 26 27  1  0  0  0  0
 27 19  1  0  0  0  0
 27 22  2  0  0  0  0
 28 29  2  0  0  0  0
 28 17  1  0  0  0  0
 32 18  1  0  0  0  0
 37 24  1  0  0  0  0
 38 25  1  0  0  0  0
 39 26  1  0  0  0  0
 40 41  1  0  0  0  0
 41 53  1  0  0  0  0
 41 52  1  0  0  0  0
 41 42  1  0  0  0  0
 42 54  1  6  0  0  0
 42 44  1  0  0  0  0
 43 56  1  0  0  0  0
 43 42  1  0  0  0  0
 43 55  1  0  0  0  0
 44 46  1  0  0  0  0
 44 58  1  1  0  0  0
 44 45  1  0  0  0  0
 45 28  1  0  0  0  0
 46 47  1  0  0  0  0
 48 46  2  0  0  0  0
 49 40  1  0  0  0  0
 50 40  1  0  0  0  0
 51 40  1  0  0  0  0
 57 43  1  0  0  0  0
 59 45  1  0  0  0  0
M  END
$$$$
