NWK.pdb
 OpenBabel07022418113D

 61 62  0  0  1  0  0  0  0  0999 V2000
    6.0930   -0.3670    4.0290 N   0  0  0  0  0  0  0  0  0  0  0  0
    5.3150    0.1560    2.9630 C   0  0  0  0  0  0  0  0  0  0  0  0
    5.6170    1.2570    2.4590 O   0  0  0  0  0  0  0  0  0  0  0  0
    4.1390   -0.5700    2.4170 C   0  0  0  0  0  0  0  0  0  0  0  0
    3.4890    0.2110    1.2900 C   0  0  2  0  0  0  0  0  0  0  0  0
    3.0670    1.4740    1.8110 N   0  0  0  0  0  0  0  0  0  0  0  0
    2.3220   -0.6150    0.8190 C   0  0  0  0  0  0  0  0  0  0  0  0
    2.5930   -1.7590    0.3440 O   0  0  0  0  0  0  0  0  0  0  0  0
    6.9930   -0.9040    3.8760 H   0  0  0  0  0  0  0  0  0  0  0  0
    5.8120   -0.2450    5.0330 H   0  0  0  0  0  0  0  0  0  0  0  0
    3.4410   -0.7290    3.2600 H   0  0  0  0  0  0  0  0  0  0  0  0
    4.4260   -1.5700    2.0460 H   0  0  0  0  0  0  0  0  0  0  0  0
    4.2130    0.3850    0.4910 H   0  0  0  0  0  0  0  0  0  0  0  0
    2.4040    1.3840    2.6220 H   0  0  0  0  0  0  0  0  0  0  0  0
    2.7510    2.1580    1.0910 H   0  0  0  0  0  0  0  0  0  0  0  0
    0.9900   -0.1560    0.8950 N   0  0  0  0  0  0  0  0  0  0  0  0
   -0.0920   -0.9830    0.4330 C   0  0  1  0  0  0  0  0  0  0  0  0
   -1.0150   -1.4870    1.4730 C   0  0  0  0  0  0  0  0  0  0  0  0
   -1.7320   -0.5220    2.2940 C   0  0  0  0  0  0  0  0  0  0  0  0
   -3.0240   -0.0550    2.2010 C   0  0  0  0  0  0  0  0  0  0  0  0
   -3.2220    0.8300    3.1650 N   0  0  0  0  0  0  0  0  0  0  0  0
   -2.1020    0.9720    3.9040 C   0  0  0  0  0  0  0  0  0  0  0  0
   -1.8090    1.7430    4.9920 C   0  0  0  0  0  0  0  0  0  0  0  0
   -0.5480    1.6940    5.5870 C   0  0  0  0  0  0  0  0  0  0  0  0
    0.4310    0.8560    5.0800 C   0  0  0  0  0  0  0  0  0  0  0  0
    0.1000    0.0940    3.9830 C   0  0  0  0  0  0  0  0  0  0  0  0
   -1.1620    0.1320    3.3720 C   0  0  0  0  0  0  0  0  0  0  0  0
   -0.7460   -0.4180   -0.7780 C   0  0  0  0  0  0  0  0  0  0  0  0
   -0.3050    0.6640   -1.2390 O   0  0  0  0  0  0  0  0  0  0  0  0
    0.8550    0.8030    1.2960 H   0  0  0  0  0  0  0  0  0  0  0  0
    0.4140   -1.9320    0.0320 H   0  0  0  0  0  0  0  0  0  0  0  0
   -1.7680   -2.1410    0.9820 H   0  0  0  0  0  0  0  0  0  0  0  0
   -0.4280   -2.1850    2.1300 H   0  0  0  0  0  0  0  0  0  0  0  0
   -3.7200   -0.3960    1.4460 H   0  0  0  0  0  0  0  0  0  0  0  0
   -4.1240    1.3660    3.3510 H   0  0  0  0  0  0  0  0  0  0  0  0
   -2.5780    2.3970    5.3850 H   0  0  0  0  0  0  0  0  0  0  0  0
   -0.3220    2.3040    6.4450 H   0  0  0  0  0  0  0  0  0  0  0  0
    1.4150    0.8070    5.5310 H   0  0  0  0  0  0  0  0  0  0  0  0
    0.8490   -0.5660    3.5890 H   0  0  0  0  0  0  0  0  0  0  0  0
   -1.8400   -1.0200   -1.4580 N   0  0  0  0  0  0  0  0  0  0  0  0
   -2.4380   -0.4470   -2.6380 C   0  0  1  0  0  0  0  0  0  0  0  0
   -2.5780   -1.3610   -3.8090 C   0  0  0  0  0  0  0  0  0  0  0  0
   -1.3450   -1.9490   -4.3750 C   0  0  0  0  0  0  0  0  0  0  0  0
   -0.5450   -2.8350   -3.4870 C   0  0  0  0  0  0  0  0  0  0  0  0
   -1.3170   -4.0470   -3.0070 C   0  0  0  0  0  0  0  0  0  0  0  0
   -1.7510   -4.8610   -4.1460 N   0  0  0  0  0  0  0  0  0  0  0  0
   -3.7370    0.2290   -2.3400 C   0  0  0  0  0  0  0  0  0  0  0  0
   -4.3520    0.7670   -3.2960 O   0  0  0  0  0  0  0  0  0  0  0  0
   -4.3210    0.3130   -1.1010 O   0  0  0  0  0  0  0  0  0  0  0  0
   -2.1780   -1.9130   -1.0230 H   0  0  0  0  0  0  0  0  0  0  0  0
   -1.7690    0.4090   -2.9540 H   0  0  0  0  0  0  0  0  0  0  0  0
   -3.2460   -0.9070   -4.5830 H   0  0  0  0  0  0  0  0  0  0  0  0
   -3.2020   -2.2400   -3.4380 H   0  0  0  0  0  0  0  0  0  0  0  0
   -1.6620   -2.5960   -5.2520 H   0  0  0  0  0  0  0  0  0  0  0  0
   -0.6420   -1.1710   -4.7720 H   0  0  0  0  0  0  0  0  0  0  0  0
    0.2680   -3.2770   -4.1550 H   0  0  0  0  0  0  0  0  0  0  0  0
    0.0000   -2.3680   -2.6750 H   0  0  0  0  0  0  0  0  0  0  0  0
   -2.2100   -3.8220   -2.4280 H   0  0  0  0  0  0  0  0  0  0  0  0
   -0.6330   -4.6850   -2.4150 H   0  0  0  0  0  0  0  0  0  0  0  0
   -2.6620   -4.4810   -4.4760 H   0  0  0  0  0  0  0  0  0  0  0  0
   -1.9450   -5.8460   -3.8320 H   0  0  0  0  0  0  0  0  0  0  0  0
  1 10  1  0  0  0  0
  2  1  1  0  0  0  0
  3  2  2  0  0  0  0
  4  2  1  0  0  0  0
  4 11  1  0  0  0  0
  5 13  1  6  0  0  0
  5  6  1  0  0  0  0
  5  4  1  0  0  0  0
  6 14  1  0  0  0  0
  7 16  1  0  0  0  0
  7  5  1  0  0  0  0
  8  7  2  0  0  0  0
  9  1  1  0  0  0  0
 12  4  1  0  0  0  0
 15  6  1  0  0  0  0
 16 30  1  0  0  0  0
 17 31  1  6  0  0  0
 17 16  1  0  0  0  0
 17 18  1  0  0  0  0
 18 33  1  0  0  0  0
 18 19  1  0  0  0  0
 19 27  1  0  0  0  0
 20 19  2  0  0  0  0
 20 21  1  0  0  0  0
 21 35  1  0  0  0  0
 21 22  1  0  0  0  0
 22 23  1  0  0  0  0
 23 36  1  0  0  0  0
 23 24  2  0  0  0  0
 24 37  1  0  0  0  0
 25 38  1  0  0  0  0
 25 24  1  0  0  0  0
 26 25  2  0  0  0  0
 27 22  2  0  0  0  0
 27 26  1  0  0  0  0
 28 17  1  0  0  0  0
 29 28  2  0  0  0  0
 32 18  1  0  0  0  0
 34 20  1  0  0  0  0
 39 26  1  0  0  0  0
 40 50  1  0  0  0  0
 40 28  1  0  0  0  0
 41 51  1  6  0  0  0
 41 47  1  0  0  0  0
 41 40  1  0  0  0  0
 42 53  1  0  0  0  0
 42 41  1  0  0  0  0
 43 42  1  0  0  0  0
 43 44  1  0  0  0  0
 44 45  1  0  0  0  0
 44 57  1  0  0  0  0
 45 58  1  0  0  0  0
 45 59  1  0  0  0  0
 46 61  1  0  0  0  0
 46 45  1  0  0  0  0
 47 49  1  0  0  0  0
 48 47  2  0  0  0  0
 52 42  1  0  0  0  0
 54 43  1  0  0  0  0
 55 43  1  0  0  0  0
 56 44  1  0  0  0  0
 60 46  1  0  0  0  0
M  END
$$$$
