NWL.pdb
 OpenBabel07022418113D

 59 60  0  0  1  0  0  0  0  0999 V2000
    3.6000   -4.5880    3.6080 N   0  0  0  0  0  0  0  0  0  0  0  0
    3.8330   -3.1960    3.6150 C   0  0  0  0  0  0  0  0  0  0  0  0
    4.9190   -2.7580    4.0400 O   0  0  0  0  0  0  0  0  0  0  0  0
    2.8030   -2.2780    3.1270 C   0  0  0  0  0  0  0  0  0  0  0  0
    3.2110   -0.8260    3.2160 C   0  0  2  0  0  0  0  0  0  0  0  0
    3.4950   -0.4030    4.5470 N   0  0  0  0  0  0  0  0  0  0  0  0
    2.0820    0.0320    2.6970 C   0  0  0  0  0  0  0  0  0  0  0  0
    1.5690    0.9260    3.4300 O   0  0  0  0  0  0  0  0  0  0  0  0
    4.1600   -5.1630    2.9200 H   0  0  0  0  0  0  0  0  0  0  0  0
    2.9360   -5.0920    4.2110 H   0  0  0  0  0  0  0  0  0  0  0  0
    1.8670   -2.4090    3.7390 H   0  0  0  0  0  0  0  0  0  0  0  0
    2.5160   -2.5370    2.0910 H   0  0  0  0  0  0  0  0  0  0  0  0
    4.0420   -0.6710    2.5080 H   0  0  0  0  0  0  0  0  0  0  0  0
    2.6770   -0.4360    5.1640 H   0  0  0  0  0  0  0  0  0  0  0  0
    4.4010   -0.6730    4.9400 H   0  0  0  0  0  0  0  0  0  0  0  0
    1.5710   -0.1340    1.3970 N   0  0  0  0  0  0  0  0  0  0  0  0
    0.4780    0.7250    0.9510 C   0  0  1  0  0  0  0  0  0  0  0  0
    0.9130    1.5930   -0.1860 C   0  0  0  0  0  0  0  0  0  0  0  0
   -0.1630    2.4680   -0.6830 C   0  0  0  0  0  0  0  0  0  0  0  0
   -0.4360    3.7760   -0.2340 C   0  0  0  0  0  0  0  0  0  0  0  0
   -1.4940    4.2450   -0.8730 N   0  0  0  0  0  0  0  0  0  0  0  0
   -1.9830    3.3450   -1.7480 C   0  0  0  0  0  0  0  0  0  0  0  0
   -3.0440    3.4020   -2.6290 C   0  0  0  0  0  0  0  0  0  0  0  0
   -3.3170    2.3260   -3.4450 C   0  0  0  0  0  0  0  0  0  0  0  0
   -2.4980    1.2240   -3.3350 C   0  0  0  0  0  0  0  0  0  0  0  0
   -1.4410    1.1750   -2.4530 C   0  0  0  0  0  0  0  0  0  0  0  0
   -1.1540    2.2490   -1.6250 C   0  0  0  0  0  0  0  0  0  0  0  0
   -0.7220   -0.0920    0.7740 C   0  0  0  0  0  0  0  0  0  0  0  0
   -1.8720    0.3370    0.4840 O   0  0  0  0  0  0  0  0  0  0  0  0
    1.9510   -0.8490    0.7430 H   0  0  0  0  0  0  0  0  0  0  0  0
    0.2200    1.4620    1.7870 H   0  0  0  0  0  0  0  0  0  0  0  0
    1.3390    0.9520   -0.9990 H   0  0  0  0  0  0  0  0  0  0  0  0
    1.7100    2.2620    0.2320 H   0  0  0  0  0  0  0  0  0  0  0  0
    0.1730    4.2530    0.5220 H   0  0  0  0  0  0  0  0  0  0  0  0
   -1.9030    5.2080   -0.7160 H   0  0  0  0  0  0  0  0  0  0  0  0
   -3.6910    4.2620   -2.7200 H   0  0  0  0  0  0  0  0  0  0  0  0
   -4.1340    2.3140   -4.1540 H   0  0  0  0  0  0  0  0  0  0  0  0
   -2.6840    0.3570   -3.9640 H   0  0  0  0  0  0  0  0  0  0  0  0
   -0.7950    0.3190   -2.3620 H   0  0  0  0  0  0  0  0  0  0  0  0
    0.2360   -2.7300   -1.5570 C   0  0  0  0  0  0  0  0  0  0  0  0
   -1.0820   -3.4510   -1.4110 C   0  0  0  0  0  0  0  0  0  0  0  0
   -2.1380   -2.8650   -2.3240 C   0  0  0  0  0  0  0  0  0  0  0  0
   -1.5470   -3.6250   -0.0130 C   0  0  0  0  0  0  0  0  0  0  0  0
   -1.7840   -2.3840    0.7780 C   0  0  2  0  0  0  0  0  0  0  0  0
   -0.6380   -1.5320    0.9390 N   0  0  0  0  0  0  0  0  0  0  0  0
   -2.2120   -2.8170    2.1320 C   0  0  0  0  0  0  0  0  0  0  0  0
   -1.5940   -2.4310    3.1350 O   0  0  0  0  0  0  0  0  0  0  0  0
   -3.2980   -3.6490    2.2770 O   0  0  0  0  0  0  0  0  0  0  0  0
    0.6220   -3.0020   -2.5730 H   0  0  0  0  0  0  0  0  0  0  0  0
    0.9730   -3.2040   -0.8500 H   0  0  0  0  0  0  0  0  0  0  0  0
    0.1930   -1.6500   -1.4660 H   0  0  0  0  0  0  0  0  0  0  0  0
   -0.8970   -4.4940   -1.8080 H   0  0  0  0  0  0  0  0  0  0  0  0
   -1.6950   -2.8650   -3.3540 H   0  0  0  0  0  0  0  0  0  0  0  0
   -2.9900   -3.5590   -2.3660 H   0  0  0  0  0  0  0  0  0  0  0  0
   -2.3980   -1.8340   -2.0960 H   0  0  0  0  0  0  0  0  0  0  0  0
   -0.7430   -4.1960    0.5250 H   0  0  0  0  0  0  0  0  0  0  0  0
   -2.4240   -4.2890   -0.0020 H   0  0  0  0  0  0  0  0  0  0  0  0
   -2.6050   -1.7390    0.3970 H   0  0  0  0  0  0  0  0  0  0  0  0
    0.2850   -1.9170    1.1780 H   0  0  0  0  0  0  0  0  0  0  0  0
  1  2  1  0  0  0  0
  1 10  1  0  0  0  0
  2  3  2  0  0  0  0
  4  5  1  0  0  0  0
  4  2  1  0  0  0  0
  4 11  1  0  0  0  0
  5 13  1  6  0  0  0
  5  6  1  0  0  0  0
  6 15  1  0  0  0  0
  6 14  1  0  0  0  0
  7  5  1  0  0  0  0
  7  8  2  0  0  0  0
  9  1  1  0  0  0  0
 12  4  1  0  0  0  0
 16  7  1  0  0  0  0
 17 16  1  0  0  0  0
 17 31  1  1  0  0  0
 18 33  1  0  0  0  0
 18 17  1  0  0  0  0
 19 20  2  0  0  0  0
 19 18  1  0  0  0  0
 20 34  1  0  0  0  0
 21 35  1  0  0  0  0
 21 20  1  0  0  0  0
 22 27  1  0  0  0  0
 22 21  1  0  0  0  0
 23 22  2  0  0  0  0
 24 25  2  0  0  0  0
 24 23  1  0  0  0  0
 25 26  1  0  0  0  0
 26 39  1  0  0  0  0
 26 27  2  0  0  0  0
 27 19  1  0  0  0  0
 28 45  1  0  0  0  0
 28 17  1  0  0  0  0
 29 28  2  0  0  0  0
 30 16  1  0  0  0  0
 32 18  1  0  0  0  0
 36 23  1  0  0  0  0
 37 24  1  0  0  0  0
 38 25  1  0  0  0  0
 40 51  1  0  0  0  0
 40 41  1  0  0  0  0
 40 50  1  0  0  0  0
 41 43  1  0  0  0  0
 42 55  1  0  0  0  0
 42 41  1  0  0  0  0
 43 57  1  0  0  0  0
 43 56  1  0  0  0  0
 43 44  1  0  0  0  0
 44 58  1  6  0  0  0
 44 45  1  0  0  0  0
 44 46  1  0  0  0  0
 45 59  1  0  0  0  0
 46 48  2  0  0  0  0
 46 47  1  0  0  0  0
 49 40  1  0  0  0  0
 52 41  1  0  0  0  0
 53 42  1  0  0  0  0
 54 42  1  0  0  0  0
M  END
$$$$
