NWM.pdb
 OpenBabel07022418113D

 57 58  0  0  1  0  0  0  0  0999 V2000
    2.5960    2.5190    5.0070 N   0  0  0  0  0  0  0  0  0  0  0  0
    2.7490    1.3620    4.1860 C   0  0  0  0  0  0  0  0  0  0  0  0
    2.2410    0.3080    4.6630 O   0  0  0  0  0  0  0  0  0  0  0  0
    3.4470    1.4110    2.8870 C   0  0  0  0  0  0  0  0  0  0  0  0
    3.3090    0.1190    2.1560 C   0  0  2  0  0  0  0  0  0  0  0  0
    4.0780    0.2300    0.8940 N   0  0  0  0  0  0  0  0  0  0  0  0
    1.9180   -0.2680    1.8120 C   0  0  0  0  0  0  0  0  0  0  0  0
    1.0410   -0.5060    2.6550 O   0  0  0  0  0  0  0  0  0  0  0  0
    3.3200    2.7500    5.6960 H   0  0  0  0  0  0  0  0  0  0  0  0
    1.7610    3.1060    4.8950 H   0  0  0  0  0  0  0  0  0  0  0  0
    4.5280    1.5580    3.1060 H   0  0  0  0  0  0  0  0  0  0  0  0
    3.0510    2.2810    2.2830 H   0  0  0  0  0  0  0  0  0  0  0  0
    3.7610   -0.6910    2.7300 H   0  0  0  0  0  0  0  0  0  0  0  0
    4.1270    1.2350    0.5900 H   0  0  0  0  0  0  0  0  0  0  0  0
    5.0580   -0.0510    1.1140 H   0  0  0  0  0  0  0  0  0  0  0  0
    1.4880   -0.3950    0.4490 N   0  0  0  0  0  0  0  0  0  0  0  0
    0.1700   -0.7610    0.0380 C   0  0  1  0  0  0  0  0  0  0  0  0
   -0.4720    0.4540   -0.6310 C   0  0  0  0  0  0  0  0  0  0  0  0
   -0.5520    1.6070    0.2970 C   0  0  0  0  0  0  0  0  0  0  0  0
    0.2310    2.7450    0.3310 C   0  0  0  0  0  0  0  0  0  0  0  0
   -0.1840    3.5470    1.3410 N   0  0  0  0  0  0  0  0  0  0  0  0
   -1.2140    2.9760    1.9720 C   0  0  0  0  0  0  0  0  0  0  0  0
   -1.9760    3.3910    3.0540 C   0  0  0  0  0  0  0  0  0  0  0  0
   -2.9780    2.5290    3.4470 C   0  0  0  0  0  0  0  0  0  0  0  0
   -3.2480    1.3330    2.8480 C   0  0  0  0  0  0  0  0  0  0  0  0
   -2.4810    0.9370    1.7740 C   0  0  0  0  0  0  0  0  0  0  0  0
   -1.4600    1.7600    1.3340 C   0  0  0  0  0  0  0  0  0  0  0  0
    0.0850   -1.9570   -0.7780 C   0  0  0  0  0  0  0  0  0  0  0  0
    1.1110   -2.6010   -1.0820 O   0  0  0  0  0  0  0  0  0  0  0  0
    2.1990   -0.2020   -0.2860 H   0  0  0  0  0  0  0  0  0  0  0  0
   -0.4310   -0.9220    0.9820 H   0  0  0  0  0  0  0  0  0  0  0  0
   -1.4960    0.1320   -0.9190 H   0  0  0  0  0  0  0  0  0  0  0  0
    0.0570    0.6990   -1.5560 H   0  0  0  0  0  0  0  0  0  0  0  0
    1.0370    2.9350   -0.3520 H   0  0  0  0  0  0  0  0  0  0  0  0
    0.2320    4.4690    1.5910 H   0  0  0  0  0  0  0  0  0  0  0  0
   -1.7680    4.3370    3.5340 H   0  0  0  0  0  0  0  0  0  0  0  0
   -3.5870    2.8320    4.2890 H   0  0  0  0  0  0  0  0  0  0  0  0
   -4.0570    0.6710    3.1890 H   0  0  0  0  0  0  0  0  0  0  0  0
   -2.6550   -0.0120    1.2560 H   0  0  0  0  0  0  0  0  0  0  0  0
    0.4260   -6.3210   -3.1080 C   0  0  0  0  0  0  0  0  0  0  0  0
   -0.9700   -6.9000   -2.1750 S   0  0  0  0  0  0  0  0  0  0  0  0
   -2.4180   -5.8610   -2.1850 C   0  0  0  0  0  0  0  0  0  0  0  0
   -2.2550   -4.5490   -1.4930 C   0  0  0  0  0  0  0  0  0  0  0  0
   -1.2210   -3.6270   -2.0720 C   0  0  2  0  0  0  0  0  0  0  0  0
   -1.1720   -2.4070   -1.2420 N   0  0  0  0  0  0  0  0  0  0  0  0
   -1.7360   -3.1750   -3.4160 C   0  0  0  0  0  0  0  0  0  0  0  0
   -1.8690   -3.9920   -4.3450 O   0  0  0  0  0  0  0  0  0  0  0  0
   -2.0750   -1.8480   -3.6650 O   0  0  0  0  0  0  0  0  0  0  0  0
    0.9390   -7.2450   -3.5400 H   0  0  0  0  0  0  0  0  0  0  0  0
    1.2170   -5.9120   -2.4250 H   0  0  0  0  0  0  0  0  0  0  0  0
    0.2140   -5.6480   -3.9530 H   0  0  0  0  0  0  0  0  0  0  0  0
   -2.8330   -5.6760   -3.1990 H   0  0  0  0  0  0  0  0  0  0  0  0
   -3.2470   -6.4070   -1.6130 H   0  0  0  0  0  0  0  0  0  0  0  0
   -3.2540   -4.0220   -1.4050 H   0  0  0  0  0  0  0  0  0  0  0  0
   -1.9710   -4.7450   -0.4320 H   0  0  0  0  0  0  0  0  0  0  0  0
   -0.2360   -4.0530   -2.2330 H   0  0  0  0  0  0  0  0  0  0  0  0
   -2.0770   -1.9300   -1.0360 H   0  0  0  0  0  0  0  0  0  0  0  0
  1  9  1  0  0  0  0
  2  3  2  0  0  0  0
  2  1  1  0  0  0  0
  4 11  1  0  0  0  0
  4  2  1  0  0  0  0
  5 13  1  1  0  0  0
  5  4  1  0  0  0  0
  6 15  1  0  0  0  0
  6  5  1  0  0  0  0
  7  5  1  0  0  0  0
  7  8  2  0  0  0  0
 10  1  1  0  0  0  0
 12  4  1  0  0  0  0
 14  6  1  0  0  0  0
 16  7  1  0  0  0  0
 17 16  1  0  0  0  0
 17 31  1  1  0  0  0
 18 17  1  0  0  0  0
 18 19  1  0  0  0  0
 19 20  2  0  0  0  0
 19 27  1  0  0  0  0
 20 21  1  0  0  0  0
 21 35  1  0  0  0  0
 21 22  1  0  0  0  0
 22 23  1  0  0  0  0
 23 24  2  0  0  0  0
 23 36  1  0  0  0  0
 24 37  1  0  0  0  0
 25 38  1  0  0  0  0
 25 24  1  0  0  0  0
 26 25  2  0  0  0  0
 27 26  1  0  0  0  0
 27 22  2  0  0  0  0
 28 17  1  0  0  0  0
 29 28  2  0  0  0  0
 30 16  1  0  0  0  0
 32 18  1  0  0  0  0
 33 18  1  0  0  0  0
 34 20  1  0  0  0  0
 39 26  1  0  0  0  0
 40 50  1  0  0  0  0
 40 41  1  0  0  0  0
 42 41  1  0  0  0  0
 42 53  1  0  0  0  0
 42 43  1  0  0  0  0
 43 54  1  0  0  0  0
 43 55  1  0  0  0  0
 44 56  1  6  0  0  0
 44 43  1  0  0  0  0
 44 45  1  0  0  0  0
 45 57  1  0  0  0  0
 45 28  1  0  0  0  0
 46 44  1  0  0  0  0
 47 46  2  0  0  0  0
 48 46  1  0  0  0  0
 49 40  1  0  0  0  0
 51 40  1  0  0  0  0
 52 42  1  0  0  0  0
M  END
$$$$
