NWN.pdb
 OpenBabel07022418113D

 54 55  0  0  1  0  0  0  0  0999 V2000
    3.2030   -5.1450    3.5790 N   0  0  0  0  0  0  0  0  0  0  0  0
    3.5810   -3.7840    3.4830 C   0  0  0  0  0  0  0  0  0  0  0  0
    4.7500   -3.4680    3.8030 O   0  0  0  0  0  0  0  0  0  0  0  0
    2.5920   -2.8000    3.0150 C   0  0  0  0  0  0  0  0  0  0  0  0
    3.1580   -1.3940    3.0030 C   0  0  2  0  0  0  0  0  0  0  0  0
    3.5490   -1.0780    4.3700 N   0  0  0  0  0  0  0  0  0  0  0  0
    2.1230   -0.3920    2.5930 C   0  0  0  0  0  0  0  0  0  0  0  0
    1.7300    0.5050    3.4060 O   0  0  0  0  0  0  0  0  0  0  0  0
    2.8560   -5.5940    4.4510 H   0  0  0  0  0  0  0  0  0  0  0  0
    3.2820   -5.7240    2.7160 H   0  0  0  0  0  0  0  0  0  0  0  0
    1.7200   -2.7670    3.7130 H   0  0  0  0  0  0  0  0  0  0  0  0
    2.2040   -3.0970    2.0150 H   0  0  0  0  0  0  0  0  0  0  0  0
    4.0480   -1.3700    2.3450 H   0  0  0  0  0  0  0  0  0  0  0  0
    3.6310   -0.0270    4.5010 H   0  0  0  0  0  0  0  0  0  0  0  0
    2.8360   -1.3860    5.0610 H   0  0  0  0  0  0  0  0  0  0  0  0
    1.5420   -0.3910    1.3070 N   0  0  0  0  0  0  0  0  0  0  0  0
    0.5400    0.5850    0.9120 C   0  0  1  0  0  0  0  0  0  0  0  0
    1.0770    1.5670   -0.0760 C   0  0  0  0  0  0  0  0  0  0  0  0
    0.0730    2.5490   -0.5160 C   0  0  0  0  0  0  0  0  0  0  0  0
   -0.2200    3.7860    0.0830 C   0  0  0  0  0  0  0  0  0  0  0  0
   -1.2310    4.3800   -0.5720 N   0  0  0  0  0  0  0  0  0  0  0  0
   -1.6350    3.5940   -1.5930 C   0  0  0  0  0  0  0  0  0  0  0  0
   -2.6240    3.8120   -2.5350 C   0  0  0  0  0  0  0  0  0  0  0  0
   -2.8130    2.8410   -3.4950 C   0  0  0  0  0  0  0  0  0  0  0  0
   -2.0240    1.6870   -3.5000 C   0  0  0  0  0  0  0  0  0  0  0  0
   -1.0550    1.5170   -2.5440 C   0  0  0  0  0  0  0  0  0  0  0  0
   -0.8400    2.4710   -1.5650 C   0  0  0  0  0  0  0  0  0  0  0  0
   -0.7500   -0.0420    0.6430 C   0  0  0  0  0  0  0  0  0  0  0  0
   -1.8040    0.5420    0.3010 O   0  0  0  0  0  0  0  0  0  0  0  0
    1.8340   -1.1180    0.5920 H   0  0  0  0  0  0  0  0  0  0  0  0
    0.3740    1.2320    1.8590 H   0  0  0  0  0  0  0  0  0  0  0  0
    1.4400    1.0310   -0.9910 H   0  0  0  0  0  0  0  0  0  0  0  0
    1.9180    2.1350    0.3980 H   0  0  0  0  0  0  0  0  0  0  0  0
    0.3190    4.1680    0.9490 H   0  0  0  0  0  0  0  0  0  0  0  0
   -1.6410    5.3130   -0.3240 H   0  0  0  0  0  0  0  0  0  0  0  0
   -3.2580    4.6830   -2.5740 H   0  0  0  0  0  0  0  0  0  0  0  0
   -3.5610    2.9150   -4.2780 H   0  0  0  0  0  0  0  0  0  0  0  0
   -2.1560    0.9140   -4.2460 H   0  0  0  0  0  0  0  0  0  0  0  0
   -0.4130    0.6560   -2.4980 H   0  0  0  0  0  0  0  0  0  0  0  0
   -1.3610   -4.1080   -2.6570 N   0  0  0  0  0  0  0  0  0  0  0  0
   -1.5070   -3.0620   -1.7240 C   0  0  0  0  0  0  0  0  0  0  0  0
   -1.2050   -1.9020   -2.0470 O   0  0  0  0  0  0  0  0  0  0  0  0
   -2.0140   -3.3460   -0.3730 C   0  0  0  0  0  0  0  0  0  0  0  0
   -2.1280   -2.1680    0.5250 C   0  0  2  0  0  0  0  0  0  0  0  0
   -0.8880   -1.4790    0.7700 N   0  0  0  0  0  0  0  0  0  0  0  0
   -2.7550   -2.6320    1.7940 C   0  0  0  0  0  0  0  0  0  0  0  0
   -2.1750   -2.3880    2.8710 O   0  0  0  0  0  0  0  0  0  0  0  0
   -3.9490   -3.3210    1.8130 O   0  0  0  0  0  0  0  0  0  0  0  0
   -0.6620   -3.9910   -3.4460 H   0  0  0  0  0  0  0  0  0  0  0  0
   -1.9150   -4.9840   -2.5950 H   0  0  0  0  0  0  0  0  0  0  0  0
   -1.4320   -4.1550    0.1340 H   0  0  0  0  0  0  0  0  0  0  0  0
   -3.0410   -3.7820   -0.5160 H   0  0  0  0  0  0  0  0  0  0  0  0
   -2.8110   -1.4080    0.0430 H   0  0  0  0  0  0  0  0  0  0  0  0
   -0.0760   -2.0780    1.0510 H   0  0  0  0  0  0  0  0  0  0  0  0
  1  9  1  0  0  0  0
  2  1  1  0  0  0  0
  2  3  2  0  0  0  0
  4  2  1  0  0  0  0
  4 11  1  0  0  0  0
  5 13  1  6  0  0  0
  5  4  1  0  0  0  0
  5  6  1  0  0  0  0
  6 14  1  0  0  0  0
  6 15  1  0  0  0  0
  7  5  1  0  0  0  0
  7  8  2  0  0  0  0
 10  1  1  0  0  0  0
 12  4  1  0  0  0  0
 16  7  1  0  0  0  0
 17 16  1  0  0  0  0
 17 31  1  1  0  0  0
 18 33  1  0  0  0  0
 18 17  1  0  0  0  0
 19 18  1  0  0  0  0
 19 20  2  0  0  0  0
 20 34  1  0  0  0  0
 21 35  1  0  0  0  0
 21 20  1  0  0  0  0
 22 27  1  0  0  0  0
 22 21  1  0  0  0  0
 23 22  2  0  0  0  0
 24 23  1  0  0  0  0
 25 24  2  0  0  0  0
 25 26  1  0  0  0  0
 26 39  1  0  0  0  0
 26 27  2  0  0  0  0
 27 19  1  0  0  0  0
 28 45  1  0  0  0  0
 28 17  1  0  0  0  0
 29 28  2  0  0  0  0
 30 16  1  0  0  0  0
 32 18  1  0  0  0  0
 36 23  1  0  0  0  0
 37 24  1  0  0  0  0
 38 25  1  0  0  0  0
 40 50  1  0  0  0  0
 40 41  1  0  0  0  0
 41 43  1  0  0  0  0
 42 41  2  0  0  0  0
 43 51  1  0  0  0  0
 43 44  1  0  0  0  0
 44 53  1  6  0  0  0
 44 45  1  0  0  0  0
 44 46  1  0  0  0  0
 45 54  1  0  0  0  0
 46 48  2  0  0  0  0
 46 47  1  0  0  0  0
 49 40  1  0  0  0  0
 52 43  1  0  0  0  0
M  END
$$$$
