NWP.pdb
 OpenBabel07022418113D

 54 56  0  0  1  0  0  0  0  0999 V2000
    2.5310    0.2640    5.5020 N   0  0  0  0  0  0  0  0  0  0  0  0
    2.7050   -0.4840    4.2960 C   0  0  0  0  0  0  0  0  0  0  0  0
    2.2820   -1.6580    4.3290 O   0  0  0  0  0  0  0  0  0  0  0  0
    3.3300    0.0750    3.1080 C   0  0  0  0  0  0  0  0  0  0  0  0
    3.2860   -0.8620    1.9410 C   0  0  2  0  0  0  0  0  0  0  0  0
    3.9700   -0.2250    0.7950 N   0  0  0  0  0  0  0  0  0  0  0  0
    1.8880   -1.1500    1.4940 C   0  0  0  0  0  0  0  0  0  0  0  0
    1.0310   -1.7650    2.1360 O   0  0  0  0  0  0  0  0  0  0  0  0
    1.6310    0.2960    6.0090 H   0  0  0  0  0  0  0  0  0  0  0  0
    3.3370    0.7880    5.8740 H   0  0  0  0  0  0  0  0  0  0  0  0
    2.8990    1.0560    2.8150 H   0  0  0  0  0  0  0  0  0  0  0  0
    4.4220    0.2410    3.3230 H   0  0  0  0  0  0  0  0  0  0  0  0
    3.8640   -1.7620    2.1840 H   0  0  0  0  0  0  0  0  0  0  0  0
    4.8200    0.2190    1.2340 H   0  0  0  0  0  0  0  0  0  0  0  0
    4.2730   -0.9870    0.1400 H   0  0  0  0  0  0  0  0  0  0  0  0
    1.4510   -0.6850    0.1990 N   0  0  0  0  0  0  0  0  0  0  0  0
    0.1040   -0.9550   -0.2510 C   0  0  1  0  0  0  0  0  0  0  0  0
   -0.5740    0.4110   -0.3850 C   0  0  0  0  0  0  0  0  0  0  0  0
   -0.5960    1.1190    0.9110 C   0  0  0  0  0  0  0  0  0  0  0  0
    0.1760    2.1700    1.3570 C   0  0  0  0  0  0  0  0  0  0  0  0
   -0.2070    2.4800    2.6090 N   0  0  0  0  0  0  0  0  0  0  0  0
   -1.2120    1.6580    2.9940 C   0  0  0  0  0  0  0  0  0  0  0  0
   -1.9460    1.5700    4.1820 C   0  0  0  0  0  0  0  0  0  0  0  0
   -2.9340    0.6200    4.3080 C   0  0  0  0  0  0  0  0  0  0  0  0
   -3.1740   -0.2270    3.2490 C   0  0  0  0  0  0  0  0  0  0  0  0
   -2.4670   -0.1570    2.0800 C   0  0  0  0  0  0  0  0  0  0  0  0
   -1.4660    0.8020    1.9440 C   0  0  0  0  0  0  0  0  0  0  0  0
    0.2120   -1.6170   -1.5780 C   0  0  0  0  0  0  0  0  0  0  0  0
    1.3640   -1.8030   -2.0740 O   0  0  0  0  0  0  0  0  0  0  0  0
    2.0820   -0.1540   -0.4340 H   0  0  0  0  0  0  0  0  0  0  0  0
   -0.4740   -1.5320    0.4810 H   0  0  0  0  0  0  0  0  0  0  0  0
   -1.5920    0.3190   -0.7830 H   0  0  0  0  0  0  0  0  0  0  0  0
   -0.0160    1.0550   -1.1010 H   0  0  0  0  0  0  0  0  0  0  0  0
    0.9660    2.6560    0.7650 H   0  0  0  0  0  0  0  0  0  0  0  0
    0.1710    3.2260    3.2350 H   0  0  0  0  0  0  0  0  0  0  0  0
   -1.7230    2.2530    4.9810 H   0  0  0  0  0  0  0  0  0  0  0  0
   -3.5200    0.5360    5.2300 H   0  0  0  0  0  0  0  0  0  0  0  0
   -3.9530   -0.9940    3.3190 H   0  0  0  0  0  0  0  0  0  0  0  0
   -2.6260   -0.7980    1.2350 H   0  0  0  0  0  0  0  0  0  0  0  0
   -0.9040   -2.0540   -2.3160 N   0  0  0  0  0  0  0  0  0  0  0  0
   -2.3040   -1.9620   -1.9860 C   0  0  0  0  0  0  0  0  0  0  0  0
   -2.8330   -3.2990   -2.4390 C   0  0  0  0  0  0  0  0  0  0  0  0
   -2.0940   -3.5340   -3.7220 C   0  0  0  0  0  0  0  0  0  0  0  0
   -0.8340   -2.7090   -3.5950 C   0  0  1  0  0  0  0  0  0  0  0  0
   -0.8100   -1.7000   -4.6600 C   0  0  0  0  0  0  0  0  0  0  0  0
   -0.8330   -0.4840   -4.3580 O   0  0  0  0  0  0  0  0  0  0  0  0
   -0.7630   -2.1260   -5.9840 O   0  0  0  0  0  0  0  0  0  0  0  0
   -2.4340   -1.9250   -0.8730 H   0  0  0  0  0  0  0  0  0  0  0  0
   -2.8160   -1.1160   -2.4720 H   0  0  0  0  0  0  0  0  0  0  0  0
   -3.9210   -3.2560   -2.6820 H   0  0  0  0  0  0  0  0  0  0  0  0
   -2.6360   -4.1010   -1.7060 H   0  0  0  0  0  0  0  0  0  0  0  0
   -1.8570   -4.6330   -3.7660 H   0  0  0  0  0  0  0  0  0  0  0  0
   -2.6580   -3.2510   -4.6320 H   0  0  0  0  0  0  0  0  0  0  0  0
    0.0650   -3.3790   -3.6640 H   0  0  0  0  0  0  0  0  0  0  0  0
  1 10  1  0  0  0  0
  1  9  1  0  0  0  0
  2  3  2  0  0  0  0
  2  1  1  0  0  0  0
  4 12  1  0  0  0  0
  4  2  1  0  0  0  0
  5 13  1  1  0  0  0
  5  4  1  0  0  0  0
  6 14  1  0  0  0  0
  6  5  1  0  0  0  0
  7  5  1  0  0  0  0
  7  8  2  0  0  0  0
 11  4  1  0  0  0  0
 15  6  1  0  0  0  0
 16  7  1  0  0  0  0
 17 16  1  0  0  0  0
 17 31  1  1  0  0  0
 18 17  1  0  0  0  0
 18 19  1  0  0  0  0
 19 20  2  0  0  0  0
 19 27  1  0  0  0  0
 20 21  1  0  0  0  0
 21 22  1  0  0  0  0
 21 35  1  0  0  0  0
 22 23  1  0  0  0  0
 23 24  2  0  0  0  0
 23 36  1  0  0  0  0
 24 37  1  0  0  0  0
 25 38  1  0  0  0  0
 25 24  1  0  0  0  0
 26 25  2  0  0  0  0
 27 26  1  0  0  0  0
 27 22  2  0  0  0  0
 28 17  1  0  0  0  0
 29 28  2  0  0  0  0
 30 16  1  0  0  0  0
 32 18  1  0  0  0  0
 33 18  1  0  0  0  0
 34 20  1  0  0  0  0
 39 26  1  0  0  0  0
 40 41  1  0  0  0  0
 40 28  1  0  0  0  0
 41 48  1  0  0  0  0
 42 41  1  0  0  0  0
 42 51  1  0  0  0  0
 43 44  1  0  0  0  0
 43 42  1  0  0  0  0
 44 54  1  6  0  0  0
 44 40  1  0  0  0  0
 45 46  1  0  0  0  0
 45 44  1  0  0  0  0
 47 45  2  0  0  0  0
 49 41  1  0  0  0  0
 50 42  1  0  0  0  0
 52 43  1  0  0  0  0
 53 43  1  0  0  0  0
M  END
$$$$
