NWQ.pdb
 OpenBabel07022418113D

 57 58  0  0  1  0  0  0  0  0999 V2000
    0.5980   -2.4380    4.4290 N   0  0  0  0  0  0  0  0  0  0  0  0
    1.3320   -3.2090    3.5120 C   0  0  0  0  0  0  0  0  0  0  0  0
    0.9060   -4.3490    3.2120 O   0  0  0  0  0  0  0  0  0  0  0  0
    2.5740   -2.7230    2.8980 C   0  0  0  0  0  0  0  0  0  0  0  0
    2.8900   -1.3460    3.4220 C   0  0  2  0  0  0  0  0  0  0  0  0
    3.0490   -1.4260    4.8580 N   0  0  0  0  0  0  0  0  0  0  0  0
    1.7840   -0.4360    3.0400 C   0  0  0  0  0  0  0  0  0  0  0  0
    1.1670    0.1690    3.9710 O   0  0  0  0  0  0  0  0  0  0  0  0
   -0.3510   -2.1010    4.0930 H   0  0  0  0  0  0  0  0  0  0  0  0
    0.8680   -2.1660    5.3830 H   0  0  0  0  0  0  0  0  0  0  0  0
    3.4450   -3.3790    3.1500 H   0  0  0  0  0  0  0  0  0  0  0  0
    2.4650   -2.6200    1.7960 H   0  0  0  0  0  0  0  0  0  0  0  0
    3.8540   -0.9920    2.9520 H   0  0  0  0  0  0  0  0  0  0  0  0
    4.0250   -1.6490    5.1360 H   0  0  0  0  0  0  0  0  0  0  0  0
    2.6820   -0.5860    5.3570 H   0  0  0  0  0  0  0  0  0  0  0  0
    1.4330   -0.2530    1.6860 N   0  0  0  0  0  0  0  0  0  0  0  0
    0.3510    0.6350    1.2790 C   0  0  1  0  0  0  0  0  0  0  0  0
    0.9030    1.7930    0.5190 C   0  0  0  0  0  0  0  0  0  0  0  0
   -0.0690    2.7760    0.0100 C   0  0  0  0  0  0  0  0  0  0  0  0
   -0.4780    3.9600    0.6430 C   0  0  0  0  0  0  0  0  0  0  0  0
   -1.3930    4.5740   -0.1100 N   0  0  0  0  0  0  0  0  0  0  0  0
   -1.6330    3.8590   -1.2440 C   0  0  0  0  0  0  0  0  0  0  0  0
   -2.4810    4.1010   -2.3210 C   0  0  0  0  0  0  0  0  0  0  0  0
   -2.5160    3.2070   -3.3640 C   0  0  0  0  0  0  0  0  0  0  0  0
   -1.6950    2.1050   -3.2800 C   0  0  0  0  0  0  0  0  0  0  0  0
   -0.8590    1.8650   -2.2170 C   0  0  0  0  0  0  0  0  0  0  0  0
   -0.8170    2.7560   -1.1650 C   0  0  0  0  0  0  0  0  0  0  0  0
   -0.7640   -0.0980    0.6720 C   0  0  0  0  0  0  0  0  0  0  0  0
   -1.8590    0.4280    0.3530 O   0  0  0  0  0  0  0  0  0  0  0  0
    1.9540   -0.7590    0.9510 H   0  0  0  0  0  0  0  0  0  0  0  0
   -0.0550    1.0680    2.2450 H   0  0  0  0  0  0  0  0  0  0  0  0
    1.5050    1.4490   -0.3590 H   0  0  0  0  0  0  0  0  0  0  0  0
    1.5770    2.3680    1.2280 H   0  0  0  0  0  0  0  0  0  0  0  0
   -0.0600    4.2640    1.6110 H   0  0  0  0  0  0  0  0  0  0  0  0
   -1.8790    5.4880    0.1170 H   0  0  0  0  0  0  0  0  0  0  0  0
   -3.0920    4.9910   -2.3070 H   0  0  0  0  0  0  0  0  0  0  0  0
   -3.1680    3.3560   -4.2350 H   0  0  0  0  0  0  0  0  0  0  0  0
   -1.7510    1.4130   -4.1330 H   0  0  0  0  0  0  0  0  0  0  0  0
   -0.2240    0.9940   -2.1720 H   0  0  0  0  0  0  0  0  0  0  0  0
    1.0770   -5.3280   -2.9530 N   0  0  0  0  0  0  0  0  0  0  0  0
    0.0370   -4.3630   -2.7610 C   0  0  0  0  0  0  0  0  0  0  0  0
   -0.6300   -3.9900   -3.7570 O   0  0  0  0  0  0  0  0  0  0  0  0
   -0.2760   -3.7970   -1.4350 C   0  0  0  0  0  0  0  0  0  0  0  0
   -1.4140   -2.8150   -1.5490 C   0  0  0  0  0  0  0  0  0  0  0  0
   -1.7630   -2.2140   -0.1970 C   0  0  2  0  0  0  0  0  0  0  0  0
   -0.6750   -1.5140    0.3920 N   0  0  0  0  0  0  0  0  0  0  0  0
   -2.3090   -3.2980    0.6370 C   0  0  0  0  0  0  0  0  0  0  0  0
   -3.2730   -3.9650    0.1900 O   0  0  0  0  0  0  0  0  0  0  0  0
   -1.8380   -3.6450    1.8910 O   0  0  0  0  0  0  0  0  0  0  0  0
    1.3730   -5.6250   -3.8970 H   0  0  0  0  0  0  0  0  0  0  0  0
    1.5300   -5.7240   -2.1030 H   0  0  0  0  0  0  0  0  0  0  0  0
   -0.5380   -4.6360   -0.7620 H   0  0  0  0  0  0  0  0  0  0  0  0
    0.6570   -3.3040   -1.0650 H   0  0  0  0  0  0  0  0  0  0  0  0
   -1.2160   -2.0420   -2.3150 H   0  0  0  0  0  0  0  0  0  0  0  0
   -2.3050   -3.3930   -1.8770 H   0  0  0  0  0  0  0  0  0  0  0  0
   -2.5940   -1.5030   -0.3800 H   0  0  0  0  0  0  0  0  0  0  0  0
    0.2030   -2.0250    0.6270 H   0  0  0  0  0  0  0  0  0  0  0  0
  1 10  1  0  0  0  0
  2  1  1  0  0  0  0
  3  2  2  0  0  0  0
  4 11  1  0  0  0  0
  4  5  1  0  0  0  0
  4  2  1  0  0  0  0
  5 13  1  6  0  0  0
  5  6  1  0  0  0  0
  6 14  1  0  0  0  0
  6 15  1  0  0  0  0
  7  5  1  0  0  0  0
  7  8  2  0  0  0  0
  9  1  1  0  0  0  0
 12  4  1  0  0  0  0
 16  7  1  0  0  0  0
 17 16  1  0  0  0  0
 17 31  1  1  0  0  0
 18 33  1  0  0  0  0
 18 17  1  0  0  0  0
 19 18  1  0  0  0  0
 19 20  2  0  0  0  0
 20 34  1  0  0  0  0
 21 35  1  0  0  0  0
 21 20  1  0  0  0  0
 22 27  1  0  0  0  0
 22 21  1  0  0  0  0
 23 36  1  0  0  0  0
 23 22  2  0  0  0  0
 24 25  2  0  0  0  0
 24 23  1  0  0  0  0
 25 26  1  0  0  0  0
 26 39  1  0  0  0  0
 26 27  2  0  0  0  0
 27 19  1  0  0  0  0
 28 17  1  0  0  0  0
 29 28  2  0  0  0  0
 30 16  1  0  0  0  0
 32 18  1  0  0  0  0
 37 24  1  0  0  0  0
 38 25  1  0  0  0  0
 40 41  1  0  0  0  0
 40 51  1  0  0  0  0
 41 43  1  0  0  0  0
 42 41  2  0  0  0  0
 43 53  1  0  0  0  0
 43 52  1  0  0  0  0
 44 43  1  0  0  0  0
 44 45  1  0  0  0  0
 45 56  1  6  0  0  0
 45 46  1  0  0  0  0
 45 47  1  0  0  0  0
 46 57  1  0  0  0  0
 46 28  1  0  0  0  0
 47 49  1  0  0  0  0
 48 47  2  0  0  0  0
 50 40  1  0  0  0  0
 54 44  1  0  0  0  0
 55 44  1  0  0  0  0
M  END
$$$$
