NWS.pdb
 OpenBabel07022418113D

 51 52  0  0  1  0  0  0  0  0999 V2000
    0.9300   -2.8340    4.1840 N   0  0  0  0  0  0  0  0  0  0  0  0
    2.2140   -3.0410    3.6250 C   0  0  0  0  0  0  0  0  0  0  0  0
    2.6700   -4.2110    3.6020 O   0  0  0  0  0  0  0  0  0  0  0  0
    3.0330   -1.9540    3.0730 C   0  0  0  0  0  0  0  0  0  0  0  0
    2.3700   -0.6070    3.1780 C   0  0  2  0  0  0  0  0  0  0  0  0
    2.0880   -0.2390    4.5380 N   0  0  0  0  0  0  0  0  0  0  0  0
    1.1420   -0.5840    2.3340 C   0  0  0  0  0  0  0  0  0  0  0  0
    0.0060   -0.2600    2.8120 O   0  0  0  0  0  0  0  0  0  0  0  0
    0.7790   -2.5010    5.1550 H   0  0  0  0  0  0  0  0  0  0  0  0
    0.0980   -3.0240    3.5950 H   0  0  0  0  0  0  0  0  0  0  0  0
    3.2880   -2.1790    2.0390 H   0  0  0  0  0  0  0  0  0  0  0  0
    3.9850   -1.8940    3.6650 H   0  0  0  0  0  0  0  0  0  0  0  0
    3.0850    0.1370    2.7710 H   0  0  0  0  0  0  0  0  0  0  0  0
    1.9090    0.7880    4.5720 H   0  0  0  0  0  0  0  0  0  0  0  0
    2.9470   -0.4120    5.1030 H   0  0  0  0  0  0  0  0  0  0  0  0
    1.2370   -0.9330    0.9580 N   0  0  0  0  0  0  0  0  0  0  0  0
    0.0950   -0.9380    0.0660 C   0  0  1  0  0  0  0  0  0  0  0  0
    0.3020    0.0980   -0.9870 C   0  0  0  0  0  0  0  0  0  0  0  0
    0.4420    1.4580   -0.4040 C   0  0  0  0  0  0  0  0  0  0  0  0
    1.6130    2.1930   -0.2500 C   0  0  0  0  0  0  0  0  0  0  0  0
    1.3190    3.3770    0.3150 N   0  0  0  0  0  0  0  0  0  0  0  0
   -0.0010    3.4810    0.5520 C   0  0  0  0  0  0  0  0  0  0  0  0
   -0.7960    4.4720    1.1030 C   0  0  0  0  0  0  0  0  0  0  0  0
   -2.1590    4.3100    1.2290 C   0  0  0  0  0  0  0  0  0  0  0  0
   -2.6980    3.1200    0.7820 C   0  0  0  0  0  0  0  0  0  0  0  0
   -1.9090    2.1310    0.2330 C   0  0  0  0  0  0  0  0  0  0  0  0
   -0.5440    2.2830    0.1020 C   0  0  0  0  0  0  0  0  0  0  0  0
   -0.2060   -2.2770   -0.4180 C   0  0  0  0  0  0  0  0  0  0  0  0
    0.5180   -3.2220   -0.0210 O   0  0  0  0  0  0  0  0  0  0  0  0
    2.2070   -1.1960    0.6040 H   0  0  0  0  0  0  0  0  0  0  0  0
   -0.7860   -0.6080    0.6940 H   0  0  0  0  0  0  0  0  0  0  0  0
    1.2390   -0.1070   -1.5480 H   0  0  0  0  0  0  0  0  0  0  0  0
   -0.5030    0.1550   -1.7380 H   0  0  0  0  0  0  0  0  0  0  0  0
    2.5760    1.8100   -0.5570 H   0  0  0  0  0  0  0  0  0  0  0  0
    2.0050    4.1260    0.5460 H   0  0  0  0  0  0  0  0  0  0  0  0
   -0.3750    5.4040    1.4520 H   0  0  0  0  0  0  0  0  0  0  0  0
   -2.7930    5.0760    1.6580 H   0  0  0  0  0  0  0  0  0  0  0  0
   -3.7680    2.9960    0.8820 H   0  0  0  0  0  0  0  0  0  0  0  0
   -2.3270    1.1850   -0.1230 H   0  0  0  0  0  0  0  0  0  0  0  0
   -3.7670   -3.6510   -1.8550 O   0  0  0  0  0  0  0  0  0  0  0  0
   -2.8060   -4.4840   -1.2520 C   0  0  0  0  0  0  0  0  0  0  0  0
   -1.4540   -3.9780   -1.7150 C   0  0  2  0  0  0  0  0  0  0  0  0
   -1.2600   -2.6010   -1.3090 N   0  0  0  0  0  0  0  0  0  0  0  0
   -1.3510   -4.0330   -3.1910 C   0  0  0  0  0  0  0  0  0  0  0  0
   -1.4790   -5.1380   -3.7660 O   0  0  0  0  0  0  0  0  0  0  0  0
   -1.1200   -2.9010   -3.9450 O   0  0  0  0  0  0  0  0  0  0  0  0
   -3.4760   -3.4300   -2.7810 H   0  0  0  0  0  0  0  0  0  0  0  0
   -2.8600   -4.4270   -0.1570 H   0  0  0  0  0  0  0  0  0  0  0  0
   -2.9590   -5.4960   -1.6680 H   0  0  0  0  0  0  0  0  0  0  0  0
   -0.6920   -4.6030   -1.2170 H   0  0  0  0  0  0  0  0  0  0  0  0
   -1.8780   -1.8270   -1.6550 H   0  0  0  0  0  0  0  0  0  0  0  0
  1  9  1  0  0  0  0
  2  1  1  0  0  0  0
  3  2  2  0  0  0  0
  4  5  1  0  0  0  0
  4  2  1  0  0  0  0
  4 12  1  0  0  0  0
  5 13  1  6  0  0  0
  5  6  1  0  0  0  0
  6 14  1  0  0  0  0
  6 15  1  0  0  0  0
  7  8  2  0  0  0  0
  7  5  1  0  0  0  0
 10  1  1  0  0  0  0
 11  4  1  0  0  0  0
 16  7  1  0  0  0  0
 17 31  1  1  0  0  0
 17 16  1  0  0  0  0
 18 19  1  0  0  0  0
 18 17  1  0  0  0  0
 19 20  2  0  0  0  0
 19 27  1  0  0  0  0
 20 21  1  0  0  0  0
 21 35  1  0  0  0  0
 21 22  1  0  0  0  0
 22 23  1  0  0  0  0
 23 24  2  0  0  0  0
 23 36  1  0  0  0  0
 24 37  1  0  0  0  0
 25 38  1  0  0  0  0
 25 24  1  0  0  0  0
 26 25  2  0  0  0  0
 27 26  1  0  0  0  0
 27 22  2  0  0  0  0
 28 29  2  0  0  0  0
 28 17  1  0  0  0  0
 30 16  1  0  0  0  0
 32 18  1  0  0  0  0
 33 18  1  0  0  0  0
 34 20  1  0  0  0  0
 39 26  1  0  0  0  0
 40 41  1  0  0  0  0
 41 48  1  0  0  0  0
 42 43  1  0  0  0  0
 42 41  1  0  0  0  0
 42 50  1  1  0  0  0
 43 28  1  0  0  0  0
 44 42  1  0  0  0  0
 45 44  1  0  0  0  0
 46 44  2  0  0  0  0
 47 40  1  0  0  0  0
 49 41  1  0  0  0  0
 51 43  1  0  0  0  0
M  END
$$$$
