NWT.pdb
 OpenBabel07022418113D

 54 55  0  0  1  0  0  0  0  0999 V2000
    2.0360   -2.9010    3.2930 N   0  0  0  0  0  0  0  0  0  0  0  0
    3.3820   -2.9470    2.8490 C   0  0  0  0  0  0  0  0  0  0  0  0
    4.2650   -3.1430    3.7360 O   0  0  0  0  0  0  0  0  0  0  0  0
    3.7860   -2.7780    1.4180 C   0  0  0  0  0  0  0  0  0  0  0  0
    4.1680   -1.3290    1.1510 C   0  0  2  0  0  0  0  0  0  0  0  0
    5.2840   -0.9680    2.0330 N   0  0  0  0  0  0  0  0  0  0  0  0
    3.0330   -0.4240    1.4130 C   0  0  0  0  0  0  0  0  0  0  0  0
    3.0640    0.3470    2.4140 O   0  0  0  0  0  0  0  0  0  0  0  0
    1.5910   -3.6940    3.8150 H   0  0  0  0  0  0  0  0  0  0  0  0
    1.3990   -2.0740    3.1300 H   0  0  0  0  0  0  0  0  0  0  0  0
    2.9590   -3.1150    0.7980 H   0  0  0  0  0  0  0  0  0  0  0  0
    4.6590   -3.4220    1.1970 H   0  0  0  0  0  0  0  0  0  0  0  0
    4.5130   -1.1960    0.1120 H   0  0  0  0  0  0  0  0  0  0  0  0
    5.7100   -1.8050    2.4620 H   0  0  0  0  0  0  0  0  0  0  0  0
    4.9810   -0.2690    2.7290 H   0  0  0  0  0  0  0  0  0  0  0  0
    1.9110   -0.4020    0.5620 N   0  0  0  0  0  0  0  0  0  0  0  0
    0.7640    0.4720    0.7810 C   0  0  1  0  0  0  0  0  0  0  0  0
    0.6850    1.5330   -0.2480 C   0  0  0  0  0  0  0  0  0  0  0  0
   -0.4700    2.4210   -0.0760 C   0  0  0  0  0  0  0  0  0  0  0  0
   -0.4940    3.5900    0.7090 C   0  0  0  0  0  0  0  0  0  0  0  0
   -1.7180    4.1330    0.6790 N   0  0  0  0  0  0  0  0  0  0  0  0
   -2.5380    3.3850   -0.0950 C   0  0  0  0  0  0  0  0  0  0  0  0
   -3.8730    3.5430   -0.4480 C   0  0  0  0  0  0  0  0  0  0  0  0
   -4.4800    2.6350   -1.2910 C   0  0  0  0  0  0  0  0  0  0  0  0
   -3.7130    1.5830   -1.7580 C   0  0  0  0  0  0  0  0  0  0  0  0
   -2.3990    1.4360   -1.4020 C   0  0  0  0  0  0  0  0  0  0  0  0
   -1.7720    2.3360   -0.5580 C   0  0  0  0  0  0  0  0  0  0  0  0
   -0.4380   -0.3440    0.8360 C   0  0  0  0  0  0  0  0  0  0  0  0
   -1.5220    0.1910    1.2460 O   0  0  0  0  0  0  0  0  0  0  0  0
    1.8720   -1.0150   -0.2730 H   0  0  0  0  0  0  0  0  0  0  0  0
    0.9550    0.9530    1.7810 H   0  0  0  0  0  0  0  0  0  0  0  0
    1.5890    2.1800   -0.3050 H   0  0  0  0  0  0  0  0  0  0  0  0
    0.5850    1.1040   -1.2880 H   0  0  0  0  0  0  0  0  0  0  0  0
    0.3800    3.9490    1.2330 H   0  0  0  0  0  0  0  0  0  0  0  0
   -2.0540    5.0050    1.1610 H   0  0  0  0  0  0  0  0  0  0  0  0
   -4.4720    4.3640   -0.0840 H   0  0  0  0  0  0  0  0  0  0  0  0
   -5.5140    2.7100   -1.5970 H   0  0  0  0  0  0  0  0  0  0  0  0
   -4.1750    0.8460   -2.4320 H   0  0  0  0  0  0  0  0  0  0  0  0
   -1.7690    0.6140   -1.7580 H   0  0  0  0  0  0  0  0  0  0  0  0
   -1.3340   -3.6580   -1.5860 C   0  0  0  0  0  0  0  0  0  0  0  0
   -2.2800   -2.7560   -0.8290 C   0  0  1  0  0  0  0  0  0  0  0  0
   -3.4820   -3.4320   -0.6450 O   0  0  0  0  0  0  0  0  0  0  0  0
   -1.7390   -2.4210    0.5520 C   0  0  2  0  0  0  0  0  0  0  0  0
   -0.4760   -1.7140    0.4570 N   0  0  0  0  0  0  0  0  0  0  0  0
   -1.6510   -3.6740    1.3330 C   0  0  0  0  0  0  0  0  0  0  0  0
   -2.6850   -4.3670    1.4890 O   0  0  0  0  0  0  0  0  0  0  0  0
   -0.4840   -4.1260    1.9030 O   0  0  0  0  0  0  0  0  0  0  0  0
   -1.7640   -3.8040   -2.5990 H   0  0  0  0  0  0  0  0  0  0  0  0
   -1.2630   -4.6710   -1.1360 H   0  0  0  0  0  0  0  0  0  0  0  0
   -0.3360   -3.1950   -1.7170 H   0  0  0  0  0  0  0  0  0  0  0  0
   -2.4530   -1.8470   -1.4150 H   0  0  0  0  0  0  0  0  0  0  0  0
   -3.6820   -4.0050   -1.4410 H   0  0  0  0  0  0  0  0  0  0  0  0
   -2.5130   -1.7780    1.0140 H   0  0  0  0  0  0  0  0  0  0  0  0
    0.3610   -2.2330    0.1160 H   0  0  0  0  0  0  0  0  0  0  0  0
  1  9  1  0  0  0  0
  2  1  1  0  0  0  0
  2  3  2  0  0  0  0
  4  2  1  0  0  0  0
  5 13  1  6  0  0  0
  5  7  1  0  0  0  0
  5  4  1  0  0  0  0
  5  6  1  0  0  0  0
  6 14  1  0  0  0  0
  6 15  1  0  0  0  0
  7  8  2  0  0  0  0
 10  1  1  0  0  0  0
 11  4  1  0  0  0  0
 12  4  1  0  0  0  0
 16 17  1  0  0  0  0
 16  7  1  0  0  0  0
 17 28  1  0  0  0  0
 17 31  1  1  0  0  0
 18 19  1  0  0  0  0
 18 17  1  0  0  0  0
 19 20  2  0  0  0  0
 20 34  1  0  0  0  0
 21 20  1  0  0  0  0
 21 35  1  0  0  0  0
 22 21  1  0  0  0  0
 23 22  1  0  0  0  0
 23 36  1  0  0  0  0
 24 23  2  0  0  0  0
 25 26  2  0  0  0  0
 25 24  1  0  0  0  0
 26 27  1  0  0  0  0
 27 22  2  0  0  0  0
 27 19  1  0  0  0  0
 28 29  2  0  0  0  0
 30 16  1  0  0  0  0
 32 18  1  0  0  0  0
 33 18  1  0  0  0  0
 37 24  1  0  0  0  0
 38 25  1  0  0  0  0
 39 26  1  0  0  0  0
 40 49  1  0  0  0  0
 40 41  1  0  0  0  0
 41 51  1  6  0  0  0
 41 42  1  0  0  0  0
 41 43  1  0  0  0  0
 43 53  1  1  0  0  0
 43 45  1  0  0  0  0
 44 43  1  0  0  0  0
 44 28  1  0  0  0  0
 45 46  2  0  0  0  0
 45 47  1  0  0  0  0
 48 40  1  0  0  0  0
 50 40  1  0  0  0  0
 52 42  1  0  0  0  0
 54 44  1  0  0  0  0
M  END
$$$$
