NWW.pdb
 OpenBabel07022418123D

 64 67  0  0  1  0  0  0  0  0999 V2000
   -1.1210    0.3280    5.3330 N   0  0  0  0  0  0  0  0  0  0  0  0
    0.0430    0.4460    4.5270 C   0  0  0  0  0  0  0  0  0  0  0  0
    0.5250    1.5900    4.3530 O   0  0  0  0  0  0  0  0  0  0  0  0
    0.6750   -0.7470    3.9040 C   0  0  0  0  0  0  0  0  0  0  0  0
    1.8760   -0.4220    3.0810 C   0  0  2  0  0  0  0  0  0  0  0  0
    2.9300    0.2130    3.8100 N   0  0  0  0  0  0  0  0  0  0  0  0
    1.5610    0.2970    1.8080 C   0  0  0  0  0  0  0  0  0  0  0  0
    2.2280    1.3200    1.4880 O   0  0  0  0  0  0  0  0  0  0  0  0
   -1.1140   -0.3920    6.0900 H   0  0  0  0  0  0  0  0  0  0  0  0
   -1.9460    0.9610    5.1480 H   0  0  0  0  0  0  0  0  0  0  0  0
    0.9110   -1.5250    4.6930 H   0  0  0  0  0  0  0  0  0  0  0  0
   -0.0730   -1.2490    3.2540 H   0  0  0  0  0  0  0  0  0  0  0  0
    2.2960   -1.4180    2.7450 H   0  0  0  0  0  0  0  0  0  0  0  0
    2.7980    1.2630    3.8600 H   0  0  0  0  0  0  0  0  0  0  0  0
    2.9420   -0.1150    4.8000 H   0  0  0  0  0  0  0  0  0  0  0  0
    0.5320   -0.1240    0.9280 N   0  0  0  0  0  0  0  0  0  0  0  0
    0.1330    0.4840   -0.2940 C   0  0  1  0  0  0  0  0  0  0  0  0
    0.3040    1.9790   -0.3990 C   0  0  0  0  0  0  0  0  0  0  0  0
   -0.5110    2.7390    0.5790 C   0  0  0  0  0  0  0  0  0  0  0  0
   -0.1760    3.3860    1.7430 C   0  0  0  0  0  0  0  0  0  0  0  0
   -1.3020    3.9330    2.2580 N   0  0  0  0  0  0  0  0  0  0  0  0
   -2.3430    3.6520    1.4530 C   0  0  0  0  0  0  0  0  0  0  0  0
   -3.7030    3.9770    1.5180 C   0  0  0  0  0  0  0  0  0  0  0  0
   -4.5780    3.5630    0.5400 C   0  0  0  0  0  0  0  0  0  0  0  0
   -4.0950    2.8190   -0.5110 C   0  0  0  0  0  0  0  0  0  0  0  0
   -2.7620    2.4830   -0.6030 C   0  0  0  0  0  0  0  0  0  0  0  0
   -1.8950    2.9030    0.3830 C   0  0  0  0  0  0  0  0  0  0  0  0
    0.5860   -0.1830   -1.5210 C   0  0  0  0  0  0  0  0  0  0  0  0
    0.3030    0.2570   -2.6620 O   0  0  0  0  0  0  0  0  0  0  0  0
    0.0190   -1.0120    1.2570 H   0  0  0  0  0  0  0  0  0  0  0  0
   -1.0260    0.3710   -0.2840 H   0  0  0  0  0  0  0  0  0  0  0  0
    1.3680    2.2870   -0.4270 H   0  0  0  0  0  0  0  0  0  0  0  0
   -0.0780    2.2460   -1.4320 H   0  0  0  0  0  0  0  0  0  0  0  0
    0.8120    3.4560    2.1710 H   0  0  0  0  0  0  0  0  0  0  0  0
   -1.3950    4.4900    3.1340 H   0  0  0  0  0  0  0  0  0  0  0  0
   -4.0420    4.5580    2.3520 H   0  0  0  0  0  0  0  0  0  0  0  0
   -5.6490    3.8190    0.5910 H   0  0  0  0  0  0  0  0  0  0  0  0
   -4.7480    2.4760   -1.2970 H   0  0  0  0  0  0  0  0  0  0  0  0
   -2.3750    1.9090   -1.4250 H   0  0  0  0  0  0  0  0  0  0  0  0
    1.3830   -1.3840   -1.4640 N   0  0  0  0  0  0  0  0  0  0  0  0
    1.8940   -2.1110   -2.5640 C   0  0  1  0  0  0  0  0  0  0  0  0
    1.0140   -3.1850   -3.1340 C   0  0  0  0  0  0  0  0  0  0  0  0
    0.6610   -4.2630   -2.2030 C   0  0  0  0  0  0  0  0  0  0  0  0
    1.2420   -5.5400   -2.1220 C   0  0  0  0  0  0  0  0  0  0  0  0
    0.6530   -6.2050   -1.1440 N   0  0  0  0  0  0  0  0  0  0  0  0
   -0.3040   -5.4490   -0.5480 C   0  0  0  0  0  0  0  0  0  0  0  0
   -1.1730   -5.7070    0.4980 C   0  0  0  0  0  0  0  0  0  0  0  0
   -2.0800   -4.7690    0.9350 C   0  0  0  0  0  0  0  0  0  0  0  0
   -2.0820   -3.5580    0.2800 C   0  0  0  0  0  0  0  0  0  0  0  0
   -1.2130   -3.2980   -0.7660 C   0  0  0  0  0  0  0  0  0  0  0  0
   -0.2950   -4.2370   -1.2130 C   0  0  0  0  0  0  0  0  0  0  0  0
    2.4710   -1.2630   -3.6570 C   0  0  0  0  0  0  0  0  0  0  0  0
    2.8290   -1.8030   -4.7320 O   0  0  0  0  0  0  0  0  0  0  0  0
    2.6230    0.0920   -3.5120 O   0  0  0  0  0  0  0  0  0  0  0  0
    1.5840   -1.7280   -0.4860 H   0  0  0  0  0  0  0  0  0  0  0  0
    2.7960   -2.7050   -2.1380 H   0  0  0  0  0  0  0  0  0  0  0  0
    1.5230   -3.6470   -4.0170 H   0  0  0  0  0  0  0  0  0  0  0  0
    0.0630   -2.7390   -3.5470 H   0  0  0  0  0  0  0  0  0  0  0  0
    2.0390   -5.8430   -2.7960 H   0  0  0  0  0  0  0  0  0  0  0  0
    0.8660   -7.1920   -0.8330 H   0  0  0  0  0  0  0  0  0  0  0  0
   -1.1530   -6.6680    0.9980 H   0  0  0  0  0  0  0  0  0  0  0  0
   -2.7650   -4.9520    1.7490 H   0  0  0  0  0  0  0  0  0  0  0  0
   -2.8020   -2.8230    0.6330 H   0  0  0  0  0  0  0  0  0  0  0  0
   -1.2420   -2.3540   -1.2580 H   0  0  0  0  0  0  0  0  0  0  0  0
  1  9  1  0  0  0  0
  2  1  1  0  0  0  0
  3  2  2  0  0  0  0
  4  2  1  0  0  0  0
  4 11  1  0  0  0  0
  5 13  1  6  0  0  0
  5  6  1  0  0  0  0
  5  4  1  0  0  0  0
  6 14  1  0  0  0  0
  6 15  1  0  0  0  0
  7  5  1  0  0  0  0
  8  7  2  0  0  0  0
 10  1  1  0  0  0  0
 12  4  1  0  0  0  0
 16 30  1  0  0  0  0
 16  7  1  0  0  0  0
 17 31  1  6  0  0  0
 17 16  1  0  0  0  0
 18 17  1  0  0  0  0
 18 19  1  0  0  0  0
 19 20  2  0  0  0  0
 20 34  1  0  0  0  0
 20 21  1  0  0  0  0
 21 35  1  0  0  0  0
 22 23  1  0  0  0  0
 22 21  1  0  0  0  0
 23 36  1  0  0  0  0
 24 37  1  0  0  0  0
 24 23  2  0  0  0  0
 25 24  1  0  0  0  0
 26 25  2  0  0  0  0
 26 27  1  0  0  0  0
 27 19  1  0  0  0  0
 27 22  2  0  0  0  0
 28 40  1  0  0  0  0
 28 17  1  0  0  0  0
 29 28  2  0  0  0  0
 32 18  1  0  0  0  0
 33 18  1  0  0  0  0
 38 25  1  0  0  0  0
 39 26  1  0  0  0  0
 40 55  1  0  0  0  0
 41 56  1  1  0  0  0
 41 40  1  0  0  0  0
 42 41  1  0  0  0  0
 42 43  1  0  0  0  0
 43 44  2  0  0  0  0
 43 51  1  0  0  0  0
 44 45  1  0  0  0  0
 45 60  1  0  0  0  0
 45 46  1  0  0  0  0
 46 47  1  0  0  0  0
 47 48  2  0  0  0  0
 47 61  1  0  0  0  0
 48 62  1  0  0  0  0
 49 63  1  0  0  0  0
 49 48  1  0  0  0  0
 50 49  2  0  0  0  0
 51 50  1  0  0  0  0
 51 46  2  0  0  0  0
 52 54  1  0  0  0  0
 52 41  1  0  0  0  0
 53 52  2  0  0  0  0
 57 42  1  0  0  0  0
 58 42  1  0  0  0  0
 59 44  1  0  0  0  0
 64 50  1  0  0  0  0
M  END
$$$$
