NYC.pdb
 OpenBabel07022418123D

 48 48  0  0  1  0  0  0  0  0999 V2000
    3.8010   -2.0930    5.8640 N   0  0  0  0  0  0  0  0  0  0  0  0
    2.9710   -2.5600    4.7690 C   0  0  0  0  0  0  0  0  0  0  0  0
    1.9300   -3.1470    5.1160 O   0  0  0  0  0  0  0  0  0  0  0  0
    3.4130   -2.3090    3.3890 C   0  0  0  0  0  0  0  0  0  0  0  0
    2.3700   -2.6960    2.4040 C   0  0  2  0  0  0  0  0  0  0  0  0
    2.8480   -2.4890    1.0270 N   0  0  0  0  0  0  0  0  0  0  0  0
    1.0960   -1.9230    2.5360 C   0  0  0  0  0  0  0  0  0  0  0  0
    0.4130   -1.9270    3.5780 O   0  0  0  0  0  0  0  0  0  0  0  0
    4.8250   -1.9820    5.6960 H   0  0  0  0  0  0  0  0  0  0  0  0
    3.4000   -1.8710    6.8010 H   0  0  0  0  0  0  0  0  0  0  0  0
    3.6710   -1.2230    3.2620 H   0  0  0  0  0  0  0  0  0  0  0  0
    4.3200   -2.9400    3.1590 H   0  0  0  0  0  0  0  0  0  0  0  0
    2.1270   -3.7600    2.5010 H   0  0  0  0  0  0  0  0  0  0  0  0
    3.1850   -1.5380    0.8600 H   0  0  0  0  0  0  0  0  0  0  0  0
    2.2190   -2.8970    0.3280 H   0  0  0  0  0  0  0  0  0  0  0  0
    2.0890    2.5790   -3.4530 O   0  0  0  0  0  0  0  0  0  0  0  0
    1.5010    2.2040   -2.2310 C   0  0  0  0  0  0  0  0  0  0  0  0
    2.2770    1.8110   -1.1540 C   0  0  0  0  0  0  0  0  0  0  0  0
    1.7370    1.4380    0.0550 C   0  0  0  0  0  0  0  0  0  0  0  0
    0.3650    1.4650    0.1760 C   0  0  0  0  0  0  0  0  0  0  0  0
   -0.2780    1.0800    1.4370 C   0  0  0  0  0  0  0  0  0  0  0  0
   -0.6070   -0.3810    1.5400 C   0  0  2  0  0  0  0  0  0  0  0  0
    0.6170   -1.1310    1.4250 N   0  0  0  0  0  0  0  0  0  0  0  0
   -1.6530   -0.8270    0.5870 C   0  0  0  0  0  0  0  0  0  0  0  0
   -1.3470   -1.7760   -0.1750 O   0  0  0  0  0  0  0  0  0  0  0  0
   -0.4220    1.8570   -0.8970 C   0  0  0  0  0  0  0  0  0  0  0  0
    0.1290    2.2280   -2.1030 C   0  0  0  0  0  0  0  0  0  0  0  0
    2.4510    1.7810   -3.9990 H   0  0  0  0  0  0  0  0  0  0  0  0
    3.3650    1.7960   -1.2660 H   0  0  0  0  0  0  0  0  0  0  0  0
    2.3800    1.1300    0.8960 H   0  0  0  0  0  0  0  0  0  0  0  0
   -1.1880    1.7080    1.6240 H   0  0  0  0  0  0  0  0  0  0  0  0
    0.4270    1.3060    2.2690 H   0  0  0  0  0  0  0  0  0  0  0  0
   -1.0330   -0.5400    2.5610 H   0  0  0  0  0  0  0  0  0  0  0  0
    1.2060   -1.1470    0.5710 H   0  0  0  0  0  0  0  0  0  0  0  0
   -1.5080    1.8870   -0.8280 H   0  0  0  0  0  0  0  0  0  0  0  0
   -0.4600    2.5350   -2.9480 H   0  0  0  0  0  0  0  0  0  0  0  0
   -2.9130   -0.2370    0.5250 N   0  0  0  0  0  0  0  0  0  0  0  0
   -3.9450   -0.6660   -0.3940 C   0  0  1  0  0  0  0  0  0  0  0  0
   -3.4870   -0.3910   -1.7930 C   0  0  0  0  0  0  0  0  0  0  0  0
   -4.7290   -0.9020   -3.0210 S   0  0  0  0  0  0  0  0  0  0  0  0
   -4.1700   -2.1460   -0.2310 C   0  0  0  0  0  0  0  0  0  0  0  0
   -3.5640   -2.8460    0.6090 O   0  0  0  0  0  0  0  0  0  0  0  0
   -5.0960   -2.8100   -1.0390 O   0  0  0  0  0  0  0  0  0  0  0  0
   -3.1380    0.5640    1.1760 H   0  0  0  0  0  0  0  0  0  0  0  0
   -4.9290   -0.1880   -0.1420 H   0  0  0  0  0  0  0  0  0  0  0  0
   -2.5830   -0.9840   -1.9920 H   0  0  0  0  0  0  0  0  0  0  0  0
   -3.2500    0.6700   -1.9370 H   0  0  0  0  0  0  0  0  0  0  0  0
   -4.5540   -2.2670   -3.2610 H   0  0  0  0  0  0  0  0  0  0  0  0
  1 10  1  0  0  0  0
  2  3  2  0  0  0  0
  2  1  1  0  0  0  0
  4  2  1  0  0  0  0
  5 13  1  1  0  0  0
  5  7  1  0  0  0  0
  5  4  1  0  0  0  0
  6  5  1  0  0  0  0
  7  8  2  0  0  0  0
  9  1  1  0  0  0  0
 11  4  1  0  0  0  0
 12  4  1  0  0  0  0
 14  6  1  0  0  0  0
 15  6  1  0  0  0  0
 16 17  1  0  0  0  0
 17 27  2  0  0  0  0
 17 18  1  0  0  0  0
 18 19  2  0  0  0  0
 19 20  1  0  0  0  0
 19 30  1  0  0  0  0
 20 21  1  0  0  0  0
 21 22  1  0  0  0  0
 21 31  1  0  0  0  0
 21 32  1  0  0  0  0
 22 33  1  1  0  0  0
 23 22  1  0  0  0  0
 23  7  1  0  0  0  0
 24 22  1  0  0  0  0
 25 24  2  0  0  0  0
 26 35  1  0  0  0  0
 26 20  2  0  0  0  0
 27 26  1  0  0  0  0
 28 16  1  0  0  0  0
 29 18  1  0  0  0  0
 34 23  1  0  0  0  0
 36 27  1  0  0  0  0
 37 24  1  0  0  0  0
 37 44  1  0  0  0  0
 38 41  1  0  0  0  0
 38 45  1  1  0  0  0
 38 37  1  0  0  0  0
 39 38  1  0  0  0  0
 40 39  1  0  0  0  0
 41 42  1  0  0  0  0
 43 41  2  0  0  0  0
 46 39  1  0  0  0  0
 47 39  1  0  0  0  0
 48 40  1  0  0  0  0
M  END
$$$$
