NYD.pdb
 OpenBabel07022418123D

 50 50  0  0  1  0  0  0  0  0999 V2000
    2.9140   -2.7730   -1.6400 N   0  0  0  0  0  0  0  0  0  0  0  0
    3.9650   -1.9600   -1.1490 C   0  0  0  0  0  0  0  0  0  0  0  0
    4.9700   -2.5150   -0.6420 O   0  0  0  0  0  0  0  0  0  0  0  0
    3.8520   -0.5010   -1.2420 C   0  0  0  0  0  0  0  0  0  0  0  0
    3.9940    0.1540    0.1270 C   0  0  2  0  0  0  0  0  0  0  0  0
    5.2840   -0.1890    0.6660 N   0  0  0  0  0  0  0  0  0  0  0  0
    2.8840   -0.2780    1.0230 C   0  0  0  0  0  0  0  0  0  0  0  0
    3.1380   -0.9100    2.0720 O   0  0  0  0  0  0  0  0  0  0  0  0
    2.4140   -3.3950   -0.9230 H   0  0  0  0  0  0  0  0  0  0  0  0
    2.5990   -2.8060   -2.6340 H   0  0  0  0  0  0  0  0  0  0  0  0
    4.7210   -0.1340   -1.8400 H   0  0  0  0  0  0  0  0  0  0  0  0
    2.9230   -0.1940   -1.7340 H   0  0  0  0  0  0  0  0  0  0  0  0
    3.9540    1.2420   -0.0340 H   0  0  0  0  0  0  0  0  0  0  0  0
    5.9960   -0.3980   -0.0560 H   0  0  0  0  0  0  0  0  0  0  0  0
    5.1650   -1.0580    1.2510 H   0  0  0  0  0  0  0  0  0  0  0  0
   -2.2530    4.3840   -1.5510 O   0  0  0  0  0  0  0  0  0  0  0  0
   -1.7280    3.4840   -0.6000 C   0  0  0  0  0  0  0  0  0  0  0  0
   -2.5340    2.5240   -0.0260 C   0  0  0  0  0  0  0  0  0  0  0  0
   -1.9670    1.6620    0.9060 C   0  0  0  0  0  0  0  0  0  0  0  0
   -0.6490    1.7450    1.2610 C   0  0  0  0  0  0  0  0  0  0  0  0
   -0.0880    0.8190    2.2490 C   0  0  0  0  0  0  0  0  0  0  0  0
    0.4780   -0.4550    1.6480 C   0  0  2  0  0  0  0  0  0  0  0  0
    1.5280    0.0070    0.7250 N   0  0  0  0  0  0  0  0  0  0  0  0
   -0.5320   -1.2580    0.9390 C   0  0  0  0  0  0  0  0  0  0  0  0
   -0.4410   -1.4020   -0.3060 O   0  0  0  0  0  0  0  0  0  0  0  0
    0.1370    2.7010    0.6840 C   0  0  0  0  0  0  0  0  0  0  0  0
   -0.3970    3.5810   -0.2540 C   0  0  0  0  0  0  0  0  0  0  0  0
   -1.8090    4.3430   -2.4600 H   0  0  0  0  0  0  0  0  0  0  0  0
   -3.5690    2.4860   -0.3290 H   0  0  0  0  0  0  0  0  0  0  0  0
   -2.6340    0.9270    1.3260 H   0  0  0  0  0  0  0  0  0  0  0  0
    0.6900    1.3510    2.8300 H   0  0  0  0  0  0  0  0  0  0  0  0
   -0.8400    0.5070    3.0220 H   0  0  0  0  0  0  0  0  0  0  0  0
    0.9630   -1.0330    2.4530 H   0  0  0  0  0  0  0  0  0  0  0  0
    1.2580    0.5360   -0.1350 H   0  0  0  0  0  0  0  0  0  0  0  0
    1.2020    2.8020    0.9400 H   0  0  0  0  0  0  0  0  0  0  0  0
    0.2530    4.3270   -0.6910 H   0  0  0  0  0  0  0  0  0  0  0  0
   -1.6090   -1.8810    1.6030 N   0  0  0  0  0  0  0  0  0  0  0  0
   -2.6120   -2.6760    0.9410 C   0  0  1  0  0  0  0  0  0  0  0  0
   -2.4500   -4.1550    1.2460 C   0  0  0  0  0  0  0  0  0  0  0  0
   -2.5560   -4.4740    2.6770 C   0  0  0  0  0  0  0  0  0  0  0  0
   -2.7470   -3.6860    3.6100 O   0  0  0  0  0  0  0  0  0  0  0  0
   -3.9910   -2.2150    1.1230 C   0  0  0  0  0  0  0  0  0  0  0  0
   -4.9280   -2.8070    0.5570 O   0  0  0  0  0  0  0  0  0  0  0  0
   -2.4250   -5.8270    3.0230 O   0  0  0  0  0  0  0  0  0  0  0  0
   -4.2660   -1.1300    1.9160 O   0  0  0  0  0  0  0  0  0  0  0  0
   -1.7140   -1.7760    2.6530 H   0  0  0  0  0  0  0  0  0  0  0  0
   -2.3860   -2.6050   -0.1640 H   0  0  0  0  0  0  0  0  0  0  0  0
   -1.4820   -4.4620    0.7930 H   0  0  0  0  0  0  0  0  0  0  0  0
   -3.2350   -4.7320    0.7080 H   0  0  0  0  0  0  0  0  0  0  0  0
   -2.0010   -6.1290    3.9080 H   0  0  0  0  0  0  0  0  0  0  0  0
  1  2  1  0  0  0  0
  1  9  1  0  0  0  0
  2  3  2  0  0  0  0
  4  2  1  0  0  0  0
  4  5  1  0  0  0  0
  5 13  1  6  0  0  0
  5  6  1  0  0  0  0
  5  7  1  0  0  0  0
  6 15  1  0  0  0  0
  7  8  2  0  0  0  0
 10  1  1  0  0  0  0
 11  4  1  0  0  0  0
 12  4  1  0  0  0  0
 14  6  1  0  0  0  0
 16 17  1  0  0  0  0
 17 27  2  0  0  0  0
 17 18  1  0  0  0  0
 18 19  2  0  0  0  0
 19 20  1  0  0  0  0
 19 30  1  0  0  0  0
 20 21  1  0  0  0  0
 21 31  1  0  0  0  0
 21 32  1  0  0  0  0
 22 21  1  0  0  0  0
 22 33  1  1  0  0  0
 23  7  1  0  0  0  0
 23 22  1  0  0  0  0
 24 37  1  0  0  0  0
 24 22  1  0  0  0  0
 25 24  2  0  0  0  0
 26 35  1  0  0  0  0
 26 20  2  0  0  0  0
 27 26  1  0  0  0  0
 28 16  1  0  0  0  0
 29 18  1  0  0  0  0
 34 23  1  0  0  0  0
 36 27  1  0  0  0  0
 37 46  1  0  0  0  0
 38 47  1  6  0  0  0
 38 42  1  0  0  0  0
 38 39  1  0  0  0  0
 38 37  1  0  0  0  0
 39 40  1  0  0  0  0
 40 44  1  0  0  0  0
 40 41  2  0  0  0  0
 42 45  1  0  0  0  0
 43 42  2  0  0  0  0
 44 50  1  0  0  0  0
 48 39  1  0  0  0  0
 49 39  1  0  0  0  0
M  END
$$$$
