NYH.pdb
 OpenBabel07022418123D

 54 55  0  0  1  0  0  0  0  0999 V2000
   -2.9920    0.5480    6.0580 N   0  0  0  0  0  0  0  0  0  0  0  0
   -2.1350   -0.2070    5.2210 C   0  0  0  0  0  0  0  0  0  0  0  0
   -2.7200   -0.8630    4.2940 O   0  0  0  0  0  0  0  0  0  0  0  0
   -0.6890   -0.3030    5.3180 C   0  0  0  0  0  0  0  0  0  0  0  0
    0.1090    0.0890    4.1400 C   0  0  2  0  0  0  0  0  0  0  0  0
   -0.0600    1.4560    3.7180 N   0  0  0  0  0  0  0  0  0  0  0  0
   -0.0090   -0.8520    2.9710 C   0  0  0  0  0  0  0  0  0  0  0  0
    0.0770   -2.0970    3.1070 O   0  0  0  0  0  0  0  0  0  0  0  0
   -3.9610    0.8210    5.7960 H   0  0  0  0  0  0  0  0  0  0  0  0
   -2.5980    0.8350    6.9900 H   0  0  0  0  0  0  0  0  0  0  0  0
   -0.2890    0.2210    6.2120 H   0  0  0  0  0  0  0  0  0  0  0  0
   -0.4480   -1.3960    5.5160 H   0  0  0  0  0  0  0  0  0  0  0  0
    1.1830    0.0000    4.4370 H   0  0  0  0  0  0  0  0  0  0  0  0
    0.8660    1.9300    3.4850 H   0  0  0  0  0  0  0  0  0  0  0  0
   -0.5010    2.0620    4.4350 H   0  0  0  0  0  0  0  0  0  0  0  0
   -3.6400    3.9950   -1.4830 O   0  0  0  0  0  0  0  0  0  0  0  0
   -3.1700    2.7300   -1.1430 C   0  0  0  0  0  0  0  0  0  0  0  0
   -2.6110    1.8750   -2.0770 C   0  0  0  0  0  0  0  0  0  0  0  0
   -2.1560    0.6230   -1.6890 C   0  0  0  0  0  0  0  0  0  0  0  0
   -2.2320    0.1750   -0.3930 C   0  0  0  0  0  0  0  0  0  0  0  0
   -1.7370   -1.1600   -0.0030 C   0  0  0  0  0  0  0  0  0  0  0  0
   -0.3450   -1.2260    0.4800 C   0  0  2  0  0  0  0  0  0  0  0  0
   -0.2240   -0.3590    1.6570 N   0  0  0  0  0  0  0  0  0  0  0  0
    0.7490   -1.0520   -0.4410 C   0  0  0  0  0  0  0  0  0  0  0  0
    1.6340   -0.1700   -0.1550 O   0  0  0  0  0  0  0  0  0  0  0  0
   -2.8010    1.0580    0.5280 C   0  0  0  0  0  0  0  0  0  0  0  0
   -3.2570    2.3020    0.1600 C   0  0  0  0  0  0  0  0  0  0  0  0
   -4.5170    4.1280   -1.9660 H   0  0  0  0  0  0  0  0  0  0  0  0
   -2.5410    2.2110   -3.1080 H   0  0  0  0  0  0  0  0  0  0  0  0
   -1.7260   -0.0540   -2.4110 H   0  0  0  0  0  0  0  0  0  0  0  0
   -1.9720   -1.9310   -0.7760 H   0  0  0  0  0  0  0  0  0  0  0  0
   -2.3850   -1.4750    0.8730 H   0  0  0  0  0  0  0  0  0  0  0  0
   -0.2130   -2.2720    0.9280 H   0  0  0  0  0  0  0  0  0  0  0  0
   -0.2960    0.6740    1.5640 H   0  0  0  0  0  0  0  0  0  0  0  0
   -2.8710    0.7200    1.5630 H   0  0  0  0  0  0  0  0  0  0  0  0
   -3.6890    2.9590    0.8930 H   0  0  0  0  0  0  0  0  0  0  0  0
    0.9760   -1.7540   -1.6450 N   0  0  0  0  0  0  0  0  0  0  0  0
    2.1280   -1.5200   -2.4970 C   0  0  1  0  0  0  0  0  0  0  0  0
    2.7430   -2.7910   -2.9110 C   0  0  0  0  0  0  0  0  0  0  0  0
    3.2500   -3.5930   -1.7900 C   0  0  0  0  0  0  0  0  0  0  0  0
    3.3290   -3.3960   -0.4390 C   0  0  0  0  0  0  0  0  0  0  0  0
    3.9200   -4.4720    0.1300 N   0  0  0  0  0  0  0  0  0  0  0  0
    4.2100   -5.3300   -0.8420 C   0  0  0  0  0  0  0  0  0  0  0  0
    3.8180   -4.8250   -1.9990 N   0  0  0  0  0  0  0  0  0  0  0  0
    1.7810   -0.6600   -3.6830 C   0  0  0  0  0  0  0  0  0  0  0  0
    2.6880   -0.3610   -4.4910 O   0  0  0  0  0  0  0  0  0  0  0  0
    0.5090   -0.2050   -3.8940 O   0  0  0  0  0  0  0  0  0  0  0  0
    0.2440   -2.4670   -1.8810 H   0  0  0  0  0  0  0  0  0  0  0  0
    2.8660   -0.9290   -1.8720 H   0  0  0  0  0  0  0  0  0  0  0  0
    1.9400   -3.3790   -3.4680 H   0  0  0  0  0  0  0  0  0  0  0  0
    3.5590   -2.5810   -3.6640 H   0  0  0  0  0  0  0  0  0  0  0  0
    2.9960   -2.5330    0.1190 H   0  0  0  0  0  0  0  0  0  0  0  0
    4.1050   -4.5820    1.1510 H   0  0  0  0  0  0  0  0  0  0  0  0
    4.6970   -6.3090   -0.7210 H   0  0  0  0  0  0  0  0  0  0  0  0
  1 10  1  0  0  0  0
  2  4  1  0  0  0  0
  2  1  1  0  0  0  0
  3  2  2  0  0  0  0
  4 12  1  0  0  0  0
  4 11  1  0  0  0  0
  5 13  1  1  0  0  0
  5  4  1  0  0  0  0
  6  5  1  0  0  0  0
  6 15  1  0  0  0  0
  7  8  2  0  0  0  0
  7  5  1  0  0  0  0
  9  1  1  0  0  0  0
 14  6  1  0  0  0  0
 16 17  1  0  0  0  0
 17 27  1  0  0  0  0
 18 19  1  0  0  0  0
 18 17  2  0  0  0  0
 19 20  2  0  0  0  0
 20 21  1  0  0  0  0
 20 26  1  0  0  0  0
 21 22  1  0  0  0  0
 21 32  1  0  0  0  0
 22 33  1  1  0  0  0
 22 23  1  0  0  0  0
 23  7  1  0  0  0  0
 24 25  2  0  0  0  0
 24 22  1  0  0  0  0
 26 35  1  0  0  0  0
 27 26  2  0  0  0  0
 27 36  1  0  0  0  0
 28 16  1  0  0  0  0
 29 18  1  0  0  0  0
 30 19  1  0  0  0  0
 31 21  1  0  0  0  0
 34 23  1  0  0  0  0
 37 24  1  0  0  0  0
 38 49  1  1  0  0  0
 38 37  1  0  0  0  0
 39 38  1  0  0  0  0
 39 40  1  0  0  0  0
 40 41  2  0  0  0  0
 41 52  1  0  0  0  0
 41 42  1  0  0  0  0
 42 53  1  0  0  0  0
 43 54  1  0  0  0  0
 43 42  1  0  0  0  0
 44 40  1  0  0  0  0
 44 43  2  0  0  0  0
 45 38  1  0  0  0  0
 46 45  2  0  0  0  0
 47 45  1  0  0  0  0
 48 37  1  0  0  0  0
 50 39  1  0  0  0  0
 51 39  1  0  0  0  0
M  END
$$$$
