NYK.pdb
 OpenBabel07022418123D

 58 58  0  0  1  0  0  0  0  0999 V2000
    5.7990   -0.7740    3.8610 N   0  0  0  0  0  0  0  0  0  0  0  0
    5.1290   -0.1680    2.7440 C   0  0  0  0  0  0  0  0  0  0  0  0
    4.8890    1.0560    2.8180 O   0  0  0  0  0  0  0  0  0  0  0  0
    4.7750   -1.0210    1.6030 C   0  0  0  0  0  0  0  0  0  0  0  0
    3.3950   -1.5960    1.7160 C   0  0  2  0  0  0  0  0  0  0  0  0
    3.1450   -2.4230    0.5430 N   0  0  0  0  0  0  0  0  0  0  0  0
    2.3950   -0.5110    1.8330 C   0  0  0  0  0  0  0  0  0  0  0  0
    2.4040    0.2840    2.7830 O   0  0  0  0  0  0  0  0  0  0  0  0
    6.6860   -1.2920    3.6760 H   0  0  0  0  0  0  0  0  0  0  0  0
    5.4570   -0.7260    4.8300 H   0  0  0  0  0  0  0  0  0  0  0  0
    4.9190   -0.4560    0.6480 H   0  0  0  0  0  0  0  0  0  0  0  0
    5.4970   -1.8810    1.5590 H   0  0  0  0  0  0  0  0  0  0  0  0
    3.3630   -2.1990    2.6510 H   0  0  0  0  0  0  0  0  0  0  0  0
    2.1780   -2.7810    0.6190 H   0  0  0  0  0  0  0  0  0  0  0  0
    3.2560   -1.7770   -0.2880 H   0  0  0  0  0  0  0  0  0  0  0  0
   -2.9150    5.9400   -0.7320 O   0  0  0  0  0  0  0  0  0  0  0  0
   -2.0150    4.8890   -0.5950 C   0  0  0  0  0  0  0  0  0  0  0  0
   -0.8940    5.0390    0.1920 C   0  0  0  0  0  0  0  0  0  0  0  0
   -0.0200    3.9520    0.2980 C   0  0  0  0  0  0  0  0  0  0  0  0
   -0.2660    2.7720   -0.3570 C   0  0  0  0  0  0  0  0  0  0  0  0
    0.6560    1.6540   -0.2390 C   0  0  0  0  0  0  0  0  0  0  0  0
    0.3690    0.7100    0.9130 C   0  0  2  0  0  0  0  0  0  0  0  0
    1.3650   -0.3110    0.8680 N   0  0  0  0  0  0  0  0  0  0  0  0
   -1.0080    0.2650    0.9470 C   0  0  0  0  0  0  0  0  0  0  0  0
   -1.9980    1.0320    0.9920 O   0  0  0  0  0  0  0  0  0  0  0  0
   -1.3940    2.6730   -1.1260 C   0  0  0  0  0  0  0  0  0  0  0  0
   -2.2830    3.7120   -1.2620 C   0  0  0  0  0  0  0  0  0  0  0  0
   -3.9110    5.7580   -0.7200 H   0  0  0  0  0  0  0  0  0  0  0  0
   -0.7060    5.9730    0.7060 H   0  0  0  0  0  0  0  0  0  0  0  0
    0.8620    4.0890    0.9240 H   0  0  0  0  0  0  0  0  0  0  0  0
    0.6760    1.0070   -1.1560 H   0  0  0  0  0  0  0  0  0  0  0  0
    1.6900    2.0710   -0.1740 H   0  0  0  0  0  0  0  0  0  0  0  0
    0.5590    1.3200    1.8460 H   0  0  0  0  0  0  0  0  0  0  0  0
    1.3430   -0.9730    0.0610 H   0  0  0  0  0  0  0  0  0  0  0  0
   -1.6020    1.7550   -1.6470 H   0  0  0  0  0  0  0  0  0  0  0  0
   -3.1870    3.6230   -1.8830 H   0  0  0  0  0  0  0  0  0  0  0  0
   -1.2930   -1.1310    0.9290 N   0  0  0  0  0  0  0  0  0  0  0  0
   -2.6560   -1.6040    0.9610 C   0  0  1  0  0  0  0  0  0  0  0  0
   -2.9230   -2.3410   -0.3340 C   0  0  0  0  0  0  0  0  0  0  0  0
   -1.9960   -3.5200   -0.5070 C   0  0  0  0  0  0  0  0  0  0  0  0
   -2.2710   -4.2570   -1.8040 C   0  0  0  0  0  0  0  0  0  0  0  0
   -1.3610   -5.4290   -1.9950 C   0  0  0  0  0  0  0  0  0  0  0  0
   -1.4790   -6.4100   -0.9420 N   0  0  0  0  0  0  0  0  0  0  0  0
   -2.8950   -2.5680    2.0630 C   0  0  0  0  0  0  0  0  0  0  0  0
   -4.0530   -3.0400    2.1760 O   0  0  0  0  0  0  0  0  0  0  0  0
   -1.9430   -2.9840    2.9730 O   0  0  0  0  0  0  0  0  0  0  0  0
   -0.5380   -1.8640    0.8950 H   0  0  0  0  0  0  0  0  0  0  0  0
   -3.3710   -0.7530    1.0060 H   0  0  0  0  0  0  0  0  0  0  0  0
   -2.6830   -1.5940   -1.1480 H   0  0  0  0  0  0  0  0  0  0  0  0
   -3.9740   -2.5940   -0.4760 H   0  0  0  0  0  0  0  0  0  0  0  0
   -2.1190   -4.1700    0.3740 H   0  0  0  0  0  0  0  0  0  0  0  0
   -0.9420   -3.1840   -0.5830 H   0  0  0  0  0  0  0  0  0  0  0  0
   -2.1930   -3.5750   -2.6540 H   0  0  0  0  0  0  0  0  0  0  0  0
   -3.3090   -4.6520   -1.7360 H   0  0  0  0  0  0  0  0  0  0  0  0
   -0.2940   -5.1540   -2.0640 H   0  0  0  0  0  0  0  0  0  0  0  0
   -1.6210   -5.9100   -2.9590 H   0  0  0  0  0  0  0  0  0  0  0  0
   -0.9450   -7.2560   -1.2510 H   0  0  0  0  0  0  0  0  0  0  0  0
   -0.9880   -6.0620   -0.0800 H   0  0  0  0  0  0  0  0  0  0  0  0
  1 10  1  0  0  0  0
  2  3  2  0  0  0  0
  2  1  1  0  0  0  0
  4  5  1  0  0  0  0
  4  2  1  0  0  0  0
  5  7  1  0  0  0  0
  5 13  1  1  0  0  0
  6 14  1  0  0  0  0
  6  5  1  0  0  0  0
  7  8  2  0  0  0  0
  9  1  1  0  0  0  0
 11  4  1  0  0  0  0
 12  4  1  0  0  0  0
 15  6  1  0  0  0  0
 16 28  1  0  0  0  0
 16 17  1  0  0  0  0
 17 18  1  0  0  0  0
 18 19  2  0  0  0  0
 18 29  1  0  0  0  0
 19 30  1  0  0  0  0
 20 21  1  0  0  0  0
 20 19  1  0  0  0  0
 21 32  1  0  0  0  0
 21 22  1  0  0  0  0
 22 24  1  0  0  0  0
 22 33  1  1  0  0  0
 23 22  1  0  0  0  0
 23  7  1  0  0  0  0
 24 25  2  0  0  0  0
 26 20  2  0  0  0  0
 27 26  1  0  0  0  0
 27 17  2  0  0  0  0
 31 21  1  0  0  0  0
 34 23  1  0  0  0  0
 35 26  1  0  0  0  0
 36 27  1  0  0  0  0
 37 24  1  0  0  0  0
 37 38  1  0  0  0  0
 38 48  1  1  0  0  0
 38 44  1  0  0  0  0
 39 38  1  0  0  0  0
 40 39  1  0  0  0  0
 40 51  1  0  0  0  0
 41 54  1  0  0  0  0
 41 40  1  0  0  0  0
 42 41  1  0  0  0  0
 42 43  1  0  0  0  0
 43 58  1  0  0  0  0
 44 45  2  0  0  0  0
 44 46  1  0  0  0  0
 47 37  1  0  0  0  0
 49 39  1  0  0  0  0
 50 39  1  0  0  0  0
 52 40  1  0  0  0  0
 53 41  1  0  0  0  0
 55 42  1  0  0  0  0
 56 42  1  0  0  0  0
 57 43  1  0  0  0  0
M  END
$$$$
