NYL.pdb
 OpenBabel07022418123D

 56 56  0  0  1  0  0  0  0  0999 V2000
    0.2210   -2.6360    3.8440 N   0  0  0  0  0  0  0  0  0  0  0  0
    1.1530   -2.0760    4.7480 C   0  0  0  0  0  0  0  0  0  0  0  0
    0.9050   -1.9190    5.9730 O   0  0  0  0  0  0  0  0  0  0  0  0
    2.4800   -1.6560    4.2300 C   0  0  0  0  0  0  0  0  0  0  0  0
    2.5810   -0.1420    4.1130 C   0  0  2  0  0  0  0  0  0  0  0  0
    2.3930    0.5090    5.3730 N   0  0  0  0  0  0  0  0  0  0  0  0
    1.6600    0.3240    3.0540 C   0  0  0  0  0  0  0  0  0  0  0  0
    0.7570    1.1840    3.2390 O   0  0  0  0  0  0  0  0  0  0  0  0
   -0.7290   -2.1970    3.7520 H   0  0  0  0  0  0  0  0  0  0  0  0
    0.4670   -3.4660    3.2780 H   0  0  0  0  0  0  0  0  0  0  0  0
    2.6460   -2.0750    3.2140 H   0  0  0  0  0  0  0  0  0  0  0  0
    3.2830   -2.0230    4.9090 H   0  0  0  0  0  0  0  0  0  0  0  0
    3.6180    0.0590    3.7480 H   0  0  0  0  0  0  0  0  0  0  0  0
    2.6420   -0.1680    6.1420 H   0  0  0  0  0  0  0  0  0  0  0  0
    2.8800    1.4190    5.4570 H   0  0  0  0  0  0  0  0  0  0  0  0
   -0.1930    2.6580   -5.3160 O   0  0  0  0  0  0  0  0  0  0  0  0
    0.3110    2.1860   -4.0930 C   0  0  0  0  0  0  0  0  0  0  0  0
    0.3180    2.9690   -2.9610 C   0  0  0  0  0  0  0  0  0  0  0  0
    0.8140    2.5030   -1.7610 C   0  0  0  0  0  0  0  0  0  0  0  0
    1.3340    1.2150   -1.6380 C   0  0  0  0  0  0  0  0  0  0  0  0
    1.8950    0.7280   -0.3660 C   0  0  0  0  0  0  0  0  0  0  0  0
    0.9460    0.1630    0.6220 C   0  0  2  0  0  0  0  0  0  0  0  0
    1.8040   -0.2230    1.7750 N   0  0  0  0  0  0  0  0  0  0  0  0
    0.2850   -1.0780    0.1920 C   0  0  0  0  0  0  0  0  0  0  0  0
    0.5990   -2.1940    0.7470 O   0  0  0  0  0  0  0  0  0  0  0  0
    1.3170    0.4500   -2.7810 C   0  0  0  0  0  0  0  0  0  0  0  0
    0.8220    0.9120   -3.9840 C   0  0  0  0  0  0  0  0  0  0  0  0
   -0.3110    3.6400   -5.5000 H   0  0  0  0  0  0  0  0  0  0  0  0
   -0.0840    3.9760   -3.0420 H   0  0  0  0  0  0  0  0  0  0  0  0
    0.8180    3.1230   -0.8690 H   0  0  0  0  0  0  0  0  0  0  0  0
    2.5100    1.5390    0.1370 H   0  0  0  0  0  0  0  0  0  0  0  0
    2.6750   -0.0720   -0.5460 H   0  0  0  0  0  0  0  0  0  0  0  0
    0.2050    0.9200    0.9970 H   0  0  0  0  0  0  0  0  0  0  0  0
    2.5180   -0.9370    1.5330 H   0  0  0  0  0  0  0  0  0  0  0  0
    1.7270   -0.5620   -2.6930 H   0  0  0  0  0  0  0  0  0  0  0  0
    0.8220    0.2800   -4.8760 H   0  0  0  0  0  0  0  0  0  0  0  0
   -2.8590   -3.1040    1.3570 C   0  0  0  0  0  0  0  0  0  0  0  0
   -3.3090   -2.0620    0.3690 C   0  0  0  0  0  0  0  0  0  0  0  0
   -4.8220   -1.9070    0.4500 C   0  0  0  0  0  0  0  0  0  0  0  0
   -2.8590   -2.3500   -1.0240 C   0  0  0  0  0  0  0  0  0  0  0  0
   -1.3500   -2.4180   -1.1860 C   0  0  2  0  0  0  0  0  0  0  0  0
   -0.7180   -1.1790   -0.8190 N   0  0  0  0  0  0  0  0  0  0  0  0
   -1.1070   -2.8720   -2.5630 C   0  0  0  0  0  0  0  0  0  0  0  0
   -1.6260   -3.9540   -2.9270 O   0  0  0  0  0  0  0  0  0  0  0  0
   -0.3460   -2.1750   -3.4640 O   0  0  0  0  0  0  0  0  0  0  0  0
   -2.7880   -4.1100    0.9130 H   0  0  0  0  0  0  0  0  0  0  0  0
   -3.5490   -3.0820    2.2310 H   0  0  0  0  0  0  0  0  0  0  0  0
   -1.8530   -2.8460    1.7410 H   0  0  0  0  0  0  0  0  0  0  0  0
   -2.8830   -1.0850    0.7150 H   0  0  0  0  0  0  0  0  0  0  0  0
   -5.0440   -1.2470    1.2960 H   0  0  0  0  0  0  0  0  0  0  0  0
   -5.1330   -1.3650   -0.4870 H   0  0  0  0  0  0  0  0  0  0  0  0
   -5.3240   -2.8940    0.5240 H   0  0  0  0  0  0  0  0  0  0  0  0
   -3.2500   -3.3620   -1.3340 H   0  0  0  0  0  0  0  0  0  0  0  0
   -3.3060   -1.6310   -1.7380 H   0  0  0  0  0  0  0  0  0  0  0  0
   -0.9510   -3.1910   -0.4620 H   0  0  0  0  0  0  0  0  0  0  0  0
   -1.0010   -0.3080   -1.2980 H   0  0  0  0  0  0  0  0  0  0  0  0
  1  2  1  0  0  0  0
  2  3  2  0  0  0  0
  4  2  1  0  0  0  0
  4 12  1  0  0  0  0
  5 13  1  6  0  0  0
  5  4  1  0  0  0  0
  5  6  1  0  0  0  0
  6 15  1  0  0  0  0
  6 14  1  0  0  0  0
  7  8  2  0  0  0  0
  7  5  1  0  0  0  0
  9  1  1  0  0  0  0
 10  1  1  0  0  0  0
 11  4  1  0  0  0  0
 16 17  1  0  0  0  0
 17 27  2  0  0  0  0
 17 18  1  0  0  0  0
 18 19  2  0  0  0  0
 19 20  1  0  0  0  0
 19 30  1  0  0  0  0
 20 21  1  0  0  0  0
 21 31  1  0  0  0  0
 21 22  1  0  0  0  0
 22 33  1  1  0  0  0
 22 23  1  0  0  0  0
 23  7  1  0  0  0  0
 24 22  1  0  0  0  0
 24 25  2  0  0  0  0
 26 35  1  0  0  0  0
 26 20  2  0  0  0  0
 27 26  1  0  0  0  0
 28 16  1  0  0  0  0
 29 18  1  0  0  0  0
 32 21  1  0  0  0  0
 34 23  1  0  0  0  0
 36 27  1  0  0  0  0
 37 48  1  0  0  0  0
 37 47  1  0  0  0  0
 38 39  1  0  0  0  0
 38 49  1  0  0  0  0
 38 37  1  0  0  0  0
 39 52  1  0  0  0  0
 39 50  1  0  0  0  0
 40 38  1  0  0  0  0
 41 40  1  0  0  0  0
 41 42  1  0  0  0  0
 41 55  1  1  0  0  0
 42 24  1  0  0  0  0
 43 41  1  0  0  0  0
 44 43  1  0  0  0  0
 45 43  2  0  0  0  0
 46 37  1  0  0  0  0
 51 39  1  0  0  0  0
 53 40  1  0  0  0  0
 54 40  1  0  0  0  0
 56 42  1  0  0  0  0
M  END
$$$$
