NYQ.pdb
 OpenBabel07022418123D

 54 54  0  0  1  0  0  0  0  0999 V2000
    3.8960   -3.5660    1.4460 N   0  0  0  0  0  0  0  0  0  0  0  0
    3.8430   -2.2230    1.8700 C   0  0  0  0  0  0  0  0  0  0  0  0
    3.5240   -1.9650    3.0500 O   0  0  0  0  0  0  0  0  0  0  0  0
    4.1600   -1.1260    0.9320 C   0  0  0  0  0  0  0  0  0  0  0  0
    4.0390    0.2270    1.6000 C   0  0  2  0  0  0  0  0  0  0  0  0
    4.9630    0.2840    2.7120 N   0  0  0  0  0  0  0  0  0  0  0  0
    2.6340    0.3420    2.1070 C   0  0  0  0  0  0  0  0  0  0  0  0
    2.4000    0.4660    3.3470 O   0  0  0  0  0  0  0  0  0  0  0  0
    3.2790   -4.3000    1.8780 H   0  0  0  0  0  0  0  0  0  0  0  0
    4.5430   -3.8840    0.6940 H   0  0  0  0  0  0  0  0  0  0  0  0
    5.2290   -1.2940    0.6100 H   0  0  0  0  0  0  0  0  0  0  0  0
    3.5520   -1.1710    0.0040 H   0  0  0  0  0  0  0  0  0  0  0  0
    4.2260    1.0280    0.8750 H   0  0  0  0  0  0  0  0  0  0  0  0
    4.4180    0.1260    3.5850 H   0  0  0  0  0  0  0  0  0  0  0  0
    5.6460   -0.5180    2.6450 H   0  0  0  0  0  0  0  0  0  0  0  0
   -1.1330    2.1600   -4.3290 O   0  0  0  0  0  0  0  0  0  0  0  0
   -0.9790    2.0300   -2.9360 C   0  0  0  0  0  0  0  0  0  0  0  0
    0.1540    2.5390   -2.3340 C   0  0  0  0  0  0  0  0  0  0  0  0
    0.2880    2.4030   -0.9690 C   0  0  0  0  0  0  0  0  0  0  0  0
   -0.6780    1.7780   -0.2140 C   0  0  0  0  0  0  0  0  0  0  0  0
   -0.5470    1.6410    1.2300 C   0  0  0  0  0  0  0  0  0  0  0  0
    0.1550    0.4280    1.7250 C   0  0  2  0  0  0  0  0  0  0  0  0
    1.5140    0.3180    1.2470 N   0  0  0  0  0  0  0  0  0  0  0  0
   -0.5380   -0.8550    1.4840 C   0  0  0  0  0  0  0  0  0  0  0  0
    0.1080   -1.7760    0.9420 O   0  0  0  0  0  0  0  0  0  0  0  0
   -1.7890    1.2860   -0.8500 C   0  0  0  0  0  0  0  0  0  0  0  0
   -1.9640    1.3990   -2.2050 C   0  0  0  0  0  0  0  0  0  0  0  0
   -1.6780    2.9460   -4.6520 H   0  0  0  0  0  0  0  0  0  0  0  0
    0.9190    3.0370   -2.9510 H   0  0  0  0  0  0  0  0  0  0  0  0
    1.2000    2.8190   -0.5230 H   0  0  0  0  0  0  0  0  0  0  0  0
   -1.5310    1.6910    1.7620 H   0  0  0  0  0  0  0  0  0  0  0  0
    0.0170    2.5220    1.6040 H   0  0  0  0  0  0  0  0  0  0  0  0
    0.1520    0.5320    2.8620 H   0  0  0  0  0  0  0  0  0  0  0  0
    1.6520    0.2180    0.2200 H   0  0  0  0  0  0  0  0  0  0  0  0
   -2.5620    0.7880   -0.2620 H   0  0  0  0  0  0  0  0  0  0  0  0
   -2.8640    0.9980   -2.6820 H   0  0  0  0  0  0  0  0  0  0  0  0
   -3.7270   -1.6340   -2.4080 N   0  0  0  0  0  0  0  0  0  0  0  0
   -3.5470   -2.4120   -1.2320 C   0  0  0  0  0  0  0  0  0  0  0  0
   -4.5720   -2.8260   -0.6650 O   0  0  0  0  0  0  0  0  0  0  0  0
   -2.1430   -2.6800   -0.7620 C   0  0  0  0  0  0  0  0  0  0  0  0
   -2.1440   -3.2400    0.6100 C   0  0  0  0  0  0  0  0  0  0  0  0
   -2.6680   -2.2660    1.6500 C   0  0  2  0  0  0  0  0  0  0  0  0
   -1.8880   -1.0870    1.8380 N   0  0  0  0  0  0  0  0  0  0  0  0
   -3.1390   -2.9220    2.8740 C   0  0  0  0  0  0  0  0  0  0  0  0
   -3.8280   -3.9600    2.8050 O   0  0  0  0  0  0  0  0  0  0  0  0
   -2.8320   -2.4080    4.1170 O   0  0  0  0  0  0  0  0  0  0  0  0
   -2.9930   -1.7500   -3.1660 H   0  0  0  0  0  0  0  0  0  0  0  0
   -4.5280   -0.9780   -2.5430 H   0  0  0  0  0  0  0  0  0  0  0  0
   -1.7630   -3.4520   -1.4750 H   0  0  0  0  0  0  0  0  0  0  0  0
   -1.6130   -1.7440   -0.9220 H   0  0  0  0  0  0  0  0  0  0  0  0
   -1.1640   -3.6890    0.8880 H   0  0  0  0  0  0  0  0  0  0  0  0
   -2.8980   -4.0940    0.5940 H   0  0  0  0  0  0  0  0  0  0  0  0
   -3.6350   -1.8920    1.1090 H   0  0  0  0  0  0  0  0  0  0  0  0
   -2.3640   -0.2610    2.3040 H   0  0  0  0  0  0  0  0  0  0  0  0
  1  2  1  0  0  0  0
  1  9  1  0  0  0  0
  2  3  2  0  0  0  0
  4  5  1  0  0  0  0
  4  2  1  0  0  0  0
  5 13  1  6  0  0  0
  5  7  1  0  0  0  0
  5  6  1  0  0  0  0
  6 14  1  0  0  0  0
  7  8  2  0  0  0  0
 10  1  1  0  0  0  0
 11  4  1  0  0  0  0
 12  4  1  0  0  0  0
 15  6  1  0  0  0  0
 16 17  1  0  0  0  0
 17 18  2  0  0  0  0
 17 27  1  0  0  0  0
 18 19  1  0  0  0  0
 19 30  1  0  0  0  0
 19 20  2  0  0  0  0
 20 21  1  0  0  0  0
 21 32  1  0  0  0  0
 21 22  1  0  0  0  0
 21 31  1  0  0  0  0
 22 33  1  1  0  0  0
 23 22  1  0  0  0  0
 23  7  1  0  0  0  0
 24 22  1  0  0  0  0
 24 43  1  0  0  0  0
 25 24  2  0  0  0  0
 26 35  1  0  0  0  0
 26 20  1  0  0  0  0
 27 26  2  0  0  0  0
 28 16  1  0  0  0  0
 29 18  1  0  0  0  0
 34 23  1  0  0  0  0
 36 27  1  0  0  0  0
 37 38  1  0  0  0  0
 38 40  1  0  0  0  0
 38 39  2  0  0  0  0
 40 41  1  0  0  0  0
 41 51  1  0  0  0  0
 41 42  1  0  0  0  0
 42 53  1  6  0  0  0
 42 43  1  0  0  0  0
 42 44  1  0  0  0  0
 43 54  1  0  0  0  0
 44 46  1  0  0  0  0
 45 44  2  0  0  0  0
 47 37  1  0  0  0  0
 48 37  1  0  0  0  0
 49 40  1  0  0  0  0
 50 40  1  0  0  0  0
 52 41  1  0  0  0  0
M  END
$$$$
