NYW.pdb
 OpenBabel07022418123D

 61 63  0  0  1  0  0  0  0  0999 V2000
    0.9250   -2.3060    4.7770 N   0  0  0  0  0  0  0  0  0  0  0  0
    1.3320   -0.9890    4.4840 C   0  0  0  0  0  0  0  0  0  0  0  0
    0.4270   -0.0890    4.3870 O   0  0  0  0  0  0  0  0  0  0  0  0
    2.7060   -0.5550    4.2770 C   0  0  0  0  0  0  0  0  0  0  0  0
    3.3560   -0.8780    2.9870 C   0  0  2  0  0  0  0  0  0  0  0  0
    4.7330   -0.3150    3.1090 N   0  0  0  0  0  0  0  0  0  0  0  0
    2.8080   -0.2730    1.7720 C   0  0  0  0  0  0  0  0  0  0  0  0
    3.4440    0.6740    1.1810 O   0  0  0  0  0  0  0  0  0  0  0  0
    1.6400   -3.0840    4.8000 H   0  0  0  0  0  0  0  0  0  0  0  0
   -0.0760   -2.4990    4.9700 H   0  0  0  0  0  0  0  0  0  0  0  0
    2.8110    0.5500    4.4340 H   0  0  0  0  0  0  0  0  0  0  0  0
    3.3390   -1.0370    5.0840 H   0  0  0  0  0  0  0  0  0  0  0  0
    3.5550   -1.9730    2.8660 H   0  0  0  0  0  0  0  0  0  0  0  0
    5.2740   -0.8910    3.7930 H   0  0  0  0  0  0  0  0  0  0  0  0
    5.1680   -0.2450    2.1760 H   0  0  0  0  0  0  0  0  0  0  0  0
   -0.4670    1.4860   -6.0210 O   0  0  0  0  0  0  0  0  0  0  0  0
   -0.0040    0.9000   -4.8560 C   0  0  0  0  0  0  0  0  0  0  0  0
   -0.7930    0.0130   -4.1560 C   0  0  0  0  0  0  0  0  0  0  0  0
   -0.2950   -0.5470   -3.0060 C   0  0  0  0  0  0  0  0  0  0  0  0
    0.9740   -0.2390   -2.5410 C   0  0  0  0  0  0  0  0  0  0  0  0
    1.4200   -0.8730   -1.3040 C   0  0  0  0  0  0  0  0  0  0  0  0
    1.1530    0.0260   -0.1010 C   0  0  2  0  0  0  0  0  0  0  0  0
    1.5920   -0.6260    1.1200 N   0  0  0  0  0  0  0  0  0  0  0  0
   -0.2170    0.5400   -0.0270 C   0  0  0  0  0  0  0  0  0  0  0  0
   -0.7880    1.1330   -0.9900 O   0  0  0  0  0  0  0  0  0  0  0  0
    1.7550    0.6590   -3.2620 C   0  0  0  0  0  0  0  0  0  0  0  0
    1.2760    1.2340   -4.4190 C   0  0  0  0  0  0  0  0  0  0  0  0
   -0.1700    2.4320   -6.2190 H   0  0  0  0  0  0  0  0  0  0  0  0
   -1.8040   -0.2400   -4.5170 H   0  0  0  0  0  0  0  0  0  0  0  0
   -0.9130   -1.2530   -2.4440 H   0  0  0  0  0  0  0  0  0  0  0  0
    2.5140   -1.0910   -1.3000 H   0  0  0  0  0  0  0  0  0  0  0  0
    0.8590   -1.8200   -1.1510 H   0  0  0  0  0  0  0  0  0  0  0  0
    1.8240    0.9210   -0.3180 H   0  0  0  0  0  0  0  0  0  0  0  0
    1.0220   -1.3750    1.5530 H   0  0  0  0  0  0  0  0  0  0  0  0
    2.7590    0.8910   -2.8750 H   0  0  0  0  0  0  0  0  0  0  0  0
    1.8520    1.9250   -4.9890 H   0  0  0  0  0  0  0  0  0  0  0  0
   -1.0580    0.4270    1.1470 N   0  0  0  0  0  0  0  0  0  0  0  0
   -2.3950    0.9540    1.1330 C   0  0  1  0  0  0  0  0  0  0  0  0
   -3.4590   -0.0080    1.5800 C   0  0  0  0  0  0  0  0  0  0  0  0
   -3.4440   -1.1990    0.7090 C   0  0  0  0  0  0  0  0  0  0  0  0
   -4.2150   -1.4000   -0.4350 C   0  0  0  0  0  0  0  0  0  0  0  0
   -3.9070   -2.5750   -1.0000 N   0  0  0  0  0  0  0  0  0  0  0  0
   -2.9430   -3.1630   -0.2510 C   0  0  0  0  0  0  0  0  0  0  0  0
   -2.2960   -4.3730   -0.3910 C   0  0  0  0  0  0  0  0  0  0  0  0
   -1.3430   -4.7930    0.5070 C   0  0  0  0  0  0  0  0  0  0  0  0
   -1.0660   -3.9360    1.5630 C   0  0  0  0  0  0  0  0  0  0  0  0
   -1.7010   -2.7270    1.7140 C   0  0  0  0  0  0  0  0  0  0  0  0
   -2.6470   -2.3300    0.8040 C   0  0  0  0  0  0  0  0  0  0  0  0
   -2.4630    2.2170    1.9520 C   0  0  0  0  0  0  0  0  0  0  0  0
   -3.5460    2.8380    2.0530 O   0  0  0  0  0  0  0  0  0  0  0  0
   -1.3550    2.7270    2.6100 O   0  0  0  0  0  0  0  0  0  0  0  0
   -0.6780   -0.0230    1.9770 H   0  0  0  0  0  0  0  0  0  0  0  0
   -2.6850    1.3060    0.0990 H   0  0  0  0  0  0  0  0  0  0  0  0
   -3.3530   -0.2860    2.6520 H   0  0  0  0  0  0  0  0  0  0  0  0
   -4.4410    0.4990    1.4150 H   0  0  0  0  0  0  0  0  0  0  0  0
   -4.9550   -0.6920   -0.7970 H   0  0  0  0  0  0  0  0  0  0  0  0
   -4.3120   -2.9940   -1.8560 H   0  0  0  0  0  0  0  0  0  0  0  0
   -2.5380   -5.0200   -1.2260 H   0  0  0  0  0  0  0  0  0  0  0  0
   -0.8310   -5.7250    0.4200 H   0  0  0  0  0  0  0  0  0  0  0  0
   -0.3330   -4.1960    2.3040 H   0  0  0  0  0  0  0  0  0  0  0  0
   -1.4760   -2.0950    2.5510 H   0  0  0  0  0  0  0  0  0  0  0  0
  1  9  1  0  0  0  0
  1 10  1  0  0  0  0
  2  1  1  0  0  0  0
  3  2  2  0  0  0  0
  4 11  1  0  0  0  0
  4  2  1  0  0  0  0
  4 12  1  0  0  0  0
  5 13  1  6  0  0  0
  5  6  1  0  0  0  0
  5  4  1  0  0  0  0
  6 14  1  0  0  0  0
  7  5  1  0  0  0  0
  8  7  2  0  0  0  0
 15  6  1  0  0  0  0
 16 17  1  0  0  0  0
 17 27  2  0  0  0  0
 17 18  1  0  0  0  0
 18 19  2  0  0  0  0
 19 20  1  0  0  0  0
 19 30  1  0  0  0  0
 20 21  1  0  0  0  0
 21 31  1  0  0  0  0
 21 32  1  0  0  0  0
 21 22  1  0  0  0  0
 22 33  1  6  0  0  0
 22 24  1  0  0  0  0
 22 23  1  0  0  0  0
 23 34  1  0  0  0  0
 23  7  1  0  0  0  0
 24 37  1  0  0  0  0
 25 24  2  0  0  0  0
 26 35  1  0  0  0  0
 26 20  2  0  0  0  0
 27 26  1  0  0  0  0
 28 16  1  0  0  0  0
 29 18  1  0  0  0  0
 36 27  1  0  0  0  0
 37 52  1  0  0  0  0
 38 53  1  6  0  0  0
 38 37  1  0  0  0  0
 38 39  1  0  0  0  0
 38 49  1  0  0  0  0
 39 54  1  0  0  0  0
 40 48  1  0  0  0  0
 40 39  1  0  0  0  0
 41 40  2  0  0  0  0
 42 41  1  0  0  0  0
 42 43  1  0  0  0  0
 43 48  1  0  0  0  0
 44 43  2  0  0  0  0
 44 45  1  0  0  0  0
 45 46  2  0  0  0  0
 46 47  1  0  0  0  0
 46 60  1  0  0  0  0
 47 61  1  0  0  0  0
 48 47  2  0  0  0  0
 49 50  2  0  0  0  0
 49 51  1  0  0  0  0
 55 39  1  0  0  0  0
 56 41  1  0  0  0  0
 57 42  1  0  0  0  0
 58 44  1  0  0  0  0
 59 45  1  0  0  0  0
M  END
$$$$
