NYY.pdb
 OpenBabel07022418123D

 58 59  0  0  1  0  0  0  0  0999 V2000
    3.7340   -2.6730    4.9170 N   0  0  0  0  0  0  0  0  0  0  0  0
    3.1890   -2.1250    3.7330 C   0  0  0  0  0  0  0  0  0  0  0  0
    2.0130   -2.3980    3.4360 O   0  0  0  0  0  0  0  0  0  0  0  0
    4.0380   -1.2330    2.8730 C   0  0  0  0  0  0  0  0  0  0  0  0
    3.5710    0.2040    3.0870 C   0  0  2  0  0  0  0  0  0  0  0  0
    3.7240    0.5530    4.4720 N   0  0  0  0  0  0  0  0  0  0  0  0
    2.1500    0.2500    2.6680 C   0  0  0  0  0  0  0  0  0  0  0  0
    1.2920    0.5740    3.5280 O   0  0  0  0  0  0  0  0  0  0  0  0
    4.7300   -2.9780    4.9010 H   0  0  0  0  0  0  0  0  0  0  0  0
    3.1760   -2.7790    5.7880 H   0  0  0  0  0  0  0  0  0  0  0  0
    3.8340   -1.5340    1.8230 H   0  0  0  0  0  0  0  0  0  0  0  0
    5.1070   -1.3590    3.1030 H   0  0  0  0  0  0  0  0  0  0  0  0
    4.2110    0.8360    2.4220 H   0  0  0  0  0  0  0  0  0  0  0  0
    2.9890    0.0810    5.0280 H   0  0  0  0  0  0  0  0  0  0  0  0
    3.6210    1.5870    4.5900 H   0  0  0  0  0  0  0  0  0  0  0  0
    4.1140    0.4190   -4.3510 O   0  0  0  0  0  0  0  0  0  0  0  0
    3.1670    0.5660   -3.3410 C   0  0  0  0  0  0  0  0  0  0  0  0
    3.4900    1.2450   -2.1950 C   0  0  0  0  0  0  0  0  0  0  0  0
    2.5690    1.4020   -1.1840 C   0  0  0  0  0  0  0  0  0  0  0  0
    1.2900    0.8830   -1.2880 C   0  0  0  0  0  0  0  0  0  0  0  0
    0.3560    1.0960   -0.1530 C   0  0  0  0  0  0  0  0  0  0  0  0
    0.4550   -0.0440    0.8620 C   0  0  2  0  0  0  0  0  0  0  0  0
    1.7990   -0.0690    1.3280 N   0  0  0  0  0  0  0  0  0  0  0  0
   -0.0060   -1.2770    0.2220 C   0  0  0  0  0  0  0  0  0  0  0  0
    0.7790   -2.2600    0.0890 O   0  0  0  0  0  0  0  0  0  0  0  0
    0.9700    0.2010   -2.4410 C   0  0  0  0  0  0  0  0  0  0  0  0
    1.8930    0.0450   -3.4530 C   0  0  0  0  0  0  0  0  0  0  0  0
    4.9090   -0.1890   -4.1300 H   0  0  0  0  0  0  0  0  0  0  0  0
    4.4910    1.6810   -2.0550 H   0  0  0  0  0  0  0  0  0  0  0  0
    2.8840    1.9540   -0.2920 H   0  0  0  0  0  0  0  0  0  0  0  0
    0.6000    2.0240    0.3930 H   0  0  0  0  0  0  0  0  0  0  0  0
   -0.6540    1.1950   -0.5670 H   0  0  0  0  0  0  0  0  0  0  0  0
   -0.2010    0.2650    1.7190 H   0  0  0  0  0  0  0  0  0  0  0  0
    2.5690   -0.3270    0.6800 H   0  0  0  0  0  0  0  0  0  0  0  0
   -0.0250   -0.2090   -2.5330 H   0  0  0  0  0  0  0  0  0  0  0  0
    1.6550   -0.4940   -4.3760 H   0  0  0  0  0  0  0  0  0  0  0  0
   -6.9220    0.4920    1.3000 O   0  0  0  0  0  0  0  0  0  0  0  0
   -5.9360   -0.4310    0.9850 C   0  0  0  0  0  0  0  0  0  0  0  0
   -4.7790   -0.4290    1.7250 C   0  0  0  0  0  0  0  0  0  0  0  0
   -3.7690   -1.3240    1.4550 C   0  0  0  0  0  0  0  0  0  0  0  0
   -3.8840   -2.2460    0.4390 C   0  0  0  0  0  0  0  0  0  0  0  0
   -2.7930   -3.2310    0.1300 C   0  0  0  0  0  0  0  0  0  0  0  0
   -1.8320   -2.6100   -0.9000 C   0  0  2  0  0  0  0  0  0  0  0  0
   -1.3180   -1.4230   -0.2630 N   0  0  0  0  0  0  0  0  0  0  0  0
   -2.4810   -2.4010   -2.1790 C   0  0  0  0  0  0  0  0  0  0  0  0
   -2.9510   -3.3650   -2.8160 O   0  0  0  0  0  0  0  0  0  0  0  0
   -5.0560   -2.2560   -0.3180 C   0  0  0  0  0  0  0  0  0  0  0  0
   -6.0590   -1.3510   -0.0330 C   0  0  0  0  0  0  0  0  0  0  0  0
   -2.5920   -1.1390   -2.7170 O   0  0  0  0  0  0  0  0  0  0  0  0
   -6.6900    1.4770    1.1700 H   0  0  0  0  0  0  0  0  0  0  0  0
   -4.6340    0.2860    2.5490 H   0  0  0  0  0  0  0  0  0  0  0  0
   -2.8590   -1.3080    2.0520 H   0  0  0  0  0  0  0  0  0  0  0  0
   -2.2580   -3.4550    1.0610 H   0  0  0  0  0  0  0  0  0  0  0  0
   -3.2700   -4.0930   -0.3490 H   0  0  0  0  0  0  0  0  0  0  0  0
   -0.9990   -3.3410   -0.9750 H   0  0  0  0  0  0  0  0  0  0  0  0
   -1.9760   -0.6200   -0.1610 H   0  0  0  0  0  0  0  0  0  0  0  0
   -5.1240   -2.9890   -1.1100 H   0  0  0  0  0  0  0  0  0  0  0  0
   -6.9660   -1.3450   -0.6060 H   0  0  0  0  0  0  0  0  0  0  0  0
  1 10  1  0  0  0  0
  2  1  1  0  0  0  0
  3  2  2  0  0  0  0
  4  5  1  0  0  0  0
  4 12  1  0  0  0  0
  4  2  1  0  0  0  0
  5 13  1  6  0  0  0
  5  6  1  0  0  0  0
  6 15  1  0  0  0  0
  6 14  1  0  0  0  0
  7  5  1  0  0  0  0
  7  8  2  0  0  0  0
  9  1  1  0  0  0  0
 11  4  1  0  0  0  0
 16 28  1  0  0  0  0
 16 17  1  0  0  0  0
 17 18  1  0  0  0  0
 18 29  1  0  0  0  0
 18 19  2  0  0  0  0
 19 30  1  0  0  0  0
 20 19  1  0  0  0  0
 20 21  1  0  0  0  0
 21 31  1  0  0  0  0
 21 22  1  0  0  0  0
 22 23  1  0  0  0  0
 22 33  1  1  0  0  0
 23  7  1  0  0  0  0
 24 22  1  0  0  0  0
 25 24  2  0  0  0  0
 26 20  2  0  0  0  0
 27 17  2  0  0  0  0
 27 26  1  0  0  0  0
 32 21  1  0  0  0  0
 34 23  1  0  0  0  0
 35 26  1  0  0  0  0
 36 27  1  0  0  0  0
 38 37  1  0  0  0  0
 38 39  1  0  0  0  0
 39 51  1  0  0  0  0
 40 39  2  0  0  0  0
 40 52  1  0  0  0  0
 41 40  1  0  0  0  0
 42 41  1  0  0  0  0
 42 53  1  0  0  0  0
 43 55  1  6  0  0  0
 43 44  1  0  0  0  0
 43 42  1  0  0  0  0
 44 56  1  0  0  0  0
 44 24  1  0  0  0  0
 45 43  1  0  0  0  0
 46 45  2  0  0  0  0
 47 48  1  0  0  0  0
 47 41  2  0  0  0  0
 48 38  2  0  0  0  0
 49 45  1  0  0  0  0
 50 37  1  0  0  0  0
 54 42  1  0  0  0  0
 57 47  1  0  0  0  0
 58 48  1  0  0  0  0
M  END
$$$$
