PAA.pdb
 OpenBabel07022419023D

 36 36  0  0  1  0  0  0  0  0999 V2000
   -1.5690   -2.3720    0.5250 N   0  0  0  0  0  0  0  0  0  0  0  0
   -2.7270   -3.2130    0.7630 C   0  0  0  0  0  0  0  0  0  0  0  0
   -2.2040   -4.4670    1.4310 C   0  0  0  0  0  0  0  0  0  0  0  0
   -0.7440   -4.1630    1.6910 C   0  0  0  0  0  0  0  0  0  0  0  0
   -0.7480   -2.6550    1.6860 C   0  0  1  0  0  0  0  0  0  0  0  0
    0.6080   -2.1030    1.5750 C   0  0  0  0  0  0  0  0  0  0  0  0
    1.4000   -2.2940    2.5320 O   0  0  0  0  0  0  0  0  0  0  0  0
   -1.8090   -1.3620    0.4800 H   0  0  0  0  0  0  0  0  0  0  0  0
   -3.4060   -2.6340    1.4440 H   0  0  0  0  0  0  0  0  0  0  0  0
   -3.2500   -3.4630   -0.1940 H   0  0  0  0  0  0  0  0  0  0  0  0
   -2.7360   -4.5840    2.4070 H   0  0  0  0  0  0  0  0  0  0  0  0
   -2.3360   -5.3590    0.7860 H   0  0  0  0  0  0  0  0  0  0  0  0
   -0.3890   -4.5940    2.6450 H   0  0  0  0  0  0  0  0  0  0  0  0
   -0.1620   -4.5240    0.8150 H   0  0  0  0  0  0  0  0  0  0  0  0
   -1.3040   -2.2730    2.5660 H   0  0  0  0  0  0  0  0  0  0  0  0
    3.1370   -1.3940   -0.8640 C   0  0  0  0  0  0  0  0  0  0  0  0
    2.3900   -0.8170    0.3150 C   0  0  2  0  0  0  0  0  0  0  0  0
    1.0610   -1.3750    0.4570 N   0  0  0  0  0  0  0  0  0  0  0  0
    2.3580    0.6380    0.1840 C   0  0  0  0  0  0  0  0  0  0  0  0
    3.4310    1.2720    0.0530 O   0  0  0  0  0  0  0  0  0  0  0  0
    2.5380   -1.4100   -1.7810 H   0  0  0  0  0  0  0  0  0  0  0  0
    3.5580   -2.3940   -0.6050 H   0  0  0  0  0  0  0  0  0  0  0  0
    4.0250   -0.7280   -1.0290 H   0  0  0  0  0  0  0  0  0  0  0  0
    2.9910   -1.0600    1.2370 H   0  0  0  0  0  0  0  0  0  0  0  0
    0.3950   -1.2230   -0.3290 H   0  0  0  0  0  0  0  0  0  0  0  0
    0.1200    3.1510   -1.0850 C   0  0  0  0  0  0  0  0  0  0  0  0
    1.0170    2.7700    0.0820 C   0  0  2  0  0  0  0  0  0  0  0  0
    1.1280    1.3320    0.2060 N   0  0  0  0  0  0  0  0  0  0  0  0
    0.3570    3.3260    1.3070 C   0  0  0  0  0  0  0  0  0  0  0  0
   -0.0060    2.5680    2.2410 O   0  0  0  0  0  0  0  0  0  0  0  0
    0.1330    4.6880    1.4360 O   0  0  0  0  0  0  0  0  0  0  0  0
   -0.7070    2.4500   -1.2200 H   0  0  0  0  0  0  0  0  0  0  0  0
    0.7540    3.0650   -2.0130 H   0  0  0  0  0  0  0  0  0  0  0  0
   -0.2730    4.1820   -0.9520 H   0  0  0  0  0  0  0  0  0  0  0  0
    2.0310    3.1770   -0.0240 H   0  0  0  0  0  0  0  0  0  0  0  0
    0.2550    0.7620    0.3180 H   0  0  0  0  0  0  0  0  0  0  0  0
  1  2  1  0  0  0  0
  1  5  1  0  0  0  0
  2  3  1  0  0  0  0
  2  9  1  0  0  0  0
  3  4  1  0  0  0  0
  3 11  1  0  0  0  0
  4 13  1  0  0  0  0
  5  4  1  0  0  0  0
  5 15  1  1  0  0  0
  6  5  1  0  0  0  0
  6  7  2  0  0  0  0
  8  1  1  0  0  0  0
 10  2  1  0  0  0  0
 12  3  1  0  0  0  0
 14  4  1  0  0  0  0
 16 22  1  0  0  0  0
 16 17  1  0  0  0  0
 17 18  1  0  0  0  0
 17 24  1  1  0  0  0
 18  6  1  0  0  0  0
 19 28  1  0  0  0  0
 19 17  1  0  0  0  0
 20 19  2  0  0  0  0
 21 16  1  0  0  0  0
 23 16  1  0  0  0  0
 25 18  1  0  0  0  0
 26 34  1  0  0  0  0
 26 27  1  0  0  0  0
 27 35  1  6  0  0  0
 27 28  1  0  0  0  0
 27 29  1  0  0  0  0
 28 36  1  0  0  0  0
 29 31  2  0  0  0  0
 29 30  1  0  0  0  0
 32 26  1  0  0  0  0
 33 26  1  0  0  0  0
M  END
$$$$
