PAC.pdb
 OpenBabel07022419023D

 37 37  0  0  1  0  0  0  0  0999 V2000
   -2.2880    0.1780    0.9040 N   0  0  0  0  0  0  0  0  0  0  0  0
   -3.6640    0.4370    1.3090 C   0  0  0  0  0  0  0  0  0  0  0  0
   -4.5180   -0.6070    0.6660 C   0  0  0  0  0  0  0  0  0  0  0  0
   -3.5260   -1.4390   -0.1530 C   0  0  0  0  0  0  0  0  0  0  0  0
   -2.2630   -1.2450    0.6740 C   0  0  1  0  0  0  0  0  0  0  0  0
   -1.0520   -1.6970   -0.0240 C   0  0  0  0  0  0  0  0  0  0  0  0
   -0.9100   -2.9080   -0.2820 O   0  0  0  0  0  0  0  0  0  0  0  0
   -2.1980    0.6300   -0.0550 H   0  0  0  0  0  0  0  0  0  0  0  0
   -3.6610    0.3360    2.4320 H   0  0  0  0  0  0  0  0  0  0  0  0
   -4.0050    1.4320    1.0080 H   0  0  0  0  0  0  0  0  0  0  0  0
   -5.3360   -0.2160    0.0550 H   0  0  0  0  0  0  0  0  0  0  0  0
   -4.8980   -1.3120    1.4620 H   0  0  0  0  0  0  0  0  0  0  0  0
   -3.3710   -0.9060   -1.0990 H   0  0  0  0  0  0  0  0  0  0  0  0
   -3.8270   -2.4810   -0.2420 H   0  0  0  0  0  0  0  0  0  0  0  0
   -2.3220   -1.8110    1.6340 H   0  0  0  0  0  0  0  0  0  0  0  0
    1.3370   -0.6330   -2.4870 C   0  0  0  0  0  0  0  0  0  0  0  0
    1.1770   -1.2620   -1.1150 C   0  0  2  0  0  0  0  0  0  0  0  0
    0.0030   -0.8140   -0.4370 N   0  0  0  0  0  0  0  0  0  0  0  0
    2.3590   -0.9660   -0.2760 C   0  0  0  0  0  0  0  0  0  0  0  0
    3.5360   -1.2650   -0.6500 O   0  0  0  0  0  0  0  0  0  0  0  0
    0.5950   -1.0990   -3.1560 H   0  0  0  0  0  0  0  0  0  0  0  0
    2.3370   -0.9520   -2.8590 H   0  0  0  0  0  0  0  0  0  0  0  0
    1.3050    0.4600   -2.4670 H   0  0  0  0  0  0  0  0  0  0  0  0
    1.1900   -2.3650   -1.2900 H   0  0  0  0  0  0  0  0  0  0  0  0
   -0.1440    0.1910   -0.2080 H   0  0  0  0  0  0  0  0  0  0  0  0
    2.1760   -0.3330    0.9790 N   0  0  0  0  0  0  0  0  0  0  0  0
    3.2720   -0.0060    1.8670 C   0  0  1  0  0  0  0  0  0  0  0  0
    3.3560    1.4790    2.1360 C   0  0  0  0  0  0  0  0  0  0  0  0
    4.7530    1.7790    3.2500 S   0  0  0  0  0  0  0  0  0  0  0  0
    3.1670   -0.7410    3.1490 C   0  0  0  0  0  0  0  0  0  0  0  0
    4.0310   -0.5790    4.0350 O   0  0  0  0  0  0  0  0  0  0  0  0
    2.1140   -1.6120    3.3750 O   0  0  0  0  0  0  0  0  0  0  0  0
    1.2140   -0.0820    1.3000 H   0  0  0  0  0  0  0  0  0  0  0  0
    4.2110   -0.3360    1.3810 H   0  0  0  0  0  0  0  0  0  0  0  0
    2.4330    1.7750    2.7070 H   0  0  0  0  0  0  0  0  0  0  0  0
    3.3980    2.0770    1.2240 H   0  0  0  0  0  0  0  0  0  0  0  0
    5.7600    0.8220    3.0310 H   0  0  0  0  0  0  0  0  0  0  0  0
  1  2  1  0  0  0  0
  2  9  1  0  0  0  0
  3  2  1  0  0  0  0
  3 12  1  0  0  0  0
  4  3  1  0  0  0  0
  4  5  1  0  0  0  0
  5  1  1  0  0  0  0
  5 15  1  1  0  0  0
  6  5  1  0  0  0  0
  7  6  2  0  0  0  0
  8  1  1  0  0  0  0
 10  2  1  0  0  0  0
 11  3  1  0  0  0  0
 13  4  1  0  0  0  0
 14  4  1  0  0  0  0
 16 23  1  0  0  0  0
 16 17  1  0  0  0  0
 17 24  1  6  0  0  0
 17 18  1  0  0  0  0
 17 19  1  0  0  0  0
 18 25  1  0  0  0  0
 18  6  1  0  0  0  0
 19 26  1  0  0  0  0
 20 19  2  0  0  0  0
 21 16  1  0  0  0  0
 22 16  1  0  0  0  0
 26 33  1  0  0  0  0
 26 27  1  0  0  0  0
 27 34  1  6  0  0  0
 27 28  1  0  0  0  0
 27 30  1  0  0  0  0
 28 35  1  0  0  0  0
 28 29  1  0  0  0  0
 30 32  2  0  0  0  0
 30 31  1  0  0  0  0
 36 28  1  0  0  0  0
 37 29  1  0  0  0  0
M  END
$$$$
