PAD.pdb
 OpenBabel07022419023D

 39 39  0  0  1  0  0  0  0  0999 V2000
    1.1700   -3.0950    1.0670 N   0  0  0  0  0  0  0  0  0  0  0  0
    0.6600   -4.3840    0.7460 C   0  0  0  0  0  0  0  0  0  0  0  0
    0.8750   -4.5000   -0.7550 C   0  0  0  0  0  0  0  0  0  0  0  0
    2.2590   -3.8520   -0.8800 C   0  0  0  0  0  0  0  0  0  0  0  0
    2.0880   -2.6750    0.0670 C   0  0  1  0  0  0  0  0  0  0  0  0
    1.6430   -1.4590   -0.6670 C   0  0  0  0  0  0  0  0  0  0  0  0
    2.3590   -0.9820   -1.5860 O   0  0  0  0  0  0  0  0  0  0  0  0
    1.4640   -2.9450    2.0440 H   0  0  0  0  0  0  0  0  0  0  0  0
   -0.4240   -4.4540    0.9840 H   0  0  0  0  0  0  0  0  0  0  0  0
    1.2400   -5.2170    1.2080 H   0  0  0  0  0  0  0  0  0  0  0  0
    0.1300   -3.8660   -1.2860 H   0  0  0  0  0  0  0  0  0  0  0  0
    0.8880   -5.5470   -1.0850 H   0  0  0  0  0  0  0  0  0  0  0  0
    2.5000   -3.5670   -1.9030 H   0  0  0  0  0  0  0  0  0  0  0  0
    2.9860   -4.5730   -0.4410 H   0  0  0  0  0  0  0  0  0  0  0  0
    3.0980   -2.4450    0.4620 H   0  0  0  0  0  0  0  0  0  0  0  0
   -1.4200    0.1780   -1.6550 C   0  0  0  0  0  0  0  0  0  0  0  0
   -0.0310    0.3960   -1.0880 C   0  0  2  0  0  0  0  0  0  0  0  0
    0.4300   -0.7860   -0.3880 N   0  0  0  0  0  0  0  0  0  0  0  0
   -0.1380    1.4830   -0.0960 C   0  0  0  0  0  0  0  0  0  0  0  0
   -0.5400    2.6050   -0.4800 O   0  0  0  0  0  0  0  0  0  0  0  0
   -1.9220   -0.5840   -1.0090 H   0  0  0  0  0  0  0  0  0  0  0  0
   -1.3770   -0.2300   -2.6830 H   0  0  0  0  0  0  0  0  0  0  0  0
   -1.9650    1.1270   -1.6080 H   0  0  0  0  0  0  0  0  0  0  0  0
    0.7090    0.6860   -1.8640 H   0  0  0  0  0  0  0  0  0  0  0  0
   -0.1800   -1.1500    0.3630 H   0  0  0  0  0  0  0  0  0  0  0  0
    0.1950    1.3140    1.2650 N   0  0  0  0  0  0  0  0  0  0  0  0
    0.0680    2.4140    2.1990 C   0  0  1  0  0  0  0  0  0  0  0  0
   -0.9950    2.1070    3.2430 C   0  0  0  0  0  0  0  0  0  0  0  0
   -2.3020    1.8900    2.5980 C   0  0  0  0  0  0  0  0  0  0  0  0
   -2.7790    2.7930    1.8550 O   0  0  0  0  0  0  0  0  0  0  0  0
    1.3570    2.6280    2.8660 C   0  0  0  0  0  0  0  0  0  0  0  0
    2.3300    1.8860    2.5950 O   0  0  0  0  0  0  0  0  0  0  0  0
   -3.0420    0.7170    2.7730 O   0  0  0  0  0  0  0  0  0  0  0  0
    1.5680    3.6310    3.8060 O   0  0  0  0  0  0  0  0  0  0  0  0
    0.5440    0.3990    1.6570 H   0  0  0  0  0  0  0  0  0  0  0  0
   -0.2430    3.3380    1.7030 H   0  0  0  0  0  0  0  0  0  0  0  0
   -0.6820    1.2790    3.8820 H   0  0  0  0  0  0  0  0  0  0  0  0
   -1.0850    3.0420    3.8660 H   0  0  0  0  0  0  0  0  0  0  0  0
   -3.6890    0.4130    2.0620 H   0  0  0  0  0  0  0  0  0  0  0  0
  1  8  1  0  0  0  0
  2  9  1  0  0  0  0
  2  1  1  0  0  0  0
  2 10  1  0  0  0  0
  3  2  1  0  0  0  0
  4  3  1  0  0  0  0
  4 14  1  0  0  0  0
  4  5  1  0  0  0  0
  5 15  1  1  0  0  0
  5  1  1  0  0  0  0
  6 18  1  0  0  0  0
  6  5  1  0  0  0  0
  7  6  2  0  0  0  0
 11  3  1  0  0  0  0
 12  3  1  0  0  0  0
 13  4  1  0  0  0  0
 16 23  1  0  0  0  0
 16 17  1  0  0  0  0
 16 21  1  0  0  0  0
 17 24  1  6  0  0  0
 17 18  1  0  0  0  0
 17 19  1  0  0  0  0
 18 25  1  0  0  0  0
 19 26  1  0  0  0  0
 20 19  2  0  0  0  0
 22 16  1  0  0  0  0
 26 35  1  0  0  0  0
 26 27  1  0  0  0  0
 27 36  1  6  0  0  0
 27 31  1  0  0  0  0
 27 28  1  0  0  0  0
 28 38  1  0  0  0  0
 28 37  1  0  0  0  0
 29 33  1  0  0  0  0
 29 28  1  0  0  0  0
 30 29  2  0  0  0  0
 31 34  1  0  0  0  0
 32 31  2  0  0  0  0
 39 33  1  0  0  0  0
M  END
$$$$
