PAF.pdb
 OpenBabel07022419023D

 46 47  0  0  1  0  0  0  0  0999 V2000
    1.8840   -3.6440    1.2000 N   0  0  0  0  0  0  0  0  0  0  0  0
    1.9990   -5.1030    1.0980 C   0  0  0  0  0  0  0  0  0  0  0  0
    3.2570   -5.4630    1.8770 C   0  0  0  0  0  0  0  0  0  0  0  0
    3.5880   -4.2120    2.7020 C   0  0  0  0  0  0  0  0  0  0  0  0
    2.3100   -3.4310    2.5610 C   0  0  1  0  0  0  0  0  0  0  0  0
    2.4720   -1.9870    2.8450 C   0  0  0  0  0  0  0  0  0  0  0  0
    2.8340   -1.5430    3.9490 O   0  0  0  0  0  0  0  0  0  0  0  0
    2.5690   -3.2720    0.5030 H   0  0  0  0  0  0  0  0  0  0  0  0
    2.0820   -5.4110    0.0280 H   0  0  0  0  0  0  0  0  0  0  0  0
    1.1180   -5.5720    1.5830 H   0  0  0  0  0  0  0  0  0  0  0  0
    3.0060   -6.2600    2.6080 H   0  0  0  0  0  0  0  0  0  0  0  0
    4.0900   -5.7340    1.2290 H   0  0  0  0  0  0  0  0  0  0  0  0
    3.8360   -4.4670    3.7330 H   0  0  0  0  0  0  0  0  0  0  0  0
    4.3840   -3.6380    2.1790 H   0  0  0  0  0  0  0  0  0  0  0  0
    1.5140   -3.8430    3.2210 H   0  0  0  0  0  0  0  0  0  0  0  0
    3.4470    0.8680    1.0580 C   0  0  0  0  0  0  0  0  0  0  0  0
    2.3320    0.3810    1.9900 C   0  0  2  0  0  0  0  0  0  0  0  0
    2.2070   -1.0290    1.8190 N   0  0  0  0  0  0  0  0  0  0  0  0
    1.1090    1.1290    1.5960 C   0  0  0  0  0  0  0  0  0  0  0  0
    1.0580    2.3830    1.6860 O   0  0  0  0  0  0  0  0  0  0  0  0
    4.4060    0.3790    1.2870 H   0  0  0  0  0  0  0  0  0  0  0  0
    3.5890    1.9580    1.2030 H   0  0  0  0  0  0  0  0  0  0  0  0
    3.1320    0.7100   -0.0060 H   0  0  0  0  0  0  0  0  0  0  0  0
    2.6610    0.6480    3.0180 H   0  0  0  0  0  0  0  0  0  0  0  0
    1.9020   -1.3850    0.8870 H   0  0  0  0  0  0  0  0  0  0  0  0
   -0.0560    0.4800    1.1030 N   0  0  0  0  0  0  0  0  0  0  0  0
   -1.2630    1.2090    0.7140 C   0  0  1  0  0  0  0  0  0  0  0  0
   -1.5670    1.0180   -0.7410 C   0  0  0  0  0  0  0  0  0  0  0  0
   -2.7910    1.7540   -1.1400 C   0  0  0  0  0  0  0  0  0  0  0  0
   -2.6860    3.0740   -1.5450 C   0  0  0  0  0  0  0  0  0  0  0  0
   -3.8120    3.7600   -1.9270 C   0  0  0  0  0  0  0  0  0  0  0  0
   -5.0290    3.1380   -1.9070 C   0  0  0  0  0  0  0  0  0  0  0  0
   -5.1580    1.8180   -1.5060 C   0  0  0  0  0  0  0  0  0  0  0  0
   -4.0320    1.1260   -1.1220 C   0  0  0  0  0  0  0  0  0  0  0  0
   -2.3430    0.8080    1.6300 C   0  0  0  0  0  0  0  0  0  0  0  0
   -3.4920    1.2990    1.5570 O   0  0  0  0  0  0  0  0  0  0  0  0
   -2.0960   -0.1390    2.6050 O   0  0  0  0  0  0  0  0  0  0  0  0
   -0.0530   -0.5590    1.0140 H   0  0  0  0  0  0  0  0  0  0  0  0
   -1.1260    2.3050    0.8610 H   0  0  0  0  0  0  0  0  0  0  0  0
   -0.7250    1.4460   -1.3310 H   0  0  0  0  0  0  0  0  0  0  0  0
   -1.6150   -0.0560   -1.0210 H   0  0  0  0  0  0  0  0  0  0  0  0
   -1.7010    3.5730   -1.5600 H   0  0  0  0  0  0  0  0  0  0  0  0
   -3.7070    4.8110   -2.2460 H   0  0  0  0  0  0  0  0  0  0  0  0
   -5.9380    3.6720   -2.2100 H   0  0  0  0  0  0  0  0  0  0  0  0
   -6.1410    1.3340   -1.4960 H   0  0  0  0  0  0  0  0  0  0  0  0
   -4.1270    0.0950   -0.8120 H   0  0  0  0  0  0  0  0  0  0  0  0
  1  5  1  0  0  0  0
  2  1  1  0  0  0  0
  2 10  1  0  0  0  0
  2  3  1  0  0  0  0
  3 11  1  0  0  0  0
  3  4  1  0  0  0  0
  4 13  1  0  0  0  0
  5  4  1  0  0  0  0
  5  6  1  0  0  0  0
  5 15  1  1  0  0  0
  6  7  2  0  0  0  0
  8  1  1  0  0  0  0
  9  2  1  0  0  0  0
 12  3  1  0  0  0  0
 14  4  1  0  0  0  0
 16 22  1  0  0  0  0
 16 21  1  0  0  0  0
 16 17  1  0  0  0  0
 17 24  1  1  0  0  0
 18 17  1  0  0  0  0
 18  6  1  0  0  0  0
 19 20  2  0  0  0  0
 19 17  1  0  0  0  0
 23 16  1  0  0  0  0
 25 18  1  0  0  0  0
 26 19  1  0  0  0  0
 27 39  1  1  0  0  0
 27 26  1  0  0  0  0
 27 35  1  0  0  0  0
 28 27  1  0  0  0  0
 29 34  1  0  0  0  0
 29 28  1  0  0  0  0
 30 29  2  0  0  0  0
 31 32  2  0  0  0  0
 31 30  1  0  0  0  0
 32 33  1  0  0  0  0
 33 45  1  0  0  0  0
 33 34  2  0  0  0  0
 34 46  1  0  0  0  0
 35 37  1  0  0  0  0
 36 35  2  0  0  0  0
 38 26  1  0  0  0  0
 40 28  1  0  0  0  0
 41 28  1  0  0  0  0
 42 30  1  0  0  0  0
 43 31  1  0  0  0  0
 44 32  1  0  0  0  0
M  END
$$$$
