PAH.pdb
 OpenBabel07022419023D

 43 44  0  0  1  0  0  0  0  0999 V2000
    1.6970   -1.8180   -1.8330 N   0  0  0  0  0  0  0  0  0  0  0  0
    1.1290   -3.1340   -1.7260 C   0  0  0  0  0  0  0  0  0  0  0  0
    0.9230   -3.4490   -3.2190 C   0  0  0  0  0  0  0  0  0  0  0  0
    0.1980   -2.1590   -3.6320 C   0  0  0  0  0  0  0  0  0  0  0  0
    0.7860   -1.1180   -2.6830 C   0  0  1  0  0  0  0  0  0  0  0  0
   -0.3050   -0.5360   -1.8690 C   0  0  0  0  0  0  0  0  0  0  0  0
   -1.2320    0.1340   -2.4670 O   0  0  0  0  0  0  0  0  0  0  0  0
    1.9260   -1.3450   -0.9700 H   0  0  0  0  0  0  0  0  0  0  0  0
    1.8210   -3.8710   -1.2700 H   0  0  0  0  0  0  0  0  0  0  0  0
    0.1360   -3.1170   -1.2590 H   0  0  0  0  0  0  0  0  0  0  0  0
    0.2970   -4.3350   -3.3550 H   0  0  0  0  0  0  0  0  0  0  0  0
    1.9250   -3.5130   -3.6750 H   0  0  0  0  0  0  0  0  0  0  0  0
    0.4470   -1.9540   -4.6780 H   0  0  0  0  0  0  0  0  0  0  0  0
   -0.8670   -2.3190   -3.4260 H   0  0  0  0  0  0  0  0  0  0  0  0
    1.3020   -0.3110   -3.2760 H   0  0  0  0  0  0  0  0  0  0  0  0
   -2.3390   -1.0670    0.9880 C   0  0  0  0  0  0  0  0  0  0  0  0
   -1.5630   -0.0200    0.2150 C   0  0  2  0  0  0  0  0  0  0  0  0
   -0.4300   -0.6440   -0.4830 N   0  0  0  0  0  0  0  0  0  0  0  0
   -1.0410    0.9440    1.2450 C   0  0  0  0  0  0  0  0  0  0  0  0
   -1.8750    1.5740    1.9430 O   0  0  0  0  0  0  0  0  0  0  0  0
   -3.1420   -0.5770    1.5340 H   0  0  0  0  0  0  0  0  0  0  0  0
   -2.6830   -1.8510    0.2760 H   0  0  0  0  0  0  0  0  0  0  0  0
   -1.6380   -1.4930    1.7400 H   0  0  0  0  0  0  0  0  0  0  0  0
   -2.2190    0.4940   -0.4990 H   0  0  0  0  0  0  0  0  0  0  0  0
    0.2710   -1.1630    0.0700 H   0  0  0  0  0  0  0  0  0  0  0  0
    0.3490    1.1510    1.4410 N   0  0  0  0  0  0  0  0  0  0  0  0
    0.8820    2.0680    2.4210 C   0  0  1  0  0  0  0  0  0  0  0  0
    1.7600    1.3510    3.4040 C   0  0  0  0  0  0  0  0  0  0  0  0
    1.0340    0.2920    4.1450 C   0  0  0  0  0  0  0  0  0  0  0  0
    1.6410   -0.4970    5.1000 C   0  0  0  0  0  0  0  0  0  0  0  0
    0.7090   -1.3520    5.5770 N   0  0  0  0  0  0  0  0  0  0  0  0
   -0.4260   -1.0950    4.9370 C   0  0  0  0  0  0  0  0  0  0  0  0
   -0.2490   -0.0970    4.0600 N   0  0  0  0  0  0  0  0  0  0  0  0
    1.7320    3.1170    1.7660 C   0  0  0  0  0  0  0  0  0  0  0  0
    2.2790    3.9970    2.4500 O   0  0  0  0  0  0  0  0  0  0  0  0
    1.8970    3.0900    0.4040 O   0  0  0  0  0  0  0  0  0  0  0  0
    0.9930    0.5900    0.8210 H   0  0  0  0  0  0  0  0  0  0  0  0
    0.0640    2.5500    2.9620 H   0  0  0  0  0  0  0  0  0  0  0  0
    2.1640    2.0990    4.1230 H   0  0  0  0  0  0  0  0  0  0  0  0
    2.6050    0.9140    2.8370 H   0  0  0  0  0  0  0  0  0  0  0  0
    2.6910   -0.4380    5.4140 H   0  0  0  0  0  0  0  0  0  0  0  0
    0.9030   -2.0760    6.3270 H   0  0  0  0  0  0  0  0  0  0  0  0
   -1.3570   -1.6200    5.1040 H   0  0  0  0  0  0  0  0  0  0  0  0
  1  2  1  0  0  0  0
  1  8  1  0  0  0  0
  2  9  1  0  0  0  0
  2 10  1  0  0  0  0
  3  2  1  0  0  0  0
  4 14  1  0  0  0  0
  4  3  1  0  0  0  0
  4  5  1  0  0  0  0
  5 15  1  6  0  0  0
  5  6  1  0  0  0  0
  5  1  1  0  0  0  0
  6 18  1  0  0  0  0
  7  6  2  0  0  0  0
 11  3  1  0  0  0  0
 12  3  1  0  0  0  0
 13  4  1  0  0  0  0
 16 21  1  0  0  0  0
 16 23  1  0  0  0  0
 17 24  1  6  0  0  0
 17 16  1  0  0  0  0
 17 19  1  0  0  0  0
 18 25  1  0  0  0  0
 18 17  1  0  0  0  0
 19 26  1  0  0  0  0
 19 20  2  0  0  0  0
 22 16  1  0  0  0  0
 26 27  1  0  0  0  0
 27 38  1  1  0  0  0
 27 28  1  0  0  0  0
 28 39  1  0  0  0  0
 28 29  1  0  0  0  0
 29 30  2  0  0  0  0
 30 41  1  0  0  0  0
 30 31  1  0  0  0  0
 31 42  1  0  0  0  0
 32 43  1  0  0  0  0
 32 31  1  0  0  0  0
 33 29  1  0  0  0  0
 33 32  2  0  0  0  0
 34 27  1  0  0  0  0
 34 35  1  0  0  0  0
 36 34  2  0  0  0  0
 37 26  1  0  0  0  0
 40 28  1  0  0  0  0
M  END
$$$$
