PAL.pdb
 OpenBabel07022419023D

 45 45  0  0  1  0  0  0  0  0999 V2000
    1.6890    0.9520    3.7030 N   0  0  0  0  0  0  0  0  0  0  0  0
    3.0770    0.7550    3.9470 C   0  0  0  0  0  0  0  0  0  0  0  0
    3.7940    1.9450    3.3440 C   0  0  0  0  0  0  0  0  0  0  0  0
    2.7120    3.0080    3.2920 C   0  0  0  0  0  0  0  0  0  0  0  0
    1.4840    2.1620    2.9970 C   0  0  1  0  0  0  0  0  0  0  0  0
    1.2490    2.0230    1.5630 C   0  0  0  0  0  0  0  0  0  0  0  0
    1.0600    3.0770    0.8900 O   0  0  0  0  0  0  0  0  0  0  0  0
    1.1510    0.1370    3.4120 H   0  0  0  0  0  0  0  0  0  0  0  0
    3.4950   -0.1820    3.5390 H   0  0  0  0  0  0  0  0  0  0  0  0
    3.2590    0.8130    5.0530 H   0  0  0  0  0  0  0  0  0  0  0  0
    4.6320    2.2830    3.9580 H   0  0  0  0  0  0  0  0  0  0  0  0
    4.1150    1.7210    2.2970 H   0  0  0  0  0  0  0  0  0  0  0  0
    2.8360    3.6840    2.4150 H   0  0  0  0  0  0  0  0  0  0  0  0
    2.6300    3.5760    4.2240 H   0  0  0  0  0  0  0  0  0  0  0  0
    0.5850    2.6760    3.4470 H   0  0  0  0  0  0  0  0  0  0  0  0
    2.1030    0.1010   -1.3370 C   0  0  0  0  0  0  0  0  0  0  0  0
    0.9800    0.7050   -0.5590 C   0  0  2  0  0  0  0  0  0  0  0  0
    1.2130    0.8020    0.8440 N   0  0  0  0  0  0  0  0  0  0  0  0
   -0.2640   -0.0200   -0.9090 C   0  0  0  0  0  0  0  0  0  0  0  0
   -0.5250   -0.1390   -2.1370 O   0  0  0  0  0  0  0  0  0  0  0  0
    2.9960    0.7570   -1.2520 H   0  0  0  0  0  0  0  0  0  0  0  0
    1.8120   -0.0130   -2.3830 H   0  0  0  0  0  0  0  0  0  0  0  0
    2.3680   -0.9030   -0.9010 H   0  0  0  0  0  0  0  0  0  0  0  0
    0.8400    1.7580   -0.9450 H   0  0  0  0  0  0  0  0  0  0  0  0
    1.3690   -0.0760    1.3950 H   0  0  0  0  0  0  0  0  0  0  0  0
   -1.0770   -3.4360   -1.8460 C   0  0  0  0  0  0  0  0  0  0  0  0
   -1.0840   -3.3590   -0.3550 C   0  0  0  0  0  0  0  0  0  0  0  0
   -1.0160   -4.7710    0.2100 C   0  0  0  0  0  0  0  0  0  0  0  0
   -2.3140   -2.6660    0.1750 C   0  0  0  0  0  0  0  0  0  0  0  0
   -2.3420   -1.2640   -0.3800 C   0  0  2  0  0  0  0  0  0  0  0  0
   -1.1450   -0.5690    0.0480 N   0  0  0  0  0  0  0  0  0  0  0  0
   -3.5780   -0.6020    0.1640 C   0  0  0  0  0  0  0  0  0  0  0  0
   -3.5390    0.4110    0.8850 O   0  0  0  0  0  0  0  0  0  0  0  0
   -4.7840   -1.2020   -0.1960 O   0  0  0  0  0  0  0  0  0  0  0  0
   -0.2160   -2.8660   -2.2790 H   0  0  0  0  0  0  0  0  0  0  0  0
   -0.9080   -4.4910   -2.1890 H   0  0  0  0  0  0  0  0  0  0  0  0
   -2.0360   -3.1250   -2.2870 H   0  0  0  0  0  0  0  0  0  0  0  0
   -0.1970   -2.8230    0.0440 H   0  0  0  0  0  0  0  0  0  0  0  0
   -1.2550   -4.7270    1.2780 H   0  0  0  0  0  0  0  0  0  0  0  0
   -0.0160   -5.1700    0.0140 H   0  0  0  0  0  0  0  0  0  0  0  0
   -1.7440   -5.4390   -0.3180 H   0  0  0  0  0  0  0  0  0  0  0  0
   -3.2430   -3.1690   -0.1900 H   0  0  0  0  0  0  0  0  0  0  0  0
   -2.2940   -2.6130    1.2750 H   0  0  0  0  0  0  0  0  0  0  0  0
   -2.4510   -1.3100   -1.4600 H   0  0  0  0  0  0  0  0  0  0  0  0
   -0.8950   -0.4490    1.0510 H   0  0  0  0  0  0  0  0  0  0  0  0
  1  2  1  0  0  0  0
  2 10  1  0  0  0  0
  3  2  1  0  0  0  0
  3 11  1  0  0  0  0
  4  3  1  0  0  0  0
  4 14  1  0  0  0  0
  5  4  1  0  0  0  0
  5 15  1  1  0  0  0
  5  1  1  0  0  0  0
  6  5  1  0  0  0  0
  7  6  2  0  0  0  0
  8  1  1  0  0  0  0
  9  2  1  0  0  0  0
 12  3  1  0  0  0  0
 13  4  1  0  0  0  0
 16 21  1  0  0  0  0
 16 23  1  0  0  0  0
 16 17  1  0  0  0  0
 17 24  1  6  0  0  0
 17 18  1  0  0  0  0
 18 25  1  0  0  0  0
 18  6  1  0  0  0  0
 19 17  1  0  0  0  0
 19 31  1  0  0  0  0
 20 19  2  0  0  0  0
 22 16  1  0  0  0  0
 26 27  1  0  0  0  0
 27 38  1  0  0  0  0
 27 29  1  0  0  0  0
 27 28  1  0  0  0  0
 28 39  1  0  0  0  0
 29 43  1  0  0  0  0
 30 44  1  6  0  0  0
 30 31  1  0  0  0  0
 30 32  1  0  0  0  0
 30 29  1  0  0  0  0
 31 45  1  0  0  0  0
 32 33  1  0  0  0  0
 34 32  2  0  0  0  0
 35 26  1  0  0  0  0
 36 26  1  0  0  0  0
 37 26  1  0  0  0  0
 40 28  1  0  0  0  0
 41 28  1  0  0  0  0
 42 29  1  0  0  0  0
M  END
$$$$
