PAM.pdb
 OpenBabel07022419023D

 43 43  0  0  1  0  0  0  0  0999 V2000
    2.5910   -4.6740    2.2660 N   0  0  0  0  0  0  0  0  0  0  0  0
    3.3160   -5.4570    1.3280 C   0  0  0  0  0  0  0  0  0  0  0  0
    4.3030   -4.4960    0.7410 C   0  0  0  0  0  0  0  0  0  0  0  0
    3.6790   -3.1430    0.9140 C   0  0  0  0  0  0  0  0  0  0  0  0
    2.4420   -3.3140    1.8010 C   0  0  1  0  0  0  0  0  0  0  0  0
    1.2000   -3.2140    0.9420 C   0  0  0  0  0  0  0  0  0  0  0  0
    0.7470   -4.1800    0.3340 O   0  0  0  0  0  0  0  0  0  0  0  0
    2.8580   -4.8130    3.2270 H   0  0  0  0  0  0  0  0  0  0  0  0
    2.6850   -5.9330    0.5170 H   0  0  0  0  0  0  0  0  0  0  0  0
    3.7990   -6.2990    1.9020 H   0  0  0  0  0  0  0  0  0  0  0  0
    5.2210   -4.5720    1.4000 H   0  0  0  0  0  0  0  0  0  0  0  0
    4.5720   -4.7200   -0.3200 H   0  0  0  0  0  0  0  0  0  0  0  0
    3.4530   -2.6180   -0.0420 H   0  0  0  0  0  0  0  0  0  0  0  0
    4.4240   -2.4990    1.4890 H   0  0  0  0  0  0  0  0  0  0  0  0
    2.4260   -2.6060    2.6150 H   0  0  0  0  0  0  0  0  0  0  0  0
   -1.8230   -2.5000    0.8960 C   0  0  0  0  0  0  0  0  0  0  0  0
   -0.6840   -1.9010    0.0390 C   0  0  2  0  0  0  0  0  0  0  0  0
    0.5280   -1.9320    0.8610 N   0  0  0  0  0  0  0  0  0  0  0  0
   -1.0540   -0.5600   -0.4360 C   0  0  0  0  0  0  0  0  0  0  0  0
   -2.0540   -0.5100   -1.2390 O   0  0  0  0  0  0  0  0  0  0  0  0
   -2.1090   -3.4600    0.4300 H   0  0  0  0  0  0  0  0  0  0  0  0
   -2.7050   -1.8470    0.9560 H   0  0  0  0  0  0  0  0  0  0  0  0
   -1.3910   -2.7240    1.9120 H   0  0  0  0  0  0  0  0  0  0  0  0
   -0.5570   -2.5900   -0.7860 H   0  0  0  0  0  0  0  0  0  0  0  0
    0.9200   -1.1420    1.3830 H   0  0  0  0  0  0  0  0  0  0  0  0
   -1.7130    4.9050    3.0280 C   0  0  0  0  0  0  0  0  0  0  0  0
   -2.9330    4.6680    1.7000 S   0  0  0  0  0  0  0  0  0  0  0  0
   -2.1240    4.0580    0.1570 C   0  0  0  0  0  0  0  0  0  0  0  0
   -1.5970    2.7030    0.4820 C   0  0  0  0  0  0  0  0  0  0  0  0
   -0.9030    1.9700   -0.6270 C   0  0  2  0  0  0  0  0  0  0  0  0
   -0.4420    0.6600   -0.1130 N   0  0  0  0  0  0  0  0  0  0  0  0
    0.1220    2.7130   -1.3480 C   0  0  0  0  0  0  0  0  0  0  0  0
    1.2880    2.2830   -1.5190 O   0  0  0  0  0  0  0  0  0  0  0  0
   -0.1940    3.9480   -1.8720 O   0  0  0  0  0  0  0  0  0  0  0  0
   -0.7420    5.2070    2.5590 H   0  0  0  0  0  0  0  0  0  0  0  0
   -1.9880    5.6900    3.7230 H   0  0  0  0  0  0  0  0  0  0  0  0
   -1.5380    3.9130    3.5480 H   0  0  0  0  0  0  0  0  0  0  0  0
   -1.2820    4.7550   -0.0400 H   0  0  0  0  0  0  0  0  0  0  0  0
   -2.8990    4.0530   -0.6170 H   0  0  0  0  0  0  0  0  0  0  0  0
   -0.9610    2.7640    1.3930 H   0  0  0  0  0  0  0  0  0  0  0  0
   -2.4970    2.0600    0.7530 H   0  0  0  0  0  0  0  0  0  0  0  0
   -1.7190    1.6830   -1.3570 H   0  0  0  0  0  0  0  0  0  0  0  0
    0.3770    0.6370    0.5160 H   0  0  0  0  0  0  0  0  0  0  0  0
  1  8  1  0  0  0  0
  2 10  1  0  0  0  0
  2  1  1  0  0  0  0
  3  4  1  0  0  0  0
  3  2  1  0  0  0  0
  3 11  1  0  0  0  0
  4 14  1  0  0  0  0
  4  5  1  0  0  0  0
  5  1  1  0  0  0  0
  5 15  1  1  0  0  0
  6  5  1  0  0  0  0
  7  6  2  0  0  0  0
  9  2  1  0  0  0  0
 12  3  1  0  0  0  0
 13  4  1  0  0  0  0
 16 22  1  0  0  0  0
 16 23  1  0  0  0  0
 17 24  1  6  0  0  0
 17 18  1  0  0  0  0
 17 16  1  0  0  0  0
 18  6  1  0  0  0  0
 18 25  1  0  0  0  0
 19 31  1  0  0  0  0
 19 17  1  0  0  0  0
 20 19  2  0  0  0  0
 21 16  1  0  0  0  0
 26 37  1  0  0  0  0
 26 36  1  0  0  0  0
 27 26  1  0  0  0  0
 28 29  1  0  0  0  0
 28 27  1  0  0  0  0
 29 41  1  0  0  0  0
 29 40  1  0  0  0  0
 30 42  1  6  0  0  0
 30 31  1  0  0  0  0
 30 29  1  0  0  0  0
 31 43  1  0  0  0  0
 32 30  1  0  0  0  0
 33 32  1  0  0  0  0
 34 32  2  0  0  0  0
 35 26  1  0  0  0  0
 38 28  1  0  0  0  0
 39 28  1  0  0  0  0
M  END
$$$$
