PAN.pdb
 OpenBabel07022419023D

 40 40  0  0  1  0  0  0  0  0999 V2000
   -1.2610   -2.8790    0.2990 N   0  0  0  0  0  0  0  0  0  0  0  0
   -2.2700   -3.6980   -0.2970 C   0  0  0  0  0  0  0  0  0  0  0  0
   -1.6030   -4.5860   -1.3090 C   0  0  0  0  0  0  0  0  0  0  0  0
   -0.1300   -4.4070   -1.1330 C   0  0  0  0  0  0  0  0  0  0  0  0
    0.0230   -3.4080   -0.0300 C   0  0  1  0  0  0  0  0  0  0  0  0
    1.0210   -2.3540   -0.3470 C   0  0  0  0  0  0  0  0  0  0  0  0
    2.2020   -2.6600   -0.6540 O   0  0  0  0  0  0  0  0  0  0  0  0
   -1.3930   -2.7250    1.3260 H   0  0  0  0  0  0  0  0  0  0  0  0
   -3.0650   -3.1200   -0.8230 H   0  0  0  0  0  0  0  0  0  0  0  0
   -2.7750   -4.2670    0.5040 H   0  0  0  0  0  0  0  0  0  0  0  0
   -1.9430   -5.6330   -1.1450 H   0  0  0  0  0  0  0  0  0  0  0  0
   -1.8610   -4.2850   -2.3650 H   0  0  0  0  0  0  0  0  0  0  0  0
    0.3760   -4.0680   -2.0540 H   0  0  0  0  0  0  0  0  0  0  0  0
    0.2840   -5.4000   -0.8150 H   0  0  0  0  0  0  0  0  0  0  0  0
    0.4210   -3.9290    0.8870 H   0  0  0  0  0  0  0  0  0  0  0  0
    1.3190    0.8550   -1.8560 C   0  0  0  0  0  0  0  0  0  0  0  0
    1.6960    0.0540   -0.6330 C   0  0  2  0  0  0  0  0  0  0  0  0
    0.7070   -0.9540   -0.3210 N   0  0  0  0  0  0  0  0  0  0  0  0
    1.9100    0.8930    0.5550 C   0  0  0  0  0  0  0  0  0  0  0  0
    2.7240    1.8550    0.5860 O   0  0  0  0  0  0  0  0  0  0  0  0
    0.6940    1.7210   -1.6470 H   0  0  0  0  0  0  0  0  0  0  0  0
    0.8270    0.1280   -2.5660 H   0  0  0  0  0  0  0  0  0  0  0  0
    2.2310    1.2020   -2.3760 H   0  0  0  0  0  0  0  0  0  0  0  0
    2.6600   -0.4910   -0.8610 H   0  0  0  0  0  0  0  0  0  0  0  0
   -0.2810   -0.7170   -0.0640 H   0  0  0  0  0  0  0  0  0  0  0  0
   -0.0970    4.4040    2.2730 N   0  0  0  0  0  0  0  0  0  0  0  0
   -0.3650    3.0230    2.1620 C   0  0  0  0  0  0  0  0  0  0  0  0
   -0.9100    2.5690    1.1270 O   0  0  0  0  0  0  0  0  0  0  0  0
   -0.0080    2.0850    3.2680 C   0  0  0  0  0  0  0  0  0  0  0  0
    1.2950    1.3690    2.9470 C   0  0  2  0  0  0  0  0  0  0  0  0
    1.1680    0.6170    1.7320 N   0  0  0  0  0  0  0  0  0  0  0  0
    1.7490    0.5740    4.0950 C   0  0  0  0  0  0  0  0  0  0  0  0
    2.0040   -0.6470    4.0170 O   0  0  0  0  0  0  0  0  0  0  0  0
    1.8990    1.2100    5.3170 O   0  0  0  0  0  0  0  0  0  0  0  0
   -0.4340    5.0530    1.5560 H   0  0  0  0  0  0  0  0  0  0  0  0
    0.4480    4.7770    3.0850 H   0  0  0  0  0  0  0  0  0  0  0  0
    0.0290    2.5810    4.2420 H   0  0  0  0  0  0  0  0  0  0  0  0
   -0.7860    1.2950    3.3040 H   0  0  0  0  0  0  0  0  0  0  0  0
    2.0700    2.1690    2.7680 H   0  0  0  0  0  0  0  0  0  0  0  0
    0.4700   -0.1840    1.7530 H   0  0  0  0  0  0  0  0  0  0  0  0
  1  8  1  0  0  0  0
  2  1  1  0  0  0  0
  2 10  1  0  0  0  0
  3 11  1  0  0  0  0
  3  4  1  0  0  0  0
  3  2  1  0  0  0  0
  4 14  1  0  0  0  0
  4  5  1  0  0  0  0
  5  1  1  0  0  0  0
  5 15  1  1  0  0  0
  6 18  1  0  0  0  0
  6  5  1  0  0  0  0
  7  6  2  0  0  0  0
  9  2  1  0  0  0  0
 12  3  1  0  0  0  0
 13  4  1  0  0  0  0
 16 21  1  0  0  0  0
 16 17  1  0  0  0  0
 17 24  1  6  0  0  0
 17 18  1  0  0  0  0
 17 19  1  0  0  0  0
 18 25  1  0  0  0  0
 19 20  2  0  0  0  0
 19 31  1  0  0  0  0
 22 16  1  0  0  0  0
 23 16  1  0  0  0  0
 26 36  1  0  0  0  0
 27 26  1  0  0  0  0
 27 29  1  0  0  0  0
 28 27  2  0  0  0  0
 29 38  1  0  0  0  0
 29 37  1  0  0  0  0
 30 39  1  6  0  0  0
 30 29  1  0  0  0  0
 30 32  1  0  0  0  0
 31 40  1  0  0  0  0
 31 30  1  0  0  0  0
 32 34  1  0  0  0  0
 33 32  2  0  0  0  0
 35 26  1  0  0  0  0
M  END
$$$$
