PAQ.pdb
 OpenBabel07022419023D

 43 43  0  0  1  0  0  0  0  0999 V2000
    2.3560   -2.0280    0.0480 N   0  0  0  0  0  0  0  0  0  0  0  0
    2.7440   -3.3650   -0.2800 C   0  0  0  0  0  0  0  0  0  0  0  0
    3.1210   -3.3800   -1.7420 C   0  0  0  0  0  0  0  0  0  0  0  0
    3.4180   -1.9370   -2.0760 C   0  0  0  0  0  0  0  0  0  0  0  0
    2.8640   -1.1390   -0.9470 C   0  0  1  0  0  0  0  0  0  0  0  0
    1.7590   -0.2490   -1.4280 C   0  0  0  0  0  0  0  0  0  0  0  0
    1.9730    0.6150   -2.3060 O   0  0  0  0  0  0  0  0  0  0  0  0
    2.7430   -1.7950    0.9910 H   0  0  0  0  0  0  0  0  0  0  0  0
    3.5510   -3.7630    0.3440 H   0  0  0  0  0  0  0  0  0  0  0  0
    1.8640   -4.0260   -0.1370 H   0  0  0  0  0  0  0  0  0  0  0  0
    2.2940   -3.7930   -2.3530 H   0  0  0  0  0  0  0  0  0  0  0  0
    3.9920   -4.0430   -1.8830 H   0  0  0  0  0  0  0  0  0  0  0  0
    4.5170   -1.8270   -2.0960 H   0  0  0  0  0  0  0  0  0  0  0  0
    2.9400   -1.7230   -3.0490 H   0  0  0  0  0  0  0  0  0  0  0  0
    3.6310   -0.4630   -0.5040 H   0  0  0  0  0  0  0  0  0  0  0  0
   -1.7790   -0.3800   -1.9290 C   0  0  0  0  0  0  0  0  0  0  0  0
   -0.6670    0.4120   -1.2770 C   0  0  2  0  0  0  0  0  0  0  0  0
    0.4490   -0.3840   -0.8850 N   0  0  0  0  0  0  0  0  0  0  0  0
   -1.2390    1.1990   -0.1530 C   0  0  0  0  0  0  0  0  0  0  0  0
   -2.2280    1.9550   -0.3230 O   0  0  0  0  0  0  0  0  0  0  0  0
   -2.0570   -1.2450   -1.3050 H   0  0  0  0  0  0  0  0  0  0  0  0
   -2.6760    0.2980   -1.9450 H   0  0  0  0  0  0  0  0  0  0  0  0
   -1.5600   -0.6240   -2.9690 H   0  0  0  0  0  0  0  0  0  0  0  0
   -0.2950    1.1300   -2.0660 H   0  0  0  0  0  0  0  0  0  0  0  0
    0.3170   -1.1330   -0.1430 H   0  0  0  0  0  0  0  0  0  0  0  0
   -0.1540   -2.1300    3.7820 N   0  0  0  0  0  0  0  0  0  0  0  0
   -1.0470   -1.1740    3.2390 C   0  0  0  0  0  0  0  0  0  0  0  0
   -1.4890   -1.3920    2.0860 O   0  0  0  0  0  0  0  0  0  0  0  0
   -1.4260    0.0040    4.0030 C   0  0  0  0  0  0  0  0  0  0  0  0
   -2.0180    1.1450    3.2760 C   0  0  0  0  0  0  0  0  0  0  0  0
   -1.1960    1.8550    2.2720 C   0  0  2  0  0  0  0  0  0  0  0  0
   -0.6830    1.1240    1.1730 N   0  0  0  0  0  0  0  0  0  0  0  0
   -0.1320    2.6520    2.9240 C   0  0  0  0  0  0  0  0  0  0  0  0
    1.0320    2.6210    2.4940 O   0  0  0  0  0  0  0  0  0  0  0  0
   -0.4060    3.4510    4.0280 O   0  0  0  0  0  0  0  0  0  0  0  0
    0.7120   -1.7940    4.2370 H   0  0  0  0  0  0  0  0  0  0  0  0
   -0.3520   -3.1450    3.7320 H   0  0  0  0  0  0  0  0  0  0  0  0
   -2.1900   -0.3200    4.7770 H   0  0  0  0  0  0  0  0  0  0  0  0
   -0.5580    0.3240    4.6600 H   0  0  0  0  0  0  0  0  0  0  0  0
   -2.2920    1.9150    4.0620 H   0  0  0  0  0  0  0  0  0  0  0  0
   -3.0250    0.8850    2.8370 H   0  0  0  0  0  0  0  0  0  0  0  0
   -1.9090    2.6310    1.8130 H   0  0  0  0  0  0  0  0  0  0  0  0
    0.1700    0.5030    1.3220 H   0  0  0  0  0  0  0  0  0  0  0  0
  1  8  1  0  0  0  0
  2 10  1  0  0  0  0
  2  1  1  0  0  0  0
  2  9  1  0  0  0  0
  3  2  1  0  0  0  0
  4  3  1  0  0  0  0
  4  5  1  0  0  0  0
  5 15  1  1  0  0  0
  5  1  1  0  0  0  0
  6  5  1  0  0  0  0
  6 18  1  0  0  0  0
  7  6  2  0  0  0  0
 11  3  1  0  0  0  0
 12  3  1  0  0  0  0
 13  4  1  0  0  0  0
 14  4  1  0  0  0  0
 16 21  1  0  0  0  0
 16 17  1  0  0  0  0
 17 24  1  6  0  0  0
 17 18  1  0  0  0  0
 17 19  1  0  0  0  0
 18 25  1  0  0  0  0
 19 32  1  0  0  0  0
 20 19  2  0  0  0  0
 22 16  1  0  0  0  0
 23 16  1  0  0  0  0
 26 36  1  0  0  0  0
 27 26  1  0  0  0  0
 27 29  1  0  0  0  0
 28 27  2  0  0  0  0
 29 39  1  0  0  0  0
 29 38  1  0  0  0  0
 30 29  1  0  0  0  0
 30 40  1  0  0  0  0
 31 42  1  6  0  0  0
 31 33  1  0  0  0  0
 31 30  1  0  0  0  0
 32 43  1  0  0  0  0
 32 31  1  0  0  0  0
 33 35  1  0  0  0  0
 34 33  2  0  0  0  0
 37 26  1  0  0  0  0
 41 30  1  0  0  0  0
M  END
$$$$
