PAR.pdb
 OpenBabel07022419023D

 49 49  0  0  1  0  0  0  0  0999 V2000
    2.6200   -3.0490    2.8010 N   0  0  0  0  0  0  0  0  0  0  0  0
    1.8260   -4.1790    3.2600 C   0  0  0  0  0  0  0  0  0  0  0  0
    0.5290   -4.0630    2.5270 C   0  0  0  0  0  0  0  0  0  0  0  0
    0.9450   -3.4930    1.1890 C   0  0  0  0  0  0  0  0  0  0  0  0
    2.3150   -2.8640    1.4160 C   0  0  1  0  0  0  0  0  0  0  0  0
    2.1860   -1.4190    1.1360 C   0  0  0  0  0  0  0  0  0  0  0  0
    2.3430   -0.5940    2.0590 O   0  0  0  0  0  0  0  0  0  0  0  0
    2.3190   -2.2210    3.3870 H   0  0  0  0  0  0  0  0  0  0  0  0
    2.3150   -5.1390    3.0400 H   0  0  0  0  0  0  0  0  0  0  0  0
    1.6930   -4.0930    4.3630 H   0  0  0  0  0  0  0  0  0  0  0  0
   -0.1590   -3.3640    3.0500 H   0  0  0  0  0  0  0  0  0  0  0  0
    0.0600   -5.0740    2.4020 H   0  0  0  0  0  0  0  0  0  0  0  0
    0.1860   -2.7380    0.9020 H   0  0  0  0  0  0  0  0  0  0  0  0
    0.9870   -4.3080    0.4310 H   0  0  0  0  0  0  0  0  0  0  0  0
    3.0480   -3.3590    0.7390 H   0  0  0  0  0  0  0  0  0  0  0  0
    2.8070    0.9620   -1.4560 C   0  0  0  0  0  0  0  0  0  0  0  0
    1.7590    0.5110   -0.4480 C   0  0  2  0  0  0  0  0  0  0  0  0
    1.8890   -0.8960   -0.1500 N   0  0  0  0  0  0  0  0  0  0  0  0
    0.4020    0.8390   -0.9870 C   0  0  0  0  0  0  0  0  0  0  0  0
    0.0980    2.0110   -1.3120 O   0  0  0  0  0  0  0  0  0  0  0  0
    2.3350    1.3680   -2.3740 H   0  0  0  0  0  0  0  0  0  0  0  0
    3.4750    1.7400   -1.0530 H   0  0  0  0  0  0  0  0  0  0  0  0
    3.4450    0.0890   -1.7230 H   0  0  0  0  0  0  0  0  0  0  0  0
    1.9230    1.1310    0.4660 H   0  0  0  0  0  0  0  0  0  0  0  0
    1.7590   -1.5760   -0.9270 H   0  0  0  0  0  0  0  0  0  0  0  0
    0.5770    2.1840    2.8620 N   0  0  0  0  0  0  0  0  0  0  0  0
   -0.3950    1.1700    2.7830 C   0  0  0  0  0  0  0  0  0  0  0  0
   -0.2910    0.1590    3.6100 N   0  0  0  0  0  0  0  0  0  0  0  0
   -1.4710    1.1980    1.8540 N   0  0  0  0  0  0  0  0  0  0  0  0
   -2.0920   -0.0660    1.5030 C   0  0  0  0  0  0  0  0  0  0  0  0
   -3.2090    0.0930    0.5260 C   0  0  0  0  0  0  0  0  0  0  0  0
   -2.8670    0.7090   -0.7790 C   0  0  0  0  0  0  0  0  0  0  0  0
   -1.8910    0.0180   -1.6470 C   0  0  2  0  0  0  0  0  0  0  0  0
   -0.5750   -0.1950   -1.1400 N   0  0  0  0  0  0  0  0  0  0  0  0
   -1.8620    0.6950   -2.9860 C   0  0  0  0  0  0  0  0  0  0  0  0
   -2.9440    0.9610   -3.5460 O   0  0  0  0  0  0  0  0  0  0  0  0
   -0.6790    1.0240   -3.6030 O   0  0  0  0  0  0  0  0  0  0  0  0
    0.2690    3.1670    3.0590 H   0  0  0  0  0  0  0  0  0  0  0  0
    1.5800    1.9610    2.7280 H   0  0  0  0  0  0  0  0  0  0  0  0
    0.4790    0.0970    4.3060 H   0  0  0  0  0  0  0  0  0  0  0  0
   -1.7580    2.1170    1.4750 H   0  0  0  0  0  0  0  0  0  0  0  0
   -2.4870   -0.5690    2.4360 H   0  0  0  0  0  0  0  0  0  0  0  0
   -1.3330   -0.7400    1.1200 H   0  0  0  0  0  0  0  0  0  0  0  0
   -4.1150    0.5750    0.9930 H   0  0  0  0  0  0  0  0  0  0  0  0
   -3.5610   -0.9610    0.2930 H   0  0  0  0  0  0  0  0  0  0  0  0
   -3.8380    0.7490   -1.3740 H   0  0  0  0  0  0  0  0  0  0  0  0
   -2.5960    1.8020   -0.6650 H   0  0  0  0  0  0  0  0  0  0  0  0
   -2.3030   -1.0080   -1.9040 H   0  0  0  0  0  0  0  0  0  0  0  0
   -0.2290   -1.1620   -0.8550 H   0  0  0  0  0  0  0  0  0  0  0  0
  1  2  1  0  0  0  0
  1  8  1  0  0  0  0
  2 10  1  0  0  0  0
  3 11  1  0  0  0  0
  3  2  1  0  0  0  0
  4  5  1  0  0  0  0
  4  3  1  0  0  0  0
  5 15  1  6  0  0  0
  5  1  1  0  0  0  0
  6  5  1  0  0  0  0
  6  7  2  0  0  0  0
  9  2  1  0  0  0  0
 12  3  1  0  0  0  0
 13  4  1  0  0  0  0
 14  4  1  0  0  0  0
 16 22  1  0  0  0  0
 16 17  1  0  0  0  0
 17 18  1  0  0  0  0
 17 24  1  1  0  0  0
 18  6  1  0  0  0  0
 19 17  1  0  0  0  0
 20 19  2  0  0  0  0
 21 16  1  0  0  0  0
 23 16  1  0  0  0  0
 25 18  1  0  0  0  0
 26 38  1  0  0  0  0
 27 26  1  0  0  0  0
 27 28  2  0  0  0  0
 28 40  1  0  0  0  0
 29 27  1  0  0  0  0
 30 29  1  0  0  0  0
 30 42  1  0  0  0  0
 31 44  1  0  0  0  0
 31 30  1  0  0  0  0
 32 47  1  0  0  0  0
 32 31  1  0  0  0  0
 33 48  1  6  0  0  0
 33 34  1  0  0  0  0
 33 32  1  0  0  0  0
 34 19  1  0  0  0  0
 34 49  1  0  0  0  0
 35 33  1  0  0  0  0
 36 35  1  0  0  0  0
 37 35  2  0  0  0  0
 39 26  1  0  0  0  0
 41 29  1  0  0  0  0
 43 30  1  0  0  0  0
 45 31  1  0  0  0  0
 46 32  1  0  0  0  0
M  END
$$$$
