PAS.pdb
 OpenBabel07022419023D

 37 37  0  0  1  0  0  0  0  0999 V2000
   -3.5090   -1.0400   -0.3430 N   0  0  0  0  0  0  0  0  0  0  0  0
   -4.3690   -0.6720    0.7920 C   0  0  0  0  0  0  0  0  0  0  0  0
   -3.4350   -0.4810    1.9570 C   0  0  0  0  0  0  0  0  0  0  0  0
   -2.0640   -0.4750    1.3540 C   0  0  0  0  0  0  0  0  0  0  0  0
   -2.3600   -0.2220   -0.1170 C   0  0  1  0  0  0  0  0  0  0  0  0
   -1.1650   -0.6830   -0.8730 C   0  0  0  0  0  0  0  0  0  0  0  0
   -1.2630   -1.7000   -1.6070 O   0  0  0  0  0  0  0  0  0  0  0  0
   -4.0130   -0.8470   -1.2340 H   0  0  0  0  0  0  0  0  0  0  0  0
   -4.9280    0.2700    0.5620 H   0  0  0  0  0  0  0  0  0  0  0  0
   -5.1410   -1.4480    0.9770 H   0  0  0  0  0  0  0  0  0  0  0  0
   -3.5480   -1.2660    2.7300 H   0  0  0  0  0  0  0  0  0  0  0  0
   -3.5910    0.4940    2.4710 H   0  0  0  0  0  0  0  0  0  0  0  0
   -1.3860    0.2670    1.7820 H   0  0  0  0  0  0  0  0  0  0  0  0
   -1.6720   -1.5240    1.4130 H   0  0  0  0  0  0  0  0  0  0  0  0
   -2.5710    0.8420   -0.2660 H   0  0  0  0  0  0  0  0  0  0  0  0
    1.7970    0.6410   -2.4310 C   0  0  0  0  0  0  0  0  0  0  0  0
    1.2640   -0.4560   -1.5290 C   0  0  2  0  0  0  0  0  0  0  0  0
    0.0850   -0.0410   -0.8140 N   0  0  0  0  0  0  0  0  0  0  0  0
    2.3380   -0.7510   -0.5390 C   0  0  0  0  0  0  0  0  0  0  0  0
    3.4540   -1.1320   -0.9770 O   0  0  0  0  0  0  0  0  0  0  0  0
    2.8690    0.3830   -2.6280 H   0  0  0  0  0  0  0  0  0  0  0  0
    1.2290    0.7220   -3.3730 H   0  0  0  0  0  0  0  0  0  0  0  0
    1.8160    1.6060   -1.8770 H   0  0  0  0  0  0  0  0  0  0  0  0
    1.1180   -1.3430   -2.1500 H   0  0  0  0  0  0  0  0  0  0  0  0
    0.1690    0.8030   -0.2060 H   0  0  0  0  0  0  0  0  0  0  0  0
    2.4560    0.8120    3.3590 O   0  0  0  0  0  0  0  0  0  0  0  0
    3.5430    0.3180    2.6510 C   0  0  0  0  0  0  0  0  0  0  0  0
    3.1800   -0.9000    1.8300 C   0  0  2  0  0  0  0  0  0  0  0  0
    2.1530   -0.6200    0.8650 N   0  0  0  0  0  0  0  0  0  0  0  0
    2.7580   -2.0300    2.7060 C   0  0  0  0  0  0  0  0  0  0  0  0
    3.4900   -2.4580    3.6280 O   0  0  0  0  0  0  0  0  0  0  0  0
    1.5190   -2.6710    2.5430 O   0  0  0  0  0  0  0  0  0  0  0  0
    2.7000    1.1730    4.2400 H   0  0  0  0  0  0  0  0  0  0  0  0
    4.3210    0.0600    3.3880 H   0  0  0  0  0  0  0  0  0  0  0  0
    3.9430    1.0890    1.9830 H   0  0  0  0  0  0  0  0  0  0  0  0
    4.0830   -1.2190    1.2810 H   0  0  0  0  0  0  0  0  0  0  0  0
    1.1940   -0.2960    1.1740 H   0  0  0  0  0  0  0  0  0  0  0  0
  1  5  1  0  0  0  0
  1  2  1  0  0  0  0
  2 10  1  0  0  0  0
  2  3  1  0  0  0  0
  3 12  1  0  0  0  0
  3 11  1  0  0  0  0
  4 14  1  0  0  0  0
  4 13  1  0  0  0  0
  4  3  1  0  0  0  0
  5 15  1  6  0  0  0
  5  4  1  0  0  0  0
  6 18  1  0  0  0  0
  6  5  1  0  0  0  0
  7  6  2  0  0  0  0
  8  1  1  0  0  0  0
  9  2  1  0  0  0  0
 16 23  1  0  0  0  0
 16 17  1  0  0  0  0
 17 24  1  6  0  0  0
 17 18  1  0  0  0  0
 17 19  1  0  0  0  0
 18 25  1  0  0  0  0
 19 29  1  0  0  0  0
 20 19  2  0  0  0  0
 21 16  1  0  0  0  0
 22 16  1  0  0  0  0
 26 33  1  0  0  0  0
 27 26  1  0  0  0  0
 27 34  1  0  0  0  0
 28 36  1  6  0  0  0
 28 27  1  0  0  0  0
 28 30  1  0  0  0  0
 29 37  1  0  0  0  0
 29 28  1  0  0  0  0
 30 31  1  0  0  0  0
 32 30  2  0  0  0  0
 35 27  1  0  0  0  0
M  END
$$$$
