PAT.pdb
 OpenBabel07022419023D

 40 40  0  0  1  0  0  0  0  0999 V2000
   -1.5420   -2.4940    0.7730 N   0  0  0  0  0  0  0  0  0  0  0  0
   -2.7320   -3.1960    0.4130 C   0  0  0  0  0  0  0  0  0  0  0  0
   -2.3440   -4.5720   -0.0630 C   0  0  0  0  0  0  0  0  0  0  0  0
   -0.9130   -4.3820   -0.5010 C   0  0  0  0  0  0  0  0  0  0  0  0
   -0.4200   -3.3590    0.5070 C   0  0  1  0  0  0  0  0  0  0  0  0
    0.7370   -2.5700   -0.0520 C   0  0  0  0  0  0  0  0  0  0  0  0
    1.8170   -3.1230   -0.3550 O   0  0  0  0  0  0  0  0  0  0  0  0
   -1.5740   -2.1210    1.7360 H   0  0  0  0  0  0  0  0  0  0  0  0
   -3.4030   -3.3360    1.2870 H   0  0  0  0  0  0  0  0  0  0  0  0
   -3.3490   -2.6460   -0.3540 H   0  0  0  0  0  0  0  0  0  0  0  0
   -2.3170   -5.2760    0.8060 H   0  0  0  0  0  0  0  0  0  0  0  0
   -2.9930   -4.9390   -0.8790 H   0  0  0  0  0  0  0  0  0  0  0  0
   -0.8650   -3.9390   -1.5120 H   0  0  0  0  0  0  0  0  0  0  0  0
   -0.3010   -5.2770   -0.3740 H   0  0  0  0  0  0  0  0  0  0  0  0
   -0.0850   -3.8000    1.4470 H   0  0  0  0  0  0  0  0  0  0  0  0
    1.2990    0.1730   -2.1080 C   0  0  0  0  0  0  0  0  0  0  0  0
    1.7590   -0.3920   -0.7980 C   0  0  2  0  0  0  0  0  0  0  0  0
    0.6300   -1.1640   -0.2520 N   0  0  0  0  0  0  0  0  0  0  0  0
    2.1410    0.6620    0.1800 C   0  0  0  0  0  0  0  0  0  0  0  0
    3.0980    1.4120   -0.1420 O   0  0  0  0  0  0  0  0  0  0  0  0
    1.6470    1.2070   -2.2970 H   0  0  0  0  0  0  0  0  0  0  0  0
    0.1890    0.1950   -2.1770 H   0  0  0  0  0  0  0  0  0  0  0  0
    1.6390   -0.4550   -2.9650 H   0  0  0  0  0  0  0  0  0  0  0  0
    2.6190   -1.0600   -1.0000 H   0  0  0  0  0  0  0  0  0  0  0  0
   -0.2680   -0.6960   -0.0020 H   0  0  0  0  0  0  0  0  0  0  0  0
    0.3610    3.5240    1.3530 C   0  0  0  0  0  0  0  0  0  0  0  0
    0.7370    2.8530    2.6570 C   0  0  1  0  0  0  0  0  0  0  0  0
   -0.3820    2.2380    3.1670 O   0  0  0  0  0  0  0  0  0  0  0  0
    1.8750    1.8890    2.3750 C   0  0  2  0  0  0  0  0  0  0  0  0
    1.5160    0.8740    1.4200 N   0  0  0  0  0  0  0  0  0  0  0  0
    2.3390    1.2220    3.6180 C   0  0  0  0  0  0  0  0  0  0  0  0
    2.7040    1.9230    4.5920 O   0  0  0  0  0  0  0  0  0  0  0  0
    2.3760   -0.1590    3.7220 O   0  0  0  0  0  0  0  0  0  0  0  0
   -0.4890    4.2120    1.4630 H   0  0  0  0  0  0  0  0  0  0  0  0
    1.2290    4.1590    1.0080 H   0  0  0  0  0  0  0  0  0  0  0  0
    0.1990    2.7810    0.5400 H   0  0  0  0  0  0  0  0  0  0  0  0
    1.1460    3.6420    3.3240 H   0  0  0  0  0  0  0  0  0  0  0  0
   -0.8560    2.7810    3.8460 H   0  0  0  0  0  0  0  0  0  0  0  0
    2.7290    2.5190    2.0270 H   0  0  0  0  0  0  0  0  0  0  0  0
    0.7230    0.2450    1.6760 H   0  0  0  0  0  0  0  0  0  0  0  0
  1  8  1  0  0  0  0
  2  1  1  0  0  0  0
  2  9  1  0  0  0  0
  3  2  1  0  0  0  0
  3 11  1  0  0  0  0
  4 14  1  0  0  0  0
  4  3  1  0  0  0  0
  4  5  1  0  0  0  0
  5  1  1  0  0  0  0
  5 15  1  1  0  0  0
  6  5  1  0  0  0  0
  7  6  2  0  0  0  0
 10  2  1  0  0  0  0
 12  3  1  0  0  0  0
 13  4  1  0  0  0  0
 16 17  1  0  0  0  0
 17 24  1  6  0  0  0
 17 18  1  0  0  0  0
 17 19  1  0  0  0  0
 18  6  1  0  0  0  0
 18 25  1  0  0  0  0
 19 30  1  0  0  0  0
 20 19  2  0  0  0  0
 21 16  1  0  0  0  0
 22 16  1  0  0  0  0
 23 16  1  0  0  0  0
 26 34  1  0  0  0  0
 26 27  1  0  0  0  0
 27 28  1  0  0  0  0
 27 37  1  1  0  0  0
 28 38  1  0  0  0  0
 29 39  1  6  0  0  0
 29 27  1  0  0  0  0
 29 31  1  0  0  0  0
 30 40  1  0  0  0  0
 30 29  1  0  0  0  0
 31 33  2  0  0  0  0
 31 32  1  0  0  0  0
 35 26  1  0  0  0  0
 36 26  1  0  0  0  0
M  END
$$$$
