PAW.pdb
 OpenBabel07022419023D

 50 52  0  0  1  0  0  0  0  0999 V2000
    3.1870   -3.8000    2.8770 N   0  0  0  0  0  0  0  0  0  0  0  0
    2.1380   -4.6940    3.3050 C   0  0  0  0  0  0  0  0  0  0  0  0
    0.8490   -4.2080    2.7180 C   0  0  0  0  0  0  0  0  0  0  0  0
    1.2200   -3.2110    1.6710 C   0  0  0  0  0  0  0  0  0  0  0  0
    2.7020   -3.0570    1.7550 C   0  0  1  0  0  0  0  0  0  0  0  0
    3.1250   -1.6340    1.8740 C   0  0  0  0  0  0  0  0  0  0  0  0
    3.8200   -1.2520    2.8740 O   0  0  0  0  0  0  0  0  0  0  0  0
    3.4560   -3.2010    3.7020 H   0  0  0  0  0  0  0  0  0  0  0  0
    2.0340   -4.6920    4.4220 H   0  0  0  0  0  0  0  0  0  0  0  0
    2.3160   -5.7380    2.9610 H   0  0  0  0  0  0  0  0  0  0  0  0
    0.2790   -5.0290    2.1960 H   0  0  0  0  0  0  0  0  0  0  0  0
    0.1410   -3.8100    3.4820 H   0  0  0  0  0  0  0  0  0  0  0  0
    0.8360   -3.4630    0.6620 H   0  0  0  0  0  0  0  0  0  0  0  0
    0.7560   -2.2200    1.9280 H   0  0  0  0  0  0  0  0  0  0  0  0
    3.1540   -3.5200    0.8370 H   0  0  0  0  0  0  0  0  0  0  0  0
    4.0400    1.1320   -0.1890 C   0  0  0  0  0  0  0  0  0  0  0  0
    3.1620    0.7250    0.9690 C   0  0  2  0  0  0  0  0  0  0  0  0
    2.7670   -0.6680    0.8830 N   0  0  0  0  0  0  0  0  0  0  0  0
    1.9400    1.5970    1.0870 C   0  0  0  0  0  0  0  0  0  0  0  0
    2.1610    2.8430    1.1610 O   0  0  0  0  0  0  0  0  0  0  0  0
    4.3180    0.2260   -0.7710 H   0  0  0  0  0  0  0  0  0  0  0  0
    5.0230    1.5520    0.1720 H   0  0  0  0  0  0  0  0  0  0  0  0
    3.5350    1.8920   -0.8410 H   0  0  0  0  0  0  0  0  0  0  0  0
    3.7720    0.8540    1.9120 H   0  0  0  0  0  0  0  0  0  0  0  0
    2.1970   -0.9890    0.0670 H   0  0  0  0  0  0  0  0  0  0  0  0
    0.6330    1.0610    1.1120 N   0  0  0  0  0  0  0  0  0  0  0  0
   -0.5200    1.9040    1.2250 C   0  0  1  0  0  0  0  0  0  0  0  0
   -1.4780    1.8640    0.0950 C   0  0  0  0  0  0  0  0  0  0  0  0
   -2.0990    0.5790   -0.2030 C   0  0  0  0  0  0  0  0  0  0  0  0
   -2.1210   -0.5620    0.5410 C   0  0  0  0  0  0  0  0  0  0  0  0
   -2.8290   -1.5200   -0.1240 N   0  0  0  0  0  0  0  0  0  0  0  0
   -3.2730   -1.0060   -1.3070 C   0  0  0  0  0  0  0  0  0  0  0  0
   -4.0200   -1.5780   -2.3100 C   0  0  0  0  0  0  0  0  0  0  0  0
   -4.3340   -0.8280   -3.4120 C   0  0  0  0  0  0  0  0  0  0  0  0
   -3.8820    0.4930   -3.4740 C   0  0  0  0  0  0  0  0  0  0  0  0
   -3.1420    1.0400   -2.4700 C   0  0  0  0  0  0  0  0  0  0  0  0
   -2.8250    0.2960   -1.3660 C   0  0  0  0  0  0  0  0  0  0  0  0
   -1.1960    1.7420    2.5550 C   0  0  0  0  0  0  0  0  0  0  0  0
   -0.7470    0.9650    3.4330 O   0  0  0  0  0  0  0  0  0  0  0  0
   -2.3460    2.4480    2.8590 O   0  0  0  0  0  0  0  0  0  0  0  0
    0.5160    0.0400    1.0460 H   0  0  0  0  0  0  0  0  0  0  0  0
   -0.1300    2.9750    1.2440 H   0  0  0  0  0  0  0  0  0  0  0  0
   -0.9870    2.2300   -0.8570 H   0  0  0  0  0  0  0  0  0  0  0  0
   -2.2410    2.6760    0.2980 H   0  0  0  0  0  0  0  0  0  0  0  0
   -1.6690   -0.7210    1.5050 H   0  0  0  0  0  0  0  0  0  0  0  0
   -3.0220   -2.4960    0.1880 H   0  0  0  0  0  0  0  0  0  0  0  0
   -4.3580   -2.5890   -2.2440 H   0  0  0  0  0  0  0  0  0  0  0  0
   -4.9290   -1.2260   -4.2490 H   0  0  0  0  0  0  0  0  0  0  0  0
   -4.1360    1.0720   -4.3490 H   0  0  0  0  0  0  0  0  0  0  0  0
   -2.7720    2.0700   -2.4860 H   0  0  0  0  0  0  0  0  0  0  0  0
  1  2  1  0  0  0  0
  1  8  1  0  0  0  0
  2  9  1  0  0  0  0
  3  2  1  0  0  0  0
  3 12  1  0  0  0  0
  4  5  1  0  0  0  0
  4 14  1  0  0  0  0
  4  3  1  0  0  0  0
  5 15  1  6  0  0  0
  5  6  1  0  0  0  0
  5  1  1  0  0  0  0
  6  7  2  0  0  0  0
 10  2  1  0  0  0  0
 11  3  1  0  0  0  0
 13  4  1  0  0  0  0
 16 22  1  0  0  0  0
 16 17  1  0  0  0  0
 17 19  1  0  0  0  0
 17 24  1  1  0  0  0
 18 17  1  0  0  0  0
 18  6  1  0  0  0  0
 19 26  1  0  0  0  0
 19 20  2  0  0  0  0
 21 16  1  0  0  0  0
 23 16  1  0  0  0  0
 25 18  1  0  0  0  0
 26 27  1  0  0  0  0
 27 42  1  1  0  0  0
 27 38  1  0  0  0  0
 28 44  1  0  0  0  0
 28 27  1  0  0  0  0
 29 28  1  0  0  0  0
 29 30  2  0  0  0  0
 30 45  1  0  0  0  0
 31 46  1  0  0  0  0
 31 30  1  0  0  0  0
 32 31  1  0  0  0  0
 33 47  1  0  0  0  0
 33 32  2  0  0  0  0
 34 33  1  0  0  0  0
 35 34  2  0  0  0  0
 35 36  1  0  0  0  0
 36 37  2  0  0  0  0
 37 32  1  0  0  0  0
 37 29  1  0  0  0  0
 38 40  2  0  0  0  0
 38 39  1  0  0  0  0
 41 26  1  0  0  0  0
 43 28  1  0  0  0  0
 48 34  1  0  0  0  0
 49 35  1  0  0  0  0
 50 36  1  0  0  0  0
M  END
$$$$
