PAY.pdb
 OpenBabel07022419023D

 47 48  0  0  1  0  0  0  0  0999 V2000
    3.2500   -3.7680   -1.1470 N   0  0  0  0  0  0  0  0  0  0  0  0
    2.5500   -4.6390   -2.0390 C   0  0  0  0  0  0  0  0  0  0  0  0
    1.2420   -3.9550   -2.3910 C   0  0  0  0  0  0  0  0  0  0  0  0
    1.0820   -2.9510   -1.2740 C   0  0  0  0  0  0  0  0  0  0  0  0
    2.5030   -2.5590   -0.9840 C   0  0  1  0  0  0  0  0  0  0  0  0
    2.5410   -2.0670    0.4280 C   0  0  0  0  0  0  0  0  0  0  0  0
    3.1830   -2.7240    1.2720 O   0  0  0  0  0  0  0  0  0  0  0  0
    4.2520   -3.5840   -1.4410 H   0  0  0  0  0  0  0  0  0  0  0  0
    3.1400   -4.8450   -2.9550 H   0  0  0  0  0  0  0  0  0  0  0  0
    2.3130   -5.6120   -1.5280 H   0  0  0  0  0  0  0  0  0  0  0  0
    0.3930   -4.6790   -2.3460 H   0  0  0  0  0  0  0  0  0  0  0  0
    1.3020   -3.4710   -3.3780 H   0  0  0  0  0  0  0  0  0  0  0  0
    0.4890   -2.0720   -1.5990 H   0  0  0  0  0  0  0  0  0  0  0  0
    0.6090   -3.3930   -0.3880 H   0  0  0  0  0  0  0  0  0  0  0  0
    2.8520   -1.7860   -1.6980 H   0  0  0  0  0  0  0  0  0  0  0  0
    2.4410    1.0550    2.1550 C   0  0  0  0  0  0  0  0  0  0  0  0
    1.8770   -0.3710    2.1670 C   0  0  2  0  0  0  0  0  0  0  0  0
    1.8740   -0.8920    0.8170 N   0  0  0  0  0  0  0  0  0  0  0  0
    0.4980   -0.3240    2.6640 C   0  0  0  0  0  0  0  0  0  0  0  0
    0.1810    0.0930    3.8110 O   0  0  0  0  0  0  0  0  0  0  0  0
    2.2500    1.5020    3.1510 H   0  0  0  0  0  0  0  0  0  0  0  0
    1.9650    1.6280    1.3430 H   0  0  0  0  0  0  0  0  0  0  0  0
    3.5350    0.9770    1.9560 H   0  0  0  0  0  0  0  0  0  0  0  0
    2.4860   -1.0100    2.8510 H   0  0  0  0  0  0  0  0  0  0  0  0
    1.3490   -0.3650    0.0930 H   0  0  0  0  0  0  0  0  0  0  0  0
   -1.2580    5.4430    0.7310 O   0  0  0  0  0  0  0  0  0  0  0  0
   -1.6570    4.1120    0.8950 C   0  0  0  0  0  0  0  0  0  0  0  0
   -2.5450    3.7300    1.8840 C   0  0  0  0  0  0  0  0  0  0  0  0
   -2.9580    2.4310    2.0730 C   0  0  0  0  0  0  0  0  0  0  0  0
   -2.4780    1.4620    1.2530 C   0  0  0  0  0  0  0  0  0  0  0  0
   -2.8450    0.0250    1.3500 C   0  0  0  0  0  0  0  0  0  0  0  0
   -1.9450   -0.7510    2.2460 C   0  0  2  0  0  0  0  0  0  0  0  0
   -0.5640   -0.7570    1.8540 N   0  0  0  0  0  0  0  0  0  0  0  0
   -2.4250   -2.1550    2.2850 C   0  0  0  0  0  0  0  0  0  0  0  0
   -1.6590   -3.1140    2.0010 O   0  0  0  0  0  0  0  0  0  0  0  0
   -1.5920    1.7990    0.2550 C   0  0  0  0  0  0  0  0  0  0  0  0
   -1.1870    3.1060    0.0780 C   0  0  0  0  0  0  0  0  0  0  0  0
   -3.7570   -2.4470    2.6420 O   0  0  0  0  0  0  0  0  0  0  0  0
   -0.9720    5.9320    1.5890 H   0  0  0  0  0  0  0  0  0  0  0  0
   -2.9190    4.5130    2.5300 H   0  0  0  0  0  0  0  0  0  0  0  0
   -3.6660    2.1550    2.8680 H   0  0  0  0  0  0  0  0  0  0  0  0
   -3.8630   -0.0010    1.7960 H   0  0  0  0  0  0  0  0  0  0  0  0
   -2.9550   -0.4400    0.3410 H   0  0  0  0  0  0  0  0  0  0  0  0
   -2.0260   -0.3560    3.2730 H   0  0  0  0  0  0  0  0  0  0  0  0
   -0.3660   -1.1190    0.8800 H   0  0  0  0  0  0  0  0  0  0  0  0
   -1.1870    1.0400   -0.4240 H   0  0  0  0  0  0  0  0  0  0  0  0
   -0.4830    3.3700   -0.7160 H   0  0  0  0  0  0  0  0  0  0  0  0
  1  5  1  0  0  0  0
  2 10  1  0  0  0  0
  2  1  1  0  0  0  0
  3 11  1  0  0  0  0
  3  2  1  0  0  0  0
  3  4  1  0  0  0  0
  4  5  1  0  0  0  0
  4 14  1  0  0  0  0
  5 15  1  6  0  0  0
  5  6  1  0  0  0  0
  6 18  1  0  0  0  0
  6  7  2  0  0  0  0
  8  1  1  0  0  0  0
  9  2  1  0  0  0  0
 12  3  1  0  0  0  0
 13  4  1  0  0  0  0
 16 17  1  0  0  0  0
 16 21  1  0  0  0  0
 17 19  1  0  0  0  0
 17 24  1  1  0  0  0
 18 17  1  0  0  0  0
 19 20  2  0  0  0  0
 22 16  1  0  0  0  0
 23 16  1  0  0  0  0
 25 18  1  0  0  0  0
 26 27  1  0  0  0  0
 26 39  1  0  0  0  0
 27 28  1  0  0  0  0
 28 29  2  0  0  0  0
 28 40  1  0  0  0  0
 29 41  1  0  0  0  0
 30 31  1  0  0  0  0
 30 29  1  0  0  0  0
 31 42  1  0  0  0  0
 31 32  1  0  0  0  0
 32 34  1  0  0  0  0
 32 44  1  1  0  0  0
 33 32  1  0  0  0  0
 33 19  1  0  0  0  0
 34 38  1  0  0  0  0
 35 34  2  0  0  0  0
 36 30  2  0  0  0  0
 37 36  1  0  0  0  0
 37 27  2  0  0  0  0
 43 31  1  0  0  0  0
 45 33  1  0  0  0  0
 46 36  1  0  0  0  0
 47 37  1  0  0  0  0
M  END
$$$$
