PCA.pdb
 OpenBabel07022419033D

 37 37  0  0  1  0  0  0  0  0999 V2000
   -1.4780   -2.3260    1.2090 N   0  0  0  0  0  0  0  0  0  0  0  0
   -2.4110   -3.3830    1.5830 C   0  0  0  0  0  0  0  0  0  0  0  0
   -1.6700   -4.6740    1.4610 C   0  0  0  0  0  0  0  0  0  0  0  0
   -0.2580   -4.2810    1.1210 C   0  0  0  0  0  0  0  0  0  0  0  0
   -0.1680   -2.8510    1.5410 C   0  0  1  0  0  0  0  0  0  0  0  0
    0.8990   -2.0990    0.8540 C   0  0  0  0  0  0  0  0  0  0  0  0
    2.1220   -2.4040    0.9700 O   0  0  0  0  0  0  0  0  0  0  0  0
   -1.4840   -2.2640    0.1410 H   0  0  0  0  0  0  0  0  0  0  0  0
   -2.7020   -3.1750    2.6490 H   0  0  0  0  0  0  0  0  0  0  0  0
   -3.3140   -3.3500    0.9510 H   0  0  0  0  0  0  0  0  0  0  0  0
   -2.1050   -5.2480    0.6150 H   0  0  0  0  0  0  0  0  0  0  0  0
   -1.6540   -5.2620    2.3890 H   0  0  0  0  0  0  0  0  0  0  0  0
    0.4810   -4.9320    1.6710 H   0  0  0  0  0  0  0  0  0  0  0  0
   -0.0700   -4.3750    0.0340 H   0  0  0  0  0  0  0  0  0  0  0  0
   -0.0230   -2.7750    2.6590 H   0  0  0  0  0  0  0  0  0  0  0  0
    0.6350   -0.9820    0.0180 N   0  0  0  0  0  0  0  0  0  0  0  0
    1.7280   -0.2700   -0.6420 C   0  0  1  0  0  0  0  0  0  0  0  0
    1.5440   -0.2250   -2.1310 C   0  0  0  0  0  0  0  0  0  0  0  0
    2.9540    0.6770   -2.8320 S   0  0  0  0  0  0  0  0  0  0  0  0
    1.6910    1.1290   -0.1380 C   0  0  0  0  0  0  0  0  0  0  0  0
    2.5480    1.9800   -0.5590 O   0  0  0  0  0  0  0  0  0  0  0  0
   -0.3420   -0.6490   -0.1380 H   0  0  0  0  0  0  0  0  0  0  0  0
    2.7070   -0.7280   -0.3910 H   0  0  0  0  0  0  0  0  0  0  0  0
    1.5460   -1.2330   -2.5970 H   0  0  0  0  0  0  0  0  0  0  0  0
    0.6110    0.3370   -2.3640 H   0  0  0  0  0  0  0  0  0  0  0  0
    2.4940    1.5740   -3.7950 H   0  0  0  0  0  0  0  0  0  0  0  0
   -0.6760    3.5030    0.9730 C   0  0  0  0  0  0  0  0  0  0  0  0
    0.6870    2.9340    1.3000 C   0  0  2  0  0  0  0  0  0  0  0  0
    0.7270    1.5730    0.8070 N   0  0  0  0  0  0  0  0  0  0  0  0
    0.9420    2.9900    2.7650 C   0  0  0  0  0  0  0  0  0  0  0  0
    0.9480    4.0850    3.3750 O   0  0  0  0  0  0  0  0  0  0  0  0
    1.1760    1.8370    3.4800 O   0  0  0  0  0  0  0  0  0  0  0  0
   -1.4060    2.6540    0.9120 H   0  0  0  0  0  0  0  0  0  0  0  0
   -0.6370    4.0230   -0.0090 H   0  0  0  0  0  0  0  0  0  0  0  0
   -0.9830    4.1930    1.7850 H   0  0  0  0  0  0  0  0  0  0  0  0
    1.5110    3.5020    0.8110 H   0  0  0  0  0  0  0  0  0  0  0  0
    0.0250    0.8840    1.1540 H   0  0  0  0  0  0  0  0  0  0  0  0
  1  5  1  0  0  0  0
  1  2  1  0  0  0  0
  2  9  1  0  0  0  0
  3  2  1  0  0  0  0
  3 12  1  0  0  0  0
  4  3  1  0  0  0  0
  4  5  1  0  0  0  0
  4 13  1  0  0  0  0
  5 15  1  1  0  0  0
  6  7  2  0  0  0  0
  6  5  1  0  0  0  0
  8  1  1  0  0  0  0
 10  2  1  0  0  0  0
 11  3  1  0  0  0  0
 14  4  1  0  0  0  0
 16  6  1  0  0  0  0
 17 23  1  1  0  0  0
 17 20  1  0  0  0  0
 17 16  1  0  0  0  0
 18 17  1  0  0  0  0
 19 18  1  0  0  0  0
 20 29  1  0  0  0  0
 21 20  2  0  0  0  0
 22 16  1  0  0  0  0
 24 18  1  0  0  0  0
 25 18  1  0  0  0  0
 26 19  1  0  0  0  0
 27 28  1  0  0  0  0
 27 35  1  0  0  0  0
 28 36  1  6  0  0  0
 28 30  1  0  0  0  0
 29 37  1  0  0  0  0
 29 28  1  0  0  0  0
 30 31  2  0  0  0  0
 30 32  1  0  0  0  0
 33 27  1  0  0  0  0
 34 27  1  0  0  0  0
M  END
$$$$
