PCC.pdb
 OpenBabel07022419033D

 38 38  0  0  1  0  0  0  0  0999 V2000
    2.4360   -1.9040    1.4390 N   0  0  0  0  0  0  0  0  0  0  0  0
    2.5420   -3.3320    1.5910 C   0  0  0  0  0  0  0  0  0  0  0  0
    3.3140   -3.8710    0.4330 C   0  0  0  0  0  0  0  0  0  0  0  0
    3.2940   -2.7780   -0.5870 C   0  0  0  0  0  0  0  0  0  0  0  0
    2.6260   -1.5930    0.0590 C   0  0  1  0  0  0  0  0  0  0  0  0
    1.3710   -1.2070   -0.6330 C   0  0  0  0  0  0  0  0  0  0  0  0
    1.4170   -0.9110   -1.8550 O   0  0  0  0  0  0  0  0  0  0  0  0
    3.0710   -1.3820    2.0880 H   0  0  0  0  0  0  0  0  0  0  0  0
    3.0740   -3.5100    2.5670 H   0  0  0  0  0  0  0  0  0  0  0  0
    1.5400   -3.7790    1.7160 H   0  0  0  0  0  0  0  0  0  0  0  0
    4.3230   -4.1510    0.7830 H   0  0  0  0  0  0  0  0  0  0  0  0
    2.7560   -4.7610    0.0280 H   0  0  0  0  0  0  0  0  0  0  0  0
    2.8250   -3.0780   -1.5380 H   0  0  0  0  0  0  0  0  0  0  0  0
    4.3710   -2.5510   -0.8400 H   0  0  0  0  0  0  0  0  0  0  0  0
    3.3240   -0.7330   -0.0110 H   0  0  0  0  0  0  0  0  0  0  0  0
    0.1080   -1.1470   -0.0040 N   0  0  0  0  0  0  0  0  0  0  0  0
   -1.1170   -0.7670   -0.6900 C   0  0  1  0  0  0  0  0  0  0  0  0
   -2.0740   -1.9350   -0.5850 C   0  0  0  0  0  0  0  0  0  0  0  0
   -3.6430   -1.5650   -1.4130 S   0  0  0  0  0  0  0  0  0  0  0  0
   -1.6450    0.4320    0.0180 C   0  0  0  0  0  0  0  0  0  0  0  0
   -2.7180    0.9590   -0.3940 O   0  0  0  0  0  0  0  0  0  0  0  0
    0.0440   -1.3870    1.0060 H   0  0  0  0  0  0  0  0  0  0  0  0
   -0.9550   -0.5330   -1.7450 H   0  0  0  0  0  0  0  0  0  0  0  0
   -2.2250   -2.2380    0.4610 H   0  0  0  0  0  0  0  0  0  0  0  0
   -1.6030   -2.7830   -1.1240 H   0  0  0  0  0  0  0  0  0  0  0  0
   -3.3650   -0.6200   -2.4360 H   0  0  0  0  0  0  0  0  0  0  0  0
   -1.0190    1.0270    1.1320 N   0  0  0  0  0  0  0  0  0  0  0  0
   -1.5280    2.1940    1.8240 C   0  0  1  0  0  0  0  0  0  0  0  0
   -1.8720    1.7900    3.2480 C   0  0  0  0  0  0  0  0  0  0  0  0
   -2.5170    3.2570    4.1380 S   0  0  0  0  0  0  0  0  0  0  0  0
   -0.5700    3.3160    1.7990 C   0  0  0  0  0  0  0  0  0  0  0  0
   -0.8530    4.4070    2.3540 O   0  0  0  0  0  0  0  0  0  0  0  0
    0.6780    3.2310    1.1710 O   0  0  0  0  0  0  0  0  0  0  0  0
   -0.1340    0.6060    1.4840 H   0  0  0  0  0  0  0  0  0  0  0  0
   -2.4720    2.5610    1.3700 H   0  0  0  0  0  0  0  0  0  0  0  0
   -2.6690    1.0290    3.2760 H   0  0  0  0  0  0  0  0  0  0  0  0
   -0.9940    1.3940    3.7980 H   0  0  0  0  0  0  0  0  0  0  0  0
   -1.6300    3.6490    5.1470 H   0  0  0  0  0  0  0  0  0  0  0  0
  1  2  1  0  0  0  0
  1  8  1  0  0  0  0
  2 10  1  0  0  0  0
  2  9  1  0  0  0  0
  3 11  1  0  0  0  0
  3  2  1  0  0  0  0
  4  5  1  0  0  0  0
  4  3  1  0  0  0  0
  5 15  1  6  0  0  0
  5  1  1  0  0  0  0
  6 16  1  0  0  0  0
  6  5  1  0  0  0  0
  7  6  2  0  0  0  0
 12  3  1  0  0  0  0
 13  4  1  0  0  0  0
 14  4  1  0  0  0  0
 16 22  1  0  0  0  0
 17 23  1  6  0  0  0
 17 18  1  0  0  0  0
 17 16  1  0  0  0  0
 17 20  1  0  0  0  0
 18 24  1  0  0  0  0
 19 18  1  0  0  0  0
 20 27  1  0  0  0  0
 21 20  2  0  0  0  0
 25 18  1  0  0  0  0
 26 19  1  0  0  0  0
 27 34  1  0  0  0  0
 27 28  1  0  0  0  0
 28 35  1  6  0  0  0
 28 29  1  0  0  0  0
 29 36  1  0  0  0  0
 29 37  1  0  0  0  0
 29 30  1  0  0  0  0
 30 38  1  0  0  0  0
 31 28  1  0  0  0  0
 31 32  1  0  0  0  0
 33 31  2  0  0  0  0
M  END
$$$$
