PCD.pdb
 OpenBabel07022419033D

 40 40  0  0  1  0  0  0  0  0999 V2000
    0.3090   -3.4860    0.9460 N   0  0  0  0  0  0  0  0  0  0  0  0
    0.2210   -4.9550    1.0330 C   0  0  0  0  0  0  0  0  0  0  0  0
    1.0750   -5.4020   -0.1170 C   0  0  0  0  0  0  0  0  0  0  0  0
    2.2010   -4.3890   -0.1370 C   0  0  0  0  0  0  0  0  0  0  0  0
    1.6810   -3.2090    0.6290 C   0  0  1  0  0  0  0  0  0  0  0  0
    1.8940   -1.9080   -0.0100 C   0  0  0  0  0  0  0  0  0  0  0  0
    3.0550   -1.5280   -0.3520 O   0  0  0  0  0  0  0  0  0  0  0  0
   -0.2660   -3.2510    0.1010 H   0  0  0  0  0  0  0  0  0  0  0  0
    0.6340   -5.2670    1.9920 H   0  0  0  0  0  0  0  0  0  0  0  0
   -0.8390   -5.2690    0.8910 H   0  0  0  0  0  0  0  0  0  0  0  0
    0.5170   -5.3450   -1.0730 H   0  0  0  0  0  0  0  0  0  0  0  0
    1.4800   -6.4290    0.0600 H   0  0  0  0  0  0  0  0  0  0  0  0
    3.0750   -4.8670    0.3700 H   0  0  0  0  0  0  0  0  0  0  0  0
    2.5170   -4.1390   -1.1720 H   0  0  0  0  0  0  0  0  0  0  0  0
    2.2380   -3.1790    1.6090 H   0  0  0  0  0  0  0  0  0  0  0  0
    0.8590   -0.9650   -0.3040 N   0  0  0  0  0  0  0  0  0  0  0  0
    1.1160    0.3130   -0.9370 C   0  0  1  0  0  0  0  0  0  0  0  0
    0.4200    0.3860   -2.2990 C   0  0  0  0  0  0  0  0  0  0  0  0
    0.7450    1.9860   -3.0850 S   0  0  0  0  0  0  0  0  0  0  0  0
    0.6000    1.3710   -0.0280 C   0  0  0  0  0  0  0  0  0  0  0  0
    0.6990    2.5900   -0.3530 O   0  0  0  0  0  0  0  0  0  0  0  0
   -0.1160   -1.2270   -0.0420 H   0  0  0  0  0  0  0  0  0  0  0  0
    2.1940    0.4290   -1.1410 H   0  0  0  0  0  0  0  0  0  0  0  0
   -0.6800    0.2000   -2.1780 H   0  0  0  0  0  0  0  0  0  0  0  0
    0.8880   -0.3930   -2.9340 H   0  0  0  0  0  0  0  0  0  0  0  0
    1.7360    1.8700   -4.0650 H   0  0  0  0  0  0  0  0  0  0  0  0
   -0.0120    1.1110    1.2090 N   0  0  0  0  0  0  0  0  0  0  0  0
   -0.5270    2.1180    2.1230 C   0  0  1  0  0  0  0  0  0  0  0  0
   -1.9560    1.9530    2.4410 C   0  0  0  0  0  0  0  0  0  0  0  0
   -2.4030    3.0370    3.3430 C   0  0  0  0  0  0  0  0  0  0  0  0
   -3.4970    2.9300    4.0050 O   0  0  0  0  0  0  0  0  0  0  0  0
    0.3610    2.0020    3.3340 C   0  0  0  0  0  0  0  0  0  0  0  0
    1.3090    1.1630    3.3870 O   0  0  0  0  0  0  0  0  0  0  0  0
   -1.7250    4.2260    3.5550 O   0  0  0  0  0  0  0  0  0  0  0  0
    0.1850    2.8010    4.4410 O   0  0  0  0  0  0  0  0  0  0  0  0
   -0.1170    0.1240    1.5200 H   0  0  0  0  0  0  0  0  0  0  0  0
   -0.3530    3.1020    1.6660 H   0  0  0  0  0  0  0  0  0  0  0  0
   -2.2170    0.9990    2.9400 H   0  0  0  0  0  0  0  0  0  0  0  0
   -2.5440    2.0890    1.4930 H   0  0  0  0  0  0  0  0  0  0  0  0
   -1.8680    4.7380    4.4040 H   0  0  0  0  0  0  0  0  0  0  0  0
  1  2  1  0  0  0  0
  2  9  1  0  0  0  0
  3 12  1  0  0  0  0
  3  2  1  0  0  0  0
  4  3  1  0  0  0  0
  4 13  1  0  0  0  0
  4  5  1  0  0  0  0
  5  1  1  0  0  0  0
  5 15  1  1  0  0  0
  6  5  1  0  0  0  0
  7  6  2  0  0  0  0
  8  1  1  0  0  0  0
 10  2  1  0  0  0  0
 11  3  1  0  0  0  0
 14  4  1  0  0  0  0
 16 22  1  0  0  0  0
 16  6  1  0  0  0  0
 17 23  1  6  0  0  0
 17 16  1  0  0  0  0
 17 20  1  0  0  0  0
 18 24  1  0  0  0  0
 18 17  1  0  0  0  0
 19 18  1  0  0  0  0
 20 27  1  0  0  0  0
 21 20  2  0  0  0  0
 25 18  1  0  0  0  0
 26 19  1  0  0  0  0
 27 36  1  0  0  0  0
 27 28  1  0  0  0  0
 28 37  1  6  0  0  0
 28 29  1  0  0  0  0
 28 32  1  0  0  0  0
 29 38  1  0  0  0  0
 29 30  1  0  0  0  0
 30 34  1  0  0  0  0
 30 31  2  0  0  0  0
 32 33  2  0  0  0  0
 32 35  1  0  0  0  0
 34 40  1  0  0  0  0
 39 29  1  0  0  0  0
M  END
$$$$
