PCG.pdb
 OpenBabel07022419033D

 34 34  0  0  1  0  0  0  0  0999 V2000
    1.3470   -3.7930    0.8530 N   0  0  0  0  0  0  0  0  0  0  0  0
    0.6530   -4.5510    1.8670 C   0  0  0  0  0  0  0  0  0  0  0  0
   -0.3070   -3.6320    2.5520 C   0  0  0  0  0  0  0  0  0  0  0  0
    0.0620   -2.2750    1.9870 C   0  0  0  0  0  0  0  0  0  0  0  0
    0.4760   -2.6960    0.5740 C   0  0  1  0  0  0  0  0  0  0  0  0
    1.1050   -1.5930   -0.1590 C   0  0  0  0  0  0  0  0  0  0  0  0
    2.3040   -1.6120   -0.5100 O   0  0  0  0  0  0  0  0  0  0  0  0
    1.5790   -4.3450    0.0060 H   0  0  0  0  0  0  0  0  0  0  0  0
    0.1150   -5.3900    1.3610 H   0  0  0  0  0  0  0  0  0  0  0  0
    1.3780   -4.9200    2.6220 H   0  0  0  0  0  0  0  0  0  0  0  0
   -0.2310   -3.6570    3.6560 H   0  0  0  0  0  0  0  0  0  0  0  0
   -1.3320   -3.8570    2.1820 H   0  0  0  0  0  0  0  0  0  0  0  0
    0.9510   -1.9090    2.5600 H   0  0  0  0  0  0  0  0  0  0  0  0
   -0.7750   -1.5720    1.9810 H   0  0  0  0  0  0  0  0  0  0  0  0
   -0.4420   -3.0860    0.0890 H   0  0  0  0  0  0  0  0  0  0  0  0
    0.3050   -0.4580   -0.4790 N   0  0  0  0  0  0  0  0  0  0  0  0
    0.8560    0.6820   -1.2070 C   0  0  1  0  0  0  0  0  0  0  0  0
    0.1080    0.7410   -2.5290 C   0  0  0  0  0  0  0  0  0  0  0  0
    0.6860    2.1200   -3.5540 S   0  0  0  0  0  0  0  0  0  0  0  0
    0.5700    1.9070   -0.4540 C   0  0  0  0  0  0  0  0  0  0  0  0
    0.9610    3.0330   -0.9050 O   0  0  0  0  0  0  0  0  0  0  0  0
   -0.6960   -0.4420   -0.1860 H   0  0  0  0  0  0  0  0  0  0  0  0
    1.9170    0.5250   -1.4480 H   0  0  0  0  0  0  0  0  0  0  0  0
   -0.9770    0.8940   -2.3270 H   0  0  0  0  0  0  0  0  0  0  0  0
    0.1830   -0.2380   -3.0790 H   0  0  0  0  0  0  0  0  0  0  0  0
    0.3560    1.8320   -4.9040 H   0  0  0  0  0  0  0  0  0  0  0  0
   -0.1310    1.9510    0.7820 N   0  0  0  0  0  0  0  0  0  0  0  0
   -0.3890    3.1890    1.4880 C   0  0  0  0  0  0  0  0  0  0  0  0
   -1.1380    2.8970    2.7370 C   0  0  0  0  0  0  0  0  0  0  0  0
   -1.4750    3.8230    3.5170 O   0  0  0  0  0  0  0  0  0  0  0  0
   -1.4870    1.6010    3.0800 O   0  0  0  0  0  0  0  0  0  0  0  0
   -0.4620    1.0590    1.1750 H   0  0  0  0  0  0  0  0  0  0  0  0
   -0.9970    3.9020    0.8940 H   0  0  0  0  0  0  0  0  0  0  0  0
    0.5870    3.6690    1.7900 H   0  0  0  0  0  0  0  0  0  0  0  0
  1  2  1  0  0  0  0
  2  3  1  0  0  0  0
  2 10  1  0  0  0  0
  3 11  1  0  0  0  0
  4  3  1  0  0  0  0
  4 13  1  0  0  0  0
  5 15  1  6  0  0  0
  5  1  1  0  0  0  0
  5  4  1  0  0  0  0
  6  5  1  0  0  0  0
  7  6  2  0  0  0  0
  8  1  1  0  0  0  0
  9  2  1  0  0  0  0
 12  3  1  0  0  0  0
 14  4  1  0  0  0  0
 16 22  1  0  0  0  0
 16  6  1  0  0  0  0
 17 23  1  6  0  0  0
 17 16  1  0  0  0  0
 17 20  1  0  0  0  0
 18 24  1  0  0  0  0
 18 17  1  0  0  0  0
 19 18  1  0  0  0  0
 20 27  1  0  0  0  0
 21 20  2  0  0  0  0
 25 18  1  0  0  0  0
 26 19  1  0  0  0  0
 27 32  1  0  0  0  0
 27 28  1  0  0  0  0
 28 34  1  0  0  0  0
 28 29  1  0  0  0  0
 29 31  2  0  0  0  0
 29 30  1  0  0  0  0
 33 28  1  0  0  0  0
M  END
$$$$
