PCI.pdb
 OpenBabel07022419033D

 46 46  0  0  1  0  0  0  0  0999 V2000
    2.8920   -2.0130   -0.1180 N   0  0  0  0  0  0  0  0  0  0  0  0
    4.2160   -2.6080   -0.2740 C   0  0  0  0  0  0  0  0  0  0  0  0
    4.0540   -3.3070   -1.6210 C   0  0  0  0  0  0  0  0  0  0  0  0
    3.2780   -2.2960   -2.4250 C   0  0  0  0  0  0  0  0  0  0  0  0
    2.6320   -1.3850   -1.4250 C   0  0  1  0  0  0  0  0  0  0  0  0
    1.1980   -1.1720   -1.6140 C   0  0  0  0  0  0  0  0  0  0  0  0
    0.7830   -0.6600   -2.6910 O   0  0  0  0  0  0  0  0  0  0  0  0
    2.2340   -2.8290   -0.0820 H   0  0  0  0  0  0  0  0  0  0  0  0
    4.9630   -1.8070   -0.3650 H   0  0  0  0  0  0  0  0  0  0  0  0
    4.3990   -3.3080    0.5470 H   0  0  0  0  0  0  0  0  0  0  0  0
    3.4550   -4.2330   -1.4320 H   0  0  0  0  0  0  0  0  0  0  0  0
    5.0490   -3.5400   -2.0590 H   0  0  0  0  0  0  0  0  0  0  0  0
    2.4750   -2.7840   -3.0350 H   0  0  0  0  0  0  0  0  0  0  0  0
    3.9520   -1.7370   -3.1210 H   0  0  0  0  0  0  0  0  0  0  0  0
    3.1920   -0.4270   -1.3940 H   0  0  0  0  0  0  0  0  0  0  0  0
    0.1700   -1.4880   -0.6810 N   0  0  0  0  0  0  0  0  0  0  0  0
   -1.2130   -1.2480   -0.9410 C   0  0  1  0  0  0  0  0  0  0  0  0
   -2.0620   -2.4850   -0.9730 C   0  0  0  0  0  0  0  0  0  0  0  0
   -1.4210   -3.5560   -2.2890 S   0  0  0  0  0  0  0  0  0  0  0  0
   -1.7810   -0.2080   -0.0100 C   0  0  0  0  0  0  0  0  0  0  0  0
   -2.9890    0.1330   -0.0910 O   0  0  0  0  0  0  0  0  0  0  0  0
    0.4690   -1.9110    0.2260 H   0  0  0  0  0  0  0  0  0  0  0  0
   -1.2890   -0.7950   -1.9540 H   0  0  0  0  0  0  0  0  0  0  0  0
   -3.0830   -2.1620   -1.3050 H   0  0  0  0  0  0  0  0  0  0  0  0
   -2.1800   -2.9850   -0.0190 H   0  0  0  0  0  0  0  0  0  0  0  0
   -1.7790   -2.9650   -3.5330 H   0  0  0  0  0  0  0  0  0  0  0  0
   -2.2290    1.3090    5.6440 C   0  0  0  0  0  0  0  0  0  0  0  0
   -2.0110    1.9730    4.2960 C   0  0  0  0  0  0  0  0  0  0  0  0
   -1.4820    0.9520    3.3160 C   0  0  2  0  0  0  0  0  0  0  0  0
   -0.1680    0.3710    3.7740 C   0  0  0  0  0  0  0  0  0  0  0  0
   -1.5020    1.4330    1.9040 C   0  0  2  0  0  0  0  0  0  0  0  0
   -0.9810    0.4170    0.9820 N   0  0  0  0  0  0  0  0  0  0  0  0
   -0.8780    2.7440    1.6660 C   0  0  0  0  0  0  0  0  0  0  0  0
    0.0190    2.9170    0.7680 O   0  0  0  0  0  0  0  0  0  0  0  0
   -1.1920    3.8950    2.3720 O   0  0  0  0  0  0  0  0  0  0  0  0
   -1.9500    0.2370    5.6340 H   0  0  0  0  0  0  0  0  0  0  0  0
   -3.2850    1.3890    5.9770 H   0  0  0  0  0  0  0  0  0  0  0  0
   -1.5690    1.8010    6.3910 H   0  0  0  0  0  0  0  0  0  0  0  0
   -2.9680    2.3700    3.9250 H   0  0  0  0  0  0  0  0  0  0  0  0
   -1.2160    2.7630    4.3840 H   0  0  0  0  0  0  0  0  0  0  0  0
   -2.2160    0.0880    3.3560 H   0  0  0  0  0  0  0  0  0  0  0  0
   -0.0820    0.5570    4.8700 H   0  0  0  0  0  0  0  0  0  0  0  0
   -0.1160   -0.7330    3.6550 H   0  0  0  0  0  0  0  0  0  0  0  0
    0.6910    0.8960    3.3050 H   0  0  0  0  0  0  0  0  0  0  0  0
   -2.5860    1.5470    1.6250 H   0  0  0  0  0  0  0  0  0  0  0  0
    0.0260    0.1110    1.0250 H   0  0  0  0  0  0  0  0  0  0  0  0
  1  8  1  0  0  0  0
  2  1  1  0  0  0  0
  2 10  1  0  0  0  0
  3 11  1  0  0  0  0
  3  2  1  0  0  0  0
  4  3  1  0  0  0  0
  4  5  1  0  0  0  0
  5 15  1  6  0  0  0
  5  1  1  0  0  0  0
  6  5  1  0  0  0  0
  6 16  1  0  0  0  0
  7  6  2  0  0  0  0
  9  2  1  0  0  0  0
 12  3  1  0  0  0  0
 13  4  1  0  0  0  0
 14  4  1  0  0  0  0
 16 22  1  0  0  0  0
 17 23  1  6  0  0  0
 17 16  1  0  0  0  0
 17 20  1  0  0  0  0
 18 17  1  0  0  0  0
 18 25  1  0  0  0  0
 19 18  1  0  0  0  0
 20 32  1  0  0  0  0
 21 20  2  0  0  0  0
 24 18  1  0  0  0  0
 26 19  1  0  0  0  0
 27 37  1  0  0  0  0
 27 38  1  0  0  0  0
 28 40  1  0  0  0  0
 28 27  1  0  0  0  0
 29 41  1  1  0  0  0
 29 30  1  0  0  0  0
 29 28  1  0  0  0  0
 30 42  1  0  0  0  0
 31 45  1  6  0  0  0
 31 29  1  0  0  0  0
 32 46  1  0  0  0  0
 32 31  1  0  0  0  0
 33 31  1  0  0  0  0
 33 35  1  0  0  0  0
 34 33  2  0  0  0  0
 36 27  1  0  0  0  0
 39 28  1  0  0  0  0
 43 30  1  0  0  0  0
 44 30  1  0  0  0  0
M  END
$$$$
