PCK.pdb
 OpenBabel07022419033D

 48 48  0  0  1  0  0  0  0  0999 V2000
    3.2200   -3.8610    1.2130 N   0  0  0  0  0  0  0  0  0  0  0  0
    2.4150   -5.0120    1.6090 C   0  0  0  0  0  0  0  0  0  0  0  0
    1.2060   -4.3020    2.2270 C   0  0  0  0  0  0  0  0  0  0  0  0
    1.0350   -3.0530    1.3860 C   0  0  0  0  0  0  0  0  0  0  0  0
    2.2390   -3.0740    0.4870 C   0  0  1  0  0  0  0  0  0  0  0  0
    2.7850   -1.7140    0.2400 C   0  0  0  0  0  0  0  0  0  0  0  0
    3.9370   -1.3700    0.6330 O   0  0  0  0  0  0  0  0  0  0  0  0
    3.5030   -3.3140    2.0700 H   0  0  0  0  0  0  0  0  0  0  0  0
    2.1260   -5.5420    0.6820 H   0  0  0  0  0  0  0  0  0  0  0  0
    2.9300   -5.6430    2.3460 H   0  0  0  0  0  0  0  0  0  0  0  0
    1.5590   -3.9970    3.2560 H   0  0  0  0  0  0  0  0  0  0  0  0
    0.3200   -4.9360    2.2520 H   0  0  0  0  0  0  0  0  0  0  0  0
    0.9520   -2.1420    1.9970 H   0  0  0  0  0  0  0  0  0  0  0  0
    0.0980   -3.2010    0.7750 H   0  0  0  0  0  0  0  0  0  0  0  0
    2.0110   -3.6190   -0.4490 H   0  0  0  0  0  0  0  0  0  0  0  0
    2.0290   -0.7420   -0.4520 N   0  0  0  0  0  0  0  0  0  0  0  0
    2.4590    0.5880   -0.7410 C   0  0  1  0  0  0  0  0  0  0  0  0
    2.5360    0.8740   -2.2270 C   0  0  0  0  0  0  0  0  0  0  0  0
    3.6820   -0.2100   -3.0850 S   0  0  0  0  0  0  0  0  0  0  0  0
    1.5560    1.6080   -0.1560 C   0  0  0  0  0  0  0  0  0  0  0  0
    1.8330    2.8150   -0.3430 O   0  0  0  0  0  0  0  0  0  0  0  0
    1.0700   -1.0340   -0.7780 H   0  0  0  0  0  0  0  0  0  0  0  0
    3.4970    0.7330   -0.3270 H   0  0  0  0  0  0  0  0  0  0  0  0
    2.8460    1.9220   -2.4130 H   0  0  0  0  0  0  0  0  0  0  0  0
    1.4860    0.8000   -2.6290 H   0  0  0  0  0  0  0  0  0  0  0  0
    3.0390   -0.6580   -4.2760 H   0  0  0  0  0  0  0  0  0  0  0  0
    0.4170    1.2320    0.5910 N   0  0  0  0  0  0  0  0  0  0  0  0
   -0.4950    2.2010    1.1830 C   0  0  1  0  0  0  0  0  0  0  0  0
   -1.8830    1.9940    0.6220 C   0  0  0  0  0  0  0  0  0  0  0  0
   -2.4070    0.6240    0.9110 C   0  0  0  0  0  0  0  0  0  0  0  0
   -3.7950    0.4810    0.3260 C   0  0  0  0  0  0  0  0  0  0  0  0
   -4.3330   -0.9090    0.6170 C   0  0  0  0  0  0  0  0  0  0  0  0
   -4.3820   -1.0860    2.0550 N   0  0  0  0  0  0  0  0  0  0  0  0
   -0.5570    1.9760    2.6510 C   0  0  0  0  0  0  0  0  0  0  0  0
    0.1250    1.0520    3.1820 O   0  0  0  0  0  0  0  0  0  0  0  0
   -1.3380    2.7390    3.4810 O   0  0  0  0  0  0  0  0  0  0  0  0
    0.2350    0.2240    0.7160 H   0  0  0  0  0  0  0  0  0  0  0  0
   -0.1750    3.2400    0.9710 H   0  0  0  0  0  0  0  0  0  0  0  0
   -1.8190    2.1040   -0.4800 H   0  0  0  0  0  0  0  0  0  0  0  0
   -2.5620    2.7320    1.0890 H   0  0  0  0  0  0  0  0  0  0  0  0
   -2.5300    0.5490    2.0270 H   0  0  0  0  0  0  0  0  0  0  0  0
   -1.7560   -0.1990    0.6200 H   0  0  0  0  0  0  0  0  0  0  0  0
   -3.7650    0.6380   -0.7750 H   0  0  0  0  0  0  0  0  0  0  0  0
   -4.4720    1.2300    0.7680 H   0  0  0  0  0  0  0  0  0  0  0  0
   -5.3000   -1.0640    0.1310 H   0  0  0  0  0  0  0  0  0  0  0  0
   -3.6250   -1.6430    0.1630 H   0  0  0  0  0  0  0  0  0  0  0  0
   -4.6050   -2.0600    2.3280 H   0  0  0  0  0  0  0  0  0  0  0  0
   -5.0610   -0.3830    2.4290 H   0  0  0  0  0  0  0  0  0  0  0  0
  1  2  1  0  0  0  0
  1  8  1  0  0  0  0
  2  3  1  0  0  0  0
  2 10  1  0  0  0  0
  3 12  1  0  0  0  0
  3 11  1  0  0  0  0
  4 13  1  0  0  0  0
  4  3  1  0  0  0  0
  5 15  1  6  0  0  0
  5  1  1  0  0  0  0
  5  4  1  0  0  0  0
  6  5  1  0  0  0  0
  6  7  2  0  0  0  0
  9  2  1  0  0  0  0
 14  4  1  0  0  0  0
 16  6  1  0  0  0  0
 17 16  1  0  0  0  0
 17 23  1  1  0  0  0
 17 20  1  0  0  0  0
 18 17  1  0  0  0  0
 19 18  1  0  0  0  0
 20 27  1  0  0  0  0
 21 20  2  0  0  0  0
 22 16  1  0  0  0  0
 24 18  1  0  0  0  0
 25 18  1  0  0  0  0
 26 19  1  0  0  0  0
 27 37  1  0  0  0  0
 27 28  1  0  0  0  0
 28 38  1  6  0  0  0
 28 34  1  0  0  0  0
 29 30  1  0  0  0  0
 29 40  1  0  0  0  0
 29 28  1  0  0  0  0
 30 41  1  0  0  0  0
 31 32  1  0  0  0  0
 31 44  1  0  0  0  0
 31 30  1  0  0  0  0
 32 33  1  0  0  0  0
 33 47  1  0  0  0  0
 33 48  1  0  0  0  0
 34 35  2  0  0  0  0
 34 36  1  0  0  0  0
 39 29  1  0  0  0  0
 42 30  1  0  0  0  0
 43 31  1  0  0  0  0
 45 32  1  0  0  0  0
 46 32  1  0  0  0  0
M  END
$$$$
