PCL.pdb
 OpenBabel07022419033D

 46 46  0  0  1  0  0  0  0  0999 V2000
    2.8480   -4.2110    0.9210 N   0  0  0  0  0  0  0  0  0  0  0  0
    3.7490   -3.5320    0.0370 C   0  0  0  0  0  0  0  0  0  0  0  0
    3.7540   -2.0910    0.4580 C   0  0  0  0  0  0  0  0  0  0  0  0
    2.7380   -1.9510    1.5920 C   0  0  0  0  0  0  0  0  0  0  0  0
    1.9240   -3.2230    1.4550 C   0  0  1  0  0  0  0  0  0  0  0  0
    0.8170   -3.0510    0.4670 C   0  0  0  0  0  0  0  0  0  0  0  0
    0.7540   -3.6490   -0.6340 O   0  0  0  0  0  0  0  0  0  0  0  0
    2.3350   -4.9900    0.4420 H   0  0  0  0  0  0  0  0  0  0  0  0
    3.4250   -3.6160   -1.0340 H   0  0  0  0  0  0  0  0  0  0  0  0
    4.7840   -3.9380    0.0840 H   0  0  0  0  0  0  0  0  0  0  0  0
    4.7560   -1.7320    0.7430 H   0  0  0  0  0  0  0  0  0  0  0  0
    3.3940   -1.4310   -0.3670 H   0  0  0  0  0  0  0  0  0  0  0  0
    2.0880   -1.0830    1.4650 H   0  0  0  0  0  0  0  0  0  0  0  0
    3.2900   -1.9770    2.5550 H   0  0  0  0  0  0  0  0  0  0  0  0
    1.5310   -3.5710    2.4240 H   0  0  0  0  0  0  0  0  0  0  0  0
   -0.2860   -2.1560    0.7260 N   0  0  0  0  0  0  0  0  0  0  0  0
   -1.3480   -1.9890   -0.2340 C   0  0  1  0  0  0  0  0  0  0  0  0
   -2.6490   -2.6070    0.2290 C   0  0  0  0  0  0  0  0  0  0  0  0
   -2.4390   -4.3880    0.5020 S   0  0  0  0  0  0  0  0  0  0  0  0
   -1.4950   -0.5570   -0.5810 C   0  0  0  0  0  0  0  0  0  0  0  0
   -2.4060   -0.2170   -1.4180 O   0  0  0  0  0  0  0  0  0  0  0  0
   -0.2550   -1.6570    1.6370 H   0  0  0  0  0  0  0  0  0  0  0  0
   -1.0570   -2.5290   -1.1790 H   0  0  0  0  0  0  0  0  0  0  0  0
   -2.9050   -2.1660    1.2300 H   0  0  0  0  0  0  0  0  0  0  0  0
   -3.4730   -2.4390   -0.4600 H   0  0  0  0  0  0  0  0  0  0  0  0
   -2.2780   -5.0360   -0.7600 H   0  0  0  0  0  0  0  0  0  0  0  0
   -1.9020    3.3320    3.0210 C   0  0  0  0  0  0  0  0  0  0  0  0
   -0.9440    2.4880    2.1570 C   0  0  0  0  0  0  0  0  0  0  0  0
   -0.9100    1.1350    2.7960 C   0  0  0  0  0  0  0  0  0  0  0  0
   -1.4930    2.5360    0.7780 C   0  0  0  0  0  0  0  0  0  0  0  0
   -0.7380    1.8020   -0.2820 C   0  0  2  0  0  0  0  0  0  0  0  0
   -0.6360    0.3950    0.0160 N   0  0  0  0  0  0  0  0  0  0  0  0
    0.5340    2.4670   -0.5450 C   0  0  0  0  0  0  0  0  0  0  0  0
    1.6720    1.9290   -0.5240 O   0  0  0  0  0  0  0  0  0  0  0  0
    0.5310    3.8210   -0.8480 O   0  0  0  0  0  0  0  0  0  0  0  0
   -1.6620    3.0880    4.0860 H   0  0  0  0  0  0  0  0  0  0  0  0
   -2.9140    2.9630    2.7960 H   0  0  0  0  0  0  0  0  0  0  0  0
   -1.7520    4.4010    2.8610 H   0  0  0  0  0  0  0  0  0  0  0  0
    0.0600    2.9720    2.2530 H   0  0  0  0  0  0  0  0  0  0  0  0
   -1.5780    0.4060    2.2830 H   0  0  0  0  0  0  0  0  0  0  0  0
    0.1170    0.7380    2.9690 H   0  0  0  0  0  0  0  0  0  0  0  0
   -1.3430    1.1840    3.8420 H   0  0  0  0  0  0  0  0  0  0  0  0
   -1.5170    3.6160    0.4500 H   0  0  0  0  0  0  0  0  0  0  0  0
   -2.5370    2.1350    0.8140 H   0  0  0  0  0  0  0  0  0  0  0  0
   -1.3850    1.8800   -1.2030 H   0  0  0  0  0  0  0  0  0  0  0  0
    0.1110    0.1040    0.6830 H   0  0  0  0  0  0  0  0  0  0  0  0
  1  5  1  0  0  0  0
  2 10  1  0  0  0  0
  2  3  1  0  0  0  0
  2  1  1  0  0  0  0
  3 11  1  0  0  0  0
  3  4  1  0  0  0  0
  4 14  1  0  0  0  0
  5  4  1  0  0  0  0
  5 15  1  1  0  0  0
  6 16  1  0  0  0  0
  6  5  1  0  0  0  0
  7  6  2  0  0  0  0
  8  1  1  0  0  0  0
  9  2  1  0  0  0  0
 12  3  1  0  0  0  0
 13  4  1  0  0  0  0
 16 22  1  0  0  0  0
 17 23  1  6  0  0  0
 17 18  1  0  0  0  0
 17 16  1  0  0  0  0
 18 19  1  0  0  0  0
 18 24  1  0  0  0  0
 20 17  1  0  0  0  0
 20 32  1  0  0  0  0
 21 20  2  0  0  0  0
 25 18  1  0  0  0  0
 26 19  1  0  0  0  0
 27 36  1  0  0  0  0
 28 39  1  0  0  0  0
 28 29  1  0  0  0  0
 28 27  1  0  0  0  0
 29 41  1  0  0  0  0
 29 42  1  0  0  0  0
 30 44  1  0  0  0  0
 30 28  1  0  0  0  0
 31 45  1  6  0  0  0
 31 32  1  0  0  0  0
 31 30  1  0  0  0  0
 32 46  1  0  0  0  0
 33 34  1  0  0  0  0
 33 31  1  0  0  0  0
 35 33  2  0  0  0  0
 37 27  1  0  0  0  0
 38 27  1  0  0  0  0
 40 29  1  0  0  0  0
 43 30  1  0  0  0  0
M  END
$$$$
