PCM.pdb
 OpenBabel07022419033D

 44 44  0  0  1  0  0  0  0  0999 V2000
    2.6210   -1.8860    0.1610 N   0  0  0  0  0  0  0  0  0  0  0  0
    3.8520   -2.6520    0.0710 C   0  0  0  0  0  0  0  0  0  0  0  0
    3.9010   -3.0310   -1.3870 C   0  0  0  0  0  0  0  0  0  0  0  0
    3.4300   -1.7490   -2.0660 C   0  0  0  0  0  0  0  0  0  0  0  0
    2.6890   -1.0390   -0.9890 C   0  0  1  0  0  0  0  0  0  0  0  0
    1.3680   -0.5040   -1.4040 C   0  0  0  0  0  0  0  0  0  0  0  0
    1.3230    0.2350   -2.4190 O   0  0  0  0  0  0  0  0  0  0  0  0
    1.8310   -2.5830    0.0960 H   0  0  0  0  0  0  0  0  0  0  0  0
    4.6950   -1.9780    0.3180 H   0  0  0  0  0  0  0  0  0  0  0  0
    3.8230   -3.5490    0.7260 H   0  0  0  0  0  0  0  0  0  0  0  0
    3.1740   -3.8290   -1.6140 H   0  0  0  0  0  0  0  0  0  0  0  0
    4.9230   -3.3160   -1.7020 H   0  0  0  0  0  0  0  0  0  0  0  0
    2.8720   -1.9510   -2.9820 H   0  0  0  0  0  0  0  0  0  0  0  0
    4.3880   -1.2110   -2.3340 H   0  0  0  0  0  0  0  0  0  0  0  0
    3.2840   -0.1320   -0.6740 H   0  0  0  0  0  0  0  0  0  0  0  0
    0.1630   -0.7760   -0.7230 N   0  0  0  0  0  0  0  0  0  0  0  0
   -1.1450   -0.2760   -1.0950 C   0  0  1  0  0  0  0  0  0  0  0  0
   -2.1000   -1.4010   -1.3880 C   0  0  0  0  0  0  0  0  0  0  0  0
   -1.5370   -2.4480   -2.7390 S   0  0  0  0  0  0  0  0  0  0  0  0
   -1.6810    0.6470   -0.0560 C   0  0  0  0  0  0  0  0  0  0  0  0
   -2.8120    1.1550   -0.2170 O   0  0  0  0  0  0  0  0  0  0  0  0
    0.1920   -1.3850    0.1230 H   0  0  0  0  0  0  0  0  0  0  0  0
   -1.0130    0.3110   -2.0240 H   0  0  0  0  0  0  0  0  0  0  0  0
   -3.0970   -1.0290   -1.6210 H   0  0  0  0  0  0  0  0  0  0  0  0
   -2.1970   -2.0560   -0.4750 H   0  0  0  0  0  0  0  0  0  0  0  0
   -2.2860   -2.2720   -3.9130 H   0  0  0  0  0  0  0  0  0  0  0  0
   -1.7850   -1.6680    5.2960 C   0  0  0  0  0  0  0  0  0  0  0  0
   -0.6980   -0.2480    5.6030 S   0  0  0  0  0  0  0  0  0  0  0  0
   -0.4050    0.5720    4.0120 C   0  0  0  0  0  0  0  0  0  0  0  0
   -1.6780    1.1810    3.4710 C   0  0  0  0  0  0  0  0  0  0  0  0
   -1.4560    1.8700    2.1450 C   0  0  2  0  0  0  0  0  0  0  0  0
   -0.9730    0.9900    1.1260 N   0  0  0  0  0  0  0  0  0  0  0  0
   -0.6810    3.1110    2.2860 C   0  0  0  0  0  0  0  0  0  0  0  0
   -1.0120    3.9490    3.1430 O   0  0  0  0  0  0  0  0  0  0  0  0
    0.4050    3.3620    1.4830 O   0  0  0  0  0  0  0  0  0  0  0  0
   -1.1880   -2.6080    5.1650 H   0  0  0  0  0  0  0  0  0  0  0  0
   -2.4110   -1.8010    6.2050 H   0  0  0  0  0  0  0  0  0  0  0  0
   -2.4070   -1.5540    4.4040 H   0  0  0  0  0  0  0  0  0  0  0  0
   -0.0680   -0.2340    3.3070 H   0  0  0  0  0  0  0  0  0  0  0  0
    0.4060    1.2990    4.1150 H   0  0  0  0  0  0  0  0  0  0  0  0
   -2.4600    0.4060    3.3690 H   0  0  0  0  0  0  0  0  0  0  0  0
   -2.0380    1.9130    4.2200 H   0  0  0  0  0  0  0  0  0  0  0  0
   -2.4850    2.2020    1.8090 H   0  0  0  0  0  0  0  0  0  0  0  0
   -0.0150    0.5310    1.2120 H   0  0  0  0  0  0  0  0  0  0  0  0
  2  1  1  0  0  0  0
  2  9  1  0  0  0  0
  2 10  1  0  0  0  0
  3  2  1  0  0  0  0
  4  3  1  0  0  0  0
  4  5  1  0  0  0  0
  5 15  1  1  0  0  0
  5  1  1  0  0  0  0
  6  5  1  0  0  0  0
  6 16  1  0  0  0  0
  7  6  2  0  0  0  0
  8  1  1  0  0  0  0
 11  3  1  0  0  0  0
 12  3  1  0  0  0  0
 13  4  1  0  0  0  0
 14  4  1  0  0  0  0
 16 22  1  0  0  0  0
 17 23  1  6  0  0  0
 17 16  1  0  0  0  0
 17 20  1  0  0  0  0
 18 17  1  0  0  0  0
 18 25  1  0  0  0  0
 19 18  1  0  0  0  0
 20 32  1  0  0  0  0
 21 20  2  0  0  0  0
 24 18  1  0  0  0  0
 26 19  1  0  0  0  0
 27 28  1  0  0  0  0
 27 37  1  0  0  0  0
 29 40  1  0  0  0  0
 29 28  1  0  0  0  0
 30 29  1  0  0  0  0
 30 42  1  0  0  0  0
 31 43  1  6  0  0  0
 31 33  1  0  0  0  0
 31 30  1  0  0  0  0
 32 44  1  0  0  0  0
 32 31  1  0  0  0  0
 33 34  1  0  0  0  0
 35 33  2  0  0  0  0
 36 27  1  0  0  0  0
 38 27  1  0  0  0  0
 39 29  1  0  0  0  0
 41 30  1  0  0  0  0
M  END
$$$$
