PCN.pdb
 OpenBabel07022419033D

 41 41  0  0  1  0  0  0  0  0999 V2000
    4.0560   -3.1990    0.7970 N   0  0  0  0  0  0  0  0  0  0  0  0
    4.7080   -2.8000   -0.3950 C   0  0  0  0  0  0  0  0  0  0  0  0
    4.5030   -1.3150   -0.5010 C   0  0  0  0  0  0  0  0  0  0  0  0
    3.8440   -0.8570    0.7960 C   0  0  0  0  0  0  0  0  0  0  0  0
    3.1500   -2.1550    1.2400 C   0  0  1  0  0  0  0  0  0  0  0  0
    1.8980   -2.3230    0.4510 C   0  0  0  0  0  0  0  0  0  0  0  0
    1.9280   -3.0130   -0.5870 O   0  0  0  0  0  0  0  0  0  0  0  0
    3.5320   -4.1060    0.6320 H   0  0  0  0  0  0  0  0  0  0  0  0
    5.7870   -3.0850   -0.4320 H   0  0  0  0  0  0  0  0  0  0  0  0
    4.2330   -3.2940   -1.2760 H   0  0  0  0  0  0  0  0  0  0  0  0
    3.8440   -1.0840   -1.3690 H   0  0  0  0  0  0  0  0  0  0  0  0
    5.4970   -0.8480   -0.6290 H   0  0  0  0  0  0  0  0  0  0  0  0
    4.6500   -0.6090    1.5060 H   0  0  0  0  0  0  0  0  0  0  0  0
    3.1360   -0.0370    0.6360 H   0  0  0  0  0  0  0  0  0  0  0  0
    3.0140   -2.1230    2.3220 H   0  0  0  0  0  0  0  0  0  0  0  0
    0.6580   -1.7250    0.8350 N   0  0  0  0  0  0  0  0  0  0  0  0
   -0.5470   -1.8510    0.0760 C   0  0  1  0  0  0  0  0  0  0  0  0
   -1.4200   -3.0130    0.5340 C   0  0  0  0  0  0  0  0  0  0  0  0
   -0.4150   -4.5030    0.3050 S   0  0  0  0  0  0  0  0  0  0  0  0
   -1.3360   -0.6120   -0.0330 C   0  0  0  0  0  0  0  0  0  0  0  0
   -2.3800   -0.6330   -0.7340 O   0  0  0  0  0  0  0  0  0  0  0  0
    0.7280   -1.1900    1.7580 H   0  0  0  0  0  0  0  0  0  0  0  0
   -0.2290   -2.1550   -0.9580 H   0  0  0  0  0  0  0  0  0  0  0  0
   -2.2590   -3.0640   -0.1850 H   0  0  0  0  0  0  0  0  0  0  0  0
   -1.8340   -2.8890    1.5310 H   0  0  0  0  0  0  0  0  0  0  0  0
   -0.4080   -4.7720   -1.0980 H   0  0  0  0  0  0  0  0  0  0  0  0
   -3.3190    1.4630    3.9690 N   0  0  0  0  0  0  0  0  0  0  0  0
   -2.8690    1.2910    2.6360 C   0  0  0  0  0  0  0  0  0  0  0  0
   -3.2220    0.2050    2.0610 O   0  0  0  0  0  0  0  0  0  0  0  0
   -2.0450    2.2940    1.9460 C   0  0  0  0  0  0  0  0  0  0  0  0
   -1.7100    1.8280    0.5610 C   0  0  2  0  0  0  0  0  0  0  0  0
   -0.9730    0.5960    0.6210 N   0  0  0  0  0  0  0  0  0  0  0  0
   -0.9150    2.8840   -0.1540 C   0  0  0  0  0  0  0  0  0  0  0  0
    0.1960    2.6210   -0.6300 O   0  0  0  0  0  0  0  0  0  0  0  0
   -1.4320    4.1670   -0.2820 O   0  0  0  0  0  0  0  0  0  0  0  0
   -4.1280    0.9650    4.3680 H   0  0  0  0  0  0  0  0  0  0  0  0
   -2.8100    2.1380    4.6130 H   0  0  0  0  0  0  0  0  0  0  0  0
   -1.0950    2.4760    2.5160 H   0  0  0  0  0  0  0  0  0  0  0  0
   -2.5750    3.2690    1.9330 H   0  0  0  0  0  0  0  0  0  0  0  0
   -2.6530    1.7290   -0.0060 H   0  0  0  0  0  0  0  0  0  0  0  0
   -0.0630    0.5580    1.1860 H   0  0  0  0  0  0  0  0  0  0  0  0
  1  5  1  0  0  0  0
  2  1  1  0  0  0  0
  3  2  1  0  0  0  0
  3  4  1  0  0  0  0
  4  5  1  0  0  0  0
  4 13  1  0  0  0  0
  5 15  1  1  0  0  0
  6 16  1  0  0  0  0
  6  5  1  0  0  0  0
  7  6  2  0  0  0  0
  8  1  1  0  0  0  0
  9  2  1  0  0  0  0
 10  2  1  0  0  0  0
 11  3  1  0  0  0  0
 12  3  1  0  0  0  0
 14  4  1  0  0  0  0
 16 22  1  0  0  0  0
 17 23  1  6  0  0  0
 17 18  1  0  0  0  0
 17 16  1  0  0  0  0
 18 25  1  0  0  0  0
 19 18  1  0  0  0  0
 20 17  1  0  0  0  0
 20 32  1  0  0  0  0
 21 20  2  0  0  0  0
 24 18  1  0  0  0  0
 26 19  1  0  0  0  0
 27 36  1  0  0  0  0
 27 37  1  0  0  0  0
 28 27  1  0  0  0  0
 29 28  2  0  0  0  0
 30 38  1  0  0  0  0
 30 28  1  0  0  0  0
 31 40  1  6  0  0  0
 31 32  1  0  0  0  0
 31 30  1  0  0  0  0
 32 41  1  0  0  0  0
 33 31  1  0  0  0  0
 34 33  2  0  0  0  0
 35 33  1  0  0  0  0
 39 30  1  0  0  0  0
M  END
$$$$
