PCV.pdb
 OpenBabel07022419033D

 43 43  0  0  1  0  0  0  0  0999 V2000
    2.7420   -2.3030    0.7420 N   0  0  0  0  0  0  0  0  0  0  0  0
    2.6120   -3.7210    0.8050 C   0  0  0  0  0  0  0  0  0  0  0  0
    2.2200   -4.1650   -0.5730 C   0  0  0  0  0  0  0  0  0  0  0  0
    2.9360   -3.1440   -1.4430 C   0  0  0  0  0  0  0  0  0  0  0  0
    2.7010   -1.8780   -0.6120 C   0  0  1  0  0  0  0  0  0  0  0  0
    1.4090   -1.2950   -1.0290 C   0  0  0  0  0  0  0  0  0  0  0  0
    1.3260   -0.9050   -2.2310 O   0  0  0  0  0  0  0  0  0  0  0  0
    2.2100   -1.7610    1.4210 H   0  0  0  0  0  0  0  0  0  0  0  0
    1.9130   -4.0740    1.5890 H   0  0  0  0  0  0  0  0  0  0  0  0
    3.6160   -4.1800    1.0300 H   0  0  0  0  0  0  0  0  0  0  0  0
    2.5160   -5.1960   -0.8200 H   0  0  0  0  0  0  0  0  0  0  0  0
    1.1320   -3.9860   -0.7070 H   0  0  0  0  0  0  0  0  0  0  0  0
    2.5280   -3.0670   -2.4490 H   0  0  0  0  0  0  0  0  0  0  0  0
    4.0420   -3.3040   -1.4130 H   0  0  0  0  0  0  0  0  0  0  0  0
    3.4890   -1.1250   -0.8040 H   0  0  0  0  0  0  0  0  0  0  0  0
    0.2840   -1.1400   -0.2200 N   0  0  0  0  0  0  0  0  0  0  0  0
   -0.9220   -0.5550   -0.7460 C   0  0  1  0  0  0  0  0  0  0  0  0
   -2.1030   -1.4970   -0.6600 C   0  0  0  0  0  0  0  0  0  0  0  0
   -3.5840   -0.7020   -1.3360 S   0  0  0  0  0  0  0  0  0  0  0  0
   -1.1740    0.7120   -0.0220 C   0  0  0  0  0  0  0  0  0  0  0  0
   -2.1730    1.4310   -0.2850 O   0  0  0  0  0  0  0  0  0  0  0  0
    0.3060   -1.4460    0.7680 H   0  0  0  0  0  0  0  0  0  0  0  0
   -0.8290   -0.2800   -1.8190 H   0  0  0  0  0  0  0  0  0  0  0  0
   -1.8740   -2.3690   -1.3150 H   0  0  0  0  0  0  0  0  0  0  0  0
   -2.2640   -1.8820    0.3580 H   0  0  0  0  0  0  0  0  0  0  0  0
   -3.2870    0.4130   -2.1070 H   0  0  0  0  0  0  0  0  0  0  0  0
   -2.0370    1.1320    3.1010 C   0  0  0  0  0  0  0  0  0  0  0  0
   -0.7210    1.9140    3.1790 C   0  0  0  0  0  0  0  0  0  0  0  0
    0.3410    0.9340    3.6160 C   0  0  0  0  0  0  0  0  0  0  0  0
   -0.4160    2.3370    1.7540 C   0  0  2  0  0  0  0  0  0  0  0  0
   -0.2950    1.1320    0.9740 N   0  0  0  0  0  0  0  0  0  0  0  0
    0.7480    3.2210    1.6460 C   0  0  0  0  0  0  0  0  0  0  0  0
    0.7670    4.3070    2.2800 O   0  0  0  0  0  0  0  0  0  0  0  0
    1.8610    2.9330    0.8690 O   0  0  0  0  0  0  0  0  0  0  0  0
   -2.8100    1.7480    2.5560 H   0  0  0  0  0  0  0  0  0  0  0  0
   -1.9170    0.2110    2.5190 H   0  0  0  0  0  0  0  0  0  0  0  0
   -2.4410    0.9760    4.1140 H   0  0  0  0  0  0  0  0  0  0  0  0
   -0.7830    2.7400    3.8830 H   0  0  0  0  0  0  0  0  0  0  0  0
    0.5050    1.0330    4.7190 H   0  0  0  0  0  0  0  0  0  0  0  0
    1.2630    1.1310    3.0380 H   0  0  0  0  0  0  0  0  0  0  0  0
    0.0040   -0.1150    3.4670 H   0  0  0  0  0  0  0  0  0  0  0  0
   -1.3400    2.8540    1.3920 H   0  0  0  0  0  0  0  0  0  0  0  0
    0.5530    0.5300    1.2020 H   0  0  0  0  0  0  0  0  0  0  0  0
  1  2  1  0  0  0  0
  1  8  1  0  0  0  0
  2 10  1  0  0  0  0
  2  9  1  0  0  0  0
  3  2  1  0  0  0  0
  4 14  1  0  0  0  0
  4  5  1  0  0  0  0
  4  3  1  0  0  0  0
  5 15  1  6  0  0  0
  5  1  1  0  0  0  0
  6  5  1  0  0  0  0
  6 16  1  0  0  0  0
  7  6  2  0  0  0  0
 11  3  1  0  0  0  0
 12  3  1  0  0  0  0
 13  4  1  0  0  0  0
 16 22  1  0  0  0  0
 17 23  1  6  0  0  0
 17 18  1  0  0  0  0
 17 16  1  0  0  0  0
 17 20  1  0  0  0  0
 18 25  1  0  0  0  0
 19 18  1  0  0  0  0
 20 31  1  0  0  0  0
 21 20  2  0  0  0  0
 24 18  1  0  0  0  0
 26 19  1  0  0  0  0
 27 28  1  0  0  0  0
 27 37  1  0  0  0  0
 28 29  1  0  0  0  0
 28 38  1  0  0  0  0
 29 39  1  0  0  0  0
 30 42  1  6  0  0  0
 30 28  1  0  0  0  0
 31 43  1  0  0  0  0
 31 30  1  0  0  0  0
 32 30  1  0  0  0  0
 32 33  1  0  0  0  0
 34 32  2  0  0  0  0
 35 27  1  0  0  0  0
 36 27  1  0  0  0  0
 40 29  1  0  0  0  0
 41 29  1  0  0  0  0
M  END
$$$$
