PCW.pdb
 OpenBabel07022419033D

 51 53  0  0  1  0  0  0  0  0999 V2000
    3.1280   -3.1860    1.2890 N   0  0  0  0  0  0  0  0  0  0  0  0
    4.1870   -4.1800    1.2330 C   0  0  0  0  0  0  0  0  0  0  0  0
    5.3800   -3.4630    1.8550 C   0  0  0  0  0  0  0  0  0  0  0  0
    4.7060   -2.7150    3.0000 C   0  0  0  0  0  0  0  0  0  0  0  0
    3.2390   -2.5710    2.5950 C   0  0  1  0  0  0  0  0  0  0  0  0
    2.9160   -1.1100    2.4630 C   0  0  0  0  0  0  0  0  0  0  0  0
    2.9290   -0.3470    3.4580 O   0  0  0  0  0  0  0  0  0  0  0  0
    2.2000   -3.6530    1.1620 H   0  0  0  0  0  0  0  0  0  0  0  0
    3.9370   -5.1050    1.7630 H   0  0  0  0  0  0  0  0  0  0  0  0
    4.4200   -4.4030    0.1920 H   0  0  0  0  0  0  0  0  0  0  0  0
    6.1490   -4.1470    2.2170 H   0  0  0  0  0  0  0  0  0  0  0  0
    5.7680   -2.7200    1.1150 H   0  0  0  0  0  0  0  0  0  0  0  0
    5.1760   -1.7150    3.1440 H   0  0  0  0  0  0  0  0  0  0  0  0
    4.8320   -3.3250    3.9110 H   0  0  0  0  0  0  0  0  0  0  0  0
    2.6010   -3.0530    3.3440 H   0  0  0  0  0  0  0  0  0  0  0  0
    2.5870   -0.5660    1.1800 N   0  0  0  0  0  0  0  0  0  0  0  0
    2.2710    0.8250    0.9910 C   0  0  1  0  0  0  0  0  0  0  0  0
    3.2090    1.4940    0.0050 C   0  0  0  0  0  0  0  0  0  0  0  0
    2.7850    3.2360   -0.2110 S   0  0  0  0  0  0  0  0  0  0  0  0
    0.8930    0.9350    0.4440 C   0  0  0  0  0  0  0  0  0  0  0  0
    0.4480    2.0930    0.1740 O   0  0  0  0  0  0  0  0  0  0  0  0
    2.5920   -1.2470    0.3630 H   0  0  0  0  0  0  0  0  0  0  0  0
    2.3310    1.3710    1.9650 H   0  0  0  0  0  0  0  0  0  0  0  0
    4.2360    1.4010    0.4000 H   0  0  0  0  0  0  0  0  0  0  0  0
    3.2060    0.9740   -0.9740 H   0  0  0  0  0  0  0  0  0  0  0  0
    3.9570    4.0160   -0.0240 H   0  0  0  0  0  0  0  0  0  0  0  0
    0.1400   -0.2490    0.2480 N   0  0  0  0  0  0  0  0  0  0  0  0
   -1.1940   -0.1420   -0.2900 C   0  0  1  0  0  0  0  0  0  0  0  0
   -2.0700    0.5610    0.6850 C   0  0  0  0  0  0  0  0  0  0  0  0
   -3.4700    0.7090    0.2030 C   0  0  0  0  0  0  0  0  0  0  0  0
   -4.0850    1.8360   -0.3130 C   0  0  0  0  0  0  0  0  0  0  0  0
   -5.3540    1.5180   -0.6250 N   0  0  0  0  0  0  0  0  0  0  0  0
   -5.6020    0.2230   -0.3340 C   0  0  0  0  0  0  0  0  0  0  0  0
   -6.7060   -0.5990   -0.4480 C   0  0  0  0  0  0  0  0  0  0  0  0
   -6.6820   -1.9330   -0.0580 C   0  0  0  0  0  0  0  0  0  0  0  0
   -5.4970   -2.4160    0.4560 C   0  0  0  0  0  0  0  0  0  0  0  0
   -4.3980   -1.6220    0.5760 C   0  0  0  0  0  0  0  0  0  0  0  0
   -4.4350   -0.2920    0.1830 C   0  0  0  0  0  0  0  0  0  0  0  0
   -1.1000    0.5730   -1.5980 C   0  0  0  0  0  0  0  0  0  0  0  0
   -2.1250    0.8600   -2.2720 O   0  0  0  0  0  0  0  0  0  0  0  0
    0.1260    0.9340   -2.0990 O   0  0  0  0  0  0  0  0  0  0  0  0
    0.5780   -1.1650    0.5030 H   0  0  0  0  0  0  0  0  0  0  0  0
   -1.5980   -1.1510   -0.5730 H   0  0  0  0  0  0  0  0  0  0  0  0
   -1.6970    1.5930    0.8320 H   0  0  0  0  0  0  0  0  0  0  0  0
   -2.0660    0.1000    1.6950 H   0  0  0  0  0  0  0  0  0  0  0  0
   -3.5890    2.7980   -0.4310 H   0  0  0  0  0  0  0  0  0  0  0  0
   -6.0850    2.1400   -1.0340 H   0  0  0  0  0  0  0  0  0  0  0  0
   -7.6210   -0.1680   -0.8610 H   0  0  0  0  0  0  0  0  0  0  0  0
   -7.5720   -2.5540   -0.1620 H   0  0  0  0  0  0  0  0  0  0  0  0
   -5.4190   -3.4470    0.7760 H   0  0  0  0  0  0  0  0  0  0  0  0
   -3.4430   -1.9630    0.9760 H   0  0  0  0  0  0  0  0  0  0  0  0
  1  5  1  0  0  0  0
  2  1  1  0  0  0  0
  2  9  1  0  0  0  0
  2  3  1  0  0  0  0
  3 11  1  0  0  0  0
  3  4  1  0  0  0  0
  4 13  1  0  0  0  0
  4 14  1  0  0  0  0
  5  4  1  0  0  0  0
  5 15  1  1  0  0  0
  6  5  1  0  0  0  0
  6  7  2  0  0  0  0
  8  1  1  0  0  0  0
 10  2  1  0  0  0  0
 12  3  1  0  0  0  0
 16  6  1  0  0  0  0
 17 16  1  0  0  0  0
 17 23  1  1  0  0  0
 18 24  1  0  0  0  0
 18 17  1  0  0  0  0
 19 26  1  0  0  0  0
 19 18  1  0  0  0  0
 20 17  1  0  0  0  0
 21 20  2  0  0  0  0
 22 16  1  0  0  0  0
 25 18  1  0  0  0  0
 27 20  1  0  0  0  0
 27 42  1  0  0  0  0
 28 43  1  6  0  0  0
 28 27  1  0  0  0  0
 28 29  1  0  0  0  0
 29 44  1  0  0  0  0
 29 45  1  0  0  0  0
 30 29  1  0  0  0  0
 31 30  2  0  0  0  0
 32 33  1  0  0  0  0
 32 31  1  0  0  0  0
 33 38  1  0  0  0  0
 34 33  2  0  0  0  0
 34 35  1  0  0  0  0
 35 36  2  0  0  0  0
 36 37  1  0  0  0  0
 36 50  1  0  0  0  0
 37 51  1  0  0  0  0
 38 30  1  0  0  0  0
 38 37  2  0  0  0  0
 39 28  1  0  0  0  0
 40 39  2  0  0  0  0
 41 39  1  0  0  0  0
 46 31  1  0  0  0  0
 47 32  1  0  0  0  0
 48 34  1  0  0  0  0
 49 35  1  0  0  0  0
M  END
$$$$
