PCY.pdb
 OpenBabel07022419033D

 48 49  0  0  1  0  0  0  0  0999 V2000
    5.3270   -2.5690    0.3400 N   0  0  0  0  0  0  0  0  0  0  0  0
    4.7140   -3.8650    0.4420 C   0  0  0  0  0  0  0  0  0  0  0  0
    4.0140   -4.1440   -0.8540 C   0  0  0  0  0  0  0  0  0  0  0  0
    4.0400   -2.8170   -1.5830 C   0  0  0  0  0  0  0  0  0  0  0  0
    4.5010   -1.7960   -0.5660 C   0  0  1  0  0  0  0  0  0  0  0  0
    3.3650   -1.2460    0.2180 C   0  0  0  0  0  0  0  0  0  0  0  0
    3.2390   -1.4780    1.4600 O   0  0  0  0  0  0  0  0  0  0  0  0
    6.3210   -2.6200    0.0260 H   0  0  0  0  0  0  0  0  0  0  0  0
    5.4690   -4.6450    0.6760 H   0  0  0  0  0  0  0  0  0  0  0  0
    3.9600   -3.8810    1.2730 H   0  0  0  0  0  0  0  0  0  0  0  0
    2.9510   -4.4680   -0.6560 H   0  0  0  0  0  0  0  0  0  0  0  0
    4.4710   -4.9650   -1.4410 H   0  0  0  0  0  0  0  0  0  0  0  0
    3.0110   -2.6200   -1.9500 H   0  0  0  0  0  0  0  0  0  0  0  0
    4.7040   -2.8630   -2.4720 H   0  0  0  0  0  0  0  0  0  0  0  0
    5.0690   -1.0160   -1.0940 H   0  0  0  0  0  0  0  0  0  0  0  0
    2.3560   -0.4340   -0.3640 N   0  0  0  0  0  0  0  0  0  0  0  0
    1.2360    0.1060    0.4140 C   0  0  1  0  0  0  0  0  0  0  0  0
    1.2720    1.6240    0.4160 C   0  0  0  0  0  0  0  0  0  0  0  0
    1.1550    2.2730   -1.2780 S   0  0  0  0  0  0  0  0  0  0  0  0
   -0.0250   -0.3730   -0.2270 C   0  0  0  0  0  0  0  0  0  0  0  0
   -0.0070   -1.1070   -1.2490 O   0  0  0  0  0  0  0  0  0  0  0  0
    2.4320   -0.2270   -1.3810 H   0  0  0  0  0  0  0  0  0  0  0  0
    1.3110   -0.2110    1.4740 H   0  0  0  0  0  0  0  0  0  0  0  0
    0.3930    1.9570    0.9970 H   0  0  0  0  0  0  0  0  0  0  0  0
    2.2010    1.9430    0.9190 H   0  0  0  0  0  0  0  0  0  0  0  0
    2.0690    3.3460   -1.3850 H   0  0  0  0  0  0  0  0  0  0  0  0
   -4.3960    1.8400    5.3180 O   0  0  0  0  0  0  0  0  0  0  0  0
   -4.1160    1.0710    4.2040 C   0  0  0  0  0  0  0  0  0  0  0  0
   -2.9340    0.3710    4.1030 C   0  0  0  0  0  0  0  0  0  0  0  0
   -2.6470   -0.3970    2.9970 C   0  0  0  0  0  0  0  0  0  0  0  0
   -3.5520   -0.4820    1.9520 C   0  0  0  0  0  0  0  0  0  0  0  0
   -3.2650   -1.3080    0.7430 C   0  0  0  0  0  0  0  0  0  0  0  0
   -2.5400   -0.4820   -0.3240 C   0  0  2  0  0  0  0  0  0  0  0  0
   -1.3060   -0.0260    0.2850 N   0  0  0  0  0  0  0  0  0  0  0  0
   -3.3830    0.6450   -0.7730 C   0  0  0  0  0  0  0  0  0  0  0  0
   -4.4880    0.4700   -1.3360 O   0  0  0  0  0  0  0  0  0  0  0  0
   -4.7410    0.2110    2.0350 C   0  0  0  0  0  0  0  0  0  0  0  0
   -4.9950    0.9660    3.1490 C   0  0  0  0  0  0  0  0  0  0  0  0
   -2.9880    1.9770   -0.5930 O   0  0  0  0  0  0  0  0  0  0  0  0
   -3.9510    1.6930    6.2050 H   0  0  0  0  0  0  0  0  0  0  0  0
   -2.2370    0.4460    4.9250 H   0  0  0  0  0  0  0  0  0  0  0  0
   -1.7060   -0.9480    2.9300 H   0  0  0  0  0  0  0  0  0  0  0  0
   -4.2440   -1.6660    0.3650 H   0  0  0  0  0  0  0  0  0  0  0  0
   -2.6830   -2.1740    1.0520 H   0  0  0  0  0  0  0  0  0  0  0  0
   -2.3140   -1.0990   -1.2050 H   0  0  0  0  0  0  0  0  0  0  0  0
   -1.3200    0.5790    1.1270 H   0  0  0  0  0  0  0  0  0  0  0  0
   -5.4600    0.1400    1.2030 H   0  0  0  0  0  0  0  0  0  0  0  0
   -5.9540    1.5000    3.1710 H   0  0  0  0  0  0  0  0  0  0  0  0
  1  2  1  0  0  0  0
  2  9  1  0  0  0  0
  2 10  1  0  0  0  0
  3 11  1  0  0  0  0
  3  2  1  0  0  0  0
  4  3  1  0  0  0  0
  4  5  1  0  0  0  0
  5 15  1  6  0  0  0
  5  6  1  0  0  0  0
  5  1  1  0  0  0  0
  6  7  2  0  0  0  0
  8  1  1  0  0  0  0
 12  3  1  0  0  0  0
 13  4  1  0  0  0  0
 14  4  1  0  0  0  0
 16  6  1  0  0  0  0
 16 17  1  0  0  0  0
 17 18  1  0  0  0  0
 17 23  1  1  0  0  0
 18 25  1  0  0  0  0
 18 24  1  0  0  0  0
 19 18  1  0  0  0  0
 20 34  1  0  0  0  0
 20 17  1  0  0  0  0
 21 20  2  0  0  0  0
 22 16  1  0  0  0  0
 26 19  1  0  0  0  0
 27 40  1  0  0  0  0
 28 27  1  0  0  0  0
 29 28  1  0  0  0  0
 29 41  1  0  0  0  0
 30 29  2  0  0  0  0
 31 37  2  0  0  0  0
 31 30  1  0  0  0  0
 32 44  1  0  0  0  0
 32 31  1  0  0  0  0
 33 45  1  6  0  0  0
 33 34  1  0  0  0  0
 33 32  1  0  0  0  0
 34 46  1  0  0  0  0
 35 39  1  0  0  0  0
 35 33  1  0  0  0  0
 36 35  2  0  0  0  0
 37 38  1  0  0  0  0
 38 48  1  0  0  0  0
 38 28  2  0  0  0  0
 42 30  1  0  0  0  0
 43 32  1  0  0  0  0
 47 37  1  0  0  0  0
M  END
$$$$
