PDA.pdb
 OpenBabel07022419023D

 39 39  0  0  1  0  0  0  0  0999 V2000
    1.3070   -2.9840    1.8750 N   0  0  0  0  0  0  0  0  0  0  0  0
    0.5330   -4.1750    1.9690 C   0  0  0  0  0  0  0  0  0  0  0  0
    0.1570   -4.4770    0.5360 C   0  0  0  0  0  0  0  0  0  0  0  0
    1.4690   -4.1200   -0.1790 C   0  0  0  0  0  0  0  0  0  0  0  0
    1.7430   -2.7850    0.5340 C   0  0  1  0  0  0  0  0  0  0  0  0
    0.9930   -1.7610   -0.2120 C   0  0  0  0  0  0  0  0  0  0  0  0
    1.3470   -1.5560   -1.4030 O   0  0  0  0  0  0  0  0  0  0  0  0
    1.0120   -2.1740    2.4100 H   0  0  0  0  0  0  0  0  0  0  0  0
   -0.3500   -4.1120    2.6350 H   0  0  0  0  0  0  0  0  0  0  0  0
    1.2290   -4.9960    2.2920 H   0  0  0  0  0  0  0  0  0  0  0  0
   -0.6400   -3.7740    0.2120 H   0  0  0  0  0  0  0  0  0  0  0  0
   -0.0820   -5.5410    0.3530 H   0  0  0  0  0  0  0  0  0  0  0  0
    1.3400   -3.9930   -1.2550 H   0  0  0  0  0  0  0  0  0  0  0  0
    2.2280   -4.8530    0.1140 H   0  0  0  0  0  0  0  0  0  0  0  0
    2.8100   -2.5330    0.5030 H   0  0  0  0  0  0  0  0  0  0  0  0
   -0.0800   -1.0110    0.3250 N   0  0  0  0  0  0  0  0  0  0  0  0
   -0.7520   -0.0190   -0.5010 C   0  0  1  0  0  0  0  0  0  0  0  0
   -2.2150   -0.2660   -0.6010 C   0  0  0  0  0  0  0  0  0  0  0  0
   -2.8730    0.7240   -1.4660 C   0  0  0  0  0  0  0  0  0  0  0  0
   -4.1280    0.8320   -1.4330 O   0  0  0  0  0  0  0  0  0  0  0  0
   -0.3940    1.3140    0.0740 C   0  0  0  0  0  0  0  0  0  0  0  0
   -0.8150    2.4130   -0.3670 O   0  0  0  0  0  0  0  0  0  0  0  0
   -2.1820    1.5520   -2.3280 O   0  0  0  0  0  0  0  0  0  0  0  0
   -0.3690   -1.1780    1.2920 H   0  0  0  0  0  0  0  0  0  0  0  0
   -0.3070   -0.0510   -1.5120 H   0  0  0  0  0  0  0  0  0  0  0  0
   -2.3630   -1.2600   -1.1210 H   0  0  0  0  0  0  0  0  0  0  0  0
   -2.7210   -0.2770    0.3900 H   0  0  0  0  0  0  0  0  0  0  0  0
   -2.6650    2.4030   -2.6530 H   0  0  0  0  0  0  0  0  0  0  0  0
    0.5760    2.5190    3.2960 C   0  0  0  0  0  0  0  0  0  0  0  0
    0.8850    2.6340    1.8200 C   0  0  2  0  0  0  0  0  0  0  0  0
    0.4850    1.3770    1.2020 N   0  0  0  0  0  0  0  0  0  0  0  0
    2.3650    2.8130    1.7030 C   0  0  0  0  0  0  0  0  0  0  0  0
    3.0250    1.9140    1.1260 O   0  0  0  0  0  0  0  0  0  0  0  0
    2.9840    3.9210    2.2090 O   0  0  0  0  0  0  0  0  0  0  0  0
    0.2360    3.4840    3.7430 H   0  0  0  0  0  0  0  0  0  0  0  0
   -0.2200    1.7850    3.5190 H   0  0  0  0  0  0  0  0  0  0  0  0
    1.4900    2.1850    3.8700 H   0  0  0  0  0  0  0  0  0  0  0  0
    0.4170    3.4890    1.3310 H   0  0  0  0  0  0  0  0  0  0  0  0
    0.8520    0.4840    1.5920 H   0  0  0  0  0  0  0  0  0  0  0  0
  1  2  1  0  0  0  0
  1  8  1  0  0  0  0
  2 10  1  0  0  0  0
  2  9  1  0  0  0  0
  3  2  1  0  0  0  0
  4 14  1  0  0  0  0
  4  5  1  0  0  0  0
  4  3  1  0  0  0  0
  5 15  1  6  0  0  0
  5  1  1  0  0  0  0
  6 16  1  0  0  0  0
  6  5  1  0  0  0  0
  7  6  2  0  0  0  0
 11  3  1  0  0  0  0
 12  3  1  0  0  0  0
 13  4  1  0  0  0  0
 16 24  1  0  0  0  0
 17 25  1  6  0  0  0
 17 21  1  0  0  0  0
 17 16  1  0  0  0  0
 18 17  1  0  0  0  0
 18 27  1  0  0  0  0
 19 20  2  0  0  0  0
 19 18  1  0  0  0  0
 21 31  1  0  0  0  0
 22 21  2  0  0  0  0
 23 19  1  0  0  0  0
 26 18  1  0  0  0  0
 28 23  1  0  0  0  0
 29 36  1  0  0  0  0
 29 35  1  0  0  0  0
 29 37  1  0  0  0  0
 30 38  1  6  0  0  0
 30 29  1  0  0  0  0
 31 39  1  0  0  0  0
 31 30  1  0  0  0  0
 32 30  1  0  0  0  0
 32 34  1  0  0  0  0
 33 32  2  0  0  0  0
M  END
$$$$
