PDF.pdb
 OpenBabel07022419033D

 49 50  0  0  1  0  0  0  0  0999 V2000
    1.8740    1.6670    4.6040 N   0  0  0  0  0  0  0  0  0  0  0  0
    1.8720    2.4660    5.8170 C   0  0  0  0  0  0  0  0  0  0  0  0
    1.9460    3.9200    5.3970 C   0  0  0  0  0  0  0  0  0  0  0  0
    2.1030    3.8180    3.8710 C   0  0  0  0  0  0  0  0  0  0  0  0
    1.3200    2.5670    3.6270 C   0  0  1  0  0  0  0  0  0  0  0  0
    1.3200    2.0710    2.2510 C   0  0  0  0  0  0  0  0  0  0  0  0
    0.8600    2.8670    1.3680 O   0  0  0  0  0  0  0  0  0  0  0  0
    2.8840    1.4210    4.4200 H   0  0  0  0  0  0  0  0  0  0  0  0
    2.7460    2.2610    6.4330 H   0  0  0  0  0  0  0  0  0  0  0  0
    0.9740    2.2420    6.4360 H   0  0  0  0  0  0  0  0  0  0  0  0
    2.7650    4.4720    5.8520 H   0  0  0  0  0  0  0  0  0  0  0  0
    0.9520    4.3870    5.6110 H   0  0  0  0  0  0  0  0  0  0  0  0
    1.6370    4.6910    3.3760 H   0  0  0  0  0  0  0  0  0  0  0  0
    3.1740    3.7110    3.6920 H   0  0  0  0  0  0  0  0  0  0  0  0
    0.2670    2.7550    3.9400 H   0  0  0  0  0  0  0  0  0  0  0  0
    1.7740    0.8120    1.8040 N   0  0  0  0  0  0  0  0  0  0  0  0
    1.7360    0.3960    0.3830 C   0  0  1  0  0  0  0  0  0  0  0  0
    3.1150    0.0260   -0.0690 C   0  0  0  0  0  0  0  0  0  0  0  0
    3.1190   -0.4000   -1.4720 C   0  0  0  0  0  0  0  0  0  0  0  0
    3.2690   -1.5870   -1.8290 O   0  0  0  0  0  0  0  0  0  0  0  0
    0.7690   -0.7090    0.2840 C   0  0  0  0  0  0  0  0  0  0  0  0
    0.2790   -1.1720    1.3600 O   0  0  0  0  0  0  0  0  0  0  0  0
    2.9490    0.5450   -2.4910 O   0  0  0  0  0  0  0  0  0  0  0  0
    2.1510    0.1430    2.4970 H   0  0  0  0  0  0  0  0  0  0  0  0
    1.4100    1.2900   -0.2050 H   0  0  0  0  0  0  0  0  0  0  0  0
    3.7240    0.9660    0.0020 H   0  0  0  0  0  0  0  0  0  0  0  0
    3.5800   -0.7530    0.5780 H   0  0  0  0  0  0  0  0  0  0  0  0
    2.4220    0.3440   -3.3420 H   0  0  0  0  0  0  0  0  0  0  0  0
    0.3170   -1.3170   -0.9200 N   0  0  0  0  0  0  0  0  0  0  0  0
   -0.6570   -2.4060   -0.9070 C   0  0  1  0  0  0  0  0  0  0  0  0
   -1.8150   -1.9310   -1.7530 C   0  0  0  0  0  0  0  0  0  0  0  0
   -2.8990   -2.9390   -1.8310 C   0  0  0  0  0  0  0  0  0  0  0  0
   -3.9070   -2.9070   -0.8640 C   0  0  0  0  0  0  0  0  0  0  0  0
   -4.9630   -3.7840   -0.8390 C   0  0  0  0  0  0  0  0  0  0  0  0
   -5.0190   -4.7400   -1.8250 C   0  0  0  0  0  0  0  0  0  0  0  0
   -4.0290   -4.8000   -2.8050 C   0  0  0  0  0  0  0  0  0  0  0  0
   -2.9870   -3.9030   -2.7960 C   0  0  0  0  0  0  0  0  0  0  0  0
   -0.0850   -3.6780   -1.3400 C   0  0  0  0  0  0  0  0  0  0  0  0
    1.1210   -3.7860   -1.7070 O   0  0  0  0  0  0  0  0  0  0  0  0
   -0.8420   -4.8360   -1.3680 O   0  0  0  0  0  0  0  0  0  0  0  0
    0.6950   -0.9440   -1.8090 H   0  0  0  0  0  0  0  0  0  0  0  0
   -1.0510   -2.5610    0.1300 H   0  0  0  0  0  0  0  0  0  0  0  0
   -1.4880   -1.6740   -2.7850 H   0  0  0  0  0  0  0  0  0  0  0  0
   -2.2720   -1.0130   -1.3230 H   0  0  0  0  0  0  0  0  0  0  0  0
   -3.8810   -2.1500   -0.0670 H   0  0  0  0  0  0  0  0  0  0  0  0
   -5.7360   -3.7300   -0.0680 H   0  0  0  0  0  0  0  0  0  0  0  0
   -5.8130   -5.4600   -1.8710 H   0  0  0  0  0  0  0  0  0  0  0  0
   -4.1070   -5.5790   -3.5760 H   0  0  0  0  0  0  0  0  0  0  0  0
   -2.2340   -3.9650   -3.5600 H   0  0  0  0  0  0  0  0  0  0  0  0
  1  2  1  0  0  0  0
  2  9  1  0  0  0  0
  2 10  1  0  0  0  0
  3 12  1  0  0  0  0
  3  2  1  0  0  0  0
  3 11  1  0  0  0  0
  4  3  1  0  0  0  0
  5  4  1  0  0  0  0
  5 15  1  1  0  0  0
  5  1  1  0  0  0  0
  6  5  1  0  0  0  0
  7  6  2  0  0  0  0
  8  1  1  0  0  0  0
 13  4  1  0  0  0  0
 14  4  1  0  0  0  0
 16  6  1  0  0  0  0
 16 24  1  0  0  0  0
 17 25  1  6  0  0  0
 17 16  1  0  0  0  0
 18 26  1  0  0  0  0
 18 17  1  0  0  0  0
 18 27  1  0  0  0  0
 19 18  1  0  0  0  0
 20 19  2  0  0  0  0
 21 17  1  0  0  0  0
 21 22  2  0  0  0  0
 23 19  1  0  0  0  0
 28 23  1  0  0  0  0
 29 30  1  0  0  0  0
 29 21  1  0  0  0  0
 30 42  1  1  0  0  0
 31 44  1  0  0  0  0
 31 30  1  0  0  0  0
 32 31  1  0  0  0  0
 32 33  1  0  0  0  0
 33 34  2  0  0  0  0
 33 45  1  0  0  0  0
 34 46  1  0  0  0  0
 35 34  1  0  0  0  0
 36 37  1  0  0  0  0
 36 35  2  0  0  0  0
 37 32  2  0  0  0  0
 38 30  1  0  0  0  0
 39 38  2  0  0  0  0
 40 38  1  0  0  0  0
 41 29  1  0  0  0  0
 43 31  1  0  0  0  0
 47 35  1  0  0  0  0
 48 36  1  0  0  0  0
 49 37  1  0  0  0  0
M  END
$$$$
