PDG.pdb
 OpenBabel07022419033D

 36 36  0  0  1  0  0  0  0  0999 V2000
   -0.6690   -1.4840    3.2350 N   0  0  0  0  0  0  0  0  0  0  0  0
   -0.1090   -2.7350    2.8920 C   0  0  0  0  0  0  0  0  0  0  0  0
    1.3620   -2.6950    3.2550 C   0  0  0  0  0  0  0  0  0  0  0  0
    1.5420   -1.3270    3.9000 C   0  0  0  0  0  0  0  0  0  0  0  0
    0.3360   -0.5230    3.4170 C   0  0  1  0  0  0  0  0  0  0  0  0
    0.7160    0.2830    2.2140 C   0  0  0  0  0  0  0  0  0  0  0  0
    1.5630    1.2190    2.3790 O   0  0  0  0  0  0  0  0  0  0  0  0
   -1.4500   -1.1990    2.6750 H   0  0  0  0  0  0  0  0  0  0  0  0
   -0.5620   -3.5400    3.5470 H   0  0  0  0  0  0  0  0  0  0  0  0
   -0.2840   -3.0730    1.8640 H   0  0  0  0  0  0  0  0  0  0  0  0
    1.6610   -3.5090    3.9290 H   0  0  0  0  0  0  0  0  0  0  0  0
    1.9180   -2.7790    2.3000 H   0  0  0  0  0  0  0  0  0  0  0  0
    2.4980   -0.9300    3.5370 H   0  0  0  0  0  0  0  0  0  0  0  0
    1.5610   -1.3800    4.9910 H   0  0  0  0  0  0  0  0  0  0  0  0
    0.0560    0.1920    4.2180 H   0  0  0  0  0  0  0  0  0  0  0  0
    0.1480   -0.0020    0.9670 N   0  0  0  0  0  0  0  0  0  0  0  0
    0.3060    0.6100   -0.2860 C   0  0  1  0  0  0  0  0  0  0  0  0
    1.4100    1.6300   -0.4730 C   0  0  0  0  0  0  0  0  0  0  0  0
    1.1790    2.8190    0.3440 C   0  0  0  0  0  0  0  0  0  0  0  0
    2.0840    3.6640    0.6470 O   0  0  0  0  0  0  0  0  0  0  0  0
    0.1700   -0.1820   -1.4890 C   0  0  0  0  0  0  0  0  0  0  0  0
    0.2890    0.4110   -2.6030 O   0  0  0  0  0  0  0  0  0  0  0  0
   -0.1310    3.0450    0.8250 O   0  0  0  0  0  0  0  0  0  0  0  0
   -0.5320   -0.8510    1.0010 H   0  0  0  0  0  0  0  0  0  0  0  0
   -0.6150    1.3660   -0.3170 H   0  0  0  0  0  0  0  0  0  0  0  0
    2.4030    1.1520   -0.3060 H   0  0  0  0  0  0  0  0  0  0  0  0
    1.3580    1.9300   -1.5520 H   0  0  0  0  0  0  0  0  0  0  0  0
   -0.2460    3.5790    1.6890 H   0  0  0  0  0  0  0  0  0  0  0  0
   -0.0850   -1.5730   -1.5100 N   0  0  0  0  0  0  0  0  0  0  0  0
   -0.2150   -2.3410   -2.7290 C   0  0  0  0  0  0  0  0  0  0  0  0
   -1.3230   -1.8820   -3.6040 C   0  0  0  0  0  0  0  0  0  0  0  0
   -1.5970   -2.4100   -4.6980 O   0  0  0  0  0  0  0  0  0  0  0  0
   -2.1040   -0.8130   -3.1990 O   0  0  0  0  0  0  0  0  0  0  0  0
   -0.1760   -2.0280   -0.5550 H   0  0  0  0  0  0  0  0  0  0  0  0
    0.7140   -2.3680   -3.3370 H   0  0  0  0  0  0  0  0  0  0  0  0
   -0.4420   -3.3970   -2.4320 H   0  0  0  0  0  0  0  0  0  0  0  0
  1  5  1  0  0  0  0
  2  1  1  0  0  0  0
  2  3  1  0  0  0  0
  2  9  1  0  0  0  0
  3  4  1  0  0  0  0
  3 11  1  0  0  0  0
  4 14  1  0  0  0  0
  5  4  1  0  0  0  0
  5 15  1  1  0  0  0
  6  7  2  0  0  0  0
  6  5  1  0  0  0  0
  8  1  1  0  0  0  0
 10  2  1  0  0  0  0
 12  3  1  0  0  0  0
 13  4  1  0  0  0  0
 16 24  1  0  0  0  0
 16  6  1  0  0  0  0
 17 25  1  6  0  0  0
 17 16  1  0  0  0  0
 18 26  1  0  0  0  0
 18 17  1  0  0  0  0
 18 19  1  0  0  0  0
 19 20  2  0  0  0  0
 19 23  1  0  0  0  0
 21 17  1  0  0  0  0
 22 21  2  0  0  0  0
 23 28  1  0  0  0  0
 27 18  1  0  0  0  0
 29 21  1  0  0  0  0
 29 34  1  0  0  0  0
 30 36  1  0  0  0  0
 30 29  1  0  0  0  0
 31 33  1  0  0  0  0
 31 30  1  0  0  0  0
 32 31  2  0  0  0  0
 35 30  1  0  0  0  0
M  END
$$$$
