PDH.pdb
 OpenBabel07022419033D

 46 47  0  0  1  0  0  0  0  0999 V2000
    1.6050   -0.6820    3.5710 N   0  0  0  0  0  0  0  0  0  0  0  0
    1.5860   -1.0220    5.0250 C   0  0  0  0  0  0  0  0  0  0  0  0
    2.1260   -2.4440    5.0460 C   0  0  0  0  0  0  0  0  0  0  0  0
    2.9530   -2.5180    3.7690 C   0  0  0  0  0  0  0  0  0  0  0  0
    2.9620   -1.1250    3.2170 C   0  0  1  0  0  0  0  0  0  0  0  0
    3.1750   -0.9630    1.7650 C   0  0  0  0  0  0  0  0  0  0  0  0
    4.3010   -1.2180    1.2510 O   0  0  0  0  0  0  0  0  0  0  0  0
    0.9310   -1.3790    3.1050 H   0  0  0  0  0  0  0  0  0  0  0  0
    2.2240   -0.3350    5.5900 H   0  0  0  0  0  0  0  0  0  0  0  0
    0.5330   -1.0160    5.3290 H   0  0  0  0  0  0  0  0  0  0  0  0
    2.7760   -2.6470    5.9220 H   0  0  0  0  0  0  0  0  0  0  0  0
    1.3060   -3.1630    5.0230 H   0  0  0  0  0  0  0  0  0  0  0  0
    2.5370   -3.2910    3.1230 H   0  0  0  0  0  0  0  0  0  0  0  0
    3.9950   -2.8230    4.0610 H   0  0  0  0  0  0  0  0  0  0  0  0
    3.7090   -0.5150    3.8100 H   0  0  0  0  0  0  0  0  0  0  0  0
    2.1170   -0.5110    0.9350 N   0  0  0  0  0  0  0  0  0  0  0  0
    2.0270   -0.2230   -0.4340 C   0  0  1  0  0  0  0  0  0  0  0  0
    2.5900   -1.1750   -1.4620 C   0  0  0  0  0  0  0  0  0  0  0  0
    4.0390   -1.3910   -1.4650 C   0  0  0  0  0  0  0  0  0  0  0  0
    4.6250   -2.5260   -1.4860 O   0  0  0  0  0  0  0  0  0  0  0  0
    0.6950    0.2740   -0.8680 C   0  0  0  0  0  0  0  0  0  0  0  0
    0.6600    0.6680   -2.0740 O   0  0  0  0  0  0  0  0  0  0  0  0
    4.8560   -0.2340   -1.4450 O   0  0  0  0  0  0  0  0  0  0  0  0
    1.2030   -0.3270    1.5310 H   0  0  0  0  0  0  0  0  0  0  0  0
    2.7430    0.6850   -0.5860 H   0  0  0  0  0  0  0  0  0  0  0  0
    2.0230   -2.1530   -1.4320 H   0  0  0  0  0  0  0  0  0  0  0  0
    2.3130   -0.7230   -2.4580 H   0  0  0  0  0  0  0  0  0  0  0  0
    5.7960   -0.2550   -1.0940 H   0  0  0  0  0  0  0  0  0  0  0  0
   -0.4560    0.3380   -0.1140 N   0  0  0  0  0  0  0  0  0  0  0  0
   -1.7740    0.8300   -0.5570 C   0  0  1  0  0  0  0  0  0  0  0  0
   -2.6720   -0.4060   -0.6030 C   0  0  0  0  0  0  0  0  0  0  0  0
   -4.0560   -0.1510   -0.9870 C   0  0  0  0  0  0  0  0  0  0  0  0
   -5.0740    0.1410   -0.0930 C   0  0  0  0  0  0  0  0  0  0  0  0
   -6.2330    0.3090   -0.7570 N   0  0  0  0  0  0  0  0  0  0  0  0
   -5.9340    0.1210   -2.0470 C   0  0  0  0  0  0  0  0  0  0  0  0
   -4.6070   -0.1580   -2.2110 N   0  0  0  0  0  0  0  0  0  0  0  0
   -2.3040    1.8720    0.2970 C   0  0  0  0  0  0  0  0  0  0  0  0
   -1.7420    2.3050    1.3590 O   0  0  0  0  0  0  0  0  0  0  0  0
   -3.5200    2.4860   -0.0260 O   0  0  0  0  0  0  0  0  0  0  0  0
   -0.4720    0.0070    0.8700 H   0  0  0  0  0  0  0  0  0  0  0  0
   -1.6660    1.1760   -1.5920 H   0  0  0  0  0  0  0  0  0  0  0  0
   -2.5560   -0.8840    0.4110 H   0  0  0  0  0  0  0  0  0  0  0  0
   -2.1450   -1.1380   -1.3000 H   0  0  0  0  0  0  0  0  0  0  0  0
   -4.9670    0.2140    0.9680 H   0  0  0  0  0  0  0  0  0  0  0  0
   -7.1720    0.5260   -0.3440 H   0  0  0  0  0  0  0  0  0  0  0  0
   -6.6400    0.1850   -2.8650 H   0  0  0  0  0  0  0  0  0  0  0  0
  1  2  1  0  0  0  0
  2  3  1  0  0  0  0
  2 10  1  0  0  0  0
  2  9  1  0  0  0  0
  3 11  1  0  0  0  0
  4 14  1  0  0  0  0
  4  3  1  0  0  0  0
  5  1  1  0  0  0  0
  5  4  1  0  0  0  0
  5 15  1  1  0  0  0
  6  5  1  0  0  0  0
  7  6  2  0  0  0  0
  8  1  1  0  0  0  0
 12  3  1  0  0  0  0
 13  4  1  0  0  0  0
 16 24  1  0  0  0  0
 16  6  1  0  0  0  0
 17 25  1  6  0  0  0
 17 16  1  0  0  0  0
 18 26  1  0  0  0  0
 18 17  1  0  0  0  0
 19 18  1  0  0  0  0
 19 23  1  0  0  0  0
 20 19  2  0  0  0  0
 21 17  1  0  0  0  0
 21 29  1  0  0  0  0
 22 21  2  0  0  0  0
 23 28  1  0  0  0  0
 27 18  1  0  0  0  0
 29 40  1  0  0  0  0
 30 41  1  6  0  0  0
 30 29  1  0  0  0  0
 30 37  1  0  0  0  0
 31 30  1  0  0  0  0
 31 42  1  0  0  0  0
 32 31  1  0  0  0  0
 32 33  2  0  0  0  0
 33 44  1  0  0  0  0
 34 45  1  0  0  0  0
 34 33  1  0  0  0  0
 35 34  1  0  0  0  0
 36 35  2  0  0  0  0
 36 32  1  0  0  0  0
 37 38  1  0  0  0  0
 39 37  2  0  0  0  0
 43 31  1  0  0  0  0
 46 35  1  0  0  0  0
M  END
$$$$
