PDK.pdb
 OpenBabel07022419033D

 50 50  0  0  1  0  0  0  0  0999 V2000
    4.6130   -1.5370    2.2340 N   0  0  0  0  0  0  0  0  0  0  0  0
    4.9690   -2.9410    2.3660 C   0  0  0  0  0  0  0  0  0  0  0  0
    3.6860   -3.7110    2.1340 C   0  0  0  0  0  0  0  0  0  0  0  0
    2.6730   -2.7040    1.6390 C   0  0  0  0  0  0  0  0  0  0  0  0
    3.5330   -1.5260    1.2670 C   0  0  1  0  0  0  0  0  0  0  0  0
    2.7670   -0.2520    1.3200 C   0  0  0  0  0  0  0  0  0  0  0  0
    3.1140    0.6100    2.1450 O   0  0  0  0  0  0  0  0  0  0  0  0
    5.4360   -1.0470    1.8180 H   0  0  0  0  0  0  0  0  0  0  0  0
    5.6880   -3.2660    1.5850 H   0  0  0  0  0  0  0  0  0  0  0  0
    5.3590   -3.1920    3.3530 H   0  0  0  0  0  0  0  0  0  0  0  0
    3.3150   -4.1470    3.1080 H   0  0  0  0  0  0  0  0  0  0  0  0
    3.8130   -4.5710    1.4530 H   0  0  0  0  0  0  0  0  0  0  0  0
    2.1340   -3.0940    0.7510 H   0  0  0  0  0  0  0  0  0  0  0  0
    1.9590   -2.4690    2.4540 H   0  0  0  0  0  0  0  0  0  0  0  0
    3.8890   -1.6720    0.2280 H   0  0  0  0  0  0  0  0  0  0  0  0
    1.6650    0.0150    0.4710 N   0  0  0  0  0  0  0  0  0  0  0  0
    0.8950    1.2580    0.5020 C   0  0  1  0  0  0  0  0  0  0  0  0
    0.9440    1.9800   -0.7960 C   0  0  0  0  0  0  0  0  0  0  0  0
    0.1830    3.2420   -0.7000 C   0  0  0  0  0  0  0  0  0  0  0  0
   -0.3230    3.7970   -1.7380 O   0  0  0  0  0  0  0  0  0  0  0  0
   -0.5160    0.9620    0.8880 C   0  0  0  0  0  0  0  0  0  0  0  0
   -1.4080    1.8400    0.9780 O   0  0  0  0  0  0  0  0  0  0  0  0
   -0.0540    3.9360    0.4800 O   0  0  0  0  0  0  0  0  0  0  0  0
    1.4010   -0.7340   -0.2110 H   0  0  0  0  0  0  0  0  0  0  0  0
    1.3290    1.8940    1.2860 H   0  0  0  0  0  0  0  0  0  0  0  0
    0.5570    1.3880   -1.6520 H   0  0  0  0  0  0  0  0  0  0  0  0
    1.9800    2.2640   -1.0840 H   0  0  0  0  0  0  0  0  0  0  0  0
    0.0340    4.9420    0.5580 H   0  0  0  0  0  0  0  0  0  0  0  0
   -0.8430   -0.3950    1.1630 N   0  0  0  0  0  0  0  0  0  0  0  0
   -2.2150   -0.7320    1.5440 C   0  0  1  0  0  0  0  0  0  0  0  0
   -2.7150   -1.9690    0.9230 C   0  0  0  0  0  0  0  0  0  0  0  0
   -2.7860   -2.1210   -0.5380 C   0  0  0  0  0  0  0  0  0  0  0  0
   -3.6560   -1.2540   -1.3330 C   0  0  0  0  0  0  0  0  0  0  0  0
   -3.4170    0.2100   -1.3980 C   0  0  0  0  0  0  0  0  0  0  0  0
   -2.0720    0.4720   -1.9210 N   0  0  0  0  0  0  0  0  0  0  0  0
   -2.1870   -1.0350    3.0570 C   0  0  0  0  0  0  0  0  0  0  0  0
   -1.1210   -0.9630    3.6820 O   0  0  0  0  0  0  0  0  0  0  0  0
   -3.3550   -1.3800    3.6830 O   0  0  0  0  0  0  0  0  0  0  0  0
   -0.1180   -1.1340    1.0930 H   0  0  0  0  0  0  0  0  0  0  0  0
   -2.8800    0.1230    1.4230 H   0  0  0  0  0  0  0  0  0  0  0  0
   -3.7260   -2.1720    1.4130 H   0  0  0  0  0  0  0  0  0  0  0  0
   -2.0670   -2.8530    1.2950 H   0  0  0  0  0  0  0  0  0  0  0  0
   -1.7130   -1.9460   -0.9430 H   0  0  0  0  0  0  0  0  0  0  0  0
   -2.9740   -3.2300   -0.7770 H   0  0  0  0  0  0  0  0  0  0  0  0
   -4.7580   -1.4040   -1.0270 H   0  0  0  0  0  0  0  0  0  0  0  0
   -3.6290   -1.6640   -2.4050 H   0  0  0  0  0  0  0  0  0  0  0  0
   -3.6390    0.7570   -0.5050 H   0  0  0  0  0  0  0  0  0  0  0  0
   -4.1380    0.5840   -2.2060 H   0  0  0  0  0  0  0  0  0  0  0  0
   -2.0860    1.4660   -2.2700 H   0  0  0  0  0  0  0  0  0  0  0  0
   -1.8710   -0.1280   -2.7250 H   0  0  0  0  0  0  0  0  0  0  0  0
  1  2  1  0  0  0  0
  2 10  1  0  0  0  0
  3  2  1  0  0  0  0
  3 11  1  0  0  0  0
  4  3  1  0  0  0  0
  4 14  1  0  0  0  0
  5 15  1  6  0  0  0
  5  6  1  0  0  0  0
  5  4  1  0  0  0  0
  5  1  1  0  0  0  0
  6  7  2  0  0  0  0
  8  1  1  0  0  0  0
  9  2  1  0  0  0  0
 12  3  1  0  0  0  0
 13  4  1  0  0  0  0
 16 17  1  0  0  0  0
 16  6  1  0  0  0  0
 17 21  1  0  0  0  0
 17 25  1  1  0  0  0
 18 19  1  0  0  0  0
 18 17  1  0  0  0  0
 19 23  1  0  0  0  0
 20 19  2  0  0  0  0
 21 22  2  0  0  0  0
 21 29  1  0  0  0  0
 23 28  1  0  0  0  0
 24 16  1  0  0  0  0
 26 18  1  0  0  0  0
 27 18  1  0  0  0  0
 29 30  1  0  0  0  0
 30 40  1  6  0  0  0
 30 36  1  0  0  0  0
 31 42  1  0  0  0  0
 31 41  1  0  0  0  0
 31 30  1  0  0  0  0
 32 31  1  0  0  0  0
 33 45  1  0  0  0  0
 33 32  1  0  0  0  0
 34 33  1  0  0  0  0
 34 47  1  0  0  0  0
 35 34  1  0  0  0  0
 36 37  2  0  0  0  0
 36 38  1  0  0  0  0
 39 29  1  0  0  0  0
 43 32  1  0  0  0  0
 44 32  1  0  0  0  0
 46 33  1  0  0  0  0
 48 34  1  0  0  0  0
 49 35  1  0  0  0  0
 50 35  1  0  0  0  0
M  END
$$$$
