PDM.pdb
 OpenBabel07022419033D

 46 46  0  0  1  0  0  0  0  0999 V2000
    1.0350   -2.6240    1.7240 N   0  0  0  0  0  0  0  0  0  0  0  0
    1.3370   -3.7530    2.5480 C   0  0  0  0  0  0  0  0  0  0  0  0
    2.8060   -3.7520    2.8450 C   0  0  0  0  0  0  0  0  0  0  0  0
    3.3160   -2.6050    1.9610 C   0  0  0  0  0  0  0  0  0  0  0  0
    2.1140   -1.6920    1.9890 C   0  0  1  0  0  0  0  0  0  0  0  0
    2.1660   -0.5910    1.0320 C   0  0  0  0  0  0  0  0  0  0  0  0
    3.0450    0.2900    1.1330 O   0  0  0  0  0  0  0  0  0  0  0  0
    0.0930   -2.2140    1.8870 H   0  0  0  0  0  0  0  0  0  0  0  0
    1.0970   -4.7280    2.0460 H   0  0  0  0  0  0  0  0  0  0  0  0
    0.7070   -3.6870    3.4570 H   0  0  0  0  0  0  0  0  0  0  0  0
    3.3190   -4.6920    2.6590 H   0  0  0  0  0  0  0  0  0  0  0  0
    2.9280   -3.3870    3.8980 H   0  0  0  0  0  0  0  0  0  0  0  0
    4.2260   -2.1520    2.3540 H   0  0  0  0  0  0  0  0  0  0  0  0
    3.3890   -3.0140    0.9430 H   0  0  0  0  0  0  0  0  0  0  0  0
    1.9360   -1.2650    2.9970 H   0  0  0  0  0  0  0  0  0  0  0  0
    1.2260   -0.5040   -0.0200 N   0  0  0  0  0  0  0  0  0  0  0  0
    1.2260    0.5710   -1.0070 C   0  0  1  0  0  0  0  0  0  0  0  0
    1.2720    0.0510   -2.4070 C   0  0  0  0  0  0  0  0  0  0  0  0
    2.4910   -0.7610   -2.6560 C   0  0  0  0  0  0  0  0  0  0  0  0
    3.3010   -0.9050   -1.7110 O   0  0  0  0  0  0  0  0  0  0  0  0
   -0.0280    1.3400   -0.7800 C   0  0  0  0  0  0  0  0  0  0  0  0
   -0.2580    2.3220   -1.5100 O   0  0  0  0  0  0  0  0  0  0  0  0
    2.7770   -1.3560   -3.8540 O   0  0  0  0  0  0  0  0  0  0  0  0
    0.5040   -1.2650   -0.0670 H   0  0  0  0  0  0  0  0  0  0  0  0
    2.0500    1.2730   -0.8540 H   0  0  0  0  0  0  0  0  0  0  0  0
    1.2900    0.8950   -3.1270 H   0  0  0  0  0  0  0  0  0  0  0  0
    0.3430   -0.5230   -2.6360 H   0  0  0  0  0  0  0  0  0  0  0  0
    3.7340   -1.5160   -4.1930 H   0  0  0  0  0  0  0  0  0  0  0  0
   -2.4490   -0.0020    3.5770 C   0  0  0  0  0  0  0  0  0  0  0  0
   -3.9020   -0.3090    2.6000 S   0  0  0  0  0  0  0  0  0  0  0  0
   -3.6920   -0.3170    0.8370 C   0  0  0  0  0  0  0  0  0  0  0  0
   -3.4210    0.9670    0.1540 C   0  0  0  0  0  0  0  0  0  0  0  0
   -2.2030    1.7360    0.4760 C   0  0  2  0  0  0  0  0  0  0  0  0
   -0.9770    1.0080    0.2300 N   0  0  0  0  0  0  0  0  0  0  0  0
   -2.2170    2.5160    1.7150 C   0  0  0  0  0  0  0  0  0  0  0  0
   -3.2590    3.1000    2.1030 O   0  0  0  0  0  0  0  0  0  0  0  0
   -1.0740    2.6550    2.5280 O   0  0  0  0  0  0  0  0  0  0  0  0
   -2.5440    0.9660    4.1150 H   0  0  0  0  0  0  0  0  0  0  0  0
   -2.3730   -0.7950    4.3690 H   0  0  0  0  0  0  0  0  0  0  0  0
   -1.4910    0.0100    3.0370 H   0  0  0  0  0  0  0  0  0  0  0  0
   -4.6750   -0.6930    0.3980 H   0  0  0  0  0  0  0  0  0  0  0  0
   -2.9760   -1.1290    0.5140 H   0  0  0  0  0  0  0  0  0  0  0  0
   -4.3610    1.5970    0.2980 H   0  0  0  0  0  0  0  0  0  0  0  0
   -3.4280    0.7310   -0.9590 H   0  0  0  0  0  0  0  0  0  0  0  0
   -2.1700    2.5690   -0.3570 H   0  0  0  0  0  0  0  0  0  0  0  0
   -0.7080    0.1590    0.8040 H   0  0  0  0  0  0  0  0  0  0  0  0
  1  8  1  0  0  0  0
  1  5  1  0  0  0  0
  1  2  1  0  0  0  0
  2  3  1  0  0  0  0
  2 10  1  0  0  0  0
  3 12  1  0  0  0  0
  4  5  1  0  0  0  0
  4 13  1  0  0  0  0
  4  3  1  0  0  0  0
  5 15  1  1  0  0  0
  6  7  2  0  0  0  0
  6  5  1  0  0  0  0
  9  2  1  0  0  0  0
 11  3  1  0  0  0  0
 14  4  1  0  0  0  0
 16  6  1  0  0  0  0
 17 25  1  1  0  0  0
 17 21  1  0  0  0  0
 17 16  1  0  0  0  0
 18 17  1  0  0  0  0
 19 18  1  0  0  0  0
 19 20  2  0  0  0  0
 21 34  1  0  0  0  0
 22 21  2  0  0  0  0
 23 19  1  0  0  0  0
 24 16  1  0  0  0  0
 26 18  1  0  0  0  0
 27 18  1  0  0  0  0
 28 23  1  0  0  0  0
 29 38  1  0  0  0  0
 29 39  1  0  0  0  0
 30 29  1  0  0  0  0
 31 30  1  0  0  0  0
 32 43  1  0  0  0  0
 32 33  1  0  0  0  0
 32 31  1  0  0  0  0
 33 45  1  6  0  0  0
 33 35  1  0  0  0  0
 34 33  1  0  0  0  0
 34 46  1  0  0  0  0
 35 36  2  0  0  0  0
 35 37  1  0  0  0  0
 40 29  1  0  0  0  0
 41 31  1  0  0  0  0
 42 31  1  0  0  0  0
 44 32  1  0  0  0  0
M  END
$$$$
