PDN.pdb
 OpenBabel07022419023D

 43 43  0  0  1  0  0  0  0  0999 V2000
   -2.8320   -3.4190    0.4840 N   0  0  0  0  0  0  0  0  0  0  0  0
   -2.1010   -4.6030    0.1020 C   0  0  0  0  0  0  0  0  0  0  0  0
   -0.9360   -4.7030    1.0690 C   0  0  0  0  0  0  0  0  0  0  0  0
   -0.5810   -3.2360    1.2420 C   0  0  0  0  0  0  0  0  0  0  0  0
   -1.9620   -2.5810    1.2410 C   0  0  1  0  0  0  0  0  0  0  0  0
   -1.8140   -1.2790    0.5530 C   0  0  0  0  0  0  0  0  0  0  0  0
   -2.4320   -1.1040   -0.5260 O   0  0  0  0  0  0  0  0  0  0  0  0
   -3.7400   -3.6290    0.9560 H   0  0  0  0  0  0  0  0  0  0  0  0
   -2.7540   -5.4900    0.1190 H   0  0  0  0  0  0  0  0  0  0  0  0
   -1.6610   -4.4470   -0.9110 H   0  0  0  0  0  0  0  0  0  0  0  0
   -0.0940   -5.2910    0.6610 H   0  0  0  0  0  0  0  0  0  0  0  0
   -1.2780   -5.1140    2.0310 H   0  0  0  0  0  0  0  0  0  0  0  0
    0.0250   -2.8650    0.3940 H   0  0  0  0  0  0  0  0  0  0  0  0
   -0.0730   -3.0490    2.2120 H   0  0  0  0  0  0  0  0  0  0  0  0
   -2.3210   -2.4440    2.2930 H   0  0  0  0  0  0  0  0  0  0  0  0
   -1.0270   -0.2250    1.0260 N   0  0  0  0  0  0  0  0  0  0  0  0
   -0.9340    1.0480    0.2750 C   0  0  1  0  0  0  0  0  0  0  0  0
   -1.4910    2.0920    1.1580 C   0  0  0  0  0  0  0  0  0  0  0  0
   -1.5320    3.4470    0.5940 C   0  0  0  0  0  0  0  0  0  0  0  0
   -1.2190    3.6980   -0.5710 O   0  0  0  0  0  0  0  0  0  0  0  0
    0.4700    1.2290   -0.1650 C   0  0  0  0  0  0  0  0  0  0  0  0
    0.7850    2.2220   -0.8430 O   0  0  0  0  0  0  0  0  0  0  0  0
   -1.9400    4.5490    1.3730 O   0  0  0  0  0  0  0  0  0  0  0  0
   -0.4980   -0.2970    1.8930 H   0  0  0  0  0  0  0  0  0  0  0  0
   -1.5680    0.9220   -0.6120 H   0  0  0  0  0  0  0  0  0  0  0  0
   -1.0790    2.0770    2.1950 H   0  0  0  0  0  0  0  0  0  0  0  0
   -2.5790    1.8130    1.3280 H   0  0  0  0  0  0  0  0  0  0  0  0
   -2.0030    5.4720    0.9590 H   0  0  0  0  0  0  0  0  0  0  0  0
    4.0520    1.6100    3.1810 N   0  0  0  0  0  0  0  0  0  0  0  0
    3.3880    1.4460    1.9280 C   0  0  0  0  0  0  0  0  0  0  0  0
    2.5060    2.3200    1.6830 O   0  0  0  0  0  0  0  0  0  0  0  0
    3.7300    0.3310    1.0150 C   0  0  0  0  0  0  0  0  0  0  0  0
    2.8800    0.4020   -0.2250 C   0  0  2  0  0  0  0  0  0  0  0  0
    1.5010    0.3070    0.1520 N   0  0  0  0  0  0  0  0  0  0  0  0
    3.2810   -0.5990   -1.2320 C   0  0  0  0  0  0  0  0  0  0  0  0
    2.4780   -1.4320   -1.6910 O   0  0  0  0  0  0  0  0  0  0  0  0
    4.5790   -0.6230   -1.6870 O   0  0  0  0  0  0  0  0  0  0  0  0
    4.3070    2.5590    3.4960 H   0  0  0  0  0  0  0  0  0  0  0  0
    4.2660    0.7740    3.7490 H   0  0  0  0  0  0  0  0  0  0  0  0
    3.5970   -0.6430    1.5320 H   0  0  0  0  0  0  0  0  0  0  0  0
    4.8020    0.4680    0.7360 H   0  0  0  0  0  0  0  0  0  0  0  0
    3.0220    1.4310   -0.6640 H   0  0  0  0  0  0  0  0  0  0  0  0
    1.2200   -0.5280    0.7210 H   0  0  0  0  0  0  0  0  0  0  0  0
  1  8  1  0  0  0  0
  1  5  1  0  0  0  0
  2  9  1  0  0  0  0
  2  1  1  0  0  0  0
  2  3  1  0  0  0  0
  3  4  1  0  0  0  0
  3 12  1  0  0  0  0
  4 14  1  0  0  0  0
  5  4  1  0  0  0  0
  5 15  1  1  0  0  0
  6 16  1  0  0  0  0
  6  5  1  0  0  0  0
  7  6  2  0  0  0  0
 10  2  1  0  0  0  0
 11  3  1  0  0  0  0
 13  4  1  0  0  0  0
 16 24  1  0  0  0  0
 17 25  1  6  0  0  0
 17 16  1  0  0  0  0
 17 18  1  0  0  0  0
 18 27  1  0  0  0  0
 18 26  1  0  0  0  0
 19 18  1  0  0  0  0
 19 23  1  0  0  0  0
 20 19  2  0  0  0  0
 21 34  1  0  0  0  0
 21 17  1  0  0  0  0
 22 21  2  0  0  0  0
 28 23  1  0  0  0  0
 29 38  1  0  0  0  0
 29 39  1  0  0  0  0
 30 29  1  0  0  0  0
 31 30  2  0  0  0  0
 32 40  1  0  0  0  0
 32 30  1  0  0  0  0
 33 42  1  6  0  0  0
 33 34  1  0  0  0  0
 33 32  1  0  0  0  0
 34 43  1  0  0  0  0
 35 33  1  0  0  0  0
 36 35  2  0  0  0  0
 37 35  1  0  0  0  0
 41 32  1  0  0  0  0
M  END
$$$$
