PDP.pdb
 OpenBabel07022419033D

 43 44  0  0  1  0  0  0  0  0999 V2000
    0.3410   -1.0250    4.9550 N   0  0  0  0  0  0  0  0  0  0  0  0
   -0.6710   -0.3270    5.7130 C   0  0  0  0  0  0  0  0  0  0  0  0
   -1.7670    0.0660    4.7720 C   0  0  0  0  0  0  0  0  0  0  0  0
   -1.1100   -0.0780    3.4120 C   0  0  0  0  0  0  0  0  0  0  0  0
   -0.1960   -1.2380    3.6240 C   0  0  1  0  0  0  0  0  0  0  0  0
    0.8350   -1.3540    2.6020 C   0  0  0  0  0  0  0  0  0  0  0  0
    2.0830   -1.2630    2.8580 O   0  0  0  0  0  0  0  0  0  0  0  0
    1.2300   -0.4530    4.9220 H   0  0  0  0  0  0  0  0  0  0  0  0
   -1.1150   -0.9690    6.5080 H   0  0  0  0  0  0  0  0  0  0  0  0
   -0.2530    0.5620    6.2070 H   0  0  0  0  0  0  0  0  0  0  0  0
   -2.6470   -0.6210    4.8440 H   0  0  0  0  0  0  0  0  0  0  0  0
   -2.1020    1.1150    4.9040 H   0  0  0  0  0  0  0  0  0  0  0  0
   -1.8510   -0.2580    2.6020 H   0  0  0  0  0  0  0  0  0  0  0  0
   -0.4850    0.8170    3.2160 H   0  0  0  0  0  0  0  0  0  0  0  0
   -0.7660   -2.2130    3.6630 H   0  0  0  0  0  0  0  0  0  0  0  0
    0.4690   -1.5840    1.2330 N   0  0  0  0  0  0  0  0  0  0  0  0
    1.4290   -1.7210    0.1850 C   0  0  1  0  0  0  0  0  0  0  0  0
    1.4920   -3.2050   -0.1940 C   0  0  0  0  0  0  0  0  0  0  0  0
    2.4300   -3.5190   -1.2580 C   0  0  0  0  0  0  0  0  0  0  0  0
    2.0460   -3.5830   -2.4490 O   0  0  0  0  0  0  0  0  0  0  0  0
    1.2850   -0.8550   -0.9500 C   0  0  0  0  0  0  0  0  0  0  0  0
    2.1090   -1.0640   -1.9210 O   0  0  0  0  0  0  0  0  0  0  0  0
    3.7650   -3.7530   -0.9850 O   0  0  0  0  0  0  0  0  0  0  0  0
   -0.5430   -1.6660    1.0080 H   0  0  0  0  0  0  0  0  0  0  0  0
    2.4390   -1.4870    0.6740 H   0  0  0  0  0  0  0  0  0  0  0  0
    1.7020   -3.7390    0.7760 H   0  0  0  0  0  0  0  0  0  0  0  0
    0.4340   -3.4790   -0.4350 H   0  0  0  0  0  0  0  0  0  0  0  0
    4.5010   -3.6320   -1.6830 H   0  0  0  0  0  0  0  0  0  0  0  0
    0.3740    0.1880   -1.1590 N   0  0  0  0  0  0  0  0  0  0  0  0
   -0.5850    0.6770   -0.1400 C   0  0  0  0  0  0  0  0  0  0  0  0
   -0.7810    2.1670   -0.4770 C   0  0  0  0  0  0  0  0  0  0  0  0
    0.2200    2.4000   -1.6210 C   0  0  0  0  0  0  0  0  0  0  0  0
    0.0420    1.0190   -2.2810 C   0  0  1  0  0  0  0  0  0  0  0  0
    0.6730    0.9060   -3.5450 C   0  0  0  0  0  0  0  0  0  0  0  0
    0.3310    1.7930   -4.4360 O   0  0  0  0  0  0  0  0  0  0  0  0
    1.5990    0.0120   -4.0150 O   0  0  0  0  0  0  0  0  0  0  0  0
   -1.4950    0.0950   -0.2710 H   0  0  0  0  0  0  0  0  0  0  0  0
   -0.1080    0.6290    0.8550 H   0  0  0  0  0  0  0  0  0  0  0  0
   -0.5890    2.8050    0.3830 H   0  0  0  0  0  0  0  0  0  0  0  0
   -1.8180    2.2910   -0.8570 H   0  0  0  0  0  0  0  0  0  0  0  0
    1.2120    2.4680   -1.1520 H   0  0  0  0  0  0  0  0  0  0  0  0
   -0.0650    3.2200   -2.2760 H   0  0  0  0  0  0  0  0  0  0  0  0
   -1.1050    0.9300   -2.3530 H   0  0  0  0  0  0  0  0  0  0  0  0
  1  2  1  0  0  0  0
  2 10  1  0  0  0  0
  2  9  1  0  0  0  0
  3 11  1  0  0  0  0
  3 12  1  0  0  0  0
  3  2  1  0  0  0  0
  4  5  1  0  0  0  0
  4  3  1  0  0  0  0
  5 15  1  1  0  0  0
  5  1  1  0  0  0  0
  6  7  2  0  0  0  0
  6  5  1  0  0  0  0
  8  1  1  0  0  0  0
 13  4  1  0  0  0  0
 14  4  1  0  0  0  0
 16  6  1  0  0  0  0
 17 25  1  1  0  0  0
 17 16  1  0  0  0  0
 18 17  1  0  0  0  0
 18 26  1  0  0  0  0
 19 23  1  0  0  0  0
 19 18  1  0  0  0  0
 20 19  2  0  0  0  0
 21 17  1  0  0  0  0
 22 21  2  0  0  0  0
 24 16  1  0  0  0  0
 27 18  1  0  0  0  0
 28 23  1  0  0  0  0
 29 21  1  0  0  0  0
 29 30  1  0  0  0  0
 30 38  1  0  0  0  0
 31 30  1  0  0  0  0
 31 39  1  0  0  0  0
 32 41  1  0  0  0  0
 32 31  1  0  0  0  0
 33 43  1  6  0  0  0
 33 32  1  0  0  0  0
 33 29  1  0  0  0  0
 34 33  1  0  0  0  0
 35 34  2  0  0  0  0
 36 34  1  0  0  0  0
 37 30  1  0  0  0  0
 40 31  1  0  0  0  0
 42 32  1  0  0  0  0
M  END
$$$$
