PDR.pdb
 OpenBabel07022419023D

 52 52  0  0  1  0  0  0  0  0999 V2000
    4.5760    0.3080    3.2550 N   0  0  0  0  0  0  0  0  0  0  0  0
    4.6360    0.4560    4.7200 C   0  0  0  0  0  0  0  0  0  0  0  0
    3.4220    1.2880    5.0690 C   0  0  0  0  0  0  0  0  0  0  0  0
    2.5910    1.2920    3.8070 C   0  0  0  0  0  0  0  0  0  0  0  0
    3.1330    0.0430    3.1140 C   0  0  1  0  0  0  0  0  0  0  0  0
    2.7570    0.0130    1.6820 C   0  0  0  0  0  0  0  0  0  0  0  0
    3.6650    0.2560    0.8610 O   0  0  0  0  0  0  0  0  0  0  0  0
    4.7890    1.2790    2.8970 H   0  0  0  0  0  0  0  0  0  0  0  0
    4.5570   -0.5990    5.1150 H   0  0  0  0  0  0  0  0  0  0  0  0
    5.5840    0.9130    5.0430 H   0  0  0  0  0  0  0  0  0  0  0  0
    2.8380    0.7300    5.8310 H   0  0  0  0  0  0  0  0  0  0  0  0
    3.6980    2.3100    5.3940 H   0  0  0  0  0  0  0  0  0  0  0  0
    2.8780    2.2100    3.2400 H   0  0  0  0  0  0  0  0  0  0  0  0
    1.5090    1.1970    3.9920 H   0  0  0  0  0  0  0  0  0  0  0  0
    2.8880   -0.8120    3.7090 H   0  0  0  0  0  0  0  0  0  0  0  0
    1.4810   -0.2620    1.1910 N   0  0  0  0  0  0  0  0  0  0  0  0
    0.9190   -0.3060   -0.0920 C   0  0  1  0  0  0  0  0  0  0  0  0
    1.8220   -0.2160   -1.2910 C   0  0  0  0  0  0  0  0  0  0  0  0
    2.5240    1.0770   -1.4320 C   0  0  0  0  0  0  0  0  0  0  0  0
    2.1960    2.1120   -0.7650 O   0  0  0  0  0  0  0  0  0  0  0  0
   -0.1280   -1.3060   -0.3000 C   0  0  0  0  0  0  0  0  0  0  0  0
   -0.3250   -2.1150    0.6750 O   0  0  0  0  0  0  0  0  0  0  0  0
    3.5850    1.2210   -2.3100 O   0  0  0  0  0  0  0  0  0  0  0  0
    0.7760   -0.4890    1.9830 H   0  0  0  0  0  0  0  0  0  0  0  0
    0.3990    0.7410   -0.1890 H   0  0  0  0  0  0  0  0  0  0  0  0
    1.1710   -0.2960   -2.1820 H   0  0  0  0  0  0  0  0  0  0  0  0
    2.5180   -1.0840   -1.3680 H   0  0  0  0  0  0  0  0  0  0  0  0
    3.7820    2.0770   -2.8200 H   0  0  0  0  0  0  0  0  0  0  0  0
   -3.6400   -1.9700    2.8950 N   0  0  0  0  0  0  0  0  0  0  0  0
   -4.4470   -1.5600    1.8020 C   0  0  0  0  0  0  0  0  0  0  0  0
   -5.7300   -1.4880    1.8520 N   0  0  0  0  0  0  0  0  0  0  0  0
   -3.8360   -1.2030    0.5310 N   0  0  0  0  0  0  0  0  0  0  0  0
   -4.6120   -0.9910   -0.6310 C   0  0  0  0  0  0  0  0  0  0  0  0
   -3.8840   -0.8130   -1.9210 C   0  0  0  0  0  0  0  0  0  0  0  0
   -3.1000   -1.9560   -2.4470 C   0  0  0  0  0  0  0  0  0  0  0  0
   -1.9470   -2.4400   -1.6530 C   0  0  2  0  0  0  0  0  0  0  0  0
   -0.9160   -1.4410   -1.4610 N   0  0  0  0  0  0  0  0  0  0  0  0
   -1.2930   -3.6120   -2.4110 C   0  0  0  0  0  0  0  0  0  0  0  0
   -1.9900   -4.6040   -2.7050 O   0  0  0  0  0  0  0  0  0  0  0  0
    0.0460   -3.5560   -2.7530 O   0  0  0  0  0  0  0  0  0  0  0  0
   -3.9550   -1.7590    3.8600 H   0  0  0  0  0  0  0  0  0  0  0  0
   -2.7410   -2.4780    2.7460 H   0  0  0  0  0  0  0  0  0  0  0  0
   -6.2950   -1.1870    1.0500 H   0  0  0  0  0  0  0  0  0  0  0  0
   -2.8070   -1.0930    0.5680 H   0  0  0  0  0  0  0  0  0  0  0  0
   -5.3210   -0.1070   -0.4960 H   0  0  0  0  0  0  0  0  0  0  0  0
   -5.3470   -1.8420   -0.8170 H   0  0  0  0  0  0  0  0  0  0  0  0
   -3.2010    0.1050   -1.8630 H   0  0  0  0  0  0  0  0  0  0  0  0
   -4.6570   -0.5770   -2.7280 H   0  0  0  0  0  0  0  0  0  0  0  0
   -2.7490   -1.6440   -3.4830 H   0  0  0  0  0  0  0  0  0  0  0  0
   -3.7870   -2.8430   -2.5910 H   0  0  0  0  0  0  0  0  0  0  0  0
   -2.2460   -2.8870   -0.7140 H   0  0  0  0  0  0  0  0  0  0  0  0
   -0.7240   -0.7450   -2.2320 H   0  0  0  0  0  0  0  0  0  0  0  0
  1  2  1  0  0  0  0
  2 10  1  0  0  0  0
  2  3  1  0  0  0  0
  2  9  1  0  0  0  0
  3 12  1  0  0  0  0
  3 11  1  0  0  0  0
  4 14  1  0  0  0  0
  4  3  1  0  0  0  0
  5  1  1  0  0  0  0
  5 15  1  1  0  0  0
  5  4  1  0  0  0  0
  6  5  1  0  0  0  0
  7  6  2  0  0  0  0
  8  1  1  0  0  0  0
 13  4  1  0  0  0  0
 16  6  1  0  0  0  0
 16 24  1  0  0  0  0
 17 25  1  6  0  0  0
 17 16  1  0  0  0  0
 18 17  1  0  0  0  0
 19 18  1  0  0  0  0
 19 20  2  0  0  0  0
 21 17  1  0  0  0  0
 21 22  2  0  0  0  0
 23 19  1  0  0  0  0
 26 18  1  0  0  0  0
 27 18  1  0  0  0  0
 28 23  1  0  0  0  0
 29 41  1  0  0  0  0
 30 31  2  0  0  0  0
 30 29  1  0  0  0  0
 32 44  1  0  0  0  0
 32 30  1  0  0  0  0
 33 45  1  0  0  0  0
 33 32  1  0  0  0  0
 34 47  1  0  0  0  0
 34 33  1  0  0  0  0
 35 34  1  0  0  0  0
 35 36  1  0  0  0  0
 36 37  1  0  0  0  0
 36 51  1  1  0  0  0
 37 21  1  0  0  0  0
 38 36  1  0  0  0  0
 39 38  1  0  0  0  0
 40 38  2  0  0  0  0
 42 29  1  0  0  0  0
 43 31  1  0  0  0  0
 46 33  1  0  0  0  0
 48 34  1  0  0  0  0
 49 35  1  0  0  0  0
 50 35  1  0  0  0  0
 52 37  1  0  0  0  0
M  END
$$$$
