PDS.pdb
 OpenBabel07022419033D

 40 40  0  0  1  0  0  0  0  0999 V2000
   -0.1840   -4.3820    0.4130 N   0  0  0  0  0  0  0  0  0  0  0  0
    0.1300   -5.6730   -0.1540 C   0  0  0  0  0  0  0  0  0  0  0  0
    0.4730   -5.2760   -1.5950 C   0  0  0  0  0  0  0  0  0  0  0  0
    1.2340   -3.9680   -1.4570 C   0  0  0  0  0  0  0  0  0  0  0  0
    0.9050   -3.5490   -0.0460 C   0  0  1  0  0  0  0  0  0  0  0  0
    0.4780   -2.1440    0.0470 C   0  0  0  0  0  0  0  0  0  0  0  0
   -0.6700   -1.8800    0.4840 O   0  0  0  0  0  0  0  0  0  0  0  0
   -1.0610   -3.9860   -0.0050 H   0  0  0  0  0  0  0  0  0  0  0  0
    1.0060   -6.0700    0.3750 H   0  0  0  0  0  0  0  0  0  0  0  0
   -0.7690   -6.3000   -0.1010 H   0  0  0  0  0  0  0  0  0  0  0  0
   -0.4780   -5.1160   -2.1180 H   0  0  0  0  0  0  0  0  0  0  0  0
    1.0910   -6.0870   -2.0000 H   0  0  0  0  0  0  0  0  0  0  0  0
    2.3220   -4.2160   -1.5620 H   0  0  0  0  0  0  0  0  0  0  0  0
    0.9010   -3.2220   -2.2210 H   0  0  0  0  0  0  0  0  0  0  0  0
    1.7810   -3.7910    0.5850 H   0  0  0  0  0  0  0  0  0  0  0  0
    1.2430   -1.0270   -0.3150 N   0  0  0  0  0  0  0  0  0  0  0  0
    0.7660    0.3360   -0.2010 C   0  0  1  0  0  0  0  0  0  0  0  0
   -0.4010    0.6620   -1.0140 C   0  0  0  0  0  0  0  0  0  0  0  0
   -0.8280    2.0580   -0.8520 C   0  0  0  0  0  0  0  0  0  0  0  0
   -1.8890    2.3680   -0.1930 O   0  0  0  0  0  0  0  0  0  0  0  0
    0.6330    0.5890    1.2510 C   0  0  0  0  0  0  0  0  0  0  0  0
    0.7520   -0.3690    2.1040 O   0  0  0  0  0  0  0  0  0  0  0  0
   -0.1640    3.1620   -1.3710 O   0  0  0  0  0  0  0  0  0  0  0  0
    2.1970   -1.1730   -0.6810 H   0  0  0  0  0  0  0  0  0  0  0  0
    1.6000    0.9900   -0.5300 H   0  0  0  0  0  0  0  0  0  0  0  0
   -1.3030    0.0440   -0.8870 H   0  0  0  0  0  0  0  0  0  0  0  0
   -0.1570    0.5520   -2.1160 H   0  0  0  0  0  0  0  0  0  0  0  0
    0.0260    3.9880   -0.8020 H   0  0  0  0  0  0  0  0  0  0  0  0
    2.6110    2.4800    3.6200 O   0  0  0  0  0  0  0  0  0  0  0  0
    1.3180    2.9460    3.8460 C   0  0  0  0  0  0  0  0  0  0  0  0
    0.2620    2.0200    3.2870 C   0  0  2  0  0  0  0  0  0  0  0  0
    0.3800    1.8410    1.8590 N   0  0  0  0  0  0  0  0  0  0  0  0
   -1.0690    2.4790    3.6670 C   0  0  0  0  0  0  0  0  0  0  0  0
   -1.9850    2.6860    2.8580 O   0  0  0  0  0  0  0  0  0  0  0  0
   -1.3470    2.7030    5.0260 O   0  0  0  0  0  0  0  0  0  0  0  0
    2.9810    1.9830    4.3930 H   0  0  0  0  0  0  0  0  0  0  0  0
    1.1690    4.0000    3.5640 H   0  0  0  0  0  0  0  0  0  0  0  0
    1.1830    2.9170    4.9620 H   0  0  0  0  0  0  0  0  0  0  0  0
    0.4240    1.0200    3.7810 H   0  0  0  0  0  0  0  0  0  0  0  0
    0.2850    2.6970    1.2810 H   0  0  0  0  0  0  0  0  0  0  0  0
  2 10  1  0  0  0  0
  2  9  1  0  0  0  0
  2  1  1  0  0  0  0
  3  4  1  0  0  0  0
  3  2  1  0  0  0  0
  4  5  1  0  0  0  0
  5  6  1  0  0  0  0
  5  1  1  0  0  0  0
  5 15  1  1  0  0  0
  6  7  2  0  0  0  0
  8  1  1  0  0  0  0
 11  3  1  0  0  0  0
 12  3  1  0  0  0  0
 13  4  1  0  0  0  0
 14  4  1  0  0  0  0
 16 17  1  0  0  0  0
 16  6  1  0  0  0  0
 17 25  1  6  0  0  0
 17 21  1  0  0  0  0
 18 26  1  0  0  0  0
 18 19  1  0  0  0  0
 18 17  1  0  0  0  0
 19 20  2  0  0  0  0
 21 32  1  0  0  0  0
 21 22  2  0  0  0  0
 23 19  1  0  0  0  0
 23 28  1  0  0  0  0
 24 16  1  0  0  0  0
 27 18  1  0  0  0  0
 29 30  1  0  0  0  0
 29 36  1  0  0  0  0
 30 38  1  0  0  0  0
 31 33  1  0  0  0  0
 31 39  1  1  0  0  0
 31 30  1  0  0  0  0
 32 31  1  0  0  0  0
 33 35  1  0  0  0  0
 34 33  2  0  0  0  0
 37 30  1  0  0  0  0
 40 32  1  0  0  0  0
M  END
$$$$
