PDT.pdb
 OpenBabel07022419033D

 43 43  0  0  1  0  0  0  0  0999 V2000
   -2.7430    2.5720   -0.3640 N   0  0  0  0  0  0  0  0  0  0  0  0
   -3.4510    1.3220   -0.6690 C   0  0  0  0  0  0  0  0  0  0  0  0
   -3.1240    0.3720    0.4430 C   0  0  0  0  0  0  0  0  0  0  0  0
   -2.3090    1.1830    1.4110 C   0  0  0  0  0  0  0  0  0  0  0  0
   -1.6330    2.1820    0.4800 C   0  0  1  0  0  0  0  0  0  0  0  0
   -0.5960    1.5590   -0.3430 C   0  0  0  0  0  0  0  0  0  0  0  0
   -0.7930    1.4520   -1.5930 O   0  0  0  0  0  0  0  0  0  0  0  0
   -3.3510    3.2140    0.1930 H   0  0  0  0  0  0  0  0  0  0  0  0
   -4.5440    1.5820   -0.6170 H   0  0  0  0  0  0  0  0  0  0  0  0
   -3.1520    0.9660   -1.6590 H   0  0  0  0  0  0  0  0  0  0  0  0
   -2.4750   -0.4270    0.0030 H   0  0  0  0  0  0  0  0  0  0  0  0
   -4.0250   -0.0430    0.9210 H   0  0  0  0  0  0  0  0  0  0  0  0
   -3.0130    1.7700    2.0400 H   0  0  0  0  0  0  0  0  0  0  0  0
   -1.5850    0.5910    1.9840 H   0  0  0  0  0  0  0  0  0  0  0  0
   -1.2810    3.0770    1.0380 H   0  0  0  0  0  0  0  0  0  0  0  0
    0.6310    1.0590    0.1610 N   0  0  0  0  0  0  0  0  0  0  0  0
    1.6190    0.4550   -0.6860 C   0  0  1  0  0  0  0  0  0  0  0  0
    2.9100    1.2410   -0.7070 C   0  0  0  0  0  0  0  0  0  0  0  0
    3.5250    1.3600    0.6380 C   0  0  0  0  0  0  0  0  0  0  0  0
    3.0260    2.1470    1.5060 O   0  0  0  0  0  0  0  0  0  0  0  0
    1.8280   -0.9840   -0.3840 C   0  0  0  0  0  0  0  0  0  0  0  0
    2.6820   -1.6030   -1.0710 O   0  0  0  0  0  0  0  0  0  0  0  0
    4.6420    0.6400    1.0040 O   0  0  0  0  0  0  0  0  0  0  0  0
    0.8170    1.1360    1.1780 H   0  0  0  0  0  0  0  0  0  0  0  0
    1.2410    0.4740   -1.7510 H   0  0  0  0  0  0  0  0  0  0  0  0
    3.6270    0.8090   -1.4290 H   0  0  0  0  0  0  0  0  0  0  0  0
    2.6700    2.2590   -1.0820 H   0  0  0  0  0  0  0  0  0  0  0  0
    4.8550    0.4190    1.9480 H   0  0  0  0  0  0  0  0  0  0  0  0
    2.9320   -2.7040    2.8220 C   0  0  0  0  0  0  0  0  0  0  0  0
    1.6470   -3.3230    2.3770 C   0  0  1  0  0  0  0  0  0  0  0  0
    0.6290   -2.8450    3.2280 O   0  0  0  0  0  0  0  0  0  0  0  0
    1.3120   -3.0830    0.9310 C   0  0  2  0  0  0  0  0  0  0  0  0
    1.1350   -1.6920    0.6140 N   0  0  0  0  0  0  0  0  0  0  0  0
    0.0310   -3.7940    0.6550 C   0  0  0  0  0  0  0  0  0  0  0  0
   -0.0890   -5.0440    0.8530 O   0  0  0  0  0  0  0  0  0  0  0  0
   -1.0630   -3.1200    0.1770 O   0  0  0  0  0  0  0  0  0  0  0  0
    3.2870   -3.2750    3.7290 H   0  0  0  0  0  0  0  0  0  0  0  0
    2.8050   -1.6550    3.2030 H   0  0  0  0  0  0  0  0  0  0  0  0
    3.7490   -2.7730    2.0840 H   0  0  0  0  0  0  0  0  0  0  0  0
    1.7040   -4.4170    2.5670 H   0  0  0  0  0  0  0  0  0  0  0  0
    0.5550   -3.4440    4.0190 H   0  0  0  0  0  0  0  0  0  0  0  0
    2.0830   -3.5770    0.3150 H   0  0  0  0  0  0  0  0  0  0  0  0
    0.4310   -1.1610    1.1750 H   0  0  0  0  0  0  0  0  0  0  0  0
  1  8  1  0  0  0  0
  1  5  1  0  0  0  0
  2  9  1  0  0  0  0
  2  1  1  0  0  0  0
  2  3  1  0  0  0  0
  3 12  1  0  0  0  0
  3  4  1  0  0  0  0
  4 14  1  0  0  0  0
  4 13  1  0  0  0  0
  5 15  1  1  0  0  0
  5  4  1  0  0  0  0
  6 16  1  0  0  0  0
  6  5  1  0  0  0  0
  7  6  2  0  0  0  0
 10  2  1  0  0  0  0
 11  3  1  0  0  0  0
 16 24  1  0  0  0  0
 17 25  1  6  0  0  0
 17 21  1  0  0  0  0
 17 16  1  0  0  0  0
 18 17  1  0  0  0  0
 18 19  1  0  0  0  0
 19 23  1  0  0  0  0
 19 20  2  0  0  0  0
 21 33  1  0  0  0  0
 22 21  2  0  0  0  0
 23 28  1  0  0  0  0
 26 18  1  0  0  0  0
 27 18  1  0  0  0  0
 29 38  1  0  0  0  0
 29 37  1  0  0  0  0
 30 40  1  1  0  0  0
 30 29  1  0  0  0  0
 30 31  1  0  0  0  0
 31 41  1  0  0  0  0
 32 42  1  6  0  0  0
 32 30  1  0  0  0  0
 33 32  1  0  0  0  0
 33 43  1  0  0  0  0
 34 35  1  0  0  0  0
 34 32  1  0  0  0  0
 36 34  2  0  0  0  0
 39 29  1  0  0  0  0
M  END
$$$$
