PDW.pdb
 OpenBabel07022419033D

 53 55  0  0  1  0  0  0  0  0999 V2000
    1.8660   -2.4170    0.0960 N   0  0  0  0  0  0  0  0  0  0  0  0
    2.3000   -3.8220    0.0920 C   0  0  0  0  0  0  0  0  0  0  0  0
    3.7840   -3.7810    0.3880 C   0  0  0  0  0  0  0  0  0  0  0  0
    4.0500   -2.3480    0.7970 C   0  0  0  0  0  0  0  0  0  0  0  0
    2.6530   -1.8830    1.1680 C   0  0  1  0  0  0  0  0  0  0  0  0
    2.5550   -0.4360    1.3180 C   0  0  0  0  0  0  0  0  0  0  0  0
    3.2030    0.1390    2.2250 O   0  0  0  0  0  0  0  0  0  0  0  0
    2.1680   -2.0430   -0.8450 H   0  0  0  0  0  0  0  0  0  0  0  0
    2.1520   -4.2540   -0.9220 H   0  0  0  0  0  0  0  0  0  0  0  0
    1.7360   -4.4240    0.8020 H   0  0  0  0  0  0  0  0  0  0  0  0
    3.9630   -4.4490    1.2680 H   0  0  0  0  0  0  0  0  0  0  0  0
    4.3960   -4.0930   -0.4780 H   0  0  0  0  0  0  0  0  0  0  0  0
    4.7570   -2.2620    1.6380 H   0  0  0  0  0  0  0  0  0  0  0  0
    4.3710   -1.7800   -0.0960 H   0  0  0  0  0  0  0  0  0  0  0  0
    2.3790   -2.4430    2.0950 H   0  0  0  0  0  0  0  0  0  0  0  0
    1.7460    0.3690    0.4700 N   0  0  0  0  0  0  0  0  0  0  0  0
    1.6370    1.7880    0.6010 C   0  0  1  0  0  0  0  0  0  0  0  0
    1.9930    2.5420   -0.6510 C   0  0  0  0  0  0  0  0  0  0  0  0
    3.3910    2.2150   -0.9900 C   0  0  0  0  0  0  0  0  0  0  0  0
    3.7780    1.1030   -1.4160 O   0  0  0  0  0  0  0  0  0  0  0  0
    0.2300    2.1310    0.9330 C   0  0  0  0  0  0  0  0  0  0  0  0
   -0.1030    3.3430    1.1020 O   0  0  0  0  0  0  0  0  0  0  0  0
    4.3480    3.2010   -0.8280 O   0  0  0  0  0  0  0  0  0  0  0  0
    1.1730   -0.0660   -0.3170 H   0  0  0  0  0  0  0  0  0  0  0  0
    2.2740    2.1370    1.4460 H   0  0  0  0  0  0  0  0  0  0  0  0
    1.2870    2.3550   -1.4810 H   0  0  0  0  0  0  0  0  0  0  0  0
    1.9280    3.6230   -0.4340 H   0  0  0  0  0  0  0  0  0  0  0  0
    5.3420    3.0230   -0.8050 H   0  0  0  0  0  0  0  0  0  0  0  0
   -0.7080    1.0780    1.0520 N   0  0  0  0  0  0  0  0  0  0  0  0
   -2.0930    1.3890    1.3770 C   0  0  1  0  0  0  0  0  0  0  0  0
   -2.9910    1.0650    0.2250 C   0  0  0  0  0  0  0  0  0  0  0  0
   -2.9820   -0.3080   -0.2340 C   0  0  0  0  0  0  0  0  0  0  0  0
   -2.2140   -0.7410   -1.3220 C   0  0  0  0  0  0  0  0  0  0  0  0
   -2.3920   -2.0520   -1.4750 N   0  0  0  0  0  0  0  0  0  0  0  0
   -3.2530   -2.5000   -0.5250 C   0  0  0  0  0  0  0  0  0  0  0  0
   -3.7340   -3.7640   -0.2960 C   0  0  0  0  0  0  0  0  0  0  0  0
   -4.6160   -3.9840    0.7330 C   0  0  0  0  0  0  0  0  0  0  0  0
   -4.9890   -2.9140    1.5040 C   0  0  0  0  0  0  0  0  0  0  0  0
   -4.5150   -1.6540    1.2830 C   0  0  0  0  0  0  0  0  0  0  0  0
   -3.6180   -1.4170    0.2420 C   0  0  0  0  0  0  0  0  0  0  0  0
   -2.4780    0.8470    2.6680 C   0  0  0  0  0  0  0  0  0  0  0  0
   -3.5710    1.0560    3.2460 O   0  0  0  0  0  0  0  0  0  0  0  0
   -1.5770    0.0180    3.3500 O   0  0  0  0  0  0  0  0  0  0  0  0
   -0.4700    0.0680    0.9200 H   0  0  0  0  0  0  0  0  0  0  0  0
   -2.1390    2.5170    1.4770 H   0  0  0  0  0  0  0  0  0  0  0  0
   -2.7500    1.7990   -0.6050 H   0  0  0  0  0  0  0  0  0  0  0  0
   -4.0260    1.3950    0.5400 H   0  0  0  0  0  0  0  0  0  0  0  0
   -1.5780   -0.1210   -1.9420 H   0  0  0  0  0  0  0  0  0  0  0  0
   -1.9400   -2.6460   -2.2120 H   0  0  0  0  0  0  0  0  0  0  0  0
   -3.4150   -4.5970   -0.9320 H   0  0  0  0  0  0  0  0  0  0  0  0
   -4.9940   -4.9940    0.9070 H   0  0  0  0  0  0  0  0  0  0  0  0
   -5.6870   -3.0990    2.3140 H   0  0  0  0  0  0  0  0  0  0  0  0
   -4.8150   -0.8080    1.8780 H   0  0  0  0  0  0  0  0  0  0  0  0
  1  5  1  0  0  0  0
  2  1  1  0  0  0  0
  2  3  1  0  0  0  0
  2 10  1  0  0  0  0
  3  4  1  0  0  0  0
  3 11  1  0  0  0  0
  4  5  1  0  0  0  0
  4 13  1  0  0  0  0
  5  6  1  0  0  0  0
  5 15  1  1  0  0  0
  6  7  2  0  0  0  0
  8  1  1  0  0  0  0
  9  2  1  0  0  0  0
 12  3  1  0  0  0  0
 14  4  1  0  0  0  0
 16 17  1  0  0  0  0
 16  6  1  0  0  0  0
 17 21  1  0  0  0  0
 17 25  1  1  0  0  0
 18 27  1  0  0  0  0
 18 17  1  0  0  0  0
 19 23  1  0  0  0  0
 19 18  1  0  0  0  0
 20 19  2  0  0  0  0
 21 29  1  0  0  0  0
 21 22  2  0  0  0  0
 23 28  1  0  0  0  0
 24 16  1  0  0  0  0
 26 18  1  0  0  0  0
 29 30  1  0  0  0  0
 30 45  1  1  0  0  0
 30 41  1  0  0  0  0
 31 47  1  0  0  0  0
 31 30  1  0  0  0  0
 32 31  1  0  0  0  0
 32 40  1  0  0  0  0
 33 32  2  0  0  0  0
 34 33  1  0  0  0  0
 34 35  1  0  0  0  0
 35 36  2  0  0  0  0
 35 40  1  0  0  0  0
 36 37  1  0  0  0  0
 37 51  1  0  0  0  0
 37 38  2  0  0  0  0
 38 52  1  0  0  0  0
 39 38  1  0  0  0  0
 39 53  1  0  0  0  0
 40 39  2  0  0  0  0
 41 42  2  0  0  0  0
 41 43  1  0  0  0  0
 44 29  1  0  0  0  0
 46 31  1  0  0  0  0
 48 33  1  0  0  0  0
 49 34  1  0  0  0  0
 50 36  1  0  0  0  0
M  END
$$$$
