PDY.pdb
 OpenBabel07022419033D

 50 51  0  0  1  0  0  0  0  0999 V2000
    2.2780   -1.3630    0.1110 N   0  0  0  0  0  0  0  0  0  0  0  0
    3.4600   -1.6900   -0.6640 C   0  0  0  0  0  0  0  0  0  0  0  0
    4.4840   -0.7570   -0.0410 C   0  0  0  0  0  0  0  0  0  0  0  0
    4.1590   -0.9020    1.4340 C   0  0  0  0  0  0  0  0  0  0  0  0
    2.6960   -1.2810    1.4840 C   0  0  1  0  0  0  0  0  0  0  0  0
    1.9820   -0.2050    2.2070 C   0  0  0  0  0  0  0  0  0  0  0  0
    2.2140    0.0190    3.4040 O   0  0  0  0  0  0  0  0  0  0  0  0
    1.4950   -2.0290   -0.0580 H   0  0  0  0  0  0  0  0  0  0  0  0
    3.3290   -1.4060   -1.7260 H   0  0  0  0  0  0  0  0  0  0  0  0
    3.7390   -2.7500   -0.5760 H   0  0  0  0  0  0  0  0  0  0  0  0
    4.2210    0.2790   -0.3630 H   0  0  0  0  0  0  0  0  0  0  0  0
    5.5110   -1.0500   -0.2610 H   0  0  0  0  0  0  0  0  0  0  0  0
    4.3580    0.0740    1.9290 H   0  0  0  0  0  0  0  0  0  0  0  0
    4.7630   -1.6880    1.9090 H   0  0  0  0  0  0  0  0  0  0  0  0
    2.5850   -2.2670    1.9880 H   0  0  0  0  0  0  0  0  0  0  0  0
    1.0310    0.5740    1.5380 N   0  0  0  0  0  0  0  0  0  0  0  0
    0.2690    1.6430    2.1080 C   0  0  1  0  0  0  0  0  0  0  0  0
    0.4020    2.9570    1.4100 C   0  0  0  0  0  0  0  0  0  0  0  0
    1.8170    3.4120    1.4210 C   0  0  0  0  0  0  0  0  0  0  0  0
    2.3670    3.9070    2.4390 O   0  0  0  0  0  0  0  0  0  0  0  0
   -1.1600    1.2290    2.1550 C   0  0  0  0  0  0  0  0  0  0  0  0
   -2.0410    2.0140    2.6430 O   0  0  0  0  0  0  0  0  0  0  0  0
    2.6380    3.3180    0.2870 O   0  0  0  0  0  0  0  0  0  0  0  0
    0.8600    0.3590    0.5300 H   0  0  0  0  0  0  0  0  0  0  0  0
    0.5760    1.7550    3.1730 H   0  0  0  0  0  0  0  0  0  0  0  0
   -0.0700    3.0090    0.4310 H   0  0  0  0  0  0  0  0  0  0  0  0
   -0.1540    3.7090    2.0480 H   0  0  0  0  0  0  0  0  0  0  0  0
    3.2970    4.0420    0.0300 H   0  0  0  0  0  0  0  0  0  0  0  0
   -1.1810   -4.6150   -2.6360 O   0  0  0  0  0  0  0  0  0  0  0  0
   -1.7830   -3.6030   -1.8900 C   0  0  0  0  0  0  0  0  0  0  0  0
   -1.3240   -2.3100   -1.9410 C   0  0  0  0  0  0  0  0  0  0  0  0
   -1.9410   -1.3350   -1.1930 C   0  0  0  0  0  0  0  0  0  0  0  0
   -3.0230   -1.6200   -0.3810 C   0  0  0  0  0  0  0  0  0  0  0  0
   -3.6610   -0.5500    0.4020 C   0  0  0  0  0  0  0  0  0  0  0  0
   -3.0630   -0.3540    1.7690 C   0  0  2  0  0  0  0  0  0  0  0  0
   -1.6460   -0.0100    1.6890 N   0  0  0  0  0  0  0  0  0  0  0  0
   -3.1870   -1.6030    2.5520 C   0  0  0  0  0  0  0  0  0  0  0  0
   -4.3110   -2.1340    2.7960 O   0  0  0  0  0  0  0  0  0  0  0  0
   -3.4740   -2.9140   -0.3380 C   0  0  0  0  0  0  0  0  0  0  0  0
   -2.8640   -3.9020   -1.0830 C   0  0  0  0  0  0  0  0  0  0  0  0
   -2.0750   -2.2680    3.0660 O   0  0  0  0  0  0  0  0  0  0  0  0
   -0.7190   -4.3900   -3.5300 H   0  0  0  0  0  0  0  0  0  0  0  0
   -0.4700   -2.0810   -2.5800 H   0  0  0  0  0  0  0  0  0  0  0  0
   -1.5550   -0.3150   -1.2530 H   0  0  0  0  0  0  0  0  0  0  0  0
   -4.7340   -0.8060    0.5660 H   0  0  0  0  0  0  0  0  0  0  0  0
   -3.6380    0.4150   -0.1570 H   0  0  0  0  0  0  0  0  0  0  0  0
   -3.5950    0.4850    2.2700 H   0  0  0  0  0  0  0  0  0  0  0  0
   -0.9780   -0.6870    1.2810 H   0  0  0  0  0  0  0  0  0  0  0  0
   -4.3280   -3.2150    0.2820 H   0  0  0  0  0  0  0  0  0  0  0  0
   -3.2040   -4.9420   -1.0670 H   0  0  0  0  0  0  0  0  0  0  0  0
  1  5  1  0  0  0  0
  2 10  1  0  0  0  0
  2  3  1  0  0  0  0
  2  1  1  0  0  0  0
  3  4  1  0  0  0  0
  4  5  1  0  0  0  0
  4 14  1  0  0  0  0
  4 13  1  0  0  0  0
  5 15  1  1  0  0  0
  5  6  1  0  0  0  0
  6  7  2  0  0  0  0
  8  1  1  0  0  0  0
  9  2  1  0  0  0  0
 11  3  1  0  0  0  0
 12  3  1  0  0  0  0
 16 17  1  0  0  0  0
 16  6  1  0  0  0  0
 17 21  1  0  0  0  0
 17 25  1  1  0  0  0
 18 19  1  0  0  0  0
 18 27  1  0  0  0  0
 18 17  1  0  0  0  0
 19 20  2  0  0  0  0
 21 22  2  0  0  0  0
 23 19  1  0  0  0  0
 24 16  1  0  0  0  0
 26 18  1  0  0  0  0
 28 23  1  0  0  0  0
 29 30  1  0  0  0  0
 30 40  1  0  0  0  0
 31 30  2  0  0  0  0
 31 32  1  0  0  0  0
 32 33  2  0  0  0  0
 33 39  1  0  0  0  0
 33 34  1  0  0  0  0
 34 45  1  0  0  0  0
 34 35  1  0  0  0  0
 35 47  1  1  0  0  0
 35 37  1  0  0  0  0
 36 35  1  0  0  0  0
 36 21  1  0  0  0  0
 37 38  2  0  0  0  0
 37 41  1  0  0  0  0
 39 49  1  0  0  0  0
 40 50  1  0  0  0  0
 40 39  2  0  0  0  0
 42 29  1  0  0  0  0
 43 31  1  0  0  0  0
 44 32  1  0  0  0  0
 46 34  1  0  0  0  0
 48 36  1  0  0  0  0
M  END
$$$$
