PEA.pdb
 OpenBabel07022419033D

 42 42  0  0  1  0  0  0  0  0999 V2000
   -1.8930   -2.4680   -0.0190 N   0  0  0  0  0  0  0  0  0  0  0  0
   -2.7760   -3.6210   -0.2620 C   0  0  0  0  0  0  0  0  0  0  0  0
   -2.0070   -4.3850   -1.2930 C   0  0  0  0  0  0  0  0  0  0  0  0
   -0.5450   -3.9830   -1.0690 C   0  0  0  0  0  0  0  0  0  0  0  0
   -0.6350   -3.1520    0.1970 C   0  0  1  0  0  0  0  0  0  0  0  0
    0.5130   -2.2340    0.2790 C   0  0  0  0  0  0  0  0  0  0  0  0
    1.6470   -2.7550    0.4680 O   0  0  0  0  0  0  0  0  0  0  0  0
   -2.2540   -1.9730    0.8070 H   0  0  0  0  0  0  0  0  0  0  0  0
   -2.7700   -4.2250    0.6810 H   0  0  0  0  0  0  0  0  0  0  0  0
   -3.7750   -3.3170   -0.5840 H   0  0  0  0  0  0  0  0  0  0  0  0
   -2.3610   -4.0450   -2.2940 H   0  0  0  0  0  0  0  0  0  0  0  0
   -2.1090   -5.4910   -1.1750 H   0  0  0  0  0  0  0  0  0  0  0  0
    0.1000   -4.8360   -0.8670 H   0  0  0  0  0  0  0  0  0  0  0  0
   -0.1890   -3.3330   -1.8840 H   0  0  0  0  0  0  0  0  0  0  0  0
   -0.7260   -3.8330    1.0540 H   0  0  0  0  0  0  0  0  0  0  0  0
    0.4470   -0.8380    0.1640 N   0  0  0  0  0  0  0  0  0  0  0  0
    1.6160    0.0600    0.2500 C   0  0  1  0  0  0  0  0  0  0  0  0
    1.7490    0.8570   -1.0030 C   0  0  0  0  0  0  0  0  0  0  0  0
    2.9090    1.7970   -1.0200 C   0  0  0  0  0  0  0  0  0  0  0  0
    4.2130    1.1120   -0.9020 C   0  0  0  0  0  0  0  0  0  0  0  0
    4.3260   -0.1330   -0.8680 O   0  0  0  0  0  0  0  0  0  0  0  0
    1.4380    0.9010    1.4770 C   0  0  0  0  0  0  0  0  0  0  0  0
    2.2650    1.7500    1.8750 O   0  0  0  0  0  0  0  0  0  0  0  0
    5.4040    1.8370   -0.8230 O   0  0  0  0  0  0  0  0  0  0  0  0
   -0.4640   -0.3780    0.0090 H   0  0  0  0  0  0  0  0  0  0  0  0
    2.5290   -0.5350    0.4190 H   0  0  0  0  0  0  0  0  0  0  0  0
    1.8510    0.1560   -1.8770 H   0  0  0  0  0  0  0  0  0  0  0  0
    0.8280    1.4740   -1.1520 H   0  0  0  0  0  0  0  0  0  0  0  0
    2.8510    2.5320   -0.1840 H   0  0  0  0  0  0  0  0  0  0  0  0
    2.9640    2.3590   -1.9930 H   0  0  0  0  0  0  0  0  0  0  0  0
    6.1720    1.4090   -0.3260 H   0  0  0  0  0  0  0  0  0  0  0  0
   -1.2120    2.3930    3.3920 C   0  0  0  0  0  0  0  0  0  0  0  0
    0.0490    1.5640    3.4880 C   0  0  2  0  0  0  0  0  0  0  0  0
    0.2580    0.7670    2.2920 N   0  0  0  0  0  0  0  0  0  0  0  0
    0.0340    0.6760    4.6560 C   0  0  0  0  0  0  0  0  0  0  0  0
    0.1830   -0.5540    4.5740 O   0  0  0  0  0  0  0  0  0  0  0  0
   -0.1550    1.2430    5.9090 O   0  0  0  0  0  0  0  0  0  0  0  0
   -0.9040    3.4480    3.2540 H   0  0  0  0  0  0  0  0  0  0  0  0
   -1.7350    2.2940    4.3710 H   0  0  0  0  0  0  0  0  0  0  0  0
   -1.8710    2.0520    2.5660 H   0  0  0  0  0  0  0  0  0  0  0  0
    0.9550    2.2280    3.5880 H   0  0  0  0  0  0  0  0  0  0  0  0
   -0.4600    0.0700    1.9980 H   0  0  0  0  0  0  0  0  0  0  0  0
  1  5  1  0  0  0  0
  1  8  1  0  0  0  0
  2  1  1  0  0  0  0
  2  9  1  0  0  0  0
  3 12  1  0  0  0  0
  3  4  1  0  0  0  0
  3  2  1  0  0  0  0
  4 13  1  0  0  0  0
  4  5  1  0  0  0  0
  5  6  1  0  0  0  0
  5 15  1  1  0  0  0
  6  7  2  0  0  0  0
 10  2  1  0  0  0  0
 11  3  1  0  0  0  0
 14  4  1  0  0  0  0
 16 17  1  0  0  0  0
 16  6  1  0  0  0  0
 17 26  1  1  0  0  0
 17 22  1  0  0  0  0
 18 17  1  0  0  0  0
 19 18  1  0  0  0  0
 19 20  1  0  0  0  0
 19 29  1  0  0  0  0
 20 21  2  0  0  0  0
 20 24  1  0  0  0  0
 22 23  2  0  0  0  0
 22 34  1  0  0  0  0
 24 31  1  0  0  0  0
 25 16  1  0  0  0  0
 27 18  1  0  0  0  0
 28 18  1  0  0  0  0
 30 19  1  0  0  0  0
 32 33  1  0  0  0  0
 32 39  1  0  0  0  0
 33 41  1  1  0  0  0
 33 35  1  0  0  0  0
 34 33  1  0  0  0  0
 35 37  1  0  0  0  0
 36 35  2  0  0  0  0
 38 32  1  0  0  0  0
 40 32  1  0  0  0  0
 42 34  1  0  0  0  0
M  END
$$$$
