PEC.pdb
 OpenBabel07022419033D

 43 43  0  0  1  0  0  0  0  0999 V2000
    2.8900   -1.8900    3.1610 N   0  0  0  0  0  0  0  0  0  0  0  0
    2.4770   -2.9340    4.0940 C   0  0  0  0  0  0  0  0  0  0  0  0
    0.9590   -2.7750    4.1910 C   0  0  0  0  0  0  0  0  0  0  0  0
    0.5920   -1.9300    2.9880 C   0  0  0  0  0  0  0  0  0  0  0  0
    1.8420   -1.9740    2.1640 C   0  0  1  0  0  0  0  0  0  0  0  0
    1.9260   -0.8640    1.1840 C   0  0  0  0  0  0  0  0  0  0  0  0
    2.8300   -0.0060    1.2890 O   0  0  0  0  0  0  0  0  0  0  0  0
    2.7320   -0.9630    3.6580 H   0  0  0  0  0  0  0  0  0  0  0  0
    2.7500   -3.8990    3.6040 H   0  0  0  0  0  0  0  0  0  0  0  0
    2.9660   -2.8330    5.0770 H   0  0  0  0  0  0  0  0  0  0  0  0
    0.7350   -2.2470    5.1430 H   0  0  0  0  0  0  0  0  0  0  0  0
    0.5160   -3.7800    4.1660 H   0  0  0  0  0  0  0  0  0  0  0  0
    0.3080   -0.9020    3.3020 H   0  0  0  0  0  0  0  0  0  0  0  0
   -0.2690   -2.4550    2.4970 H   0  0  0  0  0  0  0  0  0  0  0  0
    1.9170   -2.9680    1.6980 H   0  0  0  0  0  0  0  0  0  0  0  0
    1.0160   -0.7270    0.1170 N   0  0  0  0  0  0  0  0  0  0  0  0
    1.0360    0.3100   -0.8590 C   0  0  1  0  0  0  0  0  0  0  0  0
    1.0430   -0.1920   -2.2820 C   0  0  0  0  0  0  0  0  0  0  0  0
    2.2330   -1.0580   -2.6060 C   0  0  0  0  0  0  0  0  0  0  0  0
    3.5310   -0.3660   -2.4460 C   0  0  0  0  0  0  0  0  0  0  0  0
    3.6850    0.8280   -2.0970 O   0  0  0  0  0  0  0  0  0  0  0  0
   -0.1890    1.1170   -0.7090 C   0  0  0  0  0  0  0  0  0  0  0  0
   -0.3900    2.0840   -1.4590 O   0  0  0  0  0  0  0  0  0  0  0  0
    4.6760   -1.1060   -2.7060 O   0  0  0  0  0  0  0  0  0  0  0  0
    0.2600   -1.4700    0.0540 H   0  0  0  0  0  0  0  0  0  0  0  0
    1.8840    1.0140   -0.6650 H   0  0  0  0  0  0  0  0  0  0  0  0
    1.0980    0.6790   -2.9850 H   0  0  0  0  0  0  0  0  0  0  0  0
    0.0830   -0.6910   -2.5180 H   0  0  0  0  0  0  0  0  0  0  0  0
    2.2100   -2.0180   -2.0070 H   0  0  0  0  0  0  0  0  0  0  0  0
    2.2090   -1.4170   -3.6630 H   0  0  0  0  0  0  0  0  0  0  0  0
    5.5510   -0.6790   -2.9220 H   0  0  0  0  0  0  0  0  0  0  0  0
   -1.1190    0.7760    0.2890 N   0  0  0  0  0  0  0  0  0  0  0  0
   -2.3530    1.5060    0.5180 C   0  0  1  0  0  0  0  0  0  0  0  0
   -3.5650    0.6160    0.2380 C   0  0  0  0  0  0  0  0  0  0  0  0
   -5.0430    1.6160    0.5520 S   0  0  0  0  0  0  0  0  0  0  0  0
   -2.4390    1.9830    1.9020 C   0  0  0  0  0  0  0  0  0  0  0  0
   -1.5190    1.7500    2.7270 O   0  0  0  0  0  0  0  0  0  0  0  0
   -3.5400    2.7060    2.3360 O   0  0  0  0  0  0  0  0  0  0  0  0
   -0.9530   -0.0510    0.9340 H   0  0  0  0  0  0  0  0  0  0  0  0
   -2.3700    2.3330   -0.2370 H   0  0  0  0  0  0  0  0  0  0  0  0
   -3.5050   -0.2620    0.9140 H   0  0  0  0  0  0  0  0  0  0  0  0
   -3.5190    0.2730   -0.8300 H   0  0  0  0  0  0  0  0  0  0  0  0
   -6.1300    1.1920   -0.2350 H   0  0  0  0  0  0  0  0  0  0  0  0
  1  8  1  0  0  0  0
  1  2  1  0  0  0  0
  2  3  1  0  0  0  0
  2 10  1  0  0  0  0
  3 11  1  0  0  0  0
  4 13  1  0  0  0  0
  4  3  1  0  0  0  0
  5 15  1  6  0  0  0
  5  4  1  0  0  0  0
  5  1  1  0  0  0  0
  6  7  2  0  0  0  0
  6  5  1  0  0  0  0
  9  2  1  0  0  0  0
 12  3  1  0  0  0  0
 14  4  1  0  0  0  0
 16  6  1  0  0  0  0
 17 22  1  0  0  0  0
 17 26  1  1  0  0  0
 17 16  1  0  0  0  0
 18 17  1  0  0  0  0
 19 20  1  0  0  0  0
 19 18  1  0  0  0  0
 19 29  1  0  0  0  0
 20 21  2  0  0  0  0
 22 32  1  0  0  0  0
 23 22  2  0  0  0  0
 24 20  1  0  0  0  0
 25 16  1  0  0  0  0
 27 18  1  0  0  0  0
 28 18  1  0  0  0  0
 30 19  1  0  0  0  0
 31 24  1  0  0  0  0
 32 33  1  0  0  0  0
 32 39  1  0  0  0  0
 33 40  1  6  0  0  0
 33 36  1  0  0  0  0
 34 33  1  0  0  0  0
 34 35  1  0  0  0  0
 34 41  1  0  0  0  0
 36 38  2  0  0  0  0
 36 37  1  0  0  0  0
 42 34  1  0  0  0  0
 43 35  1  0  0  0  0
M  END
$$$$
