PED.pdb
 OpenBabel07022419033D

 45 45  0  0  1  0  0  0  0  0999 V2000
   -0.3560   -3.7490    1.2510 N   0  0  0  0  0  0  0  0  0  0  0  0
   -0.5010   -5.1980    1.2960 C   0  0  0  0  0  0  0  0  0  0  0  0
    0.3410   -5.7610    0.1650 C   0  0  0  0  0  0  0  0  0  0  0  0
    0.7560   -4.5070   -0.5960 C   0  0  0  0  0  0  0  0  0  0  0  0
    0.8850   -3.5420    0.5790 C   0  0  1  0  0  0  0  0  0  0  0  0
    1.1110   -2.2040    0.0510 C   0  0  0  0  0  0  0  0  0  0  0  0
    2.2090   -1.9840   -0.5640 O   0  0  0  0  0  0  0  0  0  0  0  0
   -1.1880   -3.3340    0.8050 H   0  0  0  0  0  0  0  0  0  0  0  0
   -0.1350   -5.6510    2.2310 H   0  0  0  0  0  0  0  0  0  0  0  0
   -1.5590   -5.5080    1.0680 H   0  0  0  0  0  0  0  0  0  0  0  0
   -0.1770   -6.4910   -0.4590 H   0  0  0  0  0  0  0  0  0  0  0  0
    1.3030   -6.2120    0.5430 H   0  0  0  0  0  0  0  0  0  0  0  0
    1.6740   -4.6340   -1.1700 H   0  0  0  0  0  0  0  0  0  0  0  0
   -0.1300   -4.1690   -1.1620 H   0  0  0  0  0  0  0  0  0  0  0  0
    1.7030   -3.9150    1.2320 H   0  0  0  0  0  0  0  0  0  0  0  0
    0.2370   -1.0990    0.1440 N   0  0  0  0  0  0  0  0  0  0  0  0
    0.5880    0.2110   -0.4400 C   0  0  1  0  0  0  0  0  0  0  0  0
   -0.4850    0.6740   -1.3590 C   0  0  0  0  0  0  0  0  0  0  0  0
   -0.1670    1.9890   -1.9970 C   0  0  0  0  0  0  0  0  0  0  0  0
    1.0480    1.9340   -2.8530 C   0  0  0  0  0  0  0  0  0  0  0  0
    1.6110    0.8390   -3.0760 O   0  0  0  0  0  0  0  0  0  0  0  0
    0.7400    1.1080    0.7480 C   0  0  0  0  0  0  0  0  0  0  0  0
    1.1680    2.2590    0.5630 O   0  0  0  0  0  0  0  0  0  0  0  0
    1.6050    3.0590   -3.4320 O   0  0  0  0  0  0  0  0  0  0  0  0
   -0.6620   -1.2040    0.6240 H   0  0  0  0  0  0  0  0  0  0  0  0
    1.5530    0.1700   -0.9330 H   0  0  0  0  0  0  0  0  0  0  0  0
   -0.6980   -0.0590   -2.1720 H   0  0  0  0  0  0  0  0  0  0  0  0
   -1.4450    0.8320   -0.7810 H   0  0  0  0  0  0  0  0  0  0  0  0
   -1.0570    2.3160   -2.6240 H   0  0  0  0  0  0  0  0  0  0  0  0
   -0.0070    2.8290   -1.2750 H   0  0  0  0  0  0  0  0  0  0  0  0
    2.0440    3.0510   -4.3550 H   0  0  0  0  0  0  0  0  0  0  0  0
    0.4240    0.7300    2.0700 N   0  0  0  0  0  0  0  0  0  0  0  0
    0.5710    1.6140    3.2230 C   0  0  1  0  0  0  0  0  0  0  0  0
   -0.8350    1.9790    3.7430 C   0  0  0  0  0  0  0  0  0  0  0  0
   -1.5670    2.6770    2.6530 C   0  0  0  0  0  0  0  0  0  0  0  0
   -1.0650    3.6950    2.1330 O   0  0  0  0  0  0  0  0  0  0  0  0
    1.2750    0.9290    4.3090 C   0  0  0  0  0  0  0  0  0  0  0  0
    1.6800   -0.2630    4.2470 O   0  0  0  0  0  0  0  0  0  0  0  0
   -2.7930    2.1440    2.2620 O   0  0  0  0  0  0  0  0  0  0  0  0
    1.5430    1.5880    5.5200 O   0  0  0  0  0  0  0  0  0  0  0  0
    0.0670   -0.2340    2.2400 H   0  0  0  0  0  0  0  0  0  0  0  0
    1.0890    2.5400    2.9450 H   0  0  0  0  0  0  0  0  0  0  0  0
   -1.3390    1.0480    4.0310 H   0  0  0  0  0  0  0  0  0  0  0  0
   -0.7620    2.7020    4.5790 H   0  0  0  0  0  0  0  0  0  0  0  0
   -3.3040    2.6490    1.5390 H   0  0  0  0  0  0  0  0  0  0  0  0
  1  2  1  0  0  0  0
  2  9  1  0  0  0  0
  3 12  1  0  0  0  0
  3  2  1  0  0  0  0
  4  3  1  0  0  0  0
  4  5  1  0  0  0  0
  5 15  1  1  0  0  0
  5  1  1  0  0  0  0
  6 16  1  0  0  0  0
  6  5  1  0  0  0  0
  7  6  2  0  0  0  0
  8  1  1  0  0  0  0
 10  2  1  0  0  0  0
 11  3  1  0  0  0  0
 13  4  1  0  0  0  0
 14  4  1  0  0  0  0
 16 25  1  0  0  0  0
 17 26  1  6  0  0  0
 17 16  1  0  0  0  0
 17 22  1  0  0  0  0
 18 28  1  0  0  0  0
 18 17  1  0  0  0  0
 19 18  1  0  0  0  0
 19 30  1  0  0  0  0
 20 19  1  0  0  0  0
 21 20  2  0  0  0  0
 22 32  1  0  0  0  0
 23 22  2  0  0  0  0
 24 20  1  0  0  0  0
 27 18  1  0  0  0  0
 29 19  1  0  0  0  0
 31 24  1  0  0  0  0
 32 41  1  0  0  0  0
 32 33  1  0  0  0  0
 33 42  1  6  0  0  0
 33 34  1  0  0  0  0
 33 37  1  0  0  0  0
 34 43  1  0  0  0  0
 34 44  1  0  0  0  0
 35 34  1  0  0  0  0
 36 35  2  0  0  0  0
 37 40  1  0  0  0  0
 38 37  2  0  0  0  0
 39 35  1  0  0  0  0
 45 39  1  0  0  0  0
M  END
$$$$
