PEE.pdb
 OpenBabel07022419033D

 48 48  0  0  1  0  0  0  0  0999 V2000
    2.4900   -2.6160    1.3600 N   0  0  0  0  0  0  0  0  0  0  0  0
    3.8350   -2.2920    1.7700 C   0  0  0  0  0  0  0  0  0  0  0  0
    4.0370   -2.8240    3.1440 C   0  0  0  0  0  0  0  0  0  0  0  0
    2.6560   -3.1400    3.6760 C   0  0  0  0  0  0  0  0  0  0  0  0
    1.7670   -3.0920    2.4880 C   0  0  1  0  0  0  0  0  0  0  0  0
    0.5750   -2.2190    2.7730 C   0  0  0  0  0  0  0  0  0  0  0  0
   -0.1800   -2.5050    3.7490 O   0  0  0  0  0  0  0  0  0  0  0  0
    2.4960   -3.3300    0.5840 H   0  0  0  0  0  0  0  0  0  0  0  0
    4.5560   -2.7300    1.0410 H   0  0  0  0  0  0  0  0  0  0  0  0
    3.9720   -1.1970    1.7040 H   0  0  0  0  0  0  0  0  0  0  0  0
    4.5570   -2.0770    3.7870 H   0  0  0  0  0  0  0  0  0  0  0  0
    4.6260   -3.7650    3.1380 H   0  0  0  0  0  0  0  0  0  0  0  0
    2.6640   -4.1370    4.1820 H   0  0  0  0  0  0  0  0  0  0  0  0
    2.4370   -2.3960    4.4610 H   0  0  0  0  0  0  0  0  0  0  0  0
    1.3880   -4.1360    2.3240 H   0  0  0  0  0  0  0  0  0  0  0  0
    0.2580   -1.0830    1.9920 N   0  0  0  0  0  0  0  0  0  0  0  0
   -0.8630   -0.2270    2.2180 C   0  0  1  0  0  0  0  0  0  0  0  0
   -0.6330    1.0160    2.9740 C   0  0  0  0  0  0  0  0  0  0  0  0
    0.3170    2.0260    2.5000 C   0  0  0  0  0  0  0  0  0  0  0  0
    1.7450    1.6380    2.4430 C   0  0  0  0  0  0  0  0  0  0  0  0
    2.2410    0.5840    2.8680 O   0  0  0  0  0  0  0  0  0  0  0  0
   -1.7010   -0.0520    1.0000 C   0  0  0  0  0  0  0  0  0  0  0  0
   -2.7170    0.6870    1.0410 O   0  0  0  0  0  0  0  0  0  0  0  0
    2.6190    2.5570    1.8500 O   0  0  0  0  0  0  0  0  0  0  0  0
    0.8790   -0.8790    1.1820 H   0  0  0  0  0  0  0  0  0  0  0  0
   -1.5320   -0.8450    2.9230 H   0  0  0  0  0  0  0  0  0  0  0  0
   -0.3630    0.7310    4.0230 H   0  0  0  0  0  0  0  0  0  0  0  0
   -1.6350    1.5250    3.0940 H   0  0  0  0  0  0  0  0  0  0  0  0
    0.2950    2.8700    3.2600 H   0  0  0  0  0  0  0  0  0  0  0  0
   -0.0030    2.5490    1.5660 H   0  0  0  0  0  0  0  0  0  0  0  0
    3.6030    2.3310    1.8080 H   0  0  0  0  0  0  0  0  0  0  0  0
   -1.4000   -0.6930   -0.2220 N   0  0  0  0  0  0  0  0  0  0  0  0
   -2.2620   -0.4950   -1.4240 C   0  0  1  0  0  0  0  0  0  0  0  0
   -1.4450    0.1370   -2.5060 C   0  0  0  0  0  0  0  0  0  0  0  0
   -2.2490    0.4000   -3.7430 C   0  0  0  0  0  0  0  0  0  0  0  0
   -3.3930    1.3180   -3.5060 C   0  0  0  0  0  0  0  0  0  0  0  0
   -4.4010    1.0350   -2.8240 O   0  0  0  0  0  0  0  0  0  0  0  0
   -2.8560   -1.7980   -1.7520 C   0  0  0  0  0  0  0  0  0  0  0  0
   -3.6570   -1.9230   -2.6910 O   0  0  0  0  0  0  0  0  0  0  0  0
   -3.3820    2.6100   -4.0710 O   0  0  0  0  0  0  0  0  0  0  0  0
   -2.5610   -2.9650   -1.0360 O   0  0  0  0  0  0  0  0  0  0  0  0
   -0.5810   -1.3170   -0.3410 H   0  0  0  0  0  0  0  0  0  0  0  0
   -3.0370    0.2220   -1.1010 H   0  0  0  0  0  0  0  0  0  0  0  0
   -0.9790    1.0810   -2.1260 H   0  0  0  0  0  0  0  0  0  0  0  0
   -0.5890   -0.5160   -2.8270 H   0  0  0  0  0  0  0  0  0  0  0  0
   -2.6300   -0.5530   -4.1360 H   0  0  0  0  0  0  0  0  0  0  0  0
   -1.5970    0.8470   -4.5570 H   0  0  0  0  0  0  0  0  0  0  0  0
   -3.7670    3.3820   -3.5150 H   0  0  0  0  0  0  0  0  0  0  0  0
  1  2  1  0  0  0  0
  1  5  1  0  0  0  0
  2  3  1  0  0  0  0
  3  4  1  0  0  0  0
  3 11  1  0  0  0  0
  4 13  1  0  0  0  0
  4 14  1  0  0  0  0
  5 15  1  6  0  0  0
  5  6  1  0  0  0  0
  5  4  1  0  0  0  0
  6  7  2  0  0  0  0
  8  1  1  0  0  0  0
  9  2  1  0  0  0  0
 10  2  1  0  0  0  0
 12  3  1  0  0  0  0
 16 17  1  0  0  0  0
 16  6  1  0  0  0  0
 17 26  1  1  0  0  0
 17 18  1  0  0  0  0
 18 28  1  0  0  0  0
 18 27  1  0  0  0  0
 19 18  1  0  0  0  0
 19 29  1  0  0  0  0
 20 19  1  0  0  0  0
 20 21  2  0  0  0  0
 22 23  2  0  0  0  0
 22 17  1  0  0  0  0
 24 20  1  0  0  0  0
 25 16  1  0  0  0  0
 30 19  1  0  0  0  0
 31 24  1  0  0  0  0
 32 22  1  0  0  0  0
 33 43  1  1  0  0  0
 33 32  1  0  0  0  0
 34 44  1  0  0  0  0
 34 33  1  0  0  0  0
 35 36  1  0  0  0  0
 35 34  1  0  0  0  0
 36 37  2  0  0  0  0
 38 33  1  0  0  0  0
 38 41  1  0  0  0  0
 39 38  2  0  0  0  0
 40 48  1  0  0  0  0
 40 36  1  0  0  0  0
 42 32  1  0  0  0  0
 45 34  1  0  0  0  0
 46 35  1  0  0  0  0
 47 35  1  0  0  0  0
M  END
$$$$
