PEF.pdb
 OpenBabel07022419033D

 52 53  0  0  1  0  0  0  0  0999 V2000
    3.6060   -3.3340    0.9390 N   0  0  0  0  0  0  0  0  0  0  0  0
    3.0250   -4.4920    0.3390 C   0  0  0  0  0  0  0  0  0  0  0  0
    2.1100   -4.0200   -0.7660 C   0  0  0  0  0  0  0  0  0  0  0  0
    1.7210   -2.6470   -0.2820 C   0  0  0  0  0  0  0  0  0  0  0  0
    2.9340   -2.1680    0.4610 C   0  0  1  0  0  0  0  0  0  0  0  0
    2.5100   -1.2930    1.5940 C   0  0  0  0  0  0  0  0  0  0  0  0
    2.7350   -1.5880    2.7790 O   0  0  0  0  0  0  0  0  0  0  0  0
    3.6300   -3.3510    1.9810 H   0  0  0  0  0  0  0  0  0  0  0  0
    2.4500   -5.0500    1.1310 H   0  0  0  0  0  0  0  0  0  0  0  0
    3.7380   -5.2070   -0.0880 H   0  0  0  0  0  0  0  0  0  0  0  0
    1.1820   -4.6610   -0.8180 H   0  0  0  0  0  0  0  0  0  0  0  0
    2.6090   -4.0350   -1.7330 H   0  0  0  0  0  0  0  0  0  0  0  0
    0.8610   -2.7840    0.4090 H   0  0  0  0  0  0  0  0  0  0  0  0
    1.4070   -1.9700   -1.0950 H   0  0  0  0  0  0  0  0  0  0  0  0
    3.6020   -1.5930   -0.1960 H   0  0  0  0  0  0  0  0  0  0  0  0
    1.8290   -0.0880    1.3040 N   0  0  0  0  0  0  0  0  0  0  0  0
    1.3700    0.8360    2.3040 C   0  0  1  0  0  0  0  0  0  0  0  0
    2.0830    2.1560    2.2340 C   0  0  0  0  0  0  0  0  0  0  0  0
    1.9450    2.8900    0.9380 C   0  0  0  0  0  0  0  0  0  0  0  0
    0.5640    3.2480    0.5680 C   0  0  0  0  0  0  0  0  0  0  0  0
   -0.1270    2.4970   -0.1250 O   0  0  0  0  0  0  0  0  0  0  0  0
   -0.1000    0.9330    2.4050 C   0  0  0  0  0  0  0  0  0  0  0  0
   -0.5860    1.7790    3.1970 O   0  0  0  0  0  0  0  0  0  0  0  0
   -0.0250    4.4550    0.9860 O   0  0  0  0  0  0  0  0  0  0  0  0
    1.6260    0.1840    0.2950 H   0  0  0  0  0  0  0  0  0  0  0  0
    1.6780    0.3640    3.3090 H   0  0  0  0  0  0  0  0  0  0  0  0
    1.7600    2.8170    3.0890 H   0  0  0  0  0  0  0  0  0  0  0  0
    3.1930    1.9890    2.3750 H   0  0  0  0  0  0  0  0  0  0  0  0
    2.5150    3.8600    0.9450 H   0  0  0  0  0  0  0  0  0  0  0  0
    2.4050    2.3260    0.0870 H   0  0  0  0  0  0  0  0  0  0  0  0
   -0.9890    4.6410    0.7420 H   0  0  0  0  0  0  0  0  0  0  0  0
   -1.0080    0.1080    1.6480 N   0  0  0  0  0  0  0  0  0  0  0  0
   -2.4350    0.2340    1.7770 C   0  0  1  0  0  0  0  0  0  0  0  0
   -3.1520    0.4760    0.4940 C   0  0  0  0  0  0  0  0  0  0  0  0
   -2.9880   -0.5760   -0.5140 C   0  0  0  0  0  0  0  0  0  0  0  0
   -1.9440   -0.5000   -1.4080 C   0  0  0  0  0  0  0  0  0  0  0  0
   -1.7610   -1.4710   -2.3700 C   0  0  0  0  0  0  0  0  0  0  0  0
   -2.6290   -2.5500   -2.4540 C   0  0  0  0  0  0  0  0  0  0  0  0
   -3.6790   -2.6330   -1.5590 C   0  0  0  0  0  0  0  0  0  0  0  0
   -3.8420   -1.6510   -0.6080 C   0  0  0  0  0  0  0  0  0  0  0  0
   -2.9890   -0.9730    2.4450 C   0  0  0  0  0  0  0  0  0  0  0  0
   -2.2200   -1.8890    2.7800 O   0  0  0  0  0  0  0  0  0  0  0  0
   -4.3400   -1.1240    2.7140 O   0  0  0  0  0  0  0  0  0  0  0  0
   -0.5380   -0.5780    1.0070 H   0  0  0  0  0  0  0  0  0  0  0  0
   -2.6350    1.0830    2.4640 H   0  0  0  0  0  0  0  0  0  0  0  0
   -2.8850    1.4670    0.0700 H   0  0  0  0  0  0  0  0  0  0  0  0
   -4.2410    0.5400    0.7320 H   0  0  0  0  0  0  0  0  0  0  0  0
   -1.2260    0.3330   -1.3880 H   0  0  0  0  0  0  0  0  0  0  0  0
   -0.9320   -1.3990   -3.0710 H   0  0  0  0  0  0  0  0  0  0  0  0
   -2.4600   -3.2960   -3.2190 H   0  0  0  0  0  0  0  0  0  0  0  0
   -4.3400   -3.4940   -1.6550 H   0  0  0  0  0  0  0  0  0  0  0  0
   -4.6870   -1.7630    0.0730 H   0  0  0  0  0  0  0  0  0  0  0  0
  1  8  1  0  0  0  0
  2  1  1  0  0  0  0
  2  9  1  0  0  0  0
  3  4  1  0  0  0  0
  3  2  1  0  0  0  0
  4 13  1  0  0  0  0
  4  5  1  0  0  0  0
  5 15  1  6  0  0  0
  5  1  1  0  0  0  0
  5  6  1  0  0  0  0
  6  7  2  0  0  0  0
 10  2  1  0  0  0  0
 11  3  1  0  0  0  0
 12  3  1  0  0  0  0
 14  4  1  0  0  0  0
 16  6  1  0  0  0  0
 16 17  1  0  0  0  0
 17 22  1  0  0  0  0
 17 26  1  1  0  0  0
 18 17  1  0  0  0  0
 18 28  1  0  0  0  0
 18 27  1  0  0  0  0
 19 29  1  0  0  0  0
 19 18  1  0  0  0  0
 20 19  1  0  0  0  0
 20 24  1  0  0  0  0
 21 20  2  0  0  0  0
 22 23  2  0  0  0  0
 25 16  1  0  0  0  0
 30 19  1  0  0  0  0
 31 24  1  0  0  0  0
 32 33  1  0  0  0  0
 32 22  1  0  0  0  0
 33 41  1  0  0  0  0
 33 45  1  1  0  0  0
 34 47  1  0  0  0  0
 34 33  1  0  0  0  0
 35 34  1  0  0  0  0
 36 48  1  0  0  0  0
 36 35  2  0  0  0  0
 37 36  1  0  0  0  0
 38 37  2  0  0  0  0
 38 39  1  0  0  0  0
 39 40  2  0  0  0  0
 40 35  1  0  0  0  0
 40 52  1  0  0  0  0
 41 43  2  0  0  0  0
 41 42  1  0  0  0  0
 44 32  1  0  0  0  0
 46 34  1  0  0  0  0
 49 37  1  0  0  0  0
 50 38  1  0  0  0  0
 51 39  1  0  0  0  0
M  END
$$$$
