PEK.pdb
 OpenBabel07022419033D

 53 53  0  0  1  0  0  0  0  0999 V2000
    2.1590   -2.8170    1.8000 N   0  0  0  0  0  0  0  0  0  0  0  0
    1.6640   -4.1800    1.7770 C   0  0  0  0  0  0  0  0  0  0  0  0
    0.8260   -4.2100    0.5410 C   0  0  0  0  0  0  0  0  0  0  0  0
    1.6140   -3.3900   -0.4460 C   0  0  0  0  0  0  0  0  0  0  0  0
    2.4140   -2.4670    0.4260 C   0  0  1  0  0  0  0  0  0  0  0  0
    1.9470   -1.0450    0.2340 C   0  0  0  0  0  0  0  0  0  0  0  0
    2.0740   -0.5120   -0.8780 O   0  0  0  0  0  0  0  0  0  0  0  0
    2.9810   -2.6920    2.4240 H   0  0  0  0  0  0  0  0  0  0  0  0
    2.4700   -4.9260    1.7830 H   0  0  0  0  0  0  0  0  0  0  0  0
    1.0010   -4.2930    2.6660 H   0  0  0  0  0  0  0  0  0  0  0  0
   -0.1180   -3.6630    0.7660 H   0  0  0  0  0  0  0  0  0  0  0  0
    0.6280   -5.2390    0.1720 H   0  0  0  0  0  0  0  0  0  0  0  0
    0.8910   -2.8520   -1.0930 H   0  0  0  0  0  0  0  0  0  0  0  0
    2.2540   -4.0330   -1.0890 H   0  0  0  0  0  0  0  0  0  0  0  0
    3.4940   -2.4550    0.1670 H   0  0  0  0  0  0  0  0  0  0  0  0
    1.3750   -0.3050    1.2720 N   0  0  0  0  0  0  0  0  0  0  0  0
    0.9140    1.0160    1.3040 C   0  0  1  0  0  0  0  0  0  0  0  0
    1.2210    1.9340    0.1570 C   0  0  0  0  0  0  0  0  0  0  0  0
    2.6890    2.2250   -0.0320 C   0  0  0  0  0  0  0  0  0  0  0  0
    2.8530    3.1010   -1.2230 C   0  0  0  0  0  0  0  0  0  0  0  0
    1.8250    3.4440   -1.8500 O   0  0  0  0  0  0  0  0  0  0  0  0
   -0.4890    1.1170    1.6620 C   0  0  0  0  0  0  0  0  0  0  0  0
   -1.0750    2.2190    1.8160 O   0  0  0  0  0  0  0  0  0  0  0  0
    4.0710    3.5580   -1.6780 O   0  0  0  0  0  0  0  0  0  0  0  0
    1.2660   -0.8280    2.2130 H   0  0  0  0  0  0  0  0  0  0  0  0
    1.5500    1.5160    2.1440 H   0  0  0  0  0  0  0  0  0  0  0  0
    0.7580    2.9280    0.4450 H   0  0  0  0  0  0  0  0  0  0  0  0
    0.7130    1.6550   -0.7790 H   0  0  0  0  0  0  0  0  0  0  0  0
    3.3890    1.4200    0.0670 H   0  0  0  0  0  0  0  0  0  0  0  0
    3.0150    2.9390    0.8310 H   0  0  0  0  0  0  0  0  0  0  0  0
    4.2350    4.0560   -2.5280 H   0  0  0  0  0  0  0  0  0  0  0  0
   -1.2680   -0.0870    1.8570 N   0  0  0  0  0  0  0  0  0  0  0  0
   -2.6580   -0.0340    2.2200 C   0  0  1  0  0  0  0  0  0  0  0  0
   -3.6150   -0.1030    1.0780 C   0  0  0  0  0  0  0  0  0  0  0  0
   -3.6360   -1.2560    0.1920 C   0  0  0  0  0  0  0  0  0  0  0  0
   -2.4720   -1.6150   -0.6290 C   0  0  0  0  0  0  0  0  0  0  0  0
   -2.0190   -0.5380   -1.5840 C   0  0  0  0  0  0  0  0  0  0  0  0
   -0.8730   -1.0620   -2.3060 N   0  0  0  0  0  0  0  0  0  0  0  0
   -2.9810   -0.9900    3.3190 C   0  0  0  0  0  0  0  0  0  0  0  0
   -4.1570   -1.0690    3.7570 O   0  0  0  0  0  0  0  0  0  0  0  0
   -2.0310   -1.8190    3.9030 O   0  0  0  0  0  0  0  0  0  0  0  0
   -0.7880   -1.0180    1.7500 H   0  0  0  0  0  0  0  0  0  0  0  0
   -2.7600    1.0100    2.7080 H   0  0  0  0  0  0  0  0  0  0  0  0
   -3.5630    0.8890    0.5480 H   0  0  0  0  0  0  0  0  0  0  0  0
   -4.6530   -0.0400    1.5570 H   0  0  0  0  0  0  0  0  0  0  0  0
   -3.9760   -2.1540    0.8090 H   0  0  0  0  0  0  0  0  0  0  0  0
   -4.5200   -1.1400   -0.5210 H   0  0  0  0  0  0  0  0  0  0  0  0
   -2.7650   -2.4790   -1.3260 H   0  0  0  0  0  0  0  0  0  0  0  0
   -1.6000   -2.0100   -0.1020 H   0  0  0  0  0  0  0  0  0  0  0  0
   -1.6290    0.3450   -1.0030 H   0  0  0  0  0  0  0  0  0  0  0  0
   -2.7720   -0.2590   -2.3290 H   0  0  0  0  0  0  0  0  0  0  0  0
   -0.9550   -2.0560   -2.5520 H   0  0  0  0  0  0  0  0  0  0  0  0
   -0.7700   -0.4730   -3.1680 H   0  0  0  0  0  0  0  0  0  0  0  0
  1  8  1  0  0  0  0
  2  9  1  0  0  0  0
  2  1  1  0  0  0  0
  2 10  1  0  0  0  0
  3 11  1  0  0  0  0
  3  2  1  0  0  0  0
  4  5  1  0  0  0  0
  4  3  1  0  0  0  0
  5 15  1  6  0  0  0
  5  1  1  0  0  0  0
  6  5  1  0  0  0  0
  6 16  1  0  0  0  0
  7  6  2  0  0  0  0
 12  3  1  0  0  0  0
 13  4  1  0  0  0  0
 14  4  1  0  0  0  0
 16 17  1  0  0  0  0
 16 25  1  0  0  0  0
 17 22  1  0  0  0  0
 17 26  1  1  0  0  0
 18 27  1  0  0  0  0
 18 17  1  0  0  0  0
 19 29  1  0  0  0  0
 19 18  1  0  0  0  0
 19 30  1  0  0  0  0
 20 19  1  0  0  0  0
 21 20  2  0  0  0  0
 22 23  2  0  0  0  0
 22 32  1  0  0  0  0
 24 20  1  0  0  0  0
 28 18  1  0  0  0  0
 31 24  1  0  0  0  0
 32 33  1  0  0  0  0
 33 43  1  1  0  0  0
 33 39  1  0  0  0  0
 34 45  1  0  0  0  0
 34 33  1  0  0  0  0
 35 46  1  0  0  0  0
 35 34  1  0  0  0  0
 36 49  1  0  0  0  0
 36 35  1  0  0  0  0
 37 50  1  0  0  0  0
 37 36  1  0  0  0  0
 38 37  1  0  0  0  0
 39 40  2  0  0  0  0
 39 41  1  0  0  0  0
 42 32  1  0  0  0  0
 44 34  1  0  0  0  0
 47 35  1  0  0  0  0
 48 36  1  0  0  0  0
 51 37  1  0  0  0  0
 52 38  1  0  0  0  0
 53 38  1  0  0  0  0
M  END
$$$$
