PEL.pdb
 OpenBabel07022419033D

 51 51  0  0  1  0  0  0  0  0999 V2000
    3.0810   -1.1580    4.1920 N   0  0  0  0  0  0  0  0  0  0  0  0
    2.4380   -1.6530    5.3630 C   0  0  0  0  0  0  0  0  0  0  0  0
    1.0950   -2.1840    5.0160 C   0  0  0  0  0  0  0  0  0  0  0  0
    0.9020   -1.7790    3.5680 C   0  0  0  0  0  0  0  0  0  0  0  0
    2.3120   -1.5800    3.0500 C   0  0  1  0  0  0  0  0  0  0  0  0
    2.4060   -0.6020    1.9480 C   0  0  0  0  0  0  0  0  0  0  0  0
    3.1120    0.4230    2.1180 O   0  0  0  0  0  0  0  0  0  0  0  0
    4.0910   -1.3550    4.1230 H   0  0  0  0  0  0  0  0  0  0  0  0
    3.0480   -2.5000    5.7850 H   0  0  0  0  0  0  0  0  0  0  0  0
    2.3080   -0.8790    6.1590 H   0  0  0  0  0  0  0  0  0  0  0  0
    0.2840   -1.7450    5.6490 H   0  0  0  0  0  0  0  0  0  0  0  0
    1.0610   -3.3040    5.1090 H   0  0  0  0  0  0  0  0  0  0  0  0
    0.3660   -2.6120    3.0700 H   0  0  0  0  0  0  0  0  0  0  0  0
    0.2940   -0.8550    3.4820 H   0  0  0  0  0  0  0  0  0  0  0  0
    2.7180   -2.5470    2.6890 H   0  0  0  0  0  0  0  0  0  0  0  0
    1.7490   -0.7590    0.7230 N   0  0  0  0  0  0  0  0  0  0  0  0
    1.8260    0.2010   -0.3990 C   0  0  1  0  0  0  0  0  0  0  0  0
    2.3290   -0.4710   -1.5970 C   0  0  0  0  0  0  0  0  0  0  0  0
    2.5040    0.2850   -2.8390 C   0  0  0  0  0  0  0  0  0  0  0  0
    1.3170    0.8330   -3.5050 C   0  0  0  0  0  0  0  0  0  0  0  0
    1.2260    2.0000   -3.9770 O   0  0  0  0  0  0  0  0  0  0  0  0
    0.4980    0.7970   -0.4850 C   0  0  0  0  0  0  0  0  0  0  0  0
    0.2150    1.7560   -1.2020 O   0  0  0  0  0  0  0  0  0  0  0  0
    0.1920    0.0090   -3.6380 O   0  0  0  0  0  0  0  0  0  0  0  0
    1.1680   -1.5930    0.5530 H   0  0  0  0  0  0  0  0  0  0  0  0
    2.5780    0.9540   -0.0490 H   0  0  0  0  0  0  0  0  0  0  0  0
    1.6420   -1.3470   -1.8540 H   0  0  0  0  0  0  0  0  0  0  0  0
    3.3580   -0.9260   -1.3700 H   0  0  0  0  0  0  0  0  0  0  0  0
    3.3050    1.0960   -2.7400 H   0  0  0  0  0  0  0  0  0  0  0  0
    2.9960   -0.3660   -3.6490 H   0  0  0  0  0  0  0  0  0  0  0  0
   -0.7500    0.3680   -3.7100 H   0  0  0  0  0  0  0  0  0  0  0  0
   -1.6890   -2.2130   -0.4090 C   0  0  0  0  0  0  0  0  0  0  0  0
   -2.9390   -1.3820   -0.3580 C   0  0  0  0  0  0  0  0  0  0  0  0
   -4.0120   -2.0600   -1.2110 C   0  0  0  0  0  0  0  0  0  0  0  0
   -2.7990    0.0580   -0.6910 C   0  0  0  0  0  0  0  0  0  0  0  0
   -1.9130    0.8180    0.2460 C   0  0  2  0  0  0  0  0  0  0  0  0
   -0.6300    0.3260    0.2650 N   0  0  0  0  0  0  0  0  0  0  0  0
   -2.6720    1.1030    1.4370 C   0  0  0  0  0  0  0  0  0  0  0  0
   -2.3850    0.9950    2.6260 O   0  0  0  0  0  0  0  0  0  0  0  0
   -3.9600    1.5870    1.2040 O   0  0  0  0  0  0  0  0  0  0  0  0
   -1.9000   -3.1950   -0.9450 H   0  0  0  0  0  0  0  0  0  0  0  0
   -0.9280   -1.6520   -0.9840 H   0  0  0  0  0  0  0  0  0  0  0  0
   -1.3180   -2.5480    0.5760 H   0  0  0  0  0  0  0  0  0  0  0  0
   -3.3310   -1.5220    0.7030 H   0  0  0  0  0  0  0  0  0  0  0  0
   -3.6410   -2.3360   -2.2100 H   0  0  0  0  0  0  0  0  0  0  0  0
   -4.9010   -1.4090   -1.2270 H   0  0  0  0  0  0  0  0  0  0  0  0
   -4.2980   -2.9820   -0.6830 H   0  0  0  0  0  0  0  0  0  0  0  0
   -2.3510    0.1000   -1.7440 H   0  0  0  0  0  0  0  0  0  0  0  0
   -3.8270    0.5340   -0.7500 H   0  0  0  0  0  0  0  0  0  0  0  0
   -1.8340    1.8420   -0.2890 H   0  0  0  0  0  0  0  0  0  0  0  0
   -0.4260   -0.4600    0.9220 H   0  0  0  0  0  0  0  0  0  0  0  0
  1  2  1  0  0  0  0
  2  9  1  0  0  0  0
  2 10  1  0  0  0  0
  3 12  1  0  0  0  0
  3  2  1  0  0  0  0
  3 11  1  0  0  0  0
  4  3  1  0  0  0  0
  5 15  1  6  0  0  0
  5  4  1  0  0  0  0
  5  1  1  0  0  0  0
  6  7  2  0  0  0  0
  6  5  1  0  0  0  0
  8  1  1  0  0  0  0
 13  4  1  0  0  0  0
 14  4  1  0  0  0  0
 16  6  1  0  0  0  0
 17 26  1  1  0  0  0
 17 16  1  0  0  0  0
 18 28  1  0  0  0  0
 18 17  1  0  0  0  0
 19 29  1  0  0  0  0
 19 18  1  0  0  0  0
 20 19  1  0  0  0  0
 21 20  2  0  0  0  0
 22 17  1  0  0  0  0
 22 37  1  0  0  0  0
 23 22  2  0  0  0  0
 24 20  1  0  0  0  0
 25 16  1  0  0  0  0
 27 18  1  0  0  0  0
 30 19  1  0  0  0  0
 31 24  1  0  0  0  0
 32 33  1  0  0  0  0
 32 43  1  0  0  0  0
 33 44  1  0  0  0  0
 34 47  1  0  0  0  0
 34 33  1  0  0  0  0
 35 33  1  0  0  0  0
 35 36  1  0  0  0  0
 36 50  1  6  0  0  0
 36 37  1  0  0  0  0
 36 38  1  0  0  0  0
 37 51  1  0  0  0  0
 38 39  1  0  0  0  0
 40 38  2  0  0  0  0
 41 32  1  0  0  0  0
 42 32  1  0  0  0  0
 45 34  1  0  0  0  0
 46 34  1  0  0  0  0
 48 35  1  0  0  0  0
 49 35  1  0  0  0  0
M  END
$$$$
