PEM.pdb
 OpenBabel07022419033D

 49 49  0  0  1  0  0  0  0  0999 V2000
    2.7300   -3.3780    2.9270 N   0  0  0  0  0  0  0  0  0  0  0  0
    2.3590   -4.6820    3.3800 C   0  0  0  0  0  0  0  0  0  0  0  0
    0.8870   -4.7740    3.2140 C   0  0  0  0  0  0  0  0  0  0  0  0
    0.5350   -3.5670    2.3590 C   0  0  0  0  0  0  0  0  0  0  0  0
    1.8370   -3.1050    1.7740 C   0  0  1  0  0  0  0  0  0  0  0  0
    1.9530   -1.7090    1.4120 C   0  0  0  0  0  0  0  0  0  0  0  0
    2.6730   -0.9300    2.1300 O   0  0  0  0  0  0  0  0  0  0  0  0
    3.7090   -3.4670    2.5190 H   0  0  0  0  0  0  0  0  0  0  0  0
    2.8260   -5.4590    2.7390 H   0  0  0  0  0  0  0  0  0  0  0  0
    2.5980   -4.8370    4.4540 H   0  0  0  0  0  0  0  0  0  0  0  0
    0.3160   -4.7050    4.1620 H   0  0  0  0  0  0  0  0  0  0  0  0
    0.5480   -5.7240    2.7160 H   0  0  0  0  0  0  0  0  0  0  0  0
   -0.1160   -3.9190    1.5430 H   0  0  0  0  0  0  0  0  0  0  0  0
    0.0140   -2.8200    2.9450 H   0  0  0  0  0  0  0  0  0  0  0  0
    2.1860   -3.8020    0.9790 H   0  0  0  0  0  0  0  0  0  0  0  0
    1.3380   -1.0650    0.2910 N   0  0  0  0  0  0  0  0  0  0  0  0
    1.5270    0.3550   -0.0150 C   0  0  1  0  0  0  0  0  0  0  0  0
    2.5680    0.4830   -1.0580 C   0  0  0  0  0  0  0  0  0  0  0  0
    2.9120    1.8200   -1.5540 C   0  0  0  0  0  0  0  0  0  0  0  0
    1.9050    2.5380   -2.3610 C   0  0  0  0  0  0  0  0  0  0  0  0
    1.7320    3.7610   -2.4210 O   0  0  0  0  0  0  0  0  0  0  0  0
    0.2500    1.0090   -0.2570 C   0  0  0  0  0  0  0  0  0  0  0  0
    0.1860    2.2960   -0.3290 O   0  0  0  0  0  0  0  0  0  0  0  0
    1.0660    1.7150   -3.1410 O   0  0  0  0  0  0  0  0  0  0  0  0
    0.7590   -1.6300   -0.3150 H   0  0  0  0  0  0  0  0  0  0  0  0
    1.9930    0.7690    0.9530 H   0  0  0  0  0  0  0  0  0  0  0  0
    2.2490   -0.1220   -1.9630 H   0  0  0  0  0  0  0  0  0  0  0  0
    3.5290    0.0250   -0.6600 H   0  0  0  0  0  0  0  0  0  0  0  0
    3.3010    2.5000   -0.7260 H   0  0  0  0  0  0  0  0  0  0  0  0
    3.8300    1.7870   -2.2390 H   0  0  0  0  0  0  0  0  0  0  0  0
    0.5940    2.0680   -3.9600 H   0  0  0  0  0  0  0  0  0  0  0  0
   -1.7100   -0.5670    3.2000 C   0  0  0  0  0  0  0  0  0  0  0  0
   -2.2590   -1.4190    1.6800 S   0  0  0  0  0  0  0  0  0  0  0  0
   -3.6240   -0.5470    0.9220 C   0  0  0  0  0  0  0  0  0  0  0  0
   -3.2830    0.7900    0.3930 C   0  0  0  0  0  0  0  0  0  0  0  0
   -2.2870    0.8810   -0.7040 C   0  0  2  0  0  0  0  0  0  0  0  0
   -1.0070    0.3730   -0.4350 N   0  0  0  0  0  0  0  0  0  0  0  0
   -2.3890    2.1730   -1.4210 C   0  0  0  0  0  0  0  0  0  0  0  0
   -1.4850    2.8090   -1.9010 O   0  0  0  0  0  0  0  0  0  0  0  0
   -3.6930    2.6980   -1.5450 O   0  0  0  0  0  0  0  0  0  0  0  0
   -2.4420    0.2240    3.4860 H   0  0  0  0  0  0  0  0  0  0  0  0
   -1.7280   -1.3230    4.0060 H   0  0  0  0  0  0  0  0  0  0  0  0
   -0.6860   -0.1740    3.1000 H   0  0  0  0  0  0  0  0  0  0  0  0
   -4.4320   -0.4030    1.6870 H   0  0  0  0  0  0  0  0  0  0  0  0
   -4.0840   -1.1850    0.1400 H   0  0  0  0  0  0  0  0  0  0  0  0
   -2.9850    1.5010    1.2010 H   0  0  0  0  0  0  0  0  0  0  0  0
   -4.2470    1.2340   -0.0000 H   0  0  0  0  0  0  0  0  0  0  0  0
   -2.6950    0.1560   -1.5500 H   0  0  0  0  0  0  0  0  0  0  0  0
   -0.9630   -0.7050   -0.3440 H   0  0  0  0  0  0  0  0  0  0  0  0
  1  2  1  0  0  0  0
  2 10  1  0  0  0  0
  3  2  1  0  0  0  0
  3 11  1  0  0  0  0
  4 14  1  0  0  0  0
  4  3  1  0  0  0  0
  5 15  1  6  0  0  0
  5  4  1  0  0  0  0
  5  1  1  0  0  0  0
  6  5  1  0  0  0  0
  6  7  2  0  0  0  0
  8  1  1  0  0  0  0
  9  2  1  0  0  0  0
 12  3  1  0  0  0  0
 13  4  1  0  0  0  0
 16  6  1  0  0  0  0
 17 16  1  0  0  0  0
 17 26  1  1  0  0  0
 18 28  1  0  0  0  0
 18 17  1  0  0  0  0
 19 18  1  0  0  0  0
 19 29  1  0  0  0  0
 20 19  1  0  0  0  0
 21 20  2  0  0  0  0
 22 17  1  0  0  0  0
 23 22  2  0  0  0  0
 24 20  1  0  0  0  0
 25 16  1  0  0  0  0
 27 18  1  0  0  0  0
 30 19  1  0  0  0  0
 31 24  1  0  0  0  0
 32 41  1  0  0  0  0
 32 42  1  0  0  0  0
 33 32  1  0  0  0  0
 34 33  1  0  0  0  0
 34 44  1  0  0  0  0
 35 34  1  0  0  0  0
 35 46  1  0  0  0  0
 36 48  1  6  0  0  0
 36 37  1  0  0  0  0
 36 35  1  0  0  0  0
 37 49  1  0  0  0  0
 37 22  1  0  0  0  0
 38 36  1  0  0  0  0
 39 38  2  0  0  0  0
 40 38  1  0  0  0  0
 43 32  1  0  0  0  0
 45 34  1  0  0  0  0
 47 35  1  0  0  0  0
M  END
$$$$
