PEP.pdb
 OpenBabel07022419033D

 46 47  0  0  1  0  0  0  0  0999 V2000
    1.6200   -4.4200    0.1430 N   0  0  0  0  0  0  0  0  0  0  0  0
    0.7640   -5.0470    1.0950 C   0  0  0  0  0  0  0  0  0  0  0  0
   -0.3860   -4.0530    1.3440 C   0  0  0  0  0  0  0  0  0  0  0  0
   -0.4600   -3.4680   -0.0710 C   0  0  0  0  0  0  0  0  0  0  0  0
    0.9930   -3.1870   -0.3140 C   0  0  1  0  0  0  0  0  0  0  0  0
    1.5660   -2.0500    0.3930 C   0  0  0  0  0  0  0  0  0  0  0  0
    2.4660   -2.1700    1.2880 O   0  0  0  0  0  0  0  0  0  0  0  0
    1.8890   -5.0120   -0.6700 H   0  0  0  0  0  0  0  0  0  0  0  0
    0.2670   -5.9090    0.5710 H   0  0  0  0  0  0  0  0  0  0  0  0
    1.2290   -5.3620    2.0290 H   0  0  0  0  0  0  0  0  0  0  0  0
   -0.0330   -3.2730    2.0480 H   0  0  0  0  0  0  0  0  0  0  0  0
   -1.3090   -4.5470    1.6380 H   0  0  0  0  0  0  0  0  0  0  0  0
   -0.7230   -4.3400   -0.7220 H   0  0  0  0  0  0  0  0  0  0  0  0
   -1.1410   -2.6370   -0.1780 H   0  0  0  0  0  0  0  0  0  0  0  0
    1.1180   -3.1330   -1.4200 H   0  0  0  0  0  0  0  0  0  0  0  0
    1.1250   -0.7180    0.0880 N   0  0  0  0  0  0  0  0  0  0  0  0
    1.6510    0.4360    0.7110 C   0  0  1  0  0  0  0  0  0  0  0  0
    2.2620    1.4160   -0.2880 C   0  0  0  0  0  0  0  0  0  0  0  0
    1.2270    1.8800   -1.2840 C   0  0  0  0  0  0  0  0  0  0  0  0
    1.7990    2.8340   -2.2650 C   0  0  0  0  0  0  0  0  0  0  0  0
    1.0980    3.3340   -3.1810 O   0  0  0  0  0  0  0  0  0  0  0  0
    0.6960    1.1920    1.5040 C   0  0  0  0  0  0  0  0  0  0  0  0
    1.1580    2.2770    2.0510 O   0  0  0  0  0  0  0  0  0  0  0  0
    3.1310    3.2180   -2.2150 O   0  0  0  0  0  0  0  0  0  0  0  0
    0.3960   -0.6380   -0.6470 H   0  0  0  0  0  0  0  0  0  0  0  0
    2.4950    0.0740    1.3960 H   0  0  0  0  0  0  0  0  0  0  0  0
    2.5740    2.3030    0.3000 H   0  0  0  0  0  0  0  0  0  0  0  0
    3.0920    0.9800   -0.8480 H   0  0  0  0  0  0  0  0  0  0  0  0
    0.9050    0.9720   -1.8750 H   0  0  0  0  0  0  0  0  0  0  0  0
    0.3390    2.3020   -0.7940 H   0  0  0  0  0  0  0  0  0  0  0  0
    3.5700    3.7500   -2.9770 H   0  0  0  0  0  0  0  0  0  0  0  0
   -0.6760    0.8870    1.7520 N   0  0  0  0  0  0  0  0  0  0  0  0
   -1.4790   -0.2100    1.3040 C   0  0  0  0  0  0  0  0  0  0  0  0
   -2.8340   -0.0460    1.9980 C   0  0  0  0  0  0  0  0  0  0  0  0
   -2.9130    1.4650    2.1990 C   0  0  0  0  0  0  0  0  0  0  0  0
   -1.5040    1.7450    2.5990 C   0  0  1  0  0  0  0  0  0  0  0  0
   -1.2870    1.2820    4.0050 C   0  0  0  0  0  0  0  0  0  0  0  0
   -1.8920    1.8800    4.9540 O   0  0  0  0  0  0  0  0  0  0  0  0
   -0.4540    0.2270    4.3180 O   0  0  0  0  0  0  0  0  0  0  0  0
   -1.6800   -0.2080    0.2040 H   0  0  0  0  0  0  0  0  0  0  0  0
   -1.1010   -1.1890    1.6770 H   0  0  0  0  0  0  0  0  0  0  0  0
   -3.6500   -0.4550    1.4070 H   0  0  0  0  0  0  0  0  0  0  0  0
   -2.8560   -0.5060    3.0040 H   0  0  0  0  0  0  0  0  0  0  0  0
   -3.0910    1.8870    1.1920 H   0  0  0  0  0  0  0  0  0  0  0  0
   -3.6530    1.7390    2.9490 H   0  0  0  0  0  0  0  0  0  0  0  0
   -1.2180    2.8110    2.4870 H   0  0  0  0  0  0  0  0  0  0  0  0
  1  2  1  0  0  0  0
  2  3  1  0  0  0  0
  2 10  1  0  0  0  0
  3 12  1  0  0  0  0
  3 11  1  0  0  0  0
  4  3  1  0  0  0  0
  5 15  1  6  0  0  0
  5  4  1  0  0  0  0
  5  1  1  0  0  0  0
  5  6  1  0  0  0  0
  6  7  2  0  0  0  0
  8  1  1  0  0  0  0
  9  2  1  0  0  0  0
 13  4  1  0  0  0  0
 14  4  1  0  0  0  0
 16  6  1  0  0  0  0
 16 17  1  0  0  0  0
 17 26  1  1  0  0  0
 17 22  1  0  0  0  0
 18 27  1  0  0  0  0
 18 17  1  0  0  0  0
 19 30  1  0  0  0  0
 19 18  1  0  0  0  0
 20 24  1  0  0  0  0
 20 19  1  0  0  0  0
 21 20  2  0  0  0  0
 22 32  1  0  0  0  0
 22 23  2  0  0  0  0
 25 16  1  0  0  0  0
 28 18  1  0  0  0  0
 29 19  1  0  0  0  0
 31 24  1  0  0  0  0
 32 36  1  0  0  0  0
 33 41  1  0  0  0  0
 33 32  1  0  0  0  0
 33 34  1  0  0  0  0
 34 35  1  0  0  0  0
 34 43  1  0  0  0  0
 35 36  1  0  0  0  0
 35 45  1  0  0  0  0
 36 46  1  6  0  0  0
 36 37  1  0  0  0  0
 37 39  2  0  0  0  0
 37 38  1  0  0  0  0
 40 33  1  0  0  0  0
 42 34  1  0  0  0  0
 44 35  1  0  0  0  0
M  END
$$$$
