PEQ.pdb
 OpenBabel07022419033D

 49 49  0  0  1  0  0  0  0  0999 V2000
    0.4460   -3.5870    2.2400 N   0  0  0  0  0  0  0  0  0  0  0  0
    0.5530   -4.8140    3.0310 C   0  0  0  0  0  0  0  0  0  0  0  0
    2.0070   -4.7670    3.4470 C   0  0  0  0  0  0  0  0  0  0  0  0
    2.2180   -3.2890    3.6740 C   0  0  0  0  0  0  0  0  0  0  0  0
    0.9590   -2.6070    3.1570 C   0  0  1  0  0  0  0  0  0  0  0  0
    1.3530   -1.3500    2.4360 C   0  0  0  0  0  0  0  0  0  0  0  0
    1.8220   -0.3770    3.0630 O   0  0  0  0  0  0  0  0  0  0  0  0
   -0.5520   -3.4700    2.0170 H   0  0  0  0  0  0  0  0  0  0  0  0
   -0.0420   -4.6890    3.9620 H   0  0  0  0  0  0  0  0  0  0  0  0
    0.2870   -5.7080    2.4590 H   0  0  0  0  0  0  0  0  0  0  0  0
    2.1780   -5.3550    4.3650 H   0  0  0  0  0  0  0  0  0  0  0  0
    2.6510   -5.1360    2.6120 H   0  0  0  0  0  0  0  0  0  0  0  0
    2.3830   -3.0930    4.7540 H   0  0  0  0  0  0  0  0  0  0  0  0
    3.1050   -2.9450    3.0900 H   0  0  0  0  0  0  0  0  0  0  0  0
    0.2730   -2.3760    3.9830 H   0  0  0  0  0  0  0  0  0  0  0  0
    1.1870   -1.2710    1.0250 N   0  0  0  0  0  0  0  0  0  0  0  0
    1.5660   -0.0440    0.2820 C   0  0  1  0  0  0  0  0  0  0  0  0
    2.6100   -0.4870   -0.6930 C   0  0  0  0  0  0  0  0  0  0  0  0
    3.1480    0.5330   -1.6300 C   0  0  0  0  0  0  0  0  0  0  0  0
    2.2070    0.9960   -2.6670 C   0  0  0  0  0  0  0  0  0  0  0  0
    1.2430    0.2410   -2.9780 O   0  0  0  0  0  0  0  0  0  0  0  0
    0.3650    0.5550   -0.2630 C   0  0  0  0  0  0  0  0  0  0  0  0
    0.3310    1.7400   -0.7510 O   0  0  0  0  0  0  0  0  0  0  0  0
    2.3280    2.2110   -3.3130 O   0  0  0  0  0  0  0  0  0  0  0  0
    0.8040   -2.1110    0.5540 H   0  0  0  0  0  0  0  0  0  0  0  0
    2.0680    0.6510    1.0330 H   0  0  0  0  0  0  0  0  0  0  0  0
    3.4980   -0.9450   -0.1490 H   0  0  0  0  0  0  0  0  0  0  0  0
    2.2430   -1.3700   -1.3020 H   0  0  0  0  0  0  0  0  0  0  0  0
    3.5090    1.4080   -1.0110 H   0  0  0  0  0  0  0  0  0  0  0  0
    4.0550    0.1770   -2.1800 H   0  0  0  0  0  0  0  0  0  0  0  0
    1.5210    2.5750   -3.8000 H   0  0  0  0  0  0  0  0  0  0  0  0
   -3.3220    2.4460    2.7680 N   0  0  0  0  0  0  0  0  0  0  0  0
   -3.3750    2.0030    1.4220 C   0  0  0  0  0  0  0  0  0  0  0  0
   -4.3290    1.2560    1.1140 O   0  0  0  0  0  0  0  0  0  0  0  0
   -2.3060    2.4510    0.4710 C   0  0  0  0  0  0  0  0  0  0  0  0
   -2.3550    1.7610   -0.8500 C   0  0  0  0  0  0  0  0  0  0  0  0
   -2.1220    0.2800   -0.7580 C   0  0  2  0  0  0  0  0  0  0  0  0
   -0.8550   -0.1540   -0.2850 N   0  0  0  0  0  0  0  0  0  0  0  0
   -2.4640   -0.4240   -1.9890 C   0  0  0  0  0  0  0  0  0  0  0  0
   -3.5370   -0.2250   -2.6170 O   0  0  0  0  0  0  0  0  0  0  0  0
   -1.5830   -1.3590   -2.5070 O   0  0  0  0  0  0  0  0  0  0  0  0
   -2.7750    1.8820    3.4430 H   0  0  0  0  0  0  0  0  0  0  0  0
   -3.8170    3.3030    3.0440 H   0  0  0  0  0  0  0  0  0  0  0  0
   -2.5070    3.5630    0.3700 H   0  0  0  0  0  0  0  0  0  0  0  0
   -1.3770    2.3960    1.0400 H   0  0  0  0  0  0  0  0  0  0  0  0
   -1.7670    2.2520   -1.6350 H   0  0  0  0  0  0  0  0  0  0  0  0
   -3.4270    1.8640   -1.2040 H   0  0  0  0  0  0  0  0  0  0  0  0
   -2.8620   -0.0900    0.0530 H   0  0  0  0  0  0  0  0  0  0  0  0
   -0.8670   -1.1600    0.0950 H   0  0  0  0  0  0  0  0  0  0  0  0
  1  2  1  0  0  0  0
  1  5  1  0  0  0  0
  2  3  1  0  0  0  0
  2  9  1  0  0  0  0
  3  4  1  0  0  0  0
  3 11  1  0  0  0  0
  4 13  1  0  0  0  0
  5  4  1  0  0  0  0
  5 15  1  1  0  0  0
  6  7  2  0  0  0  0
  6  5  1  0  0  0  0
  8  1  1  0  0  0  0
 10  2  1  0  0  0  0
 12  3  1  0  0  0  0
 14  4  1  0  0  0  0
 16  6  1  0  0  0  0
 17 16  1  0  0  0  0
 17 26  1  1  0  0  0
 18 27  1  0  0  0  0
 18 17  1  0  0  0  0
 19 29  1  0  0  0  0
 19 18  1  0  0  0  0
 20 19  1  0  0  0  0
 21 20  2  0  0  0  0
 22 17  1  0  0  0  0
 23 22  2  0  0  0  0
 24 20  1  0  0  0  0
 25 16  1  0  0  0  0
 28 18  1  0  0  0  0
 30 19  1  0  0  0  0
 31 24  1  0  0  0  0
 32 43  1  0  0  0  0
 32 42  1  0  0  0  0
 33 32  1  0  0  0  0
 34 33  2  0  0  0  0
 35 45  1  0  0  0  0
 35 33  1  0  0  0  0
 36 37  1  0  0  0  0
 36 35  1  0  0  0  0
 37 38  1  0  0  0  0
 37 48  1  1  0  0  0
 38 22  1  0  0  0  0
 38 49  1  0  0  0  0
 39 37  1  0  0  0  0
 40 39  2  0  0  0  0
 41 39  1  0  0  0  0
 44 35  1  0  0  0  0
 46 36  1  0  0  0  0
 47 36  1  0  0  0  0
M  END
$$$$
