PER.pdb
 OpenBabel07022419033D

 55 55  0  0  1  0  0  0  0  0999 V2000
    4.0070   -3.2500    3.0630 N   0  0  0  0  0  0  0  0  0  0  0  0
    3.1100   -4.3730    3.0990 C   0  0  0  0  0  0  0  0  0  0  0  0
    2.7100   -4.6500    1.6730 C   0  0  0  0  0  0  0  0  0  0  0  0
    3.1210   -3.4420    0.8680 C   0  0  0  0  0  0  0  0  0  0  0  0
    3.7020   -2.5000    1.8720 C   0  0  1  0  0  0  0  0  0  0  0  0
    2.8400   -1.3590    2.1870 C   0  0  0  0  0  0  0  0  0  0  0  0
    2.4850   -1.1790    3.3750 O   0  0  0  0  0  0  0  0  0  0  0  0
    4.9790   -3.6250    3.0780 H   0  0  0  0  0  0  0  0  0  0  0  0
    2.2190   -4.1520    3.7400 H   0  0  0  0  0  0  0  0  0  0  0  0
    3.5720   -5.2810    3.5540 H   0  0  0  0  0  0  0  0  0  0  0  0
    1.6090   -4.8060    1.6710 H   0  0  0  0  0  0  0  0  0  0  0  0
    3.1900   -5.5880    1.3080 H   0  0  0  0  0  0  0  0  0  0  0  0
    2.2270   -3.0470    0.3490 H   0  0  0  0  0  0  0  0  0  0  0  0
    3.9330   -3.7550    0.1740 H   0  0  0  0  0  0  0  0  0  0  0  0
    4.6760   -2.0940    1.4940 H   0  0  0  0  0  0  0  0  0  0  0  0
    2.3630   -0.4200    1.2330 N   0  0  0  0  0  0  0  0  0  0  0  0
    1.5160    0.6950    1.5600 C   0  0  1  0  0  0  0  0  0  0  0  0
    2.1340    2.0330    1.4020 C   0  0  0  0  0  0  0  0  0  0  0  0
    2.6230    2.4230    0.0640 C   0  0  0  0  0  0  0  0  0  0  0  0
    1.5200    2.4280   -0.9130 C   0  0  0  0  0  0  0  0  0  0  0  0
    1.1660    1.4530   -1.6200 O   0  0  0  0  0  0  0  0  0  0  0  0
    0.1470    0.5550    1.0020 C   0  0  0  0  0  0  0  0  0  0  0  0
   -0.7240    1.4640    1.1780 O   0  0  0  0  0  0  0  0  0  0  0  0
    0.7730    3.6070   -1.1010 O   0  0  0  0  0  0  0  0  0  0  0  0
    2.6530   -0.5640    0.2440 H   0  0  0  0  0  0  0  0  0  0  0  0
    1.3510    0.5980    2.6870 H   0  0  0  0  0  0  0  0  0  0  0  0
    2.9820    2.0870    2.1480 H   0  0  0  0  0  0  0  0  0  0  0  0
    1.3980    2.7790    1.7960 H   0  0  0  0  0  0  0  0  0  0  0  0
    3.0020    3.4870    0.1290 H   0  0  0  0  0  0  0  0  0  0  0  0
    3.5060    1.8510   -0.2870 H   0  0  0  0  0  0  0  0  0  0  0  0
    0.0590    3.6870   -1.8310 H   0  0  0  0  0  0  0  0  0  0  0  0
   -4.9220    0.7290    1.1720 N   0  0  0  0  0  0  0  0  0  0  0  0
   -5.0320    0.3780   -0.1870 C   0  0  0  0  0  0  0  0  0  0  0  0
   -5.9690   -0.4050   -0.5780 N   0  0  0  0  0  0  0  0  0  0  0  0
   -4.1140    0.8820   -1.1290 N   0  0  0  0  0  0  0  0  0  0  0  0
   -3.7820    0.2680   -2.3530 C   0  0  0  0  0  0  0  0  0  0  0  0
   -3.0070   -1.0030   -2.3330 C   0  0  0  0  0  0  0  0  0  0  0  0
   -1.6570   -0.9660   -1.7190 C   0  0  0  0  0  0  0  0  0  0  0  0
   -1.6720   -0.6470   -0.2750 C   0  0  2  0  0  0  0  0  0  0  0  0
   -0.2780   -0.5740    0.2530 N   0  0  0  0  0  0  0  0  0  0  0  0
   -2.2260   -1.8470    0.4530 C   0  0  0  0  0  0  0  0  0  0  0  0
   -1.4700   -2.4520    1.2650 O   0  0  0  0  0  0  0  0  0  0  0  0
   -3.4890   -2.3410    0.3080 O   0  0  0  0  0  0  0  0  0  0  0  0
   -3.9990    0.8250    1.6240 H   0  0  0  0  0  0  0  0  0  0  0  0
   -5.8040    0.8970    1.7370 H   0  0  0  0  0  0  0  0  0  0  0  0
   -6.6840   -0.8240    0.0260 H   0  0  0  0  0  0  0  0  0  0  0  0
   -3.6510    1.8110   -0.8810 H   0  0  0  0  0  0  0  0  0  0  0  0
   -3.2110    0.9840   -3.0220 H   0  0  0  0  0  0  0  0  0  0  0  0
   -4.7270    0.0440   -2.9520 H   0  0  0  0  0  0  0  0  0  0  0  0
   -3.6940   -1.7770   -1.8770 H   0  0  0  0  0  0  0  0  0  0  0  0
   -2.9420   -1.3720   -3.4120 H   0  0  0  0  0  0  0  0  0  0  0  0
   -1.0400   -0.2590   -2.3280 H   0  0  0  0  0  0  0  0  0  0  0  0
   -1.2180   -1.9950   -1.8270 H   0  0  0  0  0  0  0  0  0  0  0  0
   -2.1730    0.2470    0.0540 H   0  0  0  0  0  0  0  0  0  0  0  0
    0.3690   -1.3460    0.0690 H   0  0  0  0  0  0  0  0  0  0  0  0
  1  8  1  0  0  0  0
  1  2  1  0  0  0  0
  2 10  1  0  0  0  0
  2  9  1  0  0  0  0
  3  2  1  0  0  0  0
  4  3  1  0  0  0  0
  4  5  1  0  0  0  0
  5 15  1  6  0  0  0
  5  6  1  0  0  0  0
  5  1  1  0  0  0  0
  6  7  2  0  0  0  0
 11  3  1  0  0  0  0
 12  3  1  0  0  0  0
 13  4  1  0  0  0  0
 14  4  1  0  0  0  0
 16 17  1  0  0  0  0
 16  6  1  0  0  0  0
 17 26  1  1  0  0  0
 18 17  1  0  0  0  0
 18 28  1  0  0  0  0
 18 27  1  0  0  0  0
 19 29  1  0  0  0  0
 19 18  1  0  0  0  0
 20 19  1  0  0  0  0
 21 20  2  0  0  0  0
 22 23  2  0  0  0  0
 22 17  1  0  0  0  0
 24 20  1  0  0  0  0
 25 16  1  0  0  0  0
 30 19  1  0  0  0  0
 31 24  1  0  0  0  0
 32 44  1  0  0  0  0
 32 45  1  0  0  0  0
 33 32  1  0  0  0  0
 34 33  2  0  0  0  0
 34 46  1  0  0  0  0
 35 47  1  0  0  0  0
 35 33  1  0  0  0  0
 36 37  1  0  0  0  0
 36 35  1  0  0  0  0
 37 50  1  0  0  0  0
 37 38  1  0  0  0  0
 38 39  1  0  0  0  0
 39 54  1  1  0  0  0
 39 40  1  0  0  0  0
 39 41  1  0  0  0  0
 40 22  1  0  0  0  0
 41 42  1  0  0  0  0
 43 41  2  0  0  0  0
 48 36  1  0  0  0  0
 49 36  1  0  0  0  0
 51 37  1  0  0  0  0
 52 38  1  0  0  0  0
 53 38  1  0  0  0  0
 55 40  1  0  0  0  0
M  END
$$$$
