PEW.pdb
 OpenBabel07022419033D

 56 58  0  0  1  0  0  0  0  0999 V2000
   -0.7100   -2.0080    3.1300 N   0  0  0  0  0  0  0  0  0  0  0  0
    0.0870   -3.1780    3.0440 C   0  0  0  0  0  0  0  0  0  0  0  0
    0.6400   -3.2660    4.4710 C   0  0  0  0  0  0  0  0  0  0  0  0
    0.7580   -1.8500    4.9310 C   0  0  0  0  0  0  0  0  0  0  0  0
    0.0740   -1.0500    3.8570 C   0  0  1  0  0  0  0  0  0  0  0  0
    1.0270   -0.3510    2.9590 C   0  0  0  0  0  0  0  0  0  0  0  0
    1.8250    0.4710    3.4850 O   0  0  0  0  0  0  0  0  0  0  0  0
   -1.1620   -1.6700    2.2790 H   0  0  0  0  0  0  0  0  0  0  0  0
    0.8900   -3.1920    2.3020 H   0  0  0  0  0  0  0  0  0  0  0  0
   -0.5190   -4.1060    2.8300 H   0  0  0  0  0  0  0  0  0  0  0  0
    1.6470   -3.7460    4.4470 H   0  0  0  0  0  0  0  0  0  0  0  0
   -0.0920   -3.8690    5.0570 H   0  0  0  0  0  0  0  0  0  0  0  0
    1.8170   -1.4940    4.9680 H   0  0  0  0  0  0  0  0  0  0  0  0
    0.2480   -1.6630    5.9020 H   0  0  0  0  0  0  0  0  0  0  0  0
   -0.6180   -0.2800    4.3320 H   0  0  0  0  0  0  0  0  0  0  0  0
    1.0800   -0.5540    1.5890 N   0  0  0  0  0  0  0  0  0  0  0  0
    2.0310    0.1400    0.6930 C   0  0  1  0  0  0  0  0  0  0  0  0
    2.8940   -0.8140    0.0090 C   0  0  0  0  0  0  0  0  0  0  0  0
    3.9020   -0.2720   -0.9220 C   0  0  0  0  0  0  0  0  0  0  0  0
    3.4990    0.4060   -2.1310 C   0  0  0  0  0  0  0  0  0  0  0  0
    4.0910    1.4420   -2.5080 O   0  0  0  0  0  0  0  0  0  0  0  0
    1.1890    1.0240   -0.1230 C   0  0  0  0  0  0  0  0  0  0  0  0
    1.6520    1.9520   -0.8720 O   0  0  0  0  0  0  0  0  0  0  0  0
    2.4580   -0.0630   -2.9080 O   0  0  0  0  0  0  0  0  0  0  0  0
    0.4420   -1.2190    1.1130 H   0  0  0  0  0  0  0  0  0  0  0  0
    2.6660    0.7660    1.3920 H   0  0  0  0  0  0  0  0  0  0  0  0
    2.2880   -1.6240   -0.5110 H   0  0  0  0  0  0  0  0  0  0  0  0
    3.5240   -1.3470    0.8130 H   0  0  0  0  0  0  0  0  0  0  0  0
    4.5230   -1.1760   -1.2690 H   0  0  0  0  0  0  0  0  0  0  0  0
    4.6480    0.3450   -0.3270 H   0  0  0  0  0  0  0  0  0  0  0  0
    2.0140    0.5950   -3.5390 H   0  0  0  0  0  0  0  0  0  0  0  0
   -0.2300    0.9370   -0.1640 N   0  0  0  0  0  0  0  0  0  0  0  0
   -0.9970    1.8270   -0.9820 C   0  0  1  0  0  0  0  0  0  0  0  0
   -1.5620    1.0950   -2.1610 C   0  0  0  0  0  0  0  0  0  0  0  0
   -2.4430   -0.0330   -1.8590 C   0  0  0  0  0  0  0  0  0  0  0  0
   -3.8270   -0.0880   -1.8120 C   0  0  0  0  0  0  0  0  0  0  0  0
   -4.2620   -1.3010   -1.4760 N   0  0  0  0  0  0  0  0  0  0  0  0
   -3.1770   -2.0600   -1.2980 C   0  0  0  0  0  0  0  0  0  0  0  0
   -3.1020   -3.3990   -0.9500 C   0  0  0  0  0  0  0  0  0  0  0  0
   -1.8800   -4.0320   -0.8200 C   0  0  0  0  0  0  0  0  0  0  0  0
   -0.7510   -3.2860   -1.0480 C   0  0  0  0  0  0  0  0  0  0  0  0
   -0.8240   -1.9540   -1.3940 C   0  0  0  0  0  0  0  0  0  0  0  0
   -2.0330   -1.3010   -1.5290 C   0  0  0  0  0  0  0  0  0  0  0  0
   -2.0550    2.5370   -0.2280 C   0  0  0  0  0  0  0  0  0  0  0  0
   -2.2080    2.3390    0.9890 O   0  0  0  0  0  0  0  0  0  0  0  0
   -2.8920    3.4340   -0.8690 O   0  0  0  0  0  0  0  0  0  0  0  0
   -0.7270    0.2340    0.4090 H   0  0  0  0  0  0  0  0  0  0  0  0
   -0.3410    2.6660   -1.3950 H   0  0  0  0  0  0  0  0  0  0  0  0
   -0.6860    0.6720   -2.7360 H   0  0  0  0  0  0  0  0  0  0  0  0
   -2.0960    1.7970   -2.8670 H   0  0  0  0  0  0  0  0  0  0  0  0
   -4.4550    0.7530   -2.0240 H   0  0  0  0  0  0  0  0  0  0  0  0
   -5.2580   -1.5820   -1.3780 H   0  0  0  0  0  0  0  0  0  0  0  0
   -4.0060   -3.9790   -0.7720 H   0  0  0  0  0  0  0  0  0  0  0  0
   -1.8130   -5.0820   -0.5480 H   0  0  0  0  0  0  0  0  0  0  0  0
    0.2220   -3.7690   -0.9510 H   0  0  0  0  0  0  0  0  0  0  0  0
    0.1150   -1.4180   -1.5670 H   0  0  0  0  0  0  0  0  0  0  0  0
  1  5  1  0  0  0  0
  2  1  1  0  0  0  0
  2  3  1  0  0  0  0
  3  4  1  0  0  0  0
  3 12  1  0  0  0  0
  4 13  1  0  0  0  0
  4 14  1  0  0  0  0
  5 15  1  1  0  0  0
  5  4  1  0  0  0  0
  6  7  2  0  0  0  0
  6  5  1  0  0  0  0
  8  1  1  0  0  0  0
  9  2  1  0  0  0  0
 10  2  1  0  0  0  0
 11  3  1  0  0  0  0
 16  6  1  0  0  0  0
 17 26  1  1  0  0  0
 17 16  1  0  0  0  0
 18 17  1  0  0  0  0
 18 28  1  0  0  0  0
 19 30  1  0  0  0  0
 19 18  1  0  0  0  0
 20 19  1  0  0  0  0
 21 20  2  0  0  0  0
 22 17  1  0  0  0  0
 23 22  2  0  0  0  0
 24 20  1  0  0  0  0
 25 16  1  0  0  0  0
 27 18  1  0  0  0  0
 29 19  1  0  0  0  0
 31 24  1  0  0  0  0
 32 22  1  0  0  0  0
 32 47  1  0  0  0  0
 33 48  1  6  0  0  0
 33 44  1  0  0  0  0
 33 32  1  0  0  0  0
 34 35  1  0  0  0  0
 34 33  1  0  0  0  0
 35 36  2  0  0  0  0
 35 43  1  0  0  0  0
 36 37  1  0  0  0  0
 37 52  1  0  0  0  0
 37 38  1  0  0  0  0
 38 39  1  0  0  0  0
 39 40  2  0  0  0  0
 39 53  1  0  0  0  0
 40 54  1  0  0  0  0
 41 55  1  0  0  0  0
 41 40  1  0  0  0  0
 42 41  2  0  0  0  0
 43 42  1  0  0  0  0
 43 38  2  0  0  0  0
 44 45  1  0  0  0  0
 46 44  2  0  0  0  0
 49 34  1  0  0  0  0
 50 34  1  0  0  0  0
 51 36  1  0  0  0  0
 56 42  1  0  0  0  0
M  END
$$$$
