PEY.pdb
 OpenBabel07022419033D

 53 54  0  0  1  0  0  0  0  0999 V2000
    2.9210   -3.0340    2.5010 N   0  0  0  0  0  0  0  0  0  0  0  0
    4.1770   -2.7740    1.8470 C   0  0  0  0  0  0  0  0  0  0  0  0
    4.5440   -1.3520    2.1430 C   0  0  0  0  0  0  0  0  0  0  0  0
    3.7450   -1.0930    3.4180 C   0  0  0  0  0  0  0  0  0  0  0  0
    2.4500   -1.8380    3.0880 C   0  0  1  0  0  0  0  0  0  0  0  0
    1.6700   -0.9630    2.1990 C   0  0  0  0  0  0  0  0  0  0  0  0
    1.2350    0.1070    2.6880 O   0  0  0  0  0  0  0  0  0  0  0  0
    2.2400   -3.5480    1.9090 H   0  0  0  0  0  0  0  0  0  0  0  0
    4.1880   -3.0290    0.7760 H   0  0  0  0  0  0  0  0  0  0  0  0
    4.9420   -3.4270    2.3400 H   0  0  0  0  0  0  0  0  0  0  0  0
    5.6210   -1.2180    2.3010 H   0  0  0  0  0  0  0  0  0  0  0  0
    4.1500   -0.6570    1.3830 H   0  0  0  0  0  0  0  0  0  0  0  0
    3.5830   -0.0330    3.6000 H   0  0  0  0  0  0  0  0  0  0  0  0
    4.2480   -1.6460    4.2200 H   0  0  0  0  0  0  0  0  0  0  0  0
    1.9200   -1.9990    4.0470 H   0  0  0  0  0  0  0  0  0  0  0  0
    1.3680   -1.2190    0.8490 N   0  0  0  0  0  0  0  0  0  0  0  0
    0.5940   -0.2810    0.0800 C   0  0  1  0  0  0  0  0  0  0  0  0
    1.3330    0.3180   -1.0680 C   0  0  0  0  0  0  0  0  0  0  0  0
    1.8240   -0.6700   -2.0830 C   0  0  0  0  0  0  0  0  0  0  0  0
    2.5490    0.0040   -3.1960 C   0  0  0  0  0  0  0  0  0  0  0  0
    2.6990    1.2640   -3.2210 O   0  0  0  0  0  0  0  0  0  0  0  0
   -0.7020   -0.8830   -0.2640 C   0  0  0  0  0  0  0  0  0  0  0  0
   -0.9400   -2.0500    0.1300 O   0  0  0  0  0  0  0  0  0  0  0  0
    3.0830   -0.7120   -4.2330 O   0  0  0  0  0  0  0  0  0  0  0  0
    1.7190   -2.1030    0.4200 H   0  0  0  0  0  0  0  0  0  0  0  0
    0.3410    0.5740    0.7510 H   0  0  0  0  0  0  0  0  0  0  0  0
    0.6980    1.0570   -1.5970 H   0  0  0  0  0  0  0  0  0  0  0  0
    2.2030    0.8810   -0.6760 H   0  0  0  0  0  0  0  0  0  0  0  0
    2.5860   -1.3730   -1.6500 H   0  0  0  0  0  0  0  0  0  0  0  0
    1.0290   -1.2980   -2.5040 H   0  0  0  0  0  0  0  0  0  0  0  0
    3.7820   -0.3600   -4.8640 H   0  0  0  0  0  0  0  0  0  0  0  0
   -3.5940    0.4960    4.9060 O   0  0  0  0  0  0  0  0  0  0  0  0
   -3.7340    0.3090    3.5330 C   0  0  0  0  0  0  0  0  0  0  0  0
   -3.2700    1.2270    2.6220 C   0  0  0  0  0  0  0  0  0  0  0  0
   -3.4090    1.0400    1.2670 C   0  0  0  0  0  0  0  0  0  0  0  0
   -4.0260   -0.0890    0.7780 C   0  0  0  0  0  0  0  0  0  0  0  0
   -4.1450   -0.2320   -0.6960 C   0  0  0  0  0  0  0  0  0  0  0  0
   -2.9420   -0.9510   -1.2800 C   0  0  2  0  0  0  0  0  0  0  0  0
   -1.7130   -0.2390   -1.0140 N   0  0  0  0  0  0  0  0  0  0  0  0
   -3.1800   -1.1100   -2.7420 C   0  0  0  0  0  0  0  0  0  0  0  0
   -4.2010   -1.7040   -3.1290 O   0  0  0  0  0  0  0  0  0  0  0  0
   -4.4980   -1.0210    1.6600 C   0  0  0  0  0  0  0  0  0  0  0  0
   -4.3490   -0.8150    3.0040 C   0  0  0  0  0  0  0  0  0  0  0  0
   -2.2980   -0.6160   -3.7000 O   0  0  0  0  0  0  0  0  0  0  0  0
   -2.7050    0.8920    5.2220 H   0  0  0  0  0  0  0  0  0  0  0  0
   -2.7750    2.1360    2.9580 H   0  0  0  0  0  0  0  0  0  0  0  0
   -3.0140    1.8160    0.5890 H   0  0  0  0  0  0  0  0  0  0  0  0
   -4.2650    0.7330   -1.1890 H   0  0  0  0  0  0  0  0  0  0  0  0
   -5.0280   -0.8510   -0.8980 H   0  0  0  0  0  0  0  0  0  0  0  0
   -2.9440   -1.9640   -0.8450 H   0  0  0  0  0  0  0  0  0  0  0  0
   -1.5470    0.7260   -1.3550 H   0  0  0  0  0  0  0  0  0  0  0  0
   -4.9840   -1.9110    1.3160 H   0  0  0  0  0  0  0  0  0  0  0  0
   -4.7160   -1.5420    3.7450 H   0  0  0  0  0  0  0  0  0  0  0  0
  1  5  1  0  0  0  0
  2  3  1  0  0  0  0
  2 10  1  0  0  0  0
  2  1  1  0  0  0  0
  3 11  1  0  0  0  0
  3  4  1  0  0  0  0
  4 13  1  0  0  0  0
  4 14  1  0  0  0  0
  5  4  1  0  0  0  0
  5 15  1  1  0  0  0
  6  7  2  0  0  0  0
  6  5  1  0  0  0  0
  8  1  1  0  0  0  0
  9  2  1  0  0  0  0
 12  3  1  0  0  0  0
 16  6  1  0  0  0  0
 17 26  1  1  0  0  0
 17 16  1  0  0  0  0
 18 28  1  0  0  0  0
 18 17  1  0  0  0  0
 19 29  1  0  0  0  0
 19 18  1  0  0  0  0
 20 19  1  0  0  0  0
 21 20  2  0  0  0  0
 22 17  1  0  0  0  0
 22 23  2  0  0  0  0
 24 20  1  0  0  0  0
 25 16  1  0  0  0  0
 27 18  1  0  0  0  0
 30 19  1  0  0  0  0
 31 24  1  0  0  0  0
 32 45  1  0  0  0  0
 33 32  1  0  0  0  0
 34 46  1  0  0  0  0
 34 33  2  0  0  0  0
 35 34  1  0  0  0  0
 36 35  2  0  0  0  0
 36 42  1  0  0  0  0
 37 36  1  0  0  0  0
 38 39  1  0  0  0  0
 38 50  1  1  0  0  0
 38 37  1  0  0  0  0
 39 22  1  0  0  0  0
 40 38  1  0  0  0  0
 41 40  1  0  0  0  0
 42 43  2  0  0  0  0
 43 33  1  0  0  0  0
 43 53  1  0  0  0  0
 44 40  2  0  0  0  0
 47 35  1  0  0  0  0
 48 37  1  0  0  0  0
 49 37  1  0  0  0  0
 51 39  1  0  0  0  0
 52 42  1  0  0  0  0
M  END
$$$$
