PFA.pdb
 OpenBabel07022419053D

 46 47  0  0  1  0  0  0  0  0999 V2000
    1.1470   -2.1330    3.4720 N   0  0  0  0  0  0  0  0  0  0  0  0
    0.8410   -3.4220    4.0250 C   0  0  0  0  0  0  0  0  0  0  0  0
    1.6970   -4.4260    3.2680 C   0  0  0  0  0  0  0  0  0  0  0  0
    1.7380   -3.7610    1.8860 C   0  0  0  0  0  0  0  0  0  0  0  0
    1.8600   -2.3190    2.2470 C   0  0  1  0  0  0  0  0  0  0  0  0
    1.2930   -1.4300    1.1950 C   0  0  0  0  0  0  0  0  0  0  0  0
    1.7990   -1.4670    0.0680 O   0  0  0  0  0  0  0  0  0  0  0  0
    1.7440   -1.5420    4.1040 H   0  0  0  0  0  0  0  0  0  0  0  0
   -0.2350   -3.6670    3.8110 H   0  0  0  0  0  0  0  0  0  0  0  0
    1.0440   -3.4430    5.1020 H   0  0  0  0  0  0  0  0  0  0  0  0
    1.2380   -5.4170    3.2370 H   0  0  0  0  0  0  0  0  0  0  0  0
    2.7240   -4.4550    3.6790 H   0  0  0  0  0  0  0  0  0  0  0  0
    2.6090   -4.1750    1.3470 H   0  0  0  0  0  0  0  0  0  0  0  0
    0.7870   -4.0060    1.3700 H   0  0  0  0  0  0  0  0  0  0  0  0
    2.9340   -2.0460    2.3420 H   0  0  0  0  0  0  0  0  0  0  0  0
    0.2060   -0.5710    1.4930 N   0  0  0  0  0  0  0  0  0  0  0  0
   -0.3970    0.3230    0.5500 C   0  0  1  0  0  0  0  0  0  0  0  0
    0.5890    1.1000   -0.3030 C   0  0  0  0  0  0  0  0  0  0  0  0
    1.4100    1.9390    0.5970 C   0  0  0  0  0  0  0  0  0  0  0  0
    0.8990    3.1850    0.9760 C   0  0  0  0  0  0  0  0  0  0  0  0
    1.5810    4.0560    1.7940 C   0  0  0  0  0  0  0  0  0  0  0  0
    2.8250    3.7210    2.2800 C   0  0  0  0  0  0  0  0  0  0  0  0
    3.3540    2.5040    1.9250 C   0  0  0  0  0  0  0  0  0  0  0  0
    2.6440    1.6380    1.0950 C   0  0  0  0  0  0  0  0  0  0  0  0
   -1.4300   -0.3860   -0.2160 C   0  0  0  0  0  0  0  0  0  0  0  0
   -1.6200   -1.5910    0.0320 O   0  0  0  0  0  0  0  0  0  0  0  0
   -0.1620   -0.6140    2.4670 H   0  0  0  0  0  0  0  0  0  0  0  0
   -0.8390    1.1770    1.1900 H   0  0  0  0  0  0  0  0  0  0  0  0
    1.1600    0.4920   -1.0020 H   0  0  0  0  0  0  0  0  0  0  0  0
   -0.0390    1.7930   -0.9250 H   0  0  0  0  0  0  0  0  0  0  0  0
   -0.0770    3.4590    0.6000 H   0  0  0  0  0  0  0  0  0  0  0  0
    1.1480    5.0240    2.0700 H   0  0  0  0  0  0  0  0  0  0  0  0
    3.3870    4.3860    2.9270 H   0  0  0  0  0  0  0  0  0  0  0  0
    4.3320    2.2370    2.3050 H   0  0  0  0  0  0  0  0  0  0  0  0
    3.1290    0.7180    0.8560 H   0  0  0  0  0  0  0  0  0  0  0  0
   -2.8750   -0.8640   -3.3490 C   0  0  0  0  0  0  0  0  0  0  0  0
   -3.2480   -0.3410   -2.0120 C   0  0  2  0  0  0  0  0  0  0  0  0
   -2.2210    0.2360   -1.2240 N   0  0  0  0  0  0  0  0  0  0  0  0
   -4.1770   -1.2680   -1.2770 C   0  0  0  0  0  0  0  0  0  0  0  0
   -5.0390   -1.9330   -1.9120 O   0  0  0  0  0  0  0  0  0  0  0  0
   -4.0780   -1.3750    0.0840 O   0  0  0  0  0  0  0  0  0  0  0  0
   -1.9170   -1.4100   -3.3810 H   0  0  0  0  0  0  0  0  0  0  0  0
   -3.6590   -1.6210   -3.6460 H   0  0  0  0  0  0  0  0  0  0  0  0
   -2.9460   -0.0660   -4.1140 H   0  0  0  0  0  0  0  0  0  0  0  0
   -3.9770    0.5450   -2.2030 H   0  0  0  0  0  0  0  0  0  0  0  0
   -1.9490    1.2710   -1.3490 H   0  0  0  0  0  0  0  0  0  0  0  0
  1  2  1  0  0  0  0
  1  8  1  0  0  0  0
  2 10  1  0  0  0  0
  3 12  1  0  0  0  0
  3  2  1  0  0  0  0
  4  5  1  0  0  0  0
  4  3  1  0  0  0  0
  5 15  1  1  0  0  0
  5  1  1  0  0  0  0
  6 16  1  0  0  0  0
  6  5  1  0  0  0  0
  7  6  2  0  0  0  0
  9  2  1  0  0  0  0
 11  3  1  0  0  0  0
 13  4  1  0  0  0  0
 14  4  1  0  0  0  0
 16 27  1  0  0  0  0
 17 28  1  1  0  0  0
 17 16  1  0  0  0  0
 18 17  1  0  0  0  0
 18 19  1  0  0  0  0
 19 20  2  0  0  0  0
 19 24  1  0  0  0  0
 20 21  1  0  0  0  0
 21 32  1  0  0  0  0
 21 22  2  0  0  0  0
 22 33  1  0  0  0  0
 23 22  1  0  0  0  0
 23 34  1  0  0  0  0
 24 23  2  0  0  0  0
 25 26  2  0  0  0  0
 25 17  1  0  0  0  0
 29 18  1  0  0  0  0
 30 18  1  0  0  0  0
 31 20  1  0  0  0  0
 35 24  1  0  0  0  0
 36 37  1  0  0  0  0
 37 45  1  6  0  0  0
 37 39  1  0  0  0  0
 37 38  1  0  0  0  0
 38 25  1  0  0  0  0
 39 41  1  0  0  0  0
 40 39  2  0  0  0  0
 42 36  1  0  0  0  0
 43 36  1  0  0  0  0
 44 36  1  0  0  0  0
 46 38  1  0  0  0  0
M  END
$$$$
