PFC.pdb
 OpenBabel07022419053D

 47 48  0  0  1  0  0  0  0  0999 V2000
    0.9000   -5.1180    0.0060 N   0  0  0  0  0  0  0  0  0  0  0  0
   -0.1730   -5.2840    0.9640 C   0  0  0  0  0  0  0  0  0  0  0  0
   -1.4190   -4.7100    0.3500 C   0  0  0  0  0  0  0  0  0  0  0  0
   -0.9290   -4.0430   -0.8940 C   0  0  0  0  0  0  0  0  0  0  0  0
    0.5430   -3.8790   -0.6520 C   0  0  1  0  0  0  0  0  0  0  0  0
    0.8910   -2.7150    0.1710 C   0  0  0  0  0  0  0  0  0  0  0  0
    1.4330   -2.9220    1.2960 O   0  0  0  0  0  0  0  0  0  0  0  0
    1.8350   -4.9780    0.4650 H   0  0  0  0  0  0  0  0  0  0  0  0
    0.0620   -4.7140    1.8780 H   0  0  0  0  0  0  0  0  0  0  0  0
   -0.2660   -6.3690    1.1820 H   0  0  0  0  0  0  0  0  0  0  0  0
   -1.8660   -3.9070    0.9960 H   0  0  0  0  0  0  0  0  0  0  0  0
   -2.1640   -5.4850    0.1000 H   0  0  0  0  0  0  0  0  0  0  0  0
   -1.4540   -3.1190   -1.1550 H   0  0  0  0  0  0  0  0  0  0  0  0
   -1.0520   -4.7430   -1.7700 H   0  0  0  0  0  0  0  0  0  0  0  0
    1.0410   -3.8230   -1.6630 H   0  0  0  0  0  0  0  0  0  0  0  0
    0.6730   -1.3750   -0.1800 N   0  0  0  0  0  0  0  0  0  0  0  0
    1.0280   -0.2270    0.6580 C   0  0  1  0  0  0  0  0  0  0  0  0
    2.0890    0.6080    0.0300 C   0  0  0  0  0  0  0  0  0  0  0  0
    2.4520    1.7690    0.8710 C   0  0  0  0  0  0  0  0  0  0  0  0
    1.8710    3.0170    0.7580 C   0  0  0  0  0  0  0  0  0  0  0  0
    2.2230    4.0860    1.5530 C   0  0  0  0  0  0  0  0  0  0  0  0
    3.1960    3.9510    2.5200 C   0  0  0  0  0  0  0  0  0  0  0  0
    3.7950    2.7170    2.6580 C   0  0  0  0  0  0  0  0  0  0  0  0
    3.4380    1.6530    1.8600 C   0  0  0  0  0  0  0  0  0  0  0  0
   -0.1730    0.4990    1.0990 C   0  0  0  0  0  0  0  0  0  0  0  0
   -0.0830    1.4840    1.8510 O   0  0  0  0  0  0  0  0  0  0  0  0
    0.2300   -1.1630   -1.0970 H   0  0  0  0  0  0  0  0  0  0  0  0
    1.4820   -0.6750    1.5910 H   0  0  0  0  0  0  0  0  0  0  0  0
    1.7190    0.9750   -0.9700 H   0  0  0  0  0  0  0  0  0  0  0  0
    3.0100    0.0210   -0.1350 H   0  0  0  0  0  0  0  0  0  0  0  0
    1.1010    3.1180   -0.0110 H   0  0  0  0  0  0  0  0  0  0  0  0
    1.7530    5.0530    1.4430 H   0  0  0  0  0  0  0  0  0  0  0  0
    3.4830    4.7850    3.1530 H   0  0  0  0  0  0  0  0  0  0  0  0
    4.5600    2.6170    3.4210 H   0  0  0  0  0  0  0  0  0  0  0  0
    3.8930    0.6880    1.9530 H   0  0  0  0  0  0  0  0  0  0  0  0
   -1.4440    0.0680    0.6600 N   0  0  0  0  0  0  0  0  0  0  0  0
   -2.6830    0.6890    1.0190 C   0  0  1  0  0  0  0  0  0  0  0  0
   -3.2890    1.2610   -0.2490 C   0  0  0  0  0  0  0  0  0  0  0  0
   -2.0710    2.4730   -0.8870 S   0  0  0  0  0  0  0  0  0  0  0  0
   -3.6030   -0.2090    1.7350 C   0  0  0  0  0  0  0  0  0  0  0  0
   -4.7190    0.1970    2.1080 O   0  0  0  0  0  0  0  0  0  0  0  0
   -3.2700   -1.5350    2.0240 O   0  0  0  0  0  0  0  0  0  0  0  0
   -1.4920   -0.7650    0.0270 H   0  0  0  0  0  0  0  0  0  0  0  0
   -2.4530    1.5490    1.6920 H   0  0  0  0  0  0  0  0  0  0  0  0
   -4.2590    1.7240   -0.0660 H   0  0  0  0  0  0  0  0  0  0  0  0
   -3.3240    0.4510   -1.0020 H   0  0  0  0  0  0  0  0  0  0  0  0
   -1.7720    3.3820    0.1710 H   0  0  0  0  0  0  0  0  0  0  0  0
  1  8  1  0  0  0  0
  1  2  1  0  0  0  0
  2 10  1  0  0  0  0
  2  9  1  0  0  0  0
  3  2  1  0  0  0  0
  3 11  1  0  0  0  0
  4  5  1  0  0  0  0
  4  3  1  0  0  0  0
  5 15  1  6  0  0  0
  5  1  1  0  0  0  0
  5  6  1  0  0  0  0
  6  7  2  0  0  0  0
 12  3  1  0  0  0  0
 13  4  1  0  0  0  0
 14  4  1  0  0  0  0
 16  6  1  0  0  0  0
 16 17  1  0  0  0  0
 17 25  1  0  0  0  0
 17 28  1  1  0  0  0
 18 17  1  0  0  0  0
 18 19  1  0  0  0  0
 19 24  1  0  0  0  0
 20 19  2  0  0  0  0
 20 21  1  0  0  0  0
 21 22  2  0  0  0  0
 22 23  1  0  0  0  0
 22 33  1  0  0  0  0
 23 34  1  0  0  0  0
 24 35  1  0  0  0  0
 24 23  2  0  0  0  0
 25 26  2  0  0  0  0
 27 16  1  0  0  0  0
 29 18  1  0  0  0  0
 30 18  1  0  0  0  0
 31 20  1  0  0  0  0
 32 21  1  0  0  0  0
 36 37  1  0  0  0  0
 36 25  1  0  0  0  0
 37 44  1  1  0  0  0
 37 40  1  0  0  0  0
 38 45  1  0  0  0  0
 38 37  1  0  0  0  0
 39 38  1  0  0  0  0
 39 47  1  0  0  0  0
 40 42  2  0  0  0  0
 40 41  1  0  0  0  0
 43 36  1  0  0  0  0
 46 38  1  0  0  0  0
M  END
$$$$
