PFE.pdb
 OpenBabel07022419053D

 52 53  0  0  1  0  0  0  0  0999 V2000
    1.7970   -3.7990    0.4150 N   0  0  0  0  0  0  0  0  0  0  0  0
    2.8890   -3.6940   -0.4990 C   0  0  0  0  0  0  0  0  0  0  0  0
    4.0520   -3.0760    0.2360 C   0  0  0  0  0  0  0  0  0  0  0  0
    3.6980   -3.3130    1.7000 C   0  0  0  0  0  0  0  0  0  0  0  0
    2.1660   -3.2220    1.6550 C   0  0  1  0  0  0  0  0  0  0  0  0
    1.7490   -1.8420    1.8750 C   0  0  0  0  0  0  0  0  0  0  0  0
    2.0670   -1.2990    2.9720 O   0  0  0  0  0  0  0  0  0  0  0  0
    0.8710   -3.5880    0.0530 H   0  0  0  0  0  0  0  0  0  0  0  0
    2.6500   -3.1900   -1.4480 H   0  0  0  0  0  0  0  0  0  0  0  0
    3.2070   -4.7430   -0.7670 H   0  0  0  0  0  0  0  0  0  0  0  0
    4.1200   -1.9810    0.1110 H   0  0  0  0  0  0  0  0  0  0  0  0
    5.0130   -3.5200   -0.0420 H   0  0  0  0  0  0  0  0  0  0  0  0
    4.0980   -2.4960    2.3360 H   0  0  0  0  0  0  0  0  0  0  0  0
    4.0400   -4.3030    2.0030 H   0  0  0  0  0  0  0  0  0  0  0  0
    1.8230   -3.9040    2.4800 H   0  0  0  0  0  0  0  0  0  0  0  0
    1.0120   -1.0800    0.9300 N   0  0  0  0  0  0  0  0  0  0  0  0
    0.6300    0.2970    1.2190 C   0  0  1  0  0  0  0  0  0  0  0  0
    1.1340    1.2320    0.1540 C   0  0  0  0  0  0  0  0  0  0  0  0
    0.7830    2.6310    0.3770 C   0  0  0  0  0  0  0  0  0  0  0  0
    1.5590    3.4530    1.1650 C   0  0  0  0  0  0  0  0  0  0  0  0
    1.2260    4.7630    1.3450 C   0  0  0  0  0  0  0  0  0  0  0  0
    0.1110    5.3330    0.7600 C   0  0  0  0  0  0  0  0  0  0  0  0
   -0.6550    4.5000   -0.0250 C   0  0  0  0  0  0  0  0  0  0  0  0
   -0.3330    3.1730   -0.2190 C   0  0  0  0  0  0  0  0  0  0  0  0
   -0.8420    0.3580    1.2590 C   0  0  0  0  0  0  0  0  0  0  0  0
   -1.4390    1.4220    1.5570 O   0  0  0  0  0  0  0  0  0  0  0  0
    0.7660   -1.5550    0.0370 H   0  0  0  0  0  0  0  0  0  0  0  0
    1.0230    0.5750    2.2330 H   0  0  0  0  0  0  0  0  0  0  0  0
    2.2370    1.1380    0.0850 H   0  0  0  0  0  0  0  0  0  0  0  0
    0.7310    0.8770   -0.8220 H   0  0  0  0  0  0  0  0  0  0  0  0
    2.4640    3.0650    1.6640 H   0  0  0  0  0  0  0  0  0  0  0  0
    1.8190    5.4490    1.9650 H   0  0  0  0  0  0  0  0  0  0  0  0
   -0.1540    6.3870    0.9080 H   0  0  0  0  0  0  0  0  0  0  0  0
   -1.5460    4.8870   -0.5130 H   0  0  0  0  0  0  0  0  0  0  0  0
   -0.9880    2.5640   -0.8660 H   0  0  0  0  0  0  0  0  0  0  0  0
   -1.6300   -0.7800    0.9640 N   0  0  0  0  0  0  0  0  0  0  0  0
   -3.0960   -0.7570    0.9940 C   0  0  1  0  0  0  0  0  0  0  0  0
   -3.5720   -0.8680   -0.4190 C   0  0  0  0  0  0  0  0  0  0  0  0
   -3.1340   -2.0360   -1.1930 C   0  0  0  0  0  0  0  0  0  0  0  0
   -3.5000   -3.3820   -0.8070 C   0  0  0  0  0  0  0  0  0  0  0  0
   -4.2730   -3.6450    0.1190 O   0  0  0  0  0  0  0  0  0  0  0  0
   -3.6590   -1.6950    1.9520 C   0  0  0  0  0  0  0  0  0  0  0  0
   -4.8910   -1.7310    2.2270 O   0  0  0  0  0  0  0  0  0  0  0  0
   -2.9860   -4.5210   -1.4820 O   0  0  0  0  0  0  0  0  0  0  0  0
   -2.8460   -2.6240    2.6320 O   0  0  0  0  0  0  0  0  0  0  0  0
   -1.1490   -1.6630    0.7170 H   0  0  0  0  0  0  0  0  0  0  0  0
   -3.3830    0.3210    1.3240 H   0  0  0  0  0  0  0  0  0  0  0  0
   -4.7040   -0.7680   -0.4710 H   0  0  0  0  0  0  0  0  0  0  0  0
   -3.1620    0.0580   -0.9490 H   0  0  0  0  0  0  0  0  0  0  0  0
   -2.0030   -2.0080   -1.2040 H   0  0  0  0  0  0  0  0  0  0  0  0
   -3.3720   -1.8740   -2.3070 H   0  0  0  0  0  0  0  0  0  0  0  0
   -3.6230   -5.3120   -1.6690 H   0  0  0  0  0  0  0  0  0  0  0  0
  1  5  1  0  0  0  0
  2  3  1  0  0  0  0
  2  1  1  0  0  0  0
  3  4  1  0  0  0  0
  4 14  1  0  0  0  0
  4 13  1  0  0  0  0
  5  4  1  0  0  0  0
  5  6  1  0  0  0  0
  5 15  1  1  0  0  0
  6  7  2  0  0  0  0
  8  1  1  0  0  0  0
  9  2  1  0  0  0  0
 10  2  1  0  0  0  0
 11  3  1  0  0  0  0
 12  3  1  0  0  0  0
 16 17  1  0  0  0  0
 16  6  1  0  0  0  0
 17 25  1  0  0  0  0
 17 28  1  1  0  0  0
 18 19  1  0  0  0  0
 18 17  1  0  0  0  0
 19 20  1  0  0  0  0
 20 21  2  0  0  0  0
 20 31  1  0  0  0  0
 21 32  1  0  0  0  0
 22 33  1  0  0  0  0
 22 21  1  0  0  0  0
 23 22  2  0  0  0  0
 24 23  1  0  0  0  0
 24 19  2  0  0  0  0
 25 26  2  0  0  0  0
 27 16  1  0  0  0  0
 29 18  1  0  0  0  0
 30 18  1  0  0  0  0
 34 23  1  0  0  0  0
 35 24  1  0  0  0  0
 36 37  1  0  0  0  0
 36 25  1  0  0  0  0
 37 47  1  1  0  0  0
 37 42  1  0  0  0  0
 38 37  1  0  0  0  0
 39 40  1  0  0  0  0
 39 38  1  0  0  0  0
 40 41  2  0  0  0  0
 42 43  2  0  0  0  0
 42 45  1  0  0  0  0
 44 40  1  0  0  0  0
 46 36  1  0  0  0  0
 48 38  1  0  0  0  0
 49 38  1  0  0  0  0
 50 39  1  0  0  0  0
 51 39  1  0  0  0  0
 52 44  1  0  0  0  0
M  END
$$$$
