PFF.pdb
 OpenBabel07022419053D

 56 58  0  0  1  0  0  0  0  0999 V2000
    3.9720   -2.0820    0.5180 N   0  0  0  0  0  0  0  0  0  0  0  0
    4.6980   -0.9630    0.0200 C   0  0  0  0  0  0  0  0  0  0  0  0
    5.1220   -0.1290    1.2140 C   0  0  0  0  0  0  0  0  0  0  0  0
    5.1180   -1.2120    2.3040 C   0  0  0  0  0  0  0  0  0  0  0  0
    3.8090   -1.9090    1.9380 C   0  0  1  0  0  0  0  0  0  0  0  0
    2.6740   -1.0190    2.2350 C   0  0  0  0  0  0  0  0  0  0  0  0
    2.3520   -0.7120    3.4330 O   0  0  0  0  0  0  0  0  0  0  0  0
    3.1020   -2.3230    0.0370 H   0  0  0  0  0  0  0  0  0  0  0  0
    5.6680   -1.3760   -0.3930 H   0  0  0  0  0  0  0  0  0  0  0  0
    4.1820   -0.3840   -0.7590 H   0  0  0  0  0  0  0  0  0  0  0  0
    6.1050    0.3260    1.0880 H   0  0  0  0  0  0  0  0  0  0  0  0
    4.3210    0.5820    1.5050 H   0  0  0  0  0  0  0  0  0  0  0  0
    5.0920   -0.7730    3.3010 H   0  0  0  0  0  0  0  0  0  0  0  0
    5.9530   -1.9050    2.1190 H   0  0  0  0  0  0  0  0  0  0  0  0
    3.7280   -2.8860    2.4720 H   0  0  0  0  0  0  0  0  0  0  0  0
    1.8640   -0.4430    1.2260 N   0  0  0  0  0  0  0  0  0  0  0  0
    0.7450    0.4370    1.5320 C   0  0  1  0  0  0  0  0  0  0  0  0
    0.9250    1.7930    0.9580 C   0  0  0  0  0  0  0  0  0  0  0  0
   -0.2240    2.6680    1.2790 C   0  0  0  0  0  0  0  0  0  0  0  0
   -1.3020    2.8450    0.4380 C   0  0  0  0  0  0  0  0  0  0  0  0
   -2.3480    3.6520    0.7690 C   0  0  0  0  0  0  0  0  0  0  0  0
   -2.3690    4.3310    1.9690 C   0  0  0  0  0  0  0  0  0  0  0  0
   -1.2880    4.1520    2.8090 C   0  0  0  0  0  0  0  0  0  0  0  0
   -0.2270    3.3440    2.4930 C   0  0  0  0  0  0  0  0  0  0  0  0
   -0.4900   -0.2080    1.0450 C   0  0  0  0  0  0  0  0  0  0  0  0
   -1.6540    0.2540    1.1920 O   0  0  0  0  0  0  0  0  0  0  0  0
    2.0280   -0.6190    0.2220 H   0  0  0  0  0  0  0  0  0  0  0  0
    0.7030    0.5240    2.6470 H   0  0  0  0  0  0  0  0  0  0  0  0
    1.8250    2.2980    1.4010 H   0  0  0  0  0  0  0  0  0  0  0  0
    0.9930    1.7670   -0.1540 H   0  0  0  0  0  0  0  0  0  0  0  0
   -1.3230    2.3280   -0.5310 H   0  0  0  0  0  0  0  0  0  0  0  0
   -3.1950    3.7890    0.1030 H   0  0  0  0  0  0  0  0  0  0  0  0
   -3.1950    4.9710    2.2340 H   0  0  0  0  0  0  0  0  0  0  0  0
   -1.3150    4.6940    3.7540 H   0  0  0  0  0  0  0  0  0  0  0  0
    0.5950    3.2470    3.2020 H   0  0  0  0  0  0  0  0  0  0  0  0
   -0.4190   -1.4660    0.3400 N   0  0  0  0  0  0  0  0  0  0  0  0
   -1.6300   -2.1130   -0.1450 C   0  0  1  0  0  0  0  0  0  0  0  0
   -1.5820   -2.3790   -1.6060 C   0  0  0  0  0  0  0  0  0  0  0  0
   -2.8180   -3.0370   -2.0730 C   0  0  0  0  0  0  0  0  0  0  0  0
   -3.9420   -2.2770   -2.4220 C   0  0  0  0  0  0  0  0  0  0  0  0
   -5.1040   -2.8550   -2.8840 C   0  0  0  0  0  0  0  0  0  0  0  0
   -5.2050   -4.2130   -3.0220 C   0  0  0  0  0  0  0  0  0  0  0  0
   -4.1170   -4.9900   -2.6870 C   0  0  0  0  0  0  0  0  0  0  0  0
   -2.9510   -4.4170   -2.2240 C   0  0  0  0  0  0  0  0  0  0  0  0
   -1.8010   -3.3730    0.6040 C   0  0  0  0  0  0  0  0  0  0  0  0
   -0.9110   -3.7490    1.4490 O   0  0  0  0  0  0  0  0  0  0  0  0
   -2.8740   -4.2350    0.4900 O   0  0  0  0  0  0  0  0  0  0  0  0
    0.4840   -1.9500    0.1550 H   0  0  0  0  0  0  0  0  0  0  0  0
   -2.5260   -1.4800    0.1240 H   0  0  0  0  0  0  0  0  0  0  0  0
   -0.7510   -3.1040   -1.8550 H   0  0  0  0  0  0  0  0  0  0  0  0
   -1.3400   -1.4840   -2.2160 H   0  0  0  0  0  0  0  0  0  0  0  0
   -3.8460   -1.1980   -2.3080 H   0  0  0  0  0  0  0  0  0  0  0  0
   -5.9360   -2.2380   -3.1390 H   0  0  0  0  0  0  0  0  0  0  0  0
   -6.1230   -4.6780   -3.3870 H   0  0  0  0  0  0  0  0  0  0  0  0
   -4.2230   -6.0640   -2.8050 H   0  0  0  0  0  0  0  0  0  0  0  0
   -2.1060   -5.0540   -1.9750 H   0  0  0  0  0  0  0  0  0  0  0  0
  1  5  1  0  0  0  0
  2  1  1  0  0  0  0
  2  3  1  0  0  0  0
  3 12  1  0  0  0  0
  3  4  1  0  0  0  0
  4 13  1  0  0  0  0
  5  6  1  0  0  0  0
  5  4  1  0  0  0  0
  5 15  1  1  0  0  0
  6  7  2  0  0  0  0
  8  1  1  0  0  0  0
  9  2  1  0  0  0  0
 10  2  1  0  0  0  0
 11  3  1  0  0  0  0
 14  4  1  0  0  0  0
 16 17  1  0  0  0  0
 16  6  1  0  0  0  0
 17 28  1  1  0  0  0
 18 19  1  0  0  0  0
 18 29  1  0  0  0  0
 18 17  1  0  0  0  0
 19 24  1  0  0  0  0
 20 21  1  0  0  0  0
 20 19  2  0  0  0  0
 21 22  2  0  0  0  0
 22 33  1  0  0  0  0
 22 23  1  0  0  0  0
 23 34  1  0  0  0  0
 24 23  2  0  0  0  0
 24 35  1  0  0  0  0
 25 26  2  0  0  0  0
 25 17  1  0  0  0  0
 27 16  1  0  0  0  0
 30 18  1  0  0  0  0
 31 20  1  0  0  0  0
 32 21  1  0  0  0  0
 36 25  1  0  0  0  0
 37 49  1  1  0  0  0
 37 36  1  0  0  0  0
 37 45  1  0  0  0  0
 38 37  1  0  0  0  0
 39 38  1  0  0  0  0
 40 52  1  0  0  0  0
 40 39  2  0  0  0  0
 41 40  1  0  0  0  0
 42 41  2  0  0  0  0
 42 43  1  0  0  0  0
 43 44  2  0  0  0  0
 44 39  1  0  0  0  0
 44 56  1  0  0  0  0
 45 46  1  0  0  0  0
 47 45  2  0  0  0  0
 48 36  1  0  0  0  0
 50 38  1  0  0  0  0
 51 38  1  0  0  0  0
 53 41  1  0  0  0  0
 54 42  1  0  0  0  0
 55 43  1  0  0  0  0
M  END
$$$$
