PFG.pdb
 OpenBabel07022419053D

 43 44  0  0  1  0  0  0  0  0999 V2000
    0.2580   -2.5920    2.8700 N   0  0  0  0  0  0  0  0  0  0  0  0
   -0.3340   -3.8800    3.1110 C   0  0  0  0  0  0  0  0  0  0  0  0
    0.2880   -4.8170    2.0970 C   0  0  0  0  0  0  0  0  0  0  0  0
    0.5580   -3.8780    0.9390 C   0  0  0  0  0  0  0  0  0  0  0  0
    0.9890   -2.6080    1.6850 C   0  0  1  0  0  0  0  0  0  0  0  0
    0.9240   -1.4630    0.7890 C   0  0  0  0  0  0  0  0  0  0  0  0
    1.6270   -1.5590   -0.2770 O   0  0  0  0  0  0  0  0  0  0  0  0
   -0.3120   -1.7990    3.1290 H   0  0  0  0  0  0  0  0  0  0  0  0
   -0.1840   -4.2220    4.1550 H   0  0  0  0  0  0  0  0  0  0  0  0
   -1.4360   -3.8840    2.9220 H   0  0  0  0  0  0  0  0  0  0  0  0
   -0.4390   -5.6160    1.8170 H   0  0  0  0  0  0  0  0  0  0  0  0
    1.2490   -5.2350    2.4590 H   0  0  0  0  0  0  0  0  0  0  0  0
   -0.4050   -3.7060    0.4130 H   0  0  0  0  0  0  0  0  0  0  0  0
    1.3510   -4.2720    0.3000 H   0  0  0  0  0  0  0  0  0  0  0  0
    2.0780   -2.7870    1.9270 H   0  0  0  0  0  0  0  0  0  0  0  0
    0.1940   -0.2820    0.9500 N   0  0  0  0  0  0  0  0  0  0  0  0
    0.1630    0.8350    0.0420 C   0  0  1  0  0  0  0  0  0  0  0  0
    1.5270    1.3010   -0.4350 C   0  0  0  0  0  0  0  0  0  0  0  0
    2.2990    1.7470    0.7430 C   0  0  0  0  0  0  0  0  0  0  0  0
    2.1390    3.0610    1.2130 C   0  0  0  0  0  0  0  0  0  0  0  0
    2.8310    3.5590    2.2900 C   0  0  0  0  0  0  0  0  0  0  0  0
    3.7340    2.7590    2.9670 C   0  0  0  0  0  0  0  0  0  0  0  0
    3.9030    1.4760    2.5220 C   0  0  0  0  0  0  0  0  0  0  0  0
    3.2010    0.9860    1.4370 C   0  0  0  0  0  0  0  0  0  0  0  0
   -0.8250    0.7140   -1.0410 C   0  0  0  0  0  0  0  0  0  0  0  0
   -0.9620    1.6050   -1.8990 O   0  0  0  0  0  0  0  0  0  0  0  0
   -0.3850   -0.2320    1.8390 H   0  0  0  0  0  0  0  0  0  0  0  0
   -0.1640    1.7510    0.6610 H   0  0  0  0  0  0  0  0  0  0  0  0
    1.3070    2.1970   -1.0780 H   0  0  0  0  0  0  0  0  0  0  0  0
    2.0430    0.5920   -1.0730 H   0  0  0  0  0  0  0  0  0  0  0  0
    1.4310    3.6820    0.6800 H   0  0  0  0  0  0  0  0  0  0  0  0
    2.7000    4.5760    2.6460 H   0  0  0  0  0  0  0  0  0  0  0  0
    4.2880    3.1570    3.8290 H   0  0  0  0  0  0  0  0  0  0  0  0
    4.5940    0.8260    3.0190 H   0  0  0  0  0  0  0  0  0  0  0  0
    3.3720   -0.0450    1.0990 H   0  0  0  0  0  0  0  0  0  0  0  0
   -1.6470   -0.4440   -1.1170 N   0  0  0  0  0  0  0  0  0  0  0  0
   -2.6400   -0.6300   -2.1550 C   0  0  0  0  0  0  0  0  0  0  0  0
   -3.6180    0.4730   -2.0620 C   0  0  0  0  0  0  0  0  0  0  0  0
   -3.4740    1.3420   -1.1730 O   0  0  0  0  0  0  0  0  0  0  0  0
   -4.7060    0.6080   -2.9140 O   0  0  0  0  0  0  0  0  0  0  0  0
   -1.4920   -1.1760   -0.3620 H   0  0  0  0  0  0  0  0  0  0  0  0
   -3.2000   -1.5670   -1.9180 H   0  0  0  0  0  0  0  0  0  0  0  0
   -2.1760   -0.6800   -3.1650 H   0  0  0  0  0  0  0  0  0  0  0  0
  1  2  1  0  0  0  0
  1  8  1  0  0  0  0
  2  9  1  0  0  0  0
  3 12  1  0  0  0  0
  3  2  1  0  0  0  0
  4  5  1  0  0  0  0
  4  3  1  0  0  0  0
  5 15  1  1  0  0  0
  5  1  1  0  0  0  0
  6 16  1  0  0  0  0
  6  5  1  0  0  0  0
  7  6  2  0  0  0  0
 10  2  1  0  0  0  0
 11  3  1  0  0  0  0
 13  4  1  0  0  0  0
 14  4  1  0  0  0  0
 16 27  1  0  0  0  0
 17 28  1  1  0  0  0
 17 16  1  0  0  0  0
 18 17  1  0  0  0  0
 18 19  1  0  0  0  0
 19 20  2  0  0  0  0
 19 24  1  0  0  0  0
 20 21  1  0  0  0  0
 21 32  1  0  0  0  0
 21 22  2  0  0  0  0
 22 33  1  0  0  0  0
 23 22  1  0  0  0  0
 23 34  1  0  0  0  0
 24 23  2  0  0  0  0
 25 17  1  0  0  0  0
 26 25  2  0  0  0  0
 29 18  1  0  0  0  0
 30 18  1  0  0  0  0
 31 20  1  0  0  0  0
 35 24  1  0  0  0  0
 36 25  1  0  0  0  0
 36 41  1  0  0  0  0
 37 38  1  0  0  0  0
 37 42  1  0  0  0  0
 37 36  1  0  0  0  0
 38 39  1  0  0  0  0
 40 38  2  0  0  0  0
 43 37  1  0  0  0  0
M  END
$$$$
