PFH.pdb
 OpenBabel07022419053D

 53 55  0  0  1  0  0  0  0  0999 V2000
    2.9880   -2.8110    3.8140 N   0  0  0  0  0  0  0  0  0  0  0  0
    4.2260   -2.9950    3.1130 C   0  0  0  0  0  0  0  0  0  0  0  0
    4.8550   -1.6370    2.9210 C   0  0  0  0  0  0  0  0  0  0  0  0
    4.2790   -0.8730    4.1200 C   0  0  0  0  0  0  0  0  0  0  0  0
    2.8440   -1.4190    4.1030 C   0  0  1  0  0  0  0  0  0  0  0  0
    2.1590   -0.6800    2.9940 C   0  0  0  0  0  0  0  0  0  0  0  0
    1.9720    0.5580    3.1310 O   0  0  0  0  0  0  0  0  0  0  0  0
    2.1730   -3.2780    3.4080 H   0  0  0  0  0  0  0  0  0  0  0  0
    4.1000   -3.5100    2.1360 H   0  0  0  0  0  0  0  0  0  0  0  0
    4.9640   -3.6210    3.6800 H   0  0  0  0  0  0  0  0  0  0  0  0
    5.9460   -1.6590    2.9300 H   0  0  0  0  0  0  0  0  0  0  0  0
    4.4880   -1.1330    2.0030 H   0  0  0  0  0  0  0  0  0  0  0  0
    4.2720    0.1970    3.8870 H   0  0  0  0  0  0  0  0  0  0  0  0
    4.8080   -1.1420    5.0400 H   0  0  0  0  0  0  0  0  0  0  0  0
    2.3620   -1.2800    5.0700 H   0  0  0  0  0  0  0  0  0  0  0  0
    1.7200   -1.2890    1.8200 N   0  0  0  0  0  0  0  0  0  0  0  0
    1.0450   -0.5150    0.7450 C   0  0  1  0  0  0  0  0  0  0  0  0
    1.9020   -0.5040   -0.4500 C   0  0  0  0  0  0  0  0  0  0  0  0
    1.4060    0.2350   -1.6390 C   0  0  0  0  0  0  0  0  0  0  0  0
    1.5950    1.6120   -1.7080 C   0  0  0  0  0  0  0  0  0  0  0  0
    1.1880    2.3250   -2.8040 C   0  0  0  0  0  0  0  0  0  0  0  0
    0.5790    1.7030   -3.8710 C   0  0  0  0  0  0  0  0  0  0  0  0
    0.3980    0.3360   -3.7860 C   0  0  0  0  0  0  0  0  0  0  0  0
    0.8010   -0.3830   -2.6970 C   0  0  0  0  0  0  0  0  0  0  0  0
   -0.3180   -0.9850    0.7020 C   0  0  0  0  0  0  0  0  0  0  0  0
   -0.6580   -1.9580    1.4870 O   0  0  0  0  0  0  0  0  0  0  0  0
    1.8450   -2.3020    1.6490 H   0  0  0  0  0  0  0  0  0  0  0  0
    1.0090    0.5530    1.1280 H   0  0  0  0  0  0  0  0  0  0  0  0
    2.8510    0.0480   -0.1570 H   0  0  0  0  0  0  0  0  0  0  0  0
    2.2940   -1.5120   -0.7400 H   0  0  0  0  0  0  0  0  0  0  0  0
    2.0820    2.1190   -0.8600 H   0  0  0  0  0  0  0  0  0  0  0  0
    1.3420    3.4200   -2.8520 H   0  0  0  0  0  0  0  0  0  0  0  0
    0.2520    2.2750   -4.7500 H   0  0  0  0  0  0  0  0  0  0  0  0
   -0.0940   -0.1580   -4.6510 H   0  0  0  0  0  0  0  0  0  0  0  0
    0.6410   -1.4670   -2.6740 H   0  0  0  0  0  0  0  0  0  0  0  0
   -1.3820   -0.5160   -0.0980 N   0  0  0  0  0  0  0  0  0  0  0  0
   -2.7330   -1.1280    0.0380 C   0  0  1  0  0  0  0  0  0  0  0  0
   -3.6850   -0.0220    0.3020 C   0  0  0  0  0  0  0  0  0  0  0  0
   -5.0800   -0.3660    0.5450 C   0  0  0  0  0  0  0  0  0  0  0  0
   -5.7890   -1.5110    0.6900 C   0  0  0  0  0  0  0  0  0  0  0  0
   -7.0630   -1.2140    0.9480 N   0  0  0  0  0  0  0  0  0  0  0  0
   -7.1820    0.1060    0.9720 C   0  0  0  0  0  0  0  0  0  0  0  0
   -5.9960    0.6400    0.7310 N   0  0  0  0  0  0  0  0  0  0  0  0
   -2.9880   -1.7130   -1.3210 C   0  0  0  0  0  0  0  0  0  0  0  0
   -4.0470   -2.3030   -1.5770 O   0  0  0  0  0  0  0  0  0  0  0  0
   -2.0710   -1.6330   -2.3590 O   0  0  0  0  0  0  0  0  0  0  0  0
   -1.2010    0.2540   -0.7640 H   0  0  0  0  0  0  0  0  0  0  0  0
   -2.6950   -1.9250    0.7640 H   0  0  0  0  0  0  0  0  0  0  0  0
   -3.6560    0.7010   -0.5460 H   0  0  0  0  0  0  0  0  0  0  0  0
   -3.3340    0.5540    1.2080 H   0  0  0  0  0  0  0  0  0  0  0  0
   -5.3840   -2.5130    0.6290 H   0  0  0  0  0  0  0  0  0  0  0  0
   -7.8620   -1.8890    1.1110 H   0  0  0  0  0  0  0  0  0  0  0  0
   -8.0830    0.7150    1.1550 H   0  0  0  0  0  0  0  0  0  0  0  0
  1  5  1  0  0  0  0
  2 10  1  0  0  0  0
  2  1  1  0  0  0  0
  3 11  1  0  0  0  0
  3  2  1  0  0  0  0
  3  4  1  0  0  0  0
  4 14  1  0  0  0  0
  5  4  1  0  0  0  0
  5 15  1  1  0  0  0
  6  7  2  0  0  0  0
  6  5  1  0  0  0  0
  8  1  1  0  0  0  0
  9  2  1  0  0  0  0
 12  3  1  0  0  0  0
 13  4  1  0  0  0  0
 16  6  1  0  0  0  0
 17 28  1  1  0  0  0
 17 16  1  0  0  0  0
 18 29  1  0  0  0  0
 18 17  1  0  0  0  0
 19 18  1  0  0  0  0
 20 19  1  0  0  0  0
 20 31  1  0  0  0  0
 21 20  2  0  0  0  0
 22 23  2  0  0  0  0
 22 21  1  0  0  0  0
 23 24  1  0  0  0  0
 24 35  1  0  0  0  0
 24 19  2  0  0  0  0
 25 17  1  0  0  0  0
 25 26  2  0  0  0  0
 27 16  1  0  0  0  0
 30 18  1  0  0  0  0
 32 21  1  0  0  0  0
 33 22  1  0  0  0  0
 34 23  1  0  0  0  0
 36 37  1  0  0  0  0
 36 25  1  0  0  0  0
 37 38  1  0  0  0  0
 37 48  1  1  0  0  0
 38 39  1  0  0  0  0
 38 50  1  0  0  0  0
 39 40  2  0  0  0  0
 39 43  1  0  0  0  0
 40 41  1  0  0  0  0
 41 42  1  0  0  0  0
 41 52  1  0  0  0  0
 42 53  1  0  0  0  0
 43 42  2  0  0  0  0
 44 37  1  0  0  0  0
 45 44  1  0  0  0  0
 46 44  2  0  0  0  0
 47 36  1  0  0  0  0
 49 38  1  0  0  0  0
 51 40  1  0  0  0  0
M  END
$$$$
