PFI.pdb
 OpenBabel07022419053D

 55 56  0  0  1  0  0  0  0  0999 V2000
    0.7300   -2.3900    3.1530 N   0  0  0  0  0  0  0  0  0  0  0  0
    0.6020   -2.3320    4.5940 C   0  0  0  0  0  0  0  0  0  0  0  0
    0.8930   -0.9190    5.0050 C   0  0  0  0  0  0  0  0  0  0  0  0
    0.9980   -0.1600    3.6950 C   0  0  0  0  0  0  0  0  0  0  0  0
    0.2750   -1.0680    2.7310 C   0  0  1  0  0  0  0  0  0  0  0  0
    0.5880   -0.8250    1.3300 C   0  0  0  0  0  0  0  0  0  0  0  0
    1.1890   -1.7390    0.6700 O   0  0  0  0  0  0  0  0  0  0  0  0
    1.7800   -2.4010    2.9540 H   0  0  0  0  0  0  0  0  0  0  0  0
    1.2810   -3.0730    5.0920 H   0  0  0  0  0  0  0  0  0  0  0  0
   -0.4680   -2.5700    4.8330 H   0  0  0  0  0  0  0  0  0  0  0  0
    0.0280   -0.4610    5.5690 H   0  0  0  0  0  0  0  0  0  0  0  0
    1.8120   -0.8370    5.6240 H   0  0  0  0  0  0  0  0  0  0  0  0
    2.0720   -0.0690    3.3840 H   0  0  0  0  0  0  0  0  0  0  0  0
    0.5210    0.8410    3.7970 H   0  0  0  0  0  0  0  0  0  0  0  0
   -0.8240   -0.9800    2.9660 H   0  0  0  0  0  0  0  0  0  0  0  0
    0.2970    0.3510    0.5590 N   0  0  0  0  0  0  0  0  0  0  0  0
    0.6700    0.4470   -0.8290 C   0  0  1  0  0  0  0  0  0  0  0  0
    2.1440    0.3590   -1.0240 C   0  0  0  0  0  0  0  0  0  0  0  0
    2.7920    1.5020   -0.2690 C   0  0  0  0  0  0  0  0  0  0  0  0
    3.3120    1.2490    0.9730 C   0  0  0  0  0  0  0  0  0  0  0  0
    3.8580    2.2420    1.7110 C   0  0  0  0  0  0  0  0  0  0  0  0
    3.8940    3.5500    1.1950 C   0  0  0  0  0  0  0  0  0  0  0  0
    3.3700    3.7810   -0.0520 C   0  0  0  0  0  0  0  0  0  0  0  0
    2.8190    2.7640   -0.7860 C   0  0  0  0  0  0  0  0  0  0  0  0
   -0.1350   -0.4180   -1.6980 C   0  0  0  0  0  0  0  0  0  0  0  0
    0.3260   -0.7740   -2.8040 O   0  0  0  0  0  0  0  0  0  0  0  0
   -0.1880    1.1200    1.0280 H   0  0  0  0  0  0  0  0  0  0  0  0
    0.4380    1.5510   -1.0780 H   0  0  0  0  0  0  0  0  0  0  0  0
    2.4020    0.5630   -2.1020 H   0  0  0  0  0  0  0  0  0  0  0  0
    2.6240   -0.5790   -0.7310 H   0  0  0  0  0  0  0  0  0  0  0  0
    3.2800    0.2180    1.3620 H   0  0  0  0  0  0  0  0  0  0  0  0
    4.2700    2.0520    2.7000 H   0  0  0  0  0  0  0  0  0  0  0  0
    4.3490    4.2900    1.8470 H   0  0  0  0  0  0  0  0  0  0  0  0
    3.4070    4.8040   -0.4420 H   0  0  0  0  0  0  0  0  0  0  0  0
    2.4080    2.9790   -1.7730 H   0  0  0  0  0  0  0  0  0  0  0  0
   -3.3710   -3.9620    0.6260 C   0  0  0  0  0  0  0  0  0  0  0  0
   -2.3890   -3.3740   -0.3830 C   0  0  0  0  0  0  0  0  0  0  0  0
   -3.1270   -2.5580   -1.4190 C   0  0  2  0  0  0  0  0  0  0  0  0
   -4.1070   -3.4280   -2.1790 C   0  0  0  0  0  0  0  0  0  0  0  0
   -2.1990   -1.7680   -2.2390 C   0  0  2  0  0  0  0  0  0  0  0  0
   -1.4320   -0.8840   -1.3600 N   0  0  0  0  0  0  0  0  0  0  0  0
   -2.8740   -0.9630   -3.2920 C   0  0  0  0  0  0  0  0  0  0  0  0
   -3.5990   -1.4450   -4.1740 O   0  0  0  0  0  0  0  0  0  0  0  0
   -2.6950    0.4290   -3.3090 O   0  0  0  0  0  0  0  0  0  0  0  0
   -3.8680   -4.8020    0.1390 H   0  0  0  0  0  0  0  0  0  0  0  0
   -4.1260   -3.1640    0.8490 H   0  0  0  0  0  0  0  0  0  0  0  0
   -2.8550   -4.3460    1.5180 H   0  0  0  0  0  0  0  0  0  0  0  0
   -1.8550   -4.2030   -0.8650 H   0  0  0  0  0  0  0  0  0  0  0  0
   -1.6780   -2.7610    0.2220 H   0  0  0  0  0  0  0  0  0  0  0  0
   -3.7280   -1.8010   -0.8030 H   0  0  0  0  0  0  0  0  0  0  0  0
   -4.8030   -2.7360   -2.7190 H   0  0  0  0  0  0  0  0  0  0  0  0
   -3.5530   -4.1210   -2.8280 H   0  0  0  0  0  0  0  0  0  0  0  0
   -4.7670   -3.9450   -1.4270 H   0  0  0  0  0  0  0  0  0  0  0  0
   -1.4590   -2.3960   -2.7690 H   0  0  0  0  0  0  0  0  0  0  0  0
   -1.8320   -0.5680   -0.4600 H   0  0  0  0  0  0  0  0  0  0  0  0
  1  2  1  0  0  0  0
  2 10  1  0  0  0  0
  2  3  1  0  0  0  0
  2  9  1  0  0  0  0
  3 11  1  0  0  0  0
  3 12  1  0  0  0  0
  4 14  1  0  0  0  0
  4  3  1  0  0  0  0
  5 15  1  1  0  0  0
  5  1  1  0  0  0  0
  5  4  1  0  0  0  0
  6  5  1  0  0  0  0
  7  6  2  0  0  0  0
  8  1  1  0  0  0  0
 13  4  1  0  0  0  0
 16 27  1  0  0  0  0
 16  6  1  0  0  0  0
 17 28  1  6  0  0  0
 17 16  1  0  0  0  0
 18 17  1  0  0  0  0
 18 30  1  0  0  0  0
 18 19  1  0  0  0  0
 19 20  1  0  0  0  0
 20 31  1  0  0  0  0
 20 21  2  0  0  0  0
 21 32  1  0  0  0  0
 22 21  1  0  0  0  0
 22 33  1  0  0  0  0
 23 22  2  0  0  0  0
 24 19  2  0  0  0  0
 24 23  1  0  0  0  0
 25 41  1  0  0  0  0
 25 17  1  0  0  0  0
 26 25  2  0  0  0  0
 29 18  1  0  0  0  0
 34 23  1  0  0  0  0
 35 24  1  0  0  0  0
 36 46  1  0  0  0  0
 36 47  1  0  0  0  0
 37 49  1  0  0  0  0
 37 36  1  0  0  0  0
 38 50  1  1  0  0  0
 38 37  1  0  0  0  0
 39 53  1  0  0  0  0
 39 38  1  0  0  0  0
 40 54  1  6  0  0  0
 40 38  1  0  0  0  0
 40 41  1  0  0  0  0
 41 55  1  0  0  0  0
 42 40  1  0  0  0  0
 43 42  2  0  0  0  0
 44 42  1  0  0  0  0
 45 36  1  0  0  0  0
 48 37  1  0  0  0  0
 51 39  1  0  0  0  0
 52 39  1  0  0  0  0
M  END
$$$$
