PFK.pdb
 OpenBabel07022419053D

 57 58  0  0  1  0  0  0  0  0999 V2000
    2.2370   -3.1160   -0.4140 N   0  0  0  0  0  0  0  0  0  0  0  0
    3.1340   -2.9810   -1.5100 C   0  0  0  0  0  0  0  0  0  0  0  0
    4.2630   -2.1080   -1.0150 C   0  0  0  0  0  0  0  0  0  0  0  0
    4.3480   -2.5340    0.4450 C   0  0  0  0  0  0  0  0  0  0  0  0
    2.8490   -2.6420    0.7690 C   0  0  1  0  0  0  0  0  0  0  0  0
    2.3670   -1.3860    1.3220 C   0  0  0  0  0  0  0  0  0  0  0  0
    2.9160   -0.9710    2.3850 O   0  0  0  0  0  0  0  0  0  0  0  0
    1.2520   -2.9360   -0.5720 H   0  0  0  0  0  0  0  0  0  0  0  0
    2.6820   -2.5980   -2.4430 H   0  0  0  0  0  0  0  0  0  0  0  0
    3.5840   -3.9920   -1.7230 H   0  0  0  0  0  0  0  0  0  0  0  0
    3.9490   -1.0520   -1.0940 H   0  0  0  0  0  0  0  0  0  0  0  0
    5.2110   -2.3110   -1.5520 H   0  0  0  0  0  0  0  0  0  0  0  0
    4.8450   -1.7730    1.0650 H   0  0  0  0  0  0  0  0  0  0  0  0
    4.8400   -3.5030    0.5160 H   0  0  0  0  0  0  0  0  0  0  0  0
    2.7950   -3.4500    1.5540 H   0  0  0  0  0  0  0  0  0  0  0  0
    1.3310   -0.6050    0.7470 N   0  0  0  0  0  0  0  0  0  0  0  0
    0.8810    0.6480    1.3370 C   0  0  1  0  0  0  0  0  0  0  0  0
    1.1730    1.7540    0.3550 C   0  0  0  0  0  0  0  0  0  0  0  0
    0.7610    3.0950    0.8290 C   0  0  0  0  0  0  0  0  0  0  0  0
    1.6550    3.8400    1.5620 C   0  0  0  0  0  0  0  0  0  0  0  0
    1.2940    5.0900    2.0090 C   0  0  0  0  0  0  0  0  0  0  0  0
    0.0600    5.6430    1.7550 C   0  0  0  0  0  0  0  0  0  0  0  0
   -0.8160    4.8680    1.0150 C   0  0  0  0  0  0  0  0  0  0  0  0
   -0.4770    3.6180    0.5600 C   0  0  0  0  0  0  0  0  0  0  0  0
   -0.5450    0.5150    1.6890 C   0  0  0  0  0  0  0  0  0  0  0  0
   -1.1370    1.4810    2.2090 O   0  0  0  0  0  0  0  0  0  0  0  0
    0.9090   -0.9850   -0.1360 H   0  0  0  0  0  0  0  0  0  0  0  0
    1.5120    0.8520    2.2370 H   0  0  0  0  0  0  0  0  0  0  0  0
    2.2730    1.7740    0.2160 H   0  0  0  0  0  0  0  0  0  0  0  0
    0.7520    1.5300   -0.6550 H   0  0  0  0  0  0  0  0  0  0  0  0
    2.6600    3.4560    1.8010 H   0  0  0  0  0  0  0  0  0  0  0  0
    2.0080    5.6690    2.5870 H   0  0  0  0  0  0  0  0  0  0  0  0
   -0.2350    6.6350    2.1060 H   0  0  0  0  0  0  0  0  0  0  0  0
   -1.8080    5.3000    0.8060 H   0  0  0  0  0  0  0  0  0  0  0  0
   -1.2180    3.0600   -0.0230 H   0  0  0  0  0  0  0  0  0  0  0  0
   -1.2280   -0.6960    1.4370 N   0  0  0  0  0  0  0  0  0  0  0  0
   -2.6290   -0.9010    1.7550 C   0  0  1  0  0  0  0  0  0  0  0  0
   -3.3580   -1.1570    0.4550 C   0  0  0  0  0  0  0  0  0  0  0  0
   -2.7980   -2.3900   -0.2320 C   0  0  0  0  0  0  0  0  0  0  0  0
   -3.5390   -2.6510   -1.5410 C   0  0  0  0  0  0  0  0  0  0  0  0
   -2.9260   -3.8900   -2.1630 C   0  0  0  0  0  0  0  0  0  0  0  0
   -3.0420   -5.0450   -1.3150 N   0  0  0  0  0  0  0  0  0  0  0  0
   -2.8260   -2.0660    2.6490 C   0  0  0  0  0  0  0  0  0  0  0  0
   -3.9620   -2.4190    3.0460 O   0  0  0  0  0  0  0  0  0  0  0  0
   -1.7430   -2.8160    3.0790 O   0  0  0  0  0  0  0  0  0  0  0  0
   -0.6810   -1.4670    1.0060 H   0  0  0  0  0  0  0  0  0  0  0  0
   -3.0630    0.0060    2.2370 H   0  0  0  0  0  0  0  0  0  0  0  0
   -3.0750   -0.2940   -0.2180 H   0  0  0  0  0  0  0  0  0  0  0  0
   -4.4420   -1.1950    0.5630 H   0  0  0  0  0  0  0  0  0  0  0  0
   -2.8520   -3.2940    0.3980 H   0  0  0  0  0  0  0  0  0  0  0  0
   -1.7410   -2.2500   -0.5260 H   0  0  0  0  0  0  0  0  0  0  0  0
   -4.6020   -2.7910   -1.3460 H   0  0  0  0  0  0  0  0  0  0  0  0
   -3.3270   -1.7980   -2.2090 H   0  0  0  0  0  0  0  0  0  0  0  0
   -3.4820   -4.1330   -3.1120 H   0  0  0  0  0  0  0  0  0  0  0  0
   -1.8730   -3.7430   -2.4380 H   0  0  0  0  0  0  0  0  0  0  0  0
   -3.3200   -5.9050   -1.8420 H   0  0  0  0  0  0  0  0  0  0  0  0
   -2.2310   -5.1950   -0.6980 H   0  0  0  0  0  0  0  0  0  0  0  0
  1  5  1  0  0  0  0
  2  3  1  0  0  0  0
  2  1  1  0  0  0  0
  3  4  1  0  0  0  0
  4 14  1  0  0  0  0
  4  5  1  0  0  0  0
  4 13  1  0  0  0  0
  5  6  1  0  0  0  0
  5 15  1  1  0  0  0
  6  7  2  0  0  0  0
  8  1  1  0  0  0  0
  9  2  1  0  0  0  0
 10  2  1  0  0  0  0
 11  3  1  0  0  0  0
 12  3  1  0  0  0  0
 16  6  1  0  0  0  0
 16 17  1  0  0  0  0
 17 25  1  0  0  0  0
 17 28  1  1  0  0  0
 18 19  1  0  0  0  0
 18 17  1  0  0  0  0
 19 20  1  0  0  0  0
 20 31  1  0  0  0  0
 20 21  2  0  0  0  0
 21 32  1  0  0  0  0
 22 21  1  0  0  0  0
 22 33  1  0  0  0  0
 23 22  2  0  0  0  0
 24 19  2  0  0  0  0
 24 23  1  0  0  0  0
 25 26  2  0  0  0  0
 27 16  1  0  0  0  0
 29 18  1  0  0  0  0
 30 18  1  0  0  0  0
 34 23  1  0  0  0  0
 35 24  1  0  0  0  0
 36 25  1  0  0  0  0
 36 37  1  0  0  0  0
 37 47  1  1  0  0  0
 37 43  1  0  0  0  0
 38 49  1  0  0  0  0
 38 37  1  0  0  0  0
 39 50  1  0  0  0  0
 39 38  1  0  0  0  0
 40 52  1  0  0  0  0
 40 39  1  0  0  0  0
 41 40  1  0  0  0  0
 41 42  1  0  0  0  0
 42 57  1  0  0  0  0
 43 44  2  0  0  0  0
 43 45  1  0  0  0  0
 46 36  1  0  0  0  0
 48 38  1  0  0  0  0
 51 39  1  0  0  0  0
 53 40  1  0  0  0  0
 54 41  1  0  0  0  0
 55 41  1  0  0  0  0
 56 42  1  0  0  0  0
M  END
$$$$
