PFN.pdb
 OpenBabel07022419053D

 50 51  0  0  1  0  0  0  0  0999 V2000
    4.1790   -2.3620    1.7650 N   0  0  0  0  0  0  0  0  0  0  0  0
    5.1060   -2.3720    2.8660 C   0  0  0  0  0  0  0  0  0  0  0  0
    4.5570   -1.4920    3.9400 C   0  0  0  0  0  0  0  0  0  0  0  0
    3.3650   -0.8320    3.2670 C   0  0  0  0  0  0  0  0  0  0  0  0
    2.9300   -1.9350    2.3150 C   0  0  1  0  0  0  0  0  0  0  0  0
    1.9860   -1.4370    1.2840 C   0  0  0  0  0  0  0  0  0  0  0  0
    2.3540   -1.4360    0.0890 O   0  0  0  0  0  0  0  0  0  0  0  0
    4.4950   -1.8280    0.9480 H   0  0  0  0  0  0  0  0  0  0  0  0
    6.1080   -1.9640    2.5670 H   0  0  0  0  0  0  0  0  0  0  0  0
    5.2370   -3.4010    3.2660 H   0  0  0  0  0  0  0  0  0  0  0  0
    5.2780   -0.7410    4.3090 H   0  0  0  0  0  0  0  0  0  0  0  0
    4.1780   -2.1130    4.7830 H   0  0  0  0  0  0  0  0  0  0  0  0
    2.5720   -0.5780    3.9730 H   0  0  0  0  0  0  0  0  0  0  0  0
    3.7660    0.0470    2.7130 H   0  0  0  0  0  0  0  0  0  0  0  0
    2.4990   -2.7390    2.9310 H   0  0  0  0  0  0  0  0  0  0  0  0
    0.6890   -0.9670    1.6100 N   0  0  0  0  0  0  0  0  0  0  0  0
   -0.2880   -0.4630    0.7140 C   0  0  1  0  0  0  0  0  0  0  0  0
    0.2350    0.5590   -0.2990 C   0  0  0  0  0  0  0  0  0  0  0  0
    0.7720    1.7530    0.3980 C   0  0  0  0  0  0  0  0  0  0  0  0
    2.0920    1.9260    0.7330 C   0  0  0  0  0  0  0  0  0  0  0  0
    2.5110    3.0850    1.4060 C   0  0  0  0  0  0  0  0  0  0  0  0
    1.6370    4.0890    1.7560 C   0  0  0  0  0  0  0  0  0  0  0  0
    0.3110    3.9220    1.4230 C   0  0  0  0  0  0  0  0  0  0  0  0
   -0.0910    2.7950    0.7710 C   0  0  0  0  0  0  0  0  0  0  0  0
   -1.1750   -1.4660    0.1110 C   0  0  0  0  0  0  0  0  0  0  0  0
   -1.0380   -2.7050    0.3990 O   0  0  0  0  0  0  0  0  0  0  0  0
    0.4720   -1.0220    2.6580 H   0  0  0  0  0  0  0  0  0  0  0  0
   -0.9630    0.2110    1.3630 H   0  0  0  0  0  0  0  0  0  0  0  0
    1.0050    0.1190   -0.9430 H   0  0  0  0  0  0  0  0  0  0  0  0
   -0.6060    0.8360   -0.9880 H   0  0  0  0  0  0  0  0  0  0  0  0
    2.8290    1.1780    0.4770 H   0  0  0  0  0  0  0  0  0  0  0  0
    3.5710    3.1890    1.6570 H   0  0  0  0  0  0  0  0  0  0  0  0
    2.0100    4.9610    2.2730 H   0  0  0  0  0  0  0  0  0  0  0  0
   -0.3790    4.7110    1.6980 H   0  0  0  0  0  0  0  0  0  0  0  0
   -1.1350    2.6560    0.5040 H   0  0  0  0  0  0  0  0  0  0  0  0
   -6.8190   -2.6080   -0.9240 N   0  0  0  0  0  0  0  0  0  0  0  0
   -5.4700   -2.8840   -1.2640 C   0  0  0  0  0  0  0  0  0  0  0  0
   -5.1810   -3.9250   -1.8820 O   0  0  0  0  0  0  0  0  0  0  0  0
   -4.4470   -1.9220   -0.8720 C   0  0  0  0  0  0  0  0  0  0  0  0
   -3.0450   -2.2210   -1.3520 C   0  0  2  0  0  0  0  0  0  0  0  0
   -2.2100   -1.1350   -0.8030 N   0  0  0  0  0  0  0  0  0  0  0  0
   -2.9560   -2.2000   -2.8320 C   0  0  0  0  0  0  0  0  0  0  0  0
   -2.2570   -1.3060   -3.3700 O   0  0  0  0  0  0  0  0  0  0  0  0
   -3.5830   -3.0890   -3.6650 O   0  0  0  0  0  0  0  0  0  0  0  0
   -7.6230   -2.8030   -1.5600 H   0  0  0  0  0  0  0  0  0  0  0  0
   -7.0980   -2.1810    0.0090 H   0  0  0  0  0  0  0  0  0  0  0  0
   -4.7380   -0.8680   -1.0930 H   0  0  0  0  0  0  0  0  0  0  0  0
   -4.3780   -1.9450    0.2590 H   0  0  0  0  0  0  0  0  0  0  0  0
   -2.7450   -3.1900   -0.9640 H   0  0  0  0  0  0  0  0  0  0  0  0
   -2.3860   -0.1490   -1.0870 H   0  0  0  0  0  0  0  0  0  0  0  0
  1  5  1  0  0  0  0
  1  2  1  0  0  0  0
  2 10  1  0  0  0  0
  2  3  1  0  0  0  0
  3 11  1  0  0  0  0
  3 12  1  0  0  0  0
  4  3  1  0  0  0  0
  4 13  1  0  0  0  0
  5 15  1  1  0  0  0
  5  4  1  0  0  0  0
  6 16  1  0  0  0  0
  6  5  1  0  0  0  0
  7  6  2  0  0  0  0
  8  1  1  0  0  0  0
  9  2  1  0  0  0  0
 14  4  1  0  0  0  0
 16 27  1  0  0  0  0
 17 28  1  1  0  0  0
 17 16  1  0  0  0  0
 18 19  1  0  0  0  0
 18 17  1  0  0  0  0
 19 20  2  0  0  0  0
 19 24  1  0  0  0  0
 20 21  1  0  0  0  0
 21 32  1  0  0  0  0
 21 22  2  0  0  0  0
 22 33  1  0  0  0  0
 23 34  1  0  0  0  0
 23 22  1  0  0  0  0
 24 23  2  0  0  0  0
 25 26  2  0  0  0  0
 25 17  1  0  0  0  0
 29 18  1  0  0  0  0
 30 18  1  0  0  0  0
 31 20  1  0  0  0  0
 35 24  1  0  0  0  0
 36 46  1  0  0  0  0
 37 36  1  0  0  0  0
 37 39  1  0  0  0  0
 38 37  2  0  0  0  0
 39 48  1  0  0  0  0
 40 49  1  1  0  0  0
 40 39  1  0  0  0  0
 40 41  1  0  0  0  0
 41 25  1  0  0  0  0
 42 40  1  0  0  0  0
 43 42  1  0  0  0  0
 44 42  2  0  0  0  0
 45 36  1  0  0  0  0
 47 39  1  0  0  0  0
 50 41  1  0  0  0  0
M  END
$$$$
