PFP.pdb
 OpenBabel07022419053D

 50 52  0  0  1  0  0  0  0  0999 V2000
    3.3390   -3.0980    1.5010 N   0  0  0  0  0  0  0  0  0  0  0  0
    3.7250   -2.3930    2.6820 C   0  0  0  0  0  0  0  0  0  0  0  0
    2.8200   -2.8350    3.8040 C   0  0  0  0  0  0  0  0  0  0  0  0
    2.2740   -4.1420    3.2620 C   0  0  0  0  0  0  0  0  0  0  0  0
    2.1770   -3.8750    1.7740 C   0  0  1  0  0  0  0  0  0  0  0  0
    0.9020   -3.1500    1.5400 C   0  0  0  0  0  0  0  0  0  0  0  0
   -0.1600   -3.7820    1.7640 O   0  0  0  0  0  0  0  0  0  0  0  0
    3.2970   -2.5320    0.6410 H   0  0  0  0  0  0  0  0  0  0  0  0
    4.7630   -2.7340    2.9710 H   0  0  0  0  0  0  0  0  0  0  0  0
    3.7940   -1.3010    2.5720 H   0  0  0  0  0  0  0  0  0  0  0  0
    2.0000   -2.1200    4.0130 H   0  0  0  0  0  0  0  0  0  0  0  0
    3.3940   -3.0100    4.7410 H   0  0  0  0  0  0  0  0  0  0  0  0
    3.0430   -4.9130    3.4690 H   0  0  0  0  0  0  0  0  0  0  0  0
    1.3050   -4.3570    3.7310 H   0  0  0  0  0  0  0  0  0  0  0  0
    2.1790   -4.8700    1.2790 H   0  0  0  0  0  0  0  0  0  0  0  0
    0.8130   -1.8260    1.0930 N   0  0  0  0  0  0  0  0  0  0  0  0
   -0.5160   -1.2140    0.8970 C   0  0  1  0  0  0  0  0  0  0  0  0
   -0.6660   -0.0600    1.8730 C   0  0  0  0  0  0  0  0  0  0  0  0
    0.3520    0.9760    1.7020 C   0  0  0  0  0  0  0  0  0  0  0  0
    0.1740    2.0530    0.8710 C   0  0  0  0  0  0  0  0  0  0  0  0
    1.1410    3.0350    0.7070 C   0  0  0  0  0  0  0  0  0  0  0  0
    2.3270    2.9370    1.3990 C   0  0  0  0  0  0  0  0  0  0  0  0
    2.5280    1.8660    2.2390 C   0  0  0  0  0  0  0  0  0  0  0  0
    1.5420    0.8870    2.3900 C   0  0  0  0  0  0  0  0  0  0  0  0
   -0.6940   -0.8230   -0.5150 C   0  0  0  0  0  0  0  0  0  0  0  0
    0.2960   -0.8800   -1.3330 O   0  0  0  0  0  0  0  0  0  0  0  0
    1.6790   -1.2940    0.9050 H   0  0  0  0  0  0  0  0  0  0  0  0
   -1.2930   -1.9500    1.1550 H   0  0  0  0  0  0  0  0  0  0  0  0
   -0.6210   -0.5340    2.8980 H   0  0  0  0  0  0  0  0  0  0  0  0
   -1.7010    0.3150    1.7900 H   0  0  0  0  0  0  0  0  0  0  0  0
   -0.7310    2.1630    0.3210 H   0  0  0  0  0  0  0  0  0  0  0  0
    0.9990    3.8820    0.0520 H   0  0  0  0  0  0  0  0  0  0  0  0
    3.0940    3.6970    1.2820 H   0  0  0  0  0  0  0  0  0  0  0  0
    3.4620    1.8070    2.7710 H   0  0  0  0  0  0  0  0  0  0  0  0
    1.7660    0.0730    3.0650 H   0  0  0  0  0  0  0  0  0  0  0  0
   -1.9080   -0.3700   -1.0900 N   0  0  0  0  0  0  0  0  0  0  0  0
   -3.1650   -0.2470   -0.4010 C   0  0  0  0  0  0  0  0  0  0  0  0
   -4.1780   -0.6680   -1.4380 C   0  0  0  0  0  0  0  0  0  0  0  0
   -3.4710   -0.6790   -2.7680 C   0  0  0  0  0  0  0  0  0  0  0  0
   -2.1540    0.0540   -2.4510 C   0  0  1  0  0  0  0  0  0  0  0  0
   -2.4680    1.4890   -2.5870 C   0  0  0  0  0  0  0  0  0  0  0  0
   -2.5670    2.3220   -1.6810 O   0  0  0  0  0  0  0  0  0  0  0  0
   -2.6750    1.9310   -3.9070 O   0  0  0  0  0  0  0  0  0  0  0  0
   -3.3950    0.7710   -0.0770 H   0  0  0  0  0  0  0  0  0  0  0  0
   -3.2200   -0.9000    0.5010 H   0  0  0  0  0  0  0  0  0  0  0  0
   -4.6410   -1.6560   -1.2040 H   0  0  0  0  0  0  0  0  0  0  0  0
   -5.0220    0.0640   -1.4690 H   0  0  0  0  0  0  0  0  0  0  0  0
   -4.0260   -0.1220   -3.5560 H   0  0  0  0  0  0  0  0  0  0  0  0
   -3.2760   -1.6900   -3.1550 H   0  0  0  0  0  0  0  0  0  0  0  0
   -1.4020   -0.2820   -3.1650 H   0  0  0  0  0  0  0  0  0  0  0  0
  1  5  1  0  0  0  0
  1  2  1  0  0  0  0
  2  9  1  0  0  0  0
  2  3  1  0  0  0  0
  3 11  1  0  0  0  0
  3 12  1  0  0  0  0
  4 13  1  0  0  0  0
  4 14  1  0  0  0  0
  4  3  1  0  0  0  0
  5 15  1  6  0  0  0
  5  4  1  0  0  0  0
  6  7  2  0  0  0  0
  6  5  1  0  0  0  0
  8  1  1  0  0  0  0
 10  2  1  0  0  0  0
 16  6  1  0  0  0  0
 17 16  1  0  0  0  0
 17 28  1  1  0  0  0
 17 18  1  0  0  0  0
 18 29  1  0  0  0  0
 19 18  1  0  0  0  0
 19 24  1  0  0  0  0
 20 19  2  0  0  0  0
 21 20  1  0  0  0  0
 21 22  2  0  0  0  0
 22 23  1  0  0  0  0
 23 24  2  0  0  0  0
 23 34  1  0  0  0  0
 24 35  1  0  0  0  0
 25 17  1  0  0  0  0
 26 25  2  0  0  0  0
 27 16  1  0  0  0  0
 30 18  1  0  0  0  0
 31 20  1  0  0  0  0
 32 21  1  0  0  0  0
 33 22  1  0  0  0  0
 36 25  1  0  0  0  0
 36 37  1  0  0  0  0
 37 44  1  0  0  0  0
 37 45  1  0  0  0  0
 38 46  1  0  0  0  0
 38 37  1  0  0  0  0
 39 40  1  0  0  0  0
 39 38  1  0  0  0  0
 40 50  1  6  0  0  0
 40 36  1  0  0  0  0
 41 40  1  0  0  0  0
 41 42  1  0  0  0  0
 43 41  2  0  0  0  0
 47 38  1  0  0  0  0
 48 39  1  0  0  0  0
 49 39  1  0  0  0  0
M  END
$$$$
