PFQ.pdb
 OpenBabel07022419053D

 53 54  0  0  1  0  0  0  0  0999 V2000
    2.6500   -3.7810   -0.0750 N   0  0  0  0  0  0  0  0  0  0  0  0
    3.5740   -3.3010   -1.0510 C   0  0  0  0  0  0  0  0  0  0  0  0
    4.6910   -2.5900   -0.3010 C   0  0  0  0  0  0  0  0  0  0  0  0
    4.5330   -3.1850    1.0990 C   0  0  0  0  0  0  0  0  0  0  0  0
    3.0140   -3.2610    1.1980 C   0  0  1  0  0  0  0  0  0  0  0  0
    2.4360   -1.9570    1.5230 C   0  0  0  0  0  0  0  0  0  0  0  0
    2.7340   -1.4560    2.6500 O   0  0  0  0  0  0  0  0  0  0  0  0
    1.6610   -3.7530   -0.3250 H   0  0  0  0  0  0  0  0  0  0  0  0
    3.1640   -2.6120   -1.7900 H   0  0  0  0  0  0  0  0  0  0  0  0
    4.0650   -4.1300   -1.6230 H   0  0  0  0  0  0  0  0  0  0  0  0
    5.6880   -2.8780   -0.6510 H   0  0  0  0  0  0  0  0  0  0  0  0
    4.5290   -1.4980   -0.2720 H   0  0  0  0  0  0  0  0  0  0  0  0
    4.9320   -4.1990    1.0900 H   0  0  0  0  0  0  0  0  0  0  0  0
    4.9640   -2.5190    1.8540 H   0  0  0  0  0  0  0  0  0  0  0  0
    2.7610   -3.9860    1.9800 H   0  0  0  0  0  0  0  0  0  0  0  0
    1.5760   -1.2690    0.6250 N   0  0  0  0  0  0  0  0  0  0  0  0
    1.0110    0.0350    0.9740 C   0  0  1  0  0  0  0  0  0  0  0  0
    1.3860    1.0660   -0.0510 C   0  0  0  0  0  0  0  0  0  0  0  0
    0.8590    2.4000    0.2190 C   0  0  0  0  0  0  0  0  0  0  0  0
    1.5820    3.2620    1.0310 C   0  0  0  0  0  0  0  0  0  0  0  0
    1.1170    4.5120    1.2840 C   0  0  0  0  0  0  0  0  0  0  0  0
   -0.0720    4.9530    0.7460 C   0  0  0  0  0  0  0  0  0  0  0  0
   -0.7830    4.1060   -0.0520 C   0  0  0  0  0  0  0  0  0  0  0  0
   -0.3350    2.8350   -0.3230 C   0  0  0  0  0  0  0  0  0  0  0  0
   -0.4530   -0.0820    1.0920 C   0  0  0  0  0  0  0  0  0  0  0  0
   -1.1620    0.9210    1.4380 O   0  0  0  0  0  0  0  0  0  0  0  0
    1.3720   -1.7360   -0.2840 H   0  0  0  0  0  0  0  0  0  0  0  0
    1.3880    0.2980    1.9890 H   0  0  0  0  0  0  0  0  0  0  0  0
    2.5070    1.1070   -0.1400 H   0  0  0  0  0  0  0  0  0  0  0  0
    1.0300    0.7110   -1.0580 H   0  0  0  0  0  0  0  0  0  0  0  0
    2.5240    2.9470    1.4720 H   0  0  0  0  0  0  0  0  0  0  0  0
    1.6700    5.2040    1.9180 H   0  0  0  0  0  0  0  0  0  0  0  0
   -0.4180    5.9570    0.9660 H   0  0  0  0  0  0  0  0  0  0  0  0
   -1.7320    4.4210   -0.4960 H   0  0  0  0  0  0  0  0  0  0  0  0
   -0.9300    2.1740   -0.9760 H   0  0  0  0  0  0  0  0  0  0  0  0
   -6.7800   -1.1000    0.0010 N   0  0  0  0  0  0  0  0  0  0  0  0
   -5.3600   -1.0020   -0.1100 C   0  0  0  0  0  0  0  0  0  0  0  0
   -4.8440    0.1260    0.0400 O   0  0  0  0  0  0  0  0  0  0  0  0
   -4.5670   -2.2080   -0.3930 C   0  0  0  0  0  0  0  0  0  0  0  0
   -3.0850   -1.9920   -0.3750 C   0  0  0  0  0  0  0  0  0  0  0  0
   -2.5340   -1.5040    0.9180 C   0  0  2  0  0  0  0  0  0  0  0  0
   -1.0710   -1.3220    0.8180 N   0  0  0  0  0  0  0  0  0  0  0  0
   -2.7730   -2.4980    1.9780 C   0  0  0  0  0  0  0  0  0  0  0  0
   -3.9370   -2.8030    2.3090 O   0  0  0  0  0  0  0  0  0  0  0  0
   -1.7130   -3.1070    2.6230 O   0  0  0  0  0  0  0  0  0  0  0  0
   -7.2540   -1.0770    0.9110 H   0  0  0  0  0  0  0  0  0  0  0  0
   -7.3090   -1.1960   -0.8940 H   0  0  0  0  0  0  0  0  0  0  0  0
   -4.8580   -2.5370   -1.4330 H   0  0  0  0  0  0  0  0  0  0  0  0
   -4.8840   -3.0480    0.2700 H   0  0  0  0  0  0  0  0  0  0  0  0
   -2.7700   -1.3130   -1.1980 H   0  0  0  0  0  0  0  0  0  0  0  0
   -2.6180   -2.9860   -0.6320 H   0  0  0  0  0  0  0  0  0  0  0  0
   -3.0080   -0.5540    1.2270 H   0  0  0  0  0  0  0  0  0  0  0  0
   -0.4870   -2.1290    0.5390 H   0  0  0  0  0  0  0  0  0  0  0  0
  1  5  1  0  0  0  0
  2  3  1  0  0  0  0
  2  1  1  0  0  0  0
  3 12  1  0  0  0  0
  3  4  1  0  0  0  0
  4  5  1  0  0  0  0
  4 14  1  0  0  0  0
  5  6  1  0  0  0  0
  5 15  1  1  0  0  0
  6  7  2  0  0  0  0
  8  1  1  0  0  0  0
  9  2  1  0  0  0  0
 10  2  1  0  0  0  0
 11  3  1  0  0  0  0
 13  4  1  0  0  0  0
 16 17  1  0  0  0  0
 16  6  1  0  0  0  0
 17 25  1  0  0  0  0
 17 28  1  1  0  0  0
 18 19  1  0  0  0  0
 18 17  1  0  0  0  0
 19 20  1  0  0  0  0
 20 21  2  0  0  0  0
 20 31  1  0  0  0  0
 21 32  1  0  0  0  0
 22 33  1  0  0  0  0
 22 21  1  0  0  0  0
 23 22  2  0  0  0  0
 24 23  1  0  0  0  0
 24 19  2  0  0  0  0
 25 26  2  0  0  0  0
 27 16  1  0  0  0  0
 29 18  1  0  0  0  0
 30 18  1  0  0  0  0
 34 23  1  0  0  0  0
 35 24  1  0  0  0  0
 36 46  1  0  0  0  0
 37 36  1  0  0  0  0
 37 38  2  0  0  0  0
 39 40  1  0  0  0  0
 39 37  1  0  0  0  0
 39 49  1  0  0  0  0
 40 41  1  0  0  0  0
 41 52  1  1  0  0  0
 41 43  1  0  0  0  0
 42 41  1  0  0  0  0
 42 25  1  0  0  0  0
 43 44  2  0  0  0  0
 43 45  1  0  0  0  0
 47 36  1  0  0  0  0
 48 39  1  0  0  0  0
 50 40  1  0  0  0  0
 51 40  1  0  0  0  0
 53 42  1  0  0  0  0
M  END
$$$$
