PFT.pdb
 OpenBabel07022419053D

 50 51  0  0  1  0  0  0  0  0999 V2000
    2.1880   -3.0740    1.1940 N   0  0  0  0  0  0  0  0  0  0  0  0
    3.1710   -2.5670    2.0950 C   0  0  0  0  0  0  0  0  0  0  0  0
    2.9780   -3.2700    3.4210 C   0  0  0  0  0  0  0  0  0  0  0  0
    1.7210   -4.0830    3.2830 C   0  0  0  0  0  0  0  0  0  0  0  0
    1.1560   -3.7120    1.9380 C   0  0  1  0  0  0  0  0  0  0  0  0
   -0.0530   -2.9120    2.1480 C   0  0  0  0  0  0  0  0  0  0  0  0
   -0.9950   -3.4400    2.8010 O   0  0  0  0  0  0  0  0  0  0  0  0
    1.8900   -2.4460    0.4450 H   0  0  0  0  0  0  0  0  0  0  0  0
    4.1910   -2.7460    1.6820 H   0  0  0  0  0  0  0  0  0  0  0  0
    3.0440   -1.4700    2.1940 H   0  0  0  0  0  0  0  0  0  0  0  0
    3.8190   -3.9900    3.5840 H   0  0  0  0  0  0  0  0  0  0  0  0
    2.9470   -2.5470    4.2600 H   0  0  0  0  0  0  0  0  0  0  0  0
    1.0400   -3.8090    4.0930 H   0  0  0  0  0  0  0  0  0  0  0  0
    1.9150   -5.1850    3.3340 H   0  0  0  0  0  0  0  0  0  0  0  0
    0.8450   -4.6300    1.3580 H   0  0  0  0  0  0  0  0  0  0  0  0
   -0.2600   -1.5940    1.6820 N   0  0  0  0  0  0  0  0  0  0  0  0
   -1.4720   -0.8330    1.9090 C   0  0  1  0  0  0  0  0  0  0  0  0
   -1.1750    0.3680    2.7770 C   0  0  0  0  0  0  0  0  0  0  0  0
   -0.1760    1.2790    2.1500 C   0  0  0  0  0  0  0  0  0  0  0  0
   -0.5570    2.3120    1.3240 C   0  0  0  0  0  0  0  0  0  0  0  0
    0.3490    3.1630    0.7360 C   0  0  0  0  0  0  0  0  0  0  0  0
    1.6960    2.9830    0.9760 C   0  0  0  0  0  0  0  0  0  0  0  0
    2.0820    1.9480    1.8050 C   0  0  0  0  0  0  0  0  0  0  0  0
    1.1890    1.0920    2.3970 C   0  0  0  0  0  0  0  0  0  0  0  0
   -2.1190   -0.4600    0.6390 C   0  0  0  0  0  0  0  0  0  0  0  0
   -3.1770    0.2000    0.6020 O   0  0  0  0  0  0  0  0  0  0  0  0
    0.4970   -1.1330    1.1410 H   0  0  0  0  0  0  0  0  0  0  0  0
   -2.1490   -1.4870    2.4960 H   0  0  0  0  0  0  0  0  0  0  0  0
   -2.1010    0.9350    2.9920 H   0  0  0  0  0  0  0  0  0  0  0  0
   -0.7560    0.0790    3.7600 H   0  0  0  0  0  0  0  0  0  0  0  0
   -1.6160    2.4480    1.1390 H   0  0  0  0  0  0  0  0  0  0  0  0
    0.0520    3.9740    0.0880 H   0  0  0  0  0  0  0  0  0  0  0  0
    2.4120    3.6530    0.5140 H   0  0  0  0  0  0  0  0  0  0  0  0
    3.1330    1.8000    1.9990 H   0  0  0  0  0  0  0  0  0  0  0  0
    1.4750    0.2870    3.0410 H   0  0  0  0  0  0  0  0  0  0  0  0
   -1.0700    1.7290   -2.2380 C   0  0  0  0  0  0  0  0  0  0  0  0
   -1.2120    0.3300   -2.7400 C   0  0  1  0  0  0  0  0  0  0  0  0
    0.0200   -0.2830   -2.9900 O   0  0  0  0  0  0  0  0  0  0  0  0
   -2.0940   -0.5370   -1.8830 C   0  0  2  0  0  0  0  0  0  0  0  0
   -1.5450   -0.8480   -0.6030 N   0  0  0  0  0  0  0  0  0  0  0  0
   -2.4780   -1.7190   -2.6710 C   0  0  0  0  0  0  0  0  0  0  0  0
   -2.3220   -2.8750   -2.2250 O   0  0  0  0  0  0  0  0  0  0  0  0
   -3.0230   -1.5540   -3.9280 O   0  0  0  0  0  0  0  0  0  0  0  0
    0.0150    1.9530   -2.0990 H   0  0  0  0  0  0  0  0  0  0  0  0
   -1.4170    2.4970   -2.9900 H   0  0  0  0  0  0  0  0  0  0  0  0
   -1.6690    1.9360   -1.3280 H   0  0  0  0  0  0  0  0  0  0  0  0
   -1.7140    0.3920   -3.7440 H   0  0  0  0  0  0  0  0  0  0  0  0
    0.7420    0.3540   -3.1150 H   0  0  0  0  0  0  0  0  0  0  0  0
   -3.0330    0.0540   -1.7030 H   0  0  0  0  0  0  0  0  0  0  0  0
   -0.6560   -1.4020   -0.5640 H   0  0  0  0  0  0  0  0  0  0  0  0
  1  5  1  0  0  0  0
  1  2  1  0  0  0  0
  2 10  1  0  0  0  0
  2  3  1  0  0  0  0
  3 11  1  0  0  0  0
  3 12  1  0  0  0  0
  4 14  1  0  0  0  0
  4  3  1  0  0  0  0
  4 13  1  0  0  0  0
  5 15  1  6  0  0  0
  5  6  1  0  0  0  0
  5  4  1  0  0  0  0
  6  7  2  0  0  0  0
  8  1  1  0  0  0  0
  9  2  1  0  0  0  0
 16 17  1  0  0  0  0
 16  6  1  0  0  0  0
 17 28  1  1  0  0  0
 17 18  1  0  0  0  0
 18 29  1  0  0  0  0
 18 30  1  0  0  0  0
 19 24  1  0  0  0  0
 19 18  1  0  0  0  0
 20 19  2  0  0  0  0
 21 22  2  0  0  0  0
 21 20  1  0  0  0  0
 22 23  1  0  0  0  0
 23 34  1  0  0  0  0
 23 24  2  0  0  0  0
 24 35  1  0  0  0  0
 25 17  1  0  0  0  0
 26 25  2  0  0  0  0
 27 16  1  0  0  0  0
 31 20  1  0  0  0  0
 32 21  1  0  0  0  0
 33 22  1  0  0  0  0
 36 44  1  0  0  0  0
 36 46  1  0  0  0  0
 37 47  1  6  0  0  0
 37 36  1  0  0  0  0
 37 39  1  0  0  0  0
 38 37  1  0  0  0  0
 39 49  1  1  0  0  0
 39 40  1  0  0  0  0
 40 50  1  0  0  0  0
 40 25  1  0  0  0  0
 41 42  1  0  0  0  0
 41 39  1  0  0  0  0
 43 41  2  0  0  0  0
 45 36  1  0  0  0  0
 48 38  1  0  0  0  0
M  END
$$$$
