PFV.pdb
 OpenBabel07022419053D

 52 53  0  0  1  0  0  0  0  0999 V2000
    3.0840   -3.0400    1.8160 N   0  0  0  0  0  0  0  0  0  0  0  0
    2.3630   -4.0700    2.4920 C   0  0  0  0  0  0  0  0  0  0  0  0
    1.2800   -4.5530    1.5600 C   0  0  0  0  0  0  0  0  0  0  0  0
    1.1990   -3.5280    0.4540 C   0  0  0  0  0  0  0  0  0  0  0  0
    2.2400   -2.5130    0.7670 C   0  0  1  0  0  0  0  0  0  0  0  0
    1.5890   -1.2930    1.2960 C   0  0  0  0  0  0  0  0  0  0  0  0
    1.7840   -0.8790    2.4820 O   0  0  0  0  0  0  0  0  0  0  0  0
    4.0050   -3.3700    1.4140 H   0  0  0  0  0  0  0  0  0  0  0  0
    2.9970   -4.8900    2.8720 H   0  0  0  0  0  0  0  0  0  0  0  0
    1.8780   -3.6150    3.3860 H   0  0  0  0  0  0  0  0  0  0  0  0
    1.5060   -5.5660    1.2040 H   0  0  0  0  0  0  0  0  0  0  0  0
    0.3100   -4.6020    2.0990 H   0  0  0  0  0  0  0  0  0  0  0  0
    0.1650   -3.1380    0.3910 H   0  0  0  0  0  0  0  0  0  0  0  0
    1.3820   -4.0210   -0.5400 H   0  0  0  0  0  0  0  0  0  0  0  0
    2.8490   -2.2710   -0.1270 H   0  0  0  0  0  0  0  0  0  0  0  0
    0.6910   -0.4800    0.5210 N   0  0  0  0  0  0  0  0  0  0  0  0
    0.0750    0.6990    1.0500 C   0  0  1  0  0  0  0  0  0  0  0  0
    0.5750    1.9630    0.3790 C   0  0  0  0  0  0  0  0  0  0  0  0
    2.0350    2.1200    0.5550 C   0  0  0  0  0  0  0  0  0  0  0  0
    2.5030    2.8070    1.6520 C   0  0  0  0  0  0  0  0  0  0  0  0
    3.8580    2.9930    1.8810 C   0  0  0  0  0  0  0  0  0  0  0  0
    4.7960    2.4900    1.0060 C   0  0  0  0  0  0  0  0  0  0  0  0
    4.3400    1.8010   -0.0970 C   0  0  0  0  0  0  0  0  0  0  0  0
    2.9710    1.6190   -0.3180 C   0  0  0  0  0  0  0  0  0  0  0  0
   -1.3840    0.5740    1.0070 C   0  0  0  0  0  0  0  0  0  0  0  0
   -2.1760    1.4620    1.4300 O   0  0  0  0  0  0  0  0  0  0  0  0
    0.5130   -0.8010   -0.4550 H   0  0  0  0  0  0  0  0  0  0  0  0
    0.3740    0.8170    2.1300 H   0  0  0  0  0  0  0  0  0  0  0  0
    0.3990    1.8410   -0.7270 H   0  0  0  0  0  0  0  0  0  0  0  0
    0.0490    2.8570    0.7070 H   0  0  0  0  0  0  0  0  0  0  0  0
    1.7710    3.2120    2.3550 H   0  0  0  0  0  0  0  0  0  0  0  0
    4.1580    3.5510    2.7760 H   0  0  0  0  0  0  0  0  0  0  0  0
    5.8600    2.6420    1.1940 H   0  0  0  0  0  0  0  0  0  0  0  0
    5.0810    1.4100   -0.7780 H   0  0  0  0  0  0  0  0  0  0  0  0
    2.6510    1.0800   -1.1810 H   0  0  0  0  0  0  0  0  0  0  0  0
   -5.3900   -1.1780   -0.9700 C   0  0  0  0  0  0  0  0  0  0  0  0
   -3.8930   -0.9510   -1.0160 C   0  0  0  0  0  0  0  0  0  0  0  0
   -3.6670    0.3210   -1.8050 C   0  0  0  0  0  0  0  0  0  0  0  0
   -3.3980   -0.8070    0.3830 C   0  0  2  0  0  0  0  0  0  0  0  0
   -1.9750   -0.5850    0.4710 N   0  0  0  0  0  0  0  0  0  0  0  0
   -3.7860   -1.9360    1.2230 C   0  0  0  0  0  0  0  0  0  0  0  0
   -2.9100   -2.5500    1.8830 O   0  0  0  0  0  0  0  0  0  0  0  0
   -5.0860   -2.4030    1.3570 O   0  0  0  0  0  0  0  0  0  0  0  0
   -5.9020   -0.7180   -1.8400 H   0  0  0  0  0  0  0  0  0  0  0  0
   -5.6470   -2.2450   -0.9060 H   0  0  0  0  0  0  0  0  0  0  0  0
   -5.7720   -0.6670   -0.0630 H   0  0  0  0  0  0  0  0  0  0  0  0
   -3.4570   -1.8290   -1.5220 H   0  0  0  0  0  0  0  0  0  0  0  0
   -3.9770    0.2020   -2.8630 H   0  0  0  0  0  0  0  0  0  0  0  0
   -4.2110    1.1760   -1.4020 H   0  0  0  0  0  0  0  0  0  0  0  0
   -2.5550    0.4700   -1.8380 H   0  0  0  0  0  0  0  0  0  0  0  0
   -3.8820    0.1150    0.8190 H   0  0  0  0  0  0  0  0  0  0  0  0
   -1.3690   -1.3480    0.1040 H   0  0  0  0  0  0  0  0  0  0  0  0
  1  2  1  0  0  0  0
  2  9  1  0  0  0  0
  2 10  1  0  0  0  0
  3 12  1  0  0  0  0
  3  2  1  0  0  0  0
  4  5  1  0  0  0  0
  4  3  1  0  0  0  0
  5 15  1  6  0  0  0
  5  6  1  0  0  0  0
  5  1  1  0  0  0  0
  6  7  2  0  0  0  0
  8  1  1  0  0  0  0
 11  3  1  0  0  0  0
 13  4  1  0  0  0  0
 14  4  1  0  0  0  0
 16 17  1  0  0  0  0
 16  6  1  0  0  0  0
 17 28  1  1  0  0  0
 18 19  1  0  0  0  0
 18 30  1  0  0  0  0
 18 17  1  0  0  0  0
 19 20  1  0  0  0  0
 20 21  2  0  0  0  0
 20 31  1  0  0  0  0
 21 32  1  0  0  0  0
 22 33  1  0  0  0  0
 22 21  1  0  0  0  0
 23 22  2  0  0  0  0
 24 23  1  0  0  0  0
 24 19  2  0  0  0  0
 25 17  1  0  0  0  0
 25 26  2  0  0  0  0
 27 16  1  0  0  0  0
 29 18  1  0  0  0  0
 34 23  1  0  0  0  0
 35 24  1  0  0  0  0
 36 45  1  0  0  0  0
 36 46  1  0  0  0  0
 37 36  1  0  0  0  0
 37 39  1  0  0  0  0
 38 49  1  0  0  0  0
 38 37  1  0  0  0  0
 39 40  1  0  0  0  0
 39 51  1  1  0  0  0
 39 41  1  0  0  0  0
 40 25  1  0  0  0  0
 41 43  2  0  0  0  0
 41 42  1  0  0  0  0
 44 36  1  0  0  0  0
 47 37  1  0  0  0  0
 48 38  1  0  0  0  0
 50 38  1  0  0  0  0
 52 40  1  0  0  0  0
M  END
$$$$
