PFW.pdb
 OpenBabel07022419053D

 60 63  0  0  1  0  0  0  0  0999 V2000
    0.8070    0.6930    3.6950 N   0  0  0  0  0  0  0  0  0  0  0  0
    1.1890    0.3530    5.0760 C   0  0  0  0  0  0  0  0  0  0  0  0
    0.7830   -1.1230    5.0950 C   0  0  0  0  0  0  0  0  0  0  0  0
    1.0500   -1.5900    3.6630 C   0  0  0  0  0  0  0  0  0  0  0  0
    1.5660   -0.3160    2.9800 C   0  0  1  0  0  0  0  0  0  0  0  0
    1.2470   -0.3160    1.5240 C   0  0  0  0  0  0  0  0  0  0  0  0
    1.8310   -1.1020    0.7440 O   0  0  0  0  0  0  0  0  0  0  0  0
   -0.2200    0.4630    3.6350 H   0  0  0  0  0  0  0  0  0  0  0  0
    0.6680    0.9450    5.8260 H   0  0  0  0  0  0  0  0  0  0  0  0
    2.3120    0.3970    5.1590 H   0  0  0  0  0  0  0  0  0  0  0  0
    1.3790   -1.7120    5.7960 H   0  0  0  0  0  0  0  0  0  0  0  0
   -0.3090   -1.1130    5.3290 H   0  0  0  0  0  0  0  0  0  0  0  0
    0.0880   -1.8960    3.2210 H   0  0  0  0  0  0  0  0  0  0  0  0
    1.8550   -2.3240    3.6010 H   0  0  0  0  0  0  0  0  0  0  0  0
    2.6350   -0.1720    3.1070 H   0  0  0  0  0  0  0  0  0  0  0  0
    0.2740    0.5710    0.9720 N   0  0  0  0  0  0  0  0  0  0  0  0
   -0.1090    0.6910   -0.3790 C   0  0  1  0  0  0  0  0  0  0  0  0
    1.0270    0.5920   -1.4120 C   0  0  0  0  0  0  0  0  0  0  0  0
    1.9950    1.6810   -1.2440 C   0  0  0  0  0  0  0  0  0  0  0  0
    1.7080    2.9120   -1.8620 C   0  0  0  0  0  0  0  0  0  0  0  0
    2.5600    3.9880   -1.7760 C   0  0  0  0  0  0  0  0  0  0  0  0
    3.7380    3.8870   -1.0700 C   0  0  0  0  0  0  0  0  0  0  0  0
    4.0370    2.7100   -0.4660 C   0  0  0  0  0  0  0  0  0  0  0  0
    3.1600    1.6200   -0.5610 C   0  0  0  0  0  0  0  0  0  0  0  0
   -1.3490    0.0900   -0.8220 C   0  0  0  0  0  0  0  0  0  0  0  0
   -1.7020    0.2120   -2.0510 O   0  0  0  0  0  0  0  0  0  0  0  0
   -0.1840    1.1910    1.7250 H   0  0  0  0  0  0  0  0  0  0  0  0
   -0.3040    1.8550   -0.4820 H   0  0  0  0  0  0  0  0  0  0  0  0
    1.4900   -0.4090   -1.4310 H   0  0  0  0  0  0  0  0  0  0  0  0
    0.5140    0.7440   -2.3970 H   0  0  0  0  0  0  0  0  0  0  0  0
    0.7860    3.0040   -2.4190 H   0  0  0  0  0  0  0  0  0  0  0  0
    2.3450    4.9360   -2.2470 H   0  0  0  0  0  0  0  0  0  0  0  0
    4.4190    4.7360   -0.9960 H   0  0  0  0  0  0  0  0  0  0  0  0
    4.9630    2.6210    0.0930 H   0  0  0  0  0  0  0  0  0  0  0  0
    3.4660    0.7200   -0.0700 H   0  0  0  0  0  0  0  0  0  0  0  0
   -2.2790   -0.6550   -0.0260 N   0  0  0  0  0  0  0  0  0  0  0  0
   -3.4960   -1.1960   -0.5570 C   0  0  1  0  0  0  0  0  0  0  0  0
   -3.7110   -2.6500   -0.3940 C   0  0  0  0  0  0  0  0  0  0  0  0
   -2.6580   -3.4390   -1.0570 C   0  0  0  0  0  0  0  0  0  0  0  0
   -2.7330   -3.9980   -2.3500 C   0  0  0  0  0  0  0  0  0  0  0  0
   -1.5850   -4.6240   -2.6300 N   0  0  0  0  0  0  0  0  0  0  0  0
   -0.7340   -4.5220   -1.5980 C   0  0  0  0  0  0  0  0  0  0  0  0
    0.5520   -5.0130   -1.4150 C   0  0  0  0  0  0  0  0  0  0  0  0
    1.1660   -4.7470   -0.2110 C   0  0  0  0  0  0  0  0  0  0  0  0
    0.5330   -4.0270    0.7670 C   0  0  0  0  0  0  0  0  0  0  0  0
   -0.7320   -3.5490    0.5730 C   0  0  0  0  0  0  0  0  0  0  0  0
   -1.4010   -3.7870   -0.6250 C   0  0  0  0  0  0  0  0  0  0  0  0
   -4.6260   -0.4150    0.0740 C   0  0  0  0  0  0  0  0  0  0  0  0
   -4.3950    0.5020    0.8950 O   0  0  0  0  0  0  0  0  0  0  0  0
   -5.9440   -0.6980   -0.2410 O   0  0  0  0  0  0  0  0  0  0  0  0
   -2.0160   -0.7720    0.9690 H   0  0  0  0  0  0  0  0  0  0  0  0
   -3.5300   -0.8920   -1.6450 H   0  0  0  0  0  0  0  0  0  0  0  0
   -3.6880   -2.9250    0.6890 H   0  0  0  0  0  0  0  0  0  0  0  0
   -4.6990   -2.9600   -0.8050 H   0  0  0  0  0  0  0  0  0  0  0  0
   -3.6060   -3.8990   -2.9610 H   0  0  0  0  0  0  0  0  0  0  0  0
   -1.3830   -5.1190   -3.5210 H   0  0  0  0  0  0  0  0  0  0  0  0
    1.0170   -5.5720   -2.2010 H   0  0  0  0  0  0  0  0  0  0  0  0
    2.1860   -5.1430   -0.0790 H   0  0  0  0  0  0  0  0  0  0  0  0
    1.0390   -3.8390    1.6910 H   0  0  0  0  0  0  0  0  0  0  0  0
   -1.2720   -2.9760    1.3320 H   0  0  0  0  0  0  0  0  0  0  0  0
  1  2  1  0  0  0  0
  2  3  1  0  0  0  0
  2 10  1  0  0  0  0
  2  9  1  0  0  0  0
  3 12  1  0  0  0  0
  3 11  1  0  0  0  0
  4  3  1  0  0  0  0
  5 15  1  1  0  0  0
  5  4  1  0  0  0  0
  5  1  1  0  0  0  0
  6  5  1  0  0  0  0
  7  6  2  0  0  0  0
  8  1  1  0  0  0  0
 13  4  1  0  0  0  0
 14  4  1  0  0  0  0
 16  6  1  0  0  0  0
 16 27  1  0  0  0  0
 17 28  1  6  0  0  0
 17 16  1  0  0  0  0
 18 19  1  0  0  0  0
 18 17  1  0  0  0  0
 19 24  1  0  0  0  0
 20 21  1  0  0  0  0
 20 19  2  0  0  0  0
 21 22  2  0  0  0  0
 22 33  1  0  0  0  0
 22 23  1  0  0  0  0
 23 34  1  0  0  0  0
 24 23  2  0  0  0  0
 24 35  1  0  0  0  0
 25 17  1  0  0  0  0
 25 36  1  0  0  0  0
 26 25  2  0  0  0  0
 29 18  1  0  0  0  0
 30 18  1  0  0  0  0
 31 20  1  0  0  0  0
 32 21  1  0  0  0  0
 36 51  1  0  0  0  0
 37 52  1  6  0  0  0
 37 38  1  0  0  0  0
 37 36  1  0  0  0  0
 37 48  1  0  0  0  0
 38 53  1  0  0  0  0
 39 47  1  0  0  0  0
 39 38  1  0  0  0  0
 40 39  2  0  0  0  0
 41 40  1  0  0  0  0
 41 42  1  0  0  0  0
 42 43  2  0  0  0  0
 42 47  1  0  0  0  0
 43 44  1  0  0  0  0
 44 58  1  0  0  0  0
 44 45  2  0  0  0  0
 45 59  1  0  0  0  0
 46 45  1  0  0  0  0
 46 60  1  0  0  0  0
 47 46  2  0  0  0  0
 48 49  1  0  0  0  0
 50 48  2  0  0  0  0
 54 38  1  0  0  0  0
 55 40  1  0  0  0  0
 56 41  1  0  0  0  0
 57 43  1  0  0  0  0
M  END
$$$$
