PGA.pdb
 OpenBabel07022419033D

 33 33  0  0  1  0  0  0  0  0999 V2000
   -0.5690   -3.8210   -0.6940 N   0  0  0  0  0  0  0  0  0  0  0  0
   -1.1720   -5.1310   -0.5820 C   0  0  0  0  0  0  0  0  0  0  0  0
   -1.3610   -5.4280    0.8700 C   0  0  0  0  0  0  0  0  0  0  0  0
   -0.6640   -4.2570    1.5580 C   0  0  0  0  0  0  0  0  0  0  0  0
   -0.8830   -3.1720    0.5310 C   0  0  1  0  0  0  0  0  0  0  0  0
   -0.1070   -1.9510    0.8000 C   0  0  0  0  0  0  0  0  0  0  0  0
   -0.3470   -1.3390    1.8730 O   0  0  0  0  0  0  0  0  0  0  0  0
    0.4510   -3.8720   -0.9080 H   0  0  0  0  0  0  0  0  0  0  0  0
   -0.5300   -5.9080   -1.0460 H   0  0  0  0  0  0  0  0  0  0  0  0
   -2.1530   -5.0840   -1.1100 H   0  0  0  0  0  0  0  0  0  0  0  0
   -2.4440   -5.3350    1.1400 H   0  0  0  0  0  0  0  0  0  0  0  0
   -0.9740   -6.3950    1.1930 H   0  0  0  0  0  0  0  0  0  0  0  0
    0.4030   -4.5450    1.6450 H   0  0  0  0  0  0  0  0  0  0  0  0
   -1.1400   -3.9810    2.5000 H   0  0  0  0  0  0  0  0  0  0  0  0
   -1.9550   -2.9160    0.5510 H   0  0  0  0  0  0  0  0  0  0  0  0
    0.8860   -1.4160   -0.0540 N   0  0  0  0  0  0  0  0  0  0  0  0
    1.6310   -0.2110    0.2440 C   0  0  0  0  0  0  0  0  0  0  0  0
    0.6830    0.9180    0.3750 C   0  0  0  0  0  0  0  0  0  0  0  0
   -0.5420    0.7020    0.2230 O   0  0  0  0  0  0  0  0  0  0  0  0
    1.0780   -1.9310   -0.9400 H   0  0  0  0  0  0  0  0  0  0  0  0
    2.3740   -0.0140   -0.5530 H   0  0  0  0  0  0  0  0  0  0  0  0
    2.2230   -0.3600    1.1900 H   0  0  0  0  0  0  0  0  0  0  0  0
    0.2670    4.0270    2.1470 C   0  0  0  0  0  0  0  0  0  0  0  0
    0.1980    3.3620    0.8010 C   0  0  2  0  0  0  0  0  0  0  0  0
    1.0850    2.2400    0.6650 N   0  0  0  0  0  0  0  0  0  0  0  0
    0.5540    4.3740   -0.2280 C   0  0  0  0  0  0  0  0  0  0  0  0
    1.4990    4.1940   -1.0480 O   0  0  0  0  0  0  0  0  0  0  0  0
   -0.1410    5.5650   -0.3300 O   0  0  0  0  0  0  0  0  0  0  0  0
    0.0420    5.1040    2.0070 H   0  0  0  0  0  0  0  0  0  0  0  0
    1.2620    3.9550    2.6220 H   0  0  0  0  0  0  0  0  0  0  0  0
   -0.5300    3.6390    2.8230 H   0  0  0  0  0  0  0  0  0  0  0  0
   -0.8710    3.0640    0.6470 H   0  0  0  0  0  0  0  0  0  0  0  0
    2.1050    2.4170    0.7920 H   0  0  0  0  0  0  0  0  0  0  0  0
  1  2  1  0  0  0  0
  1  5  1  0  0  0  0
  2  3  1  0  0  0  0
  3 11  1  0  0  0  0
  3 12  1  0  0  0  0
  3  4  1  0  0  0  0
  4 13  1  0  0  0  0
  4 14  1  0  0  0  0
  5 15  1  6  0  0  0
  5  6  1  0  0  0  0
  5  4  1  0  0  0  0
  6  7  2  0  0  0  0
  8  1  1  0  0  0  0
  9  2  1  0  0  0  0
 10  2  1  0  0  0  0
 16 17  1  0  0  0  0
 16  6  1  0  0  0  0
 17 18  1  0  0  0  0
 17 22  1  0  0  0  0
 18 25  1  0  0  0  0
 19 18  2  0  0  0  0
 20 16  1  0  0  0  0
 21 17  1  0  0  0  0
 23 30  1  0  0  0  0
 23 31  1  0  0  0  0
 24 32  1  6  0  0  0
 24 23  1  0  0  0  0
 25 33  1  0  0  0  0
 25 24  1  0  0  0  0
 26 24  1  0  0  0  0
 27 26  2  0  0  0  0
 28 26  1  0  0  0  0
 29 23  1  0  0  0  0
M  END
$$$$
