PGD.pdb
 OpenBabel07022419033D

 36 36  0  0  1  0  0  0  0  0999 V2000
    3.2380   -3.1790    2.0200 N   0  0  0  0  0  0  0  0  0  0  0  0
    2.3340   -3.1120    3.1460 C   0  0  0  0  0  0  0  0  0  0  0  0
    1.1590   -3.9760    2.8130 C   0  0  0  0  0  0  0  0  0  0  0  0
    1.2830   -4.2290    1.3520 C   0  0  0  0  0  0  0  0  0  0  0  0
    2.4640   -3.4520    0.8580 C   0  0  1  0  0  0  0  0  0  0  0  0
    1.9890   -2.2040    0.1700 C   0  0  0  0  0  0  0  0  0  0  0  0
    1.2860   -2.3140   -0.8810 O   0  0  0  0  0  0  0  0  0  0  0  0
    3.9140   -2.4200    1.9480 H   0  0  0  0  0  0  0  0  0  0  0  0
    2.8730   -3.4000    4.0500 H   0  0  0  0  0  0  0  0  0  0  0  0
    1.9320   -2.0630    3.2660 H   0  0  0  0  0  0  0  0  0  0  0  0
    1.2590   -4.9180    3.4180 H   0  0  0  0  0  0  0  0  0  0  0  0
    0.1870   -3.4970    3.0900 H   0  0  0  0  0  0  0  0  0  0  0  0
    0.3310   -3.9090    0.8650 H   0  0  0  0  0  0  0  0  0  0  0  0
    1.4110   -5.3180    1.1990 H   0  0  0  0  0  0  0  0  0  0  0  0
    3.0460   -4.0900    0.1610 H   0  0  0  0  0  0  0  0  0  0  0  0
    2.2700   -0.9040    0.6120 N   0  0  0  0  0  0  0  0  0  0  0  0
    1.7900    0.2730   -0.0830 C   0  0  0  0  0  0  0  0  0  0  0  0
    0.3090    0.2550   -0.1110 C   0  0  0  0  0  0  0  0  0  0  0  0
   -0.3100   -0.6920    0.4290 O   0  0  0  0  0  0  0  0  0  0  0  0
    2.8420   -0.7650    1.4690 H   0  0  0  0  0  0  0  0  0  0  0  0
    2.1950    1.2070    0.3550 H   0  0  0  0  0  0  0  0  0  0  0  0
    2.1530    0.1790   -1.1460 H   0  0  0  0  0  0  0  0  0  0  0  0
   -0.4170    1.2990   -0.7410 N   0  0  0  0  0  0  0  0  0  0  0  0
   -1.8640    1.3450   -0.8030 C   0  0  1  0  0  0  0  0  0  0  0  0
   -2.4070    2.5980   -0.1430 C   0  0  0  0  0  0  0  0  0  0  0  0
   -2.0440    2.7010    1.2790 C   0  0  0  0  0  0  0  0  0  0  0  0
   -2.7040    2.0320    2.1140 O   0  0  0  0  0  0  0  0  0  0  0  0
   -2.3630    1.3320   -2.1890 C   0  0  0  0  0  0  0  0  0  0  0  0
   -1.5560    1.2870   -3.1340 O   0  0  0  0  0  0  0  0  0  0  0  0
   -1.0190    3.4880    1.7790 O   0  0  0  0  0  0  0  0  0  0  0  0
   -3.7150    1.3680   -2.4410 O   0  0  0  0  0  0  0  0  0  0  0  0
    0.1480    2.0530   -1.1700 H   0  0  0  0  0  0  0  0  0  0  0  0
   -2.3110    0.4830   -0.2870 H   0  0  0  0  0  0  0  0  0  0  0  0
   -3.5130    2.5600   -0.2300 H   0  0  0  0  0  0  0  0  0  0  0  0
   -2.0780    3.4690   -0.7420 H   0  0  0  0  0  0  0  0  0  0  0  0
   -0.4210    3.1540    2.5240 H   0  0  0  0  0  0  0  0  0  0  0  0
  1  2  1  0  0  0  0
  2 10  1  0  0  0  0
  2  9  1  0  0  0  0
  3 12  1  0  0  0  0
  3  2  1  0  0  0  0
  3 11  1  0  0  0  0
  4  3  1  0  0  0  0
  5 15  1  6  0  0  0
  5  4  1  0  0  0  0
  5  1  1  0  0  0  0
  6 16  1  0  0  0  0
  6  5  1  0  0  0  0
  7  6  2  0  0  0  0
  8  1  1  0  0  0  0
 13  4  1  0  0  0  0
 14  4  1  0  0  0  0
 16 20  1  0  0  0  0
 17 21  1  0  0  0  0
 17 16  1  0  0  0  0
 18 17  1  0  0  0  0
 18 19  2  0  0  0  0
 22 17  1  0  0  0  0
 23 18  1  0  0  0  0
 24 23  1  0  0  0  0
 24 33  1  1  0  0  0
 24 25  1  0  0  0  0
 25 26  1  0  0  0  0
 26 30  1  0  0  0  0
 26 27  2  0  0  0  0
 28 24  1  0  0  0  0
 29 28  2  0  0  0  0
 30 36  1  0  0  0  0
 31 28  1  0  0  0  0
 32 23  1  0  0  0  0
 34 25  1  0  0  0  0
 35 25  1  0  0  0  0
M  END
$$$$
