PGF.pdb
 OpenBabel07022419033D

 43 44  0  0  1  0  0  0  0  0999 V2000
    1.2660   -3.6650   -0.1520 N   0  0  0  0  0  0  0  0  0  0  0  0
    0.4020   -4.7770    0.2430 C   0  0  0  0  0  0  0  0  0  0  0  0
   -0.9270   -4.0430    0.4250 C   0  0  0  0  0  0  0  0  0  0  0  0
   -0.9190   -3.0860   -0.7370 C   0  0  0  0  0  0  0  0  0  0  0  0
    0.5370   -2.9380   -1.1630 C   0  0  1  0  0  0  0  0  0  0  0  0
    0.9360   -1.5200   -1.2310 C   0  0  0  0  0  0  0  0  0  0  0  0
    1.8130   -1.0840   -0.4640 O   0  0  0  0  0  0  0  0  0  0  0  0
    2.1260   -4.0740   -0.5500 H   0  0  0  0  0  0  0  0  0  0  0  0
    0.3130   -5.4920   -0.5790 H   0  0  0  0  0  0  0  0  0  0  0  0
    0.7600   -5.1980    1.1850 H   0  0  0  0  0  0  0  0  0  0  0  0
   -0.8420   -3.4990    1.3950 H   0  0  0  0  0  0  0  0  0  0  0  0
   -1.7700   -4.7440    0.4140 H   0  0  0  0  0  0  0  0  0  0  0  0
   -1.3400   -2.1170   -0.3760 H   0  0  0  0  0  0  0  0  0  0  0  0
   -1.5520   -3.5020   -1.5320 H   0  0  0  0  0  0  0  0  0  0  0  0
    0.6670   -3.4450   -2.1620 H   0  0  0  0  0  0  0  0  0  0  0  0
    0.3340   -0.6440   -2.1600 N   0  0  0  0  0  0  0  0  0  0  0  0
    0.6130    0.7390   -2.3240 C   0  0  0  0  0  0  0  0  0  0  0  0
    0.3020    1.6090   -1.1700 C   0  0  0  0  0  0  0  0  0  0  0  0
    0.5440    2.8710   -1.2400 O   0  0  0  0  0  0  0  0  0  0  0  0
   -0.3980   -1.0940   -2.7860 H   0  0  0  0  0  0  0  0  0  0  0  0
    0.0080    1.1180   -3.1990 H   0  0  0  0  0  0  0  0  0  0  0  0
    1.6930    0.8540   -2.6320 H   0  0  0  0  0  0  0  0  0  0  0  0
   -0.2650    1.1860    0.0620 N   0  0  0  0  0  0  0  0  0  0  0  0
   -0.5600    2.0900    1.1160 C   0  0  1  0  0  0  0  0  0  0  0  0
    0.5470    2.4650    2.0300 C   0  0  0  0  0  0  0  0  0  0  0  0
    1.0960    1.2790    2.7290 C   0  0  0  0  0  0  0  0  0  0  0  0
    2.1580    0.5390    2.2590 C   0  0  0  0  0  0  0  0  0  0  0  0
    2.6520   -0.5620    2.9270 C   0  0  0  0  0  0  0  0  0  0  0  0
    2.0960   -0.9810    4.1160 C   0  0  0  0  0  0  0  0  0  0  0  0
    1.0320   -0.2610    4.6140 C   0  0  0  0  0  0  0  0  0  0  0  0
    0.5450    0.8370    3.9400 C   0  0  0  0  0  0  0  0  0  0  0  0
   -1.3920    3.2640    0.7130 C   0  0  0  0  0  0  0  0  0  0  0  0
   -1.8180    3.3480   -0.4380 O   0  0  0  0  0  0  0  0  0  0  0  0
   -1.6720    4.2390    1.6340 O   0  0  0  0  0  0  0  0  0  0  0  0
   -0.4780    0.1600    0.1860 H   0  0  0  0  0  0  0  0  0  0  0  0
   -1.3080    1.5170    1.7850 H   0  0  0  0  0  0  0  0  0  0  0  0
    1.3910    2.9280    1.4590 H   0  0  0  0  0  0  0  0  0  0  0  0
    0.2300    3.2540    2.7460 H   0  0  0  0  0  0  0  0  0  0  0  0
    2.5990    0.8740    1.3120 H   0  0  0  0  0  0  0  0  0  0  0  0
    3.4850   -1.1070    2.5160 H   0  0  0  0  0  0  0  0  0  0  0  0
    2.5020   -1.8520    4.6260 H   0  0  0  0  0  0  0  0  0  0  0  0
    0.5980   -0.5920    5.5480 H   0  0  0  0  0  0  0  0  0  0  0  0
   -0.3040    1.4200    4.3260 H   0  0  0  0  0  0  0  0  0  0  0  0
  1  2  1  0  0  0  0
  2  3  1  0  0  0  0
  2 10  1  0  0  0  0
  3 11  1  0  0  0  0
  4 13  1  0  0  0  0
  4  3  1  0  0  0  0
  5 15  1  6  0  0  0
  5  4  1  0  0  0  0
  5  1  1  0  0  0  0
  6  5  1  0  0  0  0
  6  7  2  0  0  0  0
  8  1  1  0  0  0  0
  9  2  1  0  0  0  0
 12  3  1  0  0  0  0
 14  4  1  0  0  0  0
 16  6  1  0  0  0  0
 17 16  1  0  0  0  0
 17 18  1  0  0  0  0
 18 23  1  0  0  0  0
 19 18  2  0  0  0  0
 20 16  1  0  0  0  0
 21 17  1  0  0  0  0
 22 17  1  0  0  0  0
 23 35  1  0  0  0  0
 23 24  1  0  0  0  0
 24 36  1  1  0  0  0
 24 25  1  0  0  0  0
 25 26  1  0  0  0  0
 25 38  1  0  0  0  0
 26 31  1  0  0  0  0
 27 26  2  0  0  0  0
 27 28  1  0  0  0  0
 28 29  2  0  0  0  0
 29 30  1  0  0  0  0
 29 41  1  0  0  0  0
 30 42  1  0  0  0  0
 31 43  1  0  0  0  0
 31 30  2  0  0  0  0
 32 24  1  0  0  0  0
 32 34  1  0  0  0  0
 33 32  2  0  0  0  0
 37 25  1  0  0  0  0
 39 27  1  0  0  0  0
 40 28  1  0  0  0  0
M  END
$$$$
