PGG.pdb
 OpenBabel07022419033D

 30 30  0  0  1  0  0  0  0  0999 V2000
   -1.7990   -1.9430    1.9590 N   0  0  0  0  0  0  0  0  0  0  0  0
   -1.7730   -3.3910    2.0800 C   0  0  0  0  0  0  0  0  0  0  0  0
   -0.8900   -3.5520    3.3250 C   0  0  0  0  0  0  0  0  0  0  0  0
    0.2580   -2.6070    2.9470 C   0  0  0  0  0  0  0  0  0  0  0  0
   -0.4400   -1.5440    2.1460 C   0  0  1  0  0  0  0  0  0  0  0  0
    0.2600   -1.2000    0.8950 C   0  0  0  0  0  0  0  0  0  0  0  0
    1.4610   -0.8380    0.9740 O   0  0  0  0  0  0  0  0  0  0  0  0
   -2.3620   -1.5950    2.7670 H   0  0  0  0  0  0  0  0  0  0  0  0
   -1.2330   -3.8850    1.2590 H   0  0  0  0  0  0  0  0  0  0  0  0
   -2.7790   -3.8160    2.2550 H   0  0  0  0  0  0  0  0  0  0  0  0
   -0.5710   -4.5950    3.3630 H   0  0  0  0  0  0  0  0  0  0  0  0
   -1.4150   -3.2040    4.2320 H   0  0  0  0  0  0  0  0  0  0  0  0
    0.7480   -2.2350    3.8570 H   0  0  0  0  0  0  0  0  0  0  0  0
    0.9310   -3.1750    2.2790 H   0  0  0  0  0  0  0  0  0  0  0  0
   -0.4270   -0.6120    2.7810 H   0  0  0  0  0  0  0  0  0  0  0  0
   -0.3280   -1.2490   -0.3950 N   0  0  0  0  0  0  0  0  0  0  0  0
    0.3310   -0.9080   -1.6290 C   0  0  0  0  0  0  0  0  0  0  0  0
    0.7000    0.5190   -1.6310 C   0  0  0  0  0  0  0  0  0  0  0  0
    1.3460    0.9870   -2.6210 O   0  0  0  0  0  0  0  0  0  0  0  0
   -1.3250   -1.5640   -0.4170 H   0  0  0  0  0  0  0  0  0  0  0  0
   -0.3680   -1.1050   -2.4730 H   0  0  0  0  0  0  0  0  0  0  0  0
    1.2240   -1.5580   -1.8110 H   0  0  0  0  0  0  0  0  0  0  0  0
    0.3710    1.3960   -0.5920 N   0  0  0  0  0  0  0  0  0  0  0  0
    0.7600    2.8160   -0.6190 C   0  0  0  0  0  0  0  0  0  0  0  0
    2.2160    2.9120   -0.6860 C   0  0  0  0  0  0  0  0  0  0  0  0
    2.7650    4.0500   -0.7190 O   0  0  0  0  0  0  0  0  0  0  0  0
    2.9860    1.7670   -0.7120 O   0  0  0  0  0  0  0  0  0  0  0  0
   -0.1700    1.1030    0.2270 H   0  0  0  0  0  0  0  0  0  0  0  0
    0.3460    3.2530   -1.5730 H   0  0  0  0  0  0  0  0  0  0  0  0
    0.3360    3.3640    0.2300 H   0  0  0  0  0  0  0  0  0  0  0  0
  1  2  1  0  0  0  0
  1  5  1  0  0  0  0
  1  8  1  0  0  0  0
  2 10  1  0  0  0  0
  2  3  1  0  0  0  0
  3 11  1  0  0  0  0
  3 12  1  0  0  0  0
  4  3  1  0  0  0  0
  4 13  1  0  0  0  0
  5 15  1  1  0  0  0
  5  4  1  0  0  0  0
  6  7  2  0  0  0  0
  6  5  1  0  0  0  0
  9  2  1  0  0  0  0
 14  4  1  0  0  0  0
 16  6  1  0  0  0  0
 17 16  1  0  0  0  0
 18 17  1  0  0  0  0
 18 23  1  0  0  0  0
 19 18  2  0  0  0  0
 20 16  1  0  0  0  0
 21 17  1  0  0  0  0
 22 17  1  0  0  0  0
 23 28  1  0  0  0  0
 24 23  1  0  0  0  0
 24 30  1  0  0  0  0
 25 24  1  0  0  0  0
 26 25  2  0  0  0  0
 27 25  1  0  0  0  0
 29 24  1  0  0  0  0
M  END
$$$$
