PGI.pdb
 OpenBabel07022419033D

 42 42  0  0  1  0  0  0  0  0999 V2000
    1.9490   -3.7660    2.7530 N   0  0  0  0  0  0  0  0  0  0  0  0
    0.6200   -3.8160    3.3210 C   0  0  0  0  0  0  0  0  0  0  0  0
   -0.2510   -4.5350    2.3240 C   0  0  0  0  0  0  0  0  0  0  0  0
    0.4440   -4.3160    1.0090 C   0  0  0  0  0  0  0  0  0  0  0  0
    1.8170   -3.7990    1.3320 C   0  0  1  0  0  0  0  0  0  0  0  0
    2.1050   -2.4880    0.6950 C   0  0  0  0  0  0  0  0  0  0  0  0
    2.4230   -1.5310    1.4660 O   0  0  0  0  0  0  0  0  0  0  0  0
    2.4910   -4.5670    3.1470 H   0  0  0  0  0  0  0  0  0  0  0  0
    0.5810   -4.3830    4.2750 H   0  0  0  0  0  0  0  0  0  0  0  0
    0.2360   -2.7910    3.5520 H   0  0  0  0  0  0  0  0  0  0  0  0
   -0.2950   -5.6290    2.5100 H   0  0  0  0  0  0  0  0  0  0  0  0
   -1.2680   -4.0710    2.3320 H   0  0  0  0  0  0  0  0  0  0  0  0
   -0.1620   -3.6160    0.4130 H   0  0  0  0  0  0  0  0  0  0  0  0
    0.4830   -5.2740    0.4190 H   0  0  0  0  0  0  0  0  0  0  0  0
    2.5500   -4.5370    0.9380 H   0  0  0  0  0  0  0  0  0  0  0  0
    2.0440   -2.2640   -0.6940 N   0  0  0  0  0  0  0  0  0  0  0  0
    2.3230   -0.9730   -1.2320 C   0  0  0  0  0  0  0  0  0  0  0  0
    1.3560    0.0940   -0.7930 C   0  0  0  0  0  0  0  0  0  0  0  0
    1.5600    1.2880   -1.1840 O   0  0  0  0  0  0  0  0  0  0  0  0
    1.7940   -3.0450   -1.3240 H   0  0  0  0  0  0  0  0  0  0  0  0
    3.3700   -0.6420   -1.0610 H   0  0  0  0  0  0  0  0  0  0  0  0
    2.2120   -1.0110   -2.3360 H   0  0  0  0  0  0  0  0  0  0  0  0
    0.9720    4.1610    0.9470 C   0  0  0  0  0  0  0  0  0  0  0  0
    0.7760    2.6930    1.2380 C   0  0  0  0  0  0  0  0  0  0  0  0
   -0.4070    2.2240    0.4510 C   0  0  2  0  0  0  0  0  0  0  0  0
   -1.6000    3.0360    0.9400 C   0  0  0  0  0  0  0  0  0  0  0  0
   -0.7220    0.7810    0.5210 C   0  0  2  0  0  0  0  0  0  0  0  0
    0.2400   -0.1470    0.0190 N   0  0  0  0  0  0  0  0  0  0  0  0
   -2.0470    0.4490    0.0470 C   0  0  0  0  0  0  0  0  0  0  0  0
   -3.0740    1.0750    0.3560 O   0  0  0  0  0  0  0  0  0  0  0  0
   -2.2310   -0.6530   -0.8290 O   0  0  0  0  0  0  0  0  0  0  0  0
    2.0110    4.3440    0.5870 H   0  0  0  0  0  0  0  0  0  0  0  0
    0.3090    4.5370    0.1410 H   0  0  0  0  0  0  0  0  0  0  0  0
    0.8210    4.8120    1.8260 H   0  0  0  0  0  0  0  0  0  0  0  0
    0.4060    2.6920    2.3350 H   0  0  0  0  0  0  0  0  0  0  0  0
    1.6970    2.1470    1.1830 H   0  0  0  0  0  0  0  0  0  0  0  0
   -0.2300    2.5620   -0.6140 H   0  0  0  0  0  0  0  0  0  0  0  0
   -2.1210    2.5700    1.7980 H   0  0  0  0  0  0  0  0  0  0  0  0
   -1.2290    4.0220    1.3760 H   0  0  0  0  0  0  0  0  0  0  0  0
   -2.3380    3.2260    0.1500 H   0  0  0  0  0  0  0  0  0  0  0  0
   -0.6620    0.5870    1.6790 H   0  0  0  0  0  0  0  0  0  0  0  0
    0.0740   -1.1780    0.2900 H   0  0  0  0  0  0  0  0  0  0  0  0
  1  8  1  0  0  0  0
  1  2  1  0  0  0  0
  2 10  1  0  0  0  0
  2  9  1  0  0  0  0
  3 12  1  0  0  0  0
  3 11  1  0  0  0  0
  3  2  1  0  0  0  0
  4  5  1  0  0  0  0
  4  3  1  0  0  0  0
  5 15  1  6  0  0  0
  5  1  1  0  0  0  0
  6  5  1  0  0  0  0
  6  7  2  0  0  0  0
 13  4  1  0  0  0  0
 14  4  1  0  0  0  0
 16  6  1  0  0  0  0
 17 21  1  0  0  0  0
 17 18  1  0  0  0  0
 17 16  1  0  0  0  0
 18 28  1  0  0  0  0
 19 18  2  0  0  0  0
 20 16  1  0  0  0  0
 22 17  1  0  0  0  0
 23 24  1  0  0  0  0
 23 34  1  0  0  0  0
 24 35  1  0  0  0  0
 25 37  1  6  0  0  0
 25 27  1  0  0  0  0
 25 26  1  0  0  0  0
 25 24  1  0  0  0  0
 26 39  1  0  0  0  0
 26 38  1  0  0  0  0
 27 41  1  1  0  0  0
 28 42  1  0  0  0  0
 28 27  1  0  0  0  0
 29 30  1  0  0  0  0
 29 27  1  0  0  0  0
 31 29  2  0  0  0  0
 32 23  1  0  0  0  0
 33 23  1  0  0  0  0
 36 24  1  0  0  0  0
 40 26  1  0  0  0  0
M  END
$$$$
