PGN.pdb
 OpenBabel07022419033D

 37 37  0  0  1  0  0  0  0  0999 V2000
    3.0730   -1.5450    0.8020 N   0  0  0  0  0  0  0  0  0  0  0  0
    2.8070   -1.2660    2.1900 C   0  0  0  0  0  0  0  0  0  0  0  0
    2.5770   -2.5780    2.8930 C   0  0  0  0  0  0  0  0  0  0  0  0
    3.0700   -3.6300    1.9250 C   0  0  0  0  0  0  0  0  0  0  0  0
    2.8810   -2.9590    0.5860 C   0  0  1  0  0  0  0  0  0  0  0  0
    1.4710   -3.1930    0.1320 C   0  0  0  0  0  0  0  0  0  0  0  0
    1.0770   -4.3540   -0.1160 O   0  0  0  0  0  0  0  0  0  0  0  0
    4.0660   -1.2610    0.5530 H   0  0  0  0  0  0  0  0  0  0  0  0
    3.6820   -0.7390    2.6570 H   0  0  0  0  0  0  0  0  0  0  0  0
    1.9270   -0.6120    2.2720 H   0  0  0  0  0  0  0  0  0  0  0  0
    3.1250   -2.6390    3.8490 H   0  0  0  0  0  0  0  0  0  0  0  0
    1.4920   -2.7270    3.1130 H   0  0  0  0  0  0  0  0  0  0  0  0
    2.4200   -4.5030    1.9700 H   0  0  0  0  0  0  0  0  0  0  0  0
    4.1170   -3.8900    2.1400 H   0  0  0  0  0  0  0  0  0  0  0  0
    3.5710   -3.4060   -0.1270 H   0  0  0  0  0  0  0  0  0  0  0  0
    0.5640   -2.1120   -0.0230 N   0  0  0  0  0  0  0  0  0  0  0  0
   -0.7690   -2.3760   -0.4540 C   0  0  0  0  0  0  0  0  0  0  0  0
   -1.6410   -1.1960   -0.5860 C   0  0  0  0  0  0  0  0  0  0  0  0
   -2.8590   -1.3200   -0.9620 O   0  0  0  0  0  0  0  0  0  0  0  0
    0.8890   -1.1630    0.1790 H   0  0  0  0  0  0  0  0  0  0  0  0
   -0.7280   -2.9600   -1.4080 H   0  0  0  0  0  0  0  0  0  0  0  0
   -1.2360   -3.0160    0.3540 H   0  0  0  0  0  0  0  0  0  0  0  0
   -1.2820    3.2900    2.6200 N   0  0  0  0  0  0  0  0  0  0  0  0
   -1.1690    2.5880    1.3730 C   0  0  0  0  0  0  0  0  0  0  0  0
   -0.0460    2.5060    0.8150 O   0  0  0  0  0  0  0  0  0  0  0  0
   -2.3890    2.0010    0.8170 C   0  0  0  0  0  0  0  0  0  0  0  0
   -2.1860    1.2550   -0.4810 C   0  0  2  0  0  0  0  0  0  0  0  0
   -1.2640    0.1480   -0.3290 N   0  0  0  0  0  0  0  0  0  0  0  0
   -1.8270    2.1570   -1.5830 C   0  0  0  0  0  0  0  0  0  0  0  0
   -0.8250    1.9930   -2.3110 O   0  0  0  0  0  0  0  0  0  0  0  0
   -2.6350    3.2480   -1.8330 O   0  0  0  0  0  0  0  0  0  0  0  0
   -0.9250    4.2610    2.7000 H   0  0  0  0  0  0  0  0  0  0  0  0
   -1.7120    2.8650    3.4600 H   0  0  0  0  0  0  0  0  0  0  0  0
   -3.1350    2.8150    0.5950 H   0  0  0  0  0  0  0  0  0  0  0  0
   -2.8900    1.3060    1.5230 H   0  0  0  0  0  0  0  0  0  0  0  0
   -3.1690    0.8210   -0.7560 H   0  0  0  0  0  0  0  0  0  0  0  0
   -0.2940    0.3650   -0.0210 H   0  0  0  0  0  0  0  0  0  0  0  0
  1  2  1  0  0  0  0
  2 10  1  0  0  0  0
  2  9  1  0  0  0  0
  2  3  1  0  0  0  0
  3 12  1  0  0  0  0
  3 11  1  0  0  0  0
  4 13  1  0  0  0  0
  4 14  1  0  0  0  0
  4  3  1  0  0  0  0
  5 15  1  6  0  0  0
  5  1  1  0  0  0  0
  5  4  1  0  0  0  0
  6  5  1  0  0  0  0
  7  6  2  0  0  0  0
  8  1  1  0  0  0  0
 16  6  1  0  0  0  0
 16 20  1  0  0  0  0
 17 16  1  0  0  0  0
 17 22  1  0  0  0  0
 18 17  1  0  0  0  0
 18 28  1  0  0  0  0
 19 18  2  0  0  0  0
 21 17  1  0  0  0  0
 23 32  1  0  0  0  0
 23 33  1  0  0  0  0
 24 23  1  0  0  0  0
 25 24  2  0  0  0  0
 26 24  1  0  0  0  0
 26 35  1  0  0  0  0
 27 36  1  6  0  0  0
 27 28  1  0  0  0  0
 27 26  1  0  0  0  0
 28 37  1  0  0  0  0
 29 27  1  0  0  0  0
 30 29  2  0  0  0  0
 31 29  1  0  0  0  0
 34 26  1  0  0  0  0
M  END
$$$$
