PGP.pdb
 OpenBabel07022419033D

 37 38  0  0  1  0  0  0  0  0999 V2000
    0.0310   -2.5640    2.3360 N   0  0  0  0  0  0  0  0  0  0  0  0
   -0.6860   -3.3980    3.2950 C   0  0  0  0  0  0  0  0  0  0  0  0
   -0.7930   -4.7710    2.6840 C   0  0  0  0  0  0  0  0  0  0  0  0
   -0.7060   -4.4520    1.2070 C   0  0  0  0  0  0  0  0  0  0  0  0
    0.4520   -3.4410    1.2830 C   0  0  1  0  0  0  0  0  0  0  0  0
    0.7880   -2.8300    0.0140 C   0  0  0  0  0  0  0  0  0  0  0  0
    1.1200   -3.4800   -1.0240 O   0  0  0  0  0  0  0  0  0  0  0  0
   -0.6810   -1.9050    1.8880 H   0  0  0  0  0  0  0  0  0  0  0  0
   -0.1650   -3.4140    4.2760 H   0  0  0  0  0  0  0  0  0  0  0  0
   -1.7200   -3.0130    3.4030 H   0  0  0  0  0  0  0  0  0  0  0  0
    0.1090   -5.3650    2.9450 H   0  0  0  0  0  0  0  0  0  0  0  0
   -1.7320   -5.2870    2.9500 H   0  0  0  0  0  0  0  0  0  0  0  0
   -0.4500   -5.3170    0.5860 H   0  0  0  0  0  0  0  0  0  0  0  0
   -1.6370   -3.9420    0.9260 H   0  0  0  0  0  0  0  0  0  0  0  0
    1.3300   -4.0780    1.6160 H   0  0  0  0  0  0  0  0  0  0  0  0
    0.7550   -1.3830   -0.1170 N   0  0  0  0  0  0  0  0  0  0  0  0
    1.0940   -0.8310   -1.3930 C   0  0  0  0  0  0  0  0  0  0  0  0
    1.1060    0.5840   -1.5730 C   0  0  0  0  0  0  0  0  0  0  0  0
    1.3750    0.9660   -2.8020 O   0  0  0  0  0  0  0  0  0  0  0  0
    0.4800   -0.8340    0.7120 H   0  0  0  0  0  0  0  0  0  0  0  0
    0.3390   -1.2550   -2.1620 H   0  0  0  0  0  0  0  0  0  0  0  0
    2.0600   -1.3120   -1.7690 H   0  0  0  0  0  0  0  0  0  0  0  0
    0.8860    1.6760   -0.6970 N   0  0  0  0  0  0  0  0  0  0  0  0
    0.8850    3.0750   -1.2250 C   0  0  0  0  0  0  0  0  0  0  0  0
    0.5220    3.9520   -0.0800 C   0  0  0  0  0  0  0  0  0  0  0  0
    1.1040    3.1830    1.1070 C   0  0  0  0  0  0  0  0  0  0  0  0
    0.6630    1.7680    0.7090 C   0  0  1  0  0  0  0  0  0  0  0  0
   -0.7890    1.6740    1.0670 C   0  0  0  0  0  0  0  0  0  0  0  0
   -1.6860    1.5300    0.2050 O   0  0  0  0  0  0  0  0  0  0  0  0
   -1.1210    1.7510    2.3980 O   0  0  0  0  0  0  0  0  0  0  0  0
    1.8590    3.3270   -1.6460 H   0  0  0  0  0  0  0  0  0  0  0  0
    0.1340    3.1400   -2.0420 H   0  0  0  0  0  0  0  0  0  0  0  0
    1.0640    4.9280   -0.1350 H   0  0  0  0  0  0  0  0  0  0  0  0
   -0.5450    4.1450    0.0210 H   0  0  0  0  0  0  0  0  0  0  0  0
    2.1960    3.2500    1.0850 H   0  0  0  0  0  0  0  0  0  0  0  0
    0.6370    3.4860    2.0560 H   0  0  0  0  0  0  0  0  0  0  0  0
    1.2910    1.0660    1.3260 H   0  0  0  0  0  0  0  0  0  0  0  0
  1  2  1  0  0  0  0
  2 10  1  0  0  0  0
  2  9  1  0  0  0  0
  3 11  1  0  0  0  0
  3 12  1  0  0  0  0
  3  2  1  0  0  0  0
  4  5  1  0  0  0  0
  4  3  1  0  0  0  0
  5 15  1  1  0  0  0
  5  1  1  0  0  0  0
  6  5  1  0  0  0  0
  7  6  2  0  0  0  0
  8  1  1  0  0  0  0
 13  4  1  0  0  0  0
 14  4  1  0  0  0  0
 16  6  1  0  0  0  0
 16 20  1  0  0  0  0
 17 16  1  0  0  0  0
 18 17  1  0  0  0  0
 18 23  1  0  0  0  0
 19 18  2  0  0  0  0
 21 17  1  0  0  0  0
 22 17  1  0  0  0  0
 23 27  1  0  0  0  0
 24 23  1  0  0  0  0
 24 25  1  0  0  0  0
 25 34  1  0  0  0  0
 25 26  1  0  0  0  0
 26 36  1  0  0  0  0
 27 28  1  0  0  0  0
 27 26  1  0  0  0  0
 27 37  1  1  0  0  0
 28 30  1  0  0  0  0
 29 28  2  0  0  0  0
 31 24  1  0  0  0  0
 32 24  1  0  0  0  0
 33 25  1  0  0  0  0
 35 26  1  0  0  0  0
M  END
$$$$
