PGQ.pdb
 OpenBabel07022419033D

 40 40  0  0  1  0  0  0  0  0999 V2000
   -1.7900   -2.8020    0.1510 N   0  0  0  0  0  0  0  0  0  0  0  0
   -2.8100   -3.6730    0.6360 C   0  0  0  0  0  0  0  0  0  0  0  0
   -2.0550   -4.7830    1.3200 C   0  0  0  0  0  0  0  0  0  0  0  0
   -0.6670   -4.2240    1.5660 C   0  0  0  0  0  0  0  0  0  0  0  0
   -0.7190   -2.7900    1.1060 C   0  0  1  0  0  0  0  0  0  0  0  0
    0.5770   -2.3740    0.5300 C   0  0  0  0  0  0  0  0  0  0  0  0
    1.5650   -2.3370    1.3050 O   0  0  0  0  0  0  0  0  0  0  0  0
   -2.1130   -1.8730   -0.1510 H   0  0  0  0  0  0  0  0  0  0  0  0
   -3.4030   -3.0930    1.4000 H   0  0  0  0  0  0  0  0  0  0  0  0
   -3.4500   -4.0210   -0.1810 H   0  0  0  0  0  0  0  0  0  0  0  0
   -2.5100   -5.0270    2.3230 H   0  0  0  0  0  0  0  0  0  0  0  0
   -2.0200   -5.6900    0.6640 H   0  0  0  0  0  0  0  0  0  0  0  0
    0.0670   -4.7590    0.9290 H   0  0  0  0  0  0  0  0  0  0  0  0
   -0.3730   -4.2510    2.6230 H   0  0  0  0  0  0  0  0  0  0  0  0
   -0.9790   -2.0790    1.9110 H   0  0  0  0  0  0  0  0  0  0  0  0
    0.7770   -2.0170   -0.8200 N   0  0  0  0  0  0  0  0  0  0  0  0
    2.0280   -1.5980   -1.4000 C   0  0  0  0  0  0  0  0  0  0  0  0
    2.5670   -0.3400   -0.8440 C   0  0  0  0  0  0  0  0  0  0  0  0
    3.6930    0.0920   -1.2550 O   0  0  0  0  0  0  0  0  0  0  0  0
   -0.0890   -2.0740   -1.4310 H   0  0  0  0  0  0  0  0  0  0  0  0
    2.7880   -2.4230   -1.3590 H   0  0  0  0  0  0  0  0  0  0  0  0
    1.8580   -1.4040   -2.4960 H   0  0  0  0  0  0  0  0  0  0  0  0
   -1.6100    2.5860    2.3380 N   0  0  0  0  0  0  0  0  0  0  0  0
   -0.2240    2.7770    1.9810 C   0  0  0  0  0  0  0  0  0  0  0  0
    0.5500    2.8770    2.9540 O   0  0  0  0  0  0  0  0  0  0  0  0
    0.1760    2.8400    0.5800 C   0  0  0  0  0  0  0  0  0  0  0  0
    1.6290    2.8510    0.2720 C   0  0  0  0  0  0  0  0  0  0  0  0
    2.4310    1.6770    0.6930 C   0  0  2  0  0  0  0  0  0  0  0  0
    1.9090    0.4300    0.1240 N   0  0  0  0  0  0  0  0  0  0  0  0
    2.7750    1.5150    2.0850 C   0  0  0  0  0  0  0  0  0  0  0  0
    2.4870    0.4720    2.7360 O   0  0  0  0  0  0  0  0  0  0  0  0
    3.4640    2.5070    2.8160 O   0  0  0  0  0  0  0  0  0  0  0  0
   -1.8530    1.8230    2.9620 H   0  0  0  0  0  0  0  0  0  0  0  0
   -2.3010    3.2290    1.9470 H   0  0  0  0  0  0  0  0  0  0  0  0
   -0.3050    3.7420    0.1050 H   0  0  0  0  0  0  0  0  0  0  0  0
   -0.2990    1.9450    0.0590 H   0  0  0  0  0  0  0  0  0  0  0  0
    2.1050    3.7550    0.7740 H   0  0  0  0  0  0  0  0  0  0  0  0
    1.7790    3.0880   -0.8290 H   0  0  0  0  0  0  0  0  0  0  0  0
    3.4390    1.7850    0.1350 H   0  0  0  0  0  0  0  0  0  0  0  0
    0.9590    0.0950    0.4580 H   0  0  0  0  0  0  0  0  0  0  0  0
  1  2  1  0  0  0  0
  1  5  1  0  0  0  0
  2  3  1  0  0  0  0
  2  9  1  0  0  0  0
  3  4  1  0  0  0  0
  3 11  1  0  0  0  0
  4 14  1  0  0  0  0
  5  4  1  0  0  0  0
  5 15  1  1  0  0  0
  6  5  1  0  0  0  0
  6  7  2  0  0  0  0
  8  1  1  0  0  0  0
 10  2  1  0  0  0  0
 12  3  1  0  0  0  0
 13  4  1  0  0  0  0
 16  6  1  0  0  0  0
 17 21  1  0  0  0  0
 17 18  1  0  0  0  0
 17 16  1  0  0  0  0
 18 29  1  0  0  0  0
 19 18  2  0  0  0  0
 20 16  1  0  0  0  0
 22 17  1  0  0  0  0
 23 33  1  0  0  0  0
 24 23  1  0  0  0  0
 24 25  2  0  0  0  0
 26 24  1  0  0  0  0
 27 26  1  0  0  0  0
 27 28  1  0  0  0  0
 27 37  1  0  0  0  0
 28 39  1  6  0  0  0
 28 30  1  0  0  0  0
 29 40  1  0  0  0  0
 29 28  1  0  0  0  0
 30 31  2  0  0  0  0
 30 32  1  0  0  0  0
 34 23  1  0  0  0  0
 35 26  1  0  0  0  0
 36 26  1  0  0  0  0
 38 27  1  0  0  0  0
M  END
$$$$
