PGT.pdb
 OpenBabel07022419033D

 37 37  0  0  1  0  0  0  0  0999 V2000
    1.1870   -4.1930    0.7630 N   0  0  0  0  0  0  0  0  0  0  0  0
    0.1010   -3.9740    1.6670 C   0  0  0  0  0  0  0  0  0  0  0  0
   -1.0600   -3.4520    0.8320 C   0  0  0  0  0  0  0  0  0  0  0  0
   -0.4470   -3.0420   -0.4880 C   0  0  0  0  0  0  0  0  0  0  0  0
    1.0680   -3.2510   -0.3040 C   0  0  1  0  0  0  0  0  0  0  0  0
    1.7500   -1.9660   -0.0920 C   0  0  0  0  0  0  0  0  0  0  0  0
    1.6770   -1.1100   -1.0370 O   0  0  0  0  0  0  0  0  0  0  0  0
    2.0920   -4.1330    1.2210 H   0  0  0  0  0  0  0  0  0  0  0  0
    0.3210   -3.1820    2.4200 H   0  0  0  0  0  0  0  0  0  0  0  0
   -0.1530   -4.9230    2.1780 H   0  0  0  0  0  0  0  0  0  0  0  0
   -1.5810   -2.6130    1.3310 H   0  0  0  0  0  0  0  0  0  0  0  0
   -1.8140   -4.2590    0.7110 H   0  0  0  0  0  0  0  0  0  0  0  0
   -0.8330   -3.6790   -1.3090 H   0  0  0  0  0  0  0  0  0  0  0  0
   -0.6680   -1.9760   -0.6940 H   0  0  0  0  0  0  0  0  0  0  0  0
    1.4200   -3.7390   -1.2470 H   0  0  0  0  0  0  0  0  0  0  0  0
    2.4800   -1.5870    1.0570 N   0  0  0  0  0  0  0  0  0  0  0  0
    3.1080   -0.2940    1.1790 C   0  0  0  0  0  0  0  0  0  0  0  0
    2.1610    0.8440    1.1740 C   0  0  0  0  0  0  0  0  0  0  0  0
    2.5620    2.0460    1.2230 O   0  0  0  0  0  0  0  0  0  0  0  0
    2.5550   -2.2780    1.8320 H   0  0  0  0  0  0  0  0  0  0  0  0
    3.6300   -0.2530    2.1800 H   0  0  0  0  0  0  0  0  0  0  0  0
    3.8780   -0.1680    0.3840 H   0  0  0  0  0  0  0  0  0  0  0  0
   -1.9000    2.9510   -0.2440 C   0  0  0  0  0  0  0  0  0  0  0  0
   -0.9150    1.8350   -0.1980 C   0  0  1  0  0  0  0  0  0  0  0  0
   -0.0470    1.9640   -1.2800 O   0  0  0  0  0  0  0  0  0  0  0  0
   -0.1500    1.7780    1.1090 C   0  0  2  0  0  0  0  0  0  0  0  0
    0.7620    0.6340    1.1190 N   0  0  0  0  0  0  0  0  0  0  0  0
   -1.0340    1.7840    2.2800 C   0  0  0  0  0  0  0  0  0  0  0  0
   -1.0160    0.9140    3.1880 O   0  0  0  0  0  0  0  0  0  0  0  0
   -1.9540    2.8160    2.4000 O   0  0  0  0  0  0  0  0  0  0  0  0
   -2.9080    2.6990    0.1200 H   0  0  0  0  0  0  0  0  0  0  0  0
   -2.0470    3.3550   -1.2880 H   0  0  0  0  0  0  0  0  0  0  0  0
   -1.5700    3.8570    0.3430 H   0  0  0  0  0  0  0  0  0  0  0  0
   -1.4810    0.8800   -0.3610 H   0  0  0  0  0  0  0  0  0  0  0  0
    0.3430    2.8630   -1.2530 H   0  0  0  0  0  0  0  0  0  0  0  0
    0.4700    2.6900    1.1500 H   0  0  0  0  0  0  0  0  0  0  0  0
    0.3210   -0.3390    1.0990 H   0  0  0  0  0  0  0  0  0  0  0  0
  1  8  1  0  0  0  0
  1  2  1  0  0  0  0
  2 10  1  0  0  0  0
  2  9  1  0  0  0  0
  3 11  1  0  0  0  0
  3  2  1  0  0  0  0
  4  5  1  0  0  0  0
  4  3  1  0  0  0  0
  5 15  1  6  0  0  0
  5  6  1  0  0  0  0
  5  1  1  0  0  0  0
  6 16  1  0  0  0  0
  7  6  2  0  0  0  0
 12  3  1  0  0  0  0
 13  4  1  0  0  0  0
 14  4  1  0  0  0  0
 16 17  1  0  0  0  0
 16 20  1  0  0  0  0
 17 21  1  0  0  0  0
 18 17  1  0  0  0  0
 18 19  2  0  0  0  0
 22 17  1  0  0  0  0
 23 24  1  0  0  0  0
 23 31  1  0  0  0  0
 23 33  1  0  0  0  0
 24 34  1  6  0  0  0
 24 26  1  0  0  0  0
 25 35  1  0  0  0  0
 25 24  1  0  0  0  0
 26 27  1  0  0  0  0
 26 36  1  1  0  0  0
 26 28  1  0  0  0  0
 27 18  1  0  0  0  0
 28 30  2  0  0  0  0
 28 29  1  0  0  0  0
 32 23  1  0  0  0  0
 37 27  1  0  0  0  0
M  END
$$$$
