PGW.pdb
 OpenBabel07022419033D

 47 49  0  0  1  0  0  0  0  0999 V2000
    1.0770   -3.4410    0.0260 N   0  0  0  0  0  0  0  0  0  0  0  0
    0.3070   -4.4090   -0.7010 C   0  0  0  0  0  0  0  0  0  0  0  0
    1.0290   -4.6160   -2.0070 C   0  0  0  0  0  0  0  0  0  0  0  0
    2.3650   -3.9290   -1.8070 C   0  0  0  0  0  0  0  0  0  0  0  0
    2.4690   -3.6670   -0.3190 C   0  0  1  0  0  0  0  0  0  0  0  0
    3.2910   -2.4520   -0.0780 C   0  0  0  0  0  0  0  0  0  0  0  0
    4.5220   -2.4300   -0.2990 O   0  0  0  0  0  0  0  0  0  0  0  0
    0.9200   -3.4750    1.0570 H   0  0  0  0  0  0  0  0  0  0  0  0
    0.2390   -5.3330   -0.0890 H   0  0  0  0  0  0  0  0  0  0  0  0
   -0.7270   -4.0270   -0.8240 H   0  0  0  0  0  0  0  0  0  0  0  0
    1.2320   -5.7080   -2.1660 H   0  0  0  0  0  0  0  0  0  0  0  0
    0.4500   -4.2100   -2.8360 H   0  0  0  0  0  0  0  0  0  0  0  0
    2.3080   -2.9630   -2.3620 H   0  0  0  0  0  0  0  0  0  0  0  0
    3.2120   -4.5010   -2.2100 H   0  0  0  0  0  0  0  0  0  0  0  0
    2.8700   -4.5320    0.2080 H   0  0  0  0  0  0  0  0  0  0  0  0
    2.7040   -1.2360    0.4260 N   0  0  0  0  0  0  0  0  0  0  0  0
    3.5090   -0.0890    0.6490 C   0  0  0  0  0  0  0  0  0  0  0  0
    2.7220    1.0480    1.1610 C   0  0  0  0  0  0  0  0  0  0  0  0
    3.3180    2.1610    1.4100 O   0  0  0  0  0  0  0  0  0  0  0  0
    1.7000   -1.2760    0.5990 H   0  0  0  0  0  0  0  0  0  0  0  0
    3.9910    0.2330   -0.3140 H   0  0  0  0  0  0  0  0  0  0  0  0
    4.3330   -0.2870    1.3850 H   0  0  0  0  0  0  0  0  0  0  0  0
    1.3380    1.0660    1.4200 N   0  0  0  0  0  0  0  0  0  0  0  0
    0.6570    2.2600    1.9280 C   0  0  1  0  0  0  0  0  0  0  0  0
   -0.3750    2.7490    0.9880 C   0  0  0  0  0  0  0  0  0  0  0  0
   -1.4240    1.7650    0.6700 C   0  0  0  0  0  0  0  0  0  0  0  0
   -1.3440    0.9040   -0.4350 C   0  0  0  0  0  0  0  0  0  0  0  0
   -2.4100    0.0960   -0.4290 N   0  0  0  0  0  0  0  0  0  0  0  0
   -3.2010    0.3780    0.6300 C   0  0  0  0  0  0  0  0  0  0  0  0
   -4.3970   -0.1560    1.0600 C   0  0  0  0  0  0  0  0  0  0  0  0
   -5.0090    0.3420    2.1880 C   0  0  0  0  0  0  0  0  0  0  0  0
   -4.3900    1.3790    2.8590 C   0  0  0  0  0  0  0  0  0  0  0  0
   -3.2010    1.9200    2.4450 C   0  0  0  0  0  0  0  0  0  0  0  0
   -2.5810    1.4300    1.3220 C   0  0  0  0  0  0  0  0  0  0  0  0
    0.1220    1.9930    3.2580 C   0  0  0  0  0  0  0  0  0  0  0  0
   -0.3900    2.8530    4.0130 O   0  0  0  0  0  0  0  0  0  0  0  0
    0.1560    0.6880    3.7900 O   0  0  0  0  0  0  0  0  0  0  0  0
    0.7770    0.2230    1.2520 H   0  0  0  0  0  0  0  0  0  0  0  0
    1.4020    3.0920    2.0540 H   0  0  0  0  0  0  0  0  0  0  0  0
    0.0360    3.1870    0.0510 H   0  0  0  0  0  0  0  0  0  0  0  0
   -0.9230    3.6180    1.4640 H   0  0  0  0  0  0  0  0  0  0  0  0
   -0.5420    0.9110   -1.1590 H   0  0  0  0  0  0  0  0  0  0  0  0
   -2.6160   -0.6430   -1.1250 H   0  0  0  0  0  0  0  0  0  0  0  0
   -4.8120   -0.9570    0.4850 H   0  0  0  0  0  0  0  0  0  0  0  0
   -5.9380   -0.0730    2.5230 H   0  0  0  0  0  0  0  0  0  0  0  0
   -4.8870    1.7540    3.7410 H   0  0  0  0  0  0  0  0  0  0  0  0
   -2.7590    2.7340    2.9740 H   0  0  0  0  0  0  0  0  0  0  0  0
  1  8  1  0  0  0  0
  2  9  1  0  0  0  0
  2  1  1  0  0  0  0
  3  4  1  0  0  0  0
  3  2  1  0  0  0  0
  4  5  1  0  0  0  0
  5  6  1  0  0  0  0
  5  1  1  0  0  0  0
  5 15  1  1  0  0  0
  6 16  1  0  0  0  0
  7  6  2  0  0  0  0
 10  2  1  0  0  0  0
 11  3  1  0  0  0  0
 12  3  1  0  0  0  0
 13  4  1  0  0  0  0
 14  4  1  0  0  0  0
 16 20  1  0  0  0  0
 16 17  1  0  0  0  0
 17 18  1  0  0  0  0
 17 22  1  0  0  0  0
 18 19  2  0  0  0  0
 18 23  1  0  0  0  0
 21 17  1  0  0  0  0
 23 24  1  0  0  0  0
 24 39  1  1  0  0  0
 24 35  1  0  0  0  0
 25 41  1  0  0  0  0
 25 24  1  0  0  0  0
 26 25  1  0  0  0  0
 26 34  1  0  0  0  0
 27 28  1  0  0  0  0
 27 26  2  0  0  0  0
 28 29  1  0  0  0  0
 29 30  2  0  0  0  0
 29 34  1  0  0  0  0
 30 31  1  0  0  0  0
 31 45  1  0  0  0  0
 31 32  2  0  0  0  0
 32 46  1  0  0  0  0
 33 32  1  0  0  0  0
 33 47  1  0  0  0  0
 34 33  2  0  0  0  0
 35 37  2  0  0  0  0
 35 36  1  0  0  0  0
 38 23  1  0  0  0  0
 40 25  1  0  0  0  0
 42 27  1  0  0  0  0
 43 28  1  0  0  0  0
 44 30  1  0  0  0  0
M  END
$$$$
