PGY.pdb
 OpenBabel07022419033D

 44 45  0  0  1  0  0  0  0  0999 V2000
   -0.8420   -4.4610   -0.9760 N   0  0  0  0  0  0  0  0  0  0  0  0
   -0.2400   -5.7100   -1.4020 C   0  0  0  0  0  0  0  0  0  0  0  0
    1.1430   -5.3980   -1.8890 C   0  0  0  0  0  0  0  0  0  0  0  0
    1.2270   -3.8750   -1.7590 C   0  0  0  0  0  0  0  0  0  0  0  0
    0.2830   -3.6720   -0.5830 C   0  0  1  0  0  0  0  0  0  0  0  0
   -0.0330   -2.2480   -0.3620 C   0  0  0  0  0  0  0  0  0  0  0  0
    0.9120   -1.4930   -0.0140 O   0  0  0  0  0  0  0  0  0  0  0  0
   -1.4230   -4.6940   -0.1220 H   0  0  0  0  0  0  0  0  0  0  0  0
   -0.2150   -6.4460   -0.5560 H   0  0  0  0  0  0  0  0  0  0  0  0
   -0.7930   -6.1700   -2.2460 H   0  0  0  0  0  0  0  0  0  0  0  0
    1.3510   -5.7310   -2.9090 H   0  0  0  0  0  0  0  0  0  0  0  0
    1.8930   -5.7910   -1.1410 H   0  0  0  0  0  0  0  0  0  0  0  0
    2.2560   -3.5520   -1.5190 H   0  0  0  0  0  0  0  0  0  0  0  0
    0.8330   -3.4130   -2.6870 H   0  0  0  0  0  0  0  0  0  0  0  0
    0.7630   -4.1530    0.2890 H   0  0  0  0  0  0  0  0  0  0  0  0
   -1.3110   -1.6980   -0.5180 N   0  0  0  0  0  0  0  0  0  0  0  0
   -1.6280   -0.2980   -0.3030 C   0  0  0  0  0  0  0  0  0  0  0  0
   -1.2960    0.0220    1.1040 C   0  0  0  0  0  0  0  0  0  0  0  0
   -0.8300   -0.8550    1.8660 O   0  0  0  0  0  0  0  0  0  0  0  0
   -2.0830   -2.3660   -0.8130 H   0  0  0  0  0  0  0  0  0  0  0  0
   -2.6800   -0.0710   -0.5460 H   0  0  0  0  0  0  0  0  0  0  0  0
   -1.0200    0.3140   -1.0180 H   0  0  0  0  0  0  0  0  0  0  0  0
    4.6180    1.3810    0.2940 O   0  0  0  0  0  0  0  0  0  0  0  0
    3.4230    1.7490    0.9350 C   0  0  0  0  0  0  0  0  0  0  0  0
    3.2430    1.5830    2.2910 C   0  0  0  0  0  0  0  0  0  0  0  0
    2.0860    1.9330    2.9540 C   0  0  0  0  0  0  0  0  0  0  0  0
    1.0430    2.4780    2.2390 C   0  0  0  0  0  0  0  0  0  0  0  0
   -0.1990    2.8540    2.9450 C   0  0  0  0  0  0  0  0  0  0  0  0
   -1.1920    1.6980    2.9840 C   0  0  2  0  0  0  0  0  0  0  0  0
   -1.5050    1.3420    1.6080 N   0  0  0  0  0  0  0  0  0  0  0  0
   -2.3940    2.1930    3.7000 C   0  0  0  0  0  0  0  0  0  0  0  0
   -3.4760    2.2410    3.0630 O   0  0  0  0  0  0  0  0  0  0  0  0
    1.2100    2.6510    0.8730 C   0  0  0  0  0  0  0  0  0  0  0  0
    2.3720    2.2990    0.2180 C   0  0  0  0  0  0  0  0  0  0  0  0
   -2.3800    2.5970    5.0130 O   0  0  0  0  0  0  0  0  0  0  0  0
    5.2700    2.1010   -0.0400 H   0  0  0  0  0  0  0  0  0  0  0  0
    4.0580    1.1550    2.8610 H   0  0  0  0  0  0  0  0  0  0  0  0
    1.9620    1.7930    4.0320 H   0  0  0  0  0  0  0  0  0  0  0  0
   -0.6280    3.7530    2.5010 H   0  0  0  0  0  0  0  0  0  0  0  0
    0.0560    3.0990    4.0070 H   0  0  0  0  0  0  0  0  0  0  0  0
   -0.7920    0.8500    3.5510 H   0  0  0  0  0  0  0  0  0  0  0  0
   -1.8950    2.0340    0.9340 H   0  0  0  0  0  0  0  0  0  0  0  0
    0.3750    3.0820    0.3390 H   0  0  0  0  0  0  0  0  0  0  0  0
    2.4980    2.4350   -0.8480 H   0  0  0  0  0  0  0  0  0  0  0  0
  1  5  1  0  0  0  0
  1  8  1  0  0  0  0
  2  1  1  0  0  0  0
  2  9  1  0  0  0  0
  3  4  1  0  0  0  0
  3  2  1  0  0  0  0
  3 12  1  0  0  0  0
  4 13  1  0  0  0  0
  4  5  1  0  0  0  0
  5  6  1  0  0  0  0
  5 15  1  1  0  0  0
  6  7  2  0  0  0  0
 10  2  1  0  0  0  0
 11  3  1  0  0  0  0
 14  4  1  0  0  0  0
 16  6  1  0  0  0  0
 16 17  1  0  0  0  0
 17 18  1  0  0  0  0
 18 30  1  0  0  0  0
 18 19  2  0  0  0  0
 20 16  1  0  0  0  0
 21 17  1  0  0  0  0
 22 17  1  0  0  0  0
 23 24  1  0  0  0  0
 24 25  1  0  0  0  0
 25 37  1  0  0  0  0
 25 26  2  0  0  0  0
 26 38  1  0  0  0  0
 27 28  1  0  0  0  0
 27 26  1  0  0  0  0
 28 29  1  0  0  0  0
 28 40  1  0  0  0  0
 29 41  1  1  0  0  0
 29 31  1  0  0  0  0
 30 29  1  0  0  0  0
 31 35  1  0  0  0  0
 32 31  2  0  0  0  0
 33 27  2  0  0  0  0
 34 33  1  0  0  0  0
 34 24  2  0  0  0  0
 36 23  1  0  0  0  0
 39 28  1  0  0  0  0
 42 30  1  0  0  0  0
 43 33  1  0  0  0  0
 44 34  1  0  0  0  0
M  END
$$$$
