PHA.pdb
 OpenBabel07022419043D

 43 44  0  0  1  0  0  0  0  0999 V2000
   -0.8510   -3.4500   -2.1170 N   0  0  0  0  0  0  0  0  0  0  0  0
   -2.2500   -3.8330   -2.1480 C   0  0  0  0  0  0  0  0  0  0  0  0
   -2.6510   -3.4350   -0.7210 C   0  0  0  0  0  0  0  0  0  0  0  0
   -2.1060   -1.9990   -0.7230 C   0  0  0  0  0  0  0  0  0  0  0  0
   -0.9290   -2.0850   -1.6740 C   0  0  1  0  0  0  0  0  0  0  0  0
    0.2780   -1.6660   -0.9140 C   0  0  0  0  0  0  0  0  0  0  0  0
    1.1800   -2.5260   -0.7380 O   0  0  0  0  0  0  0  0  0  0  0  0
   -0.5210   -3.4800   -3.1270 H   0  0  0  0  0  0  0  0  0  0  0  0
   -2.8240   -3.1640   -2.8340 H   0  0  0  0  0  0  0  0  0  0  0  0
   -2.4150   -4.8980   -2.3370 H   0  0  0  0  0  0  0  0  0  0  0  0
   -2.0170   -4.0320   -0.0470 H   0  0  0  0  0  0  0  0  0  0  0  0
   -3.7230   -3.4870   -0.5500 H   0  0  0  0  0  0  0  0  0  0  0  0
   -2.8850   -1.3140   -1.1340 H   0  0  0  0  0  0  0  0  0  0  0  0
   -1.8170   -1.7770    0.3050 H   0  0  0  0  0  0  0  0  0  0  0  0
   -1.0820   -1.4570   -2.5820 H   0  0  0  0  0  0  0  0  0  0  0  0
    0.4950   -0.3800   -0.3730 N   0  0  0  0  0  0  0  0  0  0  0  0
    1.6920   -0.0110    0.3650 C   0  0  1  0  0  0  0  0  0  0  0  0
    2.4250    1.1180   -0.2870 C   0  0  0  0  0  0  0  0  0  0  0  0
    3.6350    1.4320    0.5120 C   0  0  0  0  0  0  0  0  0  0  0  0
    4.8970    0.8500    0.3350 C   0  0  0  0  0  0  0  0  0  0  0  0
    5.7680    1.3530    1.2180 N   0  0  0  0  0  0  0  0  0  0  0  0
    5.1050    2.2450    1.9610 C   0  0  0  0  0  0  0  0  0  0  0  0
    3.8160    2.2880    1.5300 N   0  0  0  0  0  0  0  0  0  0  0  0
    1.2370    0.3700    1.7220 C   0  0  0  0  0  0  0  0  0  0  0  0
    2.0310    0.7150    2.6510 O   0  0  0  0  0  0  0  0  0  0  0  0
   -0.2420    0.3390   -0.5130 H   0  0  0  0  0  0  0  0  0  0  0  0
    2.3960   -0.8490    0.4690 H   0  0  0  0  0  0  0  0  0  0  0  0
    1.8180    2.0460   -0.3620 H   0  0  0  0  0  0  0  0  0  0  0  0
    2.7730    0.7800   -1.2970 H   0  0  0  0  0  0  0  0  0  0  0  0
    5.1030    0.1040   -0.4180 H   0  0  0  0  0  0  0  0  0  0  0  0
    6.7720    1.1010    1.3110 H   0  0  0  0  0  0  0  0  0  0  0  0
    5.5250    2.8310    2.7690 H   0  0  0  0  0  0  0  0  0  0  0  0
   -1.4350    2.0140    3.3540 C   0  0  0  0  0  0  0  0  0  0  0  0
   -0.5890    0.7550    3.4390 C   0  0  2  0  0  0  0  0  0  0  0  0
   -0.1480    0.3840    2.1140 N   0  0  0  0  0  0  0  0  0  0  0  0
   -1.4090   -0.2810    4.0770 C   0  0  0  0  0  0  0  0  0  0  0  0
   -1.8560   -0.0810    5.2330 O   0  0  0  0  0  0  0  0  0  0  0  0
   -1.7140   -1.4820    3.4500 O   0  0  0  0  0  0  0  0  0  0  0  0
   -2.4810    1.8350    3.6830 H   0  0  0  0  0  0  0  0  0  0  0  0
   -1.4150    2.3930    2.3130 H   0  0  0  0  0  0  0  0  0  0  0  0
   -1.0000    2.8270    3.9800 H   0  0  0  0  0  0  0  0  0  0  0  0
    0.3250    1.0030    4.0270 H   0  0  0  0  0  0  0  0  0  0  0  0
   -0.8620    0.1140    1.4080 H   0  0  0  0  0  0  0  0  0  0  0  0
  1  5  1  0  0  0  0
  2  1  1  0  0  0  0
  2  3  1  0  0  0  0
  3 12  1  0  0  0  0
  3 11  1  0  0  0  0
  4  3  1  0  0  0  0
  4 14  1  0  0  0  0
  5 15  1  6  0  0  0
  5  6  1  0  0  0  0
  5  4  1  0  0  0  0
  6  7  2  0  0  0  0
  6 16  1  0  0  0  0
  8  1  1  0  0  0  0
  9  2  1  0  0  0  0
 10  2  1  0  0  0  0
 13  4  1  0  0  0  0
 16 17  1  0  0  0  0
 17 27  1  1  0  0  0
 17 24  1  0  0  0  0
 18 17  1  0  0  0  0
 18 19  1  0  0  0  0
 19 23  1  0  0  0  0
 20 19  2  0  0  0  0
 20 21  1  0  0  0  0
 21 31  1  0  0  0  0
 21 22  1  0  0  0  0
 22 32  1  0  0  0  0
 23 22  2  0  0  0  0
 24 35  1  0  0  0  0
 24 25  2  0  0  0  0
 26 16  1  0  0  0  0
 28 18  1  0  0  0  0
 29 18  1  0  0  0  0
 30 20  1  0  0  0  0
 33 34  1  0  0  0  0
 33 39  1  0  0  0  0
 33 41  1  0  0  0  0
 34 42  1  1  0  0  0
 34 36  1  0  0  0  0
 35 34  1  0  0  0  0
 36 37  1  0  0  0  0
 38 36  2  0  0  0  0
 40 33  1  0  0  0  0
 43 35  1  0  0  0  0
M  END
$$$$
