PHD.pdb
 OpenBabel07022419043D

 46 47  0  0  1  0  0  0  0  0999 V2000
    3.6370   -2.5920    0.1140 N   0  0  0  0  0  0  0  0  0  0  0  0
    3.9460   -2.6810    1.5120 C   0  0  0  0  0  0  0  0  0  0  0  0
    3.2510   -3.8900    2.0670 C   0  0  0  0  0  0  0  0  0  0  0  0
    2.7440   -4.5950    0.8390 C   0  0  0  0  0  0  0  0  0  0  0  0
    2.5550   -3.4810   -0.1810 C   0  0  1  0  0  0  0  0  0  0  0  0
    1.2130   -2.8950    0.0430 C   0  0  0  0  0  0  0  0  0  0  0  0
    0.2140   -3.6180   -0.2020 O   0  0  0  0  0  0  0  0  0  0  0  0
    4.4940   -2.9490   -0.4090 H   0  0  0  0  0  0  0  0  0  0  0  0
    5.0540   -2.8240    1.6820 H   0  0  0  0  0  0  0  0  0  0  0  0
    3.6280   -1.7710    2.0230 H   0  0  0  0  0  0  0  0  0  0  0  0
    2.3850   -3.5730    2.7120 H   0  0  0  0  0  0  0  0  0  0  0  0
    3.9060   -4.5270    2.6910 H   0  0  0  0  0  0  0  0  0  0  0  0
    1.7640   -5.0420    1.0890 H   0  0  0  0  0  0  0  0  0  0  0  0
    3.4300   -5.3820    0.4670 H   0  0  0  0  0  0  0  0  0  0  0  0
    2.6190   -3.9780   -1.1730 H   0  0  0  0  0  0  0  0  0  0  0  0
    0.9900   -1.5880    0.5080 N   0  0  0  0  0  0  0  0  0  0  0  0
   -0.3210   -1.0000    0.7310 C   0  0  1  0  0  0  0  0  0  0  0  0
   -0.6030   -0.8030    2.1950 C   0  0  0  0  0  0  0  0  0  0  0  0
    0.3730    0.0860    2.8660 C   0  0  0  0  0  0  0  0  0  0  0  0
    0.2750    1.4470    2.9970 C   0  0  0  0  0  0  0  0  0  0  0  0
    1.3480    1.8800    3.6630 N   0  0  0  0  0  0  0  0  0  0  0  0
    2.1210    0.8310    3.9570 C   0  0  0  0  0  0  0  0  0  0  0  0
    1.5190   -0.2610    3.4670 N   0  0  0  0  0  0  0  0  0  0  0  0
   -0.5530    0.1710   -0.1090 C   0  0  0  0  0  0  0  0  0  0  0  0
    0.3320    0.6110   -0.9200 O   0  0  0  0  0  0  0  0  0  0  0  0
    1.8020   -0.9720    0.7160 H   0  0  0  0  0  0  0  0  0  0  0  0
   -1.0490   -1.7980    0.3960 H   0  0  0  0  0  0  0  0  0  0  0  0
   -0.6490   -1.8100    2.6560 H   0  0  0  0  0  0  0  0  0  0  0  0
   -1.6340   -0.3870    2.2720 H   0  0  0  0  0  0  0  0  0  0  0  0
   -0.5470    2.0830    2.6190 H   0  0  0  0  0  0  0  0  0  0  0  0
    1.5630    2.8970    3.9240 H   0  0  0  0  0  0  0  0  0  0  0  0
    3.0830    0.8700    4.5060 H   0  0  0  0  0  0  0  0  0  0  0  0
   -1.7680    0.9040   -0.0900 N   0  0  0  0  0  0  0  0  0  0  0  0
   -2.0120    2.0690   -0.9240 C   0  0  1  0  0  0  0  0  0  0  0  0
   -3.1430    1.6460   -1.8590 C   0  0  0  0  0  0  0  0  0  0  0  0
   -4.3490    1.2780   -1.0810 C   0  0  0  0  0  0  0  0  0  0  0  0
   -4.8650    2.0980   -0.2760 O   0  0  0  0  0  0  0  0  0  0  0  0
   -2.5140    3.1650   -0.0810 C   0  0  0  0  0  0  0  0  0  0  0  0
   -2.6710    3.0060    1.1560 O   0  0  0  0  0  0  0  0  0  0  0  0
   -4.9670    0.0240   -1.1940 O   0  0  0  0  0  0  0  0  0  0  0  0
   -2.8410    4.4230   -0.5780 O   0  0  0  0  0  0  0  0  0  0  0  0
   -2.5180    0.5840    0.5570 H   0  0  0  0  0  0  0  0  0  0  0  0
   -1.1330    2.3970   -1.4820 H   0  0  0  0  0  0  0  0  0  0  0  0
   -3.3440    2.4410   -2.6170 H   0  0  0  0  0  0  0  0  0  0  0  0
   -2.8480    0.7570   -2.4560 H   0  0  0  0  0  0  0  0  0  0  0  0
   -5.7860   -0.1730   -0.5940 H   0  0  0  0  0  0  0  0  0  0  0  0
  1  2  1  0  0  0  0
  2  9  1  0  0  0  0
  2 10  1  0  0  0  0
  2  3  1  0  0  0  0
  3 12  1  0  0  0  0
  3 11  1  0  0  0  0
  4 13  1  0  0  0  0
  4  3  1  0  0  0  0
  5 15  1  6  0  0  0
  5  6  1  0  0  0  0
  5  1  1  0  0  0  0
  5  4  1  0  0  0  0
  6 16  1  0  0  0  0
  7  6  2  0  0  0  0
  8  1  1  0  0  0  0
 14  4  1  0  0  0  0
 16 26  1  0  0  0  0
 16 17  1  0  0  0  0
 17 27  1  6  0  0  0
 17 18  1  0  0  0  0
 18 29  1  0  0  0  0
 18 28  1  0  0  0  0
 18 19  1  0  0  0  0
 19 20  2  0  0  0  0
 19 23  1  0  0  0  0
 20 21  1  0  0  0  0
 21 31  1  0  0  0  0
 21 22  1  0  0  0  0
 22 32  1  0  0  0  0
 23 22  2  0  0  0  0
 24 33  1  0  0  0  0
 24 17  1  0  0  0  0
 25 24  2  0  0  0  0
 30 20  1  0  0  0  0
 33 42  1  0  0  0  0
 34 43  1  6  0  0  0
 34 33  1  0  0  0  0
 34 38  1  0  0  0  0
 35 36  1  0  0  0  0
 35 34  1  0  0  0  0
 36 37  2  0  0  0  0
 38 39  1  0  0  0  0
 40 36  1  0  0  0  0
 40 46  1  0  0  0  0
 41 38  2  0  0  0  0
 44 35  1  0  0  0  0
 45 35  1  0  0  0  0
M  END
$$$$
