PHE.pdb
 OpenBabel07022419043D

 49 50  0  0  1  0  0  0  0  0999 V2000
    3.9420   -2.7030    2.1770 N   0  0  0  0  0  0  0  0  0  0  0  0
    3.1380   -3.8840    1.9510 C   0  0  0  0  0  0  0  0  0  0  0  0
    2.7300   -3.7590    0.5100 C   0  0  0  0  0  0  0  0  0  0  0  0
    2.7110   -2.2680    0.2880 C   0  0  0  0  0  0  0  0  0  0  0  0
    3.1670   -1.6360    1.5840 C   0  0  1  0  0  0  0  0  0  0  0  0
    2.0290   -1.2650    2.4490 C   0  0  0  0  0  0  0  0  0  0  0  0
    1.8220   -1.8520    3.5410 O   0  0  0  0  0  0  0  0  0  0  0  0
    4.7930   -2.8150    1.5480 H   0  0  0  0  0  0  0  0  0  0  0  0
    2.2340   -3.9360    2.5680 H   0  0  0  0  0  0  0  0  0  0  0  0
    3.7590   -4.7940    2.0900 H   0  0  0  0  0  0  0  0  0  0  0  0
    1.7480   -4.2350    0.3340 H   0  0  0  0  0  0  0  0  0  0  0  0
    3.5270   -4.2530   -0.0960 H   0  0  0  0  0  0  0  0  0  0  0  0
    1.7280   -1.8890   -0.0450 H   0  0  0  0  0  0  0  0  0  0  0  0
    3.4810   -2.0330   -0.4800 H   0  0  0  0  0  0  0  0  0  0  0  0
    3.8230   -0.7650    1.3700 H   0  0  0  0  0  0  0  0  0  0  0  0
    1.1330   -0.2340    2.0700 N   0  0  0  0  0  0  0  0  0  0  0  0
    0.0310    0.0950    2.9510 C   0  0  1  0  0  0  0  0  0  0  0  0
    0.1310    1.5720    3.3170 C   0  0  0  0  0  0  0  0  0  0  0  0
    0.0610    2.4100    2.0750 C   0  0  0  0  0  0  0  0  0  0  0  0
   -1.0350    2.9450    1.4360 C   0  0  0  0  0  0  0  0  0  0  0  0
   -0.6290    3.6300    0.3460 N   0  0  0  0  0  0  0  0  0  0  0  0
    0.7150    3.5240    0.3030 C   0  0  0  0  0  0  0  0  0  0  0  0
    1.1310    2.7780    1.3620 N   0  0  0  0  0  0  0  0  0  0  0  0
   -1.2370   -0.0550    2.1830 C   0  0  0  0  0  0  0  0  0  0  0  0
   -2.3190    0.1850    2.7820 O   0  0  0  0  0  0  0  0  0  0  0  0
    1.2310    0.3060    1.1800 H   0  0  0  0  0  0  0  0  0  0  0  0
    0.0220   -0.5440    3.8350 H   0  0  0  0  0  0  0  0  0  0  0  0
   -0.7140    1.8740    3.9720 H   0  0  0  0  0  0  0  0  0  0  0  0
    1.0750    1.8030    3.8510 H   0  0  0  0  0  0  0  0  0  0  0  0
   -2.0490    2.8410    1.7440 H   0  0  0  0  0  0  0  0  0  0  0  0
   -1.1930    4.1500   -0.3530 H   0  0  0  0  0  0  0  0  0  0  0  0
    1.3510    3.9580   -0.4450 H   0  0  0  0  0  0  0  0  0  0  0  0
   -1.2680   -0.4520    0.8270 N   0  0  0  0  0  0  0  0  0  0  0  0
   -2.4900   -0.5950    0.0890 C   0  0  1  0  0  0  0  0  0  0  0  0
   -2.6330    0.2580   -1.1150 C   0  0  0  0  0  0  0  0  0  0  0  0
   -1.6100    0.0960   -2.1890 C   0  0  0  0  0  0  0  0  0  0  0  0
   -1.5310   -1.2500   -2.7920 C   0  0  0  0  0  0  0  0  0  0  0  0
   -0.6910   -2.0990   -2.4200 O   0  0  0  0  0  0  0  0  0  0  0  0
   -2.7600   -2.0110   -0.2610 C   0  0  0  0  0  0  0  0  0  0  0  0
   -3.7180   -2.3880   -0.9550 O   0  0  0  0  0  0  0  0  0  0  0  0
   -2.4070   -1.6220   -3.8130 O   0  0  0  0  0  0  0  0  0  0  0  0
   -1.8830   -3.0010    0.2180 O   0  0  0  0  0  0  0  0  0  0  0  0
   -0.3710   -0.6450    0.3540 H   0  0  0  0  0  0  0  0  0  0  0  0
   -3.3440   -0.3290    0.8160 H   0  0  0  0  0  0  0  0  0  0  0  0
   -3.6250   -0.0240   -1.5840 H   0  0  0  0  0  0  0  0  0  0  0  0
   -2.7280    1.3420   -0.8910 H   0  0  0  0  0  0  0  0  0  0  0  0
   -1.9150    0.8100   -3.0140 H   0  0  0  0  0  0  0  0  0  0  0  0
   -0.5950    0.3720   -1.8230 H   0  0  0  0  0  0  0  0  0  0  0  0
   -2.1210   -2.3730   -4.4130 H   0  0  0  0  0  0  0  0  0  0  0  0
  2 10  1  0  0  0  0
  2  1  1  0  0  0  0
  2  9  1  0  0  0  0
  3  2  1  0  0  0  0
  4  3  1  0  0  0  0
  4  5  1  0  0  0  0
  5 15  1  6  0  0  0
  5  1  1  0  0  0  0
  5  6  1  0  0  0  0
  6  7  2  0  0  0  0
  8  1  1  0  0  0  0
 11  3  1  0  0  0  0
 12  3  1  0  0  0  0
 13  4  1  0  0  0  0
 14  4  1  0  0  0  0
 16  6  1  0  0  0  0
 16 17  1  0  0  0  0
 17 18  1  0  0  0  0
 17 27  1  1  0  0  0
 18 29  1  0  0  0  0
 18 28  1  0  0  0  0
 19 18  1  0  0  0  0
 20 30  1  0  0  0  0
 20 19  2  0  0  0  0
 21 20  1  0  0  0  0
 22 21  1  0  0  0  0
 22 23  2  0  0  0  0
 23 19  1  0  0  0  0
 24 25  2  0  0  0  0
 24 17  1  0  0  0  0
 26 16  1  0  0  0  0
 31 21  1  0  0  0  0
 32 22  1  0  0  0  0
 33 24  1  0  0  0  0
 34 44  1  1  0  0  0
 34 33  1  0  0  0  0
 35 46  1  0  0  0  0
 35 34  1  0  0  0  0
 36 48  1  0  0  0  0
 36 35  1  0  0  0  0
 37 38  2  0  0  0  0
 37 36  1  0  0  0  0
 39 34  1  0  0  0  0
 39 42  1  0  0  0  0
 40 39  2  0  0  0  0
 41 37  1  0  0  0  0
 43 33  1  0  0  0  0
 45 35  1  0  0  0  0
 47 36  1  0  0  0  0
 49 41  1  0  0  0  0
M  END
$$$$
