PHG.pdb
 OpenBabel07022419043D

 40 41  0  0  1  0  0  0  0  0999 V2000
    0.3970   -3.1090    0.0880 N   0  0  0  0  0  0  0  0  0  0  0  0
    0.9500   -4.4600   -0.1030 C   0  0  0  0  0  0  0  0  0  0  0  0
    2.4350   -4.1690   -0.0720 C   0  0  0  0  0  0  0  0  0  0  0  0
    2.6020   -2.9520    0.8390 C   0  0  0  0  0  0  0  0  0  0  0  0
    1.1700   -2.6430    1.1970 C   0  0  1  0  0  0  0  0  0  0  0  0
    0.9430   -1.2300    1.5290 C   0  0  0  0  0  0  0  0  0  0  0  0
    1.5850   -0.7390    2.4930 O   0  0  0  0  0  0  0  0  0  0  0  0
    0.5320   -2.5540   -0.7820 H   0  0  0  0  0  0  0  0  0  0  0  0
    0.6290   -5.0230    0.8170 H   0  0  0  0  0  0  0  0  0  0  0  0
    0.6090   -4.9240   -1.0280 H   0  0  0  0  0  0  0  0  0  0  0  0
    2.7160   -3.8470   -1.1100 H   0  0  0  0  0  0  0  0  0  0  0  0
    3.0340   -5.0250    0.2610 H   0  0  0  0  0  0  0  0  0  0  0  0
    3.1000   -2.1270    0.2970 H   0  0  0  0  0  0  0  0  0  0  0  0
    3.1860   -3.2950    1.7180 H   0  0  0  0  0  0  0  0  0  0  0  0
    0.8710   -3.2440    2.0880 H   0  0  0  0  0  0  0  0  0  0  0  0
    0.0410   -0.3750    0.8290 N   0  0  0  0  0  0  0  0  0  0  0  0
   -0.1730    1.0030    1.1620 C   0  0  1  0  0  0  0  0  0  0  0  0
    0.2580    1.9000   -0.0070 C   0  0  0  0  0  0  0  0  0  0  0  0
    1.6950    1.7100   -0.3150 C   0  0  0  0  0  0  0  0  0  0  0  0
    2.3080    0.8270   -1.1800 C   0  0  0  0  0  0  0  0  0  0  0  0
    3.6540    1.0000   -1.1470 N   0  0  0  0  0  0  0  0  0  0  0  0
    3.8840    1.9870   -0.2640 C   0  0  0  0  0  0  0  0  0  0  0  0
    2.7150    2.4190    0.2410 N   0  0  0  0  0  0  0  0  0  0  0  0
   -1.5830    1.2940    1.5310 C   0  0  0  0  0  0  0  0  0  0  0  0
   -1.9080    2.4650    1.8450 O   0  0  0  0  0  0  0  0  0  0  0  0
   -0.4750   -0.8050    0.0380 H   0  0  0  0  0  0  0  0  0  0  0  0
    0.4440    1.3240    2.0260 H   0  0  0  0  0  0  0  0  0  0  0  0
   -0.3690    1.6880   -0.9150 H   0  0  0  0  0  0  0  0  0  0  0  0
    0.0760    2.9590    0.2630 H   0  0  0  0  0  0  0  0  0  0  0  0
    1.7540    0.1080   -1.7880 H   0  0  0  0  0  0  0  0  0  0  0  0
    4.3650    0.4590   -1.7080 H   0  0  0  0  0  0  0  0  0  0  0  0
    4.8770    2.3440   -0.0280 H   0  0  0  0  0  0  0  0  0  0  0  0
   -2.5510    0.2530    1.5280 N   0  0  0  0  0  0  0  0  0  0  0  0
   -3.9450    0.5090    1.8860 C   0  0  0  0  0  0  0  0  0  0  0  0
   -4.0460    1.0340    3.2760 C   0  0  0  0  0  0  0  0  0  0  0  0
   -5.1890    1.2940    3.7050 O   0  0  0  0  0  0  0  0  0  0  0  0
   -2.9460    1.2380    4.0870 O   0  0  0  0  0  0  0  0  0  0  0  0
   -2.2090   -0.6910    1.2570 H   0  0  0  0  0  0  0  0  0  0  0  0
   -4.3230    1.2370    1.1450 H   0  0  0  0  0  0  0  0  0  0  0  0
   -4.4800   -0.4600    1.8050 H   0  0  0  0  0  0  0  0  0  0  0  0
  1  5  1  0  0  0  0
  2  3  1  0  0  0  0
  2  1  1  0  0  0  0
  2  9  1  0  0  0  0
  3 12  1  0  0  0  0
  3  4  1  0  0  0  0
  4  5  1  0  0  0  0
  4 14  1  0  0  0  0
  5  6  1  0  0  0  0
  5 15  1  1  0  0  0
  6  7  2  0  0  0  0
  8  1  1  0  0  0  0
 10  2  1  0  0  0  0
 11  3  1  0  0  0  0
 13  4  1  0  0  0  0
 16 17  1  0  0  0  0
 16  6  1  0  0  0  0
 17 24  1  0  0  0  0
 17 27  1  1  0  0  0
 18 29  1  0  0  0  0
 18 17  1  0  0  0  0
 19 18  1  0  0  0  0
 19 23  1  0  0  0  0
 20 21  1  0  0  0  0
 20 19  2  0  0  0  0
 21 22  1  0  0  0  0
 22 32  1  0  0  0  0
 22 23  2  0  0  0  0
 24 25  2  0  0  0  0
 26 16  1  0  0  0  0
 28 18  1  0  0  0  0
 30 20  1  0  0  0  0
 31 21  1  0  0  0  0
 33 24  1  0  0  0  0
 33 34  1  0  0  0  0
 34 35  1  0  0  0  0
 35 36  2  0  0  0  0
 35 37  1  0  0  0  0
 38 33  1  0  0  0  0
 39 34  1  0  0  0  0
 40 34  1  0  0  0  0
M  END
$$$$
