PHI.pdb
 OpenBabel07022419043D

 52 53  0  0  1  0  0  0  0  0999 V2000
    2.3540   -2.4520    2.1200 N   0  0  0  0  0  0  0  0  0  0  0  0
    1.9960   -3.8260    1.8890 C   0  0  0  0  0  0  0  0  0  0  0  0
    2.6540   -4.2390    0.5900 C   0  0  0  0  0  0  0  0  0  0  0  0
    2.6790   -2.9290   -0.1780 C   0  0  0  0  0  0  0  0  0  0  0  0
    2.8630   -1.9160    0.9020 C   0  0  1  0  0  0  0  0  0  0  0  0
    2.1810   -0.6160    0.5980 C   0  0  0  0  0  0  0  0  0  0  0  0
    2.4770    0.0320   -0.4330 O   0  0  0  0  0  0  0  0  0  0  0  0
    2.9430   -2.3010    2.9560 H   0  0  0  0  0  0  0  0  0  0  0  0
    2.3370   -4.5000    2.6970 H   0  0  0  0  0  0  0  0  0  0  0  0
    0.8950   -3.8790    1.7700 H   0  0  0  0  0  0  0  0  0  0  0  0
    3.6650   -4.6600    0.7390 H   0  0  0  0  0  0  0  0  0  0  0  0
    1.9690   -4.9650    0.0880 H   0  0  0  0  0  0  0  0  0  0  0  0
    1.6800   -2.8580   -0.6850 H   0  0  0  0  0  0  0  0  0  0  0  0
    3.4940   -2.9100   -0.9390 H   0  0  0  0  0  0  0  0  0  0  0  0
    3.9660   -1.7400    1.0310 H   0  0  0  0  0  0  0  0  0  0  0  0
    1.1990   -0.1340    1.4920 N   0  0  0  0  0  0  0  0  0  0  0  0
    0.4580    1.0780    1.3910 C   0  0  1  0  0  0  0  0  0  0  0  0
    1.1220    2.2010    0.5930 C   0  0  0  0  0  0  0  0  0  0  0  0
    2.3910    2.6430    1.2010 C   0  0  0  0  0  0  0  0  0  0  0  0
    2.4220    3.6710    2.1640 C   0  0  0  0  0  0  0  0  0  0  0  0
    3.6800    3.8750    2.5510 N   0  0  0  0  0  0  0  0  0  0  0  0
    4.4650    3.0280    1.8840 C   0  0  0  0  0  0  0  0  0  0  0  0
    3.6690    2.3020    1.0830 N   0  0  0  0  0  0  0  0  0  0  0  0
   -0.9350    0.9440    0.9560 C   0  0  0  0  0  0  0  0  0  0  0  0
   -1.7030    1.9590    0.8270 O   0  0  0  0  0  0  0  0  0  0  0  0
    0.9860   -0.7590    2.3530 H   0  0  0  0  0  0  0  0  0  0  0  0
    0.5220    1.5210    2.4720 H   0  0  0  0  0  0  0  0  0  0  0  0
    1.2450    1.9060   -0.4570 H   0  0  0  0  0  0  0  0  0  0  0  0
    0.4140    3.0720    0.5650 H   0  0  0  0  0  0  0  0  0  0  0  0
    1.5340    4.2100    2.5280 H   0  0  0  0  0  0  0  0  0  0  0  0
    4.0030    4.5640    3.2450 H   0  0  0  0  0  0  0  0  0  0  0  0
    5.5620    2.9480    1.9820 H   0  0  0  0  0  0  0  0  0  0  0  0
   -5.2450   -2.2740   -1.1710 C   0  0  0  0  0  0  0  0  0  0  0  0
   -4.4880   -1.0890   -1.6100 C   0  0  0  0  0  0  0  0  0  0  0  0
   -3.0830   -0.9280   -1.1440 C   0  0  2  0  0  0  0  0  0  0  0  0
   -2.2580   -2.1240   -1.5570 C   0  0  0  0  0  0  0  0  0  0  0  0
   -2.9370   -0.4270    0.2120 C   0  0  2  0  0  0  0  0  0  0  0  0
   -1.5530   -0.2840    0.6450 N   0  0  0  0  0  0  0  0  0  0  0  0
   -3.6470   -1.0750    1.3130 C   0  0  0  0  0  0  0  0  0  0  0  0
   -4.8860   -1.2740    1.3980 O   0  0  0  0  0  0  0  0  0  0  0  0
   -2.9330   -1.5560    2.4350 O   0  0  0  0  0  0  0  0  0  0  0  0
   -4.7190   -3.0360   -0.5840 H   0  0  0  0  0  0  0  0  0  0  0  0
   -6.2480   -2.0290   -0.7670 H   0  0  0  0  0  0  0  0  0  0  0  0
   -5.5150   -2.8430   -2.1340 H   0  0  0  0  0  0  0  0  0  0  0  0
   -5.0380   -0.1660   -1.2370 H   0  0  0  0  0  0  0  0  0  0  0  0
   -4.5380   -0.9470   -2.7340 H   0  0  0  0  0  0  0  0  0  0  0  0
   -2.7300   -0.0300   -1.8170 H   0  0  0  0  0  0  0  0  0  0  0  0
   -1.5840   -1.8770   -2.4270 H   0  0  0  0  0  0  0  0  0  0  0  0
   -1.6330   -2.5210   -0.7360 H   0  0  0  0  0  0  0  0  0  0  0  0
   -2.8780   -2.9730   -1.9150 H   0  0  0  0  0  0  0  0  0  0  0  0
   -3.3270    0.6440    0.2030 H   0  0  0  0  0  0  0  0  0  0  0  0
   -1.0150   -1.1730    0.7180 H   0  0  0  0  0  0  0  0  0  0  0  0
  1  8  1  0  0  0  0
  2  1  1  0  0  0  0
  2  9  1  0  0  0  0
  3 11  1  0  0  0  0
  3  2  1  0  0  0  0
  4  3  1  0  0  0  0
  4  5  1  0  0  0  0
  5 15  1  1  0  0  0
  5  1  1  0  0  0  0
  6  5  1  0  0  0  0
  6 16  1  0  0  0  0
  7  6  2  0  0  0  0
 10  2  1  0  0  0  0
 12  3  1  0  0  0  0
 13  4  1  0  0  0  0
 14  4  1  0  0  0  0
 16 26  1  0  0  0  0
 17 16  1  0  0  0  0
 17 27  1  1  0  0  0
 18 19  1  0  0  0  0
 18 17  1  0  0  0  0
 19 20  2  0  0  0  0
 20 30  1  0  0  0  0
 20 21  1  0  0  0  0
 21 31  1  0  0  0  0
 22 32  1  0  0  0  0
 22 21  1  0  0  0  0
 23 19  1  0  0  0  0
 23 22  2  0  0  0  0
 24 17  1  0  0  0  0
 25 24  2  0  0  0  0
 28 18  1  0  0  0  0
 29 18  1  0  0  0  0
 33 43  1  0  0  0  0
 33 42  1  0  0  0  0
 34 45  1  0  0  0  0
 34 33  1  0  0  0  0
 34 35  1  0  0  0  0
 35 47  1  6  0  0  0
 35 37  1  0  0  0  0
 36 35  1  0  0  0  0
 36 49  1  0  0  0  0
 37 51  1  6  0  0  0
 37 38  1  0  0  0  0
 37 39  1  0  0  0  0
 38 52  1  0  0  0  0
 38 24  1  0  0  0  0
 39 40  2  0  0  0  0
 39 41  1  0  0  0  0
 44 33  1  0  0  0  0
 46 34  1  0  0  0  0
 48 36  1  0  0  0  0
 50 36  1  0  0  0  0
M  END
$$$$
