PHL.pdb
 OpenBabel07022419043D

 52 53  0  0  1  0  0  0  0  0999 V2000
    2.5500   -3.2130    2.6600 N   0  0  0  0  0  0  0  0  0  0  0  0
    1.2970   -3.8710    2.8270 C   0  0  0  0  0  0  0  0  0  0  0  0
    1.1650   -4.6290    1.5000 C   0  0  0  0  0  0  0  0  0  0  0  0
    1.7590   -3.6520    0.5300 C   0  0  0  0  0  0  0  0  0  0  0  0
    2.6030   -2.6790    1.3470 C   0  0  1  0  0  0  0  0  0  0  0  0
    2.0410   -1.3020    1.2190 C   0  0  0  0  0  0  0  0  0  0  0  0
    2.0330   -0.7290    0.1170 O   0  0  0  0  0  0  0  0  0  0  0  0
    2.8910   -2.6380    3.4300 H   0  0  0  0  0  0  0  0  0  0  0  0
    0.4190   -3.2330    2.9020 H   0  0  0  0  0  0  0  0  0  0  0  0
    1.2960   -4.5650    3.6850 H   0  0  0  0  0  0  0  0  0  0  0  0
    1.7100   -5.5900    1.5350 H   0  0  0  0  0  0  0  0  0  0  0  0
    0.0890   -4.8260    1.3210 H   0  0  0  0  0  0  0  0  0  0  0  0
    2.3410   -4.1390   -0.2710 H   0  0  0  0  0  0  0  0  0  0  0  0
    0.9290   -3.1110    0.0460 H   0  0  0  0  0  0  0  0  0  0  0  0
    3.6200   -2.6640    0.8950 H   0  0  0  0  0  0  0  0  0  0  0  0
    1.5250   -0.6640    2.3500 N   0  0  0  0  0  0  0  0  0  0  0  0
    0.9630    0.6940    2.2830 C   0  0  1  0  0  0  0  0  0  0  0  0
    1.9850    1.6790    1.8580 C   0  0  0  0  0  0  0  0  0  0  0  0
    1.5650    3.0840    1.8660 C   0  0  0  0  0  0  0  0  0  0  0  0
    0.4550    3.6990    2.3360 C   0  0  0  0  0  0  0  0  0  0  0  0
    0.5990    5.0130    2.1620 N   0  0  0  0  0  0  0  0  0  0  0  0
    1.7800    5.2530    1.5920 C   0  0  0  0  0  0  0  0  0  0  0  0
    2.3860    4.0780    1.4040 N   0  0  0  0  0  0  0  0  0  0  0  0
   -0.2150    0.6530    1.3560 C   0  0  0  0  0  0  0  0  0  0  0  0
   -0.7630    1.6730    0.8950 O   0  0  0  0  0  0  0  0  0  0  0  0
    1.5240   -1.1390    3.2810 H   0  0  0  0  0  0  0  0  0  0  0  0
    0.5820    0.9380    3.2790 H   0  0  0  0  0  0  0  0  0  0  0  0
    2.3760    1.3950    0.8520 H   0  0  0  0  0  0  0  0  0  0  0  0
    2.9060    1.6430    2.5250 H   0  0  0  0  0  0  0  0  0  0  0  0
   -0.4090    3.2760    2.8050 H   0  0  0  0  0  0  0  0  0  0  0  0
   -0.0750    5.7880    2.4140 H   0  0  0  0  0  0  0  0  0  0  0  0
    2.1980    6.2440    1.3170 H   0  0  0  0  0  0  0  0  0  0  0  0
   -2.0350   -2.2440   -3.4330 C   0  0  0  0  0  0  0  0  0  0  0  0
   -2.6220   -1.5430   -2.1980 C   0  0  0  0  0  0  0  0  0  0  0  0
   -3.2180   -0.2620   -2.6660 C   0  0  0  0  0  0  0  0  0  0  0  0
   -1.5140   -1.4020   -1.2220 C   0  0  0  0  0  0  0  0  0  0  0  0
   -1.9000   -0.7280    0.0650 C   0  0  2  0  0  0  0  0  0  0  0  0
   -0.7540   -0.6270    0.9710 N   0  0  0  0  0  0  0  0  0  0  0  0
   -3.0270   -1.3360    0.7660 C   0  0  0  0  0  0  0  0  0  0  0  0
   -2.8910   -1.6820    1.9680 O   0  0  0  0  0  0  0  0  0  0  0  0
   -4.2700   -1.5730    0.2070 O   0  0  0  0  0  0  0  0  0  0  0  0
   -2.8530   -2.7280   -3.9760 H   0  0  0  0  0  0  0  0  0  0  0  0
   -1.5920   -1.4330   -4.0800 H   0  0  0  0  0  0  0  0  0  0  0  0
   -1.2580   -2.9650   -3.1660 H   0  0  0  0  0  0  0  0  0  0  0  0
   -3.4060   -2.2700   -1.8380 H   0  0  0  0  0  0  0  0  0  0  0  0
   -3.1170    0.5830   -1.9860 H   0  0  0  0  0  0  0  0  0  0  0  0
   -4.2870   -0.4700   -2.9450 H   0  0  0  0  0  0  0  0  0  0  0  0
   -2.7480    0.0650   -3.6400 H   0  0  0  0  0  0  0  0  0  0  0  0
   -0.6850   -0.8380   -1.6780 H   0  0  0  0  0  0  0  0  0  0  0  0
   -1.1180   -2.4150   -0.9960 H   0  0  0  0  0  0  0  0  0  0  0  0
   -2.1810    0.3160   -0.1920 H   0  0  0  0  0  0  0  0  0  0  0  0
   -0.3120   -1.4740    1.3670 H   0  0  0  0  0  0  0  0  0  0  0  0
  1  2  1  0  0  0  0
  1  8  1  0  0  0  0
  2  9  1  0  0  0  0
  2 10  1  0  0  0  0
  3 11  1  0  0  0  0
  3  2  1  0  0  0  0
  4  5  1  0  0  0  0
  4  3  1  0  0  0  0
  5 15  1  6  0  0  0
  5  1  1  0  0  0  0
  6  5  1  0  0  0  0
  6 16  1  0  0  0  0
  7  6  2  0  0  0  0
 12  3  1  0  0  0  0
 13  4  1  0  0  0  0
 14  4  1  0  0  0  0
 16 26  1  0  0  0  0
 17 16  1  0  0  0  0
 17 27  1  1  0  0  0
 18 19  1  0  0  0  0
 18 17  1  0  0  0  0
 18 29  1  0  0  0  0
 19 20  2  0  0  0  0
 20 30  1  0  0  0  0
 21 20  1  0  0  0  0
 21 31  1  0  0  0  0
 22 21  1  0  0  0  0
 23 22  2  0  0  0  0
 23 19  1  0  0  0  0
 24 17  1  0  0  0  0
 25 24  2  0  0  0  0
 28 18  1  0  0  0  0
 32 22  1  0  0  0  0
 33 44  1  0  0  0  0
 33 34  1  0  0  0  0
 34 45  1  0  0  0  0
 34 36  1  0  0  0  0
 35 34  1  0  0  0  0
 35 46  1  0  0  0  0
 36 50  1  0  0  0  0
 36 37  1  0  0  0  0
 37 51  1  6  0  0  0
 37 39  1  0  0  0  0
 37 38  1  0  0  0  0
 38 24  1  0  0  0  0
 38 52  1  0  0  0  0
 39 40  1  0  0  0  0
 41 39  2  0  0  0  0
 42 33  1  0  0  0  0
 43 33  1  0  0  0  0
 47 35  1  0  0  0  0
 48 35  1  0  0  0  0
 49 36  1  0  0  0  0
M  END
$$$$
