PHM.pdb
 OpenBabel07022419043D

 50 51  0  0  1  0  0  0  0  0999 V2000
    4.4020   -1.3280    0.2270 N   0  0  0  0  0  0  0  0  0  0  0  0
    4.5690   -1.6120    1.6160 C   0  0  0  0  0  0  0  0  0  0  0  0
    3.9970   -2.9920    1.8700 C   0  0  0  0  0  0  0  0  0  0  0  0
    4.1090   -3.5890    0.4730 C   0  0  0  0  0  0  0  0  0  0  0  0
    3.6420   -2.4110   -0.3580 C   0  0  1  0  0  0  0  0  0  0  0  0
    2.1840   -2.2680   -0.1310 C   0  0  0  0  0  0  0  0  0  0  0  0
    1.4310   -3.1810   -0.5900 O   0  0  0  0  0  0  0  0  0  0  0  0
    4.0050   -0.3950    0.0900 H   0  0  0  0  0  0  0  0  0  0  0  0
    5.6310   -1.6480    1.9360 H   0  0  0  0  0  0  0  0  0  0  0  0
    4.0710   -0.8840    2.2840 H   0  0  0  0  0  0  0  0  0  0  0  0
    2.9250   -2.9180    2.1330 H   0  0  0  0  0  0  0  0  0  0  0  0
    4.5430   -3.5650    2.6170 H   0  0  0  0  0  0  0  0  0  0  0  0
    3.4570   -4.4770    0.3590 H   0  0  0  0  0  0  0  0  0  0  0  0
    5.1810   -3.8200    0.3150 H   0  0  0  0  0  0  0  0  0  0  0  0
    3.8820   -2.5490   -1.4350 H   0  0  0  0  0  0  0  0  0  0  0  0
    1.5600   -1.2130    0.5460 N   0  0  0  0  0  0  0  0  0  0  0  0
    0.1100   -1.1140    0.7490 C   0  0  1  0  0  0  0  0  0  0  0  0
   -0.2200   -1.2090    2.1980 C   0  0  0  0  0  0  0  0  0  0  0  0
    0.3750   -0.1890    3.0520 C   0  0  0  0  0  0  0  0  0  0  0  0
   -0.1620    1.0280    3.3840 C   0  0  0  0  0  0  0  0  0  0  0  0
    0.7000    1.6950    4.2060 N   0  0  0  0  0  0  0  0  0  0  0  0
    1.7460    0.8770    4.3620 C   0  0  0  0  0  0  0  0  0  0  0  0
    1.5630   -0.2620    3.6710 N   0  0  0  0  0  0  0  0  0  0  0  0
   -0.4650    0.0200    0.0260 C   0  0  0  0  0  0  0  0  0  0  0  0
    0.2880    0.7940   -0.6490 O   0  0  0  0  0  0  0  0  0  0  0  0
    2.1490   -0.4530    0.9290 H   0  0  0  0  0  0  0  0  0  0  0  0
   -0.3020   -2.0540    0.2720 H   0  0  0  0  0  0  0  0  0  0  0  0
   -1.3490   -1.2250    2.2680 H   0  0  0  0  0  0  0  0  0  0  0  0
    0.0600   -2.2570    2.5190 H   0  0  0  0  0  0  0  0  0  0  0  0
   -1.1050    1.4660    3.0900 H   0  0  0  0  0  0  0  0  0  0  0  0
    0.6060    2.6270    4.6360 H   0  0  0  0  0  0  0  0  0  0  0  0
    2.6290    1.0810    4.9560 H   0  0  0  0  0  0  0  0  0  0  0  0
   -3.3840   -2.4190   -2.0180 C   0  0  0  0  0  0  0  0  0  0  0  0
   -4.2090   -1.3080   -0.8660 S   0  0  0  0  0  0  0  0  0  0  0  0
   -4.4940    0.3240   -1.5710 C   0  0  0  0  0  0  0  0  0  0  0  0
   -3.2750    1.1060   -1.8570 C   0  0  0  0  0  0  0  0  0  0  0  0
   -2.3900    1.4410   -0.6960 C   0  0  2  0  0  0  0  0  0  0  0  0
   -1.8510    0.3310    0.0210 N   0  0  0  0  0  0  0  0  0  0  0  0
   -3.1730    2.2870    0.2310 C   0  0  0  0  0  0  0  0  0  0  0  0
   -3.7170    3.3250   -0.2130 O   0  0  0  0  0  0  0  0  0  0  0  0
   -3.3140    1.9570    1.5630 O   0  0  0  0  0  0  0  0  0  0  0  0
   -3.3440   -3.4280   -1.5450 H   0  0  0  0  0  0  0  0  0  0  0  0
   -2.3550   -2.0410   -2.1870 H   0  0  0  0  0  0  0  0  0  0  0  0
   -3.9700   -2.4660   -2.9720 H   0  0  0  0  0  0  0  0  0  0  0  0
   -5.0720    0.1630   -2.5300 H   0  0  0  0  0  0  0  0  0  0  0  0
   -5.2250    0.8340   -0.9110 H   0  0  0  0  0  0  0  0  0  0  0  0
   -3.5490    2.0420   -2.3930 H   0  0  0  0  0  0  0  0  0  0  0  0
   -2.6620    0.5390   -2.6220 H   0  0  0  0  0  0  0  0  0  0  0  0
   -1.5470    2.0820   -1.0990 H   0  0  0  0  0  0  0  0  0  0  0  0
   -2.4750   -0.2780    0.5750 H   0  0  0  0  0  0  0  0  0  0  0  0
  1  2  1  0  0  0  0
  2  3  1  0  0  0  0
  2  9  1  0  0  0  0
  2 10  1  0  0  0  0
  3 11  1  0  0  0  0
  3 12  1  0  0  0  0
  4  3  1  0  0  0  0
  5 15  1  6  0  0  0
  5  6  1  0  0  0  0
  5  1  1  0  0  0  0
  5  4  1  0  0  0  0
  6 16  1  0  0  0  0
  7  6  2  0  0  0  0
  8  1  1  0  0  0  0
 13  4  1  0  0  0  0
 14  4  1  0  0  0  0
 16 17  1  0  0  0  0
 16 26  1  0  0  0  0
 17 27  1  6  0  0  0
 17 18  1  0  0  0  0
 18 28  1  0  0  0  0
 18 29  1  0  0  0  0
 18 19  1  0  0  0  0
 19 20  2  0  0  0  0
 19 23  1  0  0  0  0
 20 21  1  0  0  0  0
 21 22  1  0  0  0  0
 21 31  1  0  0  0  0
 22 32  1  0  0  0  0
 23 22  2  0  0  0  0
 24 17  1  0  0  0  0
 25 24  2  0  0  0  0
 30 20  1  0  0  0  0
 33 42  1  0  0  0  0
 33 34  1  0  0  0  0
 35 46  1  0  0  0  0
 35 34  1  0  0  0  0
 36 35  1  0  0  0  0
 36 37  1  0  0  0  0
 37 49  1  6  0  0  0
 37 38  1  0  0  0  0
 37 39  1  0  0  0  0
 38 24  1  0  0  0  0
 38 50  1  0  0  0  0
 39 41  1  0  0  0  0
 40 39  2  0  0  0  0
 43 33  1  0  0  0  0
 44 33  1  0  0  0  0
 45 35  1  0  0  0  0
 47 36  1  0  0  0  0
 48 36  1  0  0  0  0
M  END
$$$$
