PHN.pdb
 OpenBabel07022419043D

 47 48  0  0  1  0  0  0  0  0999 V2000
    3.0590   -2.9410    1.9470 N   0  0  0  0  0  0  0  0  0  0  0  0
    3.0260   -2.7940    3.3680 C   0  0  0  0  0  0  0  0  0  0  0  0
    2.6520   -4.1830    3.8370 C   0  0  0  0  0  0  0  0  0  0  0  0
    1.6680   -4.6360    2.7960 C   0  0  0  0  0  0  0  0  0  0  0  0
    1.9730   -3.7780    1.5580 C   0  0  1  0  0  0  0  0  0  0  0  0
    0.7470   -3.0200    1.2130 C   0  0  0  0  0  0  0  0  0  0  0  0
   -0.3100   -3.6210    0.8330 O   0  0  0  0  0  0  0  0  0  0  0  0
    3.2500   -2.1150    1.3890 H   0  0  0  0  0  0  0  0  0  0  0  0
    4.0030   -2.4630    3.7660 H   0  0  0  0  0  0  0  0  0  0  0  0
    2.2630   -2.1000    3.7430 H   0  0  0  0  0  0  0  0  0  0  0  0
    3.5590   -4.7990    3.8860 H   0  0  0  0  0  0  0  0  0  0  0  0
    2.1890   -4.1210    4.8560 H   0  0  0  0  0  0  0  0  0  0  0  0
    1.7110   -5.7070    2.5700 H   0  0  0  0  0  0  0  0  0  0  0  0
    0.6260   -4.4260    3.1630 H   0  0  0  0  0  0  0  0  0  0  0  0
    2.2350   -4.4890    0.7370 H   0  0  0  0  0  0  0  0  0  0  0  0
    0.6690   -1.6090    1.2800 N   0  0  0  0  0  0  0  0  0  0  0  0
   -0.5480   -0.8610    0.9370 C   0  0  1  0  0  0  0  0  0  0  0  0
   -1.1320   -0.1960    2.1430 C   0  0  0  0  0  0  0  0  0  0  0  0
   -0.2510    0.7570    2.8190 C   0  0  0  0  0  0  0  0  0  0  0  0
   -0.1380    2.1030    2.5790 C   0  0  0  0  0  0  0  0  0  0  0  0
    0.7870    2.6160    3.4220 N   0  0  0  0  0  0  0  0  0  0  0  0
    1.2450    1.6240    4.1720 C   0  0  0  0  0  0  0  0  0  0  0  0
    0.6210    0.5060    3.8100 N   0  0  0  0  0  0  0  0  0  0  0  0
   -0.3650   -0.0210   -0.2400 C   0  0  0  0  0  0  0  0  0  0  0  0
    0.7410    0.0800   -0.8570 O   0  0  0  0  0  0  0  0  0  0  0  0
    1.5200   -1.0870    1.5900 H   0  0  0  0  0  0  0  0  0  0  0  0
   -1.2970   -1.6560    0.6420 H   0  0  0  0  0  0  0  0  0  0  0  0
   -2.0940    0.2970    1.8490 H   0  0  0  0  0  0  0  0  0  0  0  0
   -1.4650   -1.0310    2.8300 H   0  0  0  0  0  0  0  0  0  0  0  0
   -0.7140    2.6440    1.8270 H   0  0  0  0  0  0  0  0  0  0  0  0
    1.0260    3.6350    3.4030 H   0  0  0  0  0  0  0  0  0  0  0  0
    2.0140    1.7680    4.9480 H   0  0  0  0  0  0  0  0  0  0  0  0
   -2.8810   -0.7070   -4.5590 N   0  0  0  0  0  0  0  0  0  0  0  0
   -2.0510   -0.2070   -3.5220 C   0  0  0  0  0  0  0  0  0  0  0  0
   -1.1600   -0.9290   -3.0550 O   0  0  0  0  0  0  0  0  0  0  0  0
   -2.2670    1.1580   -3.0270 C   0  0  0  0  0  0  0  0  0  0  0  0
   -1.3390    1.5900   -1.9360 C   0  0  2  0  0  0  0  0  0  0  0  0
   -1.4440    0.7410   -0.7670 N   0  0  0  0  0  0  0  0  0  0  0  0
   -1.6280    3.0090   -1.6480 C   0  0  0  0  0  0  0  0  0  0  0  0
   -1.9370    3.3570   -0.4990 O   0  0  0  0  0  0  0  0  0  0  0  0
   -1.5510    3.9360   -2.6640 O   0  0  0  0  0  0  0  0  0  0  0  0
   -3.8020   -0.2680   -4.7520 H   0  0  0  0  0  0  0  0  0  0  0  0
   -2.5770   -1.5160   -5.1330 H   0  0  0  0  0  0  0  0  0  0  0  0
   -2.0920    1.8550   -3.8930 H   0  0  0  0  0  0  0  0  0  0  0  0
   -3.3270    1.3350   -2.7340 H   0  0  0  0  0  0  0  0  0  0  0  0
   -0.2960    1.4870   -2.3050 H   0  0  0  0  0  0  0  0  0  0  0  0
   -2.3790    0.6900   -0.2810 H   0  0  0  0  0  0  0  0  0  0  0  0
  1  2  1  0  0  0  0
  2 10  1  0  0  0  0
  2  9  1  0  0  0  0
  2  3  1  0  0  0  0
  3 11  1  0  0  0  0
  3 12  1  0  0  0  0
  4 14  1  0  0  0  0
  4  3  1  0  0  0  0
  5 15  1  6  0  0  0
  5  1  1  0  0  0  0
  5  4  1  0  0  0  0
  6 16  1  0  0  0  0
  6  5  1  0  0  0  0
  7  6  2  0  0  0  0
  8  1  1  0  0  0  0
 13  4  1  0  0  0  0
 16 26  1  0  0  0  0
 17 27  1  6  0  0  0
 17 16  1  0  0  0  0
 17 18  1  0  0  0  0
 18 19  1  0  0  0  0
 18 29  1  0  0  0  0
 19 23  1  0  0  0  0
 20 19  2  0  0  0  0
 20 21  1  0  0  0  0
 21 22  1  0  0  0  0
 22 32  1  0  0  0  0
 23 22  2  0  0  0  0
 24 17  1  0  0  0  0
 25 24  2  0  0  0  0
 28 18  1  0  0  0  0
 30 20  1  0  0  0  0
 31 21  1  0  0  0  0
 33 34  1  0  0  0  0
 34 35  2  0  0  0  0
 34 36  1  0  0  0  0
 36 45  1  0  0  0  0
 36 37  1  0  0  0  0
 37 46  1  6  0  0  0
 37 39  1  0  0  0  0
 37 38  1  0  0  0  0
 38 47  1  0  0  0  0
 38 24  1  0  0  0  0
 39 40  1  0  0  0  0
 41 39  2  0  0  0  0
 42 33  1  0  0  0  0
 43 33  1  0  0  0  0
 44 36  1  0  0  0  0
M  END
$$$$
