PHP.pdb
 OpenBabel07022419043D

 47 49  0  0  1  0  0  0  0  0999 V2000
    2.8620   -3.8900   -0.0480 N   0  0  0  0  0  0  0  0  0  0  0  0
    1.9230   -4.7940    0.5760 C   0  0  0  0  0  0  0  0  0  0  0  0
    0.6160   -4.6520   -0.1280 C   0  0  0  0  0  0  0  0  0  0  0  0
    0.8480   -3.5220   -1.1140 C   0  0  0  0  0  0  0  0  0  0  0  0
    2.0660   -2.8260   -0.6570 C   0  0  1  0  0  0  0  0  0  0  0  0
    1.9520   -1.6560    0.1760 C   0  0  0  0  0  0  0  0  0  0  0  0
    2.5120   -1.6410    1.3090 O   0  0  0  0  0  0  0  0  0  0  0  0
    3.5660   -3.5100    0.6220 H   0  0  0  0  0  0  0  0  0  0  0  0
    2.2590   -5.8580    0.4740 H   0  0  0  0  0  0  0  0  0  0  0  0
    1.8160   -4.5830    1.6790 H   0  0  0  0  0  0  0  0  0  0  0  0
   -0.1870   -4.3910    0.5910 H   0  0  0  0  0  0  0  0  0  0  0  0
    0.3330   -5.5790   -0.6690 H   0  0  0  0  0  0  0  0  0  0  0  0
    1.0260   -4.0040   -2.1260 H   0  0  0  0  0  0  0  0  0  0  0  0
   -0.0650   -2.9630   -1.2260 H   0  0  0  0  0  0  0  0  0  0  0  0
    2.6460   -2.5240   -1.5810 H   0  0  0  0  0  0  0  0  0  0  0  0
    1.2380   -0.4980   -0.2070 N   0  0  0  0  0  0  0  0  0  0  0  0
    1.1170    0.6780    0.5770 C   0  0  1  0  0  0  0  0  0  0  0  0
    1.6090    1.9110   -0.1320 C   0  0  0  0  0  0  0  0  0  0  0  0
    1.4870    3.1200    0.6650 C   0  0  0  0  0  0  0  0  0  0  0  0
    0.4690    4.0560    0.7550 C   0  0  0  0  0  0  0  0  0  0  0  0
    0.8660    4.9950    1.6290 N   0  0  0  0  0  0  0  0  0  0  0  0
    2.0910    4.7000    2.0990 C   0  0  0  0  0  0  0  0  0  0  0  0
    2.4600    3.5690    1.5140 N   0  0  0  0  0  0  0  0  0  0  0  0
   -0.1840    0.8040    1.2230 C   0  0  0  0  0  0  0  0  0  0  0  0
   -0.3220    1.8170    2.0430 O   0  0  0  0  0  0  0  0  0  0  0  0
    0.8030   -0.5360   -1.1520 H   0  0  0  0  0  0  0  0  0  0  0  0
    1.8940    0.5310    1.4190 H   0  0  0  0  0  0  0  0  0  0  0  0
    1.1040    2.0790   -1.1040 H   0  0  0  0  0  0  0  0  0  0  0  0
    2.6850    1.7400   -0.3600 H   0  0  0  0  0  0  0  0  0  0  0  0
   -0.4720    4.0030    0.2000 H   0  0  0  0  0  0  0  0  0  0  0  0
    0.2700    5.8390    1.8880 H   0  0  0  0  0  0  0  0  0  0  0  0
    2.6400    5.3070    2.8250 H   0  0  0  0  0  0  0  0  0  0  0  0
   -1.3460   -0.0030    1.1120 N   0  0  0  0  0  0  0  0  0  0  0  0
   -1.6560   -1.1530    0.3190 C   0  0  0  0  0  0  0  0  0  0  0  0
   -3.1760   -1.2220    0.2460 C   0  0  0  0  0  0  0  0  0  0  0  0
   -3.6420    0.0790    0.8830 C   0  0  0  0  0  0  0  0  0  0  0  0
   -2.5610    0.2250    1.9330 C   0  0  1  0  0  0  0  0  0  0  0  0
   -2.7350   -0.9060    2.8900 C   0  0  0  0  0  0  0  0  0  0  0  0
   -3.7320   -0.8410    3.6510 O   0  0  0  0  0  0  0  0  0  0  0  0
   -1.8950   -1.9790    2.9830 O   0  0  0  0  0  0  0  0  0  0  0  0
   -1.2360   -2.0890    0.7260 H   0  0  0  0  0  0  0  0  0  0  0  0
   -1.3540   -1.0410   -0.7470 H   0  0  0  0  0  0  0  0  0  0  0  0
   -3.5160   -2.1040    0.8020 H   0  0  0  0  0  0  0  0  0  0  0  0
   -3.5740   -1.2810   -0.7670 H   0  0  0  0  0  0  0  0  0  0  0  0
   -3.5860    0.9040    0.1710 H   0  0  0  0  0  0  0  0  0  0  0  0
   -4.6530   -0.0560    1.3360 H   0  0  0  0  0  0  0  0  0  0  0  0
   -2.5420    1.2030    2.4130 H   0  0  0  0  0  0  0  0  0  0  0  0
  1  2  1  0  0  0  0
  1  8  1  0  0  0  0
  2 10  1  0  0  0  0
  3  2  1  0  0  0  0
  3 11  1  0  0  0  0
  4  5  1  0  0  0  0
  4  3  1  0  0  0  0
  5 15  1  6  0  0  0
  5  1  1  0  0  0  0
  5  6  1  0  0  0  0
  6  7  2  0  0  0  0
  9  2  1  0  0  0  0
 12  3  1  0  0  0  0
 13  4  1  0  0  0  0
 14  4  1  0  0  0  0
 16  6  1  0  0  0  0
 16 17  1  0  0  0  0
 17 24  1  0  0  0  0
 17 27  1  1  0  0  0
 18 17  1  0  0  0  0
 18 19  1  0  0  0  0
 19 20  2  0  0  0  0
 19 23  1  0  0  0  0
 20 21  1  0  0  0  0
 21 31  1  0  0  0  0
 21 22  1  0  0  0  0
 22 32  1  0  0  0  0
 23 22  2  0  0  0  0
 24 25  2  0  0  0  0
 26 16  1  0  0  0  0
 28 18  1  0  0  0  0
 29 18  1  0  0  0  0
 30 20  1  0  0  0  0
 33 24  1  0  0  0  0
 33 37  1  0  0  0  0
 34 41  1  0  0  0  0
 34 33  1  0  0  0  0
 35 34  1  0  0  0  0
 35 43  1  0  0  0  0
 35 36  1  0  0  0  0
 36 46  1  0  0  0  0
 36 37  1  0  0  0  0
 37 47  1  1  0  0  0
 37 38  1  0  0  0  0
 38 40  2  0  0  0  0
 38 39  1  0  0  0  0
 42 34  1  0  0  0  0
 44 35  1  0  0  0  0
 45 36  1  0  0  0  0
M  END
$$$$
