PHS.pdb
 OpenBabel07022419043D

 44 45  0  0  1  0  0  0  0  0999 V2000
    1.8340   -3.5050   -2.0850 N   0  0  0  0  0  0  0  0  0  0  0  0
    1.4420   -4.9430   -2.0770 C   0  0  0  0  0  0  0  0  0  0  0  0
    2.0180   -5.3780   -0.7120 C   0  0  0  0  0  0  0  0  0  0  0  0
    1.9890   -4.1070    0.1030 C   0  0  0  0  0  0  0  0  0  0  0  0
    1.2100   -3.1560   -0.8050 C   0  0  1  0  0  0  0  0  0  0  0  0
    1.4390   -1.7590   -0.4380 C   0  0  0  0  0  0  0  0  0  0  0  0
    2.4160   -1.1400   -0.9420 O   0  0  0  0  0  0  0  0  0  0  0  0
    1.3670   -3.0250   -2.8890 H   0  0  0  0  0  0  0  0  0  0  0  0
    0.3510   -4.9700   -2.0690 H   0  0  0  0  0  0  0  0  0  0  0  0
    1.8460   -5.4990   -2.9170 H   0  0  0  0  0  0  0  0  0  0  0  0
    3.0460   -5.7830   -0.8750 H   0  0  0  0  0  0  0  0  0  0  0  0
    1.3440   -6.1090   -0.2210 H   0  0  0  0  0  0  0  0  0  0  0  0
    1.5030   -4.2310    1.0870 H   0  0  0  0  0  0  0  0  0  0  0  0
    3.0240   -3.7180    0.1580 H   0  0  0  0  0  0  0  0  0  0  0  0
    0.1660   -3.4850   -0.8360 H   0  0  0  0  0  0  0  0  0  0  0  0
    0.6130   -1.0190    0.4660 N   0  0  0  0  0  0  0  0  0  0  0  0
    0.9390    0.3740    0.7810 C   0  0  1  0  0  0  0  0  0  0  0  0
    0.4520    1.2190   -0.4230 C   0  0  0  0  0  0  0  0  0  0  0  0
    0.8530    2.6310   -0.2990 C   0  0  0  0  0  0  0  0  0  0  0  0
    1.7280    3.2440    0.5640 C   0  0  0  0  0  0  0  0  0  0  0  0
    1.8510    4.5390    0.2430 N   0  0  0  0  0  0  0  0  0  0  0  0
    1.0720    4.7730   -0.8140 C   0  0  0  0  0  0  0  0  0  0  0  0
    0.4680    3.6390   -1.1480 N   0  0  0  0  0  0  0  0  0  0  0  0
    0.1610    0.8590    1.9120 C   0  0  0  0  0  0  0  0  0  0  0  0
    0.3820    1.9390    2.5620 O   0  0  0  0  0  0  0  0  0  0  0  0
   -0.1880   -1.5080    0.8550 H   0  0  0  0  0  0  0  0  0  0  0  0
    1.9900    0.5060    0.8280 H   0  0  0  0  0  0  0  0  0  0  0  0
   -0.6650    1.1930   -0.4280 H   0  0  0  0  0  0  0  0  0  0  0  0
    0.7620    0.7420   -1.3750 H   0  0  0  0  0  0  0  0  0  0  0  0
    2.3100    2.8090    1.3750 H   0  0  0  0  0  0  0  0  0  0  0  0
    2.4480    5.2890    0.7120 H   0  0  0  0  0  0  0  0  0  0  0  0
    0.9270    5.7240   -1.3440 H   0  0  0  0  0  0  0  0  0  0  0  0
   -3.6610    0.0310    2.3510 O   0  0  0  0  0  0  0  0  0  0  0  0
   -3.0790    1.1540    2.9230 C   0  0  0  0  0  0  0  0  0  0  0  0
   -1.7550    0.6960    3.5650 C   0  0  2  0  0  0  0  0  0  0  0  0
   -0.9920    0.1540    2.4290 N   0  0  0  0  0  0  0  0  0  0  0  0
   -2.0110   -0.2770    4.6090 C   0  0  0  0  0  0  0  0  0  0  0  0
   -2.6900    0.0950    5.6280 O   0  0  0  0  0  0  0  0  0  0  0  0
   -1.6030   -1.5990    4.6360 O   0  0  0  0  0  0  0  0  0  0  0  0
   -3.6330    0.0220    1.3630 H   0  0  0  0  0  0  0  0  0  0  0  0
   -2.8220    1.8550    2.1050 H   0  0  0  0  0  0  0  0  0  0  0  0
   -3.7340    1.6070    3.7060 H   0  0  0  0  0  0  0  0  0  0  0  0
   -1.2790    1.6370    3.9320 H   0  0  0  0  0  0  0  0  0  0  0  0
   -1.3150   -0.7320    2.0120 H   0  0  0  0  0  0  0  0  0  0  0  0
  1  2  1  0  0  0  0
  1  5  1  0  0  0  0
  2  9  1  0  0  0  0
  2  3  1  0  0  0  0
  3 12  1  0  0  0  0
  3  4  1  0  0  0  0
  4 14  1  0  0  0  0
  4 13  1  0  0  0  0
  5 15  1  6  0  0  0
  5  6  1  0  0  0  0
  5  4  1  0  0  0  0
  6 16  1  0  0  0  0
  7  6  2  0  0  0  0
  8  1  1  0  0  0  0
 10  2  1  0  0  0  0
 11  3  1  0  0  0  0
 16 17  1  0  0  0  0
 16 26  1  0  0  0  0
 17 27  1  1  0  0  0
 17 24  1  0  0  0  0
 18 19  1  0  0  0  0
 18 17  1  0  0  0  0
 19 20  2  0  0  0  0
 20 30  1  0  0  0  0
 21 20  1  0  0  0  0
 21 31  1  0  0  0  0
 22 21  1  0  0  0  0
 23 22  2  0  0  0  0
 23 19  1  0  0  0  0
 24 36  1  0  0  0  0
 24 25  2  0  0  0  0
 28 18  1  0  0  0  0
 29 18  1  0  0  0  0
 32 22  1  0  0  0  0
 33 34  1  0  0  0  0
 34 35  1  0  0  0  0
 34 42  1  0  0  0  0
 35 43  1  1  0  0  0
 35 37  1  0  0  0  0
 36 35  1  0  0  0  0
 37 39  2  0  0  0  0
 37 38  1  0  0  0  0
 40 33  1  0  0  0  0
 41 34  1  0  0  0  0
 44 36  1  0  0  0  0
M  END
$$$$
