PHV.pdb
 OpenBabel07022419043D

 49 50  0  0  1  0  0  0  0  0999 V2000
    1.8010   -4.3040    2.2540 N   0  0  0  0  0  0  0  0  0  0  0  0
    2.8050   -3.8410    3.1630 C   0  0  0  0  0  0  0  0  0  0  0  0
    2.1640   -3.7060    4.5140 C   0  0  0  0  0  0  0  0  0  0  0  0
    0.7470   -4.1390    4.2960 C   0  0  0  0  0  0  0  0  0  0  0  0
    0.5180   -4.0240    2.8200 C   0  0  1  0  0  0  0  0  0  0  0  0
    0.0270   -2.6570    2.4700 C   0  0  0  0  0  0  0  0  0  0  0  0
   -1.0940   -2.2980    2.9130 O   0  0  0  0  0  0  0  0  0  0  0  0
    1.8910   -5.3420    2.1690 H   0  0  0  0  0  0  0  0  0  0  0  0
    3.6360   -4.5930    3.2530 H   0  0  0  0  0  0  0  0  0  0  0  0
    3.2900   -2.9030    2.8220 H   0  0  0  0  0  0  0  0  0  0  0  0
    2.2300   -2.6580    4.8330 H   0  0  0  0  0  0  0  0  0  0  0  0
    2.6650   -4.3690    5.2780 H   0  0  0  0  0  0  0  0  0  0  0  0
    0.0620   -3.4060    4.7950 H   0  0  0  0  0  0  0  0  0  0  0  0
    0.5620   -5.1790    4.6710 H   0  0  0  0  0  0  0  0  0  0  0  0
   -0.1960   -4.8100    2.4770 H   0  0  0  0  0  0  0  0  0  0  0  0
    0.7580   -1.7740    1.6770 N   0  0  0  0  0  0  0  0  0  0  0  0
    0.1510   -0.4020    1.3860 C   0  0  1  0  0  0  0  0  0  0  0  0
    1.2100    0.5560    1.7980 C   0  0  0  0  0  0  0  0  0  0  0  0
    0.8090    1.9600    1.7510 C   0  0  0  0  0  0  0  0  0  0  0  0
   -0.3890    2.5920    1.5910 C   0  0  0  0  0  0  0  0  0  0  0  0
   -0.2490    3.9170    1.7220 N   0  0  0  0  0  0  0  0  0  0  0  0
    1.0400    4.1660    1.9710 C   0  0  0  0  0  0  0  0  0  0  0  0
    1.6880    3.0060    1.9920 N   0  0  0  0  0  0  0  0  0  0  0  0
    0.1450   -0.4520   -0.1310 C   0  0  0  0  0  0  0  0  0  0  0  0
    0.8450   -1.3860   -0.7110 O   0  0  0  0  0  0  0  0  0  0  0  0
    1.6820   -2.0050    1.2820 H   0  0  0  0  0  0  0  0  0  0  0  0
   -0.7880   -0.3120    1.8530 H   0  0  0  0  0  0  0  0  0  0  0  0
    2.0870    0.4360    1.0880 H   0  0  0  0  0  0  0  0  0  0  0  0
    1.5670    0.2600    2.8370 H   0  0  0  0  0  0  0  0  0  0  0  0
   -1.3470    2.0940    1.4070 H   0  0  0  0  0  0  0  0  0  0  0  0
   -0.9760    4.6550    1.6520 H   0  0  0  0  0  0  0  0  0  0  0  0
    1.4760    5.1490    2.1270 H   0  0  0  0  0  0  0  0  0  0  0  0
   -2.3750   -1.3250   -2.4130 C   0  0  0  0  0  0  0  0  0  0  0  0
   -1.7840   -0.0780   -3.0230 C   0  0  0  0  0  0  0  0  0  0  0  0
   -2.7640    1.0410   -2.8370 C   0  0  0  0  0  0  0  0  0  0  0  0
   -0.4300    0.2160   -2.4310 C   0  0  2  0  0  0  0  0  0  0  0  0
   -0.5550    0.4180   -0.9670 N   0  0  0  0  0  0  0  0  0  0  0  0
    0.1610    1.4300   -3.0470 C   0  0  0  0  0  0  0  0  0  0  0  0
    0.4880    2.4540   -2.3580 O   0  0  0  0  0  0  0  0  0  0  0  0
    0.3660    1.4590   -4.4000 O   0  0  0  0  0  0  0  0  0  0  0  0
   -3.4620   -1.4000   -2.6080 H   0  0  0  0  0  0  0  0  0  0  0  0
   -1.8630   -2.2480   -2.7700 H   0  0  0  0  0  0  0  0  0  0  0  0
   -2.2700   -1.2690   -1.2920 H   0  0  0  0  0  0  0  0  0  0  0  0
   -1.6310   -0.2730   -4.0990 H   0  0  0  0  0  0  0  0  0  0  0  0
   -2.8190    1.3120   -1.7780 H   0  0  0  0  0  0  0  0  0  0  0  0
   -3.7750    0.6300   -3.1170 H   0  0  0  0  0  0  0  0  0  0  0  0
   -2.5520    1.9030   -3.5000 H   0  0  0  0  0  0  0  0  0  0  0  0
    0.2310   -0.6360   -2.6680 H   0  0  0  0  0  0  0  0  0  0  0  0
   -1.1540    1.1630   -0.6080 H   0  0  0  0  0  0  0  0  0  0  0  0
  1  5  1  0  0  0  0
  1  2  1  0  0  0  0
  2  9  1  0  0  0  0
  2  3  1  0  0  0  0
  3 11  1  0  0  0  0
  3 12  1  0  0  0  0
  4  3  1  0  0  0  0
  4 14  1  0  0  0  0
  4 13  1  0  0  0  0
  5 15  1  6  0  0  0
  5  4  1  0  0  0  0
  6  5  1  0  0  0  0
  6  7  2  0  0  0  0
  8  1  1  0  0  0  0
 10  2  1  0  0  0  0
 16  6  1  0  0  0  0
 17 16  1  0  0  0  0
 17 18  1  0  0  0  0
 17 27  1  1  0  0  0
 18 29  1  0  0  0  0
 19 18  1  0  0  0  0
 19 23  1  0  0  0  0
 20 21  1  0  0  0  0
 20 19  2  0  0  0  0
 21 22  1  0  0  0  0
 22 23  2  0  0  0  0
 22 32  1  0  0  0  0
 24 17  1  0  0  0  0
 25 24  2  0  0  0  0
 26 16  1  0  0  0  0
 28 18  1  0  0  0  0
 30 20  1  0  0  0  0
 31 21  1  0  0  0  0
 33 43  1  0  0  0  0
 34 35  1  0  0  0  0
 34 36  1  0  0  0  0
 34 33  1  0  0  0  0
 35 45  1  0  0  0  0
 36 48  1  6  0  0  0
 36 37  1  0  0  0  0
 37 49  1  0  0  0  0
 37 24  1  0  0  0  0
 38 36  1  0  0  0  0
 38 39  1  0  0  0  0
 40 38  2  0  0  0  0
 41 33  1  0  0  0  0
 42 33  1  0  0  0  0
 44 34  1  0  0  0  0
 46 35  1  0  0  0  0
 47 35  1  0  0  0  0
M  END
$$$$
