PHW.pdb
 OpenBabel07022419043D

 57 60  0  0  1  0  0  0  0  0999 V2000
    0.8590    2.0320    5.0880 N   0  0  0  0  0  0  0  0  0  0  0  0
    1.0190    1.1590    6.2270 C   0  0  0  0  0  0  0  0  0  0  0  0
    1.7000   -0.0920    5.7520 C   0  0  0  0  0  0  0  0  0  0  0  0
    1.3750   -0.1240    4.2550 C   0  0  0  0  0  0  0  0  0  0  0  0
    1.3520    1.3340    3.9300 C   0  0  1  0  0  0  0  0  0  0  0  0
    0.5060    1.6740    2.7610 C   0  0  0  0  0  0  0  0  0  0  0  0
   -0.4680    2.4660    2.8690 O   0  0  0  0  0  0  0  0  0  0  0  0
   -0.1810    2.1610    4.9500 H   0  0  0  0  0  0  0  0  0  0  0  0
    0.0320    0.8430    6.6650 H   0  0  0  0  0  0  0  0  0  0  0  0
    1.5740    1.6740    7.0240 H   0  0  0  0  0  0  0  0  0  0  0  0
    1.3410   -0.9930    6.2630 H   0  0  0  0  0  0  0  0  0  0  0  0
    2.7890    0.0070    5.9060 H   0  0  0  0  0  0  0  0  0  0  0  0
    0.4170   -0.6220    4.0770 H   0  0  0  0  0  0  0  0  0  0  0  0
    2.2370   -0.6570    3.7790 H   0  0  0  0  0  0  0  0  0  0  0  0
    2.4090    1.6590    3.7860 H   0  0  0  0  0  0  0  0  0  0  0  0
    0.7350    1.1360    1.4620 N   0  0  0  0  0  0  0  0  0  0  0  0
   -0.0800    1.4590    0.3190 C   0  0  1  0  0  0  0  0  0  0  0  0
    0.7800    2.0920   -0.7540 C   0  0  0  0  0  0  0  0  0  0  0  0
    1.4350    3.3440   -0.2830 C   0  0  0  0  0  0  0  0  0  0  0  0
    0.9620    4.6380   -0.3560 C   0  0  0  0  0  0  0  0  0  0  0  0
    1.8430    5.5020    0.1770 N   0  0  0  0  0  0  0  0  0  0  0  0
    2.8770    4.7520    0.5890 C   0  0  0  0  0  0  0  0  0  0  0  0
    2.6510    3.4560    0.3220 N   0  0  0  0  0  0  0  0  0  0  0  0
   -0.7200    0.2640   -0.2800 C   0  0  0  0  0  0  0  0  0  0  0  0
   -1.4540    0.4660   -1.2900 O   0  0  0  0  0  0  0  0  0  0  0  0
    1.5370    0.4780    1.3560 H   0  0  0  0  0  0  0  0  0  0  0  0
   -0.8890    2.1720    0.5520 H   0  0  0  0  0  0  0  0  0  0  0  0
    0.2200    2.2300   -1.6960 H   0  0  0  0  0  0  0  0  0  0  0  0
    1.6270    1.3960   -1.0150 H   0  0  0  0  0  0  0  0  0  0  0  0
    0.0120    4.9320   -0.7820 H   0  0  0  0  0  0  0  0  0  0  0  0
    1.7760    6.5390    0.2710 H   0  0  0  0  0  0  0  0  0  0  0  0
    3.7690    5.1040    1.0660 H   0  0  0  0  0  0  0  0  0  0  0  0
   -0.5680   -1.0560    0.1880 N   0  0  0  0  0  0  0  0  0  0  0  0
   -1.2340   -2.1930   -0.4590 C   0  0  1  0  0  0  0  0  0  0  0  0
   -0.1130   -3.1030   -0.9610 C   0  0  0  0  0  0  0  0  0  0  0  0
   -0.6730   -4.2990   -1.6400 C   0  0  0  0  0  0  0  0  0  0  0  0
   -0.7670   -5.5930   -1.1740 C   0  0  0  0  0  0  0  0  0  0  0  0
   -1.3400   -6.3770   -2.1020 N   0  0  0  0  0  0  0  0  0  0  0  0
   -1.6130   -5.5870   -3.1600 C   0  0  0  0  0  0  0  0  0  0  0  0
   -2.2050   -5.9560   -4.3520 C   0  0  0  0  0  0  0  0  0  0  0  0
   -2.3930   -4.9690   -5.3150 C   0  0  0  0  0  0  0  0  0  0  0  0
   -1.9980   -3.6910   -5.0680 C   0  0  0  0  0  0  0  0  0  0  0  0
   -1.4080   -3.3320   -3.8750 C   0  0  0  0  0  0  0  0  0  0  0  0
   -1.2100   -4.2940   -2.9020 C   0  0  0  0  0  0  0  0  0  0  0  0
   -1.9880   -2.9410    0.5590 C   0  0  0  0  0  0  0  0  0  0  0  0
   -2.6540   -3.9690    0.2740 O   0  0  0  0  0  0  0  0  0  0  0  0
   -1.9890   -2.5320    1.8850 O   0  0  0  0  0  0  0  0  0  0  0  0
    0.0400   -1.2060    1.0200 H   0  0  0  0  0  0  0  0  0  0  0  0
   -1.8340   -1.8650   -1.3130 H   0  0  0  0  0  0  0  0  0  0  0  0
    0.5710   -2.5230   -1.6340 H   0  0  0  0  0  0  0  0  0  0  0  0
    0.4270   -3.4430   -0.0460 H   0  0  0  0  0  0  0  0  0  0  0  0
   -0.4240   -5.9150   -0.2000 H   0  0  0  0  0  0  0  0  0  0  0  0
   -1.5310   -7.3910   -2.0120 H   0  0  0  0  0  0  0  0  0  0  0  0
   -2.5160   -6.9860   -4.5350 H   0  0  0  0  0  0  0  0  0  0  0  0
   -2.8570   -5.2480   -6.2540 H   0  0  0  0  0  0  0  0  0  0  0  0
   -2.1440   -2.9220   -5.8180 H   0  0  0  0  0  0  0  0  0  0  0  0
   -1.1000   -2.3260   -3.6860 H   0  0  0  0  0  0  0  0  0  0  0  0
  1  2  1  0  0  0  0
  2  9  1  0  0  0  0
  2 10  1  0  0  0  0
  3 12  1  0  0  0  0
  3  2  1  0  0  0  0
  3 11  1  0  0  0  0
  4  3  1  0  0  0  0
  5 15  1  6  0  0  0
  5  4  1  0  0  0  0
  5  1  1  0  0  0  0
  6  7  2  0  0  0  0
  6  5  1  0  0  0  0
  8  1  1  0  0  0  0
 13  4  1  0  0  0  0
 14  4  1  0  0  0  0
 16  6  1  0  0  0  0
 17 27  1  1  0  0  0
 17 16  1  0  0  0  0
 18 19  1  0  0  0  0
 18 17  1  0  0  0  0
 19 23  1  0  0  0  0
 20 19  2  0  0  0  0
 20 21  1  0  0  0  0
 21 31  1  0  0  0  0
 21 22  1  0  0  0  0
 22 32  1  0  0  0  0
 23 22  2  0  0  0  0
 24 33  1  0  0  0  0
 24 17  1  0  0  0  0
 25 24  2  0  0  0  0
 26 16  1  0  0  0  0
 28 18  1  0  0  0  0
 29 18  1  0  0  0  0
 30 20  1  0  0  0  0
 33 48  1  0  0  0  0
 34 49  1  6  0  0  0
 34 33  1  0  0  0  0
 34 45  1  0  0  0  0
 35 34  1  0  0  0  0
 35 51  1  0  0  0  0
 36 37  2  0  0  0  0
 36 35  1  0  0  0  0
 37 52  1  0  0  0  0
 38 53  1  0  0  0  0
 38 37  1  0  0  0  0
 39 44  1  0  0  0  0
 39 38  1  0  0  0  0
 40 39  2  0  0  0  0
 41 42  2  0  0  0  0
 41 40  1  0  0  0  0
 42 43  1  0  0  0  0
 43 57  1  0  0  0  0
 43 44  2  0  0  0  0
 44 36  1  0  0  0  0
 45 47  1  0  0  0  0
 46 45  2  0  0  0  0
 50 35  1  0  0  0  0
 54 40  1  0  0  0  0
 55 41  1  0  0  0  0
 56 42  1  0  0  0  0
M  END
$$$$
