PHY.pdb
 OpenBabel07022419043D

 54 56  0  0  1  0  0  0  0  0999 V2000
    2.3230   -3.4710    2.4400 N   0  0  0  0  0  0  0  0  0  0  0  0
    3.0180   -4.6900    2.8130 C   0  0  0  0  0  0  0  0  0  0  0  0
    3.3710   -4.4230    4.2600 C   0  0  0  0  0  0  0  0  0  0  0  0
    2.3060   -3.4520    4.7390 C   0  0  0  0  0  0  0  0  0  0  0  0
    1.4160   -3.2790    3.5270 C   0  0  1  0  0  0  0  0  0  0  0  0
    0.7420   -1.9620    3.4990 C   0  0  0  0  0  0  0  0  0  0  0  0
   -0.0820   -1.6690    4.4030 O   0  0  0  0  0  0  0  0  0  0  0  0
    1.8700   -3.6000    1.5150 H   0  0  0  0  0  0  0  0  0  0  0  0
    2.2960   -5.5520    2.8040 H   0  0  0  0  0  0  0  0  0  0  0  0
    3.9090   -4.8850    2.1870 H   0  0  0  0  0  0  0  0  0  0  0  0
    4.3490   -3.9100    4.3430 H   0  0  0  0  0  0  0  0  0  0  0  0
    3.3640   -5.3470    4.8780 H   0  0  0  0  0  0  0  0  0  0  0  0
    2.7410   -2.4690    4.9970 H   0  0  0  0  0  0  0  0  0  0  0  0
    1.7270   -3.8740    5.5900 H   0  0  0  0  0  0  0  0  0  0  0  0
    0.6480   -4.0780    3.5740 H   0  0  0  0  0  0  0  0  0  0  0  0
    0.9770   -0.9880    2.4870 N   0  0  0  0  0  0  0  0  0  0  0  0
    0.2980    0.3070    2.4800 C   0  0  1  0  0  0  0  0  0  0  0  0
    1.2470    1.4370    2.6370 C   0  0  0  0  0  0  0  0  0  0  0  0
    0.5240    2.7250    2.6270 C   0  0  0  0  0  0  0  0  0  0  0  0
    0.2270    3.6010    1.6000 C   0  0  0  0  0  0  0  0  0  0  0  0
   -0.4330    4.6830    2.0470 N   0  0  0  0  0  0  0  0  0  0  0  0
   -0.5590    4.4990    3.3670 C   0  0  0  0  0  0  0  0  0  0  0  0
    0.0030    3.3400    3.7350 N   0  0  0  0  0  0  0  0  0  0  0  0
   -0.5670    0.4550    1.3090 C   0  0  0  0  0  0  0  0  0  0  0  0
   -1.3050    1.4490    1.0950 O   0  0  0  0  0  0  0  0  0  0  0  0
    1.6630   -1.2470    1.7430 H   0  0  0  0  0  0  0  0  0  0  0  0
   -0.3730    0.3140    3.3840 H   0  0  0  0  0  0  0  0  0  0  0  0
    1.7990    1.3830    3.6140 H   0  0  0  0  0  0  0  0  0  0  0  0
    2.0490    1.4630    1.8700 H   0  0  0  0  0  0  0  0  0  0  0  0
    0.4980    3.4330    0.5620 H   0  0  0  0  0  0  0  0  0  0  0  0
   -0.7830    5.5080    1.4840 H   0  0  0  0  0  0  0  0  0  0  0  0
   -1.0430    5.1830    4.0370 H   0  0  0  0  0  0  0  0  0  0  0  0
   -3.3800   -0.0410   -6.9880 O   0  0  0  0  0  0  0  0  0  0  0  0
   -2.6910   -0.1710   -5.7830 C   0  0  0  0  0  0  0  0  0  0  0  0
   -2.3240    0.9340   -5.0370 C   0  0  0  0  0  0  0  0  0  0  0  0
   -1.6450    0.8290   -3.8480 C   0  0  0  0  0  0  0  0  0  0  0  0
   -1.3040   -0.4350   -3.3560 C   0  0  0  0  0  0  0  0  0  0  0  0
   -0.5660   -0.5090   -2.0920 C   0  0  0  0  0  0  0  0  0  0  0  0
   -1.4210   -0.5190   -0.8630 C   0  0  2  0  0  0  0  0  0  0  0  0
   -0.5870   -0.6000    0.3220 N   0  0  0  0  0  0  0  0  0  0  0  0
   -2.3290   -1.6860   -0.9020 C   0  0  0  0  0  0  0  0  0  0  0  0
   -3.1920   -1.8160   -1.8200 O   0  0  0  0  0  0  0  0  0  0  0  0
   -1.6540   -1.5540   -4.0730 C   0  0  0  0  0  0  0  0  0  0  0  0
   -2.3320   -1.3920   -5.2550 C   0  0  0  0  0  0  0  0  0  0  0  0
   -2.2150   -2.6540    0.1060 O   0  0  0  0  0  0  0  0  0  0  0  0
   -4.1420    0.6230   -7.0050 H   0  0  0  0  0  0  0  0  0  0  0  0
   -2.5970    1.9050   -5.4350 H   0  0  0  0  0  0  0  0  0  0  0  0
   -1.3810    1.7360   -3.3010 H   0  0  0  0  0  0  0  0  0  0  0  0
    0.0300   -1.4530   -2.0860 H   0  0  0  0  0  0  0  0  0  0  0  0
    0.1560    0.3410   -2.0790 H   0  0  0  0  0  0  0  0  0  0  0  0
   -1.9970    0.4420   -0.8690 H   0  0  0  0  0  0  0  0  0  0  0  0
   -0.0010   -1.4330    0.4530 H   0  0  0  0  0  0  0  0  0  0  0  0
   -1.3950   -2.5640   -3.7160 H   0  0  0  0  0  0  0  0  0  0  0  0
   -2.6140   -2.2660   -5.8300 H   0  0  0  0  0  0  0  0  0  0  0  0
  1  2  1  0  0  0  0
  1  5  1  0  0  0  0
  2  3  1  0  0  0  0
  3 11  1  0  0  0  0
  3  4  1  0  0  0  0
  3 12  1  0  0  0  0
  4 13  1  0  0  0  0
  4 14  1  0  0  0  0
  5 15  1  6  0  0  0
  5  4  1  0  0  0  0
  6  5  1  0  0  0  0
  6  7  2  0  0  0  0
  8  1  1  0  0  0  0
  9  2  1  0  0  0  0
 10  2  1  0  0  0  0
 16  6  1  0  0  0  0
 17 16  1  0  0  0  0
 17 18  1  0  0  0  0
 17 27  1  1  0  0  0
 18 28  1  0  0  0  0
 19 18  1  0  0  0  0
 19 23  1  0  0  0  0
 20 21  1  0  0  0  0
 20 19  2  0  0  0  0
 21 22  1  0  0  0  0
 22 23  2  0  0  0  0
 22 32  1  0  0  0  0
 24 17  1  0  0  0  0
 25 24  2  0  0  0  0
 26 16  1  0  0  0  0
 29 18  1  0  0  0  0
 30 20  1  0  0  0  0
 31 21  1  0  0  0  0
 33 34  1  0  0  0  0
 34 44  2  0  0  0  0
 34 35  1  0  0  0  0
 35 36  2  0  0  0  0
 36 37  1  0  0  0  0
 36 48  1  0  0  0  0
 37 38  1  0  0  0  0
 38 49  1  0  0  0  0
 38 50  1  0  0  0  0
 38 39  1  0  0  0  0
 39 51  1  1  0  0  0
 39 40  1  0  0  0  0
 40 52  1  0  0  0  0
 40 24  1  0  0  0  0
 41 39  1  0  0  0  0
 41 45  1  0  0  0  0
 42 41  2  0  0  0  0
 43 53  1  0  0  0  0
 43 37  2  0  0  0  0
 44 43  1  0  0  0  0
 46 33  1  0  0  0  0
 47 35  1  0  0  0  0
 54 44  1  0  0  0  0
M  END
$$$$
