PID.pdb
 OpenBabel07022419043D

 48 48  0  0  1  0  0  0  0  0999 V2000
   -0.1640   -3.9620    0.5310 N   0  0  0  0  0  0  0  0  0  0  0  0
    0.4290   -5.2630    0.7860 C   0  0  0  0  0  0  0  0  0  0  0  0
    1.6830   -5.0510    1.5810 C   0  0  0  0  0  0  0  0  0  0  0  0
    1.9070   -3.5390    1.4410 C   0  0  0  0  0  0  0  0  0  0  0  0
    0.4840   -3.0470    1.4220 C   0  0  1  0  0  0  0  0  0  0  0  0
    0.3590   -1.6320    0.9740 C   0  0  0  0  0  0  0  0  0  0  0  0
   -0.2850   -1.3910   -0.0740 O   0  0  0  0  0  0  0  0  0  0  0  0
   -1.1800   -4.0250    0.7500 H   0  0  0  0  0  0  0  0  0  0  0  0
   -0.2810   -5.9430    1.3400 H   0  0  0  0  0  0  0  0  0  0  0  0
    0.6210   -5.7980   -0.1880 H   0  0  0  0  0  0  0  0  0  0  0  0
    2.5560   -5.6060    1.2190 H   0  0  0  0  0  0  0  0  0  0  0  0
    1.4610   -5.2770    2.6410 H   0  0  0  0  0  0  0  0  0  0  0  0
    2.4950   -3.1770    2.3120 H   0  0  0  0  0  0  0  0  0  0  0  0
    2.3720   -3.3380    0.4750 H   0  0  0  0  0  0  0  0  0  0  0  0
    0.0580   -3.1130    2.4510 H   0  0  0  0  0  0  0  0  0  0  0  0
    2.5480    1.3890   -2.0640 C   0  0  0  0  0  0  0  0  0  0  0  0
    1.6690    0.6750   -1.0170 C   0  0  0  0  0  0  0  0  0  0  0  0
    1.8340    1.3480    0.3360 C   0  0  2  0  0  0  0  0  0  0  0  0
    3.2830    1.2820    0.7910 C   0  0  0  0  0  0  0  0  0  0  0  0
    0.8850    0.8280    1.3520 C   0  0  2  0  0  0  0  0  0  0  0  0
    0.9360   -0.5440    1.6800 N   0  0  0  0  0  0  0  0  0  0  0  0
   -0.4810    1.4110    1.1930 C   0  0  0  0  0  0  0  0  0  0  0  0
   -0.5720    2.5990    0.7450 O   0  0  0  0  0  0  0  0  0  0  0  0
    2.0670    1.3670   -3.0550 H   0  0  0  0  0  0  0  0  0  0  0  0
    2.6610    2.4500   -1.7790 H   0  0  0  0  0  0  0  0  0  0  0  0
    3.5620    0.9410   -2.0730 H   0  0  0  0  0  0  0  0  0  0  0  0
    0.6410    0.8320   -1.3920 H   0  0  0  0  0  0  0  0  0  0  0  0
    2.0280   -0.3610   -1.0310 H   0  0  0  0  0  0  0  0  0  0  0  0
    1.6170    2.4330    0.1660 H   0  0  0  0  0  0  0  0  0  0  0  0
    3.6140    2.1770    1.3550 H   0  0  0  0  0  0  0  0  0  0  0  0
    3.9830    1.2110   -0.0830 H   0  0  0  0  0  0  0  0  0  0  0  0
    3.4460    0.4180    1.4980 H   0  0  0  0  0  0  0  0  0  0  0  0
    1.2080    1.3620    2.3320 H   0  0  0  0  0  0  0  0  0  0  0  0
    1.4540   -0.8840    2.5630 H   0  0  0  0  0  0  0  0  0  0  0  0
   -1.6730    0.7620    1.5000 N   0  0  0  0  0  0  0  0  0  0  0  0
   -3.0160    1.3040    1.3550 C   0  0  1  0  0  0  0  0  0  0  0  0
   -3.7910    0.4660    0.3620 C   0  0  0  0  0  0  0  0  0  0  0  0
   -3.1760    0.4520   -0.9850 C   0  0  0  0  0  0  0  0  0  0  0  0
   -2.9170    1.5690   -1.5390 O   0  0  0  0  0  0  0  0  0  0  0  0
   -3.6870    1.1910    2.6580 C   0  0  0  0  0  0  0  0  0  0  0  0
   -4.8900    1.5990    2.7710 O   0  0  0  0  0  0  0  0  0  0  0  0
   -2.8580   -0.7020   -1.6920 O   0  0  0  0  0  0  0  0  0  0  0  0
   -3.0990    0.6660    3.7940 O   0  0  0  0  0  0  0  0  0  0  0  0
   -1.6120   -0.2140    1.8960 H   0  0  0  0  0  0  0  0  0  0  0  0
   -2.9420    2.3420    0.9620 H   0  0  0  0  0  0  0  0  0  0  0  0
   -4.8590    0.7760    0.3380 H   0  0  0  0  0  0  0  0  0  0  0  0
   -3.7620   -0.5780    0.7310 H   0  0  0  0  0  0  0  0  0  0  0  0
   -2.4140   -0.6980   -2.6080 H   0  0  0  0  0  0  0  0  0  0  0  0
  1  8  1  0  0  0  0
  1  2  1  0  0  0  0
  1  5  1  0  0  0  0
  2  9  1  0  0  0  0
  2  3  1  0  0  0  0
  3 12  1  0  0  0  0
  4  3  1  0  0  0  0
  4 13  1  0  0  0  0
  5  4  1  0  0  0  0
  5 15  1  1  0  0  0
  6  5  1  0  0  0  0
  6 21  1  0  0  0  0
  7  6  2  0  0  0  0
 10  2  1  0  0  0  0
 11  3  1  0  0  0  0
 14  4  1  0  0  0  0
 16 25  1  0  0  0  0
 16 17  1  0  0  0  0
 17 18  1  0  0  0  0
 18 29  1  6  0  0  0
 18 19  1  0  0  0  0
 18 20  1  0  0  0  0
 19 30  1  0  0  0  0
 19 32  1  0  0  0  0
 20 21  1  0  0  0  0
 20 33  1  1  0  0  0
 21 34  1  0  0  0  0
 22 20  1  0  0  0  0
 22 35  1  0  0  0  0
 23 22  2  0  0  0  0
 24 16  1  0  0  0  0
 26 16  1  0  0  0  0
 27 17  1  0  0  0  0
 28 17  1  0  0  0  0
 31 19  1  0  0  0  0
 35 44  1  0  0  0  0
 36 45  1  6  0  0  0
 36 35  1  0  0  0  0
 36 40  1  0  0  0  0
 37 47  1  0  0  0  0
 37 36  1  0  0  0  0
 38 37  1  0  0  0  0
 39 38  2  0  0  0  0
 40 41  2  0  0  0  0
 40 43  1  0  0  0  0
 42 38  1  0  0  0  0
 46 37  1  0  0  0  0
 48 42  1  0  0  0  0
M  END
$$$$
