PIE.pdb
 OpenBabel07022419043D

 51 51  0  0  1  0  0  0  0  0999 V2000
    1.2810   -3.5640    0.0820 N   0  0  0  0  0  0  0  0  0  0  0  0
    1.5390   -4.3830   -1.0590 C   0  0  0  0  0  0  0  0  0  0  0  0
    2.8950   -3.9840   -1.6000 C   0  0  0  0  0  0  0  0  0  0  0  0
    3.5880   -3.3240   -0.4200 C   0  0  0  0  0  0  0  0  0  0  0  0
    2.4640   -2.8560    0.4500 C   0  0  1  0  0  0  0  0  0  0  0  0
    2.2850   -1.3770    0.3990 C   0  0  0  0  0  0  0  0  0  0  0  0
    3.2400   -0.6080    0.6960 O   0  0  0  0  0  0  0  0  0  0  0  0
    0.9130   -4.1160    0.9020 H   0  0  0  0  0  0  0  0  0  0  0  0
    0.7340   -4.2960   -1.8160 H   0  0  0  0  0  0  0  0  0  0  0  0
    1.6420   -5.4340   -0.7050 H   0  0  0  0  0  0  0  0  0  0  0  0
    3.4890   -4.8510   -1.9460 H   0  0  0  0  0  0  0  0  0  0  0  0
    2.7490   -3.3160   -2.4490 H   0  0  0  0  0  0  0  0  0  0  0  0
    4.1700   -2.4330   -0.7270 H   0  0  0  0  0  0  0  0  0  0  0  0
    4.2580   -4.0450    0.0930 H   0  0  0  0  0  0  0  0  0  0  0  0
    2.7380   -3.1060    1.5040 H   0  0  0  0  0  0  0  0  0  0  0  0
    1.4910    3.4310   -0.9740 C   0  0  0  0  0  0  0  0  0  0  0  0
    0.3400    2.6220   -1.5020 C   0  0  0  0  0  0  0  0  0  0  0  0
    0.5460    1.1340   -1.4140 C   0  0  2  0  0  0  0  0  0  0  0  0
   -0.7270    0.4920   -1.9850 C   0  0  0  0  0  0  0  0  0  0  0  0
    0.8570    0.6800   -0.0350 C   0  0  2  0  0  0  0  0  0  0  0  0
    1.0670   -0.7670    0.0250 N   0  0  0  0  0  0  0  0  0  0  0  0
   -0.1640    1.0910    0.9510 C   0  0  0  0  0  0  0  0  0  0  0  0
   -0.4310    2.2950    1.1040 O   0  0  0  0  0  0  0  0  0  0  0  0
    1.2060    4.1050   -0.1190 H   0  0  0  0  0  0  0  0  0  0  0  0
    1.7950    4.1670   -1.7770 H   0  0  0  0  0  0  0  0  0  0  0  0
    2.3730    2.8190   -0.6880 H   0  0  0  0  0  0  0  0  0  0  0  0
   -0.5840    2.9790   -1.0090 H   0  0  0  0  0  0  0  0  0  0  0  0
    0.1580    2.9170   -2.5930 H   0  0  0  0  0  0  0  0  0  0  0  0
    1.3750    0.9160   -2.1340 H   0  0  0  0  0  0  0  0  0  0  0  0
   -1.0550   -0.3690   -1.4050 H   0  0  0  0  0  0  0  0  0  0  0  0
   -1.5810    1.2260   -1.9600 H   0  0  0  0  0  0  0  0  0  0  0  0
   -0.5760    0.2700   -3.0650 H   0  0  0  0  0  0  0  0  0  0  0  0
    1.8300    1.1180    0.2640 H   0  0  0  0  0  0  0  0  0  0  0  0
    0.2640   -1.3780   -0.2240 H   0  0  0  0  0  0  0  0  0  0  0  0
   -0.8780    0.1580    1.7550 N   0  0  0  0  0  0  0  0  0  0  0  0
   -1.8910    0.5880    2.7320 C   0  0  1  0  0  0  0  0  0  0  0  0
   -3.2500    0.1520    2.3480 C   0  0  0  0  0  0  0  0  0  0  0  0
   -3.4890   -1.2900    2.1520 C   0  0  0  0  0  0  0  0  0  0  0  0
   -3.2930   -2.2100    3.2540 C   0  0  0  0  0  0  0  0  0  0  0  0
   -2.9620   -1.9360    4.4110 O   0  0  0  0  0  0  0  0  0  0  0  0
   -1.4670    0.3630    4.1150 C   0  0  0  0  0  0  0  0  0  0  0  0
   -0.3810   -0.2620    4.3750 O   0  0  0  0  0  0  0  0  0  0  0  0
   -3.4960   -3.5890    3.0070 O   0  0  0  0  0  0  0  0  0  0  0  0
   -2.1970    0.8090    5.2110 O   0  0  0  0  0  0  0  0  0  0  0  0
   -0.6980   -0.8660    1.6710 H   0  0  0  0  0  0  0  0  0  0  0  0
   -1.9270    1.7470    2.6510 H   0  0  0  0  0  0  0  0  0  0  0  0
   -3.5090    0.6930    1.4000 H   0  0  0  0  0  0  0  0  0  0  0  0
   -3.9520    0.5890    3.1350 H   0  0  0  0  0  0  0  0  0  0  0  0
   -2.9150   -1.5880    1.2280 H   0  0  0  0  0  0  0  0  0  0  0  0
   -4.5890   -1.3850    1.8500 H   0  0  0  0  0  0  0  0  0  0  0  0
   -3.7920   -4.2160    3.7510 H   0  0  0  0  0  0  0  0  0  0  0  0
  1  5  1  0  0  0  0
  1  8  1  0  0  0  0
  2 10  1  0  0  0  0
  2  1  1  0  0  0  0
  3  2  1  0  0  0  0
  3  4  1  0  0  0  0
  4 14  1  0  0  0  0
  4  5  1  0  0  0  0
  5 15  1  1  0  0  0
  6  5  1  0  0  0  0
  6  7  2  0  0  0  0
  9  2  1  0  0  0  0
 11  3  1  0  0  0  0
 12  3  1  0  0  0  0
 13  4  1  0  0  0  0
 16 26  1  0  0  0  0
 16 24  1  0  0  0  0
 17 18  1  0  0  0  0
 17 27  1  0  0  0  0
 17 16  1  0  0  0  0
 18 29  1  6  0  0  0
 18 20  1  0  0  0  0
 19 31  1  0  0  0  0
 19 18  1  0  0  0  0
 19 30  1  0  0  0  0
 20 21  1  0  0  0  0
 20 33  1  1  0  0  0
 20 22  1  0  0  0  0
 21  6  1  0  0  0  0
 22 23  2  0  0  0  0
 22 35  1  0  0  0  0
 25 16  1  0  0  0  0
 28 17  1  0  0  0  0
 32 19  1  0  0  0  0
 34 21  1  0  0  0  0
 35 36  1  0  0  0  0
 36 46  1  6  0  0  0
 36 41  1  0  0  0  0
 37 36  1  0  0  0  0
 37 48  1  0  0  0  0
 38 37  1  0  0  0  0
 38 39  1  0  0  0  0
 39 40  2  0  0  0  0
 41 42  2  0  0  0  0
 41 44  1  0  0  0  0
 43 39  1  0  0  0  0
 43 51  1  0  0  0  0
 45 35  1  0  0  0  0
 47 37  1  0  0  0  0
 49 38  1  0  0  0  0
 50 38  1  0  0  0  0
M  END
$$$$
