PIG.pdb
 OpenBabel07022419043D

 42 42  0  0  1  0  0  0  0  0999 V2000
    0.9670   -1.4960    4.4010 N   0  0  0  0  0  0  0  0  0  0  0  0
   -0.4280   -1.7930    4.5630 C   0  0  0  0  0  0  0  0  0  0  0  0
   -0.4560   -3.2940    4.3360 C   0  0  0  0  0  0  0  0  0  0  0  0
    0.5300   -3.4100    3.1690 C   0  0  0  0  0  0  0  0  0  0  0  0
    1.3660   -2.1590    3.2190 C   0  0  1  0  0  0  0  0  0  0  0  0
    1.0840   -1.3920    1.9480 C   0  0  0  0  0  0  0  0  0  0  0  0
    1.3770   -1.9430    0.8610 O   0  0  0  0  0  0  0  0  0  0  0  0
    1.2220   -0.5080    4.3910 H   0  0  0  0  0  0  0  0  0  0  0  0
   -0.8190   -1.5230    5.5670 H   0  0  0  0  0  0  0  0  0  0  0  0
   -1.0370   -1.3580    3.7600 H   0  0  0  0  0  0  0  0  0  0  0  0
   -0.1380   -3.8720    5.2060 H   0  0  0  0  0  0  0  0  0  0  0  0
   -1.4700   -3.6300    4.0450 H   0  0  0  0  0  0  0  0  0  0  0  0
   -0.0170   -3.5300    2.2100 H   0  0  0  0  0  0  0  0  0  0  0  0
    1.1430   -4.3350    3.2840 H   0  0  0  0  0  0  0  0  0  0  0  0
    2.4350   -2.4840    3.2260 H   0  0  0  0  0  0  0  0  0  0  0  0
    0.0990    3.2660   -0.7030 C   0  0  0  0  0  0  0  0  0  0  0  0
    1.3410    2.4020   -0.7430 C   0  0  0  0  0  0  0  0  0  0  0  0
    1.3900    1.4730    0.4140 C   0  0  2  0  0  0  0  0  0  0  0  0
    2.6980    0.6420    0.3530 C   0  0  0  0  0  0  0  0  0  0  0  0
    0.2340    0.6180    0.7170 C   0  0  2  0  0  0  0  0  0  0  0  0
    0.5240   -0.1230    1.9330 N   0  0  0  0  0  0  0  0  0  0  0  0
   -0.4170   -0.1960   -0.2900 C   0  0  0  0  0  0  0  0  0  0  0  0
   -0.8130   -1.3880    0.0350 O   0  0  0  0  0  0  0  0  0  0  0  0
    0.2410    4.1170    0.0210 H   0  0  0  0  0  0  0  0  0  0  0  0
   -0.7900    2.6960   -0.4270 H   0  0  0  0  0  0  0  0  0  0  0  0
   -0.0060    3.6980   -1.7340 H   0  0  0  0  0  0  0  0  0  0  0  0
    2.1890    3.1570   -0.5490 H   0  0  0  0  0  0  0  0  0  0  0  0
    1.5720    1.9740   -1.7290 H   0  0  0  0  0  0  0  0  0  0  0  0
    1.5610    2.1150    1.3330 H   0  0  0  0  0  0  0  0  0  0  0  0
    3.5540    1.3570    0.1470 H   0  0  0  0  0  0  0  0  0  0  0  0
    2.6940   -0.0260   -0.5090 H   0  0  0  0  0  0  0  0  0  0  0  0
    2.9180    0.2240    1.3270 H   0  0  0  0  0  0  0  0  0  0  0  0
   -0.6090    1.3380    1.0610 H   0  0  0  0  0  0  0  0  0  0  0  0
    0.2870    0.3740    2.8480 H   0  0  0  0  0  0  0  0  0  0  0  0
   -0.7170    0.0860   -1.6370 N   0  0  0  0  0  0  0  0  0  0  0  0
   -1.3990   -0.9110   -2.4900 C   0  0  0  0  0  0  0  0  0  0  0  0
   -0.6060   -2.1550   -2.6150 C   0  0  0  0  0  0  0  0  0  0  0  0
    0.5170   -2.3060   -2.0650 O   0  0  0  0  0  0  0  0  0  0  0  0
   -1.0460   -3.2500   -3.3530 O   0  0  0  0  0  0  0  0  0  0  0  0
   -0.4710    0.9860   -2.0560 H   0  0  0  0  0  0  0  0  0  0  0  0
   -1.5190   -0.5020   -3.5110 H   0  0  0  0  0  0  0  0  0  0  0  0
   -2.3990   -1.1510   -2.0790 H   0  0  0  0  0  0  0  0  0  0  0  0
  1  2  1  0  0  0  0
  2  9  1  0  0  0  0
  3  2  1  0  0  0  0
  3 11  1  0  0  0  0
  4  5  1  0  0  0  0
  4 14  1  0  0  0  0
  4  3  1  0  0  0  0
  5 15  1  1  0  0  0
  5  1  1  0  0  0  0
  6  5  1  0  0  0  0
  7  6  2  0  0  0  0
  8  1  1  0  0  0  0
 10  2  1  0  0  0  0
 12  3  1  0  0  0  0
 13  4  1  0  0  0  0
 16 25  1  0  0  0  0
 16 24  1  0  0  0  0
 17 16  1  0  0  0  0
 17 27  1  0  0  0  0
 17 18  1  0  0  0  0
 18 20  1  0  0  0  0
 18 29  1  1  0  0  0
 19 18  1  0  0  0  0
 19 32  1  0  0  0  0
 20 33  1  1  0  0  0
 20 21  1  0  0  0  0
 21  6  1  0  0  0  0
 21 34  1  0  0  0  0
 22 23  2  0  0  0  0
 22 20  1  0  0  0  0
 26 16  1  0  0  0  0
 28 17  1  0  0  0  0
 30 19  1  0  0  0  0
 31 19  1  0  0  0  0
 35 22  1  0  0  0  0
 36 42  1  0  0  0  0
 36 35  1  0  0  0  0
 37 36  1  0  0  0  0
 37 38  1  0  0  0  0
 39 37  2  0  0  0  0
 40 35  1  0  0  0  0
 41 36  1  0  0  0  0
M  END
$$$$
