PIH.pdb
 OpenBabel07022419043D

 52 53  0  0  1  0  0  0  0  0999 V2000
    3.6690   -3.5550    1.0630 N   0  0  0  0  0  0  0  0  0  0  0  0
    2.7470   -4.6640    1.0060 C   0  0  0  0  0  0  0  0  0  0  0  0
    1.8660   -4.4700   -0.1870 C   0  0  0  0  0  0  0  0  0  0  0  0
    2.3090   -3.1270   -0.7410 C   0  0  0  0  0  0  0  0  0  0  0  0
    2.9670   -2.4440    0.4470 C   0  0  1  0  0  0  0  0  0  0  0  0
    1.9590   -1.9630    1.4270 C   0  0  0  0  0  0  0  0  0  0  0  0
    1.8130   -2.4890    2.5660 O   0  0  0  0  0  0  0  0  0  0  0  0
    3.8840   -3.2910    2.0510 H   0  0  0  0  0  0  0  0  0  0  0  0
    3.3050   -5.6380    0.9390 H   0  0  0  0  0  0  0  0  0  0  0  0
    2.1050   -4.7200    1.9160 H   0  0  0  0  0  0  0  0  0  0  0  0
    2.0030   -5.2920   -0.9180 H   0  0  0  0  0  0  0  0  0  0  0  0
    0.7820   -4.3790    0.1110 H   0  0  0  0  0  0  0  0  0  0  0  0
    1.4830   -2.5590   -1.1660 H   0  0  0  0  0  0  0  0  0  0  0  0
    3.1300   -3.3260   -1.4740 H   0  0  0  0  0  0  0  0  0  0  0  0
    3.6620   -1.6420    0.1300 H   0  0  0  0  0  0  0  0  0  0  0  0
    0.2730    3.3910    2.0790 C   0  0  0  0  0  0  0  0  0  0  0  0
    0.2100    2.0080    1.4260 C   0  0  0  0  0  0  0  0  0  0  0  0
    0.3000    1.0040    2.5430 C   0  0  2  0  0  0  0  0  0  0  0  0
    1.6120    1.1700    3.3200 C   0  0  0  0  0  0  0  0  0  0  0  0
    0.1160   -0.4150    2.0970 C   0  0  2  0  0  0  0  0  0  0  0  0
    1.0840   -0.8630    1.1330 N   0  0  0  0  0  0  0  0  0  0  0  0
   -1.2670   -0.6110    1.5940 C   0  0  0  0  0  0  0  0  0  0  0  0
   -2.2120   -0.2390    2.3330 O   0  0  0  0  0  0  0  0  0  0  0  0
   -0.3150    4.1380    1.5150 H   0  0  0  0  0  0  0  0  0  0  0  0
    1.3570    3.6710    2.1590 H   0  0  0  0  0  0  0  0  0  0  0  0
   -0.1000    3.3530    3.1200 H   0  0  0  0  0  0  0  0  0  0  0  0
   -0.8530    1.9380    1.0500 H   0  0  0  0  0  0  0  0  0  0  0  0
    0.9410    1.8790    0.6300 H   0  0  0  0  0  0  0  0  0  0  0  0
   -0.4990    1.2590    3.2700 H   0  0  0  0  0  0  0  0  0  0  0  0
    2.4530    1.4030    2.6290 H   0  0  0  0  0  0  0  0  0  0  0  0
    1.8040    0.2570    3.9200 H   0  0  0  0  0  0  0  0  0  0  0  0
    1.5520    2.0170    4.0340 H   0  0  0  0  0  0  0  0  0  0  0  0
    0.1640   -1.0310    3.0440 H   0  0  0  0  0  0  0  0  0  0  0  0
    1.1730   -0.4010    0.2030 H   0  0  0  0  0  0  0  0  0  0  0  0
   -1.5810   -1.1890    0.3390 N   0  0  0  0  0  0  0  0  0  0  0  0
   -2.9350   -1.3780   -0.1440 C   0  0  1  0  0  0  0  0  0  0  0  0
   -3.0780   -0.7780   -1.5020 C   0  0  0  0  0  0  0  0  0  0  0  0
   -2.7860    0.6650   -1.4650 C   0  0  0  0  0  0  0  0  0  0  0  0
   -1.5360    1.2130   -1.6650 C   0  0  0  0  0  0  0  0  0  0  0  0
   -1.6050    2.5550   -1.5720 N   0  0  0  0  0  0  0  0  0  0  0  0
   -2.8840    2.8540   -1.3160 C   0  0  0  0  0  0  0  0  0  0  0  0
   -3.6120    1.7120   -1.2490 N   0  0  0  0  0  0  0  0  0  0  0  0
   -3.1540   -2.8580   -0.2530 C   0  0  0  0  0  0  0  0  0  0  0  0
   -2.2520   -3.6540    0.0490 O   0  0  0  0  0  0  0  0  0  0  0  0
   -4.3710   -3.3670   -0.6940 O   0  0  0  0  0  0  0  0  0  0  0  0
   -0.8060   -1.5010   -0.2820 H   0  0  0  0  0  0  0  0  0  0  0  0
   -3.6170   -0.9380    0.6140 H   0  0  0  0  0  0  0  0  0  0  0  0
   -4.1150   -0.9690   -1.8470 H   0  0  0  0  0  0  0  0  0  0  0  0
   -2.4180   -1.3080   -2.2150 H   0  0  0  0  0  0  0  0  0  0  0  0
   -0.6480    0.6590   -1.8630 H   0  0  0  0  0  0  0  0  0  0  0  0
   -0.8460    3.2450   -1.6720 H   0  0  0  0  0  0  0  0  0  0  0  0
   -3.3030    3.8540   -1.1790 H   0  0  0  0  0  0  0  0  0  0  0  0
  1  8  1  0  0  0  0
  2  1  1  0  0  0  0
  2 10  1  0  0  0  0
  3 12  1  0  0  0  0
  3  2  1  0  0  0  0
  4  3  1  0  0  0  0
  4  5  1  0  0  0  0
  5 15  1  6  0  0  0
  5  1  1  0  0  0  0
  5  6  1  0  0  0  0
  6  7  2  0  0  0  0
  9  2  1  0  0  0  0
 11  3  1  0  0  0  0
 13  4  1  0  0  0  0
 14  4  1  0  0  0  0
 16 25  1  0  0  0  0
 16 26  1  0  0  0  0
 17 16  1  0  0  0  0
 17 18  1  0  0  0  0
 18 29  1  1  0  0  0
 18 19  1  0  0  0  0
 19 31  1  0  0  0  0
 19 32  1  0  0  0  0
 20 18  1  0  0  0  0
 20 33  1  1  0  0  0
 21  6  1  0  0  0  0
 21 20  1  0  0  0  0
 22 20  1  0  0  0  0
 22 23  2  0  0  0  0
 24 16  1  0  0  0  0
 27 17  1  0  0  0  0
 28 17  1  0  0  0  0
 30 19  1  0  0  0  0
 34 21  1  0  0  0  0
 35 22  1  0  0  0  0
 36 35  1  0  0  0  0
 36 47  1  1  0  0  0
 37 38  1  0  0  0  0
 37 36  1  0  0  0  0
 38 42  1  0  0  0  0
 39 40  1  0  0  0  0
 39 38  2  0  0  0  0
 40 41  1  0  0  0  0
 41 42  2  0  0  0  0
 41 52  1  0  0  0  0
 43 36  1  0  0  0  0
 43 44  1  0  0  0  0
 45 43  2  0  0  0  0
 46 35  1  0  0  0  0
 48 37  1  0  0  0  0
 49 37  1  0  0  0  0
 50 39  1  0  0  0  0
 51 40  1  0  0  0  0
M  END
$$$$
