PIL.pdb
 OpenBabel07022419043D

 54 54  0  0  1  0  0  0  0  0999 V2000
    0.4760   -3.6760    0.8720 N   0  0  0  0  0  0  0  0  0  0  0  0
    0.9190   -4.9770    0.4330 C   0  0  0  0  0  0  0  0  0  0  0  0
    2.0770   -5.3670    1.3190 C   0  0  0  0  0  0  0  0  0  0  0  0
    2.6860   -4.0200    1.6540 C   0  0  0  0  0  0  0  0  0  0  0  0
    1.4570   -3.1540    1.7810 C   0  0  1  0  0  0  0  0  0  0  0  0
    1.7460   -1.7200    1.5610 C   0  0  0  0  0  0  0  0  0  0  0  0
    2.5860   -1.1630    2.3020 O   0  0  0  0  0  0  0  0  0  0  0  0
   -0.4640   -3.8240    1.3470 H   0  0  0  0  0  0  0  0  0  0  0  0
    1.3180   -4.8580   -0.6050 H   0  0  0  0  0  0  0  0  0  0  0  0
    0.1050   -5.7330    0.4690 H   0  0  0  0  0  0  0  0  0  0  0  0
    2.8250   -5.9840    0.7610 H   0  0  0  0  0  0  0  0  0  0  0  0
    1.7190   -5.8910    2.2210 H   0  0  0  0  0  0  0  0  0  0  0  0
    3.2320   -4.1050    2.6320 H   0  0  0  0  0  0  0  0  0  0  0  0
    3.3100   -3.6570    0.8370 H   0  0  0  0  0  0  0  0  0  0  0  0
    1.0800   -3.2810    2.8270 H   0  0  0  0  0  0  0  0  0  0  0  0
    0.2700    0.7280   -2.5670 C   0  0  0  0  0  0  0  0  0  0  0  0
    1.6610    0.3310   -2.2260 C   0  0  0  0  0  0  0  0  0  0  0  0
    2.1750    0.7810   -0.8970 C   0  0  2  0  0  0  0  0  0  0  0  0
    3.6140    0.2570   -0.7930 C   0  0  0  0  0  0  0  0  0  0  0  0
    1.3790    0.4680    0.3100 C   0  0  2  0  0  0  0  0  0  0  0  0
    1.1330   -0.9200    0.5610 N   0  0  0  0  0  0  0  0  0  0  0  0
    0.3250    1.3820    0.7280 C   0  0  0  0  0  0  0  0  0  0  0  0
    0.3480    2.6340    0.5610 O   0  0  0  0  0  0  0  0  0  0  0  0
   -0.4090   -0.1280   -2.7610 H   0  0  0  0  0  0  0  0  0  0  0  0
   -0.1360    1.3950   -1.7860 H   0  0  0  0  0  0  0  0  0  0  0  0
    0.1980    1.3420   -3.5160 H   0  0  0  0  0  0  0  0  0  0  0  0
    2.3250    0.8440   -2.9940 H   0  0  0  0  0  0  0  0  0  0  0  0
    1.8780   -0.7440   -2.4340 H   0  0  0  0  0  0  0  0  0  0  0  0
    2.3110    1.8990   -1.0300 H   0  0  0  0  0  0  0  0  0  0  0  0
    4.0330    0.4210    0.2130 H   0  0  0  0  0  0  0  0  0  0  0  0
    3.6830   -0.7960   -1.1390 H   0  0  0  0  0  0  0  0  0  0  0  0
    4.2850    0.8290   -1.4910 H   0  0  0  0  0  0  0  0  0  0  0  0
    2.1750    0.6870    1.1380 H   0  0  0  0  0  0  0  0  0  0  0  0
    0.4290   -1.4840   -0.0230 H   0  0  0  0  0  0  0  0  0  0  0  0
   -5.0670    0.3710    0.0790 C   0  0  0  0  0  0  0  0  0  0  0  0
   -3.6250    0.9050    0.1310 C   0  0  0  0  0  0  0  0  0  0  0  0
   -2.7810   -0.2460   -0.3960 C   0  0  0  0  0  0  0  0  0  0  0  0
   -3.2640    1.1610    1.5530 C   0  0  0  0  0  0  0  0  0  0  0  0
   -1.9170    1.7010    1.8250 C   0  0  2  0  0  0  0  0  0  0  0  0
   -0.8300    0.8690    1.3770 N   0  0  0  0  0  0  0  0  0  0  0  0
   -1.7690    1.7940    3.3220 C   0  0  0  0  0  0  0  0  0  0  0  0
   -2.5900    2.4670    3.9940 O   0  0  0  0  0  0  0  0  0  0  0  0
   -0.7410    1.1480    3.9770 O   0  0  0  0  0  0  0  0  0  0  0  0
   -5.7880    1.1050    0.4380 H   0  0  0  0  0  0  0  0  0  0  0  0
   -5.2410    0.1320   -1.0010 H   0  0  0  0  0  0  0  0  0  0  0  0
   -5.0930   -0.6000    0.6290 H   0  0  0  0  0  0  0  0  0  0  0  0
   -3.5920    1.7950   -0.4990 H   0  0  0  0  0  0  0  0  0  0  0  0
   -3.2630   -0.7030   -1.3000 H   0  0  0  0  0  0  0  0  0  0  0  0
   -2.7450   -1.0590    0.3550 H   0  0  0  0  0  0  0  0  0  0  0  0
   -1.7730    0.0290   -0.6870 H   0  0  0  0  0  0  0  0  0  0  0  0
   -3.3900    0.2220    2.1710 H   0  0  0  0  0  0  0  0  0  0  0  0
   -4.0230    1.8630    1.9880 H   0  0  0  0  0  0  0  0  0  0  0  0
   -1.7390    2.7210    1.3820 H   0  0  0  0  0  0  0  0  0  0  0  0
   -0.8610   -0.1550    1.5210 H   0  0  0  0  0  0  0  0  0  0  0  0
  1  8  1  0  0  0  0
  1  5  1  0  0  0  0
  2 10  1  0  0  0  0
  2  1  1  0  0  0  0
  2  3  1  0  0  0  0
  3  4  1  0  0  0  0
  3 12  1  0  0  0  0
  4  5  1  0  0  0  0
  4 13  1  0  0  0  0
  5 15  1  1  0  0  0
  6  5  1  0  0  0  0
  6  7  2  0  0  0  0
  9  2  1  0  0  0  0
 11  3  1  0  0  0  0
 14  4  1  0  0  0  0
 16 17  1  0  0  0  0
 16 25  1  0  0  0  0
 17 18  1  0  0  0  0
 18 29  1  6  0  0  0
 18 19  1  0  0  0  0
 18 20  1  0  0  0  0
 19 30  1  0  0  0  0
 20 21  1  0  0  0  0
 20 22  1  0  0  0  0
 20 33  1  1  0  0  0
 21  6  1  0  0  0  0
 22 40  1  0  0  0  0
 23 22  2  0  0  0  0
 24 16  1  0  0  0  0
 26 16  1  0  0  0  0
 27 17  1  0  0  0  0
 28 17  1  0  0  0  0
 31 19  1  0  0  0  0
 32 19  1  0  0  0  0
 34 21  1  0  0  0  0
 35 36  1  0  0  0  0
 35 44  1  0  0  0  0
 35 46  1  0  0  0  0
 36 38  1  0  0  0  0
 37 36  1  0  0  0  0
 37 49  1  0  0  0  0
 38 39  1  0  0  0  0
 38 52  1  0  0  0  0
 38 51  1  0  0  0  0
 39 53  1  6  0  0  0
 39 41  1  0  0  0  0
 40 54  1  0  0  0  0
 40 39  1  0  0  0  0
 41 43  2  0  0  0  0
 41 42  1  0  0  0  0
 45 35  1  0  0  0  0
 47 36  1  0  0  0  0
 48 37  1  0  0  0  0
 50 37  1  0  0  0  0
M  END
$$$$
