PIM.pdb
 OpenBabel07022419043D

 52 52  0  0  1  0  0  0  0  0999 V2000
    0.3770   -0.6430    5.0160 N   0  0  0  0  0  0  0  0  0  0  0  0
   -0.3750   -1.1220    6.1780 C   0  0  0  0  0  0  0  0  0  0  0  0
   -1.3300   -2.1730    5.6870 C   0  0  0  0  0  0  0  0  0  0  0  0
   -0.8880   -2.4840    4.2730 C   0  0  0  0  0  0  0  0  0  0  0  0
    0.4250   -1.7520    4.1150 C   0  0  1  0  0  0  0  0  0  0  0  0
    0.5950   -1.3640    2.6820 C   0  0  0  0  0  0  0  0  0  0  0  0
    0.5920   -2.3050    1.8210 O   0  0  0  0  0  0  0  0  0  0  0  0
   -0.1810    0.1800    4.6640 H   0  0  0  0  0  0  0  0  0  0  0  0
   -0.8640   -0.2950    6.7220 H   0  0  0  0  0  0  0  0  0  0  0  0
    0.3370   -1.6030    6.8750 H   0  0  0  0  0  0  0  0  0  0  0  0
   -1.2670   -3.1200    6.2710 H   0  0  0  0  0  0  0  0  0  0  0  0
   -2.3810   -1.8230    5.7320 H   0  0  0  0  0  0  0  0  0  0  0  0
   -0.8210   -3.5590    4.0860 H   0  0  0  0  0  0  0  0  0  0  0  0
   -1.6730   -2.0730    3.5960 H   0  0  0  0  0  0  0  0  0  0  0  0
    1.2380   -2.4310    4.4030 H   0  0  0  0  0  0  0  0  0  0  0  0
    4.3020    1.0240   -0.7550 C   0  0  0  0  0  0  0  0  0  0  0  0
    2.7810    0.7630   -0.8210 C   0  0  0  0  0  0  0  0  0  0  0  0
    2.3200    0.3860    0.5360 C   0  0  2  0  0  0  0  0  0  0  0  0
    3.0790   -0.8810    0.9310 C   0  0  0  0  0  0  0  0  0  0  0  0
    0.9040    0.3610    0.8670 C   0  0  2  0  0  0  0  0  0  0  0  0
    0.7550   -0.0370    2.2540 N   0  0  0  0  0  0  0  0  0  0  0  0
   -0.0880   -0.2830    0.0270 C   0  0  0  0  0  0  0  0  0  0  0  0
   -0.9700   -1.0020    0.5640 O   0  0  0  0  0  0  0  0  0  0  0  0
    4.5780    1.8390   -1.4530 H   0  0  0  0  0  0  0  0  0  0  0  0
    4.5570    1.2650    0.2960 H   0  0  0  0  0  0  0  0  0  0  0  0
    4.8240    0.0840   -1.0090 H   0  0  0  0  0  0  0  0  0  0  0  0
    2.7020   -0.0450   -1.5760 H   0  0  0  0  0  0  0  0  0  0  0  0
    2.2870    1.6530   -1.2630 H   0  0  0  0  0  0  0  0  0  0  0  0
    2.7870    1.1550    1.2650 H   0  0  0  0  0  0  0  0  0  0  0  0
    2.9990   -1.1060    2.0090 H   0  0  0  0  0  0  0  0  0  0  0  0
    2.7610   -1.7340    0.3060 H   0  0  0  0  0  0  0  0  0  0  0  0
    4.1690   -0.7530    0.7170 H   0  0  0  0  0  0  0  0  0  0  0  0
    0.4950    1.4640    0.9020 H   0  0  0  0  0  0  0  0  0  0  0  0
    0.7710    0.6990    3.0200 H   0  0  0  0  0  0  0  0  0  0  0  0
   -5.1490   -0.3230   -1.4070 C   0  0  0  0  0  0  0  0  0  0  0  0
   -4.3090   -1.5160   -2.4910 S   0  0  0  0  0  0  0  0  0  0  0  0
   -3.2220   -0.5890   -3.6070 C   0  0  0  0  0  0  0  0  0  0  0  0
   -2.1140    0.0710   -2.8660 C   0  0  0  0  0  0  0  0  0  0  0  0
   -1.2810   -0.9310   -2.1110 C   0  0  2  0  0  0  0  0  0  0  0  0
   -0.2030   -0.2050   -1.3820 N   0  0  0  0  0  0  0  0  0  0  0  0
   -0.6120   -1.8460   -3.0580 C   0  0  0  0  0  0  0  0  0  0  0  0
   -1.2510   -2.6530   -3.7590 O   0  0  0  0  0  0  0  0  0  0  0  0
    0.7680   -1.8470   -3.2090 O   0  0  0  0  0  0  0  0  0  0  0  0
   -4.6810   -0.2720   -0.4100 H   0  0  0  0  0  0  0  0  0  0  0  0
   -6.2220   -0.6270   -1.3710 H   0  0  0  0  0  0  0  0  0  0  0  0
   -5.1330    0.6980   -1.8330 H   0  0  0  0  0  0  0  0  0  0  0  0
   -2.8250   -1.2320   -4.4020 H   0  0  0  0  0  0  0  0  0  0  0  0
   -3.8180    0.1950   -4.1650 H   0  0  0  0  0  0  0  0  0  0  0  0
   -1.4910    0.6020   -3.6480 H   0  0  0  0  0  0  0  0  0  0  0  0
   -2.4540    0.9010   -2.2080 H   0  0  0  0  0  0  0  0  0  0  0  0
   -1.8800   -1.4700   -1.3510 H   0  0  0  0  0  0  0  0  0  0  0  0
    0.4500    0.3650   -1.9360 H   0  0  0  0  0  0  0  0  0  0  0  0
  1  2  1  0  0  0  0
  2  9  1  0  0  0  0
  2 10  1  0  0  0  0
  3 12  1  0  0  0  0
  3  2  1  0  0  0  0
  3 11  1  0  0  0  0
  4  3  1  0  0  0  0
  5  4  1  0  0  0  0
  5 15  1  1  0  0  0
  5  1  1  0  0  0  0
  6  5  1  0  0  0  0
  7  6  2  0  0  0  0
  8  1  1  0  0  0  0
 13  4  1  0  0  0  0
 14  4  1  0  0  0  0
 16 25  1  0  0  0  0
 17 16  1  0  0  0  0
 17 18  1  0  0  0  0
 18 20  1  0  0  0  0
 18 19  1  0  0  0  0
 18 29  1  1  0  0  0
 19 30  1  0  0  0  0
 20 33  1  6  0  0  0
 20 21  1  0  0  0  0
 21  6  1  0  0  0  0
 21 34  1  0  0  0  0
 22 23  2  0  0  0  0
 22 20  1  0  0  0  0
 24 16  1  0  0  0  0
 26 16  1  0  0  0  0
 27 17  1  0  0  0  0
 28 17  1  0  0  0  0
 31 19  1  0  0  0  0
 32 19  1  0  0  0  0
 35 45  1  0  0  0  0
 35 44  1  0  0  0  0
 36 35  1  0  0  0  0
 37 38  1  0  0  0  0
 37 36  1  0  0  0  0
 38 50  1  0  0  0  0
 38 39  1  0  0  0  0
 39 40  1  0  0  0  0
 39 51  1  1  0  0  0
 40 22  1  0  0  0  0
 41 39  1  0  0  0  0
 42 41  2  0  0  0  0
 43 41  1  0  0  0  0
 46 35  1  0  0  0  0
 47 37  1  0  0  0  0
 48 37  1  0  0  0  0
 49 38  1  0  0  0  0
 52 40  1  0  0  0  0
M  END
$$$$
