PIQ.pdb
 OpenBabel07022419043D

 52 52  0  0  1  0  0  0  0  0999 V2000
    0.2780   -3.2780    0.6760 N   0  0  0  0  0  0  0  0  0  0  0  0
    0.7690   -4.3600   -0.1170 C   0  0  0  0  0  0  0  0  0  0  0  0
    1.8830   -5.0180    0.7050 C   0  0  0  0  0  0  0  0  0  0  0  0
    2.4590   -3.8100    1.4140 C   0  0  0  0  0  0  0  0  0  0  0  0
    1.2100   -3.0200    1.7360 C   0  0  1  0  0  0  0  0  0  0  0  0
    1.4700   -1.5670    1.8030 C   0  0  0  0  0  0  0  0  0  0  0  0
    2.2590   -1.0550    2.6510 O   0  0  0  0  0  0  0  0  0  0  0  0
   -0.6940   -3.4170    1.0280 H   0  0  0  0  0  0  0  0  0  0  0  0
   -0.0440   -5.0720   -0.3420 H   0  0  0  0  0  0  0  0  0  0  0  0
    1.2430   -3.9800   -1.0630 H   0  0  0  0  0  0  0  0  0  0  0  0
    1.3660   -5.6750    1.4340 H   0  0  0  0  0  0  0  0  0  0  0  0
    2.6060   -5.5360    0.0750 H   0  0  0  0  0  0  0  0  0  0  0  0
    3.0720   -3.2460    0.6850 H   0  0  0  0  0  0  0  0  0  0  0  0
    3.0360   -4.0820    2.3060 H   0  0  0  0  0  0  0  0  0  0  0  0
    0.7890   -3.3130    2.7270 H   0  0  0  0  0  0  0  0  0  0  0  0
    3.9330    0.8740   -0.0890 C   0  0  0  0  0  0  0  0  0  0  0  0
    2.7540    0.4350   -0.8930 C   0  0  0  0  0  0  0  0  0  0  0  0
    1.4710    1.1050   -0.5060 C   0  0  2  0  0  0  0  0  0  0  0  0
    1.6050    2.5870   -0.6890 C   0  0  0  0  0  0  0  0  0  0  0  0
    1.0070    0.7170    0.8780 C   0  0  2  0  0  0  0  0  0  0  0  0
    0.8100   -0.7140    0.8810 N   0  0  0  0  0  0  0  0  0  0  0  0
   -0.2720    1.3780    1.1740 C   0  0  0  0  0  0  0  0  0  0  0  0
   -0.4000    2.6290    1.2470 O   0  0  0  0  0  0  0  0  0  0  0  0
    3.7480    1.7860    0.5140 H   0  0  0  0  0  0  0  0  0  0  0  0
    4.7790    1.1420   -0.7750 H   0  0  0  0  0  0  0  0  0  0  0  0
    4.3210    0.0270    0.5280 H   0  0  0  0  0  0  0  0  0  0  0  0
    2.6570   -0.6850   -0.8170 H   0  0  0  0  0  0  0  0  0  0  0  0
    2.9280    0.6340   -1.9710 H   0  0  0  0  0  0  0  0  0  0  0  0
    0.6860    0.7560   -1.2140 H   0  0  0  0  0  0  0  0  0  0  0  0
    0.6040    3.0170   -0.9150 H   0  0  0  0  0  0  0  0  0  0  0  0
    2.1330    3.1010    0.1210 H   0  0  0  0  0  0  0  0  0  0  0  0
    2.2160    2.7380   -1.6240 H   0  0  0  0  0  0  0  0  0  0  0  0
    1.7430    0.9910    1.6620 H   0  0  0  0  0  0  0  0  0  0  0  0
    0.1510   -1.1000    0.1620 H   0  0  0  0  0  0  0  0  0  0  0  0
   -2.9980   -2.1570   -0.9700 N   0  0  0  0  0  0  0  0  0  0  0  0
   -2.9840   -0.7660   -0.7340 C   0  0  0  0  0  0  0  0  0  0  0  0
   -2.0280   -0.0790   -1.1370 O   0  0  0  0  0  0  0  0  0  0  0  0
   -4.0980   -0.1310   -0.0180 C   0  0  0  0  0  0  0  0  0  0  0  0
   -3.7250    1.1640    0.6000 C   0  0  0  0  0  0  0  0  0  0  0  0
   -2.7150    1.1310    1.6910 C   0  0  2  0  0  0  0  0  0  0  0  0
   -1.4300    0.5890    1.3930 N   0  0  0  0  0  0  0  0  0  0  0  0
   -3.3150    0.4790    2.8780 C   0  0  0  0  0  0  0  0  0  0  0  0
   -2.6690   -0.4410    3.4780 O   0  0  0  0  0  0  0  0  0  0  0  0
   -4.5470    0.8210    3.3690 O   0  0  0  0  0  0  0  0  0  0  0  0
   -2.8880   -2.8260   -0.1660 H   0  0  0  0  0  0  0  0  0  0  0  0
   -3.1160   -2.5260   -1.9350 H   0  0  0  0  0  0  0  0  0  0  0  0
   -4.5430   -0.8250    0.7310 H   0  0  0  0  0  0  0  0  0  0  0  0
   -4.9100    0.0840   -0.7700 H   0  0  0  0  0  0  0  0  0  0  0  0
   -4.6620    1.6080    1.0410 H   0  0  0  0  0  0  0  0  0  0  0  0
   -3.4590    1.8640   -0.2280 H   0  0  0  0  0  0  0  0  0  0  0  0
   -2.5520    2.2260    1.9920 H   0  0  0  0  0  0  0  0  0  0  0  0
   -1.3610   -0.4750    1.3650 H   0  0  0  0  0  0  0  0  0  0  0  0
  1  8  1  0  0  0  0
  1  5  1  0  0  0  0
  2  1  1  0  0  0  0
  2  3  1  0  0  0  0
  3  4  1  0  0  0  0
  3 11  1  0  0  0  0
  4  5  1  0  0  0  0
  4 14  1  0  0  0  0
  5  6  1  0  0  0  0
  5 15  1  1  0  0  0
  6  7  2  0  0  0  0
  9  2  1  0  0  0  0
 10  2  1  0  0  0  0
 12  3  1  0  0  0  0
 13  4  1  0  0  0  0
 16 24  1  0  0  0  0
 16 26  1  0  0  0  0
 17 27  1  0  0  0  0
 17 18  1  0  0  0  0
 17 16  1  0  0  0  0
 18 29  1  6  0  0  0
 18 20  1  0  0  0  0
 19 18  1  0  0  0  0
 19 31  1  0  0  0  0
 20 21  1  0  0  0  0
 20 22  1  0  0  0  0
 20 33  1  1  0  0  0
 21  6  1  0  0  0  0
 22 23  2  0  0  0  0
 22 41  1  0  0  0  0
 25 16  1  0  0  0  0
 28 17  1  0  0  0  0
 30 19  1  0  0  0  0
 32 19  1  0  0  0  0
 34 21  1  0  0  0  0
 35 36  1  0  0  0  0
 35 45  1  0  0  0  0
 36 38  1  0  0  0  0
 37 36  2  0  0  0  0
 38 39  1  0  0  0  0
 38 47  1  0  0  0  0
 39 49  1  0  0  0  0
 39 40  1  0  0  0  0
 40 51  1  1  0  0  0
 40 42  1  0  0  0  0
 41 40  1  0  0  0  0
 42 44  2  0  0  0  0
 42 43  1  0  0  0  0
 46 35  1  0  0  0  0
 48 38  1  0  0  0  0
 50 39  1  0  0  0  0
 52 41  1  0  0  0  0
M  END
$$$$
