PIT.pdb
 OpenBabel07022419043D

 49 49  0  0  1  0  0  0  0  0999 V2000
    2.3690   -3.6390   -1.2180 N   0  0  0  0  0  0  0  0  0  0  0  0
    1.6920   -4.5280   -2.1460 C   0  0  0  0  0  0  0  0  0  0  0  0
    0.2350   -4.4290   -1.7630 C   0  0  0  0  0  0  0  0  0  0  0  0
    0.1380   -3.0610   -1.1210 C   0  0  0  0  0  0  0  0  0  0  0  0
    1.5360   -2.4780   -1.1440 C   0  0  1  0  0  0  0  0  0  0  0  0
    1.7610   -1.6920    0.0980 C   0  0  0  0  0  0  0  0  0  0  0  0
    2.6070   -2.0860    0.9240 O   0  0  0  0  0  0  0  0  0  0  0  0
    3.3210   -3.3710   -1.5860 H   0  0  0  0  0  0  0  0  0  0  0  0
    1.7840   -4.1730   -3.1950 H   0  0  0  0  0  0  0  0  0  0  0  0
    2.0750   -5.5720   -2.0650 H   0  0  0  0  0  0  0  0  0  0  0  0
    0.0160   -5.1800   -0.9770 H   0  0  0  0  0  0  0  0  0  0  0  0
   -0.4480   -4.5420   -2.6300 H   0  0  0  0  0  0  0  0  0  0  0  0
   -0.1620   -3.1330   -0.0490 H   0  0  0  0  0  0  0  0  0  0  0  0
   -0.5940   -2.4060   -1.6610 H   0  0  0  0  0  0  0  0  0  0  0  0
    1.5980   -1.8250   -2.0390 H   0  0  0  0  0  0  0  0  0  0  0  0
    3.2290    3.0660   -0.0900 C   0  0  0  0  0  0  0  0  0  0  0  0
    2.9220    1.6470    0.3270 C   0  0  0  0  0  0  0  0  0  0  0  0
    1.6480    1.6840    1.1520 C   0  0  2  0  0  0  0  0  0  0  0  0
    1.9100    2.5650    2.3440 C   0  0  0  0  0  0  0  0  0  0  0  0
    1.2490    0.2710    1.5790 C   0  0  2  0  0  0  0  0  0  0  0  0
    1.0380   -0.5000    0.3750 N   0  0  0  0  0  0  0  0  0  0  0  0
   -0.0270    0.3910    2.3220 C   0  0  0  0  0  0  0  0  0  0  0  0
   -0.1130    1.0230    3.4060 O   0  0  0  0  0  0  0  0  0  0  0  0
    3.6040    3.0880   -1.1500 H   0  0  0  0  0  0  0  0  0  0  0  0
    2.3180    3.7120   -0.0860 H   0  0  0  0  0  0  0  0  0  0  0  0
    3.9580    3.5540    0.5870 H   0  0  0  0  0  0  0  0  0  0  0  0
    3.7520    1.2890    0.9490 H   0  0  0  0  0  0  0  0  0  0  0  0
    2.8120    0.9870   -0.5610 H   0  0  0  0  0  0  0  0  0  0  0  0
    0.8340    2.0700    0.5050 H   0  0  0  0  0  0  0  0  0  0  0  0
    2.6720    3.3450    2.1570 H   0  0  0  0  0  0  0  0  0  0  0  0
    2.3590    1.9010    3.1390 H   0  0  0  0  0  0  0  0  0  0  0  0
    0.9560    2.9820    2.7090 H   0  0  0  0  0  0  0  0  0  0  0  0
    2.0410   -0.1870    2.2100 H   0  0  0  0  0  0  0  0  0  0  0  0
    0.3390   -0.2010   -0.3430 H   0  0  0  0  0  0  0  0  0  0  0  0
   -3.8210   -0.3700    0.3340 C   0  0  0  0  0  0  0  0  0  0  0  0
   -3.5560    0.4170    1.5760 C   0  0  1  0  0  0  0  0  0  0  0  0
   -4.7380    0.3910    2.3460 O   0  0  0  0  0  0  0  0  0  0  0  0
   -2.4790   -0.1660    2.4480 C   0  0  2  0  0  0  0  0  0  0  0  0
   -1.1880   -0.2170    1.8120 N   0  0  0  0  0  0  0  0  0  0  0  0
   -2.8750   -1.5580    2.7840 C   0  0  0  0  0  0  0  0  0  0  0  0
   -3.9830   -1.8120    3.3590 O   0  0  0  0  0  0  0  0  0  0  0  0
   -2.0500   -2.6270    2.4830 O   0  0  0  0  0  0  0  0  0  0  0  0
   -3.8630    0.2400   -0.5900 H   0  0  0  0  0  0  0  0  0  0  0  0
   -3.0660   -1.1810    0.1790 H   0  0  0  0  0  0  0  0  0  0  0  0
   -4.8090   -0.9160    0.3660 H   0  0  0  0  0  0  0  0  0  0  0  0
   -3.3820    1.5070    1.3690 H   0  0  0  0  0  0  0  0  0  0  0  0
   -4.6830    1.0020    3.1170 H   0  0  0  0  0  0  0  0  0  0  0  0
   -2.4600    0.4070    3.3880 H   0  0  0  0  0  0  0  0  0  0  0  0
   -1.1660   -0.7650    0.8990 H   0  0  0  0  0  0  0  0  0  0  0  0
  1  5  1  0  0  0  0
  2 10  1  0  0  0  0
  2  3  1  0  0  0  0
  2  1  1  0  0  0  0
  3  4  1  0  0  0  0
  3 11  1  0  0  0  0
  4 13  1  0  0  0  0
  5 15  1  6  0  0  0
  5  4  1  0  0  0  0
  5  6  1  0  0  0  0
  6 21  1  0  0  0  0
  6  7  2  0  0  0  0
  8  1  1  0  0  0  0
  9  2  1  0  0  0  0
 12  3  1  0  0  0  0
 14  4  1  0  0  0  0
 16 25  1  0  0  0  0
 16 17  1  0  0  0  0
 16 26  1  0  0  0  0
 17 27  1  0  0  0  0
 17 18  1  0  0  0  0
 18 29  1  6  0  0  0
 18 20  1  0  0  0  0
 18 19  1  0  0  0  0
 19 32  1  0  0  0  0
 19 31  1  0  0  0  0
 20 33  1  1  0  0  0
 20 22  1  0  0  0  0
 21 20  1  0  0  0  0
 22 23  2  0  0  0  0
 24 16  1  0  0  0  0
 28 17  1  0  0  0  0
 30 19  1  0  0  0  0
 34 21  1  0  0  0  0
 35 45  1  0  0  0  0
 35 36  1  0  0  0  0
 36 46  1  6  0  0  0
 36 37  1  0  0  0  0
 36 38  1  0  0  0  0
 37 47  1  0  0  0  0
 38 40  1  0  0  0  0
 38 48  1  1  0  0  0
 39 22  1  0  0  0  0
 39 38  1  0  0  0  0
 40 41  1  0  0  0  0
 42 40  2  0  0  0  0
 43 35  1  0  0  0  0
 44 35  1  0  0  0  0
 49 39  1  0  0  0  0
M  END
$$$$
