PIW.pdb
 OpenBabel07022419043D

 59 61  0  0  1  0  0  0  0  0999 V2000
   -1.1890    3.2870    1.4400 N   0  0  0  0  0  0  0  0  0  0  0  0
   -1.3650    4.7420    1.5870 C   0  0  0  0  0  0  0  0  0  0  0  0
    0.1110    5.1590    1.5610 C   0  0  0  0  0  0  0  0  0  0  0  0
    0.5530    4.4340    0.3070 C   0  0  0  0  0  0  0  0  0  0  0  0
   -0.4020    3.2730    0.2080 C   0  0  1  0  0  0  0  0  0  0  0  0
    0.3130    1.9830    0.0230 C   0  0  0  0  0  0  0  0  0  0  0  0
    1.0120    1.8720   -1.0090 O   0  0  0  0  0  0  0  0  0  0  0  0
   -0.5280    2.9680    2.2110 H   0  0  0  0  0  0  0  0  0  0  0  0
   -1.8630    5.0150    2.5100 H   0  0  0  0  0  0  0  0  0  0  0  0
   -1.8120    5.0940    0.6600 H   0  0  0  0  0  0  0  0  0  0  0  0
    0.2300    6.2380    1.5170 H   0  0  0  0  0  0  0  0  0  0  0  0
    0.5590    4.6770    2.4580 H   0  0  0  0  0  0  0  0  0  0  0  0
    0.3570    5.1330   -0.5490 H   0  0  0  0  0  0  0  0  0  0  0  0
    1.6120    4.1110    0.3540 H   0  0  0  0  0  0  0  0  0  0  0  0
   -1.1200    3.4320   -0.6290 H   0  0  0  0  0  0  0  0  0  0  0  0
    3.5970    0.2090    3.3990 C   0  0  0  0  0  0  0  0  0  0  0  0
    2.8020    0.5020    2.1520 C   0  0  0  0  0  0  0  0  0  0  0  0
    1.8000   -0.6130    1.9520 C   0  0  2  0  0  0  0  0  0  0  0  0
    2.4760   -1.9430    1.7960 C   0  0  0  0  0  0  0  0  0  0  0  0
    0.9580   -0.3560    0.7270 C   0  0  2  0  0  0  0  0  0  0  0  0
    0.2590    0.8940    0.9150 N   0  0  0  0  0  0  0  0  0  0  0  0
   -0.0660   -1.4520    0.6330 C   0  0  0  0  0  0  0  0  0  0  0  0
    0.2950   -2.6420    0.4930 O   0  0  0  0  0  0  0  0  0  0  0  0
    3.0540   -0.5040    4.0210 H   0  0  0  0  0  0  0  0  0  0  0  0
    4.5940   -0.1980    3.1280 H   0  0  0  0  0  0  0  0  0  0  0  0
    3.7280    1.1470    3.9790 H   0  0  0  0  0  0  0  0  0  0  0  0
    3.4610    0.5310    1.2610 H   0  0  0  0  0  0  0  0  0  0  0  0
    2.2510    1.4560    2.2740 H   0  0  0  0  0  0  0  0  0  0  0  0
    1.1110   -0.6400    2.8160 H   0  0  0  0  0  0  0  0  0  0  0  0
    1.8730   -2.7860    2.2220 H   0  0  0  0  0  0  0  0  0  0  0  0
    2.5960   -2.1460    0.7160 H   0  0  0  0  0  0  0  0  0  0  0  0
    3.4910   -1.9120    2.2500 H   0  0  0  0  0  0  0  0  0  0  0  0
    1.5720   -0.3350   -0.2100 H   0  0  0  0  0  0  0  0  0  0  0  0
   -0.3220    0.9890    1.7790 H   0  0  0  0  0  0  0  0  0  0  0  0
   -1.4370   -1.1380    0.7010 N   0  0  0  0  0  0  0  0  0  0  0  0
   -2.5360   -2.0790    0.6380 C   0  0  1  0  0  0  0  0  0  0  0  0
   -2.9170   -2.3620   -0.7760 C   0  0  0  0  0  0  0  0  0  0  0  0
   -1.8380   -2.9050   -1.6130 C   0  0  0  0  0  0  0  0  0  0  0  0
   -1.0150   -2.0940   -2.4260 C   0  0  0  0  0  0  0  0  0  0  0  0
   -0.1290   -2.8960   -3.0090 N   0  0  0  0  0  0  0  0  0  0  0  0
   -0.3090   -4.1730   -2.6390 C   0  0  0  0  0  0  0  0  0  0  0  0
    0.3190   -5.3480   -2.9560 C   0  0  0  0  0  0  0  0  0  0  0  0
   -0.0870   -6.5420   -2.4290 C   0  0  0  0  0  0  0  0  0  0  0  0
   -1.1490   -6.5850   -1.5590 C   0  0  0  0  0  0  0  0  0  0  0  0
   -1.7900   -5.3990   -1.2330 C   0  0  0  0  0  0  0  0  0  0  0  0
   -1.3830   -4.1930   -1.7600 C   0  0  0  0  0  0  0  0  0  0  0  0
   -2.3470   -3.2350    1.5000 C   0  0  0  0  0  0  0  0  0  0  0  0
   -1.3330   -3.4410    2.1670 O   0  0  0  0  0  0  0  0  0  0  0  0
   -3.3680   -4.1860    1.6010 O   0  0  0  0  0  0  0  0  0  0  0  0
   -1.6980   -0.1130    0.8040 H   0  0  0  0  0  0  0  0  0  0  0  0
   -3.4430   -1.5440    1.1400 H   0  0  0  0  0  0  0  0  0  0  0  0
   -3.3000   -1.4330   -1.2740 H   0  0  0  0  0  0  0  0  0  0  0  0
   -3.7520   -3.1240   -0.7640 H   0  0  0  0  0  0  0  0  0  0  0  0
   -1.1390   -1.0270   -2.5120 H   0  0  0  0  0  0  0  0  0  0  0  0
    0.6240   -2.5910   -3.6760 H   0  0  0  0  0  0  0  0  0  0  0  0
    1.1620   -5.3090   -3.6480 H   0  0  0  0  0  0  0  0  0  0  0  0
    0.3960   -7.4950   -2.6650 H   0  0  0  0  0  0  0  0  0  0  0  0
   -1.5110   -7.5130   -1.1130 H   0  0  0  0  0  0  0  0  0  0  0  0
   -2.6290   -5.4060   -0.5710 H   0  0  0  0  0  0  0  0  0  0  0  0
  1  2  1  0  0  0  0
  1  8  1  0  0  0  0
  2  9  1  0  0  0  0
  3  2  1  0  0  0  0
  3 12  1  0  0  0  0
  4 14  1  0  0  0  0
  4  3  1  0  0  0  0
  5 15  1  6  0  0  0
  5  4  1  0  0  0  0
  5  1  1  0  0  0  0
  6  5  1  0  0  0  0
  6 21  1  0  0  0  0
  7  6  2  0  0  0  0
 10  2  1  0  0  0  0
 11  3  1  0  0  0  0
 13  4  1  0  0  0  0
 16 26  1  0  0  0  0
 16 24  1  0  0  0  0
 17 28  1  0  0  0  0
 17 16  1  0  0  0  0
 18 17  1  0  0  0  0
 18 29  1  1  0  0  0
 19 18  1  0  0  0  0
 19 30  1  0  0  0  0
 19 32  1  0  0  0  0
 20 33  1  6  0  0  0
 20 21  1  0  0  0  0
 20 18  1  0  0  0  0
 21 34  1  0  0  0  0
 22 35  1  0  0  0  0
 22 20  1  0  0  0  0
 23 22  2  0  0  0  0
 25 16  1  0  0  0  0
 27 17  1  0  0  0  0
 31 19  1  0  0  0  0
 35 50  1  0  0  0  0
 36 35  1  0  0  0  0
 36 51  1  1  0  0  0
 36 47  1  0  0  0  0
 37 53  1  0  0  0  0
 37 36  1  0  0  0  0
 38 37  1  0  0  0  0
 39 38  2  0  0  0  0
 40 41  1  0  0  0  0
 40 39  1  0  0  0  0
 41 46  1  0  0  0  0
 42 41  2  0  0  0  0
 42 43  1  0  0  0  0
 43 44  2  0  0  0  0
 44 45  1  0  0  0  0
 44 58  1  0  0  0  0
 45 59  1  0  0  0  0
 46 38  1  0  0  0  0
 46 45  2  0  0  0  0
 47 49  2  0  0  0  0
 47 48  1  0  0  0  0
 52 37  1  0  0  0  0
 54 39  1  0  0  0  0
 55 40  1  0  0  0  0
 56 42  1  0  0  0  0
 57 43  1  0  0  0  0
M  END
$$$$
