PIY.pdb
 OpenBabel07022419043D

 56 57  0  0  1  0  0  0  0  0999 V2000
    1.7420   -2.8330    2.4560 N   0  0  0  0  0  0  0  0  0  0  0  0
    3.0750   -2.8110    1.9080 C   0  0  0  0  0  0  0  0  0  0  0  0
    3.9180   -1.9350    2.7790 C   0  0  0  0  0  0  0  0  0  0  0  0
    3.0450   -1.4790    3.8990 C   0  0  0  0  0  0  0  0  0  0  0  0
    1.6450   -1.8260    3.4520 C   0  0  1  0  0  0  0  0  0  0  0  0
    0.9700   -0.6260    2.8990 C   0  0  0  0  0  0  0  0  0  0  0  0
    0.7720    0.4130    3.6240 O   0  0  0  0  0  0  0  0  0  0  0  0
    1.4580   -3.7820    2.7660 H   0  0  0  0  0  0  0  0  0  0  0  0
    3.1100   -2.4330    0.8650 H   0  0  0  0  0  0  0  0  0  0  0  0
    3.4360   -3.8590    1.8720 H   0  0  0  0  0  0  0  0  0  0  0  0
    4.3390   -1.0870    2.1960 H   0  0  0  0  0  0  0  0  0  0  0  0
    4.7960   -2.5100    3.1790 H   0  0  0  0  0  0  0  0  0  0  0  0
    3.1990   -0.3900    4.0370 H   0  0  0  0  0  0  0  0  0  0  0  0
    3.3070   -1.9560    4.8590 H   0  0  0  0  0  0  0  0  0  0  0  0
    1.1080   -2.1810    4.3800 H   0  0  0  0  0  0  0  0  0  0  0  0
    2.1720    2.5460    0.8680 C   0  0  0  0  0  0  0  0  0  0  0  0
    1.9970    1.3870   -0.0530 C   0  0  0  0  0  0  0  0  0  0  0  0
    0.5600    0.9970   -0.2640 C   0  0  2  0  0  0  0  0  0  0  0  0
   -0.1790    2.1560   -0.8510 C   0  0  0  0  0  0  0  0  0  0  0  0
   -0.1110    0.5080    0.9950 C   0  0  2  0  0  0  0  0  0  0  0  0
    0.5480   -0.6570    1.5430 N   0  0  0  0  0  0  0  0  0  0  0  0
   -1.4970    0.1400    0.6210 C   0  0  0  0  0  0  0  0  0  0  0  0
   -2.2900    0.9690    0.1210 O   0  0  0  0  0  0  0  0  0  0  0  0
    1.3730    2.6700    1.6060 H   0  0  0  0  0  0  0  0  0  0  0  0
    2.2940    3.4960    0.2810 H   0  0  0  0  0  0  0  0  0  0  0  0
    3.1230    2.4370    1.4350 H   0  0  0  0  0  0  0  0  0  0  0  0
    2.6230    0.5030    0.2640 H   0  0  0  0  0  0  0  0  0  0  0  0
    2.4010    1.6760   -1.0470 H   0  0  0  0  0  0  0  0  0  0  0  0
    0.5510    0.1590   -0.9900 H   0  0  0  0  0  0  0  0  0  0  0  0
   -0.6720    2.7860   -0.0800 H   0  0  0  0  0  0  0  0  0  0  0  0
    0.5560    2.8200   -1.3680 H   0  0  0  0  0  0  0  0  0  0  0  0
   -0.9150    1.7600   -1.5990 H   0  0  0  0  0  0  0  0  0  0  0  0
   -0.1900    1.2970    1.7680 H   0  0  0  0  0  0  0  0  0  0  0  0
    0.7260   -1.5260    0.9760 H   0  0  0  0  0  0  0  0  0  0  0  0
   -0.7920   -0.2770   -5.2170 O   0  0  0  0  0  0  0  0  0  0  0  0
   -1.3730   -0.8640   -4.0980 C   0  0  0  0  0  0  0  0  0  0  0  0
   -0.5860   -1.4660   -3.1380 C   0  0  0  0  0  0  0  0  0  0  0  0
   -1.1690   -2.0480   -2.0270 C   0  0  0  0  0  0  0  0  0  0  0  0
   -2.5390   -2.0570   -1.8230 C   0  0  0  0  0  0  0  0  0  0  0  0
   -3.1230   -2.6900   -0.6210 C   0  0  0  0  0  0  0  0  0  0  0  0
   -3.2420   -1.6760    0.5250 C   0  0  2  0  0  0  0  0  0  0  0  0
   -1.9320   -1.1860    0.8390 N   0  0  0  0  0  0  0  0  0  0  0  0
   -3.9500   -2.2510    1.6650 C   0  0  0  0  0  0  0  0  0  0  0  0
   -3.3990   -2.2790    2.7900 O   0  0  0  0  0  0  0  0  0  0  0  0
   -3.3140   -1.4500   -2.7930 C   0  0  0  0  0  0  0  0  0  0  0  0
   -2.7380   -0.8680   -3.9030 C   0  0  0  0  0  0  0  0  0  0  0  0
   -5.2240   -2.7730    1.5470 O   0  0  0  0  0  0  0  0  0  0  0  0
   -0.2790    0.5840   -5.0630 H   0  0  0  0  0  0  0  0  0  0  0  0
    0.5020   -1.4650   -3.2900 H   0  0  0  0  0  0  0  0  0  0  0  0
   -0.5520   -2.5260   -1.2650 H   0  0  0  0  0  0  0  0  0  0  0  0
   -2.4610   -3.5170   -0.3160 H   0  0  0  0  0  0  0  0  0  0  0  0
   -4.1170   -3.0940   -0.8920 H   0  0  0  0  0  0  0  0  0  0  0  0
   -3.8210   -0.8140    0.0880 H   0  0  0  0  0  0  0  0  0  0  0  0
   -1.2620   -1.8940    1.2640 H   0  0  0  0  0  0  0  0  0  0  0  0
   -4.3930   -1.4410   -2.6590 H   0  0  0  0  0  0  0  0  0  0  0  0
   -3.3320   -0.3850   -4.6770 H   0  0  0  0  0  0  0  0  0  0  0  0
  1  8  1  0  0  0  0
  1  5  1  0  0  0  0
  2  1  1  0  0  0  0
  2  3  1  0  0  0  0
  3 12  1  0  0  0  0
  3  4  1  0  0  0  0
  4 13  1  0  0  0  0
  4 14  1  0  0  0  0
  5  4  1  0  0  0  0
  5 15  1  1  0  0  0
  6  5  1  0  0  0  0
  6  7  2  0  0  0  0
  9  2  1  0  0  0  0
 10  2  1  0  0  0  0
 11  3  1  0  0  0  0
 16 26  1  0  0  0  0
 16 24  1  0  0  0  0
 17 27  1  0  0  0  0
 17 16  1  0  0  0  0
 18 29  1  6  0  0  0
 18 17  1  0  0  0  0
 18 20  1  0  0  0  0
 19 18  1  0  0  0  0
 19 30  1  0  0  0  0
 20 21  1  0  0  0  0
 20 33  1  1  0  0  0
 21  6  1  0  0  0  0
 22 42  1  0  0  0  0
 22 20  1  0  0  0  0
 23 22  2  0  0  0  0
 25 16  1  0  0  0  0
 28 17  1  0  0  0  0
 31 19  1  0  0  0  0
 32 19  1  0  0  0  0
 34 21  1  0  0  0  0
 35 48  1  0  0  0  0
 35 36  1  0  0  0  0
 36 46  2  0  0  0  0
 36 37  1  0  0  0  0
 37 38  2  0  0  0  0
 38 39  1  0  0  0  0
 38 50  1  0  0  0  0
 39 40  1  0  0  0  0
 40 51  1  0  0  0  0
 40 41  1  0  0  0  0
 41 53  1  6  0  0  0
 41 42  1  0  0  0  0
 41 43  1  0  0  0  0
 42 54  1  0  0  0  0
 43 44  1  0  0  0  0
 45 55  1  0  0  0  0
 45 39  2  0  0  0  0
 46 45  1  0  0  0  0
 47 43  2  0  0  0  0
 49 37  1  0  0  0  0
 52 40  1  0  0  0  0
 56 46  1  0  0  0  0
M  END
$$$$
