PKC.pdb
 OpenBabel07022419043D

 48 48  0  0  1  0  0  0  0  0999 V2000
    1.1890   -4.3970    0.9280 N   0  0  0  0  0  0  0  0  0  0  0  0
    1.1940   -5.4220    1.9620 C   0  0  0  0  0  0  0  0  0  0  0  0
    1.3980   -4.6170    3.2280 C   0  0  0  0  0  0  0  0  0  0  0  0
    0.8010   -3.2460    2.9490 C   0  0  0  0  0  0  0  0  0  0  0  0
    0.3820   -3.3690    1.5200 C   0  0  1  0  0  0  0  0  0  0  0  0
    0.5960   -2.0360    0.8450 C   0  0  0  0  0  0  0  0  0  0  0  0
    1.4030   -2.0050   -0.0900 O   0  0  0  0  0  0  0  0  0  0  0  0
    2.1720   -4.0680    0.8010 H   0  0  0  0  0  0  0  0  0  0  0  0
    0.1960   -5.9060    2.0300 H   0  0  0  0  0  0  0  0  0  0  0  0
    2.0010   -6.1650    1.8050 H   0  0  0  0  0  0  0  0  0  0  0  0
    2.4730   -4.4870    3.3710 H   0  0  0  0  0  0  0  0  0  0  0  0
    0.9130   -5.0920    4.1060 H   0  0  0  0  0  0  0  0  0  0  0  0
    1.5280   -2.4320    3.0530 H   0  0  0  0  0  0  0  0  0  0  0  0
   -0.0830   -3.0490    3.5920 H   0  0  0  0  0  0  0  0  0  0  0  0
   -0.6880   -3.5990    1.3880 H   0  0  0  0  0  0  0  0  0  0  0  0
   -0.0830   -0.8900    1.2540 N   0  0  0  0  0  0  0  0  0  0  0  0
    0.0230    0.4190    0.7380 C   0  0  1  0  0  0  0  0  0  0  0  0
    1.2880    0.7570   -0.0180 C   0  0  0  0  0  0  0  0  0  0  0  0
    2.5430    0.6980    0.7630 C   0  0  0  0  0  0  0  0  0  0  0  0
    2.5660    1.6540    1.9380 C   0  0  0  0  0  0  0  0  0  0  0  0
    2.4070    3.0950    1.4680 C   0  0  0  0  0  0  0  0  0  0  0  0
    3.5260    3.3990    0.5630 N   0  0  0  0  0  0  0  0  0  0  0  0
   -1.1460    0.7790   -0.0640 C   0  0  0  0  0  0  0  0  0  0  0  0
   -1.2460    1.9250   -0.6220 O   0  0  0  0  0  0  0  0  0  0  0  0
   -0.7700   -1.0320    2.0630 H   0  0  0  0  0  0  0  0  0  0  0  0
    0.1120    1.1380    1.6320 H   0  0  0  0  0  0  0  0  0  0  0  0
    1.1270    1.8140   -0.3800 H   0  0  0  0  0  0  0  0  0  0  0  0
    1.3930    0.1520   -0.9390 H   0  0  0  0  0  0  0  0  0  0  0  0
    3.3600    1.0860    0.0770 H   0  0  0  0  0  0  0  0  0  0  0  0
    2.9020   -0.2840    1.0780 H   0  0  0  0  0  0  0  0  0  0  0  0
    1.8110    1.4670    2.6970 H   0  0  0  0  0  0  0  0  0  0  0  0
    3.5740    1.5940    2.4080 H   0  0  0  0  0  0  0  0  0  0  0  0
    2.5310    3.7880    2.3230 H   0  0  0  0  0  0  0  0  0  0  0  0
    1.4420    3.2920    1.0040 H   0  0  0  0  0  0  0  0  0  0  0  0
    4.3620    2.9440    0.9840 H   0  0  0  0  0  0  0  0  0  0  0  0
    3.6710    4.4280    0.5900 H   0  0  0  0  0  0  0  0  0  0  0  0
   -2.2570   -0.0760   -0.3000 N   0  0  0  0  0  0  0  0  0  0  0  0
   -3.3980    0.2570   -1.0740 C   0  0  1  0  0  0  0  0  0  0  0  0
   -3.6760   -0.6510   -2.2300 C   0  0  0  0  0  0  0  0  0  0  0  0
   -2.3210   -0.7030   -3.4240 S   0  0  0  0  0  0  0  0  0  0  0  0
   -4.5930    0.2530   -0.1980 C   0  0  0  0  0  0  0  0  0  0  0  0
   -4.4810   -0.0190    1.0240 O   0  0  0  0  0  0  0  0  0  0  0  0
   -5.8690    0.5400   -0.6590 O   0  0  0  0  0  0  0  0  0  0  0  0
   -2.2220   -1.0240    0.1360 H   0  0  0  0  0  0  0  0  0  0  0  0
   -3.3120    1.2880   -1.4800 H   0  0  0  0  0  0  0  0  0  0  0  0
   -4.0220   -1.6590   -1.9250 H   0  0  0  0  0  0  0  0  0  0  0  0
   -4.5560   -0.2020   -2.7700 H   0  0  0  0  0  0  0  0  0  0  0  0
   -2.8510   -0.7920   -4.7370 H   0  0  0  0  0  0  0  0  0  0  0  0
  1  5  1  0  0  0  0
  1  2  1  0  0  0  0
  2  9  1  0  0  0  0
  2  3  1  0  0  0  0
  3 11  1  0  0  0  0
  3 12  1  0  0  0  0
  4 13  1  0  0  0  0
  4  3  1  0  0  0  0
  4 14  1  0  0  0  0
  5 15  1  6  0  0  0
  5  4  1  0  0  0  0
  6 16  1  0  0  0  0
  6  5  1  0  0  0  0
  7  6  2  0  0  0  0
  8  1  1  0  0  0  0
 10  2  1  0  0  0  0
 16 25  1  0  0  0  0
 17 16  1  0  0  0  0
 17 26  1  1  0  0  0
 18 17  1  0  0  0  0
 18 19  1  0  0  0  0
 19 30  1  0  0  0  0
 19 20  1  0  0  0  0
 20 32  1  0  0  0  0
 20 31  1  0  0  0  0
 21 20  1  0  0  0  0
 21 33  1  0  0  0  0
 22 36  1  0  0  0  0
 22 35  1  0  0  0  0
 22 21  1  0  0  0  0
 23 17  1  0  0  0  0
 24 23  2  0  0  0  0
 27 18  1  0  0  0  0
 28 18  1  0  0  0  0
 29 19  1  0  0  0  0
 34 21  1  0  0  0  0
 37 23  1  0  0  0  0
 37 44  1  0  0  0  0
 38 45  1  6  0  0  0
 38 37  1  0  0  0  0
 38 41  1  0  0  0  0
 39 46  1  0  0  0  0
 39 38  1  0  0  0  0
 40 39  1  0  0  0  0
 41 42  1  0  0  0  0
 43 41  2  0  0  0  0
 47 39  1  0  0  0  0
 48 40  1  0  0  0  0
M  END
$$$$
