PKD.pdb
 OpenBabel07022419043D

 50 50  0  0  1  0  0  0  0  0999 V2000
    0.3320   -2.0340    3.2600 N   0  0  0  0  0  0  0  0  0  0  0  0
   -0.2770   -3.0960    4.0750 C   0  0  0  0  0  0  0  0  0  0  0  0
   -0.7360   -4.1390    3.0810 C   0  0  0  0  0  0  0  0  0  0  0  0
    0.1800   -3.9600    1.8920 C   0  0  0  0  0  0  0  0  0  0  0  0
    0.9470   -2.7100    2.1620 C   0  0  1  0  0  0  0  0  0  0  0  0
    1.0820   -1.8350    0.9570 C   0  0  0  0  0  0  0  0  0  0  0  0
    1.6050   -2.2950   -0.0850 O   0  0  0  0  0  0  0  0  0  0  0  0
    1.0430   -1.5830    3.8780 H   0  0  0  0  0  0  0  0  0  0  0  0
    0.4870   -3.5640    4.7190 H   0  0  0  0  0  0  0  0  0  0  0  0
   -1.1180   -2.6580    4.6230 H   0  0  0  0  0  0  0  0  0  0  0  0
   -1.7790   -3.9370    2.8070 H   0  0  0  0  0  0  0  0  0  0  0  0
   -0.6260   -5.1600    3.4500 H   0  0  0  0  0  0  0  0  0  0  0  0
   -0.4590   -3.7770    0.9830 H   0  0  0  0  0  0  0  0  0  0  0  0
    0.7760   -4.8440    1.6710 H   0  0  0  0  0  0  0  0  0  0  0  0
    1.9770   -2.9820    2.4720 H   0  0  0  0  0  0  0  0  0  0  0  0
    0.6410   -0.4940    0.9400 N   0  0  0  0  0  0  0  0  0  0  0  0
    0.7190    0.4580   -0.1130 C   0  0  1  0  0  0  0  0  0  0  0  0
    1.7370    0.2550   -1.1740 C   0  0  0  0  0  0  0  0  0  0  0  0
    3.1600    0.2710   -0.8410 C   0  0  0  0  0  0  0  0  0  0  0  0
    3.8350    1.4680   -0.3320 C   0  0  0  0  0  0  0  0  0  0  0  0
    3.4470    2.1400    0.9050 C   0  0  0  0  0  0  0  0  0  0  0  0
    3.4540    1.3350    2.1080 N   0  0  0  0  0  0  0  0  0  0  0  0
   -0.6030    0.8730   -0.6420 C   0  0  0  0  0  0  0  0  0  0  0  0
   -0.7120    1.7070   -1.5640 O   0  0  0  0  0  0  0  0  0  0  0  0
    0.1890   -0.1860    1.8690 H   0  0  0  0  0  0  0  0  0  0  0  0
    1.1200    1.3990    0.4260 H   0  0  0  0  0  0  0  0  0  0  0  0
    1.5570    1.0510   -1.9570 H   0  0  0  0  0  0  0  0  0  0  0  0
    1.4380   -0.6860   -1.7430 H   0  0  0  0  0  0  0  0  0  0  0  0
    3.5290   -0.6170   -0.2250 H   0  0  0  0  0  0  0  0  0  0  0  0
    3.7030    0.0350   -1.8380 H   0  0  0  0  0  0  0  0  0  0  0  0
    3.9250    2.2800   -1.1320 H   0  0  0  0  0  0  0  0  0  0  0  0
    4.9370    1.1760   -0.2150 H   0  0  0  0  0  0  0  0  0  0  0  0
    4.3610    2.8490    1.1250 H   0  0  0  0  0  0  0  0  0  0  0  0
    2.6520    2.8920    0.8400 H   0  0  0  0  0  0  0  0  0  0  0  0
    3.5290    0.3200    1.9220 H   0  0  0  0  0  0  0  0  0  0  0  0
    2.6050    1.6050    2.6580 H   0  0  0  0  0  0  0  0  0  0  0  0
   -1.7640    0.2920   -0.0680 N   0  0  0  0  0  0  0  0  0  0  0  0
   -3.1070    0.6170   -0.5000 C   0  0  1  0  0  0  0  0  0  0  0  0
   -3.8580   -0.6320   -0.9470 C   0  0  0  0  0  0  0  0  0  0  0  0
   -3.1780   -1.3080   -2.0800 C   0  0  0  0  0  0  0  0  0  0  0  0
   -2.1260   -0.8590   -2.5510 O   0  0  0  0  0  0  0  0  0  0  0  0
   -3.8870    1.1730    0.6350 C   0  0  0  0  0  0  0  0  0  0  0  0
   -5.0880    1.5320    0.5130 O   0  0  0  0  0  0  0  0  0  0  0  0
   -3.7280   -2.4590   -2.6190 O   0  0  0  0  0  0  0  0  0  0  0  0
   -3.2510    1.2900    1.8620 O   0  0  0  0  0  0  0  0  0  0  0  0
   -1.6360   -0.4110    0.7120 H   0  0  0  0  0  0  0  0  0  0  0  0
   -3.0080    1.3440   -1.3220 H   0  0  0  0  0  0  0  0  0  0  0  0
   -4.8560   -0.3260   -1.3250 H   0  0  0  0  0  0  0  0  0  0  0  0
   -4.0290   -1.3150   -0.1120 H   0  0  0  0  0  0  0  0  0  0  0  0
   -3.1170   -3.0860   -3.1310 H   0  0  0  0  0  0  0  0  0  0  0  0
  1  8  1  0  0  0  0
  1  2  1  0  0  0  0
  2 10  1  0  0  0  0
  2  9  1  0  0  0  0
  3 12  1  0  0  0  0
  3  2  1  0  0  0  0
  4  5  1  0  0  0  0
  4  3  1  0  0  0  0
  5 15  1  1  0  0  0
  5  1  1  0  0  0  0
  6  5  1  0  0  0  0
  7  6  2  0  0  0  0
 11  3  1  0  0  0  0
 13  4  1  0  0  0  0
 14  4  1  0  0  0  0
 16  6  1  0  0  0  0
 16 25  1  0  0  0  0
 17 26  1  1  0  0  0
 17 16  1  0  0  0  0
 18 19  1  0  0  0  0
 18 17  1  0  0  0  0
 19 20  1  0  0  0  0
 19 29  1  0  0  0  0
 20 32  1  0  0  0  0
 20 21  1  0  0  0  0
 21 33  1  0  0  0  0
 21 22  1  0  0  0  0
 22 36  1  0  0  0  0
 23 17  1  0  0  0  0
 23 37  1  0  0  0  0
 24 23  2  0  0  0  0
 27 18  1  0  0  0  0
 28 18  1  0  0  0  0
 30 19  1  0  0  0  0
 31 20  1  0  0  0  0
 34 21  1  0  0  0  0
 35 22  1  0  0  0  0
 37 46  1  0  0  0  0
 38 47  1  6  0  0  0
 38 37  1  0  0  0  0
 38 42  1  0  0  0  0
 39 38  1  0  0  0  0
 39 49  1  0  0  0  0
 40 39  1  0  0  0  0
 41 40  2  0  0  0  0
 42 45  1  0  0  0  0
 43 42  2  0  0  0  0
 44 40  1  0  0  0  0
 48 39  1  0  0  0  0
 50 44  1  0  0  0  0
M  END
$$$$
