PKE.pdb
 OpenBabel07022419043D

 53 53  0  0  1  0  0  0  0  0999 V2000
    3.5280   -2.4550    2.9490 N   0  0  0  0  0  0  0  0  0  0  0  0
    4.4070   -2.7100    4.0770 C   0  0  0  0  0  0  0  0  0  0  0  0
    3.5050   -2.8400    5.2850 C   0  0  0  0  0  0  0  0  0  0  0  0
    2.1100   -2.9460    4.6930 C   0  0  0  0  0  0  0  0  0  0  0  0
    2.3130   -3.1850    3.2120 C   0  0  1  0  0  0  0  0  0  0  0  0
    1.1300   -2.6490    2.5000 C   0  0  0  0  0  0  0  0  0  0  0  0
    0.0360   -3.2420    2.6950 O   0  0  0  0  0  0  0  0  0  0  0  0
    3.2850   -1.4270    3.0330 H   0  0  0  0  0  0  0  0  0  0  0  0
    5.0180   -3.6200    3.9450 H   0  0  0  0  0  0  0  0  0  0  0  0
    5.0720   -1.8370    4.2570 H   0  0  0  0  0  0  0  0  0  0  0  0
    3.7360   -3.7370    5.8910 H   0  0  0  0  0  0  0  0  0  0  0  0
    3.5820   -1.9660    5.9620 H   0  0  0  0  0  0  0  0  0  0  0  0
    1.5060   -3.7220    5.1780 H   0  0  0  0  0  0  0  0  0  0  0  0
    1.5740   -1.9770    4.8460 H   0  0  0  0  0  0  0  0  0  0  0  0
    2.4270   -4.2750    3.0560 H   0  0  0  0  0  0  0  0  0  0  0  0
    1.1380   -1.5340    1.6290 N   0  0  0  0  0  0  0  0  0  0  0  0
   -0.1000   -1.0920    0.9770 C   0  0  1  0  0  0  0  0  0  0  0  0
   -0.4740    0.3070    1.3730 C   0  0  0  0  0  0  0  0  0  0  0  0
    0.5890    1.3160    1.0080 C   0  0  0  0  0  0  0  0  0  0  0  0
    0.1710    2.7020    1.4250 C   0  0  0  0  0  0  0  0  0  0  0  0
   -1.1120    3.1370    0.7590 C   0  0  0  0  0  0  0  0  0  0  0  0
   -1.4650    4.4780    1.1980 N   0  0  0  0  0  0  0  0  0  0  0  0
    0.0640   -1.2430   -0.4980 C   0  0  0  0  0  0  0  0  0  0  0  0
    1.1380   -1.6900   -0.9810 O   0  0  0  0  0  0  0  0  0  0  0  0
    2.0400   -1.0500    1.4720 H   0  0  0  0  0  0  0  0  0  0  0  0
   -0.9270   -1.7590    1.2960 H   0  0  0  0  0  0  0  0  0  0  0  0
   -0.6270    0.3250    2.4550 H   0  0  0  0  0  0  0  0  0  0  0  0
   -1.4360    0.5350    0.8920 H   0  0  0  0  0  0  0  0  0  0  0  0
    1.5290    1.0810    1.5120 H   0  0  0  0  0  0  0  0  0  0  0  0
    0.7910    1.3340   -0.0810 H   0  0  0  0  0  0  0  0  0  0  0  0
    0.9610    3.4150    1.1110 H   0  0  0  0  0  0  0  0  0  0  0  0
    0.0890    2.7850    2.5250 H   0  0  0  0  0  0  0  0  0  0  0  0
   -1.9710    2.4960    0.9780 H   0  0  0  0  0  0  0  0  0  0  0  0
   -0.9930    3.1900   -0.3380 H   0  0  0  0  0  0  0  0  0  0  0  0
   -2.4620    4.6270    0.8780 H   0  0  0  0  0  0  0  0  0  0  0  0
   -1.4880    4.5650    2.2400 H   0  0  0  0  0  0  0  0  0  0  0  0
   -0.9660   -0.8970   -1.4000 N   0  0  0  0  0  0  0  0  0  0  0  0
   -0.8100   -1.0440   -2.8470 C   0  0  1  0  0  0  0  0  0  0  0  0
   -1.8460   -2.0310   -3.3380 C   0  0  0  0  0  0  0  0  0  0  0  0
   -3.2360   -1.5500   -3.0370 C   0  0  0  0  0  0  0  0  0  0  0  0
   -4.2750   -2.4920   -3.5070 C   0  0  0  0  0  0  0  0  0  0  0  0
   -3.9470   -3.5550   -4.0850 O   0  0  0  0  0  0  0  0  0  0  0  0
   -0.9420    0.2590   -3.5210 C   0  0  0  0  0  0  0  0  0  0  0  0
   -1.1560    1.2850   -2.8540 O   0  0  0  0  0  0  0  0  0  0  0  0
   -5.6210   -2.2340   -3.3260 O   0  0  0  0  0  0  0  0  0  0  0  0
   -0.8250    0.3320   -4.8910 O   0  0  0  0  0  0  0  0  0  0  0  0
   -1.8500   -0.5270   -0.9880 H   0  0  0  0  0  0  0  0  0  0  0  0
    0.2030   -1.4380   -3.0690 H   0  0  0  0  0  0  0  0  0  0  0  0
   -1.6940   -2.1450   -4.4230 H   0  0  0  0  0  0  0  0  0  0  0  0
   -1.6590   -2.9800   -2.8020 H   0  0  0  0  0  0  0  0  0  0  0  0
   -3.4090   -0.5200   -3.4080 H   0  0  0  0  0  0  0  0  0  0  0  0
   -3.3740   -1.4870   -1.9250 H   0  0  0  0  0  0  0  0  0  0  0  0
   -6.2910   -2.9810   -3.1390 H   0  0  0  0  0  0  0  0  0  0  0  0
  1  8  1  0  0  0  0
  1  5  1  0  0  0  0
  1  2  1  0  0  0  0
  2 10  1  0  0  0  0
  2  3  1  0  0  0  0
  3 11  1  0  0  0  0
  3 12  1  0  0  0  0
  4 14  1  0  0  0  0
  4 13  1  0  0  0  0
  4  3  1  0  0  0  0
  5 15  1  6  0  0  0
  5  4  1  0  0  0  0
  6  7  2  0  0  0  0
  6  5  1  0  0  0  0
  9  2  1  0  0  0  0
 16  6  1  0  0  0  0
 17 26  1  1  0  0  0
 17 18  1  0  0  0  0
 17 16  1  0  0  0  0
 18 27  1  0  0  0  0
 19 18  1  0  0  0  0
 19 20  1  0  0  0  0
 19 29  1  0  0  0  0
 20 32  1  0  0  0  0
 21 33  1  0  0  0  0
 21 22  1  0  0  0  0
 21 20  1  0  0  0  0
 22 36  1  0  0  0  0
 23 17  1  0  0  0  0
 24 23  2  0  0  0  0
 25 16  1  0  0  0  0
 28 18  1  0  0  0  0
 30 19  1  0  0  0  0
 31 20  1  0  0  0  0
 34 21  1  0  0  0  0
 35 22  1  0  0  0  0
 37 47  1  0  0  0  0
 37 23  1  0  0  0  0
 38 48  1  6  0  0  0
 38 37  1  0  0  0  0
 39 40  1  0  0  0  0
 39 38  1  0  0  0  0
 39 50  1  0  0  0  0
 40 52  1  0  0  0  0
 41 45  1  0  0  0  0
 41 40  1  0  0  0  0
 42 41  2  0  0  0  0
 43 44  1  0  0  0  0
 43 38  1  0  0  0  0
 45 53  1  0  0  0  0
 46 43  2  0  0  0  0
 49 39  1  0  0  0  0
 51 40  1  0  0  0  0
M  END
$$$$
