PKF.pdb
 OpenBabel07022419043D

 57 58  0  0  1  0  0  0  0  0999 V2000
    3.4290   -1.6700    2.8090 N   0  0  0  0  0  0  0  0  0  0  0  0
    4.5490   -2.3850    3.4640 C   0  0  0  0  0  0  0  0  0  0  0  0
    4.7520   -3.6130    2.5770 C   0  0  0  0  0  0  0  0  0  0  0  0
    3.9340   -3.3060    1.3360 C   0  0  0  0  0  0  0  0  0  0  0  0
    3.8910   -1.7590    1.4210 C   0  0  1  0  0  0  0  0  0  0  0  0
    2.9420   -1.2230    0.4590 C   0  0  0  0  0  0  0  0  0  0  0  0
    3.3400   -0.9170   -0.6940 O   0  0  0  0  0  0  0  0  0  0  0  0
    2.6000   -2.3100    2.9440 H   0  0  0  0  0  0  0  0  0  0  0  0
    4.3040   -2.6680    4.5070 H   0  0  0  0  0  0  0  0  0  0  0  0
    5.4850   -1.7920    3.4190 H   0  0  0  0  0  0  0  0  0  0  0  0
    4.4380   -4.5160    3.1070 H   0  0  0  0  0  0  0  0  0  0  0  0
    5.8190   -3.6690    2.2070 H   0  0  0  0  0  0  0  0  0  0  0  0
    2.8690   -3.6010    1.4970 H   0  0  0  0  0  0  0  0  0  0  0  0
    4.3660   -3.6700    0.4150 H   0  0  0  0  0  0  0  0  0  0  0  0
    4.8880   -1.3290    1.3500 H   0  0  0  0  0  0  0  0  0  0  0  0
    1.5300   -1.0070    0.7190 N   0  0  0  0  0  0  0  0  0  0  0  0
    0.6710   -0.4400   -0.3070 C   0  0  1  0  0  0  0  0  0  0  0  0
    0.0940   -1.5810   -1.1590 C   0  0  0  0  0  0  0  0  0  0  0  0
   -0.7690   -1.0560   -2.2470 C   0  0  0  0  0  0  0  0  0  0  0  0
   -0.0390   -0.1460   -3.2250 C   0  0  0  0  0  0  0  0  0  0  0  0
   -0.9580    0.3690   -4.2890 C   0  0  0  0  0  0  0  0  0  0  0  0
   -0.2600    1.2330   -5.2250 N   0  0  0  0  0  0  0  0  0  0  0  0
   -0.3640    0.4530    0.1740 C   0  0  0  0  0  0  0  0  0  0  0  0
   -1.0970    1.0970   -0.6260 O   0  0  0  0  0  0  0  0  0  0  0  0
    1.2110   -1.2870    1.6570 H   0  0  0  0  0  0  0  0  0  0  0  0
    1.3400    0.0900   -1.0080 H   0  0  0  0  0  0  0  0  0  0  0  0
    0.9720   -2.0650   -1.6460 H   0  0  0  0  0  0  0  0  0  0  0  0
   -0.4780   -2.3010   -0.5480 H   0  0  0  0  0  0  0  0  0  0  0  0
   -1.7050   -0.5880   -1.9700 H   0  0  0  0  0  0  0  0  0  0  0  0
   -1.0980   -1.9730   -2.8590 H   0  0  0  0  0  0  0  0  0  0  0  0
    0.5300    0.6420   -2.7430 H   0  0  0  0  0  0  0  0  0  0  0  0
    0.7160   -0.7960   -3.7660 H   0  0  0  0  0  0  0  0  0  0  0  0
   -1.4850   -0.4300   -4.8370 H   0  0  0  0  0  0  0  0  0  0  0  0
   -1.7530    0.9810   -3.7720 H   0  0  0  0  0  0  0  0  0  0  0  0
   -0.9190    1.9560   -5.6420 H   0  0  0  0  0  0  0  0  0  0  0  0
    0.4760    1.7660   -4.6650 H   0  0  0  0  0  0  0  0  0  0  0  0
   -0.6050    0.6440    1.5550 N   0  0  0  0  0  0  0  0  0  0  0  0
   -1.6450    1.5130    2.0320 C   0  0  1  0  0  0  0  0  0  0  0  0
   -2.7490    0.7200    2.7260 C   0  0  0  0  0  0  0  0  0  0  0  0
   -3.3380   -0.2640    1.7860 C   0  0  0  0  0  0  0  0  0  0  0  0
   -4.3860    0.0320    0.9740 C   0  0  0  0  0  0  0  0  0  0  0  0
   -4.8590   -0.9600    0.1270 C   0  0  0  0  0  0  0  0  0  0  0  0
   -4.2830   -2.2080    0.1120 C   0  0  0  0  0  0  0  0  0  0  0  0
   -3.2230   -2.5090    0.9350 C   0  0  0  0  0  0  0  0  0  0  0  0
   -2.7440   -1.5140    1.7890 C   0  0  0  0  0  0  0  0  0  0  0  0
   -1.1150    2.4660    3.0230 C   0  0  0  0  0  0  0  0  0  0  0  0
    0.0950    2.5150    3.3750 O   0  0  0  0  0  0  0  0  0  0  0  0
   -1.9460    3.4160    3.6610 O   0  0  0  0  0  0  0  0  0  0  0  0
   -0.0110    0.1320    2.2320 H   0  0  0  0  0  0  0  0  0  0  0  0
   -2.0840    2.0850    1.1820 H   0  0  0  0  0  0  0  0  0  0  0  0
   -3.5420    1.4090    3.0280 H   0  0  0  0  0  0  0  0  0  0  0  0
   -2.3360    0.2500    3.6170 H   0  0  0  0  0  0  0  0  0  0  0  0
   -4.8420    1.0350    0.9910 H   0  0  0  0  0  0  0  0  0  0  0  0
   -5.6920   -0.7220   -0.5160 H   0  0  0  0  0  0  0  0  0  0  0  0
   -4.6880   -2.9640   -0.5760 H   0  0  0  0  0  0  0  0  0  0  0  0
   -2.7760   -3.4890    0.9210 H   0  0  0  0  0  0  0  0  0  0  0  0
   -1.9140   -1.7700    2.4310 H   0  0  0  0  0  0  0  0  0  0  0  0
  1  8  1  0  0  0  0
  1  2  1  0  0  0  0
  2  9  1  0  0  0  0
  3 11  1  0  0  0  0
  3  2  1  0  0  0  0
  4  5  1  0  0  0  0
  4 13  1  0  0  0  0
  4  3  1  0  0  0  0
  5 15  1  6  0  0  0
  5  1  1  0  0  0  0
  6 16  1  0  0  0  0
  6  5  1  0  0  0  0
  7  6  2  0  0  0  0
 10  2  1  0  0  0  0
 12  3  1  0  0  0  0
 14  4  1  0  0  0  0
 16 25  1  0  0  0  0
 17 26  1  6  0  0  0
 17 23  1  0  0  0  0
 17 16  1  0  0  0  0
 18 28  1  0  0  0  0
 18 17  1  0  0  0  0
 19 29  1  0  0  0  0
 19 18  1  0  0  0  0
 20 31  1  0  0  0  0
 20 19  1  0  0  0  0
 21 34  1  0  0  0  0
 21 20  1  0  0  0  0
 22 36  1  0  0  0  0
 22 21  1  0  0  0  0
 23 37  1  0  0  0  0
 24 23  2  0  0  0  0
 27 18  1  0  0  0  0
 30 19  1  0  0  0  0
 32 20  1  0  0  0  0
 33 21  1  0  0  0  0
 35 22  1  0  0  0  0
 37 38  1  0  0  0  0
 37 49  1  0  0  0  0
 38 50  1  6  0  0  0
 38 39  1  0  0  0  0
 38 46  1  0  0  0  0
 39 51  1  0  0  0  0
 39 52  1  0  0  0  0
 40 45  1  0  0  0  0
 40 39  1  0  0  0  0
 41 53  1  0  0  0  0
 41 40  2  0  0  0  0
 42 41  1  0  0  0  0
 43 42  2  0  0  0  0
 43 44  1  0  0  0  0
 44 45  2  0  0  0  0
 45 57  1  0  0  0  0
 46 47  2  0  0  0  0
 46 48  1  0  0  0  0
 54 42  1  0  0  0  0
 55 43  1  0  0  0  0
 56 44  1  0  0  0  0
M  END
$$$$
