PKG.pdb
 OpenBabel07022419043D

 44 44  0  0  1  0  0  0  0  0999 V2000
    0.9160   -2.1530    2.9610 N   0  0  0  0  0  0  0  0  0  0  0  0
    0.0960   -3.2910    2.6920 C   0  0  0  0  0  0  0  0  0  0  0  0
    0.9430   -4.2250    1.8870 C   0  0  0  0  0  0  0  0  0  0  0  0
    2.0210   -3.3590    1.2910 C   0  0  0  0  0  0  0  0  0  0  0  0
    1.7980   -1.9640    1.8590 C   0  0  1  0  0  0  0  0  0  0  0  0
    1.3110   -1.0330    0.8160 C   0  0  0  0  0  0  0  0  0  0  0  0
    2.0180   -0.7720   -0.1960 O   0  0  0  0  0  0  0  0  0  0  0  0
    0.4900   -1.3420    3.3880 H   0  0  0  0  0  0  0  0  0  0  0  0
   -0.8560   -3.0470    2.1770 H   0  0  0  0  0  0  0  0  0  0  0  0
   -0.2070   -3.7360    3.6820 H   0  0  0  0  0  0  0  0  0  0  0  0
    1.3780   -4.9720    2.6110 H   0  0  0  0  0  0  0  0  0  0  0  0
    0.3850   -4.7900    1.1150 H   0  0  0  0  0  0  0  0  0  0  0  0
    2.0040   -3.3550    0.1870 H   0  0  0  0  0  0  0  0  0  0  0  0
    3.0030   -3.7740    1.5890 H   0  0  0  0  0  0  0  0  0  0  0  0
    2.7690   -1.5770    2.2130 H   0  0  0  0  0  0  0  0  0  0  0  0
    0.0340   -0.4010    0.9130 N   0  0  0  0  0  0  0  0  0  0  0  0
   -0.5260    0.5080   -0.0220 C   0  0  1  0  0  0  0  0  0  0  0  0
    0.4110    1.5500   -0.5880 C   0  0  0  0  0  0  0  0  0  0  0  0
    0.9690    2.4970    0.3880 C   0  0  0  0  0  0  0  0  0  0  0  0
    1.7730    1.9710    1.5240 C   0  0  0  0  0  0  0  0  0  0  0  0
    2.2580    3.1550    2.3950 C   0  0  0  0  0  0  0  0  0  0  0  0
    3.0330    2.5840    3.4830 N   0  0  0  0  0  0  0  0  0  0  0  0
   -1.3770   -0.0720   -1.0630 C   0  0  0  0  0  0  0  0  0  0  0  0
   -1.8910    0.6960   -1.9090 O   0  0  0  0  0  0  0  0  0  0  0  0
   -0.5150   -0.6720    1.7850 H   0  0  0  0  0  0  0  0  0  0  0  0
   -1.2360    1.1770    0.6110 H   0  0  0  0  0  0  0  0  0  0  0  0
    1.1780    1.1020   -1.2610 H   0  0  0  0  0  0  0  0  0  0  0  0
   -0.2340    2.1480   -1.3060 H   0  0  0  0  0  0  0  0  0  0  0  0
    0.1030    3.1180    0.7810 H   0  0  0  0  0  0  0  0  0  0  0  0
    1.6010    3.2510   -0.1530 H   0  0  0  0  0  0  0  0  0  0  0  0
    2.6840    1.4430    1.2280 H   0  0  0  0  0  0  0  0  0  0  0  0
    1.1720    1.3650    2.2450 H   0  0  0  0  0  0  0  0  0  0  0  0
    1.3820    3.6540    2.8450 H   0  0  0  0  0  0  0  0  0  0  0  0
    2.9140    3.8200    1.8300 H   0  0  0  0  0  0  0  0  0  0  0  0
    4.0020    2.3920    3.1280 H   0  0  0  0  0  0  0  0  0  0  0  0
    2.6050    1.6520    3.6970 H   0  0  0  0  0  0  0  0  0  0  0  0
   -1.6150   -1.4570   -1.1150 N   0  0  0  0  0  0  0  0  0  0  0  0
   -2.4580   -2.0810   -2.1350 C   0  0  0  0  0  0  0  0  0  0  0  0
   -3.8190   -1.4740   -1.9890 C   0  0  0  0  0  0  0  0  0  0  0  0
   -4.7620   -1.8290   -2.7490 O   0  0  0  0  0  0  0  0  0  0  0  0
   -4.1090   -0.5120   -1.0320 O   0  0  0  0  0  0  0  0  0  0  0  0
   -1.1590   -2.0450   -0.3830 H   0  0  0  0  0  0  0  0  0  0  0  0
   -2.5840   -3.1580   -1.9440 H   0  0  0  0  0  0  0  0  0  0  0  0
   -2.0480   -1.9450   -3.1460 H   0  0  0  0  0  0  0  0  0  0  0  0
  1  8  1  0  0  0  0
  2  1  1  0  0  0  0
  2 10  1  0  0  0  0
  3 11  1  0  0  0  0
  3  2  1  0  0  0  0
  4 14  1  0  0  0  0
  4  5  1  0  0  0  0
  4  3  1  0  0  0  0
  5 15  1  1  0  0  0
  5  1  1  0  0  0  0
  6 16  1  0  0  0  0
  6  5  1  0  0  0  0
  7  6  2  0  0  0  0
  9  2  1  0  0  0  0
 12  3  1  0  0  0  0
 13  4  1  0  0  0  0
 16 25  1  0  0  0  0
 17 26  1  1  0  0  0
 17 16  1  0  0  0  0
 18 17  1  0  0  0  0
 18 19  1  0  0  0  0
 19 29  1  0  0  0  0
 19 20  1  0  0  0  0
 20 32  1  0  0  0  0
 20 21  1  0  0  0  0
 21 33  1  0  0  0  0
 21 22  1  0  0  0  0
 22 36  1  0  0  0  0
 23 17  1  0  0  0  0
 24 23  2  0  0  0  0
 27 18  1  0  0  0  0
 28 18  1  0  0  0  0
 30 19  1  0  0  0  0
 31 20  1  0  0  0  0
 34 21  1  0  0  0  0
 35 22  1  0  0  0  0
 37 23  1  0  0  0  0
 37 42  1  0  0  0  0
 38 39  1  0  0  0  0
 38 43  1  0  0  0  0
 38 37  1  0  0  0  0
 39 41  1  0  0  0  0
 40 39  2  0  0  0  0
 44 38  1  0  0  0  0
M  END
$$$$
