PKH.pdb
 OpenBabel07022419043D

 54 55  0  0  1  0  0  0  0  0999 V2000
    2.9380   -3.2890    3.5220 N   0  0  0  0  0  0  0  0  0  0  0  0
    3.5200   -3.9440    4.7020 C   0  0  0  0  0  0  0  0  0  0  0  0
    2.7750   -3.2260    5.8120 C   0  0  0  0  0  0  0  0  0  0  0  0
    1.3560   -3.0550    5.2590 C   0  0  0  0  0  0  0  0  0  0  0  0
    1.5400   -3.4040    3.7930 C   0  0  1  0  0  0  0  0  0  0  0  0
    0.7280   -2.4950    2.9140 C   0  0  0  0  0  0  0  0  0  0  0  0
   -0.5300   -2.4580    3.0080 O   0  0  0  0  0  0  0  0  0  0  0  0
    3.1800   -2.2600    3.5770 H   0  0  0  0  0  0  0  0  0  0  0  0
    4.5990   -3.7900    4.7280 H   0  0  0  0  0  0  0  0  0  0  0  0
    3.2090   -5.0120    4.6770 H   0  0  0  0  0  0  0  0  0  0  0  0
    3.2610   -2.2550    5.9550 H   0  0  0  0  0  0  0  0  0  0  0  0
    2.7430   -3.8670    6.6930 H   0  0  0  0  0  0  0  0  0  0  0  0
    0.6780   -3.7730    5.7680 H   0  0  0  0  0  0  0  0  0  0  0  0
    0.9670   -2.0490    5.4230 H   0  0  0  0  0  0  0  0  0  0  0  0
    1.1350   -4.4150    3.6480 H   0  0  0  0  0  0  0  0  0  0  0  0
    1.3180   -1.6520    1.9550 N   0  0  0  0  0  0  0  0  0  0  0  0
    0.5040   -0.7660    1.1010 C   0  0  1  0  0  0  0  0  0  0  0  0
    0.8920    0.6450    1.3920 C   0  0  0  0  0  0  0  0  0  0  0  0
    0.1980    1.7290    0.6710 C   0  0  0  0  0  0  0  0  0  0  0  0
   -1.2960    1.7790    0.9000 C   0  0  0  0  0  0  0  0  0  0  0  0
   -1.8770    2.9130    0.1170 C   0  0  0  0  0  0  0  0  0  0  0  0
   -3.2970    3.0470    0.2670 N   0  0  0  0  0  0  0  0  0  0  0  0
    0.6700   -1.1800   -0.3140 C   0  0  0  0  0  0  0  0  0  0  0  0
    1.5530   -2.0710   -0.6130 O   0  0  0  0  0  0  0  0  0  0  0  0
    2.3480   -1.6290    1.8220 H   0  0  0  0  0  0  0  0  0  0  0  0
   -0.5380   -0.9350    1.3930 H   0  0  0  0  0  0  0  0  0  0  0  0
    1.9870    0.7210    1.0990 H   0  0  0  0  0  0  0  0  0  0  0  0
    0.9350    0.8420    2.5030 H   0  0  0  0  0  0  0  0  0  0  0  0
    0.4450    1.7810   -0.4040 H   0  0  0  0  0  0  0  0  0  0  0  0
    0.6490    2.6990    1.0780 H   0  0  0  0  0  0  0  0  0  0  0  0
   -1.4240    2.0470    1.9900 H   0  0  0  0  0  0  0  0  0  0  0  0
   -1.7810    0.8110    0.7740 H   0  0  0  0  0  0  0  0  0  0  0  0
   -1.3980    3.8500    0.4890 H   0  0  0  0  0  0  0  0  0  0  0  0
   -1.6290    2.8660   -0.9670 H   0  0  0  0  0  0  0  0  0  0  0  0
   -3.6550    3.9950    0.0820 H   0  0  0  0  0  0  0  0  0  0  0  0
   -3.5330    2.7220    1.2420 H   0  0  0  0  0  0  0  0  0  0  0  0
   -0.0560   -0.6970   -1.4230 N   0  0  0  0  0  0  0  0  0  0  0  0
    0.2210   -1.1940   -2.7680 C   0  0  1  0  0  0  0  0  0  0  0  0
   -1.0270   -1.9290   -3.2200 C   0  0  0  0  0  0  0  0  0  0  0  0
   -2.1430   -0.9440   -3.2080 C   0  0  0  0  0  0  0  0  0  0  0  0
   -2.9930   -0.6530   -2.1650 C   0  0  0  0  0  0  0  0  0  0  0  0
   -3.8410    0.2920   -2.5980 N   0  0  0  0  0  0  0  0  0  0  0  0
   -3.5630    0.6100   -3.8700 C   0  0  0  0  0  0  0  0  0  0  0  0
   -2.5260   -0.1500   -4.2300 N   0  0  0  0  0  0  0  0  0  0  0  0
    0.4830   -0.0950   -3.7190 C   0  0  0  0  0  0  0  0  0  0  0  0
    0.4690    1.1210   -3.4020 O   0  0  0  0  0  0  0  0  0  0  0  0
    0.7670   -0.3660   -5.0490 O   0  0  0  0  0  0  0  0  0  0  0  0
   -0.8020    0.0120   -1.2600 H   0  0  0  0  0  0  0  0  0  0  0  0
    1.0330   -1.9460   -2.7620 H   0  0  0  0  0  0  0  0  0  0  0  0
   -0.8690   -2.3390   -4.2410 H   0  0  0  0  0  0  0  0  0  0  0  0
   -1.2470   -2.7680   -2.5300 H   0  0  0  0  0  0  0  0  0  0  0  0
   -2.9670   -1.1070   -1.1940 H   0  0  0  0  0  0  0  0  0  0  0  0
   -4.6190    0.7290   -2.0290 H   0  0  0  0  0  0  0  0  0  0  0  0
   -4.0790    1.3320   -4.4640 H   0  0  0  0  0  0  0  0  0  0  0  0
  1  8  1  0  0  0  0
  1  5  1  0  0  0  0
  1  2  1  0  0  0  0
  2  9  1  0  0  0  0
  2  3  1  0  0  0  0
  3 11  1  0  0  0  0
  3 12  1  0  0  0  0
  4 14  1  0  0  0  0
  4 13  1  0  0  0  0
  4  3  1  0  0  0  0
  5 15  1  6  0  0  0
  5  4  1  0  0  0  0
  6  7  2  0  0  0  0
  6  5  1  0  0  0  0
 10  2  1  0  0  0  0
 16  6  1  0  0  0  0
 17 18  1  0  0  0  0
 17 26  1  1  0  0  0
 17 16  1  0  0  0  0
 18 28  1  0  0  0  0
 19 20  1  0  0  0  0
 19 30  1  0  0  0  0
 19 18  1  0  0  0  0
 20 31  1  0  0  0  0
 21 22  1  0  0  0  0
 21 33  1  0  0  0  0
 21 20  1  0  0  0  0
 22 36  1  0  0  0  0
 23 17  1  0  0  0  0
 24 23  2  0  0  0  0
 25 16  1  0  0  0  0
 27 18  1  0  0  0  0
 29 19  1  0  0  0  0
 32 20  1  0  0  0  0
 34 21  1  0  0  0  0
 35 22  1  0  0  0  0
 37 48  1  0  0  0  0
 37 23  1  0  0  0  0
 38 49  1  1  0  0  0
 38 37  1  0  0  0  0
 39 40  1  0  0  0  0
 39 38  1  0  0  0  0
 39 51  1  0  0  0  0
 40 41  2  0  0  0  0
 41 52  1  0  0  0  0
 42 41  1  0  0  0  0
 42 53  1  0  0  0  0
 43 42  1  0  0  0  0
 44 43  2  0  0  0  0
 44 40  1  0  0  0  0
 45 46  1  0  0  0  0
 45 38  1  0  0  0  0
 47 45  2  0  0  0  0
 50 39  1  0  0  0  0
 54 43  1  0  0  0  0
M  END
$$$$
