PKI.pdb
 OpenBabel07022419043D

 56 56  0  0  1  0  0  0  0  0999 V2000
   -0.3790   -3.5650    3.7890 N   0  0  0  0  0  0  0  0  0  0  0  0
   -0.2950   -3.4070    5.2050 C   0  0  0  0  0  0  0  0  0  0  0  0
   -0.8680   -2.0390    5.5090 C   0  0  0  0  0  0  0  0  0  0  0  0
   -0.4160   -1.2510    4.2860 C   0  0  0  0  0  0  0  0  0  0  0  0
   -0.6390   -2.2940    3.1920 C   0  0  1  0  0  0  0  0  0  0  0  0
    0.2840   -2.0410    2.0300 C   0  0  0  0  0  0  0  0  0  0  0  0
    1.1050   -2.9150    1.7510 O   0  0  0  0  0  0  0  0  0  0  0  0
   -1.0460   -4.3070    3.4810 H   0  0  0  0  0  0  0  0  0  0  0  0
   -0.8910   -4.2100    5.6950 H   0  0  0  0  0  0  0  0  0  0  0  0
    0.7600   -3.5070    5.5370 H   0  0  0  0  0  0  0  0  0  0  0  0
   -0.4030   -1.6840    6.4300 H   0  0  0  0  0  0  0  0  0  0  0  0
   -1.9710   -2.0920    5.5330 H   0  0  0  0  0  0  0  0  0  0  0  0
   -1.0660   -0.3840    4.1760 H   0  0  0  0  0  0  0  0  0  0  0  0
    0.6590   -1.0260    4.3820 H   0  0  0  0  0  0  0  0  0  0  0  0
   -1.7010   -2.1980    2.8890 H   0  0  0  0  0  0  0  0  0  0  0  0
    0.2150   -0.8420    1.2810 N   0  0  0  0  0  0  0  0  0  0  0  0
    1.0120   -0.4460    0.1800 C   0  0  1  0  0  0  0  0  0  0  0  0
    2.3700   -1.0110    0.0420 C   0  0  0  0  0  0  0  0  0  0  0  0
    3.3960   -0.7910    1.0620 C   0  0  0  0  0  0  0  0  0  0  0  0
    3.9700    0.5150    1.3940 C   0  0  0  0  0  0  0  0  0  0  0  0
    3.1500    1.6170    1.9200 C   0  0  0  0  0  0  0  0  0  0  0  0
    4.0180    2.7870    2.2560 N   0  0  0  0  0  0  0  0  0  0  0  0
    0.2470   -0.5370   -1.1270 C   0  0  0  0  0  0  0  0  0  0  0  0
    0.8450   -0.2100   -2.1720 O   0  0  0  0  0  0  0  0  0  0  0  0
   -0.5460   -0.1720    1.6110 H   0  0  0  0  0  0  0  0  0  0  0  0
    1.1750    0.6470    0.2790 H   0  0  0  0  0  0  0  0  0  0  0  0
    2.7700   -0.5780   -0.9490 H   0  0  0  0  0  0  0  0  0  0  0  0
    2.3630   -2.1160   -0.1870 H   0  0  0  0  0  0  0  0  0  0  0  0
    3.0430   -1.2240    2.0640 H   0  0  0  0  0  0  0  0  0  0  0  0
    4.2510   -1.5390    0.8360 H   0  0  0  0  0  0  0  0  0  0  0  0
    4.6570    0.8780    0.5500 H   0  0  0  0  0  0  0  0  0  0  0  0
    4.7600    0.3060    2.2080 H   0  0  0  0  0  0  0  0  0  0  0  0
    2.4440    2.0170    1.1620 H   0  0  0  0  0  0  0  0  0  0  0  0
    2.6610    1.3390    2.8640 H   0  0  0  0  0  0  0  0  0  0  0  0
    4.6200    3.0150    1.4360 H   0  0  0  0  0  0  0  0  0  0  0  0
    4.5710    2.5710    3.1130 H   0  0  0  0  0  0  0  0  0  0  0  0
   -4.6270   -1.1310   -3.5790 C   0  0  0  0  0  0  0  0  0  0  0  0
   -3.6550    0.0120   -3.7650 C   0  0  0  0  0  0  0  0  0  0  0  0
   -2.7270    0.0900   -2.5910 C   0  0  2  0  0  0  0  0  0  0  0  0
   -1.7850    1.2720   -2.8590 C   0  0  0  0  0  0  0  0  0  0  0  0
   -1.9330   -1.1230   -2.3220 C   0  0  2  0  0  0  0  0  0  0  0  0
   -1.0720   -0.9680   -1.1590 N   0  0  0  0  0  0  0  0  0  0  0  0
   -1.2370   -1.7360   -3.4770 C   0  0  0  0  0  0  0  0  0  0  0  0
   -0.0470   -2.1310   -3.4240 O   0  0  0  0  0  0  0  0  0  0  0  0
   -1.8660   -1.9120   -4.6930 O   0  0  0  0  0  0  0  0  0  0  0  0
   -4.5590   -1.9000   -4.3950 H   0  0  0  0  0  0  0  0  0  0  0  0
   -4.5000   -1.6770   -2.6250 H   0  0  0  0  0  0  0  0  0  0  0  0
   -5.6800   -0.7410   -3.5340 H   0  0  0  0  0  0  0  0  0  0  0  0
   -4.2760    0.9600   -3.8150 H   0  0  0  0  0  0  0  0  0  0  0  0
   -3.1450   -0.0980   -4.7430 H   0  0  0  0  0  0  0  0  0  0  0  0
   -3.3940    0.3690   -1.7160 H   0  0  0  0  0  0  0  0  0  0  0  0
   -1.0890    1.0430   -3.6710 H   0  0  0  0  0  0  0  0  0  0  0  0
   -2.4050    2.1430   -3.2010 H   0  0  0  0  0  0  0  0  0  0  0  0
   -1.2660    1.5840   -1.9310 H   0  0  0  0  0  0  0  0  0  0  0  0
   -2.6320   -1.9750   -1.9990 H   0  0  0  0  0  0  0  0  0  0  0  0
   -1.4860   -1.2050   -0.2000 H   0  0  0  0  0  0  0  0  0  0  0  0
  1  2  1  0  0  0  0
  2  3  1  0  0  0  0
  2 10  1  0  0  0  0
  2  9  1  0  0  0  0
  3 12  1  0  0  0  0
  3 11  1  0  0  0  0
  4 14  1  0  0  0  0
  4  3  1  0  0  0  0
  5 15  1  6  0  0  0
  5  1  1  0  0  0  0
  5  4  1  0  0  0  0
  6  5  1  0  0  0  0
  7  6  2  0  0  0  0
  8  1  1  0  0  0  0
 13  4  1  0  0  0  0
 16 25  1  0  0  0  0
 16  6  1  0  0  0  0
 17 26  1  1  0  0  0
 17 16  1  0  0  0  0
 18 17  1  0  0  0  0
 18 19  1  0  0  0  0
 19 20  1  0  0  0  0
 19 29  1  0  0  0  0
 20 21  1  0  0  0  0
 20 32  1  0  0  0  0
 21 22  1  0  0  0  0
 21 34  1  0  0  0  0
 22 36  1  0  0  0  0
 23 17  1  0  0  0  0
 24 23  2  0  0  0  0
 27 18  1  0  0  0  0
 28 18  1  0  0  0  0
 30 19  1  0  0  0  0
 31 20  1  0  0  0  0
 33 21  1  0  0  0  0
 35 22  1  0  0  0  0
 37 48  1  0  0  0  0
 37 47  1  0  0  0  0
 38 37  1  0  0  0  0
 38 39  1  0  0  0  0
 39 41  1  0  0  0  0
 39 51  1  1  0  0  0
 40 39  1  0  0  0  0
 40 54  1  0  0  0  0
 41 55  1  1  0  0  0
 41 42  1  0  0  0  0
 42 23  1  0  0  0  0
 42 56  1  0  0  0  0
 43 44  1  0  0  0  0
 43 41  1  0  0  0  0
 45 43  2  0  0  0  0
 46 37  1  0  0  0  0
 49 38  1  0  0  0  0
 50 38  1  0  0  0  0
 52 40  1  0  0  0  0
 53 40  1  0  0  0  0
M  END
$$$$
