PKK.pdb
 OpenBabel07022419043D

 58 58  0  0  1  0  0  0  0  0999 V2000
    2.6830   -2.8700    1.8100 N   0  0  0  0  0  0  0  0  0  0  0  0
    3.2320   -4.1680    2.1480 C   0  0  0  0  0  0  0  0  0  0  0  0
    4.3960   -4.4140    1.2340 C   0  0  0  0  0  0  0  0  0  0  0  0
    4.2240   -3.3570    0.1730 C   0  0  0  0  0  0  0  0  0  0  0  0
    3.6410   -2.2070    0.9820 C   0  0  1  0  0  0  0  0  0  0  0  0
    2.9590   -1.2140    0.0970 C   0  0  0  0  0  0  0  0  0  0  0  0
    3.6040   -0.5090   -0.7210 O   0  0  0  0  0  0  0  0  0  0  0  0
    2.4850   -2.3660    2.7000 H   0  0  0  0  0  0  0  0  0  0  0  0
    3.5670   -4.1740    3.2240 H   0  0  0  0  0  0  0  0  0  0  0  0
    2.4610   -4.9430    2.0300 H   0  0  0  0  0  0  0  0  0  0  0  0
    5.3500   -4.2160    1.7560 H   0  0  0  0  0  0  0  0  0  0  0  0
    4.3910   -5.4410    0.8140 H   0  0  0  0  0  0  0  0  0  0  0  0
    3.4750   -3.6870   -0.5620 H   0  0  0  0  0  0  0  0  0  0  0  0
    5.1940   -3.0850   -0.2640 H   0  0  0  0  0  0  0  0  0  0  0  0
    4.4760   -1.7400    1.5400 H   0  0  0  0  0  0  0  0  0  0  0  0
    1.5660   -1.0590    0.1740 N   0  0  0  0  0  0  0  0  0  0  0  0
    0.9060   -0.0760   -0.7050 C   0  0  1  0  0  0  0  0  0  0  0  0
   -0.1400   -0.8450   -1.4650 C   0  0  0  0  0  0  0  0  0  0  0  0
   -0.9430   -0.0560   -2.4340 C   0  0  0  0  0  0  0  0  0  0  0  0
   -1.9240   -1.0420   -3.0860 C   0  0  0  0  0  0  0  0  0  0  0  0
   -2.7650   -0.2570   -4.0900 C   0  0  0  0  0  0  0  0  0  0  0  0
   -1.8550    0.3020   -5.0550 N   0  0  0  0  0  0  0  0  0  0  0  0
    0.2010    0.9390    0.1390 C   0  0  0  0  0  0  0  0  0  0  0  0
   -0.4320    1.9120   -0.3330 O   0  0  0  0  0  0  0  0  0  0  0  0
    0.9420   -1.5930    0.8140 H   0  0  0  0  0  0  0  0  0  0  0  0
    1.6570    0.4160   -1.3490 H   0  0  0  0  0  0  0  0  0  0  0  0
    0.2770   -1.7300   -1.9850 H   0  0  0  0  0  0  0  0  0  0  0  0
   -0.8380   -1.2640   -0.6870 H   0  0  0  0  0  0  0  0  0  0  0  0
   -1.4720    0.8140   -2.0510 H   0  0  0  0  0  0  0  0  0  0  0  0
   -0.3030    0.3020   -3.2800 H   0  0  0  0  0  0  0  0  0  0  0  0
   -2.5960   -1.4840   -2.3370 H   0  0  0  0  0  0  0  0  0  0  0  0
   -1.3710   -1.8390   -3.5910 H   0  0  0  0  0  0  0  0  0  0  0  0
   -3.3180    0.5070   -3.5180 H   0  0  0  0  0  0  0  0  0  0  0  0
   -3.4370   -0.9900   -4.5820 H   0  0  0  0  0  0  0  0  0  0  0  0
   -1.6570   -0.3560   -5.8200 H   0  0  0  0  0  0  0  0  0  0  0  0
   -2.1990    1.1980   -5.4690 H   0  0  0  0  0  0  0  0  0  0  0  0
    0.2240    0.8370    1.5770 N   0  0  0  0  0  0  0  0  0  0  0  0
   -0.4620    1.8290    2.3670 C   0  0  1  0  0  0  0  0  0  0  0  0
   -1.2910    1.2950    3.4760 C   0  0  0  0  0  0  0  0  0  0  0  0
   -2.4110    0.3760    3.1300 C   0  0  0  0  0  0  0  0  0  0  0  0
   -2.0600   -0.9060    2.4710 C   0  0  0  0  0  0  0  0  0  0  0  0
   -3.3170   -1.7490    2.1910 C   0  0  0  0  0  0  0  0  0  0  0  0
   -4.1760   -0.9740    1.3210 N   0  0  0  0  0  0  0  0  0  0  0  0
    0.5480    2.8130    2.9070 C   0  0  0  0  0  0  0  0  0  0  0  0
    0.1690    3.7680    3.6270 O   0  0  0  0  0  0  0  0  0  0  0  0
    1.8760    2.6670    2.6130 O   0  0  0  0  0  0  0  0  0  0  0  0
    0.7400    0.0480    1.9960 H   0  0  0  0  0  0  0  0  0  0  0  0
   -1.1130    2.4830    1.7100 H   0  0  0  0  0  0  0  0  0  0  0  0
   -1.7840    2.1900    3.9780 H   0  0  0  0  0  0  0  0  0  0  0  0
   -0.6600    0.7630    4.2380 H   0  0  0  0  0  0  0  0  0  0  0  0
   -2.9700    0.1870    4.0920 H   0  0  0  0  0  0  0  0  0  0  0  0
   -3.1790    0.9250    2.4940 H   0  0  0  0  0  0  0  0  0  0  0  0
   -1.4710   -1.5180    3.2110 H   0  0  0  0  0  0  0  0  0  0  0  0
   -1.4520   -0.8120    1.5850 H   0  0  0  0  0  0  0  0  0  0  0  0
   -3.0340   -2.6840    1.6670 H   0  0  0  0  0  0  0  0  0  0  0  0
   -3.7820   -2.0070    3.1530 H   0  0  0  0  0  0  0  0  0  0  0  0
   -3.6820   -0.1890    0.8600 H   0  0  0  0  0  0  0  0  0  0  0  0
   -5.0660   -0.6950    1.7820 H   0  0  0  0  0  0  0  0  0  0  0  0
  1  2  1  0  0  0  0
  1  8  1  0  0  0  0
  2  9  1  0  0  0  0
  3 11  1  0  0  0  0
  3  2  1  0  0  0  0
  4  5  1  0  0  0  0
  4  3  1  0  0  0  0
  5 15  1  1  0  0  0
  5  1  1  0  0  0  0
  6 16  1  0  0  0  0
  6  5  1  0  0  0  0
  7  6  2  0  0  0  0
 10  2  1  0  0  0  0
 12  3  1  0  0  0  0
 13  4  1  0  0  0  0
 14  4  1  0  0  0  0
 16 25  1  0  0  0  0
 17 26  1  6  0  0  0
 17 23  1  0  0  0  0
 17 16  1  0  0  0  0
 18 17  1  0  0  0  0
 18 28  1  0  0  0  0
 19 29  1  0  0  0  0
 19 18  1  0  0  0  0
 20 19  1  0  0  0  0
 20 31  1  0  0  0  0
 21 33  1  0  0  0  0
 21 20  1  0  0  0  0
 22 21  1  0  0  0  0
 23 37  1  0  0  0  0
 24 23  2  0  0  0  0
 27 18  1  0  0  0  0
 30 19  1  0  0  0  0
 32 20  1  0  0  0  0
 34 21  1  0  0  0  0
 35 22  1  0  0  0  0
 36 22  1  0  0  0  0
 37 47  1  0  0  0  0
 37 38  1  0  0  0  0
 38 48  1  6  0  0  0
 38 44  1  0  0  0  0
 38 39  1  0  0  0  0
 39 49  1  0  0  0  0
 39 50  1  0  0  0  0
 40 39  1  0  0  0  0
 40 51  1  0  0  0  0
 41 40  1  0  0  0  0
 41 53  1  0  0  0  0
 42 41  1  0  0  0  0
 42 56  1  0  0  0  0
 43 58  1  0  0  0  0
 43 42  1  0  0  0  0
 44 45  1  0  0  0  0
 46 44  2  0  0  0  0
 52 40  1  0  0  0  0
 54 41  1  0  0  0  0
 55 42  1  0  0  0  0
 57 43  1  0  0  0  0
M  END
$$$$
