PKL.pdb
 OpenBabel07022419043D

 56 56  0  0  1  0  0  0  0  0999 V2000
    1.5260   -2.4500    3.8400 N   0  0  0  0  0  0  0  0  0  0  0  0
    1.6470   -2.8640    5.2310 C   0  0  0  0  0  0  0  0  0  0  0  0
    0.8360   -1.8610    6.0260 C   0  0  0  0  0  0  0  0  0  0  0  0
   -0.1090   -1.3180    4.9850 C   0  0  0  0  0  0  0  0  0  0  0  0
    0.1230   -2.1270    3.7480 C   0  0  1  0  0  0  0  0  0  0  0  0
   -0.2040   -1.3950    2.4990 C   0  0  0  0  0  0  0  0  0  0  0  0
   -1.3920   -1.0460    2.2810 O   0  0  0  0  0  0  0  0  0  0  0  0
    2.0590   -1.5590    3.7250 H   0  0  0  0  0  0  0  0  0  0  0  0
    1.1930   -3.8670    5.3600 H   0  0  0  0  0  0  0  0  0  0  0  0
    2.7010   -2.9140    5.5550 H   0  0  0  0  0  0  0  0  0  0  0  0
    1.4780   -1.0290    6.4120 H   0  0  0  0  0  0  0  0  0  0  0  0
    0.2450   -2.3330    6.8320 H   0  0  0  0  0  0  0  0  0  0  0  0
   -1.1550   -1.4110    5.3190 H   0  0  0  0  0  0  0  0  0  0  0  0
    0.0590   -0.2220    4.8090 H   0  0  0  0  0  0  0  0  0  0  0  0
   -0.5110   -3.0390    3.8080 H   0  0  0  0  0  0  0  0  0  0  0  0
    0.7640   -1.0610    1.5220 N   0  0  0  0  0  0  0  0  0  0  0  0
    0.4500   -0.3400    0.2870 C   0  0  1  0  0  0  0  0  0  0  0  0
    1.3060    0.8420    0.0800 C   0  0  0  0  0  0  0  0  0  0  0  0
    1.3580    1.9280    1.0500 C   0  0  0  0  0  0  0  0  0  0  0  0
    0.2050    2.7680    1.3900 C   0  0  0  0  0  0  0  0  0  0  0  0
   -1.0120    2.1630    1.9850 C   0  0  0  0  0  0  0  0  0  0  0  0
   -2.0040    3.2390    2.3050 N   0  0  0  0  0  0  0  0  0  0  0  0
    0.6110   -1.3140   -0.8750 C   0  0  0  0  0  0  0  0  0  0  0  0
    0.9600   -2.4990   -0.6940 O   0  0  0  0  0  0  0  0  0  0  0  0
    1.7540   -1.3400    1.6810 H   0  0  0  0  0  0  0  0  0  0  0  0
   -0.6060   -0.1090    0.2860 H   0  0  0  0  0  0  0  0  0  0  0  0
    0.9590    1.2970   -0.9180 H   0  0  0  0  0  0  0  0  0  0  0  0
    2.3690    0.5180   -0.2180 H   0  0  0  0  0  0  0  0  0  0  0  0
    1.8300    1.5380    2.0280 H   0  0  0  0  0  0  0  0  0  0  0  0
    2.2090    2.6230    0.6860 H   0  0  0  0  0  0  0  0  0  0  0  0
   -0.0620    3.4420    0.5120 H   0  0  0  0  0  0  0  0  0  0  0  0
    0.5660    3.5330    2.1660 H   0  0  0  0  0  0  0  0  0  0  0  0
   -1.5920    1.5780    1.2130 H   0  0  0  0  0  0  0  0  0  0  0  0
   -0.8460    1.6010    2.9070 H   0  0  0  0  0  0  0  0  0  0  0  0
   -1.6660    3.7710    3.1380 H   0  0  0  0  0  0  0  0  0  0  0  0
   -2.9080    2.7880    2.5610 H   0  0  0  0  0  0  0  0  0  0  0  0
   -2.3420   -1.8470   -2.0550 C   0  0  0  0  0  0  0  0  0  0  0  0
   -1.8930   -2.5800   -3.2800 C   0  0  0  0  0  0  0  0  0  0  0  0
   -3.1170   -2.7590   -4.1970 C   0  0  0  0  0  0  0  0  0  0  0  0
   -0.8000   -1.9240   -4.0660 C   0  0  0  0  0  0  0  0  0  0  0  0
    0.4840   -1.7130   -3.3510 C   0  0  2  0  0  0  0  0  0  0  0  0
    0.3560   -0.8610   -2.1960 N   0  0  0  0  0  0  0  0  0  0  0  0
    1.5670   -1.2390   -4.2490 C   0  0  0  0  0  0  0  0  0  0  0  0
    2.2290   -0.2230   -3.9600 O   0  0  0  0  0  0  0  0  0  0  0  0
    1.8230   -1.9420   -5.4030 O   0  0  0  0  0  0  0  0  0  0  0  0
   -2.0180   -2.4110   -1.1400 H   0  0  0  0  0  0  0  0  0  0  0  0
   -3.4750   -1.8610   -1.9680 H   0  0  0  0  0  0  0  0  0  0  0  0
   -2.0210   -0.8130   -1.9740 H   0  0  0  0  0  0  0  0  0  0  0  0
   -1.5480   -3.6210   -2.9800 H   0  0  0  0  0  0  0  0  0  0  0  0
   -3.9950   -3.0870   -3.6160 H   0  0  0  0  0  0  0  0  0  0  0  0
   -3.2740   -1.7680   -4.6910 H   0  0  0  0  0  0  0  0  0  0  0  0
   -2.8250   -3.4940   -4.9790 H   0  0  0  0  0  0  0  0  0  0  0  0
   -0.5600   -2.5260   -4.9950 H   0  0  0  0  0  0  0  0  0  0  0  0
   -1.2360   -0.9660   -4.4600 H   0  0  0  0  0  0  0  0  0  0  0  0
    0.8310   -2.7350   -2.9780 H   0  0  0  0  0  0  0  0  0  0  0  0
    0.0710    0.1530   -2.3440 H   0  0  0  0  0  0  0  0  0  0  0  0
  1  2  1  0  0  0  0
  2  9  1  0  0  0  0
  2 10  1  0  0  0  0
  2  3  1  0  0  0  0
  3 11  1  0  0  0  0
  3 12  1  0  0  0  0
  4 13  1  0  0  0  0
  4  3  1  0  0  0  0
  5 15  1  1  0  0  0
  5  1  1  0  0  0  0
  5  4  1  0  0  0  0
  6  5  1  0  0  0  0
  7  6  2  0  0  0  0
  8  1  1  0  0  0  0
 14  4  1  0  0  0  0
 16 25  1  0  0  0  0
 16  6  1  0  0  0  0
 17 26  1  1  0  0  0
 17 16  1  0  0  0  0
 18 17  1  0  0  0  0
 18 19  1  0  0  0  0
 19 20  1  0  0  0  0
 19 29  1  0  0  0  0
 20 21  1  0  0  0  0
 20 32  1  0  0  0  0
 21 22  1  0  0  0  0
 21 34  1  0  0  0  0
 22 36  1  0  0  0  0
 22 35  1  0  0  0  0
 23 24  2  0  0  0  0
 23 17  1  0  0  0  0
 27 18  1  0  0  0  0
 28 18  1  0  0  0  0
 30 19  1  0  0  0  0
 31 20  1  0  0  0  0
 33 21  1  0  0  0  0
 37 48  1  0  0  0  0
 37 47  1  0  0  0  0
 37 46  1  0  0  0  0
 38 49  1  0  0  0  0
 38 37  1  0  0  0  0
 39 50  1  0  0  0  0
 39 38  1  0  0  0  0
 40 41  1  0  0  0  0
 40 38  1  0  0  0  0
 41 55  1  1  0  0  0
 41 42  1  0  0  0  0
 42 23  1  0  0  0  0
 43 44  1  0  0  0  0
 43 41  1  0  0  0  0
 45 43  2  0  0  0  0
 51 39  1  0  0  0  0
 52 39  1  0  0  0  0
 53 40  1  0  0  0  0
 54 40  1  0  0  0  0
 56 42  1  0  0  0  0
M  END
$$$$
