PKN.pdb
 OpenBabel07022419043D

 51 51  0  0  1  0  0  0  0  0999 V2000
    0.5710   -3.0940    3.4500 N   0  0  0  0  0  0  0  0  0  0  0  0
    1.4000   -2.6710    4.5610 C   0  0  0  0  0  0  0  0  0  0  0  0
    0.5840   -1.5550    5.2010 C   0  0  0  0  0  0  0  0  0  0  0  0
    0.1080   -0.8100    3.9600 C   0  0  0  0  0  0  0  0  0  0  0  0
   -0.0910   -1.9010    2.9590 C   0  0  1  0  0  0  0  0  0  0  0  0
    0.5030   -1.5410    1.6080 C   0  0  0  0  0  0  0  0  0  0  0  0
    1.4160   -2.2570    1.1260 O   0  0  0  0  0  0  0  0  0  0  0  0
    1.1590   -3.5330    2.6890 H   0  0  0  0  0  0  0  0  0  0  0  0
    1.5680   -3.4890    5.2850 H   0  0  0  0  0  0  0  0  0  0  0  0
    2.3690   -2.2560    4.2210 H   0  0  0  0  0  0  0  0  0  0  0  0
    1.1740   -0.8930    5.8330 H   0  0  0  0  0  0  0  0  0  0  0  0
   -0.2560   -2.0380    5.7210 H   0  0  0  0  0  0  0  0  0  0  0  0
    0.8960   -0.1020    3.6370 H   0  0  0  0  0  0  0  0  0  0  0  0
   -0.8120   -0.2770    4.2260 H   0  0  0  0  0  0  0  0  0  0  0  0
   -1.1750   -2.0440    2.7950 H   0  0  0  0  0  0  0  0  0  0  0  0
    0.0330   -0.4150    0.9030 N   0  0  0  0  0  0  0  0  0  0  0  0
    0.5160    0.0550   -0.3790 C   0  0  1  0  0  0  0  0  0  0  0  0
    1.9290   -0.3180   -0.7010 C   0  0  0  0  0  0  0  0  0  0  0  0
    2.9660    0.2050    0.1770 C   0  0  0  0  0  0  0  0  0  0  0  0
    3.3540    1.6310    0.2150 C   0  0  0  0  0  0  0  0  0  0  0  0
    2.3470    2.6670    0.5290 C   0  0  0  0  0  0  0  0  0  0  0  0
    2.9930    4.0020    0.6440 N   0  0  0  0  0  0  0  0  0  0  0  0
   -0.4280   -0.2370   -1.4750 C   0  0  0  0  0  0  0  0  0  0  0  0
   -0.1580    0.1040   -2.6580 O   0  0  0  0  0  0  0  0  0  0  0  0
   -0.7570    0.1180    1.3990 H   0  0  0  0  0  0  0  0  0  0  0  0
    0.5560    1.1790   -0.2400 H   0  0  0  0  0  0  0  0  0  0  0  0
    2.0940    0.1620   -1.7450 H   0  0  0  0  0  0  0  0  0  0  0  0
    2.0190   -1.4250   -0.8940 H   0  0  0  0  0  0  0  0  0  0  0  0
    2.7070   -0.0280    1.2860 H   0  0  0  0  0  0  0  0  0  0  0  0
    3.8980   -0.4490    0.0210 H   0  0  0  0  0  0  0  0  0  0  0  0
    3.8680    1.8580   -0.7830 H   0  0  0  0  0  0  0  0  0  0  0  0
    4.2350    1.7800    0.9450 H   0  0  0  0  0  0  0  0  0  0  0  0
    1.7650    2.8340   -0.4470 H   0  0  0  0  0  0  0  0  0  0  0  0
    1.6940    2.5110    1.3680 H   0  0  0  0  0  0  0  0  0  0  0  0
    2.2750    4.7180    0.8440 H   0  0  0  0  0  0  0  0  0  0  0  0
    3.6350    4.0080    1.4880 H   0  0  0  0  0  0  0  0  0  0  0  0
   -2.8630   -3.7530   -0.2480 N   0  0  0  0  0  0  0  0  0  0  0  0
   -3.6020   -3.0450   -1.2420 C   0  0  0  0  0  0  0  0  0  0  0  0
   -4.8060   -2.8010   -1.0340 O   0  0  0  0  0  0  0  0  0  0  0  0
   -2.9360   -2.6240   -2.4750 C   0  0  0  0  0  0  0  0  0  0  0  0
   -2.5670   -1.1740   -2.3790 C   0  0  2  0  0  0  0  0  0  0  0  0
   -1.6690   -0.9070   -1.2690 N   0  0  0  0  0  0  0  0  0  0  0  0
   -3.8100   -0.3960   -2.1540 C   0  0  0  0  0  0  0  0  0  0  0  0
   -3.9480    0.3330   -1.1420 O   0  0  0  0  0  0  0  0  0  0  0  0
   -4.8920   -0.4190   -3.0340 O   0  0  0  0  0  0  0  0  0  0  0  0
   -2.8570   -3.4150    0.7440 H   0  0  0  0  0  0  0  0  0  0  0  0
   -2.3470   -4.6000   -0.5720 H   0  0  0  0  0  0  0  0  0  0  0  0
   -3.6910   -2.7040   -3.3050 H   0  0  0  0  0  0  0  0  0  0  0  0
   -2.0930   -3.2720   -2.7910 H   0  0  0  0  0  0  0  0  0  0  0  0
   -2.1480   -0.8150   -3.3400 H   0  0  0  0  0  0  0  0  0  0  0  0
   -1.9100   -1.1970   -0.2970 H   0  0  0  0  0  0  0  0  0  0  0  0
  1  2  1  0  0  0  0
  2  3  1  0  0  0  0
  2  9  1  0  0  0  0
  3 12  1  0  0  0  0
  3 11  1  0  0  0  0
  4 14  1  0  0  0  0
  4  3  1  0  0  0  0
  5 15  1  6  0  0  0
  5  1  1  0  0  0  0
  5  4  1  0  0  0  0
  6  5  1  0  0  0  0
  7  6  2  0  0  0  0
  8  1  1  0  0  0  0
 10  2  1  0  0  0  0
 13  4  1  0  0  0  0
 16 25  1  0  0  0  0
 16  6  1  0  0  0  0
 17 26  1  1  0  0  0
 17 16  1  0  0  0  0
 18 17  1  0  0  0  0
 18 19  1  0  0  0  0
 19 20  1  0  0  0  0
 19 29  1  0  0  0  0
 20 21  1  0  0  0  0
 20 32  1  0  0  0  0
 21 22  1  0  0  0  0
 21 34  1  0  0  0  0
 22 35  1  0  0  0  0
 22 36  1  0  0  0  0
 23 42  1  0  0  0  0
 23 17  1  0  0  0  0
 24 23  2  0  0  0  0
 27 18  1  0  0  0  0
 28 18  1  0  0  0  0
 30 19  1  0  0  0  0
 31 20  1  0  0  0  0
 33 21  1  0  0  0  0
 37 46  1  0  0  0  0
 38 39  2  0  0  0  0
 38 37  1  0  0  0  0
 40 41  1  0  0  0  0
 40 38  1  0  0  0  0
 41 50  1  6  0  0  0
 41 43  1  0  0  0  0
 41 42  1  0  0  0  0
 42 51  1  0  0  0  0
 43 44  1  0  0  0  0
 45 43  2  0  0  0  0
 47 37  1  0  0  0  0
 48 40  1  0  0  0  0
 49 40  1  0  0  0  0
M  END
$$$$
