PKQ.pdb
 OpenBabel07022419043D

 54 54  0  0  1  0  0  0  0  0999 V2000
    3.5370   -3.1800    2.7170 N   0  0  0  0  0  0  0  0  0  0  0  0
    3.9290   -2.4970    3.9240 C   0  0  0  0  0  0  0  0  0  0  0  0
    3.0640   -3.0390    5.0350 C   0  0  0  0  0  0  0  0  0  0  0  0
    1.8890   -3.6790    4.3450 C   0  0  0  0  0  0  0  0  0  0  0  0
    2.2150   -3.6560    2.8690 C   0  0  1  0  0  0  0  0  0  0  0  0
    1.1560   -2.9190    2.1860 C   0  0  0  0  0  0  0  0  0  0  0  0
   -0.0280   -3.3560    2.3270 O   0  0  0  0  0  0  0  0  0  0  0  0
    3.7600   -2.5990    1.9100 H   0  0  0  0  0  0  0  0  0  0  0  0
    4.9880   -2.6590    4.1880 H   0  0  0  0  0  0  0  0  0  0  0  0
    3.7610   -1.4030    3.8610 H   0  0  0  0  0  0  0  0  0  0  0  0
    3.6050   -3.8370    5.5870 H   0  0  0  0  0  0  0  0  0  0  0  0
    2.7760   -2.2570    5.7650 H   0  0  0  0  0  0  0  0  0  0  0  0
    1.6670   -4.6910    4.7320 H   0  0  0  0  0  0  0  0  0  0  0  0
    0.9680   -3.0730    4.5770 H   0  0  0  0  0  0  0  0  0  0  0  0
    2.2120   -4.7400    2.5470 H   0  0  0  0  0  0  0  0  0  0  0  0
    1.3040   -1.7670    1.3800 N   0  0  0  0  0  0  0  0  0  0  0  0
    0.1690   -1.1020    0.7380 C   0  0  1  0  0  0  0  0  0  0  0  0
    0.1220    0.2730    1.4510 C   0  0  0  0  0  0  0  0  0  0  0  0
   -0.9490    1.1590    0.9620 C   0  0  0  0  0  0  0  0  0  0  0  0
   -0.9730    2.4860    1.6570 C   0  0  0  0  0  0  0  0  0  0  0  0
   -1.1970    2.4790    3.1200 C   0  0  0  0  0  0  0  0  0  0  0  0
   -0.1930    1.8090    3.8800 N   0  0  0  0  0  0  0  0  0  0  0  0
    0.3480   -0.9880   -0.7090 C   0  0  0  0  0  0  0  0  0  0  0  0
    1.4940   -1.2740   -1.1710 O   0  0  0  0  0  0  0  0  0  0  0  0
    2.2670   -1.3940    1.2520 H   0  0  0  0  0  0  0  0  0  0  0  0
   -0.7940   -1.5900    0.9500 H   0  0  0  0  0  0  0  0  0  0  0  0
   -0.0070    0.0520    2.5540 H   0  0  0  0  0  0  0  0  0  0  0  0
    1.1020    0.7860    1.3730 H   0  0  0  0  0  0  0  0  0  0  0  0
   -0.7910    1.4270   -0.1400 H   0  0  0  0  0  0  0  0  0  0  0  0
   -1.9430    0.6620    0.9710 H   0  0  0  0  0  0  0  0  0  0  0  0
   -1.6720    3.2060    1.1420 H   0  0  0  0  0  0  0  0  0  0  0  0
    0.0410    2.9860    1.5000 H   0  0  0  0  0  0  0  0  0  0  0  0
   -1.3170    3.5460    3.4700 H   0  0  0  0  0  0  0  0  0  0  0  0
   -2.2100    1.9900    3.2860 H   0  0  0  0  0  0  0  0  0  0  0  0
   -0.5270    1.7300    4.8740 H   0  0  0  0  0  0  0  0  0  0  0  0
    0.6680    2.3810    3.9010 H   0  0  0  0  0  0  0  0  0  0  0  0
   -4.8230   -0.0300   -3.4020 N   0  0  0  0  0  0  0  0  0  0  0  0
   -3.5080   -0.1800   -3.9420 C   0  0  0  0  0  0  0  0  0  0  0  0
   -3.0990    0.7300   -4.6780 O   0  0  0  0  0  0  0  0  0  0  0  0
   -2.7590   -1.3550   -3.6040 C   0  0  0  0  0  0  0  0  0  0  0  0
   -1.3080   -1.4450   -3.8210 C   0  0  0  0  0  0  0  0  0  0  0  0
   -0.4450   -0.4780   -3.0620 C   0  0  2  0  0  0  0  0  0  0  0  0
   -0.6560   -0.5880   -1.6310 N   0  0  0  0  0  0  0  0  0  0  0  0
   -0.5480    0.8810   -3.5520 C   0  0  0  0  0  0  0  0  0  0  0  0
   -0.9250    1.8830   -2.8660 O   0  0  0  0  0  0  0  0  0  0  0  0
   -0.2030    1.1540   -4.8930 O   0  0  0  0  0  0  0  0  0  0  0  0
   -5.0480    0.8440   -2.9080 H   0  0  0  0  0  0  0  0  0  0  0  0
   -5.5330   -0.7690   -3.4980 H   0  0  0  0  0  0  0  0  0  0  0  0
   -3.2350   -2.2200   -4.1930 H   0  0  0  0  0  0  0  0  0  0  0  0
   -2.9190   -1.6220   -2.4970 H   0  0  0  0  0  0  0  0  0  0  0  0
   -1.0800   -1.3930   -4.9320 H   0  0  0  0  0  0  0  0  0  0  0  0
   -0.9020   -2.4710   -3.5440 H   0  0  0  0  0  0  0  0  0  0  0  0
    0.6570   -0.7680   -3.2120 H   0  0  0  0  0  0  0  0  0  0  0  0
   -1.6200   -0.3710   -1.2980 H   0  0  0  0  0  0  0  0  0  0  0  0
  1  5  1  0  0  0  0
  1  2  1  0  0  0  0
  2  9  1  0  0  0  0
  2  3  1  0  0  0  0
  3 11  1  0  0  0  0
  3 12  1  0  0  0  0
  4 14  1  0  0  0  0
  4 13  1  0  0  0  0
  4  3  1  0  0  0  0
  5 15  1  6  0  0  0
  5  4  1  0  0  0  0
  6  7  2  0  0  0  0
  6  5  1  0  0  0  0
  8  1  1  0  0  0  0
 10  2  1  0  0  0  0
 16  6  1  0  0  0  0
 17 26  1  1  0  0  0
 17 16  1  0  0  0  0
 17 18  1  0  0  0  0
 18 27  1  0  0  0  0
 19 30  1  0  0  0  0
 19 18  1  0  0  0  0
 19 20  1  0  0  0  0
 20 21  1  0  0  0  0
 21 34  1  0  0  0  0
 21 33  1  0  0  0  0
 21 22  1  0  0  0  0
 22 36  1  0  0  0  0
 22 35  1  0  0  0  0
 23 17  1  0  0  0  0
 24 23  2  0  0  0  0
 25 16  1  0  0  0  0
 28 18  1  0  0  0  0
 29 19  1  0  0  0  0
 31 20  1  0  0  0  0
 32 20  1  0  0  0  0
 37 47  1  0  0  0  0
 38 40  1  0  0  0  0
 38 37  1  0  0  0  0
 39 38  2  0  0  0  0
 40 50  1  0  0  0  0
 41 40  1  0  0  0  0
 41 52  1  0  0  0  0
 41 42  1  0  0  0  0
 42 53  1  6  0  0  0
 42 43  1  0  0  0  0
 43 54  1  0  0  0  0
 43 23  1  0  0  0  0
 44 42  1  0  0  0  0
 44 45  1  0  0  0  0
 46 44  2  0  0  0  0
 48 37  1  0  0  0  0
 49 40  1  0  0  0  0
 51 41  1  0  0  0  0
M  END
$$$$
