PKR.pdb
 OpenBabel07022419043D

 60 60  0  0  1  0  0  0  0  0999 V2000
    2.8790   -0.3930    4.4450 N   0  0  0  0  0  0  0  0  0  0  0  0
    2.4390   -1.5370    5.1800 C   0  0  0  0  0  0  0  0  0  0  0  0
    2.7410   -2.7350    4.3300 C   0  0  0  0  0  0  0  0  0  0  0  0
    3.5400   -2.2200    3.1650 C   0  0  0  0  0  0  0  0  0  0  0  0
    3.1440   -0.7640    3.0910 C   0  0  1  0  0  0  0  0  0  0  0  0
    1.9500   -0.6760    2.2090 C   0  0  0  0  0  0  0  0  0  0  0  0
    2.0970   -0.9970    1.0030 O   0  0  0  0  0  0  0  0  0  0  0  0
    2.3330    0.4650    4.5690 H   0  0  0  0  0  0  0  0  0  0  0  0
    1.3420   -1.4390    5.3990 H   0  0  0  0  0  0  0  0  0  0  0  0
    3.0140   -1.6520    6.1450 H   0  0  0  0  0  0  0  0  0  0  0  0
    1.7860   -3.2150    4.0060 H   0  0  0  0  0  0  0  0  0  0  0  0
    3.2830   -3.5140    4.9020 H   0  0  0  0  0  0  0  0  0  0  0  0
    3.2260   -2.7880    2.2520 H   0  0  0  0  0  0  0  0  0  0  0  0
    4.6410   -2.3330    3.3320 H   0  0  0  0  0  0  0  0  0  0  0  0
    4.0030   -0.1950    2.6680 H   0  0  0  0  0  0  0  0  0  0  0  0
    0.6660   -0.2570    2.6430 N   0  0  0  0  0  0  0  0  0  0  0  0
   -0.4420   -0.2070    1.6990 C   0  0  1  0  0  0  0  0  0  0  0  0
   -0.2390    0.8540    0.6470 C   0  0  0  0  0  0  0  0  0  0  0  0
   -0.1310    2.1960    1.3500 C   0  0  0  0  0  0  0  0  0  0  0  0
    0.0760    3.3200    0.3580 C   0  0  0  0  0  0  0  0  0  0  0  0
   -1.0620    3.4160   -0.6180 C   0  0  0  0  0  0  0  0  0  0  0  0
   -2.3020    3.6660    0.1090 N   0  0  0  0  0  0  0  0  0  0  0  0
   -0.7200   -1.5470    1.1730 C   0  0  0  0  0  0  0  0  0  0  0  0
   -0.0020   -2.5120    1.6230 O   0  0  0  0  0  0  0  0  0  0  0  0
    0.5510    0.0070    3.6420 H   0  0  0  0  0  0  0  0  0  0  0  0
   -1.3580    0.1240    2.2810 H   0  0  0  0  0  0  0  0  0  0  0  0
    0.6600    0.6500    0.0650 H   0  0  0  0  0  0  0  0  0  0  0  0
   -1.1780    0.8910    0.0530 H   0  0  0  0  0  0  0  0  0  0  0  0
    0.7710    2.1820    2.0110 H   0  0  0  0  0  0  0  0  0  0  0  0
   -1.0130    2.3890    1.9910 H   0  0  0  0  0  0  0  0  0  0  0  0
    0.2480    4.2840    0.8560 H   0  0  0  0  0  0  0  0  0  0  0  0
    0.9920    3.0620   -0.2470 H   0  0  0  0  0  0  0  0  0  0  0  0
   -1.1120    2.4890   -1.2110 H   0  0  0  0  0  0  0  0  0  0  0  0
   -0.8920    4.2950   -1.2730 H   0  0  0  0  0  0  0  0  0  0  0  0
   -2.5960    2.7710    0.5290 H   0  0  0  0  0  0  0  0  0  0  0  0
   -2.0770    4.3930    0.8300 H   0  0  0  0  0  0  0  0  0  0  0  0
   -0.6120    0.1150   -5.3930 N   0  0  0  0  0  0  0  0  0  0  0  0
   -1.2450   -0.5980   -4.3390 C   0  0  0  0  0  0  0  0  0  0  0  0
   -1.6660    0.0360   -3.2990 N   0  0  0  0  0  0  0  0  0  0  0  0
   -1.4420   -2.0020   -4.3770 N   0  0  0  0  0  0  0  0  0  0  0  0
   -1.7740   -2.8140   -3.2260 C   0  0  0  0  0  0  0  0  0  0  0  0
   -0.5780   -2.8340   -2.2980 C   0  0  0  0  0  0  0  0  0  0  0  0
   -0.8070   -3.6600   -1.0800 C   0  0  0  0  0  0  0  0  0  0  0  0
   -1.9460   -3.1840   -0.2490 C   0  0  2  0  0  0  0  0  0  0  0  0
   -1.7200   -1.8350    0.2130 N   0  0  0  0  0  0  0  0  0  0  0  0
   -2.2300   -4.1160    0.8640 C   0  0  0  0  0  0  0  0  0  0  0  0
   -2.4170   -5.3210    0.6300 O   0  0  0  0  0  0  0  0  0  0  0  0
   -2.2860   -3.6420    2.1490 O   0  0  0  0  0  0  0  0  0  0  0  0
   -0.9330   -0.0140   -6.3860 H   0  0  0  0  0  0  0  0  0  0  0  0
    0.1680    0.7570   -5.1340 H   0  0  0  0  0  0  0  0  0  0  0  0
   -2.1340   -0.4200   -2.4980 H   0  0  0  0  0  0  0  0  0  0  0  0
   -1.3400   -2.4780   -5.2980 H   0  0  0  0  0  0  0  0  0  0  0  0
   -2.0100   -3.8460   -3.4860 H   0  0  0  0  0  0  0  0  0  0  0  0
   -2.6690   -2.3710   -2.7530 H   0  0  0  0  0  0  0  0  0  0  0  0
   -0.2390   -1.8210   -2.0260 H   0  0  0  0  0  0  0  0  0  0  0  0
    0.2610   -3.3020   -2.8770 H   0  0  0  0  0  0  0  0  0  0  0  0
   -0.9710   -4.7400   -1.3130 H   0  0  0  0  0  0  0  0  0  0  0  0
    0.1420   -3.6000   -0.4680 H   0  0  0  0  0  0  0  0  0  0  0  0
   -2.8710   -3.2360   -0.8900 H   0  0  0  0  0  0  0  0  0  0  0  0
   -2.2990   -1.0700   -0.1630 H   0  0  0  0  0  0  0  0  0  0  0  0
  1  8  1  0  0  0  0
  1  2  1  0  0  0  0
  2  9  1  0  0  0  0
  2 10  1  0  0  0  0
  3 12  1  0  0  0  0
  3  2  1  0  0  0  0
  4 14  1  0  0  0  0
  4  3  1  0  0  0  0
  5 15  1  6  0  0  0
  5  4  1  0  0  0  0
  5  1  1  0  0  0  0
  6 16  1  0  0  0  0
  6  5  1  0  0  0  0
  7  6  2  0  0  0  0
 11  3  1  0  0  0  0
 13  4  1  0  0  0  0
 16 25  1  0  0  0  0
 17 26  1  1  0  0  0
 17 16  1  0  0  0  0
 18 19  1  0  0  0  0
 18 17  1  0  0  0  0
 19 30  1  0  0  0  0
 19 29  1  0  0  0  0
 20 31  1  0  0  0  0
 20 19  1  0  0  0  0
 21 22  1  0  0  0  0
 21 20  1  0  0  0  0
 22 35  1  0  0  0  0
 22 36  1  0  0  0  0
 23 24  2  0  0  0  0
 23 17  1  0  0  0  0
 27 18  1  0  0  0  0
 28 18  1  0  0  0  0
 32 20  1  0  0  0  0
 33 21  1  0  0  0  0
 34 21  1  0  0  0  0
 37 50  1  0  0  0  0
 37 38  1  0  0  0  0
 38 39  2  0  0  0  0
 39 51  1  0  0  0  0
 40 38  1  0  0  0  0
 40 41  1  0  0  0  0
 41 54  1  0  0  0  0
 41 42  1  0  0  0  0
 42 55  1  0  0  0  0
 42 43  1  0  0  0  0
 43 58  1  0  0  0  0
 43 44  1  0  0  0  0
 44 59  1  6  0  0  0
 44 45  1  0  0  0  0
 44 46  1  0  0  0  0
 45 23  1  0  0  0  0
 46 48  1  0  0  0  0
 47 46  2  0  0  0  0
 49 37  1  0  0  0  0
 52 40  1  0  0  0  0
 53 41  1  0  0  0  0
 56 42  1  0  0  0  0
 57 43  1  0  0  0  0
 60 45  1  0  0  0  0
M  END
$$$$
