PKS.pdb
 OpenBabel07022419043D

 48 48  0  0  1  0  0  0  0  0999 V2000
    1.2050   -4.4130    2.6510 N   0  0  0  0  0  0  0  0  0  0  0  0
    1.6290   -4.7700    3.9990 C   0  0  0  0  0  0  0  0  0  0  0  0
    2.2670   -3.4610    4.4560 C   0  0  0  0  0  0  0  0  0  0  0  0
    1.4320   -2.3810    3.7870 C   0  0  0  0  0  0  0  0  0  0  0  0
    0.5440   -3.1640    2.8600 C   0  0  1  0  0  0  0  0  0  0  0  0
    0.4250   -2.3740    1.5810 C   0  0  0  0  0  0  0  0  0  0  0  0
    0.8970   -2.8970    0.5640 O   0  0  0  0  0  0  0  0  0  0  0  0
    0.5160   -5.1340    2.3400 H   0  0  0  0  0  0  0  0  0  0  0  0
    0.7480   -5.0010    4.6080 H   0  0  0  0  0  0  0  0  0  0  0  0
    2.3720   -5.5820    3.9830 H   0  0  0  0  0  0  0  0  0  0  0  0
    3.3100   -3.3910    4.1000 H   0  0  0  0  0  0  0  0  0  0  0  0
    2.1630   -3.3090    5.5440 H   0  0  0  0  0  0  0  0  0  0  0  0
    0.7860   -1.8450    4.5090 H   0  0  0  0  0  0  0  0  0  0  0  0
    2.0720   -1.6920    3.2000 H   0  0  0  0  0  0  0  0  0  0  0  0
   -0.4590   -3.2990    3.3010 H   0  0  0  0  0  0  0  0  0  0  0  0
   -0.1970   -1.1060    1.5650 N   0  0  0  0  0  0  0  0  0  0  0  0
   -0.3540   -0.2530    0.4170 C   0  0  1  0  0  0  0  0  0  0  0  0
    0.6160   -0.4860   -0.6950 C   0  0  0  0  0  0  0  0  0  0  0  0
    2.0220   -0.2310   -0.2770 C   0  0  0  0  0  0  0  0  0  0  0  0
    2.2310    1.2250    0.1290 C   0  0  0  0  0  0  0  0  0  0  0  0
    3.7130    1.4270    0.5040 C   0  0  0  0  0  0  0  0  0  0  0  0
    3.9380    2.8040    0.8940 N   0  0  0  0  0  0  0  0  0  0  0  0
   -1.7600   -0.2570   -0.0010 C   0  0  0  0  0  0  0  0  0  0  0  0
   -2.5970   -0.9450    0.6350 O   0  0  0  0  0  0  0  0  0  0  0  0
   -0.5800   -0.7570    2.4780 H   0  0  0  0  0  0  0  0  0  0  0  0
   -0.0290    0.7890    0.7900 H   0  0  0  0  0  0  0  0  0  0  0  0
    0.3790    0.3080   -1.4690 H   0  0  0  0  0  0  0  0  0  0  0  0
    0.4780   -1.4630   -1.2040 H   0  0  0  0  0  0  0  0  0  0  0  0
    2.3800   -0.8040    0.6080 H   0  0  0  0  0  0  0  0  0  0  0  0
    2.7540   -0.4150   -1.1110 H   0  0  0  0  0  0  0  0  0  0  0  0
    2.0150    1.9250   -0.6980 H   0  0  0  0  0  0  0  0  0  0  0  0
    1.7000    1.4850    1.0640 H   0  0  0  0  0  0  0  0  0  0  0  0
    4.3090    1.2430   -0.4020 H   0  0  0  0  0  0  0  0  0  0  0  0
    3.9970    0.7910    1.3580 H   0  0  0  0  0  0  0  0  0  0  0  0
    3.2230    3.1160    1.5820 H   0  0  0  0  0  0  0  0  0  0  0  0
    3.7880    3.3880    0.0250 H   0  0  0  0  0  0  0  0  0  0  0  0
   -4.2680    2.3480   -0.1530 O   0  0  0  0  0  0  0  0  0  0  0  0
   -4.2840    1.8460   -1.4350 C   0  0  0  0  0  0  0  0  0  0  0  0
   -3.6440    0.4820   -1.5220 C   0  0  2  0  0  0  0  0  0  0  0  0
   -2.2680    0.4830   -1.1090 N   0  0  0  0  0  0  0  0  0  0  0  0
   -3.8340   -0.0680   -2.8840 C   0  0  0  0  0  0  0  0  0  0  0  0
   -2.8020   -0.4570   -3.5030 O   0  0  0  0  0  0  0  0  0  0  0  0
   -5.0440   -0.1790   -3.5100 O   0  0  0  0  0  0  0  0  0  0  0  0
   -5.1250    2.1470    0.2980 H   0  0  0  0  0  0  0  0  0  0  0  0
   -5.3430    1.7270   -1.7460 H   0  0  0  0  0  0  0  0  0  0  0  0
   -3.8240    2.5360   -2.1760 H   0  0  0  0  0  0  0  0  0  0  0  0
   -4.1990   -0.1840   -0.8280 H   0  0  0  0  0  0  0  0  0  0  0  0
   -1.5730    1.0540   -1.6380 H   0  0  0  0  0  0  0  0  0  0  0  0
  1  5  1  0  0  0  0
  1  2  1  0  0  0  0
  2  3  1  0  0  0  0
  2  9  1  0  0  0  0
  3 12  1  0  0  0  0
  4  3  1  0  0  0  0
  4 13  1  0  0  0  0
  5 15  1  1  0  0  0
  5  4  1  0  0  0  0
  6  5  1  0  0  0  0
  7  6  2  0  0  0  0
  8  1  1  0  0  0  0
 10  2  1  0  0  0  0
 11  3  1  0  0  0  0
 14  4  1  0  0  0  0
 16  6  1  0  0  0  0
 16 25  1  0  0  0  0
 17 26  1  1  0  0  0
 17 16  1  0  0  0  0
 18 19  1  0  0  0  0
 18 17  1  0  0  0  0
 19 20  1  0  0  0  0
 19 29  1  0  0  0  0
 20 21  1  0  0  0  0
 20 32  1  0  0  0  0
 21 22  1  0  0  0  0
 21 34  1  0  0  0  0
 22 35  1  0  0  0  0
 23 17  1  0  0  0  0
 23 24  2  0  0  0  0
 27 18  1  0  0  0  0
 28 18  1  0  0  0  0
 30 19  1  0  0  0  0
 31 20  1  0  0  0  0
 33 21  1  0  0  0  0
 36 22  1  0  0  0  0
 37 44  1  0  0  0  0
 38 37  1  0  0  0  0
 39 38  1  0  0  0  0
 39 40  1  0  0  0  0
 39 47  1  1  0  0  0
 40 23  1  0  0  0  0
 41 39  1  0  0  0  0
 42 41  1  0  0  0  0
 43 41  2  0  0  0  0
 45 38  1  0  0  0  0
 46 38  1  0  0  0  0
 48 40  1  0  0  0  0
M  END
$$$$
