PKT.pdb
 OpenBabel07022419043D

 51 51  0  0  1  0  0  0  0  0999 V2000
    0.1480   -3.2340    2.8610 N   0  0  0  0  0  0  0  0  0  0  0  0
    0.7790   -3.3520    4.1400 C   0  0  0  0  0  0  0  0  0  0  0  0
    0.5600   -1.9990    4.8100 C   0  0  0  0  0  0  0  0  0  0  0  0
    0.7720   -1.0760    3.6210 C   0  0  0  0  0  0  0  0  0  0  0  0
   -0.0170   -1.8460    2.5580 C   0  0  1  0  0  0  0  0  0  0  0  0
    0.4680   -1.4950    1.1900 C   0  0  0  0  0  0  0  0  0  0  0  0
    0.9420   -2.4190    0.5010 O   0  0  0  0  0  0  0  0  0  0  0  0
   -0.8050   -3.6980    2.9350 H   0  0  0  0  0  0  0  0  0  0  0  0
    0.4290   -4.1800    4.7590 H   0  0  0  0  0  0  0  0  0  0  0  0
    1.8840   -3.4210    3.9550 H   0  0  0  0  0  0  0  0  0  0  0  0
    1.2780   -1.8150    5.6220 H   0  0  0  0  0  0  0  0  0  0  0  0
   -0.4910   -1.9730    5.1310 H   0  0  0  0  0  0  0  0  0  0  0  0
    1.8610   -1.1070    3.3900 H   0  0  0  0  0  0  0  0  0  0  0  0
    0.3870   -0.0690    3.7810 H   0  0  0  0  0  0  0  0  0  0  0  0
   -1.0730   -1.5280    2.6800 H   0  0  0  0  0  0  0  0  0  0  0  0
    0.3770   -0.1890    0.7470 N   0  0  0  0  0  0  0  0  0  0  0  0
    0.7920    0.3450   -0.5100 C   0  0  1  0  0  0  0  0  0  0  0  0
    1.9780   -0.3480   -1.0550 C   0  0  0  0  0  0  0  0  0  0  0  0
    3.1780   -0.2970   -0.2140 C   0  0  0  0  0  0  0  0  0  0  0  0
    3.8690    0.9560    0.1030 C   0  0  0  0  0  0  0  0  0  0  0  0
    3.1970    2.0490    0.8260 C   0  0  0  0  0  0  0  0  0  0  0  0
    2.6520    1.6820    2.1220 N   0  0  0  0  0  0  0  0  0  0  0  0
   -0.3600    0.3240   -1.4820 C   0  0  0  0  0  0  0  0  0  0  0  0
   -0.2440    0.7400   -2.6500 O   0  0  0  0  0  0  0  0  0  0  0  0
   -0.0610    0.5230    1.4260 H   0  0  0  0  0  0  0  0  0  0  0  0
    1.0480    1.4260   -0.4200 H   0  0  0  0  0  0  0  0  0  0  0  0
    2.2190    0.0590   -2.1150 H   0  0  0  0  0  0  0  0  0  0  0  0
    1.7040   -1.4120   -1.3170 H   0  0  0  0  0  0  0  0  0  0  0  0
    3.9770   -0.9630   -0.7180 H   0  0  0  0  0  0  0  0  0  0  0  0
    3.0550   -0.8500    0.7660 H   0  0  0  0  0  0  0  0  0  0  0  0
    4.7830    0.6790    0.7130 H   0  0  0  0  0  0  0  0  0  0  0  0
    4.3400    1.4110   -0.8250 H   0  0  0  0  0  0  0  0  0  0  0  0
    2.6000    2.7680    0.2540 H   0  0  0  0  0  0  0  0  0  0  0  0
    4.0920    2.7420    1.1540 H   0  0  0  0  0  0  0  0  0  0  0  0
    3.3460    1.6470    2.8740 H   0  0  0  0  0  0  0  0  0  0  0  0
    1.8150    2.2590    2.2990 H   0  0  0  0  0  0  0  0  0  0  0  0
   -3.4550   -2.3680   -0.7690 C   0  0  0  0  0  0  0  0  0  0  0  0
   -3.1640   -1.6920   -2.0810 C   0  0  1  0  0  0  0  0  0  0  0  0
   -4.2850   -1.8020   -2.8960 O   0  0  0  0  0  0  0  0  0  0  0  0
   -2.7640   -0.2420   -1.9060 C   0  0  2  0  0  0  0  0  0  0  0  0
   -1.5980   -0.1780   -1.0550 N   0  0  0  0  0  0  0  0  0  0  0  0
   -3.9100    0.4770   -1.3440 C   0  0  0  0  0  0  0  0  0  0  0  0
   -3.8850    1.0830   -0.2440 O   0  0  0  0  0  0  0  0  0  0  0  0
   -5.0960    0.4950   -2.0630 O   0  0  0  0  0  0  0  0  0  0  0  0
   -4.0160   -3.3120   -1.0150 H   0  0  0  0  0  0  0  0  0  0  0  0
   -4.1300   -1.7660   -0.1370 H   0  0  0  0  0  0  0  0  0  0  0  0
   -2.5360   -2.6970   -0.2460 H   0  0  0  0  0  0  0  0  0  0  0  0
   -2.3470   -2.2890   -2.5790 H   0  0  0  0  0  0  0  0  0  0  0  0
   -4.7850   -2.6390   -2.7500 H   0  0  0  0  0  0  0  0  0  0  0  0
   -2.5470    0.1540   -2.9240 H   0  0  0  0  0  0  0  0  0  0  0  0
   -1.7270   -0.5380   -0.0710 H   0  0  0  0  0  0  0  0  0  0  0  0
  1  8  1  0  0  0  0
  1  2  1  0  0  0  0
  2  9  1  0  0  0  0
  2  3  1  0  0  0  0
  3 12  1  0  0  0  0
  3 11  1  0  0  0  0
  4 14  1  0  0  0  0
  4  3  1  0  0  0  0
  5 15  1  1  0  0  0
  5  1  1  0  0  0  0
  5  4  1  0  0  0  0
  6  5  1  0  0  0  0
  7  6  2  0  0  0  0
 10  2  1  0  0  0  0
 13  4  1  0  0  0  0
 16  6  1  0  0  0  0
 16 25  1  0  0  0  0
 17 26  1  1  0  0  0
 17 16  1  0  0  0  0
 18 17  1  0  0  0  0
 18 19  1  0  0  0  0
 19 20  1  0  0  0  0
 19 30  1  0  0  0  0
 20 31  1  0  0  0  0
 20 21  1  0  0  0  0
 21 34  1  0  0  0  0
 21 22  1  0  0  0  0
 22 36  1  0  0  0  0
 22 35  1  0  0  0  0
 23 41  1  0  0  0  0
 23 17  1  0  0  0  0
 24 23  2  0  0  0  0
 27 18  1  0  0  0  0
 28 18  1  0  0  0  0
 29 19  1  0  0  0  0
 32 20  1  0  0  0  0
 33 21  1  0  0  0  0
 37 47  1  0  0  0  0
 37 46  1  0  0  0  0
 38 48  1  6  0  0  0
 38 40  1  0  0  0  0
 38 37  1  0  0  0  0
 39 49  1  0  0  0  0
 39 38  1  0  0  0  0
 40 50  1  6  0  0  0
 40 42  1  0  0  0  0
 40 41  1  0  0  0  0
 41 51  1  0  0  0  0
 42 43  1  0  0  0  0
 44 42  2  0  0  0  0
 45 37  1  0  0  0  0
M  END
$$$$
