PKV.pdb
 OpenBabel07022419043D

 53 53  0  0  1  0  0  0  0  0999 V2000
   -1.6670   -1.4780    3.3920 N   0  0  0  0  0  0  0  0  0  0  0  0
   -0.8380   -1.7670    4.5530 C   0  0  0  0  0  0  0  0  0  0  0  0
   -0.6030   -0.3590    5.0910 C   0  0  0  0  0  0  0  0  0  0  0  0
   -0.2600    0.3880    3.8200 C   0  0  0  0  0  0  0  0  0  0  0  0
   -1.1280   -0.2990    2.7840 C   0  0  1  0  0  0  0  0  0  0  0  0
   -0.3250   -0.6980    1.5910 C   0  0  0  0  0  0  0  0  0  0  0  0
   -0.2450   -1.9190    1.3160 O   0  0  0  0  0  0  0  0  0  0  0  0
   -2.6480   -1.3410    3.7570 H   0  0  0  0  0  0  0  0  0  0  0  0
   -1.3880   -2.3950    5.2750 H   0  0  0  0  0  0  0  0  0  0  0  0
    0.1020   -2.2340    4.1950 H   0  0  0  0  0  0  0  0  0  0  0  0
    0.1960   -0.3360    5.8400 H   0  0  0  0  0  0  0  0  0  0  0  0
   -1.5880   -0.0280    5.5030 H   0  0  0  0  0  0  0  0  0  0  0  0
    0.7880    0.1490    3.5710 H   0  0  0  0  0  0  0  0  0  0  0  0
   -0.4620    1.4680    3.9040 H   0  0  0  0  0  0  0  0  0  0  0  0
   -1.9640    0.3480    2.4660 H   0  0  0  0  0  0  0  0  0  0  0  0
    0.3350    0.2580    0.7810 N   0  0  0  0  0  0  0  0  0  0  0  0
    1.1210   -0.0560   -0.3760 C   0  0  1  0  0  0  0  0  0  0  0  0
    2.2730   -0.9290   -0.0010 C   0  0  0  0  0  0  0  0  0  0  0  0
    3.2140   -0.3930    0.9820 C   0  0  0  0  0  0  0  0  0  0  0  0
    4.0100    0.7990    0.7880 C   0  0  0  0  0  0  0  0  0  0  0  0
    3.4570    2.1310    0.5750 C   0  0  0  0  0  0  0  0  0  0  0  0
    2.6000    2.5470    1.6980 N   0  0  0  0  0  0  0  0  0  0  0  0
    0.2820   -0.7190   -1.4510 C   0  0  0  0  0  0  0  0  0  0  0  0
    0.8140   -1.1880   -2.4810 O   0  0  0  0  0  0  0  0  0  0  0  0
    0.2170    1.2590    1.0750 H   0  0  0  0  0  0  0  0  0  0  0  0
    1.4500    0.8790   -0.9080 H   0  0  0  0  0  0  0  0  0  0  0  0
    2.7770   -1.3580   -0.9200 H   0  0  0  0  0  0  0  0  0  0  0  0
    1.8290   -1.8680    0.4520 H   0  0  0  0  0  0  0  0  0  0  0  0
    3.9150   -1.2630    1.2450 H   0  0  0  0  0  0  0  0  0  0  0  0
    2.6240   -0.3300    1.9670 H   0  0  0  0  0  0  0  0  0  0  0  0
    4.7050    0.8920    1.6940 H   0  0  0  0  0  0  0  0  0  0  0  0
    4.7870    0.6000   -0.0300 H   0  0  0  0  0  0  0  0  0  0  0  0
    4.3330    2.8760    0.6910 H   0  0  0  0  0  0  0  0  0  0  0  0
    3.0200    2.4190   -0.3650 H   0  0  0  0  0  0  0  0  0  0  0  0
    3.1760    2.6580    2.5590 H   0  0  0  0  0  0  0  0  0  0  0  0
    2.0580    3.3970    1.4400 H   0  0  0  0  0  0  0  0  0  0  0  0
   -1.6240   -3.6380   -1.2380 C   0  0  0  0  0  0  0  0  0  0  0  0
   -2.6390   -2.6460   -1.7520 C   0  0  0  0  0  0  0  0  0  0  0  0
   -3.3730   -3.3260   -2.9070 C   0  0  0  0  0  0  0  0  0  0  0  0
   -1.9180   -1.4500   -2.3270 C   0  0  2  0  0  0  0  0  0  0  0  0
   -1.0980   -0.8090   -1.3020 N   0  0  0  0  0  0  0  0  0  0  0  0
   -2.8590   -0.4790   -2.9390 C   0  0  0  0  0  0  0  0  0  0  0  0
   -2.8930    0.7210   -2.5750 O   0  0  0  0  0  0  0  0  0  0  0  0
   -3.7320   -0.8750   -3.9370 O   0  0  0  0  0  0  0  0  0  0  0  0
   -0.6070   -3.3160   -1.4880 H   0  0  0  0  0  0  0  0  0  0  0  0
   -1.7500   -3.8180   -0.1370 H   0  0  0  0  0  0  0  0  0  0  0  0
   -1.7610   -4.6580   -1.6960 H   0  0  0  0  0  0  0  0  0  0  0  0
   -3.3500   -2.3530   -0.9510 H   0  0  0  0  0  0  0  0  0  0  0  0
   -3.3660   -4.4430   -2.7540 H   0  0  0  0  0  0  0  0  0  0  0  0
   -4.3810   -2.9370   -3.0550 H   0  0  0  0  0  0  0  0  0  0  0  0
   -2.7500   -3.1630   -3.8100 H   0  0  0  0  0  0  0  0  0  0  0  0
   -1.2470   -1.8130   -3.1270 H   0  0  0  0  0  0  0  0  0  0  0  0
   -1.5840   -0.4130   -0.4670 H   0  0  0  0  0  0  0  0  0  0  0  0
  1  8  1  0  0  0  0
  1  2  1  0  0  0  0
  2  3  1  0  0  0  0
  2  9  1  0  0  0  0
  3 12  1  0  0  0  0
  3 11  1  0  0  0  0
  4 14  1  0  0  0  0
  4  3  1  0  0  0  0
  5 15  1  6  0  0  0
  5  1  1  0  0  0  0
  5  4  1  0  0  0  0
  6  5  1  0  0  0  0
  7  6  2  0  0  0  0
 10  2  1  0  0  0  0
 13  4  1  0  0  0  0
 16 25  1  0  0  0  0
 16  6  1  0  0  0  0
 17 26  1  6  0  0  0
 17 18  1  0  0  0  0
 17 16  1  0  0  0  0
 18 28  1  0  0  0  0
 18 19  1  0  0  0  0
 19 29  1  0  0  0  0
 19 30  1  0  0  0  0
 20 19  1  0  0  0  0
 20 31  1  0  0  0  0
 21 33  1  0  0  0  0
 21 20  1  0  0  0  0
 21 22  1  0  0  0  0
 22 35  1  0  0  0  0
 23 41  1  0  0  0  0
 23 17  1  0  0  0  0
 24 23  2  0  0  0  0
 27 18  1  0  0  0  0
 32 20  1  0  0  0  0
 34 21  1  0  0  0  0
 36 22  1  0  0  0  0
 37 46  1  0  0  0  0
 38 37  1  0  0  0  0
 38 48  1  0  0  0  0
 39 49  1  0  0  0  0
 39 38  1  0  0  0  0
 40 52  1  6  0  0  0
 40 38  1  0  0  0  0
 40 41  1  0  0  0  0
 41 53  1  0  0  0  0
 42 43  1  0  0  0  0
 42 40  1  0  0  0  0
 44 42  2  0  0  0  0
 45 37  1  0  0  0  0
 47 37  1  0  0  0  0
 50 39  1  0  0  0  0
 51 39  1  0  0  0  0
M  END
$$$$
