PKW.pdb
 OpenBabel07022419043D

 61 63  0  0  1  0  0  0  0  0999 V2000
    1.7930   -1.8090    3.1590 N   0  0  0  0  0  0  0  0  0  0  0  0
    3.0260   -2.1990    2.5720 C   0  0  0  0  0  0  0  0  0  0  0  0
    4.0470   -1.1150    2.8330 C   0  0  0  0  0  0  0  0  0  0  0  0
    3.3550   -0.2300    3.8310 C   0  0  0  0  0  0  0  0  0  0  0  0
    1.9090   -0.4290    3.4740 C   0  0  1  0  0  0  0  0  0  0  0  0
    1.5770    0.4870    2.3430 C   0  0  0  0  0  0  0  0  0  0  0  0
    1.6710    1.7520    2.4960 O   0  0  0  0  0  0  0  0  0  0  0  0
    0.9790   -2.0460    2.5930 H   0  0  0  0  0  0  0  0  0  0  0  0
    2.9030   -2.3220    1.4780 H   0  0  0  0  0  0  0  0  0  0  0  0
    3.4020   -3.1560    3.0290 H   0  0  0  0  0  0  0  0  0  0  0  0
    4.2870   -0.5750    1.9050 H   0  0  0  0  0  0  0  0  0  0  0  0
    5.0050   -1.5180    3.2220 H   0  0  0  0  0  0  0  0  0  0  0  0
    3.5890    0.8560    3.6260 H   0  0  0  0  0  0  0  0  0  0  0  0
    3.5860   -0.5120    4.8740 H   0  0  0  0  0  0  0  0  0  0  0  0
    1.2460   -0.1960    4.3560 H   0  0  0  0  0  0  0  0  0  0  0  0
    1.1540    0.0450    1.0740 N   0  0  0  0  0  0  0  0  0  0  0  0
    0.8450    0.9870    0.0040 C   0  0  1  0  0  0  0  0  0  0  0  0
    1.8410    0.7160   -1.0910 C   0  0  0  0  0  0  0  0  0  0  0  0
    1.6820    1.5970   -2.2920 C   0  0  0  0  0  0  0  0  0  0  0  0
    1.8300    3.0600   -1.9980 C   0  0  0  0  0  0  0  0  0  0  0  0
    1.6430    3.8080   -3.3050 C   0  0  0  0  0  0  0  0  0  0  0  0
    2.6260    3.4140   -4.2990 N   0  0  0  0  0  0  0  0  0  0  0  0
   -0.5610    0.8150   -0.4590 C   0  0  0  0  0  0  0  0  0  0  0  0
   -1.0140    1.5390   -1.3670 O   0  0  0  0  0  0  0  0  0  0  0  0
    1.0530   -0.9690    0.8870 H   0  0  0  0  0  0  0  0  0  0  0  0
    0.9830    2.0150    0.3360 H   0  0  0  0  0  0  0  0  0  0  0  0
    2.8500    0.9210   -0.6510 H   0  0  0  0  0  0  0  0  0  0  0  0
    1.8070   -0.3330   -1.4320 H   0  0  0  0  0  0  0  0  0  0  0  0
    2.5250    1.3390   -2.9970 H   0  0  0  0  0  0  0  0  0  0  0  0
    0.7690    1.4410   -2.8640 H   0  0  0  0  0  0  0  0  0  0  0  0
    2.8330    3.2810   -1.5960 H   0  0  0  0  0  0  0  0  0  0  0  0
    1.0830    3.4480   -1.2870 H   0  0  0  0  0  0  0  0  0  0  0  0
    0.6460    3.4980   -3.7120 H   0  0  0  0  0  0  0  0  0  0  0  0
    1.6310    4.9000   -3.1710 H   0  0  0  0  0  0  0  0  0  0  0  0
    2.3220    2.4730   -4.6780 H   0  0  0  0  0  0  0  0  0  0  0  0
    3.5510    3.2940   -3.8220 H   0  0  0  0  0  0  0  0  0  0  0  0
   -1.4160   -0.1450    0.0910 N   0  0  0  0  0  0  0  0  0  0  0  0
   -2.7830   -0.3950   -0.2830 C   0  0  1  0  0  0  0  0  0  0  0  0
   -3.0510   -1.6960   -0.9050 C   0  0  0  0  0  0  0  0  0  0  0  0
   -2.7280   -2.9100   -0.1750 C   0  0  0  0  0  0  0  0  0  0  0  0
   -1.5260   -3.6010   -0.3570 C   0  0  0  0  0  0  0  0  0  0  0  0
   -1.4620   -4.6490    0.4560 N   0  0  0  0  0  0  0  0  0  0  0  0
   -2.6200   -4.6610    1.1810 C   0  0  0  0  0  0  0  0  0  0  0  0
   -3.0670   -5.5380    2.1600 C   0  0  0  0  0  0  0  0  0  0  0  0
   -4.3040   -5.3290    2.7400 C   0  0  0  0  0  0  0  0  0  0  0  0
   -5.0870   -4.2570    2.3480 C   0  0  0  0  0  0  0  0  0  0  0  0
   -4.6630   -3.3870    1.3900 C   0  0  0  0  0  0  0  0  0  0  0  0
   -3.4060   -3.5980    0.8010 C   0  0  0  0  0  0  0  0  0  0  0  0
   -3.6630   -0.0020    0.8090 C   0  0  0  0  0  0  0  0  0  0  0  0
   -3.1580    0.3420    1.9230 O   0  0  0  0  0  0  0  0  0  0  0  0
   -5.0500    0.0490    0.7800 O   0  0  0  0  0  0  0  0  0  0  0  0
   -1.0430   -0.7530    0.8530 H   0  0  0  0  0  0  0  0  0  0  0  0
   -2.9700    0.3720   -1.1170 H   0  0  0  0  0  0  0  0  0  0  0  0
   -4.1770   -1.7350   -1.0680 H   0  0  0  0  0  0  0  0  0  0  0  0
   -2.6730   -1.7030   -1.9660 H   0  0  0  0  0  0  0  0  0  0  0  0
   -0.7230   -3.3420   -1.0640 H   0  0  0  0  0  0  0  0  0  0  0  0
   -0.7030   -5.3720    0.5760 H   0  0  0  0  0  0  0  0  0  0  0  0
   -2.4310   -6.3840    2.4570 H   0  0  0  0  0  0  0  0  0  0  0  0
   -4.6420   -6.0300    3.5100 H   0  0  0  0  0  0  0  0  0  0  0  0
   -6.0610   -4.1220    2.8280 H   0  0  0  0  0  0  0  0  0  0  0  0
   -5.2540   -2.5440    1.0480 H   0  0  0  0  0  0  0  0  0  0  0  0
  1  5  1  0  0  0  0
  2  3  1  0  0  0  0
  2 10  1  0  0  0  0
  2  1  1  0  0  0  0
  3 12  1  0  0  0  0
  3  4  1  0  0  0  0
  4 14  1  0  0  0  0
  5  4  1  0  0  0  0
  5 15  1  1  0  0  0
  6  7  2  0  0  0  0
  6  5  1  0  0  0  0
  8  1  1  0  0  0  0
  9  2  1  0  0  0  0
 11  3  1  0  0  0  0
 13  4  1  0  0  0  0
 16  6  1  0  0  0  0
 17 26  1  1  0  0  0
 17 16  1  0  0  0  0
 18 27  1  0  0  0  0
 18 17  1  0  0  0  0
 19 20  1  0  0  0  0
 19 18  1  0  0  0  0
 20 31  1  0  0  0  0
 20 32  1  0  0  0  0
 21 34  1  0  0  0  0
 21 20  1  0  0  0  0
 22 36  1  0  0  0  0
 22 21  1  0  0  0  0
 23 17  1  0  0  0  0
 23 37  1  0  0  0  0
 24 23  2  0  0  0  0
 25 16  1  0  0  0  0
 28 18  1  0  0  0  0
 29 19  1  0  0  0  0
 30 19  1  0  0  0  0
 33 21  1  0  0  0  0
 35 22  1  0  0  0  0
 37 52  1  0  0  0  0
 38 53  1  6  0  0  0
 38 37  1  0  0  0  0
 38 49  1  0  0  0  0
 39 38  1  0  0  0  0
 39 40  1  0  0  0  0
 40 48  1  0  0  0  0
 41 40  2  0  0  0  0
 41 42  1  0  0  0  0
 42 57  1  0  0  0  0
 42 43  1  0  0  0  0
 43 44  1  0  0  0  0
 44 58  1  0  0  0  0
 44 45  2  0  0  0  0
 45 59  1  0  0  0  0
 46 45  1  0  0  0  0
 46 60  1  0  0  0  0
 47 46  2  0  0  0  0
 48 43  2  0  0  0  0
 48 47  1  0  0  0  0
 49 50  1  0  0  0  0
 51 49  2  0  0  0  0
 54 39  1  0  0  0  0
 55 39  1  0  0  0  0
 56 41  1  0  0  0  0
 61 47  1  0  0  0  0
M  END
$$$$
