PKY.pdb
 OpenBabel07022419043D

 58 59  0  0  1  0  0  0  0  0999 V2000
    3.3790   -2.8550    0.3160 N   0  0  0  0  0  0  0  0  0  0  0  0
    4.5740   -3.4310   -0.2710 C   0  0  0  0  0  0  0  0  0  0  0  0
    5.4940   -2.2640   -0.4100 C   0  0  0  0  0  0  0  0  0  0  0  0
    5.1750   -1.3820    0.7530 C   0  0  0  0  0  0  0  0  0  0  0  0
    3.8590   -1.8720    1.2840 C   0  0  1  0  0  0  0  0  0  0  0  0
    2.8420   -0.8000    1.4220 C   0  0  0  0  0  0  0  0  0  0  0  0
    3.0670    0.1490    2.2110 O   0  0  0  0  0  0  0  0  0  0  0  0
    2.8720   -3.6260    0.7880 H   0  0  0  0  0  0  0  0  0  0  0  0
    5.0110   -4.1750    0.4260 H   0  0  0  0  0  0  0  0  0  0  0  0
    4.3160   -3.8920   -1.2390 H   0  0  0  0  0  0  0  0  0  0  0  0
    6.5530   -2.6300   -0.3650 H   0  0  0  0  0  0  0  0  0  0  0  0
    5.3750   -1.7650   -1.3920 H   0  0  0  0  0  0  0  0  0  0  0  0
    5.1400   -0.3090    0.4640 H   0  0  0  0  0  0  0  0  0  0  0  0
    5.9610   -1.5440    1.5360 H   0  0  0  0  0  0  0  0  0  0  0  0
    3.9930   -2.4260    2.2400 H   0  0  0  0  0  0  0  0  0  0  0  0
    1.6270   -0.8290    0.6800 N   0  0  0  0  0  0  0  0  0  0  0  0
    0.6240    0.2200    0.8100 C   0  0  1  0  0  0  0  0  0  0  0  0
    0.4280    0.9360   -0.4810 C   0  0  0  0  0  0  0  0  0  0  0  0
   -0.5870    2.0390   -0.4460 C   0  0  0  0  0  0  0  0  0  0  0  0
   -0.2220    3.1050    0.5630 C   0  0  0  0  0  0  0  0  0  0  0  0
   -1.3050    4.1830    0.5320 C   0  0  0  0  0  0  0  0  0  0  0  0
   -1.4060    4.7750   -0.7680 N   0  0  0  0  0  0  0  0  0  0  0  0
   -0.6090   -0.3200    1.4250 C   0  0  0  0  0  0  0  0  0  0  0  0
   -1.5850    0.3960    1.6600 O   0  0  0  0  0  0  0  0  0  0  0  0
    1.4820   -1.6360    0.0350 H   0  0  0  0  0  0  0  0  0  0  0  0
    1.0280    0.9670    1.5470 H   0  0  0  0  0  0  0  0  0  0  0  0
    0.1880    0.2650   -1.3310 H   0  0  0  0  0  0  0  0  0  0  0  0
    1.4110    1.4150   -0.7470 H   0  0  0  0  0  0  0  0  0  0  0  0
   -1.5860    1.6010   -0.2910 H   0  0  0  0  0  0  0  0  0  0  0  0
   -0.5620    2.5380   -1.4520 H   0  0  0  0  0  0  0  0  0  0  0  0
    0.7300    3.5860    0.2610 H   0  0  0  0  0  0  0  0  0  0  0  0
   -0.0830    2.7110    1.5840 H   0  0  0  0  0  0  0  0  0  0  0  0
   -1.0470    4.9540    1.2900 H   0  0  0  0  0  0  0  0  0  0  0  0
   -2.2970    3.7430    0.7790 H   0  0  0  0  0  0  0  0  0  0  0  0
   -2.3550    4.7690   -1.1790 H   0  0  0  0  0  0  0  0  0  0  0  0
   -0.9000    5.6790   -0.8720 H   0  0  0  0  0  0  0  0  0  0  0  0
   -4.3730   -1.0450   -3.2310 O   0  0  0  0  0  0  0  0  0  0  0  0
   -3.8640   -1.6390   -2.0680 C   0  0  0  0  0  0  0  0  0  0  0  0
   -2.5740   -2.1330   -2.0630 C   0  0  0  0  0  0  0  0  0  0  0  0
   -2.1270   -2.7070   -0.8880 C   0  0  0  0  0  0  0  0  0  0  0  0
   -2.9280   -2.7860    0.2320 C   0  0  0  0  0  0  0  0  0  0  0  0
   -2.4490   -3.3970    1.4840 C   0  0  0  0  0  0  0  0  0  0  0  0
   -1.8050   -2.3460    2.3530 C   0  0  2  0  0  0  0  0  0  0  0  0
   -0.6880   -1.6990    1.7600 N   0  0  0  0  0  0  0  0  0  0  0  0
   -1.5280   -2.8940    3.7000 C   0  0  0  0  0  0  0  0  0  0  0  0
   -2.4350   -3.4920    4.3330 O   0  0  0  0  0  0  0  0  0  0  0  0
   -4.2120   -2.2870    0.2050 C   0  0  0  0  0  0  0  0  0  0  0  0
   -4.6730   -1.7120   -0.9550 C   0  0  0  0  0  0  0  0  0  0  0  0
   -0.2950   -2.7860    4.3260 O   0  0  0  0  0  0  0  0  0  0  0  0
   -4.8390   -0.1460   -3.1510 H   0  0  0  0  0  0  0  0  0  0  0  0
   -1.9880   -2.0500   -2.9580 H   0  0  0  0  0  0  0  0  0  0  0  0
   -1.0980   -3.1000   -0.8900 H   0  0  0  0  0  0  0  0  0  0  0  0
   -1.7910   -4.2750    1.3230 H   0  0  0  0  0  0  0  0  0  0  0  0
   -3.3310   -3.7820    2.0340 H   0  0  0  0  0  0  0  0  0  0  0  0
   -2.6000   -1.5560    2.5020 H   0  0  0  0  0  0  0  0  0  0  0  0
    0.1630   -2.2850    1.5460 H   0  0  0  0  0  0  0  0  0  0  0  0
   -4.8650   -2.3410    1.0900 H   0  0  0  0  0  0  0  0  0  0  0  0
   -5.6980   -1.3180   -0.9630 H   0  0  0  0  0  0  0  0  0  0  0  0
  1  8  1  0  0  0  0
  1  5  1  0  0  0  0
  2  1  1  0  0  0  0
  2  9  1  0  0  0  0
  3 11  1  0  0  0  0
  3  2  1  0  0  0  0
  3  4  1  0  0  0  0
  4  5  1  0  0  0  0
  4 14  1  0  0  0  0
  5  6  1  0  0  0  0
  5 15  1  1  0  0  0
  6  7  2  0  0  0  0
 10  2  1  0  0  0  0
 12  3  1  0  0  0  0
 13  4  1  0  0  0  0
 16 17  1  0  0  0  0
 16  6  1  0  0  0  0
 17 23  1  0  0  0  0
 17 26  1  1  0  0  0
 18 19  1  0  0  0  0
 18 17  1  0  0  0  0
 19 29  1  0  0  0  0
 19 20  1  0  0  0  0
 20 32  1  0  0  0  0
 21 20  1  0  0  0  0
 21 34  1  0  0  0  0
 21 33  1  0  0  0  0
 22 21  1  0  0  0  0
 23 24  2  0  0  0  0
 23 44  1  0  0  0  0
 25 16  1  0  0  0  0
 27 18  1  0  0  0  0
 28 18  1  0  0  0  0
 30 19  1  0  0  0  0
 31 20  1  0  0  0  0
 35 22  1  0  0  0  0
 36 22  1  0  0  0  0
 37 50  1  0  0  0  0
 37 38  1  0  0  0  0
 38 39  2  0  0  0  0
 38 48  1  0  0  0  0
 39 40  1  0  0  0  0
 40 41  2  0  0  0  0
 41 42  1  0  0  0  0
 42 54  1  0  0  0  0
 42 43  1  0  0  0  0
 43 55  1  1  0  0  0
 43 45  1  0  0  0  0
 44 43  1  0  0  0  0
 45 49  2  0  0  0  0
 45 46  1  0  0  0  0
 47 41  1  0  0  0  0
 47 57  1  0  0  0  0
 48 47  2  0  0  0  0
 51 39  1  0  0  0  0
 52 40  1  0  0  0  0
 53 42  1  0  0  0  0
 56 44  1  0  0  0  0
 58 48  1  0  0  0  0
M  END
$$$$
