PLA.pdb
 OpenBabel07022419043D

 45 45  0  0  1  0  0  0  0  0999 V2000
    2.5710   -2.0580    2.3470 N   0  0  0  0  0  0  0  0  0  0  0  0
    1.6880   -3.0360    3.0010 C   0  0  0  0  0  0  0  0  0  0  0  0
    1.5660   -4.1360    1.9740 C   0  0  0  0  0  0  0  0  0  0  0  0
    1.5330   -3.3780    0.6750 C   0  0  0  0  0  0  0  0  0  0  0  0
    2.1760   -2.0640    0.9620 C   0  0  1  0  0  0  0  0  0  0  0  0
    1.2680   -0.9070    0.6410 C   0  0  0  0  0  0  0  0  0  0  0  0
    0.8410   -0.7700   -0.5070 O   0  0  0  0  0  0  0  0  0  0  0  0
    3.5460   -2.4450    2.4830 H   0  0  0  0  0  0  0  0  0  0  0  0
    0.7280   -2.5340    3.1720 H   0  0  0  0  0  0  0  0  0  0  0  0
    2.1660   -3.4300    3.9150 H   0  0  0  0  0  0  0  0  0  0  0  0
    2.4270   -4.8260    2.0600 H   0  0  0  0  0  0  0  0  0  0  0  0
    0.6380   -4.6940    2.1130 H   0  0  0  0  0  0  0  0  0  0  0  0
    0.4970   -3.2370    0.3120 H   0  0  0  0  0  0  0  0  0  0  0  0
    2.0890   -3.9650   -0.0820 H   0  0  0  0  0  0  0  0  0  0  0  0
    3.0650   -1.9550    0.3080 H   0  0  0  0  0  0  0  0  0  0  0  0
    0.8990    2.3550   -1.3770 C   0  0  0  0  0  0  0  0  0  0  0  0
    1.5270    2.5740   -0.0590 C   0  0  0  0  0  0  0  0  0  0  0  0
    2.8590    1.8510   -0.0110 C   0  0  0  0  0  0  0  0  0  0  0  0
    0.7000    2.4150    1.1490 C   0  0  0  0  0  0  0  0  0  0  0  0
    0.0480    1.1480    1.4770 C   0  0  2  0  0  0  0  0  0  0  0  0
    0.9190    0.0090    1.6660 N   0  0  0  0  0  0  0  0  0  0  0  0
   -1.2710    0.8510    0.8830 C   0  0  0  0  0  0  0  0  0  0  0  0
   -2.0140    1.7860    0.4990 O   0  0  0  0  0  0  0  0  0  0  0  0
    0.6920    3.2940   -1.9460 H   0  0  0  0  0  0  0  0  0  0  0  0
    1.6210    1.8070   -2.0220 H   0  0  0  0  0  0  0  0  0  0  0  0
   -0.0040    1.6900   -1.3600 H   0  0  0  0  0  0  0  0  0  0  0  0
    1.8340    3.6710   -0.0550 H   0  0  0  0  0  0  0  0  0  0  0  0
    2.8630    1.0640   -0.8100 H   0  0  0  0  0  0  0  0  0  0  0  0
    3.0100    1.3840    0.9850 H   0  0  0  0  0  0  0  0  0  0  0  0
    3.7290    2.4810   -0.2070 H   0  0  0  0  0  0  0  0  0  0  0  0
   -0.0290    3.2730    1.1810 H   0  0  0  0  0  0  0  0  0  0  0  0
    1.3920    2.6600    2.0180 H   0  0  0  0  0  0  0  0  0  0  0  0
   -0.3100    1.3010    2.5800 H   0  0  0  0  0  0  0  0  0  0  0  0
    1.3660   -0.2160    2.6100 H   0  0  0  0  0  0  0  0  0  0  0  0
   -2.9100   -1.4290   -1.1900 C   0  0  0  0  0  0  0  0  0  0  0  0
   -3.0600   -0.6510    0.1220 C   0  0  2  0  0  0  0  0  0  0  0  0
   -1.7340   -0.4650    0.7330 N   0  0  0  0  0  0  0  0  0  0  0  0
   -3.9450   -1.3510    1.0520 C   0  0  0  0  0  0  0  0  0  0  0  0
   -5.1220   -1.6040    0.7130 O   0  0  0  0  0  0  0  0  0  0  0  0
   -3.4720   -1.7270    2.2980 O   0  0  0  0  0  0  0  0  0  0  0  0
   -2.1700   -0.9330   -1.8260 H   0  0  0  0  0  0  0  0  0  0  0  0
   -3.9040   -1.4680   -1.6500 H   0  0  0  0  0  0  0  0  0  0  0  0
   -2.6130   -2.4570   -0.9120 H   0  0  0  0  0  0  0  0  0  0  0  0
   -3.5210    0.3110   -0.1420 H   0  0  0  0  0  0  0  0  0  0  0  0
   -1.2060   -1.3300    1.0440 H   0  0  0  0  0  0  0  0  0  0  0  0
  1  8  1  0  0  0  0
  1  2  1  0  0  0  0
  2  9  1  0  0  0  0
  2 10  1  0  0  0  0
  3 11  1  0  0  0  0
  3 12  1  0  0  0  0
  3  2  1  0  0  0  0
  4  5  1  0  0  0  0
  4  3  1  0  0  0  0
  5 15  1  6  0  0  0
  5  1  1  0  0  0  0
  6  5  1  0  0  0  0
  6 21  1  0  0  0  0
  7  6  2  0  0  0  0
 13  4  1  0  0  0  0
 14  4  1  0  0  0  0
 16 26  1  0  0  0  0
 16 17  1  0  0  0  0
 17 27  1  0  0  0  0
 17 18  1  0  0  0  0
 17 19  1  0  0  0  0
 18 29  1  0  0  0  0
 19 31  1  0  0  0  0
 19 20  1  0  0  0  0
 19 32  1  0  0  0  0
 20 21  1  0  0  0  0
 20 33  1  1  0  0  0
 21 34  1  0  0  0  0
 22 20  1  0  0  0  0
 23 22  2  0  0  0  0
 24 16  1  0  0  0  0
 25 16  1  0  0  0  0
 28 18  1  0  0  0  0
 30 18  1  0  0  0  0
 35 43  1  0  0  0  0
 35 36  1  0  0  0  0
 36 44  1  6  0  0  0
 36 37  1  0  0  0  0
 36 38  1  0  0  0  0
 37 22  1  0  0  0  0
 37 45  1  0  0  0  0
 38 40  1  0  0  0  0
 39 38  2  0  0  0  0
 41 35  1  0  0  0  0
 42 35  1  0  0  0  0
M  END
$$$$
