PLF.pdb
 OpenBabel07022419043D

 55 56  0  0  1  0  0  0  0  0999 V2000
    3.6910   -1.2590    3.9920 N   0  0  0  0  0  0  0  0  0  0  0  0
    4.7020   -2.2620    4.3470 C   0  0  0  0  0  0  0  0  0  0  0  0
    4.3930   -3.4790    3.5260 C   0  0  0  0  0  0  0  0  0  0  0  0
    3.2620   -3.0400    2.6090 C   0  0  0  0  0  0  0  0  0  0  0  0
    3.4640   -1.5400    2.6110 C   0  0  1  0  0  0  0  0  0  0  0  0
    2.2460   -0.8990    2.0690 C   0  0  0  0  0  0  0  0  0  0  0  0
    1.5450   -0.1930    2.8390 O   0  0  0  0  0  0  0  0  0  0  0  0
    2.8410   -1.3660    4.5870 H   0  0  0  0  0  0  0  0  0  0  0  0
    4.6540   -2.5230    5.4150 H   0  0  0  0  0  0  0  0  0  0  0  0
    5.7090   -1.9010    4.0310 H   0  0  0  0  0  0  0  0  0  0  0  0
    5.2330   -3.7740    2.8490 H   0  0  0  0  0  0  0  0  0  0  0  0
    4.1150   -4.3580    4.1370 H   0  0  0  0  0  0  0  0  0  0  0  0
    3.3320   -3.4800    1.6100 H   0  0  0  0  0  0  0  0  0  0  0  0
    2.3090   -3.2380    3.1340 H   0  0  0  0  0  0  0  0  0  0  0  0
    4.3790   -1.2920    2.0480 H   0  0  0  0  0  0  0  0  0  0  0  0
    1.1960    2.5480    0.4550 C   0  0  0  0  0  0  0  0  0  0  0  0
    1.7920    1.6690   -0.6510 C   0  0  0  0  0  0  0  0  0  0  0  0
    3.2020    1.3440   -0.3040 C   0  0  0  0  0  0  0  0  0  0  0  0
    0.8980    0.5210   -0.9490 C   0  0  0  0  0  0  0  0  0  0  0  0
    0.6170   -0.4020    0.1960 C   0  0  2  0  0  0  0  0  0  0  0  0
    1.8090   -1.0260    0.7350 N   0  0  0  0  0  0  0  0  0  0  0  0
   -0.3110   -1.4940   -0.1960 C   0  0  0  0  0  0  0  0  0  0  0  0
    0.0120   -2.6940   -0.0320 O   0  0  0  0  0  0  0  0  0  0  0  0
    1.4740    3.5930    0.2960 H   0  0  0  0  0  0  0  0  0  0  0  0
    1.6230    2.2130    1.4370 H   0  0  0  0  0  0  0  0  0  0  0  0
    0.0830    2.4480    0.4490 H   0  0  0  0  0  0  0  0  0  0  0  0
    1.8190    2.3390   -1.5450 H   0  0  0  0  0  0  0  0  0  0  0  0
    3.9130    2.1100   -0.7440 H   0  0  0  0  0  0  0  0  0  0  0  0
    3.4200    1.4070    0.8020 H   0  0  0  0  0  0  0  0  0  0  0  0
    3.5250    0.3410   -0.6330 H   0  0  0  0  0  0  0  0  0  0  0  0
    1.3240   -0.0400   -1.8100 H   0  0  0  0  0  0  0  0  0  0  0  0
   -0.0710    0.9270   -1.3270 H   0  0  0  0  0  0  0  0  0  0  0  0
    0.0850    0.1940    0.9770 H   0  0  0  0  0  0  0  0  0  0  0  0
    2.3760   -1.6110    0.0850 H   0  0  0  0  0  0  0  0  0  0  0  0
   -1.5850   -1.2220   -0.7660 N   0  0  0  0  0  0  0  0  0  0  0  0
   -2.5260   -2.2230   -1.1660 C   0  0  1  0  0  0  0  0  0  0  0  0
   -3.8200   -2.1750   -0.3960 C   0  0  0  0  0  0  0  0  0  0  0  0
   -4.5270   -0.8910   -0.5420 C   0  0  0  0  0  0  0  0  0  0  0  0
   -4.2420    0.1080    0.3650 C   0  0  0  0  0  0  0  0  0  0  0  0
   -4.8570    1.3170    0.2890 C   0  0  0  0  0  0  0  0  0  0  0  0
   -5.7820    1.5200   -0.7280 C   0  0  0  0  0  0  0  0  0  0  0  0
   -6.0930    0.5500   -1.6520 C   0  0  0  0  0  0  0  0  0  0  0  0
   -5.4510   -0.6860   -1.5570 C   0  0  0  0  0  0  0  0  0  0  0  0
   -2.7610   -2.1730   -2.6120 C   0  0  0  0  0  0  0  0  0  0  0  0
   -2.1890   -1.3430   -3.3640 O   0  0  0  0  0  0  0  0  0  0  0  0
   -3.6430   -3.0570   -3.2230 O   0  0  0  0  0  0  0  0  0  0  0  0
   -1.8480   -0.2210   -0.9010 H   0  0  0  0  0  0  0  0  0  0  0  0
   -2.0670   -3.2240   -0.9440 H   0  0  0  0  0  0  0  0  0  0  0  0
   -3.6620   -2.3960    0.6730 H   0  0  0  0  0  0  0  0  0  0  0  0
   -4.4730   -2.9750   -0.7950 H   0  0  0  0  0  0  0  0  0  0  0  0
   -3.5210   -0.0710    1.1460 H   0  0  0  0  0  0  0  0  0  0  0  0
   -4.6310    2.1050    1.0060 H   0  0  0  0  0  0  0  0  0  0  0  0
   -6.2850    2.4700   -0.8120 H   0  0  0  0  0  0  0  0  0  0  0  0
   -6.8190    0.7090   -2.4500 H   0  0  0  0  0  0  0  0  0  0  0  0
   -5.6710   -1.4680   -2.2630 H   0  0  0  0  0  0  0  0  0  0  0  0
  1  2  1  0  0  0  0
  1  8  1  0  0  0  0
  2  9  1  0  0  0  0
  3 12  1  0  0  0  0
  3  2  1  0  0  0  0
  4  5  1  0  0  0  0
  4 14  1  0  0  0  0
  4  3  1  0  0  0  0
  5 15  1  6  0  0  0
  5  1  1  0  0  0  0
  6  5  1  0  0  0  0
  6  7  2  0  0  0  0
 10  2  1  0  0  0  0
 11  3  1  0  0  0  0
 13  4  1  0  0  0  0
 16 25  1  0  0  0  0
 17 18  1  0  0  0  0
 17 16  1  0  0  0  0
 18 29  1  0  0  0  0
 19 17  1  0  0  0  0
 19 20  1  0  0  0  0
 20 21  1  0  0  0  0
 20 33  1  1  0  0  0
 21  6  1  0  0  0  0
 22 23  2  0  0  0  0
 22 20  1  0  0  0  0
 24 16  1  0  0  0  0
 26 16  1  0  0  0  0
 27 17  1  0  0  0  0
 28 18  1  0  0  0  0
 30 18  1  0  0  0  0
 31 19  1  0  0  0  0
 32 19  1  0  0  0  0
 34 21  1  0  0  0  0
 35 22  1  0  0  0  0
 36 48  1  1  0  0  0
 36 35  1  0  0  0  0
 36 37  1  0  0  0  0
 37 49  1  0  0  0  0
 38 37  1  0  0  0  0
 38 39  1  0  0  0  0
 39 51  1  0  0  0  0
 40 39  2  0  0  0  0
 40 52  1  0  0  0  0
 41 40  1  0  0  0  0
 42 43  1  0  0  0  0
 42 41  2  0  0  0  0
 43 38  2  0  0  0  0
 44 36  1  0  0  0  0
 45 44  2  0  0  0  0
 46 44  1  0  0  0  0
 47 35  1  0  0  0  0
 50 37  1  0  0  0  0
 53 41  1  0  0  0  0
 54 42  1  0  0  0  0
 55 43  1  0  0  0  0
M  END
$$$$
