PLK.pdb
 OpenBabel07022419043D

 56 56  0  0  1  0  0  0  0  0999 V2000
    3.0570   -2.9890    0.3070 N   0  0  0  0  0  0  0  0  0  0  0  0
    3.9700   -3.9450    0.8840 C   0  0  0  0  0  0  0  0  0  0  0  0
    4.0590   -3.6750    2.3510 C   0  0  0  0  0  0  0  0  0  0  0  0
    3.2630   -2.3830    2.5090 C   0  0  0  0  0  0  0  0  0  0  0  0
    2.2640   -2.5310    1.4000 C   0  0  1  0  0  0  0  0  0  0  0  0
    1.4990   -1.3100    1.1190 C   0  0  0  0  0  0  0  0  0  0  0  0
    1.6030   -0.7890   -0.0180 O   0  0  0  0  0  0  0  0  0  0  0  0
    2.5190   -3.3650   -0.4790 H   0  0  0  0  0  0  0  0  0  0  0  0
    4.9720   -3.9360    0.4040 H   0  0  0  0  0  0  0  0  0  0  0  0
    3.5900   -4.9960    0.7310 H   0  0  0  0  0  0  0  0  0  0  0  0
    5.0900   -3.5690    2.7340 H   0  0  0  0  0  0  0  0  0  0  0  0
    3.5100   -4.4430    2.9400 H   0  0  0  0  0  0  0  0  0  0  0  0
    2.7970   -2.3310    3.5130 H   0  0  0  0  0  0  0  0  0  0  0  0
    3.9290   -1.5340    2.2900 H   0  0  0  0  0  0  0  0  0  0  0  0
    1.5180   -3.3040    1.7470 H   0  0  0  0  0  0  0  0  0  0  0  0
    2.7270    1.2360    2.6450 C   0  0  0  0  0  0  0  0  0  0  0  0
    1.6580    2.2340    2.3710 C   0  0  0  0  0  0  0  0  0  0  0  0
    1.0280    2.7150    3.6670 C   0  0  0  0  0  0  0  0  0  0  0  0
    0.6320    1.7150    1.4080 C   0  0  0  0  0  0  0  0  0  0  0  0
   -0.1100    0.4990    1.8320 C   0  0  2  0  0  0  0  0  0  0  0  0
    0.6430   -0.6800    2.0680 N   0  0  0  0  0  0  0  0  0  0  0  0
   -1.2440    0.3030    0.8880 C   0  0  0  0  0  0  0  0  0  0  0  0
   -1.9610    1.2760    0.6170 O   0  0  0  0  0  0  0  0  0  0  0  0
    2.3650    0.4120    3.2660 H   0  0  0  0  0  0  0  0  0  0  0  0
    3.5600    1.7080    3.2340 H   0  0  0  0  0  0  0  0  0  0  0  0
    3.2210    0.9040    1.7010 H   0  0  0  0  0  0  0  0  0  0  0  0
    2.1260    3.1300    1.8810 H   0  0  0  0  0  0  0  0  0  0  0  0
    0.0530    3.2050    3.4980 H   0  0  0  0  0  0  0  0  0  0  0  0
    1.0030    1.8800    4.3750 H   0  0  0  0  0  0  0  0  0  0  0  0
    1.7020    3.4870    4.0840 H   0  0  0  0  0  0  0  0  0  0  0  0
    1.1540    1.5910    0.4270 H   0  0  0  0  0  0  0  0  0  0  0  0
   -0.0880    2.5750    1.2530 H   0  0  0  0  0  0  0  0  0  0  0  0
   -0.6080    0.7750    2.8170 H   0  0  0  0  0  0  0  0  0  0  0  0
    0.6190   -1.1960    3.0010 H   0  0  0  0  0  0  0  0  0  0  0  0
   -1.4810   -0.9780    0.3240 N   0  0  0  0  0  0  0  0  0  0  0  0
   -2.5870   -1.2100   -0.6080 C   0  0  1  0  0  0  0  0  0  0  0  0
   -2.1080   -1.8270   -1.8740 C   0  0  0  0  0  0  0  0  0  0  0  0
   -3.1870   -2.0740   -2.8560 C   0  0  0  0  0  0  0  0  0  0  0  0
   -3.9290   -0.8200   -3.2640 C   0  0  0  0  0  0  0  0  0  0  0  0
   -3.0050    0.2010   -3.9000 C   0  0  0  0  0  0  0  0  0  0  0  0
   -3.8490    1.3500   -4.2410 N   0  0  0  0  0  0  0  0  0  0  0  0
   -3.5270   -2.1430    0.0610 C   0  0  0  0  0  0  0  0  0  0  0  0
   -3.2430   -2.6230    1.2190 O   0  0  0  0  0  0  0  0  0  0  0  0
   -4.7320   -2.5640   -0.4630 O   0  0  0  0  0  0  0  0  0  0  0  0
   -0.8880   -1.8090    0.5410 H   0  0  0  0  0  0  0  0  0  0  0  0
   -3.1100   -0.2560   -0.7340 H   0  0  0  0  0  0  0  0  0  0  0  0
   -1.7010   -2.8450   -1.5900 H   0  0  0  0  0  0  0  0  0  0  0  0
   -1.2340   -1.3090   -2.3200 H   0  0  0  0  0  0  0  0  0  0  0  0
   -3.8990   -2.8220   -2.5410 H   0  0  0  0  0  0  0  0  0  0  0  0
   -2.7230   -2.4640   -3.8020 H   0  0  0  0  0  0  0  0  0  0  0  0
   -4.5050   -0.3650   -2.4440 H   0  0  0  0  0  0  0  0  0  0  0  0
   -4.6640   -1.1170   -4.0410 H   0  0  0  0  0  0  0  0  0  0  0  0
   -2.2050    0.5380   -3.2420 H   0  0  0  0  0  0  0  0  0  0  0  0
   -2.5500   -0.1930   -4.8300 H   0  0  0  0  0  0  0  0  0  0  0  0
   -3.2700    2.2200   -4.3350 H   0  0  0  0  0  0  0  0  0  0  0  0
   -4.5830    1.4270   -3.5110 H   0  0  0  0  0  0  0  0  0  0  0  0
  1  2  1  0  0  0  0
  1  5  1  0  0  0  0
  2  3  1  0  0  0  0
  3  4  1  0  0  0  0
  3 11  1  0  0  0  0
  3 12  1  0  0  0  0
  4 13  1  0  0  0  0
  5 15  1  1  0  0  0
  5  4  1  0  0  0  0
  6  5  1  0  0  0  0
  6 21  1  0  0  0  0
  7  6  2  0  0  0  0
  8  1  1  0  0  0  0
  9  2  1  0  0  0  0
 10  2  1  0  0  0  0
 14  4  1  0  0  0  0
 16 25  1  0  0  0  0
 16 24  1  0  0  0  0
 17 16  1  0  0  0  0
 17 18  1  0  0  0  0
 18 30  1  0  0  0  0
 18 29  1  0  0  0  0
 19 20  1  0  0  0  0
 19 17  1  0  0  0  0
 20 21  1  0  0  0  0
 20 33  1  1  0  0  0
 21 34  1  0  0  0  0
 22 20  1  0  0  0  0
 23 22  2  0  0  0  0
 26 16  1  0  0  0  0
 27 17  1  0  0  0  0
 28 18  1  0  0  0  0
 31 19  1  0  0  0  0
 32 19  1  0  0  0  0
 35 45  1  0  0  0  0
 35 22  1  0  0  0  0
 36 46  1  6  0  0  0
 36 42  1  0  0  0  0
 36 35  1  0  0  0  0
 37 47  1  0  0  0  0
 37 36  1  0  0  0  0
 38 49  1  0  0  0  0
 38 37  1  0  0  0  0
 39 38  1  0  0  0  0
 39 51  1  0  0  0  0
 40 39  1  0  0  0  0
 40 53  1  0  0  0  0
 41 40  1  0  0  0  0
 41 56  1  0  0  0  0
 42 43  1  0  0  0  0
 44 42  2  0  0  0  0
 48 37  1  0  0  0  0
 50 38  1  0  0  0  0
 52 39  1  0  0  0  0
 54 40  1  0  0  0  0
 55 41  1  0  0  0  0
M  END
$$$$
