PLL.pdb
 OpenBabel07022419043D

 54 54  0  0  1  0  0  0  0  0999 V2000
    2.3950   -1.7580    4.9420 N   0  0  0  0  0  0  0  0  0  0  0  0
    2.4220   -2.8530    5.8960 C   0  0  0  0  0  0  0  0  0  0  0  0
    1.8290   -4.0590    5.2250 C   0  0  0  0  0  0  0  0  0  0  0  0
    1.1490   -3.4490    4.0110 C   0  0  0  0  0  0  0  0  0  0  0  0
    2.0900   -2.3490    3.6610 C   0  0  1  0  0  0  0  0  0  0  0  0
    1.5620   -1.3780    2.6760 C   0  0  0  0  0  0  0  0  0  0  0  0
    1.4820   -0.1820    3.0420 O   0  0  0  0  0  0  0  0  0  0  0  0
    1.6390   -1.1080    5.2710 H   0  0  0  0  0  0  0  0  0  0  0  0
    1.7950   -2.6460    6.8020 H   0  0  0  0  0  0  0  0  0  0  0  0
    3.4430   -3.0680    6.2540 H   0  0  0  0  0  0  0  0  0  0  0  0
    1.1340   -4.6170    5.8550 H   0  0  0  0  0  0  0  0  0  0  0  0
    2.6860   -4.7020    4.9070 H   0  0  0  0  0  0  0  0  0  0  0  0
    1.0370   -4.2080    3.2080 H   0  0  0  0  0  0  0  0  0  0  0  0
    0.1540   -3.0840    4.3760 H   0  0  0  0  0  0  0  0  0  0  0  0
    3.0310   -2.8350    3.3080 H   0  0  0  0  0  0  0  0  0  0  0  0
    3.1850   -0.4880   -2.3630 C   0  0  0  0  0  0  0  0  0  0  0  0
    2.7830   -0.4840   -0.8730 C   0  0  0  0  0  0  0  0  0  0  0  0
    3.4610   -1.7470   -0.3200 C   0  0  0  0  0  0  0  0  0  0  0  0
    1.3050   -0.7090   -0.8580 C   0  0  0  0  0  0  0  0  0  0  0  0
    0.6580   -0.7260    0.4770 C   0  0  2  0  0  0  0  0  0  0  0  0
    1.1580   -1.7410    1.3740 N   0  0  0  0  0  0  0  0  0  0  0  0
   -0.8160   -0.8950    0.2700 C   0  0  0  0  0  0  0  0  0  0  0  0
   -1.4110   -1.8330    0.8800 O   0  0  0  0  0  0  0  0  0  0  0  0
    4.2430   -0.7440   -2.4930 H   0  0  0  0  0  0  0  0  0  0  0  0
    2.5780   -1.2930   -2.8290 H   0  0  0  0  0  0  0  0  0  0  0  0
    2.9090    0.4650   -2.8560 H   0  0  0  0  0  0  0  0  0  0  0  0
    3.1220    0.4290   -0.3620 H   0  0  0  0  0  0  0  0  0  0  0  0
    4.4380   -1.9130   -0.8650 H   0  0  0  0  0  0  0  0  0  0  0  0
    3.7000   -1.6830    0.7360 H   0  0  0  0  0  0  0  0  0  0  0  0
    2.8330   -2.5970   -0.6310 H   0  0  0  0  0  0  0  0  0  0  0  0
    1.1040   -1.6050   -1.4810 H   0  0  0  0  0  0  0  0  0  0  0  0
    0.8510    0.1410   -1.4430 H   0  0  0  0  0  0  0  0  0  0  0  0
    0.7720    0.2530    0.9590 H   0  0  0  0  0  0  0  0  0  0  0  0
    1.2390   -2.7580    1.1170 H   0  0  0  0  0  0  0  0  0  0  0  0
   -3.4120    2.2520   -2.7390 C   0  0  0  0  0  0  0  0  0  0  0  0
   -3.2500    2.3390   -1.2460 C   0  0  0  0  0  0  0  0  0  0  0  0
   -4.1580    3.4840   -0.7980 C   0  0  0  0  0  0  0  0  0  0  0  0
   -3.6620    1.1250   -0.4920 C   0  0  0  0  0  0  0  0  0  0  0  0
   -2.9320   -0.1340   -0.8230 C   0  0  2  0  0  0  0  0  0  0  0  0
   -1.5010   -0.0180   -0.5880 N   0  0  0  0  0  0  0  0  0  0  0  0
   -3.2690   -0.6890   -2.1430 C   0  0  0  0  0  0  0  0  0  0  0  0
   -4.4850   -0.8550   -2.4180 O   0  0  0  0  0  0  0  0  0  0  0  0
   -2.3430   -1.0440   -3.1120 O   0  0  0  0  0  0  0  0  0  0  0  0
   -2.5670    1.6920   -3.1630 H   0  0  0  0  0  0  0  0  0  0  0  0
   -4.3620    1.7850   -3.0390 H   0  0  0  0  0  0  0  0  0  0  0  0
   -3.4650    3.2980   -3.1330 H   0  0  0  0  0  0  0  0  0  0  0  0
   -2.2130    2.6450   -0.9600 H   0  0  0  0  0  0  0  0  0  0  0  0
   -3.9420    3.8540    0.2010 H   0  0  0  0  0  0  0  0  0  0  0  0
   -5.1880    3.0330   -0.8030 H   0  0  0  0  0  0  0  0  0  0  0  0
   -4.1600    4.2360   -1.6000 H   0  0  0  0  0  0  0  0  0  0  0  0
   -4.7460    0.9230   -0.6520 H   0  0  0  0  0  0  0  0  0  0  0  0
   -3.5790    1.3900    0.6040 H   0  0  0  0  0  0  0  0  0  0  0  0
   -3.2900   -0.9170   -0.0810 H   0  0  0  0  0  0  0  0  0  0  0  0
   -0.9940    0.7430   -1.0690 H   0  0  0  0  0  0  0  0  0  0  0  0
  1  8  1  0  0  0  0
  1  2  1  0  0  0  0
  2 10  1  0  0  0  0
  2  9  1  0  0  0  0
  3 11  1  0  0  0  0
  3  2  1  0  0  0  0
  4 14  1  0  0  0  0
  4  3  1  0  0  0  0
  5 15  1  6  0  0  0
  5  4  1  0  0  0  0
  5  1  1  0  0  0  0
  6  7  2  0  0  0  0
  6  5  1  0  0  0  0
 12  3  1  0  0  0  0
 13  4  1  0  0  0  0
 16 17  1  0  0  0  0
 17 19  1  0  0  0  0
 17 27  1  0  0  0  0
 17 18  1  0  0  0  0
 18 29  1  0  0  0  0
 19 20  1  0  0  0  0
 20 33  1  1  0  0  0
 20 21  1  0  0  0  0
 21  6  1  0  0  0  0
 22 20  1  0  0  0  0
 22 23  2  0  0  0  0
 24 16  1  0  0  0  0
 25 16  1  0  0  0  0
 26 16  1  0  0  0  0
 28 18  1  0  0  0  0
 30 18  1  0  0  0  0
 31 19  1  0  0  0  0
 32 19  1  0  0  0  0
 34 21  1  0  0  0  0
 35 36  1  0  0  0  0
 36 47  1  0  0  0  0
 36 37  1  0  0  0  0
 36 38  1  0  0  0  0
 37 48  1  0  0  0  0
 38 52  1  0  0  0  0
 39 40  1  0  0  0  0
 39 38  1  0  0  0  0
 39 53  1  1  0  0  0
 40 22  1  0  0  0  0
 41 39  1  0  0  0  0
 42 41  1  0  0  0  0
 43 41  2  0  0  0  0
 44 35  1  0  0  0  0
 45 35  1  0  0  0  0
 46 35  1  0  0  0  0
 49 37  1  0  0  0  0
 50 37  1  0  0  0  0
 51 38  1  0  0  0  0
 54 40  1  0  0  0  0
M  END
$$$$
