PLM.pdb
 OpenBabel07022419043D

 52 52  0  0  1  0  0  0  0  0999 V2000
    1.8910   -3.7520    3.8660 N   0  0  0  0  0  0  0  0  0  0  0  0
    1.6280   -5.1050    3.4190 C   0  0  0  0  0  0  0  0  0  0  0  0
    2.0550   -5.1550    1.9690 C   0  0  0  0  0  0  0  0  0  0  0  0
    1.6350   -3.7750    1.4940 C   0  0  0  0  0  0  0  0  0  0  0  0
    1.9490   -2.9180    2.6910 C   0  0  1  0  0  0  0  0  0  0  0  0
    0.9990   -1.8050    2.8670 C   0  0  0  0  0  0  0  0  0  0  0  0
    0.3220   -1.7140    3.9190 O   0  0  0  0  0  0  0  0  0  0  0  0
    2.7590   -3.6920    4.4420 H   0  0  0  0  0  0  0  0  0  0  0  0
    2.2190   -5.7830    4.0660 H   0  0  0  0  0  0  0  0  0  0  0  0
    0.5540   -5.3140    3.5530 H   0  0  0  0  0  0  0  0  0  0  0  0
    1.5950   -5.9690    1.4110 H   0  0  0  0  0  0  0  0  0  0  0  0
    3.1540   -5.2900    1.9590 H   0  0  0  0  0  0  0  0  0  0  0  0
    2.2760   -3.4800    0.6350 H   0  0  0  0  0  0  0  0  0  0  0  0
    0.5670   -3.8180    1.2370 H   0  0  0  0  0  0  0  0  0  0  0  0
    2.9970   -2.5730    2.5660 H   0  0  0  0  0  0  0  0  0  0  0  0
    1.7840    3.5680    1.5300 C   0  0  0  0  0  0  0  0  0  0  0  0
    1.3320    2.1580    1.0900 C   0  0  0  0  0  0  0  0  0  0  0  0
    2.5950    1.3860    0.8460 C   0  0  0  0  0  0  0  0  0  0  0  0
    0.4720    1.6520    2.1900 C   0  0  0  0  0  0  0  0  0  0  0  0
   -0.1250    0.3040    2.0320 C   0  0  2  0  0  0  0  0  0  0  0  0
    0.7930   -0.7900    1.8840 N   0  0  0  0  0  0  0  0  0  0  0  0
   -1.2250    0.2600    1.0320 C   0  0  0  0  0  0  0  0  0  0  0  0
   -2.0700    1.2150    1.1140 O   0  0  0  0  0  0  0  0  0  0  0  0
    2.7700    3.7990    1.1190 H   0  0  0  0  0  0  0  0  0  0  0  0
    1.8540    3.5890    2.6340 H   0  0  0  0  0  0  0  0  0  0  0  0
    1.0130    4.3210    1.2550 H   0  0  0  0  0  0  0  0  0  0  0  0
    0.8010    2.2490    0.1300 H   0  0  0  0  0  0  0  0  0  0  0  0
    3.4370    2.1250    0.6730 H   0  0  0  0  0  0  0  0  0  0  0  0
    2.5240    0.8150   -0.1070 H   0  0  0  0  0  0  0  0  0  0  0  0
    2.9120    0.7600    1.6960 H   0  0  0  0  0  0  0  0  0  0  0  0
   -0.3770    2.3720    2.2970 H   0  0  0  0  0  0  0  0  0  0  0  0
    1.0060    1.7200    3.1660 H   0  0  0  0  0  0  0  0  0  0  0  0
   -0.6520    0.1000    3.0210 H   0  0  0  0  0  0  0  0  0  0  0  0
    1.3630   -0.9020    1.0200 H   0  0  0  0  0  0  0  0  0  0  0  0
   -3.0040    2.4370   -3.1580 C   0  0  0  0  0  0  0  0  0  0  0  0
   -3.9200    0.9080   -2.9430 S   0  0  0  0  0  0  0  0  0  0  0  0
   -2.8990   -0.5540   -3.2830 C   0  0  0  0  0  0  0  0  0  0  0  0
   -1.8330   -0.6170   -2.2300 C   0  0  0  0  0  0  0  0  0  0  0  0
   -2.4550   -0.7040   -0.8720 C   0  0  2  0  0  0  0  0  0  0  0  0
   -1.3360   -0.7470    0.0710 N   0  0  0  0  0  0  0  0  0  0  0  0
   -3.2840   -1.9010   -0.7200 C   0  0  0  0  0  0  0  0  0  0  0  0
   -2.8870   -2.7900    0.1190 O   0  0  0  0  0  0  0  0  0  0  0  0
   -4.4520   -2.2040   -1.3650 O   0  0  0  0  0  0  0  0  0  0  0  0
   -2.0260    2.3040   -3.6360 H   0  0  0  0  0  0  0  0  0  0  0  0
   -2.8490    2.9050   -2.1840 H   0  0  0  0  0  0  0  0  0  0  0  0
   -3.6030    3.0850   -3.8560 H   0  0  0  0  0  0  0  0  0  0  0  0
   -3.5470   -1.4350   -3.2600 H   0  0  0  0  0  0  0  0  0  0  0  0
   -2.4610   -0.4990   -4.3140 H   0  0  0  0  0  0  0  0  0  0  0  0
   -1.1270    0.2380   -2.3230 H   0  0  0  0  0  0  0  0  0  0  0  0
   -1.2100   -1.5270   -2.3840 H   0  0  0  0  0  0  0  0  0  0  0  0
   -3.0730    0.2040   -0.6520 H   0  0  0  0  0  0  0  0  0  0  0  0
   -0.6570   -1.5150    0.0050 H   0  0  0  0  0  0  0  0  0  0  0  0
  1  8  1  0  0  0  0
  2 10  1  0  0  0  0
  2  1  1  0  0  0  0
  2  9  1  0  0  0  0
  3  2  1  0  0  0  0
  4  3  1  0  0  0  0
  4  5  1  0  0  0  0
  5 15  1  6  0  0  0
  5  6  1  0  0  0  0
  5  1  1  0  0  0  0
  6  7  2  0  0  0  0
 11  3  1  0  0  0  0
 12  3  1  0  0  0  0
 13  4  1  0  0  0  0
 14  4  1  0  0  0  0
 16 25  1  0  0  0  0
 17 16  1  0  0  0  0
 17 19  1  0  0  0  0
 18 17  1  0  0  0  0
 18 30  1  0  0  0  0
 19 31  1  0  0  0  0
 19 32  1  0  0  0  0
 20 19  1  0  0  0  0
 20 33  1  1  0  0  0
 21 20  1  0  0  0  0
 21  6  1  0  0  0  0
 22 23  2  0  0  0  0
 22 20  1  0  0  0  0
 24 16  1  0  0  0  0
 26 16  1  0  0  0  0
 27 17  1  0  0  0  0
 28 18  1  0  0  0  0
 29 18  1  0  0  0  0
 34 21  1  0  0  0  0
 35 36  1  0  0  0  0
 35 45  1  0  0  0  0
 37 47  1  0  0  0  0
 37 36  1  0  0  0  0
 37 38  1  0  0  0  0
 38 39  1  0  0  0  0
 39 41  1  0  0  0  0
 39 51  1  1  0  0  0
 39 40  1  0  0  0  0
 40 22  1  0  0  0  0
 41 42  1  0  0  0  0
 43 41  2  0  0  0  0
 44 35  1  0  0  0  0
 46 35  1  0  0  0  0
 48 37  1  0  0  0  0
 49 38  1  0  0  0  0
 50 38  1  0  0  0  0
 52 40  1  0  0  0  0
M  END
$$$$
