PLQ.pdb
 OpenBabel07022419043D

 52 52  0  0  1  0  0  0  0  0999 V2000
    0.1210   -0.7550    5.4250 N   0  0  0  0  0  0  0  0  0  0  0  0
    0.3050   -2.0660    5.9930 C   0  0  0  0  0  0  0  0  0  0  0  0
    1.6280   -2.5670    5.4100 C   0  0  0  0  0  0  0  0  0  0  0  0
    1.4950   -1.9910    4.0000 C   0  0  0  0  0  0  0  0  0  0  0  0
    0.9650   -0.6080    4.2820 C   0  0  1  0  0  0  0  0  0  0  0  0
    0.2650   -0.0810    3.1010 C   0  0  0  0  0  0  0  0  0  0  0  0
   -0.9410    0.2450    3.2060 O   0  0  0  0  0  0  0  0  0  0  0  0
   -0.8830   -0.5490    5.2100 H   0  0  0  0  0  0  0  0  0  0  0  0
   -0.4830   -2.7430    5.6240 H   0  0  0  0  0  0  0  0  0  0  0  0
    0.2940   -2.0730    7.0960 H   0  0  0  0  0  0  0  0  0  0  0  0
    1.6870   -3.6560    5.3930 H   0  0  0  0  0  0  0  0  0  0  0  0
    2.4460   -2.0540    5.9440 H   0  0  0  0  0  0  0  0  0  0  0  0
    0.7470   -2.5420    3.4280 H   0  0  0  0  0  0  0  0  0  0  0  0
    2.4930   -1.9490    3.5050 H   0  0  0  0  0  0  0  0  0  0  0  0
    1.8790    0.0070    4.5280 H   0  0  0  0  0  0  0  0  0  0  0  0
    2.2830    2.6080    1.8580 C   0  0  0  0  0  0  0  0  0  0  0  0
    1.4210    2.8100    0.6480 C   0  0  0  0  0  0  0  0  0  0  0  0
    0.2250    3.6460    1.0540 C   0  0  0  0  0  0  0  0  0  0  0  0
    1.0510    1.5690   -0.0770 C   0  0  0  0  0  0  0  0  0  0  0  0
    0.2920    0.5640    0.7110 C   0  0  2  0  0  0  0  0  0  0  0  0
    0.9450    0.0510    1.8750 N   0  0  0  0  0  0  0  0  0  0  0  0
   -0.0050   -0.6240   -0.1690 C   0  0  0  0  0  0  0  0  0  0  0  0
    0.3280   -1.7940    0.1350 O   0  0  0  0  0  0  0  0  0  0  0  0
    1.7160    2.3860    2.7730 H   0  0  0  0  0  0  0  0  0  0  0  0
    2.7890    3.5940    2.0740 H   0  0  0  0  0  0  0  0  0  0  0  0
    3.1190    1.8910    1.6830 H   0  0  0  0  0  0  0  0  0  0  0  0
    2.0080    3.4680   -0.0550 H   0  0  0  0  0  0  0  0  0  0  0  0
   -0.1900    4.2210    0.2070 H   0  0  0  0  0  0  0  0  0  0  0  0
    0.6400    4.4320    1.7530 H   0  0  0  0  0  0  0  0  0  0  0  0
   -0.5240    3.1010    1.6390 H   0  0  0  0  0  0  0  0  0  0  0  0
    0.4400    1.8550   -0.9570 H   0  0  0  0  0  0  0  0  0  0  0  0
    1.9820    1.1120   -0.5260 H   0  0  0  0  0  0  0  0  0  0  0  0
   -0.7190    0.9750    0.9540 H   0  0  0  0  0  0  0  0  0  0  0  0
    1.9410   -0.2330    1.8180 H   0  0  0  0  0  0  0  0  0  0  0  0
   -2.9140   -5.2150   -3.8740 N   0  0  0  0  0  0  0  0  0  0  0  0
   -2.4950   -4.1310   -3.0150 C   0  0  0  0  0  0  0  0  0  0  0  0
   -1.6950   -4.4650   -2.1070 O   0  0  0  0  0  0  0  0  0  0  0  0
   -3.0110   -2.7850   -3.2550 C   0  0  0  0  0  0  0  0  0  0  0  0
   -2.5270   -1.7220   -2.3350 C   0  0  0  0  0  0  0  0  0  0  0  0
   -1.0370   -1.5050   -2.3260 C   0  0  2  0  0  0  0  0  0  0  0  0
   -0.6910   -0.4370   -1.3990 N   0  0  0  0  0  0  0  0  0  0  0  0
   -0.4220   -1.3300   -3.6370 C   0  0  0  0  0  0  0  0  0  0  0  0
    0.3110   -0.3040   -3.8360 O   0  0  0  0  0  0  0  0  0  0  0  0
   -0.5560   -2.1860   -4.7120 O   0  0  0  0  0  0  0  0  0  0  0  0
   -3.1760   -4.9890   -4.8570 H   0  0  0  0  0  0  0  0  0  0  0  0
   -2.9650   -6.2010   -3.5560 H   0  0  0  0  0  0  0  0  0  0  0  0
   -4.1400   -2.8760   -3.2270 H   0  0  0  0  0  0  0  0  0  0  0  0
   -2.8160   -2.5230   -4.3320 H   0  0  0  0  0  0  0  0  0  0  0  0
   -3.0740   -0.7670   -2.4940 H   0  0  0  0  0  0  0  0  0  0  0  0
   -2.7960   -2.0490   -1.2870 H   0  0  0  0  0  0  0  0  0  0  0  0
   -0.6000   -2.4310   -1.8490 H   0  0  0  0  0  0  0  0  0  0  0  0
   -0.9850    0.5330   -1.6910 H   0  0  0  0  0  0  0  0  0  0  0  0
  1  2  1  0  0  0  0
  2 10  1  0  0  0  0
  3 12  1  0  0  0  0
  3  2  1  0  0  0  0
  4  5  1  0  0  0  0
  4  3  1  0  0  0  0
  5 15  1  1  0  0  0
  5  1  1  0  0  0  0
  6  7  2  0  0  0  0
  6  5  1  0  0  0  0
  8  1  1  0  0  0  0
  9  2  1  0  0  0  0
 11  3  1  0  0  0  0
 13  4  1  0  0  0  0
 14  4  1  0  0  0  0
 16 25  1  0  0  0  0
 16 24  1  0  0  0  0
 17 18  1  0  0  0  0
 17 16  1  0  0  0  0
 18 30  1  0  0  0  0
 18 29  1  0  0  0  0
 19 17  1  0  0  0  0
 19 20  1  0  0  0  0
 20 33  1  1  0  0  0
 20 21  1  0  0  0  0
 21  6  1  0  0  0  0
 22 23  2  0  0  0  0
 22 20  1  0  0  0  0
 26 16  1  0  0  0  0
 27 17  1  0  0  0  0
 28 18  1  0  0  0  0
 31 19  1  0  0  0  0
 32 19  1  0  0  0  0
 34 21  1  0  0  0  0
 35 46  1  0  0  0  0
 35 36  1  0  0  0  0
 36 37  2  0  0  0  0
 38 47  1  0  0  0  0
 38 36  1  0  0  0  0
 38 39  1  0  0  0  0
 39 40  1  0  0  0  0
 39 50  1  0  0  0  0
 40 51  1  1  0  0  0
 40 41  1  0  0  0  0
 41 22  1  0  0  0  0
 42 40  1  0  0  0  0
 43 42  1  0  0  0  0
 44 42  2  0  0  0  0
 45 35  1  0  0  0  0
 48 38  1  0  0  0  0
 49 39  1  0  0  0  0
 52 41  1  0  0  0  0
M  END
$$$$
