PLR.pdb
 OpenBabel07022419043D

 58 58  0  0  1  0  0  0  0  0999 V2000
    4.2990   -1.2580    0.9350 N   0  0  0  0  0  0  0  0  0  0  0  0
    4.0630   -2.6780    0.8890 C   0  0  0  0  0  0  0  0  0  0  0  0
    2.6800   -2.8900    0.3260 C   0  0  0  0  0  0  0  0  0  0  0  0
    2.5310   -1.6640   -0.5700 C   0  0  0  0  0  0  0  0  0  0  0  0
    3.1350   -0.6060    0.3640 C   0  0  1  0  0  0  0  0  0  0  0  0
    2.1780   -0.3290    1.4660 C   0  0  0  0  0  0  0  0  0  0  0  0
    2.4350   -0.6540    2.6760 O   0  0  0  0  0  0  0  0  0  0  0  0
    4.4090   -0.9850    1.9300 H   0  0  0  0  0  0  0  0  0  0  0  0
    4.0860   -3.1550    1.9020 H   0  0  0  0  0  0  0  0  0  0  0  0
    4.7640   -3.2230    0.2340 H   0  0  0  0  0  0  0  0  0  0  0  0
    2.5560   -3.8290   -0.2130 H   0  0  0  0  0  0  0  0  0  0  0  0
    1.9310   -2.7620    1.1540 H   0  0  0  0  0  0  0  0  0  0  0  0
    1.4680   -1.4370   -0.6080 H   0  0  0  0  0  0  0  0  0  0  0  0
    3.0610   -1.7470   -1.5150 H   0  0  0  0  0  0  0  0  0  0  0  0
    3.4330    0.2760   -0.2070 H   0  0  0  0  0  0  0  0  0  0  0  0
    1.6320    2.4750    4.1350 C   0  0  0  0  0  0  0  0  0  0  0  0
    0.8830    2.8800    2.8880 C   0  0  0  0  0  0  0  0  0  0  0  0
    1.8480    3.0200    1.7620 C   0  0  0  0  0  0  0  0  0  0  0  0
   -0.2930    2.0170    2.5980 C   0  0  0  0  0  0  0  0  0  0  0  0
    0.0140    0.5610    2.3880 C   0  0  2  0  0  0  0  0  0  0  0  0
    0.9130    0.3130    1.2790 N   0  0  0  0  0  0  0  0  0  0  0  0
   -1.2380   -0.2440    2.2560 C   0  0  0  0  0  0  0  0  0  0  0  0
   -2.1230   -0.1830    3.1500 O   0  0  0  0  0  0  0  0  0  0  0  0
    2.0990    3.3920    4.5510 H   0  0  0  0  0  0  0  0  0  0  0  0
    2.5050    1.8000    3.8980 H   0  0  0  0  0  0  0  0  0  0  0  0
    0.9920    2.0520    4.9180 H   0  0  0  0  0  0  0  0  0  0  0  0
    0.4660    3.9100    3.1060 H   0  0  0  0  0  0  0  0  0  0  0  0
    1.4170    2.8220    0.7770 H   0  0  0  0  0  0  0  0  0  0  0  0
    2.1950    4.0950    1.7200 H   0  0  0  0  0  0  0  0  0  0  0  0
    2.8030    2.4500    1.9480 H   0  0  0  0  0  0  0  0  0  0  0  0
   -1.0180    2.0710    3.4440 H   0  0  0  0  0  0  0  0  0  0  0  0
   -0.7940    2.4320    1.6910 H   0  0  0  0  0  0  0  0  0  0  0  0
    0.4910    0.1860    3.3380 H   0  0  0  0  0  0  0  0  0  0  0  0
    0.6390    0.6030    0.3200 H   0  0  0  0  0  0  0  0  0  0  0  0
   -1.0820   -0.9440   -4.7620 N   0  0  0  0  0  0  0  0  0  0  0  0
   -1.1890   -1.7900   -3.6040 C   0  0  0  0  0  0  0  0  0  0  0  0
   -0.1940   -1.8800   -2.7980 N   0  0  0  0  0  0  0  0  0  0  0  0
   -2.3640   -2.5260   -3.3270 N   0  0  0  0  0  0  0  0  0  0  0  0
   -2.7860   -2.7800   -1.9380 C   0  0  0  0  0  0  0  0  0  0  0  0
   -3.1890   -1.4690   -1.3730 C   0  0  0  0  0  0  0  0  0  0  0  0
   -3.6890   -1.4320    0.0130 C   0  0  0  0  0  0  0  0  0  0  0  0
   -2.7500   -1.8710    1.0730 C   0  0  2  0  0  0  0  0  0  0  0  0
   -1.5170   -1.1040    1.1570 N   0  0  0  0  0  0  0  0  0  0  0  0
   -2.5250   -3.3270    1.0090 C   0  0  0  0  0  0  0  0  0  0  0  0
   -1.3480   -3.8090    1.1270 O   0  0  0  0  0  0  0  0  0  0  0  0
   -3.5640   -4.2180    0.8240 O   0  0  0  0  0  0  0  0  0  0  0  0
   -1.1010    0.0820   -4.5850 H   0  0  0  0  0  0  0  0  0  0  0  0
   -0.9910   -1.2920   -5.7190 H   0  0  0  0  0  0  0  0  0  0  0  0
   -0.2450   -2.4820   -1.9570 H   0  0  0  0  0  0  0  0  0  0  0  0
   -2.9200   -2.8800   -4.1490 H   0  0  0  0  0  0  0  0  0  0  0  0
   -3.6880   -3.4230   -1.9990 H   0  0  0  0  0  0  0  0  0  0  0  0
   -2.0250   -3.3370   -1.3960 H   0  0  0  0  0  0  0  0  0  0  0  0
   -3.9820   -1.0450   -2.0430 H   0  0  0  0  0  0  0  0  0  0  0  0
   -2.3000   -0.7770   -1.4970 H   0  0  0  0  0  0  0  0  0  0  0  0
   -4.1160   -0.4110    0.2590 H   0  0  0  0  0  0  0  0  0  0  0  0
   -4.6290   -2.0760    0.0340 H   0  0  0  0  0  0  0  0  0  0  0  0
   -3.3320   -1.6790    2.0640 H   0  0  0  0  0  0  0  0  0  0  0  0
   -0.8200   -1.1870    0.3950 H   0  0  0  0  0  0  0  0  0  0  0  0
  1  8  1  0  0  0  0
  2  1  1  0  0  0  0
  2  9  1  0  0  0  0
  3  2  1  0  0  0  0
  3 12  1  0  0  0  0
  4  3  1  0  0  0  0
  4  5  1  0  0  0  0
  5 15  1  6  0  0  0
  5  1  1  0  0  0  0
  5  6  1  0  0  0  0
  6  7  2  0  0  0  0
 10  2  1  0  0  0  0
 11  3  1  0  0  0  0
 13  4  1  0  0  0  0
 14  4  1  0  0  0  0
 16 24  1  0  0  0  0
 16 26  1  0  0  0  0
 17 27  1  0  0  0  0
 17 16  1  0  0  0  0
 18 30  1  0  0  0  0
 18 17  1  0  0  0  0
 19 17  1  0  0  0  0
 19 31  1  0  0  0  0
 20 19  1  0  0  0  0
 20 33  1  1  0  0  0
 21  6  1  0  0  0  0
 21 20  1  0  0  0  0
 22 20  1  0  0  0  0
 22 23  2  0  0  0  0
 25 16  1  0  0  0  0
 28 18  1  0  0  0  0
 29 18  1  0  0  0  0
 32 19  1  0  0  0  0
 34 21  1  0  0  0  0
 35 47  1  0  0  0  0
 35 36  1  0  0  0  0
 36 38  1  0  0  0  0
 36 37  2  0  0  0  0
 37 49  1  0  0  0  0
 38 39  1  0  0  0  0
 39 52  1  0  0  0  0
 39 40  1  0  0  0  0
 40 41  1  0  0  0  0
 41 56  1  0  0  0  0
 41 55  1  0  0  0  0
 41 42  1  0  0  0  0
 42 43  1  0  0  0  0
 42 57  1  1  0  0  0
 43 22  1  0  0  0  0
 44 42  1  0  0  0  0
 44 45  1  0  0  0  0
 46 44  2  0  0  0  0
 48 35  1  0  0  0  0
 50 38  1  0  0  0  0
 51 39  1  0  0  0  0
 53 40  1  0  0  0  0
 54 40  1  0  0  0  0
 58 43  1  0  0  0  0
M  END
$$$$
