PLT.pdb
 OpenBabel07022419043D

 49 49  0  0  1  0  0  0  0  0999 V2000
    2.4270   -3.9610   -1.2530 N   0  0  0  0  0  0  0  0  0  0  0  0
    1.6810   -4.6890   -2.2640 C   0  0  0  0  0  0  0  0  0  0  0  0
    0.2340   -4.2440   -2.0910 C   0  0  0  0  0  0  0  0  0  0  0  0
    0.4210   -2.7820   -1.7450 C   0  0  0  0  0  0  0  0  0  0  0  0
    1.8640   -2.6470   -1.3040 C   0  0  1  0  0  0  0  0  0  0  0  0
    1.8360   -1.9920    0.0390 C   0  0  0  0  0  0  0  0  0  0  0  0
    2.2840   -2.6190    1.0330 O   0  0  0  0  0  0  0  0  0  0  0  0
    2.3850   -4.4280   -0.3430 H   0  0  0  0  0  0  0  0  0  0  0  0
    2.0040   -4.4440   -3.2830 H   0  0  0  0  0  0  0  0  0  0  0  0
    1.7700   -5.7930   -2.1190 H   0  0  0  0  0  0  0  0  0  0  0  0
   -0.2590   -4.7830   -1.2430 H   0  0  0  0  0  0  0  0  0  0  0  0
   -0.3440   -4.3000   -3.0180 H   0  0  0  0  0  0  0  0  0  0  0  0
    0.1840   -2.1150   -2.5960 H   0  0  0  0  0  0  0  0  0  0  0  0
   -0.2970   -2.5390   -0.9360 H   0  0  0  0  0  0  0  0  0  0  0  0
    2.4450   -2.0540   -2.0360 H   0  0  0  0  0  0  0  0  0  0  0  0
    1.2930    2.7750    3.1670 C   0  0  0  0  0  0  0  0  0  0  0  0
    2.4550    2.0250    2.5920 C   0  0  0  0  0  0  0  0  0  0  0  0
    3.2480    1.3580    3.7180 C   0  0  0  0  0  0  0  0  0  0  0  0
    2.1890    1.1200    1.4670 C   0  0  0  0  0  0  0  0  0  0  0  0
    1.3040   -0.0480    1.5900 C   0  0  2  0  0  0  0  0  0  0  0  0
    1.3220   -0.6880    0.2310 N   0  0  0  0  0  0  0  0  0  0  0  0
   -0.1100    0.1390    1.9030 C   0  0  0  0  0  0  0  0  0  0  0  0
   -0.4980    0.5000    3.0290 O   0  0  0  0  0  0  0  0  0  0  0  0
    1.6190    3.8520    3.4170 H   0  0  0  0  0  0  0  0  0  0  0  0
    0.4950    2.8630    2.4270 H   0  0  0  0  0  0  0  0  0  0  0  0
    0.9530    2.3830    4.1440 H   0  0  0  0  0  0  0  0  0  0  0  0
    3.1830    2.8220    2.2170 H   0  0  0  0  0  0  0  0  0  0  0  0
    2.6440    0.6650    4.3020 H   0  0  0  0  0  0  0  0  0  0  0  0
    4.1550    0.9340    3.2810 H   0  0  0  0  0  0  0  0  0  0  0  0
    3.5610    2.1890    4.3910 H   0  0  0  0  0  0  0  0  0  0  0  0
    1.9120    1.7520    0.5660 H   0  0  0  0  0  0  0  0  0  0  0  0
    3.2010    0.6990    1.1250 H   0  0  0  0  0  0  0  0  0  0  0  0
    1.8030   -0.7970    2.2510 H   0  0  0  0  0  0  0  0  0  0  0  0
    0.9640   -0.1900   -0.6060 H   0  0  0  0  0  0  0  0  0  0  0  0
   -3.3160    0.7170   -1.0200 C   0  0  0  0  0  0  0  0  0  0  0  0
   -3.2600    1.1380    0.4510 C   0  0  1  0  0  0  0  0  0  0  0  0
   -4.5880    1.1780    0.8870 O   0  0  0  0  0  0  0  0  0  0  0  0
   -2.5510    0.1110    1.2710 C   0  0  2  0  0  0  0  0  0  0  0  0
   -1.1680   -0.0720    0.9640 N   0  0  0  0  0  0  0  0  0  0  0  0
   -3.2730   -1.1800    1.1740 C   0  0  0  0  0  0  0  0  0  0  0  0
   -4.5050   -1.2870    1.3980 O   0  0  0  0  0  0  0  0  0  0  0  0
   -2.5660   -2.3180    0.8240 O   0  0  0  0  0  0  0  0  0  0  0  0
   -2.6370    1.2990   -1.6460 H   0  0  0  0  0  0  0  0  0  0  0  0
   -3.1090   -0.3910   -1.0780 H   0  0  0  0  0  0  0  0  0  0  0  0
   -4.3370    0.8380   -1.4390 H   0  0  0  0  0  0  0  0  0  0  0  0
   -2.8500    2.1410    0.5740 H   0  0  0  0  0  0  0  0  0  0  0  0
   -4.6730    1.3490    1.8500 H   0  0  0  0  0  0  0  0  0  0  0  0
   -2.6180    0.4320    2.3370 H   0  0  0  0  0  0  0  0  0  0  0  0
   -0.9450   -0.3780   -0.0060 H   0  0  0  0  0  0  0  0  0  0  0  0
  1  8  1  0  0  0  0
  2 10  1  0  0  0  0
  2  3  1  0  0  0  0
  2  1  1  0  0  0  0
  3  4  1  0  0  0  0
  3 11  1  0  0  0  0
  4  5  1  0  0  0  0
  4 14  1  0  0  0  0
  5 15  1  6  0  0  0
  5  1  1  0  0  0  0
  5  6  1  0  0  0  0
  6 21  1  0  0  0  0
  6  7  2  0  0  0  0
  9  2  1  0  0  0  0
 12  3  1  0  0  0  0
 13  4  1  0  0  0  0
 16 24  1  0  0  0  0
 16 26  1  0  0  0  0
 17 16  1  0  0  0  0
 17 18  1  0  0  0  0
 18 28  1  0  0  0  0
 18 30  1  0  0  0  0
 19 20  1  0  0  0  0
 19 17  1  0  0  0  0
 20 22  1  0  0  0  0
 20 33  1  1  0  0  0
 21 20  1  0  0  0  0
 22 23  2  0  0  0  0
 25 16  1  0  0  0  0
 27 17  1  0  0  0  0
 29 18  1  0  0  0  0
 31 19  1  0  0  0  0
 32 19  1  0  0  0  0
 34 21  1  0  0  0  0
 35 36  1  0  0  0  0
 36 46  1  1  0  0  0
 36 37  1  0  0  0  0
 36 38  1  0  0  0  0
 37 47  1  0  0  0  0
 38 48  1  1  0  0  0
 39 38  1  0  0  0  0
 39 22  1  0  0  0  0
 40 38  1  0  0  0  0
 40 41  1  0  0  0  0
 42 40  2  0  0  0  0
 43 35  1  0  0  0  0
 44 35  1  0  0  0  0
 45 35  1  0  0  0  0
 49 39  1  0  0  0  0
M  END
$$$$
