PLV.pdb
 OpenBabel07022419043D

 51 51  0  0  1  0  0  0  0  0999 V2000
    2.7280   -3.3260    3.3710 N   0  0  0  0  0  0  0  0  0  0  0  0
    2.2240   -4.6150    3.8270 C   0  0  0  0  0  0  0  0  0  0  0  0
    0.7240   -4.3910    3.7730 C   0  0  0  0  0  0  0  0  0  0  0  0
    0.5690   -3.4700    2.6000 C   0  0  0  0  0  0  0  0  0  0  0  0
    1.9900   -3.0890    2.1690 C   0  0  1  0  0  0  0  0  0  0  0  0
    1.9390   -1.6510    1.8000 C   0  0  0  0  0  0  0  0  0  0  0  0
    2.5230   -0.8120    2.5440 O   0  0  0  0  0  0  0  0  0  0  0  0
    3.7610   -3.4700    3.2040 H   0  0  0  0  0  0  0  0  0  0  0  0
    2.4580   -5.4360    3.1450 H   0  0  0  0  0  0  0  0  0  0  0  0
    2.5670   -4.8440    4.8550 H   0  0  0  0  0  0  0  0  0  0  0  0
    0.3780   -3.9300    4.7350 H   0  0  0  0  0  0  0  0  0  0  0  0
    0.1740   -5.3440    3.5670 H   0  0  0  0  0  0  0  0  0  0  0  0
    0.0210   -3.9330    1.7570 H   0  0  0  0  0  0  0  0  0  0  0  0
    0.0120   -2.5770    2.9370 H   0  0  0  0  0  0  0  0  0  0  0  0
    2.3700   -3.7280    1.3740 H   0  0  0  0  0  0  0  0  0  0  0  0
    2.5620    2.0980   -2.7950 C   0  0  0  0  0  0  0  0  0  0  0  0
    1.8770    1.9160   -1.4310 C   0  0  0  0  0  0  0  0  0  0  0  0
    2.5680    2.7790   -0.4090 C   0  0  0  0  0  0  0  0  0  0  0  0
    1.8750    0.4930   -1.0140 C   0  0  0  0  0  0  0  0  0  0  0  0
    1.2340    0.2820    0.3080 C   0  0  2  0  0  0  0  0  0  0  0  0
    1.2780   -1.1540    0.6660 N   0  0  0  0  0  0  0  0  0  0  0  0
   -0.1960    0.6370    0.3600 C   0  0  0  0  0  0  0  0  0  0  0  0
   -0.5500    1.8190    0.1600 O   0  0  0  0  0  0  0  0  0  0  0  0
    2.2240    1.3060   -3.4940 H   0  0  0  0  0  0  0  0  0  0  0  0
    2.2350    3.0800   -3.1930 H   0  0  0  0  0  0  0  0  0  0  0  0
    3.6590    2.1070   -2.6870 H   0  0  0  0  0  0  0  0  0  0  0  0
    0.8270    2.2980   -1.5290 H   0  0  0  0  0  0  0  0  0  0  0  0
    3.5720    2.3740   -0.1570 H   0  0  0  0  0  0  0  0  0  0  0  0
    2.6930    3.8200   -0.7860 H   0  0  0  0  0  0  0  0  0  0  0  0
    1.9840    2.8210    0.5200 H   0  0  0  0  0  0  0  0  0  0  0  0
    1.4050   -0.1580   -1.7860 H   0  0  0  0  0  0  0  0  0  0  0  0
    2.9600    0.1960   -0.8880 H   0  0  0  0  0  0  0  0  0  0  0  0
    1.8290    0.8610    1.0750 H   0  0  0  0  0  0  0  0  0  0  0  0
    0.7870   -1.7980    0.0240 H   0  0  0  0  0  0  0  0  0  0  0  0
   -4.7900   -0.2320   -0.5150 C   0  0  0  0  0  0  0  0  0  0  0  0
   -3.3300   -0.5820   -0.4970 C   0  0  0  0  0  0  0  0  0  0  0  0
   -2.6450   -0.2600   -1.8040 C   0  0  0  0  0  0  0  0  0  0  0  0
   -2.6360    0.0920    0.6730 C   0  0  2  0  0  0  0  0  0  0  0  0
   -1.2280   -0.2910    0.6280 N   0  0  0  0  0  0  0  0  0  0  0  0
   -3.2560   -0.2480    1.9590 C   0  0  0  0  0  0  0  0  0  0  0  0
   -2.5970   -0.7990    2.8650 O   0  0  0  0  0  0  0  0  0  0  0  0
   -4.5900    0.0410    2.1860 O   0  0  0  0  0  0  0  0  0  0  0  0
   -5.3220   -0.9320    0.1910 H   0  0  0  0  0  0  0  0  0  0  0  0
   -4.9770    0.8170   -0.2780 H   0  0  0  0  0  0  0  0  0  0  0  0
   -5.1550   -0.4230   -1.5660 H   0  0  0  0  0  0  0  0  0  0  0  0
   -3.2660   -1.7040   -0.3870 H   0  0  0  0  0  0  0  0  0  0  0  0
   -1.8300   -0.9720   -2.0470 H   0  0  0  0  0  0  0  0  0  0  0  0
   -3.3960   -0.3080   -2.6150 H   0  0  0  0  0  0  0  0  0  0  0  0
   -2.1840    0.7640   -1.7850 H   0  0  0  0  0  0  0  0  0  0  0  0
   -2.6710    1.1820    0.4630 H   0  0  0  0  0  0  0  0  0  0  0  0
   -1.0120   -1.2840    0.8050 H   0  0  0  0  0  0  0  0  0  0  0  0
  1  2  1  0  0  0  0
  2 10  1  0  0  0  0
  3  2  1  0  0  0  0
  3 11  1  0  0  0  0
  4 14  1  0  0  0  0
  4  3  1  0  0  0  0
  5 15  1  6  0  0  0
  5  4  1  0  0  0  0
  5  1  1  0  0  0  0
  6  5  1  0  0  0  0
  6  7  2  0  0  0  0
  8  1  1  0  0  0  0
  9  2  1  0  0  0  0
 12  3  1  0  0  0  0
 13  4  1  0  0  0  0
 16 26  1  0  0  0  0
 16 17  1  0  0  0  0
 17 19  1  0  0  0  0
 17 18  1  0  0  0  0
 18 28  1  0  0  0  0
 18 30  1  0  0  0  0
 19 32  1  0  0  0  0
 19 20  1  0  0  0  0
 20 22  1  0  0  0  0
 20 21  1  0  0  0  0
 20 33  1  1  0  0  0
 21  6  1  0  0  0  0
 22 39  1  0  0  0  0
 23 22  2  0  0  0  0
 24 16  1  0  0  0  0
 25 16  1  0  0  0  0
 27 17  1  0  0  0  0
 29 18  1  0  0  0  0
 31 19  1  0  0  0  0
 34 21  1  0  0  0  0
 35 36  1  0  0  0  0
 35 44  1  0  0  0  0
 35 43  1  0  0  0  0
 36 46  1  0  0  0  0
 36 38  1  0  0  0  0
 37 49  1  0  0  0  0
 37 36  1  0  0  0  0
 38 50  1  6  0  0  0
 38 40  1  0  0  0  0
 39 38  1  0  0  0  0
 39 51  1  0  0  0  0
 40 42  2  0  0  0  0
 40 41  1  0  0  0  0
 45 35  1  0  0  0  0
 47 37  1  0  0  0  0
 48 37  1  0  0  0  0
M  END
$$$$
