PMD.pdb
 OpenBabel07022419043D

 46 46  0  0  1  0  0  0  0  0999 V2000
    2.4420   -3.9240    0.7200 N   0  0  0  0  0  0  0  0  0  0  0  0
    1.6220   -5.1470    0.6930 C   0  0  0  0  0  0  0  0  0  0  0  0
    0.4140   -4.7930    1.5510 C   0  0  0  0  0  0  0  0  0  0  0  0
    0.4720   -3.2710    1.6760 C   0  0  0  0  0  0  0  0  0  0  0  0
    1.3940   -2.9340    0.4950 C   0  0  1  0  0  0  0  0  0  0  0  0
    1.8640   -1.5630    0.7220 C   0  0  0  0  0  0  0  0  0  0  0  0
    3.0420   -1.2660    1.0860 O   0  0  0  0  0  0  0  0  0  0  0  0
    3.1270   -3.9380   -0.0680 H   0  0  0  0  0  0  0  0  0  0  0  0
    1.2860   -5.2540   -0.3750 H   0  0  0  0  0  0  0  0  0  0  0  0
    2.1650   -6.0280    1.0380 H   0  0  0  0  0  0  0  0  0  0  0  0
    0.4300   -5.2570    2.5370 H   0  0  0  0  0  0  0  0  0  0  0  0
   -0.5460   -4.9960    1.0010 H   0  0  0  0  0  0  0  0  0  0  0  0
    1.0350   -2.9630    2.5900 H   0  0  0  0  0  0  0  0  0  0  0  0
   -0.5130   -2.8120    1.5810 H   0  0  0  0  0  0  0  0  0  0  0  0
    0.8950   -3.1190   -0.4580 H   0  0  0  0  0  0  0  0  0  0  0  0
    0.3000    1.7790   -3.9320 C   0  0  0  0  0  0  0  0  0  0  0  0
    1.9150    2.0470   -3.2050 S   0  0  0  0  0  0  0  0  0  0  0  0
    2.0600    1.1430   -1.6450 C   0  0  0  0  0  0  0  0  0  0  0  0
    1.1260    1.6980   -0.5830 C   0  0  0  0  0  0  0  0  0  0  0  0
    1.2840    0.9050    0.7120 C   0  0  2  0  0  0  0  0  0  0  0  0
    0.9680   -0.4820    0.5280 N   0  0  0  0  0  0  0  0  0  0  0  0
    0.3630    1.4880    1.7050 C   0  0  0  0  0  0  0  0  0  0  0  0
    0.3920    2.6940    2.0600 O   0  0  0  0  0  0  0  0  0  0  0  0
   -0.2210    2.7530   -4.0090 H   0  0  0  0  0  0  0  0  0  0  0  0
    0.3890    1.2930   -4.9470 H   0  0  0  0  0  0  0  0  0  0  0  0
   -0.2700    1.0610   -3.2850 H   0  0  0  0  0  0  0  0  0  0  0  0
    3.1160    1.1950   -1.3240 H   0  0  0  0  0  0  0  0  0  0  0  0
    1.7230    0.0990   -1.8300 H   0  0  0  0  0  0  0  0  0  0  0  0
    1.4080    2.7560   -0.4210 H   0  0  0  0  0  0  0  0  0  0  0  0
    0.0730    1.6810   -0.9130 H   0  0  0  0  0  0  0  0  0  0  0  0
    2.3380    0.9610    1.0660 H   0  0  0  0  0  0  0  0  0  0  0  0
   -0.0230   -0.7270    0.2170 H   0  0  0  0  0  0  0  0  0  0  0  0
   -0.6180    0.6620    2.3050 N   0  0  0  0  0  0  0  0  0  0  0  0
   -1.5630    1.1720    3.2950 C   0  0  1  0  0  0  0  0  0  0  0  0
   -3.0040    1.0270    2.7880 C   0  0  0  0  0  0  0  0  0  0  0  0
   -3.2270    1.7670    1.5400 C   0  0  0  0  0  0  0  0  0  0  0  0
   -3.3710    3.0190    1.5150 O   0  0  0  0  0  0  0  0  0  0  0  0
   -1.4140    0.3370    4.5150 C   0  0  0  0  0  0  0  0  0  0  0  0
   -2.1420    0.6030    5.5060 O   0  0  0  0  0  0  0  0  0  0  0  0
   -3.2860    1.0950    0.3220 O   0  0  0  0  0  0  0  0  0  0  0  0
   -0.5250   -0.7120    4.6300 O   0  0  0  0  0  0  0  0  0  0  0  0
   -0.7300   -0.3570    2.0840 H   0  0  0  0  0  0  0  0  0  0  0  0
   -1.4080    2.2420    3.5020 H   0  0  0  0  0  0  0  0  0  0  0  0
   -3.2510   -0.0450    2.6050 H   0  0  0  0  0  0  0  0  0  0  0  0
   -3.6500    1.4550    3.5650 H   0  0  0  0  0  0  0  0  0  0  0  0
   -3.2180    1.6290   -0.5420 H   0  0  0  0  0  0  0  0  0  0  0  0
  2  1  1  0  0  0  0
  2 10  1  0  0  0  0
  2  3  1  0  0  0  0
  3  4  1  0  0  0  0
  3 11  1  0  0  0  0
  4 13  1  0  0  0  0
  5 15  1  6  0  0  0
  5  1  1  0  0  0  0
  5  6  1  0  0  0  0
  5  4  1  0  0  0  0
  6  7  2  0  0  0  0
  8  1  1  0  0  0  0
  9  2  1  0  0  0  0
 12  3  1  0  0  0  0
 14  4  1  0  0  0  0
 16 26  1  0  0  0  0
 16 17  1  0  0  0  0
 17 18  1  0  0  0  0
 18 27  1  0  0  0  0
 18 19  1  0  0  0  0
 19 29  1  0  0  0  0
 19 20  1  0  0  0  0
 20 31  1  1  0  0  0
 20 22  1  0  0  0  0
 21 20  1  0  0  0  0
 21  6  1  0  0  0  0
 22 23  2  0  0  0  0
 22 33  1  0  0  0  0
 24 16  1  0  0  0  0
 25 16  1  0  0  0  0
 28 18  1  0  0  0  0
 30 19  1  0  0  0  0
 32 21  1  0  0  0  0
 33 34  1  0  0  0  0
 34 43  1  1  0  0  0
 34 38  1  0  0  0  0
 35 34  1  0  0  0  0
 35 45  1  0  0  0  0
 36 35  1  0  0  0  0
 37 36  2  0  0  0  0
 38 41  2  0  0  0  0
 38 39  1  0  0  0  0
 40 36  1  0  0  0  0
 42 33  1  0  0  0  0
 44 35  1  0  0  0  0
 46 40  1  0  0  0  0
M  END
$$$$
