PMH.pdb
 OpenBabel07022419053D

 50 51  0  0  1  0  0  0  0  0999 V2000
    2.8150   -3.8610    0.6440 N   0  0  0  0  0  0  0  0  0  0  0  0
    1.7390   -4.3670    1.4760 C   0  0  0  0  0  0  0  0  0  0  0  0
    0.6570   -4.6150    0.4170 C   0  0  0  0  0  0  0  0  0  0  0  0
    0.8000   -3.3600   -0.4200 C   0  0  0  0  0  0  0  0  0  0  0  0
    2.1620   -2.8050   -0.1010 C   0  0  1  0  0  0  0  0  0  0  0  0
    2.1390   -1.5900    0.7020 C   0  0  0  0  0  0  0  0  0  0  0  0
    2.6500   -1.6010    1.8590 O   0  0  0  0  0  0  0  0  0  0  0  0
    3.1320   -4.5950   -0.0330 H   0  0  0  0  0  0  0  0  0  0  0  0
    2.0070   -5.3120    1.9830 H   0  0  0  0  0  0  0  0  0  0  0  0
    1.4390   -3.5730    2.1830 H   0  0  0  0  0  0  0  0  0  0  0  0
    0.9890   -5.5040   -0.1640 H   0  0  0  0  0  0  0  0  0  0  0  0
   -0.3290   -4.7310    0.8640 H   0  0  0  0  0  0  0  0  0  0  0  0
    0.6970   -3.6620   -1.4780 H   0  0  0  0  0  0  0  0  0  0  0  0
   -0.0200   -2.6770   -0.1370 H   0  0  0  0  0  0  0  0  0  0  0  0
    2.7070   -2.7060   -1.0600 H   0  0  0  0  0  0  0  0  0  0  0  0
    2.7910    2.1110    3.9820 C   0  0  0  0  0  0  0  0  0  0  0  0
    3.4050    3.1370    2.6570 S   0  0  0  0  0  0  0  0  0  0  0  0
    2.3650    3.2460    1.2050 C   0  0  0  0  0  0  0  0  0  0  0  0
    2.2290    1.9770    0.4240 C   0  0  0  0  0  0  0  0  0  0  0  0
    1.5850    0.8280    1.1410 C   0  0  2  0  0  0  0  0  0  0  0  0
    1.5670   -0.3570    0.2650 N   0  0  0  0  0  0  0  0  0  0  0  0
    0.1500    1.2040    1.4210 C   0  0  0  0  0  0  0  0  0  0  0  0
   -0.1840    2.1630    2.1340 O   0  0  0  0  0  0  0  0  0  0  0  0
    3.0380    2.5860    4.9830 H   0  0  0  0  0  0  0  0  0  0  0  0
    3.3290    1.1250    4.0230 H   0  0  0  0  0  0  0  0  0  0  0  0
    1.7000    1.9790    4.0230 H   0  0  0  0  0  0  0  0  0  0  0  0
    2.7980    4.0590    0.5260 H   0  0  0  0  0  0  0  0  0  0  0  0
    1.3730    3.6610    1.5320 H   0  0  0  0  0  0  0  0  0  0  0  0
    1.5980    2.2070   -0.4740 H   0  0  0  0  0  0  0  0  0  0  0  0
    3.2730    1.7070    0.0890 H   0  0  0  0  0  0  0  0  0  0  0  0
    2.0740    0.6490    2.0820 H   0  0  0  0  0  0  0  0  0  0  0  0
    1.1500   -0.3200   -0.6640 H   0  0  0  0  0  0  0  0  0  0  0  0
   -0.8990    0.4170    0.8370 N   0  0  0  0  0  0  0  0  0  0  0  0
   -2.2780    0.7780    1.1050 C   0  0  1  0  0  0  0  0  0  0  0  0
   -3.0190    1.0730   -0.1960 C   0  0  0  0  0  0  0  0  0  0  0  0
   -2.9890   -0.1390   -1.0510 C   0  0  0  0  0  0  0  0  0  0  0  0
   -3.9170   -1.1610   -1.0690 C   0  0  0  0  0  0  0  0  0  0  0  0
   -3.5080   -2.0500   -1.9830 N   0  0  0  0  0  0  0  0  0  0  0  0
   -2.3630   -1.6360   -2.5430 C   0  0  0  0  0  0  0  0  0  0  0  0
   -2.0620   -0.4730   -1.9660 N   0  0  0  0  0  0  0  0  0  0  0  0
   -2.9440   -0.3710    1.7620 C   0  0  0  0  0  0  0  0  0  0  0  0
   -2.3300   -1.4250    1.9990 O   0  0  0  0  0  0  0  0  0  0  0  0
   -4.2830   -0.2750    2.1230 O   0  0  0  0  0  0  0  0  0  0  0  0
   -0.6660   -0.3910    0.2380 H   0  0  0  0  0  0  0  0  0  0  0  0
   -2.3130    1.6730    1.7700 H   0  0  0  0  0  0  0  0  0  0  0  0
   -4.0530    1.4070    0.0010 H   0  0  0  0  0  0  0  0  0  0  0  0
   -2.4400    1.8690   -0.7260 H   0  0  0  0  0  0  0  0  0  0  0  0
   -4.8130   -1.2360   -0.4580 H   0  0  0  0  0  0  0  0  0  0  0  0
   -4.0170   -2.9360   -2.2150 H   0  0  0  0  0  0  0  0  0  0  0  0
   -1.8240   -2.1690   -3.3080 H   0  0  0  0  0  0  0  0  0  0  0  0
  1  2  1  0  0  0  0
  2  9  1  0  0  0  0
  2 10  1  0  0  0  0
  3 12  1  0  0  0  0
  3  2  1  0  0  0  0
  4 14  1  0  0  0  0
  4  5  1  0  0  0  0
  4  3  1  0  0  0  0
  5 15  1  6  0  0  0
  5  1  1  0  0  0  0
  5  6  1  0  0  0  0
  6  7  2  0  0  0  0
  8  1  1  0  0  0  0
 11  3  1  0  0  0  0
 13  4  1  0  0  0  0
 16 26  1  0  0  0  0
 16 25  1  0  0  0  0
 16 24  1  0  0  0  0
 17 16  1  0  0  0  0
 18 28  1  0  0  0  0
 18 17  1  0  0  0  0
 19 20  1  0  0  0  0
 19 18  1  0  0  0  0
 20 22  1  0  0  0  0
 20 31  1  1  0  0  0
 21  6  1  0  0  0  0
 21 20  1  0  0  0  0
 22 23  2  0  0  0  0
 27 18  1  0  0  0  0
 29 19  1  0  0  0  0
 30 19  1  0  0  0  0
 32 21  1  0  0  0  0
 33 34  1  0  0  0  0
 33 22  1  0  0  0  0
 34 41  1  0  0  0  0
 34 45  1  1  0  0  0
 35 46  1  0  0  0  0
 35 34  1  0  0  0  0
 36 35  1  0  0  0  0
 37 36  2  0  0  0  0
 37 48  1  0  0  0  0
 38 37  1  0  0  0  0
 39 38  1  0  0  0  0
 39 40  2  0  0  0  0
 40 36  1  0  0  0  0
 41 42  2  0  0  0  0
 41 43  1  0  0  0  0
 44 33  1  0  0  0  0
 47 35  1  0  0  0  0
 49 38  1  0  0  0  0
 50 39  1  0  0  0  0
M  END
$$$$
