PMI.pdb
 OpenBabel07022419053D

 52 52  0  0  1  0  0  0  0  0999 V2000
    1.6610   -4.3180    2.4380 N   0  0  0  0  0  0  0  0  0  0  0  0
    2.5880   -5.1110    3.2500 C   0  0  0  0  0  0  0  0  0  0  0  0
    3.2390   -4.1650    4.2100 C   0  0  0  0  0  0  0  0  0  0  0  0
    2.7770   -2.8000    3.7400 C   0  0  0  0  0  0  0  0  0  0  0  0
    1.4170   -3.1230    3.1840 C   0  0  1  0  0  0  0  0  0  0  0  0
    0.8720   -2.0510    2.3190 C   0  0  0  0  0  0  0  0  0  0  0  0
    0.7000   -2.3040    1.1070 O   0  0  0  0  0  0  0  0  0  0  0  0
    0.7760   -4.8310    2.2430 H   0  0  0  0  0  0  0  0  0  0  0  0
    1.9490   -5.8700    3.7620 H   0  0  0  0  0  0  0  0  0  0  0  0
    3.2920   -5.6120    2.5570 H   0  0  0  0  0  0  0  0  0  0  0  0
    4.3440   -4.2430    4.2300 H   0  0  0  0  0  0  0  0  0  0  0  0
    2.8400   -4.3900    5.2220 H   0  0  0  0  0  0  0  0  0  0  0  0
    3.4830   -2.4820    2.9440 H   0  0  0  0  0  0  0  0  0  0  0  0
    2.7640   -2.1380    4.6140 H   0  0  0  0  0  0  0  0  0  0  0  0
    0.7560   -3.3790    4.0300 H   0  0  0  0  0  0  0  0  0  0  0  0
    2.2200    3.1350   -1.0090 C   0  0  0  0  0  0  0  0  0  0  0  0
    3.1340    1.9130   -0.0100 S   0  0  0  0  0  0  0  0  0  0  0  0
    1.9820    0.6310    0.5600 C   0  0  0  0  0  0  0  0  0  0  0  0
    1.0100    1.2670    1.5160 C   0  0  0  0  0  0  0  0  0  0  0  0
    0.0020    0.3360    2.0700 C   0  0  2  0  0  0  0  0  0  0  0  0
    0.5460   -0.7700    2.8130 N   0  0  0  0  0  0  0  0  0  0  0  0
   -1.1140   -0.0240    1.1490 C   0  0  0  0  0  0  0  0  0  0  0  0
   -1.5270   -1.2030    1.1900 O   0  0  0  0  0  0  0  0  0  0  0  0
    1.3920    2.6350   -1.5820 H   0  0  0  0  0  0  0  0  0  0  0  0
    1.7620    3.8780   -0.3330 H   0  0  0  0  0  0  0  0  0  0  0  0
    2.8950    3.6280   -1.7410 H   0  0  0  0  0  0  0  0  0  0  0  0
    1.4920    0.2130   -0.3390 H   0  0  0  0  0  0  0  0  0  0  0  0
    2.5660   -0.1250    1.1300 H   0  0  0  0  0  0  0  0  0  0  0  0
    0.4950    2.1430    1.0900 H   0  0  0  0  0  0  0  0  0  0  0  0
    1.6090    1.6540    2.3730 H   0  0  0  0  0  0  0  0  0  0  0  0
   -0.5760    0.9310    2.8730 H   0  0  0  0  0  0  0  0  0  0  0  0
    0.7490   -0.6650    3.8660 H   0  0  0  0  0  0  0  0  0  0  0  0
   -1.7610    1.2850   -3.3700 C   0  0  0  0  0  0  0  0  0  0  0  0
   -1.2660    0.1490   -2.5410 C   0  0  0  0  0  0  0  0  0  0  0  0
   -2.3530   -0.4640   -1.6840 C   0  0  2  0  0  0  0  0  0  0  0  0
   -3.4840   -0.9970   -2.5030 C   0  0  0  0  0  0  0  0  0  0  0  0
   -2.7920    0.4970   -0.6120 C   0  0  2  0  0  0  0  0  0  0  0  0
   -1.7070    0.8730    0.2630 N   0  0  0  0  0  0  0  0  0  0  0  0
   -3.9220   -0.1400    0.1630 C   0  0  0  0  0  0  0  0  0  0  0  0
   -3.9020   -0.2710    1.4110 O   0  0  0  0  0  0  0  0  0  0  0  0
   -5.0590   -0.6200   -0.4670 O   0  0  0  0  0  0  0  0  0  0  0  0
   -0.8460    1.8260   -3.7480 H   0  0  0  0  0  0  0  0  0  0  0  0
   -2.3000    0.9270   -4.2820 H   0  0  0  0  0  0  0  0  0  0  0  0
   -2.3220    1.9860   -2.7510 H   0  0  0  0  0  0  0  0  0  0  0  0
   -0.7990   -0.6190   -3.1910 H   0  0  0  0  0  0  0  0  0  0  0  0
   -0.4690    0.4810   -1.8440 H   0  0  0  0  0  0  0  0  0  0  0  0
   -1.8670   -1.3630   -1.2040 H   0  0  0  0  0  0  0  0  0  0  0  0
   -4.2710   -0.2050   -2.6090 H   0  0  0  0  0  0  0  0  0  0  0  0
   -3.9430   -1.9030   -2.0490 H   0  0  0  0  0  0  0  0  0  0  0  0
   -3.1410   -1.2320   -3.5540 H   0  0  0  0  0  0  0  0  0  0  0  0
   -3.2780    1.3990   -1.0640 H   0  0  0  0  0  0  0  0  0  0  0  0
   -1.3370    1.8620    0.2450 H   0  0  0  0  0  0  0  0  0  0  0  0
  1  5  1  0  0  0  0
  1  2  1  0  0  0  0
  2  9  1  0  0  0  0
  2  3  1  0  0  0  0
  3 11  1  0  0  0  0
  3 12  1  0  0  0  0
  4  3  1  0  0  0  0
  4 14  1  0  0  0  0
  5  4  1  0  0  0  0
  5 15  1  1  0  0  0
  6 21  1  0  0  0  0
  6  5  1  0  0  0  0
  7  6  2  0  0  0  0
  8  1  1  0  0  0  0
 10  2  1  0  0  0  0
 13  4  1  0  0  0  0
 16 25  1  0  0  0  0
 16 17  1  0  0  0  0
 17 18  1  0  0  0  0
 18 28  1  0  0  0  0
 18 19  1  0  0  0  0
 19 20  1  0  0  0  0
 19 30  1  0  0  0  0
 20 21  1  0  0  0  0
 20 31  1  1  0  0  0
 21 32  1  0  0  0  0
 22 23  2  0  0  0  0
 22 20  1  0  0  0  0
 24 16  1  0  0  0  0
 26 16  1  0  0  0  0
 27 18  1  0  0  0  0
 29 19  1  0  0  0  0
 33 44  1  0  0  0  0
 33 34  1  0  0  0  0
 34 46  1  0  0  0  0
 34 35  1  0  0  0  0
 35 47  1  1  0  0  0
 35 37  1  0  0  0  0
 36 49  1  0  0  0  0
 36 35  1  0  0  0  0
 37 51  1  6  0  0  0
 37 39  1  0  0  0  0
 37 38  1  0  0  0  0
 38 22  1  0  0  0  0
 39 40  1  0  0  0  0
 41 39  2  0  0  0  0
 42 33  1  0  0  0  0
 43 33  1  0  0  0  0
 45 34  1  0  0  0  0
 48 36  1  0  0  0  0
 50 36  1  0  0  0  0
 52 38  1  0  0  0  0
M  END
$$$$
