PMK.pdb
 OpenBabel07022419053D

 54 54  0  0  1  0  0  0  0  0999 V2000
    4.1310   -3.6920    0.5530 N   0  0  0  0  0  0  0  0  0  0  0  0
    3.5480   -4.2740    1.7350 C   0  0  0  0  0  0  0  0  0  0  0  0
    2.0790   -4.4430    1.4900 C   0  0  0  0  0  0  0  0  0  0  0  0
    1.9110   -4.0620    0.0390 C   0  0  0  0  0  0  0  0  0  0  0  0
    3.0480   -3.0960   -0.1670 C   0  0  1  0  0  0  0  0  0  0  0  0
    2.7120   -1.7720    0.4340 C   0  0  0  0  0  0  0  0  0  0  0  0
    3.3500   -1.3230    1.4390 O   0  0  0  0  0  0  0  0  0  0  0  0
    4.6110   -4.3920   -0.0370 H   0  0  0  0  0  0  0  0  0  0  0  0
    4.0630   -5.2510    1.9020 H   0  0  0  0  0  0  0  0  0  0  0  0
    3.7440   -3.6690    2.6500 H   0  0  0  0  0  0  0  0  0  0  0  0
    1.4850   -3.8140    2.1750 H   0  0  0  0  0  0  0  0  0  0  0  0
    1.7940   -5.5160    1.6490 H   0  0  0  0  0  0  0  0  0  0  0  0
    2.0700   -4.9470   -0.6160 H   0  0  0  0  0  0  0  0  0  0  0  0
    0.9220   -3.6280   -0.1750 H   0  0  0  0  0  0  0  0  0  0  0  0
    3.2690   -2.9640   -1.2510 H   0  0  0  0  0  0  0  0  0  0  0  0
    4.0120    3.4340    0.7490 C   0  0  0  0  0  0  0  0  0  0  0  0
    2.3030    3.2770    1.3380 S   0  0  0  0  0  0  0  0  0  0  0  0
    1.1940    2.8020   -0.0170 C   0  0  0  0  0  0  0  0  0  0  0  0
    1.4930    1.4150   -0.5280 C   0  0  0  0  0  0  0  0  0  0  0  0
    1.3650    0.3390    0.5270 C   0  0  2  0  0  0  0  0  0  0  0  0
    1.6770   -0.9470   -0.0720 N   0  0  0  0  0  0  0  0  0  0  0  0
   -0.0340    0.2880    1.0270 C   0  0  0  0  0  0  0  0  0  0  0  0
   -0.5150    1.3180    1.6190 O   0  0  0  0  0  0  0  0  0  0  0  0
    4.1530    4.3860    0.1570 H   0  0  0  0  0  0  0  0  0  0  0  0
    4.6660    3.4330    1.6360 H   0  0  0  0  0  0  0  0  0  0  0  0
    4.2460    2.5620    0.1100 H   0  0  0  0  0  0  0  0  0  0  0  0
    0.1410    2.9740    0.1760 H   0  0  0  0  0  0  0  0  0  0  0  0
    1.4560    3.5210   -0.8570 H   0  0  0  0  0  0  0  0  0  0  0  0
    2.5590    1.4470   -0.8890 H   0  0  0  0  0  0  0  0  0  0  0  0
    0.7960    1.2400   -1.3780 H   0  0  0  0  0  0  0  0  0  0  0  0
    2.0500    0.5550    1.3790 H   0  0  0  0  0  0  0  0  0  0  0  0
    1.1320   -1.2670   -0.8890 H   0  0  0  0  0  0  0  0  0  0  0  0
   -0.8220   -0.8790    0.8510 N   0  0  0  0  0  0  0  0  0  0  0  0
   -2.1740   -0.9700    1.3170 C   0  0  1  0  0  0  0  0  0  0  0  0
   -3.1530   -1.3330    0.2370 C   0  0  0  0  0  0  0  0  0  0  0  0
   -3.1850   -0.3410   -0.8930 C   0  0  0  0  0  0  0  0  0  0  0  0
   -3.5650    1.0390   -0.4750 C   0  0  0  0  0  0  0  0  0  0  0  0
   -4.9340    1.1110    0.1530 C   0  0  0  0  0  0  0  0  0  0  0  0
   -5.9750    0.6640   -0.7480 N   0  0  0  0  0  0  0  0  0  0  0  0
   -2.2430   -2.0330    2.3470 C   0  0  0  0  0  0  0  0  0  0  0  0
   -1.2070   -2.6540    2.6460 O   0  0  0  0  0  0  0  0  0  0  0  0
   -3.4380   -2.3530    2.9860 O   0  0  0  0  0  0  0  0  0  0  0  0
   -0.3980   -1.6920    0.3700 H   0  0  0  0  0  0  0  0  0  0  0  0
   -2.5300   -0.0430    1.8100 H   0  0  0  0  0  0  0  0  0  0  0  0
   -4.1600   -1.3560    0.7030 H   0  0  0  0  0  0  0  0  0  0  0  0
   -2.9500   -2.3620   -0.1190 H   0  0  0  0  0  0  0  0  0  0  0  0
   -3.8980   -0.6730   -1.6740 H   0  0  0  0  0  0  0  0  0  0  0  0
   -2.1830   -0.3520   -1.3670 H   0  0  0  0  0  0  0  0  0  0  0  0
   -3.6220    1.6560   -1.4130 H   0  0  0  0  0  0  0  0  0  0  0  0
   -2.8440    1.5430    0.1760 H   0  0  0  0  0  0  0  0  0  0  0  0
   -5.0160    0.6010    1.1100 H   0  0  0  0  0  0  0  0  0  0  0  0
   -5.1180    2.2050    0.3590 H   0  0  0  0  0  0  0  0  0  0  0  0
   -6.8950    1.0440   -0.3790 H   0  0  0  0  0  0  0  0  0  0  0  0
   -5.8010    1.1500   -1.6680 H   0  0  0  0  0  0  0  0  0  0  0  0
  1  2  1  0  0  0  0
  2  9  1  0  0  0  0
  2 10  1  0  0  0  0
  3 12  1  0  0  0  0
  3  2  1  0  0  0  0
  3 11  1  0  0  0  0
  4  3  1  0  0  0  0
  5 15  1  6  0  0  0
  5  4  1  0  0  0  0
  5  6  1  0  0  0  0
  5  1  1  0  0  0  0
  6  7  2  0  0  0  0
  8  1  1  0  0  0  0
 13  4  1  0  0  0  0
 14  4  1  0  0  0  0
 16 17  1  0  0  0  0
 16 25  1  0  0  0  0
 18 27  1  0  0  0  0
 18 17  1  0  0  0  0
 19 18  1  0  0  0  0
 19 20  1  0  0  0  0
 20 22  1  0  0  0  0
 20 31  1  1  0  0  0
 21  6  1  0  0  0  0
 21 20  1  0  0  0  0
 22 23  2  0  0  0  0
 24 16  1  0  0  0  0
 26 16  1  0  0  0  0
 28 18  1  0  0  0  0
 29 19  1  0  0  0  0
 30 19  1  0  0  0  0
 32 21  1  0  0  0  0
 33 22  1  0  0  0  0
 33 34  1  0  0  0  0
 34 44  1  1  0  0  0
 34 40  1  0  0  0  0
 35 45  1  0  0  0  0
 35 34  1  0  0  0  0
 36 37  1  0  0  0  0
 36 35  1  0  0  0  0
 37 38  1  0  0  0  0
 37 50  1  0  0  0  0
 38 52  1  0  0  0  0
 38 51  1  0  0  0  0
 39 53  1  0  0  0  0
 39 38  1  0  0  0  0
 40 41  2  0  0  0  0
 40 42  1  0  0  0  0
 43 33  1  0  0  0  0
 46 35  1  0  0  0  0
 47 36  1  0  0  0  0
 48 36  1  0  0  0  0
 49 37  1  0  0  0  0
 54 39  1  0  0  0  0
M  END
$$$$
