PMM.pdb
 OpenBabel07022419053D

 50 50  0  0  1  0  0  0  0  0999 V2000
    2.6050   -4.2560    1.6800 N   0  0  0  0  0  0  0  0  0  0  0  0
    1.9470   -5.3890    2.3380 C   0  0  0  0  0  0  0  0  0  0  0  0
    0.4920   -5.0480    2.4450 C   0  0  0  0  0  0  0  0  0  0  0  0
    0.4590   -3.5870    2.0490 C   0  0  0  0  0  0  0  0  0  0  0  0
    1.5230   -3.5490    1.0030 C   0  0  1  0  0  0  0  0  0  0  0  0
    1.9550   -2.2020    0.6150 C   0  0  0  0  0  0  0  0  0  0  0  0
    3.1280   -1.8390    0.8920 O   0  0  0  0  0  0  0  0  0  0  0  0
    3.3140   -4.5440    0.9980 H   0  0  0  0  0  0  0  0  0  0  0  0
    2.1430   -6.2610    1.6810 H   0  0  0  0  0  0  0  0  0  0  0  0
    2.4120   -5.5740    3.3100 H   0  0  0  0  0  0  0  0  0  0  0  0
    0.0760   -5.2150    3.4570 H   0  0  0  0  0  0  0  0  0  0  0  0
   -0.0580   -5.6340    1.6680 H   0  0  0  0  0  0  0  0  0  0  0  0
    0.6860   -3.0020    2.9540 H   0  0  0  0  0  0  0  0  0  0  0  0
   -0.5540   -3.3390    1.6540 H   0  0  0  0  0  0  0  0  0  0  0  0
    1.2090   -4.1920    0.1660 H   0  0  0  0  0  0  0  0  0  0  0  0
   -0.6730    3.0390   -2.6270 C   0  0  0  0  0  0  0  0  0  0  0  0
    0.9750    3.1030   -1.9170 S   0  0  0  0  0  0  0  0  0  0  0  0
    1.9970    1.7140   -2.3600 C   0  0  0  0  0  0  0  0  0  0  0  0
    1.5940    0.3800   -1.8460 C   0  0  0  0  0  0  0  0  0  0  0  0
    1.5940    0.0910   -0.4390 C   0  0  2  0  0  0  0  0  0  0  0  0
    1.1780   -1.2440   -0.0510 N   0  0  0  0  0  0  0  0  0  0  0  0
    0.9240    1.0350    0.4560 C   0  0  0  0  0  0  0  0  0  0  0  0
    1.1270    2.2720    0.5540 O   0  0  0  0  0  0  0  0  0  0  0  0
   -1.4800    3.2950   -1.9380 H   0  0  0  0  0  0  0  0  0  0  0  0
   -0.7110    3.8020   -3.4550 H   0  0  0  0  0  0  0  0  0  0  0  0
   -0.9080    2.0740   -3.1030 H   0  0  0  0  0  0  0  0  0  0  0  0
    2.1390    1.6980   -3.4790 H   0  0  0  0  0  0  0  0  0  0  0  0
    3.0410    1.9490   -1.9810 H   0  0  0  0  0  0  0  0  0  0  0  0
    0.5080    0.2680   -2.2180 H   0  0  0  0  0  0  0  0  0  0  0  0
    2.1040   -0.3520   -2.5190 H   0  0  0  0  0  0  0  0  0  0  0  0
    2.6860    0.1190   -0.1000 H   0  0  0  0  0  0  0  0  0  0  0  0
    0.2050   -1.5050   -0.3000 H   0  0  0  0  0  0  0  0  0  0  0  0
   -2.9710   -0.4450   -0.8760 C   0  0  0  0  0  0  0  0  0  0  0  0
   -2.7010   -0.8930    0.8360 S   0  0  0  0  0  0  0  0  0  0  0  0
   -3.0950    0.4000    1.9980 C   0  0  0  0  0  0  0  0  0  0  0  0
   -2.2500    1.6140    1.9590 C   0  0  0  0  0  0  0  0  0  0  0  0
   -0.7880    1.4220    2.2500 C   0  0  2  0  0  0  0  0  0  0  0  0
   -0.1040    0.5460    1.3580 N   0  0  0  0  0  0  0  0  0  0  0  0
   -0.6200    0.9860    3.6640 C   0  0  0  0  0  0  0  0  0  0  0  0
   -1.1770    1.6720    4.5560 O   0  0  0  0  0  0  0  0  0  0  0  0
    0.1090   -0.1220    4.0300 O   0  0  0  0  0  0  0  0  0  0  0  0
   -2.6600   -1.3180   -1.5030 H   0  0  0  0  0  0  0  0  0  0  0  0
   -2.2630    0.3800   -1.1810 H   0  0  0  0  0  0  0  0  0  0  0  0
   -4.0060   -0.1660   -1.0930 H   0  0  0  0  0  0  0  0  0  0  0  0
   -3.1340   -0.0490    3.0130 H   0  0  0  0  0  0  0  0  0  0  0  0
   -4.1580    0.7190    1.7790 H   0  0  0  0  0  0  0  0  0  0  0  0
   -2.6220    2.2910    2.7890 H   0  0  0  0  0  0  0  0  0  0  0  0
   -2.4080    2.1710    0.9980 H   0  0  0  0  0  0  0  0  0  0  0  0
   -0.3290    2.4650    2.2110 H   0  0  0  0  0  0  0  0  0  0  0  0
   -0.3230   -0.4620    1.3500 H   0  0  0  0  0  0  0  0  0  0  0  0
  1  2  1  0  0  0  0
  2  3  1  0  0  0  0
  2 10  1  0  0  0  0
  3 11  1  0  0  0  0
  4  3  1  0  0  0  0
  4 13  1  0  0  0  0
  5 15  1  6  0  0  0
  5  1  1  0  0  0  0
  5  4  1  0  0  0  0
  6  7  2  0  0  0  0
  6  5  1  0  0  0  0
  8  1  1  0  0  0  0
  9  2  1  0  0  0  0
 12  3  1  0  0  0  0
 14  4  1  0  0  0  0
 16 24  1  0  0  0  0
 16 17  1  0  0  0  0
 18 28  1  0  0  0  0
 18 17  1  0  0  0  0
 18 19  1  0  0  0  0
 19 20  1  0  0  0  0
 20 31  1  1  0  0  0
 20 21  1  0  0  0  0
 20 22  1  0  0  0  0
 21  6  1  0  0  0  0
 22 23  2  0  0  0  0
 22 38  1  0  0  0  0
 25 16  1  0  0  0  0
 26 16  1  0  0  0  0
 27 18  1  0  0  0  0
 29 19  1  0  0  0  0
 30 19  1  0  0  0  0
 32 21  1  0  0  0  0
 33 34  1  0  0  0  0
 34 35  1  0  0  0  0
 35 45  1  0  0  0  0
 36 35  1  0  0  0  0
 36 37  1  0  0  0  0
 36 47  1  0  0  0  0
 37 49  1  6  0  0  0
 37 39  1  0  0  0  0
 38 37  1  0  0  0  0
 39 41  2  0  0  0  0
 39 40  1  0  0  0  0
 42 33  1  0  0  0  0
 43 33  1  0  0  0  0
 44 33  1  0  0  0  0
 46 35  1  0  0  0  0
 48 36  1  0  0  0  0
 50 38  1  0  0  0  0
M  END
$$$$
