PMQ.pdb
 OpenBabel07022419043D

 50 50  0  0  1  0  0  0  0  0999 V2000
    2.7180   -3.5220   -1.3270 N   0  0  0  0  0  0  0  0  0  0  0  0
    1.8980   -4.5490   -0.7230 C   0  0  0  0  0  0  0  0  0  0  0  0
    0.4790   -4.0280   -0.6880 C   0  0  0  0  0  0  0  0  0  0  0  0
    0.5600   -2.8240   -1.6100 C   0  0  0  0  0  0  0  0  0  0  0  0
    1.9430   -2.2920   -1.2400 C   0  0  1  0  0  0  0  0  0  0  0  0
    1.8790   -1.8320    0.1740 C   0  0  0  0  0  0  0  0  0  0  0  0
    2.4460   -2.4810    1.1100 O   0  0  0  0  0  0  0  0  0  0  0  0
    2.8340   -3.7230   -2.3470 H   0  0  0  0  0  0  0  0  0  0  0  0
    1.9450   -5.4990   -1.2670 H   0  0  0  0  0  0  0  0  0  0  0  0
    2.2400   -4.7050    0.3280 H   0  0  0  0  0  0  0  0  0  0  0  0
   -0.2170   -4.7770   -1.0840 H   0  0  0  0  0  0  0  0  0  0  0  0
    0.2220   -3.7010    0.3360 H   0  0  0  0  0  0  0  0  0  0  0  0
   -0.2300   -2.0990   -1.4330 H   0  0  0  0  0  0  0  0  0  0  0  0
    0.5760   -3.1900   -2.6530 H   0  0  0  0  0  0  0  0  0  0  0  0
    2.3070   -1.5330   -1.9270 H   0  0  0  0  0  0  0  0  0  0  0  0
    4.1500    3.3170    2.8040 C   0  0  0  0  0  0  0  0  0  0  0  0
    2.4010    3.4220    3.2710 S   0  0  0  0  0  0  0  0  0  0  0  0
    1.6770    1.7410    3.3510 C   0  0  0  0  0  0  0  0  0  0  0  0
    1.6760    1.1830    1.9720 C   0  0  0  0  0  0  0  0  0  0  0  0
    1.1230   -0.1980    1.9330 C   0  0  2  0  0  0  0  0  0  0  0  0
    1.1820   -0.6500    0.5270 N   0  0  0  0  0  0  0  0  0  0  0  0
   -0.2810   -0.2200    2.3600 C   0  0  0  0  0  0  0  0  0  0  0  0
   -0.6900    0.0690    3.5280 O   0  0  0  0  0  0  0  0  0  0  0  0
    4.6550    2.5280    3.3810 H   0  0  0  0  0  0  0  0  0  0  0  0
    4.6090    4.3030    2.9780 H   0  0  0  0  0  0  0  0  0  0  0  0
    4.2380    3.1110    1.7140 H   0  0  0  0  0  0  0  0  0  0  0  0
    2.3270    1.1150    3.9950 H   0  0  0  0  0  0  0  0  0  0  0  0
    0.6860    1.8270    3.7980 H   0  0  0  0  0  0  0  0  0  0  0  0
    2.7210    1.1280    1.5770 H   0  0  0  0  0  0  0  0  0  0  0  0
    1.0660    1.8420    1.2980 H   0  0  0  0  0  0  0  0  0  0  0  0
    1.7330   -0.9130    2.5270 H   0  0  0  0  0  0  0  0  0  0  0  0
    0.7210   -0.1140   -0.2390 H   0  0  0  0  0  0  0  0  0  0  0  0
   -1.9190    0.8180   -2.1270 N   0  0  0  0  0  0  0  0  0  0  0  0
   -2.2430    1.0860   -0.7540 C   0  0  0  0  0  0  0  0  0  0  0  0
   -1.3660    1.6600   -0.0460 O   0  0  0  0  0  0  0  0  0  0  0  0
   -3.5380    0.7280   -0.1620 C   0  0  0  0  0  0  0  0  0  0  0  0
   -3.4950    0.5240    1.3040 C   0  0  0  0  0  0  0  0  0  0  0  0
   -2.6910   -0.6260    1.8010 C   0  0  2  0  0  0  0  0  0  0  0  0
   -1.3180   -0.5890    1.4340 N   0  0  0  0  0  0  0  0  0  0  0  0
   -3.3450   -1.8890    1.3850 C   0  0  0  0  0  0  0  0  0  0  0  0
   -4.5500   -2.1120    1.6160 O   0  0  0  0  0  0  0  0  0  0  0  0
   -2.6280   -2.8730    0.7170 O   0  0  0  0  0  0  0  0  0  0  0  0
   -2.0450   -0.1360   -2.5070 H   0  0  0  0  0  0  0  0  0  0  0  0
   -1.5540    1.5660   -2.7590 H   0  0  0  0  0  0  0  0  0  0  0  0
   -4.0000   -0.1630   -0.6810 H   0  0  0  0  0  0  0  0  0  0  0  0
   -4.2410    1.5610   -0.4270 H   0  0  0  0  0  0  0  0  0  0  0  0
   -4.5410    0.4030    1.6900 H   0  0  0  0  0  0  0  0  0  0  0  0
   -3.1220    1.4410    1.8300 H   0  0  0  0  0  0  0  0  0  0  0  0
   -2.7090   -0.6010    2.9320 H   0  0  0  0  0  0  0  0  0  0  0  0
   -1.0050   -0.8640    0.4670 H   0  0  0  0  0  0  0  0  0  0  0  0
  1  5  1  0  0  0  0
  1  2  1  0  0  0  0
  2  3  1  0  0  0  0
  2 10  1  0  0  0  0
  3 12  1  0  0  0  0
  4 13  1  0  0  0  0
  4  5  1  0  0  0  0
  4  3  1  0  0  0  0
  5 15  1  6  0  0  0
  5  6  1  0  0  0  0
  6 21  1  0  0  0  0
  6  7  2  0  0  0  0
  8  1  1  0  0  0  0
  9  2  1  0  0  0  0
 11  3  1  0  0  0  0
 14  4  1  0  0  0  0
 16 25  1  0  0  0  0
 16 17  1  0  0  0  0
 16 24  1  0  0  0  0
 17 18  1  0  0  0  0
 18 28  1  0  0  0  0
 18 27  1  0  0  0  0
 19 18  1  0  0  0  0
 20 19  1  0  0  0  0
 20 22  1  0  0  0  0
 20 31  1  1  0  0  0
 21 20  1  0  0  0  0
 22 23  2  0  0  0  0
 26 16  1  0  0  0  0
 29 19  1  0  0  0  0
 30 19  1  0  0  0  0
 32 21  1  0  0  0  0
 33 34  1  0  0  0  0
 34 36  1  0  0  0  0
 34 35  2  0  0  0  0
 36 37  1  0  0  0  0
 37 47  1  0  0  0  0
 37 38  1  0  0  0  0
 37 48  1  0  0  0  0
 38 49  1  1  0  0  0
 39 38  1  0  0  0  0
 39 22  1  0  0  0  0
 40 41  1  0  0  0  0
 40 38  1  0  0  0  0
 42 40  2  0  0  0  0
 43 33  1  0  0  0  0
 44 33  1  0  0  0  0
 45 36  1  0  0  0  0
 46 36  1  0  0  0  0
 50 39  1  0  0  0  0
M  END
$$$$
