PMR.pdb
 OpenBabel07022419043D

 56 56  0  0  1  0  0  0  0  0999 V2000
    2.2960   -2.7110   -1.1400 N   0  0  0  0  0  0  0  0  0  0  0  0
    2.9470   -2.7490   -2.3950 C   0  0  0  0  0  0  0  0  0  0  0  0
    4.4090   -2.9090   -2.0400 C   0  0  0  0  0  0  0  0  0  0  0  0
    4.4930   -2.0790   -0.7720 C   0  0  0  0  0  0  0  0  0  0  0  0
    3.1320   -2.2040   -0.1250 C   0  0  1  0  0  0  0  0  0  0  0  0
    2.7260   -0.9400    0.5010 C   0  0  0  0  0  0  0  0  0  0  0  0
    3.5100   -0.4880    1.4000 O   0  0  0  0  0  0  0  0  0  0  0  0
    1.3220   -2.4060   -1.1360 H   0  0  0  0  0  0  0  0  0  0  0  0
    2.5710   -3.6120   -2.9850 H   0  0  0  0  0  0  0  0  0  0  0  0
    2.8480   -1.8220   -2.9960 H   0  0  0  0  0  0  0  0  0  0  0  0
    5.0940   -2.5090   -2.8180 H   0  0  0  0  0  0  0  0  0  0  0  0
    4.5800   -3.9830   -1.8300 H   0  0  0  0  0  0  0  0  0  0  0  0
    5.2700   -2.5400   -0.1320 H   0  0  0  0  0  0  0  0  0  0  0  0
    4.7840   -1.0460   -0.9880 H   0  0  0  0  0  0  0  0  0  0  0  0
    3.2200   -3.0160    0.6710 H   0  0  0  0  0  0  0  0  0  0  0  0
    2.4200    3.2890    3.0460 C   0  0  0  0  0  0  0  0  0  0  0  0
    1.9750    4.1360    1.5600 S   0  0  0  0  0  0  0  0  0  0  0  0
    0.6810    3.4600    0.5550 C   0  0  0  0  0  0  0  0  0  0  0  0
    1.0010    2.1560   -0.0920 C   0  0  0  0  0  0  0  0  0  0  0  0
    1.2280    1.0700    0.8790 C   0  0  2  0  0  0  0  0  0  0  0  0
    1.5820   -0.1940    0.2120 N   0  0  0  0  0  0  0  0  0  0  0  0
    0.0140    0.7230    1.6790 C   0  0  0  0  0  0  0  0  0  0  0  0
   -0.5220    1.6280    2.3560 O   0  0  0  0  0  0  0  0  0  0  0  0
    3.3880    2.7270    2.8760 H   0  0  0  0  0  0  0  0  0  0  0  0
    1.6500    2.6680    3.4900 H   0  0  0  0  0  0  0  0  0  0  0  0
    2.7250    4.0270    3.8630 H   0  0  0  0  0  0  0  0  0  0  0  0
   -0.3170    3.4800    1.0580 H   0  0  0  0  0  0  0  0  0  0  0  0
    0.5270    4.1900   -0.3090 H   0  0  0  0  0  0  0  0  0  0  0  0
    0.2830    1.8940   -0.9040 H   0  0  0  0  0  0  0  0  0  0  0  0
    1.9760    2.3130   -0.6500 H   0  0  0  0  0  0  0  0  0  0  0  0
    2.0290    1.3160    1.5770 H   0  0  0  0  0  0  0  0  0  0  0  0
    0.9130   -0.5190   -0.5150 H   0  0  0  0  0  0  0  0  0  0  0  0
   -5.8970   -0.8280   -2.4470 N   0  0  0  0  0  0  0  0  0  0  0  0
   -5.2800   -1.9460   -1.8310 C   0  0  0  0  0  0  0  0  0  0  0  0
   -5.6930   -3.1350   -2.0350 N   0  0  0  0  0  0  0  0  0  0  0  0
   -4.1590   -1.7340   -0.9580 N   0  0  0  0  0  0  0  0  0  0  0  0
   -3.8210   -2.8050   -0.0520 C   0  0  0  0  0  0  0  0  0  0  0  0
   -2.6260   -2.4450    0.8100 C   0  0  0  0  0  0  0  0  0  0  0  0
   -2.9110   -1.2120    1.6430 C   0  0  0  0  0  0  0  0  0  0  0  0
   -1.7290   -0.8400    2.5050 C   0  0  2  0  0  0  0  0  0  0  0  0
   -0.5570   -0.5620    1.7120 N   0  0  0  0  0  0  0  0  0  0  0  0
   -1.4470   -1.8890    3.5150 C   0  0  0  0  0  0  0  0  0  0  0  0
   -2.3330   -2.2850    4.3090 O   0  0  0  0  0  0  0  0  0  0  0  0
   -0.1850   -2.4420    3.5840 O   0  0  0  0  0  0  0  0  0  0  0  0
   -5.3640   -0.0620   -2.9140 H   0  0  0  0  0  0  0  0  0  0  0  0
   -6.9250   -0.7620   -2.4370 H   0  0  0  0  0  0  0  0  0  0  0  0
   -6.5050   -3.2830   -2.6710 H   0  0  0  0  0  0  0  0  0  0  0  0
   -3.6710   -0.8260   -1.0390 H   0  0  0  0  0  0  0  0  0  0  0  0
   -3.5330   -3.7120   -0.6350 H   0  0  0  0  0  0  0  0  0  0  0  0
   -4.7170   -3.0150    0.5650 H   0  0  0  0  0  0  0  0  0  0  0  0
   -1.7150   -2.3120    0.2120 H   0  0  0  0  0  0  0  0  0  0  0  0
   -2.4610   -3.3000    1.5000 H   0  0  0  0  0  0  0  0  0  0  0  0
   -3.1980   -0.3960    0.9770 H   0  0  0  0  0  0  0  0  0  0  0  0
   -3.7640   -1.4480    2.3280 H   0  0  0  0  0  0  0  0  0  0  0  0
   -2.0410    0.0790    3.0700 H   0  0  0  0  0  0  0  0  0  0  0  0
   -0.1350   -1.3290    1.1610 H   0  0  0  0  0  0  0  0  0  0  0  0
  1  8  1  0  0  0  0
  1  5  1  0  0  0  0
  2  3  1  0  0  0  0
  2  1  1  0  0  0  0
  3 12  1  0  0  0  0
  3  4  1  0  0  0  0
  4 13  1  0  0  0  0
  4  5  1  0  0  0  0
  5  6  1  0  0  0  0
  5 15  1  1  0  0  0
  6  7  2  0  0  0  0
  9  2  1  0  0  0  0
 10  2  1  0  0  0  0
 11  3  1  0  0  0  0
 14  4  1  0  0  0  0
 16 25  1  0  0  0  0
 16 26  1  0  0  0  0
 17 16  1  0  0  0  0
 18 27  1  0  0  0  0
 18 17  1  0  0  0  0
 19 18  1  0  0  0  0
 19 20  1  0  0  0  0
 20 31  1  1  0  0  0
 20 22  1  0  0  0  0
 21  6  1  0  0  0  0
 21 20  1  0  0  0  0
 22 41  1  0  0  0  0
 22 23  2  0  0  0  0
 24 16  1  0  0  0  0
 28 18  1  0  0  0  0
 29 19  1  0  0  0  0
 30 19  1  0  0  0  0
 32 21  1  0  0  0  0
 33 46  1  0  0  0  0
 33 34  1  0  0  0  0
 34 36  1  0  0  0  0
 35 34  2  0  0  0  0
 36 37  1  0  0  0  0
 37 50  1  0  0  0  0
 37 38  1  0  0  0  0
 38 52  1  0  0  0  0
 38 39  1  0  0  0  0
 39 54  1  0  0  0  0
 39 40  1  0  0  0  0
 40 55  1  1  0  0  0
 40 42  1  0  0  0  0
 41 40  1  0  0  0  0
 42 44  2  0  0  0  0
 42 43  1  0  0  0  0
 45 33  1  0  0  0  0
 47 35  1  0  0  0  0
 48 36  1  0  0  0  0
 49 37  1  0  0  0  0
 51 38  1  0  0  0  0
 53 39  1  0  0  0  0
 56 41  1  0  0  0  0
M  END
$$$$
