PMT.pdb
 OpenBabel07022419053D

 47 47  0  0  1  0  0  0  0  0999 V2000
    3.1800   -3.4110    1.8860 N   0  0  0  0  0  0  0  0  0  0  0  0
    3.0750   -4.7920    1.3890 C   0  0  0  0  0  0  0  0  0  0  0  0
    1.5740   -5.0170    1.4630 C   0  0  0  0  0  0  0  0  0  0  0  0
    0.9440   -3.6270    1.4340 C   0  0  0  0  0  0  0  0  0  0  0  0
    2.1570   -2.7720    1.0840 C   0  0  1  0  0  0  0  0  0  0  0  0
    1.9730   -1.3510    1.4660 C   0  0  0  0  0  0  0  0  0  0  0  0
    2.6580   -0.8380    2.3870 O   0  0  0  0  0  0  0  0  0  0  0  0
    2.8300   -3.4410    2.8710 H   0  0  0  0  0  0  0  0  0  0  0  0
    3.3330   -4.8170    0.3010 H   0  0  0  0  0  0  0  0  0  0  0  0
    3.6510   -5.4980    1.9920 H   0  0  0  0  0  0  0  0  0  0  0  0
    1.3690   -5.5520    2.3990 H   0  0  0  0  0  0  0  0  0  0  0  0
    1.2060   -5.6390    0.6290 H   0  0  0  0  0  0  0  0  0  0  0  0
    0.1700   -3.5650    0.6620 H   0  0  0  0  0  0  0  0  0  0  0  0
    0.5870   -3.3960    2.4580 H   0  0  0  0  0  0  0  0  0  0  0  0
    2.3200   -2.9060   -0.0070 H   0  0  0  0  0  0  0  0  0  0  0  0
    2.2390    2.3270   -3.1800 C   0  0  0  0  0  0  0  0  0  0  0  0
    3.1200    2.7260   -1.6590 S   0  0  0  0  0  0  0  0  0  0  0  0
    2.7140    1.5980   -0.3180 C   0  0  0  0  0  0  0  0  0  0  0  0
    1.2610    1.8000    0.0490 C   0  0  0  0  0  0  0  0  0  0  0  0
    0.8530    0.8650    1.1910 C   0  0  2  0  0  0  0  0  0  0  0  0
    1.0280   -0.5110    0.8190 N   0  0  0  0  0  0  0  0  0  0  0  0
   -0.5560    1.2170    1.5060 C   0  0  0  0  0  0  0  0  0  0  0  0
   -0.7790    2.4060    1.8380 O   0  0  0  0  0  0  0  0  0  0  0  0
    2.9060    2.4750   -4.0640 H   0  0  0  0  0  0  0  0  0  0  0  0
    1.9640    1.2370   -3.1940 H   0  0  0  0  0  0  0  0  0  0  0  0
    1.3040    2.8840   -3.3140 H   0  0  0  0  0  0  0  0  0  0  0  0
    3.3810    1.8390    0.5370 H   0  0  0  0  0  0  0  0  0  0  0  0
    2.9350    0.5500   -0.6090 H   0  0  0  0  0  0  0  0  0  0  0  0
    0.6580    1.6150   -0.8590 H   0  0  0  0  0  0  0  0  0  0  0  0
    1.1430    2.8450    0.3760 H   0  0  0  0  0  0  0  0  0  0  0  0
    1.5500    1.0870    2.0260 H   0  0  0  0  0  0  0  0  0  0  0  0
    0.4480   -0.9160    0.0530 H   0  0  0  0  0  0  0  0  0  0  0  0
   -3.5410    1.2210   -0.6250 C   0  0  0  0  0  0  0  0  0  0  0  0
   -3.9290    0.4500    0.6120 C   0  0  1  0  0  0  0  0  0  0  0  0
   -3.8840   -0.8990    0.2930 O   0  0  0  0  0  0  0  0  0  0  0  0
   -3.0050    0.6890    1.7690 C   0  0  2  0  0  0  0  0  0  0  0  0
   -1.6410    0.3290    1.4610 N   0  0  0  0  0  0  0  0  0  0  0  0
   -3.5240   -0.0850    2.9270 C   0  0  0  0  0  0  0  0  0  0  0  0
   -2.8410   -0.9410    3.5430 O   0  0  0  0  0  0  0  0  0  0  0  0
   -4.8220    0.1350    3.3610 O   0  0  0  0  0  0  0  0  0  0  0  0
   -4.4020    1.1310   -1.3390 H   0  0  0  0  0  0  0  0  0  0  0  0
   -2.6770    0.7690   -1.1540 H   0  0  0  0  0  0  0  0  0  0  0  0
   -3.3960    2.2960   -0.4500 H   0  0  0  0  0  0  0  0  0  0  0  0
   -4.9510    0.7580    0.8940 H   0  0  0  0  0  0  0  0  0  0  0  0
   -4.1050   -1.4520    1.0830 H   0  0  0  0  0  0  0  0  0  0  0  0
   -3.0970    1.7700    2.0510 H   0  0  0  0  0  0  0  0  0  0  0  0
   -1.4650   -0.6610    1.1870 H   0  0  0  0  0  0  0  0  0  0  0  0
  1  8  1  0  0  0  0
  2  3  1  0  0  0  0
  2  1  1  0  0  0  0
  2 10  1  0  0  0  0
  3 11  1  0  0  0  0
  4  3  1  0  0  0  0
  4 14  1  0  0  0  0
  5 15  1  6  0  0  0
  5  4  1  0  0  0  0
  5  6  1  0  0  0  0
  5  1  1  0  0  0  0
  6  7  2  0  0  0  0
  9  2  1  0  0  0  0
 12  3  1  0  0  0  0
 13  4  1  0  0  0  0
 16 17  1  0  0  0  0
 17 18  1  0  0  0  0
 18 19  1  0  0  0  0
 18 27  1  0  0  0  0
 19 30  1  0  0  0  0
 19 20  1  0  0  0  0
 20 22  1  0  0  0  0
 20 31  1  1  0  0  0
 21 20  1  0  0  0  0
 21  6  1  0  0  0  0
 22 23  2  0  0  0  0
 24 16  1  0  0  0  0
 25 16  1  0  0  0  0
 26 16  1  0  0  0  0
 28 18  1  0  0  0  0
 29 19  1  0  0  0  0
 32 21  1  0  0  0  0
 33 43  1  0  0  0  0
 33 34  1  0  0  0  0
 34 44  1  1  0  0  0
 34 36  1  0  0  0  0
 35 34  1  0  0  0  0
 35 45  1  0  0  0  0
 36 46  1  1  0  0  0
 36 38  1  0  0  0  0
 37 22  1  0  0  0  0
 37 36  1  0  0  0  0
 38 40  2  0  0  0  0
 38 39  1  0  0  0  0
 41 33  1  0  0  0  0
 42 33  1  0  0  0  0
 47 37  1  0  0  0  0
M  END
$$$$
