PMW.pdb
 OpenBabel07022419053D

 57 59  0  0  1  0  0  0  0  0999 V2000
    4.5550   -0.3700    2.1070 N   0  0  0  0  0  0  0  0  0  0  0  0
    4.4590   -1.2910    3.2250 C   0  0  0  0  0  0  0  0  0  0  0  0
    4.1470   -2.5930    2.4990 C   0  0  0  0  0  0  0  0  0  0  0  0
    3.0780   -2.1380    1.5180 C   0  0  0  0  0  0  0  0  0  0  0  0
    3.5040   -0.7480    1.1860 C   0  0  1  0  0  0  0  0  0  0  0  0
    2.4510    0.2540    1.2110 C   0  0  0  0  0  0  0  0  0  0  0  0
    2.5720    1.2540    1.9640 O   0  0  0  0  0  0  0  0  0  0  0  0
    5.5060   -0.3690    1.6750 H   0  0  0  0  0  0  0  0  0  0  0  0
    5.3960   -1.3260    3.7930 H   0  0  0  0  0  0  0  0  0  0  0  0
    3.5870   -1.0020    3.8520 H   0  0  0  0  0  0  0  0  0  0  0  0
    5.0570   -2.9520    1.9900 H   0  0  0  0  0  0  0  0  0  0  0  0
    3.7100   -3.3320    3.2010 H   0  0  0  0  0  0  0  0  0  0  0  0
    3.0270   -2.7750    0.6190 H   0  0  0  0  0  0  0  0  0  0  0  0
    2.1170   -2.2160    2.0460 H   0  0  0  0  0  0  0  0  0  0  0  0
    3.9990   -0.7940    0.1710 H   0  0  0  0  0  0  0  0  0  0  0  0
   -0.6260    4.2100    1.4810 C   0  0  0  0  0  0  0  0  0  0  0  0
   -0.6820    4.2530   -0.3040 S   0  0  0  0  0  0  0  0  0  0  0  0
   -1.0760    2.7080   -1.1060 C   0  0  0  0  0  0  0  0  0  0  0  0
   -0.0510    1.6280   -0.9680 C   0  0  0  0  0  0  0  0  0  0  0  0
    0.2060    1.1480    0.4230 C   0  0  2  0  0  0  0  0  0  0  0  0
    1.2850    0.1360    0.4070 N   0  0  0  0  0  0  0  0  0  0  0  0
   -1.0260    0.4710    0.9390 C   0  0  0  0  0  0  0  0  0  0  0  0
   -2.1110    1.0540    1.0620 O   0  0  0  0  0  0  0  0  0  0  0  0
   -1.2730    3.4290    1.9010 H   0  0  0  0  0  0  0  0  0  0  0  0
   -1.0160    5.1980    1.9040 H   0  0  0  0  0  0  0  0  0  0  0  0
    0.4210    4.1870    1.8850 H   0  0  0  0  0  0  0  0  0  0  0  0
   -2.0490    2.3580   -0.7070 H   0  0  0  0  0  0  0  0  0  0  0  0
   -1.1960    2.8660   -2.2350 H   0  0  0  0  0  0  0  0  0  0  0  0
    0.9050    1.9200   -1.4840 H   0  0  0  0  0  0  0  0  0  0  0  0
   -0.4360    0.7660   -1.6080 H   0  0  0  0  0  0  0  0  0  0  0  0
    0.4340    1.9720    1.0820 H   0  0  0  0  0  0  0  0  0  0  0  0
    1.2150   -0.6850   -0.1960 H   0  0  0  0  0  0  0  0  0  0  0  0
   -0.9830   -0.9110    1.3160 N   0  0  0  0  0  0  0  0  0  0  0  0
   -2.1100   -1.6280    1.8170 C   0  0  1  0  0  0  0  0  0  0  0  0
   -2.5070   -2.8440    1.0400 C   0  0  0  0  0  0  0  0  0  0  0  0
   -2.8870   -2.6220   -0.3530 C   0  0  0  0  0  0  0  0  0  0  0  0
   -4.1990   -2.5300   -0.8520 C   0  0  0  0  0  0  0  0  0  0  0  0
   -4.1670   -2.3040   -2.1740 N   0  0  0  0  0  0  0  0  0  0  0  0
   -2.8840   -2.2400   -2.5840 C   0  0  0  0  0  0  0  0  0  0  0  0
   -2.3110   -2.0340   -3.8350 C   0  0  0  0  0  0  0  0  0  0  0  0
   -0.9530   -2.0180   -4.0070 C   0  0  0  0  0  0  0  0  0  0  0  0
   -0.1580   -2.2130   -2.9040 C   0  0  0  0  0  0  0  0  0  0  0  0
   -0.7250   -2.4160   -1.6670 C   0  0  0  0  0  0  0  0  0  0  0  0
   -2.0930   -2.4370   -1.4580 C   0  0  0  0  0  0  0  0  0  0  0  0
   -1.8440   -2.1040    3.2190 C   0  0  0  0  0  0  0  0  0  0  0  0
   -2.6770   -2.7710    3.8770 O   0  0  0  0  0  0  0  0  0  0  0  0
   -0.6350   -1.7880    3.7900 O   0  0  0  0  0  0  0  0  0  0  0  0
   -0.0630   -1.3890    1.2200 H   0  0  0  0  0  0  0  0  0  0  0  0
   -3.0110   -0.9410    1.9150 H   0  0  0  0  0  0  0  0  0  0  0  0
   -1.6600   -3.5790    1.0490 H   0  0  0  0  0  0  0  0  0  0  0  0
   -3.3500   -3.3360    1.6070 H   0  0  0  0  0  0  0  0  0  0  0  0
   -5.0490   -2.6370   -0.2070 H   0  0  0  0  0  0  0  0  0  0  0  0
   -5.0040   -2.1910   -2.8090 H   0  0  0  0  0  0  0  0  0  0  0  0
   -2.9630   -1.8840   -4.6850 H   0  0  0  0  0  0  0  0  0  0  0  0
   -0.4780   -1.8590   -4.9760 H   0  0  0  0  0  0  0  0  0  0  0  0
    0.9300   -2.2090   -2.9900 H   0  0  0  0  0  0  0  0  0  0  0  0
   -0.1150   -2.5810   -0.7870 H   0  0  0  0  0  0  0  0  0  0  0  0
  1  2  1  0  0  0  0
  2  9  1  0  0  0  0
  2 10  1  0  0  0  0
  3 12  1  0  0  0  0
  3  2  1  0  0  0  0
  4 14  1  0  0  0  0
  4  3  1  0  0  0  0
  5 15  1  6  0  0  0
  5  6  1  0  0  0  0
  5  4  1  0  0  0  0
  5  1  1  0  0  0  0
  6  7  2  0  0  0  0
  8  1  1  0  0  0  0
 11  3  1  0  0  0  0
 13  4  1  0  0  0  0
 16 26  1  0  0  0  0
 16 24  1  0  0  0  0
 16 25  1  0  0  0  0
 17 16  1  0  0  0  0
 18 19  1  0  0  0  0
 18 27  1  0  0  0  0
 18 17  1  0  0  0  0
 19 20  1  0  0  0  0
 20 22  1  0  0  0  0
 20 31  1  1  0  0  0
 21 20  1  0  0  0  0
 21  6  1  0  0  0  0
 22 23  2  0  0  0  0
 22 33  1  0  0  0  0
 28 18  1  0  0  0  0
 29 19  1  0  0  0  0
 30 19  1  0  0  0  0
 32 21  1  0  0  0  0
 33 34  1  0  0  0  0
 34 49  1  1  0  0  0
 34 45  1  0  0  0  0
 35 50  1  0  0  0  0
 35 51  1  0  0  0  0
 35 34  1  0  0  0  0
 36 35  1  0  0  0  0
 37 36  2  0  0  0  0
 37 52  1  0  0  0  0
 38 37  1  0  0  0  0
 39 38  1  0  0  0  0
 39 44  1  0  0  0  0
 40 39  2  0  0  0  0
 41 40  1  0  0  0  0
 41 42  2  0  0  0  0
 42 43  1  0  0  0  0
 43 44  2  0  0  0  0
 43 57  1  0  0  0  0
 44 36  1  0  0  0  0
 45 47  2  0  0  0  0
 45 46  1  0  0  0  0
 48 33  1  0  0  0  0
 53 38  1  0  0  0  0
 54 40  1  0  0  0  0
 55 41  1  0  0  0  0
 56 42  1  0  0  0  0
M  END
$$$$
