PMY.pdb
 OpenBabel07022419053D

 54 55  0  0  1  0  0  0  0  0999 V2000
    2.9280   -2.4830    1.0790 N   0  0  0  0  0  0  0  0  0  0  0  0
    3.6160   -3.2060    2.1030 C   0  0  0  0  0  0  0  0  0  0  0  0
    2.7780   -3.1160    3.3620 C   0  0  0  0  0  0  0  0  0  0  0  0
    1.8510   -1.9370    3.1310 C   0  0  0  0  0  0  0  0  0  0  0  0
    1.7510   -1.8840    1.6290 C   0  0  1  0  0  0  0  0  0  0  0  0
    1.5190   -0.5100    1.1140 C   0  0  0  0  0  0  0  0  0  0  0  0
    2.3420   -0.0550    0.2930 O   0  0  0  0  0  0  0  0  0  0  0  0
    3.5250   -1.7730    0.6090 H   0  0  0  0  0  0  0  0  0  0  0  0
    4.6230   -2.7660    2.3500 H   0  0  0  0  0  0  0  0  0  0  0  0
    3.8000   -4.2570    1.7980 H   0  0  0  0  0  0  0  0  0  0  0  0
    3.4140   -2.9520    4.2520 H   0  0  0  0  0  0  0  0  0  0  0  0
    2.1700   -4.0340    3.5040 H   0  0  0  0  0  0  0  0  0  0  0  0
    2.3900   -1.0350    3.4680 H   0  0  0  0  0  0  0  0  0  0  0  0
    0.8980   -2.1170    3.6310 H   0  0  0  0  0  0  0  0  0  0  0  0
    0.8670   -2.5040    1.3220 H   0  0  0  0  0  0  0  0  0  0  0  0
    0.7400    2.7060    4.2660 C   0  0  0  0  0  0  0  0  0  0  0  0
    1.7190    3.6340    3.1120 S   0  0  0  0  0  0  0  0  0  0  0  0
    2.2610    2.7520    1.6380 C   0  0  0  0  0  0  0  0  0  0  0  0
    1.1910    2.4580    0.6540 C   0  0  0  0  0  0  0  0  0  0  0  0
    0.0800    1.5900    1.1340 C   0  0  2  0  0  0  0  0  0  0  0  0
    0.4100    0.2620    1.5310 N   0  0  0  0  0  0  0  0  0  0  0  0
   -1.0440    1.6280    0.1940 C   0  0  0  0  0  0  0  0  0  0  0  0
   -1.4580    2.7310   -0.2460 O   0  0  0  0  0  0  0  0  0  0  0  0
    0.8510    1.5930    4.1660 H   0  0  0  0  0  0  0  0  0  0  0  0
   -0.3360    2.9470    4.3070 H   0  0  0  0  0  0  0  0  0  0  0  0
    1.1270    2.9560    5.3110 H   0  0  0  0  0  0  0  0  0  0  0  0
    2.7990    1.8180    1.9750 H   0  0  0  0  0  0  0  0  0  0  0  0
    3.0750    3.3970    1.1920 H   0  0  0  0  0  0  0  0  0  0  0  0
    1.5810    2.1630   -0.3470 H   0  0  0  0  0  0  0  0  0  0  0  0
    0.6980    3.4600    0.4340 H   0  0  0  0  0  0  0  0  0  0  0  0
   -0.1850    2.1080    2.1310 H   0  0  0  0  0  0  0  0  0  0  0  0
   -0.2760   -0.1890    2.2240 H   0  0  0  0  0  0  0  0  0  0  0  0
   -1.0650   -5.5850   -2.3080 O   0  0  0  0  0  0  0  0  0  0  0  0
   -1.4320   -4.2360   -2.3580 C   0  0  0  0  0  0  0  0  0  0  0  0
   -2.7540   -3.8560   -2.4710 C   0  0  0  0  0  0  0  0  0  0  0  0
   -3.1570   -2.5400   -2.5230 C   0  0  0  0  0  0  0  0  0  0  0  0
   -2.1960   -1.5630   -2.4600 C   0  0  0  0  0  0  0  0  0  0  0  0
   -2.5600   -0.1540   -2.5110 C   0  0  0  0  0  0  0  0  0  0  0  0
   -2.8300    0.4930   -1.1960 C   0  0  2  0  0  0  0  0  0  0  0  0
   -1.7310    0.4760   -0.2790 N   0  0  0  0  0  0  0  0  0  0  0  0
   -4.0300    0.0120   -0.5150 C   0  0  0  0  0  0  0  0  0  0  0  0
   -3.9820   -0.3330    0.6830 O   0  0  0  0  0  0  0  0  0  0  0  0
   -0.8720   -1.9010   -2.3480 C   0  0  0  0  0  0  0  0  0  0  0  0
   -0.4990   -3.2230   -2.2980 C   0  0  0  0  0  0  0  0  0  0  0  0
   -5.2790   -0.0850   -1.1590 O   0  0  0  0  0  0  0  0  0  0  0  0
   -0.3190   -5.8080   -1.6610 H   0  0  0  0  0  0  0  0  0  0  0  0
   -3.5380   -4.6160   -2.5230 H   0  0  0  0  0  0  0  0  0  0  0  0
   -4.2310   -2.2920   -2.6130 H   0  0  0  0  0  0  0  0  0  0  0  0
   -3.4590   -0.0450   -3.1530 H   0  0  0  0  0  0  0  0  0  0  0  0
   -1.7460    0.4290   -3.0100 H   0  0  0  0  0  0  0  0  0  0  0  0
   -3.0140    1.5870   -1.4280 H   0  0  0  0  0  0  0  0  0  0  0  0
   -1.3980   -0.4480    0.0770 H   0  0  0  0  0  0  0  0  0  0  0  0
   -0.0750   -1.1520   -2.2950 H   0  0  0  0  0  0  0  0  0  0  0  0
    0.5520   -3.5130   -2.2090 H   0  0  0  0  0  0  0  0  0  0  0  0
  1  5  1  0  0  0  0
  1  2  1  0  0  0  0
  2  9  1  0  0  0  0
  2  3  1  0  0  0  0
  3 12  1  0  0  0  0
  3 11  1  0  0  0  0
  4  3  1  0  0  0  0
  4 13  1  0  0  0  0
  4 14  1  0  0  0  0
  5 15  1  6  0  0  0
  5  4  1  0  0  0  0
  6 21  1  0  0  0  0
  6  5  1  0  0  0  0
  7  6  2  0  0  0  0
  8  1  1  0  0  0  0
 10  2  1  0  0  0  0
 16 25  1  0  0  0  0
 16 26  1  0  0  0  0
 17 16  1  0  0  0  0
 18 27  1  0  0  0  0
 18 17  1  0  0  0  0
 19 20  1  0  0  0  0
 19 18  1  0  0  0  0
 20 21  1  0  0  0  0
 20 31  1  1  0  0  0
 21 32  1  0  0  0  0
 22 20  1  0  0  0  0
 23 22  2  0  0  0  0
 24 16  1  0  0  0  0
 28 18  1  0  0  0  0
 29 19  1  0  0  0  0
 30 19  1  0  0  0  0
 33 46  1  0  0  0  0
 34 33  1  0  0  0  0
 34 44  1  0  0  0  0
 35 34  2  0  0  0  0
 36 35  1  0  0  0  0
 36 37  2  0  0  0  0
 37 43  1  0  0  0  0
 38 37  1  0  0  0  0
 38 39  1  0  0  0  0
 39 51  1  6  0  0  0
 39 41  1  0  0  0  0
 39 40  1  0  0  0  0
 40 52  1  0  0  0  0
 40 22  1  0  0  0  0
 41 42  1  0  0  0  0
 43 44  2  0  0  0  0
 43 53  1  0  0  0  0
 44 54  1  0  0  0  0
 45 41  2  0  0  0  0
 47 35  1  0  0  0  0
 48 36  1  0  0  0  0
 49 38  1  0  0  0  0
 50 38  1  0  0  0  0
M  END
$$$$
