PNA.pdb
 OpenBabel07022419023D

 40 40  0  0  1  0  0  0  0  0999 V2000
   -1.0030   -3.0900    0.2440 N   0  0  0  0  0  0  0  0  0  0  0  0
   -1.6550   -2.8190   -1.0000 C   0  0  0  0  0  0  0  0  0  0  0  0
   -0.7180   -3.2520   -2.1080 C   0  0  0  0  0  0  0  0  0  0  0  0
    0.3250   -4.0680   -1.3750 C   0  0  0  0  0  0  0  0  0  0  0  0
    0.3740   -3.3530   -0.0230 C   0  0  1  0  0  0  0  0  0  0  0  0
    1.2280   -2.1570   -0.1220 C   0  0  0  0  0  0  0  0  0  0  0  0
    2.4500   -2.3020   -0.3520 O   0  0  0  0  0  0  0  0  0  0  0  0
   -1.1940   -2.3820    0.9590 H   0  0  0  0  0  0  0  0  0  0  0  0
   -1.9430   -1.7630   -1.1550 H   0  0  0  0  0  0  0  0  0  0  0  0
   -2.5750   -3.4730   -1.0280 H   0  0  0  0  0  0  0  0  0  0  0  0
   -0.2990   -2.4060   -2.6650 H   0  0  0  0  0  0  0  0  0  0  0  0
   -1.2540   -3.9010   -2.8040 H   0  0  0  0  0  0  0  0  0  0  0  0
   -0.0480   -5.0920   -1.2290 H   0  0  0  0  0  0  0  0  0  0  0  0
    1.3230   -4.0150   -1.8490 H   0  0  0  0  0  0  0  0  0  0  0  0
    0.8310   -4.0820    0.6820 H   0  0  0  0  0  0  0  0  0  0  0  0
   -1.1130    1.4830   -0.1120 N   0  0  0  0  0  0  0  0  0  0  0  0
   -0.1680    1.7840   -1.1090 C   0  0  0  0  0  0  0  0  0  0  0  0
   -0.5360    2.5840   -2.0360 O   0  0  0  0  0  0  0  0  0  0  0  0
    1.2120    1.2490   -1.1700 C   0  0  0  0  0  0  0  0  0  0  0  0
    1.5500    0.3250   -0.0620 C   0  0  2  0  0  0  0  0  0  0  0  0
    0.7350   -0.8470    0.0300 N   0  0  0  0  0  0  0  0  0  0  0  0
    1.6440    1.0470    1.2470 C   0  0  0  0  0  0  0  0  0  0  0  0
    2.3340    2.0960    1.2900 O   0  0  0  0  0  0  0  0  0  0  0  0
   -1.9650    0.9180   -0.2940 H   0  0  0  0  0  0  0  0  0  0  0  0
   -0.9610    1.8370    0.8510 H   0  0  0  0  0  0  0  0  0  0  0  0
    1.4460    0.8000   -2.1550 H   0  0  0  0  0  0  0  0  0  0  0  0
    1.8920    2.1370   -1.0830 H   0  0  0  0  0  0  0  0  0  0  0  0
    2.6040   -0.0340   -0.2610 H   0  0  0  0  0  0  0  0  0  0  0  0
   -0.2820   -0.7190    0.2220 H   0  0  0  0  0  0  0  0  0  0  0  0
   -0.3070    1.7920    4.1230 C   0  0  0  0  0  0  0  0  0  0  0  0
    1.0690    1.2730    3.6930 C   0  0  2  0  0  0  0  0  0  0  0  0
    0.9920    0.5940    2.4230 N   0  0  0  0  0  0  0  0  0  0  0  0
    1.6150    0.4250    4.7650 C   0  0  0  0  0  0  0  0  0  0  0  0
    1.9820   -0.7620    4.6180 O   0  0  0  0  0  0  0  0  0  0  0  0
    1.7340    0.9780    6.0310 O   0  0  0  0  0  0  0  0  0  0  0  0
   -0.4390    1.7410    5.2120 H   0  0  0  0  0  0  0  0  0  0  0  0
   -1.1120    1.1940    3.6510 H   0  0  0  0  0  0  0  0  0  0  0  0
   -0.4440    2.8350    3.7890 H   0  0  0  0  0  0  0  0  0  0  0  0
    1.7010    2.1660    3.5770 H   0  0  0  0  0  0  0  0  0  0  0  0
    0.4280   -0.2970    2.3140 H   0  0  0  0  0  0  0  0  0  0  0  0
  1  8  1  0  0  0  0
  2  1  1  0  0  0  0
  3  4  1  0  0  0  0
  3  2  1  0  0  0  0
  4 13  1  0  0  0  0
  4  5  1  0  0  0  0
  5  1  1  0  0  0  0
  5 15  1  1  0  0  0
  6  5  1  0  0  0  0
  6 21  1  0  0  0  0
  7  6  2  0  0  0  0
  9  2  1  0  0  0  0
 10  2  1  0  0  0  0
 11  3  1  0  0  0  0
 12  3  1  0  0  0  0
 14  4  1  0  0  0  0
 16 25  1  0  0  0  0
 17 16  1  0  0  0  0
 18 17  2  0  0  0  0
 19 17  1  0  0  0  0
 19 27  1  0  0  0  0
 19 20  1  0  0  0  0
 20 28  1  6  0  0  0
 20 21  1  0  0  0  0
 20 22  1  0  0  0  0
 21 29  1  0  0  0  0
 22 23  2  0  0  0  0
 22 32  1  0  0  0  0
 24 16  1  0  0  0  0
 26 19  1  0  0  0  0
 30 36  1  0  0  0  0
 31 39  1  6  0  0  0
 31 30  1  0  0  0  0
 31 33  1  0  0  0  0
 32 31  1  0  0  0  0
 33 35  1  0  0  0  0
 34 33  2  0  0  0  0
 37 30  1  0  0  0  0
 38 30  1  0  0  0  0
 40 32  1  0  0  0  0
M  END
$$$$
