PNC.pdb
 OpenBabel07022419023D

 41 41  0  0  1  0  0  0  0  0999 V2000
    0.5760   -3.2940    0.4480 N   0  0  0  0  0  0  0  0  0  0  0  0
    0.6110   -4.7630    0.5210 C   0  0  0  0  0  0  0  0  0  0  0  0
    1.5750   -5.0880   -0.6020 C   0  0  0  0  0  0  0  0  0  0  0  0
    2.5950   -3.9590   -0.5930 C   0  0  0  0  0  0  0  0  0  0  0  0
    1.9870   -3.0070    0.3860 C   0  0  1  0  0  0  0  0  0  0  0  0
    2.2910   -1.5950    0.1630 C   0  0  0  0  0  0  0  0  0  0  0  0
    3.4930   -1.2340    0.0860 O   0  0  0  0  0  0  0  0  0  0  0  0
    0.1440   -3.0490   -0.4710 H   0  0  0  0  0  0  0  0  0  0  0  0
    1.0450   -5.0480    1.5020 H   0  0  0  0  0  0  0  0  0  0  0  0
   -0.3910   -5.1990    0.3640 H   0  0  0  0  0  0  0  0  0  0  0  0
    1.0270   -5.1430   -1.5590 H   0  0  0  0  0  0  0  0  0  0  0  0
    2.0540   -6.0700   -0.4270 H   0  0  0  0  0  0  0  0  0  0  0  0
    3.5500   -4.3950   -0.2340 H   0  0  0  0  0  0  0  0  0  0  0  0
    2.7300   -3.5230   -1.6040 H   0  0  0  0  0  0  0  0  0  0  0  0
    2.4010   -3.2870    1.3970 H   0  0  0  0  0  0  0  0  0  0  0  0
   -1.3820    2.1180   -1.3580 N   0  0  0  0  0  0  0  0  0  0  0  0
   -0.4780    1.0410   -1.5450 C   0  0  0  0  0  0  0  0  0  0  0  0
   -0.9460   -0.1090   -1.7200 O   0  0  0  0  0  0  0  0  0  0  0  0
    0.9920    1.2220   -1.5410 C   0  0  0  0  0  0  0  0  0  0  0  0
    1.5840    0.7980   -0.1930 C   0  0  2  0  0  0  0  0  0  0  0  0
    1.2690   -0.6010    0.0280 N   0  0  0  0  0  0  0  0  0  0  0  0
    0.9450    1.6710    0.8220 C   0  0  0  0  0  0  0  0  0  0  0  0
    1.1320    2.9280    0.7530 O   0  0  0  0  0  0  0  0  0  0  0  0
   -2.3770    1.9480   -1.1550 H   0  0  0  0  0  0  0  0  0  0  0  0
   -1.0550    3.1110   -1.4240 H   0  0  0  0  0  0  0  0  0  0  0  0
    1.4170    0.6350   -2.3760 H   0  0  0  0  0  0  0  0  0  0  0  0
    1.2080    2.2850   -1.7510 H   0  0  0  0  0  0  0  0  0  0  0  0
    2.6760    0.9640   -0.2570 H   0  0  0  0  0  0  0  0  0  0  0  0
    0.2900   -0.9520    0.0990 H   0  0  0  0  0  0  0  0  0  0  0  0
    0.1470    1.0910    1.8370 N   0  0  0  0  0  0  0  0  0  0  0  0
   -0.5040    1.8680    2.8530 C   0  0  1  0  0  0  0  0  0  0  0  0
   -2.0120    1.7980    2.7650 C   0  0  0  0  0  0  0  0  0  0  0  0
   -2.6140    0.1000    2.9480 S   0  0  0  0  0  0  0  0  0  0  0  0
   -0.1130    1.4980    4.2240 C   0  0  0  0  0  0  0  0  0  0  0  0
    0.7340    0.5610    4.3900 O   0  0  0  0  0  0  0  0  0  0  0  0
   -0.6700    2.1710    5.2790 O   0  0  0  0  0  0  0  0  0  0  0  0
    0.0340    0.0620    1.8410 H   0  0  0  0  0  0  0  0  0  0  0  0
   -0.2380    2.9470    2.6630 H   0  0  0  0  0  0  0  0  0  0  0  0
   -2.4030    2.2780    1.8610 H   0  0  0  0  0  0  0  0  0  0  0  0
   -2.4080    2.3710    3.6320 H   0  0  0  0  0  0  0  0  0  0  0  0
   -2.4170   -0.6530    1.7750 H   0  0  0  0  0  0  0  0  0  0  0  0
  1  2  1  0  0  0  0
  2  9  1  0  0  0  0
  3  4  1  0  0  0  0
  3 12  1  0  0  0  0
  3  2  1  0  0  0  0
  4 13  1  0  0  0  0
  4  5  1  0  0  0  0
  5  1  1  0  0  0  0
  5 15  1  1  0  0  0
  6  5  1  0  0  0  0
  7  6  2  0  0  0  0
  8  1  1  0  0  0  0
 10  2  1  0  0  0  0
 11  3  1  0  0  0  0
 14  4  1  0  0  0  0
 16 24  1  0  0  0  0
 17 19  1  0  0  0  0
 17 16  1  0  0  0  0
 18 17  2  0  0  0  0
 19 20  1  0  0  0  0
 20 28  1  1  0  0  0
 20 21  1  0  0  0  0
 20 22  1  0  0  0  0
 21 29  1  0  0  0  0
 21  6  1  0  0  0  0
 22 30  1  0  0  0  0
 23 22  2  0  0  0  0
 25 16  1  0  0  0  0
 26 19  1  0  0  0  0
 27 19  1  0  0  0  0
 30 37  1  0  0  0  0
 30 31  1  0  0  0  0
 31 38  1  6  0  0  0
 31 34  1  0  0  0  0
 32 31  1  0  0  0  0
 32 33  1  0  0  0  0
 32 40  1  0  0  0  0
 34 35  2  0  0  0  0
 34 36  1  0  0  0  0
 39 32  1  0  0  0  0
 41 33  1  0  0  0  0
M  END
$$$$
