PND.pdb
 OpenBabel07022419023D

 43 43  0  0  1  0  0  0  0  0999 V2000
   -2.6570   -0.0790    2.7440 N   0  0  0  0  0  0  0  0  0  0  0  0
   -2.6340   -1.2200    3.6040 C   0  0  0  0  0  0  0  0  0  0  0  0
   -1.7750   -0.9360    4.7840 C   0  0  0  0  0  0  0  0  0  0  0  0
   -1.3330    0.4820    4.6340 C   0  0  0  0  0  0  0  0  0  0  0  0
   -1.8180    0.9290    3.2990 C   0  0  1  0  0  0  0  0  0  0  0  0
   -0.6580    1.2310    2.3670 C   0  0  0  0  0  0  0  0  0  0  0  0
    0.1480    2.1160    2.6990 O   0  0  0  0  0  0  0  0  0  0  0  0
   -3.6230    0.2620    2.5380 H   0  0  0  0  0  0  0  0  0  0  0  0
   -3.6910   -1.4830    3.8940 H   0  0  0  0  0  0  0  0  0  0  0  0
   -2.2780   -2.1130    3.0200 H   0  0  0  0  0  0  0  0  0  0  0  0
   -0.9190   -1.6560    4.7990 H   0  0  0  0  0  0  0  0  0  0  0  0
   -2.3290   -1.1070    5.7430 H   0  0  0  0  0  0  0  0  0  0  0  0
   -1.8330    1.0750    5.4450 H   0  0  0  0  0  0  0  0  0  0  0  0
   -0.2300    0.5470    4.7550 H   0  0  0  0  0  0  0  0  0  0  0  0
   -2.3890    1.8750    3.4120 H   0  0  0  0  0  0  0  0  0  0  0  0
   -0.3020    3.3160   -0.0350 N   0  0  0  0  0  0  0  0  0  0  0  0
    1.0130    3.0690    0.4430 C   0  0  0  0  0  0  0  0  0  0  0  0
    1.6710    4.0480    0.8720 O   0  0  0  0  0  0  0  0  0  0  0  0
    1.5250    1.6780    0.4040 C   0  0  0  0  0  0  0  0  0  0  0  0
    0.4440    0.6570    0.1790 C   0  0  2  0  0  0  0  0  0  0  0  0
   -0.5450    0.5030    1.1760 N   0  0  0  0  0  0  0  0  0  0  0  0
    0.9140   -0.5910   -0.4510 C   0  0  0  0  0  0  0  0  0  0  0  0
    0.4830   -1.7260   -0.0770 O   0  0  0  0  0  0  0  0  0  0  0  0
   -0.4470    3.2400   -1.0630 H   0  0  0  0  0  0  0  0  0  0  0  0
   -1.1180    3.5610    0.5520 H   0  0  0  0  0  0  0  0  0  0  0  0
    2.1070    1.4700    1.3310 H   0  0  0  0  0  0  0  0  0  0  0  0
    2.2660    1.6470   -0.4140 H   0  0  0  0  0  0  0  0  0  0  0  0
   -0.1510    1.2150   -0.6790 H   0  0  0  0  0  0  0  0  0  0  0  0
   -1.3060   -0.2720    1.0000 H   0  0  0  0  0  0  0  0  0  0  0  0
    1.8650   -0.6260   -1.5030 N   0  0  0  0  0  0  0  0  0  0  0  0
    2.3280   -1.8850   -2.1140 C   0  0  1  0  0  0  0  0  0  0  0  0
    3.0530   -2.7170   -1.1070 C   0  0  0  0  0  0  0  0  0  0  0  0
    3.5190   -3.9700   -1.7310 C   0  0  0  0  0  0  0  0  0  0  0  0
    2.8700   -5.0360   -1.7760 O   0  0  0  0  0  0  0  0  0  0  0  0
    1.1770   -2.5950   -2.7060 C   0  0  0  0  0  0  0  0  0  0  0  0
    1.2800   -3.6890   -3.2970 O   0  0  0  0  0  0  0  0  0  0  0  0
    4.7880   -4.0210   -2.3380 O   0  0  0  0  0  0  0  0  0  0  0  0
   -0.0980   -2.0200   -2.6050 O   0  0  0  0  0  0  0  0  0  0  0  0
    2.2520    0.2880   -1.8650 H   0  0  0  0  0  0  0  0  0  0  0  0
    3.0620   -1.5990   -2.9070 H   0  0  0  0  0  0  0  0  0  0  0  0
    2.4230   -2.9580   -0.2200 H   0  0  0  0  0  0  0  0  0  0  0  0
    3.9250   -2.1210   -0.7350 H   0  0  0  0  0  0  0  0  0  0  0  0
    5.3030   -4.9030   -2.2510 H   0  0  0  0  0  0  0  0  0  0  0  0
  1  5  1  0  0  0  0
  1  2  1  0  0  0  0
  2  9  1  0  0  0  0
  2  3  1  0  0  0  0
  3 11  1  0  0  0  0
  3 12  1  0  0  0  0
  4 14  1  0  0  0  0
  4  3  1  0  0  0  0
  4 13  1  0  0  0  0
  5 15  1  1  0  0  0
  5  4  1  0  0  0  0
  6  7  2  0  0  0  0
  6  5  1  0  0  0  0
  8  1  1  0  0  0  0
 10  2  1  0  0  0  0
 16 17  1  0  0  0  0
 16 25  1  0  0  0  0
 17 18  2  0  0  0  0
 19 17  1  0  0  0  0
 19 26  1  0  0  0  0
 20 28  1  6  0  0  0
 20 19  1  0  0  0  0
 20 21  1  0  0  0  0
 21  6  1  0  0  0  0
 22 23  2  0  0  0  0
 22 20  1  0  0  0  0
 24 16  1  0  0  0  0
 27 19  1  0  0  0  0
 29 21  1  0  0  0  0
 30 22  1  0  0  0  0
 31 40  1  6  0  0  0
 31 30  1  0  0  0  0
 31 32  1  0  0  0  0
 32 42  1  0  0  0  0
 32 41  1  0  0  0  0
 33 32  1  0  0  0  0
 34 33  2  0  0  0  0
 35 38  1  0  0  0  0
 35 31  1  0  0  0  0
 36 35  2  0  0  0  0
 37 43  1  0  0  0  0
 37 33  1  0  0  0  0
 39 30  1  0  0  0  0
M  END
$$$$
