PNG.pdb
 OpenBabel07022419023D

 37 37  0  0  1  0  0  0  0  0999 V2000
    1.8200   -2.8710    1.3990 N   0  0  0  0  0  0  0  0  0  0  0  0
    1.4920   -4.1310    0.8270 C   0  0  0  0  0  0  0  0  0  0  0  0
    2.1650   -4.2110   -0.5190 C   0  0  0  0  0  0  0  0  0  0  0  0
    3.1290   -3.0550   -0.5710 C   0  0  0  0  0  0  0  0  0  0  0  0
    2.6950   -2.1430    0.5450 C   0  0  1  0  0  0  0  0  0  0  0  0
    2.1060   -0.8760    0.0460 C   0  0  0  0  0  0  0  0  0  0  0  0
    2.8120   -0.1330   -0.7130 O   0  0  0  0  0  0  0  0  0  0  0  0
    2.0780   -2.8760    2.4060 H   0  0  0  0  0  0  0  0  0  0  0  0
    1.7650   -4.9920    1.4810 H   0  0  0  0  0  0  0  0  0  0  0  0
    0.3740   -4.1610    0.6760 H   0  0  0  0  0  0  0  0  0  0  0  0
    2.6650   -5.1900   -0.5820 H   0  0  0  0  0  0  0  0  0  0  0  0
    1.4120   -4.1310   -1.3390 H   0  0  0  0  0  0  0  0  0  0  0  0
    3.1890   -2.5790   -1.5530 H   0  0  0  0  0  0  0  0  0  0  0  0
    4.1520   -3.4800   -0.3510 H   0  0  0  0  0  0  0  0  0  0  0  0
    3.6060   -1.8680    1.1340 H   0  0  0  0  0  0  0  0  0  0  0  0
   -3.3720    0.3230   -0.6100 N   0  0  0  0  0  0  0  0  0  0  0  0
   -2.0150   -0.0910   -0.5830 C   0  0  0  0  0  0  0  0  0  0  0  0
   -1.8170   -1.2170    0.0180 O   0  0  0  0  0  0  0  0  0  0  0  0
   -0.8760    0.6230   -1.1500 C   0  0  0  0  0  0  0  0  0  0  0  0
    0.2760    0.8140   -0.1540 C   0  0  2  0  0  0  0  0  0  0  0  0
    0.8020   -0.4120    0.3480 N   0  0  0  0  0  0  0  0  0  0  0  0
   -0.1750    1.7530    0.9070 C   0  0  0  0  0  0  0  0  0  0  0  0
   -0.6310    2.9060    0.6110 O   0  0  0  0  0  0  0  0  0  0  0  0
   -3.9900    0.0680    0.1940 H   0  0  0  0  0  0  0  0  0  0  0  0
   -3.8040    0.8750   -1.3970 H   0  0  0  0  0  0  0  0  0  0  0  0
   -1.1260    1.6260   -1.5420 H   0  0  0  0  0  0  0  0  0  0  0  0
   -0.4560    0.0320   -1.9970 H   0  0  0  0  0  0  0  0  0  0  0  0
    1.0730    1.3140   -0.7490 H   0  0  0  0  0  0  0  0  0  0  0  0
    0.2400   -1.0510    0.9880 H   0  0  0  0  0  0  0  0  0  0  0  0
   -0.1090    1.3850    2.2720 N   0  0  0  0  0  0  0  0  0  0  0  0
   -0.5740    2.3520    3.2760 C   0  0  0  0  0  0  0  0  0  0  0  0
   -2.0150    2.6700    3.0310 C   0  0  0  0  0  0  0  0  0  0  0  0
   -2.6720    2.1490    2.0780 O   0  0  0  0  0  0  0  0  0  0  0  0
   -2.7300    3.5510    3.8230 O   0  0  0  0  0  0  0  0  0  0  0  0
    0.2630    0.4390    2.5510 H   0  0  0  0  0  0  0  0  0  0  0  0
   -0.5470    1.8380    4.2580 H   0  0  0  0  0  0  0  0  0  0  0  0
    0.0200    3.2620    3.2700 H   0  0  0  0  0  0  0  0  0  0  0  0
  1  8  1  0  0  0  0
  2  1  1  0  0  0  0
  2  9  1  0  0  0  0
  3  2  1  0  0  0  0
  4  3  1  0  0  0  0
  4 14  1  0  0  0  0
  4  5  1  0  0  0  0
  5 15  1  1  0  0  0
  5  1  1  0  0  0  0
  6 21  1  0  0  0  0
  6  5  1  0  0  0  0
  7  6  2  0  0  0  0
 10  2  1  0  0  0  0
 11  3  1  0  0  0  0
 12  3  1  0  0  0  0
 13  4  1  0  0  0  0
 16 17  1  0  0  0  0
 16 24  1  0  0  0  0
 17 18  2  0  0  0  0
 19 17  1  0  0  0  0
 19 20  1  0  0  0  0
 20 28  1  6  0  0  0
 20 21  1  0  0  0  0
 20 22  1  0  0  0  0
 21 29  1  0  0  0  0
 22 30  1  0  0  0  0
 23 22  2  0  0  0  0
 25 16  1  0  0  0  0
 26 19  1  0  0  0  0
 27 19  1  0  0  0  0
 30 35  1  0  0  0  0
 30 31  1  0  0  0  0
 31 36  1  0  0  0  0
 32 31  1  0  0  0  0
 32 34  1  0  0  0  0
 33 32  2  0  0  0  0
 37 31  1  0  0  0  0
M  END
$$$$
