PNH.pdb
 OpenBabel07022419023D

 47 48  0  0  1  0  0  0  0  0999 V2000
    3.5620   -3.2240   -0.3640 N   0  0  0  0  0  0  0  0  0  0  0  0
    2.8040   -4.0190    0.5640 C   0  0  0  0  0  0  0  0  0  0  0  0
    1.3450   -3.8350    0.1890 C   0  0  0  0  0  0  0  0  0  0  0  0
    1.3860   -2.9280   -1.0350 C   0  0  0  0  0  0  0  0  0  0  0  0
    2.6830   -2.1850   -0.8620 C   0  0  1  0  0  0  0  0  0  0  0  0
    2.5870   -1.1240    0.1760 C   0  0  0  0  0  0  0  0  0  0  0  0
    3.2190   -1.2370    1.2640 O   0  0  0  0  0  0  0  0  0  0  0  0
    4.4530   -2.8590    0.0090 H   0  0  0  0  0  0  0  0  0  0  0  0
    3.0570   -5.0840    0.5500 H   0  0  0  0  0  0  0  0  0  0  0  0
    2.9970   -3.6660    1.6110 H   0  0  0  0  0  0  0  0  0  0  0  0
    0.8550   -4.8130   -0.0420 H   0  0  0  0  0  0  0  0  0  0  0  0
    0.8170   -3.3770    1.0270 H   0  0  0  0  0  0  0  0  0  0  0  0
    0.5060   -2.2890   -1.1240 H   0  0  0  0  0  0  0  0  0  0  0  0
    1.5230   -3.6120   -1.9070 H   0  0  0  0  0  0  0  0  0  0  0  0
    3.0910   -1.8050   -1.8160 H   0  0  0  0  0  0  0  0  0  0  0  0
    4.3360    1.4030   -0.0150 N   0  0  0  0  0  0  0  0  0  0  0  0
    3.4920    2.5250    0.0560 C   0  0  0  0  0  0  0  0  0  0  0  0
    3.9120    3.6320   -0.3390 O   0  0  0  0  0  0  0  0  0  0  0  0
    2.1390    2.4060    0.5840 C   0  0  0  0  0  0  0  0  0  0  0  0
    1.7480    1.0240    1.0310 C   0  0  2  0  0  0  0  0  0  0  0  0
    1.8000    0.0430    0.0040 N   0  0  0  0  0  0  0  0  0  0  0  0
    0.3780    1.0670    1.6060 C   0  0  0  0  0  0  0  0  0  0  0  0
    0.1410    1.8750    2.5280 O   0  0  0  0  0  0  0  0  0  0  0  0
    4.4960    0.8830   -0.8980 H   0  0  0  0  0  0  0  0  0  0  0  0
    4.8230    1.0720    0.8390 H   0  0  0  0  0  0  0  0  0  0  0  0
    1.3530    2.7390   -0.1460 H   0  0  0  0  0  0  0  0  0  0  0  0
    2.0430    3.0860    1.4550 H   0  0  0  0  0  0  0  0  0  0  0  0
    2.4230    0.7180    1.8650 H   0  0  0  0  0  0  0  0  0  0  0  0
    1.2650    0.1560   -0.8940 H   0  0  0  0  0  0  0  0  0  0  0  0
   -0.6000    0.1860    1.0800 N   0  0  0  0  0  0  0  0  0  0  0  0
   -1.9660    0.2050    1.6290 C   0  0  1  0  0  0  0  0  0  0  0  0
   -2.9550    0.5660    0.5410 C   0  0  0  0  0  0  0  0  0  0  0  0
   -4.3270    0.5910    1.0610 C   0  0  0  0  0  0  0  0  0  0  0  0
   -5.2490   -0.4310    1.0920 C   0  0  0  0  0  0  0  0  0  0  0  0
   -6.3960    0.0040    1.6360 N   0  0  0  0  0  0  0  0  0  0  0  0
   -6.2170    1.2910    1.9530 C   0  0  0  0  0  0  0  0  0  0  0  0
   -4.9440    1.6540    1.6000 N   0  0  0  0  0  0  0  0  0  0  0  0
   -2.2860   -1.0910    2.2640 C   0  0  0  0  0  0  0  0  0  0  0  0
   -3.3520   -1.3610    2.8400 O   0  0  0  0  0  0  0  0  0  0  0  0
   -1.3140   -2.1110    2.2180 O   0  0  0  0  0  0  0  0  0  0  0  0
   -0.4180   -0.4940    0.3110 H   0  0  0  0  0  0  0  0  0  0  0  0
   -2.0150    0.9730    2.4370 H   0  0  0  0  0  0  0  0  0  0  0  0
   -2.6880    1.5440    0.0870 H   0  0  0  0  0  0  0  0  0  0  0  0
   -2.8810   -0.1750   -0.3070 H   0  0  0  0  0  0  0  0  0  0  0  0
   -5.0590   -1.4420    0.7180 H   0  0  0  0  0  0  0  0  0  0  0  0
   -7.2500   -0.5480    1.7810 H   0  0  0  0  0  0  0  0  0  0  0  0
   -6.9190    1.9770    2.4110 H   0  0  0  0  0  0  0  0  0  0  0  0
  1  8  1  0  0  0  0
  1  2  1  0  0  0  0
  2 10  1  0  0  0  0
  3  2  1  0  0  0  0
  3 12  1  0  0  0  0
  4  5  1  0  0  0  0
  4  3  1  0  0  0  0
  5 15  1  6  0  0  0
  5  1  1  0  0  0  0
  5  6  1  0  0  0  0
  6  7  2  0  0  0  0
  9  2  1  0  0  0  0
 11  3  1  0  0  0  0
 13  4  1  0  0  0  0
 14  4  1  0  0  0  0
 16 17  1  0  0  0  0
 16 25  1  0  0  0  0
 17 19  1  0  0  0  0
 18 17  2  0  0  0  0
 19 20  1  0  0  0  0
 19 27  1  0  0  0  0
 20 22  1  0  0  0  0
 20 28  1  1  0  0  0
 21  6  1  0  0  0  0
 21 20  1  0  0  0  0
 22 23  2  0  0  0  0
 24 16  1  0  0  0  0
 26 19  1  0  0  0  0
 29 21  1  0  0  0  0
 30 22  1  0  0  0  0
 30 31  1  0  0  0  0
 31 38  1  0  0  0  0
 31 42  1  1  0  0  0
 32 33  1  0  0  0  0
 32 31  1  0  0  0  0
 33 34  2  0  0  0  0
 33 37  1  0  0  0  0
 34 35  1  0  0  0  0
 35 46  1  0  0  0  0
 35 36  1  0  0  0  0
 36 47  1  0  0  0  0
 37 36  2  0  0  0  0
 38 39  1  0  0  0  0
 40 38  2  0  0  0  0
 41 30  1  0  0  0  0
 43 32  1  0  0  0  0
 44 32  1  0  0  0  0
 45 34  1  0  0  0  0
M  END
$$$$
