PNI.pdb
 OpenBabel07022419023D

 49 49  0  0  1  0  0  0  0  0999 V2000
   -1.5570   -1.9690    4.3270 N   0  0  0  0  0  0  0  0  0  0  0  0
   -0.7680   -1.5780    5.4860 C   0  0  0  0  0  0  0  0  0  0  0  0
   -1.0010   -0.0880    5.5220 C   0  0  0  0  0  0  0  0  0  0  0  0
   -1.0870    0.3070    4.0710 C   0  0  0  0  0  0  0  0  0  0  0  0
   -1.2190   -0.9960    3.3140 C   0  0  1  0  0  0  0  0  0  0  0  0
    0.0670   -1.3440    2.6330 C   0  0  0  0  0  0  0  0  0  0  0  0
    0.7490   -2.3270    3.0350 O   0  0  0  0  0  0  0  0  0  0  0  0
   -2.5760   -1.9860    4.5370 H   0  0  0  0  0  0  0  0  0  0  0  0
   -1.2310   -2.1120    6.3580 H   0  0  0  0  0  0  0  0  0  0  0  0
    0.2840   -1.8680    5.3380 H   0  0  0  0  0  0  0  0  0  0  0  0
   -0.1670    0.4180    6.0570 H   0  0  0  0  0  0  0  0  0  0  0  0
   -1.9730    0.0550    6.0400 H   0  0  0  0  0  0  0  0  0  0  0  0
   -0.1720    0.8610    3.7530 H   0  0  0  0  0  0  0  0  0  0  0  0
   -2.0000    0.9330    3.9430 H   0  0  0  0  0  0  0  0  0  0  0  0
   -2.0190   -0.9210    2.5880 H   0  0  0  0  0  0  0  0  0  0  0  0
    3.3280   -0.8070    3.0120 N   0  0  0  0  0  0  0  0  0  0  0  0
    3.2130   -1.9630    2.1690 C   0  0  0  0  0  0  0  0  0  0  0  0
    3.6920   -3.0280    2.6280 O   0  0  0  0  0  0  0  0  0  0  0  0
    2.5610   -1.8140    0.8590 C   0  0  0  0  0  0  0  0  0  0  0  0
    1.6460   -0.6100    0.7430 C   0  0  2  0  0  0  0  0  0  0  0  0
    0.4990   -0.5620    1.5490 N   0  0  0  0  0  0  0  0  0  0  0  0
    1.5570   -0.1630   -0.6380 C   0  0  0  0  0  0  0  0  0  0  0  0
    2.6120   -0.1840   -1.3280 O   0  0  0  0  0  0  0  0  0  0  0  0
    3.7250    0.0920    2.7320 H   0  0  0  0  0  0  0  0  0  0  0  0
    2.9640   -0.9370    3.9870 H   0  0  0  0  0  0  0  0  0  0  0  0
    3.3770   -1.6800    0.0940 H   0  0  0  0  0  0  0  0  0  0  0  0
    2.0410   -2.7660    0.6190 H   0  0  0  0  0  0  0  0  0  0  0  0
    2.3590    0.1840    1.2650 H   0  0  0  0  0  0  0  0  0  0  0  0
   -0.2110    0.2370    1.3130 H   0  0  0  0  0  0  0  0  0  0  0  0
   -1.9210   -1.4600   -1.8970 C   0  0  0  0  0  0  0  0  0  0  0  0
   -1.7710   -0.6640   -3.1520 C   0  0  0  0  0  0  0  0  0  0  0  0
   -0.3750   -0.2810   -3.5110 C   0  0  2  0  0  0  0  0  0  0  0  0
    0.4610   -1.5210   -3.7030 C   0  0  0  0  0  0  0  0  0  0  0  0
    0.2660    0.7280   -2.5980 C   0  0  2  0  0  0  0  0  0  0  0  0
    0.3590    0.2800   -1.2170 N   0  0  0  0  0  0  0  0  0  0  0  0
   -0.3480    2.0670   -2.6610 C   0  0  0  0  0  0  0  0  0  0  0  0
   -0.4980    2.6140   -3.7780 O   0  0  0  0  0  0  0  0  0  0  0  0
   -0.7650    2.7380   -1.5260 O   0  0  0  0  0  0  0  0  0  0  0  0
   -2.5020   -0.8580   -1.1660 H   0  0  0  0  0  0  0  0  0  0  0  0
   -0.9610   -1.8570   -1.4840 H   0  0  0  0  0  0  0  0  0  0  0  0
   -2.5470   -2.3950   -2.0440 H   0  0  0  0  0  0  0  0  0  0  0  0
   -2.4590    0.2170   -3.1800 H   0  0  0  0  0  0  0  0  0  0  0  0
   -2.1410   -1.3180   -3.9990 H   0  0  0  0  0  0  0  0  0  0  0  0
   -0.4190    0.2180   -4.5140 H   0  0  0  0  0  0  0  0  0  0  0  0
    1.2640   -1.2730   -4.4320 H   0  0  0  0  0  0  0  0  0  0  0  0
    0.8580   -1.8310   -2.7090 H   0  0  0  0  0  0  0  0  0  0  0  0
   -0.2240   -2.3130   -4.1370 H   0  0  0  0  0  0  0  0  0  0  0  0
    1.3270    0.8380   -2.9890 H   0  0  0  0  0  0  0  0  0  0  0  0
   -0.4930    0.3010   -0.6500 H   0  0  0  0  0  0  0  0  0  0  0  0
  1  8  1  0  0  0  0
  1  2  1  0  0  0  0
  2  3  1  0  0  0  0
  2  9  1  0  0  0  0
  3 12  1  0  0  0  0
  3 11  1  0  0  0  0
  4  3  1  0  0  0  0
  5 15  1  6  0  0  0
  5  4  1  0  0  0  0
  5  1  1  0  0  0  0
  6  7  2  0  0  0  0
  6  5  1  0  0  0  0
 10  2  1  0  0  0  0
 13  4  1  0  0  0  0
 14  4  1  0  0  0  0
 16 25  1  0  0  0  0
 17 18  2  0  0  0  0
 17 16  1  0  0  0  0
 19 17  1  0  0  0  0
 20 19  1  0  0  0  0
 20 28  1  1  0  0  0
 20 21  1  0  0  0  0
 21  6  1  0  0  0  0
 22 20  1  0  0  0  0
 23 22  2  0  0  0  0
 24 16  1  0  0  0  0
 26 19  1  0  0  0  0
 27 19  1  0  0  0  0
 29 21  1  0  0  0  0
 30 40  1  0  0  0  0
 30 39  1  0  0  0  0
 31 30  1  0  0  0  0
 32 44  1  6  0  0  0
 32 31  1  0  0  0  0
 32 34  1  0  0  0  0
 33 32  1  0  0  0  0
 33 46  1  0  0  0  0
 34 48  1  6  0  0  0
 34 35  1  0  0  0  0
 35 49  1  0  0  0  0
 35 22  1  0  0  0  0
 36 34  1  0  0  0  0
 36 38  1  0  0  0  0
 37 36  2  0  0  0  0
 41 30  1  0  0  0  0
 42 31  1  0  0  0  0
 43 31  1  0  0  0  0
 45 33  1  0  0  0  0
 47 33  1  0  0  0  0
M  END
$$$$
