PNK.pdb
 OpenBabel07022419023D

 51 51  0  0  1  0  0  0  0  0999 V2000
    4.3040   -2.5210    3.8150 N   0  0  0  0  0  0  0  0  0  0  0  0
    4.4280   -3.3550    5.0090 C   0  0  0  0  0  0  0  0  0  0  0  0
    3.0450   -3.8240    5.3270 C   0  0  0  0  0  0  0  0  0  0  0  0
    2.1970   -3.2880    4.2080 C   0  0  0  0  0  0  0  0  0  0  0  0
    3.2060   -3.1320    3.0800 C   0  0  1  0  0  0  0  0  0  0  0  0
    2.6960   -2.2460    2.0200 C   0  0  0  0  0  0  0  0  0  0  0  0
    3.1860   -1.0910    1.9370 O   0  0  0  0  0  0  0  0  0  0  0  0
    5.1630   -2.6470    3.2300 H   0  0  0  0  0  0  0  0  0  0  0  0
    5.1420   -4.2010    4.8420 H   0  0  0  0  0  0  0  0  0  0  0  0
    4.7990   -2.7190    5.8330 H   0  0  0  0  0  0  0  0  0  0  0  0
    2.6780   -3.4450    6.3090 H   0  0  0  0  0  0  0  0  0  0  0  0
    2.9310   -4.9480    5.2880 H   0  0  0  0  0  0  0  0  0  0  0  0
    1.7480   -2.3000    4.4420 H   0  0  0  0  0  0  0  0  0  0  0  0
    1.3990   -4.0270    3.9410 H   0  0  0  0  0  0  0  0  0  0  0  0
    3.5010   -4.0950    2.6760 H   0  0  0  0  0  0  0  0  0  0  0  0
    2.2200    0.0450   -2.5250 N   0  0  0  0  0  0  0  0  0  0  0  0
    1.5590   -1.2170   -2.3820 C   0  0  0  0  0  0  0  0  0  0  0  0
    0.7130   -1.5400   -3.2490 O   0  0  0  0  0  0  0  0  0  0  0  0
    1.9070   -2.0450   -1.2370 C   0  0  0  0  0  0  0  0  0  0  0  0
    1.2140   -1.6660    0.0510 C   0  0  2  0  0  0  0  0  0  0  0  0
    1.6900   -2.6090    1.0910 N   0  0  0  0  0  0  0  0  0  0  0  0
   -0.2380   -1.6360    0.0030 C   0  0  0  0  0  0  0  0  0  0  0  0
   -0.9240   -2.4580    0.7110 O   0  0  0  0  0  0  0  0  0  0  0  0
    1.6540    0.8950   -2.5930 H   0  0  0  0  0  0  0  0  0  0  0  0
    3.2500    0.0760   -2.5570 H   0  0  0  0  0  0  0  0  0  0  0  0
    3.0000   -1.9660   -1.0430 H   0  0  0  0  0  0  0  0  0  0  0  0
    1.7460   -3.1140   -1.4980 H   0  0  0  0  0  0  0  0  0  0  0  0
    1.6140   -0.6740    0.3300 H   0  0  0  0  0  0  0  0  0  0  0  0
    1.2910   -3.5770    1.1650 H   0  0  0  0  0  0  0  0  0  0  0  0
   -1.0620   -0.7720   -0.7590 N   0  0  0  0  0  0  0  0  0  0  0  0
   -2.4770   -0.7950   -0.7630 C   0  0  1  0  0  0  0  0  0  0  0  0
   -3.1770    0.3500   -0.1060 C   0  0  0  0  0  0  0  0  0  0  0  0
   -2.8390    1.6820   -0.7350 C   0  0  0  0  0  0  0  0  0  0  0  0
   -3.5810    2.8160   -0.0540 C   0  0  0  0  0  0  0  0  0  0  0  0
   -3.1830    4.1150   -0.7340 C   0  0  0  0  0  0  0  0  0  0  0  0
   -3.9240    5.1760   -0.0670 N   0  0  0  0  0  0  0  0  0  0  0  0
   -2.9900   -0.8890   -2.1450 C   0  0  0  0  0  0  0  0  0  0  0  0
   -2.2840   -0.9430   -3.1800 O   0  0  0  0  0  0  0  0  0  0  0  0
   -4.3810   -0.9230   -2.3760 O   0  0  0  0  0  0  0  0  0  0  0  0
   -0.5700   -0.0630   -1.3590 H   0  0  0  0  0  0  0  0  0  0  0  0
   -2.8010   -1.7150   -0.2000 H   0  0  0  0  0  0  0  0  0  0  0  0
   -3.0880    0.3620    0.9910 H   0  0  0  0  0  0  0  0  0  0  0  0
   -4.2740    0.1950   -0.3040 H   0  0  0  0  0  0  0  0  0  0  0  0
   -1.7600    1.8730   -0.7830 H   0  0  0  0  0  0  0  0  0  0  0  0
   -3.2050    1.6850   -1.8020 H   0  0  0  0  0  0  0  0  0  0  0  0
   -3.3140    2.8120    1.0060 H   0  0  0  0  0  0  0  0  0  0  0  0
   -4.6690    2.7130   -0.1440 H   0  0  0  0  0  0  0  0  0  0  0  0
   -3.3980    4.0960   -1.8180 H   0  0  0  0  0  0  0  0  0  0  0  0
   -2.0750    4.2900   -0.6080 H   0  0  0  0  0  0  0  0  0  0  0  0
   -4.6480    4.8200    0.5780 H   0  0  0  0  0  0  0  0  0  0  0  0
   -3.3160    5.9080    0.3380 H   0  0  0  0  0  0  0  0  0  0  0  0
  1  2  1  0  0  0  0
  2  3  1  0  0  0  0
  2 10  1  0  0  0  0
  3 11  1  0  0  0  0
  4 13  1  0  0  0  0
  4  3  1  0  0  0  0
  5 15  1  6  0  0  0
  5  1  1  0  0  0  0
  5  4  1  0  0  0  0
  6  5  1  0  0  0  0
  7  6  2  0  0  0  0
  8  1  1  0  0  0  0
  9  2  1  0  0  0  0
 12  3  1  0  0  0  0
 14  4  1  0  0  0  0
 16 17  1  0  0  0  0
 17 19  1  0  0  0  0
 18 17  2  0  0  0  0
 19 26  1  0  0  0  0
 19 20  1  0  0  0  0
 20 28  1  1  0  0  0
 20 21  1  0  0  0  0
 21 29  1  0  0  0  0
 21  6  1  0  0  0  0
 22 20  1  0  0  0  0
 22 23  2  0  0  0  0
 24 16  1  0  0  0  0
 25 16  1  0  0  0  0
 27 19  1  0  0  0  0
 30 22  1  0  0  0  0
 31 30  1  0  0  0  0
 31 41  1  1  0  0  0
 31 32  1  0  0  0  0
 32 42  1  0  0  0  0
 33 32  1  0  0  0  0
 33 34  1  0  0  0  0
 34 46  1  0  0  0  0
 35 49  1  0  0  0  0
 35 36  1  0  0  0  0
 35 34  1  0  0  0  0
 36 51  1  0  0  0  0
 36 50  1  0  0  0  0
 37 31  1  0  0  0  0
 38 37  2  0  0  0  0
 39 37  1  0  0  0  0
 40 30  1  0  0  0  0
 43 32  1  0  0  0  0
 44 33  1  0  0  0  0
 45 33  1  0  0  0  0
 47 34  1  0  0  0  0
 48 35  1  0  0  0  0
M  END
$$$$
