PNM.pdb
 OpenBabel07022419023D

 47 47  0  0  1  0  0  0  0  0999 V2000
    2.2060   -1.7700    4.2670 N   0  0  0  0  0  0  0  0  0  0  0  0
    1.1010   -2.1790    5.0780 C   0  0  0  0  0  0  0  0  0  0  0  0
    0.7950   -3.6080    4.7300 C   0  0  0  0  0  0  0  0  0  0  0  0
    1.8480   -3.9990    3.7470 C   0  0  0  0  0  0  0  0  0  0  0  0
    2.3580   -2.6690    3.1740 C   0  0  1  0  0  0  0  0  0  0  0  0
    1.5250   -2.3700    2.0080 C   0  0  0  0  0  0  0  0  0  0  0  0
    1.6320   -3.1180    0.9740 O   0  0  0  0  0  0  0  0  0  0  0  0
    2.0830   -0.7740    3.9770 H   0  0  0  0  0  0  0  0  0  0  0  0
    0.2180   -1.5100    4.9890 H   0  0  0  0  0  0  0  0  0  0  0  0
    1.3870   -2.1270    6.1650 H   0  0  0  0  0  0  0  0  0  0  0  0
    0.8150   -4.2720    5.6380 H   0  0  0  0  0  0  0  0  0  0  0  0
   -0.2350   -3.6750    4.3300 H   0  0  0  0  0  0  0  0  0  0  0  0
    2.6710   -4.6080    4.1630 H   0  0  0  0  0  0  0  0  0  0  0  0
    1.3360   -4.5860    2.9280 H   0  0  0  0  0  0  0  0  0  0  0  0
    3.4380   -2.7480    2.9290 H   0  0  0  0  0  0  0  0  0  0  0  0
   -3.4260    0.0600    1.8250 N   0  0  0  0  0  0  0  0  0  0  0  0
   -2.2610   -0.7060    2.0580 C   0  0  0  0  0  0  0  0  0  0  0  0
   -1.7670   -0.6960    3.2120 O   0  0  0  0  0  0  0  0  0  0  0  0
   -1.6570   -1.4830    0.9660 C   0  0  0  0  0  0  0  0  0  0  0  0
   -0.1900   -1.0930    0.7200 C   0  0  2  0  0  0  0  0  0  0  0  0
    0.5850   -1.3160    1.8910 N   0  0  0  0  0  0  0  0  0  0  0  0
   -0.0550    0.2200    0.0940 C   0  0  0  0  0  0  0  0  0  0  0  0
    0.6840    1.1450    0.5380 O   0  0  0  0  0  0  0  0  0  0  0  0
   -4.2860   -0.3690    1.4520 H   0  0  0  0  0  0  0  0  0  0  0  0
   -3.4100    1.0760    2.0360 H   0  0  0  0  0  0  0  0  0  0  0  0
   -1.7350   -2.5750    1.1510 H   0  0  0  0  0  0  0  0  0  0  0  0
   -2.1980   -1.2840    0.0100 H   0  0  0  0  0  0  0  0  0  0  0  0
    0.1420   -1.8550   -0.0490 H   0  0  0  0  0  0  0  0  0  0  0  0
    0.4820   -0.6800    2.7300 H   0  0  0  0  0  0  0  0  0  0  0  0
    2.6570    1.4690   -2.0200 C   0  0  0  0  0  0  0  0  0  0  0  0
    2.0070    1.4790   -3.6760 S   0  0  0  0  0  0  0  0  0  0  0  0
    0.3740    0.8130   -3.8950 C   0  0  0  0  0  0  0  0  0  0  0  0
   -0.7490    1.5690   -3.2980 C   0  0  0  0  0  0  0  0  0  0  0  0
   -0.7530    1.7470   -1.8150 C   0  0  2  0  0  0  0  0  0  0  0  0
   -0.7900    0.4990   -1.0890 N   0  0  0  0  0  0  0  0  0  0  0  0
   -2.0580    2.4690   -1.5220 C   0  0  0  0  0  0  0  0  0  0  0  0
   -2.3030    3.5890   -2.0080 O   0  0  0  0  0  0  0  0  0  0  0  0
   -2.9860    1.8630   -0.7000 O   0  0  0  0  0  0  0  0  0  0  0  0
    2.3730    2.2950   -1.3730 H   0  0  0  0  0  0  0  0  0  0  0  0
    3.7940    1.4290   -2.0660 H   0  0  0  0  0  0  0  0  0  0  0  0
    2.3950    0.5160   -1.4910 H   0  0  0  0  0  0  0  0  0  0  0  0
    0.2030    0.7350   -5.0150 H   0  0  0  0  0  0  0  0  0  0  0  0
    0.2770   -0.2480   -3.5600 H   0  0  0  0  0  0  0  0  0  0  0  0
   -0.7900    2.5800   -3.7630 H   0  0  0  0  0  0  0  0  0  0  0  0
   -1.7120    1.0580   -3.5680 H   0  0  0  0  0  0  0  0  0  0  0  0
    0.0200    2.4360   -1.4170 H   0  0  0  0  0  0  0  0  0  0  0  0
   -1.4360   -0.2350   -1.5190 H   0  0  0  0  0  0  0  0  0  0  0  0
  1  2  1  0  0  0  0
  2 10  1  0  0  0  0
  3  2  1  0  0  0  0
  3 11  1  0  0  0  0
  4 13  1  0  0  0  0
  4  3  1  0  0  0  0
  5 15  1  6  0  0  0
  5  4  1  0  0  0  0
  5  1  1  0  0  0  0
  6  5  1  0  0  0  0
  7  6  2  0  0  0  0
  8  1  1  0  0  0  0
  9  2  1  0  0  0  0
 12  3  1  0  0  0  0
 14  4  1  0  0  0  0
 16 25  1  0  0  0  0
 16 17  1  0  0  0  0
 17 18  2  0  0  0  0
 19 26  1  0  0  0  0
 19 17  1  0  0  0  0
 20 28  1  6  0  0  0
 20 19  1  0  0  0  0
 20 21  1  0  0  0  0
 21  6  1  0  0  0  0
 21 29  1  0  0  0  0
 22 23  2  0  0  0  0
 22 20  1  0  0  0  0
 24 16  1  0  0  0  0
 27 19  1  0  0  0  0
 30 41  1  0  0  0  0
 30 39  1  0  0  0  0
 31 30  1  0  0  0  0
 32 31  1  0  0  0  0
 32 43  1  0  0  0  0
 32 33  1  0  0  0  0
 33 34  1  0  0  0  0
 34 36  1  0  0  0  0
 34 46  1  1  0  0  0
 34 35  1  0  0  0  0
 35 22  1  0  0  0  0
 36 38  1  0  0  0  0
 37 36  2  0  0  0  0
 40 30  1  0  0  0  0
 42 32  1  0  0  0  0
 44 33  1  0  0  0  0
 45 33  1  0  0  0  0
 47 35  1  0  0  0  0
M  END
$$$$
