PNN.pdb
 OpenBabel07022419023D

 44 44  0  0  1  0  0  0  0  0999 V2000
    1.6870   -2.9350    2.5240 N   0  0  0  0  0  0  0  0  0  0  0  0
    2.0330   -3.6720    3.7190 C   0  0  0  0  0  0  0  0  0  0  0  0
    1.6740   -2.8490    4.9170 C   0  0  0  0  0  0  0  0  0  0  0  0
    1.3330   -1.4830    4.3450 C   0  0  0  0  0  0  0  0  0  0  0  0
    0.8430   -1.8360    2.9600 C   0  0  1  0  0  0  0  0  0  0  0  0
    0.9380   -0.7450    1.9810 C   0  0  0  0  0  0  0  0  0  0  0  0
    1.7220   -0.8580    0.9720 O   0  0  0  0  0  0  0  0  0  0  0  0
    1.2570   -3.5340    1.7960 H   0  0  0  0  0  0  0  0  0  0  0  0
    1.4090   -4.6130    3.7480 H   0  0  0  0  0  0  0  0  0  0  0  0
    3.0710   -4.0070    3.6670 H   0  0  0  0  0  0  0  0  0  0  0  0
    2.5330   -2.8130    5.5970 H   0  0  0  0  0  0  0  0  0  0  0  0
    0.8110   -3.2990    5.4710 H   0  0  0  0  0  0  0  0  0  0  0  0
    2.1670   -0.7830    4.3560 H   0  0  0  0  0  0  0  0  0  0  0  0
    0.5220   -1.0650    4.9680 H   0  0  0  0  0  0  0  0  0  0  0  0
   -0.1770   -2.2440    3.0830 H   0  0  0  0  0  0  0  0  0  0  0  0
    0.6700    4.0810   -0.2370 N   0  0  0  0  0  0  0  0  0  0  0  0
    1.7040    3.1130   -0.1540 C   0  0  0  0  0  0  0  0  0  0  0  0
    2.6400    3.2360   -1.0120 O   0  0  0  0  0  0  0  0  0  0  0  0
    1.7110    2.0310    0.8530 C   0  0  0  0  0  0  0  0  0  0  0  0
    0.3150    1.5420    1.0660 C   0  0  2  0  0  0  0  0  0  0  0  0
    0.2050    0.4810    2.0480 N   0  0  0  0  0  0  0  0  0  0  0  0
   -0.3820    1.1550   -0.2000 C   0  0  0  0  0  0  0  0  0  0  0  0
   -0.3980    1.8850   -1.2030 O   0  0  0  0  0  0  0  0  0  0  0  0
    0.4290    4.5690   -1.1250 H   0  0  0  0  0  0  0  0  0  0  0  0
    0.0930    4.3520    0.5890 H   0  0  0  0  0  0  0  0  0  0  0  0
    2.0260    2.5090    1.8190 H   0  0  0  0  0  0  0  0  0  0  0  0
    2.4400    1.2510    0.5490 H   0  0  0  0  0  0  0  0  0  0  0  0
   -0.2490    2.4170    1.4890 H   0  0  0  0  0  0  0  0  0  0  0  0
   -0.4390    0.5620    2.8840 H   0  0  0  0  0  0  0  0  0  0  0  0
    0.5930   -1.0030   -3.5250 N   0  0  0  0  0  0  0  0  0  0  0  0
    0.2230   -1.7350   -2.3840 C   0  0  0  0  0  0  0  0  0  0  0  0
    1.1160   -2.2820   -1.6960 O   0  0  0  0  0  0  0  0  0  0  0  0
   -1.1790   -1.8600   -1.9960 C   0  0  0  0  0  0  0  0  0  0  0  0
   -1.7430   -0.5730   -1.4240 C   0  0  2  0  0  0  0  0  0  0  0  0
   -1.0540   -0.0960   -0.2630 N   0  0  0  0  0  0  0  0  0  0  0  0
   -3.1880   -0.8130   -1.1980 C   0  0  0  0  0  0  0  0  0  0  0  0
   -3.9260   -1.2960   -2.0760 O   0  0  0  0  0  0  0  0  0  0  0  0
   -3.7080   -0.4780    0.0390 O   0  0  0  0  0  0  0  0  0  0  0  0
    0.9930   -0.0480   -3.4320 H   0  0  0  0  0  0  0  0  0  0  0  0
    0.4740   -1.4010   -4.4720 H   0  0  0  0  0  0  0  0  0  0  0  0
   -1.3650   -2.6620   -1.2360 H   0  0  0  0  0  0  0  0  0  0  0  0
   -1.8070   -2.1190   -2.8750 H   0  0  0  0  0  0  0  0  0  0  0  0
   -1.6160    0.2030   -2.2220 H   0  0  0  0  0  0  0  0  0  0  0  0
   -1.0410   -0.6940    0.5840 H   0  0  0  0  0  0  0  0  0  0  0  0
  1  5  1  0  0  0  0
  1  2  1  0  0  0  0
  2  9  1  0  0  0  0
  2  3  1  0  0  0  0
  3 12  1  0  0  0  0
  3 11  1  0  0  0  0
  4 13  1  0  0  0  0
  4  3  1  0  0  0  0
  4 14  1  0  0  0  0
  5 15  1  1  0  0  0
  5  4  1  0  0  0  0
  6 21  1  0  0  0  0
  6  5  1  0  0  0  0
  7  6  2  0  0  0  0
  8  1  1  0  0  0  0
 10  2  1  0  0  0  0
 16 17  1  0  0  0  0
 16 25  1  0  0  0  0
 17 19  1  0  0  0  0
 18 17  2  0  0  0  0
 19 20  1  0  0  0  0
 19 26  1  0  0  0  0
 20 28  1  1  0  0  0
 20 21  1  0  0  0  0
 21 29  1  0  0  0  0
 22 20  1  0  0  0  0
 23 22  2  0  0  0  0
 24 16  1  0  0  0  0
 27 19  1  0  0  0  0
 30 39  1  0  0  0  0
 30 31  1  0  0  0  0
 31 33  1  0  0  0  0
 31 32  2  0  0  0  0
 33 34  1  0  0  0  0
 33 41  1  0  0  0  0
 34 43  1  6  0  0  0
 34 36  1  0  0  0  0
 34 35  1  0  0  0  0
 35 22  1  0  0  0  0
 35 44  1  0  0  0  0
 36 38  1  0  0  0  0
 37 36  2  0  0  0  0
 40 30  1  0  0  0  0
 42 33  1  0  0  0  0
M  END
$$$$
