PNP.pdb
 OpenBabel07022419023D

 44 45  0  0  1  0  0  0  0  0999 V2000
    0.4060   -2.8980   -0.0190 N   0  0  0  0  0  0  0  0  0  0  0  0
    0.4250   -3.7300   -1.1820 C   0  0  0  0  0  0  0  0  0  0  0  0
    1.6520   -4.6050   -1.0210 C   0  0  0  0  0  0  0  0  0  0  0  0
    2.6320   -3.6030   -0.4020 C   0  0  0  0  0  0  0  0  0  0  0  0
    1.7170   -2.8760    0.5590 C   0  0  1  0  0  0  0  0  0  0  0  0
    2.1340   -1.4670    0.7630 C   0  0  0  0  0  0  0  0  0  0  0  0
    3.2420   -1.2300    1.2550 O   0  0  0  0  0  0  0  0  0  0  0  0
   -0.3470   -3.1170    0.6600 H   0  0  0  0  0  0  0  0  0  0  0  0
   -0.5070   -4.3130   -1.2880 H   0  0  0  0  0  0  0  0  0  0  0  0
    0.5470   -3.0900   -2.0930 H   0  0  0  0  0  0  0  0  0  0  0  0
    2.0520   -4.9440   -1.9890 H   0  0  0  0  0  0  0  0  0  0  0  0
    1.4640   -5.4070   -0.2950 H   0  0  0  0  0  0  0  0  0  0  0  0
    2.9920   -2.8910   -1.1660 H   0  0  0  0  0  0  0  0  0  0  0  0
    3.4210   -4.1730    0.1010 H   0  0  0  0  0  0  0  0  0  0  0  0
    1.7800   -3.4210    1.5340 H   0  0  0  0  0  0  0  0  0  0  0  0
    0.3800    2.5430   -2.6730 N   0  0  0  0  0  0  0  0  0  0  0  0
    0.4340    1.8060   -1.4590 C   0  0  0  0  0  0  0  0  0  0  0  0
   -0.6100    1.1960   -1.1180 O   0  0  0  0  0  0  0  0  0  0  0  0
    1.7020    1.8080   -0.6880 C   0  0  0  0  0  0  0  0  0  0  0  0
    1.6080    0.9900    0.5650 C   0  0  2  0  0  0  0  0  0  0  0  0
    1.3100   -0.3640    0.4140 N   0  0  0  0  0  0  0  0  0  0  0  0
    0.6810    1.6840    1.4670 C   0  0  0  0  0  0  0  0  0  0  0  0
    0.9160    2.9440    1.5790 O   0  0  0  0  0  0  0  0  0  0  0  0
   -0.2850    2.2960   -3.4300 H   0  0  0  0  0  0  0  0  0  0  0  0
    1.0060    3.3690   -2.8680 H   0  0  0  0  0  0  0  0  0  0  0  0
    1.8380    2.8730   -0.3420 H   0  0  0  0  0  0  0  0  0  0  0  0
    2.5850    1.5960   -1.3000 H   0  0  0  0  0  0  0  0  0  0  0  0
    2.6410    1.0620    1.0330 H   0  0  0  0  0  0  0  0  0  0  0  0
    0.3710   -0.6180   -0.0170 H   0  0  0  0  0  0  0  0  0  0  0  0
   -0.3910    1.1660    2.1950 N   0  0  0  0  0  0  0  0  0  0  0  0
   -1.2370    2.0410    3.0390 C   0  0  0  0  0  0  0  0  0  0  0  0
   -1.9390    1.1760    4.0220 C   0  0  0  0  0  0  0  0  0  0  0  0
   -1.2220   -0.1420    3.8940 C   0  0  0  0  0  0  0  0  0  0  0  0
   -0.9640   -0.1380    2.3750 C   0  0  1  0  0  0  0  0  0  0  0  0
   -2.2540   -0.3250    1.7220 C   0  0  0  0  0  0  0  0  0  0  0  0
   -2.7730    0.6060    1.0700 O   0  0  0  0  0  0  0  0  0  0  0  0
   -2.9310   -1.5250    1.8040 O   0  0  0  0  0  0  0  0  0  0  0  0
   -1.9290    2.6330    2.4070 H   0  0  0  0  0  0  0  0  0  0  0  0
   -0.5700    2.7880    3.5320 H   0  0  0  0  0  0  0  0  0  0  0  0
   -3.0110    1.1090    3.7990 H   0  0  0  0  0  0  0  0  0  0  0  0
   -1.7550    1.6070    5.0500 H   0  0  0  0  0  0  0  0  0  0  0  0
   -0.3000   -0.1990    4.4680 H   0  0  0  0  0  0  0  0  0  0  0  0
   -1.9540   -0.9420    4.1260 H   0  0  0  0  0  0  0  0  0  0  0  0
   -0.2580   -0.9740    2.2130 H   0  0  0  0  0  0  0  0  0  0  0  0
  1  5  1  0  0  0  0
  1  8  1  0  0  0  0
  2  3  1  0  0  0  0
  2  1  1  0  0  0  0
  3  4  1  0  0  0  0
  3 12  1  0  0  0  0
  4 14  1  0  0  0  0
  4  5  1  0  0  0  0
  5  6  1  0  0  0  0
  5 15  1  1  0  0  0
  6  7  2  0  0  0  0
  9  2  1  0  0  0  0
 10  2  1  0  0  0  0
 11  3  1  0  0  0  0
 13  4  1  0  0  0  0
 16 17  1  0  0  0  0
 17 18  2  0  0  0  0
 17 19  1  0  0  0  0
 19 26  1  0  0  0  0
 19 20  1  0  0  0  0
 20 28  1  1  0  0  0
 20 22  1  0  0  0  0
 21 20  1  0  0  0  0
 21  6  1  0  0  0  0
 22 23  2  0  0  0  0
 22 30  1  0  0  0  0
 24 16  1  0  0  0  0
 25 16  1  0  0  0  0
 27 19  1  0  0  0  0
 29 21  1  0  0  0  0
 30 34  1  0  0  0  0
 30 31  1  0  0  0  0
 31 39  1  0  0  0  0
 31 32  1  0  0  0  0
 32 41  1  0  0  0  0
 33 32  1  0  0  0  0
 33 43  1  0  0  0  0
 33 42  1  0  0  0  0
 34 44  1  6  0  0  0
 34 33  1  0  0  0  0
 35 37  1  0  0  0  0
 35 34  1  0  0  0  0
 36 35  2  0  0  0  0
 38 31  1  0  0  0  0
 40 32  1  0  0  0  0
M  END
$$$$
