PNT.pdb
 OpenBabel07022419023D

 44 44  0  0  1  0  0  0  0  0999 V2000
   -1.2350   -3.4290   -1.7040 N   0  0  0  0  0  0  0  0  0  0  0  0
   -2.5980   -3.7500   -1.3140 C   0  0  0  0  0  0  0  0  0  0  0  0
   -2.6660   -3.1510    0.0750 C   0  0  0  0  0  0  0  0  0  0  0  0
   -1.9630   -1.8240   -0.1220 C   0  0  0  0  0  0  0  0  0  0  0  0
   -1.0780   -2.0610   -1.3230 C   0  0  1  0  0  0  0  0  0  0  0  0
    0.3110   -1.7170   -0.9440 C   0  0  0  0  0  0  0  0  0  0  0  0
    1.1640   -2.6400   -0.9950 O   0  0  0  0  0  0  0  0  0  0  0  0
   -0.6080   -4.0720   -1.1940 H   0  0  0  0  0  0  0  0  0  0  0  0
   -3.3480   -3.1900   -1.9270 H   0  0  0  0  0  0  0  0  0  0  0  0
   -2.7960   -4.8380   -1.3110 H   0  0  0  0  0  0  0  0  0  0  0  0
   -1.9910   -3.7750    0.7190 H   0  0  0  0  0  0  0  0  0  0  0  0
   -3.6790   -3.0570    0.4680 H   0  0  0  0  0  0  0  0  0  0  0  0
   -2.6710   -0.9890   -0.2800 H   0  0  0  0  0  0  0  0  0  0  0  0
   -1.3930   -1.5990    0.8000 H   0  0  0  0  0  0  0  0  0  0  0  0
   -1.4660   -1.4190   -2.1440 H   0  0  0  0  0  0  0  0  0  0  0  0
    3.1230    1.5920   -3.4250 N   0  0  0  0  0  0  0  0  0  0  0  0
    2.6520    0.6620   -2.4610 C   0  0  0  0  0  0  0  0  0  0  0  0
    2.2610   -0.4540   -2.8760 O   0  0  0  0  0  0  0  0  0  0  0  0
    2.6260    1.0020   -1.0220 C   0  0  0  0  0  0  0  0  0  0  0  0
    2.0990   -0.1020   -0.1660 C   0  0  2  0  0  0  0  0  0  0  0  0
    0.7410   -0.4460   -0.5370 N   0  0  0  0  0  0  0  0  0  0  0  0
    2.1840    0.2430    1.2930 C   0  0  0  0  0  0  0  0  0  0  0  0
    3.2990    0.5620    1.7810 O   0  0  0  0  0  0  0  0  0  0  0  0
    2.5380    1.7480   -4.2780 H   0  0  0  0  0  0  0  0  0  0  0  0
    4.0020    2.1270   -3.3490 H   0  0  0  0  0  0  0  0  0  0  0  0
    1.9520    1.8830   -0.8670 H   0  0  0  0  0  0  0  0  0  0  0  0
    3.6340    1.3410   -0.6980 H   0  0  0  0  0  0  0  0  0  0  0  0
    2.7120   -1.0010   -0.3130 H   0  0  0  0  0  0  0  0  0  0  0  0
    0.0390    0.3250   -0.4910 H   0  0  0  0  0  0  0  0  0  0  0  0
   -1.1800    1.4640    3.7420 C   0  0  0  0  0  0  0  0  0  0  0  0
    0.2930    1.7410    3.9460 C   0  0  1  0  0  0  0  0  0  0  0  0
    0.4720    1.9480    5.3200 O   0  0  0  0  0  0  0  0  0  0  0  0
    1.1540    0.5640    3.5690 C   0  0  2  0  0  0  0  0  0  0  0  0
    1.0710    0.2310    2.1630 N   0  0  0  0  0  0  0  0  0  0  0  0
    0.7590   -0.6260    4.3500 C   0  0  0  0  0  0  0  0  0  0  0  0
    0.7430   -0.6100    5.6100 O   0  0  0  0  0  0  0  0  0  0  0  0
    0.3860   -1.8180    3.7360 O   0  0  0  0  0  0  0  0  0  0  0  0
   -1.4940    0.7520    4.5300 H   0  0  0  0  0  0  0  0  0  0  0  0
   -1.4330    1.1290    2.7380 H   0  0  0  0  0  0  0  0  0  0  0  0
   -1.7180    2.4170    3.9300 H   0  0  0  0  0  0  0  0  0  0  0  0
    0.6260    2.6570    3.4400 H   0  0  0  0  0  0  0  0  0  0  0  0
    1.2880    2.4680    5.5110 H   0  0  0  0  0  0  0  0  0  0  0  0
    2.1950    0.8200    3.8570 H   0  0  0  0  0  0  0  0  0  0  0  0
    0.1470   -0.0330    1.7560 H   0  0  0  0  0  0  0  0  0  0  0  0
  1  5  1  0  0  0  0
  1  2  1  0  0  0  0
  1  8  1  0  0  0  0
  2 10  1  0  0  0  0
  2  3  1  0  0  0  0
  3 12  1  0  0  0  0
  3 11  1  0  0  0  0
  4  3  1  0  0  0  0
  4 14  1  0  0  0  0
  5 15  1  6  0  0  0
  5  6  1  0  0  0  0
  5  4  1  0  0  0  0
  6 21  1  0  0  0  0
  7  6  2  0  0  0  0
  9  2  1  0  0  0  0
 13  4  1  0  0  0  0
 16 25  1  0  0  0  0
 16 17  1  0  0  0  0
 17 19  1  0  0  0  0
 18 17  2  0  0  0  0
 19 26  1  0  0  0  0
 19 27  1  0  0  0  0
 19 20  1  0  0  0  0
 20 28  1  6  0  0  0
 20 22  1  0  0  0  0
 21 29  1  0  0  0  0
 21 20  1  0  0  0  0
 22 23  2  0  0  0  0
 22 34  1  0  0  0  0
 24 16  1  0  0  0  0
 30 40  1  0  0  0  0
 30 31  1  0  0  0  0
 30 38  1  0  0  0  0
 31 41  1  6  0  0  0
 31 32  1  0  0  0  0
 32 42  1  0  0  0  0
 33 43  1  1  0  0  0
 33 31  1  0  0  0  0
 33 35  1  0  0  0  0
 34 33  1  0  0  0  0
 35 36  1  0  0  0  0
 37 35  2  0  0  0  0
 39 30  1  0  0  0  0
 44 34  1  0  0  0  0
M  END
$$$$
