PNY.pdb
 OpenBabel07022419023D

 51 52  0  0  1  0  0  0  0  0999 V2000
    4.3300   -3.1950    1.8150 N   0  0  0  0  0  0  0  0  0  0  0  0
    3.6850   -4.4640    1.6300 C   0  0  0  0  0  0  0  0  0  0  0  0
    3.2710   -4.4640    0.1720 C   0  0  0  0  0  0  0  0  0  0  0  0
    2.8090   -3.0290   -0.0180 C   0  0  0  0  0  0  0  0  0  0  0  0
    3.4760   -2.2810    1.0880 C   0  0  1  0  0  0  0  0  0  0  0  0
    2.5480   -1.5580    1.9800 C   0  0  0  0  0  0  0  0  0  0  0  0
    2.5980   -1.8010    3.2120 O   0  0  0  0  0  0  0  0  0  0  0  0
    4.2880   -2.9560    2.8320 H   0  0  0  0  0  0  0  0  0  0  0  0
    2.7490   -4.4590    2.2410 H   0  0  0  0  0  0  0  0  0  0  0  0
    4.3320   -5.3340    1.8420 H   0  0  0  0  0  0  0  0  0  0  0  0
    2.5040   -5.1960   -0.0760 H   0  0  0  0  0  0  0  0  0  0  0  0
    4.1780   -4.6710   -0.4360 H   0  0  0  0  0  0  0  0  0  0  0  0
    1.7100   -2.9440    0.0580 H   0  0  0  0  0  0  0  0  0  0  0  0
    3.1840   -2.6790   -0.9970 H   0  0  0  0  0  0  0  0  0  0  0  0
    4.1720   -1.5060    0.6510 H   0  0  0  0  0  0  0  0  0  0  0  0
    1.2470    3.7000    1.1890 N   0  0  0  0  0  0  0  0  0  0  0  0
    0.9790    2.3030    1.1930 C   0  0  0  0  0  0  0  0  0  0  0  0
    0.7260    1.7330    0.1110 O   0  0  0  0  0  0  0  0  0  0  0  0
    1.0060    1.5720    2.4560 C   0  0  0  0  0  0  0  0  0  0  0  0
    0.6930    0.1120    2.3690 C   0  0  2  0  0  0  0  0  0  0  0  0
    1.6090   -0.6070    1.5140 N   0  0  0  0  0  0  0  0  0  0  0  0
   -0.7120   -0.2260    2.1450 C   0  0  0  0  0  0  0  0  0  0  0  0
   -1.6510    0.3130    2.7830 O   0  0  0  0  0  0  0  0  0  0  0  0
    1.5620    4.2070    2.0400 H   0  0  0  0  0  0  0  0  0  0  0  0
    1.1350    4.2640    0.3210 H   0  0  0  0  0  0  0  0  0  0  0  0
    0.3920    2.0800    3.2180 H   0  0  0  0  0  0  0  0  0  0  0  0
    2.0630    1.6440    2.8480 H   0  0  0  0  0  0  0  0  0  0  0  0
    0.9350   -0.2820    3.4130 H   0  0  0  0  0  0  0  0  0  0  0  0
    1.5920   -0.4280    0.4850 H   0  0  0  0  0  0  0  0  0  0  0  0
   -2.6100    3.9370   -2.4390 O   0  0  0  0  0  0  0  0  0  0  0  0
   -2.6930    2.6350   -1.9530 C   0  0  0  0  0  0  0  0  0  0  0  0
   -3.8100    2.1660   -1.3090 C   0  0  0  0  0  0  0  0  0  0  0  0
   -3.8560    0.8700   -0.8410 C   0  0  0  0  0  0  0  0  0  0  0  0
   -2.7890   -0.0210   -0.9930 C   0  0  0  0  0  0  0  0  0  0  0  0
   -2.8780   -1.4060   -0.4880 C   0  0  0  0  0  0  0  0  0  0  0  0
   -2.4300   -1.5750    0.9250 C   0  0  2  0  0  0  0  0  0  0  0  0
   -1.0560   -1.2040    1.1720 N   0  0  0  0  0  0  0  0  0  0  0  0
   -2.7030   -2.9750    1.3170 C   0  0  0  0  0  0  0  0  0  0  0  0
   -1.7810   -3.6580    1.7940 O   0  0  0  0  0  0  0  0  0  0  0  0
   -1.6750    0.4650   -1.6410 C   0  0  0  0  0  0  0  0  0  0  0  0
   -1.6390    1.7620   -2.1050 C   0  0  0  0  0  0  0  0  0  0  0  0
   -3.9590   -3.5040    1.1540 O   0  0  0  0  0  0  0  0  0  0  0  0
   -3.4410    4.3910   -2.7950 H   0  0  0  0  0  0  0  0  0  0  0  0
   -4.6530    2.8340   -1.1770 H   0  0  0  0  0  0  0  0  0  0  0  0
   -4.7360    0.4750   -0.3250 H   0  0  0  0  0  0  0  0  0  0  0  0
   -2.2340   -2.1000   -1.1040 H   0  0  0  0  0  0  0  0  0  0  0  0
   -3.9070   -1.7660   -0.6520 H   0  0  0  0  0  0  0  0  0  0  0  0
   -3.0750   -0.9310    1.5640 H   0  0  0  0  0  0  0  0  0  0  0  0
   -0.2870   -1.6560    0.6310 H   0  0  0  0  0  0  0  0  0  0  0  0
   -0.8340   -0.2040   -1.7720 H   0  0  0  0  0  0  0  0  0  0  0  0
   -0.7460    2.1130   -2.6110 H   0  0  0  0  0  0  0  0  0  0  0  0
  1  8  1  0  0  0  0
  2  1  1  0  0  0  0
  2 10  1  0  0  0  0
  2  9  1  0  0  0  0
  3  2  1  0  0  0  0
  4 13  1  0  0  0  0
  4  3  1  0  0  0  0
  4  5  1  0  0  0  0
  5 15  1  6  0  0  0
  5  1  1  0  0  0  0
  5  6  1  0  0  0  0
  6  7  2  0  0  0  0
 11  3  1  0  0  0  0
 12  3  1  0  0  0  0
 14  4  1  0  0  0  0
 16 17  1  0  0  0  0
 16 24  1  0  0  0  0
 17 19  1  0  0  0  0
 18 17  2  0  0  0  0
 19 27  1  0  0  0  0
 19 26  1  0  0  0  0
 20 19  1  0  0  0  0
 20 28  1  1  0  0  0
 21  6  1  0  0  0  0
 21 20  1  0  0  0  0
 22 20  1  0  0  0  0
 22 23  2  0  0  0  0
 25 16  1  0  0  0  0
 29 21  1  0  0  0  0
 30 31  1  0  0  0  0
 31 32  1  0  0  0  0
 32 44  1  0  0  0  0
 32 33  2  0  0  0  0
 33 45  1  0  0  0  0
 34 33  1  0  0  0  0
 34 35  1  0  0  0  0
 35 36  1  0  0  0  0
 36 37  1  0  0  0  0
 36 38  1  0  0  0  0
 36 48  1  1  0  0  0
 37 22  1  0  0  0  0
 38 39  1  0  0  0  0
 40 34  2  0  0  0  0
 41 31  2  0  0  0  0
 41 40  1  0  0  0  0
 42 38  2  0  0  0  0
 43 30  1  0  0  0  0
 46 35  1  0  0  0  0
 47 35  1  0  0  0  0
 49 37  1  0  0  0  0
 50 40  1  0  0  0  0
 51 41  1  0  0  0  0
M  END
$$$$
