PPA.pdb
 OpenBabel07022419053D

 40 41  0  0  1  0  0  0  0  0999 V2000
    1.9850   -2.5920    1.0300 N   0  0  0  0  0  0  0  0  0  0  0  0
    2.5170   -3.6670    0.2090 C   0  0  0  0  0  0  0  0  0  0  0  0
    3.8050   -3.0960   -0.3350 C   0  0  0  0  0  0  0  0  0  0  0  0
    3.4240   -1.6680   -0.6380 C   0  0  0  0  0  0  0  0  0  0  0  0
    2.3900   -1.3660    0.4380 C   0  0  1  0  0  0  0  0  0  0  0  0
    1.3430   -0.5050   -0.1020 C   0  0  0  0  0  0  0  0  0  0  0  0
    1.7560    0.5890   -0.6300 O   0  0  0  0  0  0  0  0  0  0  0  0
    2.4540   -2.6950    1.9660 H   0  0  0  0  0  0  0  0  0  0  0  0
    2.7850   -4.5490    0.8150 H   0  0  0  0  0  0  0  0  0  0  0  0
    1.8360   -3.9550   -0.5930 H   0  0  0  0  0  0  0  0  0  0  0  0
    4.6390   -3.1500    0.3860 H   0  0  0  0  0  0  0  0  0  0  0  0
    4.0460   -3.6630   -1.2640 H   0  0  0  0  0  0  0  0  0  0  0  0
    2.9660   -1.6020   -1.6530 H   0  0  0  0  0  0  0  0  0  0  0  0
    4.3270   -1.0420   -0.5460 H   0  0  0  0  0  0  0  0  0  0  0  0
    2.9560   -0.7270    1.1890 H   0  0  0  0  0  0  0  0  0  0  0  0
   -0.0430   -0.7100   -0.1220 N   0  0  0  0  0  0  0  0  0  0  0  0
   -0.7780   -1.8350    0.3760 C   0  0  0  0  0  0  0  0  0  0  0  0
   -1.9440   -2.0430   -0.5960 C   0  0  0  0  0  0  0  0  0  0  0  0
   -2.2030   -0.6460   -1.0840 C   0  0  0  0  0  0  0  0  0  0  0  0
   -1.0540    0.1950   -0.6500 C   0  0  1  0  0  0  0  0  0  0  0  0
   -1.4230    1.1590    0.4400 C   0  0  0  0  0  0  0  0  0  0  0  0
   -2.3180    2.0220    0.2890 O   0  0  0  0  0  0  0  0  0  0  0  0
   -1.2470   -1.5850    1.3570 H   0  0  0  0  0  0  0  0  0  0  0  0
   -0.2310   -2.7730    0.4700 H   0  0  0  0  0  0  0  0  0  0  0  0
   -2.8450   -2.4250   -0.0720 H   0  0  0  0  0  0  0  0  0  0  0  0
   -1.6650   -2.7320   -1.3990 H   0  0  0  0  0  0  0  0  0  0  0  0
   -2.3410   -0.7070   -2.1830 H   0  0  0  0  0  0  0  0  0  0  0  0
   -3.1690   -0.2700   -0.6480 H   0  0  0  0  0  0  0  0  0  0  0  0
   -0.6590    0.7570   -1.5250 H   0  0  0  0  0  0  0  0  0  0  0  0
   -1.5830    1.2710    3.9910 C   0  0  0  0  0  0  0  0  0  0  0  0
   -1.0880    2.0320    2.7680 C   0  0  2  0  0  0  0  0  0  0  0  0
   -0.7690    1.1350    1.7020 N   0  0  0  0  0  0  0  0  0  0  0  0
   -0.0420    2.9890    3.0940 C   0  0  0  0  0  0  0  0  0  0  0  0
   -0.2220    3.8190    4.0110 O   0  0  0  0  0  0  0  0  0  0  0  0
    1.1600    3.0150    2.4190 O   0  0  0  0  0  0  0  0  0  0  0  0
   -0.9020    1.4400    4.8570 H   0  0  0  0  0  0  0  0  0  0  0  0
   -1.5830    0.1710    3.8070 H   0  0  0  0  0  0  0  0  0  0  0  0
   -2.6260    1.5410    4.2010 H   0  0  0  0  0  0  0  0  0  0  0  0
   -1.9660    2.6500    2.4090 H   0  0  0  0  0  0  0  0  0  0  0  0
   -0.0140    0.4230    1.8640 H   0  0  0  0  0  0  0  0  0  0  0  0
  1  8  1  0  0  0  0
  2  9  1  0  0  0  0
  2  1  1  0  0  0  0
  3  2  1  0  0  0  0
  3 11  1  0  0  0  0
  4 14  1  0  0  0  0
  4  3  1  0  0  0  0
  4  5  1  0  0  0  0
  5  1  1  0  0  0  0
  5 15  1  1  0  0  0
  6  5  1  0  0  0  0
  7  6  2  0  0  0  0
 10  2  1  0  0  0  0
 12  3  1  0  0  0  0
 13  4  1  0  0  0  0
 16  6  1  0  0  0  0
 16 17  1  0  0  0  0
 17 24  1  0  0  0  0
 17 23  1  0  0  0  0
 18 25  1  0  0  0  0
 18 17  1  0  0  0  0
 19 20  1  0  0  0  0
 19 28  1  0  0  0  0
 19 18  1  0  0  0  0
 20 29  1  6  0  0  0
 20 16  1  0  0  0  0
 20 21  1  0  0  0  0
 21 32  1  0  0  0  0
 22 21  2  0  0  0  0
 26 18  1  0  0  0  0
 27 19  1  0  0  0  0
 30 38  1  0  0  0  0
 30 36  1  0  0  0  0
 31 39  1  6  0  0  0
 31 33  1  0  0  0  0
 31 30  1  0  0  0  0
 32 40  1  0  0  0  0
 32 31  1  0  0  0  0
 33 34  1  0  0  0  0
 35 33  2  0  0  0  0
 37 30  1  0  0  0  0
M  END
$$$$
