PPD.pdb
 OpenBabel07022419053D

 43 44  0  0  1  0  0  0  0  0999 V2000
    2.6460   -4.0560    2.5530 N   0  0  0  0  0  0  0  0  0  0  0  0
    1.5670   -4.9410    2.1160 C   0  0  0  0  0  0  0  0  0  0  0  0
    1.7950   -4.9890    0.6370 C   0  0  0  0  0  0  0  0  0  0  0  0
    2.1210   -3.5550    0.2970 C   0  0  0  0  0  0  0  0  0  0  0  0
    2.7070   -3.0040    1.5570 C   0  0  1  0  0  0  0  0  0  0  0  0
    1.8930   -1.8420    1.9760 C   0  0  0  0  0  0  0  0  0  0  0  0
    1.2810   -1.8880    3.0670 O   0  0  0  0  0  0  0  0  0  0  0  0
    3.5450   -4.5610    2.6290 H   0  0  0  0  0  0  0  0  0  0  0  0
    0.5950   -4.4770    2.3200 H   0  0  0  0  0  0  0  0  0  0  0  0
    1.7120   -5.9190    2.6020 H   0  0  0  0  0  0  0  0  0  0  0  0
    0.8640   -5.3300    0.1110 H   0  0  0  0  0  0  0  0  0  0  0  0
    2.6510   -5.6590    0.3900 H   0  0  0  0  0  0  0  0  0  0  0  0
    1.1980   -3.0350   -0.0200 H   0  0  0  0  0  0  0  0  0  0  0  0
    2.8710   -3.5040   -0.5360 H   0  0  0  0  0  0  0  0  0  0  0  0
    3.7760   -2.7230    1.4020 H   0  0  0  0  0  0  0  0  0  0  0  0
    1.7970   -0.6910    1.1700 N   0  0  0  0  0  0  0  0  0  0  0  0
    2.4490   -0.5080   -0.1040 C   0  0  0  0  0  0  0  0  0  0  0  0
    2.8410    0.9490   -0.0680 C   0  0  0  0  0  0  0  0  0  0  0  0
    2.0490    1.5870    1.0270 C   0  0  0  0  0  0  0  0  0  0  0  0
    1.0580    0.5190    1.4170 C   0  0  1  0  0  0  0  0  0  0  0  0
   -0.1350    0.6480    0.5050 C   0  0  0  0  0  0  0  0  0  0  0  0
   -0.4450   -0.2370   -0.3350 O   0  0  0  0  0  0  0  0  0  0  0  0
    1.7420   -0.6470   -0.9530 H   0  0  0  0  0  0  0  0  0  0  0  0
    3.3360   -1.1720   -0.2180 H   0  0  0  0  0  0  0  0  0  0  0  0
    2.5790    1.4450   -1.0160 H   0  0  0  0  0  0  0  0  0  0  0  0
    3.9260    0.9830    0.1520 H   0  0  0  0  0  0  0  0  0  0  0  0
    2.7160    1.7870    1.8980 H   0  0  0  0  0  0  0  0  0  0  0  0
    1.5100    2.5010    0.7030 H   0  0  0  0  0  0  0  0  0  0  0  0
    0.7390    0.6110    2.4780 H   0  0  0  0  0  0  0  0  0  0  0  0
   -0.9720    1.7960    0.5580 N   0  0  0  0  0  0  0  0  0  0  0  0
   -2.1330    2.0040   -0.2710 C   0  0  1  0  0  0  0  0  0  0  0  0
   -3.3360    2.3130    0.5730 C   0  0  0  0  0  0  0  0  0  0  0  0
   -3.5950    1.1910    1.4820 C   0  0  0  0  0  0  0  0  0  0  0  0
   -2.8810    0.1850    1.4860 O   0  0  0  0  0  0  0  0  0  0  0  0
   -1.9700    3.1110   -1.2210 C   0  0  0  0  0  0  0  0  0  0  0  0
   -0.9260    3.7900   -1.2890 O   0  0  0  0  0  0  0  0  0  0  0  0
   -4.6700    1.2380    2.3770 O   0  0  0  0  0  0  0  0  0  0  0  0
   -3.0100    3.4130   -2.0730 O   0  0  0  0  0  0  0  0  0  0  0  0
   -0.7200    2.5360    1.2500 H   0  0  0  0  0  0  0  0  0  0  0  0
   -2.3240    1.0820   -0.8650 H   0  0  0  0  0  0  0  0  0  0  0  0
   -4.1810    2.4960   -0.1360 H   0  0  0  0  0  0  0  0  0  0  0  0
   -3.1240    3.2570    1.1250 H   0  0  0  0  0  0  0  0  0  0  0  0
   -5.0310    0.3480    2.6930 H   0  0  0  0  0  0  0  0  0  0  0  0
  1  8  1  0  0  0  0
  2  9  1  0  0  0  0
  2  1  1  0  0  0  0
  2 10  1  0  0  0  0
  3  2  1  0  0  0  0
  4  3  1  0  0  0  0
  4  5  1  0  0  0  0
  5 15  1  6  0  0  0
  5  6  1  0  0  0  0
  5  1  1  0  0  0  0
  6  7  2  0  0  0  0
 11  3  1  0  0  0  0
 12  3  1  0  0  0  0
 13  4  1  0  0  0  0
 14  4  1  0  0  0  0
 16 20  1  0  0  0  0
 16  6  1  0  0  0  0
 17 18  1  0  0  0  0
 17 16  1  0  0  0  0
 18 26  1  0  0  0  0
 18 19  1  0  0  0  0
 19 20  1  0  0  0  0
 19 27  1  0  0  0  0
 20 29  1  1  0  0  0
 21 30  1  0  0  0  0
 21 20  1  0  0  0  0
 22 21  2  0  0  0  0
 23 17  1  0  0  0  0
 24 17  1  0  0  0  0
 25 18  1  0  0  0  0
 28 19  1  0  0  0  0
 30 39  1  0  0  0  0
 31 40  1  6  0  0  0
 31 30  1  0  0  0  0
 31 32  1  0  0  0  0
 32 42  1  0  0  0  0
 32 33  1  0  0  0  0
 33 34  2  0  0  0  0
 33 37  1  0  0  0  0
 35 31  1  0  0  0  0
 36 35  1  0  0  0  0
 37 43  1  0  0  0  0
 38 35  2  0  0  0  0
 41 32  1  0  0  0  0
M  END
$$$$
