PPE.pdb
 OpenBabel07022419053D

 46 47  0  0  1  0  0  0  0  0999 V2000
    0.9510   -4.2410    0.7740 N   0  0  0  0  0  0  0  0  0  0  0  0
   -0.3750   -4.7940    0.9430 C   0  0  0  0  0  0  0  0  0  0  0  0
   -1.2430   -3.5290    0.8810 C   0  0  0  0  0  0  0  0  0  0  0  0
   -0.6000   -2.8540   -0.3130 C   0  0  0  0  0  0  0  0  0  0  0  0
    0.8560   -3.0790   -0.0770 C   0  0  1  0  0  0  0  0  0  0  0  0
    1.5950   -1.9630    0.5090 C   0  0  0  0  0  0  0  0  0  0  0  0
    2.1790   -2.1520    1.6170 O   0  0  0  0  0  0  0  0  0  0  0  0
    1.2850   -3.9350    1.7140 H   0  0  0  0  0  0  0  0  0  0  0  0
   -0.6910   -5.4580    0.1160 H   0  0  0  0  0  0  0  0  0  0  0  0
   -0.4370   -5.2790    1.9400 H   0  0  0  0  0  0  0  0  0  0  0  0
   -1.0690   -2.9890    1.8250 H   0  0  0  0  0  0  0  0  0  0  0  0
   -2.3110   -3.7810    0.7230 H   0  0  0  0  0  0  0  0  0  0  0  0
   -0.9220   -1.8480   -0.5160 H   0  0  0  0  0  0  0  0  0  0  0  0
   -0.9200   -3.4710   -1.2050 H   0  0  0  0  0  0  0  0  0  0  0  0
    1.3610   -3.3340   -1.0400 H   0  0  0  0  0  0  0  0  0  0  0  0
    1.7260   -0.6580   -0.0620 N   0  0  0  0  0  0  0  0  0  0  0  0
    1.1410   -0.1560   -1.2950 C   0  0  0  0  0  0  0  0  0  0  0  0
    2.3540    0.4920   -1.9430 C   0  0  0  0  0  0  0  0  0  0  0  0
    2.9550    1.2090   -0.7570 C   0  0  0  0  0  0  0  0  0  0  0  0
    2.5150    0.4180    0.4670 C   0  0  1  0  0  0  0  0  0  0  0  0
    1.7460    1.2350    1.4030 C   0  0  0  0  0  0  0  0  0  0  0  0
    2.3120    2.2470    1.9720 O   0  0  0  0  0  0  0  0  0  0  0  0
    0.7260   -0.9570   -1.9420 H   0  0  0  0  0  0  0  0  0  0  0  0
    0.4390    0.6420   -1.0320 H   0  0  0  0  0  0  0  0  0  0  0  0
    2.0480    1.2370   -2.7040 H   0  0  0  0  0  0  0  0  0  0  0  0
    3.0380   -0.2650   -2.3800 H   0  0  0  0  0  0  0  0  0  0  0  0
    4.0580    1.1550   -0.8490 H   0  0  0  0  0  0  0  0  0  0  0  0
    2.5840    2.2660   -0.6940 H   0  0  0  0  0  0  0  0  0  0  0  0
    3.4440    0.0110    0.9890 H   0  0  0  0  0  0  0  0  0  0  0  0
    0.3770    0.9750    1.7310 N   0  0  0  0  0  0  0  0  0  0  0  0
   -0.3130    1.8250    2.6600 C   0  0  1  0  0  0  0  0  0  0  0  0
   -1.5650    2.4660    2.2130 C   0  0  0  0  0  0  0  0  0  0  0  0
   -2.7130    1.6110    1.8520 C   0  0  0  0  0  0  0  0  0  0  0  0
   -2.5320    0.6270    0.7860 C   0  0  0  0  0  0  0  0  0  0  0  0
   -2.6380   -0.5970    1.1090 O   0  0  0  0  0  0  0  0  0  0  0  0
   -0.6720    1.0240    3.8980 C   0  0  0  0  0  0  0  0  0  0  0  0
   -1.2780    1.5300    4.8490 O   0  0  0  0  0  0  0  0  0  0  0  0
   -2.2610    0.9310   -0.5210 O   0  0  0  0  0  0  0  0  0  0  0  0
   -0.3010   -0.3100    3.9460 O   0  0  0  0  0  0  0  0  0  0  0  0
   -0.0860    0.1690    1.2850 H   0  0  0  0  0  0  0  0  0  0  0  0
    0.4300    2.6050    3.0100 H   0  0  0  0  0  0  0  0  0  0  0  0
   -1.3900    3.2250    1.3870 H   0  0  0  0  0  0  0  0  0  0  0  0
   -1.9200    3.1040    3.0910 H   0  0  0  0  0  0  0  0  0  0  0  0
   -3.5550    2.2930    1.4840 H   0  0  0  0  0  0  0  0  0  0  0  0
   -3.1380    1.1120    2.7690 H   0  0  0  0  0  0  0  0  0  0  0  0
   -1.9610    0.2150   -1.1740 H   0  0  0  0  0  0  0  0  0  0  0  0
  1  2  1  0  0  0  0
  1  8  1  0  0  0  0
  2 10  1  0  0  0  0
  3  2  1  0  0  0  0
  3 11  1  0  0  0  0
  4  5  1  0  0  0  0
  4  3  1  0  0  0  0
  5 15  1  6  0  0  0
  5  6  1  0  0  0  0
  5  1  1  0  0  0  0
  6  7  2  0  0  0  0
  9  2  1  0  0  0  0
 12  3  1  0  0  0  0
 13  4  1  0  0  0  0
 14  4  1  0  0  0  0
 16 20  1  0  0  0  0
 16  6  1  0  0  0  0
 17 24  1  0  0  0  0
 17 16  1  0  0  0  0
 18 17  1  0  0  0  0
 18 19  1  0  0  0  0
 19 28  1  0  0  0  0
 19 20  1  0  0  0  0
 20 29  1  1  0  0  0
 20 21  1  0  0  0  0
 21 30  1  0  0  0  0
 21 22  2  0  0  0  0
 23 17  1  0  0  0  0
 25 18  1  0  0  0  0
 26 18  1  0  0  0  0
 27 19  1  0  0  0  0
 30 31  1  0  0  0  0
 31 41  1  1  0  0  0
 31 36  1  0  0  0  0
 32 31  1  0  0  0  0
 32 43  1  0  0  0  0
 33 32  1  0  0  0  0
 33 45  1  0  0  0  0
 34 35  2  0  0  0  0
 34 33  1  0  0  0  0
 36 39  2  0  0  0  0
 36 37  1  0  0  0  0
 38 34  1  0  0  0  0
 40 30  1  0  0  0  0
 42 32  1  0  0  0  0
 44 33  1  0  0  0  0
 46 38  1  0  0  0  0
M  END
$$$$
