PPF.pdb
 OpenBabel07022419053D

 50 52  0  0  1  0  0  0  0  0999 V2000
    2.0220   -1.7210    3.1950 N   0  0  0  0  0  0  0  0  0  0  0  0
    0.9990   -2.5970    3.6760 C   0  0  0  0  0  0  0  0  0  0  0  0
    1.0510   -3.8620    2.8500 C   0  0  0  0  0  0  0  0  0  0  0  0
    1.8800   -3.5240    1.6490 C   0  0  0  0  0  0  0  0  0  0  0  0
    2.6090   -2.2420    2.0180 C   0  0  1  0  0  0  0  0  0  0  0  0
    2.6000   -1.3170    0.8920 C   0  0  0  0  0  0  0  0  0  0  0  0
    3.0910   -1.8000   -0.2010 O   0  0  0  0  0  0  0  0  0  0  0  0
    2.7500   -1.5170    3.9290 H   0  0  0  0  0  0  0  0  0  0  0  0
    1.2460   -2.8530    4.7460 H   0  0  0  0  0  0  0  0  0  0  0  0
   -0.0100   -2.1700    3.6730 H   0  0  0  0  0  0  0  0  0  0  0  0
    1.5590   -4.6820    3.4200 H   0  0  0  0  0  0  0  0  0  0  0  0
    0.0320   -4.1980    2.5510 H   0  0  0  0  0  0  0  0  0  0  0  0
    1.2290   -3.3120    0.7600 H   0  0  0  0  0  0  0  0  0  0  0  0
    2.5780   -4.3160    1.3600 H   0  0  0  0  0  0  0  0  0  0  0  0
    3.6620   -2.5590    2.2270 H   0  0  0  0  0  0  0  0  0  0  0  0
    2.1230    0.0030    0.8850 N   0  0  0  0  0  0  0  0  0  0  0  0
    2.1350    0.8280   -0.3240 C   0  0  0  0  0  0  0  0  0  0  0  0
    1.9720    2.2550    0.1480 C   0  0  0  0  0  0  0  0  0  0  0  0
    2.2370    2.1690    1.6460 C   0  0  0  0  0  0  0  0  0  0  0  0
    1.5720    0.8080    1.8960 C   0  0  1  0  0  0  0  0  0  0  0  0
    0.1290    0.8890    1.9920 C   0  0  0  0  0  0  0  0  0  0  0  0
   -0.3770    1.5950    2.9050 O   0  0  0  0  0  0  0  0  0  0  0  0
    3.1730    0.6810   -0.7510 H   0  0  0  0  0  0  0  0  0  0  0  0
    1.3950    0.5070   -1.0570 H   0  0  0  0  0  0  0  0  0  0  0  0
    2.8300    2.8600   -0.2670 H   0  0  0  0  0  0  0  0  0  0  0  0
    1.0090    2.7000   -0.0950 H   0  0  0  0  0  0  0  0  0  0  0  0
    1.6880    2.9630    2.1800 H   0  0  0  0  0  0  0  0  0  0  0  0
    3.3030    2.1420    1.8750 H   0  0  0  0  0  0  0  0  0  0  0  0
    2.0060    0.5170    2.9030 H   0  0  0  0  0  0  0  0  0  0  0  0
   -0.7520    0.2220    1.1220 N   0  0  0  0  0  0  0  0  0  0  0  0
   -2.1820    0.2840    1.1990 C   0  0  1  0  0  0  0  0  0  0  0  0
   -2.7960    0.8790   -0.0300 C   0  0  0  0  0  0  0  0  0  0  0  0
   -2.5220    0.1650   -1.2760 C   0  0  0  0  0  0  0  0  0  0  0  0
   -3.3240   -0.8520   -1.7310 C   0  0  0  0  0  0  0  0  0  0  0  0
   -3.0680   -1.5180   -2.9010 C   0  0  0  0  0  0  0  0  0  0  0  0
   -1.9690   -1.1550   -3.6450 C   0  0  0  0  0  0  0  0  0  0  0  0
   -1.1440   -0.1470   -3.2280 C   0  0  0  0  0  0  0  0  0  0  0  0
   -1.4240    0.5130   -2.0400 C   0  0  0  0  0  0  0  0  0  0  0  0
   -2.7730   -1.0630    1.5140 C   0  0  0  0  0  0  0  0  0  0  0  0
   -4.0160   -1.2160    1.6240 O   0  0  0  0  0  0  0  0  0  0  0  0
   -1.9760   -2.1770    1.6920 O   0  0  0  0  0  0  0  0  0  0  0  0
   -0.3330   -0.3600    0.3640 H   0  0  0  0  0  0  0  0  0  0  0  0
   -2.5110    0.9390    2.0570 H   0  0  0  0  0  0  0  0  0  0  0  0
   -2.4520    1.9410   -0.0830 H   0  0  0  0  0  0  0  0  0  0  0  0
   -3.8990    0.9390    0.1540 H   0  0  0  0  0  0  0  0  0  0  0  0
   -4.1970   -1.1290   -1.1240 H   0  0  0  0  0  0  0  0  0  0  0  0
   -3.7280   -2.3060   -3.2100 H   0  0  0  0  0  0  0  0  0  0  0  0
   -1.7320   -1.6630   -4.5840 H   0  0  0  0  0  0  0  0  0  0  0  0
   -0.2830    0.1300   -3.8210 H   0  0  0  0  0  0  0  0  0  0  0  0
   -0.7440    1.3040   -1.7530 H   0  0  0  0  0  0  0  0  0  0  0  0
  1  2  1  0  0  0  0
  1  8  1  0  0  0  0
  2  9  1  0  0  0  0
  3 11  1  0  0  0  0
  3  2  1  0  0  0  0
  4  5  1  0  0  0  0
  4  3  1  0  0  0  0
  5 15  1  1  0  0  0
  5  1  1  0  0  0  0
  6  5  1  0  0  0  0
  7  6  2  0  0  0  0
 10  2  1  0  0  0  0
 12  3  1  0  0  0  0
 13  4  1  0  0  0  0
 14  4  1  0  0  0  0
 16  6  1  0  0  0  0
 16 20  1  0  0  0  0
 17 18  1  0  0  0  0
 17 16  1  0  0  0  0
 18 19  1  0  0  0  0
 19 28  1  0  0  0  0
 19 20  1  0  0  0  0
 19 27  1  0  0  0  0
 20 21  1  0  0  0  0
 20 29  1  1  0  0  0
 21 22  2  0  0  0  0
 23 17  1  0  0  0  0
 24 17  1  0  0  0  0
 25 18  1  0  0  0  0
 26 18  1  0  0  0  0
 30 31  1  0  0  0  0
 30 21  1  0  0  0  0
 31 39  1  0  0  0  0
 31 43  1  1  0  0  0
 32 45  1  0  0  0  0
 32 31  1  0  0  0  0
 33 32  1  0  0  0  0
 34 33  1  0  0  0  0
 34 46  1  0  0  0  0
 35 34  2  0  0  0  0
 36 37  2  0  0  0  0
 36 35  1  0  0  0  0
 37 38  1  0  0  0  0
 38 50  1  0  0  0  0
 38 33  2  0  0  0  0
 39 40  2  0  0  0  0
 39 41  1  0  0  0  0
 42 30  1  0  0  0  0
 44 32  1  0  0  0  0
 47 35  1  0  0  0  0
 48 36  1  0  0  0  0
 49 37  1  0  0  0  0
M  END
$$$$
