PPG.pdb
 OpenBabel07022419053D

 37 38  0  0  1  0  0  0  0  0999 V2000
   -1.2100   -2.6200   -1.9140 N   0  0  0  0  0  0  0  0  0  0  0  0
   -0.8690   -3.7140   -1.0060 C   0  0  0  0  0  0  0  0  0  0  0  0
   -1.7910   -3.4740    0.1460 C   0  0  0  0  0  0  0  0  0  0  0  0
   -1.9490   -1.9880    0.1830 C   0  0  0  0  0  0  0  0  0  0  0  0
   -1.3380   -1.4490   -1.0730 C   0  0  1  0  0  0  0  0  0  0  0  0
   -0.0540   -0.7560   -0.8690 C   0  0  0  0  0  0  0  0  0  0  0  0
    0.9710   -1.1940   -1.4300 O   0  0  0  0  0  0  0  0  0  0  0  0
   -2.1620   -2.8330   -2.2860 H   0  0  0  0  0  0  0  0  0  0  0  0
   -1.0450   -4.6650   -1.5300 H   0  0  0  0  0  0  0  0  0  0  0  0
    0.2010   -3.6840   -0.7240 H   0  0  0  0  0  0  0  0  0  0  0  0
   -1.3780   -3.8300    1.1230 H   0  0  0  0  0  0  0  0  0  0  0  0
   -2.7500   -4.0260    0.0140 H   0  0  0  0  0  0  0  0  0  0  0  0
   -1.3730   -1.5360    1.0380 H   0  0  0  0  0  0  0  0  0  0  0  0
   -2.9950   -1.6430    0.3130 H   0  0  0  0  0  0  0  0  0  0  0  0
   -2.0760   -0.7730   -1.5990 H   0  0  0  0  0  0  0  0  0  0  0  0
    0.0620    0.3890   -0.0570 N   0  0  0  0  0  0  0  0  0  0  0  0
   -1.0700    0.9800    0.6470 C   0  0  0  0  0  0  0  0  0  0  0  0
   -0.8590    2.4730    0.3500 C   0  0  0  0  0  0  0  0  0  0  0  0
    0.6280    2.6170    0.1170 C   0  0  0  0  0  0  0  0  0  0  0  0
    1.1310    1.2290    0.3150 C   0  0  1  0  0  0  0  0  0  0  0  0
    1.7890    0.9700    1.5860 C   0  0  0  0  0  0  0  0  0  0  0  0
    2.6880    1.7630    1.9530 O   0  0  0  0  0  0  0  0  0  0  0  0
   -1.0520    0.8010    1.7340 H   0  0  0  0  0  0  0  0  0  0  0  0
   -2.0170    0.6240    0.2190 H   0  0  0  0  0  0  0  0  0  0  0  0
   -1.2370    3.1080    1.1740 H   0  0  0  0  0  0  0  0  0  0  0  0
   -1.3700    2.7100   -0.6030 H   0  0  0  0  0  0  0  0  0  0  0  0
    1.0810    3.3460    0.8290 H   0  0  0  0  0  0  0  0  0  0  0  0
    0.8550    2.9690   -0.9100 H   0  0  0  0  0  0  0  0  0  0  0  0
    1.9390    1.0780   -0.4720 H   0  0  0  0  0  0  0  0  0  0  0  0
    1.4600   -0.1190    2.4070 N   0  0  0  0  0  0  0  0  0  0  0  0
    2.0770   -0.4150    3.6760 C   0  0  0  0  0  0  0  0  0  0  0  0
    3.5140   -0.6290    3.4660 C   0  0  0  0  0  0  0  0  0  0  0  0
    4.2440   -0.8960    4.4380 O   0  0  0  0  0  0  0  0  0  0  0  0
    4.0570   -0.5380    2.2130 O   0  0  0  0  0  0  0  0  0  0  0  0
    0.7110   -0.7500    2.0430 H   0  0  0  0  0  0  0  0  0  0  0  0
    1.9380    0.4110    4.4080 H   0  0  0  0  0  0  0  0  0  0  0  0
    1.6590   -1.3520    4.1180 H   0  0  0  0  0  0  0  0  0  0  0  0
  1  5  1  0  0  0  0
  1  2  1  0  0  0  0
  2 10  1  0  0  0  0
  2  3  1  0  0  0  0
  3  4  1  0  0  0  0
  3 11  1  0  0  0  0
  4 14  1  0  0  0  0
  4 13  1  0  0  0  0
  5 15  1  6  0  0  0
  5  6  1  0  0  0  0
  5  4  1  0  0  0  0
  6 16  1  0  0  0  0
  7  6  2  0  0  0  0
  8  1  1  0  0  0  0
  9  2  1  0  0  0  0
 12  3  1  0  0  0  0
 16 20  1  0  0  0  0
 16 17  1  0  0  0  0
 17 23  1  0  0  0  0
 18 17  1  0  0  0  0
 18 25  1  0  0  0  0
 19 20  1  0  0  0  0
 19 18  1  0  0  0  0
 19 27  1  0  0  0  0
 20 29  1  6  0  0  0
 20 21  1  0  0  0  0
 21 22  2  0  0  0  0
 21 30  1  0  0  0  0
 24 17  1  0  0  0  0
 26 18  1  0  0  0  0
 28 19  1  0  0  0  0
 30 31  1  0  0  0  0
 31 37  1  0  0  0  0
 31 36  1  0  0  0  0
 32 31  1  0  0  0  0
 32 33  1  0  0  0  0
 34 32  2  0  0  0  0
 35 30  1  0  0  0  0
M  END
$$$$
