PPI.pdb
 OpenBabel07022419053D

 49 50  0  0  1  0  0  0  0  0999 V2000
    1.8440   -3.9580   -0.1430 N   0  0  0  0  0  0  0  0  0  0  0  0
    1.7980   -4.6660    1.1230 C   0  0  0  0  0  0  0  0  0  0  0  0
    2.9490   -3.9560    1.8480 C   0  0  0  0  0  0  0  0  0  0  0  0
    2.8680   -2.5160    1.3440 C   0  0  0  0  0  0  0  0  0  0  0  0
    1.7870   -2.5730    0.3060 C   0  0  1  0  0  0  0  0  0  0  0  0
    1.9720   -1.6310   -0.8180 C   0  0  0  0  0  0  0  0  0  0  0  0
    2.1680   -2.1560   -1.9530 O   0  0  0  0  0  0  0  0  0  0  0  0
    2.7730   -4.1590   -0.5930 H   0  0  0  0  0  0  0  0  0  0  0  0
    0.8840   -4.3870    1.6870 H   0  0  0  0  0  0  0  0  0  0  0  0
    1.9700   -5.7370    1.0390 H   0  0  0  0  0  0  0  0  0  0  0  0
    3.9000   -4.3730    1.4820 H   0  0  0  0  0  0  0  0  0  0  0  0
    2.8300   -4.0180    2.9450 H   0  0  0  0  0  0  0  0  0  0  0  0
    2.4850   -1.8890    2.1940 H   0  0  0  0  0  0  0  0  0  0  0  0
    3.8290   -2.1560    0.9600 H   0  0  0  0  0  0  0  0  0  0  0  0
    0.8130   -2.4560    0.8100 H   0  0  0  0  0  0  0  0  0  0  0  0
    1.9460   -0.2190   -0.7170 N   0  0  0  0  0  0  0  0  0  0  0  0
    2.1330    0.6750   -1.8690 C   0  0  0  0  0  0  0  0  0  0  0  0
    2.8530    1.8910   -1.3020 C   0  0  0  0  0  0  0  0  0  0  0  0
    2.2910    2.0070    0.0770 C   0  0  0  0  0  0  0  0  0  0  0  0
    1.7480    0.6410    0.4120 C   0  0  1  0  0  0  0  0  0  0  0  0
    0.2800    0.7120    0.7250 C   0  0  0  0  0  0  0  0  0  0  0  0
   -0.1460    1.3990    1.6830 O   0  0  0  0  0  0  0  0  0  0  0  0
    2.7920    0.2370   -2.6290 H   0  0  0  0  0  0  0  0  0  0  0  0
    1.1840    0.9400   -2.3450 H   0  0  0  0  0  0  0  0  0  0  0  0
    2.6740    2.7900   -1.9170 H   0  0  0  0  0  0  0  0  0  0  0  0
    3.9490    1.7210   -1.2540 H   0  0  0  0  0  0  0  0  0  0  0  0
    1.4350    2.7270    0.0640 H   0  0  0  0  0  0  0  0  0  0  0  0
    3.0090    2.3860    0.8260 H   0  0  0  0  0  0  0  0  0  0  0  0
    2.3420    0.2760    1.2550 H   0  0  0  0  0  0  0  0  0  0  0  0
   -2.9830    0.3390    3.7640 C   0  0  0  0  0  0  0  0  0  0  0  0
   -2.3050   -0.3860    2.5880 C   0  0  0  0  0  0  0  0  0  0  0  0
   -2.6820    0.3680    1.3580 C   0  0  2  0  0  0  0  0  0  0  0  0
   -4.1900    0.3040    1.2600 C   0  0  0  0  0  0  0  0  0  0  0  0
   -2.0680   -0.0800    0.0830 C   0  0  2  0  0  0  0  0  0  0  0  0
   -0.6570    0.0080   -0.0500 N   0  0  0  0  0  0  0  0  0  0  0  0
   -2.7820    0.4360   -1.0790 C   0  0  0  0  0  0  0  0  0  0  0  0
   -4.0230    0.4250   -1.1940 O   0  0  0  0  0  0  0  0  0  0  0  0
   -2.0580    0.9890   -2.1560 O   0  0  0  0  0  0  0  0  0  0  0  0
   -3.2790    1.3690    3.4790 H   0  0  0  0  0  0  0  0  0  0  0  0
   -2.2550    0.4660    4.6100 H   0  0  0  0  0  0  0  0  0  0  0  0
   -3.8180   -0.2490    4.1660 H   0  0  0  0  0  0  0  0  0  0  0  0
   -1.2860   -0.5430    2.8400 H   0  0  0  0  0  0  0  0  0  0  0  0
   -2.7670   -1.4290    2.5130 H   0  0  0  0  0  0  0  0  0  0  0  0
   -2.4650    1.4590    1.5320 H   0  0  0  0  0  0  0  0  0  0  0  0
   -4.6520    1.2180    0.8480 H   0  0  0  0  0  0  0  0  0  0  0  0
   -4.5020   -0.6360    0.7710 H   0  0  0  0  0  0  0  0  0  0  0  0
   -4.6280    0.2030    2.3110 H   0  0  0  0  0  0  0  0  0  0  0  0
   -2.2700   -1.2310    0.1250 H   0  0  0  0  0  0  0  0  0  0  0  0
   -0.2360   -0.5480   -0.8690 H   0  0  0  0  0  0  0  0  0  0  0  0
  1  5  1  0  0  0  0
  1  2  1  0  0  0  0
  2  9  1  0  0  0  0
  2  3  1  0  0  0  0
  3 12  1  0  0  0  0
  4  3  1  0  0  0  0
  4 13  1  0  0  0  0
  5 15  1  1  0  0  0
  5  4  1  0  0  0  0
  6 16  1  0  0  0  0
  6  5  1  0  0  0  0
  7  6  2  0  0  0  0
  8  1  1  0  0  0  0
 10  2  1  0  0  0  0
 11  3  1  0  0  0  0
 14  4  1  0  0  0  0
 16 20  1  0  0  0  0
 17 18  1  0  0  0  0
 17 16  1  0  0  0  0
 18 26  1  0  0  0  0
 18 19  1  0  0  0  0
 19 20  1  0  0  0  0
 19 28  1  0  0  0  0
 20 21  1  0  0  0  0
 20 29  1  1  0  0  0
 21 22  2  0  0  0  0
 23 17  1  0  0  0  0
 24 17  1  0  0  0  0
 25 18  1  0  0  0  0
 27 19  1  0  0  0  0
 30 41  1  0  0  0  0
 30 40  1  0  0  0  0
 31 42  1  0  0  0  0
 31 30  1  0  0  0  0
 32 44  1  1  0  0  0
 32 31  1  0  0  0  0
 33 32  1  0  0  0  0
 33 47  1  0  0  0  0
 34 48  1  6  0  0  0
 34 32  1  0  0  0  0
 35 34  1  0  0  0  0
 35 21  1  0  0  0  0
 36 34  1  0  0  0  0
 37 36  1  0  0  0  0
 38 36  2  0  0  0  0
 39 30  1  0  0  0  0
 43 31  1  0  0  0  0
 45 33  1  0  0  0  0
 46 33  1  0  0  0  0
 49 35  1  0  0  0  0
M  END
$$$$
