PPK.pdb
 OpenBabel07022419053D

 51 52  0  0  1  0  0  0  0  0999 V2000
   -0.0350   -0.7250    4.9160 N   0  0  0  0  0  0  0  0  0  0  0  0
   -0.9830   -1.8000    5.1440 C   0  0  0  0  0  0  0  0  0  0  0  0
   -1.7170   -1.8150    3.8180 C   0  0  0  0  0  0  0  0  0  0  0  0
   -0.5390   -1.7640    2.8420 C   0  0  0  0  0  0  0  0  0  0  0  0
    0.5490   -1.0820    3.6340 C   0  0  1  0  0  0  0  0  0  0  0  0
    1.1350    0.0780    2.9490 C   0  0  0  0  0  0  0  0  0  0  0  0
    1.0650    1.2100    3.4580 O   0  0  0  0  0  0  0  0  0  0  0  0
   -0.5980    0.1700    4.8350 H   0  0  0  0  0  0  0  0  0  0  0  0
   -0.4380   -2.7530    5.3220 H   0  0  0  0  0  0  0  0  0  0  0  0
   -1.6640   -1.5550    5.9860 H   0  0  0  0  0  0  0  0  0  0  0  0
   -2.3300   -0.9140    3.7390 H   0  0  0  0  0  0  0  0  0  0  0  0
   -2.3010   -2.7520    3.6880 H   0  0  0  0  0  0  0  0  0  0  0  0
   -0.8290   -1.1840    1.9450 H   0  0  0  0  0  0  0  0  0  0  0  0
   -0.3210   -2.8310    2.6160 H   0  0  0  0  0  0  0  0  0  0  0  0
    1.3260   -1.8670    3.8460 H   0  0  0  0  0  0  0  0  0  0  0  0
    1.7840   -0.0900    1.7030 N   0  0  0  0  0  0  0  0  0  0  0  0
    1.9430   -1.3460    0.9960 C   0  0  0  0  0  0  0  0  0  0  0  0
    3.4350   -1.2410    0.6420 C   0  0  0  0  0  0  0  0  0  0  0  0
    3.6510    0.2160    0.3590 C   0  0  0  0  0  0  0  0  0  0  0  0
    2.4220    0.9100    0.8740 C   0  0  1  0  0  0  0  0  0  0  0  0
    1.5910    1.3570   -0.2670 C   0  0  0  0  0  0  0  0  0  0  0  0
    2.0700    2.1170   -1.1760 O   0  0  0  0  0  0  0  0  0  0  0  0
    1.7580   -2.2300    1.6290 H   0  0  0  0  0  0  0  0  0  0  0  0
    1.3750   -1.3370    0.0480 H   0  0  0  0  0  0  0  0  0  0  0  0
    3.6850   -1.8960   -0.1960 H   0  0  0  0  0  0  0  0  0  0  0  0
    4.0470   -1.5680    1.5250 H   0  0  0  0  0  0  0  0  0  0  0  0
    4.5280    0.5790    0.9650 H   0  0  0  0  0  0  0  0  0  0  0  0
    3.8150    0.4090   -0.7230 H   0  0  0  0  0  0  0  0  0  0  0  0
    2.7110    1.8040    1.5100 H   0  0  0  0  0  0  0  0  0  0  0  0
    0.2070    0.9980   -0.4590 N   0  0  0  0  0  0  0  0  0  0  0  0
   -0.5380    1.4790   -1.5920 C   0  0  1  0  0  0  0  0  0  0  0  0
   -0.7440    0.4820   -2.6520 C   0  0  0  0  0  0  0  0  0  0  0  0
   -1.4810   -0.7600   -2.4470 C   0  0  0  0  0  0  0  0  0  0  0  0
   -1.0160   -1.7690   -1.4680 C   0  0  0  0  0  0  0  0  0  0  0  0
   -2.0060   -2.9610   -1.5610 C   0  0  0  0  0  0  0  0  0  0  0  0
   -1.6250   -3.9900   -0.6370 N   0  0  0  0  0  0  0  0  0  0  0  0
   -1.7680    2.1880   -1.1820 C   0  0  0  0  0  0  0  0  0  0  0  0
   -2.0370    2.2990    0.0210 O   0  0  0  0  0  0  0  0  0  0  0  0
   -2.5990    2.7160   -2.1330 O   0  0  0  0  0  0  0  0  0  0  0  0
   -0.1960    0.4140    0.2780 H   0  0  0  0  0  0  0  0  0  0  0  0
    0.0840    2.3130   -2.1080 H   0  0  0  0  0  0  0  0  0  0  0  0
   -1.1940    0.9710   -3.5940 H   0  0  0  0  0  0  0  0  0  0  0  0
    0.2850    0.1850   -3.0820 H   0  0  0  0  0  0  0  0  0  0  0  0
   -2.5990   -0.5630   -2.3290 H   0  0  0  0  0  0  0  0  0  0  0  0
   -1.4790   -1.3020   -3.4590 H   0  0  0  0  0  0  0  0  0  0  0  0
   -0.0460   -2.2020   -1.7720 H   0  0  0  0  0  0  0  0  0  0  0  0
   -1.0670   -1.4930   -0.4150 H   0  0  0  0  0  0  0  0  0  0  0  0
   -3.0420   -2.6080   -1.3800 H   0  0  0  0  0  0  0  0  0  0  0  0
   -1.9860   -3.3930   -2.5830 H   0  0  0  0  0  0  0  0  0  0  0  0
   -2.4290   -4.5660   -0.3100 H   0  0  0  0  0  0  0  0  0  0  0  0
   -1.0350   -3.6450    0.1510 H   0  0  0  0  0  0  0  0  0  0  0  0
  1  2  1  0  0  0  0
  2  9  1  0  0  0  0
  2 10  1  0  0  0  0
  3  2  1  0  0  0  0
  4  5  1  0  0  0  0
  4  3  1  0  0  0  0
  5 15  1  1  0  0  0
  5  1  1  0  0  0  0
  6  7  2  0  0  0  0
  6  5  1  0  0  0  0
  8  1  1  0  0  0  0
 11  3  1  0  0  0  0
 12  3  1  0  0  0  0
 13  4  1  0  0  0  0
 14  4  1  0  0  0  0
 16  6  1  0  0  0  0
 17 23  1  0  0  0  0
 17 16  1  0  0  0  0
 18 17  1  0  0  0  0
 18 26  1  0  0  0  0
 19 18  1  0  0  0  0
 19 20  1  0  0  0  0
 19 27  1  0  0  0  0
 20 29  1  1  0  0  0
 20 16  1  0  0  0  0
 21 20  1  0  0  0  0
 22 21  2  0  0  0  0
 24 17  1  0  0  0  0
 25 18  1  0  0  0  0
 28 19  1  0  0  0  0
 30 21  1  0  0  0  0
 30 40  1  0  0  0  0
 31 41  1  6  0  0  0
 31 37  1  0  0  0  0
 31 30  1  0  0  0  0
 32 33  1  0  0  0  0
 32 31  1  0  0  0  0
 33 44  1  0  0  0  0
 33 34  1  0  0  0  0
 34 47  1  0  0  0  0
 35 34  1  0  0  0  0
 35 48  1  0  0  0  0
 35 36  1  0  0  0  0
 36 50  1  0  0  0  0
 36 51  1  0  0  0  0
 37 38  1  0  0  0  0
 39 37  2  0  0  0  0
 42 32  1  0  0  0  0
 43 32  1  0  0  0  0
 45 33  1  0  0  0  0
 46 34  1  0  0  0  0
 49 35  1  0  0  0  0
M  END
$$$$
