PPL.pdb
 OpenBabel07022419053D

 49 50  0  0  1  0  0  0  0  0999 V2000
    2.9180   -4.7140   -0.4020 N   0  0  0  0  0  0  0  0  0  0  0  0
    3.0570   -5.4420    0.8100 C   0  0  0  0  0  0  0  0  0  0  0  0
    2.4720   -4.5970    1.9070 C   0  0  0  0  0  0  0  0  0  0  0  0
    1.3240   -3.9220    1.1440 C   0  0  0  0  0  0  0  0  0  0  0  0
    2.0690   -3.5400   -0.1460 C   0  0  1  0  0  0  0  0  0  0  0  0
    2.8880   -2.3870    0.2050 C   0  0  0  0  0  0  0  0  0  0  0  0
    4.1480   -2.6820    0.3610 O   0  0  0  0  0  0  0  0  0  0  0  0
    2.5360   -5.3300   -1.1320 H   0  0  0  0  0  0  0  0  0  0  0  0
    2.4720   -6.4060    0.8110 H   0  0  0  0  0  0  0  0  0  0  0  0
    4.1020   -5.7510    1.0430 H   0  0  0  0  0  0  0  0  0  0  0  0
    3.1560   -3.7750    2.1940 H   0  0  0  0  0  0  0  0  0  0  0  0
    2.1150   -5.1710    2.7660 H   0  0  0  0  0  0  0  0  0  0  0  0
    1.0250   -3.0200    1.6960 H   0  0  0  0  0  0  0  0  0  0  0  0
    0.5210   -4.6460    0.9550 H   0  0  0  0  0  0  0  0  0  0  0  0
    1.4350   -3.4670   -1.0170 H   0  0  0  0  0  0  0  0  0  0  0  0
    2.5480   -1.0470    0.3980 N   0  0  0  0  0  0  0  0  0  0  0  0
    3.6100   -0.0730    0.8170 C   0  0  0  0  0  0  0  0  0  0  0  0
    3.3810    1.0450   -0.1710 C   0  0  0  0  0  0  0  0  0  0  0  0
    1.9800    0.8510   -0.7030 C   0  0  0  0  0  0  0  0  0  0  0  0
    1.4560   -0.1620    0.3230 C   0  0  1  0  0  0  0  0  0  0  0  0
    0.1090   -0.5710    0.0640 C   0  0  0  0  0  0  0  0  0  0  0  0
   -0.3800   -1.6760   -0.2220 O   0  0  0  0  0  0  0  0  0  0  0  0
    4.6020   -0.5030    0.7730 H   0  0  0  0  0  0  0  0  0  0  0  0
    3.2940    0.2220    1.8530 H   0  0  0  0  0  0  0  0  0  0  0  0
    4.1400    1.0580   -0.9750 H   0  0  0  0  0  0  0  0  0  0  0  0
    3.3990    2.0020    0.4210 H   0  0  0  0  0  0  0  0  0  0  0  0
    2.0620    0.3160   -1.6620 H   0  0  0  0  0  0  0  0  0  0  0  0
    1.3830    1.7610   -0.7250 H   0  0  0  0  0  0  0  0  0  0  0  0
    1.4730    0.4450    1.2940 H   0  0  0  0  0  0  0  0  0  0  0  0
   -3.7670    1.9880    2.9690 C   0  0  0  0  0  0  0  0  0  0  0  0
   -2.9260    1.9410    1.6650 C   0  0  0  0  0  0  0  0  0  0  0  0
   -3.5160    3.0070    0.7960 C   0  0  0  0  0  0  0  0  0  0  0  0
   -3.0170    0.5520    1.1640 C   0  0  0  0  0  0  0  0  0  0  0  0
   -2.2660    0.2190   -0.0910 C   0  0  2  0  0  0  0  0  0  0  0  0
   -0.8820    0.4880    0.1450 N   0  0  0  0  0  0  0  0  0  0  0  0
   -2.7380    1.0000   -1.2460 C   0  0  0  0  0  0  0  0  0  0  0  0
   -1.9500    1.7440   -1.8780 O   0  0  0  0  0  0  0  0  0  0  0  0
   -4.0540    0.9370   -1.6700 O   0  0  0  0  0  0  0  0  0  0  0  0
   -4.7280    1.4570    2.8130 H   0  0  0  0  0  0  0  0  0  0  0  0
   -4.0070    3.0300    3.2300 H   0  0  0  0  0  0  0  0  0  0  0  0
   -3.2140    1.5450    3.8040 H   0  0  0  0  0  0  0  0  0  0  0  0
   -1.9020    2.2340    1.9910 H   0  0  0  0  0  0  0  0  0  0  0  0
   -2.8840    3.3990    0.0050 H   0  0  0  0  0  0  0  0  0  0  0  0
   -4.4720    2.6700    0.3620 H   0  0  0  0  0  0  0  0  0  0  0  0
   -3.7500    3.8710    1.4900 H   0  0  0  0  0  0  0  0  0  0  0  0
   -4.1080    0.3080    1.0700 H   0  0  0  0  0  0  0  0  0  0  0  0
   -2.6600   -0.1680    1.9500 H   0  0  0  0  0  0  0  0  0  0  0  0
   -2.4090   -0.8800   -0.3280 H   0  0  0  0  0  0  0  0  0  0  0  0
   -0.6180    1.4760    0.3770 H   0  0  0  0  0  0  0  0  0  0  0  0
  1  5  1  0  0  0  0
  1  2  1  0  0  0  0
  2  9  1  0  0  0  0
  2 10  1  0  0  0  0
  2  3  1  0  0  0  0
  3 11  1  0  0  0  0
  3 12  1  0  0  0  0
  4 13  1  0  0  0  0
  4  3  1  0  0  0  0
  5 15  1  6  0  0  0
  5  6  1  0  0  0  0
  5  4  1  0  0  0  0
  6  7  2  0  0  0  0
  6 16  1  0  0  0  0
  8  1  1  0  0  0  0
 14  4  1  0  0  0  0
 16 17  1  0  0  0  0
 17 24  1  0  0  0  0
 18 26  1  0  0  0  0
 18 17  1  0  0  0  0
 19 18  1  0  0  0  0
 19 20  1  0  0  0  0
 20 16  1  0  0  0  0
 20 29  1  1  0  0  0
 21 35  1  0  0  0  0
 21 20  1  0  0  0  0
 22 21  2  0  0  0  0
 23 17  1  0  0  0  0
 25 18  1  0  0  0  0
 27 19  1  0  0  0  0
 28 19  1  0  0  0  0
 30 40  1  0  0  0  0
 30 41  1  0  0  0  0
 31 42  1  0  0  0  0
 31 30  1  0  0  0  0
 32 45  1  0  0  0  0
 32 31  1  0  0  0  0
 33 31  1  0  0  0  0
 33 47  1  0  0  0  0
 34 48  1  6  0  0  0
 34 35  1  0  0  0  0
 34 33  1  0  0  0  0
 35 49  1  0  0  0  0
 36 34  1  0  0  0  0
 37 36  2  0  0  0  0
 38 36  1  0  0  0  0
 39 30  1  0  0  0  0
 43 32  1  0  0  0  0
 44 32  1  0  0  0  0
 46 33  1  0  0  0  0
M  END
$$$$
