PPN.pdb
 OpenBabel07022419053D

 44 45  0  0  1  0  0  0  0  0999 V2000
    0.6740   -3.9360    0.0920 N   0  0  0  0  0  0  0  0  0  0  0  0
    1.2260   -4.6230    1.2430 C   0  0  0  0  0  0  0  0  0  0  0  0
    2.6380   -4.0630    1.2590 C   0  0  0  0  0  0  0  0  0  0  0  0
    2.3650   -2.5720    1.0230 C   0  0  0  0  0  0  0  0  0  0  0  0
    0.9930   -2.5440    0.3710 C   0  0  1  0  0  0  0  0  0  0  0  0
    1.1170   -1.7860   -0.9050 C   0  0  0  0  0  0  0  0  0  0  0  0
    0.9570   -2.4080   -1.9860 O   0  0  0  0  0  0  0  0  0  0  0  0
    1.1180   -4.2510   -0.8020 H   0  0  0  0  0  0  0  0  0  0  0  0
    1.2100   -5.7250    1.1320 H   0  0  0  0  0  0  0  0  0  0  0  0
    0.6500   -4.2960    2.1290 H   0  0  0  0  0  0  0  0  0  0  0  0
    3.1970   -4.4990    0.4220 H   0  0  0  0  0  0  0  0  0  0  0  0
    3.1260   -4.2330    2.2430 H   0  0  0  0  0  0  0  0  0  0  0  0
    2.3690   -2.1210    2.0300 H   0  0  0  0  0  0  0  0  0  0  0  0
    3.1470   -2.1250    0.3980 H   0  0  0  0  0  0  0  0  0  0  0  0
    0.2140   -2.1530    1.0310 H   0  0  0  0  0  0  0  0  0  0  0  0
    1.4060   -0.4030   -0.9460 N   0  0  0  0  0  0  0  0  0  0  0  0
    1.5390    0.3900   -2.1480 C   0  0  0  0  0  0  0  0  0  0  0  0
    2.5610    1.4710   -1.8120 C   0  0  0  0  0  0  0  0  0  0  0  0
    2.3850    1.6820   -0.3190 C   0  0  0  0  0  0  0  0  0  0  0  0
    1.6220    0.4920    0.1530 C   0  0  1  0  0  0  0  0  0  0  0  0
    0.3440    0.8850    0.8310 C   0  0  0  0  0  0  0  0  0  0  0  0
    0.4210    1.6640    1.8120 O   0  0  0  0  0  0  0  0  0  0  0  0
    1.9430   -0.1860   -3.0000 H   0  0  0  0  0  0  0  0  0  0  0  0
    0.5880    0.9050   -2.3720 H   0  0  0  0  0  0  0  0  0  0  0  0
    2.3890    2.3970   -2.3860 H   0  0  0  0  0  0  0  0  0  0  0  0
    3.5790    1.0620   -1.9680 H   0  0  0  0  0  0  0  0  0  0  0  0
    1.8150    2.6320   -0.1940 H   0  0  0  0  0  0  0  0  0  0  0  0
    3.3540    1.8360    0.1820 H   0  0  0  0  0  0  0  0  0  0  0  0
    2.2350    0.0170    0.9660 H   0  0  0  0  0  0  0  0  0  0  0  0
   -3.3620    0.0110    4.6310 N   0  0  0  0  0  0  0  0  0  0  0  0
   -3.3470    0.4930    3.2940 C   0  0  0  0  0  0  0  0  0  0  0  0
   -4.3370    1.1260    2.8930 O   0  0  0  0  0  0  0  0  0  0  0  0
   -2.1960    0.2320    2.4640 C   0  0  0  0  0  0  0  0  0  0  0  0
   -2.1570    0.8280    1.1010 C   0  0  2  0  0  0  0  0  0  0  0  0
   -0.9120    0.4120    0.4020 N   0  0  0  0  0  0  0  0  0  0  0  0
   -2.2520    2.3030    1.0470 C   0  0  0  0  0  0  0  0  0  0  0  0
   -1.3590    2.9920    0.4600 O   0  0  0  0  0  0  0  0  0  0  0  0
   -3.2760    3.0280    1.6040 O   0  0  0  0  0  0  0  0  0  0  0  0
   -2.5350    0.3170    5.2250 H   0  0  0  0  0  0  0  0  0  0  0  0
   -4.1150   -0.5990    5.0250 H   0  0  0  0  0  0  0  0  0  0  0  0
   -1.2940    0.6490    3.0160 H   0  0  0  0  0  0  0  0  0  0  0  0
   -1.9450   -0.8750    2.4260 H   0  0  0  0  0  0  0  0  0  0  0  0
   -2.9830    0.3940    0.5010 H   0  0  0  0  0  0  0  0  0  0  0  0
   -0.9300   -0.2330   -0.4160 H   0  0  0  0  0  0  0  0  0  0  0  0
  1  5  1  0  0  0  0
  1  2  1  0  0  0  0
  2  3  1  0  0  0  0
  2 10  1  0  0  0  0
  3 12  1  0  0  0  0
  4  3  1  0  0  0  0
  4 13  1  0  0  0  0
  5  4  1  0  0  0  0
  5 15  1  1  0  0  0
  6  5  1  0  0  0  0
  7  6  2  0  0  0  0
  8  1  1  0  0  0  0
  9  2  1  0  0  0  0
 11  3  1  0  0  0  0
 14  4  1  0  0  0  0
 16  6  1  0  0  0  0
 16 20  1  0  0  0  0
 17 18  1  0  0  0  0
 17 16  1  0  0  0  0
 18 19  1  0  0  0  0
 19 27  1  0  0  0  0
 19 20  1  0  0  0  0
 19 28  1  0  0  0  0
 20 21  1  0  0  0  0
 20 29  1  1  0  0  0
 21 22  2  0  0  0  0
 23 17  1  0  0  0  0
 24 17  1  0  0  0  0
 25 18  1  0  0  0  0
 26 18  1  0  0  0  0
 30 40  1  0  0  0  0
 30 39  1  0  0  0  0
 31 30  1  0  0  0  0
 32 31  2  0  0  0  0
 33 41  1  0  0  0  0
 33 31  1  0  0  0  0
 34 43  1  6  0  0  0
 34 33  1  0  0  0  0
 35 21  1  0  0  0  0
 35 34  1  0  0  0  0
 36 34  1  0  0  0  0
 36 38  1  0  0  0  0
 37 36  2  0  0  0  0
 42 33  1  0  0  0  0
 44 35  1  0  0  0  0
M  END
$$$$
