PPP.pdb
 OpenBabel07022419053D

 44 46  0  0  1  0  0  0  0  0999 V2000
   -1.1810   -2.7650    0.0600 N   0  0  0  0  0  0  0  0  0  0  0  0
   -1.4870   -4.2080    0.0750 C   0  0  0  0  0  0  0  0  0  0  0  0
   -0.8370   -4.7120   -1.1970 C   0  0  0  0  0  0  0  0  0  0  0  0
    0.1130   -3.6210   -1.6120 C   0  0  0  0  0  0  0  0  0  0  0  0
    0.1970   -2.7840   -0.3200 C   0  0  1  0  0  0  0  0  0  0  0  0
    0.8660   -1.5270   -0.5340 C   0  0  0  0  0  0  0  0  0  0  0  0
    2.1210   -1.5530   -0.7720 O   0  0  0  0  0  0  0  0  0  0  0  0
   -1.3340   -2.3740    1.0210 H   0  0  0  0  0  0  0  0  0  0  0  0
   -0.9420   -4.6750    0.9300 H   0  0  0  0  0  0  0  0  0  0  0  0
   -2.5570   -4.4180    0.0930 H   0  0  0  0  0  0  0  0  0  0  0  0
   -1.6760   -4.8620   -1.9460 H   0  0  0  0  0  0  0  0  0  0  0  0
   -0.3260   -5.6940   -1.0430 H   0  0  0  0  0  0  0  0  0  0  0  0
   -0.3820   -3.0020   -2.3730 H   0  0  0  0  0  0  0  0  0  0  0  0
    1.0920   -4.0190   -1.8920 H   0  0  0  0  0  0  0  0  0  0  0  0
    0.7850   -3.4460    0.3780 H   0  0  0  0  0  0  0  0  0  0  0  0
    0.2550   -0.2430   -0.5040 N   0  0  0  0  0  0  0  0  0  0  0  0
   -1.1490   -0.0110   -0.2970 C   0  0  0  0  0  0  0  0  0  0  0  0
   -1.4550    1.2960   -0.9890 C   0  0  0  0  0  0  0  0  0  0  0  0
   -0.1390    1.9630   -1.1990 C   0  0  0  0  0  0  0  0  0  0  0  0
    0.8830    1.0200   -0.6600 C   0  0  1  0  0  0  0  0  0  0  0  0
    1.6600    1.5740    0.4450 C   0  0  0  0  0  0  0  0  0  0  0  0
    2.5060    2.4810    0.0280 O   0  0  0  0  0  0  0  0  0  0  0  0
   -1.6840   -0.8040   -0.9170 H   0  0  0  0  0  0  0  0  0  0  0  0
   -1.4860   -0.0270    0.7450 H   0  0  0  0  0  0  0  0  0  0  0  0
   -2.1700    1.9200   -0.4070 H   0  0  0  0  0  0  0  0  0  0  0  0
   -1.8920    1.1220   -2.0200 H   0  0  0  0  0  0  0  0  0  0  0  0
   -0.1270    2.8860   -0.5370 H   0  0  0  0  0  0  0  0  0  0  0  0
    0.0300    2.2750   -2.2570 H   0  0  0  0  0  0  0  0  0  0  0  0
    1.6000    0.8520   -1.5610 H   0  0  0  0  0  0  0  0  0  0  0  0
    1.6550    1.3140    1.8210 N   0  0  0  0  0  0  0  0  0  0  0  0
    2.5480    1.9490    2.7440 C   0  0  0  0  0  0  0  0  0  0  0  0
    2.2890    1.2790    4.0670 C   0  0  0  0  0  0  0  0  0  0  0  0
    1.6870   -0.0840    3.6520 C   0  0  0  0  0  0  0  0  0  0  0  0
    0.7870    0.4610    2.5410 C   0  0  1  0  0  0  0  0  0  0  0  0
   -0.3640    1.1910    3.1400 C   0  0  0  0  0  0  0  0  0  0  0  0
   -0.4680    2.4130    2.9210 O   0  0  0  0  0  0  0  0  0  0  0  0
   -1.2760    0.5350    3.9070 O   0  0  0  0  0  0  0  0  0  0  0  0
    2.4320    3.0560    2.7670 H   0  0  0  0  0  0  0  0  0  0  0  0
    3.5840    1.6690    2.3910 H   0  0  0  0  0  0  0  0  0  0  0  0
    1.5540    1.8560    4.6550 H   0  0  0  0  0  0  0  0  0  0  0  0
    3.2300    1.0890    4.6030 H   0  0  0  0  0  0  0  0  0  0  0  0
    1.1430   -0.5700    4.4520 H   0  0  0  0  0  0  0  0  0  0  0  0
    2.4560   -0.7250    3.2280 H   0  0  0  0  0  0  0  0  0  0  0  0
    0.4620   -0.4490    2.0070 H   0  0  0  0  0  0  0  0  0  0  0  0
  1  2  1  0  0  0  0
  1  8  1  0  0  0  0
  2 10  1  0  0  0  0
  2  9  1  0  0  0  0
  3 12  1  0  0  0  0
  3  2  1  0  0  0  0
  4  3  1  0  0  0  0
  4  5  1  0  0  0  0
  5  1  1  0  0  0  0
  5 15  1  1  0  0  0
  6 16  1  0  0  0  0
  6  5  1  0  0  0  0
  7  6  2  0  0  0  0
 11  3  1  0  0  0  0
 13  4  1  0  0  0  0
 14  4  1  0  0  0  0
 16 17  1  0  0  0  0
 17 24  1  0  0  0  0
 18 25  1  0  0  0  0
 18 17  1  0  0  0  0
 19 18  1  0  0  0  0
 19 20  1  0  0  0  0
 19 27  1  0  0  0  0
 20 29  1  6  0  0  0
 20 16  1  0  0  0  0
 20 21  1  0  0  0  0
 21 30  1  0  0  0  0
 22 21  2  0  0  0  0
 23 17  1  0  0  0  0
 26 18  1  0  0  0  0
 28 19  1  0  0  0  0
 30 34  1  0  0  0  0
 30 31  1  0  0  0  0
 31 38  1  0  0  0  0
 31 32  1  0  0  0  0
 32 41  1  0  0  0  0
 32 40  1  0  0  0  0
 33 32  1  0  0  0  0
 33 42  1  0  0  0  0
 34 44  1  6  0  0  0
 34 35  1  0  0  0  0
 34 33  1  0  0  0  0
 35 37  1  0  0  0  0
 36 35  2  0  0  0  0
 39 31  1  0  0  0  0
 43 33  1  0  0  0  0
M  END
$$$$
