PPR.pdb
 OpenBabel07022419053D

 53 54  0  0  1  0  0  0  0  0999 V2000
    2.9980   -4.5620    2.5940 N   0  0  0  0  0  0  0  0  0  0  0  0
    4.2710   -4.1650    2.0020 C   0  0  0  0  0  0  0  0  0  0  0  0
    3.9450   -3.6500    0.6040 C   0  0  0  0  0  0  0  0  0  0  0  0
    2.4100   -3.6470    0.6020 C   0  0  0  0  0  0  0  0  0  0  0  0
    2.1460   -3.4550    2.0810 C   0  0  1  0  0  0  0  0  0  0  0  0
    0.7380   -3.7090    2.3510 C   0  0  0  0  0  0  0  0  0  0  0  0
    0.5270   -4.8340    2.9780 O   0  0  0  0  0  0  0  0  0  0  0  0
    2.6770   -5.4670    2.1640 H   0  0  0  0  0  0  0  0  0  0  0  0
    4.6370   -3.2900    2.5910 H   0  0  0  0  0  0  0  0  0  0  0  0
    4.9870   -4.9960    1.9500 H   0  0  0  0  0  0  0  0  0  0  0  0
    4.2600   -2.6060    0.4640 H   0  0  0  0  0  0  0  0  0  0  0  0
    4.3330   -4.3260   -0.1770 H   0  0  0  0  0  0  0  0  0  0  0  0
    1.9760   -2.9040   -0.0530 H   0  0  0  0  0  0  0  0  0  0  0  0
    2.0740   -4.6910    0.3690 H   0  0  0  0  0  0  0  0  0  0  0  0
    2.5880   -2.5760    2.5330 H   0  0  0  0  0  0  0  0  0  0  0  0
   -0.4080   -2.9670    2.0560 N   0  0  0  0  0  0  0  0  0  0  0  0
   -1.7500   -3.5610    2.4550 C   0  0  0  0  0  0  0  0  0  0  0  0
   -2.3160   -2.3880    3.2230 C   0  0  0  0  0  0  0  0  0  0  0  0
   -1.7690   -1.1630    2.5280 C   0  0  0  0  0  0  0  0  0  0  0  0
   -0.8060   -1.7620    1.4550 C   0  0  1  0  0  0  0  0  0  0  0  0
    0.1250   -0.7460    1.0320 C   0  0  0  0  0  0  0  0  0  0  0  0
    1.3120   -0.7090    1.3450 O   0  0  0  0  0  0  0  0  0  0  0  0
   -2.3200   -3.7190    1.5160 H   0  0  0  0  0  0  0  0  0  0  0  0
   -1.6150   -4.4500    3.0600 H   0  0  0  0  0  0  0  0  0  0  0  0
   -3.4220   -2.4460    3.1230 H   0  0  0  0  0  0  0  0  0  0  0  0
   -1.9740   -2.4760    4.2610 H   0  0  0  0  0  0  0  0  0  0  0  0
   -2.5340   -0.5750    2.0110 H   0  0  0  0  0  0  0  0  0  0  0  0
   -1.1810   -0.5080    3.1900 H   0  0  0  0  0  0  0  0  0  0  0  0
   -1.5300   -2.0500    0.6130 H   0  0  0  0  0  0  0  0  0  0  0  0
   -3.8950    2.4830   -0.1820 N   0  0  0  0  0  0  0  0  0  0  0  0
   -3.1130    2.1920   -1.3400 C   0  0  0  0  0  0  0  0  0  0  0  0
   -3.4360    1.1450   -2.0260 N   0  0  0  0  0  0  0  0  0  0  0  0
   -2.0240    3.0220   -1.7210 N   0  0  0  0  0  0  0  0  0  0  0  0
   -1.1980    2.6660   -2.8070 C   0  0  0  0  0  0  0  0  0  0  0  0
   -0.3250    1.4820   -2.7250 C   0  0  0  0  0  0  0  0  0  0  0  0
    0.7370    1.3670   -1.7310 C   0  0  0  0  0  0  0  0  0  0  0  0
    0.4650    1.3460   -0.2840 C   0  0  2  0  0  0  0  0  0  0  0  0
   -0.3770    0.3040    0.1800 N   0  0  0  0  0  0  0  0  0  0  0  0
    0.1760    2.6930    0.2350 C   0  0  0  0  0  0  0  0  0  0  0  0
    0.8690    3.6460   -0.1840 O   0  0  0  0  0  0  0  0  0  0  0  0
   -0.8180    2.9740    1.1630 O   0  0  0  0  0  0  0  0  0  0  0  0
   -4.4270    3.3800   -0.0890 H   0  0  0  0  0  0  0  0  0  0  0  0
   -3.9170    1.7630    0.5730 H   0  0  0  0  0  0  0  0  0  0  0  0
   -4.2160    0.5340   -1.7710 H   0  0  0  0  0  0  0  0  0  0  0  0
   -1.9080    3.8980   -1.1630 H   0  0  0  0  0  0  0  0  0  0  0  0
   -1.8000    2.5380   -3.7770 H   0  0  0  0  0  0  0  0  0  0  0  0
   -0.6060    3.6100   -3.0700 H   0  0  0  0  0  0  0  0  0  0  0  0
   -0.9380    0.5110   -2.8080 H   0  0  0  0  0  0  0  0  0  0  0  0
    0.2060    1.4410   -3.7460 H   0  0  0  0  0  0  0  0  0  0  0  0
    1.3500    0.4450   -2.0240 H   0  0  0  0  0  0  0  0  0  0  0  0
    1.4940    2.1930   -1.9770 H   0  0  0  0  0  0  0  0  0  0  0  0
    1.5010    1.1200    0.1960 H   0  0  0  0  0  0  0  0  0  0  0  0
   -1.4080    0.2600   -0.0860 H   0  0  0  0  0  0  0  0  0  0  0  0
  2  9  1  0  0  0  0
  2  1  1  0  0  0  0
  3  2  1  0  0  0  0
  4  3  1  0  0  0  0
  4  5  1  0  0  0  0
  5  6  1  0  0  0  0
  5 15  1  1  0  0  0
  5  1  1  0  0  0  0
  6  7  2  0  0  0  0
  8  1  1  0  0  0  0
 10  2  1  0  0  0  0
 11  3  1  0  0  0  0
 12  3  1  0  0  0  0
 13  4  1  0  0  0  0
 14  4  1  0  0  0  0
 16  6  1  0  0  0  0
 16 17  1  0  0  0  0
 17 24  1  0  0  0  0
 17 18  1  0  0  0  0
 18 26  1  0  0  0  0
 19 28  1  0  0  0  0
 19 18  1  0  0  0  0
 20 29  1  6  0  0  0
 20 16  1  0  0  0  0
 20 19  1  0  0  0  0
 21 22  2  0  0  0  0
 21 20  1  0  0  0  0
 23 17  1  0  0  0  0
 25 18  1  0  0  0  0
 27 19  1  0  0  0  0
 30 42  1  0  0  0  0
 30 43  1  0  0  0  0
 31 30  1  0  0  0  0
 32 44  1  0  0  0  0
 32 31  2  0  0  0  0
 33 31  1  0  0  0  0
 33 45  1  0  0  0  0
 34 35  1  0  0  0  0
 34 33  1  0  0  0  0
 35 36  1  0  0  0  0
 36 37  1  0  0  0  0
 37 38  1  0  0  0  0
 37 52  1  1  0  0  0
 37 39  1  0  0  0  0
 38 21  1  0  0  0  0
 39 41  1  0  0  0  0
 40 39  2  0  0  0  0
 46 34  1  0  0  0  0
 47 34  1  0  0  0  0
 48 35  1  0  0  0  0
 49 35  1  0  0  0  0
 50 36  1  0  0  0  0
 51 36  1  0  0  0  0
 53 38  1  0  0  0  0
M  END
$$$$
