PPS.pdb
 OpenBabel07022419053D

 41 42  0  0  1  0  0  0  0  0999 V2000
    1.1510   -2.4090    0.3930 N   0  0  0  0  0  0  0  0  0  0  0  0
    1.2610   -3.8380    0.6280 C   0  0  0  0  0  0  0  0  0  0  0  0
    0.6580   -4.3980   -0.6480 C   0  0  0  0  0  0  0  0  0  0  0  0
    1.2010   -3.4390   -1.6860 C   0  0  0  0  0  0  0  0  0  0  0  0
    1.6950   -2.2340   -0.8960 C   0  0  1  0  0  0  0  0  0  0  0  0
    1.4680   -0.9780   -1.5980 C   0  0  0  0  0  0  0  0  0  0  0  0
    1.8270   -1.0530   -2.8620 O   0  0  0  0  0  0  0  0  0  0  0  0
    0.1520   -2.1600    0.4900 H   0  0  0  0  0  0  0  0  0  0  0  0
    0.6960   -4.1510    1.5290 H   0  0  0  0  0  0  0  0  0  0  0  0
    2.3380   -4.1420    0.6950 H   0  0  0  0  0  0  0  0  0  0  0  0
   -0.4500   -4.3700   -0.5780 H   0  0  0  0  0  0  0  0  0  0  0  0
    0.9490   -5.4390   -0.8420 H   0  0  0  0  0  0  0  0  0  0  0  0
    2.0090   -3.9600   -2.2300 H   0  0  0  0  0  0  0  0  0  0  0  0
    0.4460   -3.1530   -2.4450 H   0  0  0  0  0  0  0  0  0  0  0  0
    2.8150   -2.4250   -0.8010 H   0  0  0  0  0  0  0  0  0  0  0  0
    0.9580    0.2420   -1.2110 N   0  0  0  0  0  0  0  0  0  0  0  0
    0.6960    1.3080   -2.2590 C   0  0  0  0  0  0  0  0  0  0  0  0
   -0.7880    1.5200   -1.9550 C   0  0  0  0  0  0  0  0  0  0  0  0
   -0.9240    1.2130   -0.4440 C   0  0  0  0  0  0  0  0  0  0  0  0
    0.5350    0.9730   -0.0720 C   0  0  1  0  0  0  0  0  0  0  0  0
    0.8380    0.6020    1.2660 C   0  0  0  0  0  0  0  0  0  0  0  0
    1.9420    0.1000    1.5980 O   0  0  0  0  0  0  0  0  0  0  0  0
    0.9070    0.9530   -3.2510 H   0  0  0  0  0  0  0  0  0  0  0  0
    1.2820    2.1680   -1.9010 H   0  0  0  0  0  0  0  0  0  0  0  0
   -1.1150    2.5450   -2.1740 H   0  0  0  0  0  0  0  0  0  0  0  0
   -1.3590    0.7860   -2.5360 H   0  0  0  0  0  0  0  0  0  0  0  0
   -1.4980    0.3000   -0.2710 H   0  0  0  0  0  0  0  0  0  0  0  0
   -1.2920    2.0930    0.1070 H   0  0  0  0  0  0  0  0  0  0  0  0
    0.9820    2.0380   -0.2530 H   0  0  0  0  0  0  0  0  0  0  0  0
    1.0900    2.5310    4.2840 O   0  0  0  0  0  0  0  0  0  0  0  0
    0.2160    1.5450    4.6770 C   0  0  0  0  0  0  0  0  0  0  0  0
    0.2710    0.3660    3.7190 C   0  0  2  0  0  0  0  0  0  0  0  0
   -0.0810    0.7590    2.3740 N   0  0  0  0  0  0  0  0  0  0  0  0
   -0.6690   -0.6960    4.2250 C   0  0  0  0  0  0  0  0  0  0  0  0
   -1.5980   -1.1240    3.5170 O   0  0  0  0  0  0  0  0  0  0  0  0
   -0.4810   -1.1910    5.5050 O   0  0  0  0  0  0  0  0  0  0  0  0
    0.6490    3.1780    3.6820 H   0  0  0  0  0  0  0  0  0  0  0  0
    0.5580    1.1480    5.6680 H   0  0  0  0  0  0  0  0  0  0  0  0
   -0.8190    1.8990    4.8290 H   0  0  0  0  0  0  0  0  0  0  0  0
    1.2960   -0.0430    3.7850 H   0  0  0  0  0  0  0  0  0  0  0  0
   -1.0020    1.1720    2.1250 H   0  0  0  0  0  0  0  0  0  0  0  0
  1  8  1  0  0  0  0
  1  2  1  0  0  0  0
  2 10  1  0  0  0  0
  2  9  1  0  0  0  0
  3 11  1  0  0  0  0
  3  2  1  0  0  0  0
  4  5  1  0  0  0  0
  4  3  1  0  0  0  0
  5 15  1  1  0  0  0
  5  1  1  0  0  0  0
  6 16  1  0  0  0  0
  6  5  1  0  0  0  0
  7  6  2  0  0  0  0
 12  3  1  0  0  0  0
 13  4  1  0  0  0  0
 14  4  1  0  0  0  0
 16 20  1  0  0  0  0
 17 18  1  0  0  0  0
 17 24  1  0  0  0  0
 17 16  1  0  0  0  0
 18 19  1  0  0  0  0
 19 27  1  0  0  0  0
 19 20  1  0  0  0  0
 19 28  1  0  0  0  0
 20 29  1  6  0  0  0
 20 21  1  0  0  0  0
 21 22  2  0  0  0  0
 21 33  1  0  0  0  0
 23 17  1  0  0  0  0
 25 18  1  0  0  0  0
 26 18  1  0  0  0  0
 30 31  1  0  0  0  0
 31 39  1  0  0  0  0
 31 38  1  0  0  0  0
 32 40  1  6  0  0  0
 32 34  1  0  0  0  0
 32 31  1  0  0  0  0
 33 32  1  0  0  0  0
 34 36  1  0  0  0  0
 35 34  2  0  0  0  0
 37 30  1  0  0  0  0
 41 33  1  0  0  0  0
M  END
$$$$
