PPW.pdb
 OpenBabel07022419053D

 54 57  0  0  1  0  0  0  0  0999 V2000
    4.0840   -0.9730    3.2150 N   0  0  0  0  0  0  0  0  0  0  0  0
    3.9360   -2.3830    3.1430 C   0  0  0  0  0  0  0  0  0  0  0  0
    3.9130   -2.7740    1.6940 C   0  0  0  0  0  0  0  0  0  0  0  0
    3.5910   -1.5030    0.9570 C   0  0  0  0  0  0  0  0  0  0  0  0
    3.6640   -0.3830    1.9650 C   0  0  1  0  0  0  0  0  0  0  0  0
    2.3310    0.2420    2.1020 C   0  0  0  0  0  0  0  0  0  0  0  0
    1.7090    0.0950    3.1910 O   0  0  0  0  0  0  0  0  0  0  0  0
    3.5070   -0.5630    4.0080 H   0  0  0  0  0  0  0  0  0  0  0  0
    3.0210   -2.6860    3.6740 H   0  0  0  0  0  0  0  0  0  0  0  0
    4.8370   -2.8830    3.6010 H   0  0  0  0  0  0  0  0  0  0  0  0
    4.8780   -3.2100    1.3650 H   0  0  0  0  0  0  0  0  0  0  0  0
    3.1340   -3.5300    1.4590 H   0  0  0  0  0  0  0  0  0  0  0  0
    2.5890   -1.5770    0.4740 H   0  0  0  0  0  0  0  0  0  0  0  0
    4.3420   -1.3800    0.1630 H   0  0  0  0  0  0  0  0  0  0  0  0
    4.4230    0.3710    1.6730 H   0  0  0  0  0  0  0  0  0  0  0  0
    1.6810    1.0150    1.0800 N   0  0  0  0  0  0  0  0  0  0  0  0
    2.3570    1.2590   -0.1600 C   0  0  0  0  0  0  0  0  0  0  0  0
    1.1930    1.3430   -1.1570 C   0  0  0  0  0  0  0  0  0  0  0  0
    0.2030    2.1580   -0.3000 C   0  0  0  0  0  0  0  0  0  0  0  0
    0.4150    1.6210    1.0860 C   0  0  1  0  0  0  0  0  0  0  0  0
   -0.7370    0.7400    1.3650 C   0  0  0  0  0  0  0  0  0  0  0  0
   -1.8490    1.3190    1.5060 O   0  0  0  0  0  0  0  0  0  0  0  0
    3.0970    0.5280   -0.4710 H   0  0  0  0  0  0  0  0  0  0  0  0
    2.7740    2.3040   -0.1550 H   0  0  0  0  0  0  0  0  0  0  0  0
    0.8370    0.3280   -1.3210 H   0  0  0  0  0  0  0  0  0  0  0  0
    1.4510    1.8780   -2.0660 H   0  0  0  0  0  0  0  0  0  0  0  0
   -0.8140    1.9460   -0.6580 H   0  0  0  0  0  0  0  0  0  0  0  0
    0.4350    3.2390   -0.3820 H   0  0  0  0  0  0  0  0  0  0  0  0
    0.3490    2.5120    1.7850 H   0  0  0  0  0  0  0  0  0  0  0  0
   -0.7240   -0.6520    1.4860 N   0  0  0  0  0  0  0  0  0  0  0  0
   -1.9170   -1.4490    1.7680 C   0  0  1  0  0  0  0  0  0  0  0  0
   -2.0460   -2.4630    0.6300 C   0  0  0  0  0  0  0  0  0  0  0  0
   -2.1850   -1.8100   -0.6820 C   0  0  0  0  0  0  0  0  0  0  0  0
   -1.2200   -1.6850   -1.6520 C   0  0  0  0  0  0  0  0  0  0  0  0
   -1.7150   -1.0270   -2.7180 N   0  0  0  0  0  0  0  0  0  0  0  0
   -3.0070   -0.7300   -2.4230 C   0  0  0  0  0  0  0  0  0  0  0  0
   -3.9620   -0.0670   -3.1670 C   0  0  0  0  0  0  0  0  0  0  0  0
   -5.2440    0.1490   -2.7050 C   0  0  0  0  0  0  0  0  0  0  0  0
   -5.5360   -0.3360   -1.4440 C   0  0  0  0  0  0  0  0  0  0  0  0
   -4.6020   -1.0030   -0.6780 C   0  0  0  0  0  0  0  0  0  0  0  0
   -3.3180   -1.2060   -1.1680 C   0  0  0  0  0  0  0  0  0  0  0  0
   -1.6280   -2.2200    3.0110 C   0  0  0  0  0  0  0  0  0  0  0  0
   -2.4970   -2.9890    3.4740 O   0  0  0  0  0  0  0  0  0  0  0  0
   -0.4210   -2.1240    3.6920 O   0  0  0  0  0  0  0  0  0  0  0  0
    0.1520   -1.1600    1.3700 H   0  0  0  0  0  0  0  0  0  0  0  0
   -2.8270   -0.8430    1.8640 H   0  0  0  0  0  0  0  0  0  0  0  0
   -1.1620   -3.1290    0.5940 H   0  0  0  0  0  0  0  0  0  0  0  0
   -2.9180   -3.1230    0.8270 H   0  0  0  0  0  0  0  0  0  0  0  0
   -0.1930   -2.0690   -1.5670 H   0  0  0  0  0  0  0  0  0  0  0  0
   -1.1840   -0.8110   -3.5700 H   0  0  0  0  0  0  0  0  0  0  0  0
   -3.6850    0.2930   -4.1450 H   0  0  0  0  0  0  0  0  0  0  0  0
   -5.9860    0.6760   -3.3060 H   0  0  0  0  0  0  0  0  0  0  0  0
   -6.5480   -0.1790   -1.0500 H   0  0  0  0  0  0  0  0  0  0  0  0
   -4.8390   -1.3790    0.3090 H   0  0  0  0  0  0  0  0  0  0  0  0
  1  8  1  0  0  0  0
  2  1  1  0  0  0  0
  2 10  1  0  0  0  0
  2  9  1  0  0  0  0
  3  2  1  0  0  0  0
  4  3  1  0  0  0  0
  4  5  1  0  0  0  0
  5 15  1  6  0  0  0
  5  6  1  0  0  0  0
  5  1  1  0  0  0  0
  6  7  2  0  0  0  0
 11  3  1  0  0  0  0
 12  3  1  0  0  0  0
 13  4  1  0  0  0  0
 14  4  1  0  0  0  0
 16 20  1  0  0  0  0
 16  6  1  0  0  0  0
 17 24  1  0  0  0  0
 17 16  1  0  0  0  0
 18 19  1  0  0  0  0
 18 17  1  0  0  0  0
 19 20  1  0  0  0  0
 20 21  1  0  0  0  0
 20 29  1  1  0  0  0
 21 30  1  0  0  0  0
 21 22  2  0  0  0  0
 23 17  1  0  0  0  0
 25 18  1  0  0  0  0
 26 18  1  0  0  0  0
 27 19  1  0  0  0  0
 28 19  1  0  0  0  0
 30 31  1  0  0  0  0
 31 46  1  1  0  0  0
 31 42  1  0  0  0  0
 32 48  1  0  0  0  0
 32 31  1  0  0  0  0
 33 32  1  0  0  0  0
 34 49  1  0  0  0  0
 34 33  2  0  0  0  0
 35 36  1  0  0  0  0
 35 34  1  0  0  0  0
 36 41  1  0  0  0  0
 37 38  1  0  0  0  0
 37 36  2  0  0  0  0
 38 39  2  0  0  0  0
 39 53  1  0  0  0  0
 39 40  1  0  0  0  0
 40 54  1  0  0  0  0
 41 33  1  0  0  0  0
 41 40  2  0  0  0  0
 42 43  2  0  0  0  0
 42 44  1  0  0  0  0
 45 30  1  0  0  0  0
 47 32  1  0  0  0  0
 50 35  1  0  0  0  0
 51 37  1  0  0  0  0
 52 38  1  0  0  0  0
M  END
$$$$
