PPY.pdb
 OpenBabel07022419053D

 51 53  0  0  1  0  0  0  0  0999 V2000
    1.5120   -2.5500    3.4820 N   0  0  0  0  0  0  0  0  0  0  0  0
    0.4630   -2.4130    4.4550 C   0  0  0  0  0  0  0  0  0  0  0  0
    0.0560   -0.9760    4.4560 C   0  0  0  0  0  0  0  0  0  0  0  0
    0.8050   -0.3600    3.3080 C   0  0  0  0  0  0  0  0  0  0  0  0
    1.2360   -1.5140    2.4700 C   0  0  1  0  0  0  0  0  0  0  0  0
    2.5020   -1.2440    1.7320 C   0  0  0  0  0  0  0  0  0  0  0  0
    3.5340   -1.8580    2.1310 O   0  0  0  0  0  0  0  0  0  0  0  0
    2.4290   -2.3160    3.9310 H   0  0  0  0  0  0  0  0  0  0  0  0
    0.8390   -2.6530    5.4780 H   0  0  0  0  0  0  0  0  0  0  0  0
   -0.3700   -3.1200    4.2440 H   0  0  0  0  0  0  0  0  0  0  0  0
   -1.0480   -0.9070    4.3140 H   0  0  0  0  0  0  0  0  0  0  0  0
    0.3330   -0.4520    5.3960 H   0  0  0  0  0  0  0  0  0  0  0  0
    0.0930    0.3400    2.8220 H   0  0  0  0  0  0  0  0  0  0  0  0
    1.6830    0.1850    3.7100 H   0  0  0  0  0  0  0  0  0  0  0  0
    0.4430   -1.9090    1.8400 H   0  0  0  0  0  0  0  0  0  0  0  0
    2.5990   -0.3600    0.6410 N   0  0  0  0  0  0  0  0  0  0  0  0
    3.8910   -0.1070   -0.0440 C   0  0  0  0  0  0  0  0  0  0  0  0
    3.7520    1.3790   -0.4120 C   0  0  0  0  0  0  0  0  0  0  0  0
    2.3160    1.4160   -0.8490 C   0  0  0  0  0  0  0  0  0  0  0  0
    1.6050    0.4170   -0.0160 C   0  0  1  0  0  0  0  0  0  0  0  0
    0.6800   -0.4360   -0.8380 C   0  0  0  0  0  0  0  0  0  0  0  0
    0.7620   -1.6900   -0.8780 O   0  0  0  0  0  0  0  0  0  0  0  0
    3.9520   -0.6920   -0.9740 H   0  0  0  0  0  0  0  0  0  0  0  0
    4.7220   -0.2620    0.6590 H   0  0  0  0  0  0  0  0  0  0  0  0
    3.9010    1.9430    0.5120 H   0  0  0  0  0  0  0  0  0  0  0  0
    4.4560    1.6420   -1.2270 H   0  0  0  0  0  0  0  0  0  0  0  0
    1.8930    2.4440   -0.6900 H   0  0  0  0  0  0  0  0  0  0  0  0
    2.2200    1.1340   -1.9210 H   0  0  0  0  0  0  0  0  0  0  0  0
    0.9660    0.9280    0.7220 H   0  0  0  0  0  0  0  0  0  0  0  0
   -3.1390   -2.3600    3.3010 O   0  0  0  0  0  0  0  0  0  0  0  0
   -3.0070   -1.7970    2.0400 C   0  0  0  0  0  0  0  0  0  0  0  0
   -2.6310   -0.4900    1.8130 C   0  0  0  0  0  0  0  0  0  0  0  0
   -2.5250   -0.0100    0.5290 C   0  0  0  0  0  0  0  0  0  0  0  0
   -2.7860   -0.8070   -0.5600 C   0  0  0  0  0  0  0  0  0  0  0  0
   -2.6860   -0.3140   -1.9560 C   0  0  0  0  0  0  0  0  0  0  0  0
   -1.2790   -0.5560   -2.4480 C   0  0  2  0  0  0  0  0  0  0  0  0
   -0.3490    0.1480   -1.6250 N   0  0  0  0  0  0  0  0  0  0  0  0
   -1.1360   -0.2810   -3.8810 C   0  0  0  0  0  0  0  0  0  0  0  0
   -0.2570    0.5110   -4.2780 O   0  0  0  0  0  0  0  0  0  0  0  0
   -3.1670   -2.1350   -0.3320 C   0  0  0  0  0  0  0  0  0  0  0  0
   -3.2720   -2.6070    0.9560 C   0  0  0  0  0  0  0  0  0  0  0  0
   -1.9520   -0.8760   -4.8190 O   0  0  0  0  0  0  0  0  0  0  0  0
   -3.3100   -1.8180    4.1270 H   0  0  0  0  0  0  0  0  0  0  0  0
   -2.4260    0.1410    2.6610 H   0  0  0  0  0  0  0  0  0  0  0  0
   -2.2290    1.0170    0.3620 H   0  0  0  0  0  0  0  0  0  0  0  0
   -2.9200    0.7830   -1.9290 H   0  0  0  0  0  0  0  0  0  0  0  0
   -3.4350   -0.8480   -2.5890 H   0  0  0  0  0  0  0  0  0  0  0  0
   -1.1080   -1.6720   -2.3390 H   0  0  0  0  0  0  0  0  0  0  0  0
   -0.4240    1.1900   -1.5920 H   0  0  0  0  0  0  0  0  0  0  0  0
   -3.3680   -2.7450   -1.2040 H   0  0  0  0  0  0  0  0  0  0  0  0
   -3.5720   -3.6510    1.1140 H   0  0  0  0  0  0  0  0  0  0  0  0
  1  8  1  0  0  0  0
  1  2  1  0  0  0  0
  2  3  1  0  0  0  0
  2  9  1  0  0  0  0
  3 12  1  0  0  0  0
  4 14  1  0  0  0  0
  4  3  1  0  0  0  0
  5 15  1  6  0  0  0
  5  4  1  0  0  0  0
  5  1  1  0  0  0  0
  6  7  2  0  0  0  0
  6  5  1  0  0  0  0
 10  2  1  0  0  0  0
 11  3  1  0  0  0  0
 13  4  1  0  0  0  0
 16  6  1  0  0  0  0
 17 16  1  0  0  0  0
 17 24  1  0  0  0  0
 18 17  1  0  0  0  0
 18 25  1  0  0  0  0
 19 27  1  0  0  0  0
 19 18  1  0  0  0  0
 19 20  1  0  0  0  0
 20 16  1  0  0  0  0
 20 29  1  1  0  0  0
 21 20  1  0  0  0  0
 22 21  2  0  0  0  0
 23 17  1  0  0  0  0
 26 18  1  0  0  0  0
 28 19  1  0  0  0  0
 30 43  1  0  0  0  0
 31 30  1  0  0  0  0
 32 31  1  0  0  0  0
 32 44  1  0  0  0  0
 33 32  2  0  0  0  0
 34 40  2  0  0  0  0
 34 33  1  0  0  0  0
 35 46  1  0  0  0  0
 35 34  1  0  0  0  0
 36 48  1  1  0  0  0
 36 35  1  0  0  0  0
 36 37  1  0  0  0  0
 37 49  1  0  0  0  0
 37 21  1  0  0  0  0
 38 36  1  0  0  0  0
 39 38  1  0  0  0  0
 40 41  1  0  0  0  0
 41 51  1  0  0  0  0
 41 31  2  0  0  0  0
 42 38  2  0  0  0  0
 45 33  1  0  0  0  0
 47 35  1  0  0  0  0
 50 40  1  0  0  0  0
M  END
$$$$
