PQC.pdb
 OpenBabel07022419033D

 44 44  0  0  1  0  0  0  0  0999 V2000
    3.1440   -3.1170    2.7510 N   0  0  0  0  0  0  0  0  0  0  0  0
    2.7560   -4.4010    3.3530 C   0  0  0  0  0  0  0  0  0  0  0  0
    1.2580   -4.2660    3.5340 C   0  0  0  0  0  0  0  0  0  0  0  0
    0.8270   -3.1730    2.5610 C   0  0  0  0  0  0  0  0  0  0  0  0
    2.0990   -2.9040    1.8090 C   0  0  1  0  0  0  0  0  0  0  0  0
    2.1240   -1.5250    1.2350 C   0  0  0  0  0  0  0  0  0  0  0  0
    3.0050   -0.7280    1.6090 O   0  0  0  0  0  0  0  0  0  0  0  0
    3.2180   -2.3750    3.4740 H   0  0  0  0  0  0  0  0  0  0  0  0
    2.9370   -5.1990    2.5970 H   0  0  0  0  0  0  0  0  0  0  0  0
    3.2910   -4.5910    4.2870 H   0  0  0  0  0  0  0  0  0  0  0  0
    0.9960   -4.0000    4.5730 H   0  0  0  0  0  0  0  0  0  0  0  0
    0.7410   -5.2030    3.2130 H   0  0  0  0  0  0  0  0  0  0  0  0
    0.4810   -2.3000    3.1490 H   0  0  0  0  0  0  0  0  0  0  0  0
    0.0550   -3.5250    1.8560 H   0  0  0  0  0  0  0  0  0  0  0  0
    2.1980   -3.6520    0.9950 H   0  0  0  0  0  0  0  0  0  0  0  0
    0.0260    3.5320   -2.8210 N   0  0  0  0  0  0  0  0  0  0  0  0
    0.2250    2.1300   -2.6160 C   0  0  0  0  0  0  0  0  0  0  0  0
   -0.7580    1.3350   -2.6150 O   0  0  0  0  0  0  0  0  0  0  0  0
    1.5730    1.5500   -2.4060 C   0  0  0  0  0  0  0  0  0  0  0  0
    1.5830    0.2410   -1.7100 C   0  0  0  0  0  0  0  0  0  0  0  0
    1.1910    0.2790   -0.3010 C   0  0  2  0  0  0  0  0  0  0  0  0
    1.1810   -1.0850    0.2790 N   0  0  0  0  0  0  0  0  0  0  0  0
    0.0740    1.0630    0.1790 C   0  0  0  0  0  0  0  0  0  0  0  0
   -0.0060    2.2960    0.0390 O   0  0  0  0  0  0  0  0  0  0  0  0
   -0.9430    3.9000   -2.7320 H   0  0  0  0  0  0  0  0  0  0  0  0
    0.8110    4.1620   -3.0490 H   0  0  0  0  0  0  0  0  0  0  0  0
    2.2050    2.2960   -1.8310 H   0  0  0  0  0  0  0  0  0  0  0  0
    2.1030    1.4910   -3.4120 H   0  0  0  0  0  0  0  0  0  0  0  0
    0.9500   -0.4480   -2.3410 H   0  0  0  0  0  0  0  0  0  0  0  0
    2.6530   -0.1340   -1.7400 H   0  0  0  0  0  0  0  0  0  0  0  0
    2.1030    0.7430    0.2380 H   0  0  0  0  0  0  0  0  0  0  0  0
    0.4500   -1.7650   -0.0240 H   0  0  0  0  0  0  0  0  0  0  0  0
   -0.9940    0.4060    0.8470 N   0  0  0  0  0  0  0  0  0  0  0  0
   -2.1560    1.0590    1.3710 C   0  0  1  0  0  0  0  0  0  0  0  0
   -3.4570    0.5110    0.8450 C   0  0  0  0  0  0  0  0  0  0  0  0
   -3.5850    0.6610   -0.9570 S   0  0  0  0  0  0  0  0  0  0  0  0
   -2.1590    0.8170    2.8560 C   0  0  0  0  0  0  0  0  0  0  0  0
   -1.2610    0.1500    3.4310 O   0  0  0  0  0  0  0  0  0  0  0  0
   -3.1810    1.3490    3.5910 O   0  0  0  0  0  0  0  0  0  0  0  0
   -0.9290   -0.6280    0.9650 H   0  0  0  0  0  0  0  0  0  0  0  0
   -2.0800    2.1370    1.1530 H   0  0  0  0  0  0  0  0  0  0  0  0
   -4.2900    1.1020    1.2720 H   0  0  0  0  0  0  0  0  0  0  0  0
   -3.6280   -0.5380    1.1600 H   0  0  0  0  0  0  0  0  0  0  0  0
   -2.7900   -0.3370   -1.5480 H   0  0  0  0  0  0  0  0  0  0  0  0
  1  2  1  0  0  0  0
  1  8  1  0  0  0  0
  2  3  1  0  0  0  0
  2 10  1  0  0  0  0
  3 11  1  0  0  0  0
  4 13  1  0  0  0  0
  4  3  1  0  0  0  0
  5 15  1  6  0  0  0
  5  4  1  0  0  0  0
  5  1  1  0  0  0  0
  6  7  2  0  0  0  0
  6  5  1  0  0  0  0
  9  2  1  0  0  0  0
 12  3  1  0  0  0  0
 14  4  1  0  0  0  0
 16 25  1  0  0  0  0
 16 17  1  0  0  0  0
 17 18  2  0  0  0  0
 17 19  1  0  0  0  0
 19 27  1  0  0  0  0
 19 20  1  0  0  0  0
 20 21  1  0  0  0  0
 21 23  1  0  0  0  0
 21 31  1  1  0  0  0
 21 22  1  0  0  0  0
 22  6  1  0  0  0  0
 23 33  1  0  0  0  0
 24 23  2  0  0  0  0
 26 16  1  0  0  0  0
 28 19  1  0  0  0  0
 29 20  1  0  0  0  0
 30 20  1  0  0  0  0
 32 22  1  0  0  0  0
 33 40  1  0  0  0  0
 33 34  1  0  0  0  0
 34 41  1  6  0  0  0
 34 37  1  0  0  0  0
 35 43  1  0  0  0  0
 35 42  1  0  0  0  0
 35 34  1  0  0  0  0
 36 35  1  0  0  0  0
 37 38  2  0  0  0  0
 37 39  1  0  0  0  0
 44 36  1  0  0  0  0
M  END
$$$$
