PQD.pdb
 OpenBabel07022419033D

 46 46  0  0  1  0  0  0  0  0999 V2000
    4.0080   -2.7370   -0.9770 N   0  0  0  0  0  0  0  0  0  0  0  0
    3.1050   -3.5560   -1.7490 C   0  0  0  0  0  0  0  0  0  0  0  0
    2.2670   -2.6350   -2.5960 C   0  0  0  0  0  0  0  0  0  0  0  0
    2.9340   -1.2920   -2.3910 C   0  0  0  0  0  0  0  0  0  0  0  0
    3.4120   -1.4110   -0.9380 C   0  0  1  0  0  0  0  0  0  0  0  0
    2.2160   -1.4440   -0.0500 C   0  0  0  0  0  0  0  0  0  0  0  0
    1.8790   -2.5140    0.5190 O   0  0  0  0  0  0  0  0  0  0  0  0
    4.9180   -2.6680   -1.5200 H   0  0  0  0  0  0  0  0  0  0  0  0
    3.6560   -4.2540   -2.4140 H   0  0  0  0  0  0  0  0  0  0  0  0
    2.4070   -4.1460   -1.1210 H   0  0  0  0  0  0  0  0  0  0  0  0
    1.2020   -2.5910   -2.2570 H   0  0  0  0  0  0  0  0  0  0  0  0
    2.2650   -2.9070   -3.6590 H   0  0  0  0  0  0  0  0  0  0  0  0
    2.2000   -0.5000   -2.5240 H   0  0  0  0  0  0  0  0  0  0  0  0
    3.8060   -1.2550   -3.0560 H   0  0  0  0  0  0  0  0  0  0  0  0
    4.1240   -0.6330   -0.6670 H   0  0  0  0  0  0  0  0  0  0  0  0
    2.8790    0.7020    5.1760 N   0  0  0  0  0  0  0  0  0  0  0  0
    1.8160    0.9610    4.2730 C   0  0  0  0  0  0  0  0  0  0  0  0
    1.0240    1.9140    4.4630 O   0  0  0  0  0  0  0  0  0  0  0  0
    1.6470    0.0880    3.0890 C   0  0  0  0  0  0  0  0  0  0  0  0
    0.4460    0.5600    2.2700 C   0  0  0  0  0  0  0  0  0  0  0  0
    0.2590   -0.3260    1.0530 C   0  0  2  0  0  0  0  0  0  0  0  0
    1.4210   -0.3030    0.1930 N   0  0  0  0  0  0  0  0  0  0  0  0
   -0.9590    0.1490    0.3510 C   0  0  0  0  0  0  0  0  0  0  0  0
   -0.8360    0.4950   -0.8510 O   0  0  0  0  0  0  0  0  0  0  0  0
    2.8610    1.0360    6.1830 H   0  0  0  0  0  0  0  0  0  0  0  0
    3.7160    0.1680    4.8640 H   0  0  0  0  0  0  0  0  0  0  0  0
    2.5580    0.0690    2.4660 H   0  0  0  0  0  0  0  0  0  0  0  0
    1.4830   -0.9480    3.4460 H   0  0  0  0  0  0  0  0  0  0  0  0
   -0.4520    0.5200    2.9130 H   0  0  0  0  0  0  0  0  0  0  0  0
    0.6090    1.6210    2.0000 H   0  0  0  0  0  0  0  0  0  0  0  0
    0.1320   -1.3690    1.4550 H   0  0  0  0  0  0  0  0  0  0  0  0
    1.6910    0.5900   -0.2720 H   0  0  0  0  0  0  0  0  0  0  0  0
   -2.1920    0.1910    1.0570 N   0  0  0  0  0  0  0  0  0  0  0  0
   -3.3870    0.6400    0.4220 C   0  0  1  0  0  0  0  0  0  0  0  0
   -4.5130   -0.3610    0.4750 C   0  0  0  0  0  0  0  0  0  0  0  0
   -4.9230   -0.7150    1.8280 C   0  0  0  0  0  0  0  0  0  0  0  0
   -5.8440   -1.5640    1.9700 O   0  0  0  0  0  0  0  0  0  0  0  0
   -3.8670    1.8700    1.0800 C   0  0  0  0  0  0  0  0  0  0  0  0
   -4.9050    2.4190    0.6670 O   0  0  0  0  0  0  0  0  0  0  0  0
   -4.3730   -0.1850    2.9610 O   0  0  0  0  0  0  0  0  0  0  0  0
   -3.1820    2.4130    2.1410 O   0  0  0  0  0  0  0  0  0  0  0  0
   -2.2340   -0.1090    2.0550 H   0  0  0  0  0  0  0  0  0  0  0  0
   -3.1520    0.9180   -0.6410 H   0  0  0  0  0  0  0  0  0  0  0  0
   -5.3930   -0.0140   -0.1020 H   0  0  0  0  0  0  0  0  0  0  0  0
   -4.1450   -1.2760   -0.0740 H   0  0  0  0  0  0  0  0  0  0  0  0
   -4.4370   -0.6690    3.8440 H   0  0  0  0  0  0  0  0  0  0  0  0
  1  5  1  0  0  0  0
  2 10  1  0  0  0  0
  2  1  1  0  0  0  0
  3  4  1  0  0  0  0
  3 11  1  0  0  0  0
  3  2  1  0  0  0  0
  4  5  1  0  0  0  0
  5 15  1  1  0  0  0
  5  6  1  0  0  0  0
  6 22  1  0  0  0  0
  6  7  2  0  0  0  0
  8  1  1  0  0  0  0
  9  2  1  0  0  0  0
 12  3  1  0  0  0  0
 13  4  1  0  0  0  0
 14  4  1  0  0  0  0
 16 25  1  0  0  0  0
 17 18  2  0  0  0  0
 17 16  1  0  0  0  0
 19 28  1  0  0  0  0
 19 17  1  0  0  0  0
 20 29  1  0  0  0  0
 20 19  1  0  0  0  0
 21 31  1  1  0  0  0
 21 20  1  0  0  0  0
 22 21  1  0  0  0  0
 23 21  1  0  0  0  0
 23 33  1  0  0  0  0
 24 23  2  0  0  0  0
 26 16  1  0  0  0  0
 27 19  1  0  0  0  0
 30 20  1  0  0  0  0
 32 22  1  0  0  0  0
 33 42  1  0  0  0  0
 34 43  1  6  0  0  0
 34 35  1  0  0  0  0
 34 33  1  0  0  0  0
 34 38  1  0  0  0  0
 35 36  1  0  0  0  0
 36 37  2  0  0  0  0
 36 40  1  0  0  0  0
 38 41  1  0  0  0  0
 39 38  2  0  0  0  0
 40 46  1  0  0  0  0
 44 35  1  0  0  0  0
 45 35  1  0  0  0  0
M  END
$$$$
