PQE.pdb
 OpenBabel07022419033D

 49 49  0  0  1  0  0  0  0  0999 V2000
   -0.1680   -2.3370    3.4860 N   0  0  0  0  0  0  0  0  0  0  0  0
   -1.3870   -3.0540    3.7140 C   0  0  0  0  0  0  0  0  0  0  0  0
   -1.5770   -4.0340    2.5790 C   0  0  0  0  0  0  0  0  0  0  0  0
   -0.8140   -3.3520    1.4510 C   0  0  0  0  0  0  0  0  0  0  0  0
    0.2720   -2.6070    2.1430 C   0  0  1  0  0  0  0  0  0  0  0  0
    0.6190   -1.3400    1.4090 C   0  0  0  0  0  0  0  0  0  0  0  0
    1.0350   -1.3830    0.2250 O   0  0  0  0  0  0  0  0  0  0  0  0
    0.5240   -2.6250    4.2110 H   0  0  0  0  0  0  0  0  0  0  0  0
   -1.3500   -3.6130    4.6830 H   0  0  0  0  0  0  0  0  0  0  0  0
   -2.2770   -2.3680    3.7580 H   0  0  0  0  0  0  0  0  0  0  0  0
   -2.6460   -4.1270    2.3160 H   0  0  0  0  0  0  0  0  0  0  0  0
   -1.1630   -5.0350    2.8070 H   0  0  0  0  0  0  0  0  0  0  0  0
   -1.5100   -2.6970    0.8970 H   0  0  0  0  0  0  0  0  0  0  0  0
   -0.4220   -4.1830    0.8120 H   0  0  0  0  0  0  0  0  0  0  0  0
    1.1760   -3.2730    2.1760 H   0  0  0  0  0  0  0  0  0  0  0  0
    4.6720   -0.7190    2.2890 N   0  0  0  0  0  0  0  0  0  0  0  0
    3.5160    0.0060    2.6760 C   0  0  0  0  0  0  0  0  0  0  0  0
    2.7780   -0.4860    3.5500 O   0  0  0  0  0  0  0  0  0  0  0  0
    3.2480    1.3000    2.0310 C   0  0  0  0  0  0  0  0  0  0  0  0
    1.9100    1.8720    2.1580 C   0  0  0  0  0  0  0  0  0  0  0  0
    0.7310    1.1990    1.5930 C   0  0  2  0  0  0  0  0  0  0  0  0
    0.4680   -0.1040    2.0890 N   0  0  0  0  0  0  0  0  0  0  0  0
    0.4260    1.4960    0.2000 C   0  0  0  0  0  0  0  0  0  0  0  0
    1.0320    2.4710   -0.3220 O   0  0  0  0  0  0  0  0  0  0  0  0
    5.6310   -0.3330    2.2570 H   0  0  0  0  0  0  0  0  0  0  0  0
    4.5820   -1.7300    2.0060 H   0  0  0  0  0  0  0  0  0  0  0  0
    3.9760    2.0110    2.5420 H   0  0  0  0  0  0  0  0  0  0  0  0
    3.6540    1.2710    0.9900 H   0  0  0  0  0  0  0  0  0  0  0  0
    1.7250    2.0190    3.2700 H   0  0  0  0  0  0  0  0  0  0  0  0
    1.9580    2.9460    1.8000 H   0  0  0  0  0  0  0  0  0  0  0  0
   -0.1820    1.8050    2.0930 H   0  0  0  0  0  0  0  0  0  0  0  0
    0.1130   -0.1910    3.0930 H   0  0  0  0  0  0  0  0  0  0  0  0
   -0.4910    0.7960   -0.6040 N   0  0  0  0  0  0  0  0  0  0  0  0
   -0.6720    1.2120   -1.9530 C   0  0  1  0  0  0  0  0  0  0  0  0
   -0.6860    0.2280   -3.0400 C   0  0  0  0  0  0  0  0  0  0  0  0
   -1.7120   -0.8190   -3.1150 C   0  0  0  0  0  0  0  0  0  0  0  0
   -1.8230   -1.7700   -2.0120 C   0  0  0  0  0  0  0  0  0  0  0  0
   -2.8400   -1.6880   -1.2460 O   0  0  0  0  0  0  0  0  0  0  0  0
   -1.9180    2.0920   -2.0570 C   0  0  0  0  0  0  0  0  0  0  0  0
   -2.5330    2.2820   -0.9890 O   0  0  0  0  0  0  0  0  0  0  0  0
   -0.8860   -2.7350   -1.7770 O   0  0  0  0  0  0  0  0  0  0  0  0
   -2.3090    2.6220   -3.2590 O   0  0  0  0  0  0  0  0  0  0  0  0
   -1.0720    0.0020   -0.2620 H   0  0  0  0  0  0  0  0  0  0  0  0
    0.1390    1.9660   -2.2080 H   0  0  0  0  0  0  0  0  0  0  0  0
    0.3190   -0.2770   -3.1440 H   0  0  0  0  0  0  0  0  0  0  0  0
   -0.7860    0.8320   -4.0100 H   0  0  0  0  0  0  0  0  0  0  0  0
   -2.7360   -0.3920   -3.3800 H   0  0  0  0  0  0  0  0  0  0  0  0
   -1.4520   -1.4500   -4.0330 H   0  0  0  0  0  0  0  0  0  0  0  0
   -1.1270   -3.6540   -1.4040 H   0  0  0  0  0  0  0  0  0  0  0  0
  1  2  1  0  0  0  0
  1  8  1  0  0  0  0
  2 10  1  0  0  0  0
  2  9  1  0  0  0  0
  3 12  1  0  0  0  0
  3  2  1  0  0  0  0
  4  5  1  0  0  0  0
  4  3  1  0  0  0  0
  5 15  1  1  0  0  0
  5  1  1  0  0  0  0
  6 22  1  0  0  0  0
  6  5  1  0  0  0  0
  7  6  2  0  0  0  0
 11  3  1  0  0  0  0
 13  4  1  0  0  0  0
 14  4  1  0  0  0  0
 16 17  1  0  0  0  0
 17 18  2  0  0  0  0
 19 20  1  0  0  0  0
 19 27  1  0  0  0  0
 19 17  1  0  0  0  0
 20 29  1  0  0  0  0
 21 22  1  0  0  0  0
 21 31  1  1  0  0  0
 21 20  1  0  0  0  0
 22 32  1  0  0  0  0
 23 21  1  0  0  0  0
 24 23  2  0  0  0  0
 25 16  1  0  0  0  0
 26 16  1  0  0  0  0
 28 19  1  0  0  0  0
 30 20  1  0  0  0  0
 33 43  1  0  0  0  0
 33 23  1  0  0  0  0
 34 44  1  6  0  0  0
 34 33  1  0  0  0  0
 35 34  1  0  0  0  0
 36 35  1  0  0  0  0
 36 37  1  0  0  0  0
 37 41  1  0  0  0  0
 37 38  2  0  0  0  0
 39 34  1  0  0  0  0
 39 40  1  0  0  0  0
 41 49  1  0  0  0  0
 42 39  2  0  0  0  0
 45 35  1  0  0  0  0
 46 35  1  0  0  0  0
 47 36  1  0  0  0  0
 48 36  1  0  0  0  0
M  END
$$$$
