PQF.pdb
 OpenBabel07022419033D

 53 54  0  0  1  0  0  0  0  0999 V2000
    4.3570   -2.5260    0.5400 N   0  0  0  0  0  0  0  0  0  0  0  0
    3.5070   -3.6480    0.2480 C   0  0  0  0  0  0  0  0  0  0  0  0
    2.7130   -3.3200   -0.9770 C   0  0  0  0  0  0  0  0  0  0  0  0
    3.1670   -1.9340   -1.3450 C   0  0  0  0  0  0  0  0  0  0  0  0
    3.6900   -1.4010   -0.0350 C   0  0  1  0  0  0  0  0  0  0  0  0
    2.5210   -1.0660    0.8560 C   0  0  0  0  0  0  0  0  0  0  0  0
    2.2800   -1.7370    1.8990 O   0  0  0  0  0  0  0  0  0  0  0  0
    4.3840   -2.3840    1.5810 H   0  0  0  0  0  0  0  0  0  0  0  0
    2.8650   -3.9580    1.0830 H   0  0  0  0  0  0  0  0  0  0  0  0
    4.1810   -4.5180    0.0320 H   0  0  0  0  0  0  0  0  0  0  0  0
    1.6270   -3.2660   -0.7740 H   0  0  0  0  0  0  0  0  0  0  0  0
    2.8850   -4.0610   -1.7750 H   0  0  0  0  0  0  0  0  0  0  0  0
    2.3250   -1.3090   -1.7370 H   0  0  0  0  0  0  0  0  0  0  0  0
    3.9960   -1.9490   -2.0740 H   0  0  0  0  0  0  0  0  0  0  0  0
    4.3340   -0.5100   -0.1640 H   0  0  0  0  0  0  0  0  0  0  0  0
    0.5520    4.3710   -0.5150 N   0  0  0  0  0  0  0  0  0  0  0  0
    0.1490    3.3350    0.3880 C   0  0  0  0  0  0  0  0  0  0  0  0
   -1.0190    2.9520    0.3710 O   0  0  0  0  0  0  0  0  0  0  0  0
    1.1620    2.7980    1.2810 C   0  0  0  0  0  0  0  0  0  0  0  0
    0.8550    1.6100    2.0930 C   0  0  0  0  0  0  0  0  0  0  0  0
    0.5150    0.3360    1.4290 C   0  0  2  0  0  0  0  0  0  0  0  0
    1.6560    0.0090    0.5580 N   0  0  0  0  0  0  0  0  0  0  0  0
   -0.7120    0.2130    0.6770 C   0  0  0  0  0  0  0  0  0  0  0  0
   -0.7210    0.0240   -0.5880 O   0  0  0  0  0  0  0  0  0  0  0  0
   -0.0120    5.2390   -0.6470 H   0  0  0  0  0  0  0  0  0  0  0  0
    1.4290    4.3040   -1.0840 H   0  0  0  0  0  0  0  0  0  0  0  0
    1.3600    3.6390    2.0360 H   0  0  0  0  0  0  0  0  0  0  0  0
    2.1740    2.7300    0.7770 H   0  0  0  0  0  0  0  0  0  0  0  0
    1.7230    1.4300    2.8020 H   0  0  0  0  0  0  0  0  0  0  0  0
    0.0310    1.9070    2.8190 H   0  0  0  0  0  0  0  0  0  0  0  0
    0.5480   -0.4380    2.2870 H   0  0  0  0  0  0  0  0  0  0  0  0
    1.8150    0.5900   -0.2910 H   0  0  0  0  0  0  0  0  0  0  0  0
   -2.0300    0.2840    1.2650 N   0  0  0  0  0  0  0  0  0  0  0  0
   -3.2410    0.1510    0.4810 C   0  0  1  0  0  0  0  0  0  0  0  0
   -3.8980   -1.1580    0.9390 C   0  0  0  0  0  0  0  0  0  0  0  0
   -3.0050   -2.3050    0.7080 C   0  0  0  0  0  0  0  0  0  0  0  0
   -2.0980   -2.7180    1.6890 C   0  0  0  0  0  0  0  0  0  0  0  0
   -1.2540   -3.7850    1.4980 C   0  0  0  0  0  0  0  0  0  0  0  0
   -1.2880   -4.4820    0.3120 C   0  0  0  0  0  0  0  0  0  0  0  0
   -2.1840   -4.0920   -0.6850 C   0  0  0  0  0  0  0  0  0  0  0  0
   -3.0140   -3.0210   -0.4630 C   0  0  0  0  0  0  0  0  0  0  0  0
   -4.1580    1.2760    0.6440 C   0  0  0  0  0  0  0  0  0  0  0  0
   -3.8590    2.2260    1.4040 O   0  0  0  0  0  0  0  0  0  0  0  0
   -5.3650    1.3260   -0.0250 O   0  0  0  0  0  0  0  0  0  0  0  0
   -2.0590    0.4380    2.2940 H   0  0  0  0  0  0  0  0  0  0  0  0
   -3.0100   -0.0110   -0.5980 H   0  0  0  0  0  0  0  0  0  0  0  0
   -4.8130   -1.2760    0.3070 H   0  0  0  0  0  0  0  0  0  0  0  0
   -4.2300   -1.0630    1.9870 H   0  0  0  0  0  0  0  0  0  0  0  0
   -2.0530   -2.1770    2.6430 H   0  0  0  0  0  0  0  0  0  0  0  0
   -0.5590   -4.0720    2.2980 H   0  0  0  0  0  0  0  0  0  0  0  0
   -0.6360   -5.3340    0.1210 H   0  0  0  0  0  0  0  0  0  0  0  0
   -2.1870   -4.6590   -1.6060 H   0  0  0  0  0  0  0  0  0  0  0  0
   -3.6970   -2.7370   -1.2440 H   0  0  0  0  0  0  0  0  0  0  0  0
  1  8  1  0  0  0  0
  2  1  1  0  0  0  0
  2  9  1  0  0  0  0
  3 11  1  0  0  0  0
  3  2  1  0  0  0  0
  4  3  1  0  0  0  0
  4  5  1  0  0  0  0
  5 15  1  6  0  0  0
  5  1  1  0  0  0  0
  5  6  1  0  0  0  0
  6  7  2  0  0  0  0
 10  2  1  0  0  0  0
 12  3  1  0  0  0  0
 13  4  1  0  0  0  0
 14  4  1  0  0  0  0
 16 17  1  0  0  0  0
 17 19  1  0  0  0  0
 18 17  2  0  0  0  0
 19 27  1  0  0  0  0
 19 20  1  0  0  0  0
 20 29  1  0  0  0  0
 20 30  1  0  0  0  0
 21 20  1  0  0  0  0
 21 31  1  1  0  0  0
 22  6  1  0  0  0  0
 22 21  1  0  0  0  0
 23 33  1  0  0  0  0
 23 21  1  0  0  0  0
 24 23  2  0  0  0  0
 25 16  1  0  0  0  0
 26 16  1  0  0  0  0
 28 19  1  0  0  0  0
 32 22  1  0  0  0  0
 33 45  1  0  0  0  0
 34 46  1  6  0  0  0
 34 42  1  0  0  0  0
 34 35  1  0  0  0  0
 34 33  1  0  0  0  0
 35 48  1  0  0  0  0
 36 35  1  0  0  0  0
 36 37  1  0  0  0  0
 37 49  1  0  0  0  0
 38 37  2  0  0  0  0
 38 50  1  0  0  0  0
 39 38  1  0  0  0  0
 40 41  1  0  0  0  0
 40 39  2  0  0  0  0
 41 36  2  0  0  0  0
 42 43  1  0  0  0  0
 44 42  2  0  0  0  0
 47 35  1  0  0  0  0
 51 39  1  0  0  0  0
 52 40  1  0  0  0  0
 53 41  1  0  0  0  0
M  END
$$$$
