PQH.pdb
 OpenBabel07022419033D

 50 51  0  0  1  0  0  0  0  0999 V2000
    2.2590   -2.0850    4.7750 N   0  0  0  0  0  0  0  0  0  0  0  0
    2.1090   -1.2430    5.9210 C   0  0  0  0  0  0  0  0  0  0  0  0
    1.6160    0.0660    5.3330 C   0  0  0  0  0  0  0  0  0  0  0  0
    0.7380   -0.3470    4.1550 C   0  0  0  0  0  0  0  0  0  0  0  0
    1.1960   -1.7400    3.8900 C   0  0  1  0  0  0  0  0  0  0  0  0
    1.6740   -1.9300    2.4930 C   0  0  0  0  0  0  0  0  0  0  0  0
    2.8430   -2.3320    2.2670 O   0  0  0  0  0  0  0  0  0  0  0  0
    3.1910   -2.0670    4.3200 H   0  0  0  0  0  0  0  0  0  0  0  0
    3.0760   -1.0750    6.4660 H   0  0  0  0  0  0  0  0  0  0  0  0
    1.3300   -1.6530    6.5940 H   0  0  0  0  0  0  0  0  0  0  0  0
    2.5040    0.6470    5.0190 H   0  0  0  0  0  0  0  0  0  0  0  0
    1.0510    0.5850    6.1250 H   0  0  0  0  0  0  0  0  0  0  0  0
    0.8980    0.3510    3.3300 H   0  0  0  0  0  0  0  0  0  0  0  0
   -0.3060   -0.3310    4.5460 H   0  0  0  0  0  0  0  0  0  0  0  0
    0.3460   -2.4450    4.1210 H   0  0  0  0  0  0  0  0  0  0  0  0
   -2.6770   -3.2750    0.3680 N   0  0  0  0  0  0  0  0  0  0  0  0
   -1.2790   -3.4960    0.3430 C   0  0  0  0  0  0  0  0  0  0  0  0
   -0.6800   -3.8600    1.3750 O   0  0  0  0  0  0  0  0  0  0  0  0
   -0.5590   -3.2940   -0.9090 C   0  0  0  0  0  0  0  0  0  0  0  0
    0.8890   -3.0780   -0.7230 C   0  0  0  0  0  0  0  0  0  0  0  0
    1.3340   -1.8570    0.0030 C   0  0  2  0  0  0  0  0  0  0  0  0
    0.8720   -1.6780    1.3360 N   0  0  0  0  0  0  0  0  0  0  0  0
    1.1580   -0.6800   -0.8680 C   0  0  0  0  0  0  0  0  0  0  0  0
    1.5500   -0.7530   -2.0550 O   0  0  0  0  0  0  0  0  0  0  0  0
   -3.0110   -2.2970    0.3880 H   0  0  0  0  0  0  0  0  0  0  0  0
   -3.3790   -4.0380    0.3670 H   0  0  0  0  0  0  0  0  0  0  0  0
   -1.0470   -2.5550   -1.5860 H   0  0  0  0  0  0  0  0  0  0  0  0
   -0.6620   -4.2680   -1.4860 H   0  0  0  0  0  0  0  0  0  0  0  0
    1.2930   -4.0220   -0.2360 H   0  0  0  0  0  0  0  0  0  0  0  0
    1.3580   -3.1380   -1.7550 H   0  0  0  0  0  0  0  0  0  0  0  0
    2.4870   -1.9870    0.0330 H   0  0  0  0  0  0  0  0  0  0  0  0
   -0.1020   -1.3150    1.5360 H   0  0  0  0  0  0  0  0  0  0  0  0
    0.5750    0.5360   -0.4540 N   0  0  0  0  0  0  0  0  0  0  0  0
    0.3820    1.7090   -1.2300 C   0  0  1  0  0  0  0  0  0  0  0  0
   -1.0130    2.1720   -1.4370 C   0  0  0  0  0  0  0  0  0  0  0  0
   -1.8780    1.1890   -2.1340 C   0  0  0  0  0  0  0  0  0  0  0  0
   -3.2090    1.4390   -2.4240 C   0  0  0  0  0  0  0  0  0  0  0  0
   -3.7250    0.3810   -3.0550 N   0  0  0  0  0  0  0  0  0  0  0  0
   -2.7320   -0.5200   -3.1590 C   0  0  0  0  0  0  0  0  0  0  0  0
   -1.6110   -0.0220   -2.5960 N   0  0  0  0  0  0  0  0  0  0  0  0
    1.1710    2.8330   -0.6640 C   0  0  0  0  0  0  0  0  0  0  0  0
    1.8850    2.7080    0.3670 O   0  0  0  0  0  0  0  0  0  0  0  0
    1.1470    4.0890   -1.2680 O   0  0  0  0  0  0  0  0  0  0  0  0
    0.2440    0.5760    0.5520 H   0  0  0  0  0  0  0  0  0  0  0  0
    0.8280    1.5000   -2.2480 H   0  0  0  0  0  0  0  0  0  0  0  0
   -0.9780    3.0710   -2.0880 H   0  0  0  0  0  0  0  0  0  0  0  0
   -1.4770    2.5210   -0.4830 H   0  0  0  0  0  0  0  0  0  0  0  0
   -3.7620    2.3550   -2.1810 H   0  0  0  0  0  0  0  0  0  0  0  0
   -4.7270    0.2860   -3.4030 H   0  0  0  0  0  0  0  0  0  0  0  0
   -2.8800   -1.4900   -3.6400 H   0  0  0  0  0  0  0  0  0  0  0  0
  1  2  1  0  0  0  0
  2  9  1  0  0  0  0
  2 10  1  0  0  0  0
  3  2  1  0  0  0  0
  3 12  1  0  0  0  0
  4 14  1  0  0  0  0
  4  3  1  0  0  0  0
  5 15  1  1  0  0  0
  5  4  1  0  0  0  0
  5  1  1  0  0  0  0
  6  5  1  0  0  0  0
  7  6  2  0  0  0  0
  8  1  1  0  0  0  0
 11  3  1  0  0  0  0
 13  4  1  0  0  0  0
 16 25  1  0  0  0  0
 17 16  1  0  0  0  0
 17 18  2  0  0  0  0
 19 20  1  0  0  0  0
 19 17  1  0  0  0  0
 20 29  1  0  0  0  0
 20 21  1  0  0  0  0
 21 31  1  1  0  0  0
 21 22  1  0  0  0  0
 22 32  1  0  0  0  0
 22  6  1  0  0  0  0
 23 33  1  0  0  0  0
 23 21  1  0  0  0  0
 24 23  2  0  0  0  0
 26 16  1  0  0  0  0
 27 19  1  0  0  0  0
 28 19  1  0  0  0  0
 30 20  1  0  0  0  0
 33 44  1  0  0  0  0
 34 45  1  6  0  0  0
 34 41  1  0  0  0  0
 34 33  1  0  0  0  0
 35 34  1  0  0  0  0
 35 47  1  0  0  0  0
 36 35  1  0  0  0  0
 37 48  1  0  0  0  0
 37 36  2  0  0  0  0
 38 37  1  0  0  0  0
 39 38  1  0  0  0  0
 39 40  2  0  0  0  0
 40 36  1  0  0  0  0
 41 42  1  0  0  0  0
 43 41  2  0  0  0  0
 46 35  1  0  0  0  0
 49 38  1  0  0  0  0
 50 39  1  0  0  0  0
M  END
$$$$
