PQI.pdb
 OpenBabel07022419033D

 52 52  0  0  1  0  0  0  0  0999 V2000
    3.3180   -3.2320    0.2310 N   0  0  0  0  0  0  0  0  0  0  0  0
    3.7120   -4.5490    0.6760 C   0  0  0  0  0  0  0  0  0  0  0  0
    3.2410   -4.7070    2.0910 C   0  0  0  0  0  0  0  0  0  0  0  0
    2.5390   -3.3810    2.3880 C   0  0  0  0  0  0  0  0  0  0  0  0
    2.1680   -2.9210    1.0160 C   0  0  1  0  0  0  0  0  0  0  0  0
    1.8010   -1.4800    0.9610 C   0  0  0  0  0  0  0  0  0  0  0  0
    2.5220   -0.7380    0.2550 O   0  0  0  0  0  0  0  0  0  0  0  0
    3.0040   -3.3220   -0.7750 H   0  0  0  0  0  0  0  0  0  0  0  0
    4.8200   -4.6650    0.6150 H   0  0  0  0  0  0  0  0  0  0  0  0
    3.2930   -5.3370    0.0040 H   0  0  0  0  0  0  0  0  0  0  0  0
    4.0610   -4.8990    2.8030 H   0  0  0  0  0  0  0  0  0  0  0  0
    2.4760   -5.5240    2.1080 H   0  0  0  0  0  0  0  0  0  0  0  0
    1.6610   -3.6210    3.0220 H   0  0  0  0  0  0  0  0  0  0  0  0
    3.2150   -2.6950    2.9110 H   0  0  0  0  0  0  0  0  0  0  0  0
    1.2950   -3.5020    0.6700 H   0  0  0  0  0  0  0  0  0  0  0  0
    4.6590    2.8790    2.1580 N   0  0  0  0  0  0  0  0  0  0  0  0
    3.4130    2.5900    1.5240 C   0  0  0  0  0  0  0  0  0  0  0  0
    3.1040    3.2140    0.4900 O   0  0  0  0  0  0  0  0  0  0  0  0
    2.5080    1.5450    2.1160 C   0  0  0  0  0  0  0  0  0  0  0  0
    1.3040    1.4630    1.2550 C   0  0  0  0  0  0  0  0  0  0  0  0
    0.2810    0.4170    1.6890 C   0  0  2  0  0  0  0  0  0  0  0  0
    0.7140   -0.9290    1.6450 N   0  0  0  0  0  0  0  0  0  0  0  0
   -1.0080    0.7470    1.1230 C   0  0  0  0  0  0  0  0  0  0  0  0
   -1.4000    1.9410    1.1580 O   0  0  0  0  0  0  0  0  0  0  0  0
    4.8270    2.6460    3.1530 H   0  0  0  0  0  0  0  0  0  0  0  0
    5.4370    3.3340    1.6330 H   0  0  0  0  0  0  0  0  0  0  0  0
    3.0380    0.6390    2.3180 H   0  0  0  0  0  0  0  0  0  0  0  0
    2.1950    2.0160    3.1030 H   0  0  0  0  0  0  0  0  0  0  0  0
    0.7780    2.4660    1.3150 H   0  0  0  0  0  0  0  0  0  0  0  0
    1.5130    1.3480    0.1730 H   0  0  0  0  0  0  0  0  0  0  0  0
    0.2890    0.6450    2.8420 H   0  0  0  0  0  0  0  0  0  0  0  0
    0.1460   -1.6480    2.2080 H   0  0  0  0  0  0  0  0  0  0  0  0
   -4.8910    1.5710   -1.8420 C   0  0  0  0  0  0  0  0  0  0  0  0
   -4.5570    0.1170   -2.0710 C   0  0  0  0  0  0  0  0  0  0  0  0
   -3.2250   -0.2480   -1.4850 C   0  0  2  0  0  0  0  0  0  0  0  0
   -2.9910   -1.7170   -1.7580 C   0  0  0  0  0  0  0  0  0  0  0  0
   -3.1570    0.1200   -0.0450 C   0  0  2  0  0  0  0  0  0  0  0  0
   -1.8520   -0.2200    0.5270 N   0  0  0  0  0  0  0  0  0  0  0  0
   -4.1460   -0.6370    0.7290 C   0  0  0  0  0  0  0  0  0  0  0  0
   -5.3620   -0.5050    0.5080 O   0  0  0  0  0  0  0  0  0  0  0  0
   -3.7450   -1.5100    1.7190 O   0  0  0  0  0  0  0  0  0  0  0  0
   -5.6130    1.7380   -1.0370 H   0  0  0  0  0  0  0  0  0  0  0  0
   -5.3370    1.9810   -2.7610 H   0  0  0  0  0  0  0  0  0  0  0  0
   -3.9610    2.1590   -1.6150 H   0  0  0  0  0  0  0  0  0  0  0  0
   -5.4080   -0.4970   -1.7350 H   0  0  0  0  0  0  0  0  0  0  0  0
   -4.5460   -0.0590   -3.2000 H   0  0  0  0  0  0  0  0  0  0  0  0
   -2.4640    0.3600   -2.0490 H   0  0  0  0  0  0  0  0  0  0  0  0
   -1.9850   -1.8380   -2.2070 H   0  0  0  0  0  0  0  0  0  0  0  0
   -3.7320   -2.1390   -2.4710 H   0  0  0  0  0  0  0  0  0  0  0  0
   -3.0420   -2.3310   -0.8310 H   0  0  0  0  0  0  0  0  0  0  0  0
   -3.3420    1.1920    0.0680 H   0  0  0  0  0  0  0  0  0  0  0  0
   -1.5800   -1.2260    0.4690 H   0  0  0  0  0  0  0  0  0  0  0  0
  1  2  1  0  0  0  0
  1  5  1  0  0  0  0
  2  3  1  0  0  0  0
  3 12  1  0  0  0  0
  3  4  1  0  0  0  0
  3 11  1  0  0  0  0
  4 14  1  0  0  0  0
  4 13  1  0  0  0  0
  5 15  1  6  0  0  0
  5  4  1  0  0  0  0
  6  5  1  0  0  0  0
  6 22  1  0  0  0  0
  7  6  2  0  0  0  0
  8  1  1  0  0  0  0
  9  2  1  0  0  0  0
 10  2  1  0  0  0  0
 16 25  1  0  0  0  0
 17 19  1  0  0  0  0
 17 16  1  0  0  0  0
 18 17  2  0  0  0  0
 19 27  1  0  0  0  0
 19 28  1  0  0  0  0
 20 29  1  0  0  0  0
 20 21  1  0  0  0  0
 20 19  1  0  0  0  0
 21 31  1  1  0  0  0
 22 21  1  0  0  0  0
 22 32  1  0  0  0  0
 23 24  2  0  0  0  0
 23 21  1  0  0  0  0
 26 16  1  0  0  0  0
 30 20  1  0  0  0  0
 33 44  1  0  0  0  0
 33 42  1  0  0  0  0
 34 33  1  0  0  0  0
 34 45  1  0  0  0  0
 34 35  1  0  0  0  0
 35 47  1  6  0  0  0
 35 37  1  0  0  0  0
 36 35  1  0  0  0  0
 36 50  1  0  0  0  0
 37 51  1  1  0  0  0
 37 38  1  0  0  0  0
 37 39  1  0  0  0  0
 38 23  1  0  0  0  0
 39 41  1  0  0  0  0
 40 39  2  0  0  0  0
 43 33  1  0  0  0  0
 46 34  1  0  0  0  0
 48 36  1  0  0  0  0
 49 36  1  0  0  0  0
 52 38  1  0  0  0  0
M  END
$$$$
