PQL.pdb
 OpenBabel07022419033D

 52 52  0  0  1  0  0  0  0  0999 V2000
    2.7660   -3.1070    2.7800 N   0  0  0  0  0  0  0  0  0  0  0  0
    2.3960   -4.4950    2.5770 C   0  0  0  0  0  0  0  0  0  0  0  0
    0.9980   -4.3790    2.0350 C   0  0  0  0  0  0  0  0  0  0  0  0
    1.1020   -3.1950    1.1010 C   0  0  0  0  0  0  0  0  0  0  0  0
    2.2040   -2.3630    1.6880 C   0  0  1  0  0  0  0  0  0  0  0  0
    1.6260   -1.0610    2.1440 C   0  0  0  0  0  0  0  0  0  0  0  0
    1.6970   -0.7900    3.3640 O   0  0  0  0  0  0  0  0  0  0  0  0
    3.8090   -3.0520    2.8210 H   0  0  0  0  0  0  0  0  0  0  0  0
    2.3350   -5.0190    3.5560 H   0  0  0  0  0  0  0  0  0  0  0  0
    3.0370   -5.0060    1.8580 H   0  0  0  0  0  0  0  0  0  0  0  0
    0.2840   -4.1600    2.8490 H   0  0  0  0  0  0  0  0  0  0  0  0
    0.6900   -5.3060    1.4880 H   0  0  0  0  0  0  0  0  0  0  0  0
    1.3330   -3.5120    0.0570 H   0  0  0  0  0  0  0  0  0  0  0  0
    0.1320   -2.6930    1.0980 H   0  0  0  0  0  0  0  0  0  0  0  0
    2.9870   -2.1840    0.9420 H   0  0  0  0  0  0  0  0  0  0  0  0
    4.7690    3.5000    1.0930 N   0  0  0  0  0  0  0  0  0  0  0  0
    3.3720    3.3690    0.8180 C   0  0  0  0  0  0  0  0  0  0  0  0
    2.7660    4.1820    0.0640 O   0  0  0  0  0  0  0  0  0  0  0  0
    2.6790    2.2270    1.4680 C   0  0  0  0  0  0  0  0  0  0  0  0
    1.2190    2.2830    1.0410 C   0  0  0  0  0  0  0  0  0  0  0  0
    0.4540    1.1200    1.6860 C   0  0  2  0  0  0  0  0  0  0  0  0
    1.0190   -0.1460    1.2710 N   0  0  0  0  0  0  0  0  0  0  0  0
   -0.9680    1.2270    1.2920 C   0  0  0  0  0  0  0  0  0  0  0  0
   -1.6690    2.2470    1.5490 O   0  0  0  0  0  0  0  0  0  0  0  0
    5.3460    2.6420    1.1340 H   0  0  0  0  0  0  0  0  0  0  0  0
    5.2420    4.4150    1.2550 H   0  0  0  0  0  0  0  0  0  0  0  0
    3.1290    1.2610    1.1880 H   0  0  0  0  0  0  0  0  0  0  0  0
    2.7830    2.3750    2.5600 H   0  0  0  0  0  0  0  0  0  0  0  0
    1.1070    2.2360   -0.0440 H   0  0  0  0  0  0  0  0  0  0  0  0
    0.8170    3.2440    1.4090 H   0  0  0  0  0  0  0  0  0  0  0  0
    0.5690    1.2630    2.7880 H   0  0  0  0  0  0  0  0  0  0  0  0
    0.9720   -0.3920    0.2610 H   0  0  0  0  0  0  0  0  0  0  0  0
   -2.9950   -1.0860   -3.4190 C   0  0  0  0  0  0  0  0  0  0  0  0
   -2.6740   -1.2050   -1.9090 C   0  0  0  0  0  0  0  0  0  0  0  0
   -3.4800   -2.4440   -1.4940 C   0  0  0  0  0  0  0  0  0  0  0  0
   -3.1540    0.0470   -1.2680 C   0  0  0  0  0  0  0  0  0  0  0  0
   -2.9460    0.1930    0.1900 C   0  0  2  0  0  0  0  0  0  0  0  0
   -1.5560    0.1350    0.5980 N   0  0  0  0  0  0  0  0  0  0  0  0
   -3.7100   -0.8180    0.9420 C   0  0  0  0  0  0  0  0  0  0  0  0
   -4.9400   -1.0390    0.8110 O   0  0  0  0  0  0  0  0  0  0  0  0
   -3.0660   -1.6300    1.8980 O   0  0  0  0  0  0  0  0  0  0  0  0
   -3.1090   -2.0960   -3.8600 H   0  0  0  0  0  0  0  0  0  0  0  0
   -2.2280   -0.4730   -3.9210 H   0  0  0  0  0  0  0  0  0  0  0  0
   -3.9860   -0.5870   -3.4510 H   0  0  0  0  0  0  0  0  0  0  0  0
   -1.5970   -1.3940   -1.8180 H   0  0  0  0  0  0  0  0  0  0  0  0
   -3.1660   -2.8340   -0.5190 H   0  0  0  0  0  0  0  0  0  0  0  0
   -3.2630   -3.2800   -2.2190 H   0  0  0  0  0  0  0  0  0  0  0  0
   -4.5550   -2.2620   -1.5840 H   0  0  0  0  0  0  0  0  0  0  0  0
   -4.2760    0.0730   -1.4340 H   0  0  0  0  0  0  0  0  0  0  0  0
   -2.7900    0.9140   -1.8640 H   0  0  0  0  0  0  0  0  0  0  0  0
   -3.3860    1.1940    0.5200 H   0  0  0  0  0  0  0  0  0  0  0  0
   -1.0340   -0.7350    0.3540 H   0  0  0  0  0  0  0  0  0  0  0  0
  1  8  1  0  0  0  0
  2  1  1  0  0  0  0
  2  9  1  0  0  0  0
  3  2  1  0  0  0  0
  3 11  1  0  0  0  0
  4  5  1  0  0  0  0
  4  3  1  0  0  0  0
  5 15  1  6  0  0  0
  5  6  1  0  0  0  0
  5  1  1  0  0  0  0
  6  7  2  0  0  0  0
 10  2  1  0  0  0  0
 12  3  1  0  0  0  0
 13  4  1  0  0  0  0
 14  4  1  0  0  0  0
 16 25  1  0  0  0  0
 16 26  1  0  0  0  0
 17 16  1  0  0  0  0
 17 19  1  0  0  0  0
 18 17  2  0  0  0  0
 19 28  1  0  0  0  0
 20 30  1  0  0  0  0
 20 19  1  0  0  0  0
 20 21  1  0  0  0  0
 21 31  1  1  0  0  0
 22 21  1  0  0  0  0
 22  6  1  0  0  0  0
 23 24  2  0  0  0  0
 23 21  1  0  0  0  0
 27 19  1  0  0  0  0
 29 20  1  0  0  0  0
 32 22  1  0  0  0  0
 33 34  1  0  0  0  0
 34 45  1  0  0  0  0
 34 35  1  0  0  0  0
 34 36  1  0  0  0  0
 35 46  1  0  0  0  0
 36 37  1  0  0  0  0
 37 51  1  1  0  0  0
 37 38  1  0  0  0  0
 37 39  1  0  0  0  0
 38 23  1  0  0  0  0
 39 41  1  0  0  0  0
 40 39  2  0  0  0  0
 42 33  1  0  0  0  0
 43 33  1  0  0  0  0
 44 33  1  0  0  0  0
 47 35  1  0  0  0  0
 48 35  1  0  0  0  0
 49 36  1  0  0  0  0
 50 36  1  0  0  0  0
 52 38  1  0  0  0  0
M  END
$$$$
