PQM.pdb
 OpenBabel07022419033D

 50 50  0  0  1  0  0  0  0  0999 V2000
    2.8400   -3.0430    0.5360 N   0  0  0  0  0  0  0  0  0  0  0  0
    4.0030   -3.9140    0.3770 C   0  0  0  0  0  0  0  0  0  0  0  0
    4.3390   -4.4360    1.7520 C   0  0  0  0  0  0  0  0  0  0  0  0
    3.2430   -3.8860    2.6320 C   0  0  0  0  0  0  0  0  0  0  0  0
    2.1260   -3.6770    1.6000 C   0  0  1  0  0  0  0  0  0  0  0  0
    1.1140   -2.8290    2.2380 C   0  0  0  0  0  0  0  0  0  0  0  0
    0.4430   -3.3100    3.1860 O   0  0  0  0  0  0  0  0  0  0  0  0
    2.3450   -3.0220   -0.3730 H   0  0  0  0  0  0  0  0  0  0  0  0
    3.6870   -4.8030   -0.2340 H   0  0  0  0  0  0  0  0  0  0  0  0
    4.8590   -3.3820   -0.0930 H   0  0  0  0  0  0  0  0  0  0  0  0
    5.3350   -4.0620    2.0590 H   0  0  0  0  0  0  0  0  0  0  0  0
    4.2780   -5.5490    1.8130 H   0  0  0  0  0  0  0  0  0  0  0  0
    2.8960   -4.5840    3.3940 H   0  0  0  0  0  0  0  0  0  0  0  0
    3.4890   -2.8730    3.0110 H   0  0  0  0  0  0  0  0  0  0  0  0
    1.6630   -4.6400    1.3080 H   0  0  0  0  0  0  0  0  0  0  0  0
    1.8040    2.8260    0.4550 N   0  0  0  0  0  0  0  0  0  0  0  0
    0.9000    2.1360    1.3460 C   0  0  0  0  0  0  0  0  0  0  0  0
   -0.3060    2.2490    1.0670 O   0  0  0  0  0  0  0  0  0  0  0  0
    1.4540    1.3880    2.4660 C   0  0  0  0  0  0  0  0  0  0  0  0
    0.5220    0.4920    3.1710 C   0  0  0  0  0  0  0  0  0  0  0  0
   -0.1020   -0.6220    2.4090 C   0  0  2  0  0  0  0  0  0  0  0  0
    0.8890   -1.4940    1.8040 N   0  0  0  0  0  0  0  0  0  0  0  0
   -1.2430   -0.2880    1.5670 C   0  0  0  0  0  0  0  0  0  0  0  0
   -2.2260    0.3180    2.1170 O   0  0  0  0  0  0  0  0  0  0  0  0
    1.6060    3.7370    0.0260 H   0  0  0  0  0  0  0  0  0  0  0  0
    2.7040    2.3410    0.2590 H   0  0  0  0  0  0  0  0  0  0  0  0
    2.3880    0.8620    2.1180 H   0  0  0  0  0  0  0  0  0  0  0  0
    1.8880    2.1800    3.1690 H   0  0  0  0  0  0  0  0  0  0  0  0
   -0.3240    1.0800    3.6520 H   0  0  0  0  0  0  0  0  0  0  0  0
    1.0750    0.1110    4.0890 H   0  0  0  0  0  0  0  0  0  0  0  0
   -0.5800   -1.2790    3.2440 H   0  0  0  0  0  0  0  0  0  0  0  0
    1.4800   -1.1590    1.0130 H   0  0  0  0  0  0  0  0  0  0  0  0
   -4.0880    3.4660   -0.8140 C   0  0  0  0  0  0  0  0  0  0  0  0
   -4.6360    1.8800   -1.5020 S   0  0  0  0  0  0  0  0  0  0  0  0
   -3.3350    1.1340   -2.5280 C   0  0  0  0  0  0  0  0  0  0  0  0
   -2.1500    0.7480   -1.6910 C   0  0  0  0  0  0  0  0  0  0  0  0
   -2.5310   -0.2190   -0.6210 C   0  0  2  0  0  0  0  0  0  0  0  0
   -1.3570   -0.5760    0.1920 N   0  0  0  0  0  0  0  0  0  0  0  0
   -3.1460   -1.4400   -1.1800 C   0  0  0  0  0  0  0  0  0  0  0  0
   -4.1930   -1.4880   -1.8610 O   0  0  0  0  0  0  0  0  0  0  0  0
   -2.4890   -2.6600   -0.9180 O   0  0  0  0  0  0  0  0  0  0  0  0
   -3.8850    4.2230   -1.5790 H   0  0  0  0  0  0  0  0  0  0  0  0
   -4.8210    3.8430   -0.0730 H   0  0  0  0  0  0  0  0  0  0  0  0
   -3.1300    3.3410   -0.2300 H   0  0  0  0  0  0  0  0  0  0  0  0
   -3.0090    1.8850   -3.3240 H   0  0  0  0  0  0  0  0  0  0  0  0
   -3.7770    0.3200   -3.1120 H   0  0  0  0  0  0  0  0  0  0  0  0
   -1.6280    1.6490   -1.2940 H   0  0  0  0  0  0  0  0  0  0  0  0
   -1.4190    0.2300   -2.3840 H   0  0  0  0  0  0  0  0  0  0  0  0
   -3.3050    0.2800    0.0150 H   0  0  0  0  0  0  0  0  0  0  0  0
   -0.5880   -1.0660   -0.3050 H   0  0  0  0  0  0  0  0  0  0  0  0
  1  5  1  0  0  0  0
  2  1  1  0  0  0  0
  2  3  1  0  0  0  0
  3 12  1  0  0  0  0
  3 11  1  0  0  0  0
  3  4  1  0  0  0  0
  4 14  1  0  0  0  0
  4 13  1  0  0  0  0
  5 15  1  6  0  0  0
  5  6  1  0  0  0  0
  5  4  1  0  0  0  0
  6  7  2  0  0  0  0
  8  1  1  0  0  0  0
  9  2  1  0  0  0  0
 10  2  1  0  0  0  0
 16 17  1  0  0  0  0
 17 19  1  0  0  0  0
 18 17  2  0  0  0  0
 19 28  1  0  0  0  0
 19 20  1  0  0  0  0
 20 29  1  0  0  0  0
 20 30  1  0  0  0  0
 21 20  1  0  0  0  0
 21 31  1  1  0  0  0
 22  6  1  0  0  0  0
 22 21  1  0  0  0  0
 23 24  2  0  0  0  0
 23 21  1  0  0  0  0
 25 16  1  0  0  0  0
 26 16  1  0  0  0  0
 27 19  1  0  0  0  0
 32 22  1  0  0  0  0
 33 44  1  0  0  0  0
 33 43  1  0  0  0  0
 34 33  1  0  0  0  0
 35 36  1  0  0  0  0
 35 34  1  0  0  0  0
 36 47  1  0  0  0  0
 36 37  1  0  0  0  0
 37 49  1  1  0  0  0
 37 38  1  0  0  0  0
 38 23  1  0  0  0  0
 39 41  1  0  0  0  0
 39 37  1  0  0  0  0
 40 39  2  0  0  0  0
 42 33  1  0  0  0  0
 45 35  1  0  0  0  0
 46 35  1  0  0  0  0
 48 36  1  0  0  0  0
 50 38  1  0  0  0  0
M  END
$$$$
