PQQ.pdb
 OpenBabel07022419033D

 50 50  0  0  1  0  0  0  0  0999 V2000
    0.5480   -2.8880    2.9850 N   0  0  0  0  0  0  0  0  0  0  0  0
    0.7120   -4.3220    2.9410 C   0  0  0  0  0  0  0  0  0  0  0  0
    1.9830   -4.5560    2.1420 C   0  0  0  0  0  0  0  0  0  0  0  0
    2.8170   -3.3840    2.6030 C   0  0  0  0  0  0  0  0  0  0  0  0
    1.8020   -2.2720    2.7120 C   0  0  1  0  0  0  0  0  0  0  0  0
    1.7910   -1.4000    1.4990 C   0  0  0  0  0  0  0  0  0  0  0  0
    2.8120   -0.7400    1.2160 O   0  0  0  0  0  0  0  0  0  0  0  0
    0.1920   -2.6210    3.9160 H   0  0  0  0  0  0  0  0  0  0  0  0
    0.8790   -4.7620    3.9370 H   0  0  0  0  0  0  0  0  0  0  0  0
   -0.1510   -4.8410    2.4800 H   0  0  0  0  0  0  0  0  0  0  0  0
    1.7060   -4.5170    1.0840 H   0  0  0  0  0  0  0  0  0  0  0  0
    2.4520   -5.5230    2.3500 H   0  0  0  0  0  0  0  0  0  0  0  0
    3.1290   -3.6340    3.6540 H   0  0  0  0  0  0  0  0  0  0  0  0
    3.6780   -3.1640    1.9740 H   0  0  0  0  0  0  0  0  0  0  0  0
    2.1430   -1.6350    3.5770 H   0  0  0  0  0  0  0  0  0  0  0  0
    0.8770   -0.5360   -5.4910 N   0  0  0  0  0  0  0  0  0  0  0  0
    0.8700   -1.2030   -4.2550 C   0  0  0  0  0  0  0  0  0  0  0  0
    0.9470   -2.4560   -4.2130 O   0  0  0  0  0  0  0  0  0  0  0  0
    0.7670   -0.3690   -3.0110 C   0  0  0  0  0  0  0  0  0  0  0  0
    0.7400   -1.2310   -1.7860 C   0  0  0  0  0  0  0  0  0  0  0  0
    0.6890   -0.4050   -0.5440 C   0  0  2  0  0  0  0  0  0  0  0  0
    0.6680   -1.2790    0.6390 N   0  0  0  0  0  0  0  0  0  0  0  0
   -0.3640    0.6030   -0.4590 C   0  0  0  0  0  0  0  0  0  0  0  0
   -0.5060    1.5250   -1.3290 O   0  0  0  0  0  0  0  0  0  0  0  0
    0.9090   -1.0690   -6.3750 H   0  0  0  0  0  0  0  0  0  0  0  0
    0.8530    0.5050   -5.5810 H   0  0  0  0  0  0  0  0  0  0  0  0
   -0.1820    0.2230   -3.0840 H   0  0  0  0  0  0  0  0  0  0  0  0
    1.6510    0.2870   -2.9580 H   0  0  0  0  0  0  0  0  0  0  0  0
    1.7310   -1.7700   -1.7640 H   0  0  0  0  0  0  0  0  0  0  0  0
   -0.0580   -2.0070   -1.8320 H   0  0  0  0  0  0  0  0  0  0  0  0
    1.6880    0.1290   -0.4840 H   0  0  0  0  0  0  0  0  0  0  0  0
   -0.1630   -1.8550    0.8850 H   0  0  0  0  0  0  0  0  0  0  0  0
   -0.2250    0.5100    4.3250 N   0  0  0  0  0  0  0  0  0  0  0  0
   -0.6170    1.4570    3.3490 C   0  0  0  0  0  0  0  0  0  0  0  0
    0.2340    1.8070    2.4610 O   0  0  0  0  0  0  0  0  0  0  0  0
   -1.9400    2.0810    3.2780 C   0  0  0  0  0  0  0  0  0  0  0  0
   -2.2610    2.5110    1.8730 C   0  0  0  0  0  0  0  0  0  0  0  0
   -2.3730    1.4310    0.8740 C   0  0  2  0  0  0  0  0  0  0  0  0
   -1.2810    0.5780    0.6240 N   0  0  0  0  0  0  0  0  0  0  0  0
   -3.1090    1.8790   -0.3650 C   0  0  0  0  0  0  0  0  0  0  0  0
   -4.0040    2.7580   -0.1970 O   0  0  0  0  0  0  0  0  0  0  0  0
   -2.9120    1.4350   -1.6360 O   0  0  0  0  0  0  0  0  0  0  0  0
    0.7400    0.1060    4.3290 H   0  0  0  0  0  0  0  0  0  0  0  0
   -0.8850    0.1960    5.0590 H   0  0  0  0  0  0  0  0  0  0  0  0
   -1.8650    3.0390    3.8790 H   0  0  0  0  0  0  0  0  0  0  0  0
   -2.7450    1.4560    3.7240 H   0  0  0  0  0  0  0  0  0  0  0  0
   -3.2490    3.0330    1.9220 H   0  0  0  0  0  0  0  0  0  0  0  0
   -1.4990    3.2890    1.6150 H   0  0  0  0  0  0  0  0  0  0  0  0
   -3.1860    0.7080    1.3200 H   0  0  0  0  0  0  0  0  0  0  0  0
   -1.1150   -0.2050    1.3430 H   0  0  0  0  0  0  0  0  0  0  0  0
  1  8  1  0  0  0  0
  2  1  1  0  0  0  0
  2  9  1  0  0  0  0
  3 12  1  0  0  0  0
  3  4  1  0  0  0  0
  3  2  1  0  0  0  0
  4  5  1  0  0  0  0
  4 13  1  0  0  0  0
  5  1  1  0  0  0  0
  5 15  1  1  0  0  0
  6  5  1  0  0  0  0
  7  6  2  0  0  0  0
 10  2  1  0  0  0  0
 11  3  1  0  0  0  0
 14  4  1  0  0  0  0
 16 17  1  0  0  0  0
 17 18  2  0  0  0  0
 17 19  1  0  0  0  0
 19 28  1  0  0  0  0
 19 20  1  0  0  0  0
 20 29  1  0  0  0  0
 20 21  1  0  0  0  0
 21 31  1  1  0  0  0
 21 23  1  0  0  0  0
 21 22  1  0  0  0  0
 22 32  1  0  0  0  0
 22  6  1  0  0  0  0
 23 39  1  0  0  0  0
 24 23  2  0  0  0  0
 25 16  1  0  0  0  0
 26 16  1  0  0  0  0
 27 19  1  0  0  0  0
 30 20  1  0  0  0  0
 33 43  1  0  0  0  0
 33 44  1  0  0  0  0
 34 33  1  0  0  0  0
 35 34  2  0  0  0  0
 36 34  1  0  0  0  0
 36 46  1  0  0  0  0
 36 45  1  0  0  0  0
 37 47  1  0  0  0  0
 37 36  1  0  0  0  0
 38 49  1  1  0  0  0
 38 37  1  0  0  0  0
 39 38  1  0  0  0  0
 39 50  1  0  0  0  0
 40 41  1  0  0  0  0
 40 38  1  0  0  0  0
 42 40  2  0  0  0  0
 48 37  1  0  0  0  0
M  END
$$$$
