PQR.pdb
 OpenBabel07022419033D

 56 56  0  0  1  0  0  0  0  0999 V2000
    1.4790   -0.3740    3.9980 N   0  0  0  0  0  0  0  0  0  0  0  0
    0.7920   -1.4570    4.6650 C   0  0  0  0  0  0  0  0  0  0  0  0
    0.2860   -2.3360    3.5440 C   0  0  0  0  0  0  0  0  0  0  0  0
    1.4620   -2.2960    2.5790 C   0  0  0  0  0  0  0  0  0  0  0  0
    1.9630   -0.8910    2.7330 C   0  0  1  0  0  0  0  0  0  0  0  0
    1.4040   -0.0310    1.6600 C   0  0  0  0  0  0  0  0  0  0  0  0
    0.6320    0.9520    1.9220 O   0  0  0  0  0  0  0  0  0  0  0  0
    2.2620   -0.0520    4.6080 H   0  0  0  0  0  0  0  0  0  0  0  0
   -0.0790   -1.1210    5.2650 H   0  0  0  0  0  0  0  0  0  0  0  0
    1.4870   -2.0490    5.2860 H   0  0  0  0  0  0  0  0  0  0  0  0
   -0.6070   -1.9470    3.0540 H   0  0  0  0  0  0  0  0  0  0  0  0
    0.1430   -3.3860    3.8490 H   0  0  0  0  0  0  0  0  0  0  0  0
    1.0590   -2.5440    1.5980 H   0  0  0  0  0  0  0  0  0  0  0  0
    2.2350   -3.0510    2.8630 H   0  0  0  0  0  0  0  0  0  0  0  0
    3.0730   -0.8250    2.6770 H   0  0  0  0  0  0  0  0  0  0  0  0
    2.8930    3.9840    1.1600 N   0  0  0  0  0  0  0  0  0  0  0  0
    2.2970    3.2730    0.0990 C   0  0  0  0  0  0  0  0  0  0  0  0
    1.1360    3.5570   -0.2610 O   0  0  0  0  0  0  0  0  0  0  0  0
    3.0300    2.2000   -0.5910 C   0  0  0  0  0  0  0  0  0  0  0  0
    2.1870    1.3710   -1.5190 C   0  0  0  0  0  0  0  0  0  0  0  0
    1.1010    0.6650   -0.7430 C   0  0  2  0  0  0  0  0  0  0  0  0
    1.6690   -0.2110    0.2720 N   0  0  0  0  0  0  0  0  0  0  0  0
    0.2430   -0.1610   -1.6230 C   0  0  0  0  0  0  0  0  0  0  0  0
   -0.4020    0.3020   -2.5910 O   0  0  0  0  0  0  0  0  0  0  0  0
    3.5400    3.5690    1.8640 H   0  0  0  0  0  0  0  0  0  0  0  0
    2.6730    5.0030    1.2520 H   0  0  0  0  0  0  0  0  0  0  0  0
    3.8750    2.6950   -1.1280 H   0  0  0  0  0  0  0  0  0  0  0  0
    3.4410    1.5200    0.2070 H   0  0  0  0  0  0  0  0  0  0  0  0
    1.7580    1.9840   -2.3380 H   0  0  0  0  0  0  0  0  0  0  0  0
    2.8690    0.5720   -1.9340 H   0  0  0  0  0  0  0  0  0  0  0  0
    0.4340    1.4200   -0.2930 H   0  0  0  0  0  0  0  0  0  0  0  0
    2.2820   -0.9860   -0.0360 H   0  0  0  0  0  0  0  0  0  0  0  0
   -5.0770   -2.0130    2.3690 N   0  0  0  0  0  0  0  0  0  0  0  0
   -3.9080   -1.9330    1.5360 C   0  0  0  0  0  0  0  0  0  0  0  0
   -2.9980   -2.8460    1.5780 N   0  0  0  0  0  0  0  0  0  0  0  0
   -3.6990   -0.8560    0.6350 N   0  0  0  0  0  0  0  0  0  0  0  0
   -2.7090   -0.9420   -0.4300 C   0  0  0  0  0  0  0  0  0  0  0  0
   -3.0680   -1.9230   -1.4770 C   0  0  0  0  0  0  0  0  0  0  0  0
   -2.1150   -2.0190   -2.6260 C   0  0  0  0  0  0  0  0  0  0  0  0
   -0.7450   -2.3780   -2.2790 C   0  0  2  0  0  0  0  0  0  0  0  0
    0.0600   -1.5840   -1.4590 N   0  0  0  0  0  0  0  0  0  0  0  0
   -0.0080   -2.7010   -3.5310 C   0  0  0  0  0  0  0  0  0  0  0  0
    1.1530   -2.2550   -3.6780 O   0  0  0  0  0  0  0  0  0  0  0  0
   -0.5310   -3.4700   -4.5500 O   0  0  0  0  0  0  0  0  0  0  0  0
   -5.8540   -2.6600    2.2130 H   0  0  0  0  0  0  0  0  0  0  0  0
   -5.1010   -1.3520    3.1770 H   0  0  0  0  0  0  0  0  0  0  0  0
   -3.0480   -3.6780    2.2000 H   0  0  0  0  0  0  0  0  0  0  0  0
   -4.2780   -0.0010    0.7610 H   0  0  0  0  0  0  0  0  0  0  0  0
   -2.5560    0.0460   -0.8790 H   0  0  0  0  0  0  0  0  0  0  0  0
   -1.7360   -1.2660    0.0080 H   0  0  0  0  0  0  0  0  0  0  0  0
   -3.2000   -2.9630   -1.0910 H   0  0  0  0  0  0  0  0  0  0  0  0
   -4.1090   -1.6510   -1.8300 H   0  0  0  0  0  0  0  0  0  0  0  0
   -2.5630   -2.8150   -3.3030 H   0  0  0  0  0  0  0  0  0  0  0  0
   -2.2630   -1.0980   -3.2200 H   0  0  0  0  0  0  0  0  0  0  0  0
   -0.8230   -3.3980   -1.7510 H   0  0  0  0  0  0  0  0  0  0  0  0
    0.5890   -1.9970   -0.6640 H   0  0  0  0  0  0  0  0  0  0  0  0
  1  8  1  0  0  0  0
  1  2  1  0  0  0  0
  2  9  1  0  0  0  0
  2 10  1  0  0  0  0
  3 12  1  0  0  0  0
  3  2  1  0  0  0  0
  4  5  1  0  0  0  0
  4 14  1  0  0  0  0
  4  3  1  0  0  0  0
  5 15  1  6  0  0  0
  5  1  1  0  0  0  0
  6  7  2  0  0  0  0
  6  5  1  0  0  0  0
 11  3  1  0  0  0  0
 13  4  1  0  0  0  0
 16 26  1  0  0  0  0
 16 25  1  0  0  0  0
 17 16  1  0  0  0  0
 18 17  2  0  0  0  0
 19 17  1  0  0  0  0
 19 28  1  0  0  0  0
 20 21  1  0  0  0  0
 20 19  1  0  0  0  0
 21 31  1  1  0  0  0
 21 22  1  0  0  0  0
 22  6  1  0  0  0  0
 23 41  1  0  0  0  0
 23 21  1  0  0  0  0
 24 23  2  0  0  0  0
 27 19  1  0  0  0  0
 29 20  1  0  0  0  0
 30 20  1  0  0  0  0
 32 22  1  0  0  0  0
 33 46  1  0  0  0  0
 34 35  2  0  0  0  0
 34 33  1  0  0  0  0
 35 47  1  0  0  0  0
 36 48  1  0  0  0  0
 36 34  1  0  0  0  0
 37 50  1  0  0  0  0
 37 36  1  0  0  0  0
 38 51  1  0  0  0  0
 38 37  1  0  0  0  0
 39 40  1  0  0  0  0
 39 38  1  0  0  0  0
 40 55  1  1  0  0  0
 40 41  1  0  0  0  0
 41 56  1  0  0  0  0
 42 40  1  0  0  0  0
 43 42  1  0  0  0  0
 44 42  2  0  0  0  0
 45 33  1  0  0  0  0
 49 37  1  0  0  0  0
 52 38  1  0  0  0  0
 53 39  1  0  0  0  0
 54 39  1  0  0  0  0
M  END
$$$$
