PQT.pdb
 OpenBabel07022419043D

 47 47  0  0  1  0  0  0  0  0999 V2000
    3.0330   -3.3530    0.9210 N   0  0  0  0  0  0  0  0  0  0  0  0
    3.9320   -4.4810    1.1020 C   0  0  0  0  0  0  0  0  0  0  0  0
    3.9760   -4.5860    2.6170 C   0  0  0  0  0  0  0  0  0  0  0  0
    2.6590   -4.0020    3.0920 C   0  0  0  0  0  0  0  0  0  0  0  0
    1.9540   -3.7000    1.7990 C   0  0  1  0  0  0  0  0  0  0  0  0
    0.9330   -2.6410    1.9230 C   0  0  0  0  0  0  0  0  0  0  0  0
   -0.0510   -2.8770    2.6830 O   0  0  0  0  0  0  0  0  0  0  0  0
    2.7720   -3.2440   -0.0710 H   0  0  0  0  0  0  0  0  0  0  0  0
    3.4140   -5.3650    0.6820 H   0  0  0  0  0  0  0  0  0  0  0  0
    4.9300   -4.3070    0.6620 H   0  0  0  0  0  0  0  0  0  0  0  0
    4.8200   -3.9200    2.9460 H   0  0  0  0  0  0  0  0  0  0  0  0
    4.1240   -5.6270    2.9600 H   0  0  0  0  0  0  0  0  0  0  0  0
    2.8200   -3.1050    3.7160 H   0  0  0  0  0  0  0  0  0  0  0  0
    2.1300   -4.8100    3.6290 H   0  0  0  0  0  0  0  0  0  0  0  0
    1.4920   -4.6300    1.4380 H   0  0  0  0  0  0  0  0  0  0  0  0
    2.8220    2.7950   -0.1310 N   0  0  0  0  0  0  0  0  0  0  0  0
    1.6360    2.1470    0.3770 C   0  0  0  0  0  0  0  0  0  0  0  0
    0.6000    2.1180   -0.3230 O   0  0  0  0  0  0  0  0  0  0  0  0
    1.6360    1.5230    1.7070 C   0  0  0  0  0  0  0  0  0  0  0  0
    0.4450    0.8050    2.1660 C   0  0  0  0  0  0  0  0  0  0  0  0
   -0.0430   -0.3710    1.4010 C   0  0  2  0  0  0  0  0  0  0  0  0
    0.9670   -1.4060    1.2710 N   0  0  0  0  0  0  0  0  0  0  0  0
   -0.8540   -0.1370    0.2180 C   0  0  0  0  0  0  0  0  0  0  0  0
   -0.6460   -0.6530   -0.9260 O   0  0  0  0  0  0  0  0  0  0  0  0
    2.8960    2.9590   -1.1420 H   0  0  0  0  0  0  0  0  0  0  0  0
    3.5430    3.0650    0.5430 H   0  0  0  0  0  0  0  0  0  0  0  0
    1.7730    2.4010    2.4260 H   0  0  0  0  0  0  0  0  0  0  0  0
    2.5980    0.9530    1.8820 H   0  0  0  0  0  0  0  0  0  0  0  0
    0.5970    0.4620    3.2380 H   0  0  0  0  0  0  0  0  0  0  0  0
   -0.3880    1.5690    2.2820 H   0  0  0  0  0  0  0  0  0  0  0  0
   -0.7910   -0.8670    2.1390 H   0  0  0  0  0  0  0  0  0  0  0  0
    1.8020   -1.2250    0.6360 H   0  0  0  0  0  0  0  0  0  0  0  0
   -5.2160    0.8550   -1.6420 C   0  0  0  0  0  0  0  0  0  0  0  0
   -4.2590    0.5610   -0.5070 C   0  0  1  0  0  0  0  0  0  0  0  0
   -4.2530   -0.7970   -0.1760 O   0  0  0  0  0  0  0  0  0  0  0  0
   -2.8300    0.9840   -0.8740 C   0  0  2  0  0  0  0  0  0  0  0  0
   -2.0010    0.7360    0.2870 N   0  0  0  0  0  0  0  0  0  0  0  0
   -2.9070    2.4530   -1.1480 C   0  0  0  0  0  0  0  0  0  0  0  0
   -2.2880    3.2400   -0.3910 O   0  0  0  0  0  0  0  0  0  0  0  0
   -3.6340    2.9570   -2.2020 O   0  0  0  0  0  0  0  0  0  0  0  0
   -6.0250    0.0700   -1.5760 H   0  0  0  0  0  0  0  0  0  0  0  0
   -4.7400    0.7150   -2.6350 H   0  0  0  0  0  0  0  0  0  0  0  0
   -5.7140    1.8230   -1.5400 H   0  0  0  0  0  0  0  0  0  0  0  0
   -4.5440    1.1770    0.3540 H   0  0  0  0  0  0  0  0  0  0  0  0
   -4.1480   -0.9430    0.8000 H   0  0  0  0  0  0  0  0  0  0  0  0
   -2.4850    0.4540   -1.7660 H   0  0  0  0  0  0  0  0  0  0  0  0
   -2.1950    1.1720    1.2110 H   0  0  0  0  0  0  0  0  0  0  0  0
  1  2  1  0  0  0  0
  1  5  1  0  0  0  0
  2  3  1  0  0  0  0
  3 11  1  0  0  0  0
  3 12  1  0  0  0  0
  3  4  1  0  0  0  0
  4 14  1  0  0  0  0
  4 13  1  0  0  0  0
  5 15  1  6  0  0  0
  5  6  1  0  0  0  0
  5  4  1  0  0  0  0
  6  7  2  0  0  0  0
  8  1  1  0  0  0  0
  9  2  1  0  0  0  0
 10  2  1  0  0  0  0
 16 17  1  0  0  0  0
 16 26  1  0  0  0  0
 17 19  1  0  0  0  0
 18 17  2  0  0  0  0
 19 28  1  0  0  0  0
 19 20  1  0  0  0  0
 19 27  1  0  0  0  0
 20 30  1  0  0  0  0
 20 29  1  0  0  0  0
 21 31  1  1  0  0  0
 21 20  1  0  0  0  0
 22 21  1  0  0  0  0
 22  6  1  0  0  0  0
 23 37  1  0  0  0  0
 23 21  1  0  0  0  0
 24 23  2  0  0  0  0
 25 16  1  0  0  0  0
 32 22  1  0  0  0  0
 33 41  1  0  0  0  0
 33 43  1  0  0  0  0
 33 34  1  0  0  0  0
 34 35  1  0  0  0  0
 34 44  1  1  0  0  0
 35 45  1  0  0  0  0
 36 46  1  6  0  0  0
 36 34  1  0  0  0  0
 36 37  1  0  0  0  0
 37 47  1  0  0  0  0
 38 36  1  0  0  0  0
 38 39  1  0  0  0  0
 40 38  2  0  0  0  0
 42 33  1  0  0  0  0
M  END
$$$$
