PQV.pdb
 OpenBabel07022419043D

 49 49  0  0  1  0  0  0  0  0999 V2000
    2.3560   -4.1050    1.3220 N   0  0  0  0  0  0  0  0  0  0  0  0
    3.0260   -4.0200    2.5850 C   0  0  0  0  0  0  0  0  0  0  0  0
    2.3010   -4.9860    3.4960 C   0  0  0  0  0  0  0  0  0  0  0  0
    0.9080   -5.0360    2.9190 C   0  0  0  0  0  0  0  0  0  0  0  0
    0.9740   -4.3440    1.5700 C   0  0  1  0  0  0  0  0  0  0  0  0
    0.1160   -3.1330    1.5460 C   0  0  0  0  0  0  0  0  0  0  0  0
   -1.1220   -3.2690    1.7560 O   0  0  0  0  0  0  0  0  0  0  0  0
    2.6050   -3.3860    0.6480 H   0  0  0  0  0  0  0  0  0  0  0  0
    4.1030   -4.3140    2.5390 H   0  0  0  0  0  0  0  0  0  0  0  0
    2.9770   -2.9820    2.9330 H   0  0  0  0  0  0  0  0  0  0  0  0
    2.2690   -4.6150    4.5380 H   0  0  0  0  0  0  0  0  0  0  0  0
    2.7840   -5.9800    3.4320 H   0  0  0  0  0  0  0  0  0  0  0  0
    0.1900   -4.4890    3.5770 H   0  0  0  0  0  0  0  0  0  0  0  0
    0.5530   -6.0690    2.8660 H   0  0  0  0  0  0  0  0  0  0  0  0
    0.5860   -5.0670    0.8290 H   0  0  0  0  0  0  0  0  0  0  0  0
    3.2430    2.2620    2.0450 N   0  0  0  0  0  0  0  0  0  0  0  0
    1.9610    1.6560    1.7700 C   0  0  0  0  0  0  0  0  0  0  0  0
    1.4970    1.9220    0.6480 O   0  0  0  0  0  0  0  0  0  0  0  0
    1.2810    0.8130    2.7230 C   0  0  0  0  0  0  0  0  0  0  0  0
   -0.0390    0.2550    2.4360 C   0  0  0  0  0  0  0  0  0  0  0  0
   -0.2520   -0.6380    1.2840 C   0  0  2  0  0  0  0  0  0  0  0  0
    0.5910   -1.8210    1.3040 N   0  0  0  0  0  0  0  0  0  0  0  0
   -0.2790   -0.0760   -0.0600 C   0  0  0  0  0  0  0  0  0  0  0  0
    0.4650   -0.5090   -0.9520 O   0  0  0  0  0  0  0  0  0  0  0  0
    4.0690    1.8670    1.5630 H   0  0  0  0  0  0  0  0  0  0  0  0
    3.3320    3.0490    2.6890 H   0  0  0  0  0  0  0  0  0  0  0  0
    1.1680    1.4510    3.6700 H   0  0  0  0  0  0  0  0  0  0  0  0
    2.0320    0.0500    3.0780 H   0  0  0  0  0  0  0  0  0  0  0  0
   -0.3950   -0.2750    3.3760 H   0  0  0  0  0  0  0  0  0  0  0  0
   -0.7670    1.1290    2.3980 H   0  0  0  0  0  0  0  0  0  0  0  0
   -1.3150   -1.0800    1.4730 H   0  0  0  0  0  0  0  0  0  0  0  0
    1.6020   -1.7000    1.1290 H   0  0  0  0  0  0  0  0  0  0  0  0
   -2.7220   -0.2780   -2.4370 C   0  0  0  0  0  0  0  0  0  0  0  0
   -2.6540    1.2120   -2.2370 C   0  0  0  0  0  0  0  0  0  0  0  0
   -2.8690    1.8680   -3.5820 C   0  0  0  0  0  0  0  0  0  0  0  0
   -1.3140    1.6260   -1.6240 C   0  0  2  0  0  0  0  0  0  0  0  0
   -1.1760    0.9800   -0.3510 N   0  0  0  0  0  0  0  0  0  0  0  0
   -1.1390    3.0730   -1.5830 C   0  0  0  0  0  0  0  0  0  0  0  0
   -1.2370    3.7390   -2.6390 O   0  0  0  0  0  0  0  0  0  0  0  0
   -0.8650    3.7540   -0.4080 O   0  0  0  0  0  0  0  0  0  0  0  0
   -3.7910   -0.5260   -2.6190 H   0  0  0  0  0  0  0  0  0  0  0  0
   -2.2110   -0.5860   -3.3960 H   0  0  0  0  0  0  0  0  0  0  0  0
   -2.3980   -0.8760   -1.5860 H   0  0  0  0  0  0  0  0  0  0  0  0
   -3.4900    1.4780   -1.5570 H   0  0  0  0  0  0  0  0  0  0  0  0
   -1.9040    2.0430   -4.0950 H   0  0  0  0  0  0  0  0  0  0  0  0
   -3.5230    1.1950   -4.2050 H   0  0  0  0  0  0  0  0  0  0  0  0
   -3.4140    2.8110   -3.3980 H   0  0  0  0  0  0  0  0  0  0  0  0
   -0.5540    1.1610   -2.3200 H   0  0  0  0  0  0  0  0  0  0  0  0
   -1.8210    1.3550    0.4130 H   0  0  0  0  0  0  0  0  0  0  0  0
  1  5  1  0  0  0  0
  1  2  1  0  0  0  0
  2 10  1  0  0  0  0
  2  3  1  0  0  0  0
  3 11  1  0  0  0  0
  4  3  1  0  0  0  0
  4 13  1  0  0  0  0
  5 15  1  6  0  0  0
  5  4  1  0  0  0  0
  6  5  1  0  0  0  0
  6  7  2  0  0  0  0
  8  1  1  0  0  0  0
  9  2  1  0  0  0  0
 12  3  1  0  0  0  0
 14  4  1  0  0  0  0
 16 26  1  0  0  0  0
 17 16  1  0  0  0  0
 17 19  1  0  0  0  0
 18 17  2  0  0  0  0
 19 28  1  0  0  0  0
 19 27  1  0  0  0  0
 20 19  1  0  0  0  0
 20 29  1  0  0  0  0
 21 22  1  0  0  0  0
 21 31  1  1  0  0  0
 21 20  1  0  0  0  0
 22  6  1  0  0  0  0
 23 21  1  0  0  0  0
 24 23  2  0  0  0  0
 25 16  1  0  0  0  0
 30 20  1  0  0  0  0
 32 22  1  0  0  0  0
 33 34  1  0  0  0  0
 33 43  1  0  0  0  0
 34 36  1  0  0  0  0
 34 44  1  0  0  0  0
 35 47  1  0  0  0  0
 35 34  1  0  0  0  0
 36 48  1  6  0  0  0
 36 38  1  0  0  0  0
 36 37  1  0  0  0  0
 37 23  1  0  0  0  0
 37 49  1  0  0  0  0
 38 40  1  0  0  0  0
 39 38  2  0  0  0  0
 41 33  1  0  0  0  0
 42 33  1  0  0  0  0
 45 35  1  0  0  0  0
 46 35  1  0  0  0  0
M  END
$$$$
