PRC.pdb
 OpenBabel07022419023D

 50 50  0  0  1  0  0  0  0  0999 V2000
   -2.4490    1.1260    2.7390 N   0  0  0  0  0  0  0  0  0  0  0  0
   -1.6520    1.7070    3.7630 C   0  0  0  0  0  0  0  0  0  0  0  0
   -1.5610    3.1560    3.3180 C   0  0  0  0  0  0  0  0  0  0  0  0
   -1.4500    3.0300    1.8040 C   0  0  0  0  0  0  0  0  0  0  0  0
   -2.0960    1.6980    1.4890 C   0  0  1  0  0  0  0  0  0  0  0  0
   -1.2910    0.8700    0.5940 C   0  0  0  0  0  0  0  0  0  0  0  0
   -0.9460    1.3110   -0.5510 O   0  0  0  0  0  0  0  0  0  0  0  0
   -2.6360    0.1310    2.7700 H   0  0  0  0  0  0  0  0  0  0  0  0
   -0.6290    1.2870    3.8370 H   0  0  0  0  0  0  0  0  0  0  0  0
   -2.1010    1.6420    4.7670 H   0  0  0  0  0  0  0  0  0  0  0  0
   -0.6740    3.6610    3.7180 H   0  0  0  0  0  0  0  0  0  0  0  0
   -2.5090    3.6490    3.6090 H   0  0  0  0  0  0  0  0  0  0  0  0
   -0.4180    3.1050    1.4560 H   0  0  0  0  0  0  0  0  0  0  0  0
   -2.0120    3.8870    1.3810 H   0  0  0  0  0  0  0  0  0  0  0  0
   -3.0640    1.9300    0.9530 H   0  0  0  0  0  0  0  0  0  0  0  0
    4.7360    1.7820    2.9690 N   0  0  0  0  0  0  0  0  0  0  0  0
    3.4870    1.2990    2.5220 C   0  0  0  0  0  0  0  0  0  0  0  0
    2.8630    1.8470    1.5100 N   0  0  0  0  0  0  0  0  0  0  0  0
    2.8080    0.2050    3.1120 N   0  0  0  0  0  0  0  0  0  0  0  0
    1.7100   -0.4870    2.4470 C   0  0  0  0  0  0  0  0  0  0  0  0
    2.1720   -1.2480    1.2490 C   0  0  0  0  0  0  0  0  0  0  0  0
    1.0810   -1.9970    0.5570 C   0  0  0  0  0  0  0  0  0  0  0  0
   -0.0480   -1.2340    0.0010 C   0  0  2  0  0  0  0  0  0  0  0  0
   -0.8350   -0.4550    0.9050 N   0  0  0  0  0  0  0  0  0  0  0  0
   -1.0050   -2.1950   -0.6760 C   0  0  0  0  0  0  0  0  0  0  0  0
   -2.2270   -2.2130   -0.4030 O   0  0  0  0  0  0  0  0  0  0  0  0
    4.8330    2.2090    3.9010 H   0  0  0  0  0  0  0  0  0  0  0  0
    5.5600    1.7040    2.3570 H   0  0  0  0  0  0  0  0  0  0  0  0
    3.2460    2.6570    0.9850 H   0  0  0  0  0  0  0  0  0  0  0  0
    3.0910   -0.1280    4.0490 H   0  0  0  0  0  0  0  0  0  0  0  0
    1.0250    0.3170    2.1060 H   0  0  0  0  0  0  0  0  0  0  0  0
    1.1840   -1.1340    3.1750 H   0  0  0  0  0  0  0  0  0  0  0  0
    2.7600   -0.6210    0.5390 H   0  0  0  0  0  0  0  0  0  0  0  0
    2.8930   -2.0290    1.6450 H   0  0  0  0  0  0  0  0  0  0  0  0
    1.5960   -2.5670   -0.2830 H   0  0  0  0  0  0  0  0  0  0  0  0
    0.7320   -2.8140    1.2420 H   0  0  0  0  0  0  0  0  0  0  0  0
    0.2660   -0.5590   -0.8290 H   0  0  0  0  0  0  0  0  0  0  0  0
   -1.1160   -0.8230    1.8520 H   0  0  0  0  0  0  0  0  0  0  0  0
   -0.4880   -3.0860   -1.6380 N   0  0  0  0  0  0  0  0  0  0  0  0
   -1.3320   -4.0430   -2.3380 C   0  0  1  0  0  0  0  0  0  0  0  0
   -1.2250   -3.7950   -3.8160 C   0  0  0  0  0  0  0  0  0  0  0  0
   -1.7780   -2.1040   -4.1660 S   0  0  0  0  0  0  0  0  0  0  0  0
   -0.8830   -5.4380   -2.0930 C   0  0  0  0  0  0  0  0  0  0  0  0
    0.1060   -5.6470   -1.3610 O   0  0  0  0  0  0  0  0  0  0  0  0
   -1.5820   -6.4680   -2.6890 O   0  0  0  0  0  0  0  0  0  0  0  0
    0.5190   -3.1020   -1.8960 H   0  0  0  0  0  0  0  0  0  0  0  0
   -2.3650   -3.8860   -1.9900 H   0  0  0  0  0  0  0  0  0  0  0  0
   -1.8790   -4.5320   -4.3640 H   0  0  0  0  0  0  0  0  0  0  0  0
   -0.1680   -3.9410   -4.1110 H   0  0  0  0  0  0  0  0  0  0  0  0
   -0.7480   -1.3550   -4.7900 H   0  0  0  0  0  0  0  0  0  0  0  0
  1  8  1  0  0  0  0
  1  2  1  0  0  0  0
  2  9  1  0  0  0  0
  2 10  1  0  0  0  0
  3 12  1  0  0  0  0
  3 11  1  0  0  0  0
  3  2  1  0  0  0  0
  4  3  1  0  0  0  0
  5 15  1  6  0  0  0
  5  4  1  0  0  0  0
  5  1  1  0  0  0  0
  6 24  1  0  0  0  0
  6  5  1  0  0  0  0
  7  6  2  0  0  0  0
 13  4  1  0  0  0  0
 14  4  1  0  0  0  0
 16 27  1  0  0  0  0
 17 16  1  0  0  0  0
 17 19  1  0  0  0  0
 18 17  2  0  0  0  0
 19 30  1  0  0  0  0
 20 19  1  0  0  0  0
 20 32  1  0  0  0  0
 21 34  1  0  0  0  0
 21 20  1  0  0  0  0
 22 36  1  0  0  0  0
 22 21  1  0  0  0  0
 23 37  1  6  0  0  0
 23 22  1  0  0  0  0
 23 24  1  0  0  0  0
 24 38  1  0  0  0  0
 25 26  2  0  0  0  0
 25 23  1  0  0  0  0
 28 16  1  0  0  0  0
 29 18  1  0  0  0  0
 31 20  1  0  0  0  0
 33 21  1  0  0  0  0
 35 22  1  0  0  0  0
 39 25  1  0  0  0  0
 40 43  1  0  0  0  0
 40 47  1  1  0  0  0
 40 39  1  0  0  0  0
 41 40  1  0  0  0  0
 42 41  1  0  0  0  0
 43 44  1  0  0  0  0
 45 43  2  0  0  0  0
 46 39  1  0  0  0  0
 48 41  1  0  0  0  0
 49 41  1  0  0  0  0
 50 42  1  0  0  0  0
M  END
$$$$
