PRD.pdb
 OpenBabel07022419023D

 52 52  0  0  1  0  0  0  0  0999 V2000
    0.1720   -0.8380    4.1110 N   0  0  0  0  0  0  0  0  0  0  0  0
   -0.3790   -1.1170    5.4180 C   0  0  0  0  0  0  0  0  0  0  0  0
   -1.2220   -2.3680    5.2530 C   0  0  0  0  0  0  0  0  0  0  0  0
   -0.8390   -2.9590    3.9100 C   0  0  0  0  0  0  0  0  0  0  0  0
    0.3650   -2.1230    3.4680 C   0  0  1  0  0  0  0  0  0  0  0  0
    0.3390   -1.9980    1.9800 C   0  0  0  0  0  0  0  0  0  0  0  0
    0.4880   -3.0140    1.2710 O   0  0  0  0  0  0  0  0  0  0  0  0
    1.1280   -0.4360    4.2620 H   0  0  0  0  0  0  0  0  0  0  0  0
    0.4370   -1.2850    6.1400 H   0  0  0  0  0  0  0  0  0  0  0  0
   -1.0070   -0.3130    5.8170 H   0  0  0  0  0  0  0  0  0  0  0  0
   -2.3090   -2.1000    5.2140 H   0  0  0  0  0  0  0  0  0  0  0  0
   -1.0320   -3.0400    6.0970 H   0  0  0  0  0  0  0  0  0  0  0  0
   -1.6620   -2.8920    3.1640 H   0  0  0  0  0  0  0  0  0  0  0  0
   -0.5840   -4.0280    4.0170 H   0  0  0  0  0  0  0  0  0  0  0  0
    1.2960   -2.6130    3.7650 H   0  0  0  0  0  0  0  0  0  0  0  0
    4.0230    3.5960    2.1830 N   0  0  0  0  0  0  0  0  0  0  0  0
    2.8070    3.0740    1.6430 C   0  0  0  0  0  0  0  0  0  0  0  0
    1.8470    2.7020    2.4080 N   0  0  0  0  0  0  0  0  0  0  0  0
    2.6130    2.9510    0.2390 N   0  0  0  0  0  0  0  0  0  0  0  0
    1.7020    1.9800   -0.3460 C   0  0  0  0  0  0  0  0  0  0  0  0
    2.2860    0.6230   -0.0910 C   0  0  0  0  0  0  0  0  0  0  0  0
    1.4570   -0.5160   -0.6440 C   0  0  0  0  0  0  0  0  0  0  0  0
    0.1020   -0.5700   -0.0860 C   0  0  2  0  0  0  0  0  0  0  0  0
    0.1460   -0.7400    1.3400 N   0  0  0  0  0  0  0  0  0  0  0  0
   -0.8440   -1.4730   -0.7710 C   0  0  0  0  0  0  0  0  0  0  0  0
   -1.5160   -2.2570   -0.0590 O   0  0  0  0  0  0  0  0  0  0  0  0
    4.5800    4.3410    1.7620 H   0  0  0  0  0  0  0  0  0  0  0  0
    4.3620    3.1800    3.0760 H   0  0  0  0  0  0  0  0  0  0  0  0
    0.9460    2.3190    2.1160 H   0  0  0  0  0  0  0  0  0  0  0  0
    3.1690    3.6080   -0.3810 H   0  0  0  0  0  0  0  0  0  0  0  0
    1.6550    2.2020   -1.4480 H   0  0  0  0  0  0  0  0  0  0  0  0
    0.6970    2.1200    0.1060 H   0  0  0  0  0  0  0  0  0  0  0  0
    2.4860    0.5010    0.9900 H   0  0  0  0  0  0  0  0  0  0  0  0
    3.3100    0.6390   -0.5690 H   0  0  0  0  0  0  0  0  0  0  0  0
    1.4120   -0.3110   -1.7570 H   0  0  0  0  0  0  0  0  0  0  0  0
    2.0600   -1.4210   -0.5480 H   0  0  0  0  0  0  0  0  0  0  0  0
   -0.4010    0.4500   -0.2180 H   0  0  0  0  0  0  0  0  0  0  0  0
    0.0300    0.0960    2.0040 H   0  0  0  0  0  0  0  0  0  0  0  0
   -1.0420   -1.5100   -2.1620 N   0  0  0  0  0  0  0  0  0  0  0  0
   -1.9910   -2.4320   -2.7240 C   0  0  1  0  0  0  0  0  0  0  0  0
   -3.1080   -1.6220   -3.3650 C   0  0  0  0  0  0  0  0  0  0  0  0
   -3.7120   -0.7900   -2.2910 C   0  0  0  0  0  0  0  0  0  0  0  0
   -3.0180   -0.0400   -1.5860 O   0  0  0  0  0  0  0  0  0  0  0  0
   -1.3880   -3.3760   -3.6690 C   0  0  0  0  0  0  0  0  0  0  0  0
   -0.1620   -3.3730   -3.9370 O   0  0  0  0  0  0  0  0  0  0  0  0
   -5.0740   -0.8570   -2.0790 O   0  0  0  0  0  0  0  0  0  0  0  0
   -2.1840   -4.3130   -4.3020 O   0  0  0  0  0  0  0  0  0  0  0  0
   -0.5070   -0.8820   -2.7590 H   0  0  0  0  0  0  0  0  0  0  0  0
   -2.4890   -3.0570   -1.9340 H   0  0  0  0  0  0  0  0  0  0  0  0
   -3.8680   -2.2860   -3.8110 H   0  0  0  0  0  0  0  0  0  0  0  0
   -2.6070   -0.9820   -4.1430 H   0  0  0  0  0  0  0  0  0  0  0  0
   -5.5480   -0.2750   -1.3760 H   0  0  0  0  0  0  0  0  0  0  0  0
  1  8  1  0  0  0  0
  1  2  1  0  0  0  0
  2 10  1  0  0  0  0
  2  9  1  0  0  0  0
  3  2  1  0  0  0  0
  3 12  1  0  0  0  0
  4 14  1  0  0  0  0
  4  3  1  0  0  0  0
  5 15  1  1  0  0  0
  5  4  1  0  0  0  0
  5  1  1  0  0  0  0
  6  5  1  0  0  0  0
  7  6  2  0  0  0  0
 11  3  1  0  0  0  0
 13  4  1  0  0  0  0
 16 28  1  0  0  0  0
 17 16  1  0  0  0  0
 17 18  2  0  0  0  0
 19 17  1  0  0  0  0
 20 21  1  0  0  0  0
 20 32  1  0  0  0  0
 20 19  1  0  0  0  0
 21 33  1  0  0  0  0
 22 36  1  0  0  0  0
 22 21  1  0  0  0  0
 22 23  1  0  0  0  0
 23 37  1  6  0  0  0
 23 24  1  0  0  0  0
 24  6  1  0  0  0  0
 24 38  1  0  0  0  0
 25 23  1  0  0  0  0
 25 26  2  0  0  0  0
 27 16  1  0  0  0  0
 29 18  1  0  0  0  0
 30 19  1  0  0  0  0
 31 20  1  0  0  0  0
 34 21  1  0  0  0  0
 35 22  1  0  0  0  0
 39 25  1  0  0  0  0
 40 39  1  0  0  0  0
 40 49  1  1  0  0  0
 41 40  1  0  0  0  0
 41 42  1  0  0  0  0
 42 46  1  0  0  0  0
 42 43  2  0  0  0  0
 44 40  1  0  0  0  0
 45 44  1  0  0  0  0
 46 52  1  0  0  0  0
 47 44  2  0  0  0  0
 48 39  1  0  0  0  0
 50 41  1  0  0  0  0
 51 41  1  0  0  0  0
M  END
$$$$
