PRE.pdb
 OpenBabel07022419023D

 55 55  0  0  1  0  0  0  0  0999 V2000
    1.1520   -2.0660    2.9550 N   0  0  0  0  0  0  0  0  0  0  0  0
    1.8930   -2.5950    4.0930 C   0  0  0  0  0  0  0  0  0  0  0  0
    1.4120   -1.7880    5.2860 C   0  0  0  0  0  0  0  0  0  0  0  0
    0.1140   -1.1680    4.8240 C   0  0  0  0  0  0  0  0  0  0  0  0
   -0.1470   -1.8310    3.5130 C   0  0  1  0  0  0  0  0  0  0  0  0
   -0.9860   -0.9640    2.6200 C   0  0  0  0  0  0  0  0  0  0  0  0
   -2.1460   -0.6530    2.9910 O   0  0  0  0  0  0  0  0  0  0  0  0
    1.0610   -2.8130    2.2300 H   0  0  0  0  0  0  0  0  0  0  0  0
    2.9810   -2.4940    3.9660 H   0  0  0  0  0  0  0  0  0  0  0  0
    1.6770   -3.6730    4.2480 H   0  0  0  0  0  0  0  0  0  0  0  0
    2.1640   -1.0210    5.5690 H   0  0  0  0  0  0  0  0  0  0  0  0
    1.2290   -2.4410    6.1650 H   0  0  0  0  0  0  0  0  0  0  0  0
   -0.6740   -1.3750    5.5800 H   0  0  0  0  0  0  0  0  0  0  0  0
    0.2300   -0.0740    4.6660 H   0  0  0  0  0  0  0  0  0  0  0  0
   -0.6870   -2.7970    3.7310 H   0  0  0  0  0  0  0  0  0  0  0  0
    2.0650    3.7740    2.6160 N   0  0  0  0  0  0  0  0  0  0  0  0
    2.3130    3.4430    1.2620 C   0  0  0  0  0  0  0  0  0  0  0  0
    3.4140    2.9020    0.8650 N   0  0  0  0  0  0  0  0  0  0  0  0
    1.2980    3.7250    0.3080 N   0  0  0  0  0  0  0  0  0  0  0  0
    1.1440    2.9310   -0.8950 C   0  0  0  0  0  0  0  0  0  0  0  0
    0.6680    1.5090   -0.5810 C   0  0  0  0  0  0  0  0  0  0  0  0
   -0.6520    1.6380    0.1160 C   0  0  0  0  0  0  0  0  0  0  0  0
   -1.2820    0.3440    0.4990 C   0  0  2  0  0  0  0  0  0  0  0  0
   -0.5310   -0.4830    1.3850 N   0  0  0  0  0  0  0  0  0  0  0  0
   -1.7200   -0.4590   -0.6920 C   0  0  0  0  0  0  0  0  0  0  0  0
   -2.3800    0.0750   -1.6290 O   0  0  0  0  0  0  0  0  0  0  0  0
    2.4630    3.2070    3.3890 H   0  0  0  0  0  0  0  0  0  0  0  0
    1.4760    4.5940    2.8410 H   0  0  0  0  0  0  0  0  0  0  0  0
    4.1430    2.7050    1.5770 H   0  0  0  0  0  0  0  0  0  0  0  0
    0.6610    4.5340    0.5090 H   0  0  0  0  0  0  0  0  0  0  0  0
    2.1240    2.8900   -1.4560 H   0  0  0  0  0  0  0  0  0  0  0  0
    0.4500    3.4560   -1.5590 H   0  0  0  0  0  0  0  0  0  0  0  0
    1.4570    1.0530    0.0360 H   0  0  0  0  0  0  0  0  0  0  0  0
    0.5250    1.0190   -1.5660 H   0  0  0  0  0  0  0  0  0  0  0  0
   -0.6300    2.3400    0.9680 H   0  0  0  0  0  0  0  0  0  0  0  0
   -1.3530    2.1210   -0.6270 H   0  0  0  0  0  0  0  0  0  0  0  0
   -2.2630    0.6090    1.0040 H   0  0  0  0  0  0  0  0  0  0  0  0
    0.4530   -0.7680    1.1040 H   0  0  0  0  0  0  0  0  0  0  0  0
   -1.4280   -1.8360   -0.8360 N   0  0  0  0  0  0  0  0  0  0  0  0
   -1.8540   -2.6160   -1.9880 C   0  0  1  0  0  0  0  0  0  0  0  0
   -0.5980   -3.2080   -2.5770 C   0  0  0  0  0  0  0  0  0  0  0  0
   -0.7980   -4.0530   -3.7850 C   0  0  0  0  0  0  0  0  0  0  0  0
   -1.3990   -3.3150   -4.9220 C   0  0  0  0  0  0  0  0  0  0  0  0
   -1.6900   -3.9390   -5.9800 O   0  0  0  0  0  0  0  0  0  0  0  0
   -2.7910   -3.6980   -1.5510 C   0  0  0  0  0  0  0  0  0  0  0  0
   -3.3310   -4.5150   -2.3290 O   0  0  0  0  0  0  0  0  0  0  0  0
   -1.6680   -1.9550   -4.8990 O   0  0  0  0  0  0  0  0  0  0  0  0
   -3.0800   -3.8020   -0.1850 O   0  0  0  0  0  0  0  0  0  0  0  0
   -0.8890   -2.3220   -0.0990 H   0  0  0  0  0  0  0  0  0  0  0  0
   -2.3590   -1.9360   -2.7050 H   0  0  0  0  0  0  0  0  0  0  0  0
   -0.0320   -3.7140   -1.7730 H   0  0  0  0  0  0  0  0  0  0  0  0
    0.0550   -2.3400   -2.8890 H   0  0  0  0  0  0  0  0  0  0  0  0
   -1.4560   -4.9440   -3.6110 H   0  0  0  0  0  0  0  0  0  0  0  0
    0.2370   -4.4050   -4.0850 H   0  0  0  0  0  0  0  0  0  0  0  0
   -1.4840   -1.3610   -5.7240 H   0  0  0  0  0  0  0  0  0  0  0  0
  1  5  1  0  0  0  0
  1  2  1  0  0  0  0
  2 10  1  0  0  0  0
  2  3  1  0  0  0  0
  3 11  1  0  0  0  0
  3 12  1  0  0  0  0
  4  3  1  0  0  0  0
  4 13  1  0  0  0  0
  5 15  1  1  0  0  0
  5  4  1  0  0  0  0
  6  7  2  0  0  0  0
  6  5  1  0  0  0  0
  8  1  1  0  0  0  0
  9  2  1  0  0  0  0
 14  4  1  0  0  0  0
 16 28  1  0  0  0  0
 16 27  1  0  0  0  0
 17 16  1  0  0  0  0
 18 17  2  0  0  0  0
 18 29  1  0  0  0  0
 19 30  1  0  0  0  0
 19 17  1  0  0  0  0
 20 21  1  0  0  0  0
 20 19  1  0  0  0  0
 21 33  1  0  0  0  0
 21 22  1  0  0  0  0
 22 23  1  0  0  0  0
 22 35  1  0  0  0  0
 23 37  1  1  0  0  0
 23 24  1  0  0  0  0
 24  6  1  0  0  0  0
 25 23  1  0  0  0  0
 26 25  2  0  0  0  0
 31 20  1  0  0  0  0
 32 20  1  0  0  0  0
 34 21  1  0  0  0  0
 36 22  1  0  0  0  0
 38 24  1  0  0  0  0
 39 25  1  0  0  0  0
 39 49  1  0  0  0  0
 40 50  1  6  0  0  0
 40 45  1  0  0  0  0
 40 39  1  0  0  0  0
 41 40  1  0  0  0  0
 41 51  1  0  0  0  0
 42 53  1  0  0  0  0
 42 41  1  0  0  0  0
 43 47  1  0  0  0  0
 43 42  1  0  0  0  0
 44 43  2  0  0  0  0
 45 48  1  0  0  0  0
 46 45  2  0  0  0  0
 52 41  1  0  0  0  0
 54 42  1  0  0  0  0
 55 47  1  0  0  0  0
M  END
$$$$
