PRG.pdb
 OpenBabel07022419023D

 46 46  0  0  1  0  0  0  0  0999 V2000
    1.7840   -4.7230    1.3390 N   0  0  0  0  0  0  0  0  0  0  0  0
    1.0370   -5.9790    1.1610 C   0  0  0  0  0  0  0  0  0  0  0  0
   -0.2410   -5.5890    1.9200 C   0  0  0  0  0  0  0  0  0  0  0  0
   -0.5320   -4.2420    1.2680 C   0  0  0  0  0  0  0  0  0  0  0  0
    0.8310   -3.7530    0.8740 C   0  0  1  0  0  0  0  0  0  0  0  0
    1.1260   -2.3860    1.3370 C   0  0  0  0  0  0  0  0  0  0  0  0
    2.1180   -2.2190    2.0830 O   0  0  0  0  0  0  0  0  0  0  0  0
    2.0660   -4.6480    2.3190 H   0  0  0  0  0  0  0  0  0  0  0  0
    0.7170   -6.1140    0.1090 H   0  0  0  0  0  0  0  0  0  0  0  0
    1.5360   -6.8390    1.6090 H   0  0  0  0  0  0  0  0  0  0  0  0
    0.0430   -5.3940    2.9790 H   0  0  0  0  0  0  0  0  0  0  0  0
   -1.0420   -6.3160    1.7880 H   0  0  0  0  0  0  0  0  0  0  0  0
   -1.2030   -4.4370    0.4090 H   0  0  0  0  0  0  0  0  0  0  0  0
   -1.0660   -3.5640    1.9560 H   0  0  0  0  0  0  0  0  0  0  0  0
    0.8810   -3.7400   -0.2320 H   0  0  0  0  0  0  0  0  0  0  0  0
   -0.2780    2.3910   -2.9640 N   0  0  0  0  0  0  0  0  0  0  0  0
    0.9760    2.5240   -2.3400 C   0  0  0  0  0  0  0  0  0  0  0  0
    1.9640    1.7260   -2.6600 N   0  0  0  0  0  0  0  0  0  0  0  0
    1.2510    3.5020   -1.3570 N   0  0  0  0  0  0  0  0  0  0  0  0
    2.0650    3.2990   -0.2140 C   0  0  0  0  0  0  0  0  0  0  0  0
    1.4790    2.3950    0.8440 C   0  0  0  0  0  0  0  0  0  0  0  0
    1.1700    1.0090    0.3760 C   0  0  0  0  0  0  0  0  0  0  0  0
    0.6640    0.1100    1.4650 C   0  0  2  0  0  0  0  0  0  0  0  0
    0.3730   -1.2360    1.0040 N   0  0  0  0  0  0  0  0  0  0  0  0
   -0.4240    0.6410    2.2980 C   0  0  0  0  0  0  0  0  0  0  0  0
   -0.4800    1.7510    2.8620 O   0  0  0  0  0  0  0  0  0  0  0  0
   -0.6860    1.4440   -3.1790 H   0  0  0  0  0  0  0  0  0  0  0  0
   -0.8510    3.2050   -3.2380 H   0  0  0  0  0  0  0  0  0  0  0  0
    1.8250    0.9890   -3.3800 H   0  0  0  0  0  0  0  0  0  0  0  0
    0.8160    4.4500   -1.4790 H   0  0  0  0  0  0  0  0  0  0  0  0
    3.0150    2.7720   -0.5450 H   0  0  0  0  0  0  0  0  0  0  0  0
    2.4190    4.2550    0.2360 H   0  0  0  0  0  0  0  0  0  0  0  0
    2.2150    2.3990    1.7020 H   0  0  0  0  0  0  0  0  0  0  0  0
    0.5790    2.9040    1.2890 H   0  0  0  0  0  0  0  0  0  0  0  0
    0.4350    1.1200   -0.4540 H   0  0  0  0  0  0  0  0  0  0  0  0
    2.0870    0.6050   -0.0980 H   0  0  0  0  0  0  0  0  0  0  0  0
    1.5470   -0.0080    2.1610 H   0  0  0  0  0  0  0  0  0  0  0  0
   -0.4500   -1.4050    0.3760 H   0  0  0  0  0  0  0  0  0  0  0  0
   -1.5630   -0.1920    2.5030 N   0  0  0  0  0  0  0  0  0  0  0  0
   -2.6930    0.2200    3.3000 C   0  0  0  0  0  0  0  0  0  0  0  0
   -3.3170    1.4440    2.7300 C   0  0  0  0  0  0  0  0  0  0  0  0
   -4.3130    1.9740    3.2690 O   0  0  0  0  0  0  0  0  0  0  0  0
   -2.7900    2.0120    1.5810 O   0  0  0  0  0  0  0  0  0  0  0  0
   -1.5960   -1.1370    2.0680 H   0  0  0  0  0  0  0  0  0  0  0  0
   -3.4630   -0.5700    3.3670 H   0  0  0  0  0  0  0  0  0  0  0  0
   -2.3830    0.4410    4.3380 H   0  0  0  0  0  0  0  0  0  0  0  0
  1  8  1  0  0  0  0
  2  1  1  0  0  0  0
  2 10  1  0  0  0  0
  2  3  1  0  0  0  0
  3 11  1  0  0  0  0
  4  3  1  0  0  0  0
  4 14  1  0  0  0  0
  5 15  1  6  0  0  0
  5  4  1  0  0  0  0
  5  6  1  0  0  0  0
  5  1  1  0  0  0  0
  6  7  2  0  0  0  0
  9  2  1  0  0  0  0
 12  3  1  0  0  0  0
 13  4  1  0  0  0  0
 16 17  1  0  0  0  0
 17 19  1  0  0  0  0
 18 17  2  0  0  0  0
 19 20  1  0  0  0  0
 20 32  1  0  0  0  0
 20 21  1  0  0  0  0
 21 34  1  0  0  0  0
 21 33  1  0  0  0  0
 22 21  1  0  0  0  0
 22 23  1  0  0  0  0
 23 37  1  1  0  0  0
 23 25  1  0  0  0  0
 24  6  1  0  0  0  0
 24 23  1  0  0  0  0
 25 39  1  0  0  0  0
 25 26  2  0  0  0  0
 27 16  1  0  0  0  0
 28 16  1  0  0  0  0
 29 18  1  0  0  0  0
 30 19  1  0  0  0  0
 31 20  1  0  0  0  0
 35 22  1  0  0  0  0
 36 22  1  0  0  0  0
 38 24  1  0  0  0  0
 39 40  1  0  0  0  0
 40 45  1  0  0  0  0
 40 46  1  0  0  0  0
 41 42  1  0  0  0  0
 41 40  1  0  0  0  0
 43 41  2  0  0  0  0
 44 39  1  0  0  0  0
M  END
$$$$
