PRH.pdb
 OpenBabel07022419023D

 56 57  0  0  1  0  0  0  0  0999 V2000
    3.3170   -1.2090    3.4860 N   0  0  0  0  0  0  0  0  0  0  0  0
    2.8060   -2.4370    4.0460 C   0  0  0  0  0  0  0  0  0  0  0  0
    2.5810   -3.3770    2.8800 C   0  0  0  0  0  0  0  0  0  0  0  0
    2.9420   -2.5710    1.6640 C   0  0  0  0  0  0  0  0  0  0  0  0
    2.7590   -1.1470    2.1480 C   0  0  1  0  0  0  0  0  0  0  0  0
    1.3260   -0.7890    2.2930 C   0  0  0  0  0  0  0  0  0  0  0  0
    0.7660   -0.5910    3.4010 O   0  0  0  0  0  0  0  0  0  0  0  0
    2.9440   -0.4210    4.0750 H   0  0  0  0  0  0  0  0  0  0  0  0
    1.8420   -2.3030    4.5740 H   0  0  0  0  0  0  0  0  0  0  0  0
    3.5170   -2.8760    4.7760 H   0  0  0  0  0  0  0  0  0  0  0  0
    3.2440   -4.2770    2.9820 H   0  0  0  0  0  0  0  0  0  0  0  0
    1.5400   -3.7230    2.8240 H   0  0  0  0  0  0  0  0  0  0  0  0
    4.0070   -2.7150    1.4600 H   0  0  0  0  0  0  0  0  0  0  0  0
    2.2910   -2.7910    0.7940 H   0  0  0  0  0  0  0  0  0  0  0  0
    3.3050   -0.4240    1.5090 H   0  0  0  0  0  0  0  0  0  0  0  0
    3.2610    3.7250    0.8810 N   0  0  0  0  0  0  0  0  0  0  0  0
    2.5230    2.9000    0.0050 C   0  0  0  0  0  0  0  0  0  0  0  0
    3.0930    2.3640   -1.0330 N   0  0  0  0  0  0  0  0  0  0  0  0
    1.1480    2.6410    0.2400 N   0  0  0  0  0  0  0  0  0  0  0  0
    0.3240    1.9190   -0.7250 C   0  0  0  0  0  0  0  0  0  0  0  0
   -1.0870    1.7760   -0.2430 C   0  0  0  0  0  0  0  0  0  0  0  0
   -1.3050    1.0990    1.0380 C   0  0  0  0  0  0  0  0  0  0  0  0
   -0.9130   -0.3000    1.2600 C   0  0  2  0  0  0  0  0  0  0  0  0
    0.4750   -0.6460    1.1290 N   0  0  0  0  0  0  0  0  0  0  0  0
   -1.7060   -1.3120    0.4760 C   0  0  0  0  0  0  0  0  0  0  0  0
   -1.1380   -2.2880   -0.0810 O   0  0  0  0  0  0  0  0  0  0  0  0
    2.9340    4.6940    1.0780 H   0  0  0  0  0  0  0  0  0  0  0  0
    4.1480    3.4070    1.3590 H   0  0  0  0  0  0  0  0  0  0  0  0
    2.5810    1.7600   -1.6880 H   0  0  0  0  0  0  0  0  0  0  0  0
    0.6920    2.9710    1.1320 H   0  0  0  0  0  0  0  0  0  0  0  0
    0.3380    2.6270   -1.6370 H   0  0  0  0  0  0  0  0  0  0  0  0
    0.7610    0.9860   -1.0270 H   0  0  0  0  0  0  0  0  0  0  0  0
   -1.4570    2.8580   -0.1230 H   0  0  0  0  0  0  0  0  0  0  0  0
   -1.7560    1.3800   -1.0680 H   0  0  0  0  0  0  0  0  0  0  0  0
   -0.7470    1.7070    1.8360 H   0  0  0  0  0  0  0  0  0  0  0  0
   -2.3770    1.2170    1.4040 H   0  0  0  0  0  0  0  0  0  0  0  0
   -1.1880   -0.4720    2.3860 H   0  0  0  0  0  0  0  0  0  0  0  0
    0.9380   -0.8370    0.2280 H   0  0  0  0  0  0  0  0  0  0  0  0
   -3.1170   -1.2210    0.3280 N   0  0  0  0  0  0  0  0  0  0  0  0
   -3.9690   -2.1320   -0.3610 C   0  0  1  0  0  0  0  0  0  0  0  0
   -4.0930   -1.9970   -1.8300 C   0  0  0  0  0  0  0  0  0  0  0  0
   -2.8550   -2.1600   -2.6070 C   0  0  0  0  0  0  0  0  0  0  0  0
   -1.9600   -1.1990   -3.0190 C   0  0  0  0  0  0  0  0  0  0  0  0
   -0.9560   -1.7830   -3.7360 N   0  0  0  0  0  0  0  0  0  0  0  0
   -1.2180   -3.0910   -3.7740 C   0  0  0  0  0  0  0  0  0  0  0  0
   -2.3480   -3.3260   -3.1030 N   0  0  0  0  0  0  0  0  0  0  0  0
   -3.7000   -3.5660    0.0370 C   0  0  0  0  0  0  0  0  0  0  0  0
   -4.3300   -4.4960   -0.5250 O   0  0  0  0  0  0  0  0  0  0  0  0
   -2.7830   -3.9190    1.0040 O   0  0  0  0  0  0  0  0  0  0  0  0
   -3.5330   -0.3510    0.8060 H   0  0  0  0  0  0  0  0  0  0  0  0
   -5.0120   -1.9370    0.0770 H   0  0  0  0  0  0  0  0  0  0  0  0
   -4.5170   -0.9890   -2.0620 H   0  0  0  0  0  0  0  0  0  0  0  0
   -4.8250   -2.7380   -2.2700 H   0  0  0  0  0  0  0  0  0  0  0  0
   -2.0720   -0.1590   -2.7970 H   0  0  0  0  0  0  0  0  0  0  0  0
   -0.1720   -1.2330   -4.1410 H   0  0  0  0  0  0  0  0  0  0  0  0
   -0.6180   -3.8310   -4.2630 H   0  0  0  0  0  0  0  0  0  0  0  0
  1  2  1  0  0  0  0
  1  8  1  0  0  0  0
  2  9  1  0  0  0  0
  2 10  1  0  0  0  0
  3 11  1  0  0  0  0
  3  2  1  0  0  0  0
  4  5  1  0  0  0  0
  4  3  1  0  0  0  0
  5 15  1  6  0  0  0
  5  6  1  0  0  0  0
  5  1  1  0  0  0  0
  6  7  2  0  0  0  0
 12  3  1  0  0  0  0
 13  4  1  0  0  0  0
 14  4  1  0  0  0  0
 16 27  1  0  0  0  0
 16 28  1  0  0  0  0
 17 19  1  0  0  0  0
 17 16  1  0  0  0  0
 18 17  2  0  0  0  0
 19 30  1  0  0  0  0
 20 21  1  0  0  0  0
 20 19  1  0  0  0  0
 21 33  1  0  0  0  0
 21 22  1  0  0  0  0
 22 23  1  0  0  0  0
 22 36  1  0  0  0  0
 22 35  1  0  0  0  0
 23 37  1  1  0  0  0
 24 23  1  0  0  0  0
 24  6  1  0  0  0  0
 25 23  1  0  0  0  0
 26 25  2  0  0  0  0
 29 18  1  0  0  0  0
 31 20  1  0  0  0  0
 32 20  1  0  0  0  0
 34 21  1  0  0  0  0
 38 24  1  0  0  0  0
 39 25  1  0  0  0  0
 39 50  1  0  0  0  0
 40 47  1  0  0  0  0
 40 51  1  1  0  0  0
 40 39  1  0  0  0  0
 41 40  1  0  0  0  0
 42 41  1  0  0  0  0
 43 54  1  0  0  0  0
 43 42  2  0  0  0  0
 44 43  1  0  0  0  0
 45 44  1  0  0  0  0
 45 46  2  0  0  0  0
 46 42  1  0  0  0  0
 47 49  1  0  0  0  0
 48 47  2  0  0  0  0
 52 41  1  0  0  0  0
 53 41  1  0  0  0  0
 55 44  1  0  0  0  0
 56 45  1  0  0  0  0
M  END
$$$$
