PRK.pdb
 OpenBabel07022419023D

 60 60  0  0  1  0  0  0  0  0999 V2000
    2.6540   -1.1770    1.4760 N   0  0  0  0  0  0  0  0  0  0  0  0
    4.0690   -1.1210    1.2470 C   0  0  0  0  0  0  0  0  0  0  0  0
    4.6480   -0.1360    2.2150 C   0  0  0  0  0  0  0  0  0  0  0  0
    3.5300    0.1350    3.1730 C   0  0  0  0  0  0  0  0  0  0  0  0
    2.3970   -0.8040    2.8280 C   0  0  1  0  0  0  0  0  0  0  0  0
    1.0770   -0.2300    3.0580 C   0  0  0  0  0  0  0  0  0  0  0  0
    0.7180    0.1390    4.1970 O   0  0  0  0  0  0  0  0  0  0  0  0
    2.2190   -2.0760    1.1870 H   0  0  0  0  0  0  0  0  0  0  0  0
    4.2260   -0.7890    0.2010 H   0  0  0  0  0  0  0  0  0  0  0  0
    4.5680   -2.1210    1.3300 H   0  0  0  0  0  0  0  0  0  0  0  0
    5.5340   -0.5910    2.7060 H   0  0  0  0  0  0  0  0  0  0  0  0
    5.0110    0.7940    1.7190 H   0  0  0  0  0  0  0  0  0  0  0  0
    3.1980    1.2030    3.1540 H   0  0  0  0  0  0  0  0  0  0  0  0
    3.8840   -0.0630    4.2040 H   0  0  0  0  0  0  0  0  0  0  0  0
    2.5250   -1.7050    3.4700 H   0  0  0  0  0  0  0  0  0  0  0  0
    3.5130    3.4580    0.6340 N   0  0  0  0  0  0  0  0  0  0  0  0
    2.4970    2.7750   -0.0890 C   0  0  0  0  0  0  0  0  0  0  0  0
    2.7960    2.1200   -1.1780 N   0  0  0  0  0  0  0  0  0  0  0  0
    1.1570    2.8060    0.3740 N   0  0  0  0  0  0  0  0  0  0  0  0
    0.1120    2.0820   -0.3290 C   0  0  0  0  0  0  0  0  0  0  0  0
   -1.1940    2.2700    0.3460 C   0  0  0  0  0  0  0  0  0  0  0  0
   -1.3490    1.8890    1.7500 C   0  0  0  0  0  0  0  0  0  0  0  0
   -1.1670    0.4980    2.2050 C   0  0  2  0  0  0  0  0  0  0  0  0
    0.1210   -0.0600    1.9890 N   0  0  0  0  0  0  0  0  0  0  0  0
   -2.2400   -0.3800    1.6280 C   0  0  0  0  0  0  0  0  0  0  0  0
   -3.4330    0.0030    1.7440 O   0  0  0  0  0  0  0  0  0  0  0  0
    4.4540    3.0620    0.7980 H   0  0  0  0  0  0  0  0  0  0  0  0
    3.2830    4.4080    1.0120 H   0  0  0  0  0  0  0  0  0  0  0  0
    2.0790    1.6220   -1.7130 H   0  0  0  0  0  0  0  0  0  0  0  0
    0.9310    3.3480    1.2160 H   0  0  0  0  0  0  0  0  0  0  0  0
    0.0480    2.6120   -1.3540 H   0  0  0  0  0  0  0  0  0  0  0  0
    0.3930    1.0720   -0.6000 H   0  0  0  0  0  0  0  0  0  0  0  0
   -1.4510    3.3840    0.2870 H   0  0  0  0  0  0  0  0  0  0  0  0
   -1.9720    1.8220   -0.3340 H   0  0  0  0  0  0  0  0  0  0  0  0
   -2.3510    2.2530    2.1650 H   0  0  0  0  0  0  0  0  0  0  0  0
   -0.6220    2.5500    2.3430 H   0  0  0  0  0  0  0  0  0  0  0  0
   -1.3660    0.5430    3.3430 H   0  0  0  0  0  0  0  0  0  0  0  0
    0.4200   -0.3860    1.0690 H   0  0  0  0  0  0  0  0  0  0  0  0
   -1.9420   -1.5990    0.9710 N   0  0  0  0  0  0  0  0  0  0  0  0
   -2.9960   -2.4570    0.4050 C   0  0  1  0  0  0  0  0  0  0  0  0
   -2.7220   -2.6620   -1.0440 C   0  0  0  0  0  0  0  0  0  0  0  0
   -3.6800   -3.4980   -1.8010 C   0  0  0  0  0  0  0  0  0  0  0  0
   -3.2110   -3.5530   -3.2450 C   0  0  0  0  0  0  0  0  0  0  0  0
   -1.8550   -4.1360   -3.4210 C   0  0  0  0  0  0  0  0  0  0  0  0
   -1.7150   -5.4840   -2.9550 N   0  0  0  0  0  0  0  0  0  0  0  0
   -2.9270   -3.7560    1.1080 C   0  0  0  0  0  0  0  0  0  0  0  0
   -3.7310   -4.6680    0.8570 O   0  0  0  0  0  0  0  0  0  0  0  0
   -1.9550   -3.9790    2.0690 O   0  0  0  0  0  0  0  0  0  0  0  0
   -0.9410   -1.8760    0.8990 H   0  0  0  0  0  0  0  0  0  0  0  0
   -3.9890   -2.0260    0.5720 H   0  0  0  0  0  0  0  0  0  0  0  0
   -1.7150   -3.1720   -1.1170 H   0  0  0  0  0  0  0  0  0  0  0  0
   -2.5970   -1.6980   -1.5880 H   0  0  0  0  0  0  0  0  0  0  0  0
   -4.7080   -3.0460   -1.8420 H   0  0  0  0  0  0  0  0  0  0  0  0
   -3.7970   -4.5100   -1.4180 H   0  0  0  0  0  0  0  0  0  0  0  0
   -3.1830   -2.5040   -3.6040 H   0  0  0  0  0  0  0  0  0  0  0  0
   -3.9450   -4.0870   -3.8800 H   0  0  0  0  0  0  0  0  0  0  0  0
   -1.6640   -4.1780   -4.5350 H   0  0  0  0  0  0  0  0  0  0  0  0
   -1.0580   -3.5040   -3.0080 H   0  0  0  0  0  0  0  0  0  0  0  0
   -1.0800   -5.6160   -2.1630 H   0  0  0  0  0  0  0  0  0  0  0  0
   -2.5850   -6.0330   -2.9430 H   0  0  0  0  0  0  0  0  0  0  0  0
  1  5  1  0  0  0  0
  2 10  1  0  0  0  0
  2  1  1  0  0  0  0
  2  3  1  0  0  0  0
  3 11  1  0  0  0  0
  3  4  1  0  0  0  0
  4 14  1  0  0  0  0
  5  6  1  0  0  0  0
  5  4  1  0  0  0  0
  5 15  1  1  0  0  0
  6  7  2  0  0  0  0
  8  1  1  0  0  0  0
  9  2  1  0  0  0  0
 12  3  1  0  0  0  0
 13  4  1  0  0  0  0
 16 27  1  0  0  0  0
 16 28  1  0  0  0  0
 17 19  1  0  0  0  0
 17 16  1  0  0  0  0
 18 17  2  0  0  0  0
 19 30  1  0  0  0  0
 20 21  1  0  0  0  0
 20 19  1  0  0  0  0
 21 22  1  0  0  0  0
 22 35  1  0  0  0  0
 22 23  1  0  0  0  0
 22 36  1  0  0  0  0
 23 37  1  1  0  0  0
 24 23  1  0  0  0  0
 24  6  1  0  0  0  0
 25 26  2  0  0  0  0
 25 23  1  0  0  0  0
 29 18  1  0  0  0  0
 31 20  1  0  0  0  0
 32 20  1  0  0  0  0
 33 21  1  0  0  0  0
 34 21  1  0  0  0  0
 38 24  1  0  0  0  0
 39 25  1  0  0  0  0
 40 50  1  1  0  0  0
 40 39  1  0  0  0  0
 40 46  1  0  0  0  0
 41 40  1  0  0  0  0
 42 54  1  0  0  0  0
 42 41  1  0  0  0  0
 43 42  1  0  0  0  0
 44 43  1  0  0  0  0
 44 58  1  0  0  0  0
 44 45  1  0  0  0  0
 45 60  1  0  0  0  0
 45 59  1  0  0  0  0
 46 48  1  0  0  0  0
 47 46  2  0  0  0  0
 49 39  1  0  0  0  0
 51 41  1  0  0  0  0
 52 41  1  0  0  0  0
 53 42  1  0  0  0  0
 55 43  1  0  0  0  0
 56 43  1  0  0  0  0
 57 44  1  0  0  0  0
M  END
$$$$
