PRM.pdb
 OpenBabel07022419023D

 56 56  0  0  1  0  0  0  0  0999 V2000
    2.7920   -3.1040    0.8850 N   0  0  0  0  0  0  0  0  0  0  0  0
    3.0610   -4.1010    1.9370 C   0  0  0  0  0  0  0  0  0  0  0  0
    2.6470   -3.4240    3.2260 C   0  0  0  0  0  0  0  0  0  0  0  0
    1.7380   -2.3200    2.7800 C   0  0  0  0  0  0  0  0  0  0  0  0
    1.5420   -2.5840    1.3270 C   0  0  1  0  0  0  0  0  0  0  0  0
    1.1190   -1.3680    0.5730 C   0  0  0  0  0  0  0  0  0  0  0  0
    1.8690   -0.9450   -0.3260 O   0  0  0  0  0  0  0  0  0  0  0  0
    2.6330   -3.6580    0.0140 H   0  0  0  0  0  0  0  0  0  0  0  0
    4.1290   -4.3890    1.9600 H   0  0  0  0  0  0  0  0  0  0  0  0
    2.3910   -4.9820    1.8250 H   0  0  0  0  0  0  0  0  0  0  0  0
    2.0820   -4.0910    3.9050 H   0  0  0  0  0  0  0  0  0  0  0  0
    3.5190   -3.0620    3.8050 H   0  0  0  0  0  0  0  0  0  0  0  0
    2.1690   -1.3200    3.0020 H   0  0  0  0  0  0  0  0  0  0  0  0
    0.7420   -2.3720    3.2710 H   0  0  0  0  0  0  0  0  0  0  0  0
    0.7500   -3.3380    1.2090 H   0  0  0  0  0  0  0  0  0  0  0  0
    4.3720    2.8920    2.8490 N   0  0  0  0  0  0  0  0  0  0  0  0
    2.9960    2.6380    2.6250 C   0  0  0  0  0  0  0  0  0  0  0  0
    2.4290    1.5610    3.1140 N   0  0  0  0  0  0  0  0  0  0  0  0
    2.1800    3.5250    1.8730 N   0  0  0  0  0  0  0  0  0  0  0  0
    0.9670    2.9670    1.2830 C   0  0  0  0  0  0  0  0  0  0  0  0
    1.4420    1.9910    0.1870 C   0  0  0  0  0  0  0  0  0  0  0  0
    0.3280    1.3440   -0.5390 C   0  0  0  0  0  0  0  0  0  0  0  0
   -0.6130    0.4840    0.2280 C   0  0  2  0  0  0  0  0  0  0  0  0
   -0.0920   -0.6900    0.8430 N   0  0  0  0  0  0  0  0  0  0  0  0
   -1.9620    0.3590   -0.3520 C   0  0  0  0  0  0  0  0  0  0  0  0
   -2.5070    1.3430   -0.9020 O   0  0  0  0  0  0  0  0  0  0  0  0
    5.1070    2.4640    2.2520 H   0  0  0  0  0  0  0  0  0  0  0  0
    4.6630    3.5190    3.6260 H   0  0  0  0  0  0  0  0  0  0  0  0
    2.9450    0.8620    3.6730 H   0  0  0  0  0  0  0  0  0  0  0  0
    2.4610    4.5150    1.7660 H   0  0  0  0  0  0  0  0  0  0  0  0
    0.3480    3.7690    0.8450 H   0  0  0  0  0  0  0  0  0  0  0  0
    0.3630    2.4520    2.0490 H   0  0  0  0  0  0  0  0  0  0  0  0
    2.0360    2.6820   -0.4980 H   0  0  0  0  0  0  0  0  0  0  0  0
    2.1980    1.3700    0.6570 H   0  0  0  0  0  0  0  0  0  0  0  0
    0.7930    0.7970   -1.4150 H   0  0  0  0  0  0  0  0  0  0  0  0
   -0.2300    2.1750   -1.0770 H   0  0  0  0  0  0  0  0  0  0  0  0
   -0.7970    1.1730    1.1660 H   0  0  0  0  0  0  0  0  0  0  0  0
   -0.6530   -1.1720    1.6300 H   0  0  0  0  0  0  0  0  0  0  0  0
   -2.3960   -4.1090   -4.2790 C   0  0  0  0  0  0  0  0  0  0  0  0
   -3.1110   -2.4970   -4.6050 S   0  0  0  0  0  0  0  0  0  0  0  0
   -3.1100   -1.4030   -3.1700 C   0  0  0  0  0  0  0  0  0  0  0  0
   -4.0300   -1.9050   -2.0740 C   0  0  0  0  0  0  0  0  0  0  0  0
   -4.0150   -0.9730   -0.8810 C   0  0  2  0  0  0  0  0  0  0  0  0
   -2.7070   -0.8610   -0.3190 N   0  0  0  0  0  0  0  0  0  0  0  0
   -5.0220   -1.4420    0.1000 C   0  0  0  0  0  0  0  0  0  0  0  0
   -6.2280   -1.5980   -0.2090 O   0  0  0  0  0  0  0  0  0  0  0  0
   -4.6070   -1.7140    1.3940 O   0  0  0  0  0  0  0  0  0  0  0  0
   -3.1480   -4.9260   -4.2560 H   0  0  0  0  0  0  0  0  0  0  0  0
   -1.7620   -4.1310   -3.3680 H   0  0  0  0  0  0  0  0  0  0  0  0
   -1.6890   -4.3810   -5.1160 H   0  0  0  0  0  0  0  0  0  0  0  0
   -2.0910   -1.1860   -2.7960 H   0  0  0  0  0  0  0  0  0  0  0  0
   -3.4980   -0.4110   -3.5420 H   0  0  0  0  0  0  0  0  0  0  0  0
   -3.7630   -2.9170   -1.7400 H   0  0  0  0  0  0  0  0  0  0  0  0
   -5.0560   -1.9520   -2.4910 H   0  0  0  0  0  0  0  0  0  0  0  0
   -4.2910    0.0370   -1.2740 H   0  0  0  0  0  0  0  0  0  0  0  0
   -2.2570   -1.6660    0.1330 H   0  0  0  0  0  0  0  0  0  0  0  0
  1  5  1  0  0  0  0
  1  2  1  0  0  0  0
  2  9  1  0  0  0  0
  2  3  1  0  0  0  0
  3 12  1  0  0  0  0
  3 11  1  0  0  0  0
  4 13  1  0  0  0  0
  4  3  1  0  0  0  0
  4 14  1  0  0  0  0
  5 15  1  6  0  0  0
  5  4  1  0  0  0  0
  6 24  1  0  0  0  0
  6  5  1  0  0  0  0
  7  6  2  0  0  0  0
  8  1  1  0  0  0  0
 10  2  1  0  0  0  0
 16 28  1  0  0  0  0
 17 16  1  0  0  0  0
 17 18  2  0  0  0  0
 18 29  1  0  0  0  0
 19 17  1  0  0  0  0
 20 19  1  0  0  0  0
 20 32  1  0  0  0  0
 21 34  1  0  0  0  0
 21 20  1  0  0  0  0
 22 21  1  0  0  0  0
 22 23  1  0  0  0  0
 23 24  1  0  0  0  0
 23 37  1  1  0  0  0
 24 38  1  0  0  0  0
 25 44  1  0  0  0  0
 25 23  1  0  0  0  0
 26 25  2  0  0  0  0
 27 16  1  0  0  0  0
 30 19  1  0  0  0  0
 31 20  1  0  0  0  0
 33 21  1  0  0  0  0
 35 22  1  0  0  0  0
 36 22  1  0  0  0  0
 39 48  1  0  0  0  0
 39 49  1  0  0  0  0
 40 39  1  0  0  0  0
 40 41  1  0  0  0  0
 41 51  1  0  0  0  0
 41 42  1  0  0  0  0
 42 53  1  0  0  0  0
 42 43  1  0  0  0  0
 43 55  1  6  0  0  0
 43 44  1  0  0  0  0
 43 45  1  0  0  0  0
 44 56  1  0  0  0  0
 45 47  1  0  0  0  0
 46 45  2  0  0  0  0
 50 39  1  0  0  0  0
 52 41  1  0  0  0  0
 54 42  1  0  0  0  0
M  END
$$$$
