PRN.pdb
 OpenBabel07022419023D

 53 53  0  0  1  0  0  0  0  0999 V2000
    0.5850   -2.6870    2.5320 N   0  0  0  0  0  0  0  0  0  0  0  0
    1.3810   -3.2610    3.6100 C   0  0  0  0  0  0  0  0  0  0  0  0
    0.5990   -2.9310    4.8620 C   0  0  0  0  0  0  0  0  0  0  0  0
   -0.7000   -2.3470    4.4110 C   0  0  0  0  0  0  0  0  0  0  0  0
   -0.7950   -2.7670    2.9630 C   0  0  1  0  0  0  0  0  0  0  0  0
   -1.5740   -1.7180    2.2570 C   0  0  0  0  0  0  0  0  0  0  0  0
   -2.7910   -1.5890    2.4600 O   0  0  0  0  0  0  0  0  0  0  0  0
    0.7520   -3.2530    1.6610 H   0  0  0  0  0  0  0  0  0  0  0  0
    1.4860   -4.3570    3.5000 H   0  0  0  0  0  0  0  0  0  0  0  0
    2.3850   -2.7640    3.6860 H   0  0  0  0  0  0  0  0  0  0  0  0
    1.1200   -2.2000    5.5130 H   0  0  0  0  0  0  0  0  0  0  0  0
    0.4060   -3.8220    5.4960 H   0  0  0  0  0  0  0  0  0  0  0  0
   -1.5320   -2.6990    5.0310 H   0  0  0  0  0  0  0  0  0  0  0  0
   -0.6090   -1.2220    4.4070 H   0  0  0  0  0  0  0  0  0  0  0  0
   -1.2350   -3.7690    2.8260 H   0  0  0  0  0  0  0  0  0  0  0  0
    4.4860    1.7470    0.3920 N   0  0  0  0  0  0  0  0  0  0  0  0
    3.2450    2.0830    0.9830 C   0  0  0  0  0  0  0  0  0  0  0  0
    2.9380    1.6470    2.1750 N   0  0  0  0  0  0  0  0  0  0  0  0
    2.2670    2.8890    0.3570 N   0  0  0  0  0  0  0  0  0  0  0  0
    0.8950    2.9770    0.8170 C   0  0  0  0  0  0  0  0  0  0  0  0
    0.2590    1.6270    0.5510 C   0  0  0  0  0  0  0  0  0  0  0  0
   -1.1600    1.5480    0.9670 C   0  0  0  0  0  0  0  0  0  0  0  0
   -1.7000    0.1760    0.6510 C   0  0  2  0  0  0  0  0  0  0  0  0
   -0.9510   -0.8400    1.3380 N   0  0  0  0  0  0  0  0  0  0  0  0
   -1.6000   -0.0360   -0.8380 C   0  0  0  0  0  0  0  0  0  0  0  0
   -2.1930    0.7450   -1.6320 O   0  0  0  0  0  0  0  0  0  0  0  0
    4.8720    2.2770   -0.4070 H   0  0  0  0  0  0  0  0  0  0  0  0
    5.0220    0.9490    0.7710 H   0  0  0  0  0  0  0  0  0  0  0  0
    3.6250    1.0470    2.6810 H   0  0  0  0  0  0  0  0  0  0  0  0
    2.5620    3.4430   -0.4750 H   0  0  0  0  0  0  0  0  0  0  0  0
    0.3740    3.7870    0.3010 H   0  0  0  0  0  0  0  0  0  0  0  0
    0.8800    3.2300    1.9020 H   0  0  0  0  0  0  0  0  0  0  0  0
    0.3450    1.4500   -0.5360 H   0  0  0  0  0  0  0  0  0  0  0  0
    0.8580    0.9030    1.1460 H   0  0  0  0  0  0  0  0  0  0  0  0
   -1.7790    2.3410    0.4840 H   0  0  0  0  0  0  0  0  0  0  0  0
   -1.2050    1.7650    2.0610 H   0  0  0  0  0  0  0  0  0  0  0  0
   -2.7860    0.1130    0.9370 H   0  0  0  0  0  0  0  0  0  0  0  0
    0.0610   -0.9400    1.1610 H   0  0  0  0  0  0  0  0  0  0  0  0
   -3.1590   -4.2850   -2.6220 N   0  0  0  0  0  0  0  0  0  0  0  0
   -2.0670   -3.3820   -2.4340 C   0  0  0  0  0  0  0  0  0  0  0  0
   -1.2290   -3.6710   -1.5680 O   0  0  0  0  0  0  0  0  0  0  0  0
   -1.9230   -2.1460   -3.2290 C   0  0  0  0  0  0  0  0  0  0  0  0
   -0.6800   -1.4170   -2.7610 C   0  0  2  0  0  0  0  0  0  0  0  0
   -0.8490   -1.1060   -1.3750 N   0  0  0  0  0  0  0  0  0  0  0  0
   -0.3490   -0.2830   -3.6380 C   0  0  0  0  0  0  0  0  0  0  0  0
   -0.2360   -0.4910   -4.8690 O   0  0  0  0  0  0  0  0  0  0  0  0
   -0.1620    0.9750   -3.1470 O   0  0  0  0  0  0  0  0  0  0  0  0
   -4.1390   -3.9510   -2.7240 H   0  0  0  0  0  0  0  0  0  0  0  0
   -2.9980   -5.3130   -2.6640 H   0  0  0  0  0  0  0  0  0  0  0  0
   -2.7990   -1.4850   -3.0520 H   0  0  0  0  0  0  0  0  0  0  0  0
   -1.8240   -2.4300   -4.3020 H   0  0  0  0  0  0  0  0  0  0  0  0
    0.1950   -2.1630   -2.8170 H   0  0  0  0  0  0  0  0  0  0  0  0
   -0.3790   -1.7160   -0.6630 H   0  0  0  0  0  0  0  0  0  0  0  0
  1  5  1  0  0  0  0
  1  2  1  0  0  0  0
  2 10  1  0  0  0  0
  2  3  1  0  0  0  0
  3 12  1  0  0  0  0
  3 11  1  0  0  0  0
  4  3  1  0  0  0  0
  4 13  1  0  0  0  0
  5 15  1  6  0  0  0
  5  4  1  0  0  0  0
  6  7  2  0  0  0  0
  6  5  1  0  0  0  0
  8  1  1  0  0  0  0
  9  2  1  0  0  0  0
 14  4  1  0  0  0  0
 16 28  1  0  0  0  0
 16 17  1  0  0  0  0
 17 18  2  0  0  0  0
 18 29  1  0  0  0  0
 19 20  1  0  0  0  0
 19 17  1  0  0  0  0
 20 32  1  0  0  0  0
 21 20  1  0  0  0  0
 21 22  1  0  0  0  0
 21 34  1  0  0  0  0
 22 36  1  0  0  0  0
 23 37  1  1  0  0  0
 23 22  1  0  0  0  0
 23 24  1  0  0  0  0
 24  6  1  0  0  0  0
 25 23  1  0  0  0  0
 26 25  2  0  0  0  0
 27 16  1  0  0  0  0
 30 19  1  0  0  0  0
 31 20  1  0  0  0  0
 33 21  1  0  0  0  0
 35 22  1  0  0  0  0
 38 24  1  0  0  0  0
 39 40  1  0  0  0  0
 40 41  2  0  0  0  0
 42 50  1  0  0  0  0
 42 43  1  0  0  0  0
 42 40  1  0  0  0  0
 43 52  1  6  0  0  0
 43 44  1  0  0  0  0
 44 25  1  0  0  0  0
 44 53  1  0  0  0  0
 45 47  1  0  0  0  0
 45 43  1  0  0  0  0
 46 45  2  0  0  0  0
 48 39  1  0  0  0  0
 49 39  1  0  0  0  0
 51 42  1  0  0  0  0
M  END
$$$$
