PRP.pdb
 OpenBabel07022419023D

 53 54  0  0  1  0  0  0  0  0999 V2000
    2.3610   -2.2100    4.7260 N   0  0  0  0  0  0  0  0  0  0  0  0
    2.0190   -3.6220    4.8280 C   0  0  0  0  0  0  0  0  0  0  0  0
    2.4370   -4.2270    3.5280 C   0  0  0  0  0  0  0  0  0  0  0  0
    2.9010   -3.0820    2.6560 C   0  0  0  0  0  0  0  0  0  0  0  0
    2.3520   -1.8670    3.3420 C   0  0  1  0  0  0  0  0  0  0  0  0
    0.9890   -1.5440    2.8360 C   0  0  0  0  0  0  0  0  0  0  0  0
   -0.0150   -1.5790    3.6040 O   0  0  0  0  0  0  0  0  0  0  0  0
    3.3600   -2.1160    5.0730 H   0  0  0  0  0  0  0  0  0  0  0  0
    2.5760   -4.0530    5.6990 H   0  0  0  0  0  0  0  0  0  0  0  0
    0.9310   -3.6720    5.0190 H   0  0  0  0  0  0  0  0  0  0  0  0
    3.2380   -4.9900    3.6530 H   0  0  0  0  0  0  0  0  0  0  0  0
    1.5410   -4.6890    3.0390 H   0  0  0  0  0  0  0  0  0  0  0  0
    4.0060   -3.0270    2.5840 H   0  0  0  0  0  0  0  0  0  0  0  0
    2.5130   -3.1920    1.6100 H   0  0  0  0  0  0  0  0  0  0  0  0
    2.9890   -0.9680    3.2020 H   0  0  0  0  0  0  0  0  0  0  0  0
    2.1850    2.2520   -1.6990 N   0  0  0  0  0  0  0  0  0  0  0  0
    1.0600    2.7750   -1.0150 C   0  0  0  0  0  0  0  0  0  0  0  0
   -0.0850    2.9130   -1.6420 N   0  0  0  0  0  0  0  0  0  0  0  0
    1.1280    3.1620    0.3370 N   0  0  0  0  0  0  0  0  0  0  0  0
    0.1000    2.8960    1.2900 C   0  0  0  0  0  0  0  0  0  0  0  0
   -0.0610    1.4570    1.6820 C   0  0  0  0  0  0  0  0  0  0  0  0
   -0.4080    0.6210    0.5070 C   0  0  0  0  0  0  0  0  0  0  0  0
   -0.5710   -0.8610    0.9500 C   0  0  2  0  0  0  0  0  0  0  0  0
    0.7380   -1.1850    1.4930 N   0  0  0  0  0  0  0  0  0  0  0  0
   -0.8760   -1.6000   -0.2740 C   0  0  0  0  0  0  0  0  0  0  0  0
    0.0130   -2.2860   -0.8130 O   0  0  0  0  0  0  0  0  0  0  0  0
    2.9960    2.8520   -1.9810 H   0  0  0  0  0  0  0  0  0  0  0  0
    2.2460    1.2440   -1.9470 H   0  0  0  0  0  0  0  0  0  0  0  0
   -0.1910    2.6460   -2.6370 H   0  0  0  0  0  0  0  0  0  0  0  0
    1.9890    3.6760    0.6720 H   0  0  0  0  0  0  0  0  0  0  0  0
    0.2490    3.4750    2.2340 H   0  0  0  0  0  0  0  0  0  0  0  0
   -0.8620    3.2710    0.8380 H   0  0  0  0  0  0  0  0  0  0  0  0
   -0.7870    1.3320    2.5220 H   0  0  0  0  0  0  0  0  0  0  0  0
    0.9200    1.1050    2.1220 H   0  0  0  0  0  0  0  0  0  0  0  0
   -1.2420    0.9470   -0.1040 H   0  0  0  0  0  0  0  0  0  0  0  0
    0.4890    0.5920   -0.1780 H   0  0  0  0  0  0  0  0  0  0  0  0
   -1.3240   -0.9080    1.7450 H   0  0  0  0  0  0  0  0  0  0  0  0
    1.5410   -1.1460    0.8340 H   0  0  0  0  0  0  0  0  0  0  0  0
   -2.1600   -1.5480   -0.8500 N   0  0  0  0  0  0  0  0  0  0  0  0
   -3.3720   -0.8760   -0.4110 C   0  0  0  0  0  0  0  0  0  0  0  0
   -3.8660   -0.3130   -1.7510 C   0  0  0  0  0  0  0  0  0  0  0  0
   -3.8730   -1.6440   -2.5250 C   0  0  0  0  0  0  0  0  0  0  0  0
   -2.5340   -2.2140   -2.1120 C   0  0  1  0  0  0  0  0  0  0  0  0
   -1.5780   -1.7970   -3.1890 C   0  0  0  0  0  0  0  0  0  0  0  0
   -0.6990   -0.9570   -2.9340 O   0  0  0  0  0  0  0  0  0  0  0  0
   -1.6490   -2.3250   -4.4660 O   0  0  0  0  0  0  0  0  0  0  0  0
   -3.2460   -0.1280    0.3580 H   0  0  0  0  0  0  0  0  0  0  0  0
   -4.1520   -1.6310   -0.1210 H   0  0  0  0  0  0  0  0  0  0  0  0
   -3.0990    0.3110   -2.2210 H   0  0  0  0  0  0  0  0  0  0  0  0
   -4.8590    0.1260   -1.6790 H   0  0  0  0  0  0  0  0  0  0  0  0
   -4.7300   -2.2170   -2.1210 H   0  0  0  0  0  0  0  0  0  0  0  0
   -3.9560   -1.4680   -3.6060 H   0  0  0  0  0  0  0  0  0  0  0  0
   -2.5680   -3.2970   -2.0280 H   0  0  0  0  0  0  0  0  0  0  0  0
  1  2  1  0  0  0  0
  1  8  1  0  0  0  0
  2 10  1  0  0  0  0
  2  9  1  0  0  0  0
  3 11  1  0  0  0  0
  3  2  1  0  0  0  0
  4  5  1  0  0  0  0
  4  3  1  0  0  0  0
  5 15  1  6  0  0  0
  5  1  1  0  0  0  0
  6  5  1  0  0  0  0
  6  7  2  0  0  0  0
 12  3  1  0  0  0  0
 13  4  1  0  0  0  0
 14  4  1  0  0  0  0
 16 17  1  0  0  0  0
 17 19  1  0  0  0  0
 18 17  2  0  0  0  0
 19 30  1  0  0  0  0
 19 20  1  0  0  0  0
 20 21  1  0  0  0  0
 20 31  1  0  0  0  0
 21 34  1  0  0  0  0
 21 33  1  0  0  0  0
 22 23  1  0  0  0  0
 22 21  1  0  0  0  0
 23 24  1  0  0  0  0
 23 37  1  1  0  0  0
 24  6  1  0  0  0  0
 25 23  1  0  0  0  0
 26 25  2  0  0  0  0
 27 16  1  0  0  0  0
 28 16  1  0  0  0  0
 29 18  1  0  0  0  0
 32 20  1  0  0  0  0
 35 22  1  0  0  0  0
 36 22  1  0  0  0  0
 38 24  1  0  0  0  0
 39 40  1  0  0  0  0
 39 25  1  0  0  0  0
 40 48  1  0  0  0  0
 40 47  1  0  0  0  0
 41 50  1  0  0  0  0
 41 40  1  0  0  0  0
 42 51  1  0  0  0  0
 42 43  1  0  0  0  0
 42 41  1  0  0  0  0
 43 53  1  1  0  0  0
 43 39  1  0  0  0  0
 44 45  1  0  0  0  0
 44 43  1  0  0  0  0
 46 44  2  0  0  0  0
 49 41  1  0  0  0  0
 52 42  1  0  0  0  0
M  END
$$$$
