PRV.pdb
 OpenBabel07022419023D

 55 55  0  0  1  0  0  0  0  0999 V2000
    0.7700   -2.1320    5.1170 N   0  0  0  0  0  0  0  0  0  0  0  0
    0.3500   -3.3930    5.6710 C   0  0  0  0  0  0  0  0  0  0  0  0
    0.3070   -4.3860    4.5580 C   0  0  0  0  0  0  0  0  0  0  0  0
    0.9430   -3.7510    3.3680 C   0  0  0  0  0  0  0  0  0  0  0  0
    1.2730   -2.3640    3.8030 C   0  0  1  0  0  0  0  0  0  0  0  0
    0.7070   -1.4110    2.7990 C   0  0  0  0  0  0  0  0  0  0  0  0
   -0.1030   -0.5520    3.2220 O   0  0  0  0  0  0  0  0  0  0  0  0
    1.4720   -1.7050    5.7600 H   0  0  0  0  0  0  0  0  0  0  0  0
    1.0520   -3.7700    6.4500 H   0  0  0  0  0  0  0  0  0  0  0  0
   -0.6490   -3.3190    6.1900 H   0  0  0  0  0  0  0  0  0  0  0  0
    0.7970   -5.3630    4.8420 H   0  0  0  0  0  0  0  0  0  0  0  0
   -0.7660   -4.6800    4.3630 H   0  0  0  0  0  0  0  0  0  0  0  0
    1.8170   -4.3240    2.9950 H   0  0  0  0  0  0  0  0  0  0  0  0
    0.2100   -3.7500    2.5150 H   0  0  0  0  0  0  0  0  0  0  0  0
    2.3880   -2.2080    3.8380 H   0  0  0  0  0  0  0  0  0  0  0  0
    2.9810    4.2540    1.6980 N   0  0  0  0  0  0  0  0  0  0  0  0
    2.2430    3.8710    0.5490 C   0  0  0  0  0  0  0  0  0  0  0  0
    2.6390    4.2630   -0.6090 N   0  0  0  0  0  0  0  0  0  0  0  0
    1.0810    3.0630    0.6640 N   0  0  0  0  0  0  0  0  0  0  0  0
    0.4730    2.4280   -0.4910 C   0  0  0  0  0  0  0  0  0  0  0  0
    1.3850    1.3330   -1.0450 C   0  0  0  0  0  0  0  0  0  0  0  0
    1.6500    0.2710   -0.0470 C   0  0  0  0  0  0  0  0  0  0  0  0
    0.4530   -0.4760    0.4760 C   0  0  2  0  0  0  0  0  0  0  0  0
    1.0400   -1.4410    1.4380 N   0  0  0  0  0  0  0  0  0  0  0  0
   -0.2820   -1.2590   -0.5120 C   0  0  0  0  0  0  0  0  0  0  0  0
   -0.2220   -2.5360   -0.4340 O   0  0  0  0  0  0  0  0  0  0  0  0
    2.7060    5.0790    2.3040 H   0  0  0  0  0  0  0  0  0  0  0  0
    3.8260    3.6850    1.9400 H   0  0  0  0  0  0  0  0  0  0  0  0
    3.4830    4.8560   -0.7500 H   0  0  0  0  0  0  0  0  0  0  0  0
    0.6800    2.9440    1.6190 H   0  0  0  0  0  0  0  0  0  0  0  0
   -0.4680    1.9820   -0.1750 H   0  0  0  0  0  0  0  0  0  0  0  0
    0.2570    3.1630   -1.2920 H   0  0  0  0  0  0  0  0  0  0  0  0
    1.0400    1.0040   -2.0380 H   0  0  0  0  0  0  0  0  0  0  0  0
    2.3760    1.8800   -1.1810 H   0  0  0  0  0  0  0  0  0  0  0  0
    2.0900    0.7880    0.8580 H   0  0  0  0  0  0  0  0  0  0  0  0
    2.4210   -0.4540   -0.3490 H   0  0  0  0  0  0  0  0  0  0  0  0
   -0.2100    0.1820    1.0570 H   0  0  0  0  0  0  0  0  0  0  0  0
    1.7150   -2.1590    1.0920 H   0  0  0  0  0  0  0  0  0  0  0  0
   -4.0530   -2.2400   -3.2870 C   0  0  0  0  0  0  0  0  0  0  0  0
   -3.2600   -1.3730   -2.3350 C   0  0  0  0  0  0  0  0  0  0  0  0
   -3.6890   -1.6600   -0.9080 C   0  0  0  0  0  0  0  0  0  0  0  0
   -1.7740   -1.6000   -2.5150 C   0  0  2  0  0  0  0  0  0  0  0  0
   -1.0720   -0.7350   -1.5680 N   0  0  0  0  0  0  0  0  0  0  0  0
   -1.3830   -1.2830   -3.9000 C   0  0  0  0  0  0  0  0  0  0  0  0
   -0.5380   -0.3610   -4.1760 O   0  0  0  0  0  0  0  0  0  0  0  0
   -1.8900   -1.9460   -5.0070 O   0  0  0  0  0  0  0  0  0  0  0  0
   -5.0620   -2.4330   -2.8400 H   0  0  0  0  0  0  0  0  0  0  0  0
   -4.1110   -1.8420   -4.3040 H   0  0  0  0  0  0  0  0  0  0  0  0
   -3.5210   -3.2270   -3.3350 H   0  0  0  0  0  0  0  0  0  0  0  0
   -3.5260   -0.3190   -2.5530 H   0  0  0  0  0  0  0  0  0  0  0  0
   -3.3670   -2.6410   -0.5500 H   0  0  0  0  0  0  0  0  0  0  0  0
   -3.2180   -0.8950   -0.2340 H   0  0  0  0  0  0  0  0  0  0  0  0
   -4.7880   -1.5150   -0.8590 H   0  0  0  0  0  0  0  0  0  0  0  0
   -1.5500   -2.6550   -2.2270 H   0  0  0  0  0  0  0  0  0  0  0  0
   -1.1610    0.2750   -1.6710 H   0  0  0  0  0  0  0  0  0  0  0  0
  1  2  1  0  0  0  0
  1  8  1  0  0  0  0
  2 10  1  0  0  0  0
  2  9  1  0  0  0  0
  3 11  1  0  0  0  0
  3  2  1  0  0  0  0
  4  5  1  0  0  0  0
  4  3  1  0  0  0  0
  5 15  1  1  0  0  0
  5  1  1  0  0  0  0
  6  7  2  0  0  0  0
  6  5  1  0  0  0  0
 12  3  1  0  0  0  0
 13  4  1  0  0  0  0
 14  4  1  0  0  0  0
 16 28  1  0  0  0  0
 16 27  1  0  0  0  0
 17 19  1  0  0  0  0
 17 16  1  0  0  0  0
 18 17  2  0  0  0  0
 19 30  1  0  0  0  0
 20 31  1  0  0  0  0
 20 19  1  0  0  0  0
 21 20  1  0  0  0  0
 21 22  1  0  0  0  0
 22 23  1  0  0  0  0
 22 35  1  0  0  0  0
 23 37  1  1  0  0  0
 23 24  1  0  0  0  0
 24  6  1  0  0  0  0
 25 26  2  0  0  0  0
 25 23  1  0  0  0  0
 29 18  1  0  0  0  0
 32 20  1  0  0  0  0
 33 21  1  0  0  0  0
 34 21  1  0  0  0  0
 36 22  1  0  0  0  0
 38 24  1  0  0  0  0
 39 47  1  0  0  0  0
 39 40  1  0  0  0  0
 40 41  1  0  0  0  0
 41 53  1  0  0  0  0
 41 51  1  0  0  0  0
 41 52  1  0  0  0  0
 42 40  1  0  0  0  0
 42 54  1  1  0  0  0
 42 43  1  0  0  0  0
 43 25  1  0  0  0  0
 44 42  1  0  0  0  0
 45 44  1  0  0  0  0
 46 44  2  0  0  0  0
 48 39  1  0  0  0  0
 49 39  1  0  0  0  0
 50 40  1  0  0  0  0
 55 43  1  0  0  0  0
M  END
$$$$
