PRW.pdb
 OpenBabel07022419023D

 63 65  0  0  1  0  0  0  0  0999 V2000
    4.7530   -0.7870    4.2610 N   0  0  0  0  0  0  0  0  0  0  0  0
    5.2170   -2.1420    4.2410 C   0  0  0  0  0  0  0  0  0  0  0  0
    5.0210   -2.6090    2.8120 C   0  0  0  0  0  0  0  0  0  0  0  0
    5.3380   -1.3270    2.0430 C   0  0  0  0  0  0  0  0  0  0  0  0
    4.5950   -0.3260    2.9110 C   0  0  1  0  0  0  0  0  0  0  0  0
    3.1510   -0.2880    2.5820 C   0  0  0  0  0  0  0  0  0  0  0  0
    2.3330   -0.6650    3.4760 O   0  0  0  0  0  0  0  0  0  0  0  0
    3.8770   -0.6900    4.8240 H   0  0  0  0  0  0  0  0  0  0  0  0
    4.6700   -2.8010    4.9590 H   0  0  0  0  0  0  0  0  0  0  0  0
    6.3120   -2.1450    4.4350 H   0  0  0  0  0  0  0  0  0  0  0  0
    5.6620   -3.4490    2.5410 H   0  0  0  0  0  0  0  0  0  0  0  0
    3.9440   -2.8690    2.7200 H   0  0  0  0  0  0  0  0  0  0  0  0
    6.4260   -1.1640    2.1730 H   0  0  0  0  0  0  0  0  0  0  0  0
    5.0050   -1.3540    1.0110 H   0  0  0  0  0  0  0  0  0  0  0  0
    5.0140    0.6760    2.7240 H   0  0  0  0  0  0  0  0  0  0  0  0
    0.1680    4.0280   -2.7310 N   0  0  0  0  0  0  0  0  0  0  0  0
   -0.7290    3.6580   -1.7030 C   0  0  0  0  0  0  0  0  0  0  0  0
   -1.8380    3.0580   -2.0050 N   0  0  0  0  0  0  0  0  0  0  0  0
   -0.4530    3.9260   -0.3270 N   0  0  0  0  0  0  0  0  0  0  0  0
   -1.1340    3.1980    0.7000 C   0  0  0  0  0  0  0  0  0  0  0  0
   -0.7280    1.7210    0.7480 C   0  0  0  0  0  0  0  0  0  0  0  0
    0.7380    1.5770    1.0020 C   0  0  0  0  0  0  0  0  0  0  0  0
    1.1940    0.1380    1.1130 C   0  0  2  0  0  0  0  0  0  0  0  0
    2.6490    0.1390    1.3440 N   0  0  0  0  0  0  0  0  0  0  0  0
    0.9150   -0.6850   -0.0780 C   0  0  0  0  0  0  0  0  0  0  0  0
    1.8690   -1.0290   -0.8340 O   0  0  0  0  0  0  0  0  0  0  0  0
    0.2850    3.4040   -3.5460 H   0  0  0  0  0  0  0  0  0  0  0  0
    0.7170    4.9080   -2.6980 H   0  0  0  0  0  0  0  0  0  0  0  0
   -2.0730    2.8480   -2.9950 H   0  0  0  0  0  0  0  0  0  0  0  0
    0.2610    4.6690   -0.1440 H   0  0  0  0  0  0  0  0  0  0  0  0
   -0.9950    3.6820    1.6710 H   0  0  0  0  0  0  0  0  0  0  0  0
   -2.2360    3.2170    0.4770 H   0  0  0  0  0  0  0  0  0  0  0  0
   -1.3940    1.2060    1.4290 H   0  0  0  0  0  0  0  0  0  0  0  0
   -0.9430    1.3670   -0.3020 H   0  0  0  0  0  0  0  0  0  0  0  0
    1.2920    2.0700    0.1760 H   0  0  0  0  0  0  0  0  0  0  0  0
    0.9600    2.1060    1.9490 H   0  0  0  0  0  0  0  0  0  0  0  0
    0.6980   -0.2650    2.0180 H   0  0  0  0  0  0  0  0  0  0  0  0
    3.2540    0.4550    0.5880 H   0  0  0  0  0  0  0  0  0  0  0  0
   -0.3940   -1.1060   -0.3980 N   0  0  0  0  0  0  0  0  0  0  0  0
   -0.7240   -1.9020   -1.5460 C   0  0  1  0  0  0  0  0  0  0  0  0
   -1.2500   -3.2610   -1.1580 C   0  0  0  0  0  0  0  0  0  0  0  0
   -2.4210   -3.2830   -0.3110 C   0  0  0  0  0  0  0  0  0  0  0  0
   -2.3130   -3.4170    1.0870 C   0  0  0  0  0  0  0  0  0  0  0  0
   -3.5280   -3.3660    1.6160 N   0  0  0  0  0  0  0  0  0  0  0  0
   -4.4650   -3.2050    0.6600 C   0  0  0  0  0  0  0  0  0  0  0  0
   -5.8440   -3.1060    0.7090 C   0  0  0  0  0  0  0  0  0  0  0  0
   -6.5090   -2.9550   -0.4870 C   0  0  0  0  0  0  0  0  0  0  0  0
   -5.8350   -2.9040   -1.6920 C   0  0  0  0  0  0  0  0  0  0  0  0
   -4.4630   -3.0040   -1.7260 C   0  0  0  0  0  0  0  0  0  0  0  0
   -3.7570   -3.1550   -0.5510 C   0  0  0  0  0  0  0  0  0  0  0  0
   -1.5970   -1.2720   -2.5330 C   0  0  0  0  0  0  0  0  0  0  0  0
   -1.8390   -1.7980   -3.6600 O   0  0  0  0  0  0  0  0  0  0  0  0
   -2.2420   -0.0380   -2.3250 O   0  0  0  0  0  0  0  0  0  0  0  0
   -1.1700   -0.8480    0.2400 H   0  0  0  0  0  0  0  0  0  0  0  0
    0.2740   -2.0390   -2.0870 H   0  0  0  0  0  0  0  0  0  0  0  0
   -0.3900   -3.8250   -0.7020 H   0  0  0  0  0  0  0  0  0  0  0  0
   -1.4880   -3.8660   -2.0840 H   0  0  0  0  0  0  0  0  0  0  0  0
   -1.4030   -3.5420    1.6580 H   0  0  0  0  0  0  0  0  0  0  0  0
   -3.7740   -3.4380    2.6300 H   0  0  0  0  0  0  0  0  0  0  0  0
   -6.3550   -3.1480    1.6610 H   0  0  0  0  0  0  0  0  0  0  0  0
   -7.5870   -2.8760   -0.4760 H   0  0  0  0  0  0  0  0  0  0  0  0
   -6.3500   -2.7860   -2.6410 H   0  0  0  0  0  0  0  0  0  0  0  0
   -3.9440   -2.9770   -2.6950 H   0  0  0  0  0  0  0  0  0  0  0  0
  1  8  1  0  0  0  0
  2  1  1  0  0  0  0
  2 10  1  0  0  0  0
  2  9  1  0  0  0  0
  3  2  1  0  0  0  0
  4 13  1  0  0  0  0
  4  3  1  0  0  0  0
  4  5  1  0  0  0  0
  5 15  1  6  0  0  0
  5  1  1  0  0  0  0
  6  5  1  0  0  0  0
  6  7  2  0  0  0  0
 11  3  1  0  0  0  0
 12  3  1  0  0  0  0
 14  4  1  0  0  0  0
 16 28  1  0  0  0  0
 16 17  1  0  0  0  0
 17 19  1  0  0  0  0
 18 17  2  0  0  0  0
 19 30  1  0  0  0  0
 19 20  1  0  0  0  0
 20 21  1  0  0  0  0
 20 31  1  0  0  0  0
 21 22  1  0  0  0  0
 21 33  1  0  0  0  0
 22 23  1  0  0  0  0
 22 36  1  0  0  0  0
 23 24  1  0  0  0  0
 23 37  1  1  0  0  0
 24  6  1  0  0  0  0
 25 23  1  0  0  0  0
 26 25  2  0  0  0  0
 27 16  1  0  0  0  0
 29 18  1  0  0  0  0
 32 20  1  0  0  0  0
 34 21  1  0  0  0  0
 35 22  1  0  0  0  0
 38 24  1  0  0  0  0
 39 25  1  0  0  0  0
 39 54  1  0  0  0  0
 40 55  1  6  0  0  0
 40 41  1  0  0  0  0
 40 39  1  0  0  0  0
 41 56  1  0  0  0  0
 41 42  1  0  0  0  0
 42 43  2  0  0  0  0
 43 44  1  0  0  0  0
 43 58  1  0  0  0  0
 44 59  1  0  0  0  0
 45 46  1  0  0  0  0
 45 44  1  0  0  0  0
 46 60  1  0  0  0  0
 47 61  1  0  0  0  0
 47 46  2  0  0  0  0
 48 47  1  0  0  0  0
 49 48  2  0  0  0  0
 49 50  1  0  0  0  0
 50 42  1  0  0  0  0
 50 45  2  0  0  0  0
 51 53  1  0  0  0  0
 51 40  1  0  0  0  0
 52 51  2  0  0  0  0
 57 41  1  0  0  0  0
 62 48  1  0  0  0  0
 63 49  1  0  0  0  0
M  END
$$$$
