PRY.pdb
 OpenBabel07022419023D

 60 61  0  0  1  0  0  0  0  0999 V2000
    0.7360   -0.5710    4.3780 N   0  0  0  0  0  0  0  0  0  0  0  0
    0.3240    0.7400    4.8550 C   0  0  0  0  0  0  0  0  0  0  0  0
   -1.1540    0.8410    4.5700 C   0  0  0  0  0  0  0  0  0  0  0  0
   -1.4300   -0.3090    3.6680 C   0  0  0  0  0  0  0  0  0  0  0  0
   -0.0980   -0.8810    3.2540 C   0  0  1  0  0  0  0  0  0  0  0  0
    0.3970   -0.2550    1.9890 C   0  0  0  0  0  0  0  0  0  0  0  0
    1.4350    0.4610    2.0290 O   0  0  0  0  0  0  0  0  0  0  0  0
    0.4660   -1.2430    5.1480 H   0  0  0  0  0  0  0  0  0  0  0  0
    0.9180    1.5020    4.3500 H   0  0  0  0  0  0  0  0  0  0  0  0
    0.4700    0.8600    5.9480 H   0  0  0  0  0  0  0  0  0  0  0  0
   -1.3880    1.8240    4.1560 H   0  0  0  0  0  0  0  0  0  0  0  0
   -1.7530    0.7570    5.5230 H   0  0  0  0  0  0  0  0  0  0  0  0
   -2.0720   -0.0590    2.8020 H   0  0  0  0  0  0  0  0  0  0  0  0
   -1.9730   -1.0900    4.2370 H   0  0  0  0  0  0  0  0  0  0  0  0
   -0.1950   -1.9730    3.1210 H   0  0  0  0  0  0  0  0  0  0  0  0
    4.0810    2.1290    0.9720 N   0  0  0  0  0  0  0  0  0  0  0  0
    3.2000    2.9130    0.1940 C   0  0  0  0  0  0  0  0  0  0  0  0
    3.3900    3.0430   -1.0920 N   0  0  0  0  0  0  0  0  0  0  0  0
    2.0810    3.5970    0.7590 N   0  0  0  0  0  0  0  0  0  0  0  0
    0.8190    3.6580    0.1100 C   0  0  0  0  0  0  0  0  0  0  0  0
    0.1060    2.3610    0.1130 C   0  0  0  0  0  0  0  0  0  0  0  0
    0.7870    1.2080   -0.5640 C   0  0  0  0  0  0  0  0  0  0  0  0
   -0.0900   -0.0280   -0.4690 C   0  0  2  0  0  0  0  0  0  0  0  0
   -0.3550   -0.5250    0.8280 N   0  0  0  0  0  0  0  0  0  0  0  0
    0.2430   -1.0950   -1.4000 C   0  0  0  0  0  0  0  0  0  0  0  0
    0.5230   -0.8690   -2.6300 O   0  0  0  0  0  0  0  0  0  0  0  0
    4.5180    2.4950    1.8340 H   0  0  0  0  0  0  0  0  0  0  0  0
    4.3140    1.1550    0.6930 H   0  0  0  0  0  0  0  0  0  0  0  0
    4.1880    2.5780   -1.5700 H   0  0  0  0  0  0  0  0  0  0  0  0
    2.2430    4.0580    1.6960 H   0  0  0  0  0  0  0  0  0  0  0  0
    0.9290    4.0250   -0.9420 H   0  0  0  0  0  0  0  0  0  0  0  0
    0.1800    4.3810    0.6720 H   0  0  0  0  0  0  0  0  0  0  0  0
   -0.9170    2.5230   -0.4320 H   0  0  0  0  0  0  0  0  0  0  0  0
   -0.2530    2.1650    1.1420 H   0  0  0  0  0  0  0  0  0  0  0  0
    1.7650    1.0500   -0.1300 H   0  0  0  0  0  0  0  0  0  0  0  0
    0.8220    1.4500   -1.6620 H   0  0  0  0  0  0  0  0  0  0  0  0
   -1.1290    0.3940   -0.8070 H   0  0  0  0  0  0  0  0  0  0  0  0
   -1.2110   -1.1640    0.9060 H   0  0  0  0  0  0  0  0  0  0  0  0
   -5.2270   -4.9190    0.3320 O   0  0  0  0  0  0  0  0  0  0  0  0
   -4.0710   -4.6420   -0.4130 C   0  0  0  0  0  0  0  0  0  0  0  0
   -3.7740   -3.3470   -0.8070 C   0  0  0  0  0  0  0  0  0  0  0  0
   -2.6190   -3.0990   -1.5480 C   0  0  0  0  0  0  0  0  0  0  0  0
   -1.7700   -4.1240   -1.8910 C   0  0  0  0  0  0  0  0  0  0  0  0
   -0.5470   -3.8600   -2.6760 C   0  0  0  0  0  0  0  0  0  0  0  0
    0.5780   -3.5810   -1.7280 C   0  0  2  0  0  0  0  0  0  0  0  0
    0.2620   -2.4430   -0.9300 N   0  0  0  0  0  0  0  0  0  0  0  0
    1.8960   -3.4150   -2.4100 C   0  0  0  0  0  0  0  0  0  0  0  0
    2.3340   -4.2870   -3.1940 O   0  0  0  0  0  0  0  0  0  0  0  0
   -2.0960   -5.3960   -1.4840 C   0  0  0  0  0  0  0  0  0  0  0  0
   -3.2330   -5.6700   -0.7500 C   0  0  0  0  0  0  0  0  0  0  0  0
    2.6250   -2.2810   -2.1600 O   0  0  0  0  0  0  0  0  0  0  0  0
   -5.9910   -4.2660    0.3230 H   0  0  0  0  0  0  0  0  0  0  0  0
   -4.4440   -2.5660   -0.5310 H   0  0  0  0  0  0  0  0  0  0  0  0
   -2.4510   -2.0720   -1.8190 H   0  0  0  0  0  0  0  0  0  0  0  0
   -0.6640   -2.9380   -3.3120 H   0  0  0  0  0  0  0  0  0  0  0  0
   -0.2490   -4.7310   -3.2950 H   0  0  0  0  0  0  0  0  0  0  0  0
    0.7230   -4.4640   -1.0390 H   0  0  0  0  0  0  0  0  0  0  0  0
    0.0160   -2.5810    0.0960 H   0  0  0  0  0  0  0  0  0  0  0  0
   -1.4450   -6.2080   -1.7430 H   0  0  0  0  0  0  0  0  0  0  0  0
   -3.4210   -6.6850   -0.4690 H   0  0  0  0  0  0  0  0  0  0  0  0
  1  2  1  0  0  0  0
  1  8  1  0  0  0  0
  2 10  1  0  0  0  0
  3  2  1  0  0  0  0
  3 12  1  0  0  0  0
  4 14  1  0  0  0  0
  4  3  1  0  0  0  0
  5 15  1  6  0  0  0
  5  4  1  0  0  0  0
  5  1  1  0  0  0  0
  6  7  2  0  0  0  0
  6  5  1  0  0  0  0
  9  2  1  0  0  0  0
 11  3  1  0  0  0  0
 13  4  1  0  0  0  0
 16 27  1  0  0  0  0
 17 19  1  0  0  0  0
 17 16  1  0  0  0  0
 18 17  2  0  0  0  0
 19 30  1  0  0  0  0
 20 21  1  0  0  0  0
 20 32  1  0  0  0  0
 20 19  1  0  0  0  0
 21 34  1  0  0  0  0
 22 23  1  0  0  0  0
 22 35  1  0  0  0  0
 22 21  1  0  0  0  0
 23 37  1  6  0  0  0
 23 24  1  0  0  0  0
 24 38  1  0  0  0  0
 24  6  1  0  0  0  0
 25 46  1  0  0  0  0
 25 23  1  0  0  0  0
 26 25  2  0  0  0  0
 28 16  1  0  0  0  0
 29 18  1  0  0  0  0
 31 20  1  0  0  0  0
 33 21  1  0  0  0  0
 36 22  1  0  0  0  0
 40 39  1  0  0  0  0
 41 53  1  0  0  0  0
 41 40  2  0  0  0  0
 42 41  1  0  0  0  0
 43 42  2  0  0  0  0
 43 49  1  0  0  0  0
 44 43  1  0  0  0  0
 44 45  1  0  0  0  0
 45 57  1  1  0  0  0
 45 46  1  0  0  0  0
 46 58  1  0  0  0  0
 47 51  1  0  0  0  0
 47 45  1  0  0  0  0
 48 47  2  0  0  0  0
 49 50  2  0  0  0  0
 50 60  1  0  0  0  0
 50 40  1  0  0  0  0
 52 39  1  0  0  0  0
 54 42  1  0  0  0  0
 55 44  1  0  0  0  0
 56 44  1  0  0  0  0
 59 49  1  0  0  0  0
M  END
$$$$
