PSA.pdb
 OpenBabel07022419053D

 37 37  0  0  1  0  0  0  0  0999 V2000
    1.5670   -3.4430   -0.6450 N   0  0  0  0  0  0  0  0  0  0  0  0
    2.0070   -4.8160   -0.9380 C   0  0  0  0  0  0  0  0  0  0  0  0
    2.6190   -5.3300    0.3500 C   0  0  0  0  0  0  0  0  0  0  0  0
    2.2660   -4.2530    1.3840 C   0  0  0  0  0  0  0  0  0  0  0  0
    1.0880   -3.5930    0.7070 C   0  0  1  0  0  0  0  0  0  0  0  0
    0.6810   -2.3300    1.3280 C   0  0  0  0  0  0  0  0  0  0  0  0
    0.2500   -2.3640    2.5070 O   0  0  0  0  0  0  0  0  0  0  0  0
    2.4560   -2.8790   -0.6060 H   0  0  0  0  0  0  0  0  0  0  0  0
    1.0800   -5.3790   -1.1800 H   0  0  0  0  0  0  0  0  0  0  0  0
    2.7340   -4.8340   -1.7740 H   0  0  0  0  0  0  0  0  0  0  0  0
    2.0930   -6.2500    0.6750 H   0  0  0  0  0  0  0  0  0  0  0  0
    3.7160   -5.4560    0.2750 H   0  0  0  0  0  0  0  0  0  0  0  0
    3.1170   -3.5410    1.4410 H   0  0  0  0  0  0  0  0  0  0  0  0
    1.9690   -4.6810    2.3410 H   0  0  0  0  0  0  0  0  0  0  0  0
    0.2620   -4.3360    0.6790 H   0  0  0  0  0  0  0  0  0  0  0  0
    2.0740    1.5000    0.2900 O   0  0  0  0  0  0  0  0  0  0  0  0
    1.4810    1.1430    1.4880 C   0  0  0  0  0  0  0  0  0  0  0  0
    0.3390    0.1660    1.3110 C   0  0  2  0  0  0  0  0  0  0  0  0
    0.7370   -1.0580    0.6980 N   0  0  0  0  0  0  0  0  0  0  0  0
   -0.8280    0.8000    0.6370 C   0  0  0  0  0  0  0  0  0  0  0  0
   -1.3280    0.2180   -0.3660 O   0  0  0  0  0  0  0  0  0  0  0  0
    2.3940    2.4150    0.3300 H   0  0  0  0  0  0  0  0  0  0  0  0
    1.1730    2.0140    2.0740 H   0  0  0  0  0  0  0  0  0  0  0  0
    2.2590    0.6000    2.0840 H   0  0  0  0  0  0  0  0  0  0  0  0
   -0.0110   -0.0810    2.3510 H   0  0  0  0  0  0  0  0  0  0  0  0
    1.1080   -1.0680   -0.2980 H   0  0  0  0  0  0  0  0  0  0  0  0
   -3.6760    2.7560    1.4260 C   0  0  0  0  0  0  0  0  0  0  0  0
   -2.4850    2.6730    0.4930 C   0  0  2  0  0  0  0  0  0  0  0  0
   -1.3560    2.0220    1.1130 N   0  0  0  0  0  0  0  0  0  0  0  0
   -2.1360    3.9950   -0.0640 C   0  0  0  0  0  0  0  0  0  0  0  0
   -2.9910    4.7060   -0.6410 O   0  0  0  0  0  0  0  0  0  0  0  0
   -0.8470    4.4730    0.0430 O   0  0  0  0  0  0  0  0  0  0  0  0
   -3.3600    2.6690    2.5000 H   0  0  0  0  0  0  0  0  0  0  0  0
   -4.4430    1.9950    1.1830 H   0  0  0  0  0  0  0  0  0  0  0  0
   -4.1900    3.7490    1.3380 H   0  0  0  0  0  0  0  0  0  0  0  0
   -2.8220    2.0460   -0.3800 H   0  0  0  0  0  0  0  0  0  0  0  0
   -0.9210    2.4730    1.9380 H   0  0  0  0  0  0  0  0  0  0  0  0
  1  8  1  0  0  0  0
  1  5  1  0  0  0  0
  2  1  1  0  0  0  0
  2  3  1  0  0  0  0
  3 11  1  0  0  0  0
  3  4  1  0  0  0  0
  4 13  1  0  0  0  0
  4 14  1  0  0  0  0
  5 15  1  1  0  0  0
  5  6  1  0  0  0  0
  5  4  1  0  0  0  0
  6  7  2  0  0  0  0
  9  2  1  0  0  0  0
 10  2  1  0  0  0  0
 12  3  1  0  0  0  0
 16 22  1  0  0  0  0
 16 17  1  0  0  0  0
 17 23  1  0  0  0  0
 17 24  1  0  0  0  0
 18 17  1  0  0  0  0
 18 25  1  1  0  0  0
 19 18  1  0  0  0  0
 19  6  1  0  0  0  0
 20 29  1  0  0  0  0
 20 18  1  0  0  0  0
 21 20  2  0  0  0  0
 26 19  1  0  0  0  0
 27 33  1  0  0  0  0
 28 36  1  6  0  0  0
 28 29  1  0  0  0  0
 28 27  1  0  0  0  0
 29 37  1  0  0  0  0
 30 32  1  0  0  0  0
 30 28  1  0  0  0  0
 31 30  2  0  0  0  0
 34 27  1  0  0  0  0
 35 27  1  0  0  0  0
M  END
$$$$
