PSC.pdb
 OpenBabel07022419053D

 38 38  0  0  1  0  0  0  0  0999 V2000
    1.2650   -3.7800   -0.0640 N   0  0  0  0  0  0  0  0  0  0  0  0
    0.6560   -5.0630   -0.2130 C   0  0  0  0  0  0  0  0  0  0  0  0
    0.3300   -5.2600   -1.6640 C   0  0  0  0  0  0  0  0  0  0  0  0
    0.4540   -3.8930   -2.2770 C   0  0  0  0  0  0  0  0  0  0  0  0
    1.2850   -3.1040   -1.3190 C   0  0  1  0  0  0  0  0  0  0  0  0
    0.7100   -1.7280   -1.1250 C   0  0  0  0  0  0  0  0  0  0  0  0
    0.6110   -0.9190   -2.0770 O   0  0  0  0  0  0  0  0  0  0  0  0
    2.1930   -3.8220    0.4110 H   0  0  0  0  0  0  0  0  0  0  0  0
    1.2140   -5.9000    0.2300 H   0  0  0  0  0  0  0  0  0  0  0  0
   -0.3250   -5.0250    0.3450 H   0  0  0  0  0  0  0  0  0  0  0  0
    1.0500   -5.9900   -2.1150 H   0  0  0  0  0  0  0  0  0  0  0  0
   -0.7310   -5.6160   -1.8010 H   0  0  0  0  0  0  0  0  0  0  0  0
   -0.5490   -3.4390   -2.4760 H   0  0  0  0  0  0  0  0  0  0  0  0
    0.9860   -4.0280   -3.2610 H   0  0  0  0  0  0  0  0  0  0  0  0
    2.2960   -2.9800   -1.7510 H   0  0  0  0  0  0  0  0  0  0  0  0
   -2.4050    0.9930    1.0550 O   0  0  0  0  0  0  0  0  0  0  0  0
   -1.7590   -0.1940    0.7880 C   0  0  0  0  0  0  0  0  0  0  0  0
   -0.3040    0.0050    0.4060 C   0  0  2  0  0  0  0  0  0  0  0  0
    0.2570   -1.3020    0.1540 N   0  0  0  0  0  0  0  0  0  0  0  0
    0.4430    0.6870    1.4880 C   0  0  0  0  0  0  0  0  0  0  0  0
    1.4090    0.0960    2.0270 O   0  0  0  0  0  0  0  0  0  0  0  0
   -2.5240    1.4730    0.2040 H   0  0  0  0  0  0  0  0  0  0  0  0
   -1.8740   -0.9480    1.5820 H   0  0  0  0  0  0  0  0  0  0  0  0
   -2.2500   -0.6260   -0.1310 H   0  0  0  0  0  0  0  0  0  0  0  0
   -0.3050    0.5680   -0.5460 H   0  0  0  0  0  0  0  0  0  0  0  0
    0.3570   -2.0140    0.9330 H   0  0  0  0  0  0  0  0  0  0  0  0
    0.1260    1.9790    1.9540 N   0  0  0  0  0  0  0  0  0  0  0  0
    0.8480    2.6500    3.0070 C   0  0  1  0  0  0  0  0  0  0  0  0
    1.5080    3.9170    2.5100 C   0  0  0  0  0  0  0  0  0  0  0  0
    0.3140    5.0980    1.8590 S   0  0  0  0  0  0  0  0  0  0  0  0
   -0.0540    2.9060    4.1500 C   0  0  0  0  0  0  0  0  0  0  0  0
   -1.2480    2.5360    4.0700 O   0  0  0  0  0  0  0  0  0  0  0  0
    0.3520    3.5370    5.3140 O   0  0  0  0  0  0  0  0  0  0  0  0
   -0.6690    2.4860    1.5240 H   0  0  0  0  0  0  0  0  0  0  0  0
    1.6840    2.0040    3.3940 H   0  0  0  0  0  0  0  0  0  0  0  0
    2.0700    4.3980    3.3100 H   0  0  0  0  0  0  0  0  0  0  0  0
    2.2320    3.6360    1.7180 H   0  0  0  0  0  0  0  0  0  0  0  0
   -0.9950    4.6440    1.9270 H   0  0  0  0  0  0  0  0  0  0  0  0
  1  8  1  0  0  0  0
  2  1  1  0  0  0  0
  2  9  1  0  0  0  0
  2 10  1  0  0  0  0
  3  2  1  0  0  0  0
  4  3  1  0  0  0  0
  4  5  1  0  0  0  0
  5 15  1  6  0  0  0
  5  6  1  0  0  0  0
  5  1  1  0  0  0  0
  6 19  1  0  0  0  0
  7  6  2  0  0  0  0
 11  3  1  0  0  0  0
 12  3  1  0  0  0  0
 13  4  1  0  0  0  0
 14  4  1  0  0  0  0
 17 16  1  0  0  0  0
 17 23  1  0  0  0  0
 18 25  1  6  0  0  0
 18 17  1  0  0  0  0
 18 20  1  0  0  0  0
 19 18  1  0  0  0  0
 19 26  1  0  0  0  0
 20 27  1  0  0  0  0
 20 21  2  0  0  0  0
 22 16  1  0  0  0  0
 24 17  1  0  0  0  0
 27 28  1  0  0  0  0
 28 35  1  1  0  0  0
 28 31  1  0  0  0  0
 29 28  1  0  0  0  0
 29 36  1  0  0  0  0
 30 38  1  0  0  0  0
 30 29  1  0  0  0  0
 31 33  1  0  0  0  0
 32 31  2  0  0  0  0
 34 27  1  0  0  0  0
 37 29  1  0  0  0  0
M  END
$$$$
