PSD.pdb
 OpenBabel07022419053D

 40 40  0  0  1  0  0  0  0  0999 V2000
    0.1200   -2.8280    2.1310 N   0  0  0  0  0  0  0  0  0  0  0  0
   -0.6120   -3.9970    2.5690 C   0  0  0  0  0  0  0  0  0  0  0  0
   -0.4940   -4.9780    1.4280 C   0  0  0  0  0  0  0  0  0  0  0  0
    0.8660   -4.7110    0.8800 C   0  0  0  0  0  0  0  0  0  0  0  0
    1.1780   -3.3070    1.2800 C   0  0  1  0  0  0  0  0  0  0  0  0
    1.2660   -2.4080    0.1030 C   0  0  0  0  0  0  0  0  0  0  0  0
    2.0880   -2.5930   -0.8370 O   0  0  0  0  0  0  0  0  0  0  0  0
    0.4650   -2.2450    2.9360 H   0  0  0  0  0  0  0  0  0  0  0  0
   -0.1480   -4.3840    3.4790 H   0  0  0  0  0  0  0  0  0  0  0  0
   -1.6780   -3.7130    2.7030 H   0  0  0  0  0  0  0  0  0  0  0  0
   -1.2720   -4.7620    0.6430 H   0  0  0  0  0  0  0  0  0  0  0  0
   -0.6120   -6.0280    1.7830 H   0  0  0  0  0  0  0  0  0  0  0  0
    1.5800   -5.4470    1.3580 H   0  0  0  0  0  0  0  0  0  0  0  0
    0.9420   -4.8830   -0.2170 H   0  0  0  0  0  0  0  0  0  0  0  0
    2.1540   -3.3320    1.8400 H   0  0  0  0  0  0  0  0  0  0  0  0
   -1.8110    0.0900   -1.0090 O   0  0  0  0  0  0  0  0  0  0  0  0
   -0.8350   -0.3780   -1.8940 C   0  0  0  0  0  0  0  0  0  0  0  0
    0.5020   -0.3950   -1.1810 C   0  0  2  0  0  0  0  0  0  0  0  0
    0.4170   -1.2750   -0.0320 N   0  0  0  0  0  0  0  0  0  0  0  0
    0.8220    0.9590   -0.6990 C   0  0  0  0  0  0  0  0  0  0  0  0
    0.9420    1.8960   -1.5120 O   0  0  0  0  0  0  0  0  0  0  0  0
   -2.6450   -0.4020   -1.0810 H   0  0  0  0  0  0  0  0  0  0  0  0
   -0.7480    0.2620   -2.7870 H   0  0  0  0  0  0  0  0  0  0  0  0
   -1.0680   -1.4000   -2.2320 H   0  0  0  0  0  0  0  0  0  0  0  0
    1.2800   -0.7800   -1.8830 H   0  0  0  0  0  0  0  0  0  0  0  0
   -0.2760   -1.0880    0.7220 H   0  0  0  0  0  0  0  0  0  0  0  0
    0.9950    1.2170    0.6720 N   0  0  0  0  0  0  0  0  0  0  0  0
    1.3060    2.5210    1.1550 C   0  0  1  0  0  0  0  0  0  0  0  0
    0.2260    3.1010    2.0340 C   0  0  0  0  0  0  0  0  0  0  0  0
   -1.0190    3.1790    1.2310 C   0  0  0  0  0  0  0  0  0  0  0  0
   -0.9830    3.8230    0.1510 O   0  0  0  0  0  0  0  0  0  0  0  0
    2.6360    2.5510    1.7890 C   0  0  0  0  0  0  0  0  0  0  0  0
    3.3050    1.4910    1.8260 O   0  0  0  0  0  0  0  0  0  0  0  0
   -2.2070    2.5730    1.6250 O   0  0  0  0  0  0  0  0  0  0  0  0
    3.2000    3.6880    2.3490 O   0  0  0  0  0  0  0  0  0  0  0  0
    0.8970    0.4480    1.4030 H   0  0  0  0  0  0  0  0  0  0  0  0
    1.3900    3.2170    0.2810 H   0  0  0  0  0  0  0  0  0  0  0  0
    0.5240    4.1520    2.2570 H   0  0  0  0  0  0  0  0  0  0  0  0
    0.1010    2.6100    3.0100 H   0  0  0  0  0  0  0  0  0  0  0  0
   -3.0490    2.7950    1.1240 H   0  0  0  0  0  0  0  0  0  0  0  0
  1  2  1  0  0  0  0
  1  8  1  0  0  0  0
  2 10  1  0  0  0  0
  2  9  1  0  0  0  0
  3 12  1  0  0  0  0
  3  2  1  0  0  0  0
  4  5  1  0  0  0  0
  4 13  1  0  0  0  0
  4  3  1  0  0  0  0
  5 15  1  1  0  0  0
  5  1  1  0  0  0  0
  6  5  1  0  0  0  0
  7  6  2  0  0  0  0
 11  3  1  0  0  0  0
 14  4  1  0  0  0  0
 17 18  1  0  0  0  0
 17 16  1  0  0  0  0
 18 25  1  6  0  0  0
 18 20  1  0  0  0  0
 18 19  1  0  0  0  0
 19  6  1  0  0  0  0
 19 26  1  0  0  0  0
 20 27  1  0  0  0  0
 21 20  2  0  0  0  0
 22 16  1  0  0  0  0
 23 17  1  0  0  0  0
 24 17  1  0  0  0  0
 27 28  1  0  0  0  0
 27 36  1  0  0  0  0
 28 37  1  6  0  0  0
 28 32  1  0  0  0  0
 28 29  1  0  0  0  0
 29 38  1  0  0  0  0
 29 39  1  0  0  0  0
 30 34  1  0  0  0  0
 30 29  1  0  0  0  0
 31 30  2  0  0  0  0
 32 33  2  0  0  0  0
 32 35  1  0  0  0  0
 40 34  1  0  0  0  0
M  END
$$$$
