PSG.pdb
 OpenBabel07022419053D

 34 34  0  0  1  0  0  0  0  0999 V2000
   -0.9290   -2.9360   -0.3750 N   0  0  0  0  0  0  0  0  0  0  0  0
   -1.2040   -4.3210   -0.6840 C   0  0  0  0  0  0  0  0  0  0  0  0
   -0.5140   -5.1620    0.3500 C   0  0  0  0  0  0  0  0  0  0  0  0
    0.4370   -4.1490    1.0020 C   0  0  0  0  0  0  0  0  0  0  0  0
   -0.4700   -2.9220    0.9800 C   0  0  1  0  0  0  0  0  0  0  0  0
    0.2440   -1.6920    1.3570 C   0  0  0  0  0  0  0  0  0  0  0  0
    0.6800   -1.5990    2.5290 O   0  0  0  0  0  0  0  0  0  0  0  0
   -0.1280   -2.6520   -1.0110 H   0  0  0  0  0  0  0  0  0  0  0  0
   -0.7770   -4.6150   -1.6860 H   0  0  0  0  0  0  0  0  0  0  0  0
   -2.2940   -4.5340   -0.6840 H   0  0  0  0  0  0  0  0  0  0  0  0
   -1.2370   -5.4330    1.1750 H   0  0  0  0  0  0  0  0  0  0  0  0
    0.0090   -6.0320   -0.0420 H   0  0  0  0  0  0  0  0  0  0  0  0
    0.7220   -4.4500    2.0110 H   0  0  0  0  0  0  0  0  0  0  0  0
    1.2910   -4.0070    0.3130 H   0  0  0  0  0  0  0  0  0  0  0  0
   -1.3200   -3.1570    1.6430 H   0  0  0  0  0  0  0  0  0  0  0  0
    2.0090    0.9700   -1.2750 O   0  0  0  0  0  0  0  0  0  0  0  0
    2.4200    0.8370    0.0480 C   0  0  0  0  0  0  0  0  0  0  0  0
    1.1860    0.6050    0.8880 C   0  0  2  0  0  0  0  0  0  0  0  0
    0.4760   -0.5960    0.4830 N   0  0  0  0  0  0  0  0  0  0  0  0
    0.2850    1.7660    0.6660 C   0  0  0  0  0  0  0  0  0  0  0  0
   -0.8890    1.5970    0.1930 O   0  0  0  0  0  0  0  0  0  0  0  0
    2.5150    1.7190   -1.7060 H   0  0  0  0  0  0  0  0  0  0  0  0
    3.1800    0.0480    0.1810 H   0  0  0  0  0  0  0  0  0  0  0  0
    2.8670    1.7890    0.3670 H   0  0  0  0  0  0  0  0  0  0  0  0
    1.5130    0.5500    1.9460 H   0  0  0  0  0  0  0  0  0  0  0  0
    0.1050   -0.6940   -0.4870 H   0  0  0  0  0  0  0  0  0  0  0  0
    0.6490    3.0980    0.9520 N   0  0  0  0  0  0  0  0  0  0  0  0
   -0.2600    4.2040    0.7220 C   0  0  0  0  0  0  0  0  0  0  0  0
   -1.4650    3.9800    1.5500 C   0  0  0  0  0  0  0  0  0  0  0  0
   -2.3920    4.8160    1.5010 O   0  0  0  0  0  0  0  0  0  0  0  0
   -1.5970    2.8790    2.3730 O   0  0  0  0  0  0  0  0  0  0  0  0
    1.6090    3.2630    1.3400 H   0  0  0  0  0  0  0  0  0  0  0  0
   -0.5050    4.2180   -0.3700 H   0  0  0  0  0  0  0  0  0  0  0  0
    0.1820    5.1720    1.0310 H   0  0  0  0  0  0  0  0  0  0  0  0
  1  5  1  0  0  0  0
  2 10  1  0  0  0  0
  2  1  1  0  0  0  0
  2  3  1  0  0  0  0
  3  4  1  0  0  0  0
  3 11  1  0  0  0  0
  4 13  1  0  0  0  0
  5  4  1  0  0  0  0
  5  6  1  0  0  0  0
  5 15  1  1  0  0  0
  6  7  2  0  0  0  0
  8  1  1  0  0  0  0
  9  2  1  0  0  0  0
 12  3  1  0  0  0  0
 14  4  1  0  0  0  0
 16 17  1  0  0  0  0
 17 23  1  0  0  0  0
 17 24  1  0  0  0  0
 17 18  1  0  0  0  0
 18 25  1  1  0  0  0
 19 18  1  0  0  0  0
 19  6  1  0  0  0  0
 20 18  1  0  0  0  0
 20 27  1  0  0  0  0
 21 20  2  0  0  0  0
 22 16  1  0  0  0  0
 26 19  1  0  0  0  0
 27 32  1  0  0  0  0
 28 27  1  0  0  0  0
 28 34  1  0  0  0  0
 28 29  1  0  0  0  0
 29 31  1  0  0  0  0
 30 29  2  0  0  0  0
 33 28  1  0  0  0  0
M  END
$$$$
