PSM.pdb
 OpenBabel07022419053D

 44 44  0  0  1  0  0  0  0  0999 V2000
    3.9960   -3.2490   -0.2890 N   0  0  0  0  0  0  0  0  0  0  0  0
    4.9860   -2.4200   -0.8930 C   0  0  0  0  0  0  0  0  0  0  0  0
    4.3310   -1.0590   -0.9510 C   0  0  0  0  0  0  0  0  0  0  0  0
    3.5170   -0.9950    0.3400 C   0  0  0  0  0  0  0  0  0  0  0  0
    3.1000   -2.4490    0.5060 C   0  0  1  0  0  0  0  0  0  0  0  0
    1.7140   -2.6380   -0.0500 C   0  0  0  0  0  0  0  0  0  0  0  0
    1.5330   -3.3060   -1.0530 O   0  0  0  0  0  0  0  0  0  0  0  0
    3.5470   -3.8720   -0.9740 H   0  0  0  0  0  0  0  0  0  0  0  0
    5.9320   -2.3550   -0.3010 H   0  0  0  0  0  0  0  0  0  0  0  0
    5.1890   -2.7650   -1.9350 H   0  0  0  0  0  0  0  0  0  0  0  0
    3.6880   -0.9370   -1.8460 H   0  0  0  0  0  0  0  0  0  0  0  0
    5.1560   -0.3180   -0.9560 H   0  0  0  0  0  0  0  0  0  0  0  0
    2.6710   -0.3130    0.2420 H   0  0  0  0  0  0  0  0  0  0  0  0
    4.2320   -0.7680    1.1530 H   0  0  0  0  0  0  0  0  0  0  0  0
    3.1610   -2.7760    1.5610 H   0  0  0  0  0  0  0  0  0  0  0  0
   -2.8140   -3.1940    0.3880 O   0  0  0  0  0  0  0  0  0  0  0  0
   -1.5480   -3.1410    0.9760 C   0  0  0  0  0  0  0  0  0  0  0  0
   -0.7420   -2.1710    0.1200 C   0  0  2  0  0  0  0  0  0  0  0  0
    0.5930   -2.0150    0.6240 N   0  0  0  0  0  0  0  0  0  0  0  0
   -1.4400   -0.8990   -0.0660 C   0  0  0  0  0  0  0  0  0  0  0  0
   -2.5680   -0.7650   -0.5850 O   0  0  0  0  0  0  0  0  0  0  0  0
   -2.7990   -3.8050   -0.4120 H   0  0  0  0  0  0  0  0  0  0  0  0
   -1.1000   -4.1270    0.8650 H   0  0  0  0  0  0  0  0  0  0  0  0
   -1.6480   -2.8370    2.0130 H   0  0  0  0  0  0  0  0  0  0  0  0
   -0.6830   -2.6790   -0.8770 H   0  0  0  0  0  0  0  0  0  0  0  0
    0.8520   -1.4680    1.4730 H   0  0  0  0  0  0  0  0  0  0  0  0
   -3.3370    1.1760    4.5560 C   0  0  0  0  0  0  0  0  0  0  0  0
   -2.2060    2.5440    4.1350 S   0  0  0  0  0  0  0  0  0  0  0  0
   -1.2010    2.0910    2.6830 C   0  0  0  0  0  0  0  0  0  0  0  0
   -2.1090    1.9900    1.5110 C   0  0  0  0  0  0  0  0  0  0  0  0
   -1.4200    1.6000    0.2150 C   0  0  2  0  0  0  0  0  0  0  0  0
   -0.8040    0.3120    0.3720 N   0  0  0  0  0  0  0  0  0  0  0  0
   -0.5450    2.6480   -0.3160 C   0  0  0  0  0  0  0  0  0  0  0  0
    0.6630    2.4120   -0.6400 O   0  0  0  0  0  0  0  0  0  0  0  0
   -1.0260    3.9350   -0.4770 O   0  0  0  0  0  0  0  0  0  0  0  0
   -2.7960    0.1960    4.5690 H   0  0  0  0  0  0  0  0  0  0  0  0
   -3.6740    1.3530    5.5980 H   0  0  0  0  0  0  0  0  0  0  0  0
   -4.1940    1.1640    3.8740 H   0  0  0  0  0  0  0  0  0  0  0  0
   -0.7810    1.0790    2.9020 H   0  0  0  0  0  0  0  0  0  0  0  0
   -0.4350    2.8740    2.5670 H   0  0  0  0  0  0  0  0  0  0  0  0
   -2.7180    2.9080    1.3800 H   0  0  0  0  0  0  0  0  0  0  0  0
   -2.8400    1.1580    1.7070 H   0  0  0  0  0  0  0  0  0  0  0  0
   -2.2840    1.4460   -0.5050 H   0  0  0  0  0  0  0  0  0  0  0  0
    0.1370    0.3050    0.8310 H   0  0  0  0  0  0  0  0  0  0  0  0
  1  5  1  0  0  0  0
  2  9  1  0  0  0  0
  2  1  1  0  0  0  0
  3  2  1  0  0  0  0
  3  4  1  0  0  0  0
  4  5  1  0  0  0  0
  4 14  1  0  0  0  0
  5 15  1  1  0  0  0
  6  5  1  0  0  0  0
  6 19  1  0  0  0  0
  7  6  2  0  0  0  0
  8  1  1  0  0  0  0
 10  2  1  0  0  0  0
 11  3  1  0  0  0  0
 12  3  1  0  0  0  0
 13  4  1  0  0  0  0
 16 17  1  0  0  0  0
 17 24  1  0  0  0  0
 18 25  1  6  0  0  0
 18 19  1  0  0  0  0
 18 17  1  0  0  0  0
 19 26  1  0  0  0  0
 20 18  1  0  0  0  0
 20 32  1  0  0  0  0
 21 20  2  0  0  0  0
 22 16  1  0  0  0  0
 23 17  1  0  0  0  0
 27 36  1  0  0  0  0
 27 37  1  0  0  0  0
 28 27  1  0  0  0  0
 29 39  1  0  0  0  0
 29 28  1  0  0  0  0
 30 42  1  0  0  0  0
 30 29  1  0  0  0  0
 31 43  1  6  0  0  0
 31 32  1  0  0  0  0
 31 30  1  0  0  0  0
 32 44  1  0  0  0  0
 33 31  1  0  0  0  0
 34 33  2  0  0  0  0
 35 33  1  0  0  0  0
 38 27  1  0  0  0  0
 40 29  1  0  0  0  0
 41 30  1  0  0  0  0
M  END
$$$$
