PSN.pdb
 OpenBabel07022419053D

 41 41  0  0  1  0  0  0  0  0999 V2000
    4.1700   -3.1080    0.0240 N   0  0  0  0  0  0  0  0  0  0  0  0
    4.6550   -2.2840   -1.0310 C   0  0  0  0  0  0  0  0  0  0  0  0
    4.2710   -0.8760   -0.6810 C   0  0  0  0  0  0  0  0  0  0  0  0
    3.6140   -0.9090    0.6850 C   0  0  0  0  0  0  0  0  0  0  0  0
    3.2200   -2.3690    0.8160 C   0  0  1  0  0  0  0  0  0  0  0  0
    1.8780   -2.5240    0.2050 C   0  0  0  0  0  0  0  0  0  0  0  0
    1.7730   -3.1340   -0.8800 O   0  0  0  0  0  0  0  0  0  0  0  0
    3.7520   -4.0090   -0.3540 H   0  0  0  0  0  0  0  0  0  0  0  0
    5.7600   -2.3920   -1.1450 H   0  0  0  0  0  0  0  0  0  0  0  0
    4.1370   -2.5800   -1.9910 H   0  0  0  0  0  0  0  0  0  0  0  0
    3.5270   -0.4890   -1.4040 H   0  0  0  0  0  0  0  0  0  0  0  0
    5.1860   -0.2330   -0.6730 H   0  0  0  0  0  0  0  0  0  0  0  0
    2.7170   -0.2440    0.7050 H   0  0  0  0  0  0  0  0  0  0  0  0
    4.3150   -0.6890    1.5100 H   0  0  0  0  0  0  0  0  0  0  0  0
    3.2530   -2.7050    1.8780 H   0  0  0  0  0  0  0  0  0  0  0  0
   -2.7060   -3.1820    0.3730 O   0  0  0  0  0  0  0  0  0  0  0  0
   -1.4600   -3.1640    0.9930 C   0  0  0  0  0  0  0  0  0  0  0  0
   -0.6300   -2.1250    0.2540 C   0  0  2  0  0  0  0  0  0  0  0  0
    0.6950   -2.0090    0.7990 N   0  0  0  0  0  0  0  0  0  0  0  0
   -1.3750   -0.8430    0.2160 C   0  0  0  0  0  0  0  0  0  0  0  0
   -2.5300   -0.8820   -0.2760 O   0  0  0  0  0  0  0  0  0  0  0  0
   -2.8350   -3.9790   -0.2020 H   0  0  0  0  0  0  0  0  0  0  0  0
   -0.9650   -4.1330    0.8210 H   0  0  0  0  0  0  0  0  0  0  0  0
   -1.6330   -2.9000    2.0400 H   0  0  0  0  0  0  0  0  0  0  0  0
   -0.5320   -2.5300   -0.7780 H   0  0  0  0  0  0  0  0  0  0  0  0
    0.8170   -1.5130    1.7090 H   0  0  0  0  0  0  0  0  0  0  0  0
   -2.5670    1.6650    4.3260 N   0  0  0  0  0  0  0  0  0  0  0  0
   -2.3400    1.3280    2.9560 C   0  0  0  0  0  0  0  0  0  0  0  0
   -2.7860    0.2000    2.5790 O   0  0  0  0  0  0  0  0  0  0  0  0
   -1.6270    2.2410    2.0360 C   0  0  0  0  0  0  0  0  0  0  0  0
   -1.5680    1.6390    0.6630 C   0  0  2  0  0  0  0  0  0  0  0  0
   -0.8700    0.3920    0.6910 N   0  0  0  0  0  0  0  0  0  0  0  0
   -0.8850    2.6250   -0.2550 C   0  0  0  0  0  0  0  0  0  0  0  0
    0.1590    2.2280   -0.8250 O   0  0  0  0  0  0  0  0  0  0  0  0
   -1.3440    3.8950   -0.4860 O   0  0  0  0  0  0  0  0  0  0  0  0
   -3.3490    1.2320    4.8550 H   0  0  0  0  0  0  0  0  0  0  0  0
   -1.9620    2.3490    4.8220 H   0  0  0  0  0  0  0  0  0  0  0  0
   -0.6200    2.4860    2.4410 H   0  0  0  0  0  0  0  0  0  0  0  0
   -2.2110    3.1930    1.9920 H   0  0  0  0  0  0  0  0  0  0  0  0
   -2.6280    1.5300    0.3030 H   0  0  0  0  0  0  0  0  0  0  0  0
    0.1160    0.3320    1.0930 H   0  0  0  0  0  0  0  0  0  0  0  0
  1  5  1  0  0  0  0
  2  3  1  0  0  0  0
  2  1  1  0  0  0  0
  3 12  1  0  0  0  0
  3  4  1  0  0  0  0
  4 13  1  0  0  0  0
  4  5  1  0  0  0  0
  4 14  1  0  0  0  0
  5 15  1  1  0  0  0
  6 19  1  0  0  0  0
  6  5  1  0  0  0  0
  7  6  2  0  0  0  0
  8  1  1  0  0  0  0
  9  2  1  0  0  0  0
 10  2  1  0  0  0  0
 11  3  1  0  0  0  0
 16 17  1  0  0  0  0
 17 24  1  0  0  0  0
 18 25  1  6  0  0  0
 18 19  1  0  0  0  0
 18 17  1  0  0  0  0
 19 26  1  0  0  0  0
 20 18  1  0  0  0  0
 20 32  1  0  0  0  0
 21 20  2  0  0  0  0
 22 16  1  0  0  0  0
 23 17  1  0  0  0  0
 27 37  1  0  0  0  0
 27 36  1  0  0  0  0
 28 27  1  0  0  0  0
 29 28  2  0  0  0  0
 30 38  1  0  0  0  0
 30 28  1  0  0  0  0
 31 40  1  6  0  0  0
 31 32  1  0  0  0  0
 31 30  1  0  0  0  0
 32 41  1  0  0  0  0
 33 31  1  0  0  0  0
 34 33  2  0  0  0  0
 35 33  1  0  0  0  0
 39 30  1  0  0  0  0
M  END
$$$$
