PSQ.pdb
 OpenBabel07022419053D

 44 44  0  0  1  0  0  0  0  0999 V2000
    3.7530   -3.3510   -1.5010 N   0  0  0  0  0  0  0  0  0  0  0  0
    3.6970   -4.7450   -1.1840 C   0  0  0  0  0  0  0  0  0  0  0  0
    2.3660   -4.9260   -0.4810 C   0  0  0  0  0  0  0  0  0  0  0  0
    1.4760   -3.9990   -1.2820 C   0  0  0  0  0  0  0  0  0  0  0  0
    2.4150   -2.9130   -1.7880 C   0  0  1  0  0  0  0  0  0  0  0  0
    2.1140   -1.6710   -0.9900 C   0  0  0  0  0  0  0  0  0  0  0  0
    2.9620   -1.1600   -0.2130 O   0  0  0  0  0  0  0  0  0  0  0  0
    4.1550   -2.7750   -0.7280 H   0  0  0  0  0  0  0  0  0  0  0  0
    4.5450   -5.0030   -0.4940 H   0  0  0  0  0  0  0  0  0  0  0  0
    3.7130   -5.3750   -2.0850 H   0  0  0  0  0  0  0  0  0  0  0  0
    2.4930   -4.5250    0.5520 H   0  0  0  0  0  0  0  0  0  0  0  0
    2.0190   -5.9660   -0.4740 H   0  0  0  0  0  0  0  0  0  0  0  0
    0.9940   -4.5470   -2.1300 H   0  0  0  0  0  0  0  0  0  0  0  0
    0.7060   -3.5910   -0.5950 H   0  0  0  0  0  0  0  0  0  0  0  0
    2.2430   -2.6680   -2.8470 H   0  0  0  0  0  0  0  0  0  0  0  0
    0.0040    2.4900   -0.7510 O   0  0  0  0  0  0  0  0  0  0  0  0
    0.3190    1.2850   -1.3290 C   0  0  0  0  0  0  0  0  0  0  0  0
    0.5340    0.1730   -0.3290 C   0  0  2  0  0  0  0  0  0  0  0  0
    0.8550   -1.0210   -1.0810 N   0  0  0  0  0  0  0  0  0  0  0  0
   -0.6800   -0.1050    0.4680 C   0  0  0  0  0  0  0  0  0  0  0  0
   -1.2340   -1.2270    0.4060 O   0  0  0  0  0  0  0  0  0  0  0  0
    0.8330    2.9540   -0.5100 H   0  0  0  0  0  0  0  0  0  0  0  0
   -0.4160    0.9350   -2.0810 H   0  0  0  0  0  0  0  0  0  0  0  0
    1.2870    1.4110   -1.8710 H   0  0  0  0  0  0  0  0  0  0  0  0
    1.4010    0.4710    0.2970 H   0  0  0  0  0  0  0  0  0  0  0  0
    0.1260   -1.4130   -1.7140 H   0  0  0  0  0  0  0  0  0  0  0  0
    0.5150    2.9890    4.1740 N   0  0  0  0  0  0  0  0  0  0  0  0
   -0.0330    1.7010    3.8760 C   0  0  0  0  0  0  0  0  0  0  0  0
    0.6360    0.8260    3.2760 O   0  0  0  0  0  0  0  0  0  0  0  0
   -1.4130    1.4400    4.3080 C   0  0  0  0  0  0  0  0  0  0  0  0
   -2.1480    0.3890    3.5700 C   0  0  0  0  0  0  0  0  0  0  0  0
   -2.4410    0.6500    2.1180 C   0  0  2  0  0  0  0  0  0  0  0  0
   -1.2820    0.8610    1.3350 N   0  0  0  0  0  0  0  0  0  0  0  0
   -3.4450    1.7410    2.0020 C   0  0  0  0  0  0  0  0  0  0  0  0
   -4.5240    1.6880    2.6430 O   0  0  0  0  0  0  0  0  0  0  0  0
   -3.2360    2.8490    1.1930 O   0  0  0  0  0  0  0  0  0  0  0  0
    1.3510    2.9880    4.8040 H   0  0  0  0  0  0  0  0  0  0  0  0
    0.1170    3.8730    3.7970 H   0  0  0  0  0  0  0  0  0  0  0  0
   -1.3230    1.0730    5.3780 H   0  0  0  0  0  0  0  0  0  0  0  0
   -2.0030    2.3880    4.4270 H   0  0  0  0  0  0  0  0  0  0  0  0
   -3.1650    0.2300    4.0460 H   0  0  0  0  0  0  0  0  0  0  0  0
   -1.6610   -0.6120    3.6940 H   0  0  0  0  0  0  0  0  0  0  0  0
   -3.0000   -0.2880    1.7950 H   0  0  0  0  0  0  0  0  0  0  0  0
   -0.8050    1.8060    1.3380 H   0  0  0  0  0  0  0  0  0  0  0  0
  1  2  1  0  0  0  0
  1  8  1  0  0  0  0
  2  9  1  0  0  0  0
  2  3  1  0  0  0  0
  3 12  1  0  0  0  0
  3 11  1  0  0  0  0
  4 14  1  0  0  0  0
  4  3  1  0  0  0  0
  5 15  1  6  0  0  0
  5  1  1  0  0  0  0
  5  4  1  0  0  0  0
  5  6  1  0  0  0  0
  6  7  2  0  0  0  0
 10  2  1  0  0  0  0
 13  4  1  0  0  0  0
 16 22  1  0  0  0  0
 17 16  1  0  0  0  0
 17 18  1  0  0  0  0
 18 25  1  1  0  0  0
 18 20  1  0  0  0  0
 19  6  1  0  0  0  0
 19 18  1  0  0  0  0
 20 33  1  0  0  0  0
 21 20  2  0  0  0  0
 23 17  1  0  0  0  0
 24 17  1  0  0  0  0
 26 19  1  0  0  0  0
 27 37  1  0  0  0  0
 28 27  1  0  0  0  0
 28 30  1  0  0  0  0
 29 28  2  0  0  0  0
 30 40  1  0  0  0  0
 30 39  1  0  0  0  0
 31 42  1  0  0  0  0
 31 41  1  0  0  0  0
 31 30  1  0  0  0  0
 32 43  1  6  0  0  0
 32 31  1  0  0  0  0
 33 44  1  0  0  0  0
 33 32  1  0  0  0  0
 34 32  1  0  0  0  0
 34 35  1  0  0  0  0
 36 34  2  0  0  0  0
 38 27  1  0  0  0  0
M  END
$$$$
