PSS.pdb
 OpenBabel07022419053D

 38 38  0  0  1  0  0  0  0  0999 V2000
   -0.8740   -2.8600    1.2330 N   0  0  0  0  0  0  0  0  0  0  0  0
   -1.8420   -3.9220    1.3110 C   0  0  0  0  0  0  0  0  0  0  0  0
   -1.7940   -4.6860    0.0250 C   0  0  0  0  0  0  0  0  0  0  0  0
   -0.6500   -4.1100   -0.7720 C   0  0  0  0  0  0  0  0  0  0  0  0
    0.0140   -3.1270    0.1590 C   0  0  1  0  0  0  0  0  0  0  0  0
    0.4330   -1.8780   -0.5610 C   0  0  0  0  0  0  0  0  0  0  0  0
    1.2210   -1.9640   -1.5380 O   0  0  0  0  0  0  0  0  0  0  0  0
   -0.3710   -2.6860    2.1320 H   0  0  0  0  0  0  0  0  0  0  0  0
   -1.6790   -4.5810    2.1880 H   0  0  0  0  0  0  0  0  0  0  0  0
   -2.8490   -3.4680    1.4180 H   0  0  0  0  0  0  0  0  0  0  0  0
   -1.6220   -5.7710    0.2600 H   0  0  0  0  0  0  0  0  0  0  0  0
   -2.7360   -4.6370   -0.5440 H   0  0  0  0  0  0  0  0  0  0  0  0
   -0.9950   -3.6420   -1.7200 H   0  0  0  0  0  0  0  0  0  0  0  0
    0.0140   -4.9520   -1.0600 H   0  0  0  0  0  0  0  0  0  0  0  0
    0.9330   -3.6140    0.5520 H   0  0  0  0  0  0  0  0  0  0  0  0
   -0.5400    2.4150   -2.1510 O   0  0  0  0  0  0  0  0  0  0  0  0
   -0.8580    1.2480   -1.4790 C   0  0  0  0  0  0  0  0  0  0  0  0
    0.3700    0.6200   -0.8680 C   0  0  2  0  0  0  0  0  0  0  0  0
   -0.0280   -0.5940   -0.1810 N   0  0  0  0  0  0  0  0  0  0  0  0
    1.0430    1.5660    0.0750 C   0  0  0  0  0  0  0  0  0  0  0  0
    1.4650    2.6810   -0.3230 O   0  0  0  0  0  0  0  0  0  0  0  0
   -1.2000    3.1230   -1.9470 H   0  0  0  0  0  0  0  0  0  0  0  0
   -1.6810    1.3840   -0.7450 H   0  0  0  0  0  0  0  0  0  0  0  0
   -1.2400    0.5170   -2.2350 H   0  0  0  0  0  0  0  0  0  0  0  0
    1.0490    0.3530   -1.6800 H   0  0  0  0  0  0  0  0  0  0  0  0
   -0.6910   -0.5620    0.6480 H   0  0  0  0  0  0  0  0  0  0  0  0
   -0.1770    3.1300    3.1390 O   0  0  0  0  0  0  0  0  0  0  0  0
    0.9980    2.5190    3.5480 C   0  0  0  0  0  0  0  0  0  0  0  0
    1.8910    2.1720    2.3740 C   0  0  2  0  0  0  0  0  0  0  0  0
    1.2410    1.2650    1.4500 N   0  0  0  0  0  0  0  0  0  0  0  0
    3.0800    1.4750    2.9290 C   0  0  0  0  0  0  0  0  0  0  0  0
    3.8210    2.0550    3.7630 O   0  0  0  0  0  0  0  0  0  0  0  0
    3.4360    0.1780    2.5710 O   0  0  0  0  0  0  0  0  0  0  0  0
    0.0700    3.7980    2.4340 H   0  0  0  0  0  0  0  0  0  0  0  0
    1.5560    3.2570    4.1610 H   0  0  0  0  0  0  0  0  0  0  0  0
    0.8290    1.6170    4.1570 H   0  0  0  0  0  0  0  0  0  0  0  0
    2.2090    3.1090    1.8890 H   0  0  0  0  0  0  0  0  0  0  0  0
    0.9100    0.3540    1.8320 H   0  0  0  0  0  0  0  0  0  0  0  0
  1  2  1  0  0  0  0
  1  8  1  0  0  0  0
  2 10  1  0  0  0  0
  2  9  1  0  0  0  0
  3 11  1  0  0  0  0
  3  2  1  0  0  0  0
  4  3  1  0  0  0  0
  4  5  1  0  0  0  0
  5 15  1  1  0  0  0
  5  1  1  0  0  0  0
  6 19  1  0  0  0  0
  6  5  1  0  0  0  0
  7  6  2  0  0  0  0
 12  3  1  0  0  0  0
 13  4  1  0  0  0  0
 14  4  1  0  0  0  0
 16 22  1  0  0  0  0
 16 17  1  0  0  0  0
 17 18  1  0  0  0  0
 17 23  1  0  0  0  0
 18 25  1  6  0  0  0
 18 19  1  0  0  0  0
 18 20  1  0  0  0  0
 19 26  1  0  0  0  0
 20 30  1  0  0  0  0
 21 20  2  0  0  0  0
 24 17  1  0  0  0  0
 27 28  1  0  0  0  0
 28 36  1  0  0  0  0
 28 35  1  0  0  0  0
 29 37  1  6  0  0  0
 29 31  1  0  0  0  0
 29 28  1  0  0  0  0
 30 38  1  0  0  0  0
 30 29  1  0  0  0  0
 31 32  1  0  0  0  0
 33 31  2  0  0  0  0
 34 27  1  0  0  0  0
M  END
$$$$
