PSV.pdb
 OpenBabel07022419053D

 43 43  0  0  1  0  0  0  0  0999 V2000
    2.4620   -2.3500    0.0560 N   0  0  0  0  0  0  0  0  0  0  0  0
    2.0970   -3.6420    0.5430 C   0  0  0  0  0  0  0  0  0  0  0  0
    1.5180   -4.4370   -0.5830 C   0  0  0  0  0  0  0  0  0  0  0  0
    2.0820   -3.7260   -1.8080 C   0  0  0  0  0  0  0  0  0  0  0  0
    2.0770   -2.2900   -1.3440 C   0  0  1  0  0  0  0  0  0  0  0  0
    0.7110   -1.6960   -1.4130 C   0  0  0  0  0  0  0  0  0  0  0  0
    0.1090   -1.5160   -2.5030 O   0  0  0  0  0  0  0  0  0  0  0  0
    3.4380   -2.0700    0.2210 H   0  0  0  0  0  0  0  0  0  0  0  0
    1.3720   -3.6180    1.3880 H   0  0  0  0  0  0  0  0  0  0  0  0
    3.0250   -4.1080    0.9790 H   0  0  0  0  0  0  0  0  0  0  0  0
    1.8110   -5.4990   -0.5550 H   0  0  0  0  0  0  0  0  0  0  0  0
    0.4170   -4.2940   -0.6330 H   0  0  0  0  0  0  0  0  0  0  0  0
    1.4960   -3.9060   -2.7070 H   0  0  0  0  0  0  0  0  0  0  0  0
    3.1510   -4.0340   -1.8860 H   0  0  0  0  0  0  0  0  0  0  0  0
    2.7830   -1.6470   -1.8770 H   0  0  0  0  0  0  0  0  0  0  0  0
   -3.5560   -0.9310    0.4160 O   0  0  0  0  0  0  0  0  0  0  0  0
   -2.3240   -1.5630    0.4820 C   0  0  0  0  0  0  0  0  0  0  0  0
   -1.3020   -0.7230   -0.2490 C   0  0  2  0  0  0  0  0  0  0  0  0
    0.0080   -1.2960   -0.2350 N   0  0  0  0  0  0  0  0  0  0  0  0
   -1.3160    0.6270    0.4030 C   0  0  0  0  0  0  0  0  0  0  0  0
   -2.3940    1.2580    0.4690 O   0  0  0  0  0  0  0  0  0  0  0  0
   -4.1050   -1.2500   -0.3560 H   0  0  0  0  0  0  0  0  0  0  0  0
   -2.3980   -2.5600   -0.0120 H   0  0  0  0  0  0  0  0  0  0  0  0
   -2.0390   -1.6380    1.5540 H   0  0  0  0  0  0  0  0  0  0  0  0
   -1.6400   -0.6570   -1.3140 H   0  0  0  0  0  0  0  0  0  0  0  0
    0.4940   -1.4390    0.6720 H   0  0  0  0  0  0  0  0  0  0  0  0
   -0.8630    1.5070    3.6750 C   0  0  0  0  0  0  0  0  0  0  0  0
    0.2110    2.3530    3.0580 C   0  0  0  0  0  0  0  0  0  0  0  0
    1.5790    1.7670    3.2590 C   0  0  0  0  0  0  0  0  0  0  0  0
   -0.1230    2.5150    1.5860 C   0  0  2  0  0  0  0  0  0  0  0  0
   -0.1670    1.2310    0.9520 N   0  0  0  0  0  0  0  0  0  0  0  0
    0.7460    3.4810    0.9120 C   0  0  0  0  0  0  0  0  0  0  0  0
    0.8720    4.6450    1.3690 O   0  0  0  0  0  0  0  0  0  0  0  0
    1.4570    3.1670   -0.2360 O   0  0  0  0  0  0  0  0  0  0  0  0
   -1.8350    1.5620    3.1440 H   0  0  0  0  0  0  0  0  0  0  0  0
   -0.5470    0.4300    3.6820 H   0  0  0  0  0  0  0  0  0  0  0  0
   -1.0810    1.8050    4.7350 H   0  0  0  0  0  0  0  0  0  0  0  0
    0.1730    3.3860    3.4940 H   0  0  0  0  0  0  0  0  0  0  0  0
    1.9790    2.1340    4.2210 H   0  0  0  0  0  0  0  0  0  0  0  0
    2.2780    2.1210    2.4740 H   0  0  0  0  0  0  0  0  0  0  0  0
    1.4830    0.6700    3.2580 H   0  0  0  0  0  0  0  0  0  0  0  0
   -1.1710    2.9320    1.5540 H   0  0  0  0  0  0  0  0  0  0  0  0
    0.7300    0.6920    0.8910 H   0  0  0  0  0  0  0  0  0  0  0  0
  1  8  1  0  0  0  0
  1  2  1  0  0  0  0
  2 10  1  0  0  0  0
  2  9  1  0  0  0  0
  3 11  1  0  0  0  0
  3  2  1  0  0  0  0
  4  5  1  0  0  0  0
  4  3  1  0  0  0  0
  5 15  1  6  0  0  0
  5  1  1  0  0  0  0
  6  5  1  0  0  0  0
  6 19  1  0  0  0  0
  7  6  2  0  0  0  0
 12  3  1  0  0  0  0
 13  4  1  0  0  0  0
 14  4  1  0  0  0  0
 16 17  1  0  0  0  0
 17 24  1  0  0  0  0
 18 25  1  6  0  0  0
 18 19  1  0  0  0  0
 18 20  1  0  0  0  0
 18 17  1  0  0  0  0
 19 26  1  0  0  0  0
 20 21  2  0  0  0  0
 20 31  1  0  0  0  0
 22 16  1  0  0  0  0
 23 17  1  0  0  0  0
 27 36  1  0  0  0  0
 27 37  1  0  0  0  0
 28 29  1  0  0  0  0
 28 38  1  0  0  0  0
 28 27  1  0  0  0  0
 29 39  1  0  0  0  0
 30 42  1  6  0  0  0
 30 28  1  0  0  0  0
 31 30  1  0  0  0  0
 32 33  1  0  0  0  0
 32 30  1  0  0  0  0
 34 32  2  0  0  0  0
 35 27  1  0  0  0  0
 40 29  1  0  0  0  0
 41 29  1  0  0  0  0
 43 31  1  0  0  0  0
M  END
$$$$
