PTD.pdb
 OpenBabel07022419053D

 43 43  0  0  1  0  0  0  0  0999 V2000
    1.9820   -3.9020    1.0940 N   0  0  0  0  0  0  0  0  0  0  0  0
    2.2960   -5.1840    0.5170 C   0  0  0  0  0  0  0  0  0  0  0  0
    3.7030   -5.0960   -0.0230 C   0  0  0  0  0  0  0  0  0  0  0  0
    3.8090   -3.6210   -0.3610 C   0  0  0  0  0  0  0  0  0  0  0  0
    3.0450   -2.9980    0.7880 C   0  0  1  0  0  0  0  0  0  0  0  0
    2.4320   -1.6990    0.3380 C   0  0  0  0  0  0  0  0  0  0  0  0
    3.1480   -0.7220    0.0040 O   0  0  0  0  0  0  0  0  0  0  0  0
    1.9200   -3.9910    2.1340 H   0  0  0  0  0  0  0  0  0  0  0  0
    1.6150   -5.3630   -0.3570 H   0  0  0  0  0  0  0  0  0  0  0  0
    2.1690   -6.0070    1.2370 H   0  0  0  0  0  0  0  0  0  0  0  0
    3.8630   -5.7390   -0.9080 H   0  0  0  0  0  0  0  0  0  0  0  0
    4.4510   -5.2890    0.7770 H   0  0  0  0  0  0  0  0  0  0  0  0
    3.2740   -3.4530   -1.3150 H   0  0  0  0  0  0  0  0  0  0  0  0
    4.8630   -3.3520   -0.3800 H   0  0  0  0  0  0  0  0  0  0  0  0
    3.7550   -2.8180    1.6050 H   0  0  0  0  0  0  0  0  0  0  0  0
   -0.7090    0.9040   -1.9710 C   0  0  0  0  0  0  0  0  0  0  0  0
   -0.3480   -0.4480   -1.4100 C   0  0  1  0  0  0  0  0  0  0  0  0
    0.5640   -0.9900   -2.3610 O   0  0  0  0  0  0  0  0  0  0  0  0
    0.4700   -0.2740   -0.1630 C   0  0  2  0  0  0  0  0  0  0  0  0
    1.0440   -1.5300    0.2730 N   0  0  0  0  0  0  0  0  0  0  0  0
   -0.2600    0.2700    0.9950 C   0  0  0  0  0  0  0  0  0  0  0  0
   -0.3170   -0.4630    2.0420 O   0  0  0  0  0  0  0  0  0  0  0  0
   -0.7780    0.8510   -3.1090 H   0  0  0  0  0  0  0  0  0  0  0  0
   -1.7220    1.2530   -1.6870 H   0  0  0  0  0  0  0  0  0  0  0  0
    0.0300    1.6880   -1.7780 H   0  0  0  0  0  0  0  0  0  0  0  0
   -1.2490   -1.0340   -1.3020 H   0  0  0  0  0  0  0  0  0  0  0  0
    1.3840   -0.4760   -2.3880 H   0  0  0  0  0  0  0  0  0  0  0  0
    1.3060    0.4080   -0.3940 H   0  0  0  0  0  0  0  0  0  0  0  0
    0.3750   -2.2810    0.5280 H   0  0  0  0  0  0  0  0  0  0  0  0
   -0.9090    1.5020    1.1040 N   0  0  0  0  0  0  0  0  0  0  0  0
   -1.6140    1.9290    2.3320 C   0  0  1  0  0  0  0  0  0  0  0  0
   -1.1530    3.2790    2.7540 C   0  0  0  0  0  0  0  0  0  0  0  0
   -1.8100    3.6890    4.0080 C   0  0  0  0  0  0  0  0  0  0  0  0
   -2.5490    2.9670    4.7220 O   0  0  0  0  0  0  0  0  0  0  0  0
   -3.0570    2.0360    1.9200 C   0  0  0  0  0  0  0  0  0  0  0  0
   -3.9250    2.3630    2.7390 O   0  0  0  0  0  0  0  0  0  0  0  0
   -1.6380    4.9990    4.5170 O   0  0  0  0  0  0  0  0  0  0  0  0
   -3.4610    1.7740    0.6160 O   0  0  0  0  0  0  0  0  0  0  0  0
   -0.9060    2.1630    0.3150 H   0  0  0  0  0  0  0  0  0  0  0  0
   -1.5540    1.1720    3.1220 H   0  0  0  0  0  0  0  0  0  0  0  0
   -0.0470    3.2860    2.9600 H   0  0  0  0  0  0  0  0  0  0  0  0
   -1.3370    4.0090    1.9340 H   0  0  0  0  0  0  0  0  0  0  0  0
   -2.3860    5.4170    5.0840 H   0  0  0  0  0  0  0  0  0  0  0  0
  1  8  1  0  0  0  0
  2  1  1  0  0  0  0
  2 10  1  0  0  0  0
  3  2  1  0  0  0  0
  3 12  1  0  0  0  0
  4  3  1  0  0  0  0
  4  5  1  0  0  0  0
  5  1  1  0  0  0  0
  5 15  1  1  0  0  0
  6  5  1  0  0  0  0
  7  6  2  0  0  0  0
  9  2  1  0  0  0  0
 11  3  1  0  0  0  0
 13  4  1  0  0  0  0
 14  4  1  0  0  0  0
 16 25  1  0  0  0  0
 16 24  1  0  0  0  0
 16 17  1  0  0  0  0
 17 26  1  1  0  0  0
 17 19  1  0  0  0  0
 18 17  1  0  0  0  0
 19 28  1  6  0  0  0
 19 20  1  0  0  0  0
 19 21  1  0  0  0  0
 20  6  1  0  0  0  0
 20 29  1  0  0  0  0
 21 30  1  0  0  0  0
 21 22  2  0  0  0  0
 23 16  1  0  0  0  0
 27 18  1  0  0  0  0
 30 31  1  0  0  0  0
 31 32  1  0  0  0  0
 31 40  1  1  0  0  0
 32 41  1  0  0  0  0
 32 33  1  0  0  0  0
 33 37  1  0  0  0  0
 33 34  2  0  0  0  0
 35 31  1  0  0  0  0
 35 36  1  0  0  0  0
 37 43  1  0  0  0  0
 38 35  2  0  0  0  0
 39 30  1  0  0  0  0
 42 32  1  0  0  0  0
M  END
$$$$
