PTE.pdb
 OpenBabel07022419053D

 46 46  0  0  1  0  0  0  0  0999 V2000
   -0.1370   -3.5180    1.2970 N   0  0  0  0  0  0  0  0  0  0  0  0
   -0.5000   -4.9420    1.3900 C   0  0  0  0  0  0  0  0  0  0  0  0
   -0.2790   -5.3620   -0.0480 C   0  0  0  0  0  0  0  0  0  0  0  0
    1.0060   -4.6520   -0.3980 C   0  0  0  0  0  0  0  0  0  0  0  0
    1.1600   -3.5460    0.6490 C   0  0  1  0  0  0  0  0  0  0  0  0
    1.5560   -2.2550    0.0500 C   0  0  0  0  0  0  0  0  0  0  0  0
    2.6600   -2.1990   -0.5180 O   0  0  0  0  0  0  0  0  0  0  0  0
   -0.8270   -3.1300    0.6020 H   0  0  0  0  0  0  0  0  0  0  0  0
    0.2340   -5.4910    2.0110 H   0  0  0  0  0  0  0  0  0  0  0  0
   -1.5460   -5.1040    1.6410 H   0  0  0  0  0  0  0  0  0  0  0  0
   -1.1370   -5.0200   -0.7000 H   0  0  0  0  0  0  0  0  0  0  0  0
   -0.1290   -6.4300   -0.1920 H   0  0  0  0  0  0  0  0  0  0  0  0
    0.8340   -4.1360   -1.3630 H   0  0  0  0  0  0  0  0  0  0  0  0
    1.8940   -5.3180   -0.4110 H   0  0  0  0  0  0  0  0  0  0  0  0
    1.8970   -3.9060    1.3820 H   0  0  0  0  0  0  0  0  0  0  0  0
    0.7940    1.7390   -2.3330 C   0  0  0  0  0  0  0  0  0  0  0  0
    0.3060    0.4320   -1.7480 C   0  0  1  0  0  0  0  0  0  0  0  0
    0.6330   -0.5990   -2.6360 O   0  0  0  0  0  0  0  0  0  0  0  0
    1.0870    0.1680   -0.4710 C   0  0  2  0  0  0  0  0  0  0  0  0
    0.7370   -1.1140    0.1030 N   0  0  0  0  0  0  0  0  0  0  0  0
    0.9440    1.3000    0.4660 C   0  0  0  0  0  0  0  0  0  0  0  0
    1.2240    2.4750    0.1300 O   0  0  0  0  0  0  0  0  0  0  0  0
    0.2090    2.6090   -1.9770 H   0  0  0  0  0  0  0  0  0  0  0  0
    1.8600    1.9190   -2.0660 H   0  0  0  0  0  0  0  0  0  0  0  0
    0.6880    1.7480   -3.4580 H   0  0  0  0  0  0  0  0  0  0  0  0
   -0.7610    0.5310   -1.5850 H   0  0  0  0  0  0  0  0  0  0  0  0
    1.3580   -0.2590   -3.2160 H   0  0  0  0  0  0  0  0  0  0  0  0
    2.1460    0.1150   -0.7950 H   0  0  0  0  0  0  0  0  0  0  0  0
   -0.1870   -1.2050    0.5980 H   0  0  0  0  0  0  0  0  0  0  0  0
    0.4820    1.1290    1.8030 N   0  0  0  0  0  0  0  0  0  0  0  0
    0.3080    2.1440    2.7780 C   0  0  1  0  0  0  0  0  0  0  0  0
   -1.0150    2.2380    3.4430 C   0  0  0  0  0  0  0  0  0  0  0  0
   -2.1990    2.5010    2.5900 C   0  0  0  0  0  0  0  0  0  0  0  0
   -2.4830    1.5100    1.5480 C   0  0  0  0  0  0  0  0  0  0  0  0
   -2.2110    1.7370    0.3600 O   0  0  0  0  0  0  0  0  0  0  0  0
    1.3680    1.9530    3.8310 C   0  0  0  0  0  0  0  0  0  0  0  0
    2.2020    1.0410    3.7480 O   0  0  0  0  0  0  0  0  0  0  0  0
   -3.0670    0.2680    1.8270 O   0  0  0  0  0  0  0  0  0  0  0  0
    1.3920    2.8210    4.9010 O   0  0  0  0  0  0  0  0  0  0  0  0
    0.2500    0.1330    2.0800 H   0  0  0  0  0  0  0  0  0  0  0  0
    0.5130    3.1330    2.2680 H   0  0  0  0  0  0  0  0  0  0  0  0
   -1.2540    1.3450    4.0710 H   0  0  0  0  0  0  0  0  0  0  0  0
   -0.9750    3.0880    4.1950 H   0  0  0  0  0  0  0  0  0  0  0  0
   -2.0730    3.5120    2.0870 H   0  0  0  0  0  0  0  0  0  0  0  0
   -3.1340    2.5690    3.2260 H   0  0  0  0  0  0  0  0  0  0  0  0
   -3.0390   -0.5070    1.1630 H   0  0  0  0  0  0  0  0  0  0  0  0
  1  2  1  0  0  0  0
  2 10  1  0  0  0  0
  2  9  1  0  0  0  0
  3  2  1  0  0  0  0
  4  3  1  0  0  0  0
  4  5  1  0  0  0  0
  5  1  1  0  0  0  0
  5 15  1  1  0  0  0
  6 20  1  0  0  0  0
  6  5  1  0  0  0  0
  7  6  2  0  0  0  0
  8  1  1  0  0  0  0
 11  3  1  0  0  0  0
 12  3  1  0  0  0  0
 13  4  1  0  0  0  0
 14  4  1  0  0  0  0
 16 24  1  0  0  0  0
 16 23  1  0  0  0  0
 16 17  1  0  0  0  0
 17 26  1  1  0  0  0
 17 19  1  0  0  0  0
 18 17  1  0  0  0  0
 19 28  1  6  0  0  0
 19 20  1  0  0  0  0
 19 21  1  0  0  0  0
 20 29  1  0  0  0  0
 21 30  1  0  0  0  0
 22 21  2  0  0  0  0
 25 16  1  0  0  0  0
 27 18  1  0  0  0  0
 30 40  1  0  0  0  0
 30 31  1  0  0  0  0
 31 41  1  6  0  0  0
 31 32  1  0  0  0  0
 31 36  1  0  0  0  0
 32 42  1  0  0  0  0
 32 43  1  0  0  0  0
 33 45  1  0  0  0  0
 33 32  1  0  0  0  0
 34 38  1  0  0  0  0
 34 33  1  0  0  0  0
 35 34  2  0  0  0  0
 36 39  1  0  0  0  0
 37 36  2  0  0  0  0
 44 33  1  0  0  0  0
 46 38  1  0  0  0  0
M  END
$$$$
