PTF.pdb
 OpenBabel07022419053D

 50 51  0  0  1  0  0  0  0  0999 V2000
    0.0690   -3.3020    0.1410 N   0  0  0  0  0  0  0  0  0  0  0  0
    1.4180   -3.6940    0.4550 C   0  0  0  0  0  0  0  0  0  0  0  0
    1.3750   -4.4850    1.7540 C   0  0  0  0  0  0  0  0  0  0  0  0
   -0.0990   -4.8230    1.8790 C   0  0  0  0  0  0  0  0  0  0  0  0
   -0.7380   -3.6150    1.2920 C   0  0  1  0  0  0  0  0  0  0  0  0
   -0.6830   -2.4670    2.2520 C   0  0  0  0  0  0  0  0  0  0  0  0
   -1.2990   -2.5260    3.3660 O   0  0  0  0  0  0  0  0  0  0  0  0
   -0.2590   -3.8560   -0.6790 H   0  0  0  0  0  0  0  0  0  0  0  0
    1.8020   -4.4220   -0.3220 H   0  0  0  0  0  0  0  0  0  0  0  0
    2.1180   -2.8580    0.5540 H   0  0  0  0  0  0  0  0  0  0  0  0
    1.9560   -5.4250    1.6930 H   0  0  0  0  0  0  0  0  0  0  0  0
    1.7620   -3.9180    2.6020 H   0  0  0  0  0  0  0  0  0  0  0  0
   -0.2840   -5.6890    1.2030 H   0  0  0  0  0  0  0  0  0  0  0  0
   -0.3940   -5.0320    2.9220 H   0  0  0  0  0  0  0  0  0  0  0  0
   -1.7960   -3.7990    0.9720 H   0  0  0  0  0  0  0  0  0  0  0  0
    2.0490   -1.1650    4.1470 C   0  0  0  0  0  0  0  0  0  0  0  0
    1.5050    0.0050    3.3800 C   0  0  1  0  0  0  0  0  0  0  0  0
    2.2630    0.3110    2.2630 O   0  0  0  0  0  0  0  0  0  0  0  0
    0.0580   -0.1870    2.9570 C   0  0  2  0  0  0  0  0  0  0  0  0
    0.0300   -1.2750    2.0020 N   0  0  0  0  0  0  0  0  0  0  0  0
   -0.4060    1.0870    2.3620 C   0  0  0  0  0  0  0  0  0  0  0  0
   -0.4250    2.1040    3.1010 O   0  0  0  0  0  0  0  0  0  0  0  0
    2.7850   -0.7440    4.8880 H   0  0  0  0  0  0  0  0  0  0  0  0
    2.6070   -1.8570    3.4900 H   0  0  0  0  0  0  0  0  0  0  0  0
    1.2710   -1.6920    4.7360 H   0  0  0  0  0  0  0  0  0  0  0  0
    1.4990    0.9420    4.0120 H   0  0  0  0  0  0  0  0  0  0  0  0
    3.1910   -0.0270    2.3530 H   0  0  0  0  0  0  0  0  0  0  0  0
   -0.5210   -0.3990    3.8640 H   0  0  0  0  0  0  0  0  0  0  0  0
    0.5550   -1.1540    1.1100 H   0  0  0  0  0  0  0  0  0  0  0  0
   -0.8230    1.2010    1.0090 N   0  0  0  0  0  0  0  0  0  0  0  0
   -1.2770    2.4690    0.4460 C   0  0  1  0  0  0  0  0  0  0  0  0
   -0.3170    2.8430   -0.6420 C   0  0  0  0  0  0  0  0  0  0  0  0
   -0.2350    1.8440   -1.7350 C   0  0  0  0  0  0  0  0  0  0  0  0
   -1.0480    1.9200   -2.8340 C   0  0  0  0  0  0  0  0  0  0  0  0
   -0.9340    0.9700   -3.8170 C   0  0  0  0  0  0  0  0  0  0  0  0
   -0.0320   -0.0700   -3.7560 C   0  0  0  0  0  0  0  0  0  0  0  0
    0.7850   -0.1440   -2.6480 C   0  0  0  0  0  0  0  0  0  0  0  0
    0.6760    0.8060   -1.6590 C   0  0  0  0  0  0  0  0  0  0  0  0
   -2.6280    2.3160   -0.1430 C   0  0  0  0  0  0  0  0  0  0  0  0
   -3.1800    3.3120   -0.6710 O   0  0  0  0  0  0  0  0  0  0  0  0
   -3.3010    1.1190   -0.1330 O   0  0  0  0  0  0  0  0  0  0  0  0
   -0.7910    0.3310    0.4350 H   0  0  0  0  0  0  0  0  0  0  0  0
   -1.2420    3.2590    1.2080 H   0  0  0  0  0  0  0  0  0  0  0  0
    0.6970    3.0300   -0.2100 H   0  0  0  0  0  0  0  0  0  0  0  0
   -0.6420    3.8220   -1.0540 H   0  0  0  0  0  0  0  0  0  0  0  0
   -1.7880    2.7140   -2.9590 H   0  0  0  0  0  0  0  0  0  0  0  0
   -1.5990    1.0560   -4.6880 H   0  0  0  0  0  0  0  0  0  0  0  0
    0.0150   -0.7960   -4.5640 H   0  0  0  0  0  0  0  0  0  0  0  0
    1.4940   -0.9670   -2.6050 H   0  0  0  0  0  0  0  0  0  0  0  0
    1.3210    0.7380   -0.7950 H   0  0  0  0  0  0  0  0  0  0  0  0
  1  2  1  0  0  0  0
  1  5  1  0  0  0  0
  2 10  1  0  0  0  0
  2  3  1  0  0  0  0
  3  4  1  0  0  0  0
  3 12  1  0  0  0  0
  4 14  1  0  0  0  0
  5 15  1  6  0  0  0
  5  4  1  0  0  0  0
  5  6  1  0  0  0  0
  6  7  2  0  0  0  0
  8  1  1  0  0  0  0
  9  2  1  0  0  0  0
 11  3  1  0  0  0  0
 13  4  1  0  0  0  0
 16 25  1  0  0  0  0
 16 23  1  0  0  0  0
 17 26  1  1  0  0  0
 17 16  1  0  0  0  0
 18 27  1  0  0  0  0
 18 17  1  0  0  0  0
 19 17  1  0  0  0  0
 19 28  1  1  0  0  0
 20  6  1  0  0  0  0
 20 19  1  0  0  0  0
 21 19  1  0  0  0  0
 21 22  2  0  0  0  0
 24 16  1  0  0  0  0
 29 20  1  0  0  0  0
 30 21  1  0  0  0  0
 31 30  1  0  0  0  0
 31 43  1  1  0  0  0
 32 44  1  0  0  0  0
 32 31  1  0  0  0  0
 33 38  1  0  0  0  0
 33 32  1  0  0  0  0
 34 33  2  0  0  0  0
 35 36  2  0  0  0  0
 35 34  1  0  0  0  0
 36 37  1  0  0  0  0
 37 49  1  0  0  0  0
 37 38  2  0  0  0  0
 38 50  1  0  0  0  0
 39 41  1  0  0  0  0
 39 31  1  0  0  0  0
 40 39  2  0  0  0  0
 42 30  1  0  0  0  0
 45 32  1  0  0  0  0
 46 34  1  0  0  0  0
 47 35  1  0  0  0  0
 48 36  1  0  0  0  0
M  END
$$$$
