PTG.pdb
 OpenBabel07022419053D

 37 37  0  0  1  0  0  0  0  0999 V2000
    2.7910   -0.4520   -0.6990 N   0  0  0  0  0  0  0  0  0  0  0  0
    3.0980   -1.8510   -0.6470 C   0  0  0  0  0  0  0  0  0  0  0  0
    3.0970   -2.2610   -2.1150 C   0  0  0  0  0  0  0  0  0  0  0  0
    2.0660   -1.3260   -2.7350 C   0  0  0  0  0  0  0  0  0  0  0  0
    1.7900   -0.2840   -1.7060 C   0  0  1  0  0  0  0  0  0  0  0  0
    0.4030   -0.3440   -1.1640 C   0  0  0  0  0  0  0  0  0  0  0  0
   -0.5410   -0.2170   -1.9860 O   0  0  0  0  0  0  0  0  0  0  0  0
    3.6650    0.0400   -1.0430 H   0  0  0  0  0  0  0  0  0  0  0  0
    4.1230   -2.0560   -0.2430 H   0  0  0  0  0  0  0  0  0  0  0  0
    2.3200   -2.3790   -0.0840 H   0  0  0  0  0  0  0  0  0  0  0  0
    2.7790   -3.3240   -2.1770 H   0  0  0  0  0  0  0  0  0  0  0  0
    4.0920   -2.0730   -2.5340 H   0  0  0  0  0  0  0  0  0  0  0  0
    1.1510   -1.9490   -2.9140 H   0  0  0  0  0  0  0  0  0  0  0  0
    2.4120   -0.9240   -3.7050 H   0  0  0  0  0  0  0  0  0  0  0  0
    1.9000    0.7350   -2.1790 H   0  0  0  0  0  0  0  0  0  0  0  0
   -2.8430   -1.8850    2.0040 C   0  0  0  0  0  0  0  0  0  0  0  0
   -1.4510   -1.9040    1.4660 C   0  0  1  0  0  0  0  0  0  0  0  0
   -1.3160   -2.9960    0.6070 O   0  0  0  0  0  0  0  0  0  0  0  0
   -1.1870   -0.5960    0.7590 C   0  0  2  0  0  0  0  0  0  0  0  0
    0.1500   -0.5340    0.2100 N   0  0  0  0  0  0  0  0  0  0  0  0
   -1.3940    0.4970    1.7380 C   0  0  0  0  0  0  0  0  0  0  0  0
   -2.4840    0.6450    2.3480 O   0  0  0  0  0  0  0  0  0  0  0  0
   -3.2520   -2.9130    1.9620 H   0  0  0  0  0  0  0  0  0  0  0  0
   -3.5410   -1.2330    1.4430 H   0  0  0  0  0  0  0  0  0  0  0  0
   -2.7850   -1.6260    3.0850 H   0  0  0  0  0  0  0  0  0  0  0  0
   -0.7220   -2.0350    2.2720 H   0  0  0  0  0  0  0  0  0  0  0  0
   -1.3010   -3.8070    1.1980 H   0  0  0  0  0  0  0  0  0  0  0  0
   -1.8950   -0.4700   -0.0840 H   0  0  0  0  0  0  0  0  0  0  0  0
    0.9800   -0.6310    0.8470 H   0  0  0  0  0  0  0  0  0  0  0  0
   -0.3130    1.3920    1.9790 N   0  0  0  0  0  0  0  0  0  0  0  0
   -0.4200    2.4780    2.9070 C   0  0  0  0  0  0  0  0  0  0  0  0
   -0.7160    2.0470    4.2900 C   0  0  0  0  0  0  0  0  0  0  0  0
   -0.8640    0.8690    4.6520 O   0  0  0  0  0  0  0  0  0  0  0  0
   -0.8360    3.0400    5.2540 O   0  0  0  0  0  0  0  0  0  0  0  0
    0.5990    1.2750    1.4750 H   0  0  0  0  0  0  0  0  0  0  0  0
   -1.1940    3.2290    2.5720 H   0  0  0  0  0  0  0  0  0  0  0  0
    0.5270    3.0510    2.9450 H   0  0  0  0  0  0  0  0  0  0  0  0
  1  2  1  0  0  0  0
  2  9  1  0  0  0  0
  2 10  1  0  0  0  0
  3  2  1  0  0  0  0
  4  3  1  0  0  0  0
  4  5  1  0  0  0  0
  5 15  1  6  0  0  0
  5  6  1  0  0  0  0
  5  1  1  0  0  0  0
  6 20  1  0  0  0  0
  7  6  2  0  0  0  0
  8  1  1  0  0  0  0
 11  3  1  0  0  0  0
 12  3  1  0  0  0  0
 13  4  1  0  0  0  0
 14  4  1  0  0  0  0
 16 25  1  0  0  0  0
 17 16  1  0  0  0  0
 17 26  1  1  0  0  0
 18 27  1  0  0  0  0
 18 17  1  0  0  0  0
 19 28  1  6  0  0  0
 19 17  1  0  0  0  0
 19 21  1  0  0  0  0
 20 19  1  0  0  0  0
 20 29  1  0  0  0  0
 21 30  1  0  0  0  0
 21 22  2  0  0  0  0
 23 16  1  0  0  0  0
 24 16  1  0  0  0  0
 30 31  1  0  0  0  0
 31 37  1  0  0  0  0
 31 32  1  0  0  0  0
 32 33  2  0  0  0  0
 32 34  1  0  0  0  0
 35 30  1  0  0  0  0
 36 31  1  0  0  0  0
M  END
$$$$
