PTH.pdb
 OpenBabel07022419053D

 47 48  0  0  1  0  0  0  0  0999 V2000
    1.8940   -3.7250    0.2190 N   0  0  0  0  0  0  0  0  0  0  0  0
    2.8950   -3.8530    1.2350 C   0  0  0  0  0  0  0  0  0  0  0  0
    2.2500   -4.4690    2.4480 C   0  0  0  0  0  0  0  0  0  0  0  0
    0.9100   -4.9670    1.9270 C   0  0  0  0  0  0  0  0  0  0  0  0
    0.6460   -3.9430    0.8480 C   0  0  1  0  0  0  0  0  0  0  0  0
    0.0390   -2.7250    1.4700 C   0  0  0  0  0  0  0  0  0  0  0  0
   -1.0480   -2.8210    2.0940 O   0  0  0  0  0  0  0  0  0  0  0  0
    1.9780   -2.9030   -0.3860 H   0  0  0  0  0  0  0  0  0  0  0  0
    3.7430   -4.5130    0.8650 H   0  0  0  0  0  0  0  0  0  0  0  0
    3.2960   -2.8310    1.4550 H   0  0  0  0  0  0  0  0  0  0  0  0
    2.0330   -3.6700    3.1780 H   0  0  0  0  0  0  0  0  0  0  0  0
    2.8400   -5.3000    2.8850 H   0  0  0  0  0  0  0  0  0  0  0  0
    0.1390   -4.9690    2.7060 H   0  0  0  0  0  0  0  0  0  0  0  0
    1.0020   -5.9840    1.4840 H   0  0  0  0  0  0  0  0  0  0  0  0
   -0.1020   -4.3810    0.1040 H   0  0  0  0  0  0  0  0  0  0  0  0
    0.6580    1.5950    3.5580 C   0  0  0  0  0  0  0  0  0  0  0  0
    1.0930    0.3130    2.9130 C   0  0  1  0  0  0  0  0  0  0  0  0
    1.3700   -0.5990    3.9230 O   0  0  0  0  0  0  0  0  0  0  0  0
    0.1010   -0.2590    1.9630 C   0  0  2  0  0  0  0  0  0  0  0  0
    0.6420   -1.4640    1.3820 N   0  0  0  0  0  0  0  0  0  0  0  0
   -0.2890    0.6840    0.8810 C   0  0  0  0  0  0  0  0  0  0  0  0
   -0.7820    1.8160    1.1510 O   0  0  0  0  0  0  0  0  0  0  0  0
   -0.3200    1.4570    4.0710 H   0  0  0  0  0  0  0  0  0  0  0  0
    0.6750    2.4630    2.8940 H   0  0  0  0  0  0  0  0  0  0  0  0
    1.3930    1.8050    4.3820 H   0  0  0  0  0  0  0  0  0  0  0  0
    2.0590    0.5160    2.3980 H   0  0  0  0  0  0  0  0  0  0  0  0
    2.0550   -0.2980    4.5470 H   0  0  0  0  0  0  0  0  0  0  0  0
   -0.8420   -0.5090    2.4940 H   0  0  0  0  0  0  0  0  0  0  0  0
    1.5550   -1.3460    0.8590 H   0  0  0  0  0  0  0  0  0  0  0  0
   -0.1070    0.3110   -0.4570 N   0  0  0  0  0  0  0  0  0  0  0  0
   -0.4120    1.0000   -1.6600 C   0  0  1  0  0  0  0  0  0  0  0  0
   -1.0770    2.3510   -1.5230 C   0  0  0  0  0  0  0  0  0  0  0  0
   -2.4320    2.2920   -0.9290 C   0  0  0  0  0  0  0  0  0  0  0  0
   -3.1680    1.1750   -0.6000 C   0  0  0  0  0  0  0  0  0  0  0  0
   -4.3690    1.5930   -0.1440 N   0  0  0  0  0  0  0  0  0  0  0  0
   -4.4050    2.9270   -0.1780 C   0  0  0  0  0  0  0  0  0  0  0  0
   -3.2300    3.3570   -0.6540 N   0  0  0  0  0  0  0  0  0  0  0  0
    0.5920    0.9110   -2.7190 C   0  0  0  0  0  0  0  0  0  0  0  0
    1.6770    0.2510   -2.5620 O   0  0  0  0  0  0  0  0  0  0  0  0
    0.4220    1.5390   -3.9530 O   0  0  0  0  0  0  0  0  0  0  0  0
    0.3400   -0.6620   -0.6170 H   0  0  0  0  0  0  0  0  0  0  0  0
   -1.3380    0.3890   -2.0680 H   0  0  0  0  0  0  0  0  0  0  0  0
   -0.4730    3.0360   -0.8680 H   0  0  0  0  0  0  0  0  0  0  0  0
   -1.1660    2.7560   -2.5520 H   0  0  0  0  0  0  0  0  0  0  0  0
   -2.8140    0.1570   -0.7020 H   0  0  0  0  0  0  0  0  0  0  0  0
   -5.1350    0.9550    0.1790 H   0  0  0  0  0  0  0  0  0  0  0  0
   -5.2140    3.5670    0.1170 H   0  0  0  0  0  0  0  0  0  0  0  0
  1  5  1  0  0  0  0
  1  2  1  0  0  0  0
  2 10  1  0  0  0  0
  2  3  1  0  0  0  0
  3 12  1  0  0  0  0
  3 11  1  0  0  0  0
  4  3  1  0  0  0  0
  4 13  1  0  0  0  0
  5 15  1  6  0  0  0
  5  6  1  0  0  0  0
  5  4  1  0  0  0  0
  6  7  2  0  0  0  0
  8  1  1  0  0  0  0
  9  2  1  0  0  0  0
 14  4  1  0  0  0  0
 16 23  1  0  0  0  0
 16 25  1  0  0  0  0
 17 26  1  6  0  0  0
 17 16  1  0  0  0  0
 17 18  1  0  0  0  0
 18 27  1  0  0  0  0
 19 28  1  1  0  0  0
 19 17  1  0  0  0  0
 20  6  1  0  0  0  0
 20 19  1  0  0  0  0
 21 22  2  0  0  0  0
 21 19  1  0  0  0  0
 24 16  1  0  0  0  0
 29 20  1  0  0  0  0
 30 21  1  0  0  0  0
 31 42  1  6  0  0  0
 31 32  1  0  0  0  0
 31 30  1  0  0  0  0
 32 33  1  0  0  0  0
 32 43  1  0  0  0  0
 33 37  1  0  0  0  0
 33 34  2  0  0  0  0
 34 35  1  0  0  0  0
 35 46  1  0  0  0  0
 36 35  1  0  0  0  0
 36 47  1  0  0  0  0
 37 36  2  0  0  0  0
 38 39  1  0  0  0  0
 38 31  1  0  0  0  0
 40 38  2  0  0  0  0
 41 30  1  0  0  0  0
 44 32  1  0  0  0  0
 45 34  1  0  0  0  0
M  END
$$$$
