PTI.pdb
 OpenBabel07022419053D

 49 49  0  0  1  0  0  0  0  0999 V2000
    3.0390   -3.3650    1.2510 N   0  0  0  0  0  0  0  0  0  0  0  0
    2.6400   -4.7060    1.6840 C   0  0  0  0  0  0  0  0  0  0  0  0
    1.1370   -4.6080    1.8500 C   0  0  0  0  0  0  0  0  0  0  0  0
    0.6970   -3.3600    1.1100 C   0  0  0  0  0  0  0  0  0  0  0  0
    1.9780   -2.9970    0.3960 C   0  0  1  0  0  0  0  0  0  0  0  0
    1.9740   -1.6100   -0.1140 C   0  0  0  0  0  0  0  0  0  0  0  0
    2.9430   -0.8750    0.1690 O   0  0  0  0  0  0  0  0  0  0  0  0
    3.9240   -3.4280    0.7230 H   0  0  0  0  0  0  0  0  0  0  0  0
    2.7880   -5.4290    0.8450 H   0  0  0  0  0  0  0  0  0  0  0  0
    3.1640   -5.0370    2.6020 H   0  0  0  0  0  0  0  0  0  0  0  0
    0.8860   -4.5350    2.9300 H   0  0  0  0  0  0  0  0  0  0  0  0
    0.5990   -5.4620    1.3950 H   0  0  0  0  0  0  0  0  0  0  0  0
   -0.0870   -3.5570    0.3510 H   0  0  0  0  0  0  0  0  0  0  0  0
    0.4150   -2.6010    1.8710 H   0  0  0  0  0  0  0  0  0  0  0  0
    1.9830   -3.6830   -0.5130 H   0  0  0  0  0  0  0  0  0  0  0  0
    0.8560    1.6290   -3.5060 C   0  0  0  0  0  0  0  0  0  0  0  0
    0.7840    0.2300   -2.9560 C   0  0  1  0  0  0  0  0  0  0  0  0
    2.0210   -0.3660   -3.3220 O   0  0  0  0  0  0  0  0  0  0  0  0
    0.7920    0.2240   -1.4600 C   0  0  2  0  0  0  0  0  0  0  0  0
    0.9370   -1.0830   -0.8980 N   0  0  0  0  0  0  0  0  0  0  0  0
   -0.3730    0.8920   -0.8370 C   0  0  0  0  0  0  0  0  0  0  0  0
   -0.9270    1.7690   -1.5060 O   0  0  0  0  0  0  0  0  0  0  0  0
    1.2770    1.5610   -4.5350 H   0  0  0  0  0  0  0  0  0  0  0  0
    1.6080    2.2280   -2.9360 H   0  0  0  0  0  0  0  0  0  0  0  0
   -0.1220    2.1120   -3.6120 H   0  0  0  0  0  0  0  0  0  0  0  0
    0.0100   -0.3290   -3.4560 H   0  0  0  0  0  0  0  0  0  0  0  0
    2.2330   -0.1520   -4.2650 H   0  0  0  0  0  0  0  0  0  0  0  0
    1.6880    0.8090   -1.1490 H   0  0  0  0  0  0  0  0  0  0  0  0
    0.1410   -1.7840   -1.0980 H   0  0  0  0  0  0  0  0  0  0  0  0
   -0.3000    0.1320    3.5610 C   0  0  0  0  0  0  0  0  0  0  0  0
   -1.4700    1.0890    3.5540 C   0  0  0  0  0  0  0  0  0  0  0  0
   -2.4090    0.7940    2.4140 C   0  0  2  0  0  0  0  0  0  0  0  0
   -2.9510   -0.6390    2.5280 C   0  0  0  0  0  0  0  0  0  0  0  0
   -1.9900    1.1560    1.0950 C   0  0  2  0  0  0  0  0  0  0  0  0
   -0.8930    0.6350    0.4180 N   0  0  0  0  0  0  0  0  0  0  0  0
   -1.6850    2.6560    1.2210 C   0  0  0  0  0  0  0  0  0  0  0  0
   -2.4970    3.3580    1.8240 O   0  0  0  0  0  0  0  0  0  0  0  0
   -0.5490    3.1440    0.6700 O   0  0  0  0  0  0  0  0  0  0  0  0
    0.0500   -0.0160    4.6280 H   0  0  0  0  0  0  0  0  0  0  0  0
    0.5670    0.5230    3.0130 H   0  0  0  0  0  0  0  0  0  0  0  0
   -0.5490   -0.8710    3.2090 H   0  0  0  0  0  0  0  0  0  0  0  0
   -1.1220    2.1550    3.5360 H   0  0  0  0  0  0  0  0  0  0  0  0
   -1.9380    1.0100    4.5590 H   0  0  0  0  0  0  0  0  0  0  0  0
   -3.3260    1.3760    2.6430 H   0  0  0  0  0  0  0  0  0  0  0  0
   -3.8100   -0.6840    1.8020 H   0  0  0  0  0  0  0  0  0  0  0  0
   -3.3500   -0.8240    3.5130 H   0  0  0  0  0  0  0  0  0  0  0  0
   -2.2310   -1.3810    2.2070 H   0  0  0  0  0  0  0  0  0  0  0  0
   -2.8560    1.2080    0.4130 H   0  0  0  0  0  0  0  0  0  0  0  0
   -0.3600   -0.0860    0.9720 H   0  0  0  0  0  0  0  0  0  0  0  0
  1  2  1  0  0  0  0
  2  3  1  0  0  0  0
  2 10  1  0  0  0  0
  3 11  1  0  0  0  0
  4  3  1  0  0  0  0
  4 14  1  0  0  0  0
  5 15  1  6  0  0  0
  5  4  1  0  0  0  0
  5  1  1  0  0  0  0
  6  7  2  0  0  0  0
  6  5  1  0  0  0  0
  8  1  1  0  0  0  0
  9  2  1  0  0  0  0
 12  3  1  0  0  0  0
 13  4  1  0  0  0  0
 16 17  1  0  0  0  0
 16 24  1  0  0  0  0
 17 26  1  6  0  0  0
 17 19  1  0  0  0  0
 18 17  1  0  0  0  0
 19 28  1  1  0  0  0
 19 20  1  0  0  0  0
 19 21  1  0  0  0  0
 20  6  1  0  0  0  0
 21 35  1  0  0  0  0
 22 21  2  0  0  0  0
 23 16  1  0  0  0  0
 25 16  1  0  0  0  0
 27 18  1  0  0  0  0
 29 20  1  0  0  0  0
 30 39  1  0  0  0  0
 31 30  1  0  0  0  0
 31 43  1  0  0  0  0
 32 33  1  0  0  0  0
 32 44  1  1  0  0  0
 32 31  1  0  0  0  0
 33 46  1  0  0  0  0
 34 48  1  6  0  0  0
 34 36  1  0  0  0  0
 34 32  1  0  0  0  0
 35 49  1  0  0  0  0
 35 34  1  0  0  0  0
 36 37  1  0  0  0  0
 38 36  2  0  0  0  0
 40 30  1  0  0  0  0
 41 30  1  0  0  0  0
 42 31  1  0  0  0  0
 45 33  1  0  0  0  0
 47 33  1  0  0  0  0
M  END
$$$$
