PTK.pdb
 OpenBabel07022419053D

 51 51  0  0  1  0  0  0  0  0999 V2000
    2.0280   -1.5530    5.0440 N   0  0  0  0  0  0  0  0  0  0  0  0
    0.9970   -2.2170    5.8540 C   0  0  0  0  0  0  0  0  0  0  0  0
   -0.2650   -1.7820    5.1810 C   0  0  0  0  0  0  0  0  0  0  0  0
    0.0980   -1.8120    3.7110 C   0  0  0  0  0  0  0  0  0  0  0  0
    1.5790   -1.8900    3.7070 C   0  0  1  0  0  0  0  0  0  0  0  0
    2.2480   -1.0880    2.6710 C   0  0  0  0  0  0  0  0  0  0  0  0
    3.0970   -0.2380    3.0430 O   0  0  0  0  0  0  0  0  0  0  0  0
    1.9140   -0.5260    5.1910 H   0  0  0  0  0  0  0  0  0  0  0  0
    1.0980   -3.3000    5.7470 H   0  0  0  0  0  0  0  0  0  0  0  0
    1.0540   -1.9000    6.9110 H   0  0  0  0  0  0  0  0  0  0  0  0
   -0.5290   -0.7550    5.5250 H   0  0  0  0  0  0  0  0  0  0  0  0
   -1.1290   -2.4570    5.3970 H   0  0  0  0  0  0  0  0  0  0  0  0
   -0.3270   -0.9050    3.2570 H   0  0  0  0  0  0  0  0  0  0  0  0
   -0.3850   -2.6900    3.2650 H   0  0  0  0  0  0  0  0  0  0  0  0
    1.8730   -2.9510    3.5370 H   0  0  0  0  0  0  0  0  0  0  0  0
    4.0890   -0.4980   -1.7590 C   0  0  0  0  0  0  0  0  0  0  0  0
    3.4520   -1.3100   -0.6730 C   0  0  1  0  0  0  0  0  0  0  0  0
    4.4350   -2.0060    0.0000 O   0  0  0  0  0  0  0  0  0  0  0  0
    2.6420   -0.4380    0.2680 C   0  0  2  0  0  0  0  0  0  0  0  0
    1.9910   -1.2190    1.2850 N   0  0  0  0  0  0  0  0  0  0  0  0
    1.6420    0.3260   -0.5440 C   0  0  0  0  0  0  0  0  0  0  0  0
    2.0470    1.0590   -1.4760 O   0  0  0  0  0  0  0  0  0  0  0  0
    3.4370   -0.4190   -2.6500 H   0  0  0  0  0  0  0  0  0  0  0  0
    4.3330    0.5220   -1.3930 H   0  0  0  0  0  0  0  0  0  0  0  0
    5.0390   -0.9610   -2.0960 H   0  0  0  0  0  0  0  0  0  0  0  0
    2.7540   -2.0230   -1.1400 H   0  0  0  0  0  0  0  0  0  0  0  0
    5.1670   -1.3740    0.2000 H   0  0  0  0  0  0  0  0  0  0  0  0
    3.3480    0.2500    0.7670 H   0  0  0  0  0  0  0  0  0  0  0  0
    1.2640   -1.9560    1.0390 H   0  0  0  0  0  0  0  0  0  0  0  0
    0.2570    0.2550   -0.3020 N   0  0  0  0  0  0  0  0  0  0  0  0
   -0.6750    1.0060   -1.1060 C   0  0  1  0  0  0  0  0  0  0  0  0
   -1.6350    0.0840   -1.8580 C   0  0  0  0  0  0  0  0  0  0  0  0
   -2.4360   -0.7620   -0.9080 C   0  0  0  0  0  0  0  0  0  0  0  0
   -3.3730   -1.6650   -1.6700 C   0  0  0  0  0  0  0  0  0  0  0  0
   -4.3350   -0.8790   -2.5080 C   0  0  0  0  0  0  0  0  0  0  0  0
   -5.1390   -0.0010   -1.6710 N   0  0  0  0  0  0  0  0  0  0  0  0
   -1.5230    1.8890   -0.2570 C   0  0  0  0  0  0  0  0  0  0  0  0
   -1.4170    1.9510    0.9930 O   0  0  0  0  0  0  0  0  0  0  0  0
   -2.4700    2.6740   -0.8990 O   0  0  0  0  0  0  0  0  0  0  0  0
   -0.1010   -0.3430    0.4610 H   0  0  0  0  0  0  0  0  0  0  0  0
   -0.1510    1.5980   -1.8830 H   0  0  0  0  0  0  0  0  0  0  0  0
   -1.0890   -0.5890   -2.5450 H   0  0  0  0  0  0  0  0  0  0  0  0
   -2.2670    0.7390   -2.4850 H   0  0  0  0  0  0  0  0  0  0  0  0
   -3.0220   -0.0890   -0.2500 H   0  0  0  0  0  0  0  0  0  0  0  0
   -1.7490   -1.3750   -0.2960 H   0  0  0  0  0  0  0  0  0  0  0  0
   -2.7640   -2.3120   -2.3500 H   0  0  0  0  0  0  0  0  0  0  0  0
   -3.9310   -2.3360   -0.9890 H   0  0  0  0  0  0  0  0  0  0  0  0
   -4.9870   -1.6010   -3.0450 H   0  0  0  0  0  0  0  0  0  0  0  0
   -3.8280   -0.2890   -3.2750 H   0  0  0  0  0  0  0  0  0  0  0  0
   -5.0590    0.9830   -1.9600 H   0  0  0  0  0  0  0  0  0  0  0  0
   -5.0260   -0.1830   -0.6620 H   0  0  0  0  0  0  0  0  0  0  0  0
  1  8  1  0  0  0  0
  1  2  1  0  0  0  0
  2 10  1  0  0  0  0
  3 12  1  0  0  0  0
  3 11  1  0  0  0  0
  3  2  1  0  0  0  0
  4  3  1  0  0  0  0
  5 15  1  6  0  0  0
  5  4  1  0  0  0  0
  5  1  1  0  0  0  0
  6  7  2  0  0  0  0
  6  5  1  0  0  0  0
  9  2  1  0  0  0  0
 13  4  1  0  0  0  0
 14  4  1  0  0  0  0
 16 24  1  0  0  0  0
 16 17  1  0  0  0  0
 17 26  1  6  0  0  0
 17 18  1  0  0  0  0
 17 19  1  0  0  0  0
 18 27  1  0  0  0  0
 19 28  1  1  0  0  0
 19 20  1  0  0  0  0
 20  6  1  0  0  0  0
 21 30  1  0  0  0  0
 21 19  1  0  0  0  0
 22 21  2  0  0  0  0
 23 16  1  0  0  0  0
 25 16  1  0  0  0  0
 29 20  1  0  0  0  0
 30 40  1  0  0  0  0
 31 41  1  6  0  0  0
 31 30  1  0  0  0  0
 31 37  1  0  0  0  0
 32 31  1  0  0  0  0
 32 33  1  0  0  0  0
 33 45  1  0  0  0  0
 33 44  1  0  0  0  0
 34 47  1  0  0  0  0
 34 33  1  0  0  0  0
 35 36  1  0  0  0  0
 35 34  1  0  0  0  0
 36 51  1  0  0  0  0
 37 38  1  0  0  0  0
 39 37  2  0  0  0  0
 42 32  1  0  0  0  0
 43 32  1  0  0  0  0
 46 34  1  0  0  0  0
 48 35  1  0  0  0  0
 49 35  1  0  0  0  0
 50 36  1  0  0  0  0
M  END
$$$$
