PTL.pdb
 OpenBabel07022419053D

 49 49  0  0  1  0  0  0  0  0999 V2000
    4.1040   -2.5420    0.5400 N   0  0  0  0  0  0  0  0  0  0  0  0
    4.3170   -3.3710    1.7130 C   0  0  0  0  0  0  0  0  0  0  0  0
    3.3210   -2.7850    2.6930 C   0  0  0  0  0  0  0  0  0  0  0  0
    2.2500   -2.1080    1.8430 C   0  0  0  0  0  0  0  0  0  0  0  0
    2.6750   -2.5020    0.4550 C   0  0  1  0  0  0  0  0  0  0  0  0
    2.2030   -1.5460   -0.5790 C   0  0  0  0  0  0  0  0  0  0  0  0
    3.0610   -0.9050   -1.2360 O   0  0  0  0  0  0  0  0  0  0  0  0
    4.4500   -3.0790   -0.2940 H   0  0  0  0  0  0  0  0  0  0  0  0
    4.0160   -4.4250    1.5090 H   0  0  0  0  0  0  0  0  0  0  0  0
    5.3570   -3.3010    2.0870 H   0  0  0  0  0  0  0  0  0  0  0  0
    3.7820   -2.0410    3.3420 H   0  0  0  0  0  0  0  0  0  0  0  0
    2.8250   -3.6110    3.2430 H   0  0  0  0  0  0  0  0  0  0  0  0
    1.2510   -2.5500    2.0240 H   0  0  0  0  0  0  0  0  0  0  0  0
    2.2810   -1.0170    1.9290 H   0  0  0  0  0  0  0  0  0  0  0  0
    2.3140   -3.5380    0.2760 H   0  0  0  0  0  0  0  0  0  0  0  0
   -0.8780   -0.0020   -3.9210 C   0  0  0  0  0  0  0  0  0  0  0  0
   -0.4500   -1.0720   -2.9380 C   0  0  1  0  0  0  0  0  0  0  0  0
    0.2820   -2.0140   -3.6390 O   0  0  0  0  0  0  0  0  0  0  0  0
    0.3530   -0.4060   -1.8520 C   0  0  2  0  0  0  0  0  0  0  0  0
    0.8510   -1.3130   -0.8690 N   0  0  0  0  0  0  0  0  0  0  0  0
   -0.4610    0.6540   -1.2240 C   0  0  0  0  0  0  0  0  0  0  0  0
   -1.0070    1.5790   -1.9180 O   0  0  0  0  0  0  0  0  0  0  0  0
   -0.8950   -0.4390   -4.9480 H   0  0  0  0  0  0  0  0  0  0  0  0
   -1.9080    0.3640   -3.7000 H   0  0  0  0  0  0  0  0  0  0  0  0
   -0.1320    0.8270   -3.9510 H   0  0  0  0  0  0  0  0  0  0  0  0
   -1.3700   -1.4730   -2.4780 H   0  0  0  0  0  0  0  0  0  0  0  0
   -0.1490   -2.1070   -4.5380 H   0  0  0  0  0  0  0  0  0  0  0  0
    1.2480    0.0750   -2.3370 H   0  0  0  0  0  0  0  0  0  0  0  0
    0.1380   -1.8620   -0.3060 H   0  0  0  0  0  0  0  0  0  0  0  0
   -3.7250   -0.4850    3.0810 C   0  0  0  0  0  0  0  0  0  0  0  0
   -2.3600   -0.0190    2.5500 C   0  0  0  0  0  0  0  0  0  0  0  0
   -1.6050    0.4670    3.7710 C   0  0  0  0  0  0  0  0  0  0  0  0
   -2.6390    1.0440    1.5480 C   0  0  0  0  0  0  0  0  0  0  0  0
   -1.4250    1.6430    0.8970 C   0  0  2  0  0  0  0  0  0  0  0  0
   -0.6400    0.6430    0.1830 N   0  0  0  0  0  0  0  0  0  0  0  0
   -0.5930    2.4450    1.8070 C   0  0  0  0  0  0  0  0  0  0  0  0
   -1.1120    3.3410    2.4910 O   0  0  0  0  0  0  0  0  0  0  0  0
    0.7530    2.2010    1.8960 O   0  0  0  0  0  0  0  0  0  0  0  0
   -4.4300   -0.6780    2.2390 H   0  0  0  0  0  0  0  0  0  0  0  0
   -4.1980    0.3420    3.6710 H   0  0  0  0  0  0  0  0  0  0  0  0
   -3.6180   -1.3760    3.7100 H   0  0  0  0  0  0  0  0  0  0  0  0
   -1.8860   -0.9070    2.1090 H   0  0  0  0  0  0  0  0  0  0  0  0
   -2.0760    1.3810    4.1560 H   0  0  0  0  0  0  0  0  0  0  0  0
   -0.5260    0.5060    3.6380 H   0  0  0  0  0  0  0  0  0  0  0  0
   -1.7860   -0.3150    4.5670 H   0  0  0  0  0  0  0  0  0  0  0  0
   -3.2820    0.6390    0.7680 H   0  0  0  0  0  0  0  0  0  0  0  0
   -3.1900    1.8730    2.0360 H   0  0  0  0  0  0  0  0  0  0  0  0
   -1.8340    2.3810    0.1410 H   0  0  0  0  0  0  0  0  0  0  0  0
   -0.1810   -0.1240    0.7140 H   0  0  0  0  0  0  0  0  0  0  0  0
  1  2  1  0  0  0  0
  2 10  1  0  0  0  0
  2  3  1  0  0  0  0
  3 12  1  0  0  0  0
  3 11  1  0  0  0  0
  4 14  1  0  0  0  0
  4 13  1  0  0  0  0
  4  3  1  0  0  0  0
  5 15  1  6  0  0  0
  5  1  1  0  0  0  0
  5  4  1  0  0  0  0
  6  5  1  0  0  0  0
  7  6  2  0  0  0  0
  8  1  1  0  0  0  0
  9  2  1  0  0  0  0
 16 24  1  0  0  0  0
 16 17  1  0  0  0  0
 17 26  1  1  0  0  0
 17 19  1  0  0  0  0
 18 17  1  0  0  0  0
 19 28  1  6  0  0  0
 19 21  1  0  0  0  0
 19 20  1  0  0  0  0
 20  6  1  0  0  0  0
 20 29  1  0  0  0  0
 21 35  1  0  0  0  0
 22 21  2  0  0  0  0
 23 16  1  0  0  0  0
 25 16  1  0  0  0  0
 27 18  1  0  0  0  0
 30 40  1  0  0  0  0
 30 41  1  0  0  0  0
 31 30  1  0  0  0  0
 31 32  1  0  0  0  0
 32 43  1  0  0  0  0
 32 45  1  0  0  0  0
 33 47  1  0  0  0  0
 33 31  1  0  0  0  0
 34 48  1  6  0  0  0
 34 33  1  0  0  0  0
 34 36  1  0  0  0  0
 35 49  1  0  0  0  0
 35 34  1  0  0  0  0
 36 38  2  0  0  0  0
 36 37  1  0  0  0  0
 39 30  1  0  0  0  0
 42 31  1  0  0  0  0
 44 32  1  0  0  0  0
 46 33  1  0  0  0  0
M  END
$$$$
