PTP.pdb
 OpenBabel07022419053D

 44 45  0  0  1  0  0  0  0  0999 V2000
   -0.1520   -3.1390    1.1460 N   0  0  0  0  0  0  0  0  0  0  0  0
   -0.3050   -4.5930    1.3720 C   0  0  0  0  0  0  0  0  0  0  0  0
    0.5390   -5.1200    0.2360 C   0  0  0  0  0  0  0  0  0  0  0  0
    1.7390   -4.2160    0.2420 C   0  0  0  0  0  0  0  0  0  0  0  0
    1.2950   -2.9840    0.9900 C   0  0  1  0  0  0  0  0  0  0  0  0
    1.6510   -1.7220    0.3320 C   0  0  0  0  0  0  0  0  0  0  0  0
    2.8430   -1.3990    0.0510 O   0  0  0  0  0  0  0  0  0  0  0  0
   -0.5430   -2.9980    0.1820 H   0  0  0  0  0  0  0  0  0  0  0  0
    0.0770   -4.8830    2.3580 H   0  0  0  0  0  0  0  0  0  0  0  0
   -1.3610   -4.8540    1.2640 H   0  0  0  0  0  0  0  0  0  0  0  0
   -0.0400   -5.0230   -0.6980 H   0  0  0  0  0  0  0  0  0  0  0  0
    0.8280   -6.1860    0.4110 H   0  0  0  0  0  0  0  0  0  0  0  0
    2.5490   -4.7270    0.8140 H   0  0  0  0  0  0  0  0  0  0  0  0
    2.0830   -3.9780   -0.7850 H   0  0  0  0  0  0  0  0  0  0  0  0
    1.7180   -3.0080    2.0390 H   0  0  0  0  0  0  0  0  0  0  0  0
    0.6710    1.7790   -2.7530 C   0  0  0  0  0  0  0  0  0  0  0  0
    0.3030    0.5040   -2.0630 C   0  0  1  0  0  0  0  0  0  0  0  0
    0.8970   -0.5340   -2.8210 O   0  0  0  0  0  0  0  0  0  0  0  0
    0.8850    0.4540   -0.6590 C   0  0  2  0  0  0  0  0  0  0  0  0
    0.6370   -0.7930   -0.0180 N   0  0  0  0  0  0  0  0  0  0  0  0
    0.5140    1.6310    0.1330 C   0  0  0  0  0  0  0  0  0  0  0  0
    0.6600    2.7960   -0.4330 O   0  0  0  0  0  0  0  0  0  0  0  0
   -0.0870    2.5730   -2.6230 H   0  0  0  0  0  0  0  0  0  0  0  0
    0.7480    1.6450   -3.8700 H   0  0  0  0  0  0  0  0  0  0  0  0
    1.6480    2.2010   -2.4510 H   0  0  0  0  0  0  0  0  0  0  0  0
   -0.7770    0.3570   -2.0580 H   0  0  0  0  0  0  0  0  0  0  0  0
    1.7370   -0.2000   -3.2230 H   0  0  0  0  0  0  0  0  0  0  0  0
    2.0100    0.4990   -0.8170 H   0  0  0  0  0  0  0  0  0  0  0  0
   -0.3700   -1.0210    0.1850 H   0  0  0  0  0  0  0  0  0  0  0  0
    0.0100    1.6850    1.4500 N   0  0  0  0  0  0  0  0  0  0  0  0
   -0.3620    2.9570    2.1230 C   0  0  0  0  0  0  0  0  0  0  0  0
   -0.4950    2.6580    3.5790 C   0  0  0  0  0  0  0  0  0  0  0  0
    0.2780    1.3650    3.7030 C   0  0  0  0  0  0  0  0  0  0  0  0
   -0.2580    0.6680    2.4340 C   0  0  1  0  0  0  0  0  0  0  0  0
   -1.7370    0.5670    2.5630 C   0  0  0  0  0  0  0  0  0  0  0  0
   -2.5360    1.2680    1.9060 O   0  0  0  0  0  0  0  0  0  0  0  0
   -2.2880   -0.3550    3.4610 O   0  0  0  0  0  0  0  0  0  0  0  0
   -1.3270    3.3200    1.7120 H   0  0  0  0  0  0  0  0  0  0  0  0
    0.4520    3.6680    1.9430 H   0  0  0  0  0  0  0  0  0  0  0  0
   -1.5670    2.4500    3.8420 H   0  0  0  0  0  0  0  0  0  0  0  0
   -0.0910    3.4540    4.2350 H   0  0  0  0  0  0  0  0  0  0  0  0
    0.0260    0.7940    4.6070 H   0  0  0  0  0  0  0  0  0  0  0  0
    1.3460    1.5740    3.5910 H   0  0  0  0  0  0  0  0  0  0  0  0
    0.2210   -0.2910    2.2960 H   0  0  0  0  0  0  0  0  0  0  0  0
  1  2  1  0  0  0  0
  2  9  1  0  0  0  0
  3  4  1  0  0  0  0
  3 12  1  0  0  0  0
  3  2  1  0  0  0  0
  4 13  1  0  0  0  0
  4  5  1  0  0  0  0
  5  1  1  0  0  0  0
  5 15  1  1  0  0  0
  6  5  1  0  0  0  0
  7  6  2  0  0  0  0
  8  1  1  0  0  0  0
 10  2  1  0  0  0  0
 11  3  1  0  0  0  0
 14  4  1  0  0  0  0
 16 23  1  0  0  0  0
 16 25  1  0  0  0  0
 16 17  1  0  0  0  0
 17 26  1  1  0  0  0
 17 19  1  0  0  0  0
 18 17  1  0  0  0  0
 19 28  1  6  0  0  0
 19 20  1  0  0  0  0
 19 21  1  0  0  0  0
 20 29  1  0  0  0  0
 20  6  1  0  0  0  0
 21 30  1  0  0  0  0
 22 21  2  0  0  0  0
 24 16  1  0  0  0  0
 27 18  1  0  0  0  0
 30 31  1  0  0  0  0
 30 34  1  0  0  0  0
 31 32  1  0  0  0  0
 32 33  1  0  0  0  0
 32 40  1  0  0  0  0
 32 41  1  0  0  0  0
 33 42  1  0  0  0  0
 34 44  1  6  0  0  0
 34 35  1  0  0  0  0
 34 33  1  0  0  0  0
 35 37  1  0  0  0  0
 36 35  2  0  0  0  0
 38 31  1  0  0  0  0
 39 31  1  0  0  0  0
 43 33  1  0  0  0  0
M  END
$$$$
