PTQ.pdb
 OpenBabel07022419053D

 47 47  0  0  1  0  0  0  0  0999 V2000
   -0.6220   -3.2260    2.1160 N   0  0  0  0  0  0  0  0  0  0  0  0
   -0.6870   -4.5030    2.8290 C   0  0  0  0  0  0  0  0  0  0  0  0
    0.3170   -5.2980    1.9940 C   0  0  0  0  0  0  0  0  0  0  0  0
    1.4440   -4.3260    1.8520 C   0  0  0  0  0  0  0  0  0  0  0  0
    0.8020   -2.9810    1.9590 C   0  0  1  0  0  0  0  0  0  0  0  0
    1.1390   -2.0620    0.8670 C   0  0  0  0  0  0  0  0  0  0  0  0
    2.3700   -1.7880    0.6700 O   0  0  0  0  0  0  0  0  0  0  0  0
   -1.1010   -3.3430    1.1930 H   0  0  0  0  0  0  0  0  0  0  0  0
   -0.2370   -4.4000    3.8320 H   0  0  0  0  0  0  0  0  0  0  0  0
   -1.6970   -4.9040    2.8000 H   0  0  0  0  0  0  0  0  0  0  0  0
   -0.1320   -5.5900    1.0210 H   0  0  0  0  0  0  0  0  0  0  0  0
    0.5700   -6.2360    2.5120 H   0  0  0  0  0  0  0  0  0  0  0  0
    2.0240   -4.4600    0.9170 H   0  0  0  0  0  0  0  0  0  0  0  0
    2.1680   -4.5150    2.6980 H   0  0  0  0  0  0  0  0  0  0  0  0
    1.1300   -2.5320    2.9380 H   0  0  0  0  0  0  0  0  0  0  0  0
    0.7480   -0.1650   -3.5070 C   0  0  0  0  0  0  0  0  0  0  0  0
    0.2620   -1.0930   -2.4290 C   0  0  1  0  0  0  0  0  0  0  0  0
    0.9720   -2.2980   -2.5640 O   0  0  0  0  0  0  0  0  0  0  0  0
    0.5950   -0.5450   -1.0600 C   0  0  2  0  0  0  0  0  0  0  0  0
    0.2140   -1.4420   -0.0010 N   0  0  0  0  0  0  0  0  0  0  0  0
    0.0140    0.7890   -0.8100 C   0  0  0  0  0  0  0  0  0  0  0  0
    0.1930    1.7370   -1.6370 O   0  0  0  0  0  0  0  0  0  0  0  0
    0.8690   -0.7160   -4.4870 H   0  0  0  0  0  0  0  0  0  0  0  0
    0.0270    0.6550   -3.7140 H   0  0  0  0  0  0  0  0  0  0  0  0
    1.7510    0.2000   -3.2370 H   0  0  0  0  0  0  0  0  0  0  0  0
   -0.7950   -1.2880   -2.5940 H   0  0  0  0  0  0  0  0  0  0  0  0
    1.7370   -2.2140   -3.1870 H   0  0  0  0  0  0  0  0  0  0  0  0
    1.7100   -0.4480   -1.0430 H   0  0  0  0  0  0  0  0  0  0  0  0
   -0.8180   -1.6460    0.1230 H   0  0  0  0  0  0  0  0  0  0  0  0
    0.8000    0.7480    4.1660 N   0  0  0  0  0  0  0  0  0  0  0  0
    0.6460    1.5730    2.9940 C   0  0  0  0  0  0  0  0  0  0  0  0
    1.3640    1.2970    2.0230 O   0  0  0  0  0  0  0  0  0  0  0  0
   -0.3190    2.6820    2.9800 C   0  0  0  0  0  0  0  0  0  0  0  0
   -0.6950    3.1840    1.6170 C   0  0  0  0  0  0  0  0  0  0  0  0
   -1.3890    2.2300    0.7350 C   0  0  2  0  0  0  0  0  0  0  0  0
   -0.7550    1.0210    0.3640 N   0  0  0  0  0  0  0  0  0  0  0  0
   -2.0770    2.9500   -0.4050 C   0  0  0  0  0  0  0  0  0  0  0  0
   -2.1680    2.4770   -1.5490 O   0  0  0  0  0  0  0  0  0  0  0  0
   -2.6440    4.1990   -0.1950 O   0  0  0  0  0  0  0  0  0  0  0  0
   -0.0350    0.3640    4.6400 H   0  0  0  0  0  0  0  0  0  0  0  0
    1.7400    0.5400    4.5330 H   0  0  0  0  0  0  0  0  0  0  0  0
   -1.2580    2.3270    3.5000 H   0  0  0  0  0  0  0  0  0  0  0  0
    0.1340    3.4990    3.6030 H   0  0  0  0  0  0  0  0  0  0  0  0
   -1.3950    4.0660    1.7800 H   0  0  0  0  0  0  0  0  0  0  0  0
    0.2510    3.5970    1.1700 H   0  0  0  0  0  0  0  0  0  0  0  0
   -2.3300    1.8940    1.3420 H   0  0  0  0  0  0  0  0  0  0  0  0
   -0.8480    0.1640    1.0100 H   0  0  0  0  0  0  0  0  0  0  0  0
  1  2  1  0  0  0  0
  2  9  1  0  0  0  0
  3 12  1  0  0  0  0
  3  2  1  0  0  0  0
  4  5  1  0  0  0  0
  4  3  1  0  0  0  0
  4 14  1  0  0  0  0
  5  1  1  0  0  0  0
  5 15  1  1  0  0  0
  6  5  1  0  0  0  0
  7  6  2  0  0  0  0
  8  1  1  0  0  0  0
 10  2  1  0  0  0  0
 11  3  1  0  0  0  0
 13  4  1  0  0  0  0
 16 25  1  0  0  0  0
 16 17  1  0  0  0  0
 17 26  1  6  0  0  0
 17 19  1  0  0  0  0
 18 17  1  0  0  0  0
 19 28  1  1  0  0  0
 19 21  1  0  0  0  0
 19 20  1  0  0  0  0
 20 29  1  0  0  0  0
 20  6  1  0  0  0  0
 21 36  1  0  0  0  0
 22 21  2  0  0  0  0
 23 16  1  0  0  0  0
 24 16  1  0  0  0  0
 27 18  1  0  0  0  0
 30 41  1  0  0  0  0
 30 40  1  0  0  0  0
 31 30  1  0  0  0  0
 32 31  2  0  0  0  0
 33 31  1  0  0  0  0
 33 42  1  0  0  0  0
 33 43  1  0  0  0  0
 34 44  1  0  0  0  0
 34 33  1  0  0  0  0
 35 46  1  1  0  0  0
 35 34  1  0  0  0  0
 36 35  1  0  0  0  0
 36 47  1  0  0  0  0
 37 39  1  0  0  0  0
 37 35  1  0  0  0  0
 38 37  2  0  0  0  0
 45 34  1  0  0  0  0
M  END
$$$$
