PTR.pdb
 OpenBabel07022419053D

 53 53  0  0  1  0  0  0  0  0999 V2000
   -0.1710   -2.9080    4.2760 N   0  0  0  0  0  0  0  0  0  0  0  0
   -0.8600   -4.1040    3.9070 C   0  0  0  0  0  0  0  0  0  0  0  0
   -0.4650   -4.4480    2.4820 C   0  0  0  0  0  0  0  0  0  0  0  0
    0.0630   -3.1120    1.9870 C   0  0  0  0  0  0  0  0  0  0  0  0
    0.6800   -2.4820    3.2130 C   0  0  1  0  0  0  0  0  0  0  0  0
    0.8270   -1.0150    3.1130 C   0  0  0  0  0  0  0  0  0  0  0  0
    0.1970   -0.3270    3.9860 O   0  0  0  0  0  0  0  0  0  0  0  0
    0.4150   -3.0710    5.1260 H   0  0  0  0  0  0  0  0  0  0  0  0
   -0.5300   -4.9730    4.5270 H   0  0  0  0  0  0  0  0  0  0  0  0
   -1.9790   -3.9900    3.9040 H   0  0  0  0  0  0  0  0  0  0  0  0
   -1.3110   -4.7720    1.8560 H   0  0  0  0  0  0  0  0  0  0  0  0
    0.3610   -5.1840    2.4620 H   0  0  0  0  0  0  0  0  0  0  0  0
   -0.7480   -2.5270    1.5390 H   0  0  0  0  0  0  0  0  0  0  0  0
    0.8790   -3.3140    1.2690 H   0  0  0  0  0  0  0  0  0  0  0  0
    1.7060   -2.9320    3.3400 H   0  0  0  0  0  0  0  0  0  0  0  0
    3.9710    1.0090    0.8840 C   0  0  0  0  0  0  0  0  0  0  0  0
    3.1600    1.5190    2.0600 C   0  0  1  0  0  0  0  0  0  0  0  0
    3.1400    2.9220    1.9840 O   0  0  0  0  0  0  0  0  0  0  0  0
    1.7500    1.0060    2.0330 C   0  0  2  0  0  0  0  0  0  0  0  0
    1.6220   -0.4090    2.1060 N   0  0  0  0  0  0  0  0  0  0  0  0
    1.0840    1.5680    0.8050 C   0  0  0  0  0  0  0  0  0  0  0  0
    1.1450    2.7950    0.5910 O   0  0  0  0  0  0  0  0  0  0  0  0
    4.7310    1.7830    0.6530 H   0  0  0  0  0  0  0  0  0  0  0  0
    3.3340    0.9050   -0.0170 H   0  0  0  0  0  0  0  0  0  0  0  0
    4.5140    0.0750    1.1100 H   0  0  0  0  0  0  0  0  0  0  0  0
    3.7090    1.2590    2.9860 H   0  0  0  0  0  0  0  0  0  0  0  0
    2.3620    3.2110    2.5440 H   0  0  0  0  0  0  0  0  0  0  0  0
    1.1970    1.4780    2.8850 H   0  0  0  0  0  0  0  0  0  0  0  0
    2.1170   -1.0380    1.4070 H   0  0  0  0  0  0  0  0  0  0  0  0
   -4.1430   -1.5110   -0.1780 N   0  0  0  0  0  0  0  0  0  0  0  0
   -3.4990   -1.6600   -1.4210 C   0  0  0  0  0  0  0  0  0  0  0  0
   -4.0740   -2.1020   -2.4900 N   0  0  0  0  0  0  0  0  0  0  0  0
   -2.1060   -1.3070   -1.5620 N   0  0  0  0  0  0  0  0  0  0  0  0
   -1.4450   -1.3220   -2.8220 C   0  0  0  0  0  0  0  0  0  0  0  0
   -0.0750   -0.7600   -2.8280 C   0  0  0  0  0  0  0  0  0  0  0  0
    0.1460    0.6630   -2.5720 C   0  0  0  0  0  0  0  0  0  0  0  0
   -0.2370    1.2860   -1.2750 C   0  0  2  0  0  0  0  0  0  0  0  0
    0.3910    0.7580   -0.1140 N   0  0  0  0  0  0  0  0  0  0  0  0
   -1.6650    1.6250   -1.1520 C   0  0  0  0  0  0  0  0  0  0  0  0
   -2.2590    1.4850   -0.0770 O   0  0  0  0  0  0  0  0  0  0  0  0
   -2.3300    2.1010   -2.2530 O   0  0  0  0  0  0  0  0  0  0  0  0
   -3.8050   -0.8030    0.4900 H   0  0  0  0  0  0  0  0  0  0  0  0
   -4.9480   -2.1070    0.0590 H   0  0  0  0  0  0  0  0  0  0  0  0
   -5.1010   -2.3570   -2.3790 H   0  0  0  0  0  0  0  0  0  0  0  0
   -1.6290   -1.0820   -0.6790 H   0  0  0  0  0  0  0  0  0  0  0  0
   -1.3980   -2.4230   -3.1300 H   0  0  0  0  0  0  0  0  0  0  0  0
   -2.0840   -0.8870   -3.6410 H   0  0  0  0  0  0  0  0  0  0  0  0
    0.4130   -1.0460   -3.8230 H   0  0  0  0  0  0  0  0  0  0  0  0
    0.5690   -1.3470   -2.0780 H   0  0  0  0  0  0  0  0  0  0  0  0
   -0.2650    1.3260   -3.3990 H   0  0  0  0  0  0  0  0  0  0  0  0
    1.2820    0.8270   -2.6480 H   0  0  0  0  0  0  0  0  0  0  0  0
    0.2300    2.3670   -1.3510 H   0  0  0  0  0  0  0  0  0  0  0  0
    0.3600   -0.2630    0.0760 H   0  0  0  0  0  0  0  0  0  0  0  0
  1  8  1  0  0  0  0
  2  1  1  0  0  0  0
  2  9  1  0  0  0  0
  3  2  1  0  0  0  0
  4  3  1  0  0  0  0
  4  5  1  0  0  0  0
  5 15  1  1  0  0  0
  5  1  1  0  0  0  0
  6  5  1  0  0  0  0
  6  7  2  0  0  0  0
 10  2  1  0  0  0  0
 11  3  1  0  0  0  0
 12  3  1  0  0  0  0
 13  4  1  0  0  0  0
 14  4  1  0  0  0  0
 16 25  1  0  0  0  0
 16 17  1  0  0  0  0
 17 26  1  1  0  0  0
 18 17  1  0  0  0  0
 18 27  1  0  0  0  0
 19 17  1  0  0  0  0
 19 20  1  0  0  0  0
 19 28  1  1  0  0  0
 20  6  1  0  0  0  0
 21 19  1  0  0  0  0
 22 21  2  0  0  0  0
 23 16  1  0  0  0  0
 24 16  1  0  0  0  0
 29 20  1  0  0  0  0
 30 43  1  0  0  0  0
 30 42  1  0  0  0  0
 31 30  1  0  0  0  0
 32 44  1  0  0  0  0
 32 31  2  0  0  0  0
 33 31  1  0  0  0  0
 33 45  1  0  0  0  0
 34 33  1  0  0  0  0
 35 34  1  0  0  0  0
 35 36  1  0  0  0  0
 35 49  1  0  0  0  0
 36 37  1  0  0  0  0
 37 52  1  6  0  0  0
 37 39  1  0  0  0  0
 37 38  1  0  0  0  0
 38 53  1  0  0  0  0
 38 21  1  0  0  0  0
 39 40  1  0  0  0  0
 41 39  2  0  0  0  0
 46 34  1  0  0  0  0
 47 34  1  0  0  0  0
 48 35  1  0  0  0  0
 50 36  1  0  0  0  0
 51 36  1  0  0  0  0
M  END
$$$$
