PTS.pdb
 OpenBabel07022419053D

 41 41  0  0  1  0  0  0  0  0999 V2000
   -1.0540   -2.7680   -0.1600 N   0  0  0  0  0  0  0  0  0  0  0  0
   -1.4660   -3.2650   -1.4360 C   0  0  0  0  0  0  0  0  0  0  0  0
   -0.9100   -4.6750   -1.4390 C   0  0  0  0  0  0  0  0  0  0  0  0
    0.4840   -4.4300   -0.8470 C   0  0  0  0  0  0  0  0  0  0  0  0
    0.1920   -3.3790    0.1770 C   0  0  1  0  0  0  0  0  0  0  0  0
    1.2960   -2.4090    0.3600 C   0  0  0  0  0  0  0  0  0  0  0  0
    2.4410   -2.8370    0.6600 O   0  0  0  0  0  0  0  0  0  0  0  0
   -1.7740   -2.7870    0.5680 H   0  0  0  0  0  0  0  0  0  0  0  0
   -0.9250   -2.7150   -2.2410 H   0  0  0  0  0  0  0  0  0  0  0  0
   -2.5640   -3.2560   -1.5880 H   0  0  0  0  0  0  0  0  0  0  0  0
   -1.5260   -5.2500   -0.7030 H   0  0  0  0  0  0  0  0  0  0  0  0
   -0.8680   -5.1300   -2.4280 H   0  0  0  0  0  0  0  0  0  0  0  0
    1.1340   -4.0950   -1.6690 H   0  0  0  0  0  0  0  0  0  0  0  0
    0.7980   -5.3960   -0.3990 H   0  0  0  0  0  0  0  0  0  0  0  0
    0.0580   -3.8970    1.1560 H   0  0  0  0  0  0  0  0  0  0  0  0
    1.1160    1.5430   -1.1360 C   0  0  0  0  0  0  0  0  0  0  0  0
    2.3770    0.7410   -0.8990 C   0  0  1  0  0  0  0  0  0  0  0  0
    3.4190    1.6680   -0.7700 O   0  0  0  0  0  0  0  0  0  0  0  0
    2.2410   -0.0650    0.4010 C   0  0  2  0  0  0  0  0  0  0  0  0
    1.1540   -1.0080    0.2200 N   0  0  0  0  0  0  0  0  0  0  0  0
    1.8640    0.9360    1.4550 C   0  0  0  0  0  0  0  0  0  0  0  0
    2.6510    1.8570    1.7800 O   0  0  0  0  0  0  0  0  0  0  0  0
    0.3410    0.9720   -1.6650 H   0  0  0  0  0  0  0  0  0  0  0  0
    1.3910    2.3990   -1.7930 H   0  0  0  0  0  0  0  0  0  0  0  0
    0.7020    1.9520   -0.1850 H   0  0  0  0  0  0  0  0  0  0  0  0
    2.5130    0.0670   -1.7560 H   0  0  0  0  0  0  0  0  0  0  0  0
    4.2670    1.1750   -0.9640 H   0  0  0  0  0  0  0  0  0  0  0  0
    3.1910   -0.5630    0.6480 H   0  0  0  0  0  0  0  0  0  0  0  0
    0.2150   -0.6400   -0.0280 H   0  0  0  0  0  0  0  0  0  0  0  0
   -1.3790    3.3930    3.7980 O   0  0  0  0  0  0  0  0  0  0  0  0
   -1.0580    2.5480    2.7340 C   0  0  0  0  0  0  0  0  0  0  0  0
    0.1820    1.7870    3.1290 C   0  0  2  0  0  0  0  0  0  0  0  0
    0.6240    0.8690    2.1070 N   0  0  0  0  0  0  0  0  0  0  0  0
   -0.1160    1.0260    4.3610 C   0  0  0  0  0  0  0  0  0  0  0  0
   -0.5180    1.6220    5.3860 O   0  0  0  0  0  0  0  0  0  0  0  0
    0.0440   -0.3450    4.4030 O   0  0  0  0  0  0  0  0  0  0  0  0
   -0.5160    3.8180    4.0760 H   0  0  0  0  0  0  0  0  0  0  0  0
   -1.9030    1.8560    2.6050 H   0  0  0  0  0  0  0  0  0  0  0  0
   -0.8890    3.2010    1.8560 H   0  0  0  0  0  0  0  0  0  0  0  0
    1.0000    2.5270    3.2830 H   0  0  0  0  0  0  0  0  0  0  0  0
   -0.0380    0.1070    1.8450 H   0  0  0  0  0  0  0  0  0  0  0  0
  1  5  1  0  0  0  0
  1  8  1  0  0  0  0
  2  1  1  0  0  0  0
  3  2  1  0  0  0  0
  3  4  1  0  0  0  0
  3 11  1  0  0  0  0
  4 14  1  0  0  0  0
  4  5  1  0  0  0  0
  5  6  1  0  0  0  0
  5 15  1  1  0  0  0
  6  7  2  0  0  0  0
  9  2  1  0  0  0  0
 10  2  1  0  0  0  0
 12  3  1  0  0  0  0
 13  4  1  0  0  0  0
 16 17  1  0  0  0  0
 16 25  1  0  0  0  0
 17 26  1  6  0  0  0
 17 18  1  0  0  0  0
 17 19  1  0  0  0  0
 19 28  1  1  0  0  0
 19 21  1  0  0  0  0
 20  6  1  0  0  0  0
 20 19  1  0  0  0  0
 21 22  2  0  0  0  0
 21 33  1  0  0  0  0
 23 16  1  0  0  0  0
 24 16  1  0  0  0  0
 27 18  1  0  0  0  0
 29 20  1  0  0  0  0
 30 37  1  0  0  0  0
 31 32  1  0  0  0  0
 31 30  1  0  0  0  0
 32 40  1  1  0  0  0
 32 34  1  0  0  0  0
 33 32  1  0  0  0  0
 34 36  2  0  0  0  0
 34 35  1  0  0  0  0
 38 31  1  0  0  0  0
 39 31  1  0  0  0  0
 41 33  1  0  0  0  0
M  END
$$$$
