PTT.pdb
 OpenBabel07022419053D

 44 44  0  0  1  0  0  0  0  0999 V2000
   -1.5010   -3.9650   -0.9160 N   0  0  0  0  0  0  0  0  0  0  0  0
   -0.9910   -5.0640   -0.1280 C   0  0  0  0  0  0  0  0  0  0  0  0
   -0.1120   -4.3700    0.9030 C   0  0  0  0  0  0  0  0  0  0  0  0
   -0.9850   -3.1800    1.2560 C   0  0  0  0  0  0  0  0  0  0  0  0
   -1.6560   -2.8270   -0.0280 C   0  0  1  0  0  0  0  0  0  0  0  0
   -1.0390   -1.6490   -0.6830 C   0  0  0  0  0  0  0  0  0  0  0  0
   -0.4970   -1.7680   -1.8310 O   0  0  0  0  0  0  0  0  0  0  0  0
   -0.7510   -3.7670   -1.6450 H   0  0  0  0  0  0  0  0  0  0  0  0
   -1.8030   -5.6340    0.3670 H   0  0  0  0  0  0  0  0  0  0  0  0
   -0.3740   -5.7480   -0.7590 H   0  0  0  0  0  0  0  0  0  0  0  0
    0.8330   -4.0560    0.4200 H   0  0  0  0  0  0  0  0  0  0  0  0
    0.0230   -5.0280    1.7650 H   0  0  0  0  0  0  0  0  0  0  0  0
   -1.7210   -3.5470    2.0010 H   0  0  0  0  0  0  0  0  0  0  0  0
   -0.4080   -2.3360    1.6540 H   0  0  0  0  0  0  0  0  0  0  0  0
   -2.7250   -2.6130    0.1810 H   0  0  0  0  0  0  0  0  0  0  0  0
   -0.5420    2.9150   -1.9380 C   0  0  0  0  0  0  0  0  0  0  0  0
   -1.3380    1.8930   -1.1130 C   0  0  1  0  0  0  0  0  0  0  0  0
   -2.3140    1.4000   -1.9680 O   0  0  0  0  0  0  0  0  0  0  0  0
   -0.3930    0.7840   -0.7810 C   0  0  2  0  0  0  0  0  0  0  0  0
   -0.9890   -0.3440   -0.1400 N   0  0  0  0  0  0  0  0  0  0  0  0
    0.7440    1.2320    0.0630 C   0  0  0  0  0  0  0  0  0  0  0  0
    1.3900    2.2230   -0.3700 O   0  0  0  0  0  0  0  0  0  0  0  0
   -0.2140    3.7630   -1.3050 H   0  0  0  0  0  0  0  0  0  0  0  0
   -1.2140    3.3760   -2.7150 H   0  0  0  0  0  0  0  0  0  0  0  0
    0.3180    2.4620   -2.4370 H   0  0  0  0  0  0  0  0  0  0  0  0
   -1.7130    2.4320   -0.2460 H   0  0  0  0  0  0  0  0  0  0  0  0
   -2.6410    2.0520   -2.6100 H   0  0  0  0  0  0  0  0  0  0  0  0
    0.0310    0.4310   -1.7510 H   0  0  0  0  0  0  0  0  0  0  0  0
   -1.4180   -0.1930    0.7970 H   0  0  0  0  0  0  0  0  0  0  0  0
    1.2340    0.3630    4.2600 C   0  0  0  0  0  0  0  0  0  0  0  0
    1.8400    1.5020    3.4770 C   0  0  1  0  0  0  0  0  0  0  0  0
    2.9930    1.9050    4.1490 O   0  0  0  0  0  0  0  0  0  0  0  0
    2.2450    1.0900    2.0890 C   0  0  2  0  0  0  0  0  0  0  0  0
    1.1440    0.6480    1.2790 N   0  0  0  0  0  0  0  0  0  0  0  0
    3.2410    0.0020    2.2190 C   0  0  0  0  0  0  0  0  0  0  0  0
    4.2760    0.2050    2.8960 O   0  0  0  0  0  0  0  0  0  0  0  0
    3.0600   -1.2240    1.6170 O   0  0  0  0  0  0  0  0  0  0  0  0
    0.3840   -0.0990    3.7070 H   0  0  0  0  0  0  0  0  0  0  0  0
    0.8080    0.7470    5.2080 H   0  0  0  0  0  0  0  0  0  0  0  0
    1.9920   -0.4050    4.5260 H   0  0  0  0  0  0  0  0  0  0  0  0
    1.1470    2.3610    3.4980 H   0  0  0  0  0  0  0  0  0  0  0  0
    3.2960    2.8040    3.9170 H   0  0  0  0  0  0  0  0  0  0  0  0
    2.7800    1.9630    1.6450 H   0  0  0  0  0  0  0  0  0  0  0  0
    0.5940   -0.1700    1.6180 H   0  0  0  0  0  0  0  0  0  0  0  0
  1  2  1  0  0  0  0
  1  5  1  0  0  0  0
  2  9  1  0  0  0  0
  2  3  1  0  0  0  0
  3  4  1  0  0  0  0
  3 12  1  0  0  0  0
  4 14  1  0  0  0  0
  4 13  1  0  0  0  0
  5 15  1  1  0  0  0
  5  4  1  0  0  0  0
  6 20  1  0  0  0  0
  6  5  1  0  0  0  0
  7  6  2  0  0  0  0
  8  1  1  0  0  0  0
 10  2  1  0  0  0  0
 11  3  1  0  0  0  0
 16 23  1  0  0  0  0
 16 17  1  0  0  0  0
 17 19  1  0  0  0  0
 17 26  1  1  0  0  0
 18 17  1  0  0  0  0
 19 28  1  6  0  0  0
 19 20  1  0  0  0  0
 19 21  1  0  0  0  0
 20 29  1  0  0  0  0
 21 34  1  0  0  0  0
 22 21  2  0  0  0  0
 24 16  1  0  0  0  0
 25 16  1  0  0  0  0
 27 18  1  0  0  0  0
 30 40  1  0  0  0  0
 30 39  1  0  0  0  0
 31 41  1  6  0  0  0
 31 32  1  0  0  0  0
 31 30  1  0  0  0  0
 33 43  1  6  0  0  0
 33 35  1  0  0  0  0
 33 31  1  0  0  0  0
 34 44  1  0  0  0  0
 34 33  1  0  0  0  0
 35 36  1  0  0  0  0
 37 35  2  0  0  0  0
 38 30  1  0  0  0  0
 42 32  1  0  0  0  0
M  END
$$$$
