PTV.pdb
 OpenBabel07022419053D

 46 46  0  0  1  0  0  0  0  0999 V2000
   -1.5410   -2.8320   -0.4390 N   0  0  0  0  0  0  0  0  0  0  0  0
   -2.3740   -3.9940   -0.7610 C   0  0  0  0  0  0  0  0  0  0  0  0
   -1.4710   -4.7600   -1.7040 C   0  0  0  0  0  0  0  0  0  0  0  0
   -0.0440   -4.4830   -1.2410 C   0  0  0  0  0  0  0  0  0  0  0  0
   -0.2780   -3.4420   -0.1770 C   0  0  1  0  0  0  0  0  0  0  0  0
    0.8370   -2.4930   -0.0280 C   0  0  0  0  0  0  0  0  0  0  0  0
    1.9790   -2.9770    0.2040 O   0  0  0  0  0  0  0  0  0  0  0  0
   -1.5090   -2.2320   -1.3000 H   0  0  0  0  0  0  0  0  0  0  0  0
   -2.5720   -4.5700    0.1710 H   0  0  0  0  0  0  0  0  0  0  0  0
   -3.3230   -3.6860   -1.2410 H   0  0  0  0  0  0  0  0  0  0  0  0
   -1.6410   -4.3580   -2.7210 H   0  0  0  0  0  0  0  0  0  0  0  0
   -1.6990   -5.8500   -1.6470 H   0  0  0  0  0  0  0  0  0  0  0  0
    0.5920   -4.1330   -2.0680 H   0  0  0  0  0  0  0  0  0  0  0  0
    0.3540   -5.4230   -0.8070 H   0  0  0  0  0  0  0  0  0  0  0  0
   -0.3660   -3.9970    0.7960 H   0  0  0  0  0  0  0  0  0  0  0  0
    2.5290   -0.4080   -2.3740 C   0  0  0  0  0  0  0  0  0  0  0  0
    2.2200    0.5040   -1.2350 C   0  0  1  0  0  0  0  0  0  0  0  0
    1.1490    1.3170   -1.6160 O   0  0  0  0  0  0  0  0  0  0  0  0
    1.8850   -0.2430    0.0390 C   0  0  2  0  0  0  0  0  0  0  0  0
    0.7220   -1.0880   -0.1250 N   0  0  0  0  0  0  0  0  0  0  0  0
    1.7360    0.6860    1.1880 C   0  0  0  0  0  0  0  0  0  0  0  0
    2.6700    1.4800    1.4500 O   0  0  0  0  0  0  0  0  0  0  0  0
    1.6340   -0.9490   -2.7400 H   0  0  0  0  0  0  0  0  0  0  0  0
    3.3720   -1.1040   -2.1590 H   0  0  0  0  0  0  0  0  0  0  0  0
    2.8730    0.2200   -3.2250 H   0  0  0  0  0  0  0  0  0  0  0  0
    3.0860    1.1810   -1.0960 H   0  0  0  0  0  0  0  0  0  0  0  0
    1.4050    2.2650   -1.7270 H   0  0  0  0  0  0  0  0  0  0  0  0
    2.7490   -0.9060    0.2290 H   0  0  0  0  0  0  0  0  0  0  0  0
   -0.2350   -0.7180   -0.3170 H   0  0  0  0  0  0  0  0  0  0  0  0
   -0.7400    3.5010    4.1610 C   0  0  0  0  0  0  0  0  0  0  0  0
   -0.6990    2.5970    2.9460 C   0  0  0  0  0  0  0  0  0  0  0  0
   -2.0150    1.8680    2.8160 C   0  0  0  0  0  0  0  0  0  0  0  0
    0.4630    1.6500    3.1420 C   0  0  2  0  0  0  0  0  0  0  0  0
    0.5910    0.7280    2.0150 N   0  0  0  0  0  0  0  0  0  0  0  0
    0.3120    0.8730    4.3810 C   0  0  0  0  0  0  0  0  0  0  0  0
    0.3080   -0.3780    4.3270 O   0  0  0  0  0  0  0  0  0  0  0  0
    0.1710    1.4730    5.6230 O   0  0  0  0  0  0  0  0  0  0  0  0
   -1.1880    4.4880    3.9260 H   0  0  0  0  0  0  0  0  0  0  0  0
    0.2540    3.5870    4.6360 H   0  0  0  0  0  0  0  0  0  0  0  0
   -1.4170    3.0250    4.9020 H   0  0  0  0  0  0  0  0  0  0  0  0
   -0.4920    3.2190    2.0440 H   0  0  0  0  0  0  0  0  0  0  0  0
   -1.9690    1.0680    2.0760 H   0  0  0  0  0  0  0  0  0  0  0  0
   -2.2590    1.4250    3.7970 H   0  0  0  0  0  0  0  0  0  0  0  0
   -2.7680    2.6210    2.4780 H   0  0  0  0  0  0  0  0  0  0  0  0
    1.3690    2.2840    3.2410 H   0  0  0  0  0  0  0  0  0  0  0  0
   -0.1840    0.0660    1.7950 H   0  0  0  0  0  0  0  0  0  0  0  0
  1  5  1  0  0  0  0
  2  1  1  0  0  0  0
  2  9  1  0  0  0  0
  3 12  1  0  0  0  0
  3  4  1  0  0  0  0
  3  2  1  0  0  0  0
  4 14  1  0  0  0  0
  4  5  1  0  0  0  0
  5  6  1  0  0  0  0
  5 15  1  1  0  0  0
  6  7  2  0  0  0  0
  8  1  1  0  0  0  0
 10  2  1  0  0  0  0
 11  3  1  0  0  0  0
 13  4  1  0  0  0  0
 16 24  1  0  0  0  0
 16 17  1  0  0  0  0
 17 26  1  1  0  0  0
 17 19  1  0  0  0  0
 18 17  1  0  0  0  0
 19 28  1  1  0  0  0
 19 21  1  0  0  0  0
 20  6  1  0  0  0  0
 20 19  1  0  0  0  0
 21 22  2  0  0  0  0
 21 34  1  0  0  0  0
 23 16  1  0  0  0  0
 25 16  1  0  0  0  0
 27 18  1  0  0  0  0
 29 20  1  0  0  0  0
 30 39  1  0  0  0  0
 30 40  1  0  0  0  0
 31 33  1  0  0  0  0
 31 30  1  0  0  0  0
 32 31  1  0  0  0  0
 32 43  1  0  0  0  0
 33 45  1  1  0  0  0
 33 35  1  0  0  0  0
 34 33  1  0  0  0  0
 35 37  1  0  0  0  0
 36 35  2  0  0  0  0
 38 30  1  0  0  0  0
 41 31  1  0  0  0  0
 42 32  1  0  0  0  0
 44 32  1  0  0  0  0
 46 34  1  0  0  0  0
M  END
$$$$
