PTY.pdb
 OpenBabel07022419053D

 51 52  0  0  1  0  0  0  0  0999 V2000
    2.4440   -3.2770    2.4670 N   0  0  0  0  0  0  0  0  0  0  0  0
    3.4350   -3.3040    3.5050 C   0  0  0  0  0  0  0  0  0  0  0  0
    2.8470   -2.5740    4.6870 C   0  0  0  0  0  0  0  0  0  0  0  0
    1.3680   -2.8720    4.5410 C   0  0  0  0  0  0  0  0  0  0  0  0
    1.1670   -3.0290    3.0560 C   0  0  1  0  0  0  0  0  0  0  0  0
    0.5070   -1.8090    2.5470 C   0  0  0  0  0  0  0  0  0  0  0  0
   -0.6240   -1.5210    3.0170 O   0  0  0  0  0  0  0  0  0  0  0  0
    2.4030   -4.2460    2.0290 H   0  0  0  0  0  0  0  0  0  0  0  0
    4.3310   -2.7580    3.1480 H   0  0  0  0  0  0  0  0  0  0  0  0
    3.6990   -4.3460    3.8280 H   0  0  0  0  0  0  0  0  0  0  0  0
    3.1740   -3.0140    5.6530 H   0  0  0  0  0  0  0  0  0  0  0  0
    3.0490   -1.4830    4.6270 H   0  0  0  0  0  0  0  0  0  0  0  0
    1.0360   -3.7280    5.1270 H   0  0  0  0  0  0  0  0  0  0  0  0
    0.8370   -1.9700    4.9500 H   0  0  0  0  0  0  0  0  0  0  0  0
    0.4540   -3.8830    2.9210 H   0  0  0  0  0  0  0  0  0  0  0  0
    1.2730    1.7110    2.9060 C   0  0  0  0  0  0  0  0  0  0  0  0
    1.2170    1.5030    1.4290 C   0  0  1  0  0  0  0  0  0  0  0  0
    2.5090    1.4700    0.9140 O   0  0  0  0  0  0  0  0  0  0  0  0
    0.4340    0.2460    1.0590 C   0  0  2  0  0  0  0  0  0  0  0  0
    1.0660   -0.9500    1.5670 N   0  0  0  0  0  0  0  0  0  0  0  0
    0.2170    0.1800   -0.4060 C   0  0  0  0  0  0  0  0  0  0  0  0
    0.5770   -0.8410   -1.0430 O   0  0  0  0  0  0  0  0  0  0  0  0
    0.4460    1.1670    3.4380 H   0  0  0  0  0  0  0  0  0  0  0  0
    2.2110    1.3340    3.3730 H   0  0  0  0  0  0  0  0  0  0  0  0
    1.1820    2.7960    3.1930 H   0  0  0  0  0  0  0  0  0  0  0  0
    0.6430    2.3490    0.9910 H   0  0  0  0  0  0  0  0  0  0  0  0
    3.1430    1.0170    1.5180 H   0  0  0  0  0  0  0  0  0  0  0  0
   -0.5420    0.3390    1.5800 H   0  0  0  0  0  0  0  0  0  0  0  0
    2.0000   -1.1980    1.1860 H   0  0  0  0  0  0  0  0  0  0  0  0
   -4.2040   -3.4330   -0.1700 O   0  0  0  0  0  0  0  0  0  0  0  0
   -3.6800   -2.3210   -0.8210 C   0  0  0  0  0  0  0  0  0  0  0  0
   -3.6400   -1.0780   -0.2250 C   0  0  0  0  0  0  0  0  0  0  0  0
   -3.1200   -0.0020   -0.8870 C   0  0  0  0  0  0  0  0  0  0  0  0
   -2.6200   -0.1210   -2.1650 C   0  0  0  0  0  0  0  0  0  0  0  0
   -2.0490    1.0600   -2.8920 C   0  0  0  0  0  0  0  0  0  0  0  0
   -0.5610    1.0910   -2.5530 C   0  0  2  0  0  0  0  0  0  0  0  0
   -0.3870    1.2290   -1.1430 N   0  0  0  0  0  0  0  0  0  0  0  0
    0.0530    2.1380   -3.3540 C   0  0  0  0  0  0  0  0  0  0  0  0
    0.6800    3.0760   -2.8190 O   0  0  0  0  0  0  0  0  0  0  0  0
   -2.6650   -1.3660   -2.7530 C   0  0  0  0  0  0  0  0  0  0  0  0
   -3.1870   -2.4550   -2.0920 C   0  0  0  0  0  0  0  0  0  0  0  0
   -0.0520    2.1050   -4.7280 O   0  0  0  0  0  0  0  0  0  0  0  0
   -3.6630   -4.2240    0.1010 H   0  0  0  0  0  0  0  0  0  0  0  0
   -4.0270   -0.9540    0.7850 H   0  0  0  0  0  0  0  0  0  0  0  0
   -3.0860    0.9710   -0.4250 H   0  0  0  0  0  0  0  0  0  0  0  0
   -2.4890    1.9640   -2.4670 H   0  0  0  0  0  0  0  0  0  0  0  0
   -2.1910    0.9280   -3.9660 H   0  0  0  0  0  0  0  0  0  0  0  0
   -0.1680    0.0990   -2.9090 H   0  0  0  0  0  0  0  0  0  0  0  0
   -0.7050    2.1000   -0.6660 H   0  0  0  0  0  0  0  0  0  0  0  0
   -2.2690   -1.4740   -3.7720 H   0  0  0  0  0  0  0  0  0  0  0  0
   -3.2130   -3.4420   -2.5800 H   0  0  0  0  0  0  0  0  0  0  0  0
  1  5  1  0  0  0  0
  1  2  1  0  0  0  0
  2 10  1  0  0  0  0
  2  3  1  0  0  0  0
  3 11  1  0  0  0  0
  4  3  1  0  0  0  0
  4 14  1  0  0  0  0
  4 13  1  0  0  0  0
  5 15  1  6  0  0  0
  5  4  1  0  0  0  0
  6  7  2  0  0  0  0
  6  5  1  0  0  0  0
  8  1  1  0  0  0  0
  9  2  1  0  0  0  0
 12  3  1  0  0  0  0
 16 25  1  0  0  0  0
 16 24  1  0  0  0  0
 16 23  1  0  0  0  0
 17 26  1  6  0  0  0
 17 16  1  0  0  0  0
 18 17  1  0  0  0  0
 18 27  1  0  0  0  0
 19 17  1  0  0  0  0
 19 20  1  0  0  0  0
 19 28  1  1  0  0  0
 20  6  1  0  0  0  0
 21 19  1  0  0  0  0
 22 21  2  0  0  0  0
 29 20  1  0  0  0  0
 30 43  1  0  0  0  0
 31 32  1  0  0  0  0
 31 30  1  0  0  0  0
 32 44  1  0  0  0  0
 33 45  1  0  0  0  0
 33 32  2  0  0  0  0
 34 33  1  0  0  0  0
 35 36  1  0  0  0  0
 35 46  1  0  0  0  0
 35 34  1  0  0  0  0
 36 48  1  6  0  0  0
 36 37  1  0  0  0  0
 37 49  1  0  0  0  0
 37 21  1  0  0  0  0
 38 39  1  0  0  0  0
 38 36  1  0  0  0  0
 40 34  2  0  0  0  0
 40 41  1  0  0  0  0
 41 31  2  0  0  0  0
 42 38  2  0  0  0  0
 47 35  1  0  0  0  0
 50 40  1  0  0  0  0
 51 41  1  0  0  0  0
M  END
$$$$
