PVA.pdb
 OpenBabel07022419063D

 42 42  0  0  1  0  0  0  0  0999 V2000
    1.7380   -3.7920    1.6500 N   0  0  0  0  0  0  0  0  0  0  0  0
    1.1530   -4.9340    0.9770 C   0  0  0  0  0  0  0  0  0  0  0  0
    2.1540   -5.4050   -0.0300 C   0  0  0  0  0  0  0  0  0  0  0  0
    2.9010   -4.1530   -0.3890 C   0  0  0  0  0  0  0  0  0  0  0  0
    2.6810   -3.2090    0.7470 C   0  0  1  0  0  0  0  0  0  0  0  0
    2.1960   -1.8670    0.2660 C   0  0  0  0  0  0  0  0  0  0  0  0
    2.8950   -1.2000   -0.5380 O   0  0  0  0  0  0  0  0  0  0  0  0
    2.1520   -4.0490    2.5740 H   0  0  0  0  0  0  0  0  0  0  0  0
    0.9000   -5.6890    1.7490 H   0  0  0  0  0  0  0  0  0  0  0  0
    0.2290   -4.6340    0.4380 H   0  0  0  0  0  0  0  0  0  0  0  0
    2.7990   -6.1960    0.4070 H   0  0  0  0  0  0  0  0  0  0  0  0
    1.6110   -5.7650   -0.9410 H   0  0  0  0  0  0  0  0  0  0  0  0
    2.5510   -3.7120   -1.3540 H   0  0  0  0  0  0  0  0  0  0  0  0
    3.9720   -4.4110   -0.5170 H   0  0  0  0  0  0  0  0  0  0  0  0
    3.6360   -3.0670    1.2720 H   0  0  0  0  0  0  0  0  0  0  0  0
   -1.8690   -1.0590    0.2000 C   0  0  0  0  0  0  0  0  0  0  0  0
   -0.7800   -0.3270   -0.5360 C   0  0  0  0  0  0  0  0  0  0  0  0
   -1.2720    0.7870   -1.3920 C   0  0  0  0  0  0  0  0  0  0  0  0
    0.4300   -0.0460    0.2810 C   0  0  2  0  0  0  0  0  0  0  0  0
    0.9510   -1.3440    0.7140 N   0  0  0  0  0  0  0  0  0  0  0  0
    0.3170    0.8500    1.4000 C   0  0  0  0  0  0  0  0  0  0  0  0
    0.6450    0.4300    2.5550 O   0  0  0  0  0  0  0  0  0  0  0  0
   -2.1430   -0.6350    1.1610 H   0  0  0  0  0  0  0  0  0  0  0  0
   -1.5520   -2.1210    0.3970 H   0  0  0  0  0  0  0  0  0  0  0  0
   -2.7460   -1.1250   -0.4570 H   0  0  0  0  0  0  0  0  0  0  0  0
   -0.4350   -1.1130   -1.2840 H   0  0  0  0  0  0  0  0  0  0  0  0
   -1.6970    0.3860   -2.3350 H   0  0  0  0  0  0  0  0  0  0  0  0
   -2.0250    1.4410   -0.9260 H   0  0  0  0  0  0  0  0  0  0  0  0
   -0.4170    1.4290   -1.6860 H   0  0  0  0  0  0  0  0  0  0  0  0
    1.2090    0.3570   -0.4200 H   0  0  0  0  0  0  0  0  0  0  0  0
    0.4180   -1.9550    1.3870 H   0  0  0  0  0  0  0  0  0  0  0  0
    0.6370    4.2870    2.3540 C   0  0  0  0  0  0  0  0  0  0  0  0
   -0.2330    3.0520    2.5080 C   0  0  2  0  0  0  0  0  0  0  0  0
   -0.1360    2.1910    1.3540 N   0  0  0  0  0  0  0  0  0  0  0  0
   -1.6250    3.5030    2.6930 C   0  0  0  0  0  0  0  0  0  0  0  0
   -2.5070    3.1190    1.8890 O   0  0  0  0  0  0  0  0  0  0  0  0
   -2.0260    4.3390    3.7180 O   0  0  0  0  0  0  0  0  0  0  0  0
    0.0590    5.1140    1.8790 H   0  0  0  0  0  0  0  0  0  0  0  0
    0.9170    4.6320    3.3680 H   0  0  0  0  0  0  0  0  0  0  0  0
    1.5780    4.0610    1.8180 H   0  0  0  0  0  0  0  0  0  0  0  0
    0.0880    2.5360    3.4240 H   0  0  0  0  0  0  0  0  0  0  0  0
   -0.4050    2.5530    0.4320 H   0  0  0  0  0  0  0  0  0  0  0  0
  1  8  1  0  0  0  0
  2  1  1  0  0  0  0
  2  9  1  0  0  0  0
  3 11  1  0  0  0  0
  3  2  1  0  0  0  0
  4  3  1  0  0  0  0
  4  5  1  0  0  0  0
  5 15  1  1  0  0  0
  5  1  1  0  0  0  0
  6 20  1  0  0  0  0
  6  5  1  0  0  0  0
  7  6  2  0  0  0  0
 10  2  1  0  0  0  0
 12  3  1  0  0  0  0
 13  4  1  0  0  0  0
 14  4  1  0  0  0  0
 16 24  1  0  0  0  0
 16 23  1  0  0  0  0
 17 16  1  0  0  0  0
 17 19  1  0  0  0  0
 18 28  1  0  0  0  0
 18 17  1  0  0  0  0
 19 30  1  6  0  0  0
 19 20  1  0  0  0  0
 19 21  1  0  0  0  0
 20 31  1  0  0  0  0
 21 22  2  0  0  0  0
 25 16  1  0  0  0  0
 26 17  1  0  0  0  0
 27 18  1  0  0  0  0
 29 18  1  0  0  0  0
 32 33  1  0  0  0  0
 32 39  1  0  0  0  0
 33 35  1  0  0  0  0
 33 41  1  1  0  0  0
 34 21  1  0  0  0  0
 34 33  1  0  0  0  0
 35 37  1  0  0  0  0
 36 35  2  0  0  0  0
 38 32  1  0  0  0  0
 40 32  1  0  0  0  0
 42 34  1  0  0  0  0
M  END
$$$$
