PVE.pdb
 OpenBabel07022419063D

 48 48  0  0  1  0  0  0  0  0999 V2000
    0.3680   -3.6240    0.5910 N   0  0  0  0  0  0  0  0  0  0  0  0
   -0.1490   -4.4630   -0.4410 C   0  0  0  0  0  0  0  0  0  0  0  0
    0.8820   -4.3720   -1.5390 C   0  0  0  0  0  0  0  0  0  0  0  0
    2.1860   -4.2820   -0.7460 C   0  0  0  0  0  0  0  0  0  0  0  0
    1.7280   -3.3230    0.3680 C   0  0  1  0  0  0  0  0  0  0  0  0
    2.0560   -1.9350    0.0100 C   0  0  0  0  0  0  0  0  0  0  0  0
    3.2820   -1.6070   -0.1730 O   0  0  0  0  0  0  0  0  0  0  0  0
   -0.2730   -2.9250    0.9190 H   0  0  0  0  0  0  0  0  0  0  0  0
   -1.1020   -4.0530   -0.8660 H   0  0  0  0  0  0  0  0  0  0  0  0
   -0.3130   -5.5140   -0.1160 H   0  0  0  0  0  0  0  0  0  0  0  0
    0.6820   -3.4410   -2.1010 H   0  0  0  0  0  0  0  0  0  0  0  0
    0.8710   -5.2630   -2.2000 H   0  0  0  0  0  0  0  0  0  0  0  0
    2.9960   -3.8250   -1.3130 H   0  0  0  0  0  0  0  0  0  0  0  0
    2.3840   -5.2600   -0.3110 H   0  0  0  0  0  0  0  0  0  0  0  0
    2.3080   -3.6080    1.2880 H   0  0  0  0  0  0  0  0  0  0  0  0
    1.0300    2.2500   -2.1620 C   0  0  0  0  0  0  0  0  0  0  0  0
    0.7240    0.8120   -1.8150 C   0  0  0  0  0  0  0  0  0  0  0  0
   -0.7830    0.6710   -1.7520 C   0  0  0  0  0  0  0  0  0  0  0  0
    1.3410    0.4200   -0.4870 C   0  0  2  0  0  0  0  0  0  0  0  0
    1.0600   -0.9460   -0.1400 N   0  0  0  0  0  0  0  0  0  0  0  0
    0.8430    1.3060    0.5880 C   0  0  0  0  0  0  0  0  0  0  0  0
    0.9610    2.5630    0.5350 O   0  0  0  0  0  0  0  0  0  0  0  0
    1.1880    2.2980   -3.2700 H   0  0  0  0  0  0  0  0  0  0  0  0
    0.1680    2.8810   -1.9450 H   0  0  0  0  0  0  0  0  0  0  0  0
    1.9510    2.5590   -1.6270 H   0  0  0  0  0  0  0  0  0  0  0  0
    1.0650    0.1430   -2.6280 H   0  0  0  0  0  0  0  0  0  0  0  0
   -0.9920   -0.3950   -1.5430 H   0  0  0  0  0  0  0  0  0  0  0  0
   -1.1740    0.8600   -2.7860 H   0  0  0  0  0  0  0  0  0  0  0  0
   -1.2510    1.3400   -1.0180 H   0  0  0  0  0  0  0  0  0  0  0  0
    2.4500    0.5510   -0.6110 H   0  0  0  0  0  0  0  0  0  0  0  0
    0.0650   -1.2050    0.0020 H   0  0  0  0  0  0  0  0  0  0  0  0
    0.2100    0.7370    1.7240 N   0  0  0  0  0  0  0  0  0  0  0  0
   -0.2840    1.5660    2.7840 C   0  0  1  0  0  0  0  0  0  0  0  0
   -1.7670    1.4690    2.9790 C   0  0  0  0  0  0  0  0  0  0  0  0
   -2.2170    0.0670    3.3140 C   0  0  0  0  0  0  0  0  0  0  0  0
   -3.6960    0.0040    3.5020 C   0  0  0  0  0  0  0  0  0  0  0  0
   -4.4320    1.0260    3.3830 O   0  0  0  0  0  0  0  0  0  0  0  0
    0.4620    1.3010    4.0310 C   0  0  0  0  0  0  0  0  0  0  0  0
    0.1880    1.9170    5.0670 O   0  0  0  0  0  0  0  0  0  0  0  0
   -4.3340   -1.1870    3.8170 O   0  0  0  0  0  0  0  0  0  0  0  0
    1.4700    0.3550    4.0210 O   0  0  0  0  0  0  0  0  0  0  0  0
    0.0820   -0.2980    1.8280 H   0  0  0  0  0  0  0  0  0  0  0  0
   -0.0770    2.6480    2.5340 H   0  0  0  0  0  0  0  0  0  0  0  0
   -2.0190    2.0990    3.8700 H   0  0  0  0  0  0  0  0  0  0  0  0
   -2.2940    1.8980    2.1260 H   0  0  0  0  0  0  0  0  0  0  0  0
   -1.7740   -0.2770    4.2710 H   0  0  0  0  0  0  0  0  0  0  0  0
   -1.9520   -0.6760    2.5490 H   0  0  0  0  0  0  0  0  0  0  0  0
   -5.3490   -1.2850    3.8590 H   0  0  0  0  0  0  0  0  0  0  0  0
  1  8  1  0  0  0  0
  2 10  1  0  0  0  0
  2  1  1  0  0  0  0
  3  4  1  0  0  0  0
  3  2  1  0  0  0  0
  4 14  1  0  0  0  0
  4  5  1  0  0  0  0
  5  1  1  0  0  0  0
  5 15  1  1  0  0  0
  6  5  1  0  0  0  0
  7  6  2  0  0  0  0
  9  2  1  0  0  0  0
 11  3  1  0  0  0  0
 12  3  1  0  0  0  0
 13  4  1  0  0  0  0
 16 24  1  0  0  0  0
 16 17  1  0  0  0  0
 16 25  1  0  0  0  0
 17 18  1  0  0  0  0
 17 19  1  0  0  0  0
 18 27  1  0  0  0  0
 18 29  1  0  0  0  0
 19 30  1  6  0  0  0
 19 20  1  0  0  0  0
 19 21  1  0  0  0  0
 20 31  1  0  0  0  0
 20  6  1  0  0  0  0
 21 32  1  0  0  0  0
 22 21  2  0  0  0  0
 23 16  1  0  0  0  0
 26 17  1  0  0  0  0
 28 18  1  0  0  0  0
 32 42  1  0  0  0  0
 32 33  1  0  0  0  0
 33 43  1  6  0  0  0
 33 34  1  0  0  0  0
 33 38  1  0  0  0  0
 34 35  1  0  0  0  0
 34 44  1  0  0  0  0
 35 36  1  0  0  0  0
 35 46  1  0  0  0  0
 36 40  1  0  0  0  0
 37 36  2  0  0  0  0
 38 39  1  0  0  0  0
 40 48  1  0  0  0  0
 41 38  2  0  0  0  0
 45 34  1  0  0  0  0
 47 35  1  0  0  0  0
M  END
$$$$
