PVH.pdb
 OpenBabel07022419063D

 49 50  0  0  1  0  0  0  0  0999 V2000
    4.1740   -3.0610   -0.3060 N   0  0  0  0  0  0  0  0  0  0  0  0
    3.2190   -4.1340   -0.0640 C   0  0  0  0  0  0  0  0  0  0  0  0
    2.0960   -3.8550   -1.0380 C   0  0  0  0  0  0  0  0  0  0  0  0
    2.2560   -2.4270   -1.4980 C   0  0  0  0  0  0  0  0  0  0  0  0
    3.3620   -1.9260   -0.6100 C   0  0  1  0  0  0  0  0  0  0  0  0
    2.8530   -1.2390    0.6020 C   0  0  0  0  0  0  0  0  0  0  0  0
    3.1640   -1.6880    1.7240 O   0  0  0  0  0  0  0  0  0  0  0  0
    4.7100   -3.3430   -1.1610 H   0  0  0  0  0  0  0  0  0  0  0  0
    3.6500   -5.1330   -0.3160 H   0  0  0  0  0  0  0  0  0  0  0  0
    2.8800   -4.0730    0.9930 H   0  0  0  0  0  0  0  0  0  0  0  0
    1.1320   -4.0050   -0.5020 H   0  0  0  0  0  0  0  0  0  0  0  0
    2.0970   -4.5390   -1.9010 H   0  0  0  0  0  0  0  0  0  0  0  0
    1.3220   -1.8750   -1.4150 H   0  0  0  0  0  0  0  0  0  0  0  0
    2.5550   -2.4210   -2.5720 H   0  0  0  0  0  0  0  0  0  0  0  0
    3.9690   -1.1970   -1.1820 H   0  0  0  0  0  0  0  0  0  0  0  0
    3.5400    1.9310    1.9720 C   0  0  0  0  0  0  0  0  0  0  0  0
    2.0430    1.9800    1.8870 C   0  0  0  0  0  0  0  0  0  0  0  0
    1.5320    2.4820    3.2320 C   0  0  0  0  0  0  0  0  0  0  0  0
    1.5400    0.5670    1.7250 C   0  0  2  0  0  0  0  0  0  0  0  0
    2.0270   -0.0910    0.5570 N   0  0  0  0  0  0  0  0  0  0  0  0
    0.0520    0.4920    1.8550 C   0  0  0  0  0  0  0  0  0  0  0  0
   -0.5340    1.0240    2.8330 O   0  0  0  0  0  0  0  0  0  0  0  0
    4.0120    2.9030    1.7170 H   0  0  0  0  0  0  0  0  0  0  0  0
    3.8930    1.6730    2.9920 H   0  0  0  0  0  0  0  0  0  0  0  0
    3.9510    1.1650    1.2840 H   0  0  0  0  0  0  0  0  0  0  0  0
    1.6600    2.6740    1.1290 H   0  0  0  0  0  0  0  0  0  0  0  0
    1.4560    1.6890    3.9770 H   0  0  0  0  0  0  0  0  0  0  0  0
    2.2850    3.2350    3.5930 H   0  0  0  0  0  0  0  0  0  0  0  0
    0.5840    3.0590    3.1200 H   0  0  0  0  0  0  0  0  0  0  0  0
    1.9330    0.0110    2.6060 H   0  0  0  0  0  0  0  0  0  0  0  0
    1.7900    0.2540   -0.4230 H   0  0  0  0  0  0  0  0  0  0  0  0
   -0.7220   -0.1710    0.8910 N   0  0  0  0  0  0  0  0  0  0  0  0
   -2.1810   -0.2840    0.9550 C   0  0  1  0  0  0  0  0  0  0  0  0
   -2.8300    0.4210   -0.1860 C   0  0  0  0  0  0  0  0  0  0  0  0
   -4.2990    0.3140   -0.1280 C   0  0  0  0  0  0  0  0  0  0  0  0
   -5.1480   -0.6110   -0.6980 C   0  0  0  0  0  0  0  0  0  0  0  0
   -6.4370   -0.3110   -0.4020 N   0  0  0  0  0  0  0  0  0  0  0  0
   -6.4030    0.7910    0.3470 C   0  0  0  0  0  0  0  0  0  0  0  0
   -5.1300    1.1680    0.5130 N   0  0  0  0  0  0  0  0  0  0  0  0
   -2.5870   -1.6970    1.0480 C   0  0  0  0  0  0  0  0  0  0  0  0
   -3.7930   -2.0130    1.1670 O   0  0  0  0  0  0  0  0  0  0  0  0
   -1.6570   -2.7450    1.0070 O   0  0  0  0  0  0  0  0  0  0  0  0
   -0.2490   -0.6110    0.0850 H   0  0  0  0  0  0  0  0  0  0  0  0
   -2.4740    0.2570    1.8980 H   0  0  0  0  0  0  0  0  0  0  0  0
   -2.5330    1.4980   -0.2560 H   0  0  0  0  0  0  0  0  0  0  0  0
   -2.5140   -0.1290   -1.1190 H   0  0  0  0  0  0  0  0  0  0  0  0
   -4.8390   -1.4630   -1.3020 H   0  0  0  0  0  0  0  0  0  0  0  0
   -7.2640   -0.8610   -0.7170 H   0  0  0  0  0  0  0  0  0  0  0  0
   -7.2860    1.2760    0.7400 H   0  0  0  0  0  0  0  0  0  0  0  0
  1  2  1  0  0  0  0
  2 10  1  0  0  0  0
  3 11  1  0  0  0  0
  3  2  1  0  0  0  0
  4 13  1  0  0  0  0
  4  3  1  0  0  0  0
  4  5  1  0  0  0  0
  5 15  1  6  0  0  0
  5  1  1  0  0  0  0
  5  6  1  0  0  0  0
  6  7  2  0  0  0  0
  8  1  1  0  0  0  0
  9  2  1  0  0  0  0
 12  3  1  0  0  0  0
 14  4  1  0  0  0  0
 16 24  1  0  0  0  0
 17 16  1  0  0  0  0
 17 18  1  0  0  0  0
 18 28  1  0  0  0  0
 18 27  1  0  0  0  0
 19 21  1  0  0  0  0
 19 17  1  0  0  0  0
 19 30  1  1  0  0  0
 20  6  1  0  0  0  0
 20 19  1  0  0  0  0
 21 22  2  0  0  0  0
 23 16  1  0  0  0  0
 25 16  1  0  0  0  0
 26 17  1  0  0  0  0
 29 18  1  0  0  0  0
 31 20  1  0  0  0  0
 32 33  1  0  0  0  0
 32 21  1  0  0  0  0
 33 40  1  0  0  0  0
 33 44  1  1  0  0  0
 34 35  1  0  0  0  0
 34 33  1  0  0  0  0
 35 39  1  0  0  0  0
 36 37  1  0  0  0  0
 36 35  2  0  0  0  0
 37 38  1  0  0  0  0
 38 39  2  0  0  0  0
 38 49  1  0  0  0  0
 40 41  1  0  0  0  0
 42 40  2  0  0  0  0
 43 32  1  0  0  0  0
 45 34  1  0  0  0  0
 46 34  1  0  0  0  0
 47 36  1  0  0  0  0
 48 37  1  0  0  0  0
M  END
$$$$
