PVI.pdb
 OpenBabel07022419063D

 51 51  0  0  1  0  0  0  0  0999 V2000
    0.1890   -2.7430    2.9980 N   0  0  0  0  0  0  0  0  0  0  0  0
    0.4130   -3.8690    3.9220 C   0  0  0  0  0  0  0  0  0  0  0  0
    1.8950   -3.6340    4.2420 C   0  0  0  0  0  0  0  0  0  0  0  0
    1.8810   -2.1380    4.5400 C   0  0  0  0  0  0  0  0  0  0  0  0
    0.6990   -1.6240    3.7240 C   0  0  1  0  0  0  0  0  0  0  0  0
    1.1730   -0.5150    2.8920 C   0  0  0  0  0  0  0  0  0  0  0  0
    1.6490    0.5150    3.4710 O   0  0  0  0  0  0  0  0  0  0  0  0
    0.7090   -2.9630    2.1200 H   0  0  0  0  0  0  0  0  0  0  0  0
   -0.1490   -3.7330    4.8540 H   0  0  0  0  0  0  0  0  0  0  0  0
    0.2620   -4.8330    3.4240 H   0  0  0  0  0  0  0  0  0  0  0  0
    2.4640   -3.7720    3.3100 H   0  0  0  0  0  0  0  0  0  0  0  0
    2.2320   -4.2340    5.0880 H   0  0  0  0  0  0  0  0  0  0  0  0
    1.7530   -1.9500    5.6250 H   0  0  0  0  0  0  0  0  0  0  0  0
    2.8360   -1.7180    4.2230 H   0  0  0  0  0  0  0  0  0  0  0  0
   -0.0710   -1.3260    4.4630 H   0  0  0  0  0  0  0  0  0  0  0  0
    3.2780    1.4090   -1.0290 C   0  0  0  0  0  0  0  0  0  0  0  0
    2.7660    0.2630   -0.2190 C   0  0  0  0  0  0  0  0  0  0  0  0
    2.3820   -0.8550   -1.1520 C   0  0  0  0  0  0  0  0  0  0  0  0
    1.6370    0.6490    0.7050 C   0  0  2  0  0  0  0  0  0  0  0  0
    1.1570   -0.4690    1.4770 N   0  0  0  0  0  0  0  0  0  0  0  0
    0.4900    1.2320   -0.0290 C   0  0  0  0  0  0  0  0  0  0  0  0
    0.5970    2.2340   -0.7970 O   0  0  0  0  0  0  0  0  0  0  0  0
    2.7680    1.4820   -2.0260 H   0  0  0  0  0  0  0  0  0  0  0  0
    3.3150    2.3680   -0.5000 H   0  0  0  0  0  0  0  0  0  0  0  0
    4.3500    1.1660   -1.2910 H   0  0  0  0  0  0  0  0  0  0  0  0
    3.5980   -0.1130    0.4120 H   0  0  0  0  0  0  0  0  0  0  0  0
    3.1540   -0.9070   -1.9470 H   0  0  0  0  0  0  0  0  0  0  0  0
    2.4910   -1.8110   -0.5760 H   0  0  0  0  0  0  0  0  0  0  0  0
    1.3570   -0.7530   -1.5460 H   0  0  0  0  0  0  0  0  0  0  0  0
    2.0300    1.4710    1.3580 H   0  0  0  0  0  0  0  0  0  0  0  0
    0.7750   -1.2910    0.9670 H   0  0  0  0  0  0  0  0  0  0  0  0
   -3.5170   -2.1000   -1.8270 C   0  0  0  0  0  0  0  0  0  0  0  0
   -2.9200   -1.1230   -0.8410 C   0  0  0  0  0  0  0  0  0  0  0  0
   -2.5280    0.1590   -1.5500 C   0  0  2  0  0  0  0  0  0  0  0  0
   -1.5130   -0.1730   -2.6110 C   0  0  0  0  0  0  0  0  0  0  0  0
   -1.9690    1.1680   -0.5650 C   0  0  2  0  0  0  0  0  0  0  0  0
   -0.8080    0.6730    0.1040 N   0  0  0  0  0  0  0  0  0  0  0  0
   -3.0180    1.6390    0.3760 C   0  0  0  0  0  0  0  0  0  0  0  0
   -2.8540    1.5880    1.6270 O   0  0  0  0  0  0  0  0  0  0  0  0
   -4.2220    2.1560   -0.0770 O   0  0  0  0  0  0  0  0  0  0  0  0
   -3.4950   -3.1400   -1.4360 H   0  0  0  0  0  0  0  0  0  0  0  0
   -4.5930   -1.8780   -2.0270 H   0  0  0  0  0  0  0  0  0  0  0  0
   -3.0020   -2.0060   -2.7980 H   0  0  0  0  0  0  0  0  0  0  0  0
   -3.5870   -0.8720   -0.0070 H   0  0  0  0  0  0  0  0  0  0  0  0
   -2.0130   -1.6180   -0.4110 H   0  0  0  0  0  0  0  0  0  0  0  0
   -3.4200    0.5550   -2.0560 H   0  0  0  0  0  0  0  0  0  0  0  0
   -1.0650   -1.1880   -2.4750 H   0  0  0  0  0  0  0  0  0  0  0  0
   -1.9770   -0.1770   -3.6340 H   0  0  0  0  0  0  0  0  0  0  0  0
   -0.6540    0.5330   -2.5900 H   0  0  0  0  0  0  0  0  0  0  0  0
   -1.6660    2.0560   -1.1910 H   0  0  0  0  0  0  0  0  0  0  0  0
   -0.9360   -0.1650    0.7360 H   0  0  0  0  0  0  0  0  0  0  0  0
  1  5  1  0  0  0  0
  1  2  1  0  0  0  0
  2  3  1  0  0  0  0
  2  9  1  0  0  0  0
  3  4  1  0  0  0  0
  3 12  1  0  0  0  0
  4 13  1  0  0  0  0
  5 15  1  1  0  0  0
  5  4  1  0  0  0  0
  6  7  2  0  0  0  0
  6  5  1  0  0  0  0
  8  1  1  0  0  0  0
 10  2  1  0  0  0  0
 11  3  1  0  0  0  0
 14  4  1  0  0  0  0
 16 24  1  0  0  0  0
 16 17  1  0  0  0  0
 17 26  1  0  0  0  0
 17 19  1  0  0  0  0
 18 28  1  0  0  0  0
 18 17  1  0  0  0  0
 19 30  1  1  0  0  0
 19 20  1  0  0  0  0
 20  6  1  0  0  0  0
 21 37  1  0  0  0  0
 21 19  1  0  0  0  0
 22 21  2  0  0  0  0
 23 16  1  0  0  0  0
 25 16  1  0  0  0  0
 27 18  1  0  0  0  0
 29 18  1  0  0  0  0
 31 20  1  0  0  0  0
 32 41  1  0  0  0  0
 32 33  1  0  0  0  0
 33 45  1  0  0  0  0
 33 44  1  0  0  0  0
 34 46  1  6  0  0  0
 34 33  1  0  0  0  0
 34 36  1  0  0  0  0
 35 49  1  0  0  0  0
 35 47  1  0  0  0  0
 35 34  1  0  0  0  0
 36 50  1  6  0  0  0
 36 37  1  0  0  0  0
 36 38  1  0  0  0  0
 37 51  1  0  0  0  0
 38 39  1  0  0  0  0
 40 38  2  0  0  0  0
 42 32  1  0  0  0  0
 43 32  1  0  0  0  0
 48 35  1  0  0  0  0
M  END
$$$$
