PVK.pdb
 OpenBabel07022419063D

 53 53  0  0  1  0  0  0  0  0999 V2000
    3.3670   -2.4110    3.7820 N   0  0  0  0  0  0  0  0  0  0  0  0
    3.5820   -3.6270    4.5820 C   0  0  0  0  0  0  0  0  0  0  0  0
    2.5400   -4.5540    4.0140 C   0  0  0  0  0  0  0  0  0  0  0  0
    2.5990   -4.2550    2.5360 C   0  0  0  0  0  0  0  0  0  0  0  0
    3.3080   -2.9230    2.4520 C   0  0  1  0  0  0  0  0  0  0  0  0
    2.6530   -1.9970    1.4880 C   0  0  0  0  0  0  0  0  0  0  0  0
    2.5680   -2.3880    0.2980 O   0  0  0  0  0  0  0  0  0  0  0  0
    2.4590   -2.0230    4.1250 H   0  0  0  0  0  0  0  0  0  0  0  0
    4.5880   -4.0290    4.4680 H   0  0  0  0  0  0  0  0  0  0  0  0
    3.3000   -3.4330    5.6390 H   0  0  0  0  0  0  0  0  0  0  0  0
    1.5370   -4.3450    4.4270 H   0  0  0  0  0  0  0  0  0  0  0  0
    2.7760   -5.6150    4.2380 H   0  0  0  0  0  0  0  0  0  0  0  0
    3.1470   -5.0470    2.0030 H   0  0  0  0  0  0  0  0  0  0  0  0
    1.5550   -4.1360    2.1800 H   0  0  0  0  0  0  0  0  0  0  0  0
    4.3270   -3.1010    2.0900 H   0  0  0  0  0  0  0  0  0  0  0  0
    3.7430    1.0860    0.3890 C   0  0  0  0  0  0  0  0  0  0  0  0
    2.4750    0.4680   -0.2240 C   0  0  0  0  0  0  0  0  0  0  0  0
    1.9250    1.5640   -1.1120 C   0  0  0  0  0  0  0  0  0  0  0  0
    1.4920    0.1760    0.8770 C   0  0  2  0  0  0  0  0  0  0  0  0
    2.1420   -0.7400    1.8490 N   0  0  0  0  0  0  0  0  0  0  0  0
    0.2620   -0.4460    0.3840 C   0  0  0  0  0  0  0  0  0  0  0  0
    0.0650   -1.6980    0.6920 O   0  0  0  0  0  0  0  0  0  0  0  0
    4.2980    1.5140   -0.4720 H   0  0  0  0  0  0  0  0  0  0  0  0
    3.5080    1.8850    1.0960 H   0  0  0  0  0  0  0  0  0  0  0  0
    4.3470    0.2680    0.7970 H   0  0  0  0  0  0  0  0  0  0  0  0
    2.8020   -0.3940   -0.8080 H   0  0  0  0  0  0  0  0  0  0  0  0
    1.3800    2.3450   -0.5540 H   0  0  0  0  0  0  0  0  0  0  0  0
    1.3250    1.1620   -1.9450 H   0  0  0  0  0  0  0  0  0  0  0  0
    2.8200    2.1290   -1.5520 H   0  0  0  0  0  0  0  0  0  0  0  0
    1.2640    1.1050    1.3990 H   0  0  0  0  0  0  0  0  0  0  0  0
    2.2290   -0.4500    2.8470 H   0  0  0  0  0  0  0  0  0  0  0  0
   -0.6800    0.2380   -0.3750 N   0  0  0  0  0  0  0  0  0  0  0  0
   -1.9250   -0.5090   -0.8220 C   0  0  1  0  0  0  0  0  0  0  0  0
   -2.9760    0.1870   -0.0100 C   0  0  0  0  0  0  0  0  0  0  0  0
   -4.3590   -0.2400   -0.0660 C   0  0  0  0  0  0  0  0  0  0  0  0
   -5.1350   -0.2030   -1.3200 C   0  0  0  0  0  0  0  0  0  0  0  0
   -5.2260    1.1370   -1.9910 C   0  0  0  0  0  0  0  0  0  0  0  0
   -5.8540    2.1260   -1.1330 N   0  0  0  0  0  0  0  0  0  0  0  0
   -1.9410   -0.2860   -2.2660 C   0  0  0  0  0  0  0  0  0  0  0  0
   -1.1670    0.6060   -2.7620 O   0  0  0  0  0  0  0  0  0  0  0  0
   -2.7150   -0.9570   -3.1710 O   0  0  0  0  0  0  0  0  0  0  0  0
   -0.6210    1.2000   -0.6500 H   0  0  0  0  0  0  0  0  0  0  0  0
   -1.8180   -1.5730   -0.5190 H   0  0  0  0  0  0  0  0  0  0  0  0
   -2.8410    1.3000   -0.2100 H   0  0  0  0  0  0  0  0  0  0  0  0
   -2.6270    0.0490    1.0770 H   0  0  0  0  0  0  0  0  0  0  0  0
   -4.9130    0.3180    0.7620 H   0  0  0  0  0  0  0  0  0  0  0  0
   -4.4210   -1.3110    0.3120 H   0  0  0  0  0  0  0  0  0  0  0  0
   -6.2260   -0.4330   -0.9970 H   0  0  0  0  0  0  0  0  0  0  0  0
   -4.9110   -0.9920   -2.0100 H   0  0  0  0  0  0  0  0  0  0  0  0
   -5.8580    1.0160   -2.8910 H   0  0  0  0  0  0  0  0  0  0  0  0
   -4.2260    1.4750   -2.2850 H   0  0  0  0  0  0  0  0  0  0  0  0
   -5.1550    2.7740   -0.7050 H   0  0  0  0  0  0  0  0  0  0  0  0
   -6.5170    1.7140   -0.4540 H   0  0  0  0  0  0  0  0  0  0  0  0
  1  8  1  0  0  0  0
  1  2  1  0  0  0  0
  2 10  1  0  0  0  0
  3 12  1  0  0  0  0
  3 11  1  0  0  0  0
  3  2  1  0  0  0  0
  4  3  1  0  0  0  0
  5 15  1  6  0  0  0
  5  4  1  0  0  0  0
  5  1  1  0  0  0  0
  6 20  1  0  0  0  0
  6  5  1  0  0  0  0
  7  6  2  0  0  0  0
  9  2  1  0  0  0  0
 13  4  1  0  0  0  0
 14  4  1  0  0  0  0
 16 25  1  0  0  0  0
 16 24  1  0  0  0  0
 17 16  1  0  0  0  0
 17 19  1  0  0  0  0
 18 27  1  0  0  0  0
 18 17  1  0  0  0  0
 19 30  1  1  0  0  0
 19 20  1  0  0  0  0
 20 31  1  0  0  0  0
 21 22  2  0  0  0  0
 21 19  1  0  0  0  0
 23 16  1  0  0  0  0
 26 17  1  0  0  0  0
 28 18  1  0  0  0  0
 29 18  1  0  0  0  0
 32 21  1  0  0  0  0
 33 43  1  1  0  0  0
 33 32  1  0  0  0  0
 33 34  1  0  0  0  0
 34 45  1  0  0  0  0
 35 34  1  0  0  0  0
 35 47  1  0  0  0  0
 35 46  1  0  0  0  0
 36 48  1  0  0  0  0
 36 35  1  0  0  0  0
 37 36  1  0  0  0  0
 37 38  1  0  0  0  0
 38 52  1  0  0  0  0
 38 53  1  0  0  0  0
 39 33  1  0  0  0  0
 40 39  1  0  0  0  0
 41 39  2  0  0  0  0
 42 32  1  0  0  0  0
 44 34  1  0  0  0  0
 49 36  1  0  0  0  0
 50 37  1  0  0  0  0
 51 37  1  0  0  0  0
M  END
$$$$
