PVL.pdb
 OpenBabel07022419063D

 51 51  0  0  1  0  0  0  0  0999 V2000
    3.5360   -3.8530   -0.7570 N   0  0  0  0  0  0  0  0  0  0  0  0
    3.1680   -4.6700   -1.9170 C   0  0  0  0  0  0  0  0  0  0  0  0
    1.6560   -4.7500   -1.7310 C   0  0  0  0  0  0  0  0  0  0  0  0
    1.3250   -3.3760   -1.1870 C   0  0  0  0  0  0  0  0  0  0  0  0
    2.6620   -2.7270   -0.9030 C   0  0  1  0  0  0  0  0  0  0  0  0
    2.5440   -1.9310    0.3460 C   0  0  0  0  0  0  0  0  0  0  0  0
    3.1890   -2.3020    1.3590 O   0  0  0  0  0  0  0  0  0  0  0  0
    3.2980   -4.4460    0.0800 H   0  0  0  0  0  0  0  0  0  0  0  0
    3.4270   -4.1580   -2.8600 H   0  0  0  0  0  0  0  0  0  0  0  0
    3.6390   -5.6530   -1.9090 H   0  0  0  0  0  0  0  0  0  0  0  0
    1.4120   -5.5460   -0.9970 H   0  0  0  0  0  0  0  0  0  0  0  0
    1.1230   -4.9320   -2.6660 H   0  0  0  0  0  0  0  0  0  0  0  0
    0.7630   -2.7990   -1.9420 H   0  0  0  0  0  0  0  0  0  0  0  0
    0.7520   -3.5040   -0.2450 H   0  0  0  0  0  0  0  0  0  0  0  0
    3.0230   -2.1280   -1.7590 H   0  0  0  0  0  0  0  0  0  0  0  0
    1.4460    2.1720    0.3780 C   0  0  0  0  0  0  0  0  0  0  0  0
    2.1420    1.4070    1.4460 C   0  0  0  0  0  0  0  0  0  0  0  0
    2.1670    2.1810    2.7470 C   0  0  0  0  0  0  0  0  0  0  0  0
    1.6100    0.0150    1.6560 C   0  0  2  0  0  0  0  0  0  0  0  0
    1.7350   -0.7720    0.4460 N   0  0  0  0  0  0  0  0  0  0  0  0
    0.2060    0.0160    2.1570 C   0  0  0  0  0  0  0  0  0  0  0  0
   -0.0980    0.6490    3.2010 O   0  0  0  0  0  0  0  0  0  0  0  0
    1.4650    3.2560    0.6610 H   0  0  0  0  0  0  0  0  0  0  0  0
    1.9650    2.1330   -0.6150 H   0  0  0  0  0  0  0  0  0  0  0  0
    0.3660    1.9170    0.2800 H   0  0  0  0  0  0  0  0  0  0  0  0
    3.2110    1.2900    1.1390 H   0  0  0  0  0  0  0  0  0  0  0  0
    2.6110    1.5540    3.5500 H   0  0  0  0  0  0  0  0  0  0  0  0
    2.9070    3.0140    2.5900 H   0  0  0  0  0  0  0  0  0  0  0  0
    1.1790    2.5970    3.0120 H   0  0  0  0  0  0  0  0  0  0  0  0
    2.2490   -0.4730    2.4200 H   0  0  0  0  0  0  0  0  0  0  0  0
    1.2060   -0.4730   -0.3960 H   0  0  0  0  0  0  0  0  0  0  0  0
   -3.0190    2.1670    1.4400 C   0  0  0  0  0  0  0  0  0  0  0  0
   -2.9200    1.1140    0.3790 C   0  0  0  0  0  0  0  0  0  0  0  0
   -3.9550    1.4170   -0.6840 C   0  0  0  0  0  0  0  0  0  0  0  0
   -3.1850   -0.2730    0.8910 C   0  0  0  0  0  0  0  0  0  0  0  0
   -2.2140   -0.6880    1.9730 C   0  0  2  0  0  0  0  0  0  0  0  0
   -0.8440   -0.6750    1.5050 N   0  0  0  0  0  0  0  0  0  0  0  0
   -2.5470   -2.1060    2.3190 C   0  0  0  0  0  0  0  0  0  0  0  0
   -1.7110   -3.0440    2.1870 O   0  0  0  0  0  0  0  0  0  0  0  0
   -3.8010   -2.4730    2.8060 O   0  0  0  0  0  0  0  0  0  0  0  0
   -3.0440    1.7740    2.4650 H   0  0  0  0  0  0  0  0  0  0  0  0
   -3.9580    2.7810    1.3290 H   0  0  0  0  0  0  0  0  0  0  0  0
   -2.1800    2.8840    1.2770 H   0  0  0  0  0  0  0  0  0  0  0  0
   -1.9170    1.1010   -0.1230 H   0  0  0  0  0  0  0  0  0  0  0  0
   -4.8880    0.8850   -0.3790 H   0  0  0  0  0  0  0  0  0  0  0  0
   -3.6620    0.9760   -1.6710 H   0  0  0  0  0  0  0  0  0  0  0  0
   -4.1430    2.5140   -0.7870 H   0  0  0  0  0  0  0  0  0  0  0  0
   -3.1480   -0.9740    0.0570 H   0  0  0  0  0  0  0  0  0  0  0  0
   -4.2140   -0.2800    1.3020 H   0  0  0  0  0  0  0  0  0  0  0  0
   -2.3570   -0.1040    2.8890 H   0  0  0  0  0  0  0  0  0  0  0  0
   -0.6100   -1.2040    0.6380 H   0  0  0  0  0  0  0  0  0  0  0  0
  1  8  1  0  0  0  0
  2 10  1  0  0  0  0
  2  3  1  0  0  0  0
  2  1  1  0  0  0  0
  3  4  1  0  0  0  0
  3 11  1  0  0  0  0
  4  5  1  0  0  0  0
  4 14  1  0  0  0  0
  5 15  1  6  0  0  0
  5  1  1  0  0  0  0
  5  6  1  0  0  0  0
  6 20  1  0  0  0  0
  6  7  2  0  0  0  0
  9  2  1  0  0  0  0
 12  3  1  0  0  0  0
 13  4  1  0  0  0  0
 16 23  1  0  0  0  0
 16 17  1  0  0  0  0
 17 19  1  0  0  0  0
 17 18  1  0  0  0  0
 18 29  1  0  0  0  0
 18 27  1  0  0  0  0
 19 21  1  0  0  0  0
 19 30  1  1  0  0  0
 20 19  1  0  0  0  0
 21 22  2  0  0  0  0
 24 16  1  0  0  0  0
 25 16  1  0  0  0  0
 26 17  1  0  0  0  0
 28 18  1  0  0  0  0
 31 20  1  0  0  0  0
 32 41  1  0  0  0  0
 33 35  1  0  0  0  0
 33 32  1  0  0  0  0
 34 45  1  0  0  0  0
 34 33  1  0  0  0  0
 35 49  1  0  0  0  0
 35 36  1  0  0  0  0
 36 38  1  0  0  0  0
 36 50  1  1  0  0  0
 37 36  1  0  0  0  0
 37 21  1  0  0  0  0
 38 40  1  0  0  0  0
 39 38  2  0  0  0  0
 42 32  1  0  0  0  0
 43 32  1  0  0  0  0
 44 33  1  0  0  0  0
 46 34  1  0  0  0  0
 47 34  1  0  0  0  0
 48 35  1  0  0  0  0
 51 37  1  0  0  0  0
M  END
$$$$
