PVN.pdb
 OpenBabel07022419063D

 46 46  0  0  1  0  0  0  0  0999 V2000
    2.2110   -3.8230   -0.4280 N   0  0  0  0  0  0  0  0  0  0  0  0
    2.3660   -4.8170    0.6020 C   0  0  0  0  0  0  0  0  0  0  0  0
    1.7830   -4.1980    1.8260 C   0  0  0  0  0  0  0  0  0  0  0  0
    0.9370   -3.0710    1.3340 C   0  0  0  0  0  0  0  0  0  0  0  0
    1.0170   -3.0780   -0.1730 C   0  0  1  0  0  0  0  0  0  0  0  0
    1.1590   -1.6420   -0.6000 C   0  0  0  0  0  0  0  0  0  0  0  0
    2.2410   -1.2890   -1.1000 O   0  0  0  0  0  0  0  0  0  0  0  0
    3.0310   -3.1740   -0.3670 H   0  0  0  0  0  0  0  0  0  0  0  0
    1.8370   -5.7640    0.3830 H   0  0  0  0  0  0  0  0  0  0  0  0
    3.4650   -4.9940    0.7670 H   0  0  0  0  0  0  0  0  0  0  0  0
    2.6030   -3.8630    2.5180 H   0  0  0  0  0  0  0  0  0  0  0  0
    1.1990   -4.9400    2.4120 H   0  0  0  0  0  0  0  0  0  0  0  0
   -0.1190   -3.2000    1.6730 H   0  0  0  0  0  0  0  0  0  0  0  0
    1.3610   -2.1220    1.7670 H   0  0  0  0  0  0  0  0  0  0  0  0
    0.1540   -3.5570   -0.6570 H   0  0  0  0  0  0  0  0  0  0  0  0
   -0.7130    2.4080   -2.4230 C   0  0  0  0  0  0  0  0  0  0  0  0
   -0.7460    1.0010   -1.9490 C   0  0  0  0  0  0  0  0  0  0  0  0
   -0.5350    0.0920   -3.1420 C   0  0  0  0  0  0  0  0  0  0  0  0
    0.2260    0.6840   -0.8520 C   0  0  2  0  0  0  0  0  0  0  0  0
    0.1250   -0.7040   -0.4540 N   0  0  0  0  0  0  0  0  0  0  0  0
    0.1150    1.5240    0.3300 C   0  0  0  0  0  0  0  0  0  0  0  0
    0.1620    2.7820    0.3420 O   0  0  0  0  0  0  0  0  0  0  0  0
    0.3260    2.8070   -2.5630 H   0  0  0  0  0  0  0  0  0  0  0  0
   -1.3360    3.1050   -1.8180 H   0  0  0  0  0  0  0  0  0  0  0  0
   -1.1620    2.4300   -3.4500 H   0  0  0  0  0  0  0  0  0  0  0  0
   -1.7660    0.7860   -1.5650 H   0  0  0  0  0  0  0  0  0  0  0  0
   -1.2330   -0.7440   -3.1920 H   0  0  0  0  0  0  0  0  0  0  0  0
    0.5360   -0.2480   -3.1010 H   0  0  0  0  0  0  0  0  0  0  0  0
   -0.6100    0.6620   -4.1030 H   0  0  0  0  0  0  0  0  0  0  0  0
    1.2510    0.8800   -1.2910 H   0  0  0  0  0  0  0  0  0  0  0  0
   -0.7700   -1.0520   -0.0260 H   0  0  0  0  0  0  0  0  0  0  0  0
   -3.1900   -0.1700    4.2330 N   0  0  0  0  0  0  0  0  0  0  0  0
   -1.9070    0.1870    3.7430 C   0  0  0  0  0  0  0  0  0  0  0  0
   -1.0550   -0.7590    3.6670 O   0  0  0  0  0  0  0  0  0  0  0  0
   -1.5670    1.5570    3.3450 C   0  0  0  0  0  0  0  0  0  0  0  0
   -0.1760    1.7300    2.7960 C   0  0  2  0  0  0  0  0  0  0  0  0
   -0.0640    0.8960    1.6050 N   0  0  0  0  0  0  0  0  0  0  0  0
    0.7660    1.3010    3.8480 C   0  0  0  0  0  0  0  0  0  0  0  0
    1.5230    0.3280    3.6310 O   0  0  0  0  0  0  0  0  0  0  0  0
    0.8560    1.9260    5.0760 O   0  0  0  0  0  0  0  0  0  0  0  0
   -3.6370   -1.0470    3.9250 H   0  0  0  0  0  0  0  0  0  0  0  0
   -3.6790    0.4480    4.9000 H   0  0  0  0  0  0  0  0  0  0  0  0
   -2.2630    1.9690    2.5760 H   0  0  0  0  0  0  0  0  0  0  0  0
   -1.6750    2.2000    4.2420 H   0  0  0  0  0  0  0  0  0  0  0  0
   -0.0630    2.8060    2.5390 H   0  0  0  0  0  0  0  0  0  0  0  0
   -0.1110   -0.1540    1.6840 H   0  0  0  0  0  0  0  0  0  0  0  0
  1  8  1  0  0  0  0
  1  5  1  0  0  0  0
  1  2  1  0  0  0  0
  2 10  1  0  0  0  0
  2  3  1  0  0  0  0
  3 12  1  0  0  0  0
  3 11  1  0  0  0  0
  4 13  1  0  0  0  0
  4 14  1  0  0  0  0
  4  3  1  0  0  0  0
  5 15  1  6  0  0  0
  5  4  1  0  0  0  0
  6 20  1  0  0  0  0
  6  5  1  0  0  0  0
  7  6  2  0  0  0  0
  9  2  1  0  0  0  0
 16 17  1  0  0  0  0
 16 24  1  0  0  0  0
 17 26  1  0  0  0  0
 17 19  1  0  0  0  0
 18 28  1  0  0  0  0
 18 17  1  0  0  0  0
 19 30  1  6  0  0  0
 19 20  1  0  0  0  0
 19 21  1  0  0  0  0
 20 31  1  0  0  0  0
 21 22  2  0  0  0  0
 21 37  1  0  0  0  0
 23 16  1  0  0  0  0
 25 16  1  0  0  0  0
 27 18  1  0  0  0  0
 29 18  1  0  0  0  0
 32 42  1  0  0  0  0
 33 32  1  0  0  0  0
 34 33  2  0  0  0  0
 35 33  1  0  0  0  0
 35 44  1  0  0  0  0
 36 45  1  6  0  0  0
 36 35  1  0  0  0  0
 36 38  1  0  0  0  0
 37 46  1  0  0  0  0
 37 36  1  0  0  0  0
 38 40  1  0  0  0  0
 39 38  2  0  0  0  0
 41 32  1  0  0  0  0
 43 35  1  0  0  0  0
M  END
$$$$
