PVP.pdb
 OpenBabel07022419063D

 46 47  0  0  1  0  0  0  0  0999 V2000
    0.3190   -3.8640    0.6190 N   0  0  0  0  0  0  0  0  0  0  0  0
    1.0230   -5.0080    1.1870 C   0  0  0  0  0  0  0  0  0  0  0  0
    2.4770   -4.6020    1.2880 C   0  0  0  0  0  0  0  0  0  0  0  0
    2.4990   -3.0900    1.1030 C   0  0  0  0  0  0  0  0  0  0  0  0
    1.0260   -2.7580    1.1810 C   0  0  1  0  0  0  0  0  0  0  0  0
    0.6920   -1.4620    0.5680 C   0  0  0  0  0  0  0  0  0  0  0  0
   -0.1410   -1.4160   -0.3530 O   0  0  0  0  0  0  0  0  0  0  0  0
    0.2960   -3.8830   -0.4140 H   0  0  0  0  0  0  0  0  0  0  0  0
    0.8730   -5.9280    0.6110 H   0  0  0  0  0  0  0  0  0  0  0  0
    0.6040   -5.1940    2.2130 H   0  0  0  0  0  0  0  0  0  0  0  0
    2.8420   -4.8730    2.2990 H   0  0  0  0  0  0  0  0  0  0  0  0
    3.0550   -5.1310    0.5190 H   0  0  0  0  0  0  0  0  0  0  0  0
    2.9450   -2.7980    0.1390 H   0  0  0  0  0  0  0  0  0  0  0  0
    3.0480   -2.6360    1.9470 H   0  0  0  0  0  0  0  0  0  0  0  0
    0.7790   -2.7400    2.2830 H   0  0  0  0  0  0  0  0  0  0  0  0
    1.4550    0.5020   -1.9640 C   0  0  0  0  0  0  0  0  0  0  0  0
    1.7540    1.3760   -0.7940 C   0  0  0  0  0  0  0  0  0  0  0  0
    3.2660    1.4260   -0.6310 C   0  0  0  0  0  0  0  0  0  0  0  0
    1.0570    1.0340    0.4830 C   0  0  2  0  0  0  0  0  0  0  0  0
    1.3120   -0.2600    1.0160 N   0  0  0  0  0  0  0  0  0  0  0  0
   -0.3260    1.5440    0.5730 C   0  0  0  0  0  0  0  0  0  0  0  0
   -0.5180    2.5630   -0.2190 O   0  0  0  0  0  0  0  0  0  0  0  0
    1.9010   -0.5120   -1.8960 H   0  0  0  0  0  0  0  0  0  0  0  0
    1.9180    0.9180   -2.9160 H   0  0  0  0  0  0  0  0  0  0  0  0
    0.3700    0.5010   -2.2020 H   0  0  0  0  0  0  0  0  0  0  0  0
    1.4720    2.4250   -1.1040 H   0  0  0  0  0  0  0  0  0  0  0  0
    3.7200    2.2710   -1.1890 H   0  0  0  0  0  0  0  0  0  0  0  0
    3.7160    0.5020   -1.1000 H   0  0  0  0  0  0  0  0  0  0  0  0
    3.5750    1.5290    0.4220 H   0  0  0  0  0  0  0  0  0  0  0  0
    1.5950    1.7440    1.2490 H   0  0  0  0  0  0  0  0  0  0  0  0
    2.0160   -0.4010    1.8180 H   0  0  0  0  0  0  0  0  0  0  0  0
   -1.3960    1.1120    1.3480 N   0  0  0  0  0  0  0  0  0  0  0  0
   -1.6080    0.1180    2.3670 C   0  0  0  0  0  0  0  0  0  0  0  0
   -2.8160   -0.6130    1.7680 C   0  0  0  0  0  0  0  0  0  0  0  0
   -3.6910    0.5520    1.2700 C   0  0  0  0  0  0  0  0  0  0  0  0
   -2.7470    1.7010    1.2100 C   0  0  1  0  0  0  0  0  0  0  0  0
   -2.9180    2.6460    2.3360 C   0  0  0  0  0  0  0  0  0  0  0  0
   -2.0110    2.9150    3.1580 O   0  0  0  0  0  0  0  0  0  0  0  0
   -4.1490    3.2930    2.5230 O   0  0  0  0  0  0  0  0  0  0  0  0
   -2.0330    0.6330    3.2730 H   0  0  0  0  0  0  0  0  0  0  0  0
   -0.7910   -0.5090    2.6530 H   0  0  0  0  0  0  0  0  0  0  0  0
   -3.3810   -1.1590    2.5490 H   0  0  0  0  0  0  0  0  0  0  0  0
   -2.5670   -1.2260    0.9040 H   0  0  0  0  0  0  0  0  0  0  0  0
   -4.4750    0.7610    2.0460 H   0  0  0  0  0  0  0  0  0  0  0  0
   -4.1290    0.3420    0.2940 H   0  0  0  0  0  0  0  0  0  0  0  0
   -2.8060    2.2500    0.2340 H   0  0  0  0  0  0  0  0  0  0  0  0
  1  5  1  0  0  0  0
  1  2  1  0  0  0  0
  2  3  1  0  0  0  0
  2 10  1  0  0  0  0
  3 11  1  0  0  0  0
  4  5  1  0  0  0  0
  4  3  1  0  0  0  0
  4 14  1  0  0  0  0
  5 15  1  1  0  0  0
  6 20  1  0  0  0  0
  6  5  1  0  0  0  0
  7  6  2  0  0  0  0
  8  1  1  0  0  0  0
  9  2  1  0  0  0  0
 12  3  1  0  0  0  0
 13  4  1  0  0  0  0
 16 23  1  0  0  0  0
 16 17  1  0  0  0  0
 17 18  1  0  0  0  0
 17 19  1  0  0  0  0
 18 29  1  0  0  0  0
 19 21  1  0  0  0  0
 19 20  1  0  0  0  0
 19 30  1  1  0  0  0
 20 31  1  0  0  0  0
 21 32  1  0  0  0  0
 22 21  2  0  0  0  0
 24 16  1  0  0  0  0
 25 16  1  0  0  0  0
 26 17  1  0  0  0  0
 27 18  1  0  0  0  0
 28 18  1  0  0  0  0
 32 33  1  0  0  0  0
 33 41  1  0  0  0  0
 33 40  1  0  0  0  0
 34 33  1  0  0  0  0
 34 42  1  0  0  0  0
 35 34  1  0  0  0  0
 35 44  1  0  0  0  0
 36 46  1  6  0  0  0
 36 35  1  0  0  0  0
 36 32  1  0  0  0  0
 36 37  1  0  0  0  0
 37 39  2  0  0  0  0
 37 38  1  0  0  0  0
 43 34  1  0  0  0  0
 45 35  1  0  0  0  0
M  END
$$$$
