PVQ.pdb
 OpenBabel07022419063D

 49 49  0  0  1  0  0  0  0  0999 V2000
    0.0650   -3.3080    1.8440 N   0  0  0  0  0  0  0  0  0  0  0  0
    0.1070   -4.7130    2.3910 C   0  0  0  0  0  0  0  0  0  0  0  0
    0.8480   -5.3520    1.2450 C   0  0  0  0  0  0  0  0  0  0  0  0
    1.9570   -4.3600    0.9490 C   0  0  0  0  0  0  0  0  0  0  0  0
    1.5110   -3.0990    1.6320 C   0  0  1  0  0  0  0  0  0  0  0  0
    1.8120   -1.8510    0.9030 C   0  0  0  0  0  0  0  0  0  0  0  0
    2.9710   -1.3930    0.9330 O   0  0  0  0  0  0  0  0  0  0  0  0
   -0.4760   -3.3290    0.9770 H   0  0  0  0  0  0  0  0  0  0  0  0
    0.7520   -4.6760    3.2650 H   0  0  0  0  0  0  0  0  0  0  0  0
   -0.9000   -5.0870    2.5300 H   0  0  0  0  0  0  0  0  0  0  0  0
    0.1480   -5.4530    0.3760 H   0  0  0  0  0  0  0  0  0  0  0  0
    1.2120   -6.3670    1.4800 H   0  0  0  0  0  0  0  0  0  0  0  0
    2.0940   -4.2150   -0.1510 H   0  0  0  0  0  0  0  0  0  0  0  0
    2.9140   -4.7750    1.3140 H   0  0  0  0  0  0  0  0  0  0  0  0
    1.9540   -3.0600    2.6360 H   0  0  0  0  0  0  0  0  0  0  0  0
    1.5470    1.3180   -2.6490 C   0  0  0  0  0  0  0  0  0  0  0  0
    1.4090   -0.0640   -1.9980 C   0  0  0  0  0  0  0  0  0  0  0  0
    2.8580   -0.6210   -2.1010 C   0  0  0  0  0  0  0  0  0  0  0  0
    1.0690    0.1160   -0.5140 C   0  0  2  0  0  0  0  0  0  0  0  0
    0.8440   -1.1180    0.1730 N   0  0  0  0  0  0  0  0  0  0  0  0
    0.0650    1.1570   -0.2800 C   0  0  0  0  0  0  0  0  0  0  0  0
    0.2590    2.2760   -0.7820 O   0  0  0  0  0  0  0  0  0  0  0  0
    0.6060    1.7270   -3.0020 H   0  0  0  0  0  0  0  0  0  0  0  0
    2.1660    1.9740   -1.9980 H   0  0  0  0  0  0  0  0  0  0  0  0
    2.1860    1.1750   -3.5790 H   0  0  0  0  0  0  0  0  0  0  0  0
    0.7620   -0.6740   -2.5660 H   0  0  0  0  0  0  0  0  0  0  0  0
    3.4320   -0.0930   -1.3050 H   0  0  0  0  0  0  0  0  0  0  0  0
    3.2920   -0.3190   -3.0910 H   0  0  0  0  0  0  0  0  0  0  0  0
    2.9340   -1.6930   -2.0010 H   0  0  0  0  0  0  0  0  0  0  0  0
    2.0580    0.5100   -0.0950 H   0  0  0  0  0  0  0  0  0  0  0  0
   -0.1150   -1.5900    0.1420 H   0  0  0  0  0  0  0  0  0  0  0  0
   -1.3600   -0.7450    3.7150 N   0  0  0  0  0  0  0  0  0  0  0  0
   -1.2350    0.6010    3.2660 C   0  0  0  0  0  0  0  0  0  0  0  0
   -0.0810    1.0310    2.9700 O   0  0  0  0  0  0  0  0  0  0  0  0
   -2.3720    1.5120    3.1370 C   0  0  0  0  0  0  0  0  0  0  0  0
   -2.1440    2.5370    2.0660 C   0  0  0  0  0  0  0  0  0  0  0  0
   -2.0990    1.9100    0.7130 C   0  0  2  0  0  0  0  0  0  0  0  0
   -1.1030    0.9330    0.4900 N   0  0  0  0  0  0  0  0  0  0  0  0
   -2.3480    2.8630   -0.3760 C   0  0  0  0  0  0  0  0  0  0  0  0
   -3.0800    3.8670   -0.1080 O   0  0  0  0  0  0  0  0  0  0  0  0
   -1.8770    2.7660   -1.6360 O   0  0  0  0  0  0  0  0  0  0  0  0
   -1.8150   -1.4260    3.0950 H   0  0  0  0  0  0  0  0  0  0  0  0
   -0.9830   -0.9750    4.6490 H   0  0  0  0  0  0  0  0  0  0  0  0
   -2.6110    2.0430    4.1120 H   0  0  0  0  0  0  0  0  0  0  0  0
   -3.3150    0.9480    2.8680 H   0  0  0  0  0  0  0  0  0  0  0  0
   -3.0030    3.2780    2.1370 H   0  0  0  0  0  0  0  0  0  0  0  0
   -1.2070    3.1270    2.2480 H   0  0  0  0  0  0  0  0  0  0  0  0
   -3.1380    1.3050    0.6940 H   0  0  0  0  0  0  0  0  0  0  0  0
   -1.2640   -0.0590    0.9140 H   0  0  0  0  0  0  0  0  0  0  0  0
  1  2  1  0  0  0  0
  2 10  1  0  0  0  0
  2  9  1  0  0  0  0
  3 12  1  0  0  0  0
  3  2  1  0  0  0  0
  4  3  1  0  0  0  0
  4 14  1  0  0  0  0
  4  5  1  0  0  0  0
  5  1  1  0  0  0  0
  5 15  1  1  0  0  0
  6  7  2  0  0  0  0
  6  5  1  0  0  0  0
  8  1  1  0  0  0  0
 11  3  1  0  0  0  0
 13  4  1  0  0  0  0
 16 24  1  0  0  0  0
 16 17  1  0  0  0  0
 17 19  1  0  0  0  0
 18 29  1  0  0  0  0
 18 17  1  0  0  0  0
 18 27  1  0  0  0  0
 19 21  1  0  0  0  0
 19 30  1  1  0  0  0
 19 20  1  0  0  0  0
 20  6  1  0  0  0  0
 21 38  1  0  0  0  0
 22 21  2  0  0  0  0
 23 16  1  0  0  0  0
 25 16  1  0  0  0  0
 26 17  1  0  0  0  0
 28 18  1  0  0  0  0
 31 20  1  0  0  0  0
 32 43  1  0  0  0  0
 33 32  1  0  0  0  0
 34 33  2  0  0  0  0
 35 33  1  0  0  0  0
 35 44  1  0  0  0  0
 36 46  1  0  0  0  0
 36 47  1  0  0  0  0
 36 35  1  0  0  0  0
 37 48  1  6  0  0  0
 37 36  1  0  0  0  0
 38 37  1  0  0  0  0
 38 49  1  0  0  0  0
 39 40  1  0  0  0  0
 39 37  1  0  0  0  0
 41 39  2  0  0  0  0
 42 32  1  0  0  0  0
 45 35  1  0  0  0  0
M  END
$$$$
