PVS.pdb
 OpenBabel07022419063D

 43 43  0  0  1  0  0  0  0  0999 V2000
   -1.2350   -2.5020   -0.1660 N   0  0  0  0  0  0  0  0  0  0  0  0
   -1.2460   -2.9660   -1.5230 C   0  0  0  0  0  0  0  0  0  0  0  0
   -0.8400   -4.4350   -1.3540 C   0  0  0  0  0  0  0  0  0  0  0  0
    0.3270   -4.2810   -0.3820 C   0  0  0  0  0  0  0  0  0  0  0  0
   -0.1840   -3.1730    0.5380 C   0  0  1  0  0  0  0  0  0  0  0  0
    0.9110   -2.2340    0.9050 C   0  0  0  0  0  0  0  0  0  0  0  0
    1.9110   -2.6690    1.5290 O   0  0  0  0  0  0  0  0  0  0  0  0
   -2.1630   -2.5600    0.3090 H   0  0  0  0  0  0  0  0  0  0  0  0
   -0.4670   -2.4480   -2.1260 H   0  0  0  0  0  0  0  0  0  0  0  0
   -2.2200   -2.8620   -2.0060 H   0  0  0  0  0  0  0  0  0  0  0  0
   -1.6910   -4.9330   -0.8530 H   0  0  0  0  0  0  0  0  0  0  0  0
   -0.5350   -4.8890   -2.2950 H   0  0  0  0  0  0  0  0  0  0  0  0
    0.4870   -5.1980    0.2200 H   0  0  0  0  0  0  0  0  0  0  0  0
    1.2140   -3.9600   -0.9490 H   0  0  0  0  0  0  0  0  0  0  0  0
   -0.5400   -3.6280    1.5050 H   0  0  0  0  0  0  0  0  0  0  0  0
    1.7160    1.2050   -1.2690 C   0  0  0  0  0  0  0  0  0  0  0  0
    2.6300    0.5010   -0.3280 C   0  0  0  0  0  0  0  0  0  0  0  0
    3.1540   -0.7550   -1.0130 C   0  0  0  0  0  0  0  0  0  0  0  0
    1.9640    0.0530    0.9470 C   0  0  2  0  0  0  0  0  0  0  0  0
    0.8960   -0.8540    0.5880 N   0  0  0  0  0  0  0  0  0  0  0  0
    1.4820    1.1580    1.7780 C   0  0  0  0  0  0  0  0  0  0  0  0
    2.2960    2.0300    2.1710 O   0  0  0  0  0  0  0  0  0  0  0  0
    1.2760    0.4870   -2.0120 H   0  0  0  0  0  0  0  0  0  0  0  0
    2.3360    1.9100   -1.8870 H   0  0  0  0  0  0  0  0  0  0  0  0
    0.9470    1.8290   -0.7800 H   0  0  0  0  0  0  0  0  0  0  0  0
    3.5190    1.1370   -0.1300 H   0  0  0  0  0  0  0  0  0  0  0  0
    2.3620   -1.5500   -1.0470 H   0  0  0  0  0  0  0  0  0  0  0  0
    4.0130   -1.1770   -0.4370 H   0  0  0  0  0  0  0  0  0  0  0  0
    3.4520   -0.5620   -2.0540 H   0  0  0  0  0  0  0  0  0  0  0  0
    2.7310   -0.5710    1.4910 H   0  0  0  0  0  0  0  0  0  0  0  0
    0.0830   -0.4670    0.0730 H   0  0  0  0  0  0  0  0  0  0  0  0
   -1.9130    4.1180    3.1530 O   0  0  0  0  0  0  0  0  0  0  0  0
   -1.4810    3.1280    2.2700 C   0  0  0  0  0  0  0  0  0  0  0  0
   -0.3990    2.3390    2.9680 C   0  0  2  0  0  0  0  0  0  0  0  0
    0.1300    1.2840    2.1590 N   0  0  0  0  0  0  0  0  0  0  0  0
   -0.9750    1.7660    4.2040 C   0  0  0  0  0  0  0  0  0  0  0  0
   -1.5130    2.4860    5.1000 O   0  0  0  0  0  0  0  0  0  0  0  0
   -0.9380    0.4170    4.4130 O   0  0  0  0  0  0  0  0  0  0  0  0
   -1.1390    4.5040    3.6650 H   0  0  0  0  0  0  0  0  0  0  0  0
   -2.3280    2.5090    1.9780 H   0  0  0  0  0  0  0  0  0  0  0  0
   -0.9940    3.6600    1.4060 H   0  0  0  0  0  0  0  0  0  0  0  0
    0.4430    3.0170    3.2260 H   0  0  0  0  0  0  0  0  0  0  0  0
   -0.5490    0.5490    1.8270 H   0  0  0  0  0  0  0  0  0  0  0  0
  1  8  1  0  0  0  0
  1  5  1  0  0  0  0
  2  3  1  0  0  0  0
  2  1  1  0  0  0  0
  3 11  1  0  0  0  0
  3  4  1  0  0  0  0
  4 13  1  0  0  0  0
  4  5  1  0  0  0  0
  5  6  1  0  0  0  0
  5 15  1  1  0  0  0
  6  7  2  0  0  0  0
  9  2  1  0  0  0  0
 10  2  1  0  0  0  0
 12  3  1  0  0  0  0
 14  4  1  0  0  0  0
 16 25  1  0  0  0  0
 16 17  1  0  0  0  0
 17 26  1  0  0  0  0
 17 19  1  0  0  0  0
 18 28  1  0  0  0  0
 18 17  1  0  0  0  0
 19 30  1  1  0  0  0
 19 21  1  0  0  0  0
 20  6  1  0  0  0  0
 20 19  1  0  0  0  0
 21 35  1  0  0  0  0
 21 22  2  0  0  0  0
 23 16  1  0  0  0  0
 24 16  1  0  0  0  0
 27 18  1  0  0  0  0
 29 18  1  0  0  0  0
 31 20  1  0  0  0  0
 32 39  1  0  0  0  0
 33 34  1  0  0  0  0
 33 32  1  0  0  0  0
 34 42  1  1  0  0  0
 34 36  1  0  0  0  0
 35 34  1  0  0  0  0
 36 38  2  0  0  0  0
 36 37  1  0  0  0  0
 40 33  1  0  0  0  0
 41 33  1  0  0  0  0
 43 35  1  0  0  0  0
M  END
$$$$
