PVT.pdb
 OpenBabel07022419063D

 46 46  0  0  1  0  0  0  0  0999 V2000
    0.5160   -3.6340    0.7020 N   0  0  0  0  0  0  0  0  0  0  0  0
    0.8710   -5.0450    0.6070 C   0  0  0  0  0  0  0  0  0  0  0  0
    2.0830   -4.9390   -0.3260 C   0  0  0  0  0  0  0  0  0  0  0  0
    2.8380   -3.7880    0.2730 C   0  0  0  0  0  0  0  0  0  0  0  0
    1.7860   -2.9510    0.9180 C   0  0  1  0  0  0  0  0  0  0  0  0
    1.7630   -1.5400    0.5020 C   0  0  0  0  0  0  0  0  0  0  0  0
    2.7650   -0.8310    0.6090 O   0  0  0  0  0  0  0  0  0  0  0  0
    0.0900   -3.4010   -0.2250 H   0  0  0  0  0  0  0  0  0  0  0  0
    1.1550   -5.4620    1.5880 H   0  0  0  0  0  0  0  0  0  0  0  0
    0.0570   -5.6080    0.1110 H   0  0  0  0  0  0  0  0  0  0  0  0
    1.7250   -4.6960   -1.3290 H   0  0  0  0  0  0  0  0  0  0  0  0
    2.6700   -5.8930   -0.2800 H   0  0  0  0  0  0  0  0  0  0  0  0
    3.4480   -3.2380   -0.4720 H   0  0  0  0  0  0  0  0  0  0  0  0
    3.5690   -4.2300    1.0010 H   0  0  0  0  0  0  0  0  0  0  0  0
    1.9570   -3.0450    2.0340 H   0  0  0  0  0  0  0  0  0  0  0  0
   -1.1870    0.6230   -2.0410 C   0  0  0  0  0  0  0  0  0  0  0  0
    0.2660    1.0260   -1.7130 C   0  0  0  0  0  0  0  0  0  0  0  0
    0.9990    0.8030   -2.9640 C   0  0  0  0  0  0  0  0  0  0  0  0
    0.6330    0.4820   -0.4380 C   0  0  2  0  0  0  0  0  0  0  0  0
    0.6730   -0.8330   -0.0430 N   0  0  0  0  0  0  0  0  0  0  0  0
   -0.1800    1.1970    0.6170 C   0  0  0  0  0  0  0  0  0  0  0  0
   -0.4000    2.4330    0.5370 O   0  0  0  0  0  0  0  0  0  0  0  0
   -1.2410   -0.4840   -1.9420 H   0  0  0  0  0  0  0  0  0  0  0  0
   -1.4290    0.8640   -3.0850 H   0  0  0  0  0  0  0  0  0  0  0  0
   -1.8840    1.1100   -1.3290 H   0  0  0  0  0  0  0  0  0  0  0  0
    0.1720    2.1380   -1.6550 H   0  0  0  0  0  0  0  0  0  0  0  0
    1.9280    1.4340   -3.0830 H   0  0  0  0  0  0  0  0  0  0  0  0
    0.3700    1.2030   -3.7990 H   0  0  0  0  0  0  0  0  0  0  0  0
    1.1710   -0.2470   -3.2540 H   0  0  0  0  0  0  0  0  0  0  0  0
    1.6850    0.8810   -0.2260 H   0  0  0  0  0  0  0  0  0  0  0  0
   -0.2260   -1.4080   -0.1550 H   0  0  0  0  0  0  0  0  0  0  0  0
   -1.5560    2.0650    5.0760 C   0  0  0  0  0  0  0  0  0  0  0  0
   -0.7060    1.5240    3.9480 C   0  0  1  0  0  0  0  0  0  0  0  0
    0.0280    0.4530    4.5070 O   0  0  0  0  0  0  0  0  0  0  0  0
   -1.5190    1.0710    2.7840 C   0  0  2  0  0  0  0  0  0  0  0  0
   -0.7180    0.5050    1.7230 N   0  0  0  0  0  0  0  0  0  0  0  0
   -2.5450    2.0350    2.3380 C   0  0  0  0  0  0  0  0  0  0  0  0
   -2.7980    2.3080    1.1630 O   0  0  0  0  0  0  0  0  0  0  0  0
   -3.2930    2.6960    3.3330 O   0  0  0  0  0  0  0  0  0  0  0  0
   -2.4950    1.5130    5.1590 H   0  0  0  0  0  0  0  0  0  0  0  0
   -1.7460    3.1560    4.9950 H   0  0  0  0  0  0  0  0  0  0  0  0
   -1.0290    1.9080    6.0670 H   0  0  0  0  0  0  0  0  0  0  0  0
    0.0010    2.3260    3.5970 H   0  0  0  0  0  0  0  0  0  0  0  0
    1.0050    0.6150    4.3430 H   0  0  0  0  0  0  0  0  0  0  0  0
   -2.1470    0.1750    3.1510 H   0  0  0  0  0  0  0  0  0  0  0  0
   -0.4880   -0.5460    1.7490 H   0  0  0  0  0  0  0  0  0  0  0  0
  1  5  1  0  0  0  0
  2  1  1  0  0  0  0
  2  9  1  0  0  0  0
  3 12  1  0  0  0  0
  3  4  1  0  0  0  0
  3  2  1  0  0  0  0
  4  5  1  0  0  0  0
  4 14  1  0  0  0  0
  5 15  1  1  0  0  0
  6  7  2  0  0  0  0
  6  5  1  0  0  0  0
  8  1  1  0  0  0  0
 10  2  1  0  0  0  0
 11  3  1  0  0  0  0
 13  4  1  0  0  0  0
 16 23  1  0  0  0  0
 16 17  1  0  0  0  0
 16 25  1  0  0  0  0
 17 26  1  0  0  0  0
 17 19  1  0  0  0  0
 18 17  1  0  0  0  0
 19 30  1  1  0  0  0
 19 20  1  0  0  0  0
 19 21  1  0  0  0  0
 20  6  1  0  0  0  0
 21 36  1  0  0  0  0
 22 21  2  0  0  0  0
 24 16  1  0  0  0  0
 27 18  1  0  0  0  0
 28 18  1  0  0  0  0
 29 18  1  0  0  0  0
 31 20  1  0  0  0  0
 32 40  1  0  0  0  0
 32 42  1  0  0  0  0
 33 43  1  6  0  0  0
 33 34  1  0  0  0  0
 33 32  1  0  0  0  0
 35 45  1  1  0  0  0
 35 33  1  0  0  0  0
 36 46  1  0  0  0  0
 36 35  1  0  0  0  0
 37 35  1  0  0  0  0
 37 39  1  0  0  0  0
 38 37  2  0  0  0  0
 41 32  1  0  0  0  0
 44 34  1  0  0  0  0
M  END
$$$$
