PVW.pdb
 OpenBabel07022419063D

 56 58  0  0  1  0  0  0  0  0999 V2000
    3.9050   -2.4440    4.4720 N   0  0  0  0  0  0  0  0  0  0  0  0
    3.5080   -3.7900    4.1200 C   0  0  0  0  0  0  0  0  0  0  0  0
    3.5890   -3.8810    2.6210 C   0  0  0  0  0  0  0  0  0  0  0  0
    3.9150   -2.4700    2.1800 C   0  0  0  0  0  0  0  0  0  0  0  0
    3.5460   -1.5930    3.3590 C   0  0  1  0  0  0  0  0  0  0  0  0
    2.1180   -1.2760    3.4380 C   0  0  0  0  0  0  0  0  0  0  0  0
    1.4120   -1.7480    4.3930 O   0  0  0  0  0  0  0  0  0  0  0  0
    3.4320   -2.1360    5.3600 H   0  0  0  0  0  0  0  0  0  0  0  0
    2.4860   -4.0330    4.4800 H   0  0  0  0  0  0  0  0  0  0  0  0
    4.2370   -4.5250    4.5800 H   0  0  0  0  0  0  0  0  0  0  0  0
    4.3660   -4.6160    2.3190 H   0  0  0  0  0  0  0  0  0  0  0  0
    2.6190   -4.2360    2.2030 H   0  0  0  0  0  0  0  0  0  0  0  0
    5.0140   -2.4110    2.0570 H   0  0  0  0  0  0  0  0  0  0  0  0
    3.4340   -2.1810    1.2480 H   0  0  0  0  0  0  0  0  0  0  0  0
    4.1990   -0.7040    3.4170 H   0  0  0  0  0  0  0  0  0  0  0  0
    0.4100    1.9760    3.8830 C   0  0  0  0  0  0  0  0  0  0  0  0
   -0.2410    1.3250    2.7110 C   0  0  0  0  0  0  0  0  0  0  0  0
    0.0870    2.0300    1.4320 C   0  0  0  0  0  0  0  0  0  0  0  0
    0.0260   -0.1690    2.6290 C   0  0  2  0  0  0  0  0  0  0  0  0
    1.4280   -0.4630    2.5220 N   0  0  0  0  0  0  0  0  0  0  0  0
   -0.6670   -0.6720    1.3680 C   0  0  0  0  0  0  0  0  0  0  0  0
    0.0230   -1.2790    0.5150 O   0  0  0  0  0  0  0  0  0  0  0  0
    0.0640    3.0390    3.9080 H   0  0  0  0  0  0  0  0  0  0  0  0
    0.0370    1.4910    4.8340 H   0  0  0  0  0  0  0  0  0  0  0  0
    1.5130    1.8810    3.9180 H   0  0  0  0  0  0  0  0  0  0  0  0
   -1.3530    1.4160    2.8740 H   0  0  0  0  0  0  0  0  0  0  0  0
    0.6310    1.3140    0.7810 H   0  0  0  0  0  0  0  0  0  0  0  0
    0.6720    2.9600    1.5930 H   0  0  0  0  0  0  0  0  0  0  0  0
   -0.8520    2.3290    0.8840 H   0  0  0  0  0  0  0  0  0  0  0  0
   -0.4750   -0.6340    3.5040 H   0  0  0  0  0  0  0  0  0  0  0  0
    1.9420   -0.0420    1.7200 H   0  0  0  0  0  0  0  0  0  0  0  0
   -2.0450   -0.4400    1.2050 N   0  0  0  0  0  0  0  0  0  0  0  0
   -2.7590   -0.8970    0.0170 C   0  0  1  0  0  0  0  0  0  0  0  0
   -2.1780   -0.2330   -1.1600 C   0  0  0  0  0  0  0  0  0  0  0  0
   -2.7760   -0.5090   -2.4640 C   0  0  0  0  0  0  0  0  0  0  0  0
   -3.9410   -1.0800   -2.8550 C   0  0  0  0  0  0  0  0  0  0  0  0
   -4.0110   -1.0640   -4.2120 N   0  0  0  0  0  0  0  0  0  0  0  0
   -2.9190   -0.4950   -4.7190 C   0  0  0  0  0  0  0  0  0  0  0  0
   -2.5060   -0.2320   -6.0050 C   0  0  0  0  0  0  0  0  0  0  0  0
   -1.3020    0.3900   -6.2520 C   0  0  0  0  0  0  0  0  0  0  0  0
   -0.4940    0.7570   -5.2020 C   0  0  0  0  0  0  0  0  0  0  0  0
   -0.9220    0.4850   -3.9080 C   0  0  0  0  0  0  0  0  0  0  0  0
   -2.1250   -0.1370   -3.6550 C   0  0  0  0  0  0  0  0  0  0  0  0
   -2.5250   -2.3730   -0.0560 C   0  0  0  0  0  0  0  0  0  0  0  0
   -1.8340   -2.9660    0.8410 O   0  0  0  0  0  0  0  0  0  0  0  0
   -3.0090   -3.1880   -1.0470 O   0  0  0  0  0  0  0  0  0  0  0  0
   -2.5790    0.0780    1.9560 H   0  0  0  0  0  0  0  0  0  0  0  0
   -3.8530   -0.7660    0.1360 H   0  0  0  0  0  0  0  0  0  0  0  0
   -2.1820    0.8930   -1.0100 H   0  0  0  0  0  0  0  0  0  0  0  0
   -1.0630   -0.4370   -1.2710 H   0  0  0  0  0  0  0  0  0  0  0  0
   -4.6940   -1.4750   -2.1860 H   0  0  0  0  0  0  0  0  0  0  0  0
   -4.7990   -1.4410   -4.7810 H   0  0  0  0  0  0  0  0  0  0  0  0
   -3.1110   -0.5040   -6.8550 H   0  0  0  0  0  0  0  0  0  0  0  0
   -1.0010    0.5910   -7.2960 H   0  0  0  0  0  0  0  0  0  0  0  0
    0.4490    1.2370   -5.3390 H   0  0  0  0  0  0  0  0  0  0  0  0
   -0.3000    0.7670   -3.0470 H   0  0  0  0  0  0  0  0  0  0  0  0
  1  8  1  0  0  0  0
  2  1  1  0  0  0  0
  2  9  1  0  0  0  0
  2 10  1  0  0  0  0
  3  2  1  0  0  0  0
  4  3  1  0  0  0  0
  4  5  1  0  0  0  0
  5 15  1  1  0  0  0
  5  6  1  0  0  0  0
  5  1  1  0  0  0  0
  6  7  2  0  0  0  0
 11  3  1  0  0  0  0
 12  3  1  0  0  0  0
 13  4  1  0  0  0  0
 14  4  1  0  0  0  0
 16 23  1  0  0  0  0
 16 25  1  0  0  0  0
 16 24  1  0  0  0  0
 17 26  1  0  0  0  0
 17 16  1  0  0  0  0
 18 28  1  0  0  0  0
 18 17  1  0  0  0  0
 19 17  1  0  0  0  0
 19 30  1  1  0  0  0
 20 19  1  0  0  0  0
 20  6  1  0  0  0  0
 21 19  1  0  0  0  0
 22 21  2  0  0  0  0
 27 18  1  0  0  0  0
 29 18  1  0  0  0  0
 31 20  1  0  0  0  0
 32 21  1  0  0  0  0
 32 47  1  0  0  0  0
 33 48  1  1  0  0  0
 33 32  1  0  0  0  0
 34 49  1  0  0  0  0
 34 33  1  0  0  0  0
 35 34  1  0  0  0  0
 36 35  2  0  0  0  0
 36 51  1  0  0  0  0
 37 36  1  0  0  0  0
 38 37  1  0  0  0  0
 38 43  1  0  0  0  0
 39 38  2  0  0  0  0
 40 39  1  0  0  0  0
 40 41  2  0  0  0  0
 41 42  1  0  0  0  0
 42 43  2  0  0  0  0
 42 56  1  0  0  0  0
 43 35  1  0  0  0  0
 44 33  1  0  0  0  0
 44 45  1  0  0  0  0
 46 44  2  0  0  0  0
 50 34  1  0  0  0  0
 52 37  1  0  0  0  0
 53 39  1  0  0  0  0
 54 40  1  0  0  0  0
 55 41  1  0  0  0  0
M  END
$$$$
