PVY.pdb
 OpenBabel07022419063D

 53 54  0  0  1  0  0  0  0  0999 V2000
    0.9570   -3.1020    3.0770 N   0  0  0  0  0  0  0  0  0  0  0  0
    1.9680   -2.8640    4.0820 C   0  0  0  0  0  0  0  0  0  0  0  0
    1.7470   -1.4810    4.6130 C   0  0  0  0  0  0  0  0  0  0  0  0
    0.5170   -0.9760    3.9330 C   0  0  0  0  0  0  0  0  0  0  0  0
    0.4250   -1.8360    2.6930 C   0  0  1  0  0  0  0  0  0  0  0  0
    1.2830   -1.1970    1.6220 C   0  0  0  0  0  0  0  0  0  0  0  0
    2.2660   -1.8570    1.2720 O   0  0  0  0  0  0  0  0  0  0  0  0
    1.4220   -3.6190    2.2960 H   0  0  0  0  0  0  0  0  0  0  0  0
    2.9870   -2.9690    3.6530 H   0  0  0  0  0  0  0  0  0  0  0  0
    1.8240   -3.5850    4.9130 H   0  0  0  0  0  0  0  0  0  0  0  0
    1.6190   -1.4690    5.7190 H   0  0  0  0  0  0  0  0  0  0  0  0
    2.6010   -0.8450    4.3070 H   0  0  0  0  0  0  0  0  0  0  0  0
    0.5910    0.0970    3.7130 H   0  0  0  0  0  0  0  0  0  0  0  0
   -0.4050   -1.1410    4.5400 H   0  0  0  0  0  0  0  0  0  0  0  0
   -0.5870   -1.8640    2.2900 H   0  0  0  0  0  0  0  0  0  0  0  0
    3.7510    0.3360    1.0560 C   0  0  0  0  0  0  0  0  0  0  0  0
    2.8910    0.2710   -0.1820 C   0  0  0  0  0  0  0  0  0  0  0  0
    3.5530    1.1210   -1.2550 C   0  0  0  0  0  0  0  0  0  0  0  0
    1.5270    0.8360    0.1800 C   0  0  2  0  0  0  0  0  0  0  0  0
    0.8710    0.0490    1.1560 N   0  0  0  0  0  0  0  0  0  0  0  0
    0.6650    1.1230   -0.9600 C   0  0  0  0  0  0  0  0  0  0  0  0
    1.0090    1.8030   -1.9600 O   0  0  0  0  0  0  0  0  0  0  0  0
    3.1560    0.5230    1.9950 H   0  0  0  0  0  0  0  0  0  0  0  0
    4.5090   -0.4390    1.1430 H   0  0  0  0  0  0  0  0  0  0  0  0
    4.3180    1.3290    0.9590 H   0  0  0  0  0  0  0  0  0  0  0  0
    2.8410   -0.7450   -0.6140 H   0  0  0  0  0  0  0  0  0  0  0  0
    3.3190    2.1960   -1.1320 H   0  0  0  0  0  0  0  0  0  0  0  0
    4.6460    0.9650   -1.1510 H   0  0  0  0  0  0  0  0  0  0  0  0
    3.2790    0.7740   -2.2740 H   0  0  0  0  0  0  0  0  0  0  0  0
    1.8660    1.8350    0.6710 H   0  0  0  0  0  0  0  0  0  0  0  0
   -0.0370    0.5060    1.5500 H   0  0  0  0  0  0  0  0  0  0  0  0
   -4.3720   -3.9700    1.1210 O   0  0  0  0  0  0  0  0  0  0  0  0
   -3.7820   -3.1070    0.1800 C   0  0  0  0  0  0  0  0  0  0  0  0
   -2.4150   -3.0740    0.0140 C   0  0  0  0  0  0  0  0  0  0  0  0
   -1.8160   -2.2410   -0.8960 C   0  0  0  0  0  0  0  0  0  0  0  0
   -2.5760   -1.3980   -1.6880 C   0  0  0  0  0  0  0  0  0  0  0  0
   -1.9310   -0.4890   -2.6850 C   0  0  0  0  0  0  0  0  0  0  0  0
   -1.5830    0.8530   -2.0680 C   0  0  2  0  0  0  0  0  0  0  0  0
   -0.6680    0.6110   -0.9730 N   0  0  0  0  0  0  0  0  0  0  0  0
   -2.8130    1.5080   -1.5630 C   0  0  0  0  0  0  0  0  0  0  0  0
   -2.9260    1.7530   -0.3230 O   0  0  0  0  0  0  0  0  0  0  0  0
   -3.9450   -1.4360   -1.5180 C   0  0  0  0  0  0  0  0  0  0  0  0
   -4.5480   -2.2740   -0.6010 C   0  0  0  0  0  0  0  0  0  0  0  0
   -3.8520    1.8680   -2.3870 O   0  0  0  0  0  0  0  0  0  0  0  0
   -5.2420   -3.6100    1.5380 H   0  0  0  0  0  0  0  0  0  0  0  0
   -1.8070   -3.7300    0.6290 H   0  0  0  0  0  0  0  0  0  0  0  0
   -0.7310   -2.2140   -1.0280 H   0  0  0  0  0  0  0  0  0  0  0  0
   -2.6170   -0.3300   -3.5310 H   0  0  0  0  0  0  0  0  0  0  0  0
   -1.0030   -0.9760   -3.0060 H   0  0  0  0  0  0  0  0  0  0  0  0
   -1.0690    1.4680   -2.8280 H   0  0  0  0  0  0  0  0  0  0  0  0
   -1.0200    0.0390   -0.1750 H   0  0  0  0  0  0  0  0  0  0  0  0
   -4.5550   -0.7680   -2.1470 H   0  0  0  0  0  0  0  0  0  0  0  0
   -5.6300   -2.2660   -0.5060 H   0  0  0  0  0  0  0  0  0  0  0  0
  1  2  1  0  0  0  0
  2  3  1  0  0  0  0
  2 10  1  0  0  0  0
  3 11  1  0  0  0  0
  4 14  1  0  0  0  0
  4  3  1  0  0  0  0
  5 15  1  6  0  0  0
  5  1  1  0  0  0  0
  5  4  1  0  0  0  0
  6  5  1  0  0  0  0
  7  6  2  0  0  0  0
  8  1  1  0  0  0  0
  9  2  1  0  0  0  0
 12  3  1  0  0  0  0
 13  4  1  0  0  0  0
 16 24  1  0  0  0  0
 16 23  1  0  0  0  0
 17 19  1  0  0  0  0
 17 16  1  0  0  0  0
 18 28  1  0  0  0  0
 18 27  1  0  0  0  0
 18 17  1  0  0  0  0
 19 30  1  1  0  0  0
 19 20  1  0  0  0  0
 20 31  1  0  0  0  0
 20  6  1  0  0  0  0
 21 19  1  0  0  0  0
 22 21  2  0  0  0  0
 25 16  1  0  0  0  0
 26 17  1  0  0  0  0
 29 18  1  0  0  0  0
 32 45  1  0  0  0  0
 33 32  1  0  0  0  0
 34 33  1  0  0  0  0
 34 46  1  0  0  0  0
 35 34  2  0  0  0  0
 36 42  2  0  0  0  0
 36 35  1  0  0  0  0
 37 38  1  0  0  0  0
 37 36  1  0  0  0  0
 38 50  1  6  0  0  0
 38 40  1  0  0  0  0
 38 39  1  0  0  0  0
 39 21  1  0  0  0  0
 39 51  1  0  0  0  0
 40 41  1  0  0  0  0
 42 43  1  0  0  0  0
 43 53  1  0  0  0  0
 43 33  2  0  0  0  0
 44 40  2  0  0  0  0
 47 35  1  0  0  0  0
 48 37  1  0  0  0  0
 49 37  1  0  0  0  0
 52 42  1  0  0  0  0
M  END
$$$$
