PWD.pdb
 OpenBabel07022419063D

 53 55  0  0  1  0  0  0  0  0999 V2000
    2.6350   -1.5800    2.3940 N   0  0  0  0  0  0  0  0  0  0  0  0
    2.8580   -0.1790    2.6270 C   0  0  0  0  0  0  0  0  0  0  0  0
    1.9090    0.2410    3.7480 C   0  0  0  0  0  0  0  0  0  0  0  0
    1.2970   -1.0420    4.2110 C   0  0  0  0  0  0  0  0  0  0  0  0
    1.3770   -1.9170    2.9750 C   0  0  1  0  0  0  0  0  0  0  0  0
    0.2160   -1.6660    2.0810 C   0  0  0  0  0  0  0  0  0  0  0  0
   -0.9410   -1.8950    2.5080 O   0  0  0  0  0  0  0  0  0  0  0  0
    2.7800   -1.9010    1.4350 H   0  0  0  0  0  0  0  0  0  0  0  0
    2.6910    0.4230    1.7330 H   0  0  0  0  0  0  0  0  0  0  0  0
    3.9220   -0.0150    2.9740 H   0  0  0  0  0  0  0  0  0  0  0  0
    2.4910    0.7600    4.5380 H   0  0  0  0  0  0  0  0  0  0  0  0
    1.1480    0.9640    3.3850 H   0  0  0  0  0  0  0  0  0  0  0  0
    1.9080   -1.4830    5.0250 H   0  0  0  0  0  0  0  0  0  0  0  0
    0.2470   -0.8610    4.5240 H   0  0  0  0  0  0  0  0  0  0  0  0
    1.4060   -2.9980    3.2810 H   0  0  0  0  0  0  0  0  0  0  0  0
    0.3810   -1.1760    0.7540 N   0  0  0  0  0  0  0  0  0  0  0  0
   -0.7420   -0.9290   -0.1240 C   0  0  1  0  0  0  0  0  0  0  0  0
   -0.6310    0.4190   -0.7700 C   0  0  0  0  0  0  0  0  0  0  0  0
   -0.5940    1.5480    0.1720 C   0  0  0  0  0  0  0  0  0  0  0  0
    0.5110    2.3100    0.5610 C   0  0  0  0  0  0  0  0  0  0  0  0
    0.1050    3.2370    1.4300 N   0  0  0  0  0  0  0  0  0  0  0  0
   -1.2310    3.1330    1.6440 C   0  0  0  0  0  0  0  0  0  0  0  0
   -2.1100    3.8580    2.4500 C   0  0  0  0  0  0  0  0  0  0  0  0
   -3.4490    3.5340    2.4790 C   0  0  0  0  0  0  0  0  0  0  0  0
   -3.8640    2.4820    1.6910 C   0  0  0  0  0  0  0  0  0  0  0  0
   -3.0240    1.7610    0.8970 C   0  0  0  0  0  0  0  0  0  0  0  0
   -1.6610    2.0850    0.8620 C   0  0  0  0  0  0  0  0  0  0  0  0
   -0.6670   -1.9460   -1.2740 C   0  0  0  0  0  0  0  0  0  0  0  0
   -1.5750   -1.8690   -2.1300 O   0  0  0  0  0  0  0  0  0  0  0  0
    1.3290   -0.9730    0.3610 H   0  0  0  0  0  0  0  0  0  0  0  0
   -1.6930   -1.0950    0.3880 H   0  0  0  0  0  0  0  0  0  0  0  0
   -1.4560    0.5920   -1.4840 H   0  0  0  0  0  0  0  0  0  0  0  0
    0.3150    0.4440   -1.3610 H   0  0  0  0  0  0  0  0  0  0  0  0
    1.5150    2.1170    0.1740 H   0  0  0  0  0  0  0  0  0  0  0  0
    0.6910    3.9460    1.8930 H   0  0  0  0  0  0  0  0  0  0  0  0
   -1.7180    4.6680    3.0410 H   0  0  0  0  0  0  0  0  0  0  0  0
   -4.1640    4.0830    3.1000 H   0  0  0  0  0  0  0  0  0  0  0  0
   -4.9170    2.2370    1.7220 H   0  0  0  0  0  0  0  0  0  0  0  0
   -3.3180    0.9340    0.2700 H   0  0  0  0  0  0  0  0  0  0  0  0
    0.3750   -2.8740   -1.3080 N   0  0  0  0  0  0  0  0  0  0  0  0
    0.5890   -3.8890   -2.2710 C   0  0  1  0  0  0  0  0  0  0  0  0
   -0.5390   -3.9930   -3.2750 C   0  0  0  0  0  0  0  0  0  0  0  0
   -1.7760   -4.3900   -2.5770 C   0  0  0  0  0  0  0  0  0  0  0  0
   -2.9070   -4.4240   -3.1550 O   0  0  0  0  0  0  0  0  0  0  0  0
    1.8840   -3.7080   -2.9440 C   0  0  0  0  0  0  0  0  0  0  0  0
    2.6210   -2.7170   -2.6140 O   0  0  0  0  0  0  0  0  0  0  0  0
   -1.7200   -4.7450   -1.2370 O   0  0  0  0  0  0  0  0  0  0  0  0
    2.3720   -4.5530   -3.9310 O   0  0  0  0  0  0  0  0  0  0  0  0
    1.1080   -2.8010   -0.4860 H   0  0  0  0  0  0  0  0  0  0  0  0
    0.5770   -4.9210   -1.7290 H   0  0  0  0  0  0  0  0  0  0  0  0
   -0.6980   -3.0660   -3.8280 H   0  0  0  0  0  0  0  0  0  0  0  0
   -0.2910   -4.7980   -4.0380 H   0  0  0  0  0  0  0  0  0  0  0  0
   -2.5620   -4.7930   -0.6790 H   0  0  0  0  0  0  0  0  0  0  0  0
  1  2  1  0  0  0  0
  1  5  1  0  0  0  0
  2 10  1  0  0  0  0
  2  3  1  0  0  0  0
  3  4  1  0  0  0  0
  3 11  1  0  0  0  0
  4 14  1  0  0  0  0
  4 13  1  0  0  0  0
  5 15  1  1  0  0  0
  5  4  1  0  0  0  0
  6  7  2  0  0  0  0
  6  5  1  0  0  0  0
  8  1  1  0  0  0  0
  9  2  1  0  0  0  0
 12  3  1  0  0  0  0
 16  6  1  0  0  0  0
 17 31  1  1  0  0  0
 17 16  1  0  0  0  0
 18 17  1  0  0  0  0
 18 19  1  0  0  0  0
 19 20  2  0  0  0  0
 19 27  1  0  0  0  0
 20 21  1  0  0  0  0
 21 22  1  0  0  0  0
 21 35  1  0  0  0  0
 22 23  1  0  0  0  0
 23 24  2  0  0  0  0
 23 36  1  0  0  0  0
 24 37  1  0  0  0  0
 25 38  1  0  0  0  0
 25 24  1  0  0  0  0
 26 25  2  0  0  0  0
 27 26  1  0  0  0  0
 27 22  2  0  0  0  0
 28 17  1  0  0  0  0
 29 28  2  0  0  0  0
 30 16  1  0  0  0  0
 32 18  1  0  0  0  0
 33 18  1  0  0  0  0
 34 20  1  0  0  0  0
 39 26  1  0  0  0  0
 40 28  1  0  0  0  0
 40 49  1  0  0  0  0
 41 50  1  1  0  0  0
 41 40  1  0  0  0  0
 42 43  1  0  0  0  0
 42 41  1  0  0  0  0
 43 47  1  0  0  0  0
 44 43  2  0  0  0  0
 45 46  1  0  0  0  0
 45 41  1  0  0  0  0
 47 53  1  0  0  0  0
 48 45  2  0  0  0  0
 51 42  1  0  0  0  0
 52 42  1  0  0  0  0
M  END
$$$$
