PWE.pdb
 OpenBabel07022419063D

 56 58  0  0  1  0  0  0  0  0999 V2000
   -4.4800   -0.4340   -0.1090 N   0  0  0  0  0  0  0  0  0  0  0  0
   -5.0230    0.1500    1.0790 C   0  0  0  0  0  0  0  0  0  0  0  0
   -6.0350    1.1340    0.5860 C   0  0  0  0  0  0  0  0  0  0  0  0
   -5.4010    1.6750   -0.6770 C   0  0  0  0  0  0  0  0  0  0  0  0
   -4.5270    0.5480   -1.1500 C   0  0  1  0  0  0  0  0  0  0  0  0
   -3.1430    1.0770   -1.4380 C   0  0  0  0  0  0  0  0  0  0  0  0
   -2.9550    1.9420   -2.3290 O   0  0  0  0  0  0  0  0  0  0  0  0
   -4.8280   -1.3610   -0.3630 H   0  0  0  0  0  0  0  0  0  0  0  0
   -5.4810   -0.6410    1.7340 H   0  0  0  0  0  0  0  0  0  0  0  0
   -4.2420    0.7040    1.6570 H   0  0  0  0  0  0  0  0  0  0  0  0
   -6.9850    0.5840    0.3850 H   0  0  0  0  0  0  0  0  0  0  0  0
   -6.1910    1.9320    1.3430 H   0  0  0  0  0  0  0  0  0  0  0  0
   -4.8040    2.5570   -0.3640 H   0  0  0  0  0  0  0  0  0  0  0  0
   -6.2080    1.9240   -1.3680 H   0  0  0  0  0  0  0  0  0  0  0  0
   -4.9400    0.1150   -2.0610 H   0  0  0  0  0  0  0  0  0  0  0  0
   -2.0210    0.6160   -0.7140 N   0  0  0  0  0  0  0  0  0  0  0  0
   -0.6760    1.1240   -0.9880 C   0  0  1  0  0  0  0  0  0  0  0  0
   -0.1650    1.9560    0.1150 C   0  0  0  0  0  0  0  0  0  0  0  0
    1.1930    2.4690   -0.0900 C   0  0  0  0  0  0  0  0  0  0  0  0
    1.5370    3.6840   -0.6500 C   0  0  0  0  0  0  0  0  0  0  0  0
    2.8680    3.8130   -0.7150 N   0  0  0  0  0  0  0  0  0  0  0  0
    3.4060    2.6940   -0.2030 C   0  0  0  0  0  0  0  0  0  0  0  0
    4.7390    2.3270   -0.0220 C   0  0  0  0  0  0  0  0  0  0  0  0
    5.0400    1.1070    0.5570 C   0  0  0  0  0  0  0  0  0  0  0  0
    4.0550    0.2210    0.9720 C   0  0  0  0  0  0  0  0  0  0  0  0
    2.7580    0.6350    0.7670 C   0  0  0  0  0  0  0  0  0  0  0  0
    2.3910    1.8330    0.1980 C   0  0  0  0  0  0  0  0  0  0  0  0
    0.1240    0.0490   -1.5300 C   0  0  0  0  0  0  0  0  0  0  0  0
    1.2920    0.2830   -1.9340 O   0  0  0  0  0  0  0  0  0  0  0  0
   -2.1770   -0.1040    0.0260 H   0  0  0  0  0  0  0  0  0  0  0  0
   -0.8240    1.8520   -1.8590 H   0  0  0  0  0  0  0  0  0  0  0  0
   -0.8420    2.8720    0.1610 H   0  0  0  0  0  0  0  0  0  0  0  0
   -0.2520    1.4840    1.1250 H   0  0  0  0  0  0  0  0  0  0  0  0
    0.8060    4.4050   -0.9800 H   0  0  0  0  0  0  0  0  0  0  0  0
    3.3870    4.6290   -1.0950 H   0  0  0  0  0  0  0  0  0  0  0  0
    5.4910    3.0210   -0.3480 H   0  0  0  0  0  0  0  0  0  0  0  0
    6.1030    0.8760    0.6720 H   0  0  0  0  0  0  0  0  0  0  0  0
    4.3110   -0.7280    1.4220 H   0  0  0  0  0  0  0  0  0  0  0  0
    1.9630   -0.0230    1.0720 H   0  0  0  0  0  0  0  0  0  0  0  0
   -0.3040   -1.3070   -1.6550 N   0  0  0  0  0  0  0  0  0  0  0  0
    0.4960   -2.3680   -2.1910 C   0  0  1  0  0  0  0  0  0  0  0  0
    0.6220   -3.4460   -1.1390 C   0  0  0  0  0  0  0  0  0  0  0  0
    1.2770   -2.8260    0.0650 C   0  0  0  0  0  0  0  0  0  0  0  0
    1.4650   -3.7740    1.1700 C   0  0  0  0  0  0  0  0  0  0  0  0
    2.2130   -4.7870    1.0750 O   0  0  0  0  0  0  0  0  0  0  0  0
   -0.0530   -2.9040   -3.4660 C   0  0  0  0  0  0  0  0  0  0  0  0
   -1.1160   -2.3600   -3.8930 O   0  0  0  0  0  0  0  0  0  0  0  0
    0.7950   -3.5460    2.3610 O   0  0  0  0  0  0  0  0  0  0  0  0
    0.5040   -3.9200   -4.1850 O   0  0  0  0  0  0  0  0  0  0  0  0
   -1.2640   -1.5180   -1.3310 H   0  0  0  0  0  0  0  0  0  0  0  0
    1.5070   -1.9900   -2.4370 H   0  0  0  0  0  0  0  0  0  0  0  0
    1.2530   -4.2950   -1.5040 H   0  0  0  0  0  0  0  0  0  0  0  0
   -0.3830   -3.8200   -0.8480 H   0  0  0  0  0  0  0  0  0  0  0  0
    0.6510   -1.9970    0.3890 H   0  0  0  0  0  0  0  0  0  0  0  0
    2.2790   -2.4640   -0.2620 H   0  0  0  0  0  0  0  0  0  0  0  0
    0.7300   -4.2220    3.1060 H   0  0  0  0  0  0  0  0  0  0  0  0
  1  2  1  0  0  0  0
  2 10  1  0  0  0  0
  2  9  1  0  0  0  0
  3  2  1  0  0  0  0
  3 12  1  0  0  0  0
  4 13  1  0  0  0  0
  4  3  1  0  0  0  0
  5 15  1  6  0  0  0
  5  4  1  0  0  0  0
  5  1  1  0  0  0  0
  6  5  1  0  0  0  0
  6 16  1  0  0  0  0
  7  6  2  0  0  0  0
  8  1  1  0  0  0  0
 11  3  1  0  0  0  0
 14  4  1  0  0  0  0
 16 30  1  0  0  0  0
 17 31  1  6  0  0  0
 17 16  1  0  0  0  0
 17 18  1  0  0  0  0
 18 32  1  0  0  0  0
 18 33  1  0  0  0  0
 19 18  1  0  0  0  0
 19 27  1  0  0  0  0
 20 19  2  0  0  0  0
 21 20  1  0  0  0  0
 21 22  1  0  0  0  0
 22 23  2  0  0  0  0
 22 27  1  0  0  0  0
 23 24  1  0  0  0  0
 24 37  1  0  0  0  0
 24 25  2  0  0  0  0
 25 38  1  0  0  0  0
 26 25  1  0  0  0  0
 26 39  1  0  0  0  0
 27 26  2  0  0  0  0
 28 17  1  0  0  0  0
 29 28  2  0  0  0  0
 34 20  1  0  0  0  0
 35 21  1  0  0  0  0
 36 23  1  0  0  0  0
 40 28  1  0  0  0  0
 40 50  1  0  0  0  0
 41 51  1  6  0  0  0
 41 40  1  0  0  0  0
 41 42  1  0  0  0  0
 42 53  1  0  0  0  0
 42 43  1  0  0  0  0
 43 54  1  0  0  0  0
 43 44  1  0  0  0  0
 44 48  1  0  0  0  0
 45 44  2  0  0  0  0
 46 41  1  0  0  0  0
 47 46  1  0  0  0  0
 48 56  1  0  0  0  0
 49 46  2  0  0  0  0
 52 42  1  0  0  0  0
 55 43  1  0  0  0  0
M  END
$$$$
