PWF.pdb
 OpenBabel07022419063D

 60 63  0  0  1  0  0  0  0  0999 V2000
    1.9630   -1.4380    3.5820 N   0  0  0  0  0  0  0  0  0  0  0  0
    2.9660   -1.8790    4.5660 C   0  0  0  0  0  0  0  0  0  0  0  0
    3.8470   -0.6480    4.6290 C   0  0  0  0  0  0  0  0  0  0  0  0
    2.8230    0.4630    4.7000 C   0  0  0  0  0  0  0  0  0  0  0  0
    1.6150   -0.1140    4.0560 C   0  0  1  0  0  0  0  0  0  0  0  0
    1.0940    0.6720    2.9070 C   0  0  0  0  0  0  0  0  0  0  0  0
    0.7090    1.8770    3.0380 O   0  0  0  0  0  0  0  0  0  0  0  0
    1.1420   -2.0690    3.7250 H   0  0  0  0  0  0  0  0  0  0  0  0
    2.5280   -2.1400    5.5270 H   0  0  0  0  0  0  0  0  0  0  0  0
    3.5440   -2.6950    4.0830 H   0  0  0  0  0  0  0  0  0  0  0  0
    4.4010   -0.7080    5.5920 H   0  0  0  0  0  0  0  0  0  0  0  0
    4.5180   -0.5710    3.7610 H   0  0  0  0  0  0  0  0  0  0  0  0
    3.2270    1.3240    4.1270 H   0  0  0  0  0  0  0  0  0  0  0  0
    2.6470    0.7940    5.7590 H   0  0  0  0  0  0  0  0  0  0  0  0
    0.7930   -0.2370    4.8200 H   0  0  0  0  0  0  0  0  0  0  0  0
    0.9850    0.1460    1.5950 N   0  0  0  0  0  0  0  0  0  0  0  0
    0.4840    0.8660    0.4420 C   0  0  1  0  0  0  0  0  0  0  0  0
    1.5150    1.2060   -0.5550 C   0  0  0  0  0  0  0  0  0  0  0  0
    0.9840    1.8970   -1.7340 C   0  0  0  0  0  0  0  0  0  0  0  0
    0.8780    3.2780   -1.9130 C   0  0  0  0  0  0  0  0  0  0  0  0
    0.3110    3.5420   -3.1000 N   0  0  0  0  0  0  0  0  0  0  0  0
    0.0390    2.3990   -3.7140 C   0  0  0  0  0  0  0  0  0  0  0  0
   -0.5150    2.1460   -4.9300 C   0  0  0  0  0  0  0  0  0  0  0  0
   -0.6970    0.8510   -5.4010 C   0  0  0  0  0  0  0  0  0  0  0  0
   -0.2860   -0.1740   -4.5700 C   0  0  0  0  0  0  0  0  0  0  0  0
    0.2750    0.0580   -3.3400 C   0  0  0  0  0  0  0  0  0  0  0  0
    0.4400    1.3580   -2.9030 C   0  0  0  0  0  0  0  0  0  0  0  0
   -0.8010    0.3540   -0.0500 C   0  0  0  0  0  0  0  0  0  0  0  0
   -1.4490    0.9620   -0.9380 O   0  0  0  0  0  0  0  0  0  0  0  0
    1.3060   -0.8620    1.4790 H   0  0  0  0  0  0  0  0  0  0  0  0
    0.2040    1.8840    0.8990 H   0  0  0  0  0  0  0  0  0  0  0  0
    2.1420    0.3450   -0.8870 H   0  0  0  0  0  0  0  0  0  0  0  0
    2.3040    1.9120   -0.1370 H   0  0  0  0  0  0  0  0  0  0  0  0
    1.2290    3.9800   -1.1490 H   0  0  0  0  0  0  0  0  0  0  0  0
    0.1400    4.5240   -3.4280 H   0  0  0  0  0  0  0  0  0  0  0  0
   -0.8370    2.9670   -5.5810 H   0  0  0  0  0  0  0  0  0  0  0  0
   -1.1350    0.7040   -6.3610 H   0  0  0  0  0  0  0  0  0  0  0  0
   -0.4100   -1.2030   -4.9050 H   0  0  0  0  0  0  0  0  0  0  0  0
    0.6000   -0.7320   -2.6790 H   0  0  0  0  0  0  0  0  0  0  0  0
   -1.3980   -0.8500    0.4350 N   0  0  0  0  0  0  0  0  0  0  0  0
   -2.6500   -1.3070   -0.0730 C   0  0  1  0  0  0  0  0  0  0  0  0
   -2.5710   -2.6400   -0.7630 C   0  0  0  0  0  0  0  0  0  0  0  0
   -2.0960   -3.7310    0.0930 C   0  0  0  0  0  0  0  0  0  0  0  0
   -0.7470   -3.9820    0.1520 C   0  0  0  0  0  0  0  0  0  0  0  0
   -0.2630   -4.9980    0.9440 C   0  0  0  0  0  0  0  0  0  0  0  0
   -1.1030   -5.7920    1.6990 C   0  0  0  0  0  0  0  0  0  0  0  0
   -2.4480   -5.5130    1.6160 C   0  0  0  0  0  0  0  0  0  0  0  0
   -2.9540   -4.5040    0.8320 C   0  0  0  0  0  0  0  0  0  0  0  0
   -3.7110   -1.3470    0.9840 C   0  0  0  0  0  0  0  0  0  0  0  0
   -3.5180   -1.0230    2.1620 O   0  0  0  0  0  0  0  0  0  0  0  0
   -4.9700   -1.7720    0.6020 O   0  0  0  0  0  0  0  0  0  0  0  0
   -0.8590   -1.3560    1.1730 H   0  0  0  0  0  0  0  0  0  0  0  0
   -3.0090   -0.5840   -0.8330 H   0  0  0  0  0  0  0  0  0  0  0  0
   -3.6090   -2.8940   -1.0980 H   0  0  0  0  0  0  0  0  0  0  0  0
   -1.9610   -2.5710   -1.6860 H   0  0  0  0  0  0  0  0  0  0  0  0
   -0.0270   -3.3750   -0.4330 H   0  0  0  0  0  0  0  0  0  0  0  0
    0.8220   -5.1810    0.9750 H   0  0  0  0  0  0  0  0  0  0  0  0
   -0.7010   -6.5990    2.3260 H   0  0  0  0  0  0  0  0  0  0  0  0
   -3.1250   -6.1370    2.2100 H   0  0  0  0  0  0  0  0  0  0  0  0
   -4.0380   -4.3480    0.8220 H   0  0  0  0  0  0  0  0  0  0  0  0
  1  8  1  0  0  0  0
  1  5  1  0  0  0  0
  1  2  1  0  0  0  0
  2  3  1  0  0  0  0
  2  9  1  0  0  0  0
  3  4  1  0  0  0  0
  3 11  1  0  0  0  0
  4 14  1  0  0  0  0
  5  4  1  0  0  0  0
  5 15  1  1  0  0  0
  6  7  2  0  0  0  0
  6  5  1  0  0  0  0
 10  2  1  0  0  0  0
 12  3  1  0  0  0  0
 13  4  1  0  0  0  0
 16  6  1  0  0  0  0
 17 31  1  1  0  0  0
 17 16  1  0  0  0  0
 18 33  1  0  0  0  0
 18 17  1  0  0  0  0
 19 18  1  0  0  0  0
 20 19  2  0  0  0  0
 20 34  1  0  0  0  0
 21 20  1  0  0  0  0
 22 21  1  0  0  0  0
 22 27  1  0  0  0  0
 23 22  2  0  0  0  0
 24 23  1  0  0  0  0
 24 25  2  0  0  0  0
 25 26  1  0  0  0  0
 26 27  2  0  0  0  0
 26 39  1  0  0  0  0
 27 19  1  0  0  0  0
 28 40  1  0  0  0  0
 28 17  1  0  0  0  0
 29 28  2  0  0  0  0
 30 16  1  0  0  0  0
 32 18  1  0  0  0  0
 35 21  1  0  0  0  0
 36 23  1  0  0  0  0
 37 24  1  0  0  0  0
 38 25  1  0  0  0  0
 40 52  1  0  0  0  0
 41 53  1  6  0  0  0
 41 40  1  0  0  0  0
 41 49  1  0  0  0  0
 42 41  1  0  0  0  0
 42 43  1  0  0  0  0
 43 44  2  0  0  0  0
 43 48  1  0  0  0  0
 44 45  1  0  0  0  0
 45 57  1  0  0  0  0
 45 46  2  0  0  0  0
 46 58  1  0  0  0  0
 47 46  1  0  0  0  0
 47 59  1  0  0  0  0
 48 47  2  0  0  0  0
 49 50  1  0  0  0  0
 51 49  2  0  0  0  0
 54 42  1  0  0  0  0
 55 42  1  0  0  0  0
 56 44  1  0  0  0  0
 60 48  1  0  0  0  0
M  END
$$$$
