PWH.pdb
 OpenBabel07022419063D

 57 60  0  0  1  0  0  0  0  0999 V2000
    5.1250    0.1700    1.2710 N   0  0  0  0  0  0  0  0  0  0  0  0
    4.9030    1.5360    1.6500 C   0  0  0  0  0  0  0  0  0  0  0  0
    4.6070    1.5760    3.1360 C   0  0  0  0  0  0  0  0  0  0  0  0
    5.0560    0.1930    3.5720 C   0  0  0  0  0  0  0  0  0  0  0  0
    4.6280   -0.6130    2.3620 C   0  0  1  0  0  0  0  0  0  0  0  0
    3.1350   -0.7330    2.3590 C   0  0  0  0  0  0  0  0  0  0  0  0
    2.5400   -1.3310    3.3130 O   0  0  0  0  0  0  0  0  0  0  0  0
    4.6680   -0.0850    0.3870 H   0  0  0  0  0  0  0  0  0  0  0  0
    4.1060    2.0600    1.0880 H   0  0  0  0  0  0  0  0  0  0  0  0
    5.8320    2.1570    1.4810 H   0  0  0  0  0  0  0  0  0  0  0  0
    5.1500    2.3700    3.6610 H   0  0  0  0  0  0  0  0  0  0  0  0
    3.5160    1.6830    3.3140 H   0  0  0  0  0  0  0  0  0  0  0  0
    6.1610    0.2290    3.6170 H   0  0  0  0  0  0  0  0  0  0  0  0
    4.5830   -0.1540    4.4980 H   0  0  0  0  0  0  0  0  0  0  0  0
    5.0920   -1.6350    2.3920 H   0  0  0  0  0  0  0  0  0  0  0  0
    2.2980   -0.2220    1.3500 N   0  0  0  0  0  0  0  0  0  0  0  0
    0.8150   -0.3570    1.3960 C   0  0  1  0  0  0  0  0  0  0  0  0
    0.3370    1.0380    1.5810 C   0  0  0  0  0  0  0  0  0  0  0  0
   -1.0880    1.2940    1.6310 C   0  0  0  0  0  0  0  0  0  0  0  0
   -1.8950    1.4080    2.7330 C   0  0  0  0  0  0  0  0  0  0  0  0
   -3.1630    1.6330    2.3670 N   0  0  0  0  0  0  0  0  0  0  0  0
   -3.1810    1.6650    1.0160 C   0  0  0  0  0  0  0  0  0  0  0  0
   -4.2300    1.8780    0.1070 C   0  0  0  0  0  0  0  0  0  0  0  0
   -4.0050    1.8830   -1.2520 C   0  0  0  0  0  0  0  0  0  0  0  0
   -2.7200    1.6730   -1.7090 C   0  0  0  0  0  0  0  0  0  0  0  0
   -1.6790    1.4620   -0.8380 C   0  0  0  0  0  0  0  0  0  0  0  0
   -1.9180    1.4590    0.5260 C   0  0  0  0  0  0  0  0  0  0  0  0
    0.3260   -1.1250    0.2760 C   0  0  0  0  0  0  0  0  0  0  0  0
    1.1240   -1.3750   -0.6930 O   0  0  0  0  0  0  0  0  0  0  0  0
    2.6940    0.2690    0.5250 H   0  0  0  0  0  0  0  0  0  0  0  0
    0.6010   -0.9000    2.3740 H   0  0  0  0  0  0  0  0  0  0  0  0
    0.8150    1.4950    2.5080 H   0  0  0  0  0  0  0  0  0  0  0  0
    0.7510    1.7260    0.7710 H   0  0  0  0  0  0  0  0  0  0  0  0
   -1.6120    1.3370    3.7960 H   0  0  0  0  0  0  0  0  0  0  0  0
   -4.0150    1.7650    2.9770 H   0  0  0  0  0  0  0  0  0  0  0  0
   -5.2120    2.0360    0.5310 H   0  0  0  0  0  0  0  0  0  0  0  0
   -4.8460    2.0520   -1.9260 H   0  0  0  0  0  0  0  0  0  0  0  0
   -2.5670    1.6820   -2.7990 H   0  0  0  0  0  0  0  0  0  0  0  0
   -0.6690    1.2960   -1.1840 H   0  0  0  0  0  0  0  0  0  0  0  0
   -0.9760   -1.6470    0.1450 N   0  0  0  0  0  0  0  0  0  0  0  0
   -1.3500   -2.4380   -1.0630 C   0  0  1  0  0  0  0  0  0  0  0  0
   -1.4290   -3.8990   -0.6290 C   0  0  0  0  0  0  0  0  0  0  0  0
   -1.7040   -4.8320   -1.7280 C   0  0  0  0  0  0  0  0  0  0  0  0
   -1.7670   -4.6320   -3.0690 C   0  0  0  0  0  0  0  0  0  0  0  0
   -1.9900   -5.8190   -3.6900 N   0  0  0  0  0  0  0  0  0  0  0  0
   -2.0650   -6.7530   -2.7490 C   0  0  0  0  0  0  0  0  0  0  0  0
   -1.8950   -6.1720   -1.5670 N   0  0  0  0  0  0  0  0  0  0  0  0
   -2.7450   -2.0540   -1.3690 C   0  0  0  0  0  0  0  0  0  0  0  0
   -3.4130   -2.4000   -2.3650 O   0  0  0  0  0  0  0  0  0  0  0  0
   -3.4180   -1.2130   -0.4550 O   0  0  0  0  0  0  0  0  0  0  0  0
   -1.6620   -1.4670    0.9040 H   0  0  0  0  0  0  0  0  0  0  0  0
   -0.6950   -2.2820   -1.8870 H   0  0  0  0  0  0  0  0  0  0  0  0
   -2.2710   -4.0080    0.1150 H   0  0  0  0  0  0  0  0  0  0  0  0
   -0.5230   -4.2120   -0.0640 H   0  0  0  0  0  0  0  0  0  0  0  0
   -1.6470   -3.7370   -3.6350 H   0  0  0  0  0  0  0  0  0  0  0  0
   -2.0820   -5.9510   -4.7150 H   0  0  0  0  0  0  0  0  0  0  0  0
   -2.2410   -7.8110   -2.9810 H   0  0  0  0  0  0  0  0  0  0  0  0
  1  2  1  0  0  0  0
  1  5  1  0  0  0  0
  2  3  1  0  0  0  0
  3 12  1  0  0  0  0
  3  4  1  0  0  0  0
  3 11  1  0  0  0  0
  4 13  1  0  0  0  0
  4 14  1  0  0  0  0
  5 15  1  1  0  0  0
  5  4  1  0  0  0  0
  6  5  1  0  0  0  0
  6  7  2  0  0  0  0
  8  1  1  0  0  0  0
  9  2  1  0  0  0  0
 10  2  1  0  0  0  0
 16 17  1  0  0  0  0
 16  6  1  0  0  0  0
 17 18  1  0  0  0  0
 17 31  1  1  0  0  0
 18 19  1  0  0  0  0
 18 32  1  0  0  0  0
 19 20  2  0  0  0  0
 20 34  1  0  0  0  0
 21 20  1  0  0  0  0
 21 35  1  0  0  0  0
 22 21  1  0  0  0  0
 23 36  1  0  0  0  0
 23 22  2  0  0  0  0
 24 23  1  0  0  0  0
 25 24  2  0  0  0  0
 25 26  1  0  0  0  0
 26 27  2  0  0  0  0
 27 22  1  0  0  0  0
 27 19  1  0  0  0  0
 28 17  1  0  0  0  0
 29 28  2  0  0  0  0
 30 16  1  0  0  0  0
 33 18  1  0  0  0  0
 37 24  1  0  0  0  0
 38 25  1  0  0  0  0
 39 26  1  0  0  0  0
 40 28  1  0  0  0  0
 40 51  1  0  0  0  0
 41 52  1  6  0  0  0
 41 42  1  0  0  0  0
 41 40  1  0  0  0  0
 42 54  1  0  0  0  0
 42 53  1  0  0  0  0
 43 47  1  0  0  0  0
 43 42  1  0  0  0  0
 44 43  2  0  0  0  0
 45 44  1  0  0  0  0
 45 46  1  0  0  0  0
 46 47  2  0  0  0  0
 48 41  1  0  0  0  0
 48 50  1  0  0  0  0
 49 48  2  0  0  0  0
 55 44  1  0  0  0  0
 56 45  1  0  0  0  0
 57 46  1  0  0  0  0
M  END
$$$$
