PWI.pdb
 OpenBabel07022419063D

 59 61  0  0  1  0  0  0  0  0999 V2000
    1.6270   -0.2960    4.5200 N   0  0  0  0  0  0  0  0  0  0  0  0
    1.4630    0.8420    5.3840 C   0  0  0  0  0  0  0  0  0  0  0  0
    0.5850    1.8040    4.5820 C   0  0  0  0  0  0  0  0  0  0  0  0
   -0.3710    0.8360    3.9220 C   0  0  0  0  0  0  0  0  0  0  0  0
    0.4910   -0.3570    3.6460 C   0  0  1  0  0  0  0  0  0  0  0  0
    0.8920   -0.4660    2.2130 C   0  0  0  0  0  0  0  0  0  0  0  0
    2.1120   -0.4910    1.9520 O   0  0  0  0  0  0  0  0  0  0  0  0
    1.6680   -1.1720    5.1210 H   0  0  0  0  0  0  0  0  0  0  0  0
    0.8750    0.5340    6.2830 H   0  0  0  0  0  0  0  0  0  0  0  0
    2.4380    1.2980    5.6460 H   0  0  0  0  0  0  0  0  0  0  0  0
    1.1720    2.3510    3.8210 H   0  0  0  0  0  0  0  0  0  0  0  0
    0.0720    2.4970    5.2780 H   0  0  0  0  0  0  0  0  0  0  0  0
   -1.1670    0.5970    4.6780 H   0  0  0  0  0  0  0  0  0  0  0  0
   -0.8890    1.2450    3.0530 H   0  0  0  0  0  0  0  0  0  0  0  0
   -0.1160   -1.2670    3.8670 H   0  0  0  0  0  0  0  0  0  0  0  0
   -0.0540   -0.5390    1.1890 N   0  0  0  0  0  0  0  0  0  0  0  0
    0.1400   -0.6290   -0.2160 C   0  0  1  0  0  0  0  0  0  0  0  0
    1.3420    0.2250   -0.6480 C   0  0  0  0  0  0  0  0  0  0  0  0
    1.0220    1.6300   -0.2940 C   0  0  0  0  0  0  0  0  0  0  0  0
    1.4680    2.4170    0.7300 C   0  0  0  0  0  0  0  0  0  0  0  0
    0.9050    3.6360    0.6540 N   0  0  0  0  0  0  0  0  0  0  0  0
    0.0810    3.7100   -0.3980 C   0  0  0  0  0  0  0  0  0  0  0  0
   -0.7170    4.7150   -0.9090 C   0  0  0  0  0  0  0  0  0  0  0  0
   -1.4850    4.5290   -2.0390 C   0  0  0  0  0  0  0  0  0  0  0  0
   -1.4360    3.2970   -2.6530 C   0  0  0  0  0  0  0  0  0  0  0  0
   -0.6240    2.2840   -2.1280 C   0  0  0  0  0  0  0  0  0  0  0  0
    0.1410    2.4710   -1.0010 C   0  0  0  0  0  0  0  0  0  0  0  0
    0.1680   -1.9800   -0.7800 C   0  0  0  0  0  0  0  0  0  0  0  0
    0.3320   -2.0960   -2.0040 O   0  0  0  0  0  0  0  0  0  0  0  0
   -1.0690   -0.5280    1.5260 H   0  0  0  0  0  0  0  0  0  0  0  0
   -0.7170    0.0120   -0.6610 H   0  0  0  0  0  0  0  0  0  0  0  0
    2.2830   -0.0770   -0.2210 H   0  0  0  0  0  0  0  0  0  0  0  0
    1.3770    0.2300   -1.7860 H   0  0  0  0  0  0  0  0  0  0  0  0
    2.1780    2.1350    1.5050 H   0  0  0  0  0  0  0  0  0  0  0  0
    1.0930    4.4020    1.3260 H   0  0  0  0  0  0  0  0  0  0  0  0
   -0.7730    5.6920   -0.4440 H   0  0  0  0  0  0  0  0  0  0  0  0
   -2.1170    5.3210   -2.4450 H   0  0  0  0  0  0  0  0  0  0  0  0
   -2.0190    3.0940   -3.5450 H   0  0  0  0  0  0  0  0  0  0  0  0
   -0.5780    1.3120   -2.6160 H   0  0  0  0  0  0  0  0  0  0  0  0
   -2.6570   -3.0630   -1.1920 C   0  0  0  0  0  0  0  0  0  0  0  0
   -2.2190   -4.4230   -1.5640 C   0  0  0  0  0  0  0  0  0  0  0  0
   -0.7750   -4.7270   -1.6280 C   0  0  2  0  0  0  0  0  0  0  0  0
   -0.6640   -6.2120   -2.0390 C   0  0  0  0  0  0  0  0  0  0  0  0
    0.0180   -4.4850   -0.3750 C   0  0  2  0  0  0  0  0  0  0  0  0
    0.0140   -3.1110    0.0440 N   0  0  0  0  0  0  0  0  0  0  0  0
    1.3440   -5.0990   -0.3670 C   0  0  0  0  0  0  0  0  0  0  0  0
    2.4010   -4.4900   -0.0430 O   0  0  0  0  0  0  0  0  0  0  0  0
    1.4960   -6.4200   -0.7260 O   0  0  0  0  0  0  0  0  0  0  0  0
   -2.4640   -2.7980   -0.1330 H   0  0  0  0  0  0  0  0  0  0  0  0
   -2.4110   -2.2730   -1.9160 H   0  0  0  0  0  0  0  0  0  0  0  0
   -3.8020   -3.0950   -1.2330 H   0  0  0  0  0  0  0  0  0  0  0  0
   -2.6440   -4.6320   -2.5960 H   0  0  0  0  0  0  0  0  0  0  0  0
   -2.7940   -5.1470   -0.9200 H   0  0  0  0  0  0  0  0  0  0  0  0
   -0.2980   -4.1910   -2.4680 H   0  0  0  0  0  0  0  0  0  0  0  0
   -0.7500   -6.8710   -1.1670 H   0  0  0  0  0  0  0  0  0  0  0  0
   -1.5340   -6.3820   -2.7290 H   0  0  0  0  0  0  0  0  0  0  0  0
    0.2260   -6.3500   -2.6590 H   0  0  0  0  0  0  0  0  0  0  0  0
   -0.5920   -5.0350    0.4430 H   0  0  0  0  0  0  0  0  0  0  0  0
   -0.1150   -2.8700    1.0860 H   0  0  0  0  0  0  0  0  0  0  0  0
  1  8  1  0  0  0  0
  1  2  1  0  0  0  0
  2 10  1  0  0  0  0
  2  9  1  0  0  0  0
  3 12  1  0  0  0  0
  3  2  1  0  0  0  0
  4  3  1  0  0  0  0
  4 13  1  0  0  0  0
  5 15  1  1  0  0  0
  5  4  1  0  0  0  0
  5  1  1  0  0  0  0
  6  5  1  0  0  0  0
  7  6  2  0  0  0  0
 11  3  1  0  0  0  0
 14  4  1  0  0  0  0
 16 30  1  0  0  0  0
 16  6  1  0  0  0  0
 17 31  1  6  0  0  0
 17 16  1  0  0  0  0
 18 19  1  0  0  0  0
 18 32  1  0  0  0  0
 18 17  1  0  0  0  0
 19 20  2  0  0  0  0
 20 34  1  0  0  0  0
 21 20  1  0  0  0  0
 21 35  1  0  0  0  0
 22 21  1  0  0  0  0
 23 36  1  0  0  0  0
 23 22  1  0  0  0  0
 24 23  2  0  0  0  0
 25 26  2  0  0  0  0
 25 24  1  0  0  0  0
 26 27  1  0  0  0  0
 27 22  2  0  0  0  0
 27 19  1  0  0  0  0
 28 17  1  0  0  0  0
 28 45  1  0  0  0  0
 29 28  2  0  0  0  0
 33 18  1  0  0  0  0
 37 24  1  0  0  0  0
 38 25  1  0  0  0  0
 39 26  1  0  0  0  0
 40 49  1  0  0  0  0
 41 40  1  0  0  0  0
 41 53  1  0  0  0  0
 42 54  1  6  0  0  0
 42 41  1  0  0  0  0
 42 44  1  0  0  0  0
 43 42  1  0  0  0  0
 43 55  1  0  0  0  0
 44 46  1  0  0  0  0
 44 45  1  0  0  0  0
 44 58  1  1  0  0  0
 45 59  1  0  0  0  0
 46 47  1  0  0  0  0
 48 46  2  0  0  0  0
 50 40  1  0  0  0  0
 51 40  1  0  0  0  0
 52 41  1  0  0  0  0
 56 43  1  0  0  0  0
 57 43  1  0  0  0  0
M  END
$$$$
