PWK.pdb
 OpenBabel07022419063D

 61 63  0  0  1  0  0  0  0  0999 V2000
    3.7170    2.0890    2.8660 N   0  0  0  0  0  0  0  0  0  0  0  0
    3.3460    1.8600    4.2240 C   0  0  0  0  0  0  0  0  0  0  0  0
    3.6230    0.3840    4.5160 C   0  0  0  0  0  0  0  0  0  0  0  0
    4.7430    0.1080    3.5250 C   0  0  0  0  0  0  0  0  0  0  0  0
    4.2280    0.8940    2.3080 C   0  0  1  0  0  0  0  0  0  0  0  0
    3.2610    0.0130    1.6310 C   0  0  0  0  0  0  0  0  0  0  0  0
    3.6610   -1.0980    1.1370 O   0  0  0  0  0  0  0  0  0  0  0  0
    2.9230    2.5040    2.3550 H   0  0  0  0  0  0  0  0  0  0  0  0
    4.0310    2.4200    4.9160 H   0  0  0  0  0  0  0  0  0  0  0  0
    2.3360    2.1680    4.5030 H   0  0  0  0  0  0  0  0  0  0  0  0
    2.7270   -0.2190    4.2200 H   0  0  0  0  0  0  0  0  0  0  0  0
    3.9330    0.2180    5.5550 H   0  0  0  0  0  0  0  0  0  0  0  0
    4.8390   -0.9510    3.2750 H   0  0  0  0  0  0  0  0  0  0  0  0
    5.6830    0.5580    3.9030 H   0  0  0  0  0  0  0  0  0  0  0  0
    5.1120    1.1140    1.6450 H   0  0  0  0  0  0  0  0  0  0  0  0
    1.8680    0.2800    1.4610 N   0  0  0  0  0  0  0  0  0  0  0  0
    0.9970   -0.6590    0.7780 C   0  0  1  0  0  0  0  0  0  0  0  0
   -0.1800   -0.9850    1.6070 C   0  0  0  0  0  0  0  0  0  0  0  0
   -1.0690    0.1130    1.9750 C   0  0  0  0  0  0  0  0  0  0  0  0
   -1.1010    1.4130    1.5210 C   0  0  0  0  0  0  0  0  0  0  0  0
   -2.1160    2.0970    2.1240 N   0  0  0  0  0  0  0  0  0  0  0  0
   -2.7310    1.2410    2.9580 C   0  0  0  0  0  0  0  0  0  0  0  0
   -3.8180    1.4500    3.8000 C   0  0  0  0  0  0  0  0  0  0  0  0
   -4.2950    0.4240    4.5860 C   0  0  0  0  0  0  0  0  0  0  0  0
   -3.6620   -0.8220    4.5130 C   0  0  0  0  0  0  0  0  0  0  0  0
   -2.5830   -1.0220    3.6740 C   0  0  0  0  0  0  0  0  0  0  0  0
   -2.1060    0.0030    2.8900 C   0  0  0  0  0  0  0  0  0  0  0  0
    0.6660   -0.2000   -0.5940 C   0  0  0  0  0  0  0  0  0  0  0  0
    1.1200    0.8280   -1.1440 O   0  0  0  0  0  0  0  0  0  0  0  0
    1.5210    1.1780    1.8570 H   0  0  0  0  0  0  0  0  0  0  0  0
    1.5950   -1.6070    0.6230 H   0  0  0  0  0  0  0  0  0  0  0  0
    0.1730   -1.4890    2.5480 H   0  0  0  0  0  0  0  0  0  0  0  0
   -0.8000   -1.7860    1.1110 H   0  0  0  0  0  0  0  0  0  0  0  0
   -0.4600    1.9010    0.7970 H   0  0  0  0  0  0  0  0  0  0  0  0
   -2.3590    3.0970    1.9570 H   0  0  0  0  0  0  0  0  0  0  0  0
   -4.3220    2.4030    3.8710 H   0  0  0  0  0  0  0  0  0  0  0  0
   -5.1430    0.6110    5.2330 H   0  0  0  0  0  0  0  0  0  0  0  0
   -4.0460   -1.6060    5.1300 H   0  0  0  0  0  0  0  0  0  0  0  0
   -2.1460   -2.0080    3.6710 H   0  0  0  0  0  0  0  0  0  0  0  0
   -0.2560   -0.9740   -1.4010 N   0  0  0  0  0  0  0  0  0  0  0  0
   -0.5900   -0.5510   -2.7410 C   0  0  1  0  0  0  0  0  0  0  0  0
   -0.3130   -1.6920   -3.6830 C   0  0  0  0  0  0  0  0  0  0  0  0
   -1.1530   -2.9090   -3.3580 C   0  0  0  0  0  0  0  0  0  0  0  0
   -0.8560   -4.0410   -4.3250 C   0  0  0  0  0  0  0  0  0  0  0  0
   -1.6880   -5.2510   -4.0490 C   0  0  0  0  0  0  0  0  0  0  0  0
   -3.1100   -4.9850   -4.1660 N   0  0  0  0  0  0  0  0  0  0  0  0
   -2.0270   -0.1650   -2.8430 C   0  0  0  0  0  0  0  0  0  0  0  0
   -2.7820   -0.2130   -1.8440 O   0  0  0  0  0  0  0  0  0  0  0  0
   -2.5660    0.2570   -4.0500 O   0  0  0  0  0  0  0  0  0  0  0  0
   -0.6550   -1.8310   -0.9710 H   0  0  0  0  0  0  0  0  0  0  0  0
   -0.0150    0.3420   -3.0540 H   0  0  0  0  0  0  0  0  0  0  0  0
    0.7480   -2.0210   -3.4520 H   0  0  0  0  0  0  0  0  0  0  0  0
   -0.3950   -1.4030   -4.7410 H   0  0  0  0  0  0  0  0  0  0  0  0
   -2.2210   -2.6120   -3.5110 H   0  0  0  0  0  0  0  0  0  0  0  0
   -1.0420   -3.2530   -2.3170 H   0  0  0  0  0  0  0  0  0  0  0  0
   -0.9390   -3.7340   -5.3700 H   0  0  0  0  0  0  0  0  0  0  0  0
    0.2020   -4.3230   -4.1540 H   0  0  0  0  0  0  0  0  0  0  0  0
   -1.4550   -5.6920   -3.0480 H   0  0  0  0  0  0  0  0  0  0  0  0
   -1.4510   -6.0230   -4.8040 H   0  0  0  0  0  0  0  0  0  0  0  0
   -3.3160   -4.0580   -4.5480 H   0  0  0  0  0  0  0  0  0  0  0  0
   -3.5920   -5.2550   -3.2960 H   0  0  0  0  0  0  0  0  0  0  0  0
  1  2  1  0  0  0  0
  2 10  1  0  0  0  0
  2  3  1  0  0  0  0
  2  9  1  0  0  0  0
  3 12  1  0  0  0  0
  4 14  1  0  0  0  0
  4  3  1  0  0  0  0
  5 15  1  6  0  0  0
  5  1  1  0  0  0  0
  5  4  1  0  0  0  0
  6  5  1  0  0  0  0
  7  6  2  0  0  0  0
  8  1  1  0  0  0  0
 11  3  1  0  0  0  0
 13  4  1  0  0  0  0
 16  6  1  0  0  0  0
 16 30  1  0  0  0  0
 17 31  1  6  0  0  0
 17 16  1  0  0  0  0
 17 18  1  0  0  0  0
 18 19  1  0  0  0  0
 18 32  1  0  0  0  0
 19 27  1  0  0  0  0
 20 19  2  0  0  0  0
 20 21  1  0  0  0  0
 21 22  1  0  0  0  0
 22 23  1  0  0  0  0
 23 36  1  0  0  0  0
 23 24  2  0  0  0  0
 24 37  1  0  0  0  0
 25 24  1  0  0  0  0
 25 38  1  0  0  0  0
 26 25  2  0  0  0  0
 27 22  2  0  0  0  0
 27 26  1  0  0  0  0
 28 17  1  0  0  0  0
 29 28  2  0  0  0  0
 33 18  1  0  0  0  0
 34 20  1  0  0  0  0
 35 21  1  0  0  0  0
 39 26  1  0  0  0  0
 40 50  1  0  0  0  0
 40 28  1  0  0  0  0
 41 51  1  6  0  0  0
 41 40  1  0  0  0  0
 42 52  1  0  0  0  0
 42 43  1  0  0  0  0
 42 41  1  0  0  0  0
 43 55  1  0  0  0  0
 44 57  1  0  0  0  0
 44 45  1  0  0  0  0
 44 43  1  0  0  0  0
 45 58  1  0  0  0  0
 46 45  1  0  0  0  0
 46 61  1  0  0  0  0
 47 41  1  0  0  0  0
 47 48  1  0  0  0  0
 49 47  2  0  0  0  0
 53 42  1  0  0  0  0
 54 43  1  0  0  0  0
 56 44  1  0  0  0  0
 59 45  1  0  0  0  0
 60 46  1  0  0  0  0
M  END
$$$$
