PWL.pdb
 OpenBabel07022419063D

 59 61  0  0  1  0  0  0  0  0999 V2000
    0.1340    0.6780    4.5730 N   0  0  0  0  0  0  0  0  0  0  0  0
   -0.4570   -0.4000    5.3020 C   0  0  0  0  0  0  0  0  0  0  0  0
   -0.4890   -1.5520    4.3040 C   0  0  0  0  0  0  0  0  0  0  0  0
    0.8980   -1.3920    3.7120 C   0  0  0  0  0  0  0  0  0  0  0  0
    0.8650    0.1180    3.4550 C   0  0  1  0  0  0  0  0  0  0  0  0
    0.0770    0.3920    2.2270 C   0  0  0  0  0  0  0  0  0  0  0  0
   -1.0310    1.0190    2.2680 O   0  0  0  0  0  0  0  0  0  0  0  0
    0.8410    1.1820    5.1870 H   0  0  0  0  0  0  0  0  0  0  0  0
    0.2620   -0.7370    6.1050 H   0  0  0  0  0  0  0  0  0  0  0  0
   -1.4590   -0.1870    5.7110 H   0  0  0  0  0  0  0  0  0  0  0  0
   -0.6430   -2.5280    4.7890 H   0  0  0  0  0  0  0  0  0  0  0  0
   -1.2240   -1.3150    3.5240 H   0  0  0  0  0  0  0  0  0  0  0  0
    1.6420   -1.5930    4.4970 H   0  0  0  0  0  0  0  0  0  0  0  0
    1.0390   -1.9630    2.7880 H   0  0  0  0  0  0  0  0  0  0  0  0
    1.8950    0.5240    3.3870 H   0  0  0  0  0  0  0  0  0  0  0  0
    0.4970   -0.0220    0.9310 N   0  0  0  0  0  0  0  0  0  0  0  0
   -0.2810    0.2500   -0.2650 C   0  0  1  0  0  0  0  0  0  0  0  0
    0.4970    1.0490   -1.2810 C   0  0  0  0  0  0  0  0  0  0  0  0
    0.9100    2.3570   -0.7060 C   0  0  0  0  0  0  0  0  0  0  0  0
    2.1550    2.7450   -0.2580 C   0  0  0  0  0  0  0  0  0  0  0  0
    2.0640    4.0020    0.1720 N   0  0  0  0  0  0  0  0  0  0  0  0
    0.8080    4.4600    0.0270 C   0  0  0  0  0  0  0  0  0  0  0  0
    0.2010    5.6840    0.3190 C   0  0  0  0  0  0  0  0  0  0  0  0
   -1.1350    5.8860    0.0610 C   0  0  0  0  0  0  0  0  0  0  0  0
   -1.8600    4.8540   -0.4900 C   0  0  0  0  0  0  0  0  0  0  0  0
   -1.2620    3.6470   -0.7780 C   0  0  0  0  0  0  0  0  0  0  0  0
    0.0800    3.4280   -0.5250 C   0  0  0  0  0  0  0  0  0  0  0  0
   -0.7280   -1.0380   -0.8470 C   0  0  0  0  0  0  0  0  0  0  0  0
   -1.4250   -1.0250   -1.9050 O   0  0  0  0  0  0  0  0  0  0  0  0
    1.4030   -0.5380    0.8800 H   0  0  0  0  0  0  0  0  0  0  0  0
   -1.2050    0.8100   -0.0040 H   0  0  0  0  0  0  0  0  0  0  0  0
    1.3730    0.4850   -1.6300 H   0  0  0  0  0  0  0  0  0  0  0  0
   -0.1830    1.2780   -2.1250 H   0  0  0  0  0  0  0  0  0  0  0  0
    3.0270    2.0930   -0.2780 H   0  0  0  0  0  0  0  0  0  0  0  0
    2.8720    4.5590    0.5730 H   0  0  0  0  0  0  0  0  0  0  0  0
    0.7960    6.4670    0.7480 H   0  0  0  0  0  0  0  0  0  0  0  0
   -1.6380    6.8330    0.2790 H   0  0  0  0  0  0  0  0  0  0  0  0
   -2.9150    4.9930   -0.7000 H   0  0  0  0  0  0  0  0  0  0  0  0
   -1.8130    2.8180   -1.2120 H   0  0  0  0  0  0  0  0  0  0  0  0
    1.2120   -6.4410   -2.2290 C   0  0  0  0  0  0  0  0  0  0  0  0
   -0.0910   -5.6930   -1.8650 C   0  0  0  0  0  0  0  0  0  0  0  0
   -0.9010   -5.4900   -3.1070 C   0  0  0  0  0  0  0  0  0  0  0  0
    0.3260   -4.3900   -1.2540 C   0  0  0  0  0  0  0  0  0  0  0  0
   -0.8720   -3.5660   -0.8740 C   0  0  2  0  0  0  0  0  0  0  0  0
   -0.4220   -2.2930   -0.2870 N   0  0  0  0  0  0  0  0  0  0  0  0
   -1.6850   -4.2350    0.1430 C   0  0  0  0  0  0  0  0  0  0  0  0
   -1.8160   -3.7190    1.3050 O   0  0  0  0  0  0  0  0  0  0  0  0
   -2.3640   -5.4360   -0.0490 O   0  0  0  0  0  0  0  0  0  0  0  0
    1.0160   -7.0110   -3.1370 H   0  0  0  0  0  0  0  0  0  0  0  0
    1.4900   -7.1060   -1.3930 H   0  0  0  0  0  0  0  0  0  0  0  0
    2.0160   -5.7300   -2.4250 H   0  0  0  0  0  0  0  0  0  0  0  0
   -0.6100   -6.3300   -1.1130 H   0  0  0  0  0  0  0  0  0  0  0  0
   -1.9240   -5.1470   -2.8420 H   0  0  0  0  0  0  0  0  0  0  0  0
   -0.4140   -4.7520   -3.7460 H   0  0  0  0  0  0  0  0  0  0  0  0
   -1.0150   -6.4770   -3.6350 H   0  0  0  0  0  0  0  0  0  0  0  0
    0.9650   -3.8360   -1.9830 H   0  0  0  0  0  0  0  0  0  0  0  0
    0.9450   -4.6110   -0.3360 H   0  0  0  0  0  0  0  0  0  0  0  0
   -1.4600   -3.3630   -1.7910 H   0  0  0  0  0  0  0  0  0  0  0  0
    0.1480   -2.3610    0.5820 H   0  0  0  0  0  0  0  0  0  0  0  0
  1  8  1  0  0  0  0
  1  2  1  0  0  0  0
  2 10  1  0  0  0  0
  2  9  1  0  0  0  0
  3 11  1  0  0  0  0
  3  2  1  0  0  0  0
  4  3  1  0  0  0  0
  4 13  1  0  0  0  0
  5 15  1  6  0  0  0
  5  4  1  0  0  0  0
  5  1  1  0  0  0  0
  6  7  2  0  0  0  0
  6  5  1  0  0  0  0
 12  3  1  0  0  0  0
 14  4  1  0  0  0  0
 16  6  1  0  0  0  0
 17 31  1  1  0  0  0
 17 16  1  0  0  0  0
 18 19  1  0  0  0  0
 18 17  1  0  0  0  0
 19 27  1  0  0  0  0
 19 20  2  0  0  0  0
 20 21  1  0  0  0  0
 21 35  1  0  0  0  0
 22 21  1  0  0  0  0
 22 23  1  0  0  0  0
 23 36  1  0  0  0  0
 24 37  1  0  0  0  0
 24 23  2  0  0  0  0
 25 24  1  0  0  0  0
 26 27  1  0  0  0  0
 26 25  2  0  0  0  0
 27 22  2  0  0  0  0
 28 45  1  0  0  0  0
 28 17  1  0  0  0  0
 29 28  2  0  0  0  0
 30 16  1  0  0  0  0
 32 18  1  0  0  0  0
 33 18  1  0  0  0  0
 34 20  1  0  0  0  0
 38 25  1  0  0  0  0
 39 26  1  0  0  0  0
 40 41  1  0  0  0  0
 40 50  1  0  0  0  0
 41 43  1  0  0  0  0
 41 52  1  0  0  0  0
 42 53  1  0  0  0  0
 42 41  1  0  0  0  0
 43 44  1  0  0  0  0
 43 57  1  0  0  0  0
 44 58  1  6  0  0  0
 44 45  1  0  0  0  0
 44 46  1  0  0  0  0
 45 59  1  0  0  0  0
 46 47  1  0  0  0  0
 48 46  2  0  0  0  0
 49 40  1  0  0  0  0
 51 40  1  0  0  0  0
 54 42  1  0  0  0  0
 55 42  1  0  0  0  0
 56 43  1  0  0  0  0
M  END
$$$$
