PWM.pdb
 OpenBabel07022419063D

 57 59  0  0  1  0  0  0  0  0999 V2000
    1.7890   -0.2820    4.2770 N   0  0  0  0  0  0  0  0  0  0  0  0
    1.0840   -1.4580    4.6950 C   0  0  0  0  0  0  0  0  0  0  0  0
    1.2460   -2.5080    3.6170 C   0  0  0  0  0  0  0  0  0  0  0  0
    2.5540   -2.0320    2.9700 C   0  0  0  0  0  0  0  0  0  0  0  0
    2.2650   -0.5230    2.9290 C   0  0  1  0  0  0  0  0  0  0  0  0
    1.1030   -0.3300    2.0210 C   0  0  0  0  0  0  0  0  0  0  0  0
   -0.0570   -0.0240    2.4480 O   0  0  0  0  0  0  0  0  0  0  0  0
    2.5430    0.0120    4.9260 H   0  0  0  0  0  0  0  0  0  0  0  0
    1.5850   -1.8670    5.6120 H   0  0  0  0  0  0  0  0  0  0  0  0
    0.0070   -1.2480    4.9040 H   0  0  0  0  0  0  0  0  0  0  0  0
    1.3370   -3.5250    4.0230 H   0  0  0  0  0  0  0  0  0  0  0  0
    0.4390   -2.4240    2.8450 H   0  0  0  0  0  0  0  0  0  0  0  0
    3.3580   -2.2580    3.6840 H   0  0  0  0  0  0  0  0  0  0  0  0
    2.6870   -2.4600    1.9780 H   0  0  0  0  0  0  0  0  0  0  0  0
    3.1510    0.0440    2.6520 H   0  0  0  0  0  0  0  0  0  0  0  0
    1.2000   -0.4740    0.5960 N   0  0  0  0  0  0  0  0  0  0  0  0
    0.0890   -0.2910   -0.2800 C   0  0  1  0  0  0  0  0  0  0  0  0
    0.2430    0.8600   -1.2440 C   0  0  0  0  0  0  0  0  0  0  0  0
    0.4130    2.1480   -0.5480 C   0  0  0  0  0  0  0  0  0  0  0  0
    1.5400    2.9100   -0.3430 C   0  0  0  0  0  0  0  0  0  0  0  0
    1.2180    4.0150    0.3500 N   0  0  0  0  0  0  0  0  0  0  0  0
   -0.1170    3.9910    0.6070 C   0  0  0  0  0  0  0  0  0  0  0  0
   -0.9600    4.8720    1.2770 C   0  0  0  0  0  0  0  0  0  0  0  0
   -2.3110    4.6190    1.4060 C   0  0  0  0  0  0  0  0  0  0  0  0
   -2.8160    3.4620    0.8500 C   0  0  0  0  0  0  0  0  0  0  0  0
   -1.9860    2.5890    0.1870 C   0  0  0  0  0  0  0  0  0  0  0  0
   -0.6260    2.8400    0.0550 C   0  0  0  0  0  0  0  0  0  0  0  0
   -0.2320   -1.5610   -0.9880 C   0  0  0  0  0  0  0  0  0  0  0  0
   -1.1820   -1.5470   -1.7920 O   0  0  0  0  0  0  0  0  0  0  0  0
    2.1480   -0.7220    0.2370 H   0  0  0  0  0  0  0  0  0  0  0  0
   -0.7940   -0.0480    0.3510 H   0  0  0  0  0  0  0  0  0  0  0  0
   -0.7300    0.9190   -1.8100 H   0  0  0  0  0  0  0  0  0  0  0  0
    1.0250    0.6780   -2.0020 H   0  0  0  0  0  0  0  0  0  0  0  0
    2.5380    2.6210   -0.7090 H   0  0  0  0  0  0  0  0  0  0  0  0
    1.8660    4.7790    0.6540 H   0  0  0  0  0  0  0  0  0  0  0  0
   -0.5080    5.7600    1.6900 H   0  0  0  0  0  0  0  0  0  0  0  0
   -2.9440    5.3390    1.9430 H   0  0  0  0  0  0  0  0  0  0  0  0
   -3.8910    3.2400    0.9410 H   0  0  0  0  0  0  0  0  0  0  0  0
   -2.3540    1.6620   -0.2660 H   0  0  0  0  0  0  0  0  0  0  0  0
   -4.0980   -3.0220   -2.4070 C   0  0  0  0  0  0  0  0  0  0  0  0
   -3.6500   -4.3880   -1.3110 S   0  0  0  0  0  0  0  0  0  0  0  0
   -1.9770   -4.1420   -0.6360 C   0  0  0  0  0  0  0  0  0  0  0  0
   -1.0140   -4.2350   -1.7790 C   0  0  0  0  0  0  0  0  0  0  0  0
    0.4070   -3.9960   -1.2520 C   0  0  2  0  0  0  0  0  0  0  0  0
    0.5480   -2.6990   -0.7130 N   0  0  0  0  0  0  0  0  0  0  0  0
    1.4500   -4.3460   -2.2040 C   0  0  0  0  0  0  0  0  0  0  0  0
    1.4660   -5.4780   -2.7730 O   0  0  0  0  0  0  0  0  0  0  0  0
    2.4560   -3.4140   -2.4980 O   0  0  0  0  0  0  0  0  0  0  0  0
   -4.0460   -2.0900   -1.7970 H   0  0  0  0  0  0  0  0  0  0  0  0
   -5.1270   -3.2060   -2.7760 H   0  0  0  0  0  0  0  0  0  0  0  0
   -3.3660   -2.8820   -3.2370 H   0  0  0  0  0  0  0  0  0  0  0  0
   -1.7210   -5.0300    0.0340 H   0  0  0  0  0  0  0  0  0  0  0  0
   -1.9540   -3.2350   -0.0410 H   0  0  0  0  0  0  0  0  0  0  0  0
   -1.0220   -5.3270   -2.1070 H   0  0  0  0  0  0  0  0  0  0  0  0
   -1.2650   -3.6040   -2.6360 H   0  0  0  0  0  0  0  0  0  0  0  0
    0.4440   -4.7100   -0.3230 H   0  0  0  0  0  0  0  0  0  0  0  0
    1.3560   -2.5780   -0.0060 H   0  0  0  0  0  0  0  0  0  0  0  0
  1  2  1  0  0  0  0
  1  8  1  0  0  0  0
  2 10  1  0  0  0  0
  2  9  1  0  0  0  0
  3 11  1  0  0  0  0
  3  2  1  0  0  0  0
  4  3  1  0  0  0  0
  4 13  1  0  0  0  0
  5 15  1  6  0  0  0
  5  4  1  0  0  0  0
  5  1  1  0  0  0  0
  6  7  2  0  0  0  0
  6  5  1  0  0  0  0
 12  3  1  0  0  0  0
 14  4  1  0  0  0  0
 16  6  1  0  0  0  0
 17 31  1  1  0  0  0
 17 16  1  0  0  0  0
 18 19  1  0  0  0  0
 18 17  1  0  0  0  0
 19 20  2  0  0  0  0
 19 27  1  0  0  0  0
 20 21  1  0  0  0  0
 21 22  1  0  0  0  0
 21 35  1  0  0  0  0
 22 23  1  0  0  0  0
 23 24  2  0  0  0  0
 23 36  1  0  0  0  0
 24 37  1  0  0  0  0
 25 38  1  0  0  0  0
 25 24  1  0  0  0  0
 26 25  2  0  0  0  0
 27 26  1  0  0  0  0
 27 22  2  0  0  0  0
 28 45  1  0  0  0  0
 28 17  1  0  0  0  0
 29 28  2  0  0  0  0
 30 16  1  0  0  0  0
 32 18  1  0  0  0  0
 33 18  1  0  0  0  0
 34 20  1  0  0  0  0
 39 26  1  0  0  0  0
 40 49  1  0  0  0  0
 40 41  1  0  0  0  0
 41 42  1  0  0  0  0
 42 53  1  0  0  0  0
 42 52  1  0  0  0  0
 43 44  1  0  0  0  0
 43 42  1  0  0  0  0
 44 45  1  0  0  0  0
 44 56  1  1  0  0  0
 45 57  1  0  0  0  0
 46 44  1  0  0  0  0
 47 46  2  0  0  0  0
 48 46  1  0  0  0  0
 50 40  1  0  0  0  0
 51 40  1  0  0  0  0
 54 43  1  0  0  0  0
 55 43  1  0  0  0  0
M  END
$$$$
