PWN.pdb
 OpenBabel07022419063D

 54 56  0  0  1  0  0  0  0  0999 V2000
    3.1320   -0.3620    3.0440 N   0  0  0  0  0  0  0  0  0  0  0  0
    3.3890    0.2730    4.3380 C   0  0  0  0  0  0  0  0  0  0  0  0
    2.3640    1.3680    4.4820 C   0  0  0  0  0  0  0  0  0  0  0  0
    1.4800    1.2170    3.2420 C   0  0  0  0  0  0  0  0  0  0  0  0
    1.7090   -0.2640    2.9270 C   0  0  1  0  0  0  0  0  0  0  0  0
    1.2330   -0.5570    1.5420 C   0  0  0  0  0  0  0  0  0  0  0  0
    2.1000   -0.8450    0.7010 O   0  0  0  0  0  0  0  0  0  0  0  0
    3.4090   -1.3780    3.1550 H   0  0  0  0  0  0  0  0  0  0  0  0
    3.2670   -0.4720    5.1630 H   0  0  0  0  0  0  0  0  0  0  0  0
    4.3940    0.7230    4.3910 H   0  0  0  0  0  0  0  0  0  0  0  0
    1.6820    1.1500    5.3470 H   0  0  0  0  0  0  0  0  0  0  0  0
    2.8220    2.3700    4.5480 H   0  0  0  0  0  0  0  0  0  0  0  0
    0.4340    1.4630    3.4220 H   0  0  0  0  0  0  0  0  0  0  0  0
    1.9350    1.8150    2.4060 H   0  0  0  0  0  0  0  0  0  0  0  0
    1.1260   -0.8690    3.6180 H   0  0  0  0  0  0  0  0  0  0  0  0
   -0.1210   -0.5190    1.1760 N   0  0  0  0  0  0  0  0  0  0  0  0
   -0.7520   -0.7410   -0.0620 C   0  0  1  0  0  0  0  0  0  0  0  0
    0.1330   -0.3220   -1.2470 C   0  0  0  0  0  0  0  0  0  0  0  0
    0.4420    1.1280   -1.2430 C   0  0  0  0  0  0  0  0  0  0  0  0
    1.5680    1.8390   -0.9160 C   0  0  0  0  0  0  0  0  0  0  0  0
    1.3580    3.1720   -1.0870 N   0  0  0  0  0  0  0  0  0  0  0  0
    0.1030    3.3730   -1.5260 C   0  0  0  0  0  0  0  0  0  0  0  0
   -0.5840    4.5440   -1.8530 C   0  0  0  0  0  0  0  0  0  0  0  0
   -1.8830    4.4590   -2.2940 C   0  0  0  0  0  0  0  0  0  0  0  0
   -2.4790    3.2260   -2.4040 C   0  0  0  0  0  0  0  0  0  0  0  0
   -1.7760    2.0750   -2.0720 C   0  0  0  0  0  0  0  0  0  0  0  0
   -0.4750    2.1310   -1.6280 C   0  0  0  0  0  0  0  0  0  0  0  0
   -1.3990   -2.0260   -0.2710 C   0  0  0  0  0  0  0  0  0  0  0  0
   -1.9890   -2.2100   -1.3830 O   0  0  0  0  0  0  0  0  0  0  0  0
   -0.7820   -0.2840    1.9980 H   0  0  0  0  0  0  0  0  0  0  0  0
   -1.5370    0.1320   -0.1260 H   0  0  0  0  0  0  0  0  0  0  0  0
    1.0760   -0.8810   -1.2660 H   0  0  0  0  0  0  0  0  0  0  0  0
   -0.4010   -0.5800   -2.2050 H   0  0  0  0  0  0  0  0  0  0  0  0
    2.4980    1.4450   -0.5810 H   0  0  0  0  0  0  0  0  0  0  0  0
    2.0240    3.9650   -0.9200 H   0  0  0  0  0  0  0  0  0  0  0  0
   -0.1260    5.5150   -1.7720 H   0  0  0  0  0  0  0  0  0  0  0  0
   -2.4450    5.3690   -2.5570 H   0  0  0  0  0  0  0  0  0  0  0  0
   -3.4960    3.1790   -2.7510 H   0  0  0  0  0  0  0  0  0  0  0  0
   -2.2290    1.0920   -2.1600 H   0  0  0  0  0  0  0  0  0  0  0  0
   -0.1170   -6.2020   -1.9530 N   0  0  0  0  0  0  0  0  0  0  0  0
   -0.2230   -5.2830   -0.8760 C   0  0  0  0  0  0  0  0  0  0  0  0
    0.5180   -4.2450   -0.8400 O   0  0  0  0  0  0  0  0  0  0  0  0
   -1.2050   -5.5460    0.2010 C   0  0  0  0  0  0  0  0  0  0  0  0
   -2.1300   -4.3510    0.3310 C   0  0  2  0  0  0  0  0  0  0  0  0
   -1.4530   -3.1230    0.6430 N   0  0  0  0  0  0  0  0  0  0  0  0
   -3.1580   -4.6800    1.3420 C   0  0  0  0  0  0  0  0  0  0  0  0
   -3.8800   -5.7060    1.2760 O   0  0  0  0  0  0  0  0  0  0  0  0
   -3.3380   -3.8200    2.4160 O   0  0  0  0  0  0  0  0  0  0  0  0
   -0.7890   -6.2180   -2.7570 H   0  0  0  0  0  0  0  0  0  0  0  0
    0.6480   -6.9210   -2.0020 H   0  0  0  0  0  0  0  0  0  0  0  0
   -0.6980   -5.7710    1.1760 H   0  0  0  0  0  0  0  0  0  0  0  0
   -1.7870   -6.4440   -0.0690 H   0  0  0  0  0  0  0  0  0  0  0  0
   -2.6560   -4.2940   -0.6620 H   0  0  0  0  0  0  0  0  0  0  0  0
   -0.9780   -3.0020    1.5590 H   0  0  0  0  0  0  0  0  0  0  0  0
  1  8  1  0  0  0  0
  1  2  1  0  0  0  0
  2 10  1  0  0  0  0
  2  3  1  0  0  0  0
  2  9  1  0  0  0  0
  3 12  1  0  0  0  0
  3 11  1  0  0  0  0
  4 13  1  0  0  0  0
  4  3  1  0  0  0  0
  5  1  1  0  0  0  0
  5  4  1  0  0  0  0
  5 15  1  1  0  0  0
  6  5  1  0  0  0  0
  7  6  2  0  0  0  0
 14  4  1  0  0  0  0
 16  6  1  0  0  0  0
 16 30  1  0  0  0  0
 17 31  1  6  0  0  0
 17 16  1  0  0  0  0
 18 19  1  0  0  0  0
 18 17  1  0  0  0  0
 19 20  2  0  0  0  0
 20 34  1  0  0  0  0
 21 35  1  0  0  0  0
 21 20  1  0  0  0  0
 22 21  1  0  0  0  0
 23 36  1  0  0  0  0
 23 22  2  0  0  0  0
 24 23  1  0  0  0  0
 25 24  2  0  0  0  0
 25 26  1  0  0  0  0
 26 27  2  0  0  0  0
 27 22  1  0  0  0  0
 27 19  1  0  0  0  0
 28 17  1  0  0  0  0
 28 45  1  0  0  0  0
 29 28  2  0  0  0  0
 32 18  1  0  0  0  0
 33 18  1  0  0  0  0
 37 24  1  0  0  0  0
 38 25  1  0  0  0  0
 39 26  1  0  0  0  0
 40 41  1  0  0  0  0
 41 42  2  0  0  0  0
 41 43  1  0  0  0  0
 43 44  1  0  0  0  0
 43 51  1  0  0  0  0
 44 53  1  6  0  0  0
 44 45  1  0  0  0  0
 44 46  1  0  0  0  0
 45 54  1  0  0  0  0
 46 48  1  0  0  0  0
 47 46  2  0  0  0  0
 49 40  1  0  0  0  0
 50 40  1  0  0  0  0
 52 43  1  0  0  0  0
M  END
$$$$
