PWR.pdb
 OpenBabel07022419063D

 63 65  0  0  1  0  0  0  0  0999 V2000
    4.1410    1.7670    3.7600 N   0  0  0  0  0  0  0  0  0  0  0  0
    5.2090    0.9060    4.2320 C   0  0  0  0  0  0  0  0  0  0  0  0
    4.7750   -0.4420    3.6970 C   0  0  0  0  0  0  0  0  0  0  0  0
    4.3390   -0.0950    2.2920 C   0  0  0  0  0  0  0  0  0  0  0  0
    3.7610    1.2830    2.4610 C   0  0  1  0  0  0  0  0  0  0  0  0
    2.2750    1.2820    2.3570 C   0  0  0  0  0  0  0  0  0  0  0  0
    1.5640    1.6800    3.3450 O   0  0  0  0  0  0  0  0  0  0  0  0
    3.3540    1.6460    4.4630 H   0  0  0  0  0  0  0  0  0  0  0  0
    5.2640    0.8700    5.3440 H   0  0  0  0  0  0  0  0  0  0  0  0
    6.1910    1.1650    3.8170 H   0  0  0  0  0  0  0  0  0  0  0  0
    5.6010   -1.1810    3.7100 H   0  0  0  0  0  0  0  0  0  0  0  0
    3.9120   -0.7840    4.3110 H   0  0  0  0  0  0  0  0  0  0  0  0
    3.6060   -0.8310    1.8930 H   0  0  0  0  0  0  0  0  0  0  0  0
    5.2740   -0.0820    1.6730 H   0  0  0  0  0  0  0  0  0  0  0  0
    4.2140    1.9690    1.7150 H   0  0  0  0  0  0  0  0  0  0  0  0
    1.6700    0.8340    1.1530 N   0  0  0  0  0  0  0  0  0  0  0  0
    0.2380    0.8060    0.9800 C   0  0  1  0  0  0  0  0  0  0  0  0
   -0.2190    1.7820   -0.0080 C   0  0  0  0  0  0  0  0  0  0  0  0
    0.2270    1.7530   -1.3780 C   0  0  0  0  0  0  0  0  0  0  0  0
   -0.4720    1.2530   -2.4790 C   0  0  0  0  0  0  0  0  0  0  0  0
    0.2320    1.3670   -3.5990 N   0  0  0  0  0  0  0  0  0  0  0  0
    1.4070    1.9380   -3.2930 C   0  0  0  0  0  0  0  0  0  0  0  0
    2.4710    2.2680   -4.1000 C   0  0  0  0  0  0  0  0  0  0  0  0
    3.5930    2.8600   -3.5660 C   0  0  0  0  0  0  0  0  0  0  0  0
    3.6190    3.1120   -2.1920 C   0  0  0  0  0  0  0  0  0  0  0  0
    2.5460    2.7740   -1.4010 C   0  0  0  0  0  0  0  0  0  0  0  0
    1.4200    2.1830   -1.9240 C   0  0  0  0  0  0  0  0  0  0  0  0
   -0.2130   -0.5730    0.9190 C   0  0  0  0  0  0  0  0  0  0  0  0
    0.6560   -1.4870    1.0250 O   0  0  0  0  0  0  0  0  0  0  0  0
    2.3330    0.5170    0.3830 H   0  0  0  0  0  0  0  0  0  0  0  0
   -0.1610    1.1930    1.9740 H   0  0  0  0  0  0  0  0  0  0  0  0
    0.0290    2.8110    0.3960 H   0  0  0  0  0  0  0  0  0  0  0  0
   -1.3530    1.8090   -0.0150 H   0  0  0  0  0  0  0  0  0  0  0  0
   -1.4820    0.8120   -2.4560 H   0  0  0  0  0  0  0  0  0  0  0  0
   -0.0680    1.0650   -4.5690 H   0  0  0  0  0  0  0  0  0  0  0  0
    2.4570    2.0730   -5.1780 H   0  0  0  0  0  0  0  0  0  0  0  0
    4.4290    3.1200   -4.1940 H   0  0  0  0  0  0  0  0  0  0  0  0
    4.5030    3.5780   -1.7700 H   0  0  0  0  0  0  0  0  0  0  0  0
    2.5910    2.9820   -0.3500 H   0  0  0  0  0  0  0  0  0  0  0  0
   -7.2130   -4.4230   -1.1070 N   0  0  0  0  0  0  0  0  0  0  0  0
   -6.1970   -4.9760   -0.2980 C   0  0  0  0  0  0  0  0  0  0  0  0
   -5.9650   -6.2520   -0.4150 N   0  0  0  0  0  0  0  0  0  0  0  0
   -5.4360   -4.2020    0.6210 N   0  0  0  0  0  0  0  0  0  0  0  0
   -4.2300   -4.7930    1.1440 C   0  0  0  0  0  0  0  0  0  0  0  0
   -3.4460   -3.9970    2.0840 C   0  0  0  0  0  0  0  0  0  0  0  0
   -2.9110   -2.6790    1.8100 C   0  0  0  0  0  0  0  0  0  0  0  0
   -1.9310   -2.4530    0.7000 C   0  0  2  0  0  0  0  0  0  0  0  0
   -1.5270   -1.0210    0.7530 N   0  0  0  0  0  0  0  0  0  0  0  0
   -2.6210   -2.5460   -0.6050 C   0  0  0  0  0  0  0  0  0  0  0  0
   -2.9850   -3.5880   -1.1900 O   0  0  0  0  0  0  0  0  0  0  0  0
   -2.9100   -1.3290   -1.2790 O   0  0  0  0  0  0  0  0  0  0  0  0
   -7.0330   -3.8410   -1.9680 H   0  0  0  0  0  0  0  0  0  0  0  0
   -8.1990   -4.5840   -0.8610 H   0  0  0  0  0  0  0  0  0  0  0  0
   -6.4870   -6.8570   -1.0650 H   0  0  0  0  0  0  0  0  0  0  0  0
   -5.7870   -3.2510    0.8680 H   0  0  0  0  0  0  0  0  0  0  0  0
   -3.7140   -5.3770    0.3780 H   0  0  0  0  0  0  0  0  0  0  0  0
   -4.6700   -5.6740    1.7980 H   0  0  0  0  0  0  0  0  0  0  0  0
   -2.5470   -4.6680    2.3760 H   0  0  0  0  0  0  0  0  0  0  0  0
   -3.9960   -4.0020    3.1030 H   0  0  0  0  0  0  0  0  0  0  0  0
   -3.7130   -1.8730    1.7390 H   0  0  0  0  0  0  0  0  0  0  0  0
   -2.3430   -2.3540    2.7560 H   0  0  0  0  0  0  0  0  0  0  0  0
   -1.0860   -3.1220    0.8130 H   0  0  0  0  0  0  0  0  0  0  0  0
   -2.2660   -0.3410    0.6630 H   0  0  0  0  0  0  0  0  0  0  0  0
  1  2  1  0  0  0  0
  1  8  1  0  0  0  0
  2  9  1  0  0  0  0
  3 11  1  0  0  0  0
  3  2  1  0  0  0  0
  3 12  1  0  0  0  0
  4  5  1  0  0  0  0
  4  3  1  0  0  0  0
  5 15  1  6  0  0  0
  5  1  1  0  0  0  0
  6  5  1  0  0  0  0
  6  7  2  0  0  0  0
 10  2  1  0  0  0  0
 13  4  1  0  0  0  0
 14  4  1  0  0  0  0
 16  6  1  0  0  0  0
 17 16  1  0  0  0  0
 17 31  1  1  0  0  0
 18 32  1  0  0  0  0
 18 17  1  0  0  0  0
 19 18  1  0  0  0  0
 20 34  1  0  0  0  0
 20 19  2  0  0  0  0
 21 22  1  0  0  0  0
 21 20  1  0  0  0  0
 22 27  1  0  0  0  0
 23 24  1  0  0  0  0
 23 22  2  0  0  0  0
 24 25  2  0  0  0  0
 25 38  1  0  0  0  0
 25 26  1  0  0  0  0
 26 39  1  0  0  0  0
 27 26  2  0  0  0  0
 27 19  1  0  0  0  0
 28 17  1  0  0  0  0
 28 29  2  0  0  0  0
 30 16  1  0  0  0  0
 33 18  1  0  0  0  0
 35 21  1  0  0  0  0
 36 23  1  0  0  0  0
 37 24  1  0  0  0  0
 40 53  1  0  0  0  0
 40 41  1  0  0  0  0
 41 43  1  0  0  0  0
 42 41  2  0  0  0  0
 43 55  1  0  0  0  0
 43 44  1  0  0  0  0
 44 57  1  0  0  0  0
 44 45  1  0  0  0  0
 45 58  1  0  0  0  0
 45 59  1  0  0  0  0
 46 45  1  0  0  0  0
 46 61  1  0  0  0  0
 47 48  1  0  0  0  0
 47 62  1  1  0  0  0
 47 46  1  0  0  0  0
 48 28  1  0  0  0  0
 49 47  1  0  0  0  0
 50 49  1  0  0  0  0
 51 49  2  0  0  0  0
 52 40  1  0  0  0  0
 54 42  1  0  0  0  0
 56 44  1  0  0  0  0
 60 46  1  0  0  0  0
 63 48  1  0  0  0  0
M  END
$$$$
