PWS.pdb
 OpenBabel07022419063D

 51 53  0  0  1  0  0  0  0  0999 V2000
    2.1250   -3.8190   -0.2670 N   0  0  0  0  0  0  0  0  0  0  0  0
    3.0180   -4.4760   -1.2030 C   0  0  0  0  0  0  0  0  0  0  0  0
    4.3400   -3.7720   -1.1190 C   0  0  0  0  0  0  0  0  0  0  0  0
    4.3430   -3.2000    0.2660 C   0  0  0  0  0  0  0  0  0  0  0  0
    2.9350   -3.3660    0.8270 C   0  0  1  0  0  0  0  0  0  0  0  0
    2.4470   -2.0420    1.2730 C   0  0  0  0  0  0  0  0  0  0  0  0
    2.9660   -1.4090    2.2340 O   0  0  0  0  0  0  0  0  0  0  0  0
    1.3430   -4.4390    0.0200 H   0  0  0  0  0  0  0  0  0  0  0  0
    3.1790   -5.5370   -0.8530 H   0  0  0  0  0  0  0  0  0  0  0  0
    2.5480   -4.4450   -2.1950 H   0  0  0  0  0  0  0  0  0  0  0  0
    4.4660   -3.0050   -1.9150 H   0  0  0  0  0  0  0  0  0  0  0  0
    5.1830   -4.4960   -1.2800 H   0  0  0  0  0  0  0  0  0  0  0  0
    4.6330   -2.1180    0.2630 H   0  0  0  0  0  0  0  0  0  0  0  0
    5.0850   -3.7650    0.8680 H   0  0  0  0  0  0  0  0  0  0  0  0
    2.9370   -4.0650    1.6980 H   0  0  0  0  0  0  0  0  0  0  0  0
    1.3600   -1.4510    0.6090 N   0  0  0  0  0  0  0  0  0  0  0  0
    0.8090   -0.1520    0.9790 C   0  0  1  0  0  0  0  0  0  0  0  0
    1.0300    0.8620   -0.0780 C   0  0  0  0  0  0  0  0  0  0  0  0
    0.4820    2.2030    0.1820 C   0  0  0  0  0  0  0  0  0  0  0  0
    1.1170    3.2970    0.7550 C   0  0  0  0  0  0  0  0  0  0  0  0
    0.2470    4.3110    0.8360 N   0  0  0  0  0  0  0  0  0  0  0  0
   -0.9620    3.9520    0.3380 C   0  0  0  0  0  0  0  0  0  0  0  0
   -2.1400    4.6500    0.1980 C   0  0  0  0  0  0  0  0  0  0  0  0
   -3.2300    4.0390   -0.3690 C   0  0  0  0  0  0  0  0  0  0  0  0
   -3.1080    2.7360   -0.7830 C   0  0  0  0  0  0  0  0  0  0  0  0
   -1.9370    2.0620   -0.6360 C   0  0  0  0  0  0  0  0  0  0  0  0
   -0.8100    2.6390   -0.0680 C   0  0  0  0  0  0  0  0  0  0  0  0
   -0.5460   -0.3170    1.5030 C   0  0  0  0  0  0  0  0  0  0  0  0
   -1.1740    0.6390    2.0120 O   0  0  0  0  0  0  0  0  0  0  0  0
    0.8890   -1.9270   -0.1980 H   0  0  0  0  0  0  0  0  0  0  0  0
    1.4670    0.1780    1.8520 H   0  0  0  0  0  0  0  0  0  0  0  0
    2.1050    1.0120   -0.3260 H   0  0  0  0  0  0  0  0  0  0  0  0
    0.5760    0.5520   -1.0730 H   0  0  0  0  0  0  0  0  0  0  0  0
    2.1560    3.2500    1.0600 H   0  0  0  0  0  0  0  0  0  0  0  0
    0.4560    5.2410    1.2220 H   0  0  0  0  0  0  0  0  0  0  0  0
   -2.2370    5.6720    0.5220 H   0  0  0  0  0  0  0  0  0  0  0  0
   -4.1830    4.5840   -0.4890 H   0  0  0  0  0  0  0  0  0  0  0  0
   -3.9570    2.2430   -1.2310 H   0  0  0  0  0  0  0  0  0  0  0  0
   -1.8230    1.0170   -0.9630 H   0  0  0  0  0  0  0  0  0  0  0  0
   -4.7380   -2.4800    1.4610 O   0  0  0  0  0  0  0  0  0  0  0  0
   -3.4930   -2.2670    0.8600 C   0  0  0  0  0  0  0  0  0  0  0  0
   -2.5460   -1.8220    1.9510 C   0  0  2  0  0  0  0  0  0  0  0  0
   -1.2220   -1.5680    1.4630 N   0  0  0  0  0  0  0  0  0  0  0  0
   -2.5280   -2.8340    3.0310 C   0  0  0  0  0  0  0  0  0  0  0  0
   -1.4260   -3.3190    3.3740 O   0  0  0  0  0  0  0  0  0  0  0  0
   -3.7000   -3.2470    3.6600 O   0  0  0  0  0  0  0  0  0  0  0  0
   -5.0420   -1.6240    1.8540 H   0  0  0  0  0  0  0  0  0  0  0  0
   -3.5920   -1.4310    0.1310 H   0  0  0  0  0  0  0  0  0  0  0  0
   -3.0930   -3.1920    0.4190 H   0  0  0  0  0  0  0  0  0  0  0  0
   -2.9280   -0.8430    2.3620 H   0  0  0  0  0  0  0  0  0  0  0  0
   -0.6680   -2.3670    1.0290 H   0  0  0  0  0  0  0  0  0  0  0  0
  1  8  1  0  0  0  0
  1  5  1  0  0  0  0
  2  3  1  0  0  0  0
  2  9  1  0  0  0  0
  2  1  1  0  0  0  0
  3  4  1  0  0  0  0
  4  5  1  0  0  0  0
  4 14  1  0  0  0  0
  5  6  1  0  0  0  0
  5 15  1  1  0  0  0
  6  7  2  0  0  0  0
 10  2  1  0  0  0  0
 11  3  1  0  0  0  0
 12  3  1  0  0  0  0
 13  4  1  0  0  0  0
 16 17  1  0  0  0  0
 16  6  1  0  0  0  0
 17 28  1  0  0  0  0
 17 31  1  1  0  0  0
 18 19  1  0  0  0  0
 18 17  1  0  0  0  0
 19 20  2  0  0  0  0
 20 21  1  0  0  0  0
 20 34  1  0  0  0  0
 21 35  1  0  0  0  0
 22 21  1  0  0  0  0
 23 22  1  0  0  0  0
 23 36  1  0  0  0  0
 24 23  2  0  0  0  0
 25 26  2  0  0  0  0
 25 24  1  0  0  0  0
 26 27  1  0  0  0  0
 27 19  1  0  0  0  0
 27 22  2  0  0  0  0
 28 29  2  0  0  0  0
 30 16  1  0  0  0  0
 32 18  1  0  0  0  0
 33 18  1  0  0  0  0
 37 24  1  0  0  0  0
 38 25  1  0  0  0  0
 39 26  1  0  0  0  0
 40 47  1  0  0  0  0
 41 40  1  0  0  0  0
 41 42  1  0  0  0  0
 42 50  1  1  0  0  0
 42 44  1  0  0  0  0
 43 28  1  0  0  0  0
 43 42  1  0  0  0  0
 44 45  2  0  0  0  0
 44 46  1  0  0  0  0
 48 41  1  0  0  0  0
 49 41  1  0  0  0  0
 51 43  1  0  0  0  0
M  END
$$$$
