PWV.pdb
 OpenBabel07022419063D

 56 58  0  0  1  0  0  0  0  0999 V2000
    0.8980   -0.7750   -4.4290 N   0  0  0  0  0  0  0  0  0  0  0  0
    1.5340    0.3410   -5.0630 C   0  0  0  0  0  0  0  0  0  0  0  0
    2.9620    0.3780   -4.5580 C   0  0  0  0  0  0  0  0  0  0  0  0
    3.2410   -1.1060   -4.3260 C   0  0  0  0  0  0  0  0  0  0  0  0
    1.9180   -1.5850   -3.8270 C   0  0  1  0  0  0  0  0  0  0  0  0
    1.8050   -1.5030   -2.3270 C   0  0  0  0  0  0  0  0  0  0  0  0
    2.5920   -2.1140   -1.5710 O   0  0  0  0  0  0  0  0  0  0  0  0
    0.3070   -1.2990   -5.0970 H   0  0  0  0  0  0  0  0  0  0  0  0
    0.9740    1.2700   -4.8080 H   0  0  0  0  0  0  0  0  0  0  0  0
    1.5610    0.1360   -6.1500 H   0  0  0  0  0  0  0  0  0  0  0  0
    3.6530    0.8290   -5.2700 H   0  0  0  0  0  0  0  0  0  0  0  0
    3.0470    0.8580   -3.5580 H   0  0  0  0  0  0  0  0  0  0  0  0
    4.0820   -1.2500   -3.6470 H   0  0  0  0  0  0  0  0  0  0  0  0
    3.4160   -1.5680   -5.3390 H   0  0  0  0  0  0  0  0  0  0  0  0
    1.7380   -2.6600   -4.0990 H   0  0  0  0  0  0  0  0  0  0  0  0
    0.7860   -0.7170   -1.7540 N   0  0  0  0  0  0  0  0  0  0  0  0
    0.6490   -0.6170   -0.2880 C   0  0  1  0  0  0  0  0  0  0  0  0
    0.8920    0.7800    0.1380 C   0  0  0  0  0  0  0  0  0  0  0  0
    0.7640    1.1300    1.5480 C   0  0  0  0  0  0  0  0  0  0  0  0
    1.7520    1.2000    2.5320 C   0  0  0  0  0  0  0  0  0  0  0  0
    1.1770    1.5620    3.6820 N   0  0  0  0  0  0  0  0  0  0  0  0
   -0.1470    1.7380    3.5140 C   0  0  0  0  0  0  0  0  0  0  0  0
   -1.1590    2.1290    4.3950 C   0  0  0  0  0  0  0  0  0  0  0  0
   -2.4490    2.2500    3.9290 C   0  0  0  0  0  0  0  0  0  0  0  0
   -2.7160    1.9820    2.5980 C   0  0  0  0  0  0  0  0  0  0  0  0
   -1.7010    1.5920    1.7260 C   0  0  0  0  0  0  0  0  0  0  0  0
   -0.4180    1.4760    2.2060 C   0  0  0  0  0  0  0  0  0  0  0  0
   -0.5870   -1.2330    0.1720 C   0  0  0  0  0  0  0  0  0  0  0  0
   -1.4730   -1.4920   -0.6980 O   0  0  0  0  0  0  0  0  0  0  0  0
    0.0870   -0.1730   -2.2980 H   0  0  0  0  0  0  0  0  0  0  0  0
    1.5240   -1.2220    0.1140 H   0  0  0  0  0  0  0  0  0  0  0  0
    1.9890    0.9780   -0.1180 H   0  0  0  0  0  0  0  0  0  0  0  0
    0.3120    1.5090   -0.4950 H   0  0  0  0  0  0  0  0  0  0  0  0
    2.8000    0.9820    2.3310 H   0  0  0  0  0  0  0  0  0  0  0  0
    1.6560    1.6970    4.5980 H   0  0  0  0  0  0  0  0  0  0  0  0
   -0.9440    2.3350    5.4310 H   0  0  0  0  0  0  0  0  0  0  0  0
   -3.2750    2.5510    4.5720 H   0  0  0  0  0  0  0  0  0  0  0  0
   -3.6990    2.0540    2.1630 H   0  0  0  0  0  0  0  0  0  0  0  0
   -1.8710    1.3740    0.6860 H   0  0  0  0  0  0  0  0  0  0  0  0
   -1.3760   -4.3850    0.7950 C   0  0  0  0  0  0  0  0  0  0  0  0
   -1.9800   -3.7230    2.0060 C   0  0  0  0  0  0  0  0  0  0  0  0
   -1.2890   -4.0250    3.2920 C   0  0  0  0  0  0  0  0  0  0  0  0
   -2.1880   -2.2150    1.7840 C   0  0  2  0  0  0  0  0  0  0  0  0
   -0.9050   -1.5870    1.5040 N   0  0  0  0  0  0  0  0  0  0  0  0
   -2.6910   -1.7100    3.0700 C   0  0  0  0  0  0  0  0  0  0  0  0
   -1.9930   -0.9290    3.7480 O   0  0  0  0  0  0  0  0  0  0  0  0
   -3.9380   -2.0770    3.5670 O   0  0  0  0  0  0  0  0  0  0  0  0
   -0.9430   -5.3780    1.0350 H   0  0  0  0  0  0  0  0  0  0  0  0
   -2.1100   -4.5460   -0.0070 H   0  0  0  0  0  0  0  0  0  0  0  0
   -0.4920   -3.7830    0.4410 H   0  0  0  0  0  0  0  0  0  0  0  0
   -3.0220   -4.1410    2.0890 H   0  0  0  0  0  0  0  0  0  0  0  0
   -1.8600   -4.7690    3.9210 H   0  0  0  0  0  0  0  0  0  0  0  0
   -0.3020   -4.4780    3.1160 H   0  0  0  0  0  0  0  0  0  0  0  0
   -1.2280   -3.1200    3.9470 H   0  0  0  0  0  0  0  0  0  0  0  0
   -2.9020   -2.1280    0.9750 H   0  0  0  0  0  0  0  0  0  0  0  0
   -0.2010   -1.3880    2.2460 H   0  0  0  0  0  0  0  0  0  0  0  0
  1  5  1  0  0  0  0
  2  9  1  0  0  0  0
  2  3  1  0  0  0  0
  2  1  1  0  0  0  0
  3  4  1  0  0  0  0
  3 12  1  0  0  0  0
  4  5  1  0  0  0  0
  4 13  1  0  0  0  0
  5 15  1  6  0  0  0
  5  6  1  0  0  0  0
  6 16  1  0  0  0  0
  6  7  2  0  0  0  0
  8  1  1  0  0  0  0
 10  2  1  0  0  0  0
 11  3  1  0  0  0  0
 14  4  1  0  0  0  0
 16 17  1  0  0  0  0
 17 31  1  1  0  0  0
 17 18  1  0  0  0  0
 17 28  1  0  0  0  0
 18 19  1  0  0  0  0
 19 27  1  0  0  0  0
 19 20  2  0  0  0  0
 20 21  1  0  0  0  0
 21 35  1  0  0  0  0
 22 21  1  0  0  0  0
 22 23  1  0  0  0  0
 23 36  1  0  0  0  0
 24 23  2  0  0  0  0
 24 37  1  0  0  0  0
 25 24  1  0  0  0  0
 26 27  1  0  0  0  0
 26 25  2  0  0  0  0
 27 22  2  0  0  0  0
 28 44  1  0  0  0  0
 29 28  2  0  0  0  0
 30 16  1  0  0  0  0
 32 18  1  0  0  0  0
 33 18  1  0  0  0  0
 34 20  1  0  0  0  0
 38 25  1  0  0  0  0
 39 26  1  0  0  0  0
 40 48  1  0  0  0  0
 40 41  1  0  0  0  0
 41 51  1  0  0  0  0
 41 42  1  0  0  0  0
 42 52  1  0  0  0  0
 42 54  1  0  0  0  0
 43 55  1  6  0  0  0
 43 41  1  0  0  0  0
 43 45  1  0  0  0  0
 44 43  1  0  0  0  0
 44 56  1  0  0  0  0
 45 47  2  0  0  0  0
 45 46  1  0  0  0  0
 49 40  1  0  0  0  0
 50 40  1  0  0  0  0
 53 42  1  0  0  0  0
M  END
$$$$
