PWW.pdb
 OpenBabel07022419063D

 64 68  0  0  1  0  0  0  0  0999 V2000
   -1.3600    1.6720    0.0230 N   0  0  0  0  0  0  0  0  0  0  0  0
   -0.9050    2.7710    0.8080 C   0  0  0  0  0  0  0  0  0  0  0  0
   -0.8010    3.9800   -0.0930 C   0  0  0  0  0  0  0  0  0  0  0  0
   -0.8370    3.4170   -1.4970 C   0  0  0  0  0  0  0  0  0  0  0  0
   -1.6040    2.1300   -1.3140 C   0  0  1  0  0  0  0  0  0  0  0  0
   -1.1300    1.1480   -2.3200 C   0  0  0  0  0  0  0  0  0  0  0  0
   -1.2700    1.4040   -3.5430 O   0  0  0  0  0  0  0  0  0  0  0  0
   -2.1300    1.1540    0.4620 H   0  0  0  0  0  0  0  0  0  0  0  0
    0.0620    2.5160    1.2870 H   0  0  0  0  0  0  0  0  0  0  0  0
   -1.6160    3.0230    1.6220 H   0  0  0  0  0  0  0  0  0  0  0  0
   -1.6360    4.7070    0.0800 H   0  0  0  0  0  0  0  0  0  0  0  0
    0.1970    4.4240    0.0590 H   0  0  0  0  0  0  0  0  0  0  0  0
    0.1540    3.2260   -1.9200 H   0  0  0  0  0  0  0  0  0  0  0  0
   -1.4360    4.1280   -2.1200 H   0  0  0  0  0  0  0  0  0  0  0  0
   -2.6770    2.3670   -1.4170 H   0  0  0  0  0  0  0  0  0  0  0  0
   -0.5200   -0.0730   -1.8750 N   0  0  0  0  0  0  0  0  0  0  0  0
   -0.0700   -1.0030   -2.8510 C   0  0  1  0  0  0  0  0  0  0  0  0
    1.4210   -1.1860   -2.8960 C   0  0  0  0  0  0  0  0  0  0  0  0
    2.1790    0.0430   -3.2040 C   0  0  0  0  0  0  0  0  0  0  0  0
    2.6950    0.4260   -4.4430 C   0  0  0  0  0  0  0  0  0  0  0  0
    3.2910    1.6160   -4.3040 N   0  0  0  0  0  0  0  0  0  0  0  0
    3.1960    2.0470   -3.0210 C   0  0  0  0  0  0  0  0  0  0  0  0
    3.6450    3.1840   -2.3830 C   0  0  0  0  0  0  0  0  0  0  0  0
    3.4100    3.3590   -1.0540 C   0  0  0  0  0  0  0  0  0  0  0  0
    2.7230    2.3950   -0.3470 C   0  0  0  0  0  0  0  0  0  0  0  0
    2.2810    1.2740   -0.9820 C   0  0  0  0  0  0  0  0  0  0  0  0
    2.5040    1.0660   -2.3390 C   0  0  0  0  0  0  0  0  0  0  0  0
   -0.6820   -2.3540   -2.6910 C   0  0  0  0  0  0  0  0  0  0  0  0
   -0.4030   -3.3070   -3.4580 O   0  0  0  0  0  0  0  0  0  0  0  0
   -0.4380   -0.2290   -0.8290 H   0  0  0  0  0  0  0  0  0  0  0  0
   -0.3450   -0.6270   -3.8830 H   0  0  0  0  0  0  0  0  0  0  0  0
    1.7190   -1.9840   -3.5770 H   0  0  0  0  0  0  0  0  0  0  0  0
    1.7210   -1.5310   -1.8690 H   0  0  0  0  0  0  0  0  0  0  0  0
    2.5840   -0.2000   -5.3180 H   0  0  0  0  0  0  0  0  0  0  0  0
    3.7700    2.1590   -5.0640 H   0  0  0  0  0  0  0  0  0  0  0  0
    4.1770    3.9220   -2.9500 H   0  0  0  0  0  0  0  0  0  0  0  0
    3.7700    4.2570   -0.5750 H   0  0  0  0  0  0  0  0  0  0  0  0
    2.5420    2.5440    0.7080 H   0  0  0  0  0  0  0  0  0  0  0  0
    1.7610    0.5340   -0.4240 H   0  0  0  0  0  0  0  0  0  0  0  0
   -1.6070   -2.5410   -1.6300 N   0  0  0  0  0  0  0  0  0  0  0  0
   -2.2660   -3.7740   -1.3630 C   0  0  1  0  0  0  0  0  0  0  0  0
   -1.9310   -4.4590   -0.0860 C   0  0  0  0  0  0  0  0  0  0  0  0
   -2.1920   -3.7360    1.1450 C   0  0  0  0  0  0  0  0  0  0  0  0
   -3.2680   -3.8880    2.0000 C   0  0  0  0  0  0  0  0  0  0  0  0
   -3.1550   -3.0240    3.0260 N   0  0  0  0  0  0  0  0  0  0  0  0
   -2.0350   -2.3080    2.8680 C   0  0  0  0  0  0  0  0  0  0  0  0
   -1.4510   -1.3090    3.6170 C   0  0  0  0  0  0  0  0  0  0  0  0
   -0.2580   -0.7050    3.2520 C   0  0  0  0  0  0  0  0  0  0  0  0
    0.3560   -1.1280    2.0930 C   0  0  0  0  0  0  0  0  0  0  0  0
   -0.2150   -2.1230    1.3360 C   0  0  0  0  0  0  0  0  0  0  0  0
   -1.4140   -2.7410    1.6900 C   0  0  0  0  0  0  0  0  0  0  0  0
   -3.7380   -3.5980   -1.5270 C   0  0  0  0  0  0  0  0  0  0  0  0
   -4.5540   -4.5370   -1.3500 O   0  0  0  0  0  0  0  0  0  0  0  0
   -4.2210   -2.3540   -1.8870 O   0  0  0  0  0  0  0  0  0  0  0  0
   -1.8340   -1.7190   -0.9930 H   0  0  0  0  0  0  0  0  0  0  0  0
   -1.9310   -4.4860   -2.1870 H   0  0  0  0  0  0  0  0  0  0  0  0
   -2.5270   -5.4200   -0.0830 H   0  0  0  0  0  0  0  0  0  0  0  0
   -0.8640   -4.8310   -0.1500 H   0  0  0  0  0  0  0  0  0  0  0  0
   -4.1070   -4.5770    1.9180 H   0  0  0  0  0  0  0  0  0  0  0  0
   -3.8250   -2.9110    3.8320 H   0  0  0  0  0  0  0  0  0  0  0  0
   -1.9120   -0.9510    4.5390 H   0  0  0  0  0  0  0  0  0  0  0  0
    0.2010    0.0760    3.8350 H   0  0  0  0  0  0  0  0  0  0  0  0
    1.3000   -0.6690    1.7780 H   0  0  0  0  0  0  0  0  0  0  0  0
    0.2950   -2.4280    0.4360 H   0  0  0  0  0  0  0  0  0  0  0  0
  1  8  1  0  0  0  0
  1  2  1  0  0  0  0
  2  9  1  0  0  0  0
  2 10  1  0  0  0  0
  3 12  1  0  0  0  0
  3 11  1  0  0  0  0
  3  2  1  0  0  0  0
  4  5  1  0  0  0  0
  4  3  1  0  0  0  0
  5 15  1  6  0  0  0
  5  1  1  0  0  0  0
  6 16  1  0  0  0  0
  6  5  1  0  0  0  0
  7  6  2  0  0  0  0
 13  4  1  0  0  0  0
 14  4  1  0  0  0  0
 16 30  1  0  0  0  0
 17 31  1  6  0  0  0
 17 28  1  0  0  0  0
 17 16  1  0  0  0  0
 18 17  1  0  0  0  0
 18 33  1  0  0  0  0
 19 18  1  0  0  0  0
 19 27  1  0  0  0  0
 20 21  1  0  0  0  0
 20 19  2  0  0  0  0
 21 22  1  0  0  0  0
 22 23  2  0  0  0  0
 22 27  1  0  0  0  0
 23 24  1  0  0  0  0
 24 37  1  0  0  0  0
 24 25  2  0  0  0  0
 25 38  1  0  0  0  0
 26 39  1  0  0  0  0
 26 25  1  0  0  0  0
 27 26  2  0  0  0  0
 28 40  1  0  0  0  0
 29 28  2  0  0  0  0
 32 18  1  0  0  0  0
 34 20  1  0  0  0  0
 35 21  1  0  0  0  0
 36 23  1  0  0  0  0
 40 41  1  0  0  0  0
 40 55  1  0  0  0  0
 41 56  1  6  0  0  0
 41 42  1  0  0  0  0
 42 57  1  0  0  0  0
 42 43  1  0  0  0  0
 43 51  1  0  0  0  0
 43 44  2  0  0  0  0
 44 45  1  0  0  0  0
 45 60  1  0  0  0  0
 46 45  1  0  0  0  0
 46 47  1  0  0  0  0
 47 61  1  0  0  0  0
 48 47  2  0  0  0  0
 48 62  1  0  0  0  0
 49 48  1  0  0  0  0
 50 51  1  0  0  0  0
 50 49  2  0  0  0  0
 51 46  2  0  0  0  0
 52 41  1  0  0  0  0
 52 53  1  0  0  0  0
 54 52  2  0  0  0  0
 58 42  1  0  0  0  0
 59 44  1  0  0  0  0
 63 49  1  0  0  0  0
 64 50  1  0  0  0  0
M  END
$$$$
