PWY.pdb
 OpenBabel07022419063D

 61 64  0  0  1  0  0  0  0  0999 V2000
    3.5610   -0.3150    0.3450 N   0  0  0  0  0  0  0  0  0  0  0  0
    3.7710   -1.3850    1.3090 C   0  0  0  0  0  0  0  0  0  0  0  0
    2.6970   -2.4140    1.0690 C   0  0  0  0  0  0  0  0  0  0  0  0
    2.0310   -1.9310   -0.2080 C   0  0  0  0  0  0  0  0  0  0  0  0
    2.1510   -0.4170   -0.0320 C   0  0  1  0  0  0  0  0  0  0  0  0
    1.3160    0.0460    1.0850 C   0  0  0  0  0  0  0  0  0  0  0  0
    1.8680    0.4540    2.1630 O   0  0  0  0  0  0  0  0  0  0  0  0
    4.1290   -0.4560   -0.5180 H   0  0  0  0  0  0  0  0  0  0  0  0
    3.7600   -1.0290    2.3510 H   0  0  0  0  0  0  0  0  0  0  0  0
    4.7540   -1.8540    1.0950 H   0  0  0  0  0  0  0  0  0  0  0  0
    3.0570   -3.4440    1.0160 H   0  0  0  0  0  0  0  0  0  0  0  0
    1.9470   -2.3320    1.9000 H   0  0  0  0  0  0  0  0  0  0  0  0
    2.7040   -2.2040   -1.0560 H   0  0  0  0  0  0  0  0  0  0  0  0
    1.0060   -2.2780   -0.3250 H   0  0  0  0  0  0  0  0  0  0  0  0
    1.9760    0.1150   -0.9860 H   0  0  0  0  0  0  0  0  0  0  0  0
   -0.1020    0.0630    1.0260 N   0  0  0  0  0  0  0  0  0  0  0  0
   -0.8910    0.5200    2.1330 C   0  0  1  0  0  0  0  0  0  0  0  0
   -1.6510    1.7920    1.8190 C   0  0  0  0  0  0  0  0  0  0  0  0
   -0.7980    2.9330    1.4680 C   0  0  0  0  0  0  0  0  0  0  0  0
   -0.4160    3.9660    2.3240 C   0  0  0  0  0  0  0  0  0  0  0  0
    0.3850    4.8170    1.6560 N   0  0  0  0  0  0  0  0  0  0  0  0
    0.5470    4.3890    0.3940 C   0  0  0  0  0  0  0  0  0  0  0  0
    1.2530    4.8930   -0.6740 C   0  0  0  0  0  0  0  0  0  0  0  0
    1.2500    4.2550   -1.8860 C   0  0  0  0  0  0  0  0  0  0  0  0
    0.5310    3.0920   -2.0390 C   0  0  0  0  0  0  0  0  0  0  0  0
   -0.1760    2.5860   -0.9720 C   0  0  0  0  0  0  0  0  0  0  0  0
   -0.1880    3.2180    0.2750 C   0  0  0  0  0  0  0  0  0  0  0  0
   -1.7980   -0.5650    2.5700 C   0  0  0  0  0  0  0  0  0  0  0  0
   -2.6030   -0.4340    3.5330 O   0  0  0  0  0  0  0  0  0  0  0  0
   -0.5280   -0.2790    0.1390 H   0  0  0  0  0  0  0  0  0  0  0  0
   -0.1630    0.7710    2.9650 H   0  0  0  0  0  0  0  0  0  0  0  0
   -2.3950    1.5860    0.9940 H   0  0  0  0  0  0  0  0  0  0  0  0
   -2.2900    2.0120    2.7150 H   0  0  0  0  0  0  0  0  0  0  0  0
   -0.6860    4.1120    3.3610 H   0  0  0  0  0  0  0  0  0  0  0  0
    0.8270    5.6960    2.0560 H   0  0  0  0  0  0  0  0  0  0  0  0
    1.8380    5.8080   -0.6120 H   0  0  0  0  0  0  0  0  0  0  0  0
    1.8020    4.6320   -2.7560 H   0  0  0  0  0  0  0  0  0  0  0  0
    0.5320    2.5830   -3.0140 H   0  0  0  0  0  0  0  0  0  0  0  0
   -0.7270    1.6950   -1.1280 H   0  0  0  0  0  0  0  0  0  0  0  0
   -0.3640   -4.7140   -3.5000 O   0  0  0  0  0  0  0  0  0  0  0  0
   -1.1320   -4.4060   -2.3590 C   0  0  0  0  0  0  0  0  0  0  0  0
   -1.4640   -5.4010   -1.4640 C   0  0  0  0  0  0  0  0  0  0  0  0
   -2.2240   -5.0790   -0.3430 C   0  0  0  0  0  0  0  0  0  0  0  0
   -2.6550   -3.7980   -0.0990 C   0  0  0  0  0  0  0  0  0  0  0  0
   -3.4620   -3.3770    1.0680 C   0  0  0  0  0  0  0  0  0  0  0  0
   -2.6100   -2.9300    2.2340 C   0  0  2  0  0  0  0  0  0  0  0  0
   -1.7660   -1.8030    1.8830 N   0  0  0  0  0  0  0  0  0  0  0  0
   -1.7220   -4.0590    2.6000 C   0  0  0  0  0  0  0  0  0  0  0  0
   -2.1310   -5.1870    2.9750 O   0  0  0  0  0  0  0  0  0  0  0  0
   -2.3060   -2.8030   -1.0210 C   0  0  0  0  0  0  0  0  0  0  0  0
   -1.5590   -3.1190   -2.1240 C   0  0  0  0  0  0  0  0  0  0  0  0
   -0.3190   -3.9320    2.5470 O   0  0  0  0  0  0  0  0  0  0  0  0
   -0.5740   -4.3010   -4.4020 H   0  0  0  0  0  0  0  0  0  0  0  0
   -1.1240   -6.3970   -1.6640 H   0  0  0  0  0  0  0  0  0  0  0  0
   -2.4850   -5.8460    0.3510 H   0  0  0  0  0  0  0  0  0  0  0  0
   -4.0460   -4.2640    1.4360 H   0  0  0  0  0  0  0  0  0  0  0  0
   -4.1760   -2.6260    0.7310 H   0  0  0  0  0  0  0  0  0  0  0  0
   -3.2190   -2.6800    3.1210 H   0  0  0  0  0  0  0  0  0  0  0  0
   -1.1140   -1.9850    1.0630 H   0  0  0  0  0  0  0  0  0  0  0  0
   -2.6440   -1.7740   -0.8340 H   0  0  0  0  0  0  0  0  0  0  0  0
   -1.2840   -2.3390   -2.8490 H   0  0  0  0  0  0  0  0  0  0  0  0
  1  2  1  0  0  0  0
  2  9  1  0  0  0  0
  3  2  1  0  0  0  0
  3 12  1  0  0  0  0
  4  5  1  0  0  0  0
  4  3  1  0  0  0  0
  5 15  1  6  0  0  0
  5  1  1  0  0  0  0
  5  6  1  0  0  0  0
  6  7  2  0  0  0  0
  8  1  1  0  0  0  0
 10  2  1  0  0  0  0
 11  3  1  0  0  0  0
 13  4  1  0  0  0  0
 14  4  1  0  0  0  0
 16  6  1  0  0  0  0
 16 17  1  0  0  0  0
 17 28  1  0  0  0  0
 17 31  1  1  0  0  0
 18 17  1  0  0  0  0
 18 33  1  0  0  0  0
 19 18  1  0  0  0  0
 19 20  2  0  0  0  0
 20 34  1  0  0  0  0
 21 35  1  0  0  0  0
 21 20  1  0  0  0  0
 22 21  1  0  0  0  0
 23 36  1  0  0  0  0
 23 22  2  0  0  0  0
 24 23  1  0  0  0  0
 25 24  2  0  0  0  0
 25 26  1  0  0  0  0
 26 27  2  0  0  0  0
 27 22  1  0  0  0  0
 27 19  1  0  0  0  0
 28 29  2  0  0  0  0
 30 16  1  0  0  0  0
 32 18  1  0  0  0  0
 37 24  1  0  0  0  0
 38 25  1  0  0  0  0
 39 26  1  0  0  0  0
 40 41  1  0  0  0  0
 41 51  2  0  0  0  0
 41 42  1  0  0  0  0
 42 43  2  0  0  0  0
 43 44  1  0  0  0  0
 43 55  1  0  0  0  0
 44 45  1  0  0  0  0
 45 56  1  0  0  0  0
 45 46  1  0  0  0  0
 46 48  1  0  0  0  0
 46 58  1  1  0  0  0
 47 46  1  0  0  0  0
 47 28  1  0  0  0  0
 48 49  1  0  0  0  0
 50 60  1  0  0  0  0
 50 44  2  0  0  0  0
 51 50  1  0  0  0  0
 52 48  2  0  0  0  0
 53 40  1  0  0  0  0
 54 42  1  0  0  0  0
 57 45  1  0  0  0  0
 59 47  1  0  0  0  0
 61 51  1  0  0  0  0
M  END
$$$$
