PYA.pdb
 OpenBabel07022419063D

 47 48  0  0  1  0  0  0  0  0999 V2000
    1.9760   -4.3610    2.0700 N   0  0  0  0  0  0  0  0  0  0  0  0
    0.8560   -4.5600    2.9420 C   0  0  0  0  0  0  0  0  0  0  0  0
   -0.3760   -4.0620    2.2470 C   0  0  0  0  0  0  0  0  0  0  0  0
    0.1320   -3.7830    0.8280 C   0  0  0  0  0  0  0  0  0  0  0  0
    1.5500   -3.3100    1.1380 C   0  0  1  0  0  0  0  0  0  0  0  0
    1.4360   -2.0330    1.8650 C   0  0  0  0  0  0  0  0  0  0  0  0
    1.6800   -1.9300    3.0930 O   0  0  0  0  0  0  0  0  0  0  0  0
    2.8590   -4.1290    2.5360 H   0  0  0  0  0  0  0  0  0  0  0  0
    0.7090   -5.6450    3.1360 H   0  0  0  0  0  0  0  0  0  0  0  0
    0.9980   -4.0880    3.9370 H   0  0  0  0  0  0  0  0  0  0  0  0
   -0.7380   -3.0950    2.6730 H   0  0  0  0  0  0  0  0  0  0  0  0
   -1.2120   -4.7590    2.2620 H   0  0  0  0  0  0  0  0  0  0  0  0
   -0.4620   -3.0290    0.3120 H   0  0  0  0  0  0  0  0  0  0  0  0
    0.1780   -4.7560    0.3010 H   0  0  0  0  0  0  0  0  0  0  0  0
    2.1850   -3.2670    0.2530 H   0  0  0  0  0  0  0  0  0  0  0  0
    1.0780    2.6590   -4.1070 O   0  0  0  0  0  0  0  0  0  0  0  0
    1.2780    2.3560   -2.7580 C   0  0  0  0  0  0  0  0  0  0  0  0
    0.6120    3.0550   -1.7730 C   0  0  0  0  0  0  0  0  0  0  0  0
    0.7900    2.7770   -0.4300 C   0  0  0  0  0  0  0  0  0  0  0  0
    1.6520    1.7750   -0.0290 C   0  0  0  0  0  0  0  0  0  0  0  0
    1.8810    1.4360    1.3770 C   0  0  0  0  0  0  0  0  0  0  0  0
    0.9310    0.3780    1.9030 C   0  0  2  0  0  0  0  0  0  0  0  0
    1.0370   -0.8570    1.1780 N   0  0  0  0  0  0  0  0  0  0  0  0
   -0.4740    0.8290    1.8690 C   0  0  0  0  0  0  0  0  0  0  0  0
   -0.7790    1.8950    2.4480 O   0  0  0  0  0  0  0  0  0  0  0  0
    2.3290    1.0640   -1.0260 C   0  0  0  0  0  0  0  0  0  0  0  0
    2.1340    1.3600   -2.3480 C   0  0  0  0  0  0  0  0  0  0  0  0
    1.8160    2.3740   -4.7360 H   0  0  0  0  0  0  0  0  0  0  0  0
   -0.0650    3.8410   -2.0640 H   0  0  0  0  0  0  0  0  0  0  0  0
    0.2480    3.3490    0.3380 H   0  0  0  0  0  0  0  0  0  0  0  0
    1.7020    2.3520    1.9890 H   0  0  0  0  0  0  0  0  0  0  0  0
    2.9240    1.1490    1.5300 H   0  0  0  0  0  0  0  0  0  0  0  0
    1.1930    0.2520    2.9880 H   0  0  0  0  0  0  0  0  0  0  0  0
    0.8150   -0.8480    0.1620 H   0  0  0  0  0  0  0  0  0  0  0  0
    3.0090    0.2730   -0.7020 H   0  0  0  0  0  0  0  0  0  0  0  0
    2.6750    0.7880   -3.0990 H   0  0  0  0  0  0  0  0  0  0  0  0
   -3.3550    0.7110   -0.2640 C   0  0  0  0  0  0  0  0  0  0  0  0
   -2.8680    0.5570    1.1800 C   0  0  2  0  0  0  0  0  0  0  0  0
   -1.4900    0.1000    1.2050 N   0  0  0  0  0  0  0  0  0  0  0  0
   -3.7350   -0.4710    1.7990 C   0  0  0  0  0  0  0  0  0  0  0  0
   -4.9760   -0.3340    1.9090 O   0  0  0  0  0  0  0  0  0  0  0  0
   -3.1580   -1.6320    2.2780 O   0  0  0  0  0  0  0  0  0  0  0  0
   -3.2400    1.7880   -0.5310 H   0  0  0  0  0  0  0  0  0  0  0  0
   -2.7230    0.0620   -0.8900 H   0  0  0  0  0  0  0  0  0  0  0  0
   -4.3940    0.3920   -0.3510 H   0  0  0  0  0  0  0  0  0  0  0  0
   -3.0060    1.5000    1.7210 H   0  0  0  0  0  0  0  0  0  0  0  0
   -1.1990   -0.7840    0.7330 H   0  0  0  0  0  0  0  0  0  0  0  0
  1  8  1  0  0  0  0
  1  2  1  0  0  0  0
  2  9  1  0  0  0  0
  2 10  1  0  0  0  0
  3 12  1  0  0  0  0
  3 11  1  0  0  0  0
  3  2  1  0  0  0  0
  4  5  1  0  0  0  0
  4  3  1  0  0  0  0
  5 15  1  6  0  0  0
  5  6  1  0  0  0  0
  5  1  1  0  0  0  0
  6  7  2  0  0  0  0
 13  4  1  0  0  0  0
 14  4  1  0  0  0  0
 16 17  1  0  0  0  0
 17 27  2  0  0  0  0
 17 18  1  0  0  0  0
 18 19  2  0  0  0  0
 19 20  1  0  0  0  0
 19 30  1  0  0  0  0
 20 21  1  0  0  0  0
 21 32  1  0  0  0  0
 21 22  1  0  0  0  0
 21 31  1  0  0  0  0
 22 33  1  1  0  0  0
 23  6  1  0  0  0  0
 23 22  1  0  0  0  0
 24 22  1  0  0  0  0
 24 25  2  0  0  0  0
 26 35  1  0  0  0  0
 26 20  2  0  0  0  0
 27 26  1  0  0  0  0
 28 16  1  0  0  0  0
 29 18  1  0  0  0  0
 34 23  1  0  0  0  0
 36 27  1  0  0  0  0
 37 38  1  0  0  0  0
 38 39  1  0  0  0  0
 38 46  1  1  0  0  0
 38 40  1  0  0  0  0
 39 24  1  0  0  0  0
 40 41  2  0  0  0  0
 40 42  1  0  0  0  0
 43 37  1  0  0  0  0
 44 37  1  0  0  0  0
 45 37  1  0  0  0  0
 47 39  1  0  0  0  0
M  END
$$$$
