PYC.pdb
 OpenBabel07022419063D

 48 49  0  0  1  0  0  0  0  0999 V2000
    1.4960   -2.2200    3.4000 N   0  0  0  0  0  0  0  0  0  0  0  0
    2.4530   -3.2480    3.7520 C   0  0  0  0  0  0  0  0  0  0  0  0
    3.7860   -2.8220    3.2310 C   0  0  0  0  0  0  0  0  0  0  0  0
    3.4810   -1.6070    2.4150 C   0  0  0  0  0  0  0  0  0  0  0  0
    2.2330   -1.0430    3.0590 C   0  0  1  0  0  0  0  0  0  0  0  0
    1.4500   -0.2690    2.0650 C   0  0  0  0  0  0  0  0  0  0  0  0
    1.8910    0.8270    1.5990 O   0  0  0  0  0  0  0  0  0  0  0  0
    0.7430   -2.0900    4.0880 H   0  0  0  0  0  0  0  0  0  0  0  0
    2.5170   -3.3750    4.8680 H   0  0  0  0  0  0  0  0  0  0  0  0
    2.1900   -4.2380    3.3180 H   0  0  0  0  0  0  0  0  0  0  0  0
    4.2410   -3.6320    2.5900 H   0  0  0  0  0  0  0  0  0  0  0  0
    4.4940   -2.6280    4.0740 H   0  0  0  0  0  0  0  0  0  0  0  0
    3.2070   -1.9440    1.3910 H   0  0  0  0  0  0  0  0  0  0  0  0
    4.3140   -0.8830    2.4050 H   0  0  0  0  0  0  0  0  0  0  0  0
    2.4930   -0.4190    3.9470 H   0  0  0  0  0  0  0  0  0  0  0  0
    4.2600   -1.7660   -2.9670 O   0  0  0  0  0  0  0  0  0  0  0  0
    3.0130   -1.5270   -2.3960 C   0  0  0  0  0  0  0  0  0  0  0  0
    2.2660   -0.4220   -2.7060 C   0  0  0  0  0  0  0  0  0  0  0  0
    1.0220   -0.1970   -2.1280 C   0  0  0  0  0  0  0  0  0  0  0  0
    0.4990   -1.0870   -1.2180 C   0  0  0  0  0  0  0  0  0  0  0  0
   -0.8290   -0.8350   -0.6080 C   0  0  0  0  0  0  0  0  0  0  0  0
   -0.6240   -0.0340    0.6490 C   0  0  2  0  0  0  0  0  0  0  0  0
    0.2060   -0.7230    1.6150 N   0  0  0  0  0  0  0  0  0  0  0  0
   -1.9000    0.3730    1.2800 C   0  0  0  0  0  0  0  0  0  0  0  0
   -2.1000    0.0940    2.4870 O   0  0  0  0  0  0  0  0  0  0  0  0
    1.2520   -2.2000   -0.9060 C   0  0  0  0  0  0  0  0  0  0  0  0
    2.4890   -2.4230   -1.4820 C   0  0  0  0  0  0  0  0  0  0  0  0
    4.6080   -2.7290   -2.9810 H   0  0  0  0  0  0  0  0  0  0  0  0
    2.6810    0.2880   -3.4310 H   0  0  0  0  0  0  0  0  0  0  0  0
    0.5000    0.6990   -2.4280 H   0  0  0  0  0  0  0  0  0  0  0  0
   -1.3020   -1.8080   -0.4370 H   0  0  0  0  0  0  0  0  0  0  0  0
   -1.4870   -0.2570   -1.2750 H   0  0  0  0  0  0  0  0  0  0  0  0
   -0.0890    0.9100    0.3400 H   0  0  0  0  0  0  0  0  0  0  0  0
   -0.1550   -1.6390    2.0100 H   0  0  0  0  0  0  0  0  0  0  0  0
    0.9020   -2.9410   -0.1990 H   0  0  0  0  0  0  0  0  0  0  0  0
    3.0570   -3.3140   -1.2120 H   0  0  0  0  0  0  0  0  0  0  0  0
   -2.9200    1.0690    0.5820 N   0  0  0  0  0  0  0  0  0  0  0  0
   -4.1740    1.4670    1.2080 C   0  0  1  0  0  0  0  0  0  0  0  0
   -4.3550    2.9530    0.9780 C   0  0  0  0  0  0  0  0  0  0  0  0
   -4.3990    3.2170   -0.8220 S   0  0  0  0  0  0  0  0  0  0  0  0
   -5.3330    0.8040    0.5150 C   0  0  0  0  0  0  0  0  0  0  0  0
   -6.5050    0.9900    0.8700 O   0  0  0  0  0  0  0  0  0  0  0  0
   -5.0560   -0.0350   -0.5500 O   0  0  0  0  0  0  0  0  0  0  0  0
   -2.7180    1.2830   -0.4180 H   0  0  0  0  0  0  0  0  0  0  0  0
   -4.2310    1.1710    2.2540 H   0  0  0  0  0  0  0  0  0  0  0  0
   -5.3310    3.3000    1.3780 H   0  0  0  0  0  0  0  0  0  0  0  0
   -3.5490    3.5530    1.4150 H   0  0  0  0  0  0  0  0  0  0  0  0
   -4.3960    1.9990   -1.5260 H   0  0  0  0  0  0  0  0  0  0  0  0
  1  2  1  0  0  0  0
  1  8  1  0  0  0  0
  2  9  1  0  0  0  0
  3  2  1  0  0  0  0
  3 12  1  0  0  0  0
  4  5  1  0  0  0  0
  4  3  1  0  0  0  0
  5  1  1  0  0  0  0
  5 15  1  1  0  0  0
  6  5  1  0  0  0  0
  7  6  2  0  0  0  0
 10  2  1  0  0  0  0
 11  3  1  0  0  0  0
 13  4  1  0  0  0  0
 14  4  1  0  0  0  0
 16 17  1  0  0  0  0
 17 27  1  0  0  0  0
 18 17  2  0  0  0  0
 18 19  1  0  0  0  0
 19 20  2  0  0  0  0
 20 26  1  0  0  0  0
 20 21  1  0  0  0  0
 21 31  1  0  0  0  0
 21 22  1  0  0  0  0
 22 33  1  6  0  0  0
 22 24  1  0  0  0  0
 22 23  1  0  0  0  0
 23 34  1  0  0  0  0
 23  6  1  0  0  0  0
 24 25  2  0  0  0  0
 26 35  1  0  0  0  0
 27 36  1  0  0  0  0
 27 26  2  0  0  0  0
 28 16  1  0  0  0  0
 29 18  1  0  0  0  0
 30 19  1  0  0  0  0
 32 21  1  0  0  0  0
 37 38  1  0  0  0  0
 37 24  1  0  0  0  0
 38 45  1  1  0  0  0
 39 38  1  0  0  0  0
 39 46  1  0  0  0  0
 39 47  1  0  0  0  0
 40 39  1  0  0  0  0
 41 42  1  0  0  0  0
 41 38  1  0  0  0  0
 43 41  2  0  0  0  0
 44 37  1  0  0  0  0
 48 40  1  0  0  0  0
M  END
$$$$
