PYE.pdb
 OpenBabel07022419063D

 53 54  0  0  1  0  0  0  0  0999 V2000
    3.7900   -3.5400    1.8610 N   0  0  0  0  0  0  0  0  0  0  0  0
    4.8180   -3.3040    0.9020 C   0  0  0  0  0  0  0  0  0  0  0  0
    5.4340   -1.9520    1.2280 C   0  0  0  0  0  0  0  0  0  0  0  0
    4.9290   -1.6310    2.6210 C   0  0  0  0  0  0  0  0  0  0  0  0
    3.6100   -2.3760    2.6530 C   0  0  1  0  0  0  0  0  0  0  0  0
    2.5530   -1.4590    2.1740 C   0  0  0  0  0  0  0  0  0  0  0  0
    2.3670   -0.4120    2.8630 O   0  0  0  0  0  0  0  0  0  0  0  0
    2.9450   -4.0000    1.5250 H   0  0  0  0  0  0  0  0  0  0  0  0
    4.4480   -3.2960   -0.1410 H   0  0  0  0  0  0  0  0  0  0  0  0
    5.6430   -4.0440    0.9630 H   0  0  0  0  0  0  0  0  0  0  0  0
    6.5430   -1.9920    1.2140 H   0  0  0  0  0  0  0  0  0  0  0  0
    5.0520   -1.2010    0.4970 H   0  0  0  0  0  0  0  0  0  0  0  0
    5.5940   -2.0630    3.3890 H   0  0  0  0  0  0  0  0  0  0  0  0
    4.7800   -0.5390    2.7260 H   0  0  0  0  0  0  0  0  0  0  0  0
    3.3810   -2.6560    3.6940 H   0  0  0  0  0  0  0  0  0  0  0  0
   -2.4000    3.6590   -3.0860 O   0  0  0  0  0  0  0  0  0  0  0  0
   -1.5760    2.6950   -2.5280 C   0  0  0  0  0  0  0  0  0  0  0  0
   -0.6180    3.0390   -1.5980 C   0  0  0  0  0  0  0  0  0  0  0  0
    0.2140    2.1050   -1.0270 C   0  0  0  0  0  0  0  0  0  0  0  0
    0.1380    0.7450   -1.3570 C   0  0  0  0  0  0  0  0  0  0  0  0
    1.0810   -0.2100   -0.7630 C   0  0  0  0  0  0  0  0  0  0  0  0
    0.7130   -0.7280    0.5840 C   0  0  2  0  0  0  0  0  0  0  0  0
    1.7660   -1.6620    1.0430 N   0  0  0  0  0  0  0  0  0  0  0  0
   -0.5320   -1.5060    0.5240 C   0  0  0  0  0  0  0  0  0  0  0  0
   -0.4080   -2.7850    0.6270 O   0  0  0  0  0  0  0  0  0  0  0  0
   -0.8280    0.4090   -2.2920 C   0  0  0  0  0  0  0  0  0  0  0  0
   -1.6540    1.3600   -2.8550 C   0  0  0  0  0  0  0  0  0  0  0  0
   -2.4990    4.5580   -2.6490 H   0  0  0  0  0  0  0  0  0  0  0  0
   -0.5210    4.0960   -1.3080 H   0  0  0  0  0  0  0  0  0  0  0  0
    0.9700    2.3630   -0.2970 H   0  0  0  0  0  0  0  0  0  0  0  0
    1.1670   -1.0530   -1.5230 H   0  0  0  0  0  0  0  0  0  0  0  0
    2.0800    0.3040   -0.7670 H   0  0  0  0  0  0  0  0  0  0  0  0
    0.6900    0.1040    1.2930 H   0  0  0  0  0  0  0  0  0  0  0  0
    1.8920   -2.5090    0.4560 H   0  0  0  0  0  0  0  0  0  0  0  0
   -0.9110   -0.6310   -2.5660 H   0  0  0  0  0  0  0  0  0  0  0  0
   -2.4170    1.0920   -3.5940 H   0  0  0  0  0  0  0  0  0  0  0  0
   -1.8360   -0.9600    0.3710 N   0  0  0  0  0  0  0  0  0  0  0  0
   -2.9630   -1.8200    0.3360 C   0  0  1  0  0  0  0  0  0  0  0  0
   -3.7550   -1.9970    1.5870 C   0  0  0  0  0  0  0  0  0  0  0  0
   -4.3680   -0.8080    2.2060 C   0  0  0  0  0  0  0  0  0  0  0  0
   -3.4030    0.1800    2.7330 C   0  0  0  0  0  0  0  0  0  0  0  0
   -2.1710    0.0060    2.8560 O   0  0  0  0  0  0  0  0  0  0  0  0
   -3.9120   -1.5100   -0.7490 C   0  0  0  0  0  0  0  0  0  0  0  0
   -3.8320   -0.6050   -1.5840 O   0  0  0  0  0  0  0  0  0  0  0  0
   -3.8480    1.4570    3.1520 O   0  0  0  0  0  0  0  0  0  0  0  0
   -5.0540   -2.3370   -0.8620 O   0  0  0  0  0  0  0  0  0  0  0  0
   -1.9420    0.0570    0.2730 H   0  0  0  0  0  0  0  0  0  0  0  0
   -2.5860   -2.8870    0.0850 H   0  0  0  0  0  0  0  0  0  0  0  0
   -3.1920   -2.5380    2.3840 H   0  0  0  0  0  0  0  0  0  0  0  0
   -4.5760   -2.7340    1.3180 H   0  0  0  0  0  0  0  0  0  0  0  0
   -5.0900   -0.2880    1.5300 H   0  0  0  0  0  0  0  0  0  0  0  0
   -4.9420   -1.1610    3.1200 H   0  0  0  0  0  0  0  0  0  0  0  0
   -3.3770    1.8760    3.9530 H   0  0  0  0  0  0  0  0  0  0  0  0
  1  5  1  0  0  0  0
  2 10  1  0  0  0  0
  2  3  1  0  0  0  0
  2  1  1  0  0  0  0
  3  4  1  0  0  0  0
  4  5  1  0  0  0  0
  4 14  1  0  0  0  0
  4 13  1  0  0  0  0
  5 15  1  1  0  0  0
  6  5  1  0  0  0  0
  6  7  2  0  0  0  0
  8  1  1  0  0  0  0
  9  2  1  0  0  0  0
 11  3  1  0  0  0  0
 12  3  1  0  0  0  0
 16 28  1  0  0  0  0
 16 17  1  0  0  0  0
 17 18  1  0  0  0  0
 18 29  1  0  0  0  0
 18 19  2  0  0  0  0
 19 30  1  0  0  0  0
 20 19  1  0  0  0  0
 20 21  1  0  0  0  0
 21 22  1  0  0  0  0
 22 23  1  0  0  0  0
 22 33  1  1  0  0  0
 23  6  1  0  0  0  0
 24 22  1  0  0  0  0
 24 25  2  0  0  0  0
 26 20  2  0  0  0  0
 27 17  2  0  0  0  0
 27 26  1  0  0  0  0
 31 21  1  0  0  0  0
 32 21  1  0  0  0  0
 34 23  1  0  0  0  0
 35 26  1  0  0  0  0
 36 27  1  0  0  0  0
 37 24  1  0  0  0  0
 38 48  1  6  0  0  0
 38 37  1  0  0  0  0
 38 39  1  0  0  0  0
 39 40  1  0  0  0  0
 39 49  1  0  0  0  0
 40 41  1  0  0  0  0
 40 52  1  0  0  0  0
 41 42  2  0  0  0  0
 41 45  1  0  0  0  0
 43 38  1  0  0  0  0
 44 43  2  0  0  0  0
 45 53  1  0  0  0  0
 46 43  1  0  0  0  0
 47 37  1  0  0  0  0
 50 39  1  0  0  0  0
 51 40  1  0  0  0  0
M  END
$$$$
