PYF.pdb
 OpenBabel07022419063D

 57 59  0  0  1  0  0  0  0  0999 V2000
    0.4460    0.9990    6.0890 N   0  0  0  0  0  0  0  0  0  0  0  0
    0.5860   -0.2550    6.7590 C   0  0  0  0  0  0  0  0  0  0  0  0
    1.8380   -0.9220    6.2720 C   0  0  0  0  0  0  0  0  0  0  0  0
    2.1160   -0.2590    4.9600 C   0  0  0  0  0  0  0  0  0  0  0  0
    1.3150    1.0230    4.9500 C   0  0  1  0  0  0  0  0  0  0  0  0
    0.4880    0.9990    3.7190 C   0  0  0  0  0  0  0  0  0  0  0  0
   -0.7580    0.9650    3.8470 O   0  0  0  0  0  0  0  0  0  0  0  0
    0.4850    1.8310    6.6900 H   0  0  0  0  0  0  0  0  0  0  0  0
   -0.2970   -0.8950    6.4700 H   0  0  0  0  0  0  0  0  0  0  0  0
    0.6360   -0.1200    7.8570 H   0  0  0  0  0  0  0  0  0  0  0  0
    1.6920   -2.0210    6.1640 H   0  0  0  0  0  0  0  0  0  0  0  0
    2.7070   -0.7330    6.9480 H   0  0  0  0  0  0  0  0  0  0  0  0
    1.8010   -0.9670    4.1580 H   0  0  0  0  0  0  0  0  0  0  0  0
    3.2050   -0.0720    4.7780 H   0  0  0  0  0  0  0  0  0  0  0  0
    1.9630    1.9230    4.9150 H   0  0  0  0  0  0  0  0  0  0  0  0
   -2.3820    2.9730   -4.4040 O   0  0  0  0  0  0  0  0  0  0  0  0
   -1.7050    2.8010   -3.1980 C   0  0  0  0  0  0  0  0  0  0  0  0
   -0.4050    2.3490   -3.1760 C   0  0  0  0  0  0  0  0  0  0  0  0
    0.2700    2.1790   -1.9650 C   0  0  0  0  0  0  0  0  0  0  0  0
   -0.3470    2.4590   -0.7500 C   0  0  0  0  0  0  0  0  0  0  0  0
    0.4090    2.2690    0.4950 C   0  0  0  0  0  0  0  0  0  0  0  0
    0.2270    0.9880    1.2130 C   0  0  2  0  0  0  0  0  0  0  0  0
    1.0770    1.0130    2.4220 N   0  0  0  0  0  0  0  0  0  0  0  0
    0.3760   -0.2660    0.4970 C   0  0  0  0  0  0  0  0  0  0  0  0
    1.2690   -1.0920    0.9320 O   0  0  0  0  0  0  0  0  0  0  0  0
   -1.6480    2.9120   -0.7920 C   0  0  0  0  0  0  0  0  0  0  0  0
   -2.3070    3.0770   -1.9920 C   0  0  0  0  0  0  0  0  0  0  0  0
   -2.0440    2.6480   -5.2780 H   0  0  0  0  0  0  0  0  0  0  0  0
    0.1030    2.1210   -4.1270 H   0  0  0  0  0  0  0  0  0  0  0  0
    1.2920    1.8230   -1.9400 H   0  0  0  0  0  0  0  0  0  0  0  0
    1.4810    2.5690    0.3810 H   0  0  0  0  0  0  0  0  0  0  0  0
    0.0130    3.0730    1.1990 H   0  0  0  0  0  0  0  0  0  0  0  0
   -0.8310    0.9910    1.6170 H   0  0  0  0  0  0  0  0  0  0  0  0
    2.1180    1.0400    2.3800 H   0  0  0  0  0  0  0  0  0  0  0  0
   -2.1330    3.1310    0.1560 H   0  0  0  0  0  0  0  0  0  0  0  0
   -3.3290    3.4320   -1.9960 H   0  0  0  0  0  0  0  0  0  0  0  0
   -0.3310   -0.7310   -0.6260 N   0  0  0  0  0  0  0  0  0  0  0  0
   -0.0650   -2.0340   -1.2180 C   0  0  1  0  0  0  0  0  0  0  0  0
   -1.2790   -2.9350   -1.0460 C   0  0  0  0  0  0  0  0  0  0  0  0
   -1.0790   -4.2760   -1.6240 C   0  0  0  0  0  0  0  0  0  0  0  0
   -1.4210   -4.6400   -2.9100 C   0  0  0  0  0  0  0  0  0  0  0  0
   -1.2050   -5.9250   -3.3930 C   0  0  0  0  0  0  0  0  0  0  0  0
   -0.6330   -6.8990   -2.5970 C   0  0  0  0  0  0  0  0  0  0  0  0
   -0.2880   -6.5390   -1.3080 C   0  0  0  0  0  0  0  0  0  0  0  0
   -0.5010   -5.2670   -0.8260 C   0  0  0  0  0  0  0  0  0  0  0  0
    0.4030   -1.9560   -2.6060 C   0  0  0  0  0  0  0  0  0  0  0  0
    0.7110   -2.9950   -3.2220 O   0  0  0  0  0  0  0  0  0  0  0  0
    0.5150   -0.7490   -3.2630 O   0  0  0  0  0  0  0  0  0  0  0  0
   -1.0570   -0.1310   -1.0200 H   0  0  0  0  0  0  0  0  0  0  0  0
    0.7450   -2.5350   -0.6140 H   0  0  0  0  0  0  0  0  0  0  0  0
   -1.5270   -3.0540    0.0160 H   0  0  0  0  0  0  0  0  0  0  0  0
   -2.1570   -2.4860   -1.5620 H   0  0  0  0  0  0  0  0  0  0  0  0
   -1.8740   -3.8670   -3.5350 H   0  0  0  0  0  0  0  0  0  0  0  0
   -1.4880   -6.1740   -4.4120 H   0  0  0  0  0  0  0  0  0  0  0  0
   -0.4730   -7.8940   -2.9880 H   0  0  0  0  0  0  0  0  0  0  0  0
    0.1520   -7.2920   -0.6960 H   0  0  0  0  0  0  0  0  0  0  0  0
   -0.2160   -5.0300    0.1870 H   0  0  0  0  0  0  0  0  0  0  0  0
  1  8  1  0  0  0  0
  1  2  1  0  0  0  0
  2 10  1  0  0  0  0
  3  2  1  0  0  0  0
  3 12  1  0  0  0  0
  4  3  1  0  0  0  0
  5 15  1  1  0  0  0
  5  4  1  0  0  0  0
  5  1  1  0  0  0  0
  6  7  2  0  0  0  0
  6  5  1  0  0  0  0
  9  2  1  0  0  0  0
 11  3  1  0  0  0  0
 13  4  1  0  0  0  0
 14  4  1  0  0  0  0
 16 17  1  0  0  0  0
 17 18  2  0  0  0  0
 17 27  1  0  0  0  0
 18 19  1  0  0  0  0
 19 30  1  0  0  0  0
 19 20  2  0  0  0  0
 20 21  1  0  0  0  0
 21 32  1  0  0  0  0
 21 22  1  0  0  0  0
 22 33  1  1  0  0  0
 22 23  1  0  0  0  0
 23  6  1  0  0  0  0
 24 25  2  0  0  0  0
 24 22  1  0  0  0  0
 26 20  1  0  0  0  0
 26 35  1  0  0  0  0
 27 26  2  0  0  0  0
 28 16  1  0  0  0  0
 29 18  1  0  0  0  0
 31 21  1  0  0  0  0
 34 23  1  0  0  0  0
 36 27  1  0  0  0  0
 37 24  1  0  0  0  0
 38 39  1  0  0  0  0
 38 37  1  0  0  0  0
 38 50  1  1  0  0  0
 39 51  1  0  0  0  0
 40 39  1  0  0  0  0
 40 45  1  0  0  0  0
 41 40  2  0  0  0  0
 42 41  1  0  0  0  0
 42 43  2  0  0  0  0
 43 44  1  0  0  0  0
 44 45  2  0  0  0  0
 44 56  1  0  0  0  0
 45 57  1  0  0  0  0
 46 38  1  0  0  0  0
 47 46  1  0  0  0  0
 48 46  2  0  0  0  0
 49 37  1  0  0  0  0
 52 39  1  0  0  0  0
 53 41  1  0  0  0  0
 54 42  1  0  0  0  0
 55 43  1  0  0  0  0
M  END
$$$$
