PYH.pdb
 OpenBabel07022419063D

 54 56  0  0  1  0  0  0  0  0999 V2000
    2.9410   -1.8570   -0.7460 N   0  0  0  0  0  0  0  0  0  0  0  0
    4.1230   -1.9110   -1.6290 C   0  0  0  0  0  0  0  0  0  0  0  0
    4.8960   -0.7080   -1.1120 C   0  0  0  0  0  0  0  0  0  0  0  0
    4.7570   -0.8810    0.3870 C   0  0  0  0  0  0  0  0  0  0  0  0
    3.4940   -1.7240    0.5880 C   0  0  1  0  0  0  0  0  0  0  0  0
    2.6060   -1.0360    1.5350 C   0  0  0  0  0  0  0  0  0  0  0  0
    2.9910   -0.8500    2.7380 O   0  0  0  0  0  0  0  0  0  0  0  0
    2.5200   -0.9070   -0.9810 H   0  0  0  0  0  0  0  0  0  0  0  0
    3.8040   -1.7580   -2.6640 H   0  0  0  0  0  0  0  0  0  0  0  0
    4.7200   -2.8090   -1.4460 H   0  0  0  0  0  0  0  0  0  0  0  0
    4.4210    0.2350   -1.4490 H   0  0  0  0  0  0  0  0  0  0  0  0
    5.9580   -0.7220   -1.4350 H   0  0  0  0  0  0  0  0  0  0  0  0
    5.6450   -1.3500    0.8330 H   0  0  0  0  0  0  0  0  0  0  0  0
    4.5870    0.1560    0.8010 H   0  0  0  0  0  0  0  0  0  0  0  0
    3.8490   -2.7040    0.9810 H   0  0  0  0  0  0  0  0  0  0  0  0
   -2.2660    2.7950   -3.0800 O   0  0  0  0  0  0  0  0  0  0  0  0
   -1.6770    2.4900   -1.8490 C   0  0  0  0  0  0  0  0  0  0  0  0
   -0.3080    2.4070   -1.7170 C   0  0  0  0  0  0  0  0  0  0  0  0
    0.2740    2.1060   -0.5020 C   0  0  0  0  0  0  0  0  0  0  0  0
   -0.4760    1.8720    0.6380 C   0  0  0  0  0  0  0  0  0  0  0  0
    0.1890    1.5640    1.9040 C   0  0  0  0  0  0  0  0  0  0  0  0
    0.4660    0.1320    2.1870 C   0  0  2  0  0  0  0  0  0  0  0  0
    1.3100   -0.5370    1.2380 N   0  0  0  0  0  0  0  0  0  0  0  0
   -0.7280   -0.6720    2.5610 C   0  0  0  0  0  0  0  0  0  0  0  0
   -1.5510   -0.1560    3.3540 O   0  0  0  0  0  0  0  0  0  0  0  0
   -1.8470    1.9540    0.5050 C   0  0  0  0  0  0  0  0  0  0  0  0
   -2.4360    2.2580   -0.7210 C   0  0  0  0  0  0  0  0  0  0  0  0
   -2.6240    3.7300   -3.2430 H   0  0  0  0  0  0  0  0  0  0  0  0
    0.2880    2.5930   -2.6220 H   0  0  0  0  0  0  0  0  0  0  0  0
    1.3620    2.0440   -0.4120 H   0  0  0  0  0  0  0  0  0  0  0  0
   -0.3650    1.9670    2.7930 H   0  0  0  0  0  0  0  0  0  0  0  0
    1.1780    2.0990    1.9420 H   0  0  0  0  0  0  0  0  0  0  0  0
    1.0710    0.1480    3.1530 H   0  0  0  0  0  0  0  0  0  0  0  0
    0.9430   -0.6640    0.2640 H   0  0  0  0  0  0  0  0  0  0  0  0
   -2.4660    1.7790    1.3650 H   0  0  0  0  0  0  0  0  0  0  0  0
   -3.5150    2.3260   -0.8360 H   0  0  0  0  0  0  0  0  0  0  0  0
   -0.9830   -1.9830    2.0720 N   0  0  0  0  0  0  0  0  0  0  0  0
   -2.1430   -2.7630    2.4410 C   0  0  1  0  0  0  0  0  0  0  0  0
   -2.7990   -3.3250    1.2140 C   0  0  0  0  0  0  0  0  0  0  0  0
   -3.2640   -2.3170    0.2490 C   0  0  0  0  0  0  0  0  0  0  0  0
   -4.5400   -1.7780    0.3040 C   0  0  0  0  0  0  0  0  0  0  0  0
   -4.6180   -0.9170   -0.7050 N   0  0  0  0  0  0  0  0  0  0  0  0
   -3.4570   -0.9040   -1.3700 C   0  0  0  0  0  0  0  0  0  0  0  0
   -2.6260   -1.7680   -0.7780 N   0  0  0  0  0  0  0  0  0  0  0  0
   -1.7390   -3.9530    3.2680 C   0  0  0  0  0  0  0  0  0  0  0  0
   -2.6090   -4.7250    3.6670 O   0  0  0  0  0  0  0  0  0  0  0  0
   -0.3990   -4.1200    3.5390 O   0  0  0  0  0  0  0  0  0  0  0  0
   -0.2840   -2.3790    1.4180 H   0  0  0  0  0  0  0  0  0  0  0  0
   -2.8450   -2.1840    3.0700 H   0  0  0  0  0  0  0  0  0  0  0  0
   -3.6580   -3.9850    1.5360 H   0  0  0  0  0  0  0  0  0  0  0  0
   -2.1020   -4.0090    0.6930 H   0  0  0  0  0  0  0  0  0  0  0  0
   -5.3370   -2.0030    1.0230 H   0  0  0  0  0  0  0  0  0  0  0  0
   -5.4410   -0.3100   -0.9870 H   0  0  0  0  0  0  0  0  0  0  0  0
   -3.2220   -0.2990   -2.2410 H   0  0  0  0  0  0  0  0  0  0  0  0
  1  5  1  0  0  0  0
  2 10  1  0  0  0  0
  2  3  1  0  0  0  0
  2  1  1  0  0  0  0
  3  4  1  0  0  0  0
  4  5  1  0  0  0  0
  4 14  1  0  0  0  0
  4 13  1  0  0  0  0
  5 15  1  1  0  0  0
  5  6  1  0  0  0  0
  6  7  2  0  0  0  0
  8  1  1  0  0  0  0
  9  2  1  0  0  0  0
 11  3  1  0  0  0  0
 12  3  1  0  0  0  0
 16 17  1  0  0  0  0
 17 18  2  0  0  0  0
 17 27  1  0  0  0  0
 18 19  1  0  0  0  0
 19 30  1  0  0  0  0
 19 20  2  0  0  0  0
 20 21  1  0  0  0  0
 21 32  1  0  0  0  0
 21 22  1  0  0  0  0
 21 31  1  0  0  0  0
 22 24  1  0  0  0  0
 22 33  1  1  0  0  0
 23  6  1  0  0  0  0
 23 22  1  0  0  0  0
 24 25  2  0  0  0  0
 26 20  1  0  0  0  0
 26 35  1  0  0  0  0
 27 26  2  0  0  0  0
 28 16  1  0  0  0  0
 29 18  1  0  0  0  0
 34 23  1  0  0  0  0
 36 27  1  0  0  0  0
 37 38  1  0  0  0  0
 37 24  1  0  0  0  0
 38 49  1  1  0  0  0
 38 45  1  0  0  0  0
 39 50  1  0  0  0  0
 39 38  1  0  0  0  0
 40 41  2  0  0  0  0
 40 39  1  0  0  0  0
 41 52  1  0  0  0  0
 42 41  1  0  0  0  0
 43 44  2  0  0  0  0
 43 42  1  0  0  0  0
 44 40  1  0  0  0  0
 45 47  2  0  0  0  0
 45 46  1  0  0  0  0
 48 37  1  0  0  0  0
 51 39  1  0  0  0  0
 53 42  1  0  0  0  0
 54 43  1  0  0  0  0
M  END
$$$$
