PYI.pdb
 OpenBabel07022419063D

 56 57  0  0  1  0  0  0  0  0999 V2000
    2.1790   -2.9900    3.3540 N   0  0  0  0  0  0  0  0  0  0  0  0
    1.4280   -4.1370    3.7700 C   0  0  0  0  0  0  0  0  0  0  0  0
    1.2350   -5.0210    2.5720 C   0  0  0  0  0  0  0  0  0  0  0  0
    2.2450   -4.5510    1.5630 C   0  0  0  0  0  0  0  0  0  0  0  0
    2.5240   -3.1360    1.9780 C   0  0  1  0  0  0  0  0  0  0  0  0
    1.8210   -2.1960    1.0850 C   0  0  0  0  0  0  0  0  0  0  0  0
    2.0670   -2.2570   -0.1450 O   0  0  0  0  0  0  0  0  0  0  0  0
    3.0320   -2.8360    3.9670 H   0  0  0  0  0  0  0  0  0  0  0  0
    2.0270   -4.7000    4.5340 H   0  0  0  0  0  0  0  0  0  0  0  0
    0.4600   -3.8750    4.2460 H   0  0  0  0  0  0  0  0  0  0  0  0
    1.4970   -6.0750    2.8270 H   0  0  0  0  0  0  0  0  0  0  0  0
    0.2150   -5.0290    2.1740 H   0  0  0  0  0  0  0  0  0  0  0  0
    1.8600   -4.5470    0.5310 H   0  0  0  0  0  0  0  0  0  0  0  0
    3.1500   -5.1940    1.5670 H   0  0  0  0  0  0  0  0  0  0  0  0
    3.6270   -2.9810    1.8830 H   0  0  0  0  0  0  0  0  0  0  0  0
    3.4230    3.8800    4.0990 O   0  0  0  0  0  0  0  0  0  0  0  0
    2.8920    3.0680    3.0940 C   0  0  0  0  0  0  0  0  0  0  0  0
    1.7180    3.4240    2.4690 C   0  0  0  0  0  0  0  0  0  0  0  0
    1.1760    2.6270    1.4660 C   0  0  0  0  0  0  0  0  0  0  0  0
    1.7830    1.4570    1.0590 C   0  0  0  0  0  0  0  0  0  0  0  0
    1.1770    0.6300   -0.0150 C   0  0  0  0  0  0  0  0  0  0  0  0
    0.2410   -0.3530    0.6300 C   0  0  2  0  0  0  0  0  0  0  0  0
    0.8900   -1.2390    1.5690 N   0  0  0  0  0  0  0  0  0  0  0  0
   -0.5470   -1.1220   -0.3850 C   0  0  0  0  0  0  0  0  0  0  0  0
   -0.5490   -2.3730   -0.2860 O   0  0  0  0  0  0  0  0  0  0  0  0
    2.9590    1.1170    1.6960 C   0  0  0  0  0  0  0  0  0  0  0  0
    3.5050    1.9030    2.6940 C   0  0  0  0  0  0  0  0  0  0  0  0
    3.1810    3.7850    5.0710 H   0  0  0  0  0  0  0  0  0  0  0  0
    1.2250    4.3400    2.7750 H   0  0  0  0  0  0  0  0  0  0  0  0
    0.2580    2.9380    1.0020 H   0  0  0  0  0  0  0  0  0  0  0  0
    0.5710    1.2880   -0.6590 H   0  0  0  0  0  0  0  0  0  0  0  0
    1.9330    0.1560   -0.6640 H   0  0  0  0  0  0  0  0  0  0  0  0
   -0.4690    0.2730    1.2550 H   0  0  0  0  0  0  0  0  0  0  0  0
    0.7080   -1.2140    2.6160 H   0  0  0  0  0  0  0  0  0  0  0  0
    3.4410    0.1880    1.3720 H   0  0  0  0  0  0  0  0  0  0  0  0
    4.4250    1.6170    3.1790 H   0  0  0  0  0  0  0  0  0  0  0  0
   -5.2060    0.8920   -2.3890 C   0  0  0  0  0  0  0  0  0  0  0  0
   -3.7320    0.6130   -2.4650 C   0  0  0  0  0  0  0  0  0  0  0  0
   -3.5130   -0.8540   -2.2730 C   0  0  2  0  0  0  0  0  0  0  0  0
   -4.0260   -1.3430   -0.9330 C   0  0  0  0  0  0  0  0  0  0  0  0
   -2.0400   -1.2300   -2.4170 C   0  0  2  0  0  0  0  0  0  0  0  0
   -1.2670   -0.5130   -1.4190 N   0  0  0  0  0  0  0  0  0  0  0  0
   -1.5810   -0.9660   -3.7830 C   0  0  0  0  0  0  0  0  0  0  0  0
   -0.6240   -0.2000   -4.0040 O   0  0  0  0  0  0  0  0  0  0  0  0
   -2.2210   -1.5780   -4.8380 O   0  0  0  0  0  0  0  0  0  0  0  0
   -5.8220    0.0440   -2.6940 H   0  0  0  0  0  0  0  0  0  0  0  0
   -5.5010    1.2130   -1.3530 H   0  0  0  0  0  0  0  0  0  0  0  0
   -5.4570    1.7790   -3.0390 H   0  0  0  0  0  0  0  0  0  0  0  0
   -3.2360    1.2350   -1.6980 H   0  0  0  0  0  0  0  0  0  0  0  0
   -3.3990    0.8710   -3.4900 H   0  0  0  0  0  0  0  0  0  0  0  0
   -4.0520   -1.3880   -3.0820 H   0  0  0  0  0  0  0  0  0  0  0  0
   -3.7430   -2.4100   -0.8220 H   0  0  0  0  0  0  0  0  0  0  0  0
   -5.1320   -1.2920   -0.9560 H   0  0  0  0  0  0  0  0  0  0  0  0
   -3.6410   -0.7560   -0.0960 H   0  0  0  0  0  0  0  0  0  0  0  0
   -1.9870   -2.3330   -2.2540 H   0  0  0  0  0  0  0  0  0  0  0  0
   -1.2550    0.5260   -1.4880 H   0  0  0  0  0  0  0  0  0  0  0  0
  1  2  1  0  0  0  0
  1  8  1  0  0  0  0
  2 10  1  0  0  0  0
  2  9  1  0  0  0  0
  3 11  1  0  0  0  0
  3  2  1  0  0  0  0
  4 14  1  0  0  0  0
  4  5  1  0  0  0  0
  4  3  1  0  0  0  0
  5 15  1  6  0  0  0
  5  1  1  0  0  0  0
  6 23  1  0  0  0  0
  6  5  1  0  0  0  0
  7  6  2  0  0  0  0
 12  3  1  0  0  0  0
 13  4  1  0  0  0  0
 16 28  1  0  0  0  0
 17 16  1  0  0  0  0
 18 29  1  0  0  0  0
 18 17  2  0  0  0  0
 19 18  1  0  0  0  0
 20 19  2  0  0  0  0
 20 26  1  0  0  0  0
 21 22  1  0  0  0  0
 21 20  1  0  0  0  0
 22 33  1  1  0  0  0
 22 23  1  0  0  0  0
 23 34  1  0  0  0  0
 24 25  2  0  0  0  0
 24 22  1  0  0  0  0
 26 27  2  0  0  0  0
 27 17  1  0  0  0  0
 27 36  1  0  0  0  0
 30 19  1  0  0  0  0
 31 21  1  0  0  0  0
 32 21  1  0  0  0  0
 35 26  1  0  0  0  0
 37 47  1  0  0  0  0
 38 37  1  0  0  0  0
 38 39  1  0  0  0  0
 38 49  1  0  0  0  0
 39 51  1  6  0  0  0
 39 40  1  0  0  0  0
 40 52  1  0  0  0  0
 40 54  1  0  0  0  0
 41 39  1  0  0  0  0
 41 55  1  1  0  0  0
 41 42  1  0  0  0  0
 42 24  1  0  0  0  0
 43 41  1  0  0  0  0
 44 43  1  0  0  0  0
 45 43  2  0  0  0  0
 46 37  1  0  0  0  0
 48 37  1  0  0  0  0
 50 38  1  0  0  0  0
 53 40  1  0  0  0  0
 56 42  1  0  0  0  0
M  END
$$$$
