PYK.pdb
 OpenBabel07022419063D

 58 59  0  0  1  0  0  0  0  0999 V2000
    4.1780   -2.5290    2.9940 N   0  0  0  0  0  0  0  0  0  0  0  0
    5.1230   -2.5090    1.9110 C   0  0  0  0  0  0  0  0  0  0  0  0
    5.6610   -1.0970    1.8110 C   0  0  0  0  0  0  0  0  0  0  0  0
    5.4170   -0.5920    3.2380 C   0  0  0  0  0  0  0  0  0  0  0  0
    4.0400   -1.2150    3.5020 C   0  0  1  0  0  0  0  0  0  0  0  0
    3.0580   -0.3770    2.7790 C   0  0  0  0  0  0  0  0  0  0  0  0
    2.8700    0.7970    3.1570 O   0  0  0  0  0  0  0  0  0  0  0  0
    3.3200   -3.0490    2.8110 H   0  0  0  0  0  0  0  0  0  0  0  0
    5.9800   -3.1520    2.2050 H   0  0  0  0  0  0  0  0  0  0  0  0
    4.6950   -2.8670    0.9540 H   0  0  0  0  0  0  0  0  0  0  0  0
    6.7230   -1.0610    1.5450 H   0  0  0  0  0  0  0  0  0  0  0  0
    5.0480   -0.4590    1.1560 H   0  0  0  0  0  0  0  0  0  0  0  0
    6.1940   -1.0320    3.8720 H   0  0  0  0  0  0  0  0  0  0  0  0
    5.3500    0.5000    3.2840 H   0  0  0  0  0  0  0  0  0  0  0  0
    3.8600   -1.1410    4.5770 H   0  0  0  0  0  0  0  0  0  0  0  0
   -2.1690    3.5280   -3.1250 O   0  0  0  0  0  0  0  0  0  0  0  0
   -1.2590    2.7160   -2.4540 C   0  0  0  0  0  0  0  0  0  0  0  0
   -0.1830    3.2140   -1.7530 C   0  0  0  0  0  0  0  0  0  0  0  0
    0.7110    2.4080   -1.0940 C   0  0  0  0  0  0  0  0  0  0  0  0
    0.5530    1.0330   -1.1140 C   0  0  0  0  0  0  0  0  0  0  0  0
    1.5640    0.1900   -0.4310 C   0  0  0  0  0  0  0  0  0  0  0  0
    1.3480    0.0480    0.9920 C   0  0  2  0  0  0  0  0  0  0  0  0
    2.3050   -0.7900    1.6860 N   0  0  0  0  0  0  0  0  0  0  0  0
    0.0130   -0.5480    1.2710 C   0  0  0  0  0  0  0  0  0  0  0  0
   -0.0760   -1.7570    1.7010 O   0  0  0  0  0  0  0  0  0  0  0  0
   -0.5050    0.5060   -1.8010 C   0  0  0  0  0  0  0  0  0  0  0  0
   -1.3800    1.3330   -2.4480 C   0  0  0  0  0  0  0  0  0  0  0  0
   -2.2070    4.5000   -2.8140 H   0  0  0  0  0  0  0  0  0  0  0  0
   -0.0790    4.3110   -1.7520 H   0  0  0  0  0  0  0  0  0  0  0  0
    1.5510    2.8660   -0.5510 H   0  0  0  0  0  0  0  0  0  0  0  0
    1.4850   -0.8240   -0.9300 H   0  0  0  0  0  0  0  0  0  0  0  0
    2.5360    0.5730   -0.7820 H   0  0  0  0  0  0  0  0  0  0  0  0
    1.3640    1.0270    1.5090 H   0  0  0  0  0  0  0  0  0  0  0  0
    2.4020   -1.7540    1.3070 H   0  0  0  0  0  0  0  0  0  0  0  0
   -0.6160   -0.5730   -1.8080 H   0  0  0  0  0  0  0  0  0  0  0  0
   -2.2410    0.9170   -3.0080 H   0  0  0  0  0  0  0  0  0  0  0  0
   -1.1830    0.1880    1.0830 N   0  0  0  0  0  0  0  0  0  0  0  0
   -2.4750   -0.4400    1.3640 C   0  0  1  0  0  0  0  0  0  0  0  0
   -2.7350   -1.5340    0.4070 C   0  0  0  0  0  0  0  0  0  0  0  0
   -4.0190   -2.2740    0.5430 C   0  0  0  0  0  0  0  0  0  0  0  0
   -4.1330   -3.3620   -0.5180 C   0  0  0  0  0  0  0  0  0  0  0  0
   -4.0900   -2.8050   -1.9210 C   0  0  0  0  0  0  0  0  0  0  0  0
   -4.2160   -3.9100   -2.8780 N   0  0  0  0  0  0  0  0  0  0  0  0
   -2.4960   -0.9070    2.7670 C   0  0  0  0  0  0  0  0  0  0  0  0
   -1.4980   -0.7290    3.5520 O   0  0  0  0  0  0  0  0  0  0  0  0
   -3.5650   -1.5650    3.3640 O   0  0  0  0  0  0  0  0  0  0  0  0
   -1.1560    1.2080    0.7650 H   0  0  0  0  0  0  0  0  0  0  0  0
   -3.2880    0.3360    1.2980 H   0  0  0  0  0  0  0  0  0  0  0  0
   -1.9210   -2.2900    0.4760 H   0  0  0  0  0  0  0  0  0  0  0  0
   -2.6330   -1.1280   -0.6380 H   0  0  0  0  0  0  0  0  0  0  0  0
   -4.2630   -2.6680    1.5250 H   0  0  0  0  0  0  0  0  0  0  0  0
   -4.8380   -1.5400    0.2790 H   0  0  0  0  0  0  0  0  0  0  0  0
   -5.0050   -3.9970   -0.3690 H   0  0  0  0  0  0  0  0  0  0  0  0
   -3.1860   -3.9680   -0.4060 H   0  0  0  0  0  0  0  0  0  0  0  0
   -3.1070   -2.3430   -2.1570 H   0  0  0  0  0  0  0  0  0  0  0  0
   -4.9430   -2.1290   -2.1190 H   0  0  0  0  0  0  0  0  0  0  0  0
   -3.3100   -4.4160   -2.9950 H   0  0  0  0  0  0  0  0  0  0  0  0
   -4.4760   -3.5510   -3.8250 H   0  0  0  0  0  0  0  0  0  0  0  0
  1  5  1  0  0  0  0
  2  9  1  0  0  0  0
  2  1  1  0  0  0  0
  3  2  1  0  0  0  0
  3  4  1  0  0  0  0
  4 14  1  0  0  0  0
  4  5  1  0  0  0  0
  4 13  1  0  0  0  0
  5 15  1  1  0  0  0
  6  7  2  0  0  0  0
  6  5  1  0  0  0  0
  8  1  1  0  0  0  0
 10  2  1  0  0  0  0
 11  3  1  0  0  0  0
 12  3  1  0  0  0  0
 16 28  1  0  0  0  0
 16 17  1  0  0  0  0
 17 27  2  0  0  0  0
 17 18  1  0  0  0  0
 18 29  1  0  0  0  0
 18 19  2  0  0  0  0
 19 30  1  0  0  0  0
 20 19  1  0  0  0  0
 20 21  1  0  0  0  0
 21 22  1  0  0  0  0
 22 24  1  0  0  0  0
 22 33  1  1  0  0  0
 22 23  1  0  0  0  0
 23  6  1  0  0  0  0
 24 25  2  0  0  0  0
 26 20  2  0  0  0  0
 27 26  1  0  0  0  0
 31 21  1  0  0  0  0
 32 21  1  0  0  0  0
 34 23  1  0  0  0  0
 35 26  1  0  0  0  0
 36 27  1  0  0  0  0
 37 24  1  0  0  0  0
 37 38  1  0  0  0  0
 38 48  1  6  0  0  0
 38 44  1  0  0  0  0
 39 49  1  0  0  0  0
 39 40  1  0  0  0  0
 39 38  1  0  0  0  0
 40 51  1  0  0  0  0
 41 54  1  0  0  0  0
 41 53  1  0  0  0  0
 41 40  1  0  0  0  0
 42 41  1  0  0  0  0
 43 42  1  0  0  0  0
 44 46  2  0  0  0  0
 44 45  1  0  0  0  0
 47 37  1  0  0  0  0
 50 39  1  0  0  0  0
 52 40  1  0  0  0  0
 55 42  1  0  0  0  0
 56 42  1  0  0  0  0
 57 43  1  0  0  0  0
 58 43  1  0  0  0  0
M  END
$$$$
