PYL.pdb
 OpenBabel07022419063D

 56 57  0  0  1  0  0  0  0  0999 V2000
    3.3410   -2.7300   -1.0120 N   0  0  0  0  0  0  0  0  0  0  0  0
    3.3280   -2.1260   -2.3220 C   0  0  0  0  0  0  0  0  0  0  0  0
    3.9640   -0.7580   -2.1620 C   0  0  0  0  0  0  0  0  0  0  0  0
    4.9430   -1.0740   -1.0210 C   0  0  0  0  0  0  0  0  0  0  0  0
    3.9820   -1.8240   -0.0940 C   0  0  1  0  0  0  0  0  0  0  0  0
    3.0390   -0.7900    0.4260 C   0  0  0  0  0  0  0  0  0  0  0  0
    3.4530    0.0730    1.2360 O   0  0  0  0  0  0  0  0  0  0  0  0
    3.9310   -3.6090   -1.0360 H   0  0  0  0  0  0  0  0  0  0  0  0
    2.3350   -2.0920   -2.7660 H   0  0  0  0  0  0  0  0  0  0  0  0
    3.9780   -2.7280   -3.0180 H   0  0  0  0  0  0  0  0  0  0  0  0
    4.4630   -0.3920   -3.0540 H   0  0  0  0  0  0  0  0  0  0  0  0
    3.2020   -0.0940   -1.7310 H   0  0  0  0  0  0  0  0  0  0  0  0
    5.7400   -1.7630   -1.3560 H   0  0  0  0  0  0  0  0  0  0  0  0
    5.3210   -0.1490   -0.5620 H   0  0  0  0  0  0  0  0  0  0  0  0
    4.5280   -2.3310    0.7190 H   0  0  0  0  0  0  0  0  0  0  0  0
   -3.4300    5.0820    1.2770 O   0  0  0  0  0  0  0  0  0  0  0  0
   -2.5210    4.1190    0.8250 C   0  0  0  0  0  0  0  0  0  0  0  0
   -1.1590    4.3120    0.9000 C   0  0  0  0  0  0  0  0  0  0  0  0
   -0.2680    3.3600    0.4540 C   0  0  0  0  0  0  0  0  0  0  0  0
   -0.6890    2.1550   -0.0950 C   0  0  0  0  0  0  0  0  0  0  0  0
    0.2820    1.1510   -0.5860 C   0  0  0  0  0  0  0  0  0  0  0  0
    0.7200    0.2410    0.5110 C   0  0  2  0  0  0  0  0  0  0  0  0
    1.6830   -0.7560    0.0280 N   0  0  0  0  0  0  0  0  0  0  0  0
   -0.3300   -0.3650    1.3210 C   0  0  0  0  0  0  0  0  0  0  0  0
   -1.2190    0.3530    1.8370 O   0  0  0  0  0  0  0  0  0  0  0  0
   -2.0560    1.9760   -0.1630 C   0  0  0  0  0  0  0  0  0  0  0  0
   -2.9500    2.9260    0.2830 C   0  0  0  0  0  0  0  0  0  0  0  0
   -4.3940    5.0190    0.9320 H   0  0  0  0  0  0  0  0  0  0  0  0
   -0.8230    5.2580    1.3320 H   0  0  0  0  0  0  0  0  0  0  0  0
    0.8070    3.5230    0.5180 H   0  0  0  0  0  0  0  0  0  0  0  0
    1.1570    1.6920   -0.9980 H   0  0  0  0  0  0  0  0  0  0  0  0
   -0.2130    0.6270   -1.4270 H   0  0  0  0  0  0  0  0  0  0  0  0
    1.3250    0.8880    1.2170 H   0  0  0  0  0  0  0  0  0  0  0  0
    1.3720   -1.4960   -0.6520 H   0  0  0  0  0  0  0  0  0  0  0  0
   -2.4140    1.0420   -0.5880 H   0  0  0  0  0  0  0  0  0  0  0  0
   -4.0310    2.7720    0.2230 H   0  0  0  0  0  0  0  0  0  0  0  0
   -3.9800   -4.1150    0.0460 C   0  0  0  0  0  0  0  0  0  0  0  0
   -3.1340   -2.9330    0.5480 C   0  0  0  0  0  0  0  0  0  0  0  0
   -2.2420   -2.4490   -0.5540 C   0  0  0  0  0  0  0  0  0  0  0  0
   -2.3460   -3.3500    1.7390 C   0  0  0  0  0  0  0  0  0  0  0  0
   -1.4800   -2.3260    2.3890 C   0  0  2  0  0  0  0  0  0  0  0  0
   -0.4330   -1.7620    1.5860 N   0  0  0  0  0  0  0  0  0  0  0  0
   -0.9300   -2.8760    3.6720 C   0  0  0  0  0  0  0  0  0  0  0  0
    0.2910   -2.7910    3.8930 O   0  0  0  0  0  0  0  0  0  0  0  0
   -1.7590   -3.4670    4.5960 O   0  0  0  0  0  0  0  0  0  0  0  0
   -3.4060   -5.0280    0.3030 H   0  0  0  0  0  0  0  0  0  0  0  0
   -4.9390   -4.0610    0.5780 H   0  0  0  0  0  0  0  0  0  0  0  0
   -4.0820   -4.0140   -1.0530 H   0  0  0  0  0  0  0  0  0  0  0  0
   -3.8200   -2.1230    0.8380 H   0  0  0  0  0  0  0  0  0  0  0  0
   -2.6640   -2.7920   -1.5570 H   0  0  0  0  0  0  0  0  0  0  0  0
   -2.2180   -1.3450   -0.5310 H   0  0  0  0  0  0  0  0  0  0  0  0
   -1.2420   -2.8610   -0.4700 H   0  0  0  0  0  0  0  0  0  0  0  0
   -3.0600   -3.7830    2.5140 H   0  0  0  0  0  0  0  0  0  0  0  0
   -1.6900   -4.2430    1.4700 H   0  0  0  0  0  0  0  0  0  0  0  0
   -2.1650   -1.4600    2.6740 H   0  0  0  0  0  0  0  0  0  0  0  0
    0.3190   -2.3560    1.1660 H   0  0  0  0  0  0  0  0  0  0  0  0
  1  5  1  0  0  0  0
  2  3  1  0  0  0  0
  2  1  1  0  0  0  0
  3 12  1  0  0  0  0
  3  4  1  0  0  0  0
  4 14  1  0  0  0  0
  4  5  1  0  0  0  0
  5  6  1  0  0  0  0
  5 15  1  1  0  0  0
  6  7  2  0  0  0  0
  8  1  1  0  0  0  0
  9  2  1  0  0  0  0
 10  2  1  0  0  0  0
 11  3  1  0  0  0  0
 13  4  1  0  0  0  0
 17 18  1  0  0  0  0
 17 16  1  0  0  0  0
 18 29  1  0  0  0  0
 19 30  1  0  0  0  0
 19 18  2  0  0  0  0
 20 19  1  0  0  0  0
 21 20  1  0  0  0  0
 21 22  1  0  0  0  0
 22 33  1  1  0  0  0
 22 24  1  0  0  0  0
 23  6  1  0  0  0  0
 23 22  1  0  0  0  0
 24 42  1  0  0  0  0
 24 25  2  0  0  0  0
 26 20  2  0  0  0  0
 26 27  1  0  0  0  0
 27 17  2  0  0  0  0
 28 16  1  0  0  0  0
 31 21  1  0  0  0  0
 32 21  1  0  0  0  0
 34 23  1  0  0  0  0
 35 26  1  0  0  0  0
 36 27  1  0  0  0  0
 37 46  1  0  0  0  0
 37 38  1  0  0  0  0
 37 47  1  0  0  0  0
 38 49  1  0  0  0  0
 38 40  1  0  0  0  0
 39 51  1  0  0  0  0
 39 52  1  0  0  0  0
 39 38  1  0  0  0  0
 40 41  1  0  0  0  0
 40 53  1  0  0  0  0
 41 55  1  1  0  0  0
 41 43  1  0  0  0  0
 42 41  1  0  0  0  0
 43 44  2  0  0  0  0
 43 45  1  0  0  0  0
 48 37  1  0  0  0  0
 50 39  1  0  0  0  0
 54 40  1  0  0  0  0
 56 42  1  0  0  0  0
M  END
$$$$
