PYN.pdb
 OpenBabel07022419063D

 51 52  0  0  1  0  0  0  0  0999 V2000
    1.5700   -2.3870   -2.3200 N   0  0  0  0  0  0  0  0  0  0  0  0
    1.9710   -1.5750   -3.4180 C   0  0  0  0  0  0  0  0  0  0  0  0
    3.4910   -1.7860   -3.4330 C   0  0  0  0  0  0  0  0  0  0  0  0
    3.7690   -1.6020   -1.9360 C   0  0  0  0  0  0  0  0  0  0  0  0
    2.5350   -2.2220   -1.2950 C   0  0  1  0  0  0  0  0  0  0  0  0
    2.1610   -1.3360   -0.1800 C   0  0  0  0  0  0  0  0  0  0  0  0
    2.9950   -1.1850    0.7410 O   0  0  0  0  0  0  0  0  0  0  0  0
    0.5850   -2.3990   -2.0680 H   0  0  0  0  0  0  0  0  0  0  0  0
    1.8230   -0.4980   -3.1960 H   0  0  0  0  0  0  0  0  0  0  0  0
    1.5280   -1.8770   -4.3880 H   0  0  0  0  0  0  0  0  0  0  0  0
    3.7500   -2.8380   -3.6510 H   0  0  0  0  0  0  0  0  0  0  0  0
    4.0080   -1.0490   -4.0490 H   0  0  0  0  0  0  0  0  0  0  0  0
    3.8040   -0.5070   -1.7750 H   0  0  0  0  0  0  0  0  0  0  0  0
    4.6990   -2.0750   -1.6250 H   0  0  0  0  0  0  0  0  0  0  0  0
    2.8640   -3.2270   -0.9470 H   0  0  0  0  0  0  0  0  0  0  0  0
   -1.1240    4.8020    5.0430 O   0  0  0  0  0  0  0  0  0  0  0  0
   -0.7870    4.0120    3.9440 C   0  0  0  0  0  0  0  0  0  0  0  0
    0.5220    3.7560    3.6020 C   0  0  0  0  0  0  0  0  0  0  0  0
    0.8540    2.9810    2.5230 C   0  0  0  0  0  0  0  0  0  0  0  0
   -0.1320    2.4160    1.7250 C   0  0  0  0  0  0  0  0  0  0  0  0
    0.2860    1.5980    0.5470 C   0  0  0  0  0  0  0  0  0  0  0  0
    0.5280    0.2100    0.9650 C   0  0  2  0  0  0  0  0  0  0  0  0
    0.9420   -0.6710   -0.1100 N   0  0  0  0  0  0  0  0  0  0  0  0
   -0.5740   -0.4810    1.6590 C   0  0  0  0  0  0  0  0  0  0  0  0
   -1.0700    0.0610    2.6700 O   0  0  0  0  0  0  0  0  0  0  0  0
   -1.4330    2.6530    2.0420 C   0  0  0  0  0  0  0  0  0  0  0  0
   -1.7410    3.4330    3.1270 C   0  0  0  0  0  0  0  0  0  0  0  0
   -2.0130    4.5830    5.4870 H   0  0  0  0  0  0  0  0  0  0  0  0
    1.3020    4.1880    4.2130 H   0  0  0  0  0  0  0  0  0  0  0  0
    1.9150    2.7960    2.2760 H   0  0  0  0  0  0  0  0  0  0  0  0
    1.2650    2.0300    0.2210 H   0  0  0  0  0  0  0  0  0  0  0  0
   -0.4800    1.6810   -0.2540 H   0  0  0  0  0  0  0  0  0  0  0  0
    1.3960    0.2130    1.6880 H   0  0  0  0  0  0  0  0  0  0  0  0
    0.2490   -0.7950   -0.8780 H   0  0  0  0  0  0  0  0  0  0  0  0
   -2.2130    2.2110    1.4130 H   0  0  0  0  0  0  0  0  0  0  0  0
   -2.7740    3.6320    3.3930 H   0  0  0  0  0  0  0  0  0  0  0  0
   -1.9740   -3.9070   -0.5580 N   0  0  0  0  0  0  0  0  0  0  0  0
   -3.2340   -3.4090   -0.1660 C   0  0  0  0  0  0  0  0  0  0  0  0
   -4.2160   -3.6380   -0.9080 O   0  0  0  0  0  0  0  0  0  0  0  0
   -3.3960   -2.6510    1.0620 C   0  0  0  0  0  0  0  0  0  0  0  0
   -2.1760   -2.4370    1.8880 C   0  0  2  0  0  0  0  0  0  0  0  0
   -1.1070   -1.7320    1.2430 N   0  0  0  0  0  0  0  0  0  0  0  0
   -1.6410   -3.6950    2.4690 C   0  0  0  0  0  0  0  0  0  0  0  0
   -0.4280   -4.0150    2.3800 O   0  0  0  0  0  0  0  0  0  0  0  0
   -2.4860   -4.5660    3.1390 O   0  0  0  0  0  0  0  0  0  0  0  0
   -1.4590   -4.6670   -0.0720 H   0  0  0  0  0  0  0  0  0  0  0  0
   -1.5300   -3.4680   -1.4130 H   0  0  0  0  0  0  0  0  0  0  0  0
   -3.9510   -1.6800    0.9140 H   0  0  0  0  0  0  0  0  0  0  0  0
   -4.1090   -3.2420    1.7140 H   0  0  0  0  0  0  0  0  0  0  0  0
   -2.5280   -1.8380    2.7900 H   0  0  0  0  0  0  0  0  0  0  0  0
   -0.6750   -2.1620    0.3980 H   0  0  0  0  0  0  0  0  0  0  0  0
  1  8  1  0  0  0  0
  1  5  1  0  0  0  0
  2  9  1  0  0  0  0
  2  1  1  0  0  0  0
  3  2  1  0  0  0  0
  3  4  1  0  0  0  0
  4 13  1  0  0  0  0
  4 14  1  0  0  0  0
  4  5  1  0  0  0  0
  5 15  1  1  0  0  0
  5  6  1  0  0  0  0
  6 23  1  0  0  0  0
  6  7  2  0  0  0  0
 10  2  1  0  0  0  0
 11  3  1  0  0  0  0
 12  3  1  0  0  0  0
 16 28  1  0  0  0  0
 17 16  1  0  0  0  0
 18 17  1  0  0  0  0
 18 29  1  0  0  0  0
 19 18  2  0  0  0  0
 20 26  2  0  0  0  0
 20 19  1  0  0  0  0
 21 22  1  0  0  0  0
 21 20  1  0  0  0  0
 22 24  1  0  0  0  0
 22 33  1  1  0  0  0
 23 22  1  0  0  0  0
 24 25  2  0  0  0  0
 26 27  1  0  0  0  0
 27 36  1  0  0  0  0
 27 17  2  0  0  0  0
 30 19  1  0  0  0  0
 31 21  1  0  0  0  0
 32 21  1  0  0  0  0
 34 23  1  0  0  0  0
 35 26  1  0  0  0  0
 37 38  1  0  0  0  0
 37 46  1  0  0  0  0
 38 40  1  0  0  0  0
 39 38  2  0  0  0  0
 40 49  1  0  0  0  0
 40 41  1  0  0  0  0
 41 43  1  0  0  0  0
 41 50  1  1  0  0  0
 42 24  1  0  0  0  0
 42 41  1  0  0  0  0
 43 45  1  0  0  0  0
 44 43  2  0  0  0  0
 47 37  1  0  0  0  0
 48 40  1  0  0  0  0
 51 42  1  0  0  0  0
M  END
$$$$
