PYQ.pdb
 OpenBabel07022419063D

 54 55  0  0  1  0  0  0  0  0999 V2000
    4.1440   -2.6690    2.9140 N   0  0  0  0  0  0  0  0  0  0  0  0
    3.6850   -3.9850    3.2850 C   0  0  0  0  0  0  0  0  0  0  0  0
    2.9410   -4.5580    2.1190 C   0  0  0  0  0  0  0  0  0  0  0  0
    3.0540   -3.5590    1.0030 C   0  0  0  0  0  0  0  0  0  0  0  0
    3.5110   -2.3040    1.6930 C   0  0  1  0  0  0  0  0  0  0  0  0
    2.4240   -1.3510    1.9460 C   0  0  0  0  0  0  0  0  0  0  0  0
    2.1950   -0.9950    3.1280 O   0  0  0  0  0  0  0  0  0  0  0  0
    3.8680   -2.0230    3.7100 H   0  0  0  0  0  0  0  0  0  0  0  0
    2.9910   -3.9680    4.1540 H   0  0  0  0  0  0  0  0  0  0  0  0
    4.5630   -4.5790    3.5900 H   0  0  0  0  0  0  0  0  0  0  0  0
    3.4370   -5.5250    1.8330 H   0  0  0  0  0  0  0  0  0  0  0  0
    1.8910   -4.8230    2.3480 H   0  0  0  0  0  0  0  0  0  0  0  0
    2.1410   -3.4350    0.4110 H   0  0  0  0  0  0  0  0  0  0  0  0
    3.8550   -3.9020    0.3220 H   0  0  0  0  0  0  0  0  0  0  0  0
    4.2960   -1.8130    1.0460 H   0  0  0  0  0  0  0  0  0  0  0  0
   -3.3020    5.3220    1.3310 O   0  0  0  0  0  0  0  0  0  0  0  0
   -2.2920    4.3810    1.1460 C   0  0  0  0  0  0  0  0  0  0  0  0
   -2.2770    3.5480    0.0460 C   0  0  0  0  0  0  0  0  0  0  0  0
   -1.2930    2.6080   -0.1650 C   0  0  0  0  0  0  0  0  0  0  0  0
   -0.2690    2.4770    0.7490 C   0  0  0  0  0  0  0  0  0  0  0  0
    0.7770    1.4710    0.5300 C   0  0  0  0  0  0  0  0  0  0  0  0
    0.5220    0.1510    1.2030 C   0  0  2  0  0  0  0  0  0  0  0  0
    1.5990   -0.7940    0.9400 N   0  0  0  0  0  0  0  0  0  0  0  0
   -0.7440   -0.4370    0.7120 C   0  0  0  0  0  0  0  0  0  0  0  0
   -1.8710    0.1190    0.8210 O   0  0  0  0  0  0  0  0  0  0  0  0
   -0.2790    3.3180    1.8640 C   0  0  0  0  0  0  0  0  0  0  0  0
   -1.2690    4.2560    2.0650 C   0  0  0  0  0  0  0  0  0  0  0  0
   -3.0850    6.1260    1.9080 H   0  0  0  0  0  0  0  0  0  0  0  0
   -3.1060    3.6760   -0.6630 H   0  0  0  0  0  0  0  0  0  0  0  0
   -1.3790    2.0140   -1.0630 H   0  0  0  0  0  0  0  0  0  0  0  0
    1.7140    1.8870    1.0080 H   0  0  0  0  0  0  0  0  0  0  0  0
    0.9720    1.2860   -0.5540 H   0  0  0  0  0  0  0  0  0  0  0  0
    0.4650    0.3700    2.3110 H   0  0  0  0  0  0  0  0  0  0  0  0
    1.7850   -1.0850   -0.0430 H   0  0  0  0  0  0  0  0  0  0  0  0
    0.4970    3.2390    2.5830 H   0  0  0  0  0  0  0  0  0  0  0  0
   -1.2480    4.9030    2.9550 H   0  0  0  0  0  0  0  0  0  0  0  0
   -2.6490    0.9110   -3.2980 N   0  0  0  0  0  0  0  0  0  0  0  0
   -2.7580   -0.3620   -2.6710 C   0  0  0  0  0  0  0  0  0  0  0  0
   -3.8100   -0.5790   -2.0270 O   0  0  0  0  0  0  0  0  0  0  0  0
   -1.7090   -1.3900   -2.7590 C   0  0  0  0  0  0  0  0  0  0  0  0
   -1.9740   -2.5850   -1.8910 C   0  0  0  0  0  0  0  0  0  0  0  0
   -2.0460   -2.2930   -0.4240 C   0  0  2  0  0  0  0  0  0  0  0  0
   -0.7840   -1.7140    0.0610 N   0  0  0  0  0  0  0  0  0  0  0  0
   -2.2820   -3.5140    0.3780 C   0  0  0  0  0  0  0  0  0  0  0  0
   -3.3020   -4.1980    0.1590 O   0  0  0  0  0  0  0  0  0  0  0  0
   -1.4000   -3.9020    1.3530 O   0  0  0  0  0  0  0  0  0  0  0  0
   -3.4990    1.3370   -3.7180 H   0  0  0  0  0  0  0  0  0  0  0  0
   -1.7600    1.4450   -3.3620 H   0  0  0  0  0  0  0  0  0  0  0  0
   -0.7600   -0.8920   -2.4400 H   0  0  0  0  0  0  0  0  0  0  0  0
   -1.6370   -1.6930   -3.8450 H   0  0  0  0  0  0  0  0  0  0  0  0
   -2.9720   -2.9920   -2.2250 H   0  0  0  0  0  0  0  0  0  0  0  0
   -1.2580   -3.4070   -2.1250 H   0  0  0  0  0  0  0  0  0  0  0  0
   -2.8870   -1.6130   -0.2340 H   0  0  0  0  0  0  0  0  0  0  0  0
    0.1070   -2.2320   -0.0640 H   0  0  0  0  0  0  0  0  0  0  0  0
  1  2  1  0  0  0  0
  1  8  1  0  0  0  0
  2 10  1  0  0  0  0
  2  9  1  0  0  0  0
  3 12  1  0  0  0  0
  3  2  1  0  0  0  0
  4  5  1  0  0  0  0
  4  3  1  0  0  0  0
  5 15  1  6  0  0  0
  5  6  1  0  0  0  0
  5  1  1  0  0  0  0
  6  7  2  0  0  0  0
 11  3  1  0  0  0  0
 13  4  1  0  0  0  0
 14  4  1  0  0  0  0
 16 28  1  0  0  0  0
 17 16  1  0  0  0  0
 17 27  1  0  0  0  0
 18 17  2  0  0  0  0
 19 18  1  0  0  0  0
 19 20  2  0  0  0  0
 20 26  1  0  0  0  0
 21 20  1  0  0  0  0
 21 31  1  0  0  0  0
 21 22  1  0  0  0  0
 22 33  1  1  0  0  0
 23 22  1  0  0  0  0
 23  6  1  0  0  0  0
 24 25  2  0  0  0  0
 24 22  1  0  0  0  0
 26 27  2  0  0  0  0
 26 35  1  0  0  0  0
 27 36  1  0  0  0  0
 29 18  1  0  0  0  0
 30 19  1  0  0  0  0
 32 21  1  0  0  0  0
 34 23  1  0  0  0  0
 37 38  1  0  0  0  0
 38 39  2  0  0  0  0
 40 38  1  0  0  0  0
 40 49  1  0  0  0  0
 40 41  1  0  0  0  0
 41 42  1  0  0  0  0
 42 53  1  1  0  0  0
 42 43  1  0  0  0  0
 42 44  1  0  0  0  0
 43 24  1  0  0  0  0
 44 46  1  0  0  0  0
 45 44  2  0  0  0  0
 47 37  1  0  0  0  0
 48 37  1  0  0  0  0
 50 40  1  0  0  0  0
 51 41  1  0  0  0  0
 52 41  1  0  0  0  0
 54 43  1  0  0  0  0
M  END
$$$$
