PYR.pdb
 OpenBabel07022419063D

 60 61  0  0  1  0  0  0  0  0999 V2000
    2.8260    2.5980    0.6150 N   0  0  0  0  0  0  0  0  0  0  0  0
    3.6580    2.0060    1.6650 C   0  0  0  0  0  0  0  0  0  0  0  0
    4.2650    0.8370    0.8890 C   0  0  0  0  0  0  0  0  0  0  0  0
    3.0250    0.2780    0.1980 C   0  0  0  0  0  0  0  0  0  0  0  0
    2.0840    1.4660    0.0770 C   0  0  1  0  0  0  0  0  0  0  0  0
    0.8950    1.2520    0.9500 C   0  0  0  0  0  0  0  0  0  0  0  0
    0.6730    1.9990    1.9610 O   0  0  0  0  0  0  0  0  0  0  0  0
    2.1780    3.3060    1.0370 H   0  0  0  0  0  0  0  0  0  0  0  0
    3.0310    1.5530    2.4760 H   0  0  0  0  0  0  0  0  0  0  0  0
    4.4170    2.6980    2.0230 H   0  0  0  0  0  0  0  0  0  0  0  0
    4.7020    0.0760    1.5780 H   0  0  0  0  0  0  0  0  0  0  0  0
    5.0260    1.1820    0.1570 H   0  0  0  0  0  0  0  0  0  0  0  0
    3.2600   -0.1830   -0.7620 H   0  0  0  0  0  0  0  0  0  0  0  0
    2.5920   -0.4560    0.9300 H   0  0  0  0  0  0  0  0  0  0  0  0
    1.7860    1.6450   -0.9830 H   0  0  0  0  0  0  0  0  0  0  0  0
   -3.2800    5.2700   -1.3900 O   0  0  0  0  0  0  0  0  0  0  0  0
   -3.0670    4.0040   -0.8890 C   0  0  0  0  0  0  0  0  0  0  0  0
   -2.4560    2.9960   -1.6170 C   0  0  0  0  0  0  0  0  0  0  0  0
   -2.2670    1.7450   -1.0630 C   0  0  0  0  0  0  0  0  0  0  0  0
   -2.6890    1.4980    0.2190 C   0  0  0  0  0  0  0  0  0  0  0  0
   -2.5140    0.1800    0.8620 C   0  0  0  0  0  0  0  0  0  0  0  0
   -1.2040    0.0530    1.6040 C   0  0  2  0  0  0  0  0  0  0  0  0
   -0.0630    0.2300    0.7360 N   0  0  0  0  0  0  0  0  0  0  0  0
   -1.1650   -1.2960    2.2060 C   0  0  0  0  0  0  0  0  0  0  0  0
   -2.0790   -1.6750    3.0120 O   0  0  0  0  0  0  0  0  0  0  0  0
   -3.2920    2.5070    0.9260 C   0  0  0  0  0  0  0  0  0  0  0  0
   -3.5000    3.7730    0.4110 C   0  0  0  0  0  0  0  0  0  0  0  0
   -2.7280    5.7120   -2.1190 H   0  0  0  0  0  0  0  0  0  0  0  0
   -2.1240    3.2040   -2.6350 H   0  0  0  0  0  0  0  0  0  0  0  0
   -1.7790    0.9680   -1.6690 H   0  0  0  0  0  0  0  0  0  0  0  0
   -2.6460   -0.5890    0.0860 H   0  0  0  0  0  0  0  0  0  0  0  0
   -3.3180    0.0300    1.6230 H   0  0  0  0  0  0  0  0  0  0  0  0
   -1.2110    0.8510    2.3840 H   0  0  0  0  0  0  0  0  0  0  0  0
    0.0670   -0.4030   -0.0770 H   0  0  0  0  0  0  0  0  0  0  0  0
   -3.6480    2.3600    1.9560 H   0  0  0  0  0  0  0  0  0  0  0  0
   -3.9780    4.5390    1.0000 H   0  0  0  0  0  0  0  0  0  0  0  0
    0.9400   -3.8720   -3.0690 N   0  0  0  0  0  0  0  0  0  0  0  0
   -0.2660   -4.2440   -2.3780 C   0  0  0  0  0  0  0  0  0  0  0  0
   -1.3190   -3.5530   -2.5740 N   0  0  0  0  0  0  0  0  0  0  0  0
   -0.2980   -5.3550   -1.4980 N   0  0  0  0  0  0  0  0  0  0  0  0
   -1.3580   -5.5420   -0.5270 C   0  0  0  0  0  0  0  0  0  0  0  0
   -1.3050   -4.4960    0.5690 C   0  0  0  0  0  0  0  0  0  0  0  0
    0.0140   -4.5590    1.3170 C   0  0  0  0  0  0  0  0  0  0  0  0
    0.0370   -3.5000    2.4090 C   0  0  2  0  0  0  0  0  0  0  0  0
   -0.1050   -2.1740    1.8860 N   0  0  0  0  0  0  0  0  0  0  0  0
    1.3060   -3.6720    3.1570 C   0  0  0  0  0  0  0  0  0  0  0  0
    1.6510   -4.7310    3.7050 O   0  0  0  0  0  0  0  0  0  0  0  0
    2.1530   -2.5750    3.2440 O   0  0  0  0  0  0  0  0  0  0  0  0
    1.0480   -2.9110   -3.4470 H   0  0  0  0  0  0  0  0  0  0  0  0
    1.7110   -4.5410   -3.2030 H   0  0  0  0  0  0  0  0  0  0  0  0
   -2.2380   -3.7210   -2.1380 H   0  0  0  0  0  0  0  0  0  0  0  0
    0.5010   -6.0520   -1.5840 H   0  0  0  0  0  0  0  0  0  0  0  0
   -2.3170   -5.4920   -1.0790 H   0  0  0  0  0  0  0  0  0  0  0  0
   -1.2600   -6.5720   -0.1120 H   0  0  0  0  0  0  0  0  0  0  0  0
   -1.3300   -3.5160    0.0700 H   0  0  0  0  0  0  0  0  0  0  0  0
   -2.0920   -4.6480    1.3130 H   0  0  0  0  0  0  0  0  0  0  0  0
    0.8130   -4.3660    0.5730 H   0  0  0  0  0  0  0  0  0  0  0  0
    0.2150   -5.5590    1.7470 H   0  0  0  0  0  0  0  0  0  0  0  0
   -0.7950   -3.7190    3.1360 H   0  0  0  0  0  0  0  0  0  0  0  0
    0.6260   -1.8370    1.2260 H   0  0  0  0  0  0  0  0  0  0  0  0
  1  8  1  0  0  0  0
  1  2  1  0  0  0  0
  2 10  1  0  0  0  0
  2  9  1  0  0  0  0
  3 11  1  0  0  0  0
  3  2  1  0  0  0  0
  4  3  1  0  0  0  0
  4 14  1  0  0  0  0
  5 15  1  6  0  0  0
  5  4  1  0  0  0  0
  5  1  1  0  0  0  0
  5  6  1  0  0  0  0
  6  7  2  0  0  0  0
 12  3  1  0  0  0  0
 13  4  1  0  0  0  0
 16 17  1  0  0  0  0
 17 27  1  0  0  0  0
 18 19  1  0  0  0  0
 18 17  2  0  0  0  0
 19 20  2  0  0  0  0
 20 21  1  0  0  0  0
 20 26  1  0  0  0  0
 21 22  1  0  0  0  0
 21 32  1  0  0  0  0
 22 24  1  0  0  0  0
 22 33  1  1  0  0  0
 23  6  1  0  0  0  0
 23 22  1  0  0  0  0
 24 25  2  0  0  0  0
 26 35  1  0  0  0  0
 27 26  2  0  0  0  0
 27 36  1  0  0  0  0
 28 16  1  0  0  0  0
 29 18  1  0  0  0  0
 30 19  1  0  0  0  0
 31 21  1  0  0  0  0
 34 23  1  0  0  0  0
 37 38  1  0  0  0  0
 38 40  1  0  0  0  0
 39 38  2  0  0  0  0
 39 51  1  0  0  0  0
 40 41  1  0  0  0  0
 41 54  1  0  0  0  0
 41 42  1  0  0  0  0
 42 56  1  0  0  0  0
 42 43  1  0  0  0  0
 43 58  1  0  0  0  0
 43 44  1  0  0  0  0
 44 59  1  1  0  0  0
 44 46  1  0  0  0  0
 45 24  1  0  0  0  0
 45 44  1  0  0  0  0
 46 48  2  0  0  0  0
 46 47  1  0  0  0  0
 49 37  1  0  0  0  0
 50 37  1  0  0  0  0
 52 40  1  0  0  0  0
 53 41  1  0  0  0  0
 55 42  1  0  0  0  0
 57 43  1  0  0  0  0
 60 45  1  0  0  0  0
M  END
$$$$
