PYT.pdb
 OpenBabel07022419063D

 51 52  0  0  1  0  0  0  0  0999 V2000
    1.4240   -5.0440   -0.6630 N   0  0  0  0  0  0  0  0  0  0  0  0
    0.2340   -5.6100   -0.1050 C   0  0  0  0  0  0  0  0  0  0  0  0
   -0.8900   -4.9210   -0.8500 C   0  0  0  0  0  0  0  0  0  0  0  0
   -0.2800   -3.6290   -1.2920 C   0  0  0  0  0  0  0  0  0  0  0  0
    1.1420   -3.6340   -0.8100 C   0  0  1  0  0  0  0  0  0  0  0  0
    1.3590   -2.9510    0.4550 C   0  0  0  0  0  0  0  0  0  0  0  0
    1.7370   -3.6080    1.4570 O   0  0  0  0  0  0  0  0  0  0  0  0
    2.2490   -5.2270   -0.0660 H   0  0  0  0  0  0  0  0  0  0  0  0
    0.1660   -6.7070   -0.3220 H   0  0  0  0  0  0  0  0  0  0  0  0
    0.1510   -5.4960    0.9920 H   0  0  0  0  0  0  0  0  0  0  0  0
   -1.7720   -4.7650   -0.1880 H   0  0  0  0  0  0  0  0  0  0  0  0
   -1.1860   -5.5710   -1.7240 H   0  0  0  0  0  0  0  0  0  0  0  0
   -0.2310   -3.6510   -2.4210 H   0  0  0  0  0  0  0  0  0  0  0  0
   -0.8450   -2.7340   -1.0340 H   0  0  0  0  0  0  0  0  0  0  0  0
    1.8270   -3.2470   -1.5900 H   0  0  0  0  0  0  0  0  0  0  0  0
    1.4540    4.2910   -1.7260 O   0  0  0  0  0  0  0  0  0  0  0  0
    1.7310    3.2270   -0.8500 C   0  0  0  0  0  0  0  0  0  0  0  0
    1.3660    3.3320    0.4750 C   0  0  0  0  0  0  0  0  0  0  0  0
    1.6460    2.2870    1.2990 C   0  0  0  0  0  0  0  0  0  0  0  0
    2.2670    1.1530    0.8710 C   0  0  0  0  0  0  0  0  0  0  0  0
    2.5290    0.0670    1.8520 C   0  0  0  0  0  0  0  0  0  0  0  0
    1.4000   -0.9250    1.9360 C   0  0  2  0  0  0  0  0  0  0  0  0
    1.1710   -1.5530    0.6600 N   0  0  0  0  0  0  0  0  0  0  0  0
    0.1420   -0.3390    2.4540 C   0  0  0  0  0  0  0  0  0  0  0  0
    0.1150    0.2570    3.5620 O   0  0  0  0  0  0  0  0  0  0  0  0
    2.6340    1.0410   -0.4480 C   0  0  0  0  0  0  0  0  0  0  0  0
    2.3600    2.0850   -1.2990 C   0  0  0  0  0  0  0  0  0  0  0  0
    0.6870    4.1880   -2.3720 H   0  0  0  0  0  0  0  0  0  0  0  0
    0.8700    4.2240    0.8420 H   0  0  0  0  0  0  0  0  0  0  0  0
    1.3570    2.3790    2.3370 H   0  0  0  0  0  0  0  0  0  0  0  0
    2.7880    0.4560    2.8410 H   0  0  0  0  0  0  0  0  0  0  0  0
    3.4150   -0.4880    1.4790 H   0  0  0  0  0  0  0  0  0  0  0  0
    1.7240   -1.7180    2.6430 H   0  0  0  0  0  0  0  0  0  0  0  0
    0.8580   -0.9990   -0.1620 H   0  0  0  0  0  0  0  0  0  0  0  0
    3.1350    0.1280   -0.7940 H   0  0  0  0  0  0  0  0  0  0  0  0
    2.6580    1.9880   -2.3570 H   0  0  0  0  0  0  0  0  0  0  0  0
   -2.0360    2.3520    1.0690 C   0  0  0  0  0  0  0  0  0  0  0  0
   -2.9290    1.1710    1.3210 C   0  0  1  0  0  0  0  0  0  0  0  0
   -3.2330    0.5310    0.1220 O   0  0  0  0  0  0  0  0  0  0  0  0
   -2.3200    0.1770    2.2820 C   0  0  2  0  0  0  0  0  0  0  0  0
   -1.0980   -0.4060    1.7530 N   0  0  0  0  0  0  0  0  0  0  0  0
   -3.3610   -0.8670    2.5300 C   0  0  0  0  0  0  0  0  0  0  0  0
   -4.4630   -0.5200    2.9830 O   0  0  0  0  0  0  0  0  0  0  0  0
   -3.0260   -2.1810    2.2340 O   0  0  0  0  0  0  0  0  0  0  0  0
   -2.6540    3.2710    1.1440 H   0  0  0  0  0  0  0  0  0  0  0  0
   -1.5700    2.3540    0.0680 H   0  0  0  0  0  0  0  0  0  0  0  0
   -1.2900    2.4100    1.8880 H   0  0  0  0  0  0  0  0  0  0  0  0
   -3.8930    1.4940    1.7650 H   0  0  0  0  0  0  0  0  0  0  0  0
   -3.1210    1.1400   -0.6620 H   0  0  0  0  0  0  0  0  0  0  0  0
   -2.1380    0.6570    3.2690 H   0  0  0  0  0  0  0  0  0  0  0  0
   -1.1300   -0.8860    0.8350 H   0  0  0  0  0  0  0  0  0  0  0  0
  1  2  1  0  0  0  0
  1  8  1  0  0  0  0
  2 10  1  0  0  0  0
  3 11  1  0  0  0  0
  3  2  1  0  0  0  0
  4 14  1  0  0  0  0
  4  3  1  0  0  0  0
  4  5  1  0  0  0  0
  5 15  1  6  0  0  0
  5  1  1  0  0  0  0
  5  6  1  0  0  0  0
  6 23  1  0  0  0  0
  6  7  2  0  0  0  0
  9  2  1  0  0  0  0
 12  3  1  0  0  0  0
 13  4  1  0  0  0  0
 16 17  1  0  0  0  0
 17 18  1  0  0  0  0
 18 29  1  0  0  0  0
 18 19  2  0  0  0  0
 19 30  1  0  0  0  0
 20 19  1  0  0  0  0
 20 21  1  0  0  0  0
 21 22  1  0  0  0  0
 21 31  1  0  0  0  0
 22 24  1  0  0  0  0
 22 33  1  1  0  0  0
 23 22  1  0  0  0  0
 24 25  2  0  0  0  0
 26 20  2  0  0  0  0
 27 17  2  0  0  0  0
 27 26  1  0  0  0  0
 28 16  1  0  0  0  0
 32 21  1  0  0  0  0
 34 23  1  0  0  0  0
 35 26  1  0  0  0  0
 36 27  1  0  0  0  0
 37 45  1  0  0  0  0
 37 38  1  0  0  0  0
 37 47  1  0  0  0  0
 38 48  1  1  0  0  0
 38 40  1  0  0  0  0
 39 38  1  0  0  0  0
 40 42  1  0  0  0  0
 40 50  1  1  0  0  0
 41 40  1  0  0  0  0
 41 24  1  0  0  0  0
 42 43  1  0  0  0  0
 44 42  2  0  0  0  0
 46 37  1  0  0  0  0
 49 39  1  0  0  0  0
 51 41  1  0  0  0  0
M  END
$$$$
