PYW.pdb
 OpenBabel07022419063D

 61 64  0  0  1  0  0  0  0  0999 V2000
    3.8740   -1.9360    3.0060 N   0  0  0  0  0  0  0  0  0  0  0  0
    2.9800   -2.9840    3.4120 C   0  0  0  0  0  0  0  0  0  0  0  0
    2.0370   -3.2490    2.2730 C   0  0  0  0  0  0  0  0  0  0  0  0
    2.5180   -2.3380    1.1930 C   0  0  0  0  0  0  0  0  0  0  0  0
    3.1520   -1.2020    1.9630 C   0  0  1  0  0  0  0  0  0  0  0  0
    2.1650   -0.3070    2.6070 C   0  0  0  0  0  0  0  0  0  0  0  0
    2.0480   -0.2520    3.8330 O   0  0  0  0  0  0  0  0  0  0  0  0
    3.9760   -1.2720    3.8130 H   0  0  0  0  0  0  0  0  0  0  0  0
    3.6070   -3.8810    3.6210 H   0  0  0  0  0  0  0  0  0  0  0  0
    2.4270   -2.6940    4.3370 H   0  0  0  0  0  0  0  0  0  0  0  0
    2.0530   -4.2890    1.9230 H   0  0  0  0  0  0  0  0  0  0  0  0
    1.0120   -2.9150    2.5810 H   0  0  0  0  0  0  0  0  0  0  0  0
    1.7420   -1.9870    0.4880 H   0  0  0  0  0  0  0  0  0  0  0  0
    3.3290   -2.7840    0.5790 H   0  0  0  0  0  0  0  0  0  0  0  0
    3.8620   -0.6410    1.3150 H   0  0  0  0  0  0  0  0  0  0  0  0
    0.6860    4.1780   -3.5730 O   0  0  0  0  0  0  0  0  0  0  0  0
    0.6340    3.8520   -2.2300 C   0  0  0  0  0  0  0  0  0  0  0  0
   -0.5510    3.8490   -1.5290 C   0  0  0  0  0  0  0  0  0  0  0  0
   -0.5700    3.5140   -0.1690 C   0  0  0  0  0  0  0  0  0  0  0  0
    0.5870    3.1820    0.4970 C   0  0  0  0  0  0  0  0  0  0  0  0
    0.5410    2.8310    1.9030 C   0  0  0  0  0  0  0  0  0  0  0  0
    0.3520    1.4080    2.2620 C   0  0  2  0  0  0  0  0  0  0  0  0
    1.3410    0.5000    1.7930 N   0  0  0  0  0  0  0  0  0  0  0  0
   -1.0240    0.9890    1.9400 C   0  0  0  0  0  0  0  0  0  0  0  0
   -1.9580    1.7650    2.3000 O   0  0  0  0  0  0  0  0  0  0  0  0
    1.7610    3.1990   -0.2490 C   0  0  0  0  0  0  0  0  0  0  0  0
    1.8140    3.5220   -1.5810 C   0  0  0  0  0  0  0  0  0  0  0  0
    1.5480    4.1360   -4.0900 H   0  0  0  0  0  0  0  0  0  0  0  0
   -1.4680    4.1080   -2.0460 H   0  0  0  0  0  0  0  0  0  0  0  0
   -1.5470    3.5430    0.2920 H   0  0  0  0  0  0  0  0  0  0  0  0
   -0.3290    3.3950    2.3570 H   0  0  0  0  0  0  0  0  0  0  0  0
    1.4340    3.3030    2.4090 H   0  0  0  0  0  0  0  0  0  0  0  0
    0.4090    1.3620    3.3930 H   0  0  0  0  0  0  0  0  0  0  0  0
    1.4710    0.4210    0.7580 H   0  0  0  0  0  0  0  0  0  0  0  0
    2.6530    2.9390    0.2870 H   0  0  0  0  0  0  0  0  0  0  0  0
    2.7540    3.5190   -2.1090 H   0  0  0  0  0  0  0  0  0  0  0  0
   -1.3820   -0.1830    1.2750 N   0  0  0  0  0  0  0  0  0  0  0  0
   -2.7740   -0.5220    0.9850 C   0  0  1  0  0  0  0  0  0  0  0  0
   -2.9770   -0.7380   -0.4790 C   0  0  0  0  0  0  0  0  0  0  0  0
   -2.1620   -1.7860   -1.0940 C   0  0  0  0  0  0  0  0  0  0  0  0
   -0.9590   -1.5100   -1.7360 C   0  0  0  0  0  0  0  0  0  0  0  0
   -0.4210   -2.6550   -2.1550 N   0  0  0  0  0  0  0  0  0  0  0  0
   -1.2360   -3.6810   -1.8080 C   0  0  0  0  0  0  0  0  0  0  0  0
   -1.1410   -5.0390   -2.0100 C   0  0  0  0  0  0  0  0  0  0  0  0
   -2.1060   -5.9170   -1.5750 C   0  0  0  0  0  0  0  0  0  0  0  0
   -3.1910   -5.3730   -0.9160 C   0  0  0  0  0  0  0  0  0  0  0  0
   -3.3150   -4.0190   -0.6980 C   0  0  0  0  0  0  0  0  0  0  0  0
   -2.3340   -3.1390   -1.1400 C   0  0  0  0  0  0  0  0  0  0  0  0
   -3.2980   -1.6240    1.7950 C   0  0  0  0  0  0  0  0  0  0  0  0
   -2.6000   -2.3390    2.5580 O   0  0  0  0  0  0  0  0  0  0  0  0
   -4.6560   -1.9320    1.7510 O   0  0  0  0  0  0  0  0  0  0  0  0
   -0.6610   -0.8570    0.9620 H   0  0  0  0  0  0  0  0  0  0  0  0
   -3.4350    0.3680    1.2570 H   0  0  0  0  0  0  0  0  0  0  0  0
   -4.0520   -1.0290   -0.6770 H   0  0  0  0  0  0  0  0  0  0  0  0
   -2.8920    0.2400   -1.0450 H   0  0  0  0  0  0  0  0  0  0  0  0
   -0.4970   -0.5410   -1.8920 H   0  0  0  0  0  0  0  0  0  0  0  0
    0.4820   -2.7870   -2.6710 H   0  0  0  0  0  0  0  0  0  0  0  0
   -0.2580   -5.4270   -2.5400 H   0  0  0  0  0  0  0  0  0  0  0  0
   -2.0340   -6.9890   -1.7330 H   0  0  0  0  0  0  0  0  0  0  0  0
   -3.9810   -6.0360   -0.5540 H   0  0  0  0  0  0  0  0  0  0  0  0
   -4.1480   -3.5790   -0.2060 H   0  0  0  0  0  0  0  0  0  0  0  0
  1  2  1  0  0  0  0
  1  8  1  0  0  0  0
  2  9  1  0  0  0  0
  2 10  1  0  0  0  0
  3 12  1  0  0  0  0
  3  2  1  0  0  0  0
  4  5  1  0  0  0  0
  4  3  1  0  0  0  0
  5 15  1  6  0  0  0
  5  6  1  0  0  0  0
  5  1  1  0  0  0  0
  6  7  2  0  0  0  0
 11  3  1  0  0  0  0
 13  4  1  0  0  0  0
 14  4  1  0  0  0  0
 16 17  1  0  0  0  0
 17 27  2  0  0  0  0
 17 18  1  0  0  0  0
 18 19  2  0  0  0  0
 19 30  1  0  0  0  0
 19 20  1  0  0  0  0
 20 21  1  0  0  0  0
 21 22  1  0  0  0  0
 21 31  1  0  0  0  0
 21 32  1  0  0  0  0
 22 33  1  1  0  0  0
 23 22  1  0  0  0  0
 23  6  1  0  0  0  0
 24 22  1  0  0  0  0
 24 25  2  0  0  0  0
 26 35  1  0  0  0  0
 26 20  2  0  0  0  0
 27 26  1  0  0  0  0
 28 16  1  0  0  0  0
 29 18  1  0  0  0  0
 34 23  1  0  0  0  0
 36 27  1  0  0  0  0
 37 24  1  0  0  0  0
 38 53  1  1  0  0  0
 38 37  1  0  0  0  0
 38 49  1  0  0  0  0
 39 38  1  0  0  0  0
 40 39  1  0  0  0  0
 41 40  2  0  0  0  0
 42 43  1  0  0  0  0
 42 41  1  0  0  0  0
 43 48  1  0  0  0  0
 44 43  2  0  0  0  0
 44 45  1  0  0  0  0
 45 46  2  0  0  0  0
 46 47  1  0  0  0  0
 46 60  1  0  0  0  0
 47 61  1  0  0  0  0
 48 40  1  0  0  0  0
 48 47  2  0  0  0  0
 49 50  1  0  0  0  0
 51 49  2  0  0  0  0
 52 37  1  0  0  0  0
 54 39  1  0  0  0  0
 55 39  1  0  0  0  0
 56 41  1  0  0  0  0
 57 42  1  0  0  0  0
 58 44  1  0  0  0  0
 59 45  1  0  0  0  0
M  END
$$$$
