PYY.pdb
 OpenBabel07022419063D

 58 60  0  0  1  0  0  0  0  0999 V2000
    2.6150    0.7780    3.1570 N   0  0  0  0  0  0  0  0  0  0  0  0
    3.3250    1.7010    4.0080 C   0  0  0  0  0  0  0  0  0  0  0  0
    2.2700    2.3160    4.9150 C   0  0  0  0  0  0  0  0  0  0  0  0
    1.1230    2.4240    3.8850 C   0  0  0  0  0  0  0  0  0  0  0  0
    1.2490    1.0720    3.2680 C   0  0  1  0  0  0  0  0  0  0  0  0
    0.4500    0.8730    2.0390 C   0  0  0  0  0  0  0  0  0  0  0  0
   -0.6640    1.4340    1.9590 O   0  0  0  0  0  0  0  0  0  0  0  0
    3.0420    0.8290    2.2100 H   0  0  0  0  0  0  0  0  0  0  0  0
    3.7530    2.5650    3.4240 H   0  0  0  0  0  0  0  0  0  0  0  0
    4.0980    1.1730    4.5950 H   0  0  0  0  0  0  0  0  0  0  0  0
    2.5380    3.2670    5.3500 H   0  0  0  0  0  0  0  0  0  0  0  0
    1.9280    1.5660    5.6560 H   0  0  0  0  0  0  0  0  0  0  0  0
    0.1530    2.5490    4.4170 H   0  0  0  0  0  0  0  0  0  0  0  0
    1.3240    3.2280    3.1700 H   0  0  0  0  0  0  0  0  0  0  0  0
    0.8590    0.3620    4.0820 H   0  0  0  0  0  0  0  0  0  0  0  0
    5.6030   -3.4360   -1.9170 O   0  0  0  0  0  0  0  0  0  0  0  0
    4.4900   -2.5870   -1.7890 C   0  0  0  0  0  0  0  0  0  0  0  0
    4.5580   -1.3580   -1.1720 C   0  0  0  0  0  0  0  0  0  0  0  0
    3.4670   -0.5330   -1.0500 C   0  0  0  0  0  0  0  0  0  0  0  0
    2.2490   -0.9080   -1.5460 C   0  0  0  0  0  0  0  0  0  0  0  0
    1.0690   -0.0460   -1.4400 C   0  0  0  0  0  0  0  0  0  0  0  0
    0.2290   -0.1890   -0.2450 C   0  0  2  0  0  0  0  0  0  0  0  0
    0.9340    0.0720    1.0070 N   0  0  0  0  0  0  0  0  0  0  0  0
   -0.5990   -1.4090   -0.1400 C   0  0  0  0  0  0  0  0  0  0  0  0
   -0.6160   -1.9870    1.0040 O   0  0  0  0  0  0  0  0  0  0  0  0
    2.1540   -2.1300   -2.1650 C   0  0  0  0  0  0  0  0  0  0  0  0
    3.2520   -2.9450   -2.2830 C   0  0  0  0  0  0  0  0  0  0  0  0
    6.0410   -3.8510   -1.0990 H   0  0  0  0  0  0  0  0  0  0  0  0
    5.5390   -1.0790   -0.7810 H   0  0  0  0  0  0  0  0  0  0  0  0
    3.5940    0.4120   -0.5560 H   0  0  0  0  0  0  0  0  0  0  0  0
    0.4310   -0.0510   -2.3510 H   0  0  0  0  0  0  0  0  0  0  0  0
    1.4750    1.0130   -1.4250 H   0  0  0  0  0  0  0  0  0  0  0  0
   -0.5500    0.6430   -0.2690 H   0  0  0  0  0  0  0  0  0  0  0  0
    1.8730   -0.3940    1.1380 H   0  0  0  0  0  0  0  0  0  0  0  0
    1.2000   -2.4870   -2.5840 H   0  0  0  0  0  0  0  0  0  0  0  0
    3.1880   -3.9180   -2.7750 H   0  0  0  0  0  0  0  0  0  0  0  0
   -4.8740    1.3320    2.3890 O   0  0  0  0  0  0  0  0  0  0  0  0
   -4.5840    0.2840    1.5300 C   0  0  0  0  0  0  0  0  0  0  0  0
   -4.7770   -1.0150    1.8910 C   0  0  0  0  0  0  0  0  0  0  0  0
   -4.4670   -2.0200    0.9800 C   0  0  0  0  0  0  0  0  0  0  0  0
   -3.9720   -1.7690   -0.2700 C   0  0  0  0  0  0  0  0  0  0  0  0
   -3.6410   -2.8580   -1.2350 C   0  0  0  0  0  0  0  0  0  0  0  0
   -2.1550   -3.1750   -0.9650 C   0  0  2  0  0  0  0  0  0  0  0  0
   -1.3650   -1.9800   -1.1810 N   0  0  0  0  0  0  0  0  0  0  0  0
   -1.8260   -4.2890   -1.8800 C   0  0  0  0  0  0  0  0  0  0  0  0
   -2.4590   -5.3500   -1.7040 O   0  0  0  0  0  0  0  0  0  0  0  0
   -3.7770   -0.4320   -0.6330 C   0  0  0  0  0  0  0  0  0  0  0  0
   -4.0910    0.5490    0.2820 C   0  0  0  0  0  0  0  0  0  0  0  0
   -0.8990   -4.2270   -2.8790 O   0  0  0  0  0  0  0  0  0  0  0  0
   -5.0120    2.2760    2.0900 H   0  0  0  0  0  0  0  0  0  0  0  0
   -5.1640   -1.2950    2.8540 H   0  0  0  0  0  0  0  0  0  0  0  0
   -4.6430   -3.0370    1.3140 H   0  0  0  0  0  0  0  0  0  0  0  0
   -4.2340   -3.7530   -1.0760 H   0  0  0  0  0  0  0  0  0  0  0  0
   -3.7200   -2.4180   -2.2600 H   0  0  0  0  0  0  0  0  0  0  0  0
   -2.0510   -3.4930    0.0660 H   0  0  0  0  0  0  0  0  0  0  0  0
   -1.3720   -1.5480   -2.1210 H   0  0  0  0  0  0  0  0  0  0  0  0
   -3.3890   -0.2380   -1.6080 H   0  0  0  0  0  0  0  0  0  0  0  0
   -3.9350    1.5970   -0.0060 H   0  0  0  0  0  0  0  0  0  0  0  0
  1  5  1  0  0  0  0
  1  2  1  0  0  0  0
  2 10  1  0  0  0  0
  2  3  1  0  0  0  0
  3 11  1  0  0  0  0
  3 12  1  0  0  0  0
  4 13  1  0  0  0  0
  4  3  1  0  0  0  0
  5  4  1  0  0  0  0
  5 15  1  1  0  0  0
  6  5  1  0  0  0  0
  7  6  2  0  0  0  0
  8  1  1  0  0  0  0
  9  2  1  0  0  0  0
 14  4  1  0  0  0  0
 16 17  1  0  0  0  0
 16 28  1  0  0  0  0
 17 18  1  0  0  0  0
 18 19  2  0  0  0  0
 18 29  1  0  0  0  0
 19 30  1  0  0  0  0
 20 21  1  0  0  0  0
 20 19  1  0  0  0  0
 21 32  1  0  0  0  0
 21 22  1  0  0  0  0
 22 33  1  6  0  0  0
 22 24  1  0  0  0  0
 22 23  1  0  0  0  0
 23 34  1  0  0  0  0
 23  6  1  0  0  0  0
 24 25  2  0  0  0  0
 26 20  2  0  0  0  0
 27 26  1  0  0  0  0
 27 17  2  0  0  0  0
 31 21  1  0  0  0  0
 35 26  1  0  0  0  0
 36 27  1  0  0  0  0
 38 39  1  0  0  0  0
 38 37  1  0  0  0  0
 39 51  1  0  0  0  0
 40 52  1  0  0  0  0
 40 39  2  0  0  0  0
 41 40  1  0  0  0  0
 42 53  1  0  0  0  0
 42 43  1  0  0  0  0
 42 41  1  0  0  0  0
 43 55  1  1  0  0  0
 44 43  1  0  0  0  0
 44 24  1  0  0  0  0
 45 46  1  0  0  0  0
 45 43  1  0  0  0  0
 47 41  2  0  0  0  0
 47 48  1  0  0  0  0
 48 38  2  0  0  0  0
 49 45  2  0  0  0  0
 50 37  1  0  0  0  0
 54 42  1  0  0  0  0
 56 44  1  0  0  0  0
 57 47  1  0  0  0  0
 58 48  1  0  0  0  0
M  END
$$$$
