QAA.pdb
 OpenBabel07022418303D

 39 38  0  0  1  0  0  0  0  0999 V2000
    0.3130   -7.2600   -0.6280 N   0  0  0  0  0  0  0  0  0  0  0  0
   -0.1850   -5.9440   -0.6530 C   0  0  0  0  0  0  0  0  0  0  0  0
   -1.3740   -5.7480   -0.9960 O   0  0  0  0  0  0  0  0  0  0  0  0
    0.6520   -4.7800   -0.2870 C   0  0  0  0  0  0  0  0  0  0  0  0
   -0.1180   -3.4830   -0.3990 C   0  0  0  0  0  0  0  0  0  0  0  0
    0.7170   -2.2900   -0.0290 C   0  0  2  0  0  0  0  0  0  0  0  0
    1.2060   -2.3620    1.3330 N   0  0  0  0  0  0  0  0  0  0  0  0
   -0.1250   -1.0730   -0.1910 C   0  0  0  0  0  0  0  0  0  0  0  0
   -0.6470   -0.8200   -1.3070 O   0  0  0  0  0  0  0  0  0  0  0  0
   -0.2310   -8.0160   -0.1710 H   0  0  0  0  0  0  0  0  0  0  0  0
    1.2210   -7.5400   -1.0520 H   0  0  0  0  0  0  0  0  0  0  0  0
    1.1160   -4.9140    0.7020 H   0  0  0  0  0  0  0  0  0  0  0  0
    1.5010   -4.7650   -1.0230 H   0  0  0  0  0  0  0  0  0  0  0  0
   -1.0400   -3.5250    0.1890 H   0  0  0  0  0  0  0  0  0  0  0  0
   -0.4150   -3.3620   -1.4620 H   0  0  0  0  0  0  0  0  0  0  0  0
    1.5920   -2.1680   -0.6950 H   0  0  0  0  0  0  0  0  0  0  0  0
    2.1030   -2.8720    1.3600 H   0  0  0  0  0  0  0  0  0  0  0  0
    0.4890   -2.7690    1.9740 H   0  0  0  0  0  0  0  0  0  0  0  0
   -2.3980    0.9650    1.5390 C   0  0  0  0  0  0  0  0  0  0  0  0
   -1.2070    0.9990    0.6330 C   0  0  2  0  0  0  0  0  0  0  0  0
   -0.3710   -0.1670    0.8750 N   0  0  0  0  0  0  0  0  0  0  0  0
   -0.4160    2.2550    0.9180 C   0  0  0  0  0  0  0  0  0  0  0  0
   -0.9700    3.3700    0.7690 O   0  0  0  0  0  0  0  0  0  0  0  0
   -2.6830    2.0290    1.7600 H   0  0  0  0  0  0  0  0  0  0  0  0
   -3.2790    0.5300    0.9820 H   0  0  0  0  0  0  0  0  0  0  0  0
   -2.2180    0.4050    2.4780 H   0  0  0  0  0  0  0  0  0  0  0  0
   -1.5540    1.0260   -0.4080 H   0  0  0  0  0  0  0  0  0  0  0  0
    0.0410   -0.3320    1.8260 H   0  0  0  0  0  0  0  0  0  0  0  0
    2.3670    3.9810    0.4460 C   0  0  0  0  0  0  0  0  0  0  0  0
    1.7460    3.3450    1.6480 C   0  0  2  0  0  0  0  0  0  0  0  0
    0.9230    2.2010    1.3460 N   0  0  0  0  0  0  0  0  0  0  0  0
    1.0640    4.3240    2.5410 C   0  0  0  0  0  0  0  0  0  0  0  0
    1.6370    5.4050    2.8330 O   0  0  0  0  0  0  0  0  0  0  0  0
   -0.1760    4.0990    3.0710 O   0  0  0  0  0  0  0  0  0  0  0  0
    1.6470    4.5000   -0.1970 H   0  0  0  0  0  0  0  0  0  0  0  0
    2.9720    3.2580   -0.1360 H   0  0  0  0  0  0  0  0  0  0  0  0
    3.1190    4.7270    0.8420 H   0  0  0  0  0  0  0  0  0  0  0  0
    2.6160    2.9390    2.2770 H   0  0  0  0  0  0  0  0  0  0  0  0
    1.3210    1.2190    1.4400 H   0  0  0  0  0  0  0  0  0  0  0  0
  1 10  1  0  0  0  0
  2  1  1  0  0  0  0
  2  4  1  0  0  0  0
  3  2  2  0  0  0  0
  4 12  1  0  0  0  0
  5  4  1  0  0  0  0
  5  6  1  0  0  0  0
  5 14  1  0  0  0  0
  6 16  1  6  0  0  0
  6  7  1  0  0  0  0
  7 17  1  0  0  0  0
  7 18  1  0  0  0  0
  8  6  1  0  0  0  0
  8 21  1  0  0  0  0
  9  8  2  0  0  0  0
 11  1  1  0  0  0  0
 13  4  1  0  0  0  0
 15  5  1  0  0  0  0
 19 24  1  0  0  0  0
 19 26  1  0  0  0  0
 20 27  1  6  0  0  0
 20 21  1  0  0  0  0
 20 22  1  0  0  0  0
 20 19  1  0  0  0  0
 21 28  1  0  0  0  0
 22 31  1  0  0  0  0
 23 22  2  0  0  0  0
 25 19  1  0  0  0  0
 29 37  1  0  0  0  0
 29 30  1  0  0  0  0
 30 38  1  1  0  0  0
 30 32  1  0  0  0  0
 31 39  1  0  0  0  0
 31 30  1  0  0  0  0
 32 33  2  0  0  0  0
 32 34  1  0  0  0  0
 35 29  1  0  0  0  0
 36 29  1  0  0  0  0
M  END
$$$$
