QAE.pdb
 OpenBabel07022418303D

 45 44  0  0  1  0  0  0  0  0999 V2000
   -2.4020   -3.5740    2.7930 N   0  0  0  0  0  0  0  0  0  0  0  0
   -2.4490   -3.3200    1.3960 C   0  0  0  0  0  0  0  0  0  0  0  0
   -2.9200   -4.1910    0.6470 O   0  0  0  0  0  0  0  0  0  0  0  0
   -1.9490   -2.0460    0.8810 C   0  0  0  0  0  0  0  0  0  0  0  0
   -1.6540   -1.9620   -0.5700 C   0  0  0  0  0  0  0  0  0  0  0  0
   -0.5800   -2.8430   -1.0830 C   0  0  2  0  0  0  0  0  0  0  0  0
   -0.8740   -4.2220   -0.8670 N   0  0  0  0  0  0  0  0  0  0  0  0
    0.7520   -2.5470   -0.4830 C   0  0  0  0  0  0  0  0  0  0  0  0
    1.4270   -3.4410    0.0890 O   0  0  0  0  0  0  0  0  0  0  0  0
   -1.8420   -2.9640    3.4410 H   0  0  0  0  0  0  0  0  0  0  0  0
   -2.9310   -4.3850    3.2170 H   0  0  0  0  0  0  0  0  0  0  0  0
   -1.0820   -1.6900    1.5050 H   0  0  0  0  0  0  0  0  0  0  0  0
   -2.7620   -1.2850    1.1160 H   0  0  0  0  0  0  0  0  0  0  0  0
   -2.6030   -2.2880   -1.1040 H   0  0  0  0  0  0  0  0  0  0  0  0
   -1.5430   -0.8950   -0.9040 H   0  0  0  0  0  0  0  0  0  0  0  0
   -0.4810   -2.7040   -2.1850 H   0  0  0  0  0  0  0  0  0  0  0  0
   -1.4420   -4.5750   -1.6670 H   0  0  0  0  0  0  0  0  0  0  0  0
    0.0180   -4.7460   -0.7360 H   0  0  0  0  0  0  0  0  0  0  0  0
    3.5770   -0.3950   -0.9640 C   0  0  0  0  0  0  0  0  0  0  0  0
    2.5990   -0.9110    0.0370 C   0  0  2  0  0  0  0  0  0  0  0  0
    1.3120   -1.2410   -0.5330 N   0  0  0  0  0  0  0  0  0  0  0  0
    2.4520    0.1230    1.1180 C   0  0  0  0  0  0  0  0  0  0  0  0
    3.5010    0.5060    1.6990 O   0  0  0  0  0  0  0  0  0  0  0  0
    3.0910    0.4190   -1.5380 H   0  0  0  0  0  0  0  0  0  0  0  0
    4.4490    0.0300   -0.4270 H   0  0  0  0  0  0  0  0  0  0  0  0
    3.9450   -1.2060   -1.6320 H   0  0  0  0  0  0  0  0  0  0  0  0
    3.0160   -1.8610    0.4770 H   0  0  0  0  0  0  0  0  0  0  0  0
    0.7420   -0.4910   -1.0150 H   0  0  0  0  0  0  0  0  0  0  0  0
    1.1850    0.6540    1.4770 N   0  0  0  0  0  0  0  0  0  0  0  0
    0.9980    1.6460    2.5060 C   0  0  1  0  0  0  0  0  0  0  0  0
   -0.0000    2.7040    2.1930 C   0  0  0  0  0  0  0  0  0  0  0  0
    0.2460    3.5530    1.0090 C   0  0  0  0  0  0  0  0  0  0  0  0
    0.3280    2.8950   -0.2870 C   0  0  0  0  0  0  0  0  0  0  0  0
    1.4420    2.5250   -0.7320 O   0  0  0  0  0  0  0  0  0  0  0  0
    0.4280    0.8920    3.6910 C   0  0  0  0  0  0  0  0  0  0  0  0
    0.1530    1.4950    4.7580 O   0  0  0  0  0  0  0  0  0  0  0  0
   -0.7690    2.6310   -1.1060 O   0  0  0  0  0  0  0  0  0  0  0  0
    0.1950   -0.4690    3.6350 O   0  0  0  0  0  0  0  0  0  0  0  0
    0.3510    0.3080    0.9700 H   0  0  0  0  0  0  0  0  0  0  0  0
    1.9730    2.0290    2.8940 H   0  0  0  0  0  0  0  0  0  0  0  0
   -1.0040    2.1960    2.1620 H   0  0  0  0  0  0  0  0  0  0  0  0
    0.0000    3.3970    3.0890 H   0  0  0  0  0  0  0  0  0  0  0  0
   -0.5930    4.3110    0.9590 H   0  0  0  0  0  0  0  0  0  0  0  0
    1.1810    4.1340    1.1590 H   0  0  0  0  0  0  0  0  0  0  0  0
   -0.7200    1.7940   -1.6720 H   0  0  0  0  0  0  0  0  0  0  0  0
  1 11  1  0  0  0  0
  1 10  1  0  0  0  0
  2  1  1  0  0  0  0
  3  2  2  0  0  0  0
  4 13  1  0  0  0  0
  4  2  1  0  0  0  0
  4 12  1  0  0  0  0
  5  4  1  0  0  0  0
  6 16  1  6  0  0  0
  6  7  1  0  0  0  0
  6  5  1  0  0  0  0
  6  8  1  0  0  0  0
  7 18  1  0  0  0  0
  8  9  2  0  0  0  0
 14  5  1  0  0  0  0
 15  5  1  0  0  0  0
 17  7  1  0  0  0  0
 19 25  1  0  0  0  0
 19 20  1  0  0  0  0
 20 27  1  1  0  0  0
 20 22  1  0  0  0  0
 21  8  1  0  0  0  0
 21 20  1  0  0  0  0
 22 29  1  0  0  0  0
 22 23  2  0  0  0  0
 24 19  1  0  0  0  0
 26 19  1  0  0  0  0
 28 21  1  0  0  0  0
 29 30  1  0  0  0  0
 30 40  1  1  0  0  0
 30 35  1  0  0  0  0
 31 30  1  0  0  0  0
 31 42  1  0  0  0  0
 32 44  1  0  0  0  0
 32 31  1  0  0  0  0
 33 32  1  0  0  0  0
 34 33  2  0  0  0  0
 35 36  1  0  0  0  0
 37 33  1  0  0  0  0
 38 35  2  0  0  0  0
 39 29  1  0  0  0  0
 41 31  1  0  0  0  0
 43 32  1  0  0  0  0
 45 37  1  0  0  0  0
M  END
$$$$
