QAG.pdb
 OpenBabel07022418303D

 36 35  0  0  1  0  0  0  0  0999 V2000
   -1.5280   -2.7630    3.8630 N   0  0  0  0  0  0  0  0  0  0  0  0
   -1.2500   -3.2710    2.5570 C   0  0  0  0  0  0  0  0  0  0  0  0
   -0.9340   -4.4760    2.4080 O   0  0  0  0  0  0  0  0  0  0  0  0
   -1.3260   -2.4030    1.3520 C   0  0  0  0  0  0  0  0  0  0  0  0
   -0.9880   -3.2000    0.1560 C   0  0  0  0  0  0  0  0  0  0  0  0
   -1.0210   -2.5050   -1.1660 C   0  0  2  0  0  0  0  0  0  0  0  0
   -0.6440   -3.5800   -2.1230 N   0  0  0  0  0  0  0  0  0  0  0  0
    0.0110   -1.4640   -1.3410 C   0  0  0  0  0  0  0  0  0  0  0  0
    1.0730   -1.6700   -2.0200 O   0  0  0  0  0  0  0  0  0  0  0  0
   -1.1070   -3.1410    4.7200 H   0  0  0  0  0  0  0  0  0  0  0  0
   -2.1940   -1.9680    3.9420 H   0  0  0  0  0  0  0  0  0  0  0  0
   -0.6840   -1.5100    1.4960 H   0  0  0  0  0  0  0  0  0  0  0  0
   -2.3880   -2.0230    1.3080 H   0  0  0  0  0  0  0  0  0  0  0  0
   -1.6550   -4.1060    0.1410 H   0  0  0  0  0  0  0  0  0  0  0  0
    0.0410   -3.5980    0.2900 H   0  0  0  0  0  0  0  0  0  0  0  0
   -2.0350   -2.1310   -1.4370 H   0  0  0  0  0  0  0  0  0  0  0  0
   -0.9640   -3.3620   -3.0730 H   0  0  0  0  0  0  0  0  0  0  0  0
    0.3830   -3.7410   -2.0290 H   0  0  0  0  0  0  0  0  0  0  0  0
    0.3690    1.8310   -1.9970 C   0  0  0  0  0  0  0  0  0  0  0  0
    0.9510    0.8370   -0.9860 C   0  0  2  0  0  0  0  0  0  0  0  0
   -0.0780   -0.1480   -0.7830 N   0  0  0  0  0  0  0  0  0  0  0  0
    1.4340    1.5100    0.2150 C   0  0  0  0  0  0  0  0  0  0  0  0
    2.3750    2.3660    0.0730 O   0  0  0  0  0  0  0  0  0  0  0  0
    0.8490    2.8060   -1.9410 H   0  0  0  0  0  0  0  0  0  0  0  0
    0.5040    1.4370   -3.0210 H   0  0  0  0  0  0  0  0  0  0  0  0
   -0.7360    1.9470   -1.8020 H   0  0  0  0  0  0  0  0  0  0  0  0
    1.7930    0.3290   -1.5350 H   0  0  0  0  0  0  0  0  0  0  0  0
   -0.9040    0.1110   -0.2200 H   0  0  0  0  0  0  0  0  0  0  0  0
    0.9790    1.3260    1.5380 N   0  0  0  0  0  0  0  0  0  0  0  0
    1.5370    2.0490    2.6590 C   0  0  0  0  0  0  0  0  0  0  0  0
    2.9760    1.7420    2.7740 C   0  0  0  0  0  0  0  0  0  0  0  0
    3.5050    0.9500    1.9660 O   0  0  0  0  0  0  0  0  0  0  0  0
    3.7800    2.3100    3.7630 O   0  0  0  0  0  0  0  0  0  0  0  0
    0.2150    0.6530    1.7250 H   0  0  0  0  0  0  0  0  0  0  0  0
    1.0660    1.7230    3.6130 H   0  0  0  0  0  0  0  0  0  0  0  0
    1.4390    3.1520    2.5320 H   0  0  0  0  0  0  0  0  0  0  0  0
  1 11  1  0  0  0  0
  1 10  1  0  0  0  0
  2  1  1  0  0  0  0
  3  2  2  0  0  0  0
  4 12  1  0  0  0  0
  4  2  1  0  0  0  0
  5 15  1  0  0  0  0
  5  4  1  0  0  0  0
  6 16  1  6  0  0  0
  6  5  1  0  0  0  0
  7 18  1  0  0  0  0
  7  6  1  0  0  0  0
  8  6  1  0  0  0  0
  8 21  1  0  0  0  0
  9  8  2  0  0  0  0
 13  4  1  0  0  0  0
 14  5  1  0  0  0  0
 17  7  1  0  0  0  0
 19 24  1  0  0  0  0
 19 26  1  0  0  0  0
 19 20  1  0  0  0  0
 20 27  1  6  0  0  0
 20 21  1  0  0  0  0
 20 22  1  0  0  0  0
 21 28  1  0  0  0  0
 22 29  1  0  0  0  0
 23 22  2  0  0  0  0
 25 19  1  0  0  0  0
 29 34  1  0  0  0  0
 29 30  1  0  0  0  0
 30 31  1  0  0  0  0
 30 35  1  0  0  0  0
 31 33  1  0  0  0  0
 32 31  2  0  0  0  0
 36 30  1  0  0  0  0
M  END
$$$$
