QAI.pdb
 OpenBabel07022418303D

 48 47  0  0  1  0  0  0  0  0999 V2000
    5.3930   -4.6540    3.7190 N   0  0  0  0  0  0  0  0  0  0  0  0
    5.1700   -3.5900    2.8170 C   0  0  0  0  0  0  0  0  0  0  0  0
    6.0960   -3.2340    2.0610 O   0  0  0  0  0  0  0  0  0  0  0  0
    3.8490   -2.9320    2.7970 C   0  0  0  0  0  0  0  0  0  0  0  0
    3.7830   -1.8160    1.7800 C   0  0  0  0  0  0  0  0  0  0  0  0
    2.3930   -1.2270    1.8550 C   0  0  2  0  0  0  0  0  0  0  0  0
    1.4470   -2.2630    1.5490 N   0  0  0  0  0  0  0  0  0  0  0  0
    2.2150   -0.1100    0.8970 C   0  0  0  0  0  0  0  0  0  0  0  0
    2.9550    0.9180    0.9810 O   0  0  0  0  0  0  0  0  0  0  0  0
    5.3350   -4.5370    4.7580 H   0  0  0  0  0  0  0  0  0  0  0  0
    5.6280   -5.6010    3.3400 H   0  0  0  0  0  0  0  0  0  0  0  0
    3.6520   -2.5530    3.8340 H   0  0  0  0  0  0  0  0  0  0  0  0
    3.0210   -3.6730    2.6140 H   0  0  0  0  0  0  0  0  0  0  0  0
    3.9420   -2.2620    0.7890 H   0  0  0  0  0  0  0  0  0  0  0  0
    4.5710   -1.0870    1.9970 H   0  0  0  0  0  0  0  0  0  0  0  0
    2.2530   -0.8940    2.9110 H   0  0  0  0  0  0  0  0  0  0  0  0
    1.6580   -2.6380    0.6030 H   0  0  0  0  0  0  0  0  0  0  0  0
    0.4610   -1.9460    1.6690 H   0  0  0  0  0  0  0  0  0  0  0  0
    1.1770    0.3010   -2.4530 C   0  0  0  0  0  0  0  0  0  0  0  0
    1.0280    0.9150   -1.0770 C   0  0  2  0  0  0  0  0  0  0  0  0
    1.2290   -0.1770   -0.1110 N   0  0  0  0  0  0  0  0  0  0  0  0
   -0.3680    1.4260   -0.9710 C   0  0  0  0  0  0  0  0  0  0  0  0
   -0.7500    2.3550   -1.7010 O   0  0  0  0  0  0  0  0  0  0  0  0
    1.8700   -0.5640   -2.4230 H   0  0  0  0  0  0  0  0  0  0  0  0
    1.5330    1.0720   -3.1920 H   0  0  0  0  0  0  0  0  0  0  0  0
    0.1810   -0.0750   -2.7630 H   0  0  0  0  0  0  0  0  0  0  0  0
    1.7210    1.7340   -0.9040 H   0  0  0  0  0  0  0  0  0  0  0  0
    0.6420   -1.0370   -0.1480 H   0  0  0  0  0  0  0  0  0  0  0  0
   -3.8000   -0.8540    1.8660 C   0  0  0  0  0  0  0  0  0  0  0  0
   -3.7550   -0.9430    0.3550 C   0  0  0  0  0  0  0  0  0  0  0  0
   -3.7110    0.3680   -0.3280 C   0  0  2  0  0  0  0  0  0  0  0  0
   -3.6680    0.1260   -1.8230 C   0  0  0  0  0  0  0  0  0  0  0  0
   -2.6530    1.3260    0.1030 C   0  0  2  0  0  0  0  0  0  0  0  0
   -1.3150    0.8850   -0.0460 N   0  0  0  0  0  0  0  0  0  0  0  0
   -2.9490    2.0010    1.3930 C   0  0  0  0  0  0  0  0  0  0  0  0
   -2.1260    2.1920    2.3020 O   0  0  0  0  0  0  0  0  0  0  0  0
   -4.2330    2.4720    1.6460 O   0  0  0  0  0  0  0  0  0  0  0  0
   -4.0550   -1.8640    2.2480 H   0  0  0  0  0  0  0  0  0  0  0  0
   -4.6530   -0.2000    2.1390 H   0  0  0  0  0  0  0  0  0  0  0  0
   -2.8710   -0.4530    2.2950 H   0  0  0  0  0  0  0  0  0  0  0  0
   -4.7410   -1.4150    0.0700 H   0  0  0  0  0  0  0  0  0  0  0  0
   -3.0000   -1.6750    0.0040 H   0  0  0  0  0  0  0  0  0  0  0  0
   -4.7000    0.8810   -0.1400 H   0  0  0  0  0  0  0  0  0  0  0  0
   -2.6360   -0.0880   -2.1470 H   0  0  0  0  0  0  0  0  0  0  0  0
   -4.1060    1.0040   -2.3490 H   0  0  0  0  0  0  0  0  0  0  0  0
   -4.2980   -0.7760   -2.0240 H   0  0  0  0  0  0  0  0  0  0  0  0
   -2.7780    2.1710   -0.6520 H   0  0  0  0  0  0  0  0  0  0  0  0
   -0.9130    0.0920    0.5460 H   0  0  0  0  0  0  0  0  0  0  0  0
  1 10  1  0  0  0  0
  2  1  1  0  0  0  0
  3  2  2  0  0  0  0
  4  2  1  0  0  0  0
  4 12  1  0  0  0  0
  5  6  1  0  0  0  0
  5 15  1  0  0  0  0
  5  4  1  0  0  0  0
  6 16  1  1  0  0  0
  7 18  1  0  0  0  0
  7  6  1  0  0  0  0
  8  9  2  0  0  0  0
  8  6  1  0  0  0  0
 11  1  1  0  0  0  0
 13  4  1  0  0  0  0
 14  5  1  0  0  0  0
 17  7  1  0  0  0  0
 19 24  1  0  0  0  0
 19 20  1  0  0  0  0
 20 22  1  0  0  0  0
 20 27  1  1  0  0  0
 20 21  1  0  0  0  0
 21  8  1  0  0  0  0
 22 34  1  0  0  0  0
 23 22  2  0  0  0  0
 25 19  1  0  0  0  0
 26 19  1  0  0  0  0
 28 21  1  0  0  0  0
 29 39  1  0  0  0  0
 29 38  1  0  0  0  0
 29 40  1  0  0  0  0
 30 29  1  0  0  0  0
 31 43  1  1  0  0  0
 31 33  1  0  0  0  0
 31 30  1  0  0  0  0
 32 31  1  0  0  0  0
 33 47  1  6  0  0  0
 33 35  1  0  0  0  0
 34 33  1  0  0  0  0
 34 48  1  0  0  0  0
 35 37  2  0  0  0  0
 35 36  1  0  0  0  0
 41 30  1  0  0  0  0
 42 30  1  0  0  0  0
 44 32  1  0  0  0  0
 45 32  1  0  0  0  0
 46 32  1  0  0  0  0
M  END
$$$$
