QAK.pdb
 OpenBabel07022418303D

 50 49  0  0  1  0  0  0  0  0999 V2000
    2.1460   -5.7510    1.9210 N   0  0  0  0  0  0  0  0  0  0  0  0
    2.0910   -4.3440    1.7500 C   0  0  0  0  0  0  0  0  0  0  0  0
    1.3990   -3.6420    2.5190 O   0  0  0  0  0  0  0  0  0  0  0  0
    2.8490   -3.6950    0.6650 C   0  0  0  0  0  0  0  0  0  0  0  0
    2.6220   -2.2200    0.7020 C   0  0  0  0  0  0  0  0  0  0  0  0
    3.3620   -1.4810   -0.3760 C   0  0  2  0  0  0  0  0  0  0  0  0
    4.7710   -1.6950   -0.2460 N   0  0  0  0  0  0  0  0  0  0  0  0
    2.9910   -0.0420   -0.3040 C   0  0  0  0  0  0  0  0  0  0  0  0
    3.8460    0.8720   -0.1430 O   0  0  0  0  0  0  0  0  0  0  0  0
    1.8920   -6.2430    2.8070 H   0  0  0  0  0  0  0  0  0  0  0  0
    2.4570   -6.3540    1.1270 H   0  0  0  0  0  0  0  0  0  0  0  0
    2.6330   -4.1350   -0.3300 H   0  0  0  0  0  0  0  0  0  0  0  0
    3.9350   -3.9370    0.8530 H   0  0  0  0  0  0  0  0  0  0  0  0
    3.0070   -1.8440    1.6820 H   0  0  0  0  0  0  0  0  0  0  0  0
    1.5270   -2.0410    0.6000 H   0  0  0  0  0  0  0  0  0  0  0  0
    3.0620   -1.8280   -1.3930 H   0  0  0  0  0  0  0  0  0  0  0  0
    5.2470   -1.9670   -1.1170 H   0  0  0  0  0  0  0  0  0  0  0  0
    5.2600   -0.9150    0.2540 H   0  0  0  0  0  0  0  0  0  0  0  0
    0.5190    2.0130   -1.6890 C   0  0  0  0  0  0  0  0  0  0  0  0
    1.1800    1.7090   -0.3570 C   0  0  2  0  0  0  0  0  0  0  0  0
    1.6400    0.3350   -0.4160 N   0  0  0  0  0  0  0  0  0  0  0  0
    0.1350    1.8510    0.7190 C   0  0  0  0  0  0  0  0  0  0  0  0
   -0.3990    2.9670    0.9390 O   0  0  0  0  0  0  0  0  0  0  0  0
   -0.1120    1.1350   -1.9420 H   0  0  0  0  0  0  0  0  0  0  0  0
   -0.1690    2.8790   -1.5430 H   0  0  0  0  0  0  0  0  0  0  0  0
    1.2480    2.2460   -2.4790 H   0  0  0  0  0  0  0  0  0  0  0  0
    1.9960    2.4220   -0.2170 H   0  0  0  0  0  0  0  0  0  0  0  0
    0.9360   -0.4190   -0.5480 H   0  0  0  0  0  0  0  0  0  0  0  0
   -0.2860    0.7570    1.5160 N   0  0  0  0  0  0  0  0  0  0  0  0
   -1.2890    0.8740    2.5550 C   0  0  1  0  0  0  0  0  0  0  0  0
   -2.4370   -0.0940    2.2600 C   0  0  0  0  0  0  0  0  0  0  0  0
   -2.9950    0.3080    0.9160 C   0  0  0  0  0  0  0  0  0  0  0  0
   -4.1440   -0.5620    0.4830 C   0  0  0  0  0  0  0  0  0  0  0  0
   -4.5980   -0.0460   -0.8710 C   0  0  0  0  0  0  0  0  0  0  0  0
   -3.4450   -0.1670   -1.7620 N   0  0  0  0  0  0  0  0  0  0  0  0
   -0.6920    0.5590    3.9010 C   0  0  0  0  0  0  0  0  0  0  0  0
    0.5270    0.2510    3.9630 O   0  0  0  0  0  0  0  0  0  0  0  0
   -1.4260    0.5970    5.0540 O   0  0  0  0  0  0  0  0  0  0  0  0
    0.1620   -0.1660    1.3280 H   0  0  0  0  0  0  0  0  0  0  0  0
   -1.6710    1.9120    2.6370 H   0  0  0  0  0  0  0  0  0  0  0  0
   -2.0370   -1.1210    2.1820 H   0  0  0  0  0  0  0  0  0  0  0  0
   -3.1870   -0.0250    3.0670 H   0  0  0  0  0  0  0  0  0  0  0  0
   -3.3740    1.3540    0.9960 H   0  0  0  0  0  0  0  0  0  0  0  0
   -2.1950    0.2120    0.1770 H   0  0  0  0  0  0  0  0  0  0  0  0
   -4.9850   -0.5330    1.2130 H   0  0  0  0  0  0  0  0  0  0  0  0
   -3.7530   -1.5800    0.3290 H   0  0  0  0  0  0  0  0  0  0  0  0
   -4.7740    1.0430   -0.7550 H   0  0  0  0  0  0  0  0  0  0  0  0
   -5.4700   -0.5900   -1.2550 H   0  0  0  0  0  0  0  0  0  0  0  0
   -3.2020   -1.1550   -1.9480 H   0  0  0  0  0  0  0  0  0  0  0  0
   -3.5960    0.3850   -2.6420 H   0  0  0  0  0  0  0  0  0  0  0  0
  1 10  1  0  0  0  0
  2  1  1  0  0  0  0
  2  3  2  0  0  0  0
  4  5  1  0  0  0  0
  4 13  1  0  0  0  0
  4  2  1  0  0  0  0
  5 14  1  0  0  0  0
  6 16  1  6  0  0  0
  6  8  1  0  0  0  0
  6  7  1  0  0  0  0
  6  5  1  0  0  0  0
  7 18  1  0  0  0  0
  8  9  2  0  0  0  0
 11  1  1  0  0  0  0
 12  4  1  0  0  0  0
 15  5  1  0  0  0  0
 17  7  1  0  0  0  0
 19 25  1  0  0  0  0
 19 20  1  0  0  0  0
 20 27  1  1  0  0  0
 20 22  1  0  0  0  0
 21 20  1  0  0  0  0
 21  8  1  0  0  0  0
 22 23  2  0  0  0  0
 22 29  1  0  0  0  0
 24 19  1  0  0  0  0
 26 19  1  0  0  0  0
 28 21  1  0  0  0  0
 29 30  1  0  0  0  0
 30 40  1  1  0  0  0
 30 36  1  0  0  0  0
 31 30  1  0  0  0  0
 31 42  1  0  0  0  0
 32 43  1  0  0  0  0
 32 31  1  0  0  0  0
 33 32  1  0  0  0  0
 33 45  1  0  0  0  0
 34 47  1  0  0  0  0
 34 33  1  0  0  0  0
 35 34  1  0  0  0  0
 36 37  2  0  0  0  0
 36 38  1  0  0  0  0
 39 29  1  0  0  0  0
 41 31  1  0  0  0  0
 44 32  1  0  0  0  0
 46 33  1  0  0  0  0
 48 34  1  0  0  0  0
 49 35  1  0  0  0  0
 50 35  1  0  0  0  0
M  END
$$$$
