QAL.pdb
 OpenBabel07022418303D

 48 47  0  0  1  0  0  0  0  0999 V2000
    1.0470   -7.4750    0.4840 N   0  0  0  0  0  0  0  0  0  0  0  0
    1.7280   -6.2340    0.5530 C   0  0  0  0  0  0  0  0  0  0  0  0
    1.9360   -5.7510    1.6880 O   0  0  0  0  0  0  0  0  0  0  0  0
    2.1550   -5.5790   -0.6920 C   0  0  0  0  0  0  0  0  0  0  0  0
    2.7150   -4.2030   -0.5360 C   0  0  0  0  0  0  0  0  0  0  0  0
    1.6950   -3.2860    0.0370 C   0  0  2  0  0  0  0  0  0  0  0  0
    0.5140   -3.1840   -0.7980 N   0  0  0  0  0  0  0  0  0  0  0  0
    2.2500   -1.9160    0.3030 C   0  0  0  0  0  0  0  0  0  0  0  0
    3.2800   -1.8240    1.0160 O   0  0  0  0  0  0  0  0  0  0  0  0
    0.3040   -7.7570    1.1500 H   0  0  0  0  0  0  0  0  0  0  0  0
    1.3040   -8.1370   -0.2720 H   0  0  0  0  0  0  0  0  0  0  0  0
    1.2630   -5.5610   -1.3870 H   0  0  0  0  0  0  0  0  0  0  0  0
    2.8770   -6.2690   -1.2230 H   0  0  0  0  0  0  0  0  0  0  0  0
    3.0850   -3.8020   -1.5080 H   0  0  0  0  0  0  0  0  0  0  0  0
    3.5750   -4.2850    0.1800 H   0  0  0  0  0  0  0  0  0  0  0  0
    1.3720   -3.6550    1.0240 H   0  0  0  0  0  0  0  0  0  0  0  0
   -0.1960   -2.6260   -0.3080 H   0  0  0  0  0  0  0  0  0  0  0  0
    0.7740   -2.8320   -1.7380 H   0  0  0  0  0  0  0  0  0  0  0  0
    2.5760    1.3010   -1.2390 C   0  0  0  0  0  0  0  0  0  0  0  0
    2.1910    0.5870    0.0370 C   0  0  2  0  0  0  0  0  0  0  0  0
    1.6630   -0.7380   -0.2140 N   0  0  0  0  0  0  0  0  0  0  0  0
    1.1880    1.4230    0.7890 C   0  0  0  0  0  0  0  0  0  0  0  0
    1.4450    2.6100    1.1090 O   0  0  0  0  0  0  0  0  0  0  0  0
    1.8990    2.1740   -1.4010 H   0  0  0  0  0  0  0  0  0  0  0  0
    2.6200    0.6240   -2.1070 H   0  0  0  0  0  0  0  0  0  0  0  0
    3.6020    1.7500   -1.1510 H   0  0  0  0  0  0  0  0  0  0  0  0
    3.0830    0.5230    0.6680 H   0  0  0  0  0  0  0  0  0  0  0  0
    0.8020   -0.8610   -0.8050 H   0  0  0  0  0  0  0  0  0  0  0  0
   -4.6390    2.7620    0.8980 C   0  0  0  0  0  0  0  0  0  0  0  0
   -3.3940    2.6500    1.7700 C   0  0  0  0  0  0  0  0  0  0  0  0
   -2.9330    4.0410    2.1400 C   0  0  0  0  0  0  0  0  0  0  0  0
   -2.3270    1.8400    1.0970 C   0  0  0  0  0  0  0  0  0  0  0  0
   -1.0770    1.6960    1.8930 C   0  0  2  0  0  0  0  0  0  0  0  0
   -0.0790    0.8990    1.1580 N   0  0  0  0  0  0  0  0  0  0  0  0
   -1.2370    1.0370    3.2050 C   0  0  0  0  0  0  0  0  0  0  0  0
   -1.9980    1.5240    4.0630 O   0  0  0  0  0  0  0  0  0  0  0  0
   -0.5660   -0.1280    3.5400 O   0  0  0  0  0  0  0  0  0  0  0  0
   -4.5960    3.7010    0.2740 H   0  0  0  0  0  0  0  0  0  0  0  0
   -5.5090    2.9100    1.5700 H   0  0  0  0  0  0  0  0  0  0  0  0
   -4.8130    1.8680    0.2890 H   0  0  0  0  0  0  0  0  0  0  0  0
   -3.6990    2.1360    2.7040 H   0  0  0  0  0  0  0  0  0  0  0  0
   -2.0920    3.9710    2.8420 H   0  0  0  0  0  0  0  0  0  0  0  0
   -2.6460    4.6130    1.2210 H   0  0  0  0  0  0  0  0  0  0  0  0
   -3.7630    4.5370    2.6770 H   0  0  0  0  0  0  0  0  0  0  0  0
   -2.1400    2.1670    0.0500 H   0  0  0  0  0  0  0  0  0  0  0  0
   -2.7660    0.8050    0.9760 H   0  0  0  0  0  0  0  0  0  0  0  0
   -0.6790    2.7150    2.0920 H   0  0  0  0  0  0  0  0  0  0  0  0
   -0.2900   -0.0840    0.8910 H   0  0  0  0  0  0  0  0  0  0  0  0
  1  2  1  0  0  0  0
  1 10  1  0  0  0  0
  2  3  2  0  0  0  0
  4  5  1  0  0  0  0
  4  2  1  0  0  0  0
  5  6  1  0  0  0  0
  5 15  1  0  0  0  0
  6  8  1  0  0  0  0
  6 16  1  1  0  0  0
  7 17  1  0  0  0  0
  7  6  1  0  0  0  0
  8  9  2  0  0  0  0
 11  1  1  0  0  0  0
 12  4  1  0  0  0  0
 13  4  1  0  0  0  0
 14  5  1  0  0  0  0
 18  7  1  0  0  0  0
 19 26  1  0  0  0  0
 19 20  1  0  0  0  0
 20 27  1  1  0  0  0
 20 22  1  0  0  0  0
 21 20  1  0  0  0  0
 21  8  1  0  0  0  0
 22 23  2  0  0  0  0
 22 34  1  0  0  0  0
 24 19  1  0  0  0  0
 25 19  1  0  0  0  0
 28 21  1  0  0  0  0
 29 39  1  0  0  0  0
 29 30  1  0  0  0  0
 30 31  1  0  0  0  0
 30 41  1  0  0  0  0
 31 44  1  0  0  0  0
 31 42  1  0  0  0  0
 32 30  1  0  0  0  0
 32 33  1  0  0  0  0
 33 47  1  1  0  0  0
 33 35  1  0  0  0  0
 34 33  1  0  0  0  0
 35 37  2  0  0  0  0
 35 36  1  0  0  0  0
 38 29  1  0  0  0  0
 40 29  1  0  0  0  0
 43 31  1  0  0  0  0
 45 32  1  0  0  0  0
 46 32  1  0  0  0  0
 48 34  1  0  0  0  0
M  END
$$$$
