QAN.pdb
 OpenBabel07022418303D

 43 42  0  0  1  0  0  0  0  0999 V2000
   -0.3730   -5.4100    3.3090 N   0  0  0  0  0  0  0  0  0  0  0  0
   -0.1600   -4.2380    2.5370 C   0  0  0  0  0  0  0  0  0  0  0  0
   -1.0280   -3.9130    1.7030 O   0  0  0  0  0  0  0  0  0  0  0  0
    1.0650   -3.4500    2.7420 C   0  0  0  0  0  0  0  0  0  0  0  0
    1.2980   -2.3650    1.7290 C   0  0  0  0  0  0  0  0  0  0  0  0
    1.4460   -2.9790    0.3620 C   0  0  2  0  0  0  0  0  0  0  0  0
    2.5930   -3.8810    0.4420 N   0  0  0  0  0  0  0  0  0  0  0  0
    1.6900   -1.9460   -0.6810 C   0  0  0  0  0  0  0  0  0  0  0  0
    2.7720   -1.9620   -1.3070 O   0  0  0  0  0  0  0  0  0  0  0  0
    0.0420   -5.4370    4.2650 H   0  0  0  0  0  0  0  0  0  0  0  0
   -0.9170   -6.2360    2.9760 H   0  0  0  0  0  0  0  0  0  0  0  0
    1.9100   -4.2010    2.7320 H   0  0  0  0  0  0  0  0  0  0  0  0
    1.0750   -3.0130    3.7680 H   0  0  0  0  0  0  0  0  0  0  0  0
    2.2390   -1.8090    1.9700 H   0  0  0  0  0  0  0  0  0  0  0  0
    0.4370   -1.6390    1.7360 H   0  0  0  0  0  0  0  0  0  0  0  0
    0.5610   -3.5830    0.1350 H   0  0  0  0  0  0  0  0  0  0  0  0
    2.3500   -4.8450    0.1080 H   0  0  0  0  0  0  0  0  0  0  0  0
    3.4130   -3.4670   -0.0310 H   0  0  0  0  0  0  0  0  0  0  0  0
   -0.0940   -0.0390   -3.1050 C   0  0  0  0  0  0  0  0  0  0  0  0
    0.9340    0.0770   -1.9930 C   0  0  2  0  0  0  0  0  0  0  0  0
    0.7360   -0.9450   -0.9860 N   0  0  0  0  0  0  0  0  0  0  0  0
    0.7500    1.4190   -1.3770 C   0  0  0  0  0  0  0  0  0  0  0  0
    0.8720    2.4810   -2.0670 O   0  0  0  0  0  0  0  0  0  0  0  0
   -1.0040   -0.6000   -2.7530 H   0  0  0  0  0  0  0  0  0  0  0  0
   -0.4210    0.9670   -3.4210 H   0  0  0  0  0  0  0  0  0  0  0  0
    0.3450   -0.5240   -3.9890 H   0  0  0  0  0  0  0  0  0  0  0  0
    1.9200   -0.0660   -2.4430 H   0  0  0  0  0  0  0  0  0  0  0  0
   -0.1600   -0.9900   -0.4160 H   0  0  0  0  0  0  0  0  0  0  0  0
   -2.8830    2.1740    2.5530 N   0  0  0  0  0  0  0  0  0  0  0  0
   -1.5550    2.1170    2.0570 C   0  0  0  0  0  0  0  0  0  0  0  0
   -0.8020    1.2460    2.5490 O   0  0  0  0  0  0  0  0  0  0  0  0
   -1.1720    3.0780    1.0120 C   0  0  0  0  0  0  0  0  0  0  0  0
    0.2580    2.9150    0.5510 C   0  0  2  0  0  0  0  0  0  0  0  0
    0.4280    1.5890    0.0130 N   0  0  0  0  0  0  0  0  0  0  0  0
    1.2280    3.2450    1.6110 C   0  0  0  0  0  0  0  0  0  0  0  0
    2.1210    2.4660    2.0190 O   0  0  0  0  0  0  0  0  0  0  0  0
    1.1440    4.5000    2.1950 O   0  0  0  0  0  0  0  0  0  0  0  0
   -3.2430    3.1020    2.8640 H   0  0  0  0  0  0  0  0  0  0  0  0
   -3.4880    1.3250    2.6100 H   0  0  0  0  0  0  0  0  0  0  0  0
   -1.8010    2.9620    0.0890 H   0  0  0  0  0  0  0  0  0  0  0  0
   -1.3120    4.1030    1.3550 H   0  0  0  0  0  0  0  0  0  0  0  0
    0.4110    3.6680   -0.2590 H   0  0  0  0  0  0  0  0  0  0  0  0
    0.3310    0.7330    0.5740 H   0  0  0  0  0  0  0  0  0  0  0  0
  1 10  1  0  0  0  0
  2  4  1  0  0  0  0
  2  1  1  0  0  0  0
  3  2  2  0  0  0  0
  4 13  1  0  0  0  0
  5 15  1  0  0  0  0
  5 14  1  0  0  0  0
  5  4  1  0  0  0  0
  6 16  1  6  0  0  0
  6  7  1  0  0  0  0
  6  5  1  0  0  0  0
  8  6  1  0  0  0  0
  9  8  2  0  0  0  0
 11  1  1  0  0  0  0
 12  4  1  0  0  0  0
 17  7  1  0  0  0  0
 18  7  1  0  0  0  0
 19 24  1  0  0  0  0
 19 20  1  0  0  0  0
 20 27  1  6  0  0  0
 20 22  1  0  0  0  0
 20 21  1  0  0  0  0
 21  8  1  0  0  0  0
 21 28  1  0  0  0  0
 22 34  1  0  0  0  0
 23 22  2  0  0  0  0
 25 19  1  0  0  0  0
 26 19  1  0  0  0  0
 29 39  1  0  0  0  0
 29 38  1  0  0  0  0
 30 31  2  0  0  0  0
 30 29  1  0  0  0  0
 32 41  1  0  0  0  0
 32 30  1  0  0  0  0
 33 42  1  6  0  0  0
 33 32  1  0  0  0  0
 33 35  1  0  0  0  0
 34 33  1  0  0  0  0
 34 43  1  0  0  0  0
 35 36  2  0  0  0  0
 35 37  1  0  0  0  0
 40 32  1  0  0  0  0
M  END
$$$$
