QAQ.pdb
 OpenBabel07022418303D

 46 45  0  0  1  0  0  0  0  0999 V2000
    4.1800   -4.4500    3.5110 N   0  0  0  0  0  0  0  0  0  0  0  0
    3.0320   -4.3450    2.6890 C   0  0  0  0  0  0  0  0  0  0  0  0
    1.9050   -4.3950    3.2340 O   0  0  0  0  0  0  0  0  0  0  0  0
    3.1470   -4.1820    1.2460 C   0  0  0  0  0  0  0  0  0  0  0  0
    1.8690   -4.0380    0.4980 C   0  0  0  0  0  0  0  0  0  0  0  0
    1.0170   -2.8750    0.8700 C   0  0  2  0  0  0  0  0  0  0  0  0
   -0.1660   -2.9220    0.0270 N   0  0  0  0  0  0  0  0  0  0  0  0
    1.7010   -1.5800    0.8050 C   0  0  0  0  0  0  0  0  0  0  0  0
    2.7280   -1.3380    1.4840 O   0  0  0  0  0  0  0  0  0  0  0  0
    4.1580   -3.9650    4.4330 H   0  0  0  0  0  0  0  0  0  0  0  0
    5.0420   -4.9740    3.2680 H   0  0  0  0  0  0  0  0  0  0  0  0
    3.7100   -5.0790    0.8540 H   0  0  0  0  0  0  0  0  0  0  0  0
    3.8160   -3.3280    0.9890 H   0  0  0  0  0  0  0  0  0  0  0  0
    1.2940   -4.9960    0.6650 H   0  0  0  0  0  0  0  0  0  0  0  0
    2.0780   -4.0060   -0.5940 H   0  0  0  0  0  0  0  0  0  0  0  0
    0.6320   -2.9870    1.9070 H   0  0  0  0  0  0  0  0  0  0  0  0
   -0.1960   -3.7700   -0.5830 H   0  0  0  0  0  0  0  0  0  0  0  0
   -1.0490   -2.8680    0.5400 H   0  0  0  0  0  0  0  0  0  0  0  0
    2.2990    0.9280   -1.5710 C   0  0  0  0  0  0  0  0  0  0  0  0
    1.8330    0.7480   -0.1530 C   0  0  2  0  0  0  0  0  0  0  0  0
    1.2050   -0.5550   -0.0430 N   0  0  0  0  0  0  0  0  0  0  0  0
    0.9170    1.8300    0.2920 C   0  0  0  0  0  0  0  0  0  0  0  0
    1.3000    3.0220    0.2630 O   0  0  0  0  0  0  0  0  0  0  0  0
    1.6930    1.6690   -2.1180 H   0  0  0  0  0  0  0  0  0  0  0  0
    3.3920    1.1920   -1.5830 H   0  0  0  0  0  0  0  0  0  0  0  0
    2.2240   -0.0210   -2.1360 H   0  0  0  0  0  0  0  0  0  0  0  0
    2.7110    0.7400    0.5240 H   0  0  0  0  0  0  0  0  0  0  0  0
    0.3550   -0.7700   -0.5980 H   0  0  0  0  0  0  0  0  0  0  0  0
   -4.9500   -0.1020    0.5340 N   0  0  0  0  0  0  0  0  0  0  0  0
   -4.0870    0.9840    0.8460 C   0  0  0  0  0  0  0  0  0  0  0  0
   -4.0800    1.3000    2.0530 O   0  0  0  0  0  0  0  0  0  0  0  0
   -3.2850    1.6690   -0.1370 C   0  0  0  0  0  0  0  0  0  0  0  0
   -2.4220    2.7870    0.2180 C   0  0  0  0  0  0  0  0  0  0  0  0
   -1.3200    2.6260    1.2020 C   0  0  2  0  0  0  0  0  0  0  0  0
   -0.3900    1.6120    0.7580 N   0  0  0  0  0  0  0  0  0  0  0  0
   -1.6220    2.6500    2.6050 C   0  0  0  0  0  0  0  0  0  0  0  0
   -1.1640    1.8130    3.3860 O   0  0  0  0  0  0  0  0  0  0  0  0
   -2.4360    3.6180    3.1250 O   0  0  0  0  0  0  0  0  0  0  0  0
   -4.6880   -0.7270   -0.2540 H   0  0  0  0  0  0  0  0  0  0  0  0
   -5.8310   -0.3140    1.0450 H   0  0  0  0  0  0  0  0  0  0  0  0
   -3.9970    2.0050   -0.9580 H   0  0  0  0  0  0  0  0  0  0  0  0
   -2.7030    0.8680   -0.7030 H   0  0  0  0  0  0  0  0  0  0  0  0
   -3.0700    3.6740    0.4960 H   0  0  0  0  0  0  0  0  0  0  0  0
   -1.9340    3.1420   -0.7420 H   0  0  0  0  0  0  0  0  0  0  0  0
   -0.7040    3.5890    1.0700 H   0  0  0  0  0  0  0  0  0  0  0  0
   -0.7310    0.6170    0.7900 H   0  0  0  0  0  0  0  0  0  0  0  0
  1 10  1  0  0  0  0
  2  3  2  0  0  0  0
  2  1  1  0  0  0  0
  4  2  1  0  0  0  0
  5 14  1  0  0  0  0
  5  6  1  0  0  0  0
  5  4  1  0  0  0  0
  6 16  1  1  0  0  0
  7 18  1  0  0  0  0
  7  6  1  0  0  0  0
  8  6  1  0  0  0  0
  8  9  2  0  0  0  0
 11  1  1  0  0  0  0
 12  4  1  0  0  0  0
 13  4  1  0  0  0  0
 15  5  1  0  0  0  0
 17  7  1  0  0  0  0
 19 20  1  0  0  0  0
 20 21  1  0  0  0  0
 20 22  1  0  0  0  0
 20 27  1  1  0  0  0
 21  8  1  0  0  0  0
 22 35  1  0  0  0  0
 23 22  2  0  0  0  0
 24 19  1  0  0  0  0
 25 19  1  0  0  0  0
 26 19  1  0  0  0  0
 28 21  1  0  0  0  0
 29 30  1  0  0  0  0
 29 40  1  0  0  0  0
 30 31  2  0  0  0  0
 32 33  1  0  0  0  0
 32 30  1  0  0  0  0
 33 43  1  0  0  0  0
 33 34  1  0  0  0  0
 34 45  1  6  0  0  0
 34 36  1  0  0  0  0
 35 46  1  0  0  0  0
 35 34  1  0  0  0  0
 36 38  2  0  0  0  0
 36 37  1  0  0  0  0
 39 29  1  0  0  0  0
 41 32  1  0  0  0  0
 42 32  1  0  0  0  0
 44 33  1  0  0  0  0
M  END
$$$$
