QAR.pdb
 OpenBabel07022418303D

 52 51  0  0  1  0  0  0  0  0999 V2000
    6.3090   -0.4350    3.8500 N   0  0  0  0  0  0  0  0  0  0  0  0
    5.0230   -1.0600    3.8300 C   0  0  0  0  0  0  0  0  0  0  0  0
    4.1050   -0.5610    4.5240 O   0  0  0  0  0  0  0  0  0  0  0  0
    4.8870   -2.2610    2.9770 C   0  0  0  0  0  0  0  0  0  0  0  0
    3.5020   -2.8420    2.9820 C   0  0  0  0  0  0  0  0  0  0  0  0
    2.4380   -1.8980    2.4910 C   0  0  2  0  0  0  0  0  0  0  0  0
    1.1750   -2.6460    2.5740 N   0  0  0  0  0  0  0  0  0  0  0  0
    2.6820   -1.5490    1.0670 C   0  0  0  0  0  0  0  0  0  0  0  0
    3.6670   -0.8930    0.6770 O   0  0  0  0  0  0  0  0  0  0  0  0
    6.8400   -0.3710    2.9620 H   0  0  0  0  0  0  0  0  0  0  0  0
    6.6610   -0.0690    4.7550 H   0  0  0  0  0  0  0  0  0  0  0  0
    5.5800   -3.0410    3.3980 H   0  0  0  0  0  0  0  0  0  0  0  0
    5.2380   -2.0170    1.9630 H   0  0  0  0  0  0  0  0  0  0  0  0
    3.4970   -3.7120    2.2810 H   0  0  0  0  0  0  0  0  0  0  0  0
    3.2150   -3.1500    4.0060 H   0  0  0  0  0  0  0  0  0  0  0  0
    2.3100   -0.9970    3.1130 H   0  0  0  0  0  0  0  0  0  0  0  0
    0.8710   -2.5930    3.5720 H   0  0  0  0  0  0  0  0  0  0  0  0
    1.3840   -3.6390    2.2920 H   0  0  0  0  0  0  0  0  0  0  0  0
    2.0110   -2.9010   -2.1930 C   0  0  0  0  0  0  0  0  0  0  0  0
    1.9330   -1.6660   -1.3250 C   0  0  2  0  0  0  0  0  0  0  0  0
    1.7630   -1.9660    0.0600 N   0  0  0  0  0  0  0  0  0  0  0  0
    0.7610   -0.8760   -1.7950 C   0  0  0  0  0  0  0  0  0  0  0  0
    0.6770   -0.4820   -3.0020 O   0  0  0  0  0  0  0  0  0  0  0  0
    1.0220   -3.3830   -2.3260 H   0  0  0  0  0  0  0  0  0  0  0  0
    2.3190   -2.5540   -3.2060 H   0  0  0  0  0  0  0  0  0  0  0  0
    2.7870   -3.5940   -1.8420 H   0  0  0  0  0  0  0  0  0  0  0  0
    2.8480   -1.0770   -1.5300 H   0  0  0  0  0  0  0  0  0  0  0  0
    0.9170   -2.5200    0.3380 H   0  0  0  0  0  0  0  0  0  0  0  0
   -5.7190    1.9140    2.4640 N   0  0  0  0  0  0  0  0  0  0  0  0
   -5.6320    1.7210    1.0760 C   0  0  0  0  0  0  0  0  0  0  0  0
   -6.2840    2.5560    0.3110 N   0  0  0  0  0  0  0  0  0  0  0  0
   -4.8810    0.6770    0.4680 N   0  0  0  0  0  0  0  0  0  0  0  0
   -4.7510    0.6910   -0.9590 C   0  0  0  0  0  0  0  0  0  0  0  0
   -3.9710   -0.3930   -1.5500 C   0  0  0  0  0  0  0  0  0  0  0  0
   -2.5940   -0.6790   -1.2050 C   0  0  0  0  0  0  0  0  0  0  0  0
   -1.4750    0.2590   -1.3930 C   0  0  2  0  0  0  0  0  0  0  0  0
   -0.2850   -0.5430   -0.9170 N   0  0  0  0  0  0  0  0  0  0  0  0
   -1.4670    1.5230   -0.6810 C   0  0  0  0  0  0  0  0  0  0  0  0
   -0.6160    1.6900    0.2640 O   0  0  0  0  0  0  0  0  0  0  0  0
   -2.2820    2.5960   -0.9060 O   0  0  0  0  0  0  0  0  0  0  0  0
   -6.5460    2.3760    2.8860 H   0  0  0  0  0  0  0  0  0  0  0  0
   -4.9530    1.5950    3.0820 H   0  0  0  0  0  0  0  0  0  0  0  0
   -6.8450    3.3320    0.6770 H   0  0  0  0  0  0  0  0  0  0  0  0
   -4.4730   -0.0330    1.1080 H   0  0  0  0  0  0  0  0  0  0  0  0
   -4.6240    1.7070   -1.3460 H   0  0  0  0  0  0  0  0  0  0  0  0
   -5.8520    0.4760   -1.3020 H   0  0  0  0  0  0  0  0  0  0  0  0
   -4.0790   -0.3240   -2.6910 H   0  0  0  0  0  0  0  0  0  0  0  0
   -4.5550   -1.3670   -1.3660 H   0  0  0  0  0  0  0  0  0  0  0  0
   -2.5530   -1.1380   -0.1530 H   0  0  0  0  0  0  0  0  0  0  0  0
   -2.3030   -1.6120   -1.8160 H   0  0  0  0  0  0  0  0  0  0  0  0
   -1.2490    0.4430   -2.4610 H   0  0  0  0  0  0  0  0  0  0  0  0
   -0.2380   -0.8520    0.0700 H   0  0  0  0  0  0  0  0  0  0  0  0
  1 11  1  0  0  0  0
  2  1  1  0  0  0  0
  2  3  2  0  0  0  0
  4  5  1  0  0  0  0
  4 12  1  0  0  0  0
  4  2  1  0  0  0  0
  5 15  1  0  0  0  0
  6  7  1  0  0  0  0
  6  5  1  0  0  0  0
  6 16  1  1  0  0  0
  7 17  1  0  0  0  0
  8  6  1  0  0  0  0
  9  8  2  0  0  0  0
 10  1  1  0  0  0  0
 13  4  1  0  0  0  0
 14  5  1  0  0  0  0
 18  7  1  0  0  0  0
 19 26  1  0  0  0  0
 19 20  1  0  0  0  0
 20 27  1  6  0  0  0
 20 21  1  0  0  0  0
 21 28  1  0  0  0  0
 21  8  1  0  0  0  0
 22 20  1  0  0  0  0
 22 37  1  0  0  0  0
 23 22  2  0  0  0  0
 24 19  1  0  0  0  0
 25 19  1  0  0  0  0
 29 41  1  0  0  0  0
 29 42  1  0  0  0  0
 30 29  1  0  0  0  0
 31 43  1  0  0  0  0
 31 30  2  0  0  0  0
 32 30  1  0  0  0  0
 32 44  1  0  0  0  0
 33 32  1  0  0  0  0
 34 48  1  0  0  0  0
 34 35  1  0  0  0  0
 34 33  1  0  0  0  0
 35 49  1  0  0  0  0
 36 51  1  6  0  0  0
 36 35  1  0  0  0  0
 36 37  1  0  0  0  0
 36 38  1  0  0  0  0
 37 52  1  0  0  0  0
 38 39  1  0  0  0  0
 40 38  2  0  0  0  0
 45 33  1  0  0  0  0
 46 33  1  0  0  0  0
 47 34  1  0  0  0  0
 50 35  1  0  0  0  0
M  END
$$$$
