QAT.pdb
 OpenBabel07022418303D

 43 42  0  0  1  0  0  0  0  0999 V2000
    1.6850   -4.8220    4.6230 N   0  0  0  0  0  0  0  0  0  0  0  0
    2.2990   -4.0120    3.5970 C   0  0  0  0  0  0  0  0  0  0  0  0
    2.2260   -4.4240    2.4200 O   0  0  0  0  0  0  0  0  0  0  0  0
    2.9830   -2.7630    3.9050 C   0  0  0  0  0  0  0  0  0  0  0  0
    3.1840   -1.7850    2.8120 C   0  0  0  0  0  0  0  0  0  0  0  0
    1.9030   -1.2460    2.2510 C   0  0  2  0  0  0  0  0  0  0  0  0
    1.0550   -2.2550    1.6820 N   0  0  0  0  0  0  0  0  0  0  0  0
    2.1370   -0.1950    1.2280 C   0  0  0  0  0  0  0  0  0  0  0  0
    2.9320    0.7440    1.5270 O   0  0  0  0  0  0  0  0  0  0  0  0
    2.1050   -4.9680    5.5580 H   0  0  0  0  0  0  0  0  0  0  0  0
    0.7780   -5.2690    4.3840 H   0  0  0  0  0  0  0  0  0  0  0  0
    3.9610   -3.0580    4.4000 H   0  0  0  0  0  0  0  0  0  0  0  0
    2.3820   -2.2750    4.7330 H   0  0  0  0  0  0  0  0  0  0  0  0
    3.8430   -2.1810    1.9910 H   0  0  0  0  0  0  0  0  0  0  0  0
    3.6980   -0.8890    3.2840 H   0  0  0  0  0  0  0  0  0  0  0  0
    1.3660   -0.8020    3.1390 H   0  0  0  0  0  0  0  0  0  0  0  0
    1.3430   -2.5180    0.7150 H   0  0  0  0  0  0  0  0  0  0  0  0
    0.0580   -1.9880    1.6530 H   0  0  0  0  0  0  0  0  0  0  0  0
    2.3310    0.4080   -2.3260 C   0  0  0  0  0  0  0  0  0  0  0  0
    1.8150    0.9060   -1.0180 C   0  0  2  0  0  0  0  0  0  0  0  0
    1.5600   -0.1340   -0.0520 N   0  0  0  0  0  0  0  0  0  0  0  0
    0.5280    1.6070   -1.2660 C   0  0  0  0  0  0  0  0  0  0  0  0
    0.4730    2.5800   -2.0930 O   0  0  0  0  0  0  0  0  0  0  0  0
    1.9870    1.1110   -3.1170 H   0  0  0  0  0  0  0  0  0  0  0  0
    3.4510    0.4370   -2.3740 H   0  0  0  0  0  0  0  0  0  0  0  0
    1.9320   -0.5860   -2.6120 H   0  0  0  0  0  0  0  0  0  0  0  0
    2.5390    1.6520   -0.6160 H   0  0  0  0  0  0  0  0  0  0  0  0
    0.8970   -0.8840   -0.3360 H   0  0  0  0  0  0  0  0  0  0  0  0
   -3.1700   -0.2850   -0.5380 C   0  0  0  0  0  0  0  0  0  0  0  0
   -2.9230    0.9020   -1.4400 C   0  0  1  0  0  0  0  0  0  0  0  0
   -4.1530    1.5200   -1.6490 O   0  0  0  0  0  0  0  0  0  0  0  0
   -1.9350    1.8820   -0.8170 C   0  0  2  0  0  0  0  0  0  0  0  0
   -0.6740    1.2340   -0.6070 N   0  0  0  0  0  0  0  0  0  0  0  0
   -2.4810    2.4860    0.4240 C   0  0  0  0  0  0  0  0  0  0  0  0
   -3.5810    3.0940    0.4150 O   0  0  0  0  0  0  0  0  0  0  0  0
   -1.8160    2.4130    1.6400 O   0  0  0  0  0  0  0  0  0  0  0  0
   -2.4450   -1.0760   -0.8210 H   0  0  0  0  0  0  0  0  0  0  0  0
   -4.1840   -0.7160   -0.7140 H   0  0  0  0  0  0  0  0  0  0  0  0
   -3.0010   -0.0630    0.5300 H   0  0  0  0  0  0  0  0  0  0  0  0
   -2.4920    0.5980   -2.4160 H   0  0  0  0  0  0  0  0  0  0  0  0
   -4.7070    0.9150   -2.2020 H   0  0  0  0  0  0  0  0  0  0  0  0
   -1.8070    2.6970   -1.5590 H   0  0  0  0  0  0  0  0  0  0  0  0
   -0.6050    0.4280    0.0720 H   0  0  0  0  0  0  0  0  0  0  0  0
  1 10  1  0  0  0  0
  2  4  1  0  0  0  0
  2  1  1  0  0  0  0
  3  2  2  0  0  0  0
  4 12  1  0  0  0  0
  4 13  1  0  0  0  0
  5 15  1  0  0  0  0
  5  4  1  0  0  0  0
  6  5  1  0  0  0  0
  6 16  1  1  0  0  0
  7  6  1  0  0  0  0
  8  9  2  0  0  0  0
  8  6  1  0  0  0  0
 11  1  1  0  0  0  0
 14  5  1  0  0  0  0
 17  7  1  0  0  0  0
 18  7  1  0  0  0  0
 19 20  1  0  0  0  0
 20 27  1  1  0  0  0
 20 21  1  0  0  0  0
 21  8  1  0  0  0  0
 22 20  1  0  0  0  0
 22 33  1  0  0  0  0
 23 22  2  0  0  0  0
 24 19  1  0  0  0  0
 25 19  1  0  0  0  0
 26 19  1  0  0  0  0
 28 21  1  0  0  0  0
 29 39  1  0  0  0  0
 30 40  1  6  0  0  0
 30 32  1  0  0  0  0
 30 29  1  0  0  0  0
 31 30  1  0  0  0  0
 32 42  1  6  0  0  0
 32 33  1  0  0  0  0
 32 34  1  0  0  0  0
 33 43  1  0  0  0  0
 34 36  1  0  0  0  0
 35 34  2  0  0  0  0
 37 29  1  0  0  0  0
 38 29  1  0  0  0  0
 41 31  1  0  0  0  0
M  END
$$$$
