QAV.pdb
 OpenBabel07022418303D

 45 44  0  0  1  0  0  0  0  0999 V2000
    3.0590   -6.3910   -2.7080 N   0  0  0  0  0  0  0  0  0  0  0  0
    3.2730   -5.3630   -1.7690 C   0  0  0  0  0  0  0  0  0  0  0  0
    4.4190   -5.0850   -1.3580 O   0  0  0  0  0  0  0  0  0  0  0  0
    2.1170   -4.5880   -1.2520 C   0  0  0  0  0  0  0  0  0  0  0  0
    2.5680   -3.5300   -0.2560 C   0  0  0  0  0  0  0  0  0  0  0  0
    1.3400   -2.7910    0.2200 C   0  0  2  0  0  0  0  0  0  0  0  0
    0.6950   -2.1780   -0.9160 N   0  0  0  0  0  0  0  0  0  0  0  0
    1.6500   -1.8100    1.2780 C   0  0  0  0  0  0  0  0  0  0  0  0
    2.2120   -2.1860    2.3250 O   0  0  0  0  0  0  0  0  0  0  0  0
    2.7410   -6.2250   -3.6960 H   0  0  0  0  0  0  0  0  0  0  0  0
    3.2100   -7.4000   -2.4600 H   0  0  0  0  0  0  0  0  0  0  0  0
    1.3860   -5.2830   -0.7900 H   0  0  0  0  0  0  0  0  0  0  0  0
    1.6170   -4.1300   -2.1290 H   0  0  0  0  0  0  0  0  0  0  0  0
    3.3200   -2.8750   -0.6970 H   0  0  0  0  0  0  0  0  0  0  0  0
    3.0010   -4.0580    0.6190 H   0  0  0  0  0  0  0  0  0  0  0  0
    0.6330   -3.5340    0.6420 H   0  0  0  0  0  0  0  0  0  0  0  0
    1.3160   -1.5990   -1.4990 H   0  0  0  0  0  0  0  0  0  0  0  0
   -0.1460   -1.6450   -0.6730 H   0  0  0  0  0  0  0  0  0  0  0  0
    2.6490    1.5180    1.6360 C   0  0  0  0  0  0  0  0  0  0  0  0
    1.6480    0.5270    2.2180 C   0  0  2  0  0  0  0  0  0  0  0  0
    1.3360   -0.4160    1.1730 N   0  0  0  0  0  0  0  0  0  0  0  0
    0.4480    1.3030    2.6370 C   0  0  0  0  0  0  0  0  0  0  0  0
    0.5130    2.1640    3.5270 O   0  0  0  0  0  0  0  0  0  0  0  0
    2.3230    1.8660    0.6300 H   0  0  0  0  0  0  0  0  0  0  0  0
    2.7700    2.3580    2.3500 H   0  0  0  0  0  0  0  0  0  0  0  0
    3.5990    0.9480    1.5070 H   0  0  0  0  0  0  0  0  0  0  0  0
    2.1360    0.0200    3.0520 H   0  0  0  0  0  0  0  0  0  0  0  0
    0.8650   -0.1200    0.2890 H   0  0  0  0  0  0  0  0  0  0  0  0
   -3.2220    1.8330    0.2140 C   0  0  0  0  0  0  0  0  0  0  0  0
   -2.7370    2.6150    1.4150 C   0  0  0  0  0  0  0  0  0  0  0  0
   -2.0920    3.9220    1.0350 C   0  0  0  0  0  0  0  0  0  0  0  0
   -2.0050    1.8170    2.4100 C   0  0  2  0  0  0  0  0  0  0  0  0
   -0.8320    1.1370    2.0800 N   0  0  0  0  0  0  0  0  0  0  0  0
   -2.9570    0.8810    3.0540 C   0  0  0  0  0  0  0  0  0  0  0  0
   -2.6100   -0.3130    3.2090 O   0  0  0  0  0  0  0  0  0  0  0  0
   -4.2190    1.2400    3.5030 O   0  0  0  0  0  0  0  0  0  0  0  0
   -4.0180    1.1240    0.5430 H   0  0  0  0  0  0  0  0  0  0  0  0
   -2.4480    1.2300   -0.2680 H   0  0  0  0  0  0  0  0  0  0  0  0
   -3.7230    2.5460   -0.4810 H   0  0  0  0  0  0  0  0  0  0  0  0
   -3.7000    2.9020    1.9040 H   0  0  0  0  0  0  0  0  0  0  0  0
   -1.4650    4.3340    1.8530 H   0  0  0  0  0  0  0  0  0  0  0  0
   -1.5030    3.8300    0.0770 H   0  0  0  0  0  0  0  0  0  0  0  0
   -2.8290    4.7240    0.8090 H   0  0  0  0  0  0  0  0  0  0  0  0
   -1.7150    2.5410    3.2380 H   0  0  0  0  0  0  0  0  0  0  0  0
   -0.9310    0.4050    1.3090 H   0  0  0  0  0  0  0  0  0  0  0  0
  1 11  1  0  0  0  0
  1  2  1  0  0  0  0
  2  3  2  0  0  0  0
  2  4  1  0  0  0  0
  4 12  1  0  0  0  0
  4  5  1  0  0  0  0
  5  6  1  0  0  0  0
  5 15  1  0  0  0  0
  6 16  1  1  0  0  0
  6  8  1  0  0  0  0
  7 18  1  0  0  0  0
  7  6  1  0  0  0  0
  8  9  2  0  0  0  0
 10  1  1  0  0  0  0
 13  4  1  0  0  0  0
 14  5  1  0  0  0  0
 17  7  1  0  0  0  0
 19 20  1  0  0  0  0
 19 25  1  0  0  0  0
 20 22  1  0  0  0  0
 20 27  1  1  0  0  0
 21  8  1  0  0  0  0
 21 20  1  0  0  0  0
 22 23  2  0  0  0  0
 24 19  1  0  0  0  0
 26 19  1  0  0  0  0
 28 21  1  0  0  0  0
 29 37  1  0  0  0  0
 29 30  1  0  0  0  0
 30 40  1  0  0  0  0
 30 32  1  0  0  0  0
 31 30  1  0  0  0  0
 31 41  1  0  0  0  0
 32 34  1  0  0  0  0
 32 44  1  1  0  0  0
 33 32  1  0  0  0  0
 33 22  1  0  0  0  0
 34 35  2  0  0  0  0
 34 36  1  0  0  0  0
 38 29  1  0  0  0  0
 39 29  1  0  0  0  0
 42 31  1  0  0  0  0
 43 31  1  0  0  0  0
 45 33  1  0  0  0  0
M  END
$$$$
