QAW.pdb
 OpenBabel07022418303D

 53 54  0  0  1  0  0  0  0  0999 V2000
    6.5930   -1.3890    6.3980 N   0  0  0  0  0  0  0  0  0  0  0  0
    5.7630   -1.8000    5.3000 C   0  0  0  0  0  0  0  0  0  0  0  0
    4.8010   -2.5430    5.5440 O   0  0  0  0  0  0  0  0  0  0  0  0
    6.0600   -1.3490    3.9370 C   0  0  0  0  0  0  0  0  0  0  0  0
    4.9760   -1.5520    2.9510 C   0  0  0  0  0  0  0  0  0  0  0  0
    3.6930   -0.8400    3.1820 C   0  0  2  0  0  0  0  0  0  0  0  0
    2.9820   -1.1140    4.3690 N   0  0  0  0  0  0  0  0  0  0  0  0
    2.8080   -1.0060    1.9990 C   0  0  0  0  0  0  0  0  0  0  0  0
    3.2670   -0.8000    0.8300 O   0  0  0  0  0  0  0  0  0  0  0  0
    6.2220   -1.2140    7.3560 H   0  0  0  0  0  0  0  0  0  0  0  0
    7.6150   -1.2550    6.2470 H   0  0  0  0  0  0  0  0  0  0  0  0
    6.4610   -0.2970    3.9260 H   0  0  0  0  0  0  0  0  0  0  0  0
    6.9670   -1.9510    3.6140 H   0  0  0  0  0  0  0  0  0  0  0  0
    4.8360   -2.6520    2.8020 H   0  0  0  0  0  0  0  0  0  0  0  0
    5.3580   -1.2070    1.9420 H   0  0  0  0  0  0  0  0  0  0  0  0
    3.9470    0.2600    3.2010 H   0  0  0  0  0  0  0  0  0  0  0  0
    2.3970   -1.9500    4.4120 H   0  0  0  0  0  0  0  0  0  0  0  0
    2.7220   -0.3210    4.9600 H   0  0  0  0  0  0  0  0  0  0  0  0
    0.1820   -2.9570    0.6530 C   0  0  0  0  0  0  0  0  0  0  0  0
    0.6390   -1.5250    0.8390 C   0  0  2  0  0  0  0  0  0  0  0  0
    1.4430   -1.3880    2.0670 N   0  0  0  0  0  0  0  0  0  0  0  0
   -0.5760   -0.7050    1.0370 C   0  0  0  0  0  0  0  0  0  0  0  0
   -0.7480   -0.0850    2.1150 O   0  0  0  0  0  0  0  0  0  0  0  0
   -0.6480   -3.1330    1.3650 H   0  0  0  0  0  0  0  0  0  0  0  0
   -0.1230   -3.0460   -0.4120 H   0  0  0  0  0  0  0  0  0  0  0  0
    0.9580   -3.6990    0.8570 H   0  0  0  0  0  0  0  0  0  0  0  0
    1.2340   -1.2570   -0.0460 H   0  0  0  0  0  0  0  0  0  0  0  0
    1.0150   -1.5690    3.0020 H   0  0  0  0  0  0  0  0  0  0  0  0
   -1.5950   -0.5650    0.0660 N   0  0  0  0  0  0  0  0  0  0  0  0
   -2.7900    0.2470    0.2720 C   0  0  1  0  0  0  0  0  0  0  0  0
   -2.8480    1.3830   -0.6820 C   0  0  0  0  0  0  0  0  0  0  0  0
   -2.8480    0.9990   -2.1050 C   0  0  0  0  0  0  0  0  0  0  0  0
   -1.6930    0.8740   -2.9000 C   0  0  0  0  0  0  0  0  0  0  0  0
   -2.0670    0.4630   -4.1030 N   0  0  0  0  0  0  0  0  0  0  0  0
   -3.4060    0.3050   -4.1680 C   0  0  0  0  0  0  0  0  0  0  0  0
   -4.2280   -0.0910   -5.2210 C   0  0  0  0  0  0  0  0  0  0  0  0
   -5.5970   -0.1610   -5.0510 C   0  0  0  0  0  0  0  0  0  0  0  0
   -6.0700    0.1790   -3.8030 C   0  0  0  0  0  0  0  0  0  0  0  0
   -5.2680    0.5700   -2.7580 C   0  0  0  0  0  0  0  0  0  0  0  0
   -3.8860    0.6410   -2.9240 C   0  0  0  0  0  0  0  0  0  0  0  0
   -3.9560   -0.6290    0.2010 C   0  0  0  0  0  0  0  0  0  0  0  0
   -5.1420   -0.2930    0.4700 O   0  0  0  0  0  0  0  0  0  0  0  0
   -3.8260   -1.9790   -0.1940 O   0  0  0  0  0  0  0  0  0  0  0  0
   -1.4670   -1.0720   -0.8320 H   0  0  0  0  0  0  0  0  0  0  0  0
   -2.7790    0.6980    1.2970 H   0  0  0  0  0  0  0  0  0  0  0  0
   -3.8220    1.9290   -0.5130 H   0  0  0  0  0  0  0  0  0  0  0  0
   -2.0710    2.1420   -0.4470 H   0  0  0  0  0  0  0  0  0  0  0  0
   -0.7090    1.0940   -2.5170 H   0  0  0  0  0  0  0  0  0  0  0  0
   -1.4010    0.2890   -4.8860 H   0  0  0  0  0  0  0  0  0  0  0  0
   -3.8230   -0.3510   -6.1890 H   0  0  0  0  0  0  0  0  0  0  0  0
   -6.2470   -0.4630   -5.8490 H   0  0  0  0  0  0  0  0  0  0  0  0
   -7.1530    0.1340   -3.6380 H   0  0  0  0  0  0  0  0  0  0  0  0
   -5.6700    0.8510   -1.8000 H   0  0  0  0  0  0  0  0  0  0  0  0
  1 10  1  0  0  0  0
  2  3  2  0  0  0  0
  2  1  1  0  0  0  0
  4  2  1  0  0  0  0
  5  6  1  0  0  0  0
  5  4  1  0  0  0  0
  6 16  1  1  0  0  0
  6  7  1  0  0  0  0
  7 17  1  0  0  0  0
  7 18  1  0  0  0  0
  8 21  1  0  0  0  0
  8  6  1  0  0  0  0
  9  8  2  0  0  0  0
 11  1  1  0  0  0  0
 12  4  1  0  0  0  0
 13  4  1  0  0  0  0
 14  5  1  0  0  0  0
 15  5  1  0  0  0  0
 19 20  1  0  0  0  0
 19 26  1  0  0  0  0
 19 24  1  0  0  0  0
 20 27  1  6  0  0  0
 20 22  1  0  0  0  0
 20 21  1  0  0  0  0
 21 28  1  0  0  0  0
 22 23  2  0  0  0  0
 25 19  1  0  0  0  0
 29 30  1  0  0  0  0
 29 22  1  0  0  0  0
 30 45  1  1  0  0  0
 31 46  1  0  0  0  0
 31 47  1  0  0  0  0
 31 30  1  0  0  0  0
 32 31  1  0  0  0  0
 33 48  1  0  0  0  0
 33 32  2  0  0  0  0
 34 33  1  0  0  0  0
 35 34  1  0  0  0  0
 35 40  1  0  0  0  0
 36 37  1  0  0  0  0
 36 35  2  0  0  0  0
 37 38  2  0  0  0  0
 38 52  1  0  0  0  0
 38 39  1  0  0  0  0
 39 53  1  0  0  0  0
 40 39  2  0  0  0  0
 40 32  1  0  0  0  0
 41 30  1  0  0  0  0
 41 42  1  0  0  0  0
 43 41  2  0  0  0  0
 44 29  1  0  0  0  0
 49 34  1  0  0  0  0
 50 36  1  0  0  0  0
 51 37  1  0  0  0  0
M  END
$$$$
