QCC.pdb
 OpenBabel07022418313D

 41 40  0  0  1  0  0  0  0  0999 V2000
    0.0850   -5.6930    0.1550 N   0  0  0  0  0  0  0  0  0  0  0  0
    0.3680   -4.3200    0.4230 C   0  0  0  0  0  0  0  0  0  0  0  0
   -0.0800   -3.7970    1.4610 O   0  0  0  0  0  0  0  0  0  0  0  0
    1.1940   -3.6030   -0.5820 C   0  0  0  0  0  0  0  0  0  0  0  0
    1.3570   -2.1820   -0.0900 C   0  0  0  0  0  0  0  0  0  0  0  0
    2.1990   -1.3590   -1.0630 C   0  0  2  0  0  0  0  0  0  0  0  0
    3.4930   -1.9220   -1.2130 N   0  0  0  0  0  0  0  0  0  0  0  0
    2.2120    0.0280   -0.5310 C   0  0  0  0  0  0  0  0  0  0  0  0
    3.3270    0.5500   -0.2710 O   0  0  0  0  0  0  0  0  0  0  0  0
   -0.7660   -5.9300   -0.3960 H   0  0  0  0  0  0  0  0  0  0  0  0
    0.7100   -6.4660    0.4990 H   0  0  0  0  0  0  0  0  0  0  0  0
    0.6600   -3.5500   -1.5610 H   0  0  0  0  0  0  0  0  0  0  0  0
    2.1720   -4.1200   -0.6580 H   0  0  0  0  0  0  0  0  0  0  0  0
    1.8160   -2.1730    0.9020 H   0  0  0  0  0  0  0  0  0  0  0  0
    0.3560   -1.7430   -0.0280 H   0  0  0  0  0  0  0  0  0  0  0  0
    1.6950   -1.4000   -2.0720 H   0  0  0  0  0  0  0  0  0  0  0  0
    3.7110   -2.7000   -0.5610 H   0  0  0  0  0  0  0  0  0  0  0  0
    3.8000   -2.0760   -2.1820 H   0  0  0  0  0  0  0  0  0  0  0  0
    1.0580    0.7940   -0.2990 N   0  0  0  0  0  0  0  0  0  0  0  0
    1.0350    2.1350    0.2140 C   0  0  1  0  0  0  0  0  0  0  0  0
    0.3830    3.1000   -0.7690 C   0  0  0  0  0  0  0  0  0  0  0  0
    1.3150    3.0980   -2.3290 S   0  0  0  0  0  0  0  0  0  0  0  0
    0.2510    2.1850    1.4740 C   0  0  0  0  0  0  0  0  0  0  0  0
    0.0910    3.2560    2.1120 O   0  0  0  0  0  0  0  0  0  0  0  0
    0.1340    0.3510   -0.5180 H   0  0  0  0  0  0  0  0  0  0  0  0
    2.0360    2.5420    0.4240 H   0  0  0  0  0  0  0  0  0  0  0  0
    0.4250    4.1370   -0.3810 H   0  0  0  0  0  0  0  0  0  0  0  0
   -0.6600    2.8100   -0.9800 H   0  0  0  0  0  0  0  0  0  0  0  0
    0.7200    2.2100   -3.2420 H   0  0  0  0  0  0  0  0  0  0  0  0
   -0.3370    1.0030    1.9790 N   0  0  0  0  0  0  0  0  0  0  0  0
   -1.1140    0.9530    3.1920 C   0  0  1  0  0  0  0  0  0  0  0  0
   -2.5330    0.5110    2.9150 C   0  0  0  0  0  0  0  0  0  0  0  0
   -2.6450   -1.1160    2.1770 S   0  0  0  0  0  0  0  0  0  0  0  0
   -0.4270    0.0370    4.1360 C   0  0  0  0  0  0  0  0  0  0  0  0
    0.6420   -0.5410    3.8250 O   0  0  0  0  0  0  0  0  0  0  0  0
   -0.9910   -0.1700    5.3760 O   0  0  0  0  0  0  0  0  0  0  0  0
   -0.2250    0.0770    1.4690 H   0  0  0  0  0  0  0  0  0  0  0  0
   -1.1660    1.9610    3.6510 H   0  0  0  0  0  0  0  0  0  0  0  0
   -2.9770    1.2460    2.2220 H   0  0  0  0  0  0  0  0  0  0  0  0
   -3.0860    0.5870    3.8660 H   0  0  0  0  0  0  0  0  0  0  0  0
   -1.5490   -1.4730    1.4030 H   0  0  0  0  0  0  0  0  0  0  0  0
  1  2  1  0  0  0  0
  1 11  1  0  0  0  0
  2  3  2  0  0  0  0
  4  5  1  0  0  0  0
  4  2  1  0  0  0  0
  5 15  1  0  0  0  0
  5 14  1  0  0  0  0
  6 16  1  6  0  0  0
  6  8  1  0  0  0  0
  6  5  1  0  0  0  0
  7  6  1  0  0  0  0
  7 17  1  0  0  0  0
  8 19  1  0  0  0  0
  8  9  2  0  0  0  0
 10  1  1  0  0  0  0
 12  4  1  0  0  0  0
 13  4  1  0  0  0  0
 18  7  1  0  0  0  0
 19 20  1  0  0  0  0
 20 26  1  1  0  0  0
 20 23  1  0  0  0  0
 21 27  1  0  0  0  0
 21 20  1  0  0  0  0
 22 21  1  0  0  0  0
 23 30  1  0  0  0  0
 23 24  2  0  0  0  0
 25 19  1  0  0  0  0
 28 21  1  0  0  0  0
 29 22  1  0  0  0  0
 30 31  1  0  0  0  0
 31 38  1  1  0  0  0
 31 34  1  0  0  0  0
 32 31  1  0  0  0  0
 32 40  1  0  0  0  0
 33 32  1  0  0  0  0
 34 36  1  0  0  0  0
 35 34  2  0  0  0  0
 37 30  1  0  0  0  0
 39 32  1  0  0  0  0
 41 33  1  0  0  0  0
M  END
$$$$
