QCD.pdb
 OpenBabel07022418313D

 43 42  0  0  1  0  0  0  0  0999 V2000
    0.2810   -4.1800    3.0070 N   0  0  0  0  0  0  0  0  0  0  0  0
    0.2240   -3.8440    1.6240 C   0  0  0  0  0  0  0  0  0  0  0  0
   -0.8460   -4.1030    1.0150 O   0  0  0  0  0  0  0  0  0  0  0  0
    1.3990   -3.2200    0.9750 C   0  0  0  0  0  0  0  0  0  0  0  0
    1.0690   -2.9710   -0.4790 C   0  0  0  0  0  0  0  0  0  0  0  0
    2.2130   -2.3340   -1.2220 C   0  0  2  0  0  0  0  0  0  0  0  0
    3.3910   -3.1600   -1.1970 N   0  0  0  0  0  0  0  0  0  0  0  0
    2.5070   -0.9600   -0.7470 C   0  0  0  0  0  0  0  0  0  0  0  0
    3.6690   -0.6880   -0.4000 O   0  0  0  0  0  0  0  0  0  0  0  0
   -0.4480   -3.8740    3.6910 H   0  0  0  0  0  0  0  0  0  0  0  0
    1.0790   -4.7560    3.3620 H   0  0  0  0  0  0  0  0  0  0  0  0
    2.2440   -3.9270    1.0490 H   0  0  0  0  0  0  0  0  0  0  0  0
    1.6720   -2.3080    1.5240 H   0  0  0  0  0  0  0  0  0  0  0  0
    0.8850   -3.9620   -0.9410 H   0  0  0  0  0  0  0  0  0  0  0  0
    0.1690   -2.3710   -0.6020 H   0  0  0  0  0  0  0  0  0  0  0  0
    1.8900   -2.2360   -2.2830 H   0  0  0  0  0  0  0  0  0  0  0  0
    4.0370   -2.7820   -1.9470 H   0  0  0  0  0  0  0  0  0  0  0  0
    3.1120   -4.1110   -1.5300 H   0  0  0  0  0  0  0  0  0  0  0  0
    1.5220    0.0480   -0.6730 N   0  0  0  0  0  0  0  0  0  0  0  0
    1.7310    1.3830   -0.2300 C   0  0  1  0  0  0  0  0  0  0  0  0
    1.4370    2.3890   -1.3420 C   0  0  0  0  0  0  0  0  0  0  0  0
    1.7060    4.0830   -0.7660 S   0  0  0  0  0  0  0  0  0  0  0  0
    0.7950    1.7340    0.8960 C   0  0  0  0  0  0  0  0  0  0  0  0
    0.8280    2.8670    1.4180 O   0  0  0  0  0  0  0  0  0  0  0  0
    0.5540   -0.2360   -0.9790 H   0  0  0  0  0  0  0  0  0  0  0  0
    2.7870    1.5570    0.0620 H   0  0  0  0  0  0  0  0  0  0  0  0
    2.1180    2.2380   -2.2050 H   0  0  0  0  0  0  0  0  0  0  0  0
    0.3660    2.3060   -1.6190 H   0  0  0  0  0  0  0  0  0  0  0  0
    0.8470    5.0010   -1.4020 H   0  0  0  0  0  0  0  0  0  0  0  0
   -0.1490    0.7940    1.3980 N   0  0  0  0  0  0  0  0  0  0  0  0
   -1.0720    1.0910    2.4810 C   0  0  1  0  0  0  0  0  0  0  0  0
   -2.4900    0.8760    2.0160 C   0  0  0  0  0  0  0  0  0  0  0  0
   -2.8350    1.7490    0.8640 C   0  0  0  0  0  0  0  0  0  0  0  0
   -2.0500    2.5680    0.3370 O   0  0  0  0  0  0  0  0  0  0  0  0
   -0.8250    0.2450    3.6640 C   0  0  0  0  0  0  0  0  0  0  0  0
    0.0730   -0.6100    3.6940 O   0  0  0  0  0  0  0  0  0  0  0  0
   -4.1150    1.6990    0.2820 O   0  0  0  0  0  0  0  0  0  0  0  0
   -1.6320    0.4190    4.7730 O   0  0  0  0  0  0  0  0  0  0  0  0
   -0.1430   -0.1410    0.9350 H   0  0  0  0  0  0  0  0  0  0  0  0
   -0.9790    2.1380    2.8250 H   0  0  0  0  0  0  0  0  0  0  0  0
   -3.2100    1.1050    2.8250 H   0  0  0  0  0  0  0  0  0  0  0  0
   -2.6780   -0.1910    1.7410 H   0  0  0  0  0  0  0  0  0  0  0  0
   -4.2530    2.0160   -0.6840 H   0  0  0  0  0  0  0  0  0  0  0  0
  1 11  1  0  0  0  0
  1 10  1  0  0  0  0
  2  1  1  0  0  0  0
  3  2  2  0  0  0  0
  4 12  1  0  0  0  0
  4 13  1  0  0  0  0
  4  2  1  0  0  0  0
  5  4  1  0  0  0  0
  6 16  1  6  0  0  0
  6  7  1  0  0  0  0
  6  8  1  0  0  0  0
  6  5  1  0  0  0  0
  8 19  1  0  0  0  0
  8  9  2  0  0  0  0
 14  5  1  0  0  0  0
 15  5  1  0  0  0  0
 17  7  1  0  0  0  0
 18  7  1  0  0  0  0
 19 20  1  0  0  0  0
 20 26  1  1  0  0  0
 20 23  1  0  0  0  0
 21 22  1  0  0  0  0
 21 20  1  0  0  0  0
 23 30  1  0  0  0  0
 23 24  2  0  0  0  0
 25 19  1  0  0  0  0
 27 21  1  0  0  0  0
 28 21  1  0  0  0  0
 29 22  1  0  0  0  0
 30 31  1  0  0  0  0
 31 40  1  1  0  0  0
 31 35  1  0  0  0  0
 32 31  1  0  0  0  0
 32 41  1  0  0  0  0
 33 32  1  0  0  0  0
 34 33  2  0  0  0  0
 35 36  2  0  0  0  0
 35 38  1  0  0  0  0
 37 33  1  0  0  0  0
 39 30  1  0  0  0  0
 42 32  1  0  0  0  0
 43 37  1  0  0  0  0
M  END
$$$$
