QCG.pdb
 OpenBabel07022418313D

 37 36  0  0  1  0  0  0  0  0999 V2000
    1.4530   -2.9840    4.1830 N   0  0  0  0  0  0  0  0  0  0  0  0
    0.9000   -3.2280    2.9090 C   0  0  0  0  0  0  0  0  0  0  0  0
   -0.1800   -3.8720    2.8520 O   0  0  0  0  0  0  0  0  0  0  0  0
    1.5980   -2.7270    1.6950 C   0  0  0  0  0  0  0  0  0  0  0  0
    0.7880   -3.1290    0.4920 C   0  0  0  0  0  0  0  0  0  0  0  0
    1.4210   -2.6620   -0.7970 C   0  0  2  0  0  0  0  0  0  0  0  0
    2.7420   -3.2060   -0.9870 N   0  0  0  0  0  0  0  0  0  0  0  0
    1.4030   -1.1850   -0.9220 C   0  0  0  0  0  0  0  0  0  0  0  0
    2.4770   -0.5800   -1.1670 O   0  0  0  0  0  0  0  0  0  0  0  0
    2.4740   -3.0310    4.3210 H   0  0  0  0  0  0  0  0  0  0  0  0
    0.8360   -2.7590    4.9770 H   0  0  0  0  0  0  0  0  0  0  0  0
    1.6720   -1.6140    1.7650 H   0  0  0  0  0  0  0  0  0  0  0  0
    2.6130   -3.2060    1.7060 H   0  0  0  0  0  0  0  0  0  0  0  0
   -0.2240   -2.7410    0.6220 H   0  0  0  0  0  0  0  0  0  0  0  0
    0.7180   -4.2350    0.4790 H   0  0  0  0  0  0  0  0  0  0  0  0
    0.7860   -3.0630   -1.6270 H   0  0  0  0  0  0  0  0  0  0  0  0
    3.3740   -3.0860   -0.1830 H   0  0  0  0  0  0  0  0  0  0  0  0
    3.1810   -2.6560   -1.7840 H   0  0  0  0  0  0  0  0  0  0  0  0
    0.2270   -0.4050   -0.7790 N   0  0  0  0  0  0  0  0  0  0  0  0
    0.2510    1.0550   -0.9100 C   0  0  1  0  0  0  0  0  0  0  0  0
   -0.7060    1.3950   -2.0320 C   0  0  0  0  0  0  0  0  0  0  0  0
   -0.7910    3.1770   -2.3210 S   0  0  0  0  0  0  0  0  0  0  0  0
   -0.3180    1.6790    0.3380 C   0  0  0  0  0  0  0  0  0  0  0  0
   -0.4040    2.9260    0.4620 O   0  0  0  0  0  0  0  0  0  0  0  0
   -0.6650   -0.9070   -0.5760 H   0  0  0  0  0  0  0  0  0  0  0  0
    1.2520    1.4260   -1.1230 H   0  0  0  0  0  0  0  0  0  0  0  0
   -0.3630    0.9070   -2.9650 H   0  0  0  0  0  0  0  0  0  0  0  0
   -1.7090    1.0140   -1.7430 H   0  0  0  0  0  0  0  0  0  0  0  0
    0.4930    3.7270   -2.4270 H   0  0  0  0  0  0  0  0  0  0  0  0
   -0.7810    0.8910    1.4240 N   0  0  0  0  0  0  0  0  0  0  0  0
   -1.3180    1.5100    2.5990 C   0  0  0  0  0  0  0  0  0  0  0  0
   -2.5150    2.3510    2.3010 C   0  0  0  0  0  0  0  0  0  0  0  0
   -2.9100    2.4270    1.1090 O   0  0  0  0  0  0  0  0  0  0  0  0
   -3.1700    3.0240    3.2880 O   0  0  0  0  0  0  0  0  0  0  0  0
   -0.7100   -0.1610    1.3210 H   0  0  0  0  0  0  0  0  0  0  0  0
   -1.6660    0.7060    3.2790 H   0  0  0  0  0  0  0  0  0  0  0  0
   -0.5930    2.1520    3.1410 H   0  0  0  0  0  0  0  0  0  0  0  0
  1 10  1  0  0  0  0
  1 11  1  0  0  0  0
  2  1  1  0  0  0  0
  3  2  2  0  0  0  0
  4 13  1  0  0  0  0
  4 12  1  0  0  0  0
  4  2  1  0  0  0  0
  5 14  1  0  0  0  0
  5  4  1  0  0  0  0
  6 16  1  6  0  0  0
  6  5  1  0  0  0  0
  7  6  1  0  0  0  0
  7 17  1  0  0  0  0
  8  6  1  0  0  0  0
  8 19  1  0  0  0  0
  9  8  2  0  0  0  0
 15  5  1  0  0  0  0
 18  7  1  0  0  0  0
 19 25  1  0  0  0  0
 20 26  1  6  0  0  0
 20 19  1  0  0  0  0
 20 23  1  0  0  0  0
 21 28  1  0  0  0  0
 21 20  1  0  0  0  0
 22 21  1  0  0  0  0
 23 24  2  0  0  0  0
 23 30  1  0  0  0  0
 27 21  1  0  0  0  0
 29 22  1  0  0  0  0
 30 31  1  0  0  0  0
 31 37  1  0  0  0  0
 31 36  1  0  0  0  0
 32 31  1  0  0  0  0
 32 34  1  0  0  0  0
 33 32  2  0  0  0  0
 35 30  1  0  0  0  0
M  END
$$$$
