QCH.pdb
 OpenBabel07022418313D

 47 47  0  0  1  0  0  0  0  0999 V2000
    1.6250   -4.1200    2.8630 N   0  0  0  0  0  0  0  0  0  0  0  0
    1.9700   -2.8720    3.4500 C   0  0  0  0  0  0  0  0  0  0  0  0
    2.0770   -2.8200    4.6900 O   0  0  0  0  0  0  0  0  0  0  0  0
    2.1920   -1.6710    2.5550 C   0  0  0  0  0  0  0  0  0  0  0  0
    2.5310   -0.5450    3.4580 C   0  0  0  0  0  0  0  0  0  0  0  0
    2.8250    0.7730    2.8050 C   0  0  2  0  0  0  0  0  0  0  0  0
    3.1150    1.6840    3.9510 N   0  0  0  0  0  0  0  0  0  0  0  0
    1.6580    1.3270    2.1060 C   0  0  0  0  0  0  0  0  0  0  0  0
    0.8580    2.1510    2.6670 O   0  0  0  0  0  0  0  0  0  0  0  0
    0.9220   -4.1980    2.1110 H   0  0  0  0  0  0  0  0  0  0  0  0
    2.1260   -4.9610    3.2380 H   0  0  0  0  0  0  0  0  0  0  0  0
    2.9450   -1.9070    1.7890 H   0  0  0  0  0  0  0  0  0  0  0  0
    1.1680   -1.5410    2.0820 H   0  0  0  0  0  0  0  0  0  0  0  0
    3.3500   -0.8770    4.1350 H   0  0  0  0  0  0  0  0  0  0  0  0
    1.6500   -0.3990    4.1460 H   0  0  0  0  0  0  0  0  0  0  0  0
    3.7530    0.7760    2.2160 H   0  0  0  0  0  0  0  0  0  0  0  0
    2.2760    1.6080    4.5830 H   0  0  0  0  0  0  0  0  0  0  0  0
    3.2230    2.6360    3.5450 H   0  0  0  0  0  0  0  0  0  0  0  0
    1.3710    0.9630    0.7430 N   0  0  0  0  0  0  0  0  0  0  0  0
    0.2340    1.5170    0.0730 C   0  0  1  0  0  0  0  0  0  0  0  0
    0.6640    2.5500   -0.9720 C   0  0  0  0  0  0  0  0  0  0  0  0
   -0.7980    3.2160   -1.7860 S   0  0  0  0  0  0  0  0  0  0  0  0
   -0.5780    0.4560   -0.5670 C   0  0  0  0  0  0  0  0  0  0  0  0
   -1.6870    0.7720   -1.1300 O   0  0  0  0  0  0  0  0  0  0  0  0
    2.0210    0.3030    0.2800 H   0  0  0  0  0  0  0  0  0  0  0  0
   -0.4010    2.0590    0.8160 H   0  0  0  0  0  0  0  0  0  0  0  0
    1.3530    2.0750   -1.6990 H   0  0  0  0  0  0  0  0  0  0  0  0
    1.2120    3.3660   -0.4630 H   0  0  0  0  0  0  0  0  0  0  0  0
   -0.5580    4.4080   -2.4530 H   0  0  0  0  0  0  0  0  0  0  0  0
   -0.2120   -0.9040   -0.6050 N   0  0  0  0  0  0  0  0  0  0  0  0
   -0.9160   -2.0040   -1.1570 C   0  0  1  0  0  0  0  0  0  0  0  0
   -2.3040   -1.7320   -1.6940 C   0  0  0  0  0  0  0  0  0  0  0  0
   -3.2550   -1.3150   -0.6330 C   0  0  0  0  0  0  0  0  0  0  0  0
   -4.5630   -0.9580   -0.7580 C   0  0  0  0  0  0  0  0  0  0  0  0
   -5.0230   -0.6570    0.4860 N   0  0  0  0  0  0  0  0  0  0  0  0
   -4.0220   -0.8230    1.3690 C   0  0  0  0  0  0  0  0  0  0  0  0
   -2.9510   -1.2250    0.6660 N   0  0  0  0  0  0  0  0  0  0  0  0
   -0.1760   -2.9420   -1.9820 C   0  0  0  0  0  0  0  0  0  0  0  0
   -0.8210   -3.9190   -2.4670 O   0  0  0  0  0  0  0  0  0  0  0  0
    1.1780   -2.8480   -2.2770 O   0  0  0  0  0  0  0  0  0  0  0  0
    0.7470   -1.1270   -0.1560 H   0  0  0  0  0  0  0  0  0  0  0  0
   -1.2180   -2.6090   -0.1870 H   0  0  0  0  0  0  0  0  0  0  0  0
   -2.3420   -0.9990   -2.4970 H   0  0  0  0  0  0  0  0  0  0  0  0
   -2.7100   -2.7100   -2.0840 H   0  0  0  0  0  0  0  0  0  0  0  0
   -5.1290   -0.9240   -1.6920 H   0  0  0  0  0  0  0  0  0  0  0  0
   -5.9920   -0.3520    0.6910 H   0  0  0  0  0  0  0  0  0  0  0  0
   -4.1110   -0.6520    2.4360 H   0  0  0  0  0  0  0  0  0  0  0  0
  1 11  1  0  0  0  0
  1  2  1  0  0  0  0
  2  3  2  0  0  0  0
  4  2  1  0  0  0  0
  4  5  1  0  0  0  0
  5 14  1  0  0  0  0
  5 15  1  0  0  0  0
  6 16  1  6  0  0  0
  6  5  1  0  0  0  0
  6  7  1  0  0  0  0
  7 17  1  0  0  0  0
  8  9  2  0  0  0  0
  8  6  1  0  0  0  0
 10  1  1  0  0  0  0
 12  4  1  0  0  0  0
 13  4  1  0  0  0  0
 18  7  1  0  0  0  0
 19  8  1  0  0  0  0
 20 19  1  0  0  0  0
 20 26  1  1  0  0  0
 21 28  1  0  0  0  0
 21 20  1  0  0  0  0
 22 21  1  0  0  0  0
 23 20  1  0  0  0  0
 24 23  2  0  0  0  0
 25 19  1  0  0  0  0
 27 21  1  0  0  0  0
 29 22  1  0  0  0  0
 30 23  1  0  0  0  0
 30 41  1  0  0  0  0
 31 30  1  0  0  0  0
 31 42  1  1  0  0  0
 32 31  1  0  0  0  0
 32 33  1  0  0  0  0
 33 37  1  0  0  0  0
 34 33  2  0  0  0  0
 34 35  1  0  0  0  0
 35 46  1  0  0  0  0
 35 36  1  0  0  0  0
 36 47  1  0  0  0  0
 37 36  2  0  0  0  0
 38 31  1  0  0  0  0
 39 38  2  0  0  0  0
 40 38  1  0  0  0  0
 43 32  1  0  0  0  0
 44 32  1  0  0  0  0
 45 34  1  0  0  0  0
M  END
$$$$
