QCI.pdb
 OpenBabel07022418313D

 49 48  0  0  1  0  0  0  0  0999 V2000
   -6.5410   -2.3700    2.1910 N   0  0  0  0  0  0  0  0  0  0  0  0
   -5.2660   -1.8620    1.8420 C   0  0  0  0  0  0  0  0  0  0  0  0
   -4.4750   -2.6240    1.2360 O   0  0  0  0  0  0  0  0  0  0  0  0
   -4.9480   -0.4620    2.2160 C   0  0  0  0  0  0  0  0  0  0  0  0
   -3.5610   -0.1620    1.7440 C   0  0  0  0  0  0  0  0  0  0  0  0
   -3.1100    1.2400    2.0630 C   0  0  2  0  0  0  0  0  0  0  0  0
   -3.9510    2.2460    1.4630 N   0  0  0  0  0  0  0  0  0  0  0  0
   -1.7400    1.4050    1.5050 C   0  0  0  0  0  0  0  0  0  0  0  0
   -1.4640    2.2970    0.6620 O   0  0  0  0  0  0  0  0  0  0  0  0
   -6.9250   -2.1480    3.1210 H   0  0  0  0  0  0  0  0  0  0  0  0
   -7.0760   -2.9550    1.5190 H   0  0  0  0  0  0  0  0  0  0  0  0
   -5.0680   -0.2860    3.3040 H   0  0  0  0  0  0  0  0  0  0  0  0
   -5.7130    0.1790    1.7090 H   0  0  0  0  0  0  0  0  0  0  0  0
   -3.5200   -0.3440    0.6510 H   0  0  0  0  0  0  0  0  0  0  0  0
   -2.8700   -0.8580    2.2630 H   0  0  0  0  0  0  0  0  0  0  0  0
   -3.0460    1.4230    3.1370 H   0  0  0  0  0  0  0  0  0  0  0  0
   -4.5410    1.9080    0.6950 H   0  0  0  0  0  0  0  0  0  0  0  0
   -3.3730    3.0410    1.0620 H   0  0  0  0  0  0  0  0  0  0  0  0
   -0.6630    0.5370    1.9160 N   0  0  0  0  0  0  0  0  0  0  0  0
    0.6720    0.6910    1.3780 C   0  0  1  0  0  0  0  0  0  0  0  0
    1.5850    1.0120    2.5440 C   0  0  0  0  0  0  0  0  0  0  0  0
    1.0810    2.5300    3.3740 S   0  0  0  0  0  0  0  0  0  0  0  0
    1.0780   -0.6010    0.7910 C   0  0  0  0  0  0  0  0  0  0  0  0
    0.2740   -1.5590    0.8420 O   0  0  0  0  0  0  0  0  0  0  0  0
   -0.9250   -0.1840    2.6100 H   0  0  0  0  0  0  0  0  0  0  0  0
    0.7240    1.5260    0.6520 H   0  0  0  0  0  0  0  0  0  0  0  0
    2.6430    1.0760    2.2580 H   0  0  0  0  0  0  0  0  0  0  0  0
    1.5100    0.1860    3.2990 H   0  0  0  0  0  0  0  0  0  0  0  0
   -0.2900    2.5160    3.6220 H   0  0  0  0  0  0  0  0  0  0  0  0
    5.3970   -1.2820   -1.7550 C   0  0  0  0  0  0  0  0  0  0  0  0
    4.0400   -1.0930   -2.3610 C   0  0  0  0  0  0  0  0  0  0  0  0
    3.0080   -2.0280   -1.8660 C   0  0  2  0  0  0  0  0  0  0  0  0
    1.7040   -1.6710   -2.6210 C   0  0  0  0  0  0  0  0  0  0  0  0
    2.7450   -2.0750   -0.4080 C   0  0  2  0  0  0  0  0  0  0  0  0
    2.3350   -0.8300    0.1660 N   0  0  0  0  0  0  0  0  0  0  0  0
    3.8770   -2.6670    0.3230 C   0  0  0  0  0  0  0  0  0  0  0  0
    4.4120   -3.7630   -0.0100 O   0  0  0  0  0  0  0  0  0  0  0  0
    4.4620   -2.0690    1.4550 O   0  0  0  0  0  0  0  0  0  0  0  0
    5.4720   -0.8680   -0.7350 H   0  0  0  0  0  0  0  0  0  0  0  0
    6.1760   -0.6810   -2.3340 H   0  0  0  0  0  0  0  0  0  0  0  0
    5.7320   -2.3220   -1.8730 H   0  0  0  0  0  0  0  0  0  0  0  0
    3.7210   -0.0250   -2.3630 H   0  0  0  0  0  0  0  0  0  0  0  0
    4.1710   -1.3210   -3.4650 H   0  0  0  0  0  0  0  0  0  0  0  0
    3.2610   -3.0450   -2.2890 H   0  0  0  0  0  0  0  0  0  0  0  0
    0.9740   -2.4760   -2.5490 H   0  0  0  0  0  0  0  0  0  0  0  0
    2.0110   -1.5040   -3.6610 H   0  0  0  0  0  0  0  0  0  0  0  0
    1.2670   -0.7550   -2.2240 H   0  0  0  0  0  0  0  0  0  0  0  0
    1.9130   -2.8570   -0.2890 H   0  0  0  0  0  0  0  0  0  0  0  0
    2.9860   -0.0150    0.1370 H   0  0  0  0  0  0  0  0  0  0  0  0
  1 10  1  0  0  0  0
  2  1  1  0  0  0  0
  2  4  1  0  0  0  0
  3  2  2  0  0  0  0
  4 12  1  0  0  0  0
  5  6  1  0  0  0  0
  5  4  1  0  0  0  0
  5 15  1  0  0  0  0
  6 16  1  1  0  0  0
  7  6  1  0  0  0  0
  8 19  1  0  0  0  0
  8  6  1  0  0  0  0
  9  8  2  0  0  0  0
 11  1  1  0  0  0  0
 13  4  1  0  0  0  0
 14  5  1  0  0  0  0
 17  7  1  0  0  0  0
 18  7  1  0  0  0  0
 19 25  1  0  0  0  0
 20 26  1  6  0  0  0
 20 19  1  0  0  0  0
 20 21  1  0  0  0  0
 21 28  1  0  0  0  0
 21 22  1  0  0  0  0
 22 29  1  0  0  0  0
 23 24  2  0  0  0  0
 23 20  1  0  0  0  0
 27 21  1  0  0  0  0
 30 39  1  0  0  0  0
 31 32  1  0  0  0  0
 31 30  1  0  0  0  0
 32 44  1  6  0  0  0
 32 34  1  0  0  0  0
 33 45  1  0  0  0  0
 33 47  1  0  0  0  0
 33 32  1  0  0  0  0
 34 48  1  1  0  0  0
 34 35  1  0  0  0  0
 34 36  1  0  0  0  0
 35 23  1  0  0  0  0
 36 38  1  0  0  0  0
 37 36  2  0  0  0  0
 40 30  1  0  0  0  0
 41 30  1  0  0  0  0
 42 31  1  0  0  0  0
 43 31  1  0  0  0  0
 46 33  1  0  0  0  0
 49 35  1  0  0  0  0
M  END
$$$$
