QCK.pdb
 OpenBabel07022418313D

 51 50  0  0  1  0  0  0  0  0999 V2000
    3.4950    3.4900   -2.8420 N   0  0  0  0  0  0  0  0  0  0  0  0
    2.2100    3.5550   -2.2000 C   0  0  0  0  0  0  0  0  0  0  0  0
    1.4830    2.5440   -2.3320 O   0  0  0  0  0  0  0  0  0  0  0  0
    1.7660    4.7100   -1.4470 C   0  0  0  0  0  0  0  0  0  0  0  0
    0.6140    4.5960   -0.5340 C   0  0  0  0  0  0  0  0  0  0  0  0
    0.7330    3.6580    0.6230 C   0  0  2  0  0  0  0  0  0  0  0  0
    1.8320    3.9480    1.4780 N   0  0  0  0  0  0  0  0  0  0  0  0
    0.4620    2.2480    0.3500 C   0  0  0  0  0  0  0  0  0  0  0  0
   -0.5670    1.9450   -0.3030 O   0  0  0  0  0  0  0  0  0  0  0  0
    3.6190    3.2410   -3.8430 H   0  0  0  0  0  0  0  0  0  0  0  0
    4.3510    3.7000   -2.2900 H   0  0  0  0  0  0  0  0  0  0  0  0
    2.6550    5.1460   -0.8730 H   0  0  0  0  0  0  0  0  0  0  0  0
    1.5890    5.5350   -2.2140 H   0  0  0  0  0  0  0  0  0  0  0  0
    0.4710    5.6280   -0.0710 H   0  0  0  0  0  0  0  0  0  0  0  0
   -0.3440    4.4480   -1.0980 H   0  0  0  0  0  0  0  0  0  0  0  0
   -0.1870    3.9590    1.2900 H   0  0  0  0  0  0  0  0  0  0  0  0
    1.6370    4.1040    2.4560 H   0  0  0  0  0  0  0  0  0  0  0  0
    2.6620    4.3390    1.0620 H   0  0  0  0  0  0  0  0  0  0  0  0
    1.3000    1.1850    0.7850 N   0  0  0  0  0  0  0  0  0  0  0  0
    0.9640   -0.1920    0.4850 C   0  0  1  0  0  0  0  0  0  0  0  0
    2.0930   -1.0210   -0.0110 C   0  0  0  0  0  0  0  0  0  0  0  0
    2.7870   -0.3720   -1.5200 S   0  0  0  0  0  0  0  0  0  0  0  0
    0.3210   -0.8330    1.6880 C   0  0  0  0  0  0  0  0  0  0  0  0
    0.1710   -0.1500    2.7170 O   0  0  0  0  0  0  0  0  0  0  0  0
    2.1680    1.4310    1.3300 H   0  0  0  0  0  0  0  0  0  0  0  0
    0.1470   -0.1920   -0.2770 H   0  0  0  0  0  0  0  0  0  0  0  0
    1.6660   -2.0370   -0.2500 H   0  0  0  0  0  0  0  0  0  0  0  0
    2.8640   -1.2300    0.7670 H   0  0  0  0  0  0  0  0  0  0  0  0
    4.0740    0.1340   -1.3700 H   0  0  0  0  0  0  0  0  0  0  0  0
   -0.1040   -2.1740    1.6560 N   0  0  0  0  0  0  0  0  0  0  0  0
   -0.7280   -2.8430    2.7800 C   0  0  1  0  0  0  0  0  0  0  0  0
   -2.1450   -3.2530    2.4770 C   0  0  0  0  0  0  0  0  0  0  0  0
   -2.2420   -4.2000    1.3130 C   0  0  0  0  0  0  0  0  0  0  0  0
   -3.7040   -4.5370    1.1080 C   0  0  0  0  0  0  0  0  0  0  0  0
   -3.8670   -5.4960   -0.0620 C   0  0  0  0  0  0  0  0  0  0  0  0
   -3.1350   -6.7120    0.2120 N   0  0  0  0  0  0  0  0  0  0  0  0
    0.1080   -3.9450    3.2620 C   0  0  0  0  0  0  0  0  0  0  0  0
    1.1980   -4.1780    2.6920 O   0  0  0  0  0  0  0  0  0  0  0  0
   -0.2500   -4.7510    4.3270 O   0  0  0  0  0  0  0  0  0  0  0  0
    0.0400   -2.7250    0.7610 H   0  0  0  0  0  0  0  0  0  0  0  0
   -0.7830   -2.0860    3.6000 H   0  0  0  0  0  0  0  0  0  0  0  0
   -2.7100   -2.3440    2.2180 H   0  0  0  0  0  0  0  0  0  0  0  0
   -2.5930   -3.7380    3.3560 H   0  0  0  0  0  0  0  0  0  0  0  0
   -1.8630   -3.7900    0.3760 H   0  0  0  0  0  0  0  0  0  0  0  0
   -1.7170   -5.1580    1.4920 H   0  0  0  0  0  0  0  0  0  0  0  0
   -4.1420   -4.9800    2.0190 H   0  0  0  0  0  0  0  0  0  0  0  0
   -4.2960   -3.6150    0.8890 H   0  0  0  0  0  0  0  0  0  0  0  0
   -4.9370   -5.7610   -0.1580 H   0  0  0  0  0  0  0  0  0  0  0  0
   -3.4950   -5.0240   -0.9750 H   0  0  0  0  0  0  0  0  0  0  0  0
   -3.2960   -7.4120   -0.5210 H   0  0  0  0  0  0  0  0  0  0  0  0
   -3.2320   -7.0500    1.1770 H   0  0  0  0  0  0  0  0  0  0  0  0
  1 11  1  0  0  0  0
  1  2  1  0  0  0  0
  2  4  1  0  0  0  0
  3  2  2  0  0  0  0
  4 12  1  0  0  0  0
  4  5  1  0  0  0  0
  5 14  1  0  0  0  0
  5  6  1  0  0  0  0
  6 16  1  1  0  0  0
  6  7  1  0  0  0  0
  7 17  1  0  0  0  0
  8  6  1  0  0  0  0
  8 19  1  0  0  0  0
  9  8  2  0  0  0  0
 10  1  1  0  0  0  0
 13  4  1  0  0  0  0
 15  5  1  0  0  0  0
 18  7  1  0  0  0  0
 19 25  1  0  0  0  0
 20 26  1  6  0  0  0
 20 19  1  0  0  0  0
 20 23  1  0  0  0  0
 21 20  1  0  0  0  0
 21 28  1  0  0  0  0
 22 29  1  0  0  0  0
 22 21  1  0  0  0  0
 23 24  2  0  0  0  0
 27 21  1  0  0  0  0
 30 23  1  0  0  0  0
 30 31  1  0  0  0  0
 31 37  1  0  0  0  0
 31 41  1  1  0  0  0
 32 31  1  0  0  0  0
 32 43  1  0  0  0  0
 33 45  1  0  0  0  0
 33 32  1  0  0  0  0
 34 33  1  0  0  0  0
 34 46  1  0  0  0  0
 35 36  1  0  0  0  0
 35 34  1  0  0  0  0
 36 51  1  0  0  0  0
 37 39  1  0  0  0  0
 38 37  2  0  0  0  0
 40 30  1  0  0  0  0
 42 32  1  0  0  0  0
 44 33  1  0  0  0  0
 47 34  1  0  0  0  0
 48 35  1  0  0  0  0
 49 35  1  0  0  0  0
 50 36  1  0  0  0  0
M  END
$$$$
