QCM.pdb
 OpenBabel07022418313D

 47 46  0  0  1  0  0  0  0  0999 V2000
    1.1260   -6.0610   -0.2610 N   0  0  0  0  0  0  0  0  0  0  0  0
    0.8700   -4.6720   -0.2510 C   0  0  0  0  0  0  0  0  0  0  0  0
    0.0200   -4.2340   -1.0540 O   0  0  0  0  0  0  0  0  0  0  0  0
    1.5730   -3.7880    0.6660 C   0  0  0  0  0  0  0  0  0  0  0  0
    1.3690   -2.3190    0.4470 C   0  0  0  0  0  0  0  0  0  0  0  0
    1.8780   -1.9400   -0.9170 C   0  0  2  0  0  0  0  0  0  0  0  0
    3.3090   -2.2500   -1.0290 N   0  0  0  0  0  0  0  0  0  0  0  0
    1.7350   -0.4730   -1.0910 C   0  0  0  0  0  0  0  0  0  0  0  0
    2.7320    0.2270   -1.2880 O   0  0  0  0  0  0  0  0  0  0  0  0
    1.3180   -6.5580    0.6390 H   0  0  0  0  0  0  0  0  0  0  0  0
    1.1370   -6.6450   -1.1290 H   0  0  0  0  0  0  0  0  0  0  0  0
    2.6840   -3.9900    0.6150 H   0  0  0  0  0  0  0  0  0  0  0  0
    1.3090   -4.0720    1.7150 H   0  0  0  0  0  0  0  0  0  0  0  0
    0.2730   -2.0500    0.4500 H   0  0  0  0  0  0  0  0  0  0  0  0
    1.8750   -1.7130    1.2210 H   0  0  0  0  0  0  0  0  0  0  0  0
    1.3190   -2.4940   -1.6760 H   0  0  0  0  0  0  0  0  0  0  0  0
    3.8400   -1.4140   -0.7090 H   0  0  0  0  0  0  0  0  0  0  0  0
    3.5780   -2.4260   -2.0210 H   0  0  0  0  0  0  0  0  0  0  0  0
    0.4650    0.1710   -1.0400 N   0  0  0  0  0  0  0  0  0  0  0  0
    0.2830    1.5770   -1.2020 C   0  0  1  0  0  0  0  0  0  0  0  0
   -0.5630    1.9440   -2.3980 C   0  0  0  0  0  0  0  0  0  0  0  0
   -0.6740    3.7610   -2.4300 S   0  0  0  0  0  0  0  0  0  0  0  0
   -0.3610    2.1510    0.0060 C   0  0  0  0  0  0  0  0  0  0  0  0
   -0.6330    3.3820    0.1000 O   0  0  0  0  0  0  0  0  0  0  0  0
   -0.3630   -0.4370   -0.8730 H   0  0  0  0  0  0  0  0  0  0  0  0
    1.2880    2.0350   -1.3730 H   0  0  0  0  0  0  0  0  0  0  0  0
   -0.0760    1.6480   -3.3530 H   0  0  0  0  0  0  0  0  0  0  0  0
   -1.5850    1.5200   -2.2880 H   0  0  0  0  0  0  0  0  0  0  0  0
   -1.6940    4.1940   -3.2770 H   0  0  0  0  0  0  0  0  0  0  0  0
   -0.4720   -1.4360    3.7490 C   0  0  0  0  0  0  0  0  0  0  0  0
   -2.2190   -1.1700    3.8200 S   0  0  0  0  0  0  0  0  0  0  0  0
   -2.9650   -0.1840    2.5660 C   0  0  0  0  0  0  0  0  0  0  0  0
   -2.6930    1.2660    2.5220 C   0  0  0  0  0  0  0  0  0  0  0  0
   -1.3230    1.7630    2.3240 C   0  0  2  0  0  0  0  0  0  0  0  0
   -0.6980    1.3360    1.1030 N   0  0  0  0  0  0  0  0  0  0  0  0
   -0.4800    1.7480    3.5140 C   0  0  0  0  0  0  0  0  0  0  0  0
    0.7630    1.4760    3.5090 O   0  0  0  0  0  0  0  0  0  0  0  0
   -1.0140    2.0410    4.7610 O   0  0  0  0  0  0  0  0  0  0  0  0
   -0.0090   -0.8980    4.6310 H   0  0  0  0  0  0  0  0  0  0  0  0
    0.0520   -1.0890    2.8620 H   0  0  0  0  0  0  0  0  0  0  0  0
   -0.1590   -2.4940    3.9020 H   0  0  0  0  0  0  0  0  0  0  0  0
   -2.8560   -0.6140    1.5270 H   0  0  0  0  0  0  0  0  0  0  0  0
   -4.0940   -0.2720    2.7140 H   0  0  0  0  0  0  0  0  0  0  0  0
   -3.1550    1.8180    3.3870 H   0  0  0  0  0  0  0  0  0  0  0  0
   -3.3060    1.6640    1.6440 H   0  0  0  0  0  0  0  0  0  0  0  0
   -1.4720    2.9100    2.1320 H   0  0  0  0  0  0  0  0  0  0  0  0
   -0.4670    0.3190    1.0110 H   0  0  0  0  0  0  0  0  0  0  0  0
  1  2  1  0  0  0  0
  1 10  1  0  0  0  0
  2  4  1  0  0  0  0
  3  2  2  0  0  0  0
  4 13  1  0  0  0  0
  5 14  1  0  0  0  0
  5  4  1  0  0  0  0
  5 15  1  0  0  0  0
  6 16  1  6  0  0  0
  6  5  1  0  0  0  0
  7  6  1  0  0  0  0
  7 17  1  0  0  0  0
  8 19  1  0  0  0  0
  8  6  1  0  0  0  0
  9  8  2  0  0  0  0
 11  1  1  0  0  0  0
 12  4  1  0  0  0  0
 18  7  1  0  0  0  0
 19 25  1  0  0  0  0
 20 26  1  6  0  0  0
 20 19  1  0  0  0  0
 20 23  1  0  0  0  0
 21 28  1  0  0  0  0
 21 20  1  0  0  0  0
 22 21  1  0  0  0  0
 23 24  2  0  0  0  0
 23 35  1  0  0  0  0
 27 21  1  0  0  0  0
 29 22  1  0  0  0  0
 30 31  1  0  0  0  0
 30 41  1  0  0  0  0
 30 39  1  0  0  0  0
 32 43  1  0  0  0  0
 32 31  1  0  0  0  0
 33 32  1  0  0  0  0
 33 44  1  0  0  0  0
 34 46  1  6  0  0  0
 34 33  1  0  0  0  0
 34 36  1  0  0  0  0
 35 34  1  0  0  0  0
 36 38  1  0  0  0  0
 37 36  2  0  0  0  0
 40 30  1  0  0  0  0
 42 32  1  0  0  0  0
 45 33  1  0  0  0  0
 47 35  1  0  0  0  0
M  END
$$$$
