QCN.pdb
 OpenBabel07022418313D

 44 43  0  0  1  0  0  0  0  0999 V2000
   -0.7110   -3.5800    1.3990 N   0  0  0  0  0  0  0  0  0  0  0  0
    0.6750   -3.3920    1.4960 C   0  0  0  0  0  0  0  0  0  0  0  0
    1.3730   -4.0650    0.6630 O   0  0  0  0  0  0  0  0  0  0  0  0
    1.3550   -2.5170    2.4470 C   0  0  0  0  0  0  0  0  0  0  0  0
    2.8360   -2.4540    2.3510 C   0  0  0  0  0  0  0  0  0  0  0  0
    3.3470   -1.9600    1.0380 C   0  0  2  0  0  0  0  0  0  0  0  0
    4.8420   -1.9470    1.0800 N   0  0  0  0  0  0  0  0  0  0  0  0
    2.9710   -0.5880    0.6860 C   0  0  0  0  0  0  0  0  0  0  0  0
    3.7900    0.3780    0.7870 O   0  0  0  0  0  0  0  0  0  0  0  0
   -1.2950   -3.6550    2.2490 H   0  0  0  0  0  0  0  0  0  0  0  0
   -1.1620   -3.6470    0.4730 H   0  0  0  0  0  0  0  0  0  0  0  0
    1.1210   -2.9190    3.4870 H   0  0  0  0  0  0  0  0  0  0  0  0
    0.9030   -1.4830    2.4950 H   0  0  0  0  0  0  0  0  0  0  0  0
    3.2150   -3.5060    2.4710 H   0  0  0  0  0  0  0  0  0  0  0  0
    3.2850   -1.8870    3.1920 H   0  0  0  0  0  0  0  0  0  0  0  0
    3.1050   -2.6750    0.2540 H   0  0  0  0  0  0  0  0  0  0  0  0
    5.1980   -2.9040    0.8920 H   0  0  0  0  0  0  0  0  0  0  0  0
    5.2170   -1.2290    0.4160 H   0  0  0  0  0  0  0  0  0  0  0  0
    1.6850   -0.1660    0.1940 N   0  0  0  0  0  0  0  0  0  0  0  0
    1.3920    1.1890   -0.1320 C   0  0  1  0  0  0  0  0  0  0  0  0
    1.3250    1.4100   -1.6420 C   0  0  0  0  0  0  0  0  0  0  0  0
    0.9460    3.1700   -1.8730 S   0  0  0  0  0  0  0  0  0  0  0  0
    0.0710    1.5750    0.3750 C   0  0  0  0  0  0  0  0  0  0  0  0
   -0.2680    2.7990    0.2110 O   0  0  0  0  0  0  0  0  0  0  0  0
    0.9700   -0.9020    0.0760 H   0  0  0  0  0  0  0  0  0  0  0  0
    2.1980    1.8860    0.2010 H   0  0  0  0  0  0  0  0  0  0  0  0
    2.3350    1.2310   -2.0860 H   0  0  0  0  0  0  0  0  0  0  0  0
    0.5220    0.8410   -2.1170 H   0  0  0  0  0  0  0  0  0  0  0  0
   -0.4140    3.3470   -2.1950 H   0  0  0  0  0  0  0  0  0  0  0  0
   -3.0490   -0.4550   -1.6330 N   0  0  0  0  0  0  0  0  0  0  0  0
   -3.1720    0.5910   -0.6880 C   0  0  0  0  0  0  0  0  0  0  0  0
   -3.2280    1.7780   -1.1190 O   0  0  0  0  0  0  0  0  0  0  0  0
   -3.2340    0.3690    0.7650 C   0  0  0  0  0  0  0  0  0  0  0  0
   -2.1400    1.1440    1.4950 C   0  0  2  0  0  0  0  0  0  0  0  0
   -0.8210    0.6990    1.0110 N   0  0  0  0  0  0  0  0  0  0  0  0
   -2.2620    0.8140    2.9240 C   0  0  0  0  0  0  0  0  0  0  0  0
   -3.3080    1.1020    3.5370 O   0  0  0  0  0  0  0  0  0  0  0  0
   -1.2340    0.1920    3.5840 O   0  0  0  0  0  0  0  0  0  0  0  0
   -3.5280   -1.3780   -1.6040 H   0  0  0  0  0  0  0  0  0  0  0  0
   -2.4050   -0.3060   -2.4760 H   0  0  0  0  0  0  0  0  0  0  0  0
   -3.2340   -0.7030    1.0400 H   0  0  0  0  0  0  0  0  0  0  0  0
   -4.1890    0.8090    1.1270 H   0  0  0  0  0  0  0  0  0  0  0  0
   -2.2600    2.2070    1.2680 H   0  0  0  0  0  0  0  0  0  0  0  0
   -0.5780   -0.2910    1.1570 H   0  0  0  0  0  0  0  0  0  0  0  0
  1  2  1  0  0  0  0
  1 10  1  0  0  0  0
  2  4  1  0  0  0  0
  3  2  2  0  0  0  0
  4 13  1  0  0  0  0
  4 12  1  0  0  0  0
  5  4  1  0  0  0  0
  5 14  1  0  0  0  0
  5 15  1  0  0  0  0
  6 16  1  6  0  0  0
  6  7  1  0  0  0  0
  6  5  1  0  0  0  0
  8  9  2  0  0  0  0
  8  6  1  0  0  0  0
 11  1  1  0  0  0  0
 17  7  1  0  0  0  0
 18  7  1  0  0  0  0
 19  8  1  0  0  0  0
 20 19  1  0  0  0  0
 20 26  1  1  0  0  0
 20 23  1  0  0  0  0
 21 20  1  0  0  0  0
 22 21  1  0  0  0  0
 23 35  1  0  0  0  0
 24 23  2  0  0  0  0
 25 19  1  0  0  0  0
 27 21  1  0  0  0  0
 28 21  1  0  0  0  0
 29 22  1  0  0  0  0
 30 39  1  0  0  0  0
 30 31  1  0  0  0  0
 31 33  1  0  0  0  0
 32 31  2  0  0  0  0
 33 41  1  0  0  0  0
 33 42  1  0  0  0  0
 33 34  1  0  0  0  0
 34 43  1  6  0  0  0
 34 36  1  0  0  0  0
 35 44  1  0  0  0  0
 35 34  1  0  0  0  0
 36 37  2  0  0  0  0
 36 38  1  0  0  0  0
 40 30  1  0  0  0  0
M  END
$$$$
