QCP.pdb
 OpenBabel07022418313D

 44 44  0  0  1  0  0  0  0  0999 V2000
    1.4680   -6.2700    2.8610 N   0  0  0  0  0  0  0  0  0  0  0  0
    2.0230   -5.0240    2.4630 C   0  0  0  0  0  0  0  0  0  0  0  0
    2.4000   -4.2400    3.3530 O   0  0  0  0  0  0  0  0  0  0  0  0
    2.1370   -4.7000    1.0330 C   0  0  0  0  0  0  0  0  0  0  0  0
    2.5200   -3.2680    0.7830 C   0  0  0  0  0  0  0  0  0  0  0  0
    1.4890   -2.3350    1.3100 C   0  0  2  0  0  0  0  0  0  0  0  0
    0.2120   -2.5940    0.6550 N   0  0  0  0  0  0  0  0  0  0  0  0
    1.9090   -0.9240    1.0770 C   0  0  0  0  0  0  0  0  0  0  0  0
    2.9980   -0.4870    1.5200 O   0  0  0  0  0  0  0  0  0  0  0  0
    0.9750   -6.3460    3.7720 H   0  0  0  0  0  0  0  0  0  0  0  0
    1.5610   -7.1000    2.2320 H   0  0  0  0  0  0  0  0  0  0  0  0
    1.1990   -4.9750    0.4710 H   0  0  0  0  0  0  0  0  0  0  0  0
    2.9180   -5.3950    0.6240 H   0  0  0  0  0  0  0  0  0  0  0  0
    2.6910   -3.1240   -0.3220 H   0  0  0  0  0  0  0  0  0  0  0  0
    3.4960   -3.0550    1.3110 H   0  0  0  0  0  0  0  0  0  0  0  0
    1.3250   -2.5150    2.3840 H   0  0  0  0  0  0  0  0  0  0  0  0
   -0.6010   -2.2400    1.1630 H   0  0  0  0  0  0  0  0  0  0  0  0
    0.2150   -2.3990   -0.3530 H   0  0  0  0  0  0  0  0  0  0  0  0
    1.0770   -0.0170    0.3360 N   0  0  0  0  0  0  0  0  0  0  0  0
    1.4120    1.3200    0.0780 C   0  0  1  0  0  0  0  0  0  0  0  0
    1.8890    1.3750   -1.3990 C   0  0  0  0  0  0  0  0  0  0  0  0
    0.5960    0.8340   -2.5160 S   0  0  0  0  0  0  0  0  0  0  0  0
    0.4100    2.3690    0.2240 C   0  0  0  0  0  0  0  0  0  0  0  0
    0.8250    3.5520   -0.2490 O   0  0  0  0  0  0  0  0  0  0  0  0
    0.1640   -0.3920   -0.0320 H   0  0  0  0  0  0  0  0  0  0  0  0
    2.3650    1.5790    0.6380 H   0  0  0  0  0  0  0  0  0  0  0  0
    2.1590    2.4220   -1.6560 H   0  0  0  0  0  0  0  0  0  0  0  0
    2.7800    0.7420   -1.5390 H   0  0  0  0  0  0  0  0  0  0  0  0
    0.8780   -0.4630   -2.9740 H   0  0  0  0  0  0  0  0  0  0  0  0
   -0.8670    2.4160    0.7330 N   0  0  0  0  0  0  0  0  0  0  0  0
   -1.6740    3.7220    0.5540 C   0  0  0  0  0  0  0  0  0  0  0  0
   -2.8400    3.1100   -0.1870 C   0  0  0  0  0  0  0  0  0  0  0  0
   -3.1120    1.8210    0.5490 C   0  0  0  0  0  0  0  0  0  0  0  0
   -1.8660    1.6930    1.4340 C   0  0  1  0  0  0  0  0  0  0  0  0
   -1.7210    0.4040    1.9960 C   0  0  0  0  0  0  0  0  0  0  0  0
   -2.6130   -0.5200    1.8470 O   0  0  0  0  0  0  0  0  0  0  0  0
   -0.6160    0.0400    2.7570 O   0  0  0  0  0  0  0  0  0  0  0  0
   -1.0930    4.4360   -0.0060 H   0  0  0  0  0  0  0  0  0  0  0  0
   -2.0070    3.9950    1.5560 H   0  0  0  0  0  0  0  0  0  0  0  0
   -3.7220    3.7770   -0.2170 H   0  0  0  0  0  0  0  0  0  0  0  0
   -2.4750    2.8400   -1.1990 H   0  0  0  0  0  0  0  0  0  0  0  0
   -4.0330    1.9650    1.1470 H   0  0  0  0  0  0  0  0  0  0  0  0
   -3.2030    0.9480   -0.1270 H   0  0  0  0  0  0  0  0  0  0  0  0
   -2.1740    2.4450    2.3190 H   0  0  0  0  0  0  0  0  0  0  0  0
  1 10  1  0  0  0  0
  2  1  1  0  0  0  0
  2  3  2  0  0  0  0
  4  2  1  0  0  0  0
  5  4  1  0  0  0  0
  5  6  1  0  0  0  0
  5 15  1  0  0  0  0
  6 16  1  1  0  0  0
  7 17  1  0  0  0  0
  7  6  1  0  0  0  0
  8  6  1  0  0  0  0
  8  9  2  0  0  0  0
 11  1  1  0  0  0  0
 12  4  1  0  0  0  0
 13  4  1  0  0  0  0
 14  5  1  0  0  0  0
 18  7  1  0  0  0  0
 19  8  1  0  0  0  0
 20 23  1  0  0  0  0
 20 19  1  0  0  0  0
 20 26  1  1  0  0  0
 21 20  1  0  0  0  0
 22 21  1  0  0  0  0
 23 30  1  0  0  0  0
 24 23  2  0  0  0  0
 25 19  1  0  0  0  0
 27 21  1  0  0  0  0
 28 21  1  0  0  0  0
 29 22  1  0  0  0  0
 30 34  1  0  0  0  0
 31 30  1  0  0  0  0
 31 39  1  0  0  0  0
 32 33  1  0  0  0  0
 32 31  1  0  0  0  0
 33 42  1  0  0  0  0
 33 34  1  0  0  0  0
 34 35  1  0  0  0  0
 34 44  1  1  0  0  0
 35 37  1  0  0  0  0
 36 35  2  0  0  0  0
 38 31  1  0  0  0  0
 40 32  1  0  0  0  0
 41 32  1  0  0  0  0
 43 33  1  0  0  0  0
M  END
$$$$
