QCR.pdb
 OpenBabel07022418313D

 53 52  0  0  1  0  0  0  0  0999 V2000
    3.5660   -5.7510    1.6960 N   0  0  0  0  0  0  0  0  0  0  0  0
    4.4070   -4.6150    1.5080 C   0  0  0  0  0  0  0  0  0  0  0  0
    5.4530   -4.5460    2.1810 O   0  0  0  0  0  0  0  0  0  0  0  0
    4.0220   -3.5940    0.5490 C   0  0  0  0  0  0  0  0  0  0  0  0
    4.7810   -2.3290    0.5100 C   0  0  0  0  0  0  0  0  0  0  0  0
    4.7740   -1.4510    1.7000 C   0  0  2  0  0  0  0  0  0  0  0  0
    5.2920   -2.0720    2.8670 N   0  0  0  0  0  0  0  0  0  0  0  0
    3.5100   -0.7150    1.9300 C   0  0  0  0  0  0  0  0  0  0  0  0
    3.0380   -0.6700    3.0840 O   0  0  0  0  0  0  0  0  0  0  0  0
    3.7710   -6.4180    2.4620 H   0  0  0  0  0  0  0  0  0  0  0  0
    2.7390   -5.9650    1.1000 H   0  0  0  0  0  0  0  0  0  0  0  0
    2.8970   -3.4180    0.6000 H   0  0  0  0  0  0  0  0  0  0  0  0
    4.1260   -4.0580   -0.4860 H   0  0  0  0  0  0  0  0  0  0  0  0
    5.8740   -2.5210    0.2700 H   0  0  0  0  0  0  0  0  0  0  0  0
    4.3580   -1.7360   -0.3590 H   0  0  0  0  0  0  0  0  0  0  0  0
    5.5270   -0.6160    1.4540 H   0  0  0  0  0  0  0  0  0  0  0  0
    5.0400   -1.6180    3.7700 H   0  0  0  0  0  0  0  0  0  0  0  0
    6.3510   -2.0380    2.8230 H   0  0  0  0  0  0  0  0  0  0  0  0
    2.8300   -0.0650    0.8790 N   0  0  0  0  0  0  0  0  0  0  0  0
    1.5860    0.6800    1.0350 C   0  0  1  0  0  0  0  0  0  0  0  0
    1.7790    2.0780    0.5110 C   0  0  0  0  0  0  0  0  0  0  0  0
    3.1050    2.8700    1.4620 S   0  0  0  0  0  0  0  0  0  0  0  0
    0.4920   -0.0520    0.3420 C   0  0  0  0  0  0  0  0  0  0  0  0
    0.7610   -1.1600   -0.1740 O   0  0  0  0  0  0  0  0  0  0  0  0
    3.2070   -0.0900   -0.1120 H   0  0  0  0  0  0  0  0  0  0  0  0
    1.3840    0.7330    2.1360 H   0  0  0  0  0  0  0  0  0  0  0  0
    0.8750    2.6920    0.5320 H   0  0  0  0  0  0  0  0  0  0  0  0
    2.1200    2.0290   -0.5550 H   0  0  0  0  0  0  0  0  0  0  0  0
    3.0800    2.4850    2.8160 H   0  0  0  0  0  0  0  0  0  0  0  0
   -6.1840    2.4670   -0.4720 N   0  0  0  0  0  0  0  0  0  0  0  0
   -6.4140    1.0580   -0.3980 C   0  0  0  0  0  0  0  0  0  0  0  0
   -7.0720    0.4080   -1.3040 N   0  0  0  0  0  0  0  0  0  0  0  0
   -5.8740    0.3680    0.7410 N   0  0  0  0  0  0  0  0  0  0  0  0
   -5.4850   -1.0240    0.6030 C   0  0  0  0  0  0  0  0  0  0  0  0
   -4.2660   -1.1370   -0.3200 C   0  0  0  0  0  0  0  0  0  0  0  0
   -3.1590   -0.3560    0.3030 C   0  0  0  0  0  0  0  0  0  0  0  0
   -1.8750   -0.3350   -0.4590 C   0  0  2  0  0  0  0  0  0  0  0  0
   -0.8440    0.4420    0.2330 N   0  0  0  0  0  0  0  0  0  0  0  0
   -2.0160    0.1480   -1.8620 C   0  0  0  0  0  0  0  0  0  0  0  0
   -1.3230    1.1350   -2.2950 O   0  0  0  0  0  0  0  0  0  0  0  0
   -2.8720   -0.3980   -2.7960 O   0  0  0  0  0  0  0  0  0  0  0  0
   -5.7830    2.8480   -1.3500 H   0  0  0  0  0  0  0  0  0  0  0  0
   -6.4030    3.1150    0.3100 H   0  0  0  0  0  0  0  0  0  0  0  0
   -7.4360    0.9750   -2.1090 H   0  0  0  0  0  0  0  0  0  0  0  0
   -5.7700    0.8700    1.6450 H   0  0  0  0  0  0  0  0  0  0  0  0
   -6.2890   -1.6660    0.1990 H   0  0  0  0  0  0  0  0  0  0  0  0
   -5.1350   -1.3850    1.6010 H   0  0  0  0  0  0  0  0  0  0  0  0
   -4.0320   -2.2320   -0.3500 H   0  0  0  0  0  0  0  0  0  0  0  0
   -4.5660   -0.8500   -1.3250 H   0  0  0  0  0  0  0  0  0  0  0  0
   -2.9930   -0.7980    1.3250 H   0  0  0  0  0  0  0  0  0  0  0  0
   -3.4770    0.7030    0.5410 H   0  0  0  0  0  0  0  0  0  0  0  0
   -1.4810   -1.3650   -0.5490 H   0  0  0  0  0  0  0  0  0  0  0  0
   -1.0420    1.3680    0.6670 H   0  0  0  0  0  0  0  0  0  0  0  0
  1 10  1  0  0  0  0
  2  1  1  0  0  0  0
  2  3  2  0  0  0  0
  4 12  1  0  0  0  0
  4  2  1  0  0  0  0
  5  4  1  0  0  0  0
  5  6  1  0  0  0  0
  6 16  1  6  0  0  0
  6  8  1  0  0  0  0
  6  7  1  0  0  0  0
  7 17  1  0  0  0  0
  8  9  2  0  0  0  0
 11  1  1  0  0  0  0
 13  4  1  0  0  0  0
 14  5  1  0  0  0  0
 15  5  1  0  0  0  0
 18  7  1  0  0  0  0
 19 20  1  0  0  0  0
 19  8  1  0  0  0  0
 20 26  1  1  0  0  0
 21 27  1  0  0  0  0
 21 20  1  0  0  0  0
 21 22  1  0  0  0  0
 22 29  1  0  0  0  0
 23 20  1  0  0  0  0
 24 23  2  0  0  0  0
 25 19  1  0  0  0  0
 28 21  1  0  0  0  0
 30 31  1  0  0  0  0
 30 43  1  0  0  0  0
 31 33  1  0  0  0  0
 32 31  2  0  0  0  0
 33 45  1  0  0  0  0
 34 33  1  0  0  0  0
 34 47  1  0  0  0  0
 35 36  1  0  0  0  0
 35 34  1  0  0  0  0
 36 51  1  0  0  0  0
 36 50  1  0  0  0  0
 37 52  1  6  0  0  0
 37 38  1  0  0  0  0
 37 36  1  0  0  0  0
 38 23  1  0  0  0  0
 38 53  1  0  0  0  0
 39 37  1  0  0  0  0
 40 39  1  0  0  0  0
 41 39  2  0  0  0  0
 42 30  1  0  0  0  0
 44 32  1  0  0  0  0
 46 34  1  0  0  0  0
 48 35  1  0  0  0  0
 49 35  1  0  0  0  0
M  END
$$$$
