QCS.pdb
 OpenBabel07022418313D

 41 40  0  0  1  0  0  0  0  0999 V2000
    5.1350   -3.6060    1.1920 N   0  0  0  0  0  0  0  0  0  0  0  0
    4.0470   -2.7060    1.1970 C   0  0  0  0  0  0  0  0  0  0  0  0
    3.5020   -2.4270    2.2870 O   0  0  0  0  0  0  0  0  0  0  0  0
    3.5620   -2.1100   -0.0390 C   0  0  0  0  0  0  0  0  0  0  0  0
    2.3900   -1.1730    0.1660 C   0  0  0  0  0  0  0  0  0  0  0  0
    2.0060   -0.6420   -1.1880 C   0  0  2  0  0  0  0  0  0  0  0  0
    3.1150    0.0540   -1.7580 N   0  0  0  0  0  0  0  0  0  0  0  0
    0.7620    0.1510   -1.1730 C   0  0  0  0  0  0  0  0  0  0  0  0
    0.8180    1.3130   -1.6480 O   0  0  0  0  0  0  0  0  0  0  0  0
    5.5510   -3.9160    0.2940 H   0  0  0  0  0  0  0  0  0  0  0  0
    5.5510   -3.9820    2.0710 H   0  0  0  0  0  0  0  0  0  0  0  0
    3.2390   -2.8560   -0.8000 H   0  0  0  0  0  0  0  0  0  0  0  0
    4.3720   -1.5110   -0.5360 H   0  0  0  0  0  0  0  0  0  0  0  0
    2.7500   -0.3580    0.8410 H   0  0  0  0  0  0  0  0  0  0  0  0
    1.5910   -1.7510    0.6500 H   0  0  0  0  0  0  0  0  0  0  0  0
    1.8060   -1.5350   -1.8380 H   0  0  0  0  0  0  0  0  0  0  0  0
    3.7810    0.4420   -1.0620 H   0  0  0  0  0  0  0  0  0  0  0  0
    2.8530    0.7280   -2.5090 H   0  0  0  0  0  0  0  0  0  0  0  0
   -0.4680   -0.2970   -0.6700 N   0  0  0  0  0  0  0  0  0  0  0  0
   -1.6860    0.4440   -0.6400 C   0  0  1  0  0  0  0  0  0  0  0  0
   -2.8310   -0.2300   -1.3470 C   0  0  0  0  0  0  0  0  0  0  0  0
   -2.5270   -0.5360   -3.0830 S   0  0  0  0  0  0  0  0  0  0  0  0
   -2.0870    0.6680    0.7730 C   0  0  0  0  0  0  0  0  0  0  0  0
   -3.1470    1.3100    0.9800 O   0  0  0  0  0  0  0  0  0  0  0  0
   -0.4870   -1.2820   -0.2740 H   0  0  0  0  0  0  0  0  0  0  0  0
   -1.5150    1.4470   -1.0830 H   0  0  0  0  0  0  0  0  0  0  0  0
   -3.7100    0.4550   -1.2650 H   0  0  0  0  0  0  0  0  0  0  0  0
   -3.1210   -1.1480   -0.7830 H   0  0  0  0  0  0  0  0  0  0  0  0
   -2.4450    0.7010   -3.7460 H   0  0  0  0  0  0  0  0  0  0  0  0
   -0.8210   -1.7330    3.8050 O   0  0  0  0  0  0  0  0  0  0  0  0
   -1.9960   -0.9480    3.8720 C   0  0  0  0  0  0  0  0  0  0  0  0
   -1.7380    0.4190    3.2570 C   0  0  2  0  0  0  0  0  0  0  0  0
   -1.3530    0.2050    1.8810 N   0  0  0  0  0  0  0  0  0  0  0  0
   -0.6900    1.1540    4.0000 C   0  0  0  0  0  0  0  0  0  0  0  0
   -0.7920    1.4580    5.2050 O   0  0  0  0  0  0  0  0  0  0  0  0
    0.4580    1.5190    3.3160 O   0  0  0  0  0  0  0  0  0  0  0  0
   -0.7790   -2.1370    2.8910 H   0  0  0  0  0  0  0  0  0  0  0  0
   -2.7510   -1.5110    3.2890 H   0  0  0  0  0  0  0  0  0  0  0  0
   -2.3300   -0.8780    4.9150 H   0  0  0  0  0  0  0  0  0  0  0  0
   -2.6780    0.9910    3.3520 H   0  0  0  0  0  0  0  0  0  0  0  0
   -0.4760   -0.3270    1.6810 H   0  0  0  0  0  0  0  0  0  0  0  0
  1  2  1  0  0  0  0
  1 11  1  0  0  0  0
  2  3  2  0  0  0  0
  4  5  1  0  0  0  0
  4  2  1  0  0  0  0
  5 15  1  0  0  0  0
  5 14  1  0  0  0  0
  6 16  1  6  0  0  0
  6  8  1  0  0  0  0
  6  5  1  0  0  0  0
  7  6  1  0  0  0  0
  7 17  1  0  0  0  0
  8 19  1  0  0  0  0
  9  8  2  0  0  0  0
 10  1  1  0  0  0  0
 12  4  1  0  0  0  0
 13  4  1  0  0  0  0
 18  7  1  0  0  0  0
 19 20  1  0  0  0  0
 19 25  1  0  0  0  0
 20 26  1  6  0  0  0
 20 23  1  0  0  0  0
 21 27  1  0  0  0  0
 21 28  1  0  0  0  0
 21 20  1  0  0  0  0
 22 21  1  0  0  0  0
 23 24  2  0  0  0  0
 23 33  1  0  0  0  0
 29 22  1  0  0  0  0
 30 31  1  0  0  0  0
 31 39  1  0  0  0  0
 32 40  1  1  0  0  0
 32 31  1  0  0  0  0
 32 34  1  0  0  0  0
 33 32  1  0  0  0  0
 34 35  1  0  0  0  0
 36 34  2  0  0  0  0
 37 30  1  0  0  0  0
 38 31  1  0  0  0  0
 41 33  1  0  0  0  0
M  END
$$$$
