QCW.pdb
 OpenBabel07022418313D

 54 55  0  0  1  0  0  0  0  0999 V2000
    0.1930    1.6030    6.4340 N   0  0  0  0  0  0  0  0  0  0  0  0
    1.0250    2.3990    5.6140 C   0  0  0  0  0  0  0  0  0  0  0  0
    1.0720    3.6290    5.7930 O   0  0  0  0  0  0  0  0  0  0  0  0
    1.8520    1.7690    4.5280 C   0  0  0  0  0  0  0  0  0  0  0  0
    2.6150    2.8030    3.7620 C   0  0  0  0  0  0  0  0  0  0  0  0
    3.5000    2.3130    2.6800 C   0  0  2  0  0  0  0  0  0  0  0  0
    4.1550    3.4910    2.0560 N   0  0  0  0  0  0  0  0  0  0  0  0
    2.8500    1.5220    1.6140 C   0  0  0  0  0  0  0  0  0  0  0  0
    2.7370    2.0040    0.4460 O   0  0  0  0  0  0  0  0  0  0  0  0
   -0.0750    1.9270    7.4080 H   0  0  0  0  0  0  0  0  0  0  0  0
   -0.1980    0.6770    6.1430 H   0  0  0  0  0  0  0  0  0  0  0  0
    2.5070    0.9880    4.9160 H   0  0  0  0  0  0  0  0  0  0  0  0
    1.0730    1.2650    3.8830 H   0  0  0  0  0  0  0  0  0  0  0  0
    3.2880    3.3170    4.5130 H   0  0  0  0  0  0  0  0  0  0  0  0
    1.9520    3.6420    3.4150 H   0  0  0  0  0  0  0  0  0  0  0  0
    4.3230    1.6980    3.1520 H   0  0  0  0  0  0  0  0  0  0  0  0
    4.7280    3.9220    2.8190 H   0  0  0  0  0  0  0  0  0  0  0  0
    4.8080    3.1060    1.3540 H   0  0  0  0  0  0  0  0  0  0  0  0
    2.3150    0.2230    1.7520 N   0  0  0  0  0  0  0  0  0  0  0  0
    1.7060   -0.5070    0.6940 C   0  0  1  0  0  0  0  0  0  0  0  0
    2.3710   -1.8130    0.3710 C   0  0  0  0  0  0  0  0  0  0  0  0
    4.0880   -1.4440   -0.1130 S   0  0  0  0  0  0  0  0  0  0  0  0
    0.2600   -0.6600    0.9580 C   0  0  0  0  0  0  0  0  0  0  0  0
   -0.2170   -0.1420    1.9880 O   0  0  0  0  0  0  0  0  0  0  0  0
    2.3730   -0.2490    2.6810 H   0  0  0  0  0  0  0  0  0  0  0  0
    1.8130    0.1340   -0.2360 H   0  0  0  0  0  0  0  0  0  0  0  0
    1.8790   -2.2210   -0.5360 H   0  0  0  0  0  0  0  0  0  0  0  0
    2.2950   -2.5620    1.1540 H   0  0  0  0  0  0  0  0  0  0  0  0
    4.4980   -2.4470   -0.9970 H   0  0  0  0  0  0  0  0  0  0  0  0
   -0.5850   -1.3860    0.0550 N   0  0  0  0  0  0  0  0  0  0  0  0
   -2.0080   -1.5410    0.3020 C   0  0  1  0  0  0  0  0  0  0  0  0
   -2.8380   -0.9060   -0.7590 C   0  0  0  0  0  0  0  0  0  0  0  0
   -2.6450   -1.3670   -2.1260 C   0  0  0  0  0  0  0  0  0  0  0  0
   -1.8250   -0.7320   -3.0720 C   0  0  0  0  0  0  0  0  0  0  0  0
   -1.8580   -1.4400   -4.1980 N   0  0  0  0  0  0  0  0  0  0  0  0
   -2.6610   -2.5200   -4.0530 C   0  0  0  0  0  0  0  0  0  0  0  0
   -3.0100   -3.5360   -4.9510 C   0  0  0  0  0  0  0  0  0  0  0  0
   -3.8680   -4.5370   -4.5670 C   0  0  0  0  0  0  0  0  0  0  0  0
   -4.3450   -4.4700   -3.2790 C   0  0  0  0  0  0  0  0  0  0  0  0
   -4.0200   -3.4890   -2.3840 C   0  0  0  0  0  0  0  0  0  0  0  0
   -3.1470   -2.4680   -2.7660 C   0  0  0  0  0  0  0  0  0  0  0  0
   -2.4010   -2.8980    0.7070 C   0  0  0  0  0  0  0  0  0  0  0  0
   -3.5850   -3.1000    1.0730 O   0  0  0  0  0  0  0  0  0  0  0  0
   -1.5550   -4.0030    0.7210 O   0  0  0  0  0  0  0  0  0  0  0  0
   -0.1460   -1.8050   -0.7900 H   0  0  0  0  0  0  0  0  0  0  0  0
   -2.2080   -0.9070    1.2370 H   0  0  0  0  0  0  0  0  0  0  0  0
   -3.9070   -1.0480   -0.4520 H   0  0  0  0  0  0  0  0  0  0  0  0
   -2.7190    0.2180   -0.7530 H   0  0  0  0  0  0  0  0  0  0  0  0
   -1.2730    0.1810   -2.8800 H   0  0  0  0  0  0  0  0  0  0  0  0
   -1.3560   -1.2410   -5.1000 H   0  0  0  0  0  0  0  0  0  0  0  0
   -2.5970   -3.5240   -5.9490 H   0  0  0  0  0  0  0  0  0  0  0  0
   -4.1670   -5.3460   -5.2290 H   0  0  0  0  0  0  0  0  0  0  0  0
   -5.0320   -5.2590   -2.9560 H   0  0  0  0  0  0  0  0  0  0  0  0
   -4.4160   -3.4510   -1.3840 H   0  0  0  0  0  0  0  0  0  0  0  0
  1 10  1  0  0  0  0
  2  3  2  0  0  0  0
  2  1  1  0  0  0  0
  4 12  1  0  0  0  0
  4  2  1  0  0  0  0
  5 14  1  0  0  0  0
  5  4  1  0  0  0  0
  6 16  1  1  0  0  0
  6  5  1  0  0  0  0
  7  6  1  0  0  0  0
  7 17  1  0  0  0  0
  8 19  1  0  0  0  0
  8  6  1  0  0  0  0
  9  8  2  0  0  0  0
 11  1  1  0  0  0  0
 13  4  1  0  0  0  0
 15  5  1  0  0  0  0
 18  7  1  0  0  0  0
 19 25  1  0  0  0  0
 20 26  1  6  0  0  0
 20 23  1  0  0  0  0
 20 19  1  0  0  0  0
 21 20  1  0  0  0  0
 21 28  1  0  0  0  0
 22 21  1  0  0  0  0
 23 24  2  0  0  0  0
 27 21  1  0  0  0  0
 29 22  1  0  0  0  0
 30 31  1  0  0  0  0
 30 23  1  0  0  0  0
 31 42  1  0  0  0  0
 31 46  1  1  0  0  0
 32 48  1  0  0  0  0
 32 47  1  0  0  0  0
 32 31  1  0  0  0  0
 33 32  1  0  0  0  0
 34 49  1  0  0  0  0
 34 33  2  0  0  0  0
 35 36  1  0  0  0  0
 35 34  1  0  0  0  0
 36 41  1  0  0  0  0
 37 38  1  0  0  0  0
 37 36  2  0  0  0  0
 38 39  2  0  0  0  0
 39 53  1  0  0  0  0
 39 40  1  0  0  0  0
 40 54  1  0  0  0  0
 41 40  2  0  0  0  0
 41 33  1  0  0  0  0
 42 44  2  0  0  0  0
 42 43  1  0  0  0  0
 45 30  1  0  0  0  0
 50 35  1  0  0  0  0
 51 37  1  0  0  0  0
 52 38  1  0  0  0  0
M  END
$$$$
