QCY.pdb
 OpenBabel07022418313D

 51 51  0  0  1  0  0  0  0  0999 V2000
    4.3060   -5.9130    2.9250 N   0  0  0  0  0  0  0  0  0  0  0  0
    3.9440   -4.9070    1.9910 C   0  0  0  0  0  0  0  0  0  0  0  0
    2.9540   -5.1340    1.2680 O   0  0  0  0  0  0  0  0  0  0  0  0
    4.6980   -3.6720    1.8840 C   0  0  0  0  0  0  0  0  0  0  0  0
    4.1540   -2.5800    1.0520 C   0  0  0  0  0  0  0  0  0  0  0  0
    2.8500   -1.9910    1.4330 C   0  0  2  0  0  0  0  0  0  0  0  0
    1.7220   -2.8470    1.4620 N   0  0  0  0  0  0  0  0  0  0  0  0
    2.6080   -0.7280    0.6460 C   0  0  0  0  0  0  0  0  0  0  0  0
    3.5590    0.0950    0.5300 O   0  0  0  0  0  0  0  0  0  0  0  0
    3.6010   -6.3380    3.5790 H   0  0  0  0  0  0  0  0  0  0  0  0
    5.2990   -6.2300    2.9520 H   0  0  0  0  0  0  0  0  0  0  0  0
    5.6990   -3.9540    1.4260 H   0  0  0  0  0  0  0  0  0  0  0  0
    5.0120   -3.2630    2.8920 H   0  0  0  0  0  0  0  0  0  0  0  0
    4.0860   -2.9250   -0.0260 H   0  0  0  0  0  0  0  0  0  0  0  0
    4.9580   -1.7860    0.9960 H   0  0  0  0  0  0  0  0  0  0  0  0
    2.9660   -1.6020    2.4980 H   0  0  0  0  0  0  0  0  0  0  0  0
    1.1220   -2.8080    2.2910 H   0  0  0  0  0  0  0  0  0  0  0  0
    1.2800   -3.0920    0.5720 H   0  0  0  0  0  0  0  0  0  0  0  0
    1.3360   -0.5360    0.0850 N   0  0  0  0  0  0  0  0  0  0  0  0
    1.0340    0.6390   -0.6770 C   0  0  1  0  0  0  0  0  0  0  0  0
    0.6820    0.3620   -2.1020 C   0  0  0  0  0  0  0  0  0  0  0  0
   -0.7560   -0.6990   -2.2200 S   0  0  0  0  0  0  0  0  0  0  0  0
   -0.0480    1.4780   -0.0840 C   0  0  0  0  0  0  0  0  0  0  0  0
   -0.3710    2.5230   -0.7090 O   0  0  0  0  0  0  0  0  0  0  0  0
    0.5750   -1.2370    0.2040 H   0  0  0  0  0  0  0  0  0  0  0  0
    1.9570    1.2890   -0.7080 H   0  0  0  0  0  0  0  0  0  0  0  0
    0.3920    1.3560   -2.5560 H   0  0  0  0  0  0  0  0  0  0  0  0
    1.5390    0.0080   -2.7110 H   0  0  0  0  0  0  0  0  0  0  0  0
   -0.5700   -1.7330   -3.1590 H   0  0  0  0  0  0  0  0  0  0  0  0
   -5.4290   -0.6600   -2.9220 O   0  0  0  0  0  0  0  0  0  0  0  0
   -4.8310   -0.1970   -1.7510 C   0  0  0  0  0  0  0  0  0  0  0  0
   -5.0710    1.0910   -1.3210 C   0  0  0  0  0  0  0  0  0  0  0  0
   -4.4980    1.5820   -0.1710 C   0  0  0  0  0  0  0  0  0  0  0  0
   -3.6510    0.7790    0.5960 C   0  0  0  0  0  0  0  0  0  0  0  0
   -3.0710    1.3370    1.8260 C   0  0  0  0  0  0  0  0  0  0  0  0
   -1.7580    2.0450    1.6360 C   0  0  2  0  0  0  0  0  0  0  0  0
   -0.7230    1.1920    1.1050 N   0  0  0  0  0  0  0  0  0  0  0  0
   -1.3250    2.6610    2.9300 C   0  0  0  0  0  0  0  0  0  0  0  0
   -2.0720    3.4390    3.5720 O   0  0  0  0  0  0  0  0  0  0  0  0
   -3.4270   -0.5020    0.1460 C   0  0  0  0  0  0  0  0  0  0  0  0
   -4.0060   -0.9920   -1.0120 C   0  0  0  0  0  0  0  0  0  0  0  0
   -0.0700    2.3680    3.4380 O   0  0  0  0  0  0  0  0  0  0  0  0
   -5.5290   -1.6290   -3.1500 H   0  0  0  0  0  0  0  0  0  0  0  0
   -5.7140    1.7480   -1.8750 H   0  0  0  0  0  0  0  0  0  0  0  0
   -4.6860    2.6060    0.1760 H   0  0  0  0  0  0  0  0  0  0  0  0
   -3.8010    1.9790    2.3790 H   0  0  0  0  0  0  0  0  0  0  0  0
   -2.9020    0.4690    2.5310 H   0  0  0  0  0  0  0  0  0  0  0  0
   -1.9140    2.8780    0.8850 H   0  0  0  0  0  0  0  0  0  0  0  0
   -0.4810    0.3330    1.6430 H   0  0  0  0  0  0  0  0  0  0  0  0
   -2.7770   -1.1230    0.7310 H   0  0  0  0  0  0  0  0  0  0  0  0
   -3.8230   -1.9900   -1.3490 H   0  0  0  0  0  0  0  0  0  0  0  0
  1 11  1  0  0  0  0
  1 10  1  0  0  0  0
  2  1  1  0  0  0  0
  3  2  2  0  0  0  0
  4  2  1  0  0  0  0
  4 13  1  0  0  0  0
  5  6  1  0  0  0  0
  5  4  1  0  0  0  0
  6  7  1  0  0  0  0
  6 16  1  1  0  0  0
  7 17  1  0  0  0  0
  8  6  1  0  0  0  0
  9  8  2  0  0  0  0
 12  4  1  0  0  0  0
 14  5  1  0  0  0  0
 15  5  1  0  0  0  0
 18  7  1  0  0  0  0
 19 25  1  0  0  0  0
 19  8  1  0  0  0  0
 20 26  1  6  0  0  0
 20 23  1  0  0  0  0
 20 19  1  0  0  0  0
 21 20  1  0  0  0  0
 22 21  1  0  0  0  0
 23 37  1  0  0  0  0
 24 23  2  0  0  0  0
 27 21  1  0  0  0  0
 28 21  1  0  0  0  0
 29 22  1  0  0  0  0
 30 31  1  0  0  0  0
 31 32  2  0  0  0  0
 31 41  1  0  0  0  0
 32 33  1  0  0  0  0
 33 45  1  0  0  0  0
 33 34  2  0  0  0  0
 34 35  1  0  0  0  0
 35 46  1  0  0  0  0
 35 47  1  0  0  0  0
 36 48  1  6  0  0  0
 36 35  1  0  0  0  0
 36 38  1  0  0  0  0
 37 36  1  0  0  0  0
 37 49  1  0  0  0  0
 38 42  2  0  0  0  0
 38 39  1  0  0  0  0
 40 34  1  0  0  0  0
 40 50  1  0  0  0  0
 41 40  2  0  0  0  0
 43 30  1  0  0  0  0
 44 32  1  0  0  0  0
 51 41  1  0  0  0  0
M  END
$$$$
