QDD.pdb
 OpenBabel07022418313D

 45 44  0  0  1  0  0  0  0  0999 V2000
    1.6410   -2.5900   -3.0980 N   0  0  0  0  0  0  0  0  0  0  0  0
    2.0060   -1.1960   -3.1580 C   0  0  0  0  0  0  0  0  0  0  0  0
    3.2310   -0.9720   -3.0540 O   0  0  0  0  0  0  0  0  0  0  0  0
    0.9850   -0.1540   -3.3320 C   0  0  0  0  0  0  0  0  0  0  0  0
    1.4050    1.2400   -3.1030 C   0  0  0  0  0  0  0  0  0  0  0  0
    1.8670    1.6380   -1.7560 C   0  0  2  0  0  0  0  0  0  0  0  0
    3.0160    0.9320   -1.2860 N   0  0  0  0  0  0  0  0  0  0  0  0
    0.7630    1.5150   -0.7270 C   0  0  0  0  0  0  0  0  0  0  0  0
   -0.2470    2.2440   -0.8440 O   0  0  0  0  0  0  0  0  0  0  0  0
    2.1360   -3.2960   -3.7170 H   0  0  0  0  0  0  0  0  0  0  0  0
    0.9000   -2.9380   -2.4590 H   0  0  0  0  0  0  0  0  0  0  0  0
    0.1040   -0.4760   -2.7300 H   0  0  0  0  0  0  0  0  0  0  0  0
    0.5920   -0.2020   -4.3970 H   0  0  0  0  0  0  0  0  0  0  0  0
    2.2970    1.4160   -3.7900 H   0  0  0  0  0  0  0  0  0  0  0  0
    0.6650    1.9970   -3.4860 H   0  0  0  0  0  0  0  0  0  0  0  0
    2.1660    2.7260   -1.8310 H   0  0  0  0  0  0  0  0  0  0  0  0
    3.1910    1.1770   -0.2680 H   0  0  0  0  0  0  0  0  0  0  0  0
    3.8460    1.3420   -1.8330 H   0  0  0  0  0  0  0  0  0  0  0  0
    0.8700    0.6080    0.3310 N   0  0  0  0  0  0  0  0  0  0  0  0
   -0.0290    0.3800    1.3940 C   0  0  1  0  0  0  0  0  0  0  0  0
   -1.2930    1.2220    1.3940 C   0  0  0  0  0  0  0  0  0  0  0  0
   -1.0270    2.6600    1.5760 C   0  0  0  0  0  0  0  0  0  0  0  0
   -1.9330    3.4920    1.3710 O   0  0  0  0  0  0  0  0  0  0  0  0
   -0.2540   -1.0260    1.7590 C   0  0  0  0  0  0  0  0  0  0  0  0
    0.2740   -1.9790    1.1120 O   0  0  0  0  0  0  0  0  0  0  0  0
    0.2170    3.1000    1.9760 O   0  0  0  0  0  0  0  0  0  0  0  0
    1.7690   -0.0340    0.3520 H   0  0  0  0  0  0  0  0  0  0  0  0
    0.5250    0.9080    2.3020 H   0  0  0  0  0  0  0  0  0  0  0  0
   -1.8390    1.0990    0.4080 H   0  0  0  0  0  0  0  0  0  0  0  0
   -2.0150    0.8250    2.1360 H   0  0  0  0  0  0  0  0  0  0  0  0
    0.5360    4.0710    1.8980 H   0  0  0  0  0  0  0  0  0  0  0  0
   -1.0720   -1.3800    2.8550 N   0  0  0  0  0  0  0  0  0  0  0  0
   -1.3130   -2.7730    3.2370 C   0  0  1  0  0  0  0  0  0  0  0  0
   -0.9190   -3.0400    4.6570 C   0  0  0  0  0  0  0  0  0  0  0  0
    0.5100   -2.7840    4.9270 C   0  0  0  0  0  0  0  0  0  0  0  0
    1.2420   -2.3730    4.0140 O   0  0  0  0  0  0  0  0  0  0  0  0
   -2.7570   -3.0950    3.0850 C   0  0  0  0  0  0  0  0  0  0  0  0
   -3.5450   -2.1900    2.6660 O   0  0  0  0  0  0  0  0  0  0  0  0
    0.9920   -3.0160    6.2060 O   0  0  0  0  0  0  0  0  0  0  0  0
   -3.2690   -4.3400    3.3820 O   0  0  0  0  0  0  0  0  0  0  0  0
   -1.5200   -0.6270    3.4200 H   0  0  0  0  0  0  0  0  0  0  0  0
   -0.7370   -3.3980    2.5180 H   0  0  0  0  0  0  0  0  0  0  0  0
   -1.2060   -4.1030    4.8780 H   0  0  0  0  0  0  0  0  0  0  0  0
   -1.5820   -2.4320    5.3230 H   0  0  0  0  0  0  0  0  0  0  0  0
    1.8530   -2.5570    6.5390 H   0  0  0  0  0  0  0  0  0  0  0  0
  1 11  1  0  0  0  0
  2  1  1  0  0  0  0
  2  3  2  0  0  0  0
  4  2  1  0  0  0  0
  4  5  1  0  0  0  0
  4 12  1  0  0  0  0
  5  6  1  0  0  0  0
  6 16  1  6  0  0  0
  6  7  1  0  0  0  0
  6  8  1  0  0  0  0
  7 17  1  0  0  0  0
  8 19  1  0  0  0  0
  9  8  2  0  0  0  0
 10  1  1  0  0  0  0
 13  4  1  0  0  0  0
 14  5  1  0  0  0  0
 15  5  1  0  0  0  0
 18  7  1  0  0  0  0
 19 27  1  0  0  0  0
 19 20  1  0  0  0  0
 20 24  1  0  0  0  0
 20 28  1  1  0  0  0
 21 20  1  0  0  0  0
 21 22  1  0  0  0  0
 21 30  1  0  0  0  0
 22 26  1  0  0  0  0
 23 22  2  0  0  0  0
 24 32  1  0  0  0  0
 25 24  2  0  0  0  0
 29 21  1  0  0  0  0
 31 26  1  0  0  0  0
 32 33  1  0  0  0  0
 32 41  1  0  0  0  0
 33 42  1  6  0  0  0
 33 34  1  0  0  0  0
 34 43  1  0  0  0  0
 34 35  1  0  0  0  0
 34 44  1  0  0  0  0
 35 39  1  0  0  0  0
 36 35  2  0  0  0  0
 37 33  1  0  0  0  0
 37 40  1  0  0  0  0
 38 37  2  0  0  0  0
 39 45  1  0  0  0  0
M  END
$$$$
