QDE.pdb
 OpenBabel07022418313D

 48 47  0  0  1  0  0  0  0  0999 V2000
    3.4360   -3.0470    3.3690 N   0  0  0  0  0  0  0  0  0  0  0  0
    3.4560   -2.5260    2.0280 C   0  0  0  0  0  0  0  0  0  0  0  0
    3.6460   -3.3370    1.1020 O   0  0  0  0  0  0  0  0  0  0  0  0
    3.2480   -1.0770    1.9040 C   0  0  0  0  0  0  0  0  0  0  0  0
    3.2840   -0.5630    0.4820 C   0  0  0  0  0  0  0  0  0  0  0  0
    3.0680    0.9440    0.4530 C   0  0  2  0  0  0  0  0  0  0  0  0
    4.1360    1.6070    1.2220 N   0  0  0  0  0  0  0  0  0  0  0  0
    1.7420    1.2870    1.0330 C   0  0  0  0  0  0  0  0  0  0  0  0
    1.6300    1.9000    2.1360 O   0  0  0  0  0  0  0  0  0  0  0  0
    3.8180   -2.5260    4.1830 H   0  0  0  0  0  0  0  0  0  0  0  0
    3.0180   -3.9870    3.5150 H   0  0  0  0  0  0  0  0  0  0  0  0
    2.2230   -0.8550    2.3130 H   0  0  0  0  0  0  0  0  0  0  0  0
    4.0000   -0.5680    2.5460 H   0  0  0  0  0  0  0  0  0  0  0  0
    2.4640   -1.0110   -0.1060 H   0  0  0  0  0  0  0  0  0  0  0  0
    4.2360   -0.8070   -0.0260 H   0  0  0  0  0  0  0  0  0  0  0  0
    3.1440    1.2900   -0.5750 H   0  0  0  0  0  0  0  0  0  0  0  0
    4.1280    2.6000    0.8620 H   0  0  0  0  0  0  0  0  0  0  0  0
    3.7940    1.6970    2.2260 H   0  0  0  0  0  0  0  0  0  0  0  0
    0.5150    0.9400    0.3740 N   0  0  0  0  0  0  0  0  0  0  0  0
   -0.7650    1.2470    0.9210 C   0  0  1  0  0  0  0  0  0  0  0  0
   -1.5510    2.3160    0.2020 C   0  0  0  0  0  0  0  0  0  0  0  0
   -0.7960    3.5670    0.2180 C   0  0  0  0  0  0  0  0  0  0  0  0
    0.4340    3.6930   -0.0450 O   0  0  0  0  0  0  0  0  0  0  0  0
   -1.6220    0.0720    1.1320 C   0  0  0  0  0  0  0  0  0  0  0  0
   -2.7400    0.2460    1.6510 O   0  0  0  0  0  0  0  0  0  0  0  0
   -1.4700    4.7640    0.5610 O   0  0  0  0  0  0  0  0  0  0  0  0
    0.6270    0.4400   -0.5360 H   0  0  0  0  0  0  0  0  0  0  0  0
   -0.5790    1.6970    1.9480 H   0  0  0  0  0  0  0  0  0  0  0  0
   -1.8330    2.0010   -0.8340 H   0  0  0  0  0  0  0  0  0  0  0  0
   -2.5060    2.4480    0.7440 H   0  0  0  0  0  0  0  0  0  0  0  0
   -0.9950    5.5180    1.0640 H   0  0  0  0  0  0  0  0  0  0  0  0
   -1.2830   -1.2730    0.7910 N   0  0  0  0  0  0  0  0  0  0  0  0
   -2.1400   -2.3980    1.0010 C   0  0  1  0  0  0  0  0  0  0  0  0
   -2.4920   -3.1570   -0.2440 C   0  0  0  0  0  0  0  0  0  0  0  0
   -3.2070   -2.1810   -1.1910 C   0  0  0  0  0  0  0  0  0  0  0  0
   -3.6240   -2.7870   -2.4500 C   0  0  0  0  0  0  0  0  0  0  0  0
   -2.7780   -3.0480   -3.3450 O   0  0  0  0  0  0  0  0  0  0  0  0
   -1.5180   -3.3170    1.9860 C   0  0  0  0  0  0  0  0  0  0  0  0
   -2.1340   -4.3830    2.2990 O   0  0  0  0  0  0  0  0  0  0  0  0
   -4.9430   -3.1050   -2.7340 O   0  0  0  0  0  0  0  0  0  0  0  0
   -0.2900   -3.0690    2.5880 O   0  0  0  0  0  0  0  0  0  0  0  0
   -0.3400   -1.4080    0.3650 H   0  0  0  0  0  0  0  0  0  0  0  0
   -3.1000   -2.0560    1.4800 H   0  0  0  0  0  0  0  0  0  0  0  0
   -1.6750   -3.6740   -0.7380 H   0  0  0  0  0  0  0  0  0  0  0  0
   -3.2650   -3.9260   -0.0140 H   0  0  0  0  0  0  0  0  0  0  0  0
   -4.1260   -1.8880   -0.6280 H   0  0  0  0  0  0  0  0  0  0  0  0
   -2.6110   -1.2590   -1.3260 H   0  0  0  0  0  0  0  0  0  0  0  0
   -5.2630   -3.2790   -3.6600 H   0  0  0  0  0  0  0  0  0  0  0  0
  1 11  1  0  0  0  0
  1 10  1  0  0  0  0
  2  1  1  0  0  0  0
  3  2  2  0  0  0  0
  4  2  1  0  0  0  0
  4 12  1  0  0  0  0
  4 13  1  0  0  0  0
  5  4  1  0  0  0  0
  6 16  1  6  0  0  0
  6  5  1  0  0  0  0
  6  8  1  0  0  0  0
  6  7  1  0  0  0  0
  7 18  1  0  0  0  0
  8  9  2  0  0  0  0
 14  5  1  0  0  0  0
 15  5  1  0  0  0  0
 17  7  1  0  0  0  0
 19 20  1  0  0  0  0
 19  8  1  0  0  0  0
 20 24  1  0  0  0  0
 20 28  1  1  0  0  0
 21 22  1  0  0  0  0
 21 30  1  0  0  0  0
 21 20  1  0  0  0  0
 22 26  1  0  0  0  0
 23 22  2  0  0  0  0
 24 25  2  0  0  0  0
 26 31  1  0  0  0  0
 27 19  1  0  0  0  0
 29 21  1  0  0  0  0
 32 33  1  0  0  0  0
 32 24  1  0  0  0  0
 33 43  1  1  0  0  0
 33 38  1  0  0  0  0
 34 45  1  0  0  0  0
 34 33  1  0  0  0  0
 35 46  1  0  0  0  0
 35 34  1  0  0  0  0
 36 35  1  0  0  0  0
 37 36  2  0  0  0  0
 38 39  2  0  0  0  0
 38 41  1  0  0  0  0
 40 36  1  0  0  0  0
 42 32  1  0  0  0  0
 44 34  1  0  0  0  0
 47 35  1  0  0  0  0
 48 40  1  0  0  0  0
M  END
$$$$
