QDH.pdb
 OpenBabel07022418313D

 49 49  0  0  1  0  0  0  0  0999 V2000
    2.4870   -4.7810    1.1800 N   0  0  0  0  0  0  0  0  0  0  0  0
    2.7960   -3.3990    0.9270 C   0  0  0  0  0  0  0  0  0  0  0  0
    1.8890   -2.5900    1.1610 O   0  0  0  0  0  0  0  0  0  0  0  0
    4.0960   -3.0260    0.4300 C   0  0  0  0  0  0  0  0  0  0  0  0
    4.4430   -1.6020    0.2640 C   0  0  0  0  0  0  0  0  0  0  0  0
    4.4330   -0.7210    1.4540 C   0  0  2  0  0  0  0  0  0  0  0  0
    5.3170   -1.1600    2.5090 N   0  0  0  0  0  0  0  0  0  0  0  0
    3.1210   -0.2280    1.9090 C   0  0  0  0  0  0  0  0  0  0  0  0
    2.7130   -0.3580    3.1000 O   0  0  0  0  0  0  0  0  0  0  0  0
    3.1890   -5.4320    1.5610 H   0  0  0  0  0  0  0  0  0  0  0  0
    1.5360   -5.1360    0.9750 H   0  0  0  0  0  0  0  0  0  0  0  0
    4.2040   -3.4910   -0.6090 H   0  0  0  0  0  0  0  0  0  0  0  0
    4.9420   -3.5620    0.9830 H   0  0  0  0  0  0  0  0  0  0  0  0
    3.8200   -1.0940   -0.5260 H   0  0  0  0  0  0  0  0  0  0  0  0
    5.4820   -1.5740   -0.1940 H   0  0  0  0  0  0  0  0  0  0  0  0
    4.9510    0.2460    1.0840 H   0  0  0  0  0  0  0  0  0  0  0  0
    5.5900   -2.1460    2.3540 H   0  0  0  0  0  0  0  0  0  0  0  0
    4.9860   -0.9380    3.4540 H   0  0  0  0  0  0  0  0  0  0  0  0
    2.2090    0.4440    1.0340 N   0  0  0  0  0  0  0  0  0  0  0  0
    0.9310    0.9210    1.5110 C   0  0  1  0  0  0  0  0  0  0  0  0
    0.8220    2.4370    1.4730 C   0  0  0  0  0  0  0  0  0  0  0  0
    0.9710    3.0110    0.1400 C   0  0  0  0  0  0  0  0  0  0  0  0
    1.1550    2.2740   -0.8510 O   0  0  0  0  0  0  0  0  0  0  0  0
   -0.1110    0.2990    0.6350 C   0  0  0  0  0  0  0  0  0  0  0  0
    0.1830   -0.4730   -0.3130 O   0  0  0  0  0  0  0  0  0  0  0  0
    0.9090    4.3770   -0.0430 O   0  0  0  0  0  0  0  0  0  0  0  0
    2.4700    0.5880    0.0430 H   0  0  0  0  0  0  0  0  0  0  0  0
    0.7760    0.6570    2.5830 H   0  0  0  0  0  0  0  0  0  0  0  0
   -0.1420    2.6860    1.9620 H   0  0  0  0  0  0  0  0  0  0  0  0
    1.6110    2.8040    2.1900 H   0  0  0  0  0  0  0  0  0  0  0  0
    1.0740    4.8220   -0.9500 H   0  0  0  0  0  0  0  0  0  0  0  0
   -1.4990    0.5500    0.8270 N   0  0  0  0  0  0  0  0  0  0  0  0
   -2.5380   -0.0430   -0.0130 C   0  0  1  0  0  0  0  0  0  0  0  0
   -3.3450   -0.9550    0.8850 C   0  0  0  0  0  0  0  0  0  0  0  0
   -4.4460   -1.6340    0.1680 C   0  0  0  0  0  0  0  0  0  0  0  0
   -5.7440   -1.2020    0.0090 C   0  0  0  0  0  0  0  0  0  0  0  0
   -6.4240   -2.1290   -0.7070 N   0  0  0  0  0  0  0  0  0  0  0  0
   -5.5760   -3.1310   -0.9980 C   0  0  0  0  0  0  0  0  0  0  0  0
   -4.3890   -2.8310   -0.4710 N   0  0  0  0  0  0  0  0  0  0  0  0
   -3.3660    0.9640   -0.6670 C   0  0  0  0  0  0  0  0  0  0  0  0
   -4.2910    0.6210   -1.4330 O   0  0  0  0  0  0  0  0  0  0  0  0
   -3.1510    2.3140   -0.4590 O   0  0  0  0  0  0  0  0  0  0  0  0
   -1.7590    1.1880    1.6080 H   0  0  0  0  0  0  0  0  0  0  0  0
   -2.0890   -0.6970   -0.7950 H   0  0  0  0  0  0  0  0  0  0  0  0
   -2.6550   -1.7390    1.2820 H   0  0  0  0  0  0  0  0  0  0  0  0
   -3.7240   -0.4070    1.7760 H   0  0  0  0  0  0  0  0  0  0  0  0
   -6.1850   -0.2920    0.3740 H   0  0  0  0  0  0  0  0  0  0  0  0
   -7.4380   -2.1010   -1.0020 H   0  0  0  0  0  0  0  0  0  0  0  0
   -5.8340   -4.0050   -1.5570 H   0  0  0  0  0  0  0  0  0  0  0  0
  1 10  1  0  0  0  0
  2  3  2  0  0  0  0
  2  1  1  0  0  0  0
  4  2  1  0  0  0  0
  4 13  1  0  0  0  0
  5  4  1  0  0  0  0
  5  6  1  0  0  0  0
  6 16  1  6  0  0  0
  6  8  1  0  0  0  0
  6  7  1  0  0  0  0
  7 18  1  0  0  0  0
  8  9  2  0  0  0  0
 11  1  1  0  0  0  0
 12  4  1  0  0  0  0
 14  5  1  0  0  0  0
 15  5  1  0  0  0  0
 17  7  1  0  0  0  0
 19 20  1  0  0  0  0
 19  8  1  0  0  0  0
 20 28  1  1  0  0  0
 21 20  1  0  0  0  0
 21 29  1  0  0  0  0
 21 30  1  0  0  0  0
 22 21  1  0  0  0  0
 23 22  2  0  0  0  0
 24 32  1  0  0  0  0
 24 20  1  0  0  0  0
 25 24  2  0  0  0  0
 26 22  1  0  0  0  0
 27 19  1  0  0  0  0
 31 26  1  0  0  0  0
 32 43  1  0  0  0  0
 33 44  1  6  0  0  0
 33 32  1  0  0  0  0
 33 34  1  0  0  0  0
 34 45  1  0  0  0  0
 34 46  1  0  0  0  0
 35 34  1  0  0  0  0
 36 35  2  0  0  0  0
 36 47  1  0  0  0  0
 37 36  1  0  0  0  0
 38 37  1  0  0  0  0
 38 39  2  0  0  0  0
 39 35  1  0  0  0  0
 40 42  1  0  0  0  0
 40 33  1  0  0  0  0
 41 40  2  0  0  0  0
 48 37  1  0  0  0  0
 49 38  1  0  0  0  0
M  END
$$$$
