QDI.pdb
 OpenBabel07022418313D

 51 50  0  0  1  0  0  0  0  0999 V2000
    3.0220   -5.0240    3.0670 N   0  0  0  0  0  0  0  0  0  0  0  0
    3.6440   -4.0460    2.2790 C   0  0  0  0  0  0  0  0  0  0  0  0
    4.8880   -4.0630    2.1480 O   0  0  0  0  0  0  0  0  0  0  0  0
    2.8930   -2.9680    1.5740 C   0  0  0  0  0  0  0  0  0  0  0  0
    3.8040   -2.1000    0.7490 C   0  0  0  0  0  0  0  0  0  0  0  0
    2.9890   -1.0510    0.0630 C   0  0  2  0  0  0  0  0  0  0  0  0
    3.7660   -0.1810   -0.8170 N   0  0  0  0  0  0  0  0  0  0  0  0
    2.2880   -0.2250    1.0790 C   0  0  0  0  0  0  0  0  0  0  0  0
    2.5060   -0.2680    2.3090 O   0  0  0  0  0  0  0  0  0  0  0  0
    3.4900   -5.9250    3.2520 H   0  0  0  0  0  0  0  0  0  0  0  0
    2.0850   -4.8480    3.4690 H   0  0  0  0  0  0  0  0  0  0  0  0
    2.3360   -2.4370    2.3520 H   0  0  0  0  0  0  0  0  0  0  0  0
    2.2080   -3.4780    0.8540 H   0  0  0  0  0  0  0  0  0  0  0  0
    4.4960   -1.5920    1.4770 H   0  0  0  0  0  0  0  0  0  0  0  0
    4.3920   -2.6950    0.0150 H   0  0  0  0  0  0  0  0  0  0  0  0
    2.2710   -1.5850   -0.6060 H   0  0  0  0  0  0  0  0  0  0  0  0
    3.0920    0.3870   -1.3640 H   0  0  0  0  0  0  0  0  0  0  0  0
    4.4310   -0.7430   -1.3650 H   0  0  0  0  0  0  0  0  0  0  0  0
    1.2630    0.7190    0.6830 N   0  0  0  0  0  0  0  0  0  0  0  0
    0.5730    1.5320    1.6650 C   0  0  1  0  0  0  0  0  0  0  0  0
    0.6740    2.9670    1.2870 C   0  0  0  0  0  0  0  0  0  0  0  0
    0.0770    3.2640   -0.0330 C   0  0  0  0  0  0  0  0  0  0  0  0
    0.6250    2.9340   -1.1070 O   0  0  0  0  0  0  0  0  0  0  0  0
   -0.8250    1.0200    1.7420 C   0  0  0  0  0  0  0  0  0  0  0  0
   -1.6140    1.6010    2.5300 O   0  0  0  0  0  0  0  0  0  0  0  0
   -1.1300    3.9320   -0.0830 O   0  0  0  0  0  0  0  0  0  0  0  0
    1.0420    0.7870   -0.3210 H   0  0  0  0  0  0  0  0  0  0  0  0
    1.0610    1.3880    2.6680 H   0  0  0  0  0  0  0  0  0  0  0  0
    0.2320    3.6130    2.0910 H   0  0  0  0  0  0  0  0  0  0  0  0
    1.7610    3.2220    1.2710 H   0  0  0  0  0  0  0  0  0  0  0  0
   -1.7940    3.8320   -0.8350 H   0  0  0  0  0  0  0  0  0  0  0  0
   -2.8160   -2.5840   -1.3920 C   0  0  0  0  0  0  0  0  0  0  0  0
   -2.9300   -1.1080   -1.4090 C   0  0  0  0  0  0  0  0  0  0  0  0
   -3.4350   -0.4360   -0.1980 C   0  0  2  0  0  0  0  0  0  0  0  0
   -3.4450    1.0700   -0.5150 C   0  0  0  0  0  0  0  0  0  0  0  0
   -2.6500   -0.5800    1.0500 C   0  0  2  0  0  0  0  0  0  0  0  0
   -1.3070   -0.0830    0.9770 N   0  0  0  0  0  0  0  0  0  0  0  0
   -2.7130   -1.9370    1.6720 C   0  0  0  0  0  0  0  0  0  0  0  0
   -1.6410   -2.4790    2.0490 O   0  0  0  0  0  0  0  0  0  0  0  0
   -3.8810   -2.6260    1.8540 O   0  0  0  0  0  0  0  0  0  0  0  0
   -3.8030   -3.1020   -1.5750 H   0  0  0  0  0  0  0  0  0  0  0  0
   -2.2060   -2.8660   -2.3020 H   0  0  0  0  0  0  0  0  0  0  0  0
   -2.3250   -3.0430   -0.5400 H   0  0  0  0  0  0  0  0  0  0  0  0
   -1.9580   -0.6270   -1.7240 H   0  0  0  0  0  0  0  0  0  0  0  0
   -3.6320   -0.8440   -2.2480 H   0  0  0  0  0  0  0  0  0  0  0  0
   -4.4780   -0.7260    0.0020 H   0  0  0  0  0  0  0  0  0  0  0  0
   -3.6240    1.6040    0.4210 H   0  0  0  0  0  0  0  0  0  0  0  0
   -4.1810    1.2880   -1.3030 H   0  0  0  0  0  0  0  0  0  0  0  0
   -2.4090    1.3080   -0.8470 H   0  0  0  0  0  0  0  0  0  0  0  0
   -3.1750    0.0790    1.8110 H   0  0  0  0  0  0  0  0  0  0  0  0
   -0.6300   -0.5420    0.3330 H   0  0  0  0  0  0  0  0  0  0  0  0
  1 10  1  0  0  0  0
  1 11  1  0  0  0  0
  2  1  1  0  0  0  0
  3  2  2  0  0  0  0
  4  2  1  0  0  0  0
  4 12  1  0  0  0  0
  5 14  1  0  0  0  0
  5  4  1  0  0  0  0
  6 16  1  6  0  0  0
  6  5  1  0  0  0  0
  6  8  1  0  0  0  0
  7  6  1  0  0  0  0
  8  9  2  0  0  0  0
 13  4  1  0  0  0  0
 15  5  1  0  0  0  0
 17  7  1  0  0  0  0
 18  7  1  0  0  0  0
 19  8  1  0  0  0  0
 19 20  1  0  0  0  0
 20 24  1  0  0  0  0
 20 28  1  1  0  0  0
 21 20  1  0  0  0  0
 21 29  1  0  0  0  0
 22 21  1  0  0  0  0
 23 22  2  0  0  0  0
 24 25  2  0  0  0  0
 26 22  1  0  0  0  0
 27 19  1  0  0  0  0
 30 21  1  0  0  0  0
 31 26  1  0  0  0  0
 32 43  1  0  0  0  0
 33 32  1  0  0  0  0
 33 34  1  0  0  0  0
 34 46  1  1  0  0  0
 34 36  1  0  0  0  0
 35 34  1  0  0  0  0
 35 47  1  0  0  0  0
 36 38  1  0  0  0  0
 36 50  1  1  0  0  0
 37 36  1  0  0  0  0
 37 24  1  0  0  0  0
 38 40  2  0  0  0  0
 38 39  1  0  0  0  0
 41 32  1  0  0  0  0
 42 32  1  0  0  0  0
 44 33  1  0  0  0  0
 45 33  1  0  0  0  0
 48 35  1  0  0  0  0
 49 35  1  0  0  0  0
 51 37  1  0  0  0  0
M  END
$$$$
