QDK.pdb
 OpenBabel07022418313D

 53 52  0  0  1  0  0  0  0  0999 V2000
    2.5550   -3.4510   -1.3120 N   0  0  0  0  0  0  0  0  0  0  0  0
    3.2780   -2.3550   -0.7770 C   0  0  0  0  0  0  0  0  0  0  0  0
    4.1520   -1.7780   -1.4550 O   0  0  0  0  0  0  0  0  0  0  0  0
    2.9670   -1.9210    0.6040 C   0  0  0  0  0  0  0  0  0  0  0  0
    3.7480   -0.7570    1.0870 C   0  0  0  0  0  0  0  0  0  0  0  0
    3.6100    0.5150    0.3240 C   0  0  2  0  0  0  0  0  0  0  0  0
    4.4970    1.4750    1.0240 N   0  0  0  0  0  0  0  0  0  0  0  0
    2.2710    1.1030    0.2840 C   0  0  0  0  0  0  0  0  0  0  0  0
    2.0220    2.1710    0.9470 O   0  0  0  0  0  0  0  0  0  0  0  0
    2.3580   -4.2700   -0.6980 H   0  0  0  0  0  0  0  0  0  0  0  0
    2.2010   -3.4960   -2.2900 H   0  0  0  0  0  0  0  0  0  0  0  0
    3.2820   -2.7990    1.2520 H   0  0  0  0  0  0  0  0  0  0  0  0
    1.8790   -1.8410    0.7880 H   0  0  0  0  0  0  0  0  0  0  0  0
    3.4500   -0.5790    2.1480 H   0  0  0  0  0  0  0  0  0  0  0  0
    4.8220   -1.0350    1.0820 H   0  0  0  0  0  0  0  0  0  0  0  0
    4.0380    0.4200   -0.7020 H   0  0  0  0  0  0  0  0  0  0  0  0
    3.9400    2.3150    1.2760 H   0  0  0  0  0  0  0  0  0  0  0  0
    5.2590    1.8060    0.3990 H   0  0  0  0  0  0  0  0  0  0  0  0
    1.1800    0.5710   -0.4620 N   0  0  0  0  0  0  0  0  0  0  0  0
   -0.1140    1.2660   -0.4200 C   0  0  1  0  0  0  0  0  0  0  0  0
   -0.3050    1.9450   -1.7840 C   0  0  0  0  0  0  0  0  0  0  0  0
   -1.5590    2.6810   -1.8910 C   0  0  0  0  0  0  0  0  0  0  0  0
   -2.5820    2.1070   -2.3320 O   0  0  0  0  0  0  0  0  0  0  0  0
   -1.2550    0.3700   -0.1940 C   0  0  0  0  0  0  0  0  0  0  0  0
   -2.4150    0.8900   -0.0530 O   0  0  0  0  0  0  0  0  0  0  0  0
   -1.6990    4.0210   -1.5230 O   0  0  0  0  0  0  0  0  0  0  0  0
    1.2910   -0.2920   -1.0320 H   0  0  0  0  0  0  0  0  0  0  0  0
   -0.0690    2.1130    0.2970 H   0  0  0  0  0  0  0  0  0  0  0  0
    0.5470    2.6370   -1.9080 H   0  0  0  0  0  0  0  0  0  0  0  0
   -0.2440    1.1590   -2.5890 H   0  0  0  0  0  0  0  0  0  0  0  0
   -2.6290    4.4090   -1.4310 H   0  0  0  0  0  0  0  0  0  0  0  0
   -1.1650   -1.0360   -0.1200 N   0  0  0  0  0  0  0  0  0  0  0  0
   -2.2230   -1.9700    0.1120 C   0  0  1  0  0  0  0  0  0  0  0  0
   -3.3760   -1.5070    0.9060 C   0  0  0  0  0  0  0  0  0  0  0  0
   -3.2790   -1.0340    2.2720 C   0  0  0  0  0  0  0  0  0  0  0  0
   -2.8490   -1.8990    3.3810 C   0  0  0  0  0  0  0  0  0  0  0  0
   -1.4930   -2.4790    3.3860 C   0  0  0  0  0  0  0  0  0  0  0  0
   -1.2640   -3.2410    4.6450 N   0  0  0  0  0  0  0  0  0  0  0  0
   -2.7640   -2.4960   -1.1970 C   0  0  0  0  0  0  0  0  0  0  0  0
   -3.6980   -3.3280   -1.1890 O   0  0  0  0  0  0  0  0  0  0  0  0
   -2.2580   -2.0870   -2.4150 O   0  0  0  0  0  0  0  0  0  0  0  0
   -0.1820   -1.4300   -0.2630 H   0  0  0  0  0  0  0  0  0  0  0  0
   -1.7900   -2.8460    0.6160 H   0  0  0  0  0  0  0  0  0  0  0  0
   -3.9660   -0.7900    0.2510 H   0  0  0  0  0  0  0  0  0  0  0  0
   -4.1010   -2.4090    0.9200 H   0  0  0  0  0  0  0  0  0  0  0  0
   -2.6840   -0.0640    2.3770 H   0  0  0  0  0  0  0  0  0  0  0  0
   -4.3490   -0.6560    2.5410 H   0  0  0  0  0  0  0  0  0  0  0  0
   -3.6470   -2.7070    3.5130 H   0  0  0  0  0  0  0  0  0  0  0  0
   -2.9740   -1.3420    4.3820 H   0  0  0  0  0  0  0  0  0  0  0  0
   -1.3540   -3.2550    2.6120 H   0  0  0  0  0  0  0  0  0  0  0  0
   -0.7130   -1.7030    3.3460 H   0  0  0  0  0  0  0  0  0  0  0  0
   -0.5910   -4.0030    4.5010 H   0  0  0  0  0  0  0  0  0  0  0  0
   -0.9950   -2.5950    5.4150 H   0  0  0  0  0  0  0  0  0  0  0  0
  1  2  1  0  0  0  0
  1 10  1  0  0  0  0
  2  4  1  0  0  0  0
  3  2  2  0  0  0  0
  4 13  1  0  0  0  0
  4  5  1  0  0  0  0
  4 12  1  0  0  0  0
  5 14  1  0  0  0  0
  6 16  1  6  0  0  0
  6  7  1  0  0  0  0
  6  5  1  0  0  0  0
  7 17  1  0  0  0  0
  8  6  1  0  0  0  0
  8  9  2  0  0  0  0
 11  1  1  0  0  0  0
 15  5  1  0  0  0  0
 18  7  1  0  0  0  0
 19 20  1  0  0  0  0
 19  8  1  0  0  0  0
 20 24  1  0  0  0  0
 20 28  1  1  0  0  0
 21 20  1  0  0  0  0
 22 21  1  0  0  0  0
 22 26  1  0  0  0  0
 23 22  2  0  0  0  0
 24 32  1  0  0  0  0
 24 25  2  0  0  0  0
 26 31  1  0  0  0  0
 27 19  1  0  0  0  0
 29 21  1  0  0  0  0
 30 21  1  0  0  0  0
 32 33  1  0  0  0  0
 33 43  1  1  0  0  0
 33 34  1  0  0  0  0
 34 45  1  0  0  0  0
 34 35  1  0  0  0  0
 35 46  1  0  0  0  0
 35 47  1  0  0  0  0
 35 36  1  0  0  0  0
 36 37  1  0  0  0  0
 36 48  1  0  0  0  0
 36 49  1  0  0  0  0
 37 38  1  0  0  0  0
 38 53  1  0  0  0  0
 39 40  1  0  0  0  0
 39 33  1  0  0  0  0
 41 39  2  0  0  0  0
 42 32  1  0  0  0  0
 44 34  1  0  0  0  0
 50 37  1  0  0  0  0
 51 37  1  0  0  0  0
 52 38  1  0  0  0  0
M  END
$$$$
