QDN.pdb
 OpenBabel07022418313D

 46 45  0  0  1  0  0  0  0  0999 V2000
    3.7290   -5.1690    1.7240 N   0  0  0  0  0  0  0  0  0  0  0  0
    2.7020   -4.1980    1.5390 C   0  0  0  0  0  0  0  0  0  0  0  0
    1.7100   -4.2940    2.3140 O   0  0  0  0  0  0  0  0  0  0  0  0
    2.7940   -3.1610    0.5120 C   0  0  0  0  0  0  0  0  0  0  0  0
    1.9110   -1.9680    0.6700 C   0  0  0  0  0  0  0  0  0  0  0  0
    2.1620   -1.1290    1.8860 C   0  0  2  0  0  0  0  0  0  0  0  0
    1.9750   -1.8520    3.1050 N   0  0  0  0  0  0  0  0  0  0  0  0
    1.2710    0.0720    1.8020 C   0  0  0  0  0  0  0  0  0  0  0  0
    1.2720    0.7450    0.7170 O   0  0  0  0  0  0  0  0  0  0  0  0
    4.5940   -5.1610    1.1520 H   0  0  0  0  0  0  0  0  0  0  0  0
    3.6150   -5.8990    2.4410 H   0  0  0  0  0  0  0  0  0  0  0  0
    2.5170   -3.6330   -0.4780 H   0  0  0  0  0  0  0  0  0  0  0  0
    3.8720   -2.8570    0.3330 H   0  0  0  0  0  0  0  0  0  0  0  0
    1.9450   -1.3360   -0.2710 H   0  0  0  0  0  0  0  0  0  0  0  0
    0.8460   -2.3360    0.6800 H   0  0  0  0  0  0  0  0  0  0  0  0
    3.2390   -0.7830    1.7920 H   0  0  0  0  0  0  0  0  0  0  0  0
    2.5880   -1.5320    3.8790 H   0  0  0  0  0  0  0  0  0  0  0  0
    0.9810   -1.9170    3.3550 H   0  0  0  0  0  0  0  0  0  0  0  0
    0.4230    0.5200    2.8430 N   0  0  0  0  0  0  0  0  0  0  0  0
   -0.4340    1.6800    2.7270 C   0  0  1  0  0  0  0  0  0  0  0  0
    0.2220    2.9910    2.9170 C   0  0  0  0  0  0  0  0  0  0  0  0
    1.3030    3.3530    2.0220 C   0  0  0  0  0  0  0  0  0  0  0  0
    2.4880    3.0670    2.2960 O   0  0  0  0  0  0  0  0  0  0  0  0
   -1.3910    1.5960    1.5940 C   0  0  0  0  0  0  0  0  0  0  0  0
   -2.0830    2.5750    1.2260 O   0  0  0  0  0  0  0  0  0  0  0  0
    1.0590    4.0210    0.8410 O   0  0  0  0  0  0  0  0  0  0  0  0
    0.4480   -0.0460    3.7400 H   0  0  0  0  0  0  0  0  0  0  0  0
   -1.1580    1.5890    3.6310 H   0  0  0  0  0  0  0  0  0  0  0  0
   -0.5980    3.7720    2.8710 H   0  0  0  0  0  0  0  0  0  0  0  0
    0.5240    3.0360    4.0090 H   0  0  0  0  0  0  0  0  0  0  0  0
    1.7360    3.8960    0.0730 H   0  0  0  0  0  0  0  0  0  0  0  0
   -2.1250   -0.9640   -3.8390 N   0  0  0  0  0  0  0  0  0  0  0  0
   -2.6520   -0.3700   -2.6350 C   0  0  0  0  0  0  0  0  0  0  0  0
   -3.8420    0.0190   -2.7230 O   0  0  0  0  0  0  0  0  0  0  0  0
   -1.7990   -0.2650   -1.4370 C   0  0  0  0  0  0  0  0  0  0  0  0
   -2.4750    0.2790   -0.2250 C   0  0  2  0  0  0  0  0  0  0  0  0
   -1.5370    0.3760    0.9030 N   0  0  0  0  0  0  0  0  0  0  0  0
   -3.5400   -0.6770    0.1960 C   0  0  0  0  0  0  0  0  0  0  0  0
   -3.4650   -1.2210    1.3560 O   0  0  0  0  0  0  0  0  0  0  0  0
   -4.6220   -1.0440   -0.5460 O   0  0  0  0  0  0  0  0  0  0  0  0
   -1.8590   -1.9620   -3.9080 H   0  0  0  0  0  0  0  0  0  0  0  0
   -2.0180   -0.3330   -4.6550 H   0  0  0  0  0  0  0  0  0  0  0  0
   -0.9100    0.3700   -1.7310 H   0  0  0  0  0  0  0  0  0  0  0  0
   -1.3620   -1.2730   -1.2760 H   0  0  0  0  0  0  0  0  0  0  0  0
   -2.9490    1.2610   -0.3610 H   0  0  0  0  0  0  0  0  0  0  0  0
   -1.0250   -0.5000    1.1470 H   0  0  0  0  0  0  0  0  0  0  0  0
  1 11  1  0  0  0  0
  2  1  1  0  0  0  0
  2  3  2  0  0  0  0
  4  5  1  0  0  0  0
  4  2  1  0  0  0  0
  5 15  1  0  0  0  0
  5  6  1  0  0  0  0
  6 16  1  6  0  0  0
  6  7  1  0  0  0  0
  7 18  1  0  0  0  0
  7 17  1  0  0  0  0
  8  6  1  0  0  0  0
  8 19  1  0  0  0  0
  9  8  2  0  0  0  0
 10  1  1  0  0  0  0
 12  4  1  0  0  0  0
 13  4  1  0  0  0  0
 14  5  1  0  0  0  0
 19 27  1  0  0  0  0
 20 19  1  0  0  0  0
 20 21  1  0  0  0  0
 20 28  1  1  0  0  0
 21 30  1  0  0  0  0
 22 23  2  0  0  0  0
 22 21  1  0  0  0  0
 24 20  1  0  0  0  0
 25 24  2  0  0  0  0
 26 22  1  0  0  0  0
 29 21  1  0  0  0  0
 31 26  1  0  0  0  0
 32 33  1  0  0  0  0
 33 35  1  0  0  0  0
 34 33  2  0  0  0  0
 35 44  1  0  0  0  0
 35 36  1  0  0  0  0
 36 45  1  6  0  0  0
 36 38  1  0  0  0  0
 36 37  1  0  0  0  0
 37 46  1  0  0  0  0
 37 24  1  0  0  0  0
 38 39  1  0  0  0  0
 40 38  2  0  0  0  0
 41 32  1  0  0  0  0
 42 32  1  0  0  0  0
 43 35  1  0  0  0  0
M  END
$$$$
