QDP.pdb
 OpenBabel07022418313D

 46 46  0  0  1  0  0  0  0  0999 V2000
    5.0210   -5.6280    1.9280 N   0  0  0  0  0  0  0  0  0  0  0  0
    3.9530   -4.7210    2.2160 C   0  0  0  0  0  0  0  0  0  0  0  0
    2.7800   -5.1330    2.0390 O   0  0  0  0  0  0  0  0  0  0  0  0
    4.2710   -3.3610    2.7040 C   0  0  0  0  0  0  0  0  0  0  0  0
    3.0480   -2.4910    2.7750 C   0  0  0  0  0  0  0  0  0  0  0  0
    2.3970   -2.2740    1.4820 C   0  0  2  0  0  0  0  0  0  0  0  0
    3.3650   -1.6230    0.5820 N   0  0  0  0  0  0  0  0  0  0  0  0
    1.1520   -1.4850    1.5160 C   0  0  0  0  0  0  0  0  0  0  0  0
    0.2200   -1.9050    2.2400 O   0  0  0  0  0  0  0  0  0  0  0  0
    5.9310   -5.2830    1.5970 H   0  0  0  0  0  0  0  0  0  0  0  0
    4.8860   -6.6450    2.0500 H   0  0  0  0  0  0  0  0  0  0  0  0
    4.6610   -3.4860    3.7370 H   0  0  0  0  0  0  0  0  0  0  0  0
    5.0710   -2.8960    2.0720 H   0  0  0  0  0  0  0  0  0  0  0  0
    2.4090   -2.9180    3.5730 H   0  0  0  0  0  0  0  0  0  0  0  0
    3.3920   -1.4930    3.1860 H   0  0  0  0  0  0  0  0  0  0  0  0
    2.1500   -3.2280    0.9880 H   0  0  0  0  0  0  0  0  0  0  0  0
    2.9820   -1.4610   -0.3550 H   0  0  0  0  0  0  0  0  0  0  0  0
    3.8470   -0.8370    1.0280 H   0  0  0  0  0  0  0  0  0  0  0  0
    0.9390   -0.2970    0.7950 N   0  0  0  0  0  0  0  0  0  0  0  0
   -0.2920    0.4860    0.8320 C   0  0  1  0  0  0  0  0  0  0  0  0
    0.0290    1.9190    1.2190 C   0  0  0  0  0  0  0  0  0  0  0  0
    0.6670    2.0260    2.5540 C   0  0  0  0  0  0  0  0  0  0  0  0
    0.9960    3.1240    3.0240 O   0  0  0  0  0  0  0  0  0  0  0  0
   -0.9750    0.4610   -0.4770 C   0  0  0  0  0  0  0  0  0  0  0  0
   -0.3180   -0.0120   -1.4830 O   0  0  0  0  0  0  0  0  0  0  0  0
    0.9040    0.8970    3.2930 O   0  0  0  0  0  0  0  0  0  0  0  0
    1.7160    0.0400    0.1970 H   0  0  0  0  0  0  0  0  0  0  0  0
   -0.9430    0.0530    1.5850 H   0  0  0  0  0  0  0  0  0  0  0  0
   -0.8880    2.5170    1.2570 H   0  0  0  0  0  0  0  0  0  0  0  0
    0.6970    2.3880    0.4340 H   0  0  0  0  0  0  0  0  0  0  0  0
    1.1510    0.8660    4.2580 H   0  0  0  0  0  0  0  0  0  0  0  0
   -2.2770    0.8940   -0.7630 N   0  0  0  0  0  0  0  0  0  0  0  0
   -2.9240    0.9240   -2.0830 C   0  0  0  0  0  0  0  0  0  0  0  0
   -3.9380    2.0340   -1.9970 C   0  0  0  0  0  0  0  0  0  0  0  0
   -3.7660    2.6170   -0.6040 C   0  0  0  0  0  0  0  0  0  0  0  0
   -3.2860    1.3630    0.1440 C   0  0  1  0  0  0  0  0  0  0  0  0
   -4.4830    0.4580    0.1470 C   0  0  0  0  0  0  0  0  0  0  0  0
   -5.4370    0.8080    0.8890 O   0  0  0  0  0  0  0  0  0  0  0  0
   -4.6020   -0.6880   -0.5810 O   0  0  0  0  0  0  0  0  0  0  0  0
   -3.3090   -0.0460   -2.3810 H   0  0  0  0  0  0  0  0  0  0  0  0
   -2.1970    1.2370   -2.8630 H   0  0  0  0  0  0  0  0  0  0  0  0
   -3.7540    2.8590   -2.7130 H   0  0  0  0  0  0  0  0  0  0  0  0
   -4.9430    1.5880   -2.1340 H   0  0  0  0  0  0  0  0  0  0  0  0
   -3.0190    3.4180   -0.5830 H   0  0  0  0  0  0  0  0  0  0  0  0
   -4.7660    2.9270   -0.2580 H   0  0  0  0  0  0  0  0  0  0  0  0
   -2.9610    1.5850    1.1600 H   0  0  0  0  0  0  0  0  0  0  0  0
  1 11  1  0  0  0  0
  1  2  1  0  0  0  0
  2  4  1  0  0  0  0
  3  2  2  0  0  0  0
  4  5  1  0  0  0  0
  4 12  1  0  0  0  0
  5 15  1  0  0  0  0
  5 14  1  0  0  0  0
  6 16  1  6  0  0  0
  6  8  1  0  0  0  0
  6  5  1  0  0  0  0
  7 18  1  0  0  0  0
  7  6  1  0  0  0  0
  8  9  2  0  0  0  0
 10  1  1  0  0  0  0
 13  4  1  0  0  0  0
 17  7  1  0  0  0  0
 19 20  1  0  0  0  0
 19  8  1  0  0  0  0
 20 21  1  0  0  0  0
 20 28  1  1  0  0  0
 21 29  1  0  0  0  0
 21 22  1  0  0  0  0
 22 23  2  0  0  0  0
 22 26  1  0  0  0  0
 24 20  1  0  0  0  0
 25 24  2  0  0  0  0
 26 31  1  0  0  0  0
 27 19  1  0  0  0  0
 30 21  1  0  0  0  0
 32 24  1  0  0  0  0
 32 36  1  0  0  0  0
 33 34  1  0  0  0  0
 33 32  1  0  0  0  0
 34 35  1  0  0  0  0
 35 44  1  0  0  0  0
 35 45  1  0  0  0  0
 35 36  1  0  0  0  0
 36 37  1  0  0  0  0
 36 46  1  1  0  0  0
 37 38  1  0  0  0  0
 39 37  2  0  0  0  0
 40 33  1  0  0  0  0
 41 33  1  0  0  0  0
 42 34  1  0  0  0  0
 43 34  1  0  0  0  0
M  END
$$$$
