QDQ.pdb
 OpenBabel07022418313D

 49 48  0  0  1  0  0  0  0  0999 V2000
    2.9350   -2.4090    5.5120 N   0  0  0  0  0  0  0  0  0  0  0  0
    3.4450   -1.9750    4.2560 C   0  0  0  0  0  0  0  0  0  0  0  0
    3.8080   -2.8810    3.4620 O   0  0  0  0  0  0  0  0  0  0  0  0
    3.5040   -0.5340    3.9970 C   0  0  0  0  0  0  0  0  0  0  0  0
    4.0570   -0.1650    2.6670 C   0  0  0  0  0  0  0  0  0  0  0  0
    3.3210   -0.6880    1.4860 C   0  0  2  0  0  0  0  0  0  0  0  0
    4.0120   -0.2220    0.2870 N   0  0  0  0  0  0  0  0  0  0  0  0
    1.8850   -0.3390    1.4470 C   0  0  0  0  0  0  0  0  0  0  0  0
    1.1780   -0.6900    2.4270 O   0  0  0  0  0  0  0  0  0  0  0  0
    3.5380   -2.4250    6.3560 H   0  0  0  0  0  0  0  0  0  0  0  0
    1.9290   -2.7060    5.5250 H   0  0  0  0  0  0  0  0  0  0  0  0
    4.2200   -0.1090    4.7630 H   0  0  0  0  0  0  0  0  0  0  0  0
    2.5280   -0.0600    4.2190 H   0  0  0  0  0  0  0  0  0  0  0  0
    5.1090   -0.4650    2.5980 H   0  0  0  0  0  0  0  0  0  0  0  0
    4.0440    0.9550    2.6030 H   0  0  0  0  0  0  0  0  0  0  0  0
    3.3750   -1.8020    1.4380 H   0  0  0  0  0  0  0  0  0  0  0  0
    4.0650    0.8050    0.2230 H   0  0  0  0  0  0  0  0  0  0  0  0
    3.5020   -0.6550   -0.5200 H   0  0  0  0  0  0  0  0  0  0  0  0
    1.2980    0.3610    0.3650 N   0  0  0  0  0  0  0  0  0  0  0  0
   -0.1130    0.6580    0.4120 C   0  0  1  0  0  0  0  0  0  0  0  0
   -0.4110    2.1240    0.3220 C   0  0  0  0  0  0  0  0  0  0  0  0
    0.2390    2.8170    1.4620 C   0  0  0  0  0  0  0  0  0  0  0  0
    1.4760    3.0550    1.4470 O   0  0  0  0  0  0  0  0  0  0  0  0
   -0.7910   -0.0590   -0.7280 C   0  0  0  0  0  0  0  0  0  0  0  0
   -0.1190   -0.7660   -1.5150 O   0  0  0  0  0  0  0  0  0  0  0  0
   -0.5290    3.2070    2.5570 O   0  0  0  0  0  0  0  0  0  0  0  0
    1.9120    0.6430   -0.4430 H   0  0  0  0  0  0  0  0  0  0  0  0
   -0.5520    0.2850    1.3570 H   0  0  0  0  0  0  0  0  0  0  0  0
   -1.5020    2.2550    0.3980 H   0  0  0  0  0  0  0  0  0  0  0  0
   -0.0030    2.5000   -0.6400 H   0  0  0  0  0  0  0  0  0  0  0  0
   -0.1270    3.2980    3.4710 H   0  0  0  0  0  0  0  0  0  0  0  0
   -1.3460   -4.3790   -0.7960 N   0  0  0  0  0  0  0  0  0  0  0  0
   -2.2640   -3.4940   -1.4580 C   0  0  0  0  0  0  0  0  0  0  0  0
   -2.2350   -3.4060   -2.7020 O   0  0  0  0  0  0  0  0  0  0  0  0
   -3.2320   -2.6990   -0.6900 C   0  0  0  0  0  0  0  0  0  0  0  0
   -3.8530   -1.6480   -1.5250 C   0  0  0  0  0  0  0  0  0  0  0  0
   -2.8650   -0.6420   -2.0390 C   0  0  2  0  0  0  0  0  0  0  0  0
   -2.1850    0.0420   -0.9450 N   0  0  0  0  0  0  0  0  0  0  0  0
   -3.5310    0.3740   -2.8800 C   0  0  0  0  0  0  0  0  0  0  0  0
   -3.4440    1.5810   -2.5820 O   0  0  0  0  0  0  0  0  0  0  0  0
   -4.2510   -0.0030   -3.9960 O   0  0  0  0  0  0  0  0  0  0  0  0
   -1.0280   -5.2180   -1.3080 H   0  0  0  0  0  0  0  0  0  0  0  0
   -1.0220   -4.1780    0.1560 H   0  0  0  0  0  0  0  0  0  0  0  0
   -2.8020   -2.3170    0.2650 H   0  0  0  0  0  0  0  0  0  0  0  0
   -4.0630   -3.3880   -0.3460 H   0  0  0  0  0  0  0  0  0  0  0  0
   -4.7420   -1.1700   -1.0630 H   0  0  0  0  0  0  0  0  0  0  0  0
   -4.2690   -2.1620   -2.4420 H   0  0  0  0  0  0  0  0  0  0  0  0
   -2.0730   -1.1840   -2.5950 H   0  0  0  0  0  0  0  0  0  0  0  0
   -2.7400    0.6260   -0.2970 H   0  0  0  0  0  0  0  0  0  0  0  0
  1 11  1  0  0  0  0
  1 10  1  0  0  0  0
  2  1  1  0  0  0  0
  3  2  2  0  0  0  0
  4 13  1  0  0  0  0
  4  2  1  0  0  0  0
  4 12  1  0  0  0  0
  5  4  1  0  0  0  0
  6 16  1  1  0  0  0
  6  5  1  0  0  0  0
  7  6  1  0  0  0  0
  8  6  1  0  0  0  0
  8  9  2  0  0  0  0
 14  5  1  0  0  0  0
 15  5  1  0  0  0  0
 17  7  1  0  0  0  0
 18  7  1  0  0  0  0
 19 20  1  0  0  0  0
 19  8  1  0  0  0  0
 20 28  1  1  0  0  0
 21 29  1  0  0  0  0
 21 20  1  0  0  0  0
 21 22  1  0  0  0  0
 22 26  1  0  0  0  0
 23 22  2  0  0  0  0
 24 20  1  0  0  0  0
 25 24  2  0  0  0  0
 26 31  1  0  0  0  0
 27 19  1  0  0  0  0
 30 21  1  0  0  0  0
 32 43  1  0  0  0  0
 33 32  1  0  0  0  0
 33 35  1  0  0  0  0
 34 33  2  0  0  0  0
 35 45  1  0  0  0  0
 35 44  1  0  0  0  0
 36 46  1  0  0  0  0
 36 35  1  0  0  0  0
 37 48  1  6  0  0  0
 37 36  1  0  0  0  0
 37 38  1  0  0  0  0
 38 24  1  0  0  0  0
 38 49  1  0  0  0  0
 39 40  1  0  0  0  0
 39 37  1  0  0  0  0
 41 39  2  0  0  0  0
 42 32  1  0  0  0  0
 47 36  1  0  0  0  0
M  END
$$$$
