QDS.pdb
 OpenBabel07022418313D

 43 42  0  0  1  0  0  0  0  0999 V2000
   -3.2690   -3.7500    3.7910 N   0  0  0  0  0  0  0  0  0  0  0  0
   -2.4240   -2.8230    3.0850 C   0  0  0  0  0  0  0  0  0  0  0  0
   -1.9080   -1.9380    3.8260 O   0  0  0  0  0  0  0  0  0  0  0  0
   -2.1990   -2.9210    1.6350 C   0  0  0  0  0  0  0  0  0  0  0  0
   -1.3810   -1.8140    1.0670 C   0  0  0  0  0  0  0  0  0  0  0  0
   -1.9650   -0.4540    1.2450 C   0  0  2  0  0  0  0  0  0  0  0  0
   -3.2750   -0.3480    0.6110 N   0  0  0  0  0  0  0  0  0  0  0  0
   -1.1290    0.6070    0.5940 C   0  0  0  0  0  0  0  0  0  0  0  0
   -1.5650    1.3900   -0.2870 O   0  0  0  0  0  0  0  0  0  0  0  0
   -3.9990   -3.4360    4.4460 H   0  0  0  0  0  0  0  0  0  0  0  0
   -3.1600   -4.7790    3.6540 H   0  0  0  0  0  0  0  0  0  0  0  0
   -3.1340   -3.0330    1.0370 H   0  0  0  0  0  0  0  0  0  0  0  0
   -1.6710   -3.9120    1.4830 H   0  0  0  0  0  0  0  0  0  0  0  0
   -0.3420   -1.9000    1.4300 H   0  0  0  0  0  0  0  0  0  0  0  0
   -1.2980   -2.0190   -0.0430 H   0  0  0  0  0  0  0  0  0  0  0  0
   -2.0090   -0.2130    2.3170 H   0  0  0  0  0  0  0  0  0  0  0  0
   -3.4720    0.6880    0.4650 H   0  0  0  0  0  0  0  0  0  0  0  0
   -4.0380   -0.7170    1.2200 H   0  0  0  0  0  0  0  0  0  0  0  0
    0.2380    0.7730    0.9620 N   0  0  0  0  0  0  0  0  0  0  0  0
    1.1070    1.7640    0.3890 C   0  0  1  0  0  0  0  0  0  0  0  0
    1.5750    2.6600    1.5120 C   0  0  0  0  0  0  0  0  0  0  0  0
    0.3710    3.2910    2.1260 C   0  0  0  0  0  0  0  0  0  0  0  0
   -0.1790    4.2200    1.4830 O   0  0  0  0  0  0  0  0  0  0  0  0
    2.2410    1.1940   -0.3610 C   0  0  0  0  0  0  0  0  0  0  0  0
    3.0430    2.0250   -0.8850 O   0  0  0  0  0  0  0  0  0  0  0  0
   -0.1660    2.9210    3.3350 O   0  0  0  0  0  0  0  0  0  0  0  0
    0.6050    0.1210    1.6970 H   0  0  0  0  0  0  0  0  0  0  0  0
    0.5550    2.4100   -0.3450 H   0  0  0  0  0  0  0  0  0  0  0  0
    2.2970    3.4200    1.1920 H   0  0  0  0  0  0  0  0  0  0  0  0
    2.0410    1.9900    2.2860 H   0  0  0  0  0  0  0  0  0  0  0  0
   -0.6150    3.6720    3.8810 H   0  0  0  0  0  0  0  0  0  0  0  0
    3.6800   -2.6430   -0.1430 O   0  0  0  0  0  0  0  0  0  0  0  0
    4.4790   -1.5320   -0.4660 C   0  0  0  0  0  0  0  0  0  0  0  0
    3.6640   -0.6040   -1.3140 C   0  0  2  0  0  0  0  0  0  0  0  0
    2.4950   -0.1930   -0.5370 N   0  0  0  0  0  0  0  0  0  0  0  0
    3.2440   -1.3510   -2.5320 C   0  0  0  0  0  0  0  0  0  0  0  0
    4.0710   -1.8050   -3.3560 O   0  0  0  0  0  0  0  0  0  0  0  0
    1.8980   -1.5670   -2.7900 O   0  0  0  0  0  0  0  0  0  0  0  0
    3.2950   -3.0150   -0.9800 H   0  0  0  0  0  0  0  0  0  0  0  0
    5.4460   -1.8150   -0.8860 H   0  0  0  0  0  0  0  0  0  0  0  0
    4.6880   -0.9960    0.5020 H   0  0  0  0  0  0  0  0  0  0  0  0
    4.2200    0.2740   -1.6500 H   0  0  0  0  0  0  0  0  0  0  0  0
    1.8340   -0.8600   -0.1020 H   0  0  0  0  0  0  0  0  0  0  0  0
  1 10  1  0  0  0  0
  2  1  1  0  0  0  0
  2  3  2  0  0  0  0
  4  2  1  0  0  0  0
  5  6  1  0  0  0  0
  5 14  1  0  0  0  0
  5  4  1  0  0  0  0
  6 16  1  1  0  0  0
  7 18  1  0  0  0  0
  7  6  1  0  0  0  0
  8 19  1  0  0  0  0
  8  6  1  0  0  0  0
  9  8  2  0  0  0  0
 11  1  1  0  0  0  0
 12  4  1  0  0  0  0
 13  4  1  0  0  0  0
 15  5  1  0  0  0  0
 17  7  1  0  0  0  0
 19 27  1  0  0  0  0
 20 28  1  6  0  0  0
 20 19  1  0  0  0  0
 20 21  1  0  0  0  0
 21 22  1  0  0  0  0
 21 30  1  0  0  0  0
 22 26  1  0  0  0  0
 23 22  2  0  0  0  0
 24 20  1  0  0  0  0
 25 24  2  0  0  0  0
 26 31  1  0  0  0  0
 29 21  1  0  0  0  0
 33 32  1  0  0  0  0
 33 41  1  0  0  0  0
 34 42  1  6  0  0  0
 34 35  1  0  0  0  0
 34 33  1  0  0  0  0
 35 24  1  0  0  0  0
 35 43  1  0  0  0  0
 36 34  1  0  0  0  0
 37 36  2  0  0  0  0
 38 36  1  0  0  0  0
 39 32  1  0  0  0  0
 40 33  1  0  0  0  0
M  END
$$$$
