QDT.pdb
 OpenBabel07022418313D

 46 45  0  0  1  0  0  0  0  0999 V2000
    3.4030   -4.0190    2.4970 N   0  0  0  0  0  0  0  0  0  0  0  0
    3.9690   -2.7020    2.4240 C   0  0  0  0  0  0  0  0  0  0  0  0
    4.8130   -2.3460    3.2640 O   0  0  0  0  0  0  0  0  0  0  0  0
    3.5220   -1.8320    1.3460 C   0  0  0  0  0  0  0  0  0  0  0  0
    3.8060   -0.3830    1.4540 C   0  0  0  0  0  0  0  0  0  0  0  0
    3.1820    0.3560    2.5810 C   0  0  2  0  0  0  0  0  0  0  0  0
    3.6050   -0.1830    3.8440 N   0  0  0  0  0  0  0  0  0  0  0  0
    1.6930    0.3840    2.4880 C   0  0  0  0  0  0  0  0  0  0  0  0
    1.0360   -0.0410    3.4650 O   0  0  0  0  0  0  0  0  0  0  0  0
    2.3740   -4.1770    2.5910 H   0  0  0  0  0  0  0  0  0  0  0  0
    4.0200   -4.8420    2.4570 H   0  0  0  0  0  0  0  0  0  0  0  0
    3.9250   -2.1780    0.3360 H   0  0  0  0  0  0  0  0  0  0  0  0
    2.4090   -1.9280    1.1890 H   0  0  0  0  0  0  0  0  0  0  0  0
    4.9320   -0.2540    1.4510 H   0  0  0  0  0  0  0  0  0  0  0  0
    3.5050    0.0820    0.4680 H   0  0  0  0  0  0  0  0  0  0  0  0
    3.5030    1.4450    2.5880 H   0  0  0  0  0  0  0  0  0  0  0  0
    2.8640   -0.7230    4.3310 H   0  0  0  0  0  0  0  0  0  0  0  0
    4.1450    0.4580    4.4330 H   0  0  0  0  0  0  0  0  0  0  0  0
    1.0040    0.8670    1.3490 N   0  0  0  0  0  0  0  0  0  0  0  0
   -0.4410    0.8910    1.2640 C   0  0  1  0  0  0  0  0  0  0  0  0
   -0.9930    2.2840    1.1640 C   0  0  0  0  0  0  0  0  0  0  0  0
   -0.5240    3.0260   -0.0240 C   0  0  0  0  0  0  0  0  0  0  0  0
    0.2470    2.4490   -0.8200 O   0  0  0  0  0  0  0  0  0  0  0  0
   -0.8720   -0.0030    0.1910 C   0  0  0  0  0  0  0  0  0  0  0  0
   -0.0320   -0.6490   -0.4970 O   0  0  0  0  0  0  0  0  0  0  0  0
   -0.8950    4.3270   -0.2970 O   0  0  0  0  0  0  0  0  0  0  0  0
    1.6160    1.2050    0.5690 H   0  0  0  0  0  0  0  0  0  0  0  0
   -0.8190    0.4580    2.2370 H   0  0  0  0  0  0  0  0  0  0  0  0
   -0.6430    2.8710    2.0630 H   0  0  0  0  0  0  0  0  0  0  0  0
   -2.0790    2.3360    1.1850 H   0  0  0  0  0  0  0  0  0  0  0  0
   -0.3660    4.8840   -0.9270 H   0  0  0  0  0  0  0  0  0  0  0  0
   -2.6140   -2.9290    0.4810 C   0  0  0  0  0  0  0  0  0  0  0  0
   -3.4710   -2.2150   -0.5370 C   0  0  1  0  0  0  0  0  0  0  0  0
   -4.5660   -1.6910    0.1520 O   0  0  0  0  0  0  0  0  0  0  0  0
   -2.6770   -1.0890   -1.2130 C   0  0  2  0  0  0  0  0  0  0  0  0
   -2.2410   -0.2140   -0.1610 N   0  0  0  0  0  0  0  0  0  0  0  0
   -3.4980   -0.4090   -2.2300 C   0  0  0  0  0  0  0  0  0  0  0  0
   -3.7410    0.8050   -2.1120 O   0  0  0  0  0  0  0  0  0  0  0  0
   -3.9990   -1.0990   -3.3070 O   0  0  0  0  0  0  0  0  0  0  0  0
   -1.8550   -3.5800    0.0240 H   0  0  0  0  0  0  0  0  0  0  0  0
   -3.3180   -3.4760    1.1550 H   0  0  0  0  0  0  0  0  0  0  0  0
   -2.1610   -2.1330    1.1220 H   0  0  0  0  0  0  0  0  0  0  0  0
   -3.8430   -2.8800   -1.3280 H   0  0  0  0  0  0  0  0  0  0  0  0
   -4.2930   -1.1670    0.9470 H   0  0  0  0  0  0  0  0  0  0  0  0
   -1.8480   -1.5920   -1.7370 H   0  0  0  0  0  0  0  0  0  0  0  0
   -2.9440    0.3140    0.3980 H   0  0  0  0  0  0  0  0  0  0  0  0
  1 10  1  0  0  0  0
  2  1  1  0  0  0  0
  2  3  2  0  0  0  0
  4  5  1  0  0  0  0
  4  2  1  0  0  0  0
  5  6  1  0  0  0  0
  6 16  1  6  0  0  0
  6  7  1  0  0  0  0
  7 17  1  0  0  0  0
  7 18  1  0  0  0  0
  8  6  1  0  0  0  0
  8  9  2  0  0  0  0
 11  1  1  0  0  0  0
 12  4  1  0  0  0  0
 13  4  1  0  0  0  0
 14  5  1  0  0  0  0
 15  5  1  0  0  0  0
 19  8  1  0  0  0  0
 20 19  1  0  0  0  0
 20 28  1  1  0  0  0
 21 30  1  0  0  0  0
 21 20  1  0  0  0  0
 21 29  1  0  0  0  0
 22 21  1  0  0  0  0
 23 22  2  0  0  0  0
 24 20  1  0  0  0  0
 25 24  2  0  0  0  0
 26 22  1  0  0  0  0
 27 19  1  0  0  0  0
 31 26  1  0  0  0  0
 32 42  1  0  0  0  0
 32 41  1  0  0  0  0
 33 43  1  6  0  0  0
 33 34  1  0  0  0  0
 33 32  1  0  0  0  0
 34 44  1  0  0  0  0
 35 45  1  6  0  0  0
 35 33  1  0  0  0  0
 35 36  1  0  0  0  0
 36 24  1  0  0  0  0
 36 46  1  0  0  0  0
 37 38  1  0  0  0  0
 37 35  1  0  0  0  0
 39 37  2  0  0  0  0
 40 32  1  0  0  0  0
M  END
$$$$
