QDV.pdb
 OpenBabel07022418313D

 48 47  0  0  1  0  0  0  0  0999 V2000
    1.1740    5.9540   -3.4940 N   0  0  0  0  0  0  0  0  0  0  0  0
    1.2610    4.9200   -2.5260 C   0  0  0  0  0  0  0  0  0  0  0  0
    2.0060    5.0520   -1.5240 O   0  0  0  0  0  0  0  0  0  0  0  0
    0.4650    3.6710   -2.6970 C   0  0  0  0  0  0  0  0  0  0  0  0
    0.7420    2.7290   -1.5250 C   0  0  0  0  0  0  0  0  0  0  0  0
   -0.0580    1.4510   -1.6700 C   0  0  2  0  0  0  0  0  0  0  0  0
   -1.4470    1.8160   -1.6870 N   0  0  0  0  0  0  0  0  0  0  0  0
    0.3180    0.5910   -0.5280 C   0  0  0  0  0  0  0  0  0  0  0  0
    1.5120    0.2280   -0.4450 O   0  0  0  0  0  0  0  0  0  0  0  0
    0.5700    5.8260   -4.3380 H   0  0  0  0  0  0  0  0  0  0  0  0
    1.7150    6.8300   -3.3480 H   0  0  0  0  0  0  0  0  0  0  0  0
   -0.6050    3.8920   -2.7650 H   0  0  0  0  0  0  0  0  0  0  0  0
    0.8110    3.2190   -3.6510 H   0  0  0  0  0  0  0  0  0  0  0  0
    1.8370    2.5370   -1.5380 H   0  0  0  0  0  0  0  0  0  0  0  0
    0.5100    3.2520   -0.5800 H   0  0  0  0  0  0  0  0  0  0  0  0
    0.2700    0.9970   -2.6470 H   0  0  0  0  0  0  0  0  0  0  0  0
   -1.6420    2.6930   -1.1580 H   0  0  0  0  0  0  0  0  0  0  0  0
   -1.7120    2.0220   -2.6890 H   0  0  0  0  0  0  0  0  0  0  0  0
   -0.5610    0.1520    0.4700 N   0  0  0  0  0  0  0  0  0  0  0  0
   -0.1110   -0.6720    1.5340 C   0  0  1  0  0  0  0  0  0  0  0  0
   -0.2850   -0.0690    2.9050 C   0  0  0  0  0  0  0  0  0  0  0  0
    0.4610    1.1970    3.0210 C   0  0  0  0  0  0  0  0  0  0  0  0
    1.7000    1.2050    3.1770 O   0  0  0  0  0  0  0  0  0  0  0  0
   -0.7400   -2.0420    1.4980 C   0  0  0  0  0  0  0  0  0  0  0  0
   -1.5900   -2.3520    0.6230 O   0  0  0  0  0  0  0  0  0  0  0  0
   -0.1990    2.4090    2.9590 O   0  0  0  0  0  0  0  0  0  0  0  0
   -1.5650    0.4300    0.4390 H   0  0  0  0  0  0  0  0  0  0  0  0
    0.9740   -0.8550    1.4050 H   0  0  0  0  0  0  0  0  0  0  0  0
    0.1800   -0.7810    3.6190 H   0  0  0  0  0  0  0  0  0  0  0  0
   -1.3460    0.0110    3.2070 H   0  0  0  0  0  0  0  0  0  0  0  0
    0.2290    3.2470    2.5450 H   0  0  0  0  0  0  0  0  0  0  0  0
    1.2280   -5.5260    2.9020 C   0  0  0  0  0  0  0  0  0  0  0  0
    0.0200   -5.4270    2.0580 C   0  0  0  0  0  0  0  0  0  0  0  0
    0.4240   -5.1410    0.6290 C   0  0  0  0  0  0  0  0  0  0  0  0
   -0.9730   -4.3770    2.4580 C   0  0  2  0  0  0  0  0  0  0  0  0
   -0.4040   -3.0400    2.4400 N   0  0  0  0  0  0  0  0  0  0  0  0
   -1.7170   -4.6730    3.6820 C   0  0  0  0  0  0  0  0  0  0  0  0
   -1.8480   -3.8330    4.6390 O   0  0  0  0  0  0  0  0  0  0  0  0
   -2.3500   -5.8850    3.9250 O   0  0  0  0  0  0  0  0  0  0  0  0
    1.0310   -6.2790    3.6960 H   0  0  0  0  0  0  0  0  0  0  0  0
    1.4830   -4.5870    3.4460 H   0  0  0  0  0  0  0  0  0  0  0  0
    2.1180   -5.9240    2.3440 H   0  0  0  0  0  0  0  0  0  0  0  0
   -0.5040   -6.4140    2.0520 H   0  0  0  0  0  0  0  0  0  0  0  0
    1.2030   -4.3770    0.5300 H   0  0  0  0  0  0  0  0  0  0  0  0
   -0.5210   -4.8450    0.1020 H   0  0  0  0  0  0  0  0  0  0  0  0
    0.7200   -6.0990    0.1530 H   0  0  0  0  0  0  0  0  0  0  0  0
   -1.7250   -4.3720    1.6210 H   0  0  0  0  0  0  0  0  0  0  0  0
    0.3200   -2.7500    3.1670 H   0  0  0  0  0  0  0  0  0  0  0  0
  1 11  1  0  0  0  0
  1  2  1  0  0  0  0
  2  3  2  0  0  0  0
  4  2  1  0  0  0  0
  4  5  1  0  0  0  0
  5 15  1  0  0  0  0
  6 16  1  6  0  0  0
  6  5  1  0  0  0  0
  6  8  1  0  0  0  0
  7  6  1  0  0  0  0
  7 17  1  0  0  0  0
  8  9  2  0  0  0  0
  8 19  1  0  0  0  0
 10  1  1  0  0  0  0
 12  4  1  0  0  0  0
 13  4  1  0  0  0  0
 14  5  1  0  0  0  0
 18  7  1  0  0  0  0
 19 20  1  0  0  0  0
 20 28  1  6  0  0  0
 20 21  1  0  0  0  0
 21 22  1  0  0  0  0
 21 30  1  0  0  0  0
 21 29  1  0  0  0  0
 22 23  2  0  0  0  0
 24 20  1  0  0  0  0
 24 36  1  0  0  0  0
 25 24  2  0  0  0  0
 26 22  1  0  0  0  0
 27 19  1  0  0  0  0
 31 26  1  0  0  0  0
 32 41  1  0  0  0  0
 32 40  1  0  0  0  0
 33 35  1  0  0  0  0
 33 32  1  0  0  0  0
 34 33  1  0  0  0  0
 35 47  1  6  0  0  0
 35 37  1  0  0  0  0
 36 35  1  0  0  0  0
 36 48  1  0  0  0  0
 37 39  2  0  0  0  0
 37 38  1  0  0  0  0
 42 32  1  0  0  0  0
 43 33  1  0  0  0  0
 44 34  1  0  0  0  0
 45 34  1  0  0  0  0
 46 34  1  0  0  0  0
M  END
$$$$
