QDW.pdb
 OpenBabel07022418313D

 56 57  0  0  1  0  0  0  0  0999 V2000
    3.7960    0.1120    7.3910 N   0  0  0  0  0  0  0  0  0  0  0  0
    4.1410   -0.0550    6.0280 C   0  0  0  0  0  0  0  0  0  0  0  0
    5.3000    0.2130    5.6710 O   0  0  0  0  0  0  0  0  0  0  0  0
    3.1180   -0.5500    5.0310 C   0  0  0  0  0  0  0  0  0  0  0  0
    3.7570   -0.6320    3.6740 C   0  0  0  0  0  0  0  0  0  0  0  0
    2.8310   -1.1330    2.6020 C   0  0  2  0  0  0  0  0  0  0  0  0
    3.5490   -1.1870    1.3130 N   0  0  0  0  0  0  0  0  0  0  0  0
    1.6700   -0.2110    2.4570 C   0  0  0  0  0  0  0  0  0  0  0  0
    0.8330   -0.0280    3.3520 O   0  0  0  0  0  0  0  0  0  0  0  0
    2.9770    0.7470    7.6160 H   0  0  0  0  0  0  0  0  0  0  0  0
    4.2740   -0.3310    8.1870 H   0  0  0  0  0  0  0  0  0  0  0  0
    2.2720    0.1580    5.0920 H   0  0  0  0  0  0  0  0  0  0  0  0
    2.7900   -1.5770    5.3270 H   0  0  0  0  0  0  0  0  0  0  0  0
    4.7080   -1.1970    3.7100 H   0  0  0  0  0  0  0  0  0  0  0  0
    3.9970    0.4370    3.3910 H   0  0  0  0  0  0  0  0  0  0  0  0
    2.5200   -2.1600    2.8690 H   0  0  0  0  0  0  0  0  0  0  0  0
    4.5800   -1.2630    1.5690 H   0  0  0  0  0  0  0  0  0  0  0  0
    3.3170   -2.0320    0.7780 H   0  0  0  0  0  0  0  0  0  0  0  0
    1.4630    0.5280    1.2430 N   0  0  0  0  0  0  0  0  0  0  0  0
    0.3300    1.4320    1.0970 C   0  0  1  0  0  0  0  0  0  0  0  0
    0.7700    2.8000    0.6870 C   0  0  0  0  0  0  0  0  0  0  0  0
   -0.3240    3.7750    0.5480 C   0  0  0  0  0  0  0  0  0  0  0  0
   -0.1260    4.9020   -0.0220 O   0  0  0  0  0  0  0  0  0  0  0  0
   -0.5400    0.8030    0.0280 C   0  0  0  0  0  0  0  0  0  0  0  0
   -1.6060    1.3680   -0.2980 O   0  0  0  0  0  0  0  0  0  0  0  0
   -1.6090    3.5680    1.0050 O   0  0  0  0  0  0  0  0  0  0  0  0
    2.1310    0.4130    0.4610 H   0  0  0  0  0  0  0  0  0  0  0  0
   -0.2920    1.4760    2.0070 H   0  0  0  0  0  0  0  0  0  0  0  0
    1.2690    2.6820   -0.3210 H   0  0  0  0  0  0  0  0  0  0  0  0
    1.5240    3.1370    1.4400 H   0  0  0  0  0  0  0  0  0  0  0  0
   -2.1230    4.2950    1.4960 H   0  0  0  0  0  0  0  0  0  0  0  0
   -0.1760   -0.4010   -0.6060 N   0  0  0  0  0  0  0  0  0  0  0  0
   -1.0140   -0.9820   -1.6240 C   0  0  1  0  0  0  0  0  0  0  0  0
   -2.3020   -1.4530   -1.0230 C   0  0  0  0  0  0  0  0  0  0  0  0
   -3.2200   -2.0610   -1.9890 C   0  0  0  0  0  0  0  0  0  0  0  0
   -4.3470   -1.4680   -2.5120 C   0  0  0  0  0  0  0  0  0  0  0  0
   -4.9360   -2.3320   -3.3650 N   0  0  0  0  0  0  0  0  0  0  0  0
   -4.2250   -3.4780   -3.4150 C   0  0  0  0  0  0  0  0  0  0  0  0
   -4.3950   -4.6610   -4.1210 C   0  0  0  0  0  0  0  0  0  0  0  0
   -3.5020   -5.7040   -3.9880 C   0  0  0  0  0  0  0  0  0  0  0  0
   -2.4370   -5.5270   -3.1300 C   0  0  0  0  0  0  0  0  0  0  0  0
   -2.2580   -4.3580   -2.4250 C   0  0  0  0  0  0  0  0  0  0  0  0
   -3.1540   -3.3150   -2.5590 C   0  0  0  0  0  0  0  0  0  0  0  0
   -1.2090    0.0210   -2.7060 C   0  0  0  0  0  0  0  0  0  0  0  0
   -1.9690   -0.2480   -3.6860 O   0  0  0  0  0  0  0  0  0  0  0  0
   -0.5650    1.2290   -2.6380 O   0  0  0  0  0  0  0  0  0  0  0  0
    0.7180   -0.8520   -0.3110 H   0  0  0  0  0  0  0  0  0  0  0  0
   -0.4700   -1.8250   -2.1500 H   0  0  0  0  0  0  0  0  0  0  0  0
   -2.8080   -0.5950   -0.5360 H   0  0  0  0  0  0  0  0  0  0  0  0
   -2.0950   -2.1630   -0.1670 H   0  0  0  0  0  0  0  0  0  0  0  0
   -4.7080   -0.4570   -2.2750 H   0  0  0  0  0  0  0  0  0  0  0  0
   -5.8080   -2.1870   -3.9240 H   0  0  0  0  0  0  0  0  0  0  0  0
   -5.2560   -4.7610   -4.7930 H   0  0  0  0  0  0  0  0  0  0  0  0
   -3.6450   -6.6250   -4.5450 H   0  0  0  0  0  0  0  0  0  0  0  0
   -1.7100   -6.3270   -2.9980 H   0  0  0  0  0  0  0  0  0  0  0  0
   -1.4240   -4.1910   -1.7390 H   0  0  0  0  0  0  0  0  0  0  0  0
  1 10  1  0  0  0  0
  1 11  1  0  0  0  0
  2  1  1  0  0  0  0
  3  2  2  0  0  0  0
  4 12  1  0  0  0  0
  4 13  1  0  0  0  0
  4  2  1  0  0  0  0
  5 14  1  0  0  0  0
  5  4  1  0  0  0  0
  6 16  1  1  0  0  0
  6  5  1  0  0  0  0
  7 17  1  0  0  0  0
  7  6  1  0  0  0  0
  8  6  1  0  0  0  0
  8  9  2  0  0  0  0
 15  5  1  0  0  0  0
 18  7  1  0  0  0  0
 19  8  1  0  0  0  0
 20 19  1  0  0  0  0
 20 28  1  1  0  0  0
 21 20  1  0  0  0  0
 21 30  1  0  0  0  0
 22 21  1  0  0  0  0
 22 26  1  0  0  0  0
 23 22  2  0  0  0  0
 24 20  1  0  0  0  0
 25 24  2  0  0  0  0
 26 31  1  0  0  0  0
 27 19  1  0  0  0  0
 29 21  1  0  0  0  0
 32 47  1  0  0  0  0
 32 24  1  0  0  0  0
 33 48  1  6  0  0  0
 33 34  1  0  0  0  0
 33 32  1  0  0  0  0
 34 49  1  0  0  0  0
 34 50  1  0  0  0  0
 35 34  1  0  0  0  0
 36 51  1  0  0  0  0
 36 35  2  0  0  0  0
 37 36  1  0  0  0  0
 38 37  1  0  0  0  0
 38 43  1  0  0  0  0
 39 40  1  0  0  0  0
 39 38  2  0  0  0  0
 40 41  2  0  0  0  0
 41 55  1  0  0  0  0
 41 42  1  0  0  0  0
 42 56  1  0  0  0  0
 43 42  2  0  0  0  0
 43 35  1  0  0  0  0
 44 46  1  0  0  0  0
 44 33  1  0  0  0  0
 45 44  2  0  0  0  0
 52 37  1  0  0  0  0
 53 39  1  0  0  0  0
 54 40  1  0  0  0  0
M  END
$$$$
