QDY.pdb
 OpenBabel07022418313D

 53 53  0  0  1  0  0  0  0  0999 V2000
   -2.0010    4.1330    2.7180 N   0  0  0  0  0  0  0  0  0  0  0  0
   -1.0920    3.9060    1.6270 C   0  0  0  0  0  0  0  0  0  0  0  0
    0.1310    3.9480    1.9560 O   0  0  0  0  0  0  0  0  0  0  0  0
   -1.5310    3.6590    0.2710 C   0  0  0  0  0  0  0  0  0  0  0  0
   -0.6160    2.8930   -0.5880 C   0  0  0  0  0  0  0  0  0  0  0  0
   -0.3030    1.4960   -0.2970 C   0  0  2  0  0  0  0  0  0  0  0  0
   -1.5060    0.7030   -0.2810 N   0  0  0  0  0  0  0  0  0  0  0  0
    0.5860    1.0780    0.7660 C   0  0  0  0  0  0  0  0  0  0  0  0
    1.7010    1.6080    1.0690 O   0  0  0  0  0  0  0  0  0  0  0  0
   -2.4290    5.0500    2.9270 H   0  0  0  0  0  0  0  0  0  0  0  0
   -2.2400    3.3270    3.3250 H   0  0  0  0  0  0  0  0  0  0  0  0
   -2.5880    3.2610    0.2300 H   0  0  0  0  0  0  0  0  0  0  0  0
   -1.6540    4.6840   -0.2160 H   0  0  0  0  0  0  0  0  0  0  0  0
    0.3720    3.4510   -0.6990 H   0  0  0  0  0  0  0  0  0  0  0  0
   -0.9960    2.9120   -1.6710 H   0  0  0  0  0  0  0  0  0  0  0  0
    0.2150    1.1130   -1.2860 H   0  0  0  0  0  0  0  0  0  0  0  0
   -2.3460    1.1880   -0.6140 H   0  0  0  0  0  0  0  0  0  0  0  0
   -1.3930   -0.2720   -0.5470 H   0  0  0  0  0  0  0  0  0  0  0  0
    0.1750   -0.0660    1.5660 N   0  0  0  0  0  0  0  0  0  0  0  0
    1.0420   -0.5230    2.6160 C   0  0  1  0  0  0  0  0  0  0  0  0
    0.3100   -0.8020    3.8920 C   0  0  0  0  0  0  0  0  0  0  0  0
   -0.3400    0.4440    4.3520 C   0  0  0  0  0  0  0  0  0  0  0  0
   -0.2360    1.5230    3.7060 O   0  0  0  0  0  0  0  0  0  0  0  0
    1.7360   -1.7510    2.1080 C   0  0  0  0  0  0  0  0  0  0  0  0
    2.5600   -2.2870    2.8920 O   0  0  0  0  0  0  0  0  0  0  0  0
   -1.1130    0.5270    5.5220 O   0  0  0  0  0  0  0  0  0  0  0  0
   -0.7390   -0.5370    1.3670 H   0  0  0  0  0  0  0  0  0  0  0  0
    1.8570    0.1980    2.8060 H   0  0  0  0  0  0  0  0  0  0  0  0
    0.9950   -1.1290    4.7030 H   0  0  0  0  0  0  0  0  0  0  0  0
   -0.4750   -1.5700    3.7870 H   0  0  0  0  0  0  0  0  0  0  0  0
   -1.1010    1.3710    6.0850 H   0  0  0  0  0  0  0  0  0  0  0  0
   -2.7610   -2.9950   -3.7260 O   0  0  0  0  0  0  0  0  0  0  0  0
   -1.8020   -3.3860   -2.8080 C   0  0  0  0  0  0  0  0  0  0  0  0
   -1.9920   -3.1270   -1.4770 C   0  0  0  0  0  0  0  0  0  0  0  0
   -1.0380   -3.5140   -0.5500 C   0  0  0  0  0  0  0  0  0  0  0  0
    0.1210   -4.1640   -0.9260 C   0  0  0  0  0  0  0  0  0  0  0  0
    1.1340   -4.5790    0.0710 C   0  0  0  0  0  0  0  0  0  0  0  0
    2.1500   -3.4770    0.3240 C   0  0  2  0  0  0  0  0  0  0  0  0
    1.4920   -2.2880    0.8270 N   0  0  0  0  0  0  0  0  0  0  0  0
    2.9770   -3.1980   -0.8600 C   0  0  0  0  0  0  0  0  0  0  0  0
    3.6390   -4.1330   -1.4190 O   0  0  0  0  0  0  0  0  0  0  0  0
    0.2960   -4.4160   -2.2700 C   0  0  0  0  0  0  0  0  0  0  0  0
   -0.6530   -4.0330   -3.2000 C   0  0  0  0  0  0  0  0  0  0  0  0
    3.1130   -1.9470   -1.4570 O   0  0  0  0  0  0  0  0  0  0  0  0
   -3.7470   -2.9060   -3.4910 H   0  0  0  0  0  0  0  0  0  0  0  0
   -2.8970   -2.6140   -1.1370 H   0  0  0  0  0  0  0  0  0  0  0  0
   -1.1950   -3.3070    0.5010 H   0  0  0  0  0  0  0  0  0  0  0  0
    1.6420   -5.5220   -0.2250 H   0  0  0  0  0  0  0  0  0  0  0  0
    0.6700   -4.7840    1.0720 H   0  0  0  0  0  0  0  0  0  0  0  0
    2.8300   -3.8570    1.1110 H   0  0  0  0  0  0  0  0  0  0  0  0
    0.8030   -1.7990    0.2190 H   0  0  0  0  0  0  0  0  0  0  0  0
    1.1980   -4.9250   -2.5880 H   0  0  0  0  0  0  0  0  0  0  0  0
   -0.5300   -4.2240   -4.2570 H   0  0  0  0  0  0  0  0  0  0  0  0
  1 10  1  0  0  0  0
  1 11  1  0  0  0  0
  2  3  2  0  0  0  0
  2  1  1  0  0  0  0
  4  2  1  0  0  0  0
  5  6  1  0  0  0  0
  5  4  1  0  0  0  0
  6 16  1  6  0  0  0
  6  7  1  0  0  0  0
  6  8  1  0  0  0  0
  8  9  2  0  0  0  0
  8 19  1  0  0  0  0
 12  4  1  0  0  0  0
 13  4  1  0  0  0  0
 14  5  1  0  0  0  0
 15  5  1  0  0  0  0
 17  7  1  0  0  0  0
 18  7  1  0  0  0  0
 19 20  1  0  0  0  0
 20 28  1  1  0  0  0
 20 21  1  0  0  0  0
 21 22  1  0  0  0  0
 21 29  1  0  0  0  0
 22 26  1  0  0  0  0
 23 22  2  0  0  0  0
 24 20  1  0  0  0  0
 24 25  2  0  0  0  0
 26 31  1  0  0  0  0
 27 19  1  0  0  0  0
 30 21  1  0  0  0  0
 32 45  1  0  0  0  0
 32 33  1  0  0  0  0
 33 34  1  0  0  0  0
 34 46  1  0  0  0  0
 34 35  2  0  0  0  0
 35 47  1  0  0  0  0
 36 35  1  0  0  0  0
 36 37  1  0  0  0  0
 37 38  1  0  0  0  0
 37 49  1  0  0  0  0
 38 39  1  0  0  0  0
 38 50  1  1  0  0  0
 39 24  1  0  0  0  0
 40 38  1  0  0  0  0
 41 40  1  0  0  0  0
 42 36  2  0  0  0  0
 43 33  2  0  0  0  0
 43 42  1  0  0  0  0
 44 40  2  0  0  0  0
 48 37  1  0  0  0  0
 51 39  1  0  0  0  0
 52 42  1  0  0  0  0
 53 43  1  0  0  0  0
M  END
$$$$
