QEG.pdb
 OpenBabel07022418313D

 42 41  0  0  1  0  0  0  0  0999 V2000
    0.4210   -6.1050    3.0940 N   0  0  0  0  0  0  0  0  0  0  0  0
    0.5350   -4.7150    2.9320 C   0  0  0  0  0  0  0  0  0  0  0  0
   -0.4090   -3.9350    3.2260 O   0  0  0  0  0  0  0  0  0  0  0  0
    1.7890   -4.1470    2.4050 C   0  0  0  0  0  0  0  0  0  0  0  0
    1.6970   -2.6870    2.0510 C   0  0  0  0  0  0  0  0  0  0  0  0
    0.7020   -2.4810    0.9620 C   0  0  2  0  0  0  0  0  0  0  0  0
    1.1760   -3.2690   -0.1940 N   0  0  0  0  0  0  0  0  0  0  0  0
    0.5910   -1.0790    0.4940 C   0  0  0  0  0  0  0  0  0  0  0  0
    0.8870   -0.7800   -0.6750 O   0  0  0  0  0  0  0  0  0  0  0  0
   -0.1910   -6.4750    3.8540 H   0  0  0  0  0  0  0  0  0  0  0  0
    0.9130   -6.8120    2.5010 H   0  0  0  0  0  0  0  0  0  0  0  0
    2.0520   -4.7690    1.5050 H   0  0  0  0  0  0  0  0  0  0  0  0
    2.6270   -4.3340    3.1270 H   0  0  0  0  0  0  0  0  0  0  0  0
    2.7050   -2.3180    1.7510 H   0  0  0  0  0  0  0  0  0  0  0  0
    1.4360   -2.0760    2.9550 H   0  0  0  0  0  0  0  0  0  0  0  0
   -0.2560   -2.9220    1.2270 H   0  0  0  0  0  0  0  0  0  0  0  0
    0.4000   -3.7050   -0.7130 H   0  0  0  0  0  0  0  0  0  0  0  0
    1.7110   -2.6600   -0.8590 H   0  0  0  0  0  0  0  0  0  0  0  0
    0.1450    0.0120    1.3230 N   0  0  0  0  0  0  0  0  0  0  0  0
    0.0390    1.3580    0.8310 C   0  0  1  0  0  0  0  0  0  0  0  0
    1.2890    2.0600    0.4820 C   0  0  0  0  0  0  0  0  0  0  0  0
    2.2880    2.2680    1.5700 C   0  0  0  0  0  0  0  0  0  0  0  0
    2.7480    0.9880    2.1190 C   0  0  0  0  0  0  0  0  0  0  0  0
    2.3250    0.4870    3.1760 O   0  0  0  0  0  0  0  0  0  0  0  0
   -0.9400    1.4240   -0.3210 C   0  0  0  0  0  0  0  0  0  0  0  0
   -1.4820    0.3480   -0.6510 O   0  0  0  0  0  0  0  0  0  0  0  0
    3.7340    0.3110    1.3730 O   0  0  0  0  0  0  0  0  0  0  0  0
   -0.1010   -0.2880    2.3110 H   0  0  0  0  0  0  0  0  0  0  0  0
   -0.4180    1.9440    1.6950 H   0  0  0  0  0  0  0  0  0  0  0  0
    0.9840    3.1000    0.1380 H   0  0  0  0  0  0  0  0  0  0  0  0
    1.8430    1.6130   -0.3760 H   0  0  0  0  0  0  0  0  0  0  0  0
    1.8380    2.9010    2.3920 H   0  0  0  0  0  0  0  0  0  0  0  0
    3.1440    2.8510    1.1100 H   0  0  0  0  0  0  0  0  0  0  0  0
    4.2130   -0.4620    1.7830 H   0  0  0  0  0  0  0  0  0  0  0  0
   -1.2570    2.5950   -1.0140 N   0  0  0  0  0  0  0  0  0  0  0  0
   -2.1930    2.6600   -2.1210 C   0  0  0  0  0  0  0  0  0  0  0  0
   -3.5070    2.2120   -1.6320 C   0  0  0  0  0  0  0  0  0  0  0  0
   -4.4960    2.1680   -2.3930 O   0  0  0  0  0  0  0  0  0  0  0  0
   -3.6610    1.8340   -0.3170 O   0  0  0  0  0  0  0  0  0  0  0  0
   -0.8040    3.4870   -0.7330 H   0  0  0  0  0  0  0  0  0  0  0  0
   -1.8440    1.9910   -2.9680 H   0  0  0  0  0  0  0  0  0  0  0  0
   -2.2200    3.6700   -2.5790 H   0  0  0  0  0  0  0  0  0  0  0  0
  1 10  1  0  0  0  0
  2  1  1  0  0  0  0
  2  3  2  0  0  0  0
  4  2  1  0  0  0  0
  4 13  1  0  0  0  0
  5  4  1  0  0  0  0
  5 15  1  0  0  0  0
  6 16  1  1  0  0  0
  6  5  1  0  0  0  0
  7  6  1  0  0  0  0
  8  6  1  0  0  0  0
  8 19  1  0  0  0  0
  9  8  2  0  0  0  0
 11  1  1  0  0  0  0
 12  4  1  0  0  0  0
 14  5  1  0  0  0  0
 17  7  1  0  0  0  0
 18  7  1  0  0  0  0
 19 28  1  0  0  0  0
 20 19  1  0  0  0  0
 20 29  1  1  0  0  0
 21 20  1  0  0  0  0
 21 22  1  0  0  0  0
 22 23  1  0  0  0  0
 22 32  1  0  0  0  0
 23 24  2  0  0  0  0
 25 20  1  0  0  0  0
 26 25  2  0  0  0  0
 27 34  1  0  0  0  0
 27 23  1  0  0  0  0
 30 21  1  0  0  0  0
 31 21  1  0  0  0  0
 33 22  1  0  0  0  0
 35 40  1  0  0  0  0
 35 25  1  0  0  0  0
 36 37  1  0  0  0  0
 36 35  1  0  0  0  0
 37 39  1  0  0  0  0
 38 37  2  0  0  0  0
 41 36  1  0  0  0  0
 42 36  1  0  0  0  0
M  END
$$$$
