QEH.pdb
 OpenBabel07022418313D

 52 52  0  0  1  0  0  0  0  0999 V2000
    2.5350   -5.0290    0.1350 N   0  0  0  0  0  0  0  0  0  0  0  0
    3.3510   -3.9160   -0.2140 C   0  0  0  0  0  0  0  0  0  0  0  0
    4.5700   -4.0080    0.0250 O   0  0  0  0  0  0  0  0  0  0  0  0
    2.7260   -2.7530   -0.8240 C   0  0  0  0  0  0  0  0  0  0  0  0
    3.5030   -1.4970   -0.9020 C   0  0  0  0  0  0  0  0  0  0  0  0
    3.9070   -0.8700    0.3930 C   0  0  2  0  0  0  0  0  0  0  0  0
    4.7270   -1.7260    1.1710 N   0  0  0  0  0  0  0  0  0  0  0  0
    2.6210   -0.5230    1.0980 C   0  0  0  0  0  0  0  0  0  0  0  0
    2.3320   -0.9700    2.2290 O   0  0  0  0  0  0  0  0  0  0  0  0
    2.7990   -5.6690    0.9420 H   0  0  0  0  0  0  0  0  0  0  0  0
    1.6550   -5.2820   -0.3590 H   0  0  0  0  0  0  0  0  0  0  0  0
    1.7120   -2.5230   -0.3570 H   0  0  0  0  0  0  0  0  0  0  0  0
    2.4310   -3.0280   -1.8860 H   0  0  0  0  0  0  0  0  0  0  0  0
    2.9180   -0.7390   -1.5070 H   0  0  0  0  0  0  0  0  0  0  0  0
    4.4690   -1.6600   -1.4760 H   0  0  0  0  0  0  0  0  0  0  0  0
    4.3710    0.1200    0.1780 H   0  0  0  0  0  0  0  0  0  0  0  0
    4.5220   -1.7250    2.2010 H   0  0  0  0  0  0  0  0  0  0  0  0
    5.7320   -1.4740    0.9880 H   0  0  0  0  0  0  0  0  0  0  0  0
    1.7400    0.3450    0.4130 N   0  0  0  0  0  0  0  0  0  0  0  0
    0.4380    0.7660    0.9960 C   0  0  1  0  0  0  0  0  0  0  0  0
    0.5440    2.2520    1.0900 C   0  0  0  0  0  0  0  0  0  0  0  0
   -0.6160    2.9860    1.6520 C   0  0  0  0  0  0  0  0  0  0  0  0
   -0.9630    2.5950    3.0300 C   0  0  0  0  0  0  0  0  0  0  0  0
   -0.3220    1.7390    3.6620 O   0  0  0  0  0  0  0  0  0  0  0  0
   -0.5870    0.2840    0.0660 C   0  0  0  0  0  0  0  0  0  0  0  0
   -0.2510   -0.2750   -1.0030 O   0  0  0  0  0  0  0  0  0  0  0  0
   -2.0620    3.2320    3.6120 O   0  0  0  0  0  0  0  0  0  0  0  0
    1.9320    0.7430   -0.5240 H   0  0  0  0  0  0  0  0  0  0  0  0
    0.3340    0.2820    2.0000 H   0  0  0  0  0  0  0  0  0  0  0  0
    1.4880    2.4940    1.6520 H   0  0  0  0  0  0  0  0  0  0  0  0
    0.7020    2.6270    0.0380 H   0  0  0  0  0  0  0  0  0  0  0  0
   -1.4690    3.0150    0.9600 H   0  0  0  0  0  0  0  0  0  0  0  0
   -0.2800    4.0710    1.7200 H   0  0  0  0  0  0  0  0  0  0  0  0
   -2.5730    2.7590    4.3740 H   0  0  0  0  0  0  0  0  0  0  0  0
   -1.9750    0.4100    0.3070 N   0  0  0  0  0  0  0  0  0  0  0  0
   -2.9370   -0.1010   -0.6550 C   0  0  1  0  0  0  0  0  0  0  0  0
   -4.0280   -0.9140   -0.0580 C   0  0  0  0  0  0  0  0  0  0  0  0
   -3.6300   -2.1240    0.6620 C   0  0  0  0  0  0  0  0  0  0  0  0
   -2.4380   -2.7170    0.9130 C   0  0  0  0  0  0  0  0  0  0  0  0
   -2.6660   -3.8340    1.6280 N   0  0  0  0  0  0  0  0  0  0  0  0
   -3.9870   -3.9460    1.8270 C   0  0  0  0  0  0  0  0  0  0  0  0
   -4.5760   -2.9190    1.2480 N   0  0  0  0  0  0  0  0  0  0  0  0
   -3.5770    1.0650   -1.3190 C   0  0  0  0  0  0  0  0  0  0  0  0
   -4.4590    0.9190   -2.2010 O   0  0  0  0  0  0  0  0  0  0  0  0
   -3.2190    2.3500   -0.9830 O   0  0  0  0  0  0  0  0  0  0  0  0
   -2.3560    0.8510    1.1540 H   0  0  0  0  0  0  0  0  0  0  0  0
   -2.4010   -0.6870   -1.4600 H   0  0  0  0  0  0  0  0  0  0  0  0
   -4.7150   -1.2470   -0.8880 H   0  0  0  0  0  0  0  0  0  0  0  0
   -4.6800   -0.3110    0.6130 H   0  0  0  0  0  0  0  0  0  0  0  0
   -1.4810   -2.3640    0.5960 H   0  0  0  0  0  0  0  0  0  0  0  0
   -1.9870   -4.5430    2.0010 H   0  0  0  0  0  0  0  0  0  0  0  0
   -4.5180   -4.7290    2.3650 H   0  0  0  0  0  0  0  0  0  0  0  0
  1 10  1  0  0  0  0
  2  3  2  0  0  0  0
  2  1  1  0  0  0  0
  4 12  1  0  0  0  0
  4  2  1  0  0  0  0
  5  4  1  0  0  0  0
  5  6  1  0  0  0  0
  6 16  1  6  0  0  0
  6  8  1  0  0  0  0
  6  7  1  0  0  0  0
  7 17  1  0  0  0  0
  8  9  2  0  0  0  0
 11  1  1  0  0  0  0
 13  4  1  0  0  0  0
 14  5  1  0  0  0  0
 15  5  1  0  0  0  0
 18  7  1  0  0  0  0
 19 20  1  0  0  0  0
 19  8  1  0  0  0  0
 20 21  1  0  0  0  0
 20 29  1  1  0  0  0
 21 30  1  0  0  0  0
 21 22  1  0  0  0  0
 22 33  1  0  0  0  0
 22 23  1  0  0  0  0
 23 27  1  0  0  0  0
 23 24  2  0  0  0  0
 25 35  1  0  0  0  0
 25 20  1  0  0  0  0
 26 25  2  0  0  0  0
 27 34  1  0  0  0  0
 28 19  1  0  0  0  0
 31 21  1  0  0  0  0
 32 22  1  0  0  0  0
 35 46  1  0  0  0  0
 36 47  1  6  0  0  0
 36 37  1  0  0  0  0
 36 35  1  0  0  0  0
 37 49  1  0  0  0  0
 37 38  1  0  0  0  0
 38 39  2  0  0  0  0
 38 42  1  0  0  0  0
 39 40  1  0  0  0  0
 40 41  1  0  0  0  0
 40 51  1  0  0  0  0
 41 52  1  0  0  0  0
 42 41  2  0  0  0  0
 43 45  1  0  0  0  0
 43 36  1  0  0  0  0
 44 43  2  0  0  0  0
 48 37  1  0  0  0  0
 50 39  1  0  0  0  0
M  END
$$$$
