QEI.pdb
 OpenBabel07022418313D

 54 53  0  0  1  0  0  0  0  0999 V2000
    1.9230   -4.9060   -1.2130 N   0  0  0  0  0  0  0  0  0  0  0  0
    2.5200   -3.6180   -1.2200 C   0  0  0  0  0  0  0  0  0  0  0  0
    3.7720   -3.6040   -1.2480 O   0  0  0  0  0  0  0  0  0  0  0  0
    1.7500   -2.3750   -1.1990 C   0  0  0  0  0  0  0  0  0  0  0  0
    2.4780   -1.1200   -0.9530 C   0  0  0  0  0  0  0  0  0  0  0  0
    3.1830   -0.9350    0.3310 C   0  0  2  0  0  0  0  0  0  0  0  0
    4.2170   -1.8900    0.6290 N   0  0  0  0  0  0  0  0  0  0  0  0
    2.2790   -0.7120    1.4920 C   0  0  0  0  0  0  0  0  0  0  0  0
    2.4200   -1.3010    2.5920 O   0  0  0  0  0  0  0  0  0  0  0  0
    2.1910   -5.5660   -0.4620 H   0  0  0  0  0  0  0  0  0  0  0  0
    1.2360   -5.2070   -1.9260 H   0  0  0  0  0  0  0  0  0  0  0  0
    0.8120   -2.4740   -0.5660 H   0  0  0  0  0  0  0  0  0  0  0  0
    1.3030   -2.2800   -2.2390 H   0  0  0  0  0  0  0  0  0  0  0  0
    3.2690   -1.0410   -1.7630 H   0  0  0  0  0  0  0  0  0  0  0  0
    1.7900   -0.2710   -1.1600 H   0  0  0  0  0  0  0  0  0  0  0  0
    3.7350    0.0550    0.2310 H   0  0  0  0  0  0  0  0  0  0  0  0
    4.2500   -2.1600    1.6490 H   0  0  0  0  0  0  0  0  0  0  0  0
    5.1790   -1.5560    0.3960 H   0  0  0  0  0  0  0  0  0  0  0  0
    1.1910    0.2000    1.3980 N   0  0  0  0  0  0  0  0  0  0  0  0
    0.2870    0.4390    2.5310 C   0  0  1  0  0  0  0  0  0  0  0  0
    0.2860    1.8910    2.9110 C   0  0  0  0  0  0  0  0  0  0  0  0
    1.6310    2.3800    3.3090 C   0  0  0  0  0  0  0  0  0  0  0  0
    2.2410    1.7350    4.4690 C   0  0  0  0  0  0  0  0  0  0  0  0
    1.6350    0.8500    5.1070 O   0  0  0  0  0  0  0  0  0  0  0  0
   -1.0970    0.0070    2.1350 C   0  0  0  0  0  0  0  0  0  0  0  0
   -2.0530    0.1290    2.9440 O   0  0  0  0  0  0  0  0  0  0  0  0
    3.5110    2.0940    4.8880 O   0  0  0  0  0  0  0  0  0  0  0  0
    1.0010    0.7340    0.5080 H   0  0  0  0  0  0  0  0  0  0  0  0
    0.6190   -0.1970    3.3520 H   0  0  0  0  0  0  0  0  0  0  0  0
   -0.4260    2.0400    3.7500 H   0  0  0  0  0  0  0  0  0  0  0  0
   -0.0390    2.4850    2.0300 H   0  0  0  0  0  0  0  0  0  0  0  0
    2.3490    2.2390    2.4460 H   0  0  0  0  0  0  0  0  0  0  0  0
    1.5660    3.4920    3.4130 H   0  0  0  0  0  0  0  0  0  0  0  0
    3.8380    1.8640    5.8240 H   0  0  0  0  0  0  0  0  0  0  0  0
   -5.1380    0.4110   -2.1560 C   0  0  0  0  0  0  0  0  0  0  0  0
   -4.6310   -0.5010   -1.0380 C   0  0  0  0  0  0  0  0  0  0  0  0
   -3.2300   -0.1410   -0.6450 C   0  0  2  0  0  0  0  0  0  0  0  0
   -2.3440   -0.3190   -1.8650 C   0  0  0  0  0  0  0  0  0  0  0  0
   -2.7690   -0.9490    0.5310 C   0  0  2  0  0  0  0  0  0  0  0  0
   -1.3990   -0.5460    0.8680 N   0  0  0  0  0  0  0  0  0  0  0  0
   -2.8450   -2.3920    0.2920 C   0  0  0  0  0  0  0  0  0  0  0  0
   -3.8920   -3.0320    0.0460 O   0  0  0  0  0  0  0  0  0  0  0  0
   -1.6780   -3.1930    0.3260 O   0  0  0  0  0  0  0  0  0  0  0  0
   -5.8250   -0.1830   -2.7870 H   0  0  0  0  0  0  0  0  0  0  0  0
   -5.7220    1.2290   -1.7150 H   0  0  0  0  0  0  0  0  0  0  0  0
   -4.2870    0.8110   -2.7490 H   0  0  0  0  0  0  0  0  0  0  0  0
   -5.3560   -0.4510   -0.2090 H   0  0  0  0  0  0  0  0  0  0  0  0
   -4.6220   -1.5390   -1.4460 H   0  0  0  0  0  0  0  0  0  0  0  0
   -3.2230    0.9570   -0.3990 H   0  0  0  0  0  0  0  0  0  0  0  0
   -1.9050    0.6260   -2.1870 H   0  0  0  0  0  0  0  0  0  0  0  0
   -1.5030   -1.0220   -1.6540 H   0  0  0  0  0  0  0  0  0  0  0  0
   -2.9070   -0.7800   -2.7160 H   0  0  0  0  0  0  0  0  0  0  0  0
   -3.4090   -0.7140    1.3920 H   0  0  0  0  0  0  0  0  0  0  0  0
   -0.6480   -0.6700    0.1640 H   0  0  0  0  0  0  0  0  0  0  0  0
  1 10  1  0  0  0  0
  2  1  1  0  0  0  0
  2  4  1  0  0  0  0
  3  2  2  0  0  0  0
  4  5  1  0  0  0  0
  4 12  1  0  0  0  0
  5  6  1  0  0  0  0
  6 16  1  6  0  0  0
  6  7  1  0  0  0  0
  6  8  1  0  0  0  0
  7 17  1  0  0  0  0
  8  9  2  0  0  0  0
 11  1  1  0  0  0  0
 13  4  1  0  0  0  0
 14  5  1  0  0  0  0
 15  5  1  0  0  0  0
 18  7  1  0  0  0  0
 19  8  1  0  0  0  0
 19 20  1  0  0  0  0
 20 21  1  0  0  0  0
 20 29  1  1  0  0  0
 21 22  1  0  0  0  0
 21 30  1  0  0  0  0
 22 33  1  0  0  0  0
 22 23  1  0  0  0  0
 23 27  1  0  0  0  0
 23 24  2  0  0  0  0
 25 20  1  0  0  0  0
 25 26  2  0  0  0  0
 27 34  1  0  0  0  0
 28 19  1  0  0  0  0
 31 21  1  0  0  0  0
 32 22  1  0  0  0  0
 35 45  1  0  0  0  0
 35 36  1  0  0  0  0
 36 37  1  0  0  0  0
 36 47  1  0  0  0  0
 37 49  1  1  0  0  0
 37 39  1  0  0  0  0
 38 51  1  0  0  0  0
 38 37  1  0  0  0  0
 39 40  1  0  0  0  0
 39 53  1  1  0  0  0
 40 25  1  0  0  0  0
 41 43  1  0  0  0  0
 41 39  1  0  0  0  0
 42 41  2  0  0  0  0
 44 35  1  0  0  0  0
 46 35  1  0  0  0  0
 48 36  1  0  0  0  0
 50 38  1  0  0  0  0
 52 38  1  0  0  0  0
 54 40  1  0  0  0  0
M  END
$$$$
