QEK.pdb
 OpenBabel07022418313D

 56 55  0  0  1  0  0  0  0  0999 V2000
    1.4310   -3.6990   -0.2320 N   0  0  0  0  0  0  0  0  0  0  0  0
    2.5180   -2.8190    0.0180 C   0  0  0  0  0  0  0  0  0  0  0  0
    3.3620   -2.6940   -0.9000 O   0  0  0  0  0  0  0  0  0  0  0  0
    2.5700   -2.1260    1.3280 C   0  0  0  0  0  0  0  0  0  0  0  0
    3.7460   -1.2150    1.4610 C   0  0  0  0  0  0  0  0  0  0  0  0
    3.8400   -0.0950    0.4810 C   0  0  2  0  0  0  0  0  0  0  0  0
    5.0790    0.6410    0.8100 N   0  0  0  0  0  0  0  0  0  0  0  0
    2.7150    0.8650    0.5170 C   0  0  0  0  0  0  0  0  0  0  0  0
    2.9190    2.0060    1.0360 O   0  0  0  0  0  0  0  0  0  0  0  0
    0.9910   -4.1810    0.5700 H   0  0  0  0  0  0  0  0  0  0  0  0
    1.0470   -3.8880   -1.1950 H   0  0  0  0  0  0  0  0  0  0  0  0
    1.6560   -1.5360    1.5550 H   0  0  0  0  0  0  0  0  0  0  0  0
    2.6980   -2.8990    2.1530 H   0  0  0  0  0  0  0  0  0  0  0  0
    4.6570   -1.8620    1.2790 H   0  0  0  0  0  0  0  0  0  0  0  0
    3.8720   -0.8580    2.5180 H   0  0  0  0  0  0  0  0  0  0  0  0
    3.9820   -0.4960   -0.5380 H   0  0  0  0  0  0  0  0  0  0  0  0
    5.0500    1.6100    0.4470 H   0  0  0  0  0  0  0  0  0  0  0  0
    5.8790    0.1620    0.3360 H   0  0  0  0  0  0  0  0  0  0  0  0
    1.4090    0.6320    0.0160 N   0  0  0  0  0  0  0  0  0  0  0  0
    0.3680    1.6720    0.1060 C   0  0  1  0  0  0  0  0  0  0  0  0
    0.1720    2.2790   -1.2780 C   0  0  0  0  0  0  0  0  0  0  0  0
   -0.8690    3.3610   -1.3260 C   0  0  0  0  0  0  0  0  0  0  0  0
   -0.9980    3.9340   -2.6920 C   0  0  0  0  0  0  0  0  0  0  0  0
   -1.8170    4.8580   -2.8960 O   0  0  0  0  0  0  0  0  0  0  0  0
   -0.8600    1.2150    0.7400 C   0  0  0  0  0  0  0  0  0  0  0  0
   -1.7580    2.0690    1.0270 O   0  0  0  0  0  0  0  0  0  0  0  0
   -0.1990    3.4190   -3.6960 O   0  0  0  0  0  0  0  0  0  0  0  0
    1.2180   -0.2920   -0.4180 H   0  0  0  0  0  0  0  0  0  0  0  0
    0.8040    2.4880    0.7130 H   0  0  0  0  0  0  0  0  0  0  0  0
   -0.2010    1.4560   -1.9470 H   0  0  0  0  0  0  0  0  0  0  0  0
    1.1630    2.6310   -1.6150 H   0  0  0  0  0  0  0  0  0  0  0  0
   -1.8530    2.8580   -1.0740 H   0  0  0  0  0  0  0  0  0  0  0  0
   -0.7120    4.1660   -0.6030 H   0  0  0  0  0  0  0  0  0  0  0  0
   -0.2790    3.7100   -4.6660 H   0  0  0  0  0  0  0  0  0  0  0  0
   -1.1890   -0.1260    1.0870 N   0  0  0  0  0  0  0  0  0  0  0  0
   -2.4430   -0.4890    1.7240 C   0  0  1  0  0  0  0  0  0  0  0  0
   -3.3690   -1.2400    0.8340 C   0  0  0  0  0  0  0  0  0  0  0  0
   -2.8880   -2.5270    0.2860 C   0  0  0  0  0  0  0  0  0  0  0  0
   -2.5350   -3.5850    1.2780 C   0  0  0  0  0  0  0  0  0  0  0  0
   -2.0710   -4.8120    0.4730 C   0  0  0  0  0  0  0  0  0  0  0  0
   -3.2060   -5.2040   -0.3760 N   0  0  0  0  0  0  0  0  0  0  0  0
   -2.2560   -1.0730    3.0710 C   0  0  0  0  0  0  0  0  0  0  0  0
   -1.1310   -1.2260    3.6210 O   0  0  0  0  0  0  0  0  0  0  0  0
   -3.3810   -1.4730    3.7640 O   0  0  0  0  0  0  0  0  0  0  0  0
   -0.4960   -0.8520    0.8650 H   0  0  0  0  0  0  0  0  0  0  0  0
   -2.9700    0.5020    1.9280 H   0  0  0  0  0  0  0  0  0  0  0  0
   -3.6210   -0.5680   -0.0250 H   0  0  0  0  0  0  0  0  0  0  0  0
   -4.3100   -1.4130    1.3930 H   0  0  0  0  0  0  0  0  0  0  0  0
   -3.7420   -2.9490   -0.3270 H   0  0  0  0  0  0  0  0  0  0  0  0
   -2.0630   -2.3740   -0.4620 H   0  0  0  0  0  0  0  0  0  0  0  0
   -1.7660   -3.3320    2.0040 H   0  0  0  0  0  0  0  0  0  0  0  0
   -3.4190   -3.9550    1.8500 H   0  0  0  0  0  0  0  0  0  0  0  0
   -1.2380   -4.5460   -0.2070 H   0  0  0  0  0  0  0  0  0  0  0  0
   -1.7740   -5.6110    1.1640 H   0  0  0  0  0  0  0  0  0  0  0  0
   -3.1880   -4.6610   -1.2800 H   0  0  0  0  0  0  0  0  0  0  0  0
   -3.0980   -6.2290   -0.5240 H   0  0  0  0  0  0  0  0  0  0  0  0
  1  2  1  0  0  0  0
  1 10  1  0  0  0  0
  2  4  1  0  0  0  0
  3  2  2  0  0  0  0
  4  5  1  0  0  0  0
  4 12  1  0  0  0  0
  4 13  1  0  0  0  0
  5 15  1  0  0  0  0
  6 16  1  6  0  0  0
  6  8  1  0  0  0  0
  6  7  1  0  0  0  0
  6  5  1  0  0  0  0
  8  9  2  0  0  0  0
 11  1  1  0  0  0  0
 14  5  1  0  0  0  0
 17  7  1  0  0  0  0
 18  7  1  0  0  0  0
 19 20  1  0  0  0  0
 19  8  1  0  0  0  0
 20 29  1  1  0  0  0
 20 25  1  0  0  0  0
 21 20  1  0  0  0  0
 22 21  1  0  0  0  0
 22 32  1  0  0  0  0
 22 33  1  0  0  0  0
 23 22  1  0  0  0  0
 24 23  2  0  0  0  0
 25 26  2  0  0  0  0
 25 35  1  0  0  0  0
 27 23  1  0  0  0  0
 28 19  1  0  0  0  0
 30 21  1  0  0  0  0
 31 21  1  0  0  0  0
 34 27  1  0  0  0  0
 35 36  1  0  0  0  0
 36 46  1  1  0  0  0
 36 42  1  0  0  0  0
 37 48  1  0  0  0  0
 37 36  1  0  0  0  0
 38 37  1  0  0  0  0
 38 39  1  0  0  0  0
 39 52  1  0  0  0  0
 39 51  1  0  0  0  0
 40 54  1  0  0  0  0
 40 39  1  0  0  0  0
 41 40  1  0  0  0  0
 42 43  2  0  0  0  0
 42 44  1  0  0  0  0
 45 35  1  0  0  0  0
 47 37  1  0  0  0  0
 49 38  1  0  0  0  0
 50 38  1  0  0  0  0
 53 40  1  0  0  0  0
 55 41  1  0  0  0  0
 56 41  1  0  0  0  0
M  END
$$$$
