QEL.pdb
 OpenBabel07022418313D

 54 53  0  0  1  0  0  0  0  0999 V2000
    4.3020   -4.0740    5.4360 N   0  0  0  0  0  0  0  0  0  0  0  0
    3.4860   -4.5890    4.4060 C   0  0  0  0  0  0  0  0  0  0  0  0
    3.0300   -5.7450    4.4990 O   0  0  0  0  0  0  0  0  0  0  0  0
    3.1940   -3.7290    3.2340 C   0  0  0  0  0  0  0  0  0  0  0  0
    2.3330   -4.4730    2.2740 C   0  0  0  0  0  0  0  0  0  0  0  0
    1.9500   -3.7490    1.0370 C   0  0  2  0  0  0  0  0  0  0  0  0
    3.0860   -3.3400    0.2300 N   0  0  0  0  0  0  0  0  0  0  0  0
    0.9860   -2.6600    1.2180 C   0  0  0  0  0  0  0  0  0  0  0  0
   -0.0420   -2.7990    1.8930 O   0  0  0  0  0  0  0  0  0  0  0  0
    5.1240   -3.4460    5.2970 H   0  0  0  0  0  0  0  0  0  0  0  0
    4.0800   -4.3300    6.4200 H   0  0  0  0  0  0  0  0  0  0  0  0
    4.1910   -3.4570    2.8040 H   0  0  0  0  0  0  0  0  0  0  0  0
    2.6700   -2.8260    3.6350 H   0  0  0  0  0  0  0  0  0  0  0  0
    2.8840   -5.4070    1.9840 H   0  0  0  0  0  0  0  0  0  0  0  0
    1.4190   -4.7990    2.8010 H   0  0  0  0  0  0  0  0  0  0  0  0
    1.4130   -4.5090    0.3860 H   0  0  0  0  0  0  0  0  0  0  0  0
    3.8010   -2.9240    0.8480 H   0  0  0  0  0  0  0  0  0  0  0  0
    3.4680   -4.1740   -0.2460 H   0  0  0  0  0  0  0  0  0  0  0  0
    1.2580   -1.4140    0.5920 N   0  0  0  0  0  0  0  0  0  0  0  0
    0.3040   -0.3280    0.7660 C   0  0  1  0  0  0  0  0  0  0  0  0
    0.9670    0.8960    1.3410 C   0  0  0  0  0  0  0  0  0  0  0  0
    1.5910    0.6580    2.6750 C   0  0  0  0  0  0  0  0  0  0  0  0
    0.6210    0.2450    3.7010 C   0  0  0  0  0  0  0  0  0  0  0  0
   -0.6090    0.1070    3.5600 O   0  0  0  0  0  0  0  0  0  0  0  0
   -0.2490    0.0230   -0.5770 C   0  0  0  0  0  0  0  0  0  0  0  0
    0.1730   -0.5990   -1.5730 O   0  0  0  0  0  0  0  0  0  0  0  0
    1.1120   -0.0310    4.9960 O   0  0  0  0  0  0  0  0  0  0  0  0
    2.1300   -1.2830    0.0170 H   0  0  0  0  0  0  0  0  0  0  0  0
   -0.5030   -0.6600    1.4080 H   0  0  0  0  0  0  0  0  0  0  0  0
    0.1460    1.6470    1.5010 H   0  0  0  0  0  0  0  0  0  0  0  0
    1.6710    1.3730    0.6420 H   0  0  0  0  0  0  0  0  0  0  0  0
    2.4670   -0.0290    2.6310 H   0  0  0  0  0  0  0  0  0  0  0  0
    1.9910    1.6580    3.0200 H   0  0  0  0  0  0  0  0  0  0  0  0
    0.6610   -0.6900    5.5950 H   0  0  0  0  0  0  0  0  0  0  0  0
   -5.3760    0.3740   -2.8440 C   0  0  0  0  0  0  0  0  0  0  0  0
   -4.0320    1.0580   -3.2460 C   0  0  0  0  0  0  0  0  0  0  0  0
   -4.4590    2.5130   -3.4890 C   0  0  0  0  0  0  0  0  0  0  0  0
   -3.1570    0.8830   -2.0690 C   0  0  0  0  0  0  0  0  0  0  0  0
   -1.7640    1.3620   -2.0890 C   0  0  2  0  0  0  0  0  0  0  0  0
   -1.2220    1.0240   -0.7430 N   0  0  0  0  0  0  0  0  0  0  0  0
   -1.4650    2.7270   -2.4400 C   0  0  0  0  0  0  0  0  0  0  0  0
   -1.6930    3.1930   -3.5720 O   0  0  0  0  0  0  0  0  0  0  0  0
   -0.8990    3.5860   -1.5030 O   0  0  0  0  0  0  0  0  0  0  0  0
   -5.7390    0.9510   -1.9720 H   0  0  0  0  0  0  0  0  0  0  0  0
   -5.1900   -0.6470   -2.5080 H   0  0  0  0  0  0  0  0  0  0  0  0
   -6.1100    0.4870   -3.6470 H   0  0  0  0  0  0  0  0  0  0  0  0
   -3.7320    0.5510   -4.1660 H   0  0  0  0  0  0  0  0  0  0  0  0
   -5.5910    2.5430   -3.5050 H   0  0  0  0  0  0  0  0  0  0  0  0
   -4.1710    2.8820   -4.4800 H   0  0  0  0  0  0  0  0  0  0  0  0
   -4.1820    3.1120   -2.6260 H   0  0  0  0  0  0  0  0  0  0  0  0
   -3.7250    1.3200   -1.1840 H   0  0  0  0  0  0  0  0  0  0  0  0
   -3.1590   -0.2270   -1.8200 H   0  0  0  0  0  0  0  0  0  0  0  0
   -1.1790    0.7010   -2.8070 H   0  0  0  0  0  0  0  0  0  0  0  0
   -1.5710    1.5390    0.0870 H   0  0  0  0  0  0  0  0  0  0  0  0
  1 11  1  0  0  0  0
  2  3  2  0  0  0  0
  2  1  1  0  0  0  0
  4 13  1  0  0  0  0
  4  2  1  0  0  0  0
  5 15  1  0  0  0  0
  5  4  1  0  0  0  0
  6 16  1  6  0  0  0
  6  8  1  0  0  0  0
  6  5  1  0  0  0  0
  7 17  1  0  0  0  0
  7  6  1  0  0  0  0
  8  9  2  0  0  0  0
 10  1  1  0  0  0  0
 12  4  1  0  0  0  0
 14  5  1  0  0  0  0
 18  7  1  0  0  0  0
 19 20  1  0  0  0  0
 19  8  1  0  0  0  0
 20 21  1  0  0  0  0
 20 29  1  1  0  0  0
 21 30  1  0  0  0  0
 21 22  1  0  0  0  0
 22 33  1  0  0  0  0
 22 23  1  0  0  0  0
 23 27  1  0  0  0  0
 24 23  2  0  0  0  0
 25 20  1  0  0  0  0
 26 25  2  0  0  0  0
 27 34  1  0  0  0  0
 28 19  1  0  0  0  0
 31 21  1  0  0  0  0
 32 22  1  0  0  0  0
 35 45  1  0  0  0  0
 35 44  1  0  0  0  0
 36 35  1  0  0  0  0
 36 38  1  0  0  0  0
 37 36  1  0  0  0  0
 37 50  1  0  0  0  0
 38 52  1  0  0  0  0
 38 51  1  0  0  0  0
 39 53  1  6  0  0  0
 39 38  1  0  0  0  0
 39 40  1  0  0  0  0
 40 25  1  0  0  0  0
 40 54  1  0  0  0  0
 41 39  1  0  0  0  0
 41 43  1  0  0  0  0
 42 41  2  0  0  0  0
 46 35  1  0  0  0  0
 47 36  1  0  0  0  0
 48 37  1  0  0  0  0
 49 37  1  0  0  0  0
M  END
$$$$
