QEN.pdb
 OpenBabel07022418313D

 49 48  0  0  1  0  0  0  0  0999 V2000
    1.5000   -5.4180    0.3240 N   0  0  0  0  0  0  0  0  0  0  0  0
    2.2310   -4.2830   -0.1260 C   0  0  0  0  0  0  0  0  0  0  0  0
    3.4730   -4.3570   -0.1300 O   0  0  0  0  0  0  0  0  0  0  0  0
    1.5060   -3.1060   -0.5590 C   0  0  0  0  0  0  0  0  0  0  0  0
    2.2510   -1.8660   -0.8260 C   0  0  0  0  0  0  0  0  0  0  0  0
    2.9910   -1.2250    0.2850 C   0  0  2  0  0  0  0  0  0  0  0  0
    4.0210   -2.0450    0.8870 N   0  0  0  0  0  0  0  0  0  0  0  0
    2.1350   -0.5790    1.2930 C   0  0  0  0  0  0  0  0  0  0  0  0
    2.3460   -0.8010    2.5010 O   0  0  0  0  0  0  0  0  0  0  0  0
    1.9240   -6.1390    0.9370 H   0  0  0  0  0  0  0  0  0  0  0  0
    0.4870   -5.5670    0.0460 H   0  0  0  0  0  0  0  0  0  0  0  0
    0.9000   -3.3240   -1.4960 H   0  0  0  0  0  0  0  0  0  0  0  0
    0.6840   -2.8370    0.1800 H   0  0  0  0  0  0  0  0  0  0  0  0
    3.0050   -2.0750   -1.6400 H   0  0  0  0  0  0  0  0  0  0  0  0
    1.5600   -1.1250   -1.2890 H   0  0  0  0  0  0  0  0  0  0  0  0
    3.5640   -0.3600   -0.1920 H   0  0  0  0  0  0  0  0  0  0  0  0
    4.1720   -1.7660    1.9020 H   0  0  0  0  0  0  0  0  0  0  0  0
    4.9610   -1.9120    0.4410 H   0  0  0  0  0  0  0  0  0  0  0  0
    1.0850    0.2850    0.9160 N   0  0  0  0  0  0  0  0  0  0  0  0
    0.2850    0.8900    1.9870 C   0  0  1  0  0  0  0  0  0  0  0  0
    0.4350    2.4060    1.9140 C   0  0  0  0  0  0  0  0  0  0  0  0
    1.8380    2.8640    2.0720 C   0  0  0  0  0  0  0  0  0  0  0  0
    2.4310    2.5010    3.3740 C   0  0  0  0  0  0  0  0  0  0  0  0
    3.6630    2.7490    3.5620 O   0  0  0  0  0  0  0  0  0  0  0  0
   -1.1400    0.5870    1.7510 C   0  0  0  0  0  0  0  0  0  0  0  0
   -2.0000    1.0170    2.5510 O   0  0  0  0  0  0  0  0  0  0  0  0
    1.7560    1.9080    4.4210 O   0  0  0  0  0  0  0  0  0  0  0  0
    0.8540    0.5150   -0.0810 H   0  0  0  0  0  0  0  0  0  0  0  0
    0.6270    0.5550    2.9730 H   0  0  0  0  0  0  0  0  0  0  0  0
   -0.2380    2.8230    2.7180 H   0  0  0  0  0  0  0  0  0  0  0  0
    0.0650    2.7060    0.9100 H   0  0  0  0  0  0  0  0  0  0  0  0
    2.4500    2.3650    1.2640 H   0  0  0  0  0  0  0  0  0  0  0  0
    1.8930    3.9760    1.9030 H   0  0  0  0  0  0  0  0  0  0  0  0
    2.2360    1.7060    5.3090 H   0  0  0  0  0  0  0  0  0  0  0  0
   -5.0730    0.4590   -2.6060 N   0  0  0  0  0  0  0  0  0  0  0  0
   -4.6940    0.0130   -1.2950 C   0  0  0  0  0  0  0  0  0  0  0  0
   -5.5340   -0.4760   -0.5260 O   0  0  0  0  0  0  0  0  0  0  0  0
   -3.2880    0.1580   -0.9100 C   0  0  0  0  0  0  0  0  0  0  0  0
   -2.9960   -0.4670    0.4210 C   0  0  2  0  0  0  0  0  0  0  0  0
   -1.5470   -0.1750    0.6450 N   0  0  0  0  0  0  0  0  0  0  0  0
   -3.1440   -1.9410    0.3460 C   0  0  0  0  0  0  0  0  0  0  0  0
   -4.2420   -2.5030    0.1900 O   0  0  0  0  0  0  0  0  0  0  0  0
   -2.0350   -2.7890    0.4490 O   0  0  0  0  0  0  0  0  0  0  0  0
   -4.7130    1.3680   -2.9320 H   0  0  0  0  0  0  0  0  0  0  0  0
   -5.6910   -0.1350   -3.1880 H   0  0  0  0  0  0  0  0  0  0  0  0
   -2.9950    1.2510   -0.9210 H   0  0  0  0  0  0  0  0  0  0  0  0
   -2.6170   -0.2840   -1.6970 H   0  0  0  0  0  0  0  0  0  0  0  0
   -3.5340    0.0020    1.2460 H   0  0  0  0  0  0  0  0  0  0  0  0
   -0.8640   -0.5460   -0.0260 H   0  0  0  0  0  0  0  0  0  0  0  0
  1 10  1  0  0  0  0
  2  1  1  0  0  0  0
  3  2  2  0  0  0  0
  4  2  1  0  0  0  0
  4 13  1  0  0  0  0
  5  4  1  0  0  0  0
  5  6  1  0  0  0  0
  6 16  1  6  0  0  0
  6  7  1  0  0  0  0
  6  8  1  0  0  0  0
  7 17  1  0  0  0  0
  8  9  2  0  0  0  0
 11  1  1  0  0  0  0
 12  4  1  0  0  0  0
 14  5  1  0  0  0  0
 15  5  1  0  0  0  0
 18  7  1  0  0  0  0
 19  8  1  0  0  0  0
 19 20  1  0  0  0  0
 20 29  1  1  0  0  0
 21 20  1  0  0  0  0
 21 22  1  0  0  0  0
 21 30  1  0  0  0  0
 22 23  1  0  0  0  0
 23 24  2  0  0  0  0
 23 27  1  0  0  0  0
 25 20  1  0  0  0  0
 25 26  2  0  0  0  0
 27 34  1  0  0  0  0
 28 19  1  0  0  0  0
 31 21  1  0  0  0  0
 32 22  1  0  0  0  0
 33 22  1  0  0  0  0
 35 36  1  0  0  0  0
 36 38  1  0  0  0  0
 36 37  2  0  0  0  0
 38 39  1  0  0  0  0
 39 40  1  0  0  0  0
 39 48  1  1  0  0  0
 40 25  1  0  0  0  0
 41 39  1  0  0  0  0
 41 43  1  0  0  0  0
 42 41  2  0  0  0  0
 44 35  1  0  0  0  0
 45 35  1  0  0  0  0
 46 38  1  0  0  0  0
 47 38  1  0  0  0  0
 49 40  1  0  0  0  0
M  END
$$$$
