QEP.pdb
 OpenBabel07022418313D

 49 49  0  0  1  0  0  0  0  0999 V2000
   -0.0410    3.9260    3.2340 N   0  0  0  0  0  0  0  0  0  0  0  0
    1.1030    3.1330    2.9620 C   0  0  0  0  0  0  0  0  0  0  0  0
    1.4240    2.9460    1.7660 O   0  0  0  0  0  0  0  0  0  0  0  0
    1.8790    2.5640    4.0480 C   0  0  0  0  0  0  0  0  0  0  0  0
    2.5810    1.2860    3.8130 C   0  0  0  0  0  0  0  0  0  0  0  0
    1.7560    0.0590    3.5920 C   0  0  2  0  0  0  0  0  0  0  0  0
    2.7220   -1.0250    3.3670 N   0  0  0  0  0  0  0  0  0  0  0  0
    0.7260    0.0940    2.5620 C   0  0  0  0  0  0  0  0  0  0  0  0
   -0.3240    0.7890    2.6780 O   0  0  0  0  0  0  0  0  0  0  0  0
   -0.0560    4.9540    3.0120 H   0  0  0  0  0  0  0  0  0  0  0  0
   -0.9130    3.5470    3.6580 H   0  0  0  0  0  0  0  0  0  0  0  0
    1.2650    2.4240    4.9890 H   0  0  0  0  0  0  0  0  0  0  0  0
    2.6640    3.3050    4.3860 H   0  0  0  0  0  0  0  0  0  0  0  0
    3.2280    1.3730    2.8760 H   0  0  0  0  0  0  0  0  0  0  0  0
    3.3710    1.0920    4.6050 H   0  0  0  0  0  0  0  0  0  0  0  0
    1.2310   -0.1390    4.5920 H   0  0  0  0  0  0  0  0  0  0  0  0
    2.3480   -1.9250    3.7550 H   0  0  0  0  0  0  0  0  0  0  0  0
    3.6420   -0.8040    3.8060 H   0  0  0  0  0  0  0  0  0  0  0  0
    0.8250   -0.6560    1.3420 N   0  0  0  0  0  0  0  0  0  0  0  0
   -0.2060   -0.6120    0.3310 C   0  0  1  0  0  0  0  0  0  0  0  0
    0.1160    0.1910   -0.8740 C   0  0  0  0  0  0  0  0  0  0  0  0
    1.2940   -0.1610   -1.6840 C   0  0  0  0  0  0  0  0  0  0  0  0
    2.5790    0.0540   -1.0080 C   0  0  0  0  0  0  0  0  0  0  0  0
    2.6590    0.7390    0.0240 O   0  0  0  0  0  0  0  0  0  0  0  0
   -0.7040   -1.9890    0.0340 C   0  0  0  0  0  0  0  0  0  0  0  0
   -0.0390   -2.9460    0.5560 O   0  0  0  0  0  0  0  0  0  0  0  0
    3.7590   -0.5000   -1.4960 O   0  0  0  0  0  0  0  0  0  0  0  0
    1.6870   -1.2600    1.2720 H   0  0  0  0  0  0  0  0  0  0  0  0
   -1.1140   -0.0840    0.7860 H   0  0  0  0  0  0  0  0  0  0  0  0
    0.2030    1.2750   -0.5310 H   0  0  0  0  0  0  0  0  0  0  0  0
   -0.7930    0.2060   -1.5480 H   0  0  0  0  0  0  0  0  0  0  0  0
    1.3090    0.5520   -2.5710 H   0  0  0  0  0  0  0  0  0  0  0  0
    1.2300   -1.1740   -2.1550 H   0  0  0  0  0  0  0  0  0  0  0  0
    4.5880   -0.4630   -0.9330 H   0  0  0  0  0  0  0  0  0  0  0  0
   -1.8190   -2.3160   -0.7520 N   0  0  0  0  0  0  0  0  0  0  0  0
   -2.7370   -1.4100   -1.4090 C   0  0  0  0  0  0  0  0  0  0  0  0
   -4.0300   -2.2470   -1.3870 C   0  0  0  0  0  0  0  0  0  0  0  0
   -3.5010   -3.5820   -1.8540 C   0  0  0  0  0  0  0  0  0  0  0  0
   -2.2340   -3.7000   -1.0430 C   0  0  1  0  0  0  0  0  0  0  0  0
   -1.2200   -4.4170   -1.8280 C   0  0  0  0  0  0  0  0  0  0  0  0
   -1.4700   -5.6110   -2.1330 O   0  0  0  0  0  0  0  0  0  0  0  0
   -0.0230   -3.8760   -2.2490 O   0  0  0  0  0  0  0  0  0  0  0  0
   -2.9050   -0.4630   -0.8500 H   0  0  0  0  0  0  0  0  0  0  0  0
   -2.4990   -1.1740   -2.4430 H   0  0  0  0  0  0  0  0  0  0  0  0
   -4.7890   -1.8230   -2.0720 H   0  0  0  0  0  0  0  0  0  0  0  0
   -4.3590   -2.3370   -0.3450 H   0  0  0  0  0  0  0  0  0  0  0  0
   -4.2140   -4.4070   -1.6400 H   0  0  0  0  0  0  0  0  0  0  0  0
   -3.2630   -3.5230   -2.9480 H   0  0  0  0  0  0  0  0  0  0  0  0
   -2.5140   -4.2090   -0.0910 H   0  0  0  0  0  0  0  0  0  0  0  0
  1 11  1  0  0  0  0
  2  1  1  0  0  0  0
  2  4  1  0  0  0  0
  3  2  2  0  0  0  0
  4 13  1  0  0  0  0
  4 12  1  0  0  0  0
  5  4  1  0  0  0  0
  5 15  1  0  0  0  0
  6  5  1  0  0  0  0
  6 16  1  1  0  0  0
  7  6  1  0  0  0  0
  7 17  1  0  0  0  0
  7 18  1  0  0  0  0
  8  9  2  0  0  0  0
  8  6  1  0  0  0  0
 10  1  1  0  0  0  0
 14  5  1  0  0  0  0
 19  8  1  0  0  0  0
 20 29  1  1  0  0  0
 20 19  1  0  0  0  0
 21 30  1  0  0  0  0
 21 20  1  0  0  0  0
 22 23  1  0  0  0  0
 22 21  1  0  0  0  0
 23 24  2  0  0  0  0
 25 20  1  0  0  0  0
 25 26  2  0  0  0  0
 27 23  1  0  0  0  0
 27 34  1  0  0  0  0
 28 19  1  0  0  0  0
 31 21  1  0  0  0  0
 32 22  1  0  0  0  0
 33 22  1  0  0  0  0
 35 25  1  0  0  0  0
 36 37  1  0  0  0  0
 36 43  1  0  0  0  0
 36 35  1  0  0  0  0
 37 46  1  0  0  0  0
 38 47  1  0  0  0  0
 38 37  1  0  0  0  0
 38 39  1  0  0  0  0
 39 35  1  0  0  0  0
 39 49  1  1  0  0  0
 40 39  1  0  0  0  0
 41 40  1  0  0  0  0
 42 40  2  0  0  0  0
 44 36  1  0  0  0  0
 45 37  1  0  0  0  0
 48 38  1  0  0  0  0
M  END
$$$$
