QES.pdb
 OpenBabel07022418313D

 46 45  0  0  1  0  0  0  0  0999 V2000
    1.1120   -4.6840    1.3060 N   0  0  0  0  0  0  0  0  0  0  0  0
    1.4630   -3.8230    0.2410 C   0  0  0  0  0  0  0  0  0  0  0  0
    0.8300   -3.9260   -0.8330 O   0  0  0  0  0  0  0  0  0  0  0  0
    2.5320   -2.8280    0.3630 C   0  0  0  0  0  0  0  0  0  0  0  0
    2.7320   -1.9900   -0.8470 C   0  0  0  0  0  0  0  0  0  0  0  0
    1.5670   -1.1610   -1.2840 C   0  0  2  0  0  0  0  0  0  0  0  0
    1.9930   -0.4270   -2.5010 N   0  0  0  0  0  0  0  0  0  0  0  0
    1.1470   -0.1240   -0.3070 C   0  0  0  0  0  0  0  0  0  0  0  0
    1.4280    1.0700   -0.5860 O   0  0  0  0  0  0  0  0  0  0  0  0
    0.1390   -4.6450    1.6670 H   0  0  0  0  0  0  0  0  0  0  0  0
    1.7640   -5.3560    1.7520 H   0  0  0  0  0  0  0  0  0  0  0  0
    3.4630   -3.4310    0.6110 H   0  0  0  0  0  0  0  0  0  0  0  0
    2.4420   -2.1600    1.2640 H   0  0  0  0  0  0  0  0  0  0  0  0
    2.9580   -2.6990   -1.6980 H   0  0  0  0  0  0  0  0  0  0  0  0
    3.6430   -1.3580   -0.7850 H   0  0  0  0  0  0  0  0  0  0  0  0
    0.6740   -1.7260   -1.5730 H   0  0  0  0  0  0  0  0  0  0  0  0
    2.4850    0.4480   -2.2310 H   0  0  0  0  0  0  0  0  0  0  0  0
    2.7100   -1.0250   -2.9950 H   0  0  0  0  0  0  0  0  0  0  0  0
    0.4670   -0.3640    0.8910 N   0  0  0  0  0  0  0  0  0  0  0  0
    0.0500    0.5770    1.8900 C   0  0  1  0  0  0  0  0  0  0  0  0
    0.8400    1.8630    1.9430 C   0  0  0  0  0  0  0  0  0  0  0  0
    2.2720    1.7560    2.2820 C   0  0  0  0  0  0  0  0  0  0  0  0
    2.5030    1.2310    3.6550 C   0  0  0  0  0  0  0  0  0  0  0  0
    1.5670    1.0160    4.4340 O   0  0  0  0  0  0  0  0  0  0  0  0
   -1.3770    0.8780    1.9250 C   0  0  0  0  0  0  0  0  0  0  0  0
   -1.8950    1.6720    2.7380 O   0  0  0  0  0  0  0  0  0  0  0  0
    3.7980    0.9650    4.1030 O   0  0  0  0  0  0  0  0  0  0  0  0
    0.2180   -1.3840    1.0750 H   0  0  0  0  0  0  0  0  0  0  0  0
    0.3180    0.0400    2.8780 H   0  0  0  0  0  0  0  0  0  0  0  0
    0.3560    2.4530    2.7860 H   0  0  0  0  0  0  0  0  0  0  0  0
    0.6700    2.5150    1.0590 H   0  0  0  0  0  0  0  0  0  0  0  0
    2.6810    2.8120    2.2740 H   0  0  0  0  0  0  0  0  0  0  0  0
    2.8530    1.1710    1.5510 H   0  0  0  0  0  0  0  0  0  0  0  0
    3.9380    0.9620    5.1050 H   0  0  0  0  0  0  0  0  0  0  0  0
   -3.8560    0.0540   -1.3190 O   0  0  0  0  0  0  0  0  0  0  0  0
   -4.1620    1.0260   -0.3640 C   0  0  0  0  0  0  0  0  0  0  0  0
   -3.6870    0.4970    0.9710 C   0  0  2  0  0  0  0  0  0  0  0  0
   -2.2590    0.2400    0.9870 N   0  0  0  0  0  0  0  0  0  0  0  0
   -4.4440   -0.7450    1.2440 C   0  0  0  0  0  0  0  0  0  0  0  0
   -5.6960   -0.7010    1.2620 O   0  0  0  0  0  0  0  0  0  0  0  0
   -3.8130   -1.9470    1.4780 O   0  0  0  0  0  0  0  0  0  0  0  0
   -2.8890    0.0520   -1.5590 H   0  0  0  0  0  0  0  0  0  0  0  0
   -5.2660    1.0760   -0.3090 H   0  0  0  0  0  0  0  0  0  0  0  0
   -3.7290    2.0050   -0.6160 H   0  0  0  0  0  0  0  0  0  0  0  0
   -3.9150    1.2500    1.7790 H   0  0  0  0  0  0  0  0  0  0  0  0
   -1.8280   -0.4210    0.3110 H   0  0  0  0  0  0  0  0  0  0  0  0
  1 10  1  0  0  0  0
  1 11  1  0  0  0  0
  2  4  1  0  0  0  0
  2  1  1  0  0  0  0
  3  2  2  0  0  0  0
  4 12  1  0  0  0  0
  4 13  1  0  0  0  0
  5 15  1  0  0  0  0
  5  4  1  0  0  0  0
  6 16  1  6  0  0  0
  6  5  1  0  0  0  0
  6  8  1  0  0  0  0
  7 17  1  0  0  0  0
  7  6  1  0  0  0  0
  8 19  1  0  0  0  0
  9  8  2  0  0  0  0
 14  5  1  0  0  0  0
 18  7  1  0  0  0  0
 19 28  1  0  0  0  0
 19 20  1  0  0  0  0
 20 25  1  0  0  0  0
 20 21  1  0  0  0  0
 20 29  1  1  0  0  0
 21 22  1  0  0  0  0
 21 30  1  0  0  0  0
 22 23  1  0  0  0  0
 23 27  1  0  0  0  0
 23 24  2  0  0  0  0
 25 26  2  0  0  0  0
 27 34  1  0  0  0  0
 31 21  1  0  0  0  0
 32 22  1  0  0  0  0
 33 22  1  0  0  0  0
 35 36  1  0  0  0  0
 36 43  1  0  0  0  0
 36 37  1  0  0  0  0
 37 38  1  0  0  0  0
 37 39  1  0  0  0  0
 37 45  1  1  0  0  0
 38 25  1  0  0  0  0
 39 40  2  0  0  0  0
 39 41  1  0  0  0  0
 42 35  1  0  0  0  0
 44 36  1  0  0  0  0
 46 38  1  0  0  0  0
M  END
$$$$
