QET.pdb
 OpenBabel07022418313D

 49 48  0  0  1  0  0  0  0  0999 V2000
   -0.5670   -4.3600   -1.1780 N   0  0  0  0  0  0  0  0  0  0  0  0
    0.7650   -3.8820   -1.1280 C   0  0  0  0  0  0  0  0  0  0  0  0
    1.7220   -4.6880   -1.1400 O   0  0  0  0  0  0  0  0  0  0  0  0
    1.0700   -2.4250   -1.0600 C   0  0  0  0  0  0  0  0  0  0  0  0
    2.5470   -2.1890   -1.0230 C   0  0  0  0  0  0  0  0  0  0  0  0
    2.8480   -0.7040   -0.9770 C   0  0  2  0  0  0  0  0  0  0  0  0
    4.3160   -0.6370   -0.9330 N   0  0  0  0  0  0  0  0  0  0  0  0
    2.3330   -0.1530    0.2840 C   0  0  0  0  0  0  0  0  0  0  0  0
    3.1150   -0.0610    1.2910 O   0  0  0  0  0  0  0  0  0  0  0  0
   -0.8090   -5.3630   -1.3050 H   0  0  0  0  0  0  0  0  0  0  0  0
   -1.3570   -3.6650   -1.0830 H   0  0  0  0  0  0  0  0  0  0  0  0
    0.6970   -2.1180   -0.0360 H   0  0  0  0  0  0  0  0  0  0  0  0
    0.5320   -1.8900   -1.8410 H   0  0  0  0  0  0  0  0  0  0  0  0
    3.0810   -2.6700   -1.8730 H   0  0  0  0  0  0  0  0  0  0  0  0
    2.9320   -2.6200   -0.0720 H   0  0  0  0  0  0  0  0  0  0  0  0
    2.4490   -0.1790   -1.8410 H   0  0  0  0  0  0  0  0  0  0  0  0
    4.7570   -1.4710   -1.3520 H   0  0  0  0  0  0  0  0  0  0  0  0
    4.6130    0.2420   -1.4220 H   0  0  0  0  0  0  0  0  0  0  0  0
    1.0000    0.3160    0.5080 N   0  0  0  0  0  0  0  0  0  0  0  0
    0.6130    0.8440    1.7850 C   0  0  1  0  0  0  0  0  0  0  0  0
    0.4000    2.3510    1.7190 C   0  0  0  0  0  0  0  0  0  0  0  0
    1.5900    3.1320    1.3100 C   0  0  0  0  0  0  0  0  0  0  0  0
    2.7660    3.0270    2.1750 C   0  0  0  0  0  0  0  0  0  0  0  0
    2.8360    2.3510    3.2190 O   0  0  0  0  0  0  0  0  0  0  0  0
   -0.6620    0.2740    2.2250 C   0  0  0  0  0  0  0  0  0  0  0  0
   -1.1270    0.5260    3.3930 O   0  0  0  0  0  0  0  0  0  0  0  0
    3.9400    3.7300    1.8380 O   0  0  0  0  0  0  0  0  0  0  0  0
    0.3520    0.2530   -0.3010 H   0  0  0  0  0  0  0  0  0  0  0  0
    1.3700    0.6810    2.5710 H   0  0  0  0  0  0  0  0  0  0  0  0
   -0.4430    2.6070    1.0810 H   0  0  0  0  0  0  0  0  0  0  0  0
    0.1160    2.6590    2.7670 H   0  0  0  0  0  0  0  0  0  0  0  0
    1.8220    2.9500    0.2360 H   0  0  0  0  0  0  0  0  0  0  0  0
    1.2780    4.2190    1.3350 H   0  0  0  0  0  0  0  0  0  0  0  0
    4.7050    3.8250    2.4940 H   0  0  0  0  0  0  0  0  0  0  0  0
   -3.7170   -1.0480   -0.3920 C   0  0  0  0  0  0  0  0  0  0  0  0
   -3.8640   -0.6290    1.0510 C   0  0  1  0  0  0  0  0  0  0  0  0
   -5.0470   -1.1730    1.5490 O   0  0  0  0  0  0  0  0  0  0  0  0
   -2.7040   -1.1110    1.8970 C   0  0  2  0  0  0  0  0  0  0  0  0
   -1.4400   -0.5650    1.4080 N   0  0  0  0  0  0  0  0  0  0  0  0
   -2.6640   -2.5840    1.9810 C   0  0  0  0  0  0  0  0  0  0  0  0
   -3.6960   -3.1740    2.3880 O   0  0  0  0  0  0  0  0  0  0  0  0
   -1.5690   -3.3650    1.6420 O   0  0  0  0  0  0  0  0  0  0  0  0
   -3.8350   -0.1660   -1.0820 H   0  0  0  0  0  0  0  0  0  0  0  0
   -2.7730   -1.5960   -0.5900 H   0  0  0  0  0  0  0  0  0  0  0  0
   -4.5420   -1.7480   -0.7090 H   0  0  0  0  0  0  0  0  0  0  0  0
   -3.9850    0.4720    1.1110 H   0  0  0  0  0  0  0  0  0  0  0  0
   -5.2200   -0.9570    2.4850 H   0  0  0  0  0  0  0  0  0  0  0  0
   -2.8520   -0.7310    2.9230 H   0  0  0  0  0  0  0  0  0  0  0  0
   -1.1650   -0.8300    0.4200 H   0  0  0  0  0  0  0  0  0  0  0  0
  1  2  1  0  0  0  0
  1 11  1  0  0  0  0
  2  4  1  0  0  0  0
  3  2  2  0  0  0  0
  4  5  1  0  0  0  0
  4 12  1  0  0  0  0
  5  6  1  0  0  0  0
  5 15  1  0  0  0  0
  6 16  1  6  0  0  0
  6  7  1  0  0  0  0
  6  8  1  0  0  0  0
  8 19  1  0  0  0  0
  8  9  2  0  0  0  0
 10  1  1  0  0  0  0
 13  4  1  0  0  0  0
 14  5  1  0  0  0  0
 17  7  1  0  0  0  0
 18  7  1  0  0  0  0
 19 20  1  0  0  0  0
 20 25  1  0  0  0  0
 20 29  1  1  0  0  0
 21 20  1  0  0  0  0
 21 31  1  0  0  0  0
 22 33  1  0  0  0  0
 22 21  1  0  0  0  0
 22 23  1  0  0  0  0
 23 24  2  0  0  0  0
 25 26  2  0  0  0  0
 27 23  1  0  0  0  0
 27 34  1  0  0  0  0
 28 19  1  0  0  0  0
 30 21  1  0  0  0  0
 32 22  1  0  0  0  0
 35 36  1  0  0  0  0
 36 46  1  1  0  0  0
 36 37  1  0  0  0  0
 36 38  1  0  0  0  0
 37 47  1  0  0  0  0
 38 40  1  0  0  0  0
 38 48  1  1  0  0  0
 39 38  1  0  0  0  0
 39 25  1  0  0  0  0
 40 41  1  0  0  0  0
 42 40  2  0  0  0  0
 43 35  1  0  0  0  0
 44 35  1  0  0  0  0
 45 35  1  0  0  0  0
 49 39  1  0  0  0  0
M  END
$$$$
