QEV.pdb
 OpenBabel07022418313D

 51 50  0  0  1  0  0  0  0  0999 V2000
    2.9010   -4.1860    0.6040 N   0  0  0  0  0  0  0  0  0  0  0  0
    2.7760   -3.2130   -0.4170 C   0  0  0  0  0  0  0  0  0  0  0  0
    2.0790   -3.4930   -1.4160 O   0  0  0  0  0  0  0  0  0  0  0  0
    3.4440   -1.9240   -0.3010 C   0  0  0  0  0  0  0  0  0  0  0  0
    3.2160   -0.9890   -1.4250 C   0  0  0  0  0  0  0  0  0  0  0  0
    1.8160   -0.5660   -1.6960 C   0  0  2  0  0  0  0  0  0  0  0  0
    1.8360    0.3510   -2.8640 N   0  0  0  0  0  0  0  0  0  0  0  0
    1.2100    0.2600   -0.5960 C   0  0  0  0  0  0  0  0  0  0  0  0
    1.0900    1.5020   -0.7450 O   0  0  0  0  0  0  0  0  0  0  0  0
    2.7970   -5.2090    0.4190 H   0  0  0  0  0  0  0  0  0  0  0  0
    3.1030   -3.8880    1.5750 H   0  0  0  0  0  0  0  0  0  0  0  0
    3.2310   -1.3820    0.6680 H   0  0  0  0  0  0  0  0  0  0  0  0
    4.5570   -2.1370   -0.2060 H   0  0  0  0  0  0  0  0  0  0  0  0
    3.8170   -0.0390   -1.3100 H   0  0  0  0  0  0  0  0  0  0  0  0
    3.6050   -1.4630   -2.3750 H   0  0  0  0  0  0  0  0  0  0  0  0
    1.2010   -1.4130   -1.9810 H   0  0  0  0  0  0  0  0  0  0  0  0
    0.8270    0.3560   -3.1850 H   0  0  0  0  0  0  0  0  0  0  0  0
    2.3630   -0.1680   -3.6010 H   0  0  0  0  0  0  0  0  0  0  0  0
    0.7640   -0.3100    0.6120 N   0  0  0  0  0  0  0  0  0  0  0  0
    0.1950    0.3300    1.7510 C   0  0  1  0  0  0  0  0  0  0  0  0
    0.4650    1.7960    1.9120 C   0  0  0  0  0  0  0  0  0  0  0  0
    1.8710    2.2110    2.1050 C   0  0  0  0  0  0  0  0  0  0  0  0
    2.5060    1.6970    3.3580 C   0  0  0  0  0  0  0  0  0  0  0  0
    1.8660    1.0590    4.1980 O   0  0  0  0  0  0  0  0  0  0  0  0
   -1.1970   -0.0270    2.0590 C   0  0  0  0  0  0  0  0  0  0  0  0
   -1.7610    0.4930    3.0420 O   0  0  0  0  0  0  0  0  0  0  0  0
    3.8520    1.9370    3.5930 O   0  0  0  0  0  0  0  0  0  0  0  0
    0.8690   -1.3810    0.6490 H   0  0  0  0  0  0  0  0  0  0  0  0
    0.8310   -0.1170    2.6230 H   0  0  0  0  0  0  0  0  0  0  0  0
    0.0400    2.4240    1.0830 H   0  0  0  0  0  0  0  0  0  0  0  0
   -0.1160    2.1720    2.8150 H   0  0  0  0  0  0  0  0  0  0  0  0
    1.8390    3.3380    2.2730 H   0  0  0  0  0  0  0  0  0  0  0  0
    2.5550    2.0640    1.2690 H   0  0  0  0  0  0  0  0  0  0  0  0
    4.2420    1.7410    4.5240 H   0  0  0  0  0  0  0  0  0  0  0  0
   -4.2840    0.4800    0.1090 C   0  0  0  0  0  0  0  0  0  0  0  0
   -4.2800   -1.0010    0.4700 C   0  0  0  0  0  0  0  0  0  0  0  0
   -4.0220   -1.8590   -0.7400 C   0  0  0  0  0  0  0  0  0  0  0  0
   -3.3060   -1.2880    1.5920 C   0  0  2  0  0  0  0  0  0  0  0  0
   -1.9570   -0.9500    1.2850 N   0  0  0  0  0  0  0  0  0  0  0  0
   -3.3900   -2.7400    1.8650 C   0  0  0  0  0  0  0  0  0  0  0  0
   -4.4510   -3.3350    2.1670 O   0  0  0  0  0  0  0  0  0  0  0  0
   -2.2280   -3.4800    1.7820 O   0  0  0  0  0  0  0  0  0  0  0  0
   -4.1700    1.1150    1.0080 H   0  0  0  0  0  0  0  0  0  0  0  0
   -3.4960    0.7090   -0.6630 H   0  0  0  0  0  0  0  0  0  0  0  0
   -5.2420    0.7830   -0.3620 H   0  0  0  0  0  0  0  0  0  0  0  0
   -5.3040   -1.2280    0.8300 H   0  0  0  0  0  0  0  0  0  0  0  0
   -4.1660   -1.3040   -1.6960 H   0  0  0  0  0  0  0  0  0  0  0  0
   -4.6920   -2.7430   -0.7920 H   0  0  0  0  0  0  0  0  0  0  0  0
   -2.9900   -2.2740   -0.6580 H   0  0  0  0  0  0  0  0  0  0  0  0
   -3.6920   -0.7510    2.4970 H   0  0  0  0  0  0  0  0  0  0  0  0
   -1.4600   -1.3680    0.4700 H   0  0  0  0  0  0  0  0  0  0  0  0
  1 11  1  0  0  0  0
  2  4  1  0  0  0  0
  2  1  1  0  0  0  0
  3  2  2  0  0  0  0
  4 13  1  0  0  0  0
  4 12  1  0  0  0  0
  5 14  1  0  0  0  0
  5  4  1  0  0  0  0
  6 16  1  6  0  0  0
  6  5  1  0  0  0  0
  6  8  1  0  0  0  0
  7  6  1  0  0  0  0
  8 19  1  0  0  0  0
  9  8  2  0  0  0  0
 10  1  1  0  0  0  0
 15  5  1  0  0  0  0
 17  7  1  0  0  0  0
 18  7  1  0  0  0  0
 19 28  1  0  0  0  0
 19 20  1  0  0  0  0
 20 21  1  0  0  0  0
 20 25  1  0  0  0  0
 20 29  1  1  0  0  0
 21 22  1  0  0  0  0
 21 31  1  0  0  0  0
 22 32  1  0  0  0  0
 22 23  1  0  0  0  0
 23 27  1  0  0  0  0
 23 24  2  0  0  0  0
 25 26  2  0  0  0  0
 27 34  1  0  0  0  0
 30 21  1  0  0  0  0
 33 22  1  0  0  0  0
 35 36  1  0  0  0  0
 35 43  1  0  0  0  0
 36 46  1  0  0  0  0
 36 38  1  0  0  0  0
 37 49  1  0  0  0  0
 37 36  1  0  0  0  0
 38 40  1  0  0  0  0
 38 50  1  1  0  0  0
 39 38  1  0  0  0  0
 39 25  1  0  0  0  0
 40 41  1  0  0  0  0
 42 40  2  0  0  0  0
 44 35  1  0  0  0  0
 45 35  1  0  0  0  0
 47 37  1  0  0  0  0
 48 37  1  0  0  0  0
 51 39  1  0  0  0  0
M  END
$$$$
