QEY.pdb
 OpenBabel07022418313D

 56 56  0  0  1  0  0  0  0  0999 V2000
   -0.1920   -1.5860    6.3710 N   0  0  0  0  0  0  0  0  0  0  0  0
    0.0410   -0.4770    5.4720 C   0  0  0  0  0  0  0  0  0  0  0  0
    1.2280   -0.1860    5.1960 O   0  0  0  0  0  0  0  0  0  0  0  0
   -1.0650    0.2970    4.8940 C   0  0  0  0  0  0  0  0  0  0  0  0
   -0.6420    0.9440    3.6060 C   0  0  0  0  0  0  0  0  0  0  0  0
   -0.2910   -0.0260    2.5160 C   0  0  2  0  0  0  0  0  0  0  0  0
    0.7620   -0.9280    2.7670 N   0  0  0  0  0  0  0  0  0  0  0  0
   -0.0940    0.7430    1.2340 C   0  0  0  0  0  0  0  0  0  0  0  0
   -0.8600    1.6770    0.9270 O   0  0  0  0  0  0  0  0  0  0  0  0
    0.1530   -1.4910    7.3510 H   0  0  0  0  0  0  0  0  0  0  0  0
   -0.6770   -2.4510    6.0870 H   0  0  0  0  0  0  0  0  0  0  0  0
   -1.4660    1.0770    5.5820 H   0  0  0  0  0  0  0  0  0  0  0  0
   -1.9140   -0.4050    4.6470 H   0  0  0  0  0  0  0  0  0  0  0  0
    0.1970    1.6750    3.7860 H   0  0  0  0  0  0  0  0  0  0  0  0
   -1.5020    1.6110    3.3050 H   0  0  0  0  0  0  0  0  0  0  0  0
   -1.2300   -0.6350    2.3120 H   0  0  0  0  0  0  0  0  0  0  0  0
    1.7240   -0.6400    2.5940 H   0  0  0  0  0  0  0  0  0  0  0  0
    0.5580   -1.9100    2.9490 H   0  0  0  0  0  0  0  0  0  0  0  0
    0.9550    0.4290    0.3530 N   0  0  0  0  0  0  0  0  0  0  0  0
    1.2540    1.0990   -0.9110 C   0  0  1  0  0  0  0  0  0  0  0  0
    2.6490    1.5910   -0.9550 C   0  0  0  0  0  0  0  0  0  0  0  0
    3.0830    2.3010   -2.1910 C   0  0  0  0  0  0  0  0  0  0  0  0
    2.3520    3.5140   -2.5420 C   0  0  0  0  0  0  0  0  0  0  0  0
    1.3980    3.9470   -1.8730 O   0  0  0  0  0  0  0  0  0  0  0  0
    0.8740    0.1450   -1.9670 C   0  0  0  0  0  0  0  0  0  0  0  0
    1.1520    0.3570   -3.1620 O   0  0  0  0  0  0  0  0  0  0  0  0
    2.7130    4.2660   -3.6880 O   0  0  0  0  0  0  0  0  0  0  0  0
    1.5900   -0.3800    0.6330 H   0  0  0  0  0  0  0  0  0  0  0  0
    0.5550    1.9740   -1.0530 H   0  0  0  0  0  0  0  0  0  0  0  0
    2.9490    2.1660   -0.0460 H   0  0  0  0  0  0  0  0  0  0  0  0
    3.3200    0.6680   -0.8900 H   0  0  0  0  0  0  0  0  0  0  0  0
    4.1990    2.5040   -2.1460 H   0  0  0  0  0  0  0  0  0  0  0  0
    2.9990    1.6050   -3.0740 H   0  0  0  0  0  0  0  0  0  0  0  0
    2.0790    4.9640   -3.9730 H   0  0  0  0  0  0  0  0  0  0  0  0
   -3.6380   -4.3340    2.1700 O   0  0  0  0  0  0  0  0  0  0  0  0
   -2.7500   -4.0940    1.1050 C   0  0  0  0  0  0  0  0  0  0  0  0
   -1.4680   -3.7120    1.3440 C   0  0  0  0  0  0  0  0  0  0  0  0
   -0.5740   -3.4750    0.2970 C   0  0  0  0  0  0  0  0  0  0  0  0
   -1.0290   -3.6370   -0.9830 C   0  0  0  0  0  0  0  0  0  0  0  0
   -0.1390   -3.3990   -2.1400 C   0  0  0  0  0  0  0  0  0  0  0  0
   -0.2020   -2.0180   -2.6680 C   0  0  2  0  0  0  0  0  0  0  0  0
    0.1790   -1.0500   -1.6700 N   0  0  0  0  0  0  0  0  0  0  0  0
   -1.5700   -1.6910   -3.2150 C   0  0  0  0  0  0  0  0  0  0  0  0
   -2.1880   -0.7460   -2.7560 O   0  0  0  0  0  0  0  0  0  0  0  0
   -2.3420   -4.0270   -1.2320 C   0  0  0  0  0  0  0  0  0  0  0  0
   -3.1850   -4.2500   -0.1780 C   0  0  0  0  0  0  0  0  0  0  0  0
   -2.0740   -2.4790   -4.2230 O   0  0  0  0  0  0  0  0  0  0  0  0
   -4.3060   -3.5640    2.3360 H   0  0  0  0  0  0  0  0  0  0  0  0
   -1.1230   -3.5810    2.3510 H   0  0  0  0  0  0  0  0  0  0  0  0
    0.4030   -3.1850    0.5640 H   0  0  0  0  0  0  0  0  0  0  0  0
    0.9160   -3.6810   -1.8530 H   0  0  0  0  0  0  0  0  0  0  0  0
   -0.3930   -4.0920   -2.9930 H   0  0  0  0  0  0  0  0  0  0  0  0
    0.4720   -1.8650   -3.5410 H   0  0  0  0  0  0  0  0  0  0  0  0
   -0.0740   -1.2310   -0.6770 H   0  0  0  0  0  0  0  0  0  0  0  0
   -2.7150   -4.1620   -2.2200 H   0  0  0  0  0  0  0  0  0  0  0  0
   -4.2020   -4.5540   -0.3600 H   0  0  0  0  0  0  0  0  0  0  0  0
  1 10  1  0  0  0  0
  2  1  1  0  0  0  0
  3  2  2  0  0  0  0
  4  2  1  0  0  0  0
  4 12  1  0  0  0  0
  5 14  1  0  0  0  0
  5  4  1  0  0  0  0
  6 16  1  6  0  0  0
  6  7  1  0  0  0  0
  6  5  1  0  0  0  0
  7 18  1  0  0  0  0
  8  6  1  0  0  0  0
  9  8  2  0  0  0  0
 11  1  1  0  0  0  0
 13  4  1  0  0  0  0
 15  5  1  0  0  0  0
 17  7  1  0  0  0  0
 19 28  1  0  0  0  0
 19  8  1  0  0  0  0
 20 29  1  6  0  0  0
 20 19  1  0  0  0  0
 21 20  1  0  0  0  0
 21 31  1  0  0  0  0
 21 30  1  0  0  0  0
 22 32  1  0  0  0  0
 22 21  1  0  0  0  0
 23 22  1  0  0  0  0
 23 24  2  0  0  0  0
 25 42  1  0  0  0  0
 25 20  1  0  0  0  0
 26 25  2  0  0  0  0
 27 23  1  0  0  0  0
 33 22  1  0  0  0  0
 34 27  1  0  0  0  0
 35 48  1  0  0  0  0
 36 37  1  0  0  0  0
 36 35  1  0  0  0  0
 37 49  1  0  0  0  0
 38 50  1  0  0  0  0
 38 37  2  0  0  0  0
 39 38  1  0  0  0  0
 40 51  1  0  0  0  0
 40 39  1  0  0  0  0
 41 53  1  6  0  0  0
 41 40  1  0  0  0  0
 41 42  1  0  0  0  0
 42 54  1  0  0  0  0
 43 44  1  0  0  0  0
 43 41  1  0  0  0  0
 45 39  2  0  0  0  0
 45 46  1  0  0  0  0
 46 36  2  0  0  0  0
 47 43  2  0  0  0  0
 52 40  1  0  0  0  0
 55 45  1  0  0  0  0
 56 46  1  0  0  0  0
M  END
$$$$
