QFA.pdb
 OpenBabel07022418333D

 49 49  0  0  1  0  0  0  0  0999 V2000
    1.5040   -3.4600    3.7420 N   0  0  0  0  0  0  0  0  0  0  0  0
    2.1270   -3.0560    2.5480 C   0  0  0  0  0  0  0  0  0  0  0  0
    2.2880   -3.8740    1.6270 O   0  0  0  0  0  0  0  0  0  0  0  0
    2.5900   -1.6670    2.3850 C   0  0  0  0  0  0  0  0  0  0  0  0
    3.2100   -1.3670    1.0670 C   0  0  0  0  0  0  0  0  0  0  0  0
    2.3310   -1.5640   -0.1360 C   0  0  2  0  0  0  0  0  0  0  0  0
    3.1910   -1.2060   -1.2940 N   0  0  0  0  0  0  0  0  0  0  0  0
    1.1760   -0.6600   -0.2100 C   0  0  0  0  0  0  0  0  0  0  0  0
    1.1470    0.3010   -1.0540 O   0  0  0  0  0  0  0  0  0  0  0  0
    0.9130   -4.3260    3.7610 H   0  0  0  0  0  0  0  0  0  0  0  0
    1.5810   -2.9550    4.6500 H   0  0  0  0  0  0  0  0  0  0  0  0
    3.3870   -1.5400    3.1870 H   0  0  0  0  0  0  0  0  0  0  0  0
    1.8280   -0.9020    2.6950 H   0  0  0  0  0  0  0  0  0  0  0  0
    3.6380   -0.3570    1.0780 H   0  0  0  0  0  0  0  0  0  0  0  0
    4.0870   -2.0710    0.9570 H   0  0  0  0  0  0  0  0  0  0  0  0
    2.0700   -2.6250   -0.3230 H   0  0  0  0  0  0  0  0  0  0  0  0
    4.1420   -1.6330   -1.1240 H   0  0  0  0  0  0  0  0  0  0  0  0
    2.7750   -1.5740   -2.1790 H   0  0  0  0  0  0  0  0  0  0  0  0
    0.0140   -0.7420    0.6050 N   0  0  0  0  0  0  0  0  0  0  0  0
   -1.0930    0.1320    0.5460 C   0  0  1  0  0  0  0  0  0  0  0  0
   -0.7770    1.6170    0.5220 C   0  0  0  0  0  0  0  0  0  0  0  0
   -0.0660    2.0400    1.7350 C   0  0  0  0  0  0  0  0  0  0  0  0
   -0.8210    2.4040    2.8550 C   0  0  0  0  0  0  0  0  0  0  0  0
   -0.2500    2.8250    4.0360 C   0  0  0  0  0  0  0  0  0  0  0  0
    1.1220    2.8710    4.0640 C   0  0  0  0  0  0  0  0  0  0  0  0
    1.8990    2.5250    2.9940 C   0  0  0  0  0  0  0  0  0  0  0  0
    1.2870    2.1090    1.8280 C   0  0  0  0  0  0  0  0  0  0  0  0
   -2.1270   -0.1800   -0.4550 C   0  0  0  0  0  0  0  0  0  0  0  0
   -3.1210    0.5780   -0.5320 O   0  0  0  0  0  0  0  0  0  0  0  0
    0.0290   -1.5540    1.2920 H   0  0  0  0  0  0  0  0  0  0  0  0
   -1.6110    0.0260    1.5690 H   0  0  0  0  0  0  0  0  0  0  0  0
   -0.3270    1.9690   -0.4080 H   0  0  0  0  0  0  0  0  0  0  0  0
   -1.7920    2.1180    0.5440 H   0  0  0  0  0  0  0  0  0  0  0  0
   -1.9110    2.3680    2.8350 H   0  0  0  0  0  0  0  0  0  0  0  0
   -0.8440    3.1060    4.9020 H   0  0  0  0  0  0  0  0  0  0  0  0
    1.6280    3.1940    4.9670 H   0  0  0  0  0  0  0  0  0  0  0  0
    3.0030    2.5750    3.0540 H   0  0  0  0  0  0  0  0  0  0  0  0
    1.9360    1.8460    0.9890 H   0  0  0  0  0  0  0  0  0  0  0  0
   -2.5710   -1.4760   -3.7260 C   0  0  0  0  0  0  0  0  0  0  0  0
   -3.1020   -1.5470   -2.2970 C   0  0  2  0  0  0  0  0  0  0  0  0
   -2.0660   -1.2870   -1.3380 N   0  0  0  0  0  0  0  0  0  0  0  0
   -3.7080   -2.8750   -2.0740 C   0  0  0  0  0  0  0  0  0  0  0  0
   -4.6400   -3.2720   -2.8290 O   0  0  0  0  0  0  0  0  0  0  0  0
   -3.2370   -3.6650   -1.0330 O   0  0  0  0  0  0  0  0  0  0  0  0
   -2.7440   -0.4580   -4.1420 H   0  0  0  0  0  0  0  0  0  0  0  0
   -3.1900   -2.1780   -4.3260 H   0  0  0  0  0  0  0  0  0  0  0  0
   -1.5290   -1.8050   -3.7990 H   0  0  0  0  0  0  0  0  0  0  0  0
   -3.8910   -0.7720   -2.2140 H   0  0  0  0  0  0  0  0  0  0  0  0
   -1.2490   -1.9260   -1.2890 H   0  0  0  0  0  0  0  0  0  0  0  0
  1 10  1  0  0  0  0
  1 11  1  0  0  0  0
  2  1  1  0  0  0  0
  3  2  2  0  0  0  0
  4  2  1  0  0  0  0
  4 13  1  0  0  0  0
  4 12  1  0  0  0  0
  5 14  1  0  0  0  0
  5  4  1  0  0  0  0
  6 16  1  6  0  0  0
  6  5  1  0  0  0  0
  7 17  1  0  0  0  0
  7  6  1  0  0  0  0
  8  6  1  0  0  0  0
  8 19  1  0  0  0  0
  9  8  2  0  0  0  0
 15  5  1  0  0  0  0
 18  7  1  0  0  0  0
 19 30  1  0  0  0  0
 20 19  1  0  0  0  0
 20 31  1  1  0  0  0
 21 33  1  0  0  0  0
 21 20  1  0  0  0  0
 21 22  1  0  0  0  0
 22 27  2  0  0  0  0
 22 23  1  0  0  0  0
 23 24  2  0  0  0  0
 24 25  1  0  0  0  0
 24 35  1  0  0  0  0
 25 36  1  0  0  0  0
 26 37  1  0  0  0  0
 26 25  2  0  0  0  0
 27 26  1  0  0  0  0
 28 20  1  0  0  0  0
 29 28  2  0  0  0  0
 32 21  1  0  0  0  0
 34 23  1  0  0  0  0
 38 27  1  0  0  0  0
 39 40  1  0  0  0  0
 40 48  1  1  0  0  0
 40 42  1  0  0  0  0
 40 41  1  0  0  0  0
 41 49  1  0  0  0  0
 41 28  1  0  0  0  0
 42 44  1  0  0  0  0
 43 42  2  0  0  0  0
 45 39  1  0  0  0  0
 46 39  1  0  0  0  0
 47 39  1  0  0  0  0
M  END
$$$$
