QFD.pdb
 OpenBabel07022418333D

 52 52  0  0  1  0  0  0  0  0999 V2000
    2.3020   -3.6820    2.4120 N   0  0  0  0  0  0  0  0  0  0  0  0
    3.0060   -2.5140    1.9940 C   0  0  0  0  0  0  0  0  0  0  0  0
    3.6390   -1.8970    2.8640 O   0  0  0  0  0  0  0  0  0  0  0  0
    2.9630   -2.0960    0.5960 C   0  0  0  0  0  0  0  0  0  0  0  0
    3.3780   -0.7230    0.2500 C   0  0  0  0  0  0  0  0  0  0  0  0
    2.6000    0.4120    0.8120 C   0  0  2  0  0  0  0  0  0  0  0  0
    2.6460    0.4110    2.2350 N   0  0  0  0  0  0  0  0  0  0  0  0
    1.2060    0.4560    0.2700 C   0  0  0  0  0  0  0  0  0  0  0  0
    1.0280    0.6440   -0.9670 O   0  0  0  0  0  0  0  0  0  0  0  0
    2.6090   -4.6470    2.1850 H   0  0  0  0  0  0  0  0  0  0  0  0
    1.4410   -3.5540    2.9700 H   0  0  0  0  0  0  0  0  0  0  0  0
    3.7000   -2.7860    0.0560 H   0  0  0  0  0  0  0  0  0  0  0  0
    1.9760   -2.3400    0.1140 H   0  0  0  0  0  0  0  0  0  0  0  0
    3.3670   -0.6150   -0.8590 H   0  0  0  0  0  0  0  0  0  0  0  0
    4.4470   -0.5530    0.5350 H   0  0  0  0  0  0  0  0  0  0  0  0
    3.1090    1.3550    0.4760 H   0  0  0  0  0  0  0  0  0  0  0  0
    3.5980    0.7660    2.5550 H   0  0  0  0  0  0  0  0  0  0  0  0
    1.8970    1.0000    2.6830 H   0  0  0  0  0  0  0  0  0  0  0  0
    0.0520    0.2950    1.0770 N   0  0  0  0  0  0  0  0  0  0  0  0
   -1.2910    0.3490    0.6240 C   0  0  1  0  0  0  0  0  0  0  0  0
   -1.6280    1.4870   -0.3280 C   0  0  0  0  0  0  0  0  0  0  0  0
   -1.4270    2.8240    0.2910 C   0  0  0  0  0  0  0  0  0  0  0  0
   -0.2650    3.5440    0.1760 C   0  0  0  0  0  0  0  0  0  0  0  0
   -0.1360    4.7910    0.8010 C   0  0  0  0  0  0  0  0  0  0  0  0
   -1.2040    5.2650    1.5250 C   0  0  0  0  0  0  0  0  0  0  0  0
   -2.3650    4.5350    1.6330 C   0  0  0  0  0  0  0  0  0  0  0  0
   -2.4990    3.3140    1.0260 C   0  0  0  0  0  0  0  0  0  0  0  0
   -1.9190   -0.9030    0.2150 C   0  0  0  0  0  0  0  0  0  0  0  0
   -3.1200   -0.8240   -0.1890 O   0  0  0  0  0  0  0  0  0  0  0  0
    0.2530    0.1060    2.1140 H   0  0  0  0  0  0  0  0  0  0  0  0
   -1.8770    0.6980    1.5630 H   0  0  0  0  0  0  0  0  0  0  0  0
   -1.1230    1.4230   -1.3000 H   0  0  0  0  0  0  0  0  0  0  0  0
   -2.7120    1.3900   -0.5510 H   0  0  0  0  0  0  0  0  0  0  0  0
    0.5900    3.2020   -0.3920 H   0  0  0  0  0  0  0  0  0  0  0  0
    0.8020    5.3550    0.6990 H   0  0  0  0  0  0  0  0  0  0  0  0
   -1.0920    6.2220    1.9980 H   0  0  0  0  0  0  0  0  0  0  0  0
   -3.2150    4.9200    2.2140 H   0  0  0  0  0  0  0  0  0  0  0  0
   -3.4380    2.7580    1.1310 H   0  0  0  0  0  0  0  0  0  0  0  0
   -1.3470   -2.1870    0.2180 N   0  0  0  0  0  0  0  0  0  0  0  0
   -2.0450   -3.4020   -0.2090 C   0  0  1  0  0  0  0  0  0  0  0  0
   -1.2820   -4.1850   -1.1990 C   0  0  0  0  0  0  0  0  0  0  0  0
   -2.0280   -5.3570   -1.6580 C   0  0  0  0  0  0  0  0  0  0  0  0
   -3.2130   -5.5390   -1.3350 O   0  0  0  0  0  0  0  0  0  0  0  0
   -2.1220   -4.2410    1.0510 C   0  0  0  0  0  0  0  0  0  0  0  0
   -2.6710   -5.3590    1.0690 O   0  0  0  0  0  0  0  0  0  0  0  0
   -1.4490   -6.3430   -2.4860 O   0  0  0  0  0  0  0  0  0  0  0  0
   -1.5820   -3.8070    2.2580 O   0  0  0  0  0  0  0  0  0  0  0  0
   -0.3680   -2.2750    0.5460 H   0  0  0  0  0  0  0  0  0  0  0  0
   -3.0800   -3.2310   -0.5240 H   0  0  0  0  0  0  0  0  0  0  0  0
   -0.3520   -4.5700   -0.7030 H   0  0  0  0  0  0  0  0  0  0  0  0
   -0.9520   -3.6230   -2.0930 H   0  0  0  0  0  0  0  0  0  0  0  0
   -1.9700   -6.7330   -3.2700 H   0  0  0  0  0  0  0  0  0  0  0  0
  1 11  1  0  0  0  0
  2  1  1  0  0  0  0
  2  3  2  0  0  0  0
  4  2  1  0  0  0  0
  5 15  1  0  0  0  0
  5  4  1  0  0  0  0
  5  6  1  0  0  0  0
  6 16  1  6  0  0  0
  6  7  1  0  0  0  0
  7 17  1  0  0  0  0
  7 18  1  0  0  0  0
  8  6  1  0  0  0  0
  8 19  1  0  0  0  0
  9  8  2  0  0  0  0
 10  1  1  0  0  0  0
 12  4  1  0  0  0  0
 13  4  1  0  0  0  0
 14  5  1  0  0  0  0
 19 30  1  0  0  0  0
 20 19  1  0  0  0  0
 20 31  1  1  0  0  0
 21 22  1  0  0  0  0
 21 20  1  0  0  0  0
 22 27  1  0  0  0  0
 23 22  2  0  0  0  0
 23 24  1  0  0  0  0
 24 25  2  0  0  0  0
 25 26  1  0  0  0  0
 25 36  1  0  0  0  0
 26 37  1  0  0  0  0
 27 38  1  0  0  0  0
 27 26  2  0  0  0  0
 28 39  1  0  0  0  0
 28 20  1  0  0  0  0
 29 28  2  0  0  0  0
 32 21  1  0  0  0  0
 33 21  1  0  0  0  0
 34 23  1  0  0  0  0
 35 24  1  0  0  0  0
 39 48  1  0  0  0  0
 40 49  1  6  0  0  0
 40 39  1  0  0  0  0
 40 44  1  0  0  0  0
 41 50  1  0  0  0  0
 41 40  1  0  0  0  0
 42 43  2  0  0  0  0
 42 41  1  0  0  0  0
 44 45  2  0  0  0  0
 44 47  1  0  0  0  0
 46 42  1  0  0  0  0
 51 41  1  0  0  0  0
 52 46  1  0  0  0  0
M  END
$$$$
