QFE.pdb
 OpenBabel07022418333D

 55 55  0  0  1  0  0  0  0  0999 V2000
    1.6290   -0.8920    5.4270 N   0  0  0  0  0  0  0  0  0  0  0  0
    1.9960    0.2140    4.6310 C   0  0  0  0  0  0  0  0  0  0  0  0
    1.0520    0.8670    4.0720 O   0  0  0  0  0  0  0  0  0  0  0  0
    3.3760    0.6830    4.3940 C   0  0  0  0  0  0  0  0  0  0  0  0
    3.5230    1.4650    3.1260 C   0  0  0  0  0  0  0  0  0  0  0  0
    3.3090    0.7410    1.8490 C   0  0  2  0  0  0  0  0  0  0  0  0
    3.4620    1.7260    0.7760 N   0  0  0  0  0  0  0  0  0  0  0  0
    2.1510   -0.1220    1.7150 C   0  0  0  0  0  0  0  0  0  0  0  0
    2.1300   -1.2500    2.3270 O   0  0  0  0  0  0  0  0  0  0  0  0
    0.8680   -1.5610    5.1310 H   0  0  0  0  0  0  0  0  0  0  0  0
    2.0900   -1.0930    6.3340 H   0  0  0  0  0  0  0  0  0  0  0  0
    3.6600    1.3970    5.2260 H   0  0  0  0  0  0  0  0  0  0  0  0
    4.1110   -0.1540    4.3950 H   0  0  0  0  0  0  0  0  0  0  0  0
    4.5070    2.0000    3.1600 H   0  0  0  0  0  0  0  0  0  0  0  0
    2.7490    2.2680    3.1710 H   0  0  0  0  0  0  0  0  0  0  0  0
    4.2460    0.0930    1.7190 H   0  0  0  0  0  0  0  0  0  0  0  0
    4.4700    1.9770    0.6460 H   0  0  0  0  0  0  0  0  0  0  0  0
    3.0030    2.6300    1.0920 H   0  0  0  0  0  0  0  0  0  0  0  0
    1.0050    0.2100    0.9260 N   0  0  0  0  0  0  0  0  0  0  0  0
   -0.1140   -0.6870    0.8310 C   0  0  1  0  0  0  0  0  0  0  0  0
   -1.3380   -0.0680    1.4490 C   0  0  0  0  0  0  0  0  0  0  0  0
   -1.7620    1.1880    0.8370 C   0  0  0  0  0  0  0  0  0  0  0  0
   -1.3060    2.4310    1.2590 C   0  0  0  0  0  0  0  0  0  0  0  0
   -1.7310    3.5970    0.6560 C   0  0  0  0  0  0  0  0  0  0  0  0
   -2.6280    3.5830   -0.3920 C   0  0  0  0  0  0  0  0  0  0  0  0
   -3.0880    2.3550   -0.8190 C   0  0  0  0  0  0  0  0  0  0  0  0
   -2.6580    1.1970   -0.2110 C   0  0  0  0  0  0  0  0  0  0  0  0
   -0.3250   -1.2140   -0.5330 C   0  0  0  0  0  0  0  0  0  0  0  0
    0.4130   -0.8670   -1.5170 O   0  0  0  0  0  0  0  0  0  0  0  0
    1.0580    1.1330    0.4430 H   0  0  0  0  0  0  0  0  0  0  0  0
    0.1310   -1.5680    1.4620 H   0  0  0  0  0  0  0  0  0  0  0  0
   -2.1660   -0.8100    1.3530 H   0  0  0  0  0  0  0  0  0  0  0  0
   -1.1570    0.0560    2.5250 H   0  0  0  0  0  0  0  0  0  0  0  0
   -0.6030    2.4950    2.0750 H   0  0  0  0  0  0  0  0  0  0  0  0
   -1.3800    4.5770    0.9780 H   0  0  0  0  0  0  0  0  0  0  0  0
   -2.9720    4.4950   -0.8770 H   0  0  0  0  0  0  0  0  0  0  0  0
   -3.7930    2.3690   -1.6450 H   0  0  0  0  0  0  0  0  0  0  0  0
   -3.0560    0.2690   -0.5920 H   0  0  0  0  0  0  0  0  0  0  0  0
   -1.3480   -2.1390   -0.8600 N   0  0  0  0  0  0  0  0  0  0  0  0
   -1.5500   -2.6630   -2.2220 C   0  0  1  0  0  0  0  0  0  0  0  0
   -1.1780   -4.1380   -2.0890 C   0  0  0  0  0  0  0  0  0  0  0  0
   -1.2930   -4.9120   -3.3530 C   0  0  0  0  0  0  0  0  0  0  0  0
   -0.8900   -6.3330   -3.0620 C   0  0  0  0  0  0  0  0  0  0  0  0
   -0.8890   -7.2140   -3.9560 O   0  0  0  0  0  0  0  0  0  0  0  0
   -2.9670   -2.5570   -2.6160 C   0  0  0  0  0  0  0  0  0  0  0  0
   -3.7950   -2.0900   -1.7570 O   0  0  0  0  0  0  0  0  0  0  0  0
   -0.5040   -6.7180   -1.7870 O   0  0  0  0  0  0  0  0  0  0  0  0
   -3.4820   -2.9170   -3.8340 O   0  0  0  0  0  0  0  0  0  0  0  0
   -2.0030   -2.4830   -0.1330 H   0  0  0  0  0  0  0  0  0  0  0  0
   -0.8370   -2.2040   -2.9320 H   0  0  0  0  0  0  0  0  0  0  0  0
   -1.9130   -4.5430   -1.3320 H   0  0  0  0  0  0  0  0  0  0  0  0
   -0.1920   -4.2270   -1.5970 H   0  0  0  0  0  0  0  0  0  0  0  0
   -0.5130   -4.5410   -4.0700 H   0  0  0  0  0  0  0  0  0  0  0  0
   -2.2610   -4.8690   -3.8420 H   0  0  0  0  0  0  0  0  0  0  0  0
   -0.4790   -7.6990   -1.5240 H   0  0  0  0  0  0  0  0  0  0  0  0
  1 11  1  0  0  0  0
  2  1  1  0  0  0  0
  3  2  2  0  0  0  0
  4 13  1  0  0  0  0
  4  2  1  0  0  0  0
  4 12  1  0  0  0  0
  5 14  1  0  0  0  0
  5 15  1  0  0  0  0
  5  4  1  0  0  0  0
  6 16  1  6  0  0  0
  6  5  1  0  0  0  0
  7 18  1  0  0  0  0
  7  6  1  0  0  0  0
  8  6  1  0  0  0  0
  8  9  2  0  0  0  0
 10  1  1  0  0  0  0
 17  7  1  0  0  0  0
 19  8  1  0  0  0  0
 20 19  1  0  0  0  0
 20 21  1  0  0  0  0
 20 31  1  1  0  0  0
 21 33  1  0  0  0  0
 22 23  1  0  0  0  0
 22 21  1  0  0  0  0
 23 34  1  0  0  0  0
 24 35  1  0  0  0  0
 24 23  2  0  0  0  0
 25 24  1  0  0  0  0
 26 25  2  0  0  0  0
 26 27  1  0  0  0  0
 27 22  2  0  0  0  0
 28 20  1  0  0  0  0
 29 28  2  0  0  0  0
 30 19  1  0  0  0  0
 32 21  1  0  0  0  0
 36 25  1  0  0  0  0
 37 26  1  0  0  0  0
 38 27  1  0  0  0  0
 39 28  1  0  0  0  0
 39 49  1  0  0  0  0
 40 50  1  6  0  0  0
 40 41  1  0  0  0  0
 40 39  1  0  0  0  0
 41 52  1  0  0  0  0
 41 51  1  0  0  0  0
 42 43  1  0  0  0  0
 42 41  1  0  0  0  0
 43 47  1  0  0  0  0
 44 43  2  0  0  0  0
 45 40  1  0  0  0  0
 45 46  1  0  0  0  0
 47 55  1  0  0  0  0
 48 45  2  0  0  0  0
 53 42  1  0  0  0  0
 54 42  1  0  0  0  0
M  END
$$$$
